drugbank_target|P11998 6,7-dimethyl-8-ribityllumazine synthase (DB04162)
 OpenBabel12092119593D

  0  0  0     0  0            999 V3000
M  V30 BEGIN CTAB
M  V30 COUNTS 2301 2316 0 0 0
M  V30 BEGIN ATOM
M  V30 1 H -0.908 1.98254 -0.117106 0
M  V30 2 N 0 1.576 0 0
M  V30 3 C 0.933 2.03868 1.02534 0
M  V30 4 C 1.911 0.928543 1.3348 0
M  V30 5 O 3.095 1.19667 1.45644 0
M  V30 6 C 0.222 2.43627 2.35294 0
M  V30 7 C -0.732 3.65373 2.2001 0
M  V30 8 S 0.101 5.13292 1.52614 0
M  V30 9 C 1.257 5.56322 2.86805 0
M  V30 10 H 1.49 2.90518 0.631377 0
M  V30 11 H -0.977 1.52953 0.210867 0
M  V30 12 H 0.981 2.67203 3.11629 0
M  V30 13 H -0.358 1.57376 2.7183 0
M  V30 14 H -1.165 3.90944 3.18086 0
M  V30 15 H -1.563 3.418 1.51819 0
M  V30 16 H 0.729 5.58782 3.83104 0
M  V30 17 H 1.672 6.56266 2.65933 0
M  V30 18 H 2.08 4.83886 2.90714 0
M  V30 19 N 1.4781 -0.272755 1.55222 0
M  V30 20 C 2.4261 -1.35705 1.88909 0
M  V30 21 C 3.4201 -1.5112 0.765456 0
M  V30 22 O 4.6261 -1.52901 0.949802 0
M  V30 23 H 1.0011 -0.453868 0.59959 0
M  V30 24 H 2.9721 -1.04544 2.79487 0
M  V30 25 C 1.7211 -2.71049 2.17779 0
M  V30 26 H 1.0441 -2.59979 3.03728 0
M  V30 27 H 2.4841 -3.45858 2.45272 0
M  V30 28 C 0.9431 -3.22165 0.985473 0
M  V30 29 O 1.4731 -4.01096 0.220233 0
M  V30 30 N -0.3209 -2.7985 0.783108 0
M  V30 31 H -0.7739 -2.15775 1.40708 0
M  V30 32 H -0.8159 -3.14397 -0.0130392 0
M  V30 33 N 2.9562 -1.48159 -0.537278 0
M  V30 34 C 4.2052 -1.5506 -1.28993 0
M  V30 35 C 4.5182 -0.226211 -1.94288 0
M  V30 36 O 5.7242 -0.173395 -2.70946 0
M  V30 37 C 4.1802 -2.73429 -2.34018 0
M  V30 38 C 3.7882 -4.1248 -1.74825 0
M  V30 39 C 5.5322 -2.89638 -3.10339 0
M  V30 40 C 3.4392 -5.22121 -2.77747 0
M  V30 41 H 2.3692 -0.577231 -0.485098 0
M  V30 42 H 5.0202 -1.74478 -0.568317 0
M  V30 43 H 3.4022 -2.47431 -3.09182 0
M  V30 44 H 4.5762 -4.48466 -1.05899 0
M  V30 45 H 2.8912 -4.01327 -1.11022 0
M  V30 46 H 5.4882 -3.68718 -3.87235 0
M  V30 47 H 5.8312 -1.9882 -3.65754 0
M  V30 48 H 6.3642 -3.15502 -2.42288 0
M  V30 49 H 3.1032 -6.1488 -2.27161 0
M  V30 50 H 2.6232 -4.90631 -3.45024 0
M  V30 51 H 4.3022 -5.49924 -3.4087 0
M  V30 52 N 4.4343 0.785586 -1.36625 0
M  V30 53 C 5.6833 1.53883 -1.30396 0
M  V30 54 C 5.9963 1.95271 0.113452 0
M  V30 55 O 7.2023 2.69858 0.298142 0
M  V30 56 C 5.6583 2.77808 -2.28802 0
M  V30 57 C 5.2663 2.43574 -3.75999 0
M  V30 58 C 7.0103 3.55783 -2.31558 0
M  V30 59 C 4.9173 3.63919 -4.66173 0
M  V30 60 H 3.8473 0.577678 -0.484566 0
M  V30 61 H 6.4983 0.861705 -1.62009 0
M  V30 62 H 4.8803 3.47339 -1.90188 0
M  V30 63 H 6.0543 1.81916 -4.23371 0
M  V30 64 H 4.3693 1.78803 -3.76056 0
M  V30 65 H 6.9663 4.45205 -2.96137 0
M  V30 66 H 7.3093 3.94644 -1.3252 0
M  V30 67 H 7.8423 2.93235 -2.68809 0
M  V30 68 H 4.5813 3.3015 -5.66287 0
M  V30 69 H 4.1013 4.2473 -4.23515 0
M  V30 70 H 5.7803 4.30901 -4.82632 0
M  V30 71 N 5.9124 1.20967 1.01018 0
M  V30 72 C 6.8444 0.922059 2.09835 0
M  V30 73 C 7.8574 -0.0927106 1.62536 0
M  V30 74 O 9.0464 0.139127 1.77957 0
M  V30 75 C 6.1464 0.362004 3.36961 0
M  V30 76 C 5.3194 1.42986 4.13369 0
M  V30 77 C 4.3784 0.879976 5.1879 0
M  V30 78 O 3.4044 1.56219 5.47343 0
M  V30 79 N 4.6064 -0.307396 5.79686 0
M  V30 80 H 7.3714 1.8588 2.35093 0
M  V30 81 H 4.9324 1.11422 1.1746 0
M  V30 82 H 6.9244 -0.0201474 4.04695 0
M  V30 83 H 5.4944 -0.479437 3.08902 0
M  V30 84 H 4.7144 1.98608 3.40512 0
M  V30 85 H 6.0024 2.14885 4.61196 0
M  V30 86 H 5.4004 -0.878796 5.58832 0
M  V30 87 H 3.9574 -0.631115 6.48737 0
M  V30 88 N 7.3905 -1.2043 1.01659 0
M  V30 89 C 8.6385 -1.89423 0.704522 0
M  V30 90 C 8.9595 -1.79231 -0.768197 0
M  V30 91 O 8.2295 -1.1947 -1.55254 0
M  V30 92 H 6.8095 -0.701178 0.257602 0
M  V30 93 H 9.4715 -1.4626 1.28818 0
M  V30 94 H 8.5675 -2.96052 0.987916 0
M  V30 95 N 8.8686 -0.792821 -1.36206 0
M  V30 96 C 9.8166 -0.181555 -2.3189 0
M  V30 97 C 10.8106 0.661025 -1.55971 0
M  V30 98 O 12.0166 0.555728 -1.71206 0
M  V30 99 H 8.3916 -0.0399382 -0.750939 0
M  V30 100 H 10.3626 -1.00394 -2.81005 0
M  V30 101 C 9.1116 0.666444 -3.41253 0
M  V30 102 H 8.4346 0.0274489 -3.99791 0
M  V30 103 H 9.8746 1.06076 -4.10517 0
M  V30 104 C 8.3336 1.82614 -2.83114 0
M  V30 105 O 8.8636 2.9229 -2.75553 0
M  V30 106 N 7.0696 1.63333 -2.40356 0
M  V30 107 H 6.6166 0.741217 -2.46706 0
M  V30 108 H 6.5746 2.41087 -2.01803 0
M  V30 109 N 10.3467 1.47872 -0.545128 0
M  V30 110 C 11.2767 2.32661 0.197793 0
M  V30 111 C 12.2577 1.43041 0.920504 0
M  V30 112 O 13.4427 1.71912 0.90333 0
M  V30 113 C 10.5727 3.24569 1.23582 0
M  V30 114 C 9.5267 4.23333 0.630323 0
M  V30 115 C 8.8527 5.0448 1.77211 0
M  V30 116 C 10.1527 5.20704 -0.407974 0
M  V30 117 H 11.8467 2.95024 -0.510045 0
M  V30 118 H 9.3927 1.4187 -0.246731 0
M  V30 119 H 11.3457 3.8272 1.76362 0
M  V30 120 H 10.0697 2.60236 1.97344 0
M  V30 121 H 8.7287 3.6639 0.123922 0
M  V30 122 H 8.3767 4.36561 2.49847 0
M  V30 123 H 8.0767 5.71339 1.37281 0
M  V30 124 H 9.6007 5.65487 2.3034 0
M  V30 125 H 11.0147 5.7329 0.033305 0
M  V30 126 H 9.4117 5.95699 -0.725486 0
M  V30 127 H 10.4817 4.66917 -1.30828 0
M  V30 128 N 11.8248 0.280983 1.55075 0
M  V30 129 C 13.0708 -0.33461 2.00021 0
M  V30 130 C 13.4038 -1.55063 1.16915 0
M  V30 131 O 12.6788 -1.93006 0.240646 0
M  V30 132 C 12.9618 -0.711007 3.53011 0
M  V30 133 C 12.8148 0.512766 4.46868 0
M  V30 134 C 14.1338 -1.54522 4.12081 0
M  V30 135 H 11.2528 -0.120147 0.727141 0
M  V30 136 H 13.8948 0.389097 1.85973 0
M  V30 137 H 12.0448 -1.32761 3.65112 0
M  V30 138 H 13.7168 1.15131 4.46702 0
M  V30 139 H 11.9598 1.14975 4.18286 0
M  V30 140 H 12.6308 0.205556 5.51617 0
M  V30 141 H 15.1068 -1.02442 4.03293 0
M  V30 142 H 13.9828 -1.77739 5.19327 0
M  V30 143 H 14.2438 -2.52813 3.62682 0
M  V30 144 N 13.3029 -1.57598 0.00835791 0
M  V30 145 C 14.5509 -1.90551 -0.6734 0
M  V30 146 C 14.8719 -0.883301 -1.73847 0
M  V30 147 O 14.1419 0.0781442 -1.95744 0
M  V30 148 H 12.7219 -0.703312 -0.251717 0
M  V30 149 H 15.3839 -1.94833 0.0512592 0
M  V30 150 H 14.4799 -2.9056 -1.13935 0
M  V30 151 N 14.781 0.264519 -1.55364 0
M  V30 152 C 16.009 1.013 -1.80405 0
M  V30 153 C 16.424 1.79618 -0.581622 0
M  V30 154 O 15.781 1.76879 0.449468 0
M  V30 155 C 15.832 1.96487 -3.03439 0
M  V30 156 O 15.553 1.21341 -4.20961 0
M  V30 157 C 17.054 2.83079 -3.41147 0
M  V30 158 H 14.274 0.298875 -0.600762 0
M  V30 159 H 16.818 0.292736 -2.02394 0
M  V30 160 H 14.973 2.63965 -2.83551 0
M  V30 161 H 15.387 1.85573 -4.90574 0
M  V30 162 H 16.861 3.4565 -4.30384 0
M  V30 163 H 17.338 3.53286 -2.60932 0
M  V30 164 H 17.944 2.2108 -3.63323 0
M  V30 165 N 16.2591 1.48442 0.529413 0
M  V30 166 C 17.5071 1.56179 1.28267 0
M  V30 167 C 17.8281 0.237721 1.93546 0
M  V30 168 O 17.0981 -0.740779 1.81354 0
M  V30 169 H 15.6781 0.575367 0.476405 0
M  V30 170 H 18.3401 1.84909 0.61602 0
M  V30 171 H 17.4361 2.34312 2.06165 0
M  V30 172 N 17.7372 -0.778329 1.37039 0
M  V30 173 C 18.6672 -1.90546 1.34962 0
M  V30 174 C 19.6482 -1.68681 0.219274 0
M  V30 175 O 20.8332 -1.89634 0.418624 0
M  V30 176 C 17.9632 -3.27734 1.14925 0
M  V30 177 C 16.9172 -3.64147 2.24902 0
M  V30 178 C 16.2432 -4.99806 1.89996 0
M  V30 179 C 17.5432 -3.71579 3.67051 0
M  V30 180 H 19.2372 -1.92541 2.29277 0
M  V30 181 H 16.7832 -0.924948 1.10366 0
M  V30 182 H 18.7362 -4.06215 1.12104 0
M  V30 183 H 17.4602 -3.26154 0.170631 0
M  V30 184 H 16.1192 -2.8797 2.26868 0
M  V30 185 H 15.7672 -4.94759 0.906796 0
M  V30 186 H 15.4672 -5.25139 2.63634 0
M  V30 187 H 16.9912 -5.80694 1.88749 0
M  V30 188 H 18.4052 -4.40227 3.67251 0
M  V30 189 H 16.8022 -4.08405 4.39688 0
M  V30 190 H 17.8722 -2.72404 4.01154 0
M  V30 191 N 19.2153 -1.21501 -1.00376 0
M  V30 192 C 20.1623 -0.975387 -2.09177 0
M  V30 193 C 21.1323 0.0990615 -1.65804 0
M  V30 194 O 22.3173 -0.0483147 -1.90739 0
M  V30 195 C 19.4573 -0.547507 -3.40729 0
M  V30 196 C 18.5703 -1.69153 -3.97506 0
M  V30 197 C 17.7053 -1.2127 -5.17172 0
M  V30 198 C 16.7443 -2.32897 -5.66061 0
M  V30 199 N 15.8813 -1.86138 -6.76976 0
M  V30 200 H 20.7213 -1.9068 -2.29009 0
M  V30 201 H 18.2583 -0.950257 -1.12288 0
M  V30 202 H 20.2163 -0.280667 -4.16255 0
M  V30 203 H 18.8463 0.346904 -3.20931 0
M  V30 204 H 17.8983 -2.07298 -3.18954 0
M  V30 205 H 19.2103 -2.5316 -4.29781 0
M  V30 206 H 18.3643 -0.902591 -5.99948 0
M  V30 207 H 17.1033 -0.342692 -4.86495 0
M  V30 208 H 16.1083 -2.64709 -4.81881 0
M  V30 209 H 17.3333 -3.20396 -5.98768 0
M  V30 210 H 15.2793 -1.01484 -6.48103 0
M  V30 211 H 15.1963 -2.63717 -7.08512 0
M  V30 212 H 16.4643 -1.58165 -7.63285 0
M  V30 213 N 20.6934 1.19889 -1.02296 0
M  V30 214 C 21.9424 1.88743 -0.711257 0
M  V30 215 C 22.2554 1.80112 0.762817 0
M  V30 216 O 23.4614 2.44161 1.18733 0
M  V30 217 C 21.9174 3.38525 -1.22185 0
M  V30 218 C 21.5254 3.55727 -2.72328 0
M  V30 219 C 23.2694 4.12893 -0.985864 0
M  V30 220 C 21.1764 4.99369 -3.16835 0
M  V30 221 H 20.1064 0.706885 -0.262353 0
M  V30 222 H 22.7574 1.35586 -1.23648 0
M  V30 223 H 21.1394 3.91044 -0.624571 0
M  V30 224 H 22.3134 3.13564 -3.3766 0
M  V30 225 H 20.6284 2.94739 -2.9414 0
M  V30 226 H 23.2254 5.18813 -1.29374 0
M  V30 227 H 23.5684 4.16228 0.0775055 0
M  V30 228 H 24.1014 3.66494 -1.54684 0
M  V30 229 H 20.8404 5.01193 -4.22476 0
M  V30 230 H 20.3604 5.42317 -2.56228 0
M  V30 231 H 22.0394 5.67988 -3.09837 0
M  V30 232 N 22.1715 0.800033 1.35784 0
M  V30 233 C 23.4195 0.376597 1.9856 0
M  V30 234 C 23.7405 -1.05812 1.63795 0
M  V30 235 O 23.0105 -1.73103 0.917171 0
M  V30 236 H 21.5905 0.136261 0.734467 0
M  V30 237 H 24.2525 1.02442 1.65806 0
M  V30 238 H 23.3485 0.477002 3.08433 0
M  V30 239 N 23.6496 -1.47581 0.552962 0
M  V30 240 C 24.8986 -2.01684 0.0251995 0
M  V30 241 C 25.2116 -1.43317 -1.33115 0
M  V30 242 O 26.4176 -1.89057 -1.94858 0
M  V30 243 C 24.8736 -3.599 -0.00542052 0
M  V30 244 C 24.4816 -4.27257 1.34742 0
M  V30 245 C 26.2256 -4.21768 -0.4808 0
M  V30 246 C 24.1326 -5.77467 1.27614 0
M  V30 247 H 23.0626 -0.753979 0.00565033 0
M  V30 248 H 25.7136 -1.69616 0.70018 0
M  V30 249 H 24.0956 -3.88911 -0.745961 0
M  V30 250 H 25.2696 -4.09893 2.10534 0
M  V30 251 H 23.5846 -3.77358 1.76039 0
M  V30 252 H 26.1816 -5.31838 -0.55246 0
M  V30 253 H 26.5246 -3.88651 -1.49184 0
M  V30 254 H 27.0576 -3.97273 0.204752 0
M  V30 255 H 23.7966 -6.15196 2.26304 0
M  V30 256 H 23.3166 -5.9718 0.55996 0
M  V30 257 H 24.9956 -6.3959 0.976421 0
M  V30 258 N 25.1277 -0.289203 -1.54924 0
M  V30 259 C 26.3737 0.323998 -2.00195 0
M  V30 260 C 26.7067 1.54441 -1.17735 0
M  V30 261 O 25.9817 1.92875 -0.250878 0
M  V30 262 C 26.2647 0.692276 -3.53383 0
M  V30 263 C 26.1177 -0.536457 -4.46589 0
M  V30 264 C 27.4367 1.52335 -4.12895 0
M  V30 265 H 24.5557 0.116289 -0.727768 0
M  V30 266 H 27.1977 -0.398954 -1.85764 0
M  V30 267 H 25.3477 1.30822 -3.65811 0
M  V30 268 H 27.0197 -1.17499 -4.46085 0
M  V30 269 H 25.2627 -1.17192 -4.1767 0
M  V30 270 H 25.9337 -0.234806 -5.515 0
M  V30 271 H 28.4097 1.00302 -4.0383 0
M  V30 272 H 27.2857 1.74982 -5.20262 0
M  V30 273 H 27.5467 2.50886 -3.64018 0
M  V30 274 N 26.6058 1.57591 -0.0167156 0
M  V30 275 C 27.8518 1.91567 0.665582 0
M  V30 276 C 28.1848 0.892298 1.72487 0
M  V30 277 O 27.4598 -0.0867127 1.94307 0
M  V30 278 C 27.7428 3.36069 1.29342 0
M  V30 279 C 27.5958 4.49135 0.244541 0
M  V30 280 C 28.9148 3.803 2.21495 0
M  V30 281 H 26.0338 0.69666 0.240488 0
M  V30 282 H 28.6758 1.89866 -0.0714356 0
M  V30 283 H 26.8258 3.3765 1.92158 0
M  V30 284 H 28.4978 4.59689 -0.385228 0
M  V30 285 H 26.7408 4.3165 -0.431379 0
M  V30 286 H 27.4118 5.47242 0.723207 0
M  V30 287 H 29.8878 3.80377 1.68678 0
M  V30 288 H 28.7638 4.82127 2.62382 0
M  V30 289 H 29.0248 3.15104 3.101 0
M  V30 290 N 28.0839 -0.256276 1.55502 0
M  V30 291 C 29.3319 -0.983672 1.76545 0
M  V30 292 C 29.6529 -1.86206 0.578982 0
M  V30 293 O 28.9229 -1.91656 -0.405577 0
M  V30 294 H 27.5029 -0.366191 0.651086 0
M  V30 295 H 30.1649 -0.276479 1.92929 0
M  V30 296 H 29.2609 -1.61087 2.67315 0
M  V30 297 N 29.562 -1.4872 -0.521534 0
M  V30 298 C 30.978 -1.35028 -0.850855 0
M  V30 299 C 31.178 -0.367712 -1.98116 0
M  V30 300 O 30.234 0.208037 -2.51642 0
M  V30 301 C 31.547 -2.75263 -1.21041 0
M  V30 302 C 33.095 -2.83813 -1.31981 0
M  V30 303 C 33.57 -4.24769 -1.71276 0
M  V30 304 N 35.061 -4.27482 -1.78363 0
M  V30 305 C 35.796 -5.33494 -2.1017 0
M  V30 306 N 35.292 -6.49775 -2.40343 0
M  V30 307 N 37.085 -5.20894 -2.11248 0
M  V30 308 H 29.236 -2.11214 0.22413 0
M  V30 309 H 31.499 -0.947252 0.0376439 0
M  V30 310 H 31.205 -3.48765 -0.453415 0
M  V30 311 H 31.079 -3.09327 -2.15863 0
M  V30 312 H 33.466 -2.10561 -2.06756 0
M  V30 313 H 33.547 -2.53358 -0.352596 0
M  V30 314 H 33.191 -4.9854 -0.970588 0
M  V30 315 H 33.121 -4.52673 -2.69062 0
M  V30 316 H 35.612 -3.43611 -1.57288 0
M  V30 317 H 35.925 -7.26402 -2.63743 0
M  V30 318 H 34.27 -6.53035 -2.37844 0
M  V30 319 H 37.461 -4.29065 -1.87139 0
M  V30 320 H 37.634 -6.03612 -2.35704 0
M  V30 321 N 31.0401 0.771051 -1.3745 0
M  V30 322 C 32.2871 1.52963 -1.32697 0
M  V30 323 C 32.6151 1.94299 0.0883274 0
M  V30 324 O 31.8701 1.64397 1.0617 0
M  V30 325 C 32.1691 2.80676 -2.2126 0
M  V30 326 C 31.8351 2.58389 -3.69521 0
M  V30 327 C 30.4971 2.52019 -4.09927 0
M  V30 328 C 32.8491 2.38469 -4.63446 0
M  V30 329 C 30.1771 2.23721 -5.42371 0
M  V30 330 C 32.5291 2.11694 -5.96128 0
M  V30 331 C 31.1931 2.03769 -6.35637 0
M  V30 332 H 30.4631 0.559732 -0.485573 0
M  V30 333 H 33.1101 0.888083 -1.69662 0
M  V30 334 H 31.4151 3.49392 -1.77291 0
M  V30 335 H 33.1121 3.38557 -2.14895 0
M  V30 336 H 29.7021 2.6421 -3.37478 0
M  V30 337 H 33.8861 2.4238 -4.33089 0
M  V30 338 H 29.1421 2.16081 -5.71943 0
M  V30 339 H 33.3161 1.9528 -6.6846 0
M  V30 340 H 30.9431 1.81606 -7.38189 0
M  V30 341 N 32.5182 1.22032 0.997298 0
M  V30 342 C 33.4662 0.983634 2.10778 0
M  V30 343 C 34.4602 -0.0717564 1.69248 0
M  V30 344 O 35.6662 0.080304 1.79821 0
M  V30 345 H 32.0412 0.300877 0.689186 0
M  V30 346 H 34.0122 1.92606 2.27916 0
M  V30 347 C 32.7612 0.57326 3.42942 0
M  V30 348 H 32.0842 1.37702 3.75338 0
M  V30 349 H 33.5242 0.447031 4.21637 0
M  V30 350 C 31.9832 -0.7167 3.29188 0
M  V30 351 O 32.5132 -1.77027 3.60589 0
M  V30 352 N 30.7192 -0.686167 2.82383 0
M  V30 353 H 30.2662 0.171507 2.57028 0
M  V30 354 H 30.2242 -1.54955 2.73562 0
M  V30 355 N 33.9963 -1.19345 1.0293 0
M  V30 356 C 35.2733 -1.84811 0.640642 0
M  V30 357 C 35.6533 -1.91855 -0.88062 0
M  V30 358 O 35.0013 -1.43587 -1.7775 0
M  V30 359 C 35.2113 -3.23755 1.30321 0
M  V30 360 C 36.5593 -3.99912 1.42673 0
M  V30 361 O 37.5833 -3.33155 1.26041 0
M  V30 362 O 36.4423 -5.19494 1.6967 0
M  V30 363 H 33.5363 -0.796443 0.222726 0
M  V30 364 H 36.0823 -1.26831 1.12748 0
M  V30 365 H 34.8543 -3.13466 2.34211 0
M  V30 366 H 34.4773 -3.89381 0.804261 0
M  V30 367 N 35.4744 -0.807222 -1.35358 0
M  V30 368 C 36.7214 -0.387888 -1.9875 0
M  V30 369 C 37.0494 1.04509 -1.64037 0
M  V30 370 O 36.3044 1.73986 -0.895946 0
M  V30 371 C 36.6034 -0.519036 -3.53611 0
M  V30 372 C 36.2694 -1.91542 -4.08194 0
M  V30 373 C 34.9314 -2.29745 -4.22813 0
M  V30 374 C 37.2834 -2.82896 -4.37744 0
M  V30 375 C 34.6114 -3.58668 -4.643 0
M  V30 376 C 36.9634 -4.11265 -4.8067 0
M  V30 377 C 35.6274 -4.49466 -4.93494 0
M  V30 378 H 34.8974 -0.141938 -0.727279 0
M  V30 379 H 37.5444 -1.02814 -1.6156 0
M  V30 380 H 35.8494 0.204658 -3.91265 0
M  V30 381 H 37.5464 -0.175345 -4.00616 0
M  V30 382 H 34.1364 -1.60862 -3.97268 0
M  V30 383 H 38.3204 -2.54629 -4.26002 0
M  V30 384 H 33.5764 -3.88113 -4.72418 0
M  V30 385 H 37.7504 -4.82153 -5.02496 0
M  V30 386 H 35.3774 -5.49418 -5.25399 0
M  V30 387 N 36.9525 1.47285 -0.560781 0
M  V30 388 C 38.2015 2.01668 -0.035895 0
M  V30 389 C 38.5145 1.44021 1.32353 0
M  V30 390 O 39.7205 1.90088 1.93853 0
M  V30 391 C 38.1765 3.59897 -0.0136659 0
M  V30 392 C 37.7845 4.26536 -1.37006 0
M  V30 393 C 39.5285 4.22017 0.458425 0
M  V30 394 C 37.4355 5.76782 -1.30675 0
M  V30 395 H 36.3655 0.753938 -0.00964879 0
M  V30 396 H 39.0165 1.69243 -0.709166 0
M  V30 397 H 37.3985 3.89301 0.725325 0
M  V30 398 H 38.5725 4.0877 -2.12705 0
M  V30 399 H 36.8875 3.76419 -1.78038 0
M  V30 400 H 39.4845 5.32124 0.524247 0
M  V30 401 H 39.8275 3.89437 1.4712 0
M  V30 402 H 40.3605 3.97159 -0.225818 0
M  V30 403 H 37.0995 6.13988 -2.29564 0
M  V30 404 H 36.6195 5.96875 -0.591622 0
M  V30 405 H 38.2985 6.39063 -1.01033 0
M  V30 406 N 38.4306 0.297415 1.54768 0
M  V30 407 C 39.6586 -0.315623 2.04478 0
M  V30 408 C 40.0736 -1.47792 1.17486 0
M  V30 409 O 39.4306 -1.81404 0.19971 0
M  V30 410 C 39.4816 -0.7753 3.53088 0
M  V30 411 O 39.2026 0.340732 4.36773 0
M  V30 412 C 40.7036 -1.45386 4.18781 0
M  V30 413 H 37.9236 -0.0690887 0.667434 0
M  V30 414 H 40.4676 0.436003 1.99798 0
M  V30 415 H 38.6226 -1.47696 3.58141 0
M  V30 416 H 39.0366 -0.0165035 5.24497 0
M  V30 417 H 40.5106 -1.72669 5.24299 0
M  V30 418 H 40.9876 -2.39275 3.68299 0
M  V30 419 H 41.5936 -0.795475 4.17795 0
M  V30 420 N 39.9087 -1.5758 0.0250728 0
M  V30 421 C 41.1337 -1.96337 -0.668317 0
M  V30 422 C 41.5587 -0.901314 -1.651 0
M  V30 423 O 40.9167 0.138187 -1.80773 0
M  V30 424 C 40.9647 -3.34191 -1.35457 0
M  V30 425 O 40.0687 -3.30269 -2.46974 0
M  V30 426 H 39.4097 -0.640281 -0.175887 0
M  V30 427 H 41.9397 -2.0442 0.0857224 0
M  V30 428 H 41.9497 -3.70331 -1.71228 0
M  V30 429 H 40.6247 -4.11036 -0.634218 0
M  V30 430 H 39.2017 -3.05841 -2.13344 0
M  V30 431 N 41.3868 0.248026 -1.55636 0
M  V30 432 C 42.3338 1.30707 -1.90222 0
M  V30 433 C 43.3038 1.47881 -0.756332 0
M  V30 434 O 44.4888 1.61883 -1.00988 0
M  V30 435 C 41.6288 2.65769 -2.20138 0
M  V30 436 C 40.7418 2.56612 -3.47526 0
M  V30 437 C 39.8768 3.8402 -3.67017 0
M  V30 438 C 38.9158 3.69476 -4.8801 0
M  V30 439 N 38.0528 4.88774 -5.04029 0
M  V30 440 H 42.8928 1.00512 -2.80538 0
M  V30 441 H 40.4298 0.485055 -1.38873 0
M  V30 442 H 42.3878 3.44386 -2.35487 0
M  V30 443 H 41.0178 2.94115 -1.33027 0
M  V30 444 H 40.0698 1.69571 -3.40514 0
M  V30 445 H 41.3818 2.41774 -4.36287 0
M  V30 446 H 40.5358 4.7108 -3.8232 0
M  V30 447 H 39.2748 4.01754 -2.76487 0
M  V30 448 H 38.2798 2.80799 -4.72686 0
M  V30 449 H 39.5048 3.53238 -5.8 0
M  V30 450 H 37.4508 5.0687 -4.16435 0
M  V30 451 H 37.3678 4.76562 -5.86877 0
M  V30 452 H 38.6358 5.77335 -5.23741 0
M  V30 453 N 42.8649 1.48995 0.513639 0
M  V30 454 C 43.7949 1.67636 1.62544 0
M  V30 455 C 44.7759 0.525087 1.61793 0
M  V30 456 O 45.9609 0.759502 1.78732 0
M  V30 457 C 43.0909 1.73114 3.01079 0
M  V30 458 C 42.0449 2.87905 3.16693 0
M  V30 459 C 41.3709 2.78486 4.56453 0
M  V30 460 C 42.6709 4.29005 2.97913 0
M  V30 461 H 44.3649 2.60716 1.47198 0
M  V30 462 H 41.9109 1.25465 0.706714 0
M  V30 463 H 43.8639 1.84742 3.78746 0
M  V30 464 H 42.5879 0.766241 3.17484 0
M  V30 465 H 41.2469 2.75859 2.41448 0
M  V30 466 H 40.8949 1.7993 4.69717 0
M  V30 467 H 40.5949 3.55523 4.67843 0
M  V30 468 H 42.1189 2.92104 5.36197 0
M  V30 469 H 43.5329 4.41798 3.65359 0
M  V30 470 H 41.9299 5.07166 3.20785 0
M  V30 471 H 42.9999 4.44329 1.94165 0
M  V30 472 N 44.343 -0.763751 1.37857 0
M  V30 473 C 45.273 -1.89103 1.36975 0
M  V30 474 C 46.254 -1.68439 0.237152 0
M  V30 475 O 47.439 -1.8918 0.438713 0
M  V30 476 C 44.569 -3.26496 1.18395 0
M  V30 477 C 43.523 -3.61741 2.28751 0
M  V30 478 C 42.849 -4.97762 1.95286 0
M  V30 479 C 44.149 -3.67665 3.70972 0
M  V30 480 H 45.843 -1.90099 2.31307 0
M  V30 481 H 43.389 -0.91319 1.11341 0
M  V30 482 H 45.342 -4.05003 1.16406 0
M  V30 483 H 44.066 -3.25955 0.205215 0
M  V30 484 H 42.725 -2.85547 2.29909 0
M  V30 485 H 42.373 -4.93769 0.959221 0
M  V30 486 H 42.073 -5.22313 2.69189 0
M  V30 487 H 43.597 -5.7866 1.94898 0
M  V30 488 H 45.011 -4.36307 3.719 0
M  V30 489 H 43.408 -4.03718 4.43995 0
M  V30 490 H 44.478 -2.68134 4.0402 0
M  V30 491 N 45.8211 -1.22559 -0.990812 0
M  V30 492 C 47.0461 -1.07862 -1.77145 0
M  V30 493 C 47.4711 0.366447 -1.84496 0
M  V30 494 O 46.8291 1.26478 -1.29896 0
M  V30 495 C 46.8771 -1.69686 -3.18181 0
M  V30 496 O 45.9811 -0.951946 -4.01263 0
M  V30 497 H 45.3221 -0.378712 -0.545411 0
M  V30 498 H 47.8521 -1.62399 -1.2445 0
M  V30 499 H 47.8621 -1.74496 -3.68802 0
M  V30 500 H 46.5371 -2.74841 -3.12146 0
M  V30 501 H 45.1141 -0.980011 -3.59792 0
M  V30 502 N 47.2992 1.18797 -1.03562 0
M  V30 503 C 48.5472 1.88278 -0.734569 0
M  V30 504 C 48.8682 1.8043 0.739586 0
M  V30 505 O 48.1382 1.21925 1.53333 0
M  V30 506 H 46.7182 0.696991 -0.268725 0
M  V30 507 H 49.3802 1.44192 -1.31129 0
M  V30 508 H 48.4762 2.94443 -1.03489 0
M  V30 509 N 48.7773 0.814389 1.34928 0
M  V30 510 C 49.7403 0.235759 2.27984 0
M  V30 511 C 50.7403 -0.581412 1.49921 0
M  V30 512 O 51.9303 -0.398758 1.69575 0
M  V30 513 C 49.0623 -0.670433 3.34242 0
M  V30 514 H 50.2553 1.05659 2.80671 0
M  V30 515 H 47.8083 0.585614 1.44915 0
M  V30 516 H 48.5433 -1.51466 2.86755 0
M  V30 517 H 48.3283 -0.0860822 3.92005 0
M  V30 518 H 49.8183 -1.06935 4.03676 0
M  V30 519 N 50.2554 -1.46986 0.568584 0
M  V30 520 C 51.1654 -2.33942 -0.17555 0
M  V30 521 C 52.1814 -1.48891 -0.90041 0
M  V30 522 O 53.3574 -1.81794 -0.86676 0
M  V30 523 C 50.4224 -3.25811 -1.18524 0
M  V30 524 C 49.4834 -4.26757 -0.466582 0
M  V30 525 C 48.7164 -5.14236 -1.42817 0
M  V30 526 O 48.9394 -5.04379 -2.66379 0
M  V30 527 O 47.8734 -5.94412 -0.946453 0
M  V30 528 H 51.6994 -2.98896 0.538036 0
M  V30 529 H 49.2844 -1.4573 0.329097 0
M  V30 530 H 51.1664 -3.82527 -1.76779 0
M  V30 531 H 49.8414 -2.63471 -1.88055 0
M  V30 532 H 48.7484 -3.73769 0.157451 0
M  V30 533 H 50.0814 -4.91843 0.187485 0
M  V30 534 N 51.7335 -0.305618 -1.54608 0
M  V30 535 C 53.0105 0.355652 -1.92339 0
M  V30 536 C 53.3905 1.71324 -1.23335 0
M  V30 537 O 52.7385 2.25473 -0.370702 0
M  V30 538 C 52.9485 0.46572 -3.45879 0
M  V30 539 C 54.2965 0.734426 -4.182 0
M  V30 540 O 55.3205 0.54935 -3.51938 0
M  V30 541 O 54.1795 1.09024 -5.35515 0
M  V30 542 H 51.2735 0.199666 -0.802535 0
M  V30 543 H 53.8195 -0.354017 -1.65966 0
M  V30 544 H 52.5915 -0.488461 -3.88239 0
M  V30 545 H 52.2145 1.22367 -3.78301 0
M  V30 546 N 53.2116 1.57565 -0.0334293 0
M  V30 547 C 54.1746 2.09393 0.932048 0
M  V30 548 C 55.1746 1.00986 1.25134 0
M  V30 549 O 56.3646 1.27129 1.19096 0
M  V30 550 C 53.4966 2.56338 2.2473 0
M  V30 551 H 54.6896 2.95984 0.483085 0
M  V30 552 H 52.2426 1.54819 0.21468 0
M  V30 553 H 52.9776 1.7309 2.74245 0
M  V30 554 H 52.7626 3.35542 2.02865 0
M  V30 555 H 54.2526 2.96646 2.93923 0
M  V30 556 N 54.6897 -0.239769 1.55765 0
M  V30 557 C 55.6197 -1.30052 1.9393 0
M  V30 558 C 56.6007 -1.49839 0.805132 0
M  V30 559 O 57.7857 -1.62328 1.06599 0
M  V30 560 C 54.9157 -2.65391 2.2402 0
M  V30 561 C 53.8697 -2.60289 3.39755 0
M  V30 562 C 53.1957 -3.99489 3.55405 0
M  V30 563 C 54.4957 -2.16654 4.75246 0
M  V30 564 H 56.1897 -0.983573 2.82783 0
M  V30 565 H 53.7357 -0.471701 1.36055 0
M  V30 566 H 55.6887 -3.3974 2.49308 0
M  V30 567 H 54.4127 -2.98736 1.32 0
M  V30 568 H 53.0717 -1.88398 3.14487 0
M  V30 569 H 52.7197 -4.30112 2.60793 0
M  V30 570 H 52.4197 -3.96962 4.33238 0
M  V30 571 H 53.9437 -4.75528 3.83022 0
M  V30 572 H 55.3577 -2.80737 4.99859 0
M  V30 573 H 53.7547 -2.25223 5.56232 0
M  V30 574 H 54.8247 -1.11835 4.71827 0
M  V30 575 N 56.1678 -1.49265 -0.50573 0
M  V30 576 C 57.0978 -1.68495 -1.61653 0
M  V30 577 C 58.0788 -0.53366 -1.61512 0
M  V30 578 O 59.2638 -0.76897 -1.78327 0
M  V30 579 C 56.3938 -1.74709 -3.00157 0
M  V30 580 C 55.3478 -2.89581 -3.15162 0
M  V30 581 C 54.6738 -2.80903 -4.5497 0
M  V30 582 C 55.9738 -4.30578 -2.95634 0
M  V30 583 H 57.6678 -2.61493 -1.45814 0
M  V30 584 H 55.2138 -1.25838 -0.70005 0
M  V30 585 H 57.1668 -1.86748 -3.77761 0
M  V30 586 H 55.8908 -0.783067 -3.17074 0
M  V30 587 H 54.5498 -2.77136 -2.39982 0
M  V30 588 H 54.1978 -1.82419 -4.68756 0
M  V30 589 H 53.8978 -3.57999 -4.65951 0
M  V30 590 H 55.4218 -2.94944 -5.34641 0
M  V30 591 H 56.8358 -4.4373 -3.63011 0
M  V30 592 H 55.2328 -5.0886 -3.18091 0
M  V30 593 H 56.3028 -4.45352 -1.91806 0
M  V30 594 N 57.6459 0.756429 -1.3826 0
M  V30 595 C 59.0619 1.0591 -1.19395 0
M  V30 596 C 59.2619 2.01459 -0.0406567 0
M  V30 597 O 58.3179 2.44909 0.614467 0
M  V30 598 C 59.6309 1.64191 -2.51916 0
M  V30 599 C 61.1789 1.76376 -2.58574 0
M  V30 600 C 61.6539 2.38069 -3.91264 0
M  V30 601 N 63.1449 2.45503 -3.92788 0
M  V30 602 C 63.8799 2.94126 -4.92217 0
M  V30 603 N 63.3759 3.42805 -6.02043 0
M  V30 604 N 65.1689 2.9314 -4.7961 0
M  V30 605 H 57.3199 0.122313 -2.12048 0
M  V30 606 H 59.5829 0.116892 -0.940766 0
M  V30 607 H 59.2889 1.01451 -3.3675 0
M  V30 608 H 59.1629 2.6329 -2.70108 0
M  V30 609 H 61.5499 2.38244 -1.74137 0
M  V30 610 H 61.6309 0.759894 -2.44252 0
M  V30 611 H 61.2749 1.76835 -4.76121 0
M  V30 612 H 61.2049 3.39091 -4.02895 0
M  V30 613 H 63.6959 2.1107 -3.13461 0
M  V30 614 H 64.0089 3.78354 -6.73846 0
M  V30 615 H 62.3539 3.4087 -6.05667 0
M  V30 616 H 65.5449 2.54419 -3.92923 0
M  V30 617 H 65.7179 3.30721 -5.5725 0
M  V30 618 N 59.124 1.23083 0.984299 0
M  V30 619 C 60.074 0.975749 2.06066 0
M  V30 620 C 61.058 -0.0768251 1.60716 0
M  V30 621 O 62.25 0.134805 1.76486 0
M  V30 622 C 59.379 0.564673 3.38624 0
M  V30 623 C 58.465 1.65244 3.90583 0
M  V30 624 N 58.856 2.88193 4.15666 0
M  V30 625 C 57.154 1.52612 4.19077 0
M  V30 626 C 57.855 3.58593 4.58024 0
M  V30 627 N 56.831 2.86093 4.62225 0
M  V30 628 H 60.633 1.90957 2.23411 0
M  V30 629 H 58.147 1.12963 1.16675 0
M  V30 630 H 60.144 0.36322 4.15315 0
M  V30 631 H 58.804 -0.362147 3.22674 0
M  V30 632 H 59.815 3.24537 4.03604 0
M  V30 633 H 56.492 0.666121 4.12152 0
M  V30 634 H 57.882 4.63974 4.85982 0
M  V30 635 N 60.6021 -1.18246 1.0419 0
M  V30 636 C 61.8501 -1.87886 0.744543 0
M  V30 637 C 62.1711 -1.8082 -0.730006 0
M  V30 638 O 61.4411 -1.22736 -1.52685 0
M  V30 639 H 60.0211 -0.695556 0.272417 0
M  V30 640 H 62.6831 -1.43494 1.31892 0
M  V30 641 H 61.7791 -2.9389 1.05049 0
M  V30 642 N 62.0802 -0.821533 -1.34494 0
M  V30 643 C 63.3262 -0.409552 -1.98622 0
M  V30 644 C 63.6592 1.0244 -1.64984 0
M  V30 645 O 62.9342 1.71325 -0.920758 0
M  V30 646 C 63.2172 -0.610458 -3.54888 0
M  V30 647 C 63.0702 -2.09043 -3.98273 0
M  V30 648 C 64.3892 -0.0455379 -4.40076 0
M  V30 649 H 61.5082 -0.15028 -0.721516 0
M  V30 650 H 64.1502 -1.03384 -1.59411 0
M  V30 651 H 62.3002 -0.079044 -3.8842 0
M  V30 652 H 63.9722 -2.68537 -3.75081 0
M  V30 653 H 62.2152 -2.58139 -3.48635 0
M  V30 654 H 62.8862 -2.18182 -5.07051 0
M  V30 655 H 65.3622 -0.499557 -4.1309 0
M  V30 656 H 64.2382 -0.215922 -5.48475 0
M  V30 657 H 64.4992 1.04939 -4.29465 0
M  V30 658 N 63.5583 1.46682 -0.576371 0
M  V30 659 C 64.8353 1.95599 0.00703437 0
M  V30 660 C 65.2153 1.51904 1.46589 0
M  V30 661 O 64.5633 0.766755 2.15251 0
M  V30 662 C 64.7733 3.4864 -0.158404 0
M  V30 663 C 66.1213 4.24594 -0.0229439 0
M  V30 664 O 67.1453 3.56094 -0.0869173 0
M  V30 665 O 66.0043 5.46373 0.118015 0
M  V30 666 H 63.0983 0.825275 0.053384 0
M  V30 667 H 65.6443 1.56996 -0.644244 0
M  V30 668 H 64.4163 3.7331 -1.17282 0
M  V30 669 H 64.0393 3.94057 0.5296 0
M  V30 670 N 65.0364 0.313813 1.54444 0
M  V30 671 C 66.2644 -0.293918 2.04802 0
M  V30 672 C 66.6794 -1.46537 1.19047 0
M  V30 673 O 66.0364 -1.81182 0.218939 0
M  V30 674 C 66.0874 -0.737806 3.53891 0
M  V30 675 O 65.8084 0.387038 4.36387 0
M  V30 676 C 67.3094 -1.40936 4.203 0
M  V30 677 H 64.5294 -0.0620057 0.668129 0
M  V30 678 H 67.0734 0.457169 1.99324 0
M  V30 679 H 65.2284 -1.43889 3.59687 0
M  V30 680 H 65.6424 0.0391274 5.24485 0
M  V30 681 H 67.1164 -1.67099 5.26101 0
M  V30 682 H 67.5934 -2.35355 3.70816 0
M  V30 683 H 68.1994 -0.751117 4.18615 0
M  V30 684 N 66.5145 -1.57545 0.0417849 0
M  V30 685 C 67.4625 -2.12148 -0.953723 0
M  V30 686 C 68.4565 -1.05104 -1.32852 0
M  V30 687 O 69.6625 -1.23524 -1.30927 0
M  V30 688 H 66.0375 -0.677957 -0.325389 0
M  V30 689 H 68.0085 -2.94707 -0.467991 0
M  V30 690 C 66.7575 -2.6739 -2.22257 0
M  V30 691 H 66.0805 -3.49413 -1.94295 0
M  V30 692 H 67.5205 -3.09227 -2.90094 0
M  V30 693 C 65.9795 -1.60723 -2.96091 0
M  V30 694 O 66.5095 -1.01449 -3.88679 0
M  V30 695 N 64.7155 -1.32466 -2.58652 0
M  V30 696 H 64.2625 -1.80856 -1.83437 0
M  V30 697 H 64.2205 -0.61325 -3.08361 0
M  V30 698 N 67.9926 0.231505 -1.5589 0
M  V30 699 C 69.2696 0.981096 -1.69215 0
M  V30 700 C 69.6496 2.02799 -0.586164 0
M  V30 701 O 68.9976 2.24823 0.408253 0
M  V30 702 C 69.2076 1.60054 -3.10135 0
M  V30 703 C 70.5556 2.09658 -3.69227 0
M  V30 704 O 71.5796 1.69967 -3.13033 0
M  V30 705 O 70.4386 2.8258 -4.67772 0
M  V30 706 H 67.5326 0.457653 -0.688827 0
M  V30 707 H 70.0786 0.224073 -1.68214 0
M  V30 708 H 68.8506 0.844105 -3.82087 0
M  V30 709 H 68.4736 2.42336 -3.15212 0
M  V30 710 N 69.4707 1.49531 0.497807 0
M  V30 711 C 70.7197 1.58426 1.24837 0
M  V30 712 C 71.0327 0.277643 1.93619 0
M  V30 713 O 72.2387 0.24517 2.70391 0
M  V30 714 C 70.6947 2.79538 2.26686 0
M  V30 715 C 70.3027 4.16971 1.63828 0
M  V30 716 C 72.0467 2.97764 3.0255 0
M  V30 717 C 69.9537 5.29301 2.63807 0
M  V30 718 H 68.8837 0.58989 0.469623 0
M  V30 719 H 71.5347 1.75923 0.521857 0
M  V30 720 H 69.9167 2.55542 3.02514 0
M  V30 721 H 71.0907 4.51116 0.939711 0
M  V30 722 H 69.4057 4.04129 1.00342 0
M  V30 723 H 72.0027 3.78856 3.77323 0
M  V30 724 H 72.3457 2.08448 3.60354 0
M  V30 725 H 72.8787 3.21815 2.33838 0
M  V30 726 H 69.6177 6.20687 2.10779 0
M  V30 727 H 69.1377 4.99606 3.31894 0
M  V30 728 H 70.8167 5.58768 3.2617 0
M  V30 729 N 70.9488 -0.749086 1.3866 0
M  V30 730 C 72.2258 -1.4992 1.25632 0
M  V30 731 C 72.6058 -2.10633 -0.140317 0
M  V30 732 O 71.9538 -1.97437 -1.15025 0
M  V30 733 C 72.1638 -2.56195 2.36992 0
M  V30 734 C 73.5118 -3.22972 2.75634 0
M  V30 735 O 74.5358 -2.66502 2.36337 0
M  V30 736 O 73.3948 -4.25122 3.43415 0
M  V30 737 H 70.4888 -0.665067 0.491544 0
M  V30 738 H 73.0348 -0.784113 1.50498 0
M  V30 739 H 71.8068 -2.09612 3.30422 0
M  V30 740 H 71.4298 -3.35279 2.13714 0
M  V30 741 N 72.4269 -1.23603 -0.977757 0
M  V30 742 C 73.6729 -1.07129 -1.72195 0
M  V30 743 C 74.0059 0.390501 -1.90233 0
M  V30 744 O 73.2809 1.28902 -1.45653 0
M  V30 745 C 73.5639 -1.80031 -3.11867 0
M  V30 746 C 73.4169 -3.33899 -3.01383 0
M  V30 747 C 74.7359 -1.56492 -4.11337 0
M  V30 748 H 71.8549 -0.390571 -0.624999 0
M  V30 749 H 74.4969 -1.52142 -1.13811 0
M  V30 750 H 72.6469 -1.41768 -3.6171 0
M  V30 751 H 74.3189 -3.81699 -2.59043 0
M  V30 752 H 72.5619 -3.62796 -2.37827 0
M  V30 753 H 73.2329 -3.801 -4.00285 0
M  V30 754 H 75.7089 -1.89757 -3.70313 0
M  V30 755 H 74.5849 -2.09973 -5.07151 0
M  V30 756 H 74.8459 -0.500874 -4.39254 0
M  V30 757 N 73.905 1.17692 -1.04816 0
M  V30 758 C 74.868 2.19787 -0.650117 0
M  V30 759 C 75.868 1.58044 0.296427 0
M  V30 760 O 77.058 1.74012 0.0808097 0
M  V30 761 C 74.19 3.40869 0.0456987 0
M  V30 762 H 75.383 2.56516 -1.5537 0
M  V30 763 H 72.936 1.31708 -0.841594 0
M  V30 764 H 73.671 3.09681 0.962726 0
M  V30 765 H 73.456 3.86928 -0.634727 0
M  V30 766 H 74.946 4.16445 0.310432 0
M  V30 767 N 75.3831 0.828654 1.34056 0
M  V30 768 C 76.6291 0.429279 1.98818 0
M  V30 769 C 76.9841 -0.998011 1.64492 0
M  V30 770 O 76.2771 -1.68652 0.909228 0
M  V30 771 C 76.4711 0.575226 3.52741 0
M  V30 772 C 76.3001 2.01515 4.02022 0
M  V30 773 C 75.0701 2.64825 4.30344 0
M  V30 774 C 77.2681 2.98261 4.18981 0
M  V30 775 N 75.2501 3.99998 4.65698 0
M  V30 776 C 76.6211 4.18356 4.57578 0
M  V30 777 C 78.6761 2.94802 4.01243 0
M  V30 778 C 77.3791 5.35454 4.80293 0
M  V30 779 C 79.4051 4.11121 4.25128 0
M  V30 780 C 78.7671 5.29969 4.64018 0
M  V30 781 H 74.8661 0.205304 0.754569 0
M  V30 782 H 77.4501 1.07457 1.62361 0
M  V30 783 H 75.6211 -0.0401962 3.88379 0
M  V30 784 H 77.3531 0.148292 4.04428 0
M  V30 785 H 74.1081 2.16027 4.21461 0
M  V30 786 H 74.5321 4.69653 4.87601 0
M  V30 787 H 79.1741 2.04054 3.70299 0
M  V30 788 H 76.8921 6.26755 5.10102 0
M  V30 789 H 80.4781 4.0985 4.12934 0
M  V30 790 H 79.3581 6.18479 4.82134 0
M  V30 791 N 76.8612 -1.46375 0.584142 0
M  V30 792 C 78.1072 -2.02678 0.0703716 0
M  V30 793 C 78.4402 -1.4545 -1.28678 0
M  V30 794 O 77.7152 -0.62014 -1.84349 0
M  V30 795 C 77.9982 -3.60099 0.00614674 0
M  V30 796 C 77.8512 -4.27709 1.3923 0
M  V30 797 C 79.1702 -4.34598 -0.693742 0
M  V30 798 H 76.2892 -0.736504 0.027047 0
M  V30 799 H 78.9312 -1.74501 0.751615 0
M  V30 800 H 77.0812 -3.84236 -0.574009 0
M  V30 801 H 78.7532 -4.14832 2.01773 0
M  V30 802 H 76.9962 -3.87016 1.95962 0
M  V30 803 H 77.6672 -5.36478 1.29982 0
M  V30 804 H 80.1432 -4.15615 -0.200869 0
M  V30 805 H 79.0192 -5.44318 -0.707714 0
M  V30 806 H 79.2802 -4.05759 -1.75533 0
M  V30 807 N 78.3393 -0.321999 -1.54275 0
M  V30 808 C 79.7503 0.166384 -1.85957 0
M  V30 809 C 80.1013 1.51747 -1.24367 0
M  V30 810 O 79.2263 2.09317 -0.549124 0
M  V30 811 C 79.8213 0.308681 -3.37391 0
M  V30 812 C 78.3803 0.741286 -3.69028 0
M  V30 813 C 77.5273 -0.137937 -2.76957 0
M  V30 814 H 80.4783 -0.542335 -1.49146 0
M  V30 815 H 80.4993 1.13984 -3.63026 0
M  V30 816 H 80.0113 -0.674809 -3.82188 0
M  V30 817 H 78.1123 1.73458 -3.29762 0
M  V30 818 H 78.2253 0.546118 -4.75977 0
M  V30 819 H 76.5893 0.386251 -2.51754 0
M  V30 820 H 77.3723 -1.11816 -3.2458 0
M  V30 821 N 79.8174 1.5752 -0.0501392 0
M  V30 822 C 81.0654 1.9227 0.622642 0
M  V30 823 C 81.3864 0.929083 1.71444 0
M  V30 824 O 80.6564 -0.0262186 1.95882 0
M  V30 825 H 79.2364 0.709739 0.232981 0
M  V30 826 H 81.8984 1.94628 -0.102898 0
M  V30 827 H 80.9944 2.93479 1.06191 0
M  V30 828 N 81.2955 -0.223234 1.56011 0
M  V30 829 C 82.2585 -1.26014 1.9145 0
M  V30 830 C 83.2585 -1.3989 0.792937 0
M  V30 831 O 84.4485 -1.38184 1.0607 0
M  V30 832 C 81.5805 -2.63422 2.16383 0
M  V30 833 H 82.7735 -0.95796 2.84189 0
M  V30 834 H 80.3265 -0.463576 1.49267 0
M  V30 835 H 81.0615 -2.98741 1.2619 0
M  V30 836 H 80.8465 -2.54728 2.98088 0
M  V30 837 H 82.3365 -3.38249 2.44903 0
M  V30 838 N 82.7736 -1.49793 -0.48987 0
M  V30 839 C 84.0206 -1.59841 -1.24327 0
M  V30 840 C 84.3486 -0.290135 -1.92324 0
M  V30 841 O 83.6036 0.722749 -1.81865 0
M  V30 842 C 83.9026 -2.71488 -2.32441 0
M  V30 843 C 83.5686 -4.12614 -1.81826 0
M  V30 844 C 82.2306 -4.51017 -1.67742 0
M  V30 845 C 84.5826 -5.00892 -1.4407 0
M  V30 846 C 81.9106 -5.75459 -1.14297 0
M  V30 847 C 84.2626 -6.25863 -0.920742 0
M  V30 848 C 82.9266 -6.63086 -0.766383 0
M  V30 849 H 82.1966 -0.584899 -0.454944 0
M  V30 850 H 84.8436 -1.83663 -0.542215 0
M  V30 851 H 83.1486 -2.4168 -3.0838 0
M  V30 852 H 84.8456 -2.76469 -2.90458 0
M  V30 853 H 81.4356 -3.82307 -1.93751 0
M  V30 854 H 85.6196 -4.7187 -1.53794 0
M  V30 855 H 80.8756 -6.02989 -1.01068 0
M  V30 856 H 85.0496 -6.9364 -0.619448 0
M  V30 857 H 82.6766 -7.59393 -0.350083 0
M  V30 858 N 84.2517 0.741722 -1.39055 0
M  V30 859 C 85.1617 1.88621 -1.39496 0
M  V30 860 C 86.1777 1.71557 -0.290578 0
M  V30 861 O 87.3537 1.94275 -0.530954 0
M  V30 862 C 84.4187 3.24134 -1.23037 0
M  V30 863 C 83.4797 3.5364 -2.43387 0
M  V30 864 C 82.7127 4.82687 -2.27703 0
M  V30 865 O 82.9357 5.55922 -1.27696 0
M  V30 866 O 81.8697 5.1194 -3.16545 0
M  V30 867 H 85.6957 1.91203 -2.35956 0
M  V30 868 H 83.2807 0.888625 -1.20099 0
M  V30 869 H 85.1627 4.0513 -1.15964 0
M  V30 870 H 83.8377 3.22337 -0.296691 0
M  V30 871 H 82.7447 2.72758 -2.56035 0
M  V30 872 H 84.0777 3.60209 -3.35425 0
M  V30 873 N 85.7298 1.2412 0.971189 0
M  V30 874 C 86.9788 1.07284 1.70801 0
M  V30 875 C 87.2918 -0.388902 1.91695 0
M  V30 876 O 88.4978 -0.677379 2.62914 0
M  V30 877 C 86.9538 1.87145 3.07416 0
M  V30 878 C 86.5618 3.37707 2.94377 0
M  V30 879 C 88.3058 1.78828 3.84995 0
M  V30 880 C 86.2128 4.09925 4.26281 0
M  V30 881 H 85.1428 0.397854 0.64049 0
M  V30 882 H 87.7938 1.4817 1.0825 0
M  V30 883 H 86.1758 1.39071 3.70777 0
M  V30 884 H 87.3498 3.93335 2.4005 0
M  V30 885 H 85.6648 3.46938 2.30267 0
M  V30 886 H 88.2618 2.30089 4.82662 0
M  V30 887 H 88.6048 0.75284 4.09436 0
M  V30 888 H 89.1378 2.24563 3.28354 0
M  V30 889 H 85.8768 5.13813 4.07033 0
M  V30 890 H 85.3968 3.59083 4.80437 0
M  V30 891 H 87.0758 4.1673 4.94919 0
M  V30 892 N 87.2079 -1.17134 1.05439 0
M  V30 893 C 88.6189 -1.69084 0.791676 0
M  V30 894 C 88.9699 -1.83822 -0.685839 0
M  V30 895 O 88.0949 -1.52757 -1.53278 0
M  V30 896 C 88.6899 -3.07119 1.4305 0
M  V30 897 C 87.2489 -3.56225 1.21577 0
M  V30 898 C 86.3959 -2.32421 1.51247 0
M  V30 899 H 89.3469 -1.01617 1.219 0
M  V30 900 H 89.3679 -3.71087 0.84112 0
M  V30 901 H 88.8799 -2.9636 2.50584 0
M  V30 902 H 86.9809 -3.72257 0.159787 0
M  V30 903 H 87.0939 -4.38837 1.92246 0
M  V30 904 H 85.4579 -2.3701 0.932653 0
M  V30 905 H 86.2409 -2.24268 2.5992 0
M  V30 906 N 88.686 -0.835752 -1.33615 0
M  V30 907 C 89.933 -0.429959 -1.97883 0
M  V30 908 C 90.261 1.01006 -1.66217 0
M  V30 909 O 89.516 1.72047 -0.93265 0
M  V30 910 C 89.815 -0.593925 -3.52431 0
M  V30 911 C 89.481 -2.00158 -4.04039 0
M  V30 912 C 88.143 -2.38662 -4.17844 0
M  V30 913 C 90.495 -2.92117 -4.31644 0
M  V30 914 C 87.823 -3.68435 -4.56588 0
M  V30 915 C 90.175 -4.21368 -4.71838 0
M  V30 916 C 88.839 -4.59833 -4.83849 0
M  V30 917 H 88.109 -0.157333 -0.724104 0
M  V30 918 H 90.756 -1.06217 -1.59343 0
M  V30 919 H 89.061 0.121619 -3.91611 0
M  V30 920 H 90.758 -0.260282 -4.00154 0
M  V30 921 H 87.348 -1.69252 -3.93766 0
M  V30 922 H 91.532 -2.63608 -4.20505 0
M  V30 923 H 86.788 -3.98046 -4.64079 0
M  V30 924 H 90.962 -4.92703 -4.92155 0
M  V30 925 H 88.589 -5.60438 -5.13627 0
M  V30 926 N 90.1641 1.46063 -0.591896 0
M  V30 927 C 91.1271 2.28854 0.125973 0
M  V30 928 C 92.1271 1.38903 0.810107 0
M  V30 929 O 93.3171 1.61186 0.66066 0
M  V30 930 C 90.4491 3.19526 1.1881 0
M  V30 931 H 91.6421 2.93802 -0.601717 0
M  V30 932 H 89.1951 1.52325 -0.350254 0
M  V30 933 H 89.9301 2.59345 1.94707 0
M  V30 934 H 89.7151 3.85766 0.701936 0
M  V30 935 H 91.2051 3.81817 1.69132 0
M  V30 936 N 91.6422 0.330177 1.54103 0
M  V30 937 C 92.6052 -0.520144 2.2322 0
M  V30 938 C 93.6052 -1.03828 1.22786 0
M  V30 939 O 94.7952 -0.929652 1.4732 0
M  V30 940 C 91.9272 -1.72317 2.94142 0
M  V30 941 H 93.1202 0.0841605 2.99782 0
M  V30 942 H 90.6732 0.0813433 1.56088 0
M  V30 943 H 91.4082 -2.36653 2.21734 0
M  V30 944 H 91.1932 -1.35898 3.67796 0
M  V30 945 H 92.6832 -2.3266 3.46784 0
M  V30 946 N 93.1203 -1.57491 0.0584922 0
M  V30 947 C 94.0673 -2.11958 -0.913376 0
M  V30 948 C 95.0373 -1.02875 -1.30407 0
M  V30 949 O 96.2223 -1.30464 -1.39226 0
M  V30 950 C 93.3623 -2.67497 -2.18035 0
M  V30 951 C 92.4753 -3.90691 -1.84349 0
M  V30 952 C 91.6103 -4.3452 -3.05559 0
M  V30 953 C 90.6493 -5.50395 -2.67827 0
M  V30 954 N 89.7863 -5.89244 -3.81754 0
M  V30 955 H 94.6263 -2.94704 -0.442017 0
M  V30 956 H 92.1633 -1.45643 -0.206545 0
M  V30 957 H 94.1213 -2.978 -2.92183 0
M  V30 958 H 92.7513 -1.87537 -2.62735 0
M  V30 959 H 91.8033 -3.66934 -1.00319 0
M  V30 960 H 93.1153 -4.7489 -1.5258 0
M  V30 961 H 92.2693 -4.66414 -3.87998 0
M  V30 962 H 91.0083 -3.49147 -3.40511 0
M  V30 963 H 90.0133 -5.18165 -1.83806 0
M  V30 964 H 91.2383 -6.3749 -2.34059 0
M  V30 965 H 89.1843 -5.06823 -4.16493 0
M  V30 966 H 89.1013 -6.68151 -3.53708 0
M  V30 967 H 90.3693 -6.25756 -4.64811 0
M  V30 968 N 94.5984 0.214957 -1.56127 0
M  V30 969 C 95.5454 1.26642 -1.92952 0
M  V30 970 C 96.5154 1.46244 -0.78753 0
M  V30 971 O 97.7004 1.59704 -1.04399 0
M  V30 972 C 94.8404 2.6104 -2.25726 0
M  V30 973 C 93.9534 2.49183 -3.52891 0
M  V30 974 C 93.0884 3.76149 -3.7508 0
M  V30 975 C 92.1274 3.59041 -4.95738 0
M  V30 976 N 91.2644 4.77972 -5.14283 0
M  V30 977 H 96.1044 0.945384 -2.82607 0
M  V30 978 H 93.6414 0.455489 -1.3987 0
M  V30 979 H 95.5994 3.39313 -2.42739 0
M  V30 980 H 94.2294 2.91227 -1.39236 0
M  V30 981 H 93.2814 1.6231 -3.44034 0
M  V30 982 H 94.5934 2.32466 -4.41318 0
M  V30 983 H 93.7474 4.62865 -3.92226 0
M  V30 984 H 92.4864 3.95799 -2.84947 0
M  V30 985 H 91.4914 2.7071 -4.78535 0
M  V30 986 H 92.7164 3.40856 -5.87362 0
M  V30 987 H 90.6624 4.97923 -4.27093 0
M  V30 988 H 90.5794 4.64006 -5.96853 0
M  V30 989 H 91.8474 5.66096 -5.35869 0
M  V30 990 N 96.0765 1.50051 0.48192 0
M  V30 991 C 97.0095 1.62749 1.59963 0
M  V30 992 C 97.9875 0.475903 1.5548 0
M  V30 993 O 99.1715 0.693986 1.7526 0
M  V30 994 C 96.2985 1.60008 2.98522 0
M  V30 995 C 95.3445 2.80596 3.21198 0
M  V30 996 S 96.1775 4.42038 3.02262 0
M  V30 997 C 97.3335 4.41973 4.43182 0
M  V30 998 H 97.5665 2.57296 1.4895 0
M  V30 999 H 95.0995 1.39179 0.668477 0
M  V30 1000 H 97.0575 1.59112 3.78409 0
M  V30 1001 H 95.7185 0.667153 3.06933 0
M  V30 1002 H 94.9115 2.74952 4.22395 0
M  V30 1003 H 94.5135 2.79003 2.49065 0
M  V30 1004 H 96.8055 4.14868 5.35622 0
M  V30 1005 H 97.7485 5.43512 4.53873 0
M  V30 1006 H 98.1565 3.71812 4.24755 0
M  V30 1007 N 97.5546 -0.734337 1.39446 0
M  V30 1008 C 98.5176 -1.83004 1.37994 0
M  V30 1009 C 99.5176 -1.58397 0.276938 0
M  V30 1010 O 100.708 -1.65785 0.534875 0
M  V30 1011 C 97.8396 -3.20802 1.1532 0
M  V30 1012 H 99.0326 -1.85694 2.35494 0
M  V30 1013 H 96.5856 -0.938059 1.25021 0
M  V30 1014 H 97.3206 -3.23772 0.185036 0
M  V30 1015 H 97.1056 -3.4006 1.95197 0
M  V30 1016 H 98.5956 -4.00862 1.17046 0
M  V30 1017 N 99.0327 -1.24633 -0.964593 0
M  V30 1018 C 99.9427 -1.05859 -2.09359 0
M  V30 1019 C 100.959 0.00148855 -1.74 0
M  V30 1020 O 102.135 -0.197346 -2.00431 0
M  V30 1021 C 99.1997 -0.668879 -3.40187 0
M  V30 1022 C 98.2607 -1.80578 -3.89474 0
M  V30 1023 C 97.4937 -1.43457 -5.14058 0
M  V30 1024 O 97.7167 -0.325775 -5.69469 0
M  V30 1025 O 96.6507 -2.2613 -5.57807 0
M  V30 1026 H 100.477 -2.00516 -2.28094 0
M  V30 1027 H 98.0617 -1.03481 -1.0776 0
M  V30 1028 H 99.9437 -0.463211 -4.18846 0
M  V30 1029 H 98.6187 0.248536 -3.22744 0
M  V30 1030 H 97.5257 -2.06623 -3.11862 0
M  V30 1031 H 98.8587 -2.70208 -4.11398 0
M  V30 1032 N 100.511 1.16574 -1.06058 0
M  V30 1033 C 101.739 1.90952 -0.796552 0
M  V30 1034 C 102.154 1.77302 0.648808 0
M  V30 1035 O 101.511 1.11605 1.44397 0
M  V30 1036 C 101.562 3.41736 -1.17894 0
M  V30 1037 O 101.283 3.54975 -2.56758 0
M  V30 1038 C 102.784 4.33169 -0.942308 0
M  V30 1039 H 100.004 0.605594 -0.288959 0
M  V30 1040 H 102.548 1.47777 -1.41358 0
M  V30 1041 H 100.703 3.82623 -0.606491 0
M  V30 1042 H 101.117 4.4846 -2.72 0
M  V30 1043 H 102.591 5.37439 -1.25952 0
M  V30 1044 H 103.068 4.3903 0.122078 0
M  V30 1045 H 103.674 3.98007 -1.49902 0
M  V30 1046 N 101.989 0.842826 1.3317 0
M  V30 1047 C 102.936 0.276885 2.29133 0
M  V30 1048 C 103.906 -0.609527 1.54512 0
M  V30 1049 O 105.091 -0.546955 1.82792 0
M  V30 1050 C 102.231 -0.538707 3.40869 0
M  V30 1051 C 101.344 0.372169 4.30394 0
M  V30 1052 C 100.479 -0.454908 5.29249 0
M  V30 1053 C 99.5179 0.45411 6.10413 0
M  V30 1054 N 98.6549 -0.335075 7.013 0
M  V30 1055 H 103.495 1.10052 2.76934 0
M  V30 1056 H 101.032 0.554161 1.36262 0
M  V30 1057 H 102.99 -1.02709 4.0436 0
M  V30 1058 H 101.62 -1.32727 2.9425 0
M  V30 1059 H 100.672 0.97888 3.6759 0
M  V30 1060 H 101.984 1.0703 4.87182 0
M  V30 1061 H 101.138 -1.00695 5.98285 0
M  V30 1062 H 99.8769 -1.18646 4.73048 0
M  V30 1063 H 98.8819 1.01813 5.40291 0
M  V30 1064 H 100.107 1.18409 6.68697 0
M  V30 1065 H 98.0529 -1.04994 6.47543 0
M  V30 1066 H 97.9699 0.304262 7.55387 0
M  V30 1067 H 99.2379 -0.869224 7.74638 0
M  V30 1068 N 103.467 -1.45747 0.599634 0
M  V30 1069 C 104.414 -2.30467 -0.123849 0
M  V30 1070 C 105.384 -1.41632 -0.86774 0
M  V30 1071 O 106.569 -1.70568 -0.855056 0
M  V30 1072 C 103.709 -3.26402 -1.12051 0
M  V30 1073 C 102.822 -4.3034 -0.37832 0
M  V30 1074 C 101.957 -5.13389 -1.364 0
M  V30 1075 C 100.996 -6.09061 -0.609171 0
M  V30 1076 N 100.133 -6.84918 -1.54374 0
M  V30 1077 H 104.973 -2.91802 0.604627 0
M  V30 1078 H 102.51 -1.43797 0.309972 0
M  V30 1079 H 104.468 -3.80482 -1.7114 0
M  V30 1080 H 103.098 -2.66839 -1.8165 0
M  V30 1081 H 102.15 -3.78984 0.327929 0
M  V30 1082 H 103.462 -4.98354 0.210997 0
M  V30 1083 H 102.616 -5.7183 -2.02719 0
M  V30 1084 H 101.355 -4.45376 -1.98725 0
M  V30 1085 H 100.36 -5.49758 0.0676979 0
M  V30 1086 H 101.585 -6.79099 0.00891991 0
M  V30 1087 H 99.531 -6.19601 -2.15478 0
M  V30 1088 H 99.448 -7.49254 -1.00766 0
M  V30 1089 H 100.716 -7.47906 -2.19676 0
M  V30 1090 N 104.945 -0.338344 -1.53925 0
M  V30 1091 C 106.175 0.260919 -2.04946 0
M  V30 1092 C 106.583 1.45174 -1.2133 0
M  V30 1093 O 105.926 1.82122 -0.240262 0
M  V30 1094 C 105.988 0.744596 -3.51704 0
M  V30 1095 C 105.652 -0.325883 -4.55837 0
M  V30 1096 C 106.649 -1.16687 -5.06636 0
M  V30 1097 C 104.334 -0.478317 -5.00017 0
M  V30 1098 C 106.328 -2.14588 -6.00192 0
M  V30 1099 C 104.015 -1.46073 -5.93385 0
M  V30 1100 C 105.013 -2.29297 -6.4336 0
M  V30 1101 O 104.701 -3.25867 -7.34892 0
M  V30 1102 H 104.433 0.0551207 -0.673749 0
M  V30 1103 H 106.987 -0.486984 -1.99544 0
M  V30 1104 H 105.217 1.54366 -3.54553 0
M  V30 1105 H 106.906 1.26383 -3.85723 0
M  V30 1106 H 107.672 -1.06016 -4.73271 0
M  V30 1107 H 103.551 0.159613 -4.60724 0
M  V30 1108 H 107.095 -2.79585 -6.39123 0
M  V30 1109 H 102.992 -1.56802 -6.26166 0
M  V30 1110 H 103.76 -3.21278 -7.5281 0
M  V30 1111 N 106.423 1.57458 -0.0668435 0
M  V30 1112 C 107.7 1.8469 0.644132 0
M  V30 1113 C 108.08 0.958343 1.88093 0
M  V30 1114 O 107.428 0.0233579 2.28488 0
M  V30 1115 C 107.638 3.34767 0.986509 0
M  V30 1116 C 108.986 4.02159 1.36212 0
M  V30 1117 O 110.01 3.39484 1.07839 0
M  V30 1118 O 108.869 5.12694 1.89227 0
M  V30 1119 H 105.963 0.762816 0.319437 0
M  V30 1120 H 108.509 1.6942 -0.0973986 0
M  V30 1121 H 107.281 3.91151 0.107883 0
M  V30 1122 H 106.904 3.55281 1.78497 0
M  V30 1123 N 107.901 -0.206675 1.56239 0
M  V30 1124 C 108.864 -1.23976 1.92776 0
M  V30 1125 C 109.864 -1.39041 0.807729 0
M  V30 1126 O 111.054 -1.37051 1.0753 0
M  V30 1127 C 108.186 -2.61112 2.19165 0
M  V30 1128 H 109.379 -0.927764 2.85189 0
M  V30 1129 H 106.932 -0.447718 1.4975 0
M  V30 1130 H 107.667 -2.97386 1.29352 0
M  V30 1131 H 107.452 -2.51552 3.00772 0
M  V30 1132 H 108.942 -3.35633 2.48476 0
M  V30 1133 N 109.379 -1.50304 -0.473955 0
M  V30 1134 C 110.628 -1.60392 -1.22301 0
M  V30 1135 C 110.941 -0.308411 -1.93153 0
M  V30 1136 O 112.147 -0.288156 -2.69966 0
M  V30 1137 C 110.603 -2.83109 -2.2221 0
M  V30 1138 C 110.211 -4.19524 -1.57173 0
M  V30 1139 C 111.955 -3.0254 -2.97775 0
M  V30 1140 C 109.862 -5.33431 -2.55353 0
M  V30 1141 H 108.792 -0.597286 -0.460179 0
M  V30 1142 H 111.443 -1.76731 -0.493803 0
M  V30 1143 H 109.825 -2.60322 -2.9841 0
M  V30 1144 H 110.999 -4.52554 -0.867824 0
M  V30 1145 H 109.314 -4.05674 -0.939002 0
M  V30 1146 H 111.911 -3.84811 -3.71248 0
M  V30 1147 H 112.254 -2.14154 -3.56992 0
M  V30 1148 H 112.787 -3.25494 -2.28688 0
M  V30 1149 H 109.526 -6.23962 -2.00878 0
M  V30 1150 H 109.046 -5.04823 -3.23904 0
M  V30 1151 H 110.725 -5.63887 -3.17239 0
M  V30 1152 N 110.857 0.726932 -1.39834 0
M  V30 1153 C 112.106 1.48214 -1.36805 0
M  V30 1154 C 112.419 1.95576 0.0305291 0
M  V30 1155 O 113.625 2.7088 0.183417 0
M  V30 1156 C 112.081 2.67854 -2.40379 0
M  V30 1157 C 111.689 2.27408 -3.85992 0
M  V30 1158 C 113.433 3.45641 -2.46439 0
M  V30 1159 C 111.34 3.43819 -4.81189 0
M  V30 1160 H 110.27 0.556606 -0.508631 0
M  V30 1161 H 112.921 0.792216 -1.65518 0
M  V30 1162 H 111.303 3.3896 -2.04749 0
M  V30 1163 H 112.477 1.63795 -4.30706 0
M  V30 1164 H 110.792 1.62692 -3.83302 0
M  V30 1165 H 113.389 4.32244 -3.14753 0
M  V30 1166 H 113.732 3.88669 -1.49139 0
M  V30 1167 H 114.265 2.8157 -2.81004 0
M  V30 1168 H 111.004 3.05834 -5.79781 0
M  V30 1169 H 110.524 4.06385 -4.41148 0
M  V30 1170 H 112.203 4.10043 -5.00474 0
M  V30 1171 N 112.336 1.25143 0.95797 0
M  V30 1172 C 113.564 1.12424 1.73691 0
M  V30 1173 C 113.979 -0.322304 1.86029 0
M  V30 1174 O 113.336 -1.22186 1.35561 0
M  V30 1175 C 113.387 1.76933 3.15241 0
M  V30 1176 O 113.108 3.15932 3.03511 0
M  V30 1177 C 114.609 1.6995 4.09429 0
M  V30 1178 H 111.829 0.3923 0.544373 0
M  V30 1179 H 114.373 1.6544 1.20207 0
M  V30 1180 H 112.528 1.27895 3.6568 0
M  V30 1181 H 112.942 3.47598 3.9278 0
M  V30 1182 H 114.416 2.19753 5.06372 0
M  V30 1183 H 114.893 0.662619 4.34173 0
M  V30 1184 H 115.499 2.18461 3.64904 0
M  V30 1185 N 113.814 -1.1601 1.06675 0
M  V30 1186 C 114.744 -2.22688 0.702307 0
M  V30 1187 C 115.725 -1.67306 -0.307032 0
M  V30 1188 O 116.91 -1.93352 -0.181305 0
M  V30 1189 C 114.04 -3.47178 0.092038 0
M  V30 1190 C 112.994 -4.15477 1.02777 0
M  V30 1191 C 112.32 -5.33963 0.28061 0
M  V30 1192 C 113.62 -4.66019 2.35846 0
M  V30 1193 H 115.314 -2.53429 1.59419 0
M  V30 1194 H 112.86 -1.21813 0.767961 0
M  V30 1195 H 114.813 -4.21037 -0.174814 0
M  V30 1196 H 113.537 -3.15749 -0.834877 0
M  V30 1197 H 112.196 -3.43549 1.27944 0
M  V30 1198 H 111.844 -4.98788 -0.649545 0
M  V30 1199 H 111.544 -5.806 0.904258 0
M  V30 1200 H 113.068 -6.10596 0.021396 0
M  V30 1201 H 114.482 -5.3144 2.15045 0
M  V30 1202 H 112.879 -5.23293 2.93743 0
M  V30 1203 H 113.949 -3.82023 2.98641 0
M  V30 1204 N 115.292 -0.849877 -1.32721 0
M  V30 1205 C 116.54 -0.450032 -1.97026 0
M  V30 1206 C 116.861 0.996604 -1.67609 0
M  V30 1207 O 116.131 1.6958 -0.980786 0
M  V30 1208 H 114.711 -0.163426 -0.728904 0
M  V30 1209 H 117.373 -1.08526 -1.6189 0
M  V30 1210 H 116.469 -0.591146 -3.0645 0
M  V30 1211 N 116.77 1.45427 -0.607355 0
M  V30 1212 C 117.998 2.06614 -0.108814 0
M  V30 1213 C 118.413 1.45204 1.2067 0
M  V30 1214 O 117.77 0.566132 1.73497 0
M  V30 1215 C 117.821 3.61481 0.0375347 0
M  V30 1216 O 117.542 4.20598 -1.22593 0
M  V30 1217 C 119.043 4.39652 0.567561 0
M  V30 1218 H 116.263 0.66747 -0.0687351 0
M  V30 1219 H 118.807 1.86675 -0.835022 0
M  V30 1220 H 116.962 3.80762 0.714068 0
M  V30 1221 H 117.376 5.1377 -1.05547 0
M  V30 1222 H 118.85 5.48518 0.61905 0
M  V30 1223 H 119.327 4.09417 1.58978 0
M  V30 1224 H 119.933 4.25234 -0.0749202 0
M  V30 1225 N 118.248 0.346503 1.53744 0
M  V30 1226 C 119.494 -0.249473 2.0126 0
M  V30 1227 C 119.827 -1.49965 1.23386 0
M  V30 1228 O 119.102 -1.91811 0.32229 0
M  V30 1229 C 119.385 -0.560643 3.55709 0
M  V30 1230 C 119.238 0.701836 4.44291 0
M  V30 1231 C 120.557 -1.36905 4.18264 0
M  V30 1232 H 117.676 -0.0891987 0.731582 0
M  V30 1233 H 120.318 0.467624 1.84156 0
M  V30 1234 H 118.468 -1.17156 3.70414 0
M  V30 1235 H 120.14 1.33974 4.41417 0
M  V30 1236 H 118.383 1.32612 4.13033 0
M  V30 1237 H 119.054 0.43933 5.50249 0
M  V30 1238 H 121.53 -0.852448 4.07275 0
M  V30 1239 H 120.406 -1.55553 5.26398 0
M  V30 1240 H 120.667 -2.37203 3.73078 0
M  V30 1241 N 119.726 -1.57421 0.075193 0
M  V30 1242 C 120.975 -1.92794 -0.592731 0
M  V30 1243 C 121.288 -0.957478 -1.70563 0
M  V30 1244 O 122.494 -1.20417 -2.43335 0
M  V30 1245 C 120.95 -3.42495 -1.10569 0
M  V30 1246 C 120.558 -4.47994 -0.0236121 0
M  V30 1247 C 122.302 -3.86864 -1.74748 0
M  V30 1248 C 120.209 -5.88829 -0.550803 0
M  V30 1249 H 119.139 -0.719591 -0.225177 0
M  V30 1250 H 121.79 -1.82902 0.147978 0
M  V30 1251 H 120.172 -3.47471 -1.89947 0
M  V30 1252 H 121.346 -4.54637 0.751099 0
M  V30 1253 H 119.661 -4.13113 0.522159 0
M  V30 1254 H 122.258 -4.8947 -2.15229 0
M  V30 1255 H 122.601 -3.24417 -2.60882 0
M  V30 1256 H 123.134 -3.84504 -1.01986 0
M  V30 1257 H 119.873 -6.54929 0.273457 0
M  V30 1258 H 119.393 -5.85698 -1.29296 0
M  V30 1259 H 121.072 -6.38811 -1.02613 0
M  V30 1260 N 121.204 0.198386 -1.56346 0
M  V30 1261 C 122.62 0.549085 -1.49857 0
M  V30 1262 C 122.82 1.86016 -0.774611 0
M  V30 1263 O 121.876 2.50416 -0.323776 0
M  V30 1264 C 123.189 0.606868 -2.94512 0
M  V30 1265 C 124.737 0.695925 -3.05165 0
M  V30 1266 C 125.212 0.784848 -4.51225 0
M  V30 1267 N 126.703 0.848463 -4.55363 0
M  V30 1268 C 127.438 0.937378 -5.65686 0
M  V30 1269 N 126.934 0.9888 -6.85707 0
M  V30 1270 N 128.727 0.974312 -5.53592 0
M  V30 1271 H 120.878 -0.661655 -2.01831 0
M  V30 1272 H 123.141 -0.235261 -0.918344 0
M  V30 1273 H 122.847 -0.28732 -3.50524 0
M  V30 1274 H 122.721 1.46268 -3.47686 0
M  V30 1275 H 125.108 1.58055 -2.49204 0
M  V30 1276 H 125.189 -0.186022 -2.55123 0
M  V30 1277 H 124.833 -0.0954072 -5.0781 0
M  V30 1278 H 124.763 1.68255 -4.98997 0
M  V30 1279 H 127.254 0.818103 -3.68938 0
M  V30 1280 H 127.567 1.05707 -7.65536 0
M  V30 1281 H 125.912 0.957534 -6.88372 0
M  V30 1282 H 129.103 0.930954 -4.58749 0
M  V30 1283 H 129.276 1.04015 -6.39597 0
M  V30 1284 N 122.682 1.50554 0.465978 0
M  V30 1285 C 123.93 1.61479 1.21528 0
M  V30 1286 C 124.251 0.319596 1.92363 0
M  V30 1287 O 123.521 -0.663194 1.84333 0
M  V30 1288 H 122.101 0.595055 0.451573 0
M  V30 1289 H 124.763 1.87355 0.53704 0
M  V30 1290 H 123.859 2.42846 1.96042 0
M  V30 1291 N 124.16 -0.719506 1.40217 0
M  V30 1292 C 125.123 -1.8153 1.39927 0
M  V30 1293 C 126.123 -1.58095 0.293723 0
M  V30 1294 O 127.313 -1.65209 0.552429 0
M  V30 1295 C 124.445 -3.19561 1.18716 0
M  V30 1296 H 125.638 -1.83186 2.37451 0
M  V30 1297 H 123.191 -0.924746 1.26008 0
M  V30 1298 H 123.926 -3.23557 0.219366 0
M  V30 1299 H 123.711 -3.3797 1.98793 0
M  V30 1300 H 125.201 -3.99598 1.21291 0
M  V30 1301 N 125.638 -1.25649 -0.95132 0
M  V30 1302 C 126.866 -1.13343 -1.73092 0
M  V30 1303 C 127.281 0.312434 -1.86197 0
M  V30 1304 O 126.638 1.21465 -1.36207 0
M  V30 1305 C 126.689 -1.78602 -3.14299 0
M  V30 1306 O 126.41 -3.17537 -3.01831 0
M  V30 1307 C 127.911 -1.72119 -4.08522 0
M  V30 1308 H 125.131 -0.395181 -0.542285 0
M  V30 1309 H 127.675 -1.66076 -1.19328 0
M  V30 1310 H 125.83 -1.29832 -3.64996 0
M  V30 1311 H 126.244 -3.49676 -3.90931 0
M  V30 1312 H 127.718 -2.22435 -5.052 0
M  V30 1313 H 128.195 -0.685635 -4.33815 0
M  V30 1314 H 128.801 -2.20393 -3.63741 0
M  V30 1315 N 127.117 1.15442 -1.07289 0
M  V30 1316 C 128.345 1.90096 -0.81676 0
M  V30 1317 C 128.76 1.7798 0.629966 0
M  V30 1318 O 128.117 1.1313 1.43206 0
M  V30 1319 C 128.168 3.40466 -1.21512 0
M  V30 1320 O 127.889 3.52232 -2.60508 0
M  V30 1321 C 129.39 4.32145 -0.988198 0
M  V30 1322 H 126.61 0.602495 -0.295366 0
M  V30 1323 H 129.154 1.4627 -1.42918 0
M  V30 1324 H 127.309 3.81958 -0.647039 0
M  V30 1325 H 127.723 4.45549 -2.76742 0
M  V30 1326 H 129.197 5.36072 -1.31645 0
M  V30 1327 H 129.674 4.39135 0.0755063 0
M  V30 1328 H 130.28 3.96395 -1.54115 0
M  V30 1329 N 128.595 0.856903 1.32268 0
M  V30 1330 C 129.545 0.274899 2.26337 0
M  V30 1331 C 130.529 -0.580543 1.50062 0
M  V30 1332 O 131.721 -0.429559 1.71708 0
M  V30 1333 C 128.85 -0.533841 3.39124 0
M  V30 1334 C 127.936 0.334114 4.22782 0
M  V30 1335 N 128.327 1.42143 4.85416 0
M  V30 1336 C 126.625 0.124256 4.45827 0
M  V30 1337 C 127.326 1.95559 5.47843 0
M  V30 1338 N 126.302 1.25444 5.28928 0
M  V30 1339 H 130.104 1.10612 2.72291 0
M  V30 1340 H 127.618 0.703258 1.46383 0
M  V30 1341 H 129.615 -0.96722 4.05525 0
M  V30 1342 H 128.275 -1.36283 2.94715 0
M  V30 1343 H 129.286 1.80436 4.85451 0
M  V30 1344 H 125.963 -0.669837 4.12092 0
M  V30 1345 H 127.353 2.86714 6.07655 0
M  V30 1346 N 130.073 -1.45103 0.615059 0
M  V30 1347 C 131.303 -2.06254 0.119596 0
M  V30 1348 C 131.711 -1.4591 -1.20445 0
M  V30 1349 O 131.054 -0.570384 -1.7462 0
M  V30 1350 C 131.116 -3.59396 -0.0865591 0
M  V30 1351 C 130.78 -4.42116 1.15683 0
M  V30 1352 C 131.777 -4.7662 2.07676 0
M  V30 1353 C 129.462 -4.82749 1.38775 0
M  V30 1354 C 131.456 -5.50622 3.21082 0
M  V30 1355 C 129.143 -5.56504 2.52481 0
M  V30 1356 C 130.141 -5.90358 3.43463 0
M  V30 1357 O 129.829 -6.62615 4.55189 0
M  V30 1358 H 129.561 -0.672423 0.0694512 0
M  V30 1359 H 132.115 -1.87219 0.844885 0
M  V30 1360 H 130.345 -3.76859 -0.866823 0
M  V30 1361 H 132.034 -4.02365 -0.534555 0
M  V30 1362 H 132.8 -4.4578 1.91063 0
M  V30 1363 H 128.679 -4.55829 0.688545 0
M  V30 1364 H 132.223 -5.76965 3.92119 0
M  V30 1365 H 128.12 -5.86759 2.69043 0
M  V30 1366 H 128.888 -6.81071 4.53966 0
M  V30 1367 N 131.551 -0.354651 -1.53558 0
M  V30 1368 C 132.828 0.294281 -1.93374 0
M  V30 1369 C 133.208 1.67313 -1.28723 0
M  V30 1370 O 132.556 2.24179 -0.442247 0
M  V30 1371 C 132.766 0.355445 -3.47185 0
M  V30 1372 C 134.114 0.601007 -4.20325 0
M  V30 1373 O 135.138 0.437106 -3.53508 0
M  V30 1374 O 133.997 0.919322 -5.38712 0
M  V30 1375 H 131.091 0.174033 -0.808481 0
M  V30 1376 H 133.637 -0.406638 -1.64756 0
M  V30 1377 H 132.409 -0.611729 -3.86489 0
M  V30 1378 H 132.032 1.1027 -3.82003 0
M  V30 1379 N 133.029 1.57378 -0.0835403 0
M  V30 1380 C 134.259 1.97975 0.590713 0
M  V30 1381 C 134.667 0.961083 1.62972 0
M  V30 1382 O 134.01 -0.0590879 1.83605 0
M  V30 1383 C 134.072 3.34915 1.3066 0
M  V30 1384 C 133.736 4.55069 0.419698 0
M  V30 1385 C 134.733 5.18868 -0.32749 0
M  V30 1386 C 132.418 5.0114 0.341137 0
M  V30 1387 C 134.412 6.27098 -1.14134 0
M  V30 1388 C 132.099 6.0924 -0.476374 0
M  V30 1389 C 133.097 6.72083 -1.21627 0
M  V30 1390 O 132.785 7.781 -2.02028 0
M  V30 1391 H 132.517 0.655818 0.163947 0
M  V30 1392 H 135.071 2.04807 -0.156021 0
M  V30 1393 H 133.301 3.24733 2.09966 0
M  V30 1394 H 134.99 3.60037 1.87424 0
M  V30 1395 H 135.756 4.84211 -0.276459 0
M  V30 1396 H 131.635 4.51996 0.90668 0
M  V30 1397 H 135.179 6.7608 -1.71935 0
M  V30 1398 H 131.076 6.43329 -0.528927 0
M  V30 1399 H 131.844 7.95034 -1.94586 0
M  V30 1400 N 134.507 -0.190092 1.56449 0
M  V30 1401 C 135.753 -0.911052 1.81184 0
M  V30 1402 C 136.086 -1.82699 0.658396 0
M  V30 1403 O 135.361 -1.91491 -0.340775 0
M  V30 1404 C 135.644 -1.72297 3.16205 0
M  V30 1405 C 135.497 -0.831419 4.42049 0
M  V30 1406 C 136.816 -2.69454 3.47969 0
M  V30 1407 H 133.935 -0.32977 0.659106 0
M  V30 1408 H 136.577 -0.178169 1.89163 0
M  V30 1409 H 134.727 -2.34778 3.09534 0
M  V30 1410 H 136.399 -0.220929 4.60771 0
M  V30 1411 H 134.642 -0.138406 4.33579 0
M  V30 1412 H 135.313 -1.43461 5.33032 0
M  V30 1413 H 137.789 -2.17104 3.54972 0
M  V30 1414 H 136.665 -3.23342 4.43555 0
M  V30 1415 H 136.926 -3.48744 2.71717 0
M  V30 1416 N 135.985 -1.50799 -0.457987 0
M  V30 1417 C 137.225 -1.64088 -1.21879 0
M  V30 1418 C 137.589 -0.339848 -1.88968 0
M  V30 1419 O 138.79 -0.348301 -2.66534 0
M  V30 1420 C 137.061 -2.79726 -2.2246 0
M  V30 1421 S 138.62 -3.13225 -3.07303 0
M  V30 1422 H 135.438 -0.578314 -0.41361 0
M  V30 1423 H 138.04 -1.88632 -0.513645 0
M  V30 1424 H 136.744 -3.72722 -1.71775 0
M  V30 1425 H 136.275 -2.57308 -2.97584 0
M  V30 1426 H 138.29 -2.58062 -4.23814 0
M  V30 1427 N 137.463 0.71206 -1.40597 0
M  V30 1428 C 138.411 1.84746 -1.41321 0
M  V30 1429 C 139.405 1.66842 -0.293268 0
M  V30 1430 O 140.611 1.73904 -0.464481 0
M  V30 1431 H 136.986 0.608522 -0.441819 0
M  V30 1432 H 138.957 1.81252 -2.37045 0
M  V30 1433 C 137.706 3.22638 -1.29614 0
M  V30 1434 H 137.029 3.37023 -2.15071 0
M  V30 1435 H 138.469 4.02209 -1.3418 0
M  V30 1436 C 136.928 3.36899 -0.00673121 0
M  V30 1437 O 137.458 3.90186 0.954859 0
M  V30 1438 N 135.664 2.9053 0.0639327 0
M  V30 1439 H 135.211 2.47353 -0.719311 0
M  V30 1440 H 135.169 3.0045 0.926118 0
M  V30 1441 N 138.941 1.26152 0.944643 0
M  V30 1442 C 139.851 1.09176 2.07648 0
M  V30 1443 C 140.867 0.0261935 1.7398 0
M  V30 1444 O 142.043 0.229208 2.00091 0
M  V30 1445 C 139.108 0.722915 3.39079 0
M  V30 1446 C 138.169 1.86752 3.86552 0
M  V30 1447 C 137.402 1.51617 5.11711 0
M  V30 1448 O 137.625 0.416331 5.68879 0
M  V30 1449 O 136.559 2.34975 5.54139 0
M  V30 1450 H 140.385 2.0412 2.24875 0
M  V30 1451 H 137.97 1.05182 1.061 0
M  V30 1452 H 139.852 0.529787 4.18056 0
M  V30 1453 H 138.527 -0.197159 3.23099 0
M  V30 1454 H 137.434 2.11558 3.08535 0
M  V30 1455 H 138.767 2.76719 4.07047 0
M  V30 1456 N 140.419 -1.14872 1.07899 0
M  V30 1457 C 141.382 -2.17986 0.708161 0
M  V30 1458 C 142.382 -1.58775 -0.25442 0
M  V30 1459 O 143.572 -1.74166 -0.034645 0
M  V30 1460 C 140.704 -3.40871 0.0446929 0
M  V30 1461 H 141.897 -2.52306 1.62116 0
M  V30 1462 H 139.45 -1.2943 0.876218 0
M  V30 1463 H 140.185 -3.12124 -0.880281 0
M  V30 1464 H 139.97 -3.8511 0.737091 0
M  V30 1465 H 141.46 -4.17121 -0.19991 0
M  V30 1466 N 141.898 -0.863906 -1.31812 0
M  V30 1467 C 142.861 -0.320212 -2.26952 0
M  V30 1468 C 143.861 0.525369 -1.51975 0
M  V30 1469 O 145.051 0.335547 -1.70938 0
M  V30 1470 C 142.183 0.545919 -3.365 0
M  V30 1471 H 143.376 -1.16004 -2.76556 0
M  V30 1472 H 140.929 -0.638995 -1.42641 0
M  V30 1473 H 141.664 1.40718 -2.92179 0
M  V30 1474 H 141.449 -0.0594674 -3.92055 0
M  V30 1475 H 142.939 0.918796 -4.07367 0
M  V30 1476 N 143.376 1.44774 -0.622745 0
M  V30 1477 C 144.323 2.30635 0.0871679 0
M  V30 1478 C 145.293 1.42994 0.845097 0
M  V30 1479 O 146.478 1.71907 0.827812 0
M  V30 1480 C 143.618 3.28144 1.06844 0
M  V30 1481 C 142.731 4.30888 0.309809 0
M  V30 1482 C 141.866 5.15494 1.28215 0
M  V30 1483 C 140.905 6.09953 0.512198 0
M  V30 1484 N 140.042 6.87287 1.43458 0
M  V30 1485 H 144.882 2.90803 -0.650974 0
M  V30 1486 H 142.419 1.43286 -0.33281 0
M  V30 1487 H 144.377 3.83157 1.65066 0
M  V30 1488 H 143.007 2.69695 1.77382 0
M  V30 1489 H 142.059 3.78414 -0.388181 0
M  V30 1490 H 143.371 4.97955 -0.290254 0
M  V30 1491 H 142.525 5.74983 1.93596 0
M  V30 1492 H 141.264 4.48481 1.91614 0
M  V30 1493 H 140.269 5.49581 -0.155151 0
M  V30 1494 H 141.494 6.78999 -0.116958 0
M  V30 1495 H 139.44 6.2295 2.05594 0
M  V30 1496 H 139.357 7.50763 0.888335 0
M  V30 1497 H 140.625 7.51306 2.07749 0
M  V30 1498 N 144.854 0.36279 1.53368 0
M  V30 1499 C 146.102 -0.227326 2.00817 0
M  V30 1500 C 146.423 -1.49511 1.25186 0
M  V30 1501 O 145.693 -1.92482 0.364348 0
M  V30 1502 H 144.273 -0.0869923 0.741917 0
M  V30 1503 H 146.935 0.488381 1.88682 0
M  V30 1504 H 146.031 -0.456273 3.08747 0
M  V30 1505 N 146.332 -1.57332 0.0918853 0
M  V30 1506 C 147.581 -1.93412 -0.572249 0
M  V30 1507 C 147.894 -0.975515 -1.69538 0
M  V30 1508 O 149.1 -1.22991 -2.42045 0
M  V30 1509 C 147.556 -3.43648 -1.0693 0
M  V30 1510 C 147.164 -4.47994 0.0239049 0
M  V30 1511 C 148.908 -3.88695 -1.70635 0
M  V30 1512 C 146.815 -5.89381 -0.488319 0
M  V30 1513 H 145.745 -0.721939 -0.217532 0
M  V30 1514 H 148.396 -1.82735 0.167369 0
M  V30 1515 H 146.778 -3.49466 -1.8625 0
M  V30 1516 H 147.952 -4.53815 0.799277 0
M  V30 1517 H 146.267 -4.12536 0.565946 0
M  V30 1518 H 148.864 -4.91725 -2.10025 0
M  V30 1519 H 149.207 -3.27166 -2.57426 0
M  V30 1520 H 149.74 -3.85564 -0.979023 0
M  V30 1521 H 146.479 -6.54602 0.342906 0
M  V30 1522 H 145.999 -5.87037 -1.23077 0
M  V30 1523 H 147.678 -6.39863 -0.958317 0
M  V30 1524 N 147.81 0.181792 -1.56548 0
M  V30 1525 C 148.773 1.20894 -1.94724 0
M  V30 1526 C 149.773 1.37738 -0.829747 0
M  V30 1527 O 150.963 1.35323 -1.09697 0
M  V30 1528 C 148.095 2.57593 -2.23291 0
M  V30 1529 H 149.288 0.882275 -2.86629 0
M  V30 1530 H 146.841 0.423838 -1.50444 0
M  V30 1531 H 147.576 2.95291 -1.34067 0
M  V30 1532 H 147.361 2.46735 -3.04736 0
M  V30 1533 H 148.851 3.31637 -2.53785 0
M  V30 1534 N 149.288 1.51039 0.449983 0
M  V30 1535 C 150.22 1.67617 1.56324 0
M  V30 1536 C 151.233 0.557083 1.52972 0
M  V30 1537 O 152.422 0.830989 1.57977 0
M  V30 1538 C 149.522 1.66402 2.95235 0
M  V30 1539 C 148.695 2.9469 3.23229 0
M  V30 1540 C 147.754 2.85832 4.41799 0
M  V30 1541 O 146.78 3.59785 4.41071 0
M  V30 1542 N 147.982 2.00821 5.44657 0
M  V30 1543 H 150.747 2.63648 1.42512 0
M  V30 1544 H 148.308 1.48767 0.638737 0
M  V30 1545 H 150.3 1.58062 3.72557 0
M  V30 1546 H 148.87 0.780182 3.02708 0
M  V30 1547 H 148.09 3.16996 2.34323 0
M  V30 1548 H 149.378 3.79636 3.38754 0
M  V30 1549 H 148.776 1.40091 5.48079 0
M  V30 1550 H 147.333 1.98368 6.20881 0
M  V30 1551 N 150.766 -0.704594 1.40972 0
M  V30 1552 C 151.729 -1.80035 1.41845 0
M  V30 1553 C 152.729 -1.57774 0.310474 0
M  V30 1554 O 153.919 -1.64613 0.56992 0
M  V30 1555 C 151.051 -3.18284 1.22098 0
M  V30 1556 H 152.244 -1.80658 2.3938 0
M  V30 1557 H 149.797 -0.911329 1.26982 0
M  V30 1558 H 150.532 -3.23306 0.253672 0
M  V30 1559 H 150.317 -3.35843 2.02366 0
M  V30 1560 H 151.807 -3.98289 1.25522 0
M  V30 1561 N 152.244 -1.26651 -0.937939 0
M  V30 1562 C 153.207 -1.08546 -2.01867 0
M  V30 1563 C 154.207 -0.0327327 -1.60767 0
M  V30 1564 O 155.397 -0.276427 -1.71993 0
M  V30 1565 C 152.529 -0.651711 -3.34613 0
M  V30 1566 H 153.722 -2.04502 -2.1936 0
M  V30 1567 H 151.275 -1.09294 -1.11734 0
M  V30 1568 H 152.01 0.309696 -3.22818 0
M  V30 1569 H 151.795 -1.41189 -3.65798 0
M  V30 1570 H 153.285 -0.546973 -4.14002 0
M  V30 1571 N 153.722 1.14298 -1.08507 0
M  V30 1572 C 154.67 2.21483 -0.710483 0
M  V30 1573 C 155.664 1.66998 0.284234 0
M  V30 1574 O 156.87 1.79401 0.146692 0
M  V30 1575 H 153.245 0.721578 -0.211729 0
M  V30 1576 H 155.216 2.50348 -1.62384 0
M  V30 1577 C 153.965 3.4743 -0.137007 0
M  V30 1578 H 153.288 3.89686 -0.893592 0
M  V30 1579 H 154.728 4.2391 0.0872789 0
M  V30 1580 C 153.187 3.17548 1.12538 0
M  V30 1581 O 153.717 3.35437 2.21009 0
M  V30 1582 N 151.923 2.71499 1.03617 0
M  V30 1583 H 151.47 2.57143 0.153403 0
M  V30 1584 H 151.428 2.51881 1.88158 0
M  V30 1585 N 155.201 0.870884 1.31352 0
M  V30 1586 C 156.429 0.49677 2.00848 0
M  V30 1587 C 156.844 -0.910998 1.65367 0
M  V30 1588 O 156.201 -1.59696 0.883374 0
M  V30 1589 C 156.252 0.645308 3.55694 0
M  V30 1590 O 155.973 1.99764 3.89905 0
M  V30 1591 C 157.474 0.272326 4.42463 0
M  V30 1592 H 154.694 0.193462 0.642506 0
M  V30 1593 H 157.238 1.1723 1.67563 0
M  V30 1594 H 155.393 0.0173176 3.87396 0
M  V30 1595 H 155.807 2.00607 4.84621 0
M  V30 1596 H 157.281 0.427208 5.50344 0
M  V30 1597 H 157.758 -0.788587 4.32062 0
M  V30 1598 H 158.364 0.876054 4.1618 0
M  V30 1599 N 156.679 -1.44442 0.630414 0
M  V30 1600 C 157.907 -2.06414 0.141671 0
M  V30 1601 C 158.322 -1.47105 -1.18345 0
M  V30 1602 O 157.679 -0.593662 -1.72574 0
M  V30 1603 C 157.73 -3.61494 0.0199784 0
M  V30 1604 O 157.451 -4.18594 1.29269 0
M  V30 1605 C 158.952 -4.40499 -0.497544 0
M  V30 1606 H 156.172 -0.666292 0.0793452 0
M  V30 1607 H 158.716 -1.85323 0.864614 0
M  V30 1608 H 156.871 -3.8185 -0.653402 0
M  V30 1609 H 157.285 -5.12026 1.13707 0
M  V30 1610 H 158.759 -5.49433 -0.531708 0
M  V30 1611 H 159.236 -4.11895 -1.52445 0
M  V30 1612 H 159.842 -4.25061 0.142562 0
M  V30 1613 N 158.157 -0.370918 -1.53173 0
M  V30 1614 C 159.405 0.216673 -2.00935 0
M  V30 1615 C 159.726 1.48845 -1.25977 0
M  V30 1616 O 158.996 1.92286 -0.374551 0
M  V30 1617 H 157.576 0.0830565 -0.742368 0
M  V30 1618 H 160.238 -0.49838 -1.8842 0
M  V30 1619 H 159.334 0.439893 -3.08984 0
M  V30 1620 N 159.635 1.57281 -0.100228 0
M  V30 1621 C 160.881 1.94826 0.563101 0
M  V30 1622 C 161.214 0.982475 1.67514 0
M  V30 1623 O 160.489 0.0164069 1.94493 0
M  V30 1624 C 160.772 3.42453 1.11346 0
M  V30 1625 C 160.625 4.498 0.00612081 0
M  V30 1626 C 161.944 3.91506 2.01024 0
M  V30 1627 H 159.063 0.708428 0.203221 0
M  V30 1628 H 161.705 1.8922 -0.171979 0
M  V30 1629 H 159.855 3.47361 1.7399 0
M  V30 1630 H 161.527 4.57 -0.628357 0
M  V30 1631 H 159.77 4.28756 -0.659581 0
M  V30 1632 H 160.441 5.50306 0.432109 0
M  V30 1633 H 162.917 3.88784 1.48278 0
M  V30 1634 H 161.793 4.95358 2.36457 0
M  V30 1635 H 162.054 3.31099 2.92961 0
M  V30 1636 N 161.113 -0.173488 1.56642 0
M  V30 1637 C 162.524 -0.736155 1.71574 0
M  V30 1638 C 162.875 -1.82888 0.710389 0
M  V30 1639 O 162 -2.16017 -0.1287 0
M  V30 1640 C 162.595 -1.34211 3.11083 0
M  V30 1641 C 161.154 -1.85162 3.27707 0
M  V30 1642 C 160.301 -0.729765 2.67525 0
M  V30 1643 H 163.252 0.0518786 1.58615 0
M  V30 1644 H 163.273 -2.21178 3.09613 0
M  V30 1645 H 162.785 -0.546579 3.84232 0
M  V30 1646 H 160.886 -2.67366 2.59512 0
M  V30 1647 H 160.999 -1.99855 4.35425 0
M  V30 1648 H 159.363 -1.14965 2.27278 0
M  V30 1649 H 160.146 0.0538806 3.43258 0
M  V30 1650 N 162.591 -1.51276 -0.441967 0
M  V30 1651 C 163.837 -1.63958 -1.19355 0
M  V30 1652 C 164.17 -0.352543 -1.90973 0
M  V30 1653 O 163.445 0.647627 -1.83401 0
M  V30 1654 C 163.728 -2.83979 -2.21422 0
M  V30 1655 C 163.581 -4.22646 -1.53918 0
M  V30 1656 C 164.9 -2.99521 -3.22451 0
M  V30 1657 H 162.019 -0.596709 -0.432559 0
M  V30 1658 H 164.661 -1.83748 -0.483398 0
M  V30 1659 H 162.811 -2.67237 -2.81987 0
M  V30 1660 H 164.483 -4.51045 -0.967256 0
M  V30 1661 H 162.726 -4.25558 -0.841615 0
M  V30 1662 H 163.397 -5.02609 -2.28229 0
M  V30 1663 H 165.873 -3.14944 -2.71937 0
M  V30 1664 H 164.749 -3.85072 -3.91166 0
M  V30 1665 H 165.01 -2.11391 -3.88287 0
M  V30 1666 N 164.069 0.697108 -1.41344 0
M  V30 1667 C 165.318 1.45279 -1.39918 0
M  V30 1668 C 165.631 1.95597 -0.0109624 0
M  V30 1669 O 166.837 2.71208 0.125919 0
M  V30 1670 C 165.293 2.62695 -2.46007 0
M  V30 1671 C 164.901 2.19169 -3.90729 0
M  V30 1672 C 166.645 3.40336 -2.53715 0
M  V30 1673 C 164.552 3.33535 -4.88373 0
M  V30 1674 H 163.482 0.545692 -0.520323 0
M  V30 1675 H 166.133 0.756929 -1.67161 0
M  V30 1676 H 164.515 3.34541 -2.11892 0
M  V30 1677 H 165.689 1.54623 -4.34083 0
M  V30 1678 H 164.004 1.54525 -3.86666 0
M  V30 1679 H 166.601 4.2547 -3.2385 0
M  V30 1680 H 166.944 3.85418 -1.5735 0
M  V30 1681 H 167.477 2.75546 -2.86913 0
M  V30 1682 H 164.216 2.93468 -5.86137 0
M  V30 1683 H 163.736 3.96936 -4.49668 0
M  V30 1684 H 165.415 3.99335 -5.09059 0
M  V30 1685 N 165.547 1.27147 0.931209 0
M  V30 1686 C 166.794 1.13278 1.67852 0
M  V30 1687 C 167.122 -0.32204 1.91815 0
M  V30 1688 O 166.377 -1.25224 1.50391 0
M  V30 1689 C 166.676 1.8579 3.05314 0
M  V30 1690 C 166.342 3.35657 3.01073 0
M  V30 1691 C 165.004 3.76536 2.99623 0
M  V30 1692 C 167.356 4.31299 2.92627 0
M  V30 1693 C 164.684 5.11426 2.87506 0
M  V30 1694 C 167.036 5.66242 2.82051 0
M  V30 1695 C 165.7 6.06418 2.7895 0
M  V30 1696 H 164.97 0.414515 0.614214 0
M  V30 1697 H 167.617 1.57712 1.08624 0
M  V30 1698 H 165.922 1.33854 3.68226 0
M  V30 1699 H 167.619 1.72491 3.62005 0
M  V30 1700 H 164.209 3.03146 3.02986 0
M  V30 1701 H 168.393 4.00692 2.92848 0
M  V30 1702 H 163.649 5.41705 2.83489 0
M  V30 1703 H 167.823 6.40026 2.74481 0
M  V30 1704 H 165.45 7.10895 2.69318 0
M  V30 1705 N 167.025 -1.13721 1.09112 0
M  V30 1706 C 168.273 -1.84559 0.823562 0
M  V30 1707 C 168.594 -1.83754 -0.652658 0
M  V30 1708 O 167.864 -1.29102 -1.47342 0
M  V30 1709 H 166.444 -0.683376 0.301673 0
M  V30 1710 H 169.106 -1.37771 1.37859 0
M  V30 1711 H 168.202 -2.8917 1.17419 0
M  V30 1712 N 168.503 -0.877838 -1.30888 0
M  V30 1713 C 169.752 -0.488793 -1.95688 0
M  V30 1714 C 170.065 0.965485 -1.70111 0
M  V30 1715 O 171.271 1.46104 -2.28836 0
M  V30 1716 C 169.727 -0.823201 -3.50359 0
M  V30 1717 C 169.335 -2.29477 -3.84765 0
M  V30 1718 C 171.079 -0.503009 -4.21509 0
M  V30 1719 C 168.986 -2.57118 -5.32583 0
M  V30 1720 H 167.916 -0.179062 -0.732429 0
M  V30 1721 H 170.567 -1.07183 -1.48943 0
M  V30 1722 H 168.949 -0.169331 -3.95638 0
M  V30 1723 H 170.123 -2.99236 -3.5042 0
M  V30 1724 H 168.438 -2.58178 -3.267 0
M  V30 1725 H 171.035 -0.68665 -5.30273 0
M  V30 1726 H 171.378 0.557109 -4.12555 0
M  V30 1727 H 171.911 -1.11376 -3.8189 0
M  V30 1728 H 168.65 -3.61843 -5.4658 0
M  V30 1729 H 168.17 -1.91961 -5.68253 0
M  V30 1730 H 169.849 -2.42251 -5.99936 0
M  V30 1731 N 169.982 1.44106 -0.638065 0
M  V30 1732 C 171.228 2.02277 -0.145546 0
M  V30 1733 C 171.561 1.50125 1.23191 0
M  V30 1734 O 170.836 0.688133 1.8192 0
M  V30 1735 C 171.119 3.59829 -0.139791 0
M  V30 1736 C 170.972 4.22247 -1.55008 0
M  V30 1737 C 172.291 4.36873 0.531966 0
M  V30 1738 H 169.41 0.734992 -0.0543632 0
M  V30 1739 H 172.052 1.71592 -0.815863 0
M  V30 1740 H 170.202 3.86102 0.431007 0
M  V30 1741 H 171.874 4.07057 -2.1703 0
M  V30 1742 H 170.117 3.79476 -2.10191 0
M  V30 1743 H 170.788 5.31284 -1.49804 0
M  V30 1744 H 173.264 4.16074 0.0464781 0
M  V30 1745 H 172.14 5.4657 0.505206 0
M  V30 1746 H 172.401 4.11995 1.60352 0
M  V30 1747 N 171.46 0.379036 1.52974 0
M  V30 1748 C 172.688 -0.20679 2.05864 0
M  V30 1749 C 173.103 -1.41356 1.25155 0
M  V30 1750 O 172.46 -1.8009 0.295588 0
M  V30 1751 C 172.511 -0.587045 3.56702 0
M  V30 1752 O 172.232 0.571776 4.34353 0
M  V30 1753 C 173.733 -1.22983 4.25899 0
M  V30 1754 H 170.953 -0.0336123 0.670158 0
M  V30 1755 H 173.497 0.541298 1.97206 0
M  V30 1756 H 171.652 -1.28504 3.65466 0
M  V30 1757 H 172.066 0.261544 5.23847 0
M  V30 1758 H 173.54 -1.44635 5.32715 0
M  V30 1759 H 174.017 -2.19416 3.80465 0
M  V30 1760 H 174.623 -0.572892 4.21424 0
M  V30 1761 N 172.938 -1.57226 0.108567 0
M  V30 1762 C 174.166 -1.99179 -0.559954 0
M  V30 1763 C 174.581 -0.988022 -1.60884 0
M  V30 1764 O 173.938 0.0205512 -1.82488 0
M  V30 1765 C 173.989 -3.41159 -1.19552 0
M  V30 1766 O 173.71 -4.37694 -0.188577 0
M  V30 1767 C 175.211 -3.98188 -1.94837 0
M  V30 1768 H 172.431 -0.654228 -0.149088 0
M  V30 1769 H 174.975 -2.03598 0.19183 0
M  V30 1770 H 173.13 -3.37711 -1.89815 0
M  V30 1771 H 173.544 -5.20469 -0.649014 0
M  V30 1772 H 175.018 -4.99644 -2.34648 0
M  V30 1773 H 175.495 -3.3675 -2.81951 0
M  V30 1774 H 176.101 -4.0515 -1.2936 0
M  V30 1775 N 174.416 0.165178 -1.56732 0
M  V30 1776 C 175.326 1.22423 -2.00125 0
M  V30 1777 C 176.342 1.48084 -0.913619 0
M  V30 1778 O 177.518 1.60112 -1.22172 0
M  V30 1779 C 174.583 2.54197 -2.35764 0
M  V30 1780 C 173.644 2.36343 -3.58386 0
M  V30 1781 C 172.877 3.61834 -3.92316 0
M  V30 1782 O 173.1 4.67267 -3.27135 0
M  V30 1783 O 172.034 3.55579 -4.85641 0
M  V30 1784 H 175.86 0.885886 -2.90492 0
M  V30 1785 H 173.445 0.372518 -1.44681 0
M  V30 1786 H 175.327 3.3192 -2.59629 0
M  V30 1787 H 174.002 2.87598 -1.48557 0
M  V30 1788 H 172.909 1.56632 -3.39731 0
M  V30 1789 H 174.242 2.07865 -4.46154 0
M  V30 1790 N 175.894 1.51508 0.433938 0
M  V30 1791 C 176.842 1.73646 1.54757 0
M  V30 1792 C 177.836 0.602854 1.5831 0
M  V30 1793 O 179.042 0.784318 1.62014 0
M  V30 1794 H 175.417 0.548718 0.51421 0
M  V30 1795 H 177.388 2.66991 1.33261 0
M  V30 1796 C 176.137 1.88172 2.92381 0
M  V30 1797 H 175.46 2.74808 2.90381 0
M  V30 1798 H 176.9 2.07672 3.6966 0
M  V30 1799 C 175.359 0.64239 3.30719 0
M  V30 1800 O 175.889 -0.201362 4.01195 0
M  V30 1801 N 174.095 0.485489 2.86516 0
M  V30 1802 H 173.642 1.17318 2.29334 0
M  V30 1803 H 173.6 -0.342482 3.12529 0
M  V30 1804 N 177.372 -0.689602 1.41712 0
M  V30 1805 C 178.621 -1.44534 1.40686 0
M  V30 1806 C 178.934 -1.95588 0.0213352 0
M  V30 1807 O 180.14 -2.71271 -0.111534 0
M  V30 1808 C 178.596 -2.61387 2.47396 0
M  V30 1809 C 178.204 -2.17094 3.91885 0
M  V30 1810 C 179.948 -3.38986 2.55517 0
M  V30 1811 C 177.855 -3.3094 4.90135 0
M  V30 1812 H 176.785 -0.542925 0.52321 0
M  V30 1813 H 179.436 -0.748054 1.6756 0
M  V30 1814 H 177.818 -3.33412 2.13664 0
M  V30 1815 H 178.992 -1.52318 4.34897 0
M  V30 1816 H 177.307 -1.52473 3.8748 0
M  V30 1817 H 179.904 -4.23747 3.26102 0
M  V30 1818 H 180.247 -3.84578 1.59391 0
M  V30 1819 H 180.78 -2.74021 2.8837 0
M  V30 1820 H 177.519 -2.90355 5.87685 0
M  V30 1821 H 177.039 -3.94546 4.51767 0
M  V30 1822 H 178.718 -3.9663 5.11169 0
M  V30 1823 N 178.85 -1.27639 -0.924453 0
M  V30 1824 C 179.76 -1.12466 -2.05885 0
M  V30 1825 C 180.776 -0.053869 -1.73917 0
M  V30 1826 O 181.952 -0.261012 -1.99702 0
M  V30 1827 C 179.017 -0.776768 -3.37886 0
M  V30 1828 C 178.078 -1.92878 -3.83532 0
M  V30 1829 C 177.311 -1.59739 -5.09234 0
M  V30 1830 O 177.534 -0.506782 -5.68144 0
M  V30 1831 O 176.468 -2.43761 -5.50331 0
M  V30 1832 H 180.294 -2.07671 -2.21599 0
M  V30 1833 H 177.879 -1.06857 -1.04413 0
M  V30 1834 H 179.761 -0.596229 -4.17161 0
M  V30 1835 H 178.436 0.145732 -3.23372 0
M  V30 1836 H 177.343 -2.1644 -3.0513 0
M  V30 1837 H 178.676 -2.8316 -4.02593 0
M  V30 1838 N 180.328 1.1314 -1.09713 0
M  V30 1839 C 181.26 2.18343 -0.697056 0
M  V30 1840 C 182.273 1.60669 0.262551 0
M  V30 1841 O 183.462 1.78435 0.0481527 0
M  V30 1842 C 180.562 3.38899 -0.00684728 0
M  V30 1843 C 179.735 4.26078 -0.988741 0
M  V30 1844 C 178.794 5.25155 -0.331394 0
M  V30 1845 O 177.82 5.60701 -0.979926 0
M  V30 1846 N 179.022 5.73271 0.913261 0
M  V30 1847 H 181.787 2.5328 -1.60216 0
M  V30 1848 H 179.348 1.28491 -0.984971 0
M  V30 1849 H 181.34 4.02255 0.444191 0
M  V30 1850 H 179.91 3.02175 0.800551 0
M  V30 1851 H 179.13 3.59453 -1.61826 0
M  V30 1852 H 180.418 4.81178 -1.65364 0
M  V30 1853 H 179.816 5.46544 1.45966 0
M  V30 1854 H 178.373 6.3855 1.30757 0
M  V30 1855 N 181.806 0.884767 1.30421 0
M  V30 1856 C 182.769 0.356277 2.26414 0
M  V30 1857 C 183.769 -0.501124 1.52792 0
M  V30 1858 O 184.959 -0.30831 1.7145 0
M  V30 1859 C 182.091 -0.492316 3.37326 0
M  V30 1860 H 183.284 1.20389 2.74675 0
M  V30 1861 H 180.837 0.661607 1.41607 0
M  V30 1862 H 181.572 -1.36052 2.94381 0
M  V30 1863 H 181.357 0.121832 3.91911 0
M  V30 1864 H 182.847 -0.853871 4.08777 0
M  V30 1865 N 183.284 -1.43765 0.645699 0
M  V30 1866 C 184.533 -2.01116 0.153412 0
M  V30 1867 C 184.846 -1.51493 -1.23731 0
M  V30 1868 O 186.052 -2.01067 -1.8244 0
M  V30 1869 C 184.508 -3.59206 0.223473 0
M  V30 1870 C 184.116 -4.17823 1.61642 0
M  V30 1871 C 185.86 -4.23972 -0.211597 0
M  V30 1872 C 183.767 -5.68183 1.64081 0
M  V30 1873 H 182.697 -0.752093 0.0535891 0
M  V30 1874 H 185.348 -1.6482 0.806633 0
M  V30 1875 H 183.73 -3.92867 -0.497118 0
M  V30 1876 H 184.904 -3.95674 2.36176 0
M  V30 1877 H 183.219 -3.65399 1.99681 0
M  V30 1878 H 185.816 -5.34275 -0.213112 0
M  V30 1879 H 186.159 -3.97352 -1.24165 0
M  V30 1880 H 186.692 -3.95166 0.456988 0
M  V30 1881 H 183.431 -5.99559 2.64971 0
M  V30 1882 H 182.951 -5.9241 0.938611 0
M  V30 1883 H 184.63 -6.32085 1.3812 0
M  V30 1884 N 184.763 -0.387143 -1.52771 0
M  V30 1885 C 185.673 0.456442 -2.30117 0
M  V30 1886 C 186.689 1.07342 -1.36944 0
M  V30 1887 O 187.865 1.07971 -1.70013 0
M  V30 1888 C 184.93 1.56957 -3.09136 0
M  V30 1889 C 183.991 0.977916 -4.18014 0
M  V30 1890 C 183.224 2.038 -4.93256 0
M  V30 1891 O 183.447 3.25271 -4.68567 0
M  V30 1892 O 182.381 1.6565 -5.78657 0
M  V30 1893 H 186.207 -0.17359 -3.03203 0
M  V30 1894 H 183.792 -0.150919 -1.48636 0
M  V30 1895 H 185.674 2.21628 -3.58412 0
M  V30 1896 H 184.349 2.18461 -2.38865 0
M  V30 1897 H 183.256 0.294525 -3.72939 0
M  V30 1898 H 184.589 0.407128 -4.90513 0
M  V30 1899 N 186.241 1.57166 -0.116904 0
M  V30 1900 C 187.657 1.5779 0.239693 0
M  V30 1901 C 187.857 1.1295 1.66867 0
M  V30 1902 O 186.913 0.81592 2.38954 0
M  V30 1903 C 188.226 3.00699 0.00828202 0
M  V30 1904 C 189.774 3.12912 0.0743438 0
M  V30 1905 C 190.249 4.57817 -0.129348 0
M  V30 1906 N 191.74 4.63139 -0.075247 0
M  V30 1907 C 192.475 5.73023 -0.207788 0
M  V30 1908 N 191.971 6.91665 -0.396382 0
M  V30 1909 N 193.764 5.61906 -0.14751 0
M  V30 1910 H 185.915 1.84615 -1.05029 0
M  V30 1911 H 188.178 0.85311 -0.41341 0
M  V30 1912 H 187.884 3.37784 -0.979531 0
M  V30 1913 H 187.758 3.69848 0.741077 0
M  V30 1914 H 190.145 2.75686 1.05268 0
M  V30 1915 H 190.226 2.4631 -0.690297 0
M  V30 1916 H 189.87 4.95742 -1.10465 0
M  V30 1917 H 189.8 5.22507 0.655253 0
M  V30 1918 H 192.291 3.7784 0.0670898 0
M  V30 1919 H 192.604 7.71255 -0.488437 0
M  V30 1920 H 190.949 6.93654 -0.432329 0
M  V30 1921 H 194.14 4.681 -0.00115036 0
M  V30 1922 H 194.313 6.47501 -0.254247 0
M  V30 1923 N 187.719 -0.156864 1.56817 0
M  V30 1924 C 188.682 -1.17781 1.96622 0
M  V30 1925 C 189.682 -1.36401 0.851555 0
M  V30 1926 O 190.872 -1.33561 1.11836 0
M  V30 1927 C 188.004 -2.54008 2.27361 0
M  V30 1928 H 189.197 -0.836564 2.87996 0
M  V30 1929 H 186.75 -0.39985 1.51099 0
M  V30 1930 H 187.485 -2.9312 1.38748 0
M  V30 1931 H 187.27 -2.41856 3.08623 0
M  V30 1932 H 188.76 -3.27558 2.59029 0
M  V30 1933 N 189.197 -1.51736 -0.425897 0
M  V30 1934 C 190.445 -1.64644 -1.17204 0
M  V30 1935 C 190.766 -0.370486 -1.91448 0
M  V30 1936 O 190.036 0.614088 -1.86026 0
M  V30 1937 H 188.616 -0.606819 -0.435638 0
M  V30 1938 H 191.278 -1.88713 -0.487177 0
M  V30 1939 H 190.374 -2.47958 -1.89534 0
M  V30 1940 N 190.675 0.682077 -1.42076 0
M  V30 1941 C 191.903 1.47057 -1.4554 0
M  V30 1942 C 192.318 1.8869 -0.0645779 0
M  V30 1943 O 191.675 1.57666 0.919115 0
M  V30 1944 C 191.726 2.72442 -2.37609 0
M  V30 1945 O 191.447 2.32559 -3.71279 0
M  V30 1946 C 192.948 3.66069 -2.50017 0
M  V30 1947 H 190.168 0.452737 -0.495248 0
M  V30 1948 H 192.712 0.838695 -1.8651 0
M  V30 1949 H 190.867 3.31835 -1.9991 0
M  V30 1950 H 191.281 3.13475 -4.20516 0
M  V30 1951 H 192.755 4.50792 -3.18576 0
M  V30 1952 H 193.232 4.11476 -1.53572 0
M  V30 1953 H 193.838 3.12572 -2.88407 0
M  V30 1954 N 192.153 1.28127 0.917671 0
M  V30 1955 C 193.1 1.11717 2.0196 0
M  V30 1956 C 194.07 0.0153929 1.66093 0
M  V30 1957 O 195.255 0.179596 1.89953 0
M  V30 1958 C 192.395 0.780927 3.36148 0
M  V30 1959 C 191.508 1.96135 3.84909 0
M  V30 1960 C 190.643 1.56609 5.0759 0
M  V30 1961 C 189.682 2.71339 5.48673 0
M  V30 1962 N 188.819 2.32332 6.62545 0
M  V30 1963 H 193.659 2.06003 2.15329 0
M  V30 1964 H 191.196 1.02535 1.05475 0
M  V30 1965 H 193.154 0.56675 4.13333 0
M  V30 1966 H 191.784 -0.124998 3.22558 0
M  V30 1967 H 190.836 2.28777 3.03916 0
M  V30 1968 H 192.148 2.82165 4.1132 0
M  V30 1969 H 191.302 1.31374 5.92305 0
M  V30 1970 H 190.041 0.677014 4.82978 0
M  V30 1971 H 189.046 2.97276 4.62501 0
M  V30 1972 H 190.271 3.60882 5.75274 0
M  V30 1973 H 188.217 1.45889 6.39572 0
M  V30 1974 H 188.134 3.11899 6.88662 0
M  V30 1975 H 189.402 2.10371 7.50576 0
M  V30 1976 N 193.631 -1.12557 1.10312 0
M  V30 1977 C 194.594 -2.16434 0.75424 0
M  V30 1978 C 195.594 -1.59278 -0.220685 0
M  V30 1979 O 196.784 -1.742 0.00230591 0
M  V30 1980 C 193.916 -3.40699 0.116987 0
M  V30 1981 H 195.109 -2.48811 1.67431 0
M  V30 1982 H 192.662 -1.27542 0.903475 0
M  V30 1983 H 193.397 -3.13921 -0.813877 0
M  V30 1984 H 193.182 -3.83459 0.818613 0
M  V30 1985 H 194.672 -4.17451 -0.111387 0
M  V30 1986 N 195.109 -0.891671 -1.2995 0
M  V30 1987 C 196.357 -0.512486 -1.95494 0
M  V30 1988 C 196.678 0.942776 -1.70695 0
M  V30 1989 O 195.948 1.66374 -1.03424 0
M  V30 1990 H 194.528 -0.186533 -0.723336 0
M  V30 1991 H 197.19 -1.13621 -1.58355 0
M  V30 1992 H 196.286 -0.688342 -3.04415 0
M  V30 1993 N 196.587 1.43421 -0.653314 0
M  V30 1994 C 197.535 2.32546 0.0501531 0
M  V30 1995 C 198.529 1.48617 0.812985 0
M  V30 1996 O 199.735 1.64825 0.723375 0
M  V30 1997 H 196.11 0.751185 0.0350032 0
M  V30 1998 H 198.081 2.89602 -0.719261 0
M  V30 1999 C 196.83 3.32925 1.00279 0
M  V30 2000 H 196.153 3.97532 0.425236 0
M  V30 2001 H 197.593 3.9792 1.46409 0
M  V30 2002 C 196.052 2.63532 2.09886 0
M  V30 2003 O 196.582 2.45092 3.18265 0
M  V30 2004 N 194.788 2.22905 1.86445 0
M  V30 2005 H 194.335 2.38103 0.98309 0
M  V30 2006 H 194.293 1.76805 2.59976 0
M  V30 2007 N 198.065 0.39524 1.52563 0
M  V30 2008 C 199.012 -0.437036 2.26624 0
M  V30 2009 C 199.982 -1.05281 1.28472 0
M  V30 2010 O 201.167 -1.07971 1.57311 0
M  V30 2011 C 198.307 -1.55524 3.08069 0
M  V30 2012 C 197.42 -0.961745 4.21158 0
M  V30 2013 C 196.555 -2.05149 4.89987 0
M  V30 2014 C 195.594 -1.4342 5.95061 0
M  V30 2015 N 194.731 -2.46351 6.57462 0
M  V30 2016 H 199.571 0.200976 2.97322 0
M  V30 2017 H 197.108 0.110944 1.46681 0
M  V30 2018 H 199.066 -2.21437 3.53584 0
M  V30 2019 H 197.696 -2.16348 2.3957 0
M  V30 2020 H 196.748 -0.192048 3.79915 0
M  V30 2021 H 198.06 -0.470701 4.96574 0
M  V30 2022 H 197.214 -2.78819 5.38837 0
M  V30 2023 H 195.953 -2.57615 4.14109 0
M  V30 2024 H 194.958 -0.682774 5.45544 0
M  V30 2025 H 196.183 -0.917416 6.72875 0
M  V30 2026 H 194.129 -2.97975 5.8442 0
M  V30 2027 H 194.046 -2.02019 7.28508 0
M  V30 2028 H 195.314 -3.19633 7.10954 0
M  V30 2029 N 199.544 -1.57102 0.125237 0
M  V30 2030 C 200.792 -1.95021 -0.530198 0
M  V30 2031 C 201.113 -1.00982 -1.66816 0
M  V30 2032 O 200.383 -0.0672693 -1.95784 0
M  V30 2033 H 198.963 -0.720046 -0.198853 0
M  V30 2034 H 201.625 -1.93916 0.19564 0
M  V30 2035 H 200.721 -2.98211 -0.920681 0
M  V30 2036 N 201.022 0.148545 -1.56898 0
M  V30 2037 C 202.268 0.862694 -1.83536 0
M  V30 2038 C 202.601 1.80889 -0.706604 0
M  V30 2039 O 201.876 1.92328 0.289885 0
M  V30 2040 C 202.159 1.63853 -3.20662 0
M  V30 2041 C 202.012 0.713925 -4.44098 0
M  V30 2042 C 203.331 2.60133 -3.54991 0
M  V30 2043 H 200.45 0.312179 -0.667618 0
M  V30 2044 H 203.092 0.127953 -1.89569 0
M  V30 2045 H 201.242 2.26489 -3.1565 0
M  V30 2046 H 202.914 0.098686 -4.61194 0
M  V30 2047 H 201.157 0.0234019 -4.33794 0
M  V30 2048 H 201.828 1.29278 -5.36648 0
M  V30 2049 H 204.304 2.07616 -3.60603 0
M  V30 2050 H 203.18 3.11468 -4.51972 0
M  V30 2051 H 203.441 3.41417 -2.80868 0
M  V30 2052 N 202.5 1.5196 0.417844 0
M  V30 2053 C 203.777 1.56146 1.17803 0
M  V30 2054 C 204.157 0.337275 2.08388 0
M  V30 2055 O 203.505 -0.676447 2.18258 0
M  V30 2056 C 203.715 2.88566 1.96293 0
M  V30 2057 C 205.063 3.41244 2.52662 0
M  V30 2058 O 206.087 2.90247 2.06483 0
M  V30 2059 O 204.946 4.30273 3.36938 0
M  V30 2060 H 202.04 0.628598 0.537395 0
M  V30 2061 H 204.586 1.64283 0.425331 0
M  V30 2062 H 203.358 3.69116 1.2988 0
M  V30 2063 H 202.981 2.83681 2.78587 0
M  V30 2064 N 203.978 -0.674533 1.42435 0
M  V30 2065 C 205.218 -1.4466 1.44405 0
M  V30 2066 C 205.582 -1.91911 0.0585784 0
M  V30 2067 O 206.783 -2.68759 -0.0469991 0
M  V30 2068 C 205.054 -2.61136 2.44013 0
M  V30 2069 S 206.613 -3.49981 2.64687 0
M  V30 2070 H 203.431 -0.494074 0.511284 0
M  V30 2071 H 206.033 -0.785162 1.7904 0
M  V30 2072 H 204.737 -2.24662 3.43446 0
M  V30 2073 H 204.268 -3.32153 2.10803 0
M  V30 2074 H 206.283 -4.57124 1.93007 0
M  V30 2075 N 205.456 -1.28612 -0.910864 0
M  V30 2076 C 206.419 -1.12803 -1.9952 0
M  V30 2077 C 207.419 -0.0668264 -1.60661 0
M  V30 2078 O 208.609 -0.312847 -1.71368 0
M  V30 2079 C 205.741 -0.72254 -3.33155 0
M  V30 2080 H 206.934 -2.09109 -2.14973 0
M  V30 2081 H 204.487 -1.11639 -1.09391 0
M  V30 2082 H 205.222 0.241152 -3.23402 0
M  V30 2083 H 205.007 -1.48916 -3.62721 0
M  V30 2084 H 206.497 -0.634666 -4.12749 0
M  V30 2085 N 206.934 1.1197 -1.10907 0
M  V30 2086 C 208.18 1.8386 -0.855773 0
M  V30 2087 C 208.513 1.84134 0.617103 0
M  V30 2088 O 207.788 1.29041 1.45529 0
M  V30 2089 C 208.071 3.31305 -1.411 0
M  V30 2090 C 207.924 3.39456 -2.9511 0
M  V30 2091 C 209.243 4.2721 -1.05736 0
M  V30 2092 H 206.362 0.667545 -0.312334 0
M  V30 2093 H 209.004 1.31331 -1.37303 0
M  V30 2094 H 207.154 3.76169 -0.97105 0
M  V30 2095 H 208.826 3.03191 -3.47668 0
M  V30 2096 H 207.069 2.79849 -3.31462 0
M  V30 2097 H 207.74 4.43209 -3.29044 0
M  V30 2098 H 210.216 3.90497 -1.43706 0
M  V30 2099 H 209.092 5.28775 -1.47269 0
M  V30 2100 H 209.353 4.42088 0.0325958 0
M  V30 2101 N 208.412 0.89855 1.29475 0
M  V30 2102 C 209.637 0.538561 2.00285 0
M  V30 2103 C 210.062 -0.869135 1.66816 0
M  V30 2104 O 209.42 -1.57831 0.892145 0
M  V30 2105 C 209.468 0.736475 3.52999 0
M  V30 2106 O 208.572 -0.211537 4.11857 0
M  V30 2107 H 207.913 0.210563 0.62973 0
M  V30 2108 H 210.443 1.20982 1.64998 0
M  V30 2109 H 210.453 0.640685 4.02938 0
M  V30 2110 H 209.128 1.76276 3.76696 0
M  V30 2111 H 207.705 -0.0682991 3.72837 0
M  V30 2112 N 209.89 -1.43072 0.660911 0
M  V30 2113 C 210.853 -2.29194 -0.0166406 0
M  V30 2114 C 211.853 -1.42609 -0.742912 0
M  V30 2115 O 213.043 -1.64155 -0.583004 0
M  V30 2116 C 210.175 -3.24831 -1.0343 0
M  V30 2117 H 211.368 -2.90596 0.741208 0
M  V30 2118 H 208.921 -1.5048 0.422532 0
M  V30 2119 H 209.656 -2.68339 -1.82111 0
M  V30 2120 H 209.441 -3.88676 -0.517082 0
M  V30 2121 H 210.931 -3.89451 -1.50723 0
M  V30 2122 N 211.368 -0.403325 -1.52352 0
M  V30 2123 C 212.617 0.175668 -2.00934 0
M  V30 2124 C 212.93 1.46718 -1.29356 0
M  V30 2125 O 214.136 2.12708 -1.68724 0
M  V30 2126 C 212.592 0.363612 -3.58058 0
M  V30 2127 C 212.2 -0.915472 -4.38547 0
M  V30 2128 C 213.944 0.89821 -4.14888 0
M  V30 2129 C 211.851 -0.695035 -5.87302 0
M  V30 2130 H 210.781 0.0694234 -0.750797 0
M  V30 2131 H 213.432 -0.527879 -1.75743 0
M  V30 2132 H 211.814 1.12935 -3.79555 0
M  V30 2133 H 212.988 -1.68691 -4.28812 0
M  V30 2134 H 211.303 -1.37606 -3.93006 0
M  V30 2135 H 213.9 1.07907 -5.23699 0
M  V30 2136 H 214.243 1.87126 -3.71873 0
M  V30 2137 H 214.776 0.191681 -3.97338 0
M  V30 2138 H 211.515 -1.63948 -6.34666 0
M  V30 2139 H 211.035 0.0372116 -5.99788 0
M  V30 2140 H 212.714 -0.33497 -6.46132 0
M  V30 2141 N 212.846 1.57033 -0.133567 0
M  V30 2142 C 213.756 2.19632 0.824564 0
M  V30 2143 C 214.772 1.17666 1.28182 0
M  V30 2144 O 215.948 1.50193 1.3418 0
M  V30 2145 C 213.013 2.79499 2.05137 0
M  V30 2146 C 212.074 3.96548 1.64464 0
M  V30 2147 C 211.307 4.5355 2.81297 0
M  V30 2148 O 211.53 4.09438 3.97136 0
M  V30 2149 O 210.464 5.44018 2.57542 0
M  V30 2150 H 214.29 3.01991 0.321766 0
M  V30 2151 H 211.875 1.49112 0.0927889 0
M  V30 2152 H 213.757 3.17602 2.7696 0
M  V30 2153 H 212.432 2.00162 2.54395 0
M  V30 2154 H 211.339 3.63186 0.897048 0
M  V30 2155 H 212.672 4.77364 1.19934 0
M  V30 2156 N 214.325 -0.140222 1.56975 0
M  V30 2157 C 215.258 -1.20266 1.93936 0
M  V30 2158 C 216.236 -1.41212 0.806099 0
M  V30 2159 O 217.42 -1.55713 1.06234 0
M  V30 2160 C 214.547 -2.56037 2.21726 0
M  V30 2161 C 213.593 -2.51646 3.44349 0
M  V30 2162 S 214.426 -1.97678 4.97678 0
M  V30 2163 C 215.582 -3.35165 5.28597 0
M  V30 2164 H 215.815 -0.887358 2.83749 0
M  V30 2165 H 213.348 -0.346119 1.50471 0
M  V30 2166 H 215.306 -3.34167 2.38416 0
M  V30 2167 H 213.967 -2.84755 1.32566 0
M  V30 2168 H 213.16 -3.51608 3.61092 0
M  V30 2169 H 212.762 -1.81628 3.26936 0
M  V30 2170 H 215.054 -4.31302 5.2248 0
M  V30 2171 H 215.997 -3.23269 6.30002 0
M  V30 2172 H 216.405 -3.32614 4.56101 0
M  V30 2173 N 215.803 -1.52179 -0.40978 0
M  V30 2174 C 216.766 -1.74853 -1.48186 0
M  V30 2175 C 217.766 -0.618417 -1.48433 0
M  V30 2176 O 218.956 -0.886286 -1.49969 0
M  V30 2177 C 216.088 -1.8303 -2.87598 0
M  V30 2178 H 217.281 -2.70559 -1.29374 0
M  V30 2179 H 214.834 -1.42586 -0.640233 0
M  V30 2180 H 215.569 -0.89236 -3.11781 0
M  V30 2181 H 215.354 -2.65187 -2.88822 0
M  V30 2182 H 216.844 -2.02316 -3.65319 0
M  V30 2183 N 217.281 0.66697 -1.42791 0
M  V30 2184 C 218.229 1.80157 -1.47127 0
M  V30 2185 C 219.223 1.65825 -0.346199 0
M  V30 2186 O 220.429 1.72338 -0.519572 0
M  V30 2187 H 216.804 0.594158 -0.460956 0
M  V30 2188 H 218.775 1.73619 -2.42692 0
M  V30 2189 C 217.524 3.18351 -1.39813 0
M  V30 2190 H 216.847 3.3001 -2.25684 0
M  V30 2191 H 218.287 3.97736 -1.46908 0
M  V30 2192 C 216.746 3.36707 -0.11391 0
M  V30 2193 O 217.276 3.93027 0.830241 0
M  V30 2194 N 215.482 2.90586 -0.0285295 0
M  V30 2195 H 215.029 2.4494 -0.79764 0
M  V30 2196 H 214.987 3.03245 0.830063 0
M  V30 2197 N 218.759 1.29093 0.90403 0
M  V30 2198 C 219.689 1.16401 2.02418 0
M  V30 2199 C 220.67 0.0593085 1.69997 0
M  V30 2200 O 221.855 0.238021 1.92736 0
M  V30 2201 C 218.985 0.835233 3.37107 0
M  V30 2202 C 217.939 1.89578 3.83724 0
M  V30 2203 C 217.265 1.42041 5.15489 0
M  V30 2204 C 218.565 3.30394 4.04521 0
M  V30 2205 H 220.259 2.10109 2.13295 0
M  V30 2206 H 217.805 1.01157 1.02486 0
M  V30 2207 H 219.758 0.733169 4.14973 0
M  V30 2208 H 218.482 -0.137543 3.2631 0
M  V30 2209 H 217.141 1.98715 3.08071 0
M  V30 2210 H 216.789 0.436426 5.01103 0
M  V30 2211 H 216.489 2.12964 5.4765 0
M  V30 2212 H 218.013 1.33176 5.959 0
M  V30 2213 H 219.427 3.24123 4.72882 0
M  V30 2214 H 217.824 3.99237 4.48029 0
M  V30 2215 H 218.894 3.73692 3.09002 0
M  V30 2216 N 220.237 -1.11381 1.11499 0
M  V30 2217 C 221.185 -2.19522 0.768956 0
M  V30 2218 C 222.179 -1.67693 -0.239857 0
M  V30 2219 O 223.385 -1.79727 -0.0990755 0
M  V30 2220 H 219.76 -0.715711 0.230786 0
M  V30 2221 H 221.731 -2.45954 1.68964 0
M  V30 2222 C 220.48 -3.46945 0.229073 0
M  V30 2223 H 219.803 -3.8718 0.996596 0
M  V30 2224 H 221.243 -4.23993 0.0251441 0
M  V30 2225 C 219.702 -3.2042 -1.04079 0
M  V30 2226 O 220.232 -3.41178 -2.12038 0
M  V30 2227 N 218.438 -2.74151 -0.963823 0
M  V30 2228 H 217.985 -2.57459 -0.0851722 0
M  V30 2229 H 217.943 -2.56781 -1.81414 0
M  V30 2230 N 221.715 -0.905404 -1.28997 0
M  V30 2231 C 223.131 -0.60233 -1.47798 0
M  V30 2232 C 223.331 0.854645 -1.82478 0
M  V30 2233 O 222.387 1.63439 -1.92468 0
M  V30 2234 C 223.7 -1.53306 -2.58685 0
M  V30 2235 C 225.248 -1.53887 -2.72558 0
M  V30 2236 C 225.723 -2.45602 -3.86579 0
M  V30 2237 N 227.214 -2.43681 -3.93921 0
M  V30 2238 C 227.949 -3.11347 -4.81509 0
M  V30 2239 N 227.445 -3.88313 -5.73746 0
M  V30 2240 N 229.238 -3.00476 -4.75048 0
M  V30 2241 H 221.389 -1.84765 -1.04764 0
M  V30 2242 H 223.652 -0.792025 -0.520961 0
M  V30 2243 H 223.358 -2.57141 -2.39941 0
M  V30 2244 H 223.232 -1.25787 -3.55609 0
M  V30 2245 H 225.619 -0.507941 -2.90696 0
M  V30 2246 H 225.7 -1.85447 -1.76191 0
M  V30 2247 H 225.344 -3.48792 -3.69197 0
M  V30 2248 H 225.274 -2.11349 -4.82327 0
M  V30 2249 H 227.765 -1.87767 -3.27951 0
M  V30 2250 H 228.078 -4.36985 -6.37389 0
M  V30 2251 H 226.423 -3.92419 -5.73614 0
M  V30 2252 H 229.614 -2.39858 -4.01977 0
M  V30 2253 H 229.787 -3.53485 -5.43095 0
M  V30 2254 N 223.193 1.4272 -0.668489 0
M  V30 2255 C 224.418 2.06484 -0.194758 0
M  V30 2256 C 224.843 1.49862 1.13679 0
M  V30 2257 O 224.201 0.614582 1.70565 0
M  V30 2258 C 224.249 3.60353 -0.133546 0
M  V30 2259 O 223.353 4.02464 0.899806 0
M  V30 2260 H 222.694 0.656137 -0.10188 0
M  V30 2261 H 225.224 1.82964 -0.915722 0
M  V30 2262 H 225.234 4.07976 0.0447041 0
M  V30 2263 H 223.909 4.00938 -1.1055 0
M  V30 2264 H 222.486 3.66402 0.693109 0
M  V30 2265 N 224.671 0.411399 1.52136 0
M  V30 2266 C 225.918 -0.163645 2.01838 0
M  V30 2267 C 226.246 -1.4495 1.29691 0
M  V30 2268 O 225.501 -1.91725 0.392431 0
M  V30 2269 C 225.8 -0.455872 3.54481 0
M  V30 2270 C 225.466 0.741055 4.44769 0
M  V30 2271 C 224.128 1.06936 4.69167 0
M  V30 2272 C 226.48 1.54075 4.97906 0
M  V30 2273 C 223.808 2.19851 5.43951 0
M  V30 2274 C 226.16 2.66067 5.73926 0
M  V30 2275 C 224.824 2.99381 5.96596 0
M  V30 2276 H 224.094 -0.0598821 0.738576 0
M  V30 2277 H 226.741 0.553283 1.83333 0
M  V30 2278 H 225.046 -1.2544 3.71177 0
M  V30 2279 H 226.743 -0.913802 3.90449 0
M  V30 2280 H 223.333 0.475192 4.25958 0
M  V30 2281 H 227.517 1.30033 4.78963 0
M  V30 2282 H 222.773 2.46006 5.59724 0
M  V30 2283 H 226.947 3.28419 6.14096 0
M  V30 2284 H 224.574 3.86992 6.54325 0
M  V30 2285 N 226.149 -1.5696 0.141893 0
M  V30 2286 C 227.059 -2.20066 -0.812905 0
M  V30 2287 C 228.075 -1.18344 -1.27557 0
M  V30 2288 O 229.251 -1.50902 -1.33381 0
M  V30 2289 C 226.316 -2.80583 -2.03652 0
M  V30 2290 C 225.377 -3.97414 -1.62359 0
M  V30 2291 C 224.61 -4.55036 -2.78887 0
M  V30 2292 O 224.833 -4.11538 -3.94959 0
M  V30 2293 O 223.767 -5.45376 -2.54653 0
M  V30 2294 H 227.593 -3.02157 -0.305746 0
M  V30 2295 H 225.178 -1.49159 -0.0848799 0
M  V30 2296 H 227.06 -3.19067 -2.75272 0
M  V30 2297 H 225.735 -2.01508 -2.5333 0
M  V30 2298 H 224.642 -3.63656 -0.877775 0
M  V30 2299 H 225.975 -4.77994 -1.17401 0
M  V30 2300 O 227.666 -0.00315229 -1.615 0
M  V30 2301 H 228.357 0.61308 -1.83742 0
M  V30 END ATOM
M  V30 BEGIN BOND
M  V30 END BOND
M  V30 END CTAB
M  END
$$$$
