drugbank_target|P12104 Fatty acid-binding protein, intestinal (DB01050; DB09213)
 OpenBabel12092120353D

  0  0  0     0  0            999 V3000
M  V30 BEGIN CTAB
M  V30 COUNTS 2142 2158 0 0 0
M  V30 BEGIN ATOM
M  V30 1 H -0.908 1.98254 -0.117106 0
M  V30 2 N 0 1.576 0 0
M  V30 3 C 0.933 2.03868 1.02534 0
M  V30 4 C 1.911 0.928543 1.3348 0
M  V30 5 O 3.095 1.19667 1.45644 0
M  V30 6 C 0.222 2.43627 2.35294 0
M  V30 7 C -0.732 3.65373 2.2001 0
M  V30 8 S 0.101 5.13292 1.52614 0
M  V30 9 C 1.257 5.56322 2.86805 0
M  V30 10 H 1.49 2.90518 0.631377 0
M  V30 11 H -0.977 1.52953 0.210867 0
M  V30 12 H 0.981 2.67203 3.11629 0
M  V30 13 H -0.358 1.57376 2.7183 0
M  V30 14 H -1.165 3.90944 3.18086 0
M  V30 15 H -1.563 3.418 1.51819 0
M  V30 16 H 0.729 5.58782 3.83104 0
M  V30 17 H 1.672 6.56266 2.65933 0
M  V30 18 H 2.08 4.83886 2.90714 0
M  V30 19 N 1.4781 -0.272755 1.55222 0
M  V30 20 C 2.4411 -1.32041 1.87344 0
M  V30 21 C 3.4411 -1.42342 0.74803 0
M  V30 22 O 4.6311 -1.41488 1.0162 0
M  V30 23 C 1.7631 -2.70173 2.07893 0
M  V30 24 H 2.9561 -1.04789 2.80997 0
M  V30 25 H 0.5091 -0.51083 1.47717 0
M  V30 26 H 1.2441 -3.02605 1.16622 0
M  V30 27 H 1.0291 -2.64082 2.89833 0
M  V30 28 H 2.5191 -3.45869 2.34017 0
M  V30 29 N 2.9562 -1.48159 -0.537278 0
M  V30 30 C 4.2032 -1.55804 -1.29349 0
M  V30 31 C 4.5312 -0.228802 -1.9315 0
M  V30 32 O 3.7862 0.780242 -1.79473 0
M  V30 33 C 4.0852 -2.63956 -2.40961 0
M  V30 34 C 3.7512 -4.0662 -1.94861 0
M  V30 35 C 2.4132 -4.45452 -1.82006 0
M  V30 36 C 4.7652 -4.96055 -1.59933 0
M  V30 37 C 2.0932 -5.71531 -1.32547 0
M  V30 38 C 4.4452 -6.22617 -1.11939 0
M  V30 39 C 3.1092 -6.60312 -0.976951 0
M  V30 40 H 2.3792 -0.570129 -0.473322 0
M  V30 41 H 5.0262 -1.81845 -0.600372 0
M  V30 42 H 3.3312 -2.31747 -3.15912 0
M  V30 43 H 5.0282 -2.67089 -2.99107 0
M  V30 44 H 1.6182 -3.75949 -2.05815 0
M  V30 45 H 5.8022 -4.66738 -1.68728 0
M  V30 46 H 1.0582 -5.99468 -1.202 0
M  V30 47 H 5.2322 -6.91318 -0.839811 0
M  V30 48 H 2.8592 -7.57895 -0.591501 0
M  V30 49 N 4.4343 0.785586 -1.36625 0
M  V30 50 C 5.7113 1.53198 -1.21613 0
M  V30 51 C 6.0913 2.10187 0.196113 0
M  V30 52 O 5.4393 1.94318 1.20219 0
M  V30 53 C 5.6493 2.62388 -2.30116 0
M  V30 54 C 6.9973 3.30167 -2.66974 0
M  V30 55 O 8.0213 2.72674 -2.29188 0
M  V30 56 O 6.8803 4.34077 -3.32023 0
M  V30 57 H 3.9743 0.677865 -0.473738 0
M  V30 58 H 6.5203 0.823739 -1.48367 0
M  V30 59 H 5.2923 2.18299 -3.24748 0
M  V30 60 H 4.9153 3.40827 -2.0475 0
M  V30 61 N 5.9124 1.20967 1.01018 0
M  V30 62 C 7.1374 1.0503 1.78839 0
M  V30 63 C 7.5624 -0.395752 1.8389 0
M  V30 64 O 6.9204 -1.28529 1.27867 0
M  V30 65 C 6.9684 1.64602 3.2084 0
M  V30 66 O 6.0724 0.887988 4.02726 0
M  V30 67 H 5.4134 0.369987 0.551367 0
M  V30 68 H 7.9434 1.60399 1.27018 0
M  V30 69 H 7.9534 1.68607 3.71532 0
M  V30 70 H 6.6284 2.69841 3.16479 0
M  V30 71 H 5.2054 0.922648 3.61305 0
M  V30 72 N 7.3905 -1.2043 1.01659 0
M  V30 73 C 8.6185 -1.93777 0.725132 0
M  V30 74 C 9.0335 -1.74772 -0.714166 0
M  V30 75 O 8.3905 -1.06169 -1.4844 0
M  V30 76 C 8.4415 -3.45876 1.05129 0
M  V30 77 O 8.1625 -3.6426 2.43406 0
M  V30 78 C 9.6635 -4.36368 0.780891 0
M  V30 79 H 6.8835 -0.615901 0.266284 0
M  V30 80 H 9.4275 -1.52922 1.35776 0
M  V30 81 H 7.5825 -3.8461 0.464065 0
M  V30 82 H 7.9965 -4.58246 2.55169 0
M  V30 83 H 9.4705 -5.41743 1.05918 0
M  V30 84 H 9.9475 -4.38275 -0.284937 0
M  V30 85 H 10.5535 -4.03296 1.35027 0
M  V30 86 N 8.8686 -0.792821 -1.36206 0
M  V30 87 C 10.1146 -0.376415 -1.99887 0
M  V30 88 C 10.4696 1.04127 -1.61788 0
M  V30 89 O 9.7626 1.71004 -0.864193 0
M  V30 90 C 9.9566 -0.481501 -3.54142 0
M  V30 91 C 9.7856 -1.90786 -4.07223 0
M  V30 92 C 8.5556 -2.53322 -4.37214 0
M  V30 93 C 10.7536 -2.87048 -4.26741 0
M  V30 94 N 8.7356 -3.8751 -4.7614 0
M  V30 95 C 10.1066 -4.06077 -4.6851 0
M  V30 96 C 12.1616 -2.8406 -4.08918 0
M  V30 97 C 10.8646 -5.22532 -4.94321 0
M  V30 98 C 12.8906 -3.99705 -4.35878 0
M  V30 99 C 12.2526 -5.1748 -4.77906 0
M  V30 100 H 8.3516 -0.185226 -0.759747 0
M  V30 101 H 10.9356 -1.03114 -1.65153 0
M  V30 102 H 9.1066 0.143154 -3.88136 0
M  V30 103 H 10.8386 -0.0410128 -4.04679 0
M  V30 104 H 7.5936 -2.04777 -4.2704 0
M  V30 105 H 8.0176 -4.5656 -4.99882 0
M  V30 106 H 12.6596 -1.94165 -3.75579 0
M  V30 107 H 10.3776 -6.1301 -5.2654 0
M  V30 108 H 13.9636 -3.98758 -4.23655 0
M  V30 109 H 12.8436 -6.05478 -4.98363 0
M  V30 110 N 10.3467 1.47872 -0.545128 0
M  V30 111 C 11.2937 2.29849 0.2093 0
M  V30 112 C 12.2637 1.38313 0.919707 0
M  V30 113 O 13.4487 1.67277 0.917772 0
M  V30 114 C 10.5887 3.22019 1.24088 0
M  V30 115 C 9.7017 4.2864 0.537778 0
M  V30 116 C 8.8367 5.07973 1.5536 0
M  V30 117 C 7.8757 6.06381 0.8348 0
M  V30 118 N 7.0127 6.78717 1.79688 0
M  V30 119 H 11.8527 2.93845 -0.49591 0
M  V30 120 H 9.3897 1.44848 -0.256389 0
M  V30 121 H 11.3477 3.73868 1.85144 0
M  V30 122 H 9.9777 2.59914 1.91428 0
M  V30 123 H 9.0297 3.7994 -0.187046 0
M  V30 124 H 10.3417 4.98793 -0.0258907 0
M  V30 125 H 9.4957 5.63912 2.23803 0
M  V30 126 H 8.2347 4.37693 2.15118 0
M  V30 127 H 7.2397 5.49631 0.136388 0
M  V30 128 H 8.4647 6.78665 0.24313 0
M  V30 129 H 6.4107 6.11177 2.38326 0
M  V30 130 H 6.3277 7.44998 1.28505 0
M  V30 131 H 7.5957 7.39237 2.47282 0
M  V30 132 N 11.8248 0.280983 1.55075 0
M  V30 133 C 13.0708 -0.33461 2.00021 0
M  V30 134 C 13.4038 -1.55063 1.16915 0
M  V30 135 O 12.6788 -1.93006 0.240646 0
M  V30 136 C 12.9618 -0.711007 3.53011 0
M  V30 137 C 12.8148 0.512766 4.46868 0
M  V30 138 C 14.1338 -1.54522 4.12081 0
M  V30 139 H 11.2528 -0.120147 0.727141 0
M  V30 140 H 13.8948 0.389097 1.85973 0
M  V30 141 H 12.0448 -1.32761 3.65112 0
M  V30 142 H 13.7168 1.15131 4.46702 0
M  V30 143 H 11.9598 1.14975 4.18286 0
M  V30 144 H 12.6308 0.205556 5.51617 0
M  V30 145 H 15.1068 -1.02442 4.03293 0
M  V30 146 H 13.9828 -1.77739 5.19327 0
M  V30 147 H 14.2438 -2.52813 3.62682 0
M  V30 148 N 13.3029 -1.57598 0.00835791 0
M  V30 149 C 14.5799 -1.82172 -0.712235 0
M  V30 150 C 14.9599 -0.887873 -1.9152 0
M  V30 151 O 14.3079 0.06146 -2.28417 0
M  V30 152 C 14.5179 -3.30875 -1.11008 0
M  V30 153 C 15.8659 -3.96826 -1.51044 0
M  V30 154 O 16.8899 -3.35248 -1.20364 0
M  V30 155 O 15.7489 -5.05318 -2.08125 0
M  V30 156 H 12.8429 -0.750435 -0.347529 0
M  V30 157 H 15.3889 -1.69665 0.0344523 0
M  V30 158 H 14.1609 -3.90481 -0.252982 0
M  V30 159 H 13.7839 -3.48412 -1.9156 0
M  V30 160 N 14.781 0.264519 -1.55364 0
M  V30 161 C 16.197 0.61215 -1.47394 0
M  V30 162 C 16.397 1.89134 -0.695018 0
M  V30 163 O 15.453 2.51563 -0.217275 0
M  V30 164 C 16.766 0.731235 -2.91674 0
M  V30 165 C 18.314 0.82473 -3.01939 0
M  V30 166 C 18.789 0.975522 -4.4749 0
M  V30 167 N 20.28 1.04083 -4.51354 0
M  V30 168 C 21.015 1.17646 -5.61201 0
M  V30 169 N 20.511 1.27874 -6.80896 0
M  V30 170 N 22.304 1.20823 -5.48961 0
M  V30 171 H 14.455 -0.575456 -2.04456 0
M  V30 172 H 16.718 -0.196099 -0.927496 0
M  V30 173 H 16.424 -0.138392 -3.51428 0
M  V30 174 H 16.298 1.60883 -3.41169 0
M  V30 175 H 18.685 1.68482 -2.42276 0
M  V30 176 H 18.766 -0.0776479 -2.55682 0
M  V30 177 H 18.41 0.120058 -5.07758 0
M  V30 178 H 18.34 1.89268 -4.91412 0
M  V30 179 H 20.831 0.973846 -3.65136 0
M  V30 180 H 21.144 1.38081 -7.60364 0
M  V30 181 H 19.489 1.24863 -6.83692 0
M  V30 182 H 22.68 1.12469 -4.54388 0
M  V30 183 H 22.853 1.31049 -6.3461 0
M  V30 184 N 16.2591 1.48442 0.529413 0
M  V30 185 C 17.4841 1.60406 1.31471 0
M  V30 186 C 17.9091 0.264738 1.86228 0
M  V30 187 O 17.2671 -0.763668 1.64432 0
M  V30 188 C 17.3151 2.65419 2.44101 0
M  V30 189 O 16.4191 2.22618 3.47153 0
M  V30 190 H 15.7601 0.537863 0.389357 0
M  V30 191 H 18.2901 1.94432 0.636965 0
M  V30 192 H 18.3001 2.86709 2.90279 0
M  V30 193 H 16.9751 3.62652 2.03608 0
M  V30 194 H 15.5521 2.11543 3.0709 0
M  V30 195 N 17.7372 -0.778329 1.37039 0
M  V30 196 C 18.6472 -1.92253 1.34446 0
M  V30 197 C 19.6632 -1.72267 0.244991 0
M  V30 198 O 20.8392 -1.95615 0.479258 0
M  V30 199 C 17.9042 -3.27282 1.144 0
M  V30 200 C 16.9652 -3.59969 2.33925 0
M  V30 201 C 16.1982 -4.88555 2.14825 0
M  V30 202 O 16.4212 -5.59113 1.12912 0
M  V30 203 O 15.3552 -5.20153 3.02861 0
M  V30 204 H 19.1812 -1.97392 2.30803 0
M  V30 205 H 16.7662 -0.920154 1.17701 0
M  V30 206 H 18.6482 -4.08062 1.05182 0
M  V30 207 H 17.3232 -3.23011 0.211124 0
M  V30 208 H 16.2302 -2.7945 2.48714 0
M  V30 209 H 17.5632 -3.68976 3.25757 0
M  V30 210 N 19.2153 -1.21501 -1.00376 0
M  V30 211 C 20.1633 -0.972442 -2.11297 0
M  V30 212 C 21.1573 0.080731 -1.69208 0
M  V30 213 O 22.3633 -0.0707666 -1.79861 0
M  V30 214 H 18.7383 -0.297218 -0.690772 0
M  V30 215 H 20.7093 -1.91394 -2.28934 0
M  V30 216 C 19.4583 -0.555065 -3.43241 0
M  V30 217 H 18.7813 -1.35709 -3.76062 0
M  V30 218 H 20.2213 -0.424664 -4.21868 0
M  V30 219 C 18.6803 0.734147 -3.28804 0
M  V30 220 O 19.2103 1.78937 -3.59645 0
M  V30 221 N 17.4163 0.701133 -2.82015 0
M  V30 222 H 16.9633 -0.157874 -2.57116 0
M  V30 223 H 16.9213 1.56403 -2.72737 0
M  V30 224 N 20.6934 1.19889 -1.02296 0
M  V30 225 C 21.9234 1.93109 -0.734332 0
M  V30 226 C 22.3314 1.75377 0.709889 0
M  V30 227 O 21.6744 1.06912 1.49384 0
M  V30 228 C 21.7364 3.45362 -0.99827 0
M  V30 229 C 21.4004 3.8686 -2.43287 0
M  V30 230 C 22.3974 3.92102 -3.41397 0
M  V30 231 C 20.0824 4.18668 -2.77529 0
M  V30 232 C 22.0764 4.28573 -4.71809 0
M  V30 233 C 19.7634 4.54813 -4.08153 0
M  V30 234 C 20.7614 4.59739 -5.05103 0
M  V30 235 O 20.4494 4.95051 -6.33388 0
M  V30 236 H 20.1814 0.620409 -0.268456 0
M  V30 237 H 22.7354 1.53144 -1.3688 0
M  V30 238 H 20.9654 3.85482 -0.306645 0
M  V30 239 H 22.6544 3.99814 -0.700234 0
M  V30 240 H 23.4204 3.67685 -3.1628 0
M  V30 241 H 19.2994 4.14021 -2.0275 0
M  V30 242 H 22.8434 4.32333 -5.4748 0
M  V30 243 H 18.7404 4.78687 -4.33047 0
M  V30 244 H 19.5084 5.1302 -6.37772 0
M  V30 245 N 22.1715 0.800033 1.35784 0
M  V30 246 C 23.4485 0.30088 1.93272 0
M  V30 247 C 23.8285 -1.20857 1.73081 0
M  V30 248 O 23.1765 -2.00502 1.09596 0
M  V30 249 C 23.3865 0.70511 3.41803 0
M  V30 250 C 24.7345 0.690871 4.18942 0
M  V30 251 O 25.7585 0.646244 3.50289 0
M  V30 252 O 24.6175 0.74332 5.41421 0
M  V30 253 H 21.7115 0.0771605 0.823393 0
M  V30 254 H 24.2575 0.88329 1.449 0
M  V30 255 H 23.0295 1.74571 3.50201 0
M  V30 256 H 22.6525 0.0971541 3.97481 0
M  V30 257 N 23.6496 -1.47581 0.552962 0
M  V30 258 C 24.5966 -2.29957 -0.197108 0
M  V30 259 C 25.5666 -1.38799 -0.912359 0
M  V30 260 O 26.7516 -1.67761 -0.908888 0
M  V30 261 C 23.8916 -3.22672 -1.22379 0
M  V30 262 C 23.0046 -4.28919 -0.515038 0
M  V30 263 C 22.1396 -5.0879 -1.52664 0
M  V30 264 C 21.1786 -6.06815 -0.802631 0
M  V30 265 N 20.3156 -6.7966 -1.76086 0
M  V30 266 H 25.1556 -2.93578 0.511486 0
M  V30 267 H 22.6926 -1.4471 0.264067 0
M  V30 268 H 24.6506 -3.74845 -1.83159 0
M  V30 269 H 23.2806 -2.60925 -1.90047 0
M  V30 270 H 22.3326 -3.79835 0.207192 0
M  V30 271 H 23.6446 -4.98773 0.0523425 0
M  V30 272 H 22.7986 -5.65091 -2.20809 0
M  V30 273 H 21.5376 -4.38828 -2.12794 0
M  V30 274 H 20.5426 -5.49695 -0.107238 0
M  V30 275 H 21.7676 -6.78784 -0.207135 0
M  V30 276 H 19.7136 -6.12432 -2.35081 0
M  V30 277 H 19.6306 -7.45669 -1.24552 0
M  V30 278 H 20.8986 -7.40538 -2.43359 0
M  V30 279 N 25.1277 -0.289203 -1.54924 0
M  V30 280 C 26.3747 0.323519 -1.99899 0
M  V30 281 C 26.7027 1.54797 -1.17762 0
M  V30 282 O 25.9577 1.94237 -0.238835 0
M  V30 283 C 26.2567 0.736119 -3.49737 0
M  V30 284 C 25.9227 -0.385276 -4.49251 0
M  V30 285 C 24.5847 -0.693156 -4.76181 0
M  V30 286 C 26.9367 -1.14021 -5.08575 0
M  V30 287 C 24.2647 -1.7593 -5.59701 0
M  V30 288 C 26.6167 -2.19619 -5.93254 0
M  V30 289 C 25.2807 -2.51026 -6.185 0
M  V30 290 H 24.5507 0.118384 -0.731482 0
M  V30 291 H 27.1977 -0.405847 -1.8715 0
M  V30 292 H 25.5027 1.54539 -3.60035 0
M  V30 293 H 27.1997 1.22118 -3.81953 0
M  V30 294 H 23.7897 -0.135202 -4.28387 0
M  V30 295 H 27.9737 -0.915611 -4.87781 0
M  V30 296 H 23.2297 -2.0075 -5.77503 0
M  V30 297 H 27.4037 -2.78581 -6.38252 0
M  V30 298 H 25.0307 -3.33772 -6.83008 0
M  V30 299 N 26.6058 1.57591 -0.0167156 0
M  V30 300 C 27.5388 2.04944 1.00366 0
M  V30 301 C 28.5168 0.942648 1.32487 0
M  V30 302 O 29.7008 1.21205 1.44367 0
M  V30 303 C 26.8278 2.46109 2.32697 0
M  V30 304 C 25.8738 3.67686 2.16123 0
M  V30 305 S 26.7068 5.14882 1.47161 0
M  V30 306 C 27.8628 5.59332 2.80888 0
M  V30 307 H 28.0958 2.91172 0.600528 0
M  V30 308 H 25.6288 1.53168 0.194632 0
M  V30 309 H 27.5868 2.70493 3.08778 0
M  V30 310 H 26.2478 1.6025 2.70146 0
M  V30 311 H 25.4408 3.94296 3.13922 0
M  V30 312 H 25.0428 3.43391 1.48185 0
M  V30 313 H 27.3348 5.62814 3.77156 0
M  V30 314 H 28.2778 6.5905 2.58958 0
M  V30 315 H 28.6858 4.86942 2.85565 0
M  V30 316 N 28.0839 -0.256276 1.55502 0
M  V30 317 C 28.9939 -1.33882 1.92647 0
M  V30 318 C 30.0099 -1.53159 0.825727 0
M  V30 319 O 31.1859 -1.66963 1.12629 0
M  V30 320 C 28.2509 -2.6751 2.20543 0
M  V30 321 C 27.3119 -2.56836 3.43997 0
M  V30 322 C 26.5449 -3.84092 3.70553 0
M  V30 323 O 26.7679 -4.85545 2.99336 0
M  V30 324 O 25.7019 -3.83288 4.64084 0
M  V30 325 H 29.5279 -1.05374 2.84833 0
M  V30 326 H 27.1129 -0.456237 1.42263 0
M  V30 327 H 28.9949 -3.46492 2.39835 0
M  V30 328 H 27.6699 -2.9577 1.31536 0
M  V30 329 H 26.5769 -1.76172 3.30021 0
M  V30 330 H 27.9099 -2.33523 4.33275 0
M  V30 331 N 29.562 -1.4872 -0.521534 0
M  V30 332 C 30.509 -1.63871 -1.62527 0
M  V30 333 C 31.479 -0.480559 -1.58996 0
M  V30 334 O 32.664 -0.705085 -1.77294 0
M  V30 335 C 29.804 -1.69227 -3.00759 0
M  V30 336 C 28.917 -2.96207 -3.14461 0
M  V30 337 C 28.052 -2.92671 -4.43303 0
M  V30 338 C 27.091 -4.14318 -4.50563 0
M  V30 339 N 26.228 -4.0881 -5.70805 0
M  V30 340 H 31.068 -2.58123 -1.48918 0
M  V30 341 H 28.605 -1.28 -0.724878 0
M  V30 342 H 30.563 -1.70314 -3.80853 0
M  V30 343 H 29.193 -0.784586 -3.1312 0
M  V30 344 H 28.245 -3.04826 -2.27564 0
M  V30 345 H 29.557 -3.86192 -3.15686 0
M  V30 346 H 28.711 -2.92206 -5.31696 0
M  V30 347 H 27.45 -2.00429 -4.44612 0
M  V30 348 H 26.455 -4.15049 -3.60575 0
M  V30 349 H 27.68 -5.07729 -4.50986 0
M  V30 350 H 25.626 -3.19394 -5.72995 0
M  V30 351 H 25.543 -4.92509 -5.7356 0
M  V30 352 H 26.811 -4.12418 -6.61462 0
M  V30 353 N 31.0401 0.771051 -1.3745 0
M  V30 354 C 31.9731 1.89166 -1.27638 0
M  V30 355 C 32.9511 1.61842 -0.156782 0
M  V30 356 O 34.1351 1.85569 -0.331111 0
M  V30 357 C 31.2621 3.24405 -0.973621 0
M  V30 358 C 30.3081 3.70638 -2.1102 0
M  V30 359 S 31.1411 3.84228 -3.73 0
M  V30 360 C 32.2971 5.22313 -3.44876 0
M  V30 361 H 32.5301 1.972 -2.22485 0
M  V30 362 H 30.0631 0.932224 -1.23081 0
M  V30 363 H 32.0211 4.02514 -0.805766 0
M  V30 364 H 30.6821 3.14071 -0.0426279 0
M  V30 365 H 29.8751 4.68685 -1.85338 0
M  V30 366 H 29.4771 2.99632 -2.23822 0
M  V30 367 H 31.7691 6.07505 -2.99908 0
M  V30 368 H 32.7121 5.53008 -4.42253 0
M  V30 369 H 33.1201 4.90284 -2.79789 0
M  V30 370 N 32.5182 1.22032 0.997298 0
M  V30 371 C 33.7662 1.04016 1.73278 0
M  V30 372 C 34.0872 -0.426255 1.90284 0
M  V30 373 O 33.3572 -1.30694 1.45931 0
M  V30 374 H 31.9372 0.381897 0.642 0
M  V30 375 H 34.5992 1.5347 1.20137 0
M  V30 376 H 33.6952 1.51441 2.72896 0
M  V30 377 N 33.9963 -1.19345 1.0293 0
M  V30 378 C 35.2423 -1.89318 0.727083 0
M  V30 379 C 35.5753 -1.79446 -0.742483 0
M  V30 380 O 34.8503 -1.1871 -1.54072 0
M  V30 381 C 35.1333 -3.40238 1.17942 0
M  V30 382 C 34.9863 -3.58979 2.71024 0
M  V30 383 C 36.3053 -4.33479 0.760548 0
M  V30 384 H 33.4243 -0.687475 0.265606 0
M  V30 385 H 36.0663 -1.40477 1.2793 0
M  V30 386 H 34.2163 -3.81964 0.709608 0
M  V30 387 H 35.8883 -3.26421 3.25955 0
M  V30 388 H 34.1313 -3.02018 3.11396 0
M  V30 389 H 34.8023 -4.64823 2.9773 0
M  V30 390 H 37.2783 -3.99469 1.16464 0
M  V30 391 H 36.1543 -5.37664 1.10493 0
M  V30 392 H 36.4153 -4.40813 -0.337063 0
M  V30 393 N 35.4744 -0.807222 -1.35358 0
M  V30 394 C 36.4224 -0.20614 -2.31685 0
M  V30 395 C 37.4164 0.644445 -1.56663 0
M  V30 396 O 38.6224 0.537538 -1.71786 0
M  V30 397 H 34.9974 -0.0479006 -0.750473 0
M  V30 398 H 36.9684 -1.03369 -2.79924 0
M  V30 399 C 35.7174 0.630212 -3.41941 0
M  V30 400 H 35.0404 -0.0149558 -3.99797 0
M  V30 401 H 36.4804 1.01716 -4.11619 0
M  V30 402 C 34.9394 1.79601 -2.85035 0
M  V30 403 O 35.4694 2.89351 -2.78637 0
M  V30 404 N 33.6754 1.60774 -2.42074 0
M  V30 405 H 33.2224 0.715009 -2.47478 0
M  V30 406 H 33.1804 2.38933 -2.04349 0
M  V30 407 N 36.9525 1.47285 -0.560781 0
M  V30 408 C 38.2015 2.01668 -0.035895 0
M  V30 409 C 38.5145 1.44021 1.32353 0
M  V30 410 O 39.7205 1.90088 1.93853 0
M  V30 411 C 38.1765 3.59897 -0.0136659 0
M  V30 412 C 37.7845 4.26536 -1.37006 0
M  V30 413 C 39.5285 4.22017 0.458425 0
M  V30 414 C 37.4355 5.76782 -1.30675 0
M  V30 415 H 36.3655 0.753938 -0.00964879 0
M  V30 416 H 39.0165 1.69243 -0.709166 0
M  V30 417 H 37.3985 3.89301 0.725325 0
M  V30 418 H 38.5725 4.0877 -2.12705 0
M  V30 419 H 36.8875 3.76419 -1.78038 0
M  V30 420 H 39.4845 5.32124 0.524247 0
M  V30 421 H 39.8275 3.89437 1.4712 0
M  V30 422 H 40.3605 3.97159 -0.225818 0
M  V30 423 H 37.0995 6.13988 -2.29564 0
M  V30 424 H 36.6195 5.96875 -0.591622 0
M  V30 425 H 38.2985 6.39063 -1.01033 0
M  V30 426 N 38.4306 0.297415 1.54768 0
M  V30 427 C 39.6766 -0.313376 2.00364 0
M  V30 428 C 40.0096 -1.53815 1.18553 0
M  V30 429 O 39.2846 -1.92739 0.261103 0
M  V30 430 C 39.5676 -0.673525 3.53745 0
M  V30 431 C 39.4206 0.560133 4.46299 0
M  V30 432 C 40.7396 -1.50143 4.13697 0
M  V30 433 H 37.8586 -0.112428 0.728374 0
M  V30 434 H 40.5006 0.4088 1.8555 0
M  V30 435 H 38.6506 -1.28881 3.665 0
M  V30 436 H 40.3226 1.19863 4.45455 0
M  V30 437 H 38.5656 1.19405 4.17043 0
M  V30 438 H 39.2366 0.26405 5.51368 0
M  V30 439 H 41.7126 -0.981588 4.04356 0
M  V30 440 H 40.5886 -1.72221 5.21182 0
M  V30 441 H 40.8496 -2.48952 3.65343 0
M  V30 442 N 39.9087 -1.5758 0.0250728 0
M  V30 443 C 40.8557 -2.09973 -0.958129 0
M  V30 444 C 41.8257 -1.00085 -1.3256 0
M  V30 445 O 43.0107 -1.27481 -1.41962 0
M  V30 446 C 40.1507 -2.62812 -2.2366 0
M  V30 447 C 39.2637 -3.86693 -1.92594 0
M  V30 448 C 38.3987 -4.27941 -3.14707 0
M  V30 449 C 37.4377 -5.44591 -2.79442 0
M  V30 450 N 36.5747 -5.81014 -3.94167 0
M  V30 451 H 41.4147 -2.937 -0.504428 0
M  V30 452 H 38.9517 -1.45172 -0.237392 0
M  V30 453 H 40.9097 -2.91536 -2.98434 0
M  V30 454 H 39.5397 -1.81922 -2.66654 0
M  V30 455 H 38.5917 -3.64723 -1.0808 0
M  V30 456 H 39.9037 -4.71547 -1.62619 0
M  V30 457 H 39.0577 -4.58079 -3.97804 0
M  V30 458 H 37.7967 -3.41845 -3.4784 0
M  V30 459 H 36.8017 -5.1415 -1.94755 0
M  V30 460 H 38.0267 -6.32382 -2.47528 0
M  V30 461 H 35.9727 -4.97874 -4.2715 0
M  V30 462 H 35.8897 -6.60498 -3.67801 0
M  V30 463 H 37.1577 -6.15756 -4.7798 0
M  V30 464 N 41.3868 0.248026 -1.55636 0
M  V30 465 C 42.8028 0.596483 -1.48035 0
M  V30 466 C 43.0028 1.88386 -0.715039 0
M  V30 467 O 42.0588 2.51319 -0.243944 0
M  V30 468 C 43.3718 0.700258 -2.92433 0
M  V30 469 C 44.9198 0.792659 -3.02797 0
M  V30 470 C 45.3948 0.928005 -4.485 0
M  V30 471 N 46.8858 0.992903 -4.52433 0
M  V30 472 C 47.6208 1.11687 -5.62418 0
M  V30 473 N 47.1168 1.20645 -6.82214 0
M  V30 474 N 48.9098 1.14994 -5.50212 0
M  V30 475 H 41.0608 -0.597109 -2.03834 0
M  V30 476 H 43.3238 -0.205925 -0.925364 0
M  V30 477 H 43.0298 -0.175658 -3.51261 0
M  V30 478 H 42.9038 1.57255 -3.42857 0
M  V30 479 H 45.2908 1.65903 -2.4405 0
M  V30 480 H 45.3718 -0.104762 -2.55585 0
M  V30 481 H 45.0158 0.0661971 -5.07857 0
M  V30 482 H 44.9458 1.84045 -4.93391 0
M  V30 483 H 47.4368 0.935064 -3.66149 0
M  V30 484 H 47.7498 1.30008 -7.61786 0
M  V30 485 H 46.0948 1.17605 -6.84977 0
M  V30 486 H 49.2858 1.07643 -4.55555 0
M  V30 487 H 49.4588 1.24311 -6.35965 0
M  V30 488 N 42.8649 1.48995 0.513639 0
M  V30 489 C 43.8119 1.6473 1.61656 0
M  V30 490 C 44.7819 0.488984 1.58739 0
M  V30 491 O 45.9669 0.714478 1.76918 0
M  V30 492 C 43.1069 1.7082 2.99858 0
M  V30 493 C 42.2199 2.9787 3.12885 0
M  V30 494 C 41.3549 2.95017 4.41744 0
M  V30 495 C 40.3939 4.16702 4.48359 0
M  V30 496 N 39.5309 4.11832 5.68629 0
M  V30 497 H 44.3709 2.58909 1.47547 0
M  V30 498 H 41.9079 1.28382 0.71808 0
M  V30 499 H 43.8659 1.72331 3.79944 0
M  V30 500 H 42.4959 0.801181 3.12699 0
M  V30 501 H 41.5479 3.06029 2.25944 0
M  V30 502 H 42.8599 3.8786 3.13633 0
M  V30 503 H 42.0139 2.95021 5.30139 0
M  V30 504 H 40.7529 2.02784 4.43542 0
M  V30 505 H 39.7579 4.16955 3.58369 0
M  V30 506 H 40.9829 5.10113 4.48287 0
M  V30 507 H 38.9289 3.22428 5.71293 0
M  V30 508 H 38.8459 4.95543 5.7094 0
M  V30 509 H 40.1139 4.1592 6.59266 0
M  V30 510 N 44.343 -0.763751 1.37857 0
M  V30 511 C 45.273 -1.89103 1.36975 0
M  V30 512 C 46.254 -1.68439 0.237152 0
M  V30 513 O 47.439 -1.8918 0.438713 0
M  V30 514 C 44.569 -3.26496 1.18395 0
M  V30 515 C 43.523 -3.61741 2.28751 0
M  V30 516 C 42.849 -4.97762 1.95286 0
M  V30 517 C 44.149 -3.67665 3.70972 0
M  V30 518 H 45.843 -1.90099 2.31307 0
M  V30 519 H 43.389 -0.91319 1.11341 0
M  V30 520 H 45.342 -4.05003 1.16406 0
M  V30 521 H 44.066 -3.25955 0.205215 0
M  V30 522 H 42.725 -2.85547 2.29909 0
M  V30 523 H 42.373 -4.93769 0.959221 0
M  V30 524 H 42.073 -5.22313 2.69189 0
M  V30 525 H 43.597 -5.7866 1.94898 0
M  V30 526 H 45.011 -4.36307 3.719 0
M  V30 527 H 43.408 -4.03718 4.43995 0
M  V30 528 H 44.478 -2.68134 4.0402 0
M  V30 529 N 45.8211 -1.22559 -0.990812 0
M  V30 530 C 46.7841 -0.998863 -2.0629 0
M  V30 531 C 47.7841 0.0354834 -1.60761 0
M  V30 532 O 48.9741 -0.203231 -1.7301 0
M  V30 533 C 46.1061 -0.509203 -3.37076 0
M  V30 534 H 47.2991 -1.95014 -2.27837 0
M  V30 535 H 44.8521 -1.04456 -1.16269 0
M  V30 536 H 45.5871 0.446335 -3.21214 0
M  V30 537 H 45.3721 -1.25547 -3.71457 0
M  V30 538 H 46.8621 -0.370888 -4.1595 0
M  V30 539 N 47.2992 1.18797 -1.03562 0
M  V30 540 C 48.2622 2.20464 -0.626769 0
M  V30 541 C 49.2622 1.57721 0.313173 0
M  V30 542 O 50.4522 1.73917 0.0992615 0
M  V30 543 C 47.5842 3.40802 0.0818498 0
M  V30 544 H 48.7772 2.58149 -1.5264 0
M  V30 545 H 46.3302 1.32593 -0.827578 0
M  V30 546 H 47.0652 3.08642 0.995518 0
M  V30 547 H 46.8502 3.8758 -0.593652 0
M  V30 548 H 48.3402 4.16092 0.354584 0
M  V30 549 N 48.7773 0.814389 1.34928 0
M  V30 550 C 49.7273 0.202752 2.27097 0
M  V30 551 C 50.7113 -0.62799 1.48139 0
M  V30 552 O 51.9033 -0.483969 1.70255 0
M  V30 553 C 49.0323 -0.64146 3.37254 0
M  V30 554 C 48.1183 0.19944 4.23631 0
M  V30 555 N 48.5093 1.26628 4.89693 0
M  V30 556 C 46.8073 -0.0176433 4.45997 0
M  V30 557 C 47.5083 1.78031 5.53787 0
M  V30 558 N 46.4843 1.08553 5.32651 0
M  V30 559 H 50.2863 1.01893 2.75672 0
M  V30 560 H 47.8003 0.656332 1.48546 0
M  V30 561 H 49.7973 -1.09575 4.02243 0
M  V30 562 H 48.4573 -1.4559 2.9023 0
M  V30 563 H 49.4683 1.64901 4.90946 0
M  V30 564 H 46.1453 -0.800601 4.09752 0
M  V30 565 H 47.5353 2.67236 6.16469 0
M  V30 566 N 50.2554 -1.46986 0.568584 0
M  V30 567 C 51.5324 -1.95592 -0.0174074 0
M  V30 568 C 51.9124 -1.51124 -1.47393 0
M  V30 569 O 51.2604 -0.755329 -2.15655 0
M  V30 570 C 51.4704 -3.48719 0.139913 0
M  V30 571 C 52.8184 -4.246 0.000426376 0
M  V30 572 O 53.8424 -3.56135 0.0680316 0
M  V30 573 O 52.7014 -5.46302 -0.146988 0
M  V30 574 H 49.7954 -0.82498 -0.0577599 0
M  V30 575 H 52.3414 -1.57335 0.635909 0
M  V30 576 H 51.1134 -3.73927 1.15301 0
M  V30 577 H 50.7364 -3.93771 -0.550491 0
M  V30 578 N 51.7335 -0.305618 -1.54608 0
M  V30 579 C 52.6815 0.584119 -2.25146 0
M  V30 580 C 53.6755 1.13326 -1.25911 0
M  V30 581 O 54.8815 1.08337 -1.43747 0
M  V30 582 H 51.2565 0.206983 -0.722954 0
M  V30 583 H 53.2275 -0.033291 -2.98381 0
M  V30 584 C 51.9765 1.74225 -3.009 0
M  V30 585 H 51.2995 1.32892 -3.77067 0
M  V30 586 H 52.7395 2.34077 -3.53531 0
M  V30 587 C 51.1985 2.64914 -2.0814 0
M  V30 588 O 51.7285 3.66137 -1.65246 0
M  V30 589 N 49.9345 2.3275 -1.74 0
M  V30 590 H 49.4815 1.50479 -2.09078 0
M  V30 591 H 49.4395 2.93694 -1.12211 0
M  V30 592 N 53.2116 1.57565 -0.0334293 0
M  V30 593 C 54.1416 2.13511 0.945265 0
M  V30 594 C 55.1226 1.05231 1.33643 0
M  V30 595 O 56.3076 1.33084 1.41429 0
M  V30 596 C 53.4376 2.6657 2.22616 0
M  V30 597 C 52.3916 3.79676 1.97561 0
M  V30 598 C 51.7176 4.1918 3.31952 0
M  V30 599 C 53.0176 5.0557 1.31135 0
M  V30 600 H 54.7116 2.95538 0.479325 0
M  V30 601 H 52.2576 1.42166 0.229115 0
M  V30 602 H 54.2106 3.04344 2.91466 0
M  V30 603 H 52.9346 1.8171 2.71384 0
M  V30 604 H 51.5936 3.42347 1.31127 0
M  V30 605 H 51.2416 3.31296 3.78487 0
M  V30 606 H 50.9416 4.95402 3.15992 0
M  V30 607 H 52.4656 4.59541 4.02063 0
M  V30 608 H 53.8796 5.40903 1.89992 0
M  V30 609 H 52.2766 5.86818 1.25559 0
M  V30 610 H 53.3466 4.84062 0.284894 0
M  V30 611 N 54.6897 -0.239769 1.55765 0
M  V30 612 C 55.6367 -1.29696 1.90913 0
M  V30 613 C 56.6067 -1.47478 0.764164 0
M  V30 614 O 57.7917 -1.61345 1.01845 0
M  V30 615 C 54.9317 -2.64598 2.21544 0
M  V30 616 C 54.0447 -2.54765 3.48882 0
M  V30 617 C 53.1797 -3.82069 3.69049 0
M  V30 618 C 52.2187 -3.66883 4.89963 0
M  V30 619 N 51.3557 -4.86094 5.06614 0
M  V30 620 H 56.1957 -0.990224 2.81067 0
M  V30 621 H 53.7327 -0.477684 1.39128 0
M  V30 622 H 55.6907 -3.43132 2.3731 0
M  V30 623 H 54.3207 -2.93405 1.34585 0
M  V30 624 H 53.3727 -1.67763 3.41409 0
M  V30 625 H 54.6847 -2.39457 4.37563 0
M  V30 626 H 53.8387 -4.69046 3.84812 0
M  V30 627 H 52.5777 -4.00282 2.78614 0
M  V30 628 H 51.5827 -2.78289 4.74168 0
M  V30 629 H 52.8077 -3.50157 5.81865 0
M  V30 630 H 50.7537 -5.04655 4.19117 0
M  V30 631 H 50.6707 -4.73443 5.89396 0
M  V30 632 H 51.9387 -5.74549 5.26795 0
M  V30 633 N 56.1678 -1.49265 -0.50573 0
M  V30 634 C 57.0978 -1.68495 -1.61653 0
M  V30 635 C 58.0788 -0.53366 -1.61512 0
M  V30 636 O 59.2638 -0.76897 -1.78327 0
M  V30 637 C 56.3938 -1.74709 -3.00157 0
M  V30 638 C 55.3478 -2.89581 -3.15162 0
M  V30 639 C 54.6738 -2.80903 -4.5497 0
M  V30 640 C 55.9738 -4.30578 -2.95634 0
M  V30 641 H 57.6678 -2.61493 -1.45814 0
M  V30 642 H 55.2138 -1.25838 -0.70005 0
M  V30 643 H 57.1668 -1.86748 -3.77761 0
M  V30 644 H 55.8908 -0.783067 -3.17074 0
M  V30 645 H 54.5498 -2.77136 -2.39982 0
M  V30 646 H 54.1978 -1.82419 -4.68756 0
M  V30 647 H 53.8978 -3.57999 -4.65951 0
M  V30 648 H 55.4218 -2.94944 -5.34641 0
M  V30 649 H 56.8358 -4.4373 -3.63011 0
M  V30 650 H 55.2328 -5.0886 -3.18091 0
M  V30 651 H 56.3028 -4.45352 -1.91806 0
M  V30 652 N 57.6459 0.756429 -1.3826 0
M  V30 653 C 58.8739 1.54565 -1.3754 0
M  V30 654 C 59.2889 1.88767 0.0355331 0
M  V30 655 O 58.6459 1.52572 1.0014 0
M  V30 656 C 58.6969 2.84654 -2.22833 0
M  V30 657 O 58.4179 2.51912 -3.5843 0
M  V30 658 C 59.9189 3.78807 -2.30261 0
M  V30 659 H 57.1389 0.478353 -0.470553 0
M  V30 660 H 59.6829 0.936381 -1.81803 0
M  V30 661 H 57.8379 3.41965 -1.8204 0
M  V30 662 H 58.2519 3.35325 -4.03308 0
M  V30 663 H 59.7259 4.67045 -2.94233 0
M  V30 664 H 60.2029 4.19038 -1.31545 0
M  V30 665 H 60.8089 3.2742 -2.71433 0
M  V30 666 N 59.124 1.23083 0.984299 0
M  V30 667 C 60.373 1.05466 1.71929 0
M  V30 668 C 60.686 -0.409211 1.91272 0
M  V30 669 O 61.892 -0.705226 2.62181 0
M  V30 670 C 60.348 1.83874 3.09384 0
M  V30 671 C 59.956 3.34566 2.97943 0
M  V30 672 C 61.7 1.74734 3.8687 0
M  V30 673 C 59.607 4.05381 4.30605 0
M  V30 674 H 58.537 0.391039 0.644674 0
M  V30 675 H 61.188 1.47013 1.09815 0
M  V30 676 H 59.57 1.35131 3.72231 0
M  V30 677 H 60.744 3.90767 2.44209 0
M  V30 678 H 59.059 3.44476 2.33934 0
M  V30 679 H 61.656 2.24957 4.85076 0
M  V30 680 H 61.999 0.709372 4.10212 0
M  V30 681 H 62.532 2.21067 3.30717 0
M  V30 682 H 59.271 5.09467 4.1246 0
M  V30 683 H 58.791 3.53967 4.84218 0
M  V30 684 H 60.47 4.11458 4.99311 0
M  V30 685 N 60.6021 -1.18246 1.0419 0
M  V30 686 C 61.8301 -1.92195 0.766072 0
M  V30 687 C 62.2451 -1.76247 -0.676933 0
M  V30 688 O 61.6021 -1.09293 -1.46155 0
M  V30 689 C 61.6531 -3.43568 1.12442 0
M  V30 690 O 61.3741 -3.59015 2.51078 0
M  V30 691 C 62.8751 -4.34613 0.873275 0
M  V30 692 H 60.0951 -0.610114 0.279288 0
M  V30 693 H 62.6391 -1.50007 1.38989 0
M  V30 694 H 60.7941 -3.8354 0.545542 0
M  V30 695 H 61.2081 -4.5273 2.64831 0
M  V30 696 H 62.6821 -5.39374 1.17385 0
M  V30 697 H 63.1591 -4.38781 -0.191909 0
M  V30 698 H 63.7651 -4.00341 1.43551 0
M  V30 699 N 62.0802 -0.821533 -1.34494 0
M  V30 700 C 63.0122 -0.199946 -2.28326 0
M  V30 701 C 64.0252 0.609377 -1.50965 0
M  V30 702 O 65.2142 0.439285 -1.7301 0
M  V30 703 C 62.3142 0.738431 -3.30757 0
M  V30 704 C 61.4872 -0.0277632 -4.37391 0
M  V30 705 C 60.5462 0.831332 -5.19591 0
M  V30 706 O 59.5722 0.276822 -5.68526 0
M  V30 707 N 60.7742 2.15132 -5.39165 0
M  V30 708 H 63.5392 -1.00609 -2.82308 0
M  V30 709 H 61.1002 -0.678366 -1.47003 0
M  V30 710 H 63.0922 1.31773 -3.82646 0
M  V30 711 H 61.6622 1.44533 -2.7718 0
M  V30 712 H 60.8822 -0.788359 -3.86236 0
M  V30 713 H 62.1702 -0.555251 -5.05761 0
M  V30 714 H 61.5682 2.62559 -5.01078 0
M  V30 715 H 60.1252 2.6795 -5.94177 0
M  V30 716 N 63.5583 1.46682 -0.576371 0
M  V30 717 C 64.4683 2.34032 0.163141 0
M  V30 718 C 65.4843 1.49367 0.892501 0
M  V30 719 O 66.6603 1.82252 0.857106 0
M  V30 720 C 63.7253 3.26435 1.16795 0
M  V30 721 C 62.7863 4.26998 0.443944 0
M  V30 722 C 62.0193 5.14986 1.40088 0
M  V30 723 O 62.2423 5.05785 2.637 0
M  V30 724 O 61.1763 5.94906 0.914917 0
M  V30 725 H 65.0023 2.98607 -0.55388 0
M  V30 726 H 62.5873 1.45554 -0.336821 0
M  V30 727 H 64.4693 3.83459 1.74748 0
M  V30 728 H 63.1443 2.64465 1.86655 0
M  V30 729 H 62.0513 3.7368 -0.177271 0
M  V30 730 H 63.3843 4.91736 -0.213566 0
M  V30 731 N 65.0364 0.313813 1.54444 0
M  V30 732 C 66.2844 -0.291099 1.99993 0
M  V30 733 C 66.6054 -1.53418 1.20366 0
M  V30 734 O 65.8754 -1.93544 0.302927 0
M  V30 735 H 64.4554 -0.110552 0.738774 0
M  V30 736 H 67.1174 0.428106 1.9014 0
M  V30 737 H 66.2134 -0.554268 3.07139 0
M  V30 738 N 66.5145 -1.57545 0.0417849 0
M  V30 739 C 67.4625 -2.12148 -0.953723 0
M  V30 740 C 68.4565 -1.05104 -1.32852 0
M  V30 741 O 69.6625 -1.23524 -1.30927 0
M  V30 742 H 66.0375 -0.677957 -0.325389 0
M  V30 743 H 68.0085 -2.94707 -0.467991 0
M  V30 744 C 66.7575 -2.6739 -2.22257 0
M  V30 745 H 66.0805 -3.49413 -1.94295 0
M  V30 746 H 67.5205 -3.09227 -2.90094 0
M  V30 747 C 65.9795 -1.60723 -2.96091 0
M  V30 748 O 66.5095 -1.01449 -3.88679 0
M  V30 749 N 64.7155 -1.32466 -2.58652 0
M  V30 750 H 64.2625 -1.80856 -1.83437 0
M  V30 751 H 64.2205 -0.61325 -3.08361 0
M  V30 752 N 67.9926 0.231505 -1.5589 0
M  V30 753 C 68.9396 1.28682 -1.91598 0
M  V30 754 C 69.9096 1.47071 -0.771974 0
M  V30 755 O 71.0946 1.60802 -1.027 0
M  V30 756 C 68.2346 2.6342 -2.22944 0
M  V30 757 C 67.3476 2.52912 -3.50228 0
M  V30 758 C 66.4826 3.80106 -3.7107 0
M  V30 759 C 65.5216 3.64279 -4.91902 0
M  V30 760 N 64.6586 4.834 -5.09184 0
M  V30 761 H 69.4986 0.975305 -2.81588 0
M  V30 762 H 67.0356 0.470299 -1.39379 0
M  V30 763 H 68.9936 3.41869 -2.39126 0
M  V30 764 H 67.6236 2.92687 -1.36139 0
M  V30 765 H 66.6756 1.6595 -3.42294 0
M  V30 766 H 67.9876 2.37133 -4.38827 0
M  V30 767 H 67.1416 4.66999 -3.87295 0
M  V30 768 H 65.8806 3.98799 -2.80733 0
M  V30 769 H 64.8856 2.7577 -4.75637 0
M  V30 770 H 66.1106 3.47067 -5.83714 0
M  V30 771 H 64.0566 5.02425 -4.21788 0
M  V30 772 H 63.9736 4.70311 -5.91898 0
M  V30 773 H 65.2416 5.71747 -5.29835 0
M  V30 774 N 69.4707 1.49531 0.497807 0
M  V30 775 C 70.7177 1.59179 1.25173 0
M  V30 776 C 71.0457 0.279932 1.92475 0
M  V30 777 O 70.3007 -0.732383 1.81479 0
M  V30 778 C 70.5997 2.70252 2.33878 0
M  V30 779 C 70.2657 4.11644 1.84012 0
M  V30 780 C 68.9277 4.50121 1.70132 0
M  V30 781 C 71.2797 5.00121 1.46725 0
M  V30 782 C 68.6077 5.74845 1.17348 0
M  V30 783 C 70.9597 6.25366 0.95392 0
M  V30 784 C 69.6237 6.6267 0.801538 0
M  V30 785 H 68.8937 0.582478 0.45804 0
M  V30 786 H 71.5407 1.83373 0.551948 0
M  V30 787 H 69.8457 2.40041 3.09657 0
M  V30 788 H 71.5427 2.74925 2.9192 0
M  V30 789 H 68.1327 3.81274 1.95775 0
M  V30 790 H 72.3167 4.71048 1.56294 0
M  V30 791 H 67.5727 6.02444 1.04264 0
M  V30 792 H 71.7467 6.93301 0.656225 0
M  V30 793 H 69.3737 7.59197 0.390351 0
M  V30 794 N 70.9488 -0.749086 1.3866 0
M  V30 795 C 72.1768 -1.53834 1.38358 0
M  V30 796 C 72.5918 -1.88783 -0.0255219 0
M  V30 797 O 71.9488 -1.53101 -0.993292 0
M  V30 798 C 71.9998 -2.83468 2.2434 0
M  V30 799 O 71.7208 -2.50008 3.5976 0
M  V30 800 C 73.2218 -3.7758 2.32267 0
M  V30 801 H 70.4418 -0.47585 0.473083 0
M  V30 802 H 72.9858 -0.926726 1.82297 0
M  V30 803 H 71.1408 -3.40995 1.83851 0
M  V30 804 H 71.5548 -3.33182 4.05081 0
M  V30 805 H 73.0288 -4.65478 2.96706 0
M  V30 806 H 73.5058 -4.18334 1.33765 0
M  V30 807 H 74.1118 -3.25976 2.73166 0
M  V30 808 N 72.4269 -1.23603 -0.977757 0
M  V30 809 C 73.6729 -1.07129 -1.72195 0
M  V30 810 C 74.0059 0.390501 -1.90233 0
M  V30 811 O 73.2809 1.28902 -1.45653 0
M  V30 812 C 73.5639 -1.80031 -3.11867 0
M  V30 813 C 73.4169 -3.33899 -3.01383 0
M  V30 814 C 74.7359 -1.56492 -4.11337 0
M  V30 815 H 71.8549 -0.390571 -0.624999 0
M  V30 816 H 74.4969 -1.52142 -1.13811 0
M  V30 817 H 72.6469 -1.41768 -3.6171 0
M  V30 818 H 74.3189 -3.81699 -2.59043 0
M  V30 819 H 72.5619 -3.62796 -2.37827 0
M  V30 820 H 73.2329 -3.801 -4.00285 0
M  V30 821 H 75.7089 -1.89757 -3.70313 0
M  V30 822 H 74.5849 -2.09973 -5.07151 0
M  V30 823 H 74.8459 -0.500874 -4.39254 0
M  V30 824 N 73.905 1.17692 -1.04816 0
M  V30 825 C 74.852 2.21581 -0.645797 0
M  V30 826 C 75.822 1.62367 0.350159 0
M  V30 827 O 77.007 1.89254 0.242433 0
M  V30 828 C 74.147 3.45092 -0.0227568 0
M  V30 829 C 73.26 4.18613 -1.06709 0
M  V30 830 C 72.395 5.29602 -0.411767 0
M  V30 831 C 71.434 5.94904 -1.44067 0
M  V30 832 N 70.571 6.97414 -0.809781 0
M  V30 833 H 75.411 2.55353 -1.5362 0
M  V30 834 H 72.948 1.25438 -0.768364 0
M  V30 835 H 74.906 4.15679 0.35588 0
M  V30 836 H 73.536 3.11917 0.831122 0
M  V30 837 H 72.588 3.46779 -1.5636 0
M  V30 838 H 73.9 4.63293 -1.84827 0
M  V30 839 H 73.054 6.06696 0.0206623 0
M  V30 840 H 71.793 4.86045 0.401438 0
M  V30 841 H 70.798 5.16544 -1.88316 0
M  V30 842 H 72.023 6.40542 -2.25571 0
M  V30 843 H 69.969 6.55998 -0.0170186 0
M  V30 844 H 69.886 7.40386 -1.52856 0
M  V30 845 H 71.154 7.78463 -0.401999 0
M  V30 846 N 75.3831 0.828654 1.34056 0
M  V30 847 C 76.2931 0.256725 2.33191 0
M  V30 848 C 77.3091 -0.611898 1.62886 0
M  V30 849 O 78.4851 -0.51844 1.94613 0
M  V30 850 C 75.5501 -0.567238 3.42028 0
M  V30 851 C 74.6111 0.324458 4.28072 0
M  V30 852 C 73.8441 -0.460274 5.31712 0
M  V30 853 O 74.0671 -1.693 5.44696 0
M  V30 854 O 73.0011 0.160391 6.01686 0
M  V30 855 H 76.8271 1.07739 2.83947 0
M  V30 856 H 74.4121 0.59093 1.37217 0
M  V30 857 H 76.2941 -1.03582 4.08471 0
M  V30 858 H 74.9691 -1.36513 2.93506 0
M  V30 859 H 73.8761 0.840659 3.64532 0
M  V30 860 H 75.2091 1.08685 4.8005 0
M  V30 861 N 76.8612 -1.46375 0.584142 0
M  V30 862 C 78.0862 -2.07268 0.0740405 0
M  V30 863 C 78.5112 -1.42979 -1.22223 0
M  V30 864 O 77.8692 -0.514092 -1.73859 0
M  V30 865 C 77.9172 -3.60518 -0.0767769 0
M  V30 866 O 77.0212 -3.96533 -1.13292 0
M  V30 867 H 76.3622 -0.660961 0.0634524 0
M  V30 868 H 78.8922 -1.87991 0.807492 0
M  V30 869 H 78.9022 -4.07021 -0.282489 0
M  V30 870 H 77.5772 -4.06702 0.86986 0
M  V30 871 H 76.1542 -3.61738 -0.905553 0
M  V30 872 N 78.3393 -0.321999 -1.54275 0
M  V30 873 C 79.5643 0.285791 -2.05422 0
M  V30 874 C 79.9893 1.45124 -1.19669 0
M  V30 875 O 79.3473 1.80132 -0.205441 0
M  V30 876 C 79.3953 0.69956 -3.53749 0
M  V30 877 O 78.4993 1.8021 -3.70942 0
M  V30 878 H 77.8403 0.0518962 -0.661969 0
M  V30 879 H 80.3703 -0.469954 -1.9913 0
M  V30 880 H 80.3803 0.982649 -3.9599 0
M  V30 881 H 79.0553 -0.152864 -4.15619 0
M  V30 882 H 77.6323 1.51794 -3.40607 0
M  V30 883 N 79.8174 1.5752 -0.0501392 0
M  V30 884 C 80.7804 2.1037 0.909786 0
M  V30 885 C 81.7804 1.02308 1.24056 0
M  V30 886 O 82.9704 1.28385 1.17741 0
M  V30 887 C 80.1024 2.58708 2.21998 0
M  V30 888 H 81.2954 2.96479 0.451665 0
M  V30 889 H 78.8484 1.55038 0.198248 0
M  V30 890 H 79.5834 1.75989 2.72394 0
M  V30 891 H 79.3684 3.37675 1.99295 0
M  V30 892 H 80.8584 2.99747 2.9076 0
M  V30 893 N 81.2955 -0.223234 1.56011 0
M  V30 894 C 82.5425 -0.947875 1.78946 0
M  V30 895 C 82.8705 -1.844 0.618608 0
M  V30 896 O 82.1255 -1.91629 -0.397093 0
M  V30 897 C 82.4245 -1.81948 3.0762 0
M  V30 898 C 82.0905 -1.07672 4.37856 0
M  V30 899 C 80.7525 -0.871544 4.73242 0
M  V30 900 C 83.1045 -0.552081 5.18268 0
M  V30 901 C 80.4325 -0.129791 5.86556 0
M  V30 902 C 82.7845 0.17632 6.32354 0
M  V30 903 C 81.4485 0.39277 6.66343 0
M  V30 904 H 80.7185 -0.346852 0.654809 0
M  V30 905 H 83.3655 -0.216171 1.90276 0
M  V30 906 H 81.6705 -2.61899 2.91404 0
M  V30 907 H 83.3675 -2.38227 3.22566 0
M  V30 908 H 79.9575 -1.24662 4.1007 0
M  V30 909 H 84.1415 -0.698076 4.91366 0
M  V30 910 H 79.3975 0.048153 6.11381 0
M  V30 911 H 83.5715 0.590367 6.93893 0
M  V30 912 H 81.1985 0.969466 7.53993 0
M  V30 913 N 82.7736 -1.49793 -0.48987 0
M  V30 914 C 84.1896 -1.36803 -0.822022 0
M  V30 915 C 84.3896 -0.409652 -1.97292 0
M  V30 916 O 83.4456 0.154614 -2.52026 0
M  V30 917 C 84.7586 -2.77768 -1.15175 0
M  V30 918 C 86.3066 -2.86549 -1.25931 0
M  V30 919 C 86.7816 -4.28306 -1.62228 0
M  V30 920 N 88.2726 -4.31169 -1.69256 0
M  V30 921 C 89.0076 -5.37832 -1.98807 0
M  V30 922 N 88.5036 -6.54726 -2.26507 0
M  V30 923 N 90.2966 -5.25258 -2.00152 0
M  V30 924 H 82.4476 -2.10691 0.268881 0
M  V30 925 H 84.7106 -0.946241 0.057728 0
M  V30 926 H 84.4166 -3.49648 -0.379335 0
M  V30 927 H 84.2906 -3.13836 -2.09253 0
M  V30 928 H 86.6776 -2.14899 -2.02243 0
M  V30 929 H 86.7586 -2.54049 -0.298776 0
M  V30 930 H 86.4026 -5.00486 -0.864622 0
M  V30 931 H 86.3326 -4.58279 -2.594 0
M  V30 932 H 88.8236 -3.4687 -1.49965 0
M  V30 933 H 89.1366 -7.31833 -2.48276 0
M  V30 934 H 87.4816 -6.57933 -2.23939 0
M  V30 935 H 90.6726 -4.32938 -1.77996 0
M  V30 936 H 90.8456 -6.08476 -2.22848 0
M  V30 937 N 84.2517 0.741722 -1.39055 0
M  V30 938 C 85.1997 1.87702 -1.3737 0
M  V30 939 C 86.1937 1.67427 -0.257812 0
M  V30 940 O 87.3997 1.7485 -0.427489 0
M  V30 941 H 83.7747 0.617757 -0.428812 0
M  V30 942 H 85.7457 1.86239 -2.33147 0
M  V30 943 C 84.4947 3.25315 -1.22741 0
M  V30 944 H 83.8177 3.41509 -2.07873 0
M  V30 945 H 85.2577 4.04964 -1.25618 0
M  V30 946 C 83.7167 3.36838 0.0647316 0
M  V30 947 O 84.2467 3.88073 1.03741 0
M  V30 948 N 82.4527 2.90329 0.125544 0
M  V30 949 H 81.9997 2.48823 -0.666682 0
M  V30 950 H 81.9577 2.98418 0.989639 0
M  V30 951 N 85.7298 1.2412 0.971189 0
M  V30 952 C 86.9788 1.07284 1.70801 0
M  V30 953 C 87.2918 -0.388902 1.91695 0
M  V30 954 O 88.4978 -0.677379 2.62914 0
M  V30 955 C 86.9538 1.87145 3.07416 0
M  V30 956 C 86.5618 3.37707 2.94377 0
M  V30 957 C 88.3058 1.78828 3.84995 0
M  V30 958 C 86.2128 4.09925 4.26281 0
M  V30 959 H 85.1428 0.397854 0.64049 0
M  V30 960 H 87.7938 1.4817 1.0825 0
M  V30 961 H 86.1758 1.39071 3.70777 0
M  V30 962 H 87.3498 3.93335 2.4005 0
M  V30 963 H 85.6648 3.46938 2.30267 0
M  V30 964 H 88.2618 2.30089 4.82662 0
M  V30 965 H 88.6048 0.75284 4.09436 0
M  V30 966 H 89.1378 2.24563 3.28354 0
M  V30 967 H 85.8768 5.13813 4.07033 0
M  V30 968 H 85.3968 3.59083 4.80437 0
M  V30 969 H 87.0758 4.1673 4.94919 0
M  V30 970 N 87.2079 -1.17134 1.05439 0
M  V30 971 C 88.1179 -2.24878 0.668365 0
M  V30 972 C 89.1339 -1.71186 -0.311687 0
M  V30 973 O 90.3099 -2.00738 -0.163161 0
M  V30 974 C 87.3749 -3.46662 0.051648 0
M  V30 975 C 86.4359 -4.15429 1.08246 0
M  V30 976 C 85.6689 -5.31399 0.495082 0
M  V30 977 O 85.8919 -5.66153 -0.694743 0
M  V30 978 O 84.8259 -5.89187 1.23056 0
M  V30 979 H 88.6519 -2.60189 1.56637 0
M  V30 980 H 86.2369 -1.24482 0.826104 0
M  V30 981 H 88.1189 -4.20394 -0.290966 0
M  V30 982 H 86.7939 -3.13142 -0.819971 0
M  V30 983 H 85.7009 -3.43704 1.47711 0
M  V30 984 H 87.0339 -4.52982 1.92532 0
M  V30 985 N 88.686 -0.835752 -1.33615 0
M  V30 986 C 89.932 -0.430596 -1.98176 0
M  V30 987 C 90.265 1.00684 -1.66061 0
M  V30 988 O 89.54 1.70339 -0.938877 0
M  V30 989 C 89.823 -0.648065 -3.5422 0
M  V30 990 C 89.676 -2.13255 -3.96033 0
M  V30 991 C 90.995 -0.0922113 -4.40003 0
M  V30 992 H 88.114 -0.157924 -0.719881 0
M  V30 993 H 90.756 -1.05069 -1.58305 0
M  V30 994 H 88.906 -0.120237 -3.88314 0
M  V30 995 H 90.578 -2.725 -3.72211 0
M  V30 996 H 88.821 -2.61823 -3.45878 0
M  V30 997 H 89.492 -2.23547 -5.04708 0
M  V30 998 H 91.968 -0.543343 -4.12537 0
M  V30 999 H 90.844 -0.274083 -5.48215 0
M  V30 1000 H 91.105 1.00378 -4.30554 0
M  V30 1001 N 90.1641 1.46063 -0.591896 0
M  V30 1002 C 91.4101 2.02638 -0.0811191 0
M  V30 1003 C 91.7431 1.4613 1.27905 0
M  V30 1004 O 91.0181 0.629908 1.84017 0
M  V30 1005 C 91.3011 3.60091 -0.0252436 0
M  V30 1006 C 91.1541 4.26965 -1.41496 0
M  V30 1007 C 92.4731 4.3496 0.670685 0
M  V30 1008 H 89.5921 0.73635 -0.0309524 0
M  V30 1009 H 92.2341 1.741 -0.760859 0
M  V30 1010 H 90.3841 3.84535 0.553624 0
M  V30 1011 H 92.0561 4.13756 -2.0397 0
M  V30 1012 H 90.2991 3.85971 -1.98011 0
M  V30 1013 H 90.9701 5.35781 -1.32825 0
M  V30 1014 H 93.4461 4.15716 0.178825 0
M  V30 1015 H 92.3221 5.44686 0.678837 0
M  V30 1016 H 92.5831 4.06685 1.73379 0
M  V30 1017 N 91.6422 0.330177 1.54103 0
M  V30 1018 C 92.8892 -0.270405 2.00686 0
M  V30 1019 C 93.2172 -1.51621 1.21825 0
M  V30 1020 O 92.4722 -1.93536 0.29025 0
M  V30 1021 C 92.7712 -0.643134 3.51566 0
M  V30 1022 C 92.4372 0.504251 4.48072 0
M  V30 1023 C 91.0992 0.819163 4.74176 0
M  V30 1024 C 93.4512 1.27465 5.05373 0
M  V30 1025 C 90.7792 1.90708 5.5484 0
M  V30 1026 C 93.1312 2.35271 5.87223 0
M  V30 1027 C 91.7952 2.67336 6.11627 0
M  V30 1028 H 91.0652 -0.0989482 0.734364 0
M  V30 1029 H 93.7122 0.455324 1.86008 0
M  V30 1030 H 92.0172 -1.44938 3.64006 0
M  V30 1031 H 93.7142 -1.11949 3.85056 0
M  V30 1032 H 90.3042 0.248733 4.27878 0
M  V30 1033 H 94.4882 1.04462 4.85182 0
M  V30 1034 H 89.7442 2.15991 5.71977 0
M  V30 1035 H 93.9182 2.95405 6.30641 0
M  V30 1036 H 91.5452 3.51763 6.73919 0
M  V30 1037 N 93.1203 -1.57491 0.0584922 0
M  V30 1038 C 94.0303 -2.15448 -0.928414 0
M  V30 1039 C 95.0463 -1.11416 -1.3365 0
M  V30 1040 O 96.2223 -1.4362 -1.41193 0
M  V30 1041 C 93.2873 -2.69393 -2.18239 0
M  V30 1042 C 92.3483 -3.88249 -1.83196 0
M  V30 1043 C 91.5813 -4.39613 -3.02616 0
M  V30 1044 O 91.8043 -3.90023 -4.16219 0
M  V30 1045 O 90.7383 -5.31111 -2.83204 0
M  V30 1046 H 94.5643 -3.00112 -0.465483 0
M  V30 1047 H 92.1493 -1.48499 -0.163826 0
M  V30 1048 H 94.0313 -3.04026 -2.91798 0
M  V30 1049 H 92.7063 -1.87796 -2.63656 0
M  V30 1050 H 91.6133 -3.58492 -1.06931 0
M  V30 1051 H 92.9463 -4.71098 -1.42573 0
M  V30 1052 N 94.5984 0.214957 -1.56127 0
M  V30 1053 C 95.5284 1.2695 -1.95974 0
M  V30 1054 C 96.5094 1.48539 -0.828868 0
M  V30 1055 O 97.6944 1.60611 -1.09168 0
M  V30 1056 C 94.8244 2.61794 -2.28214 0
M  V30 1057 C 93.7784 2.54851 -3.43853 0
M  V30 1058 C 93.1044 3.93785 -3.61715 0
M  V30 1059 C 94.4044 2.09065 -4.78632 0
M  V30 1060 H 96.0984 0.93846 -2.84312 0
M  V30 1061 H 93.6444 0.449996 -1.36788 0
M  V30 1062 H 95.5974 3.35731 -2.54682 0
M  V30 1063 H 94.3214 2.96599 -1.36736 0
M  V30 1064 H 92.9804 1.8337 -3.17444 0
M  V30 1065 H 92.6284 4.25908 -2.67602 0
M  V30 1066 H 92.3284 3.90019 -4.39498 0
M  V30 1067 H 93.8524 4.69374 -3.90539 0
M  V30 1068 H 95.2664 2.7275 -5.04262 0
M  V30 1069 H 93.6634 2.16346 -5.59745 0
M  V30 1070 H 94.7334 1.04315 -4.73547 0
M  V30 1071 N 96.0765 1.50051 0.48192 0
M  V30 1072 C 97.3245 1.60181 1.23234 0
M  V30 1073 C 97.6455 0.299176 1.92691 0
M  V30 1074 O 96.9155 -0.682708 1.83619 0
M  V30 1075 H 95.4955 0.590232 0.457859 0
M  V30 1076 H 98.1575 1.86775 0.556881 0
M  V30 1077 H 97.2535 2.40753 1.98607 0
M  V30 1078 N 97.5546 -0.734337 1.39446 0
M  V30 1079 C 98.8006 -1.49613 1.36908 0
M  V30 1080 C 99.1336 -1.94169 -0.0347829 0
M  V30 1081 O 98.4086 -1.66833 -0.999847 0
M  V30 1082 C 98.6916 -2.73534 2.34203 0
M  V30 1083 C 98.5446 -2.34993 3.83534 0
M  V30 1084 C 99.8636 -3.75635 2.29317 0
M  V30 1085 H 96.9826 -0.542714 0.498629 0
M  V30 1086 H 99.6246 -0.839597 1.70443 0
M  V30 1087 H 97.7746 -3.29553 2.05736 0
M  V30 1088 H 99.4466 -1.84601 4.22753 0
M  V30 1089 H 97.6896 -1.67213 4.00278 0
M  V30 1090 H 98.3606 -3.23738 4.47099 0
M  V30 1091 H 100.837 -3.29203 2.54489 0
M  V30 1092 H 99.7126 -4.60008 2.99472 0
M  V30 1093 H 99.9736 -4.22603 1.29842 0
M  V30 1094 N 99.0327 -1.24633 -0.964593 0
M  V30 1095 C 100.261 -1.11501 -1.74285 0
M  V30 1096 C 100.676 0.332165 -1.85855 0
M  V30 1097 O 100.033 1.22903 -1.34911 0
M  V30 1098 C 100.084 -1.75258 -3.16175 0
M  V30 1099 O 99.8047 -3.14318 -3.05182 0
M  V30 1100 C 101.306 -1.67776 -4.10324 0
M  V30 1101 H 98.5257 -0.389407 -0.546446 0
M  V30 1102 H 101.07 -1.64801 -1.21083 0
M  V30 1103 H 99.2247 -1.25954 -3.66353 0
M  V30 1104 H 99.6387 -3.4551 -3.94618 0
M  V30 1105 H 101.113 -2.17064 -5.0753 0
M  V30 1106 H 101.59 -0.639584 -4.34518 0
M  V30 1107 H 102.196 -2.16522 -3.66058 0
M  V30 1108 N 100.511 1.16574 -1.06058 0
M  V30 1109 C 101.758 1.87047 -0.775873 0
M  V30 1110 C 102.086 1.81562 0.697534 0
M  V30 1111 O 101.341 1.22445 1.52662 0
M  V30 1112 C 101.64 3.36195 -1.21275 0
M  V30 1113 C 101.306 3.6188 -2.68986 0
M  V30 1114 C 99.9678 3.68599 -3.09335 0
M  V30 1115 C 102.32 3.72648 -3.64394 0
M  V30 1116 C 99.6478 3.83584 -4.43937 0
M  V30 1117 C 102 3.89154 -4.98741 0
M  V30 1118 C 100.664 3.94114 -5.3873 0
M  V30 1119 H 99.9338 0.684452 -0.283912 0
M  V30 1120 H 102.581 1.37853 -1.32925 0
M  V30 1121 H 100.886 3.87505 -0.578528 0
M  V30 1122 H 102.583 3.89103 -0.969542 0
M  V30 1123 H 99.1728 3.57281 -2.36744 0
M  V30 1124 H 103.357 3.66769 -3.34356 0
M  V30 1125 H 98.6128 3.85677 -4.74409 0
M  V30 1126 H 102.787 3.96427 -5.72554 0
M  V30 1127 H 100.414 4.05478 -6.43033 0
M  V30 1128 N 101.989 0.842826 1.3317 0
M  V30 1129 C 102.937 0.267495 2.31057 0
M  V30 1130 C 103.931 -0.602682 1.58316 0
M  V30 1131 O 105.137 -0.491803 1.73151 0
M  V30 1132 H 101.512 0.0677813 0.748939 0
M  V30 1133 H 103.483 1.10754 2.77085 0
M  V30 1134 C 102.232 -0.539331 3.43492 0
M  V30 1135 H 101.555 0.12095 3.99617 0
M  V30 1136 H 102.995 -0.90767 4.14171 0
M  V30 1137 C 101.454 -1.71981 2.89697 0
M  V30 1138 O 101.984 -2.81862 2.86211 0
M  V30 1139 N 100.19 -1.54299 2.46252 0
M  V30 1140 H 99.7369 -0.649143 2.49287 0
M  V30 1141 H 99.6949 -2.33431 2.10612 0
M  V30 1142 N 103.467 -1.45747 0.599634 0
M  V30 1143 C 104.697 -2.06369 0.0977132 0
M  V30 1144 C 105.105 -1.44624 -1.21985 0
M  V30 1145 O 104.448 -0.551831 -1.75216 0
M  V30 1146 C 104.51 -3.59284 -0.124673 0
M  V30 1147 C 104.174 -4.43318 1.10987 0
M  V30 1148 C 105.171 -4.78796 2.02609 0
M  V30 1149 C 102.856 -4.84194 1.33647 0
M  V30 1150 C 104.85 -5.53997 3.15224 0
M  V30 1151 C 102.537 -5.5915 2.46565 0
M  V30 1152 C 103.535 -5.93968 3.37182 0
M  V30 1153 O 103.223 -6.67405 4.48136 0
M  V30 1154 H 102.955 -0.673122 0.0623153 0
M  V30 1155 H 105.509 -1.88104 0.824981 0
M  V30 1156 H 103.739 -3.75919 -0.906745 0
M  V30 1157 H 105.428 -4.01775 -0.577201 0
M  V30 1158 H 106.194 -4.47781 1.86325 0
M  V30 1159 H 102.073 -4.56534 0.64016 0
M  V30 1160 H 105.617 -5.81091 3.85978 0
M  V30 1161 H 101.514 -5.89579 2.62805 0
M  V30 1162 H 102.282 -6.85847 4.46717 0
M  V30 1163 N 104.945 -0.338344 -1.53925 0
M  V30 1164 C 105.893 0.536231 -2.26335 0
M  V30 1165 C 106.887 1.1063 -1.28286 0
M  V30 1166 O 108.093 1.05264 -1.46012 0
M  V30 1167 H 104.468 0.191602 -0.727181 0
M  V30 1168 H 106.439 -0.0965747 -2.98244 0
M  V30 1169 C 105.188 1.67803 -3.04528 0
M  V30 1170 H 104.511 1.24864 -3.79801 0
M  V30 1171 H 105.951 2.26526 -3.58416 0
M  V30 1172 C 104.41 2.60439 -2.13712 0
M  V30 1173 O 104.94 3.6255 -1.72975 0
M  V30 1174 N 103.146 2.29006 -1.78898 0
M  V30 1175 H 102.693 1.46011 -2.12223 0
M  V30 1176 H 102.651 2.91248 -1.18416 0
M  V30 1177 N 106.423 1.57458 -0.0668435 0
M  V30 1178 C 107.353 2.15468 0.899764 0
M  V30 1179 C 108.334 1.08042 1.31381 0
M  V30 1180 O 109.519 1.36054 1.38574 0
M  V30 1181 C 106.649 2.71232 2.16911 0
M  V30 1182 C 105.603 3.83781 1.89463 0
M  V30 1183 C 104.929 4.26127 3.22986 0
M  V30 1184 C 106.229 5.08238 1.20381 0
M  V30 1185 H 107.923 2.96488 0.416529 0
M  V30 1186 H 105.469 1.4262 0.198908 0
M  V30 1187 H 107.422 3.10458 2.84945 0
M  V30 1188 H 106.146 1.87426 2.67468 0
M  V30 1189 H 104.805 3.45051 1.23836 0
M  V30 1190 H 104.453 3.39249 3.71374 0
M  V30 1191 H 104.153 5.01993 3.05413 0
M  V30 1192 H 105.677 4.67966 3.92225 0
M  V30 1193 H 107.091 5.44811 1.78475 0
M  V30 1194 H 105.488 5.89349 1.13083 0
M  V30 1195 H 106.558 4.84558 0.182153 0
M  V30 1196 N 107.901 -0.206675 1.56239 0
M  V30 1197 C 108.864 -1.23976 1.92776 0
M  V30 1198 C 109.864 -1.39041 0.807729 0
M  V30 1199 O 111.054 -1.37051 1.0753 0
M  V30 1200 C 108.186 -2.61112 2.19165 0
M  V30 1201 H 109.379 -0.927764 2.85189 0
M  V30 1202 H 106.932 -0.447718 1.4975 0
M  V30 1203 H 107.667 -2.97386 1.29352 0
M  V30 1204 H 107.452 -2.51552 3.00772 0
M  V30 1205 H 108.942 -3.35633 2.48476 0
M  V30 1206 N 109.379 -1.50304 -0.473955 0
M  V30 1207 C 110.656 -1.51667 -1.23518 0
M  V30 1208 C 111.036 -0.259701 -2.09496 0
M  V30 1209 O 110.384 0.756986 -2.15597 0
M  V30 1210 C 110.594 -2.81082 -2.06868 0
M  V30 1211 C 111.942 -3.31631 -2.65153 0
M  V30 1212 O 112.966 -2.82384 -2.17113 0
M  V30 1213 O 111.825 -4.17471 -3.52675 0
M  V30 1214 H 108.919 -0.60822 -0.560355 0
M  V30 1215 H 111.465 -1.62592 -0.486011 0
M  V30 1216 H 110.237 -3.64041 -1.4349 0
M  V30 1217 H 109.86 -2.73146 -2.88924 0
M  V30 1218 N 110.857 0.726932 -1.39834 0
M  V30 1219 C 112.105 1.4837 -1.37225 0
M  V30 1220 C 112.426 1.94979 0.0284857 0
M  V30 1221 O 111.696 1.69555 0.981213 0
M  V30 1222 H 110.276 0.55043 -0.505011 0
M  V30 1223 H 112.938 0.862468 -1.74778 0
M  V30 1224 H 112.034 2.36198 -2.04003 0
M  V30 1225 N 112.336 1.25143 0.95797 0
M  V30 1226 C 113.564 1.12424 1.73691 0
M  V30 1227 C 113.979 -0.322304 1.86029 0
M  V30 1228 O 113.336 -1.22186 1.35561 0
M  V30 1229 C 113.387 1.76933 3.15241 0
M  V30 1230 O 113.108 3.15932 3.03511 0
M  V30 1231 C 114.609 1.6995 4.09429 0
M  V30 1232 H 111.829 0.3923 0.544373 0
M  V30 1233 H 114.373 1.6544 1.20207 0
M  V30 1234 H 112.528 1.27895 3.6568 0
M  V30 1235 H 112.942 3.47598 3.9278 0
M  V30 1236 H 114.416 2.19753 5.06372 0
M  V30 1237 H 114.893 0.662619 4.34173 0
M  V30 1238 H 115.499 2.18461 3.64904 0
M  V30 1239 N 113.814 -1.1601 1.06675 0
M  V30 1240 C 114.724 -2.24156 0.692179 0
M  V30 1241 C 115.74 -1.71507 -0.293513 0
M  V30 1242 O 116.916 -2.009 -0.141861 0
M  V30 1243 C 113.981 -3.46587 0.0884131 0
M  V30 1244 C 113.042 -4.14257 1.12646 0
M  V30 1245 C 112.275 -5.30844 0.551416 0
M  V30 1246 O 112.498 -5.66858 -0.634656 0
M  V30 1247 O 111.432 -5.87848 1.29298 0
M  V30 1248 H 115.258 -2.58513 1.59388 0
M  V30 1249 H 112.843 -1.23599 0.83926 0
M  V30 1250 H 114.725 -4.20679 -0.246361 0
M  V30 1251 H 113.4 -3.13994 -0.786712 0
M  V30 1252 H 112.307 -3.42118 1.51348 0
M  V30 1253 H 113.64 -4.50914 1.97325 0
M  V30 1254 N 115.292 -0.849877 -1.32721 0
M  V30 1255 C 116.222 -0.306308 -2.31482 0
M  V30 1256 C 117.203 0.591952 -1.59468 0
M  V30 1257 O 118.388 0.513199 -1.87296 0
M  V30 1258 C 115.518 0.510204 -3.43532 0
M  V30 1259 C 114.472 -0.293209 -4.26994 0
M  V30 1260 C 113.798 0.647743 -5.30762 0
M  V30 1261 C 115.098 -1.51634 -4.99804 0
M  V30 1262 H 116.792 -1.13153 -2.77195 0
M  V30 1263 H 114.338 -0.545553 -1.33266 0
M  V30 1264 H 116.291 0.900856 -4.11658 0
M  V30 1265 H 115.015 1.36874 -2.96535 0
M  V30 1266 H 113.674 -0.665555 -3.60508 0
M  V30 1267 H 113.322 1.50299 -4.8002 0
M  V30 1268 H 113.022 0.11422 -5.87489 0
M  V30 1269 H 114.546 1.03567 -6.01753 0
M  V30 1270 H 115.96 -1.19824 -5.60638 0
M  V30 1271 H 114.357 -1.98745 -5.66234 0
M  V30 1272 H 115.427 -2.28018 -4.27943 0
M  V30 1273 N 116.77 1.45427 -0.607355 0
M  V30 1274 C 118.186 1.57283 -0.270985 0
M  V30 1275 C 118.386 1.59875 1.22647 0
M  V30 1276 O 117.442 1.52893 2.00948 0
M  V30 1277 C 118.755 2.85566 -0.941952 0
M  V30 1278 C 120.303 2.9924 -0.917849 0
M  V30 1279 C 120.778 4.30293 -1.56882 0
M  V30 1280 N 122.269 4.37051 -1.5343 0
M  V30 1281 C 123.004 5.37123 -2.00715 0
M  V30 1282 N 122.5 6.43734 -2.56084 0
M  V30 1283 N 124.293 5.28479 -1.91484 0
M  V30 1284 H 116.444 1.41988 -1.57966 0
M  V30 1285 H 118.707 0.67885 -0.661715 0
M  V30 1286 H 118.413 2.8955 -1.99633 0
M  V30 1287 H 118.287 3.74322 -0.465096 0
M  V30 1288 H 120.674 2.94822 0.127984 0
M  V30 1289 H 120.755 2.11895 -1.43297 0
M  V30 1290 H 120.399 4.35469 -2.61398 0
M  V30 1291 H 120.329 5.16454 -1.02873 0
M  V30 1292 H 122.82 3.60615 -1.12982 0
M  V30 1293 H 123.133 7.16341 -2.89958 0
M  V30 1294 H 121.478 6.44485 -2.60122 0
M  V30 1295 H 124.669 4.44098 -1.47967 0
M  V30 1296 H 124.842 6.0632 -2.28648 0
M  V30 1297 N 118.248 0.346503 1.53744 0
M  V30 1298 C 119.496 -0.248612 2.00565 0
M  V30 1299 C 119.817 -1.5083 1.23593 0
M  V30 1300 O 119.087 -1.92858 0.343912 0
M  V30 1301 H 117.667 -0.0948564 0.740953 0
M  V30 1302 H 120.329 0.468341 1.89189 0
M  V30 1303 H 119.425 -0.488994 3.08245 0
M  V30 1304 N 119.726 -1.57421 0.075193 0
M  V30 1305 C 120.954 -1.97946 -0.602076 0
M  V30 1306 C 121.369 -0.953674 -1.62943 0
M  V30 1307 O 120.726 0.0592551 -1.82404 0
M  V30 1308 C 120.777 -3.38546 -1.26762 0
M  V30 1309 O 120.498 -4.37195 -0.281376 0
M  V30 1310 C 121.999 -3.93966 -2.03239 0
M  V30 1311 H 119.219 -0.650918 -0.162931 0
M  V30 1312 H 121.763 -2.03959 0.148601 0
M  V30 1313 H 119.918 -3.33609 -1.96936 0
M  V30 1314 H 120.332 -5.18975 -0.759267 0
M  V30 1315 H 121.806 -4.94555 -2.45193 0
M  V30 1316 H 122.283 -3.30693 -2.8903 0
M  V30 1317 H 122.889 -4.02315 -1.37924 0
M  V30 1318 N 121.204 0.198386 -1.56346 0
M  V30 1319 C 122.45 0.916115 -1.81601 0
M  V30 1320 C 122.805 1.81025 -0.651744 0
M  V30 1321 O 122.098 1.88316 0.353229 0
M  V30 1322 C 122.292 1.77031 -3.10475 0
M  V30 1323 C 122.121 0.960365 -4.39326 0
M  V30 1324 C 120.891 0.646093 -5.01152 0
M  V30 1325 C 123.089 0.314628 -5.13337 0
M  V30 1326 N 121.071 -0.182828 -6.13628 0
M  V30 1327 C 122.442 -0.37664 -6.18855 0
M  V30 1328 C 124.497 0.230019 -4.97368 0
M  V30 1329 C 123.2 -1.14445 -7.10137 0
M  V30 1330 C 125.226 -0.524389 -5.89071 0
M  V30 1331 C 124.588 -1.20412 -6.94032 0
M  V30 1332 H 120.687 0.314732 -0.715868 0
M  V30 1333 H 123.271 0.185102 -1.93818 0
M  V30 1334 H 121.442 2.47295 -2.99499 0
M  V30 1335 H 123.174 2.42727 -3.2383 0
M  V30 1336 H 119.929 0.969724 -4.63566 0
M  V30 1337 H 120.353 -0.586802 -6.74452 0
M  V30 1338 H 124.995 0.741184 -4.16253 0
M  V30 1339 H 122.713 -1.66706 -7.90718 0
M  V30 1340 H 126.299 -0.591167 -5.78789 0
M  V30 1341 H 125.179 -1.77853 -7.63766 0
M  V30 1342 N 122.682 1.50554 0.465978 0
M  V30 1343 C 123.907 1.65838 1.24549 0
M  V30 1344 C 124.332 0.343486 1.84937 0
M  V30 1345 O 123.69 -0.69324 1.67523 0
M  V30 1346 C 123.738 2.75533 2.32624 0
M  V30 1347 O 122.842 2.37142 3.37398 0
M  V30 1348 H 122.183 0.553893 0.366194 0
M  V30 1349 H 124.713 1.96959 0.553927 0
M  V30 1350 H 124.723 2.98763 2.77857 0
M  V30 1351 H 123.398 3.70962 1.88043 0
M  V30 1352 H 121.975 2.24377 2.97841 0
M  V30 1353 N 124.16 -0.719506 1.40217 0
M  V30 1354 C 125.09 -1.8465 1.42922 0
M  V30 1355 C 126.071 -1.67599 0.29062 0
M  V30 1356 O 127.256 -1.87688 0.498677 0
M  V30 1357 C 124.386 -3.22565 1.28722 0
M  V30 1358 C 123.34 -3.54281 2.40144 0
M  V30 1359 C 122.666 -4.91298 2.11023 0
M  V30 1360 C 123.966 -3.55676 3.82481 0
M  V30 1361 H 125.66 -1.82644 2.37237 0
M  V30 1362 H 123.206 -0.877305 1.1419 0
M  V30 1363 H 125.159 -4.01095 1.29232 0
M  V30 1364 H 123.883 -3.25137 0.308811 0
M  V30 1365 H 122.542 -2.78088 2.38877 0
M  V30 1366 H 122.19 -4.90468 1.11582 0
M  V30 1367 H 121.89 -5.13485 2.8567 0
M  V30 1368 H 123.414 -5.72166 2.13209 0
M  V30 1369 H 124.828 -4.24254 3.85592 0
M  V30 1370 H 123.225 -3.89388 4.56614 0
M  V30 1371 H 124.295 -2.55144 4.12346 0
M  V30 1372 N 125.638 -1.25649 -0.95132 0
M  V30 1373 C 126.548 -1.08073 -2.08224 0
M  V30 1374 C 127.564 -0.0169666 -1.73992 0
M  V30 1375 O 128.74 -0.218593 -2.0021 0
M  V30 1376 C 125.805 -0.704922 -3.39458 0
M  V30 1377 C 124.866 -1.84699 -3.87537 0
M  V30 1378 C 124.099 -1.48902 -5.12508 0
M  V30 1379 O 124.322 -0.386156 -5.69091 0
M  V30 1380 O 123.256 -2.32033 -5.55378 0
M  V30 1381 H 127.082 -2.02924 -2.25954 0
M  V30 1382 H 124.667 -1.04618 -1.06656 0
M  V30 1383 H 126.549 -0.507609 -4.18332 0
M  V30 1384 H 125.224 0.214291 -3.2299 0
M  V30 1385 H 124.131 -2.09919 -3.09653 0
M  V30 1386 H 125.464 -2.74557 -4.08509 0
M  V30 1387 N 127.117 1.15442 -1.07289 0
M  V30 1388 C 128.365 1.85845 -0.794096 0
M  V30 1389 C 128.686 1.82692 0.681809 0
M  V30 1390 O 127.956 1.26741 1.49377 0
M  V30 1391 H 126.536 0.688089 -0.290763 0
M  V30 1392 H 129.198 1.39947 -1.3565 0
M  V30 1393 H 128.294 2.91001 -1.12804 0
M  V30 1394 N 128.595 0.856903 1.32268 0
M  V30 1395 C 129.543 0.291987 2.3076 0
M  V30 1396 C 130.537 -0.585857 1.58947 0
M  V30 1397 O 131.743 -0.47341 1.73663 0
M  V30 1398 H 128.118 0.075721 0.748178 0
M  V30 1399 H 130.089 1.13687 2.75895 0
M  V30 1400 C 128.838 -0.502869 3.44044 0
M  V30 1401 H 128.161 0.163328 3.99466 0
M  V30 1402 H 129.601 -0.863691 4.1511 0
M  V30 1403 C 128.06 -1.68898 2.91505 0
M  V30 1404 O 128.59 -2.78811 2.89184 0
M  V30 1405 N 126.796 -1.51679 2.47875 0
M  V30 1406 H 126.343 -0.622666 2.49961 0
M  V30 1407 H 126.301 -2.31184 2.13076 0
M  V30 1408 N 130.073 -1.45103 0.615059 0
M  V30 1409 C 131.02 -2.30586 -0.0993978 0
M  V30 1410 C 131.99 -1.42544 -0.852669 0
M  V30 1411 O 133.175 -1.71465 -0.836917 0
M  V30 1412 C 130.315 -3.27572 -1.08583 0
M  V30 1413 C 129.428 -4.30717 -0.332656 0
M  V30 1414 C 128.563 -5.14807 -1.30947 0
M  V30 1415 C 127.602 -6.09673 -0.544538 0
M  V30 1416 N 126.739 -6.86517 -1.47101 0
M  V30 1417 H 131.579 -2.91144 0.635542 0
M  V30 1418 H 129.116 -1.4346 0.325206 0
M  V30 1419 H 131.074 -3.82276 -1.67095 0
M  V30 1420 H 129.704 -2.68751 -1.78809 0
M  V30 1421 H 128.756 -3.78615 0.368107 0
M  V30 1422 H 130.068 -4.98102 0.263842 0
M  V30 1423 H 129.222 -5.73948 -1.96643 0
M  V30 1424 H 127.961 -4.47458 -1.9399 0
M  V30 1425 H 126.966 -5.49656 0.126003 0
M  V30 1426 H 128.191 -6.79052 0.080947 0
M  V30 1427 H 126.137 -6.21851 -2.08895 0
M  V30 1428 H 126.054 -7.50281 -0.928137 0
M  V30 1429 H 127.322 -7.50194 -2.11731 0
M  V30 1430 N 131.551 -0.354651 -1.53558 0
M  V30 1431 C 132.481 0.489091 -2.2832 0
M  V30 1432 C 133.462 1.09324 -1.30316 0
M  V30 1433 O 134.647 1.11255 -1.59173 0
M  V30 1434 C 131.777 1.63456 -3.0643 0
M  V30 1435 C 130.731 1.1582 -4.12031 0
M  V30 1436 C 130.057 2.39305 -4.7816 0
M  V30 1437 C 131.357 0.250731 -5.21698 0
M  V30 1438 H 133.051 -0.134614 -2.99097 0
M  V30 1439 H 130.597 -0.0661826 -1.43848 0
M  V30 1440 H 132.55 2.23136 -3.57475 0
M  V30 1441 H 131.274 2.28533 -2.33325 0
M  V30 1442 H 129.933 0.584146 -3.61916 0
M  V30 1443 H 129.581 3.02814 -4.01637 0
M  V30 1444 H 129.281 2.08109 -5.49513 0
M  V30 1445 H 130.805 2.99691 -5.31994 0
M  V30 1446 H 132.219 0.754695 -5.68311 0
M  V30 1447 H 130.616 0.0301468 -6.00092 0
M  V30 1448 H 131.686 -0.710125 -4.79672 0
M  V30 1449 N 133.029 1.57378 -0.0835403 0
M  V30 1450 C 134.278 1.93106 0.582498 0
M  V30 1451 C 134.591 0.96651 1.70053 0
M  V30 1452 O 135.797 1.21705 2.42693 0
M  V30 1453 C 134.253 3.43076 1.08751 0
M  V30 1454 C 133.861 4.48 -0.000146404 0
M  V30 1455 C 135.605 3.87785 1.72694 0
M  V30 1456 C 133.512 5.89113 0.519568 0
M  V30 1457 H 132.442 0.720775 0.221358 0
M  V30 1458 H 135.093 1.82821 -0.157675 0
M  V30 1459 H 133.475 3.48474 1.88101 0
M  V30 1460 H 134.649 4.54233 -0.775199 0
M  V30 1461 H 132.964 4.1283 -0.54406 0
M  V30 1462 H 135.561 4.90604 2.1263 0
M  V30 1463 H 135.904 3.25796 2.59158 0
M  V30 1464 H 136.437 3.8504 0.999457 0
M  V30 1465 H 133.176 6.54775 -0.308186 0
M  V30 1466 H 132.696 5.86376 1.26188 0
M  V30 1467 H 134.375 6.39346 0.992237 0
M  V30 1468 N 134.507 -0.190092 1.56449 0
M  V30 1469 C 135.755 -0.907908 1.80559 0
M  V30 1470 C 136.076 -1.83583 0.657438 0
M  V30 1471 O 135.346 -1.93203 -0.323924 0
M  V30 1472 H 133.926 -0.338247 0.666032 0
M  V30 1473 H 136.588 -0.194403 1.93928 0
M  V30 1474 H 135.684 -1.49604 2.73907 0
M  V30 1475 N 135.985 -1.50799 -0.457987 0
M  V30 1476 C 136.932 -1.70617 -1.5543 0
M  V30 1477 C 137.902 -0.547562 -1.56815 0
M  V30 1478 O 139.087 -0.779647 -1.74144 0
M  V30 1479 C 136.227 -1.81831 -2.93311 0
M  V30 1480 C 135.34 -3.09278 -3.01615 0
M  V30 1481 C 134.475 -3.11209 -4.30491 0
M  V30 1482 C 133.514 -4.33055 -4.32585 0
M  V30 1483 N 132.651 -4.32652 -5.52952 0
M  V30 1484 H 137.491 -2.64207 -1.37836 0
M  V30 1485 H 135.028 -1.30959 -0.669937 0
M  V30 1486 H 136.986 -1.86314 -3.73287 0
M  V30 1487 H 135.616 -0.916685 -3.0951 0
M  V30 1488 H 134.668 -3.14203 -2.1443 0
M  V30 1489 H 135.98 -3.99233 -2.99022 0
M  V30 1490 H 135.134 -3.14494 -5.18824 0
M  V30 1491 H 133.873 -2.19106 -4.35711 0
M  V30 1492 H 132.878 -4.29969 -3.42647 0
M  V30 1493 H 134.103 -5.264 -4.29046 0
M  V30 1494 H 132.049 -3.43409 -5.58933 0
M  V30 1495 H 131.966 -5.16392 -5.52155 0
M  V30 1496 H 133.234 -4.40101 -6.43375 0
M  V30 1497 N 137.463 0.71206 -1.40597 0
M  V30 1498 C 138.71 1.47197 -1.39065 0
M  V30 1499 C 139.038 1.94499 0.00583891 0
M  V30 1500 O 138.293 1.68752 0.99102 0
M  V30 1501 C 138.592 2.71039 -2.32965 0
M  V30 1502 C 138.258 2.42484 -3.80148 0
M  V30 1503 C 136.92 2.34406 -4.20247 0
M  V30 1504 C 139.272 2.18598 -4.73143 0
M  V30 1505 C 136.6 2.00516 -5.51371 0
M  V30 1506 C 138.952 1.8622 -6.0457 0
M  V30 1507 C 137.616 1.76626 -6.43708 0
M  V30 1508 H 136.886 0.538634 -0.508876 0
M  V30 1509 H 139.533 0.815325 -1.73276 0
M  V30 1510 H 137.838 3.41558 -1.91951 0
M  V30 1511 H 139.535 3.29138 -2.29061 0
M  V30 1512 H 136.125 2.49659 -3.4838 0
M  V30 1513 H 140.309 2.23793 -4.42979 0
M  V30 1514 H 135.565 1.91628 -5.80593 0
M  V30 1515 H 139.739 1.66752 -6.76141 0
M  V30 1516 H 137.366 1.50133 -7.45228 0
M  V30 1517 N 138.941 1.26152 0.944643 0
M  V30 1518 C 139.888 1.07408 2.04285 0
M  V30 1519 C 140.858 -0.0198413 1.66088 0
M  V30 1520 O 142.043 0.139264 1.90291 0
M  V30 1521 C 139.183 0.70945 3.37729 0
M  V30 1522 C 138.296 1.87926 3.88983 0
M  V30 1523 C 137.431 1.45807 5.10797 0
M  V30 1524 C 136.47 2.5964 5.54305 0
M  V30 1525 N 135.607 2.18226 6.67324 0
M  V30 1526 H 140.447 2.01389 2.1965 0
M  V30 1527 H 137.984 1.00275 1.07626 0
M  V30 1528 H 139.942 0.478948 4.14442 0
M  V30 1529 H 138.572 -0.193389 3.2222 0
M  V30 1530 H 137.624 2.22279 3.08701 0
M  V30 1531 H 138.936 2.73377 4.17213 0
M  V30 1532 H 138.09 1.18781 5.94959 0
M  V30 1533 H 136.829 0.574414 4.84305 0
M  V30 1534 H 135.834 2.87399 4.68702 0
M  V30 1535 H 137.059 3.48599 5.828 0
M  V30 1536 H 135.005 1.3229 6.42523 0
M  V30 1537 H 134.922 2.97221 6.95123 0
M  V30 1538 H 136.19 1.94403 7.54869 0
M  V30 1539 N 140.419 -1.14872 1.07899 0
M  V30 1540 C 141.835 -1.37776 0.805606 0
M  V30 1541 C 142.035 -1.92743 -0.587555 0
M  V30 1542 O 141.091 -2.13678 -1.34528 0
M  V30 1543 C 142.404 -2.34361 1.88402 0
M  V30 1544 C 143.952 -2.48012 1.90942 0
M  V30 1545 C 144.427 -3.47893 2.97883 0
M  V30 1546 N 145.918 -3.55433 2.97021 0
M  V30 1547 C 146.653 -4.32553 3.76412 0
M  V30 1548 N 146.149 -5.12959 4.65666 0
M  V30 1549 N 147.942 -4.27697 3.64735 0
M  V30 1550 H 140.093 -0.775365 1.97742 0
M  V30 1551 H 142.356 -0.403521 0.857831 0
M  V30 1552 H 142.062 -2.01098 2.88535 0
M  V30 1553 H 141.936 -3.34206 1.74889 0
M  V30 1554 H 144.323 -2.8057 0.914579 0
M  V30 1555 H 144.404 -1.48147 2.08534 0
M  V30 1556 H 144.048 -3.16069 3.97571 0
M  V30 1557 H 143.978 -4.47527 2.77538 0
M  V30 1558 H 146.469 -2.98048 2.32326 0
M  V30 1559 H 146.782 -5.69065 5.22862 0
M  V30 1560 H 145.127 -5.12245 4.69712 0
M  V30 1561 H 148.318 -3.63949 2.94378 0
M  V30 1562 H 148.491 -4.8755 4.26848 0
M  V30 1563 N 141.898 -0.863906 -1.31812 0
M  V30 1564 C 143.126 -0.486111 -2.01108 0
M  V30 1565 C 143.541 0.919755 -1.64882 0
M  V30 1566 O 142.898 1.60162 -0.874893 0
M  V30 1567 C 142.949 -0.626435 -3.56031 0
M  V30 1568 O 142.67 -1.97693 -3.90959 0
M  V30 1569 C 144.171 -0.248857 -4.42601 0
M  V30 1570 H 141.391 -0.190052 -0.643523 0
M  V30 1571 H 143.935 -1.1634 -1.68182 0
M  V30 1572 H 142.09 0.00322717 -3.874 0
M  V30 1573 H 142.504 -1.98034 -4.85678 0
M  V30 1574 H 143.978 -0.398016 -5.50563 0
M  V30 1575 H 144.455 0.811489 -4.31638 0
M  V30 1576 H 145.061 -0.853971 -4.16638 0
M  V30 1577 N 143.376 1.44774 -0.622745 0
M  V30 1578 C 144.653 1.95522 -0.0551974 0
M  V30 1579 C 145.033 1.5649 1.41683 0
M  V30 1580 O 144.381 0.834848 2.12703 0
M  V30 1581 C 144.591 3.4796 -0.269242 0
M  V30 1582 C 145.939 4.24306 -0.158014 0
M  V30 1583 O 146.963 3.55637 -0.200162 0
M  V30 1584 O 145.822 5.46471 -0.0558693 0
M  V30 1585 H 142.916 0.826556 0.0271015 0
M  V30 1586 H 145.462 1.54866 -0.693864 0
M  V30 1587 H 144.234 3.6939 -1.29099 0
M  V30 1588 H 143.857 3.95543 0.403966 0
M  V30 1589 N 144.854 0.36279 1.53368 0
M  V30 1590 C 145.802 -0.500155 2.27159 0
M  V30 1591 C 146.796 -1.08575 1.3003 0
M  V30 1592 O 148.002 -1.02927 1.47668 0
M  V30 1593 H 144.377 -0.180009 0.730138 0
M  V30 1594 H 146.348 0.14401 2.98052 0
M  V30 1595 C 145.097 -1.62937 3.07159 0
M  V30 1596 H 144.42 -1.18806 3.8174 0
M  V30 1597 H 145.86 -2.20795 3.61975 0
M  V30 1598 C 144.319 -2.57007 2.17829 0
M  V30 1599 O 144.849 -3.59752 1.78721 0
M  V30 1600 N 143.055 -2.26131 1.82518 0
M  V30 1601 H 142.602 -1.42616 2.14519 0
M  V30 1602 H 142.56 -2.89327 1.23034 0
M  V30 1603 N 146.332 -1.57332 0.0918853 0
M  V30 1604 C 147.58 -1.93853 -0.571446 0
M  V30 1605 C 147.901 -0.974212 -1.6892 0
M  V30 1606 O 147.171 -0.0257254 -1.95883 0
M  V30 1607 H 145.751 -0.715666 -0.214082 0
M  V30 1608 H 148.413 -1.94287 0.154464 0
M  V30 1609 H 147.509 -2.96191 -0.983729 0
M  V30 1610 N 147.81 0.181792 -1.56548 0
M  V30 1611 C 148.758 1.24461 -1.965 0
M  V30 1612 C 149.752 1.464 -0.852261 0
M  V30 1613 O 150.958 1.47103 -1.03733 0
M  V30 1614 H 147.333 0.418138 -0.625031 0
M  V30 1615 H 149.304 0.880714 -2.85107 0
M  V30 1616 C 148.053 2.57891 -2.33212 0
M  V30 1617 H 147.376 2.41829 -3.18369 0
M  V30 1618 H 148.816 3.3097 -2.65019 0
M  V30 1619 C 147.275 3.15871 -1.17163 0
M  V30 1620 O 147.805 3.9913 -0.453708 0
M  V30 1621 N 146.011 2.74808 -0.944936 0
M  V30 1622 H 145.558 2.07205 -1.53049 0
M  V30 1623 H 145.516 3.13939 -0.170286 0
M  V30 1624 N 149.288 1.51039 0.449983 0
M  V30 1625 C 150.198 1.74261 1.57067 0
M  V30 1626 C 151.214 0.626363 1.62335 0
M  V30 1627 O 152.39 0.907162 1.79812 0
M  V30 1628 C 149.455 1.85114 2.93144 0
M  V30 1629 C 148.516 3.0893 2.98095 0
M  V30 1630 C 147.749 3.19256 4.27681 0
M  V30 1631 O 147.972 2.35835 5.19363 0
M  V30 1632 O 146.906 4.12144 4.38658 0
M  V30 1633 H 150.732 2.69303 1.40391 0
M  V30 1634 H 148.317 1.35389 0.631688 0
M  V30 1635 H 150.199 1.94311 3.73926 0
M  V30 1636 H 148.874 0.932588 3.09975 0
M  V30 1637 H 147.781 3.0522 2.16314 0
M  V30 1638 H 149.114 4.00433 2.86206 0
M  V30 1639 N 150.766 -0.704594 1.40972 0
M  V30 1640 C 151.696 -1.83124 1.44872 0
M  V30 1641 C 152.677 -1.67281 0.30838 0
M  V30 1642 O 153.862 -1.87149 0.518556 0
M  V30 1643 C 150.992 -3.21181 1.32136 0
M  V30 1644 C 149.946 -3.51714 2.43888 0
M  V30 1645 C 149.272 -4.89032 2.16222 0
M  V30 1646 C 150.572 -3.516 3.86232 0
M  V30 1647 H 152.266 -1.80117 2.39161 0
M  V30 1648 H 149.812 -0.865145 1.15114 0
M  V30 1649 H 151.765 -3.99702 1.33479 0
M  V30 1650 H 150.489 -3.24791 0.343279 0
M  V30 1651 H 149.148 -2.75539 2.41813 0
M  V30 1652 H 148.796 -4.89256 1.16778 0
M  V30 1653 H 148.496 -5.10426 2.911 0
M  V30 1654 H 150.02 -5.69873 2.19265 0
M  V30 1655 H 151.434 -4.2014 3.9007 0
M  V30 1656 H 149.831 -3.84523 4.60719 0
M  V30 1657 H 150.901 -2.50757 4.15029 0
M  V30 1658 N 152.244 -1.26651 -0.937939 0
M  V30 1659 C 153.192 -1.08308 -2.05845 0
M  V30 1660 C 154.186 -0.0090757 -1.69398 0
M  V30 1661 O 155.392 -0.166007 -1.79233 0
M  V30 1662 H 151.767 -0.333416 -0.674046 0
M  V30 1663 H 153.738 -2.03261 -2.18467 0
M  V30 1664 C 152.487 -0.736229 -3.39816 0
M  V30 1665 H 151.81 -1.55453 -3.6834 0
M  V30 1666 H 153.25 -0.64769 -4.19024 0
M  V30 1667 C 151.709 0.558824 -3.32233 0
M  V30 1668 O 152.239 1.59621 -3.68624 0
M  V30 1669 N 150.445 0.550657 -2.85335 0
M  V30 1670 H 149.992 -0.293943 -2.55917 0
M  V30 1671 H 149.95 1.41726 -2.80644 0
M  V30 1672 N 153.722 1.14298 -1.08507 0
M  V30 1673 C 154.95 1.89219 -0.836876 0
M  V30 1674 C 155.365 1.78638 0.611054 0
M  V30 1675 O 154.722 1.14643 1.41998 0
M  V30 1676 C 154.773 3.39158 -1.25116 0
M  V30 1677 O 154.494 3.49449 -2.64229 0
M  V30 1678 C 155.995 4.31073 -1.03398 0
M  V30 1679 H 153.215 0.599328 -0.301739 0
M  V30 1680 H 155.759 1.44746 -1.44461 0
M  V30 1681 H 153.914 3.81251 -0.687514 0
M  V30 1682 H 154.328 4.42589 -2.81452 0
M  V30 1683 H 155.802 5.34646 -1.37323 0
M  V30 1684 H 156.279 4.3919 0.0289259 0
M  V30 1685 H 156.885 3.94738 -1.58311 0
M  V30 1686 N 155.201 0.870884 1.31352 0
M  V30 1687 C 156.447 0.482987 1.96965 0
M  V30 1688 C 156.78 -0.962462 1.68672 0
M  V30 1689 O 156.055 -1.6779 0.98371 0
M  V30 1690 C 156.338 0.741752 3.52378 0
M  V30 1691 C 156.191 2.2368 3.9024 0
M  V30 1692 C 157.51 0.208838 4.39604 0
M  V30 1693 H 154.629 0.176955 0.715441 0
M  V30 1694 H 157.271 1.09229 1.55464 0
M  V30 1695 H 155.421 0.223149 3.87859 0
M  V30 1696 H 157.093 2.82273 3.64856 0
M  V30 1697 H 155.336 2.70901 3.38814 0
M  V30 1698 H 156.007 2.3685 4.98604 0
M  V30 1699 H 158.483 0.652529 4.10952 0
M  V30 1700 H 157.359 0.419336 5.47296 0
M  V30 1701 H 157.62 -0.889275 4.33064 0
M  V30 1702 N 156.679 -1.44442 0.630414 0
M  V30 1703 C 158.095 -1.56832 0.295973 0
M  V30 1704 C 158.295 -1.61806 -1.20088 0
M  V30 1705 O 157.351 -1.5607 -1.9849 0
M  V30 1706 C 158.664 -2.84031 0.987264 0
M  V30 1707 C 160.212 -2.97742 0.96534 0
M  V30 1708 C 160.687 -4.27743 1.63708 0
M  V30 1709 N 162.178 -4.34555 1.60364 0
M  V30 1710 C 162.913 -5.33862 2.09234 0
M  V30 1711 N 162.409 -6.39578 2.66292 0
M  V30 1712 N 164.202 -5.25366 1.99867 0
M  V30 1713 H 156.353 -1.39457 1.60205 0
M  V30 1714 H 158.616 -0.668237 0.672431 0
M  V30 1715 H 158.322 -2.86338 2.04215 0
M  V30 1716 H 158.196 -3.73534 0.524588 0
M  V30 1717 H 160.583 -2.94989 -0.0810639 0
M  V30 1718 H 160.664 -2.09589 1.4665 0
M  V30 1719 H 160.308 -4.31255 2.68293 0
M  V30 1720 H 160.238 -5.14752 1.11076 0
M  V30 1721 H 162.729 -3.58772 1.18705 0
M  V30 1722 H 163.042 -7.11637 3.01317 0
M  V30 1723 H 161.387 -6.40265 2.70343 0
M  V30 1724 H 164.578 -4.41688 1.55013 0
M  V30 1725 H 164.751 -6.02606 2.38265 0
M  V30 1726 N 158.157 -0.370918 -1.53173 0
M  V30 1727 C 159.067 0.480823 -2.2962 0
M  V30 1728 C 160.083 1.08789 -1.35798 0
M  V30 1729 O 161.259 1.09768 -1.68858 0
M  V30 1730 C 158.324 1.60227 -3.07454 0
M  V30 1731 C 157.385 1.0222 -4.16953 0
M  V30 1732 C 156.618 2.0902 -4.91066 0
M  V30 1733 O 156.841 3.30222 -4.65091 0
M  V30 1734 O 155.775 1.71778 -5.76867 0
M  V30 1735 H 159.601 -0.141421 -3.03371 0
M  V30 1736 H 157.186 -0.135146 -1.48787 0
M  V30 1737 H 159.068 2.25417 -3.56041 0
M  V30 1738 H 157.743 2.20982 -2.36535 0
M  V30 1739 H 156.65 0.334064 -3.72605 0
M  V30 1740 H 157.983 0.459131 -4.90054 0
M  V30 1741 N 159.635 1.57281 -0.100228 0
M  V30 1742 C 160.884 1.93713 0.561984 0
M  V30 1743 C 161.197 0.984492 1.69018 0
M  V30 1744 O 162.403 1.24273 2.41389 0
M  V30 1745 C 160.859 3.4421 1.05106 0
M  V30 1746 C 160.467 4.47975 -0.0476628 0
M  V30 1747 C 162.211 3.89595 1.68571 0
M  V30 1748 C 160.118 5.89631 0.457055 0
M  V30 1749 H 159.048 0.723082 0.2137 0
M  V30 1750 H 161.699 1.82644 -0.177057 0
M  V30 1751 H 160.081 3.50449 1.84395 0
M  V30 1752 H 161.255 4.53385 -0.823333 0
M  V30 1753 H 159.57 4.1223 -0.587816 0
M  V30 1754 H 162.167 4.92832 2.07414 0
M  V30 1755 H 162.51 3.28526 2.55688 0
M  V30 1756 H 163.043 3.86078 0.958562 0
M  V30 1757 H 159.782 6.54411 -0.377616 0
M  V30 1758 H 159.302 5.87681 1.19962 0
M  V30 1759 H 160.981 6.40363 0.92437 0
M  V30 1760 N 161.113 -0.173488 1.56642 0
M  V30 1761 C 162.362 -0.888758 1.81063 0
M  V30 1762 C 162.675 -1.83506 0.67712 0
M  V30 1763 O 163.881 -2.59254 0.806206 0
M  V30 1764 C 162.337 -1.63091 3.20826 0
M  V30 1765 C 161.945 -0.728357 4.4204 0
M  V30 1766 C 163.689 -2.33454 3.54541 0
M  V30 1767 C 161.596 -1.47062 5.72823 0
M  V30 1768 H 160.526 -0.335618 0.675186 0
M  V30 1769 H 163.177 -0.141712 1.82952 0
M  V30 1770 H 161.559 -2.42263 3.13248 0
M  V30 1771 H 162.733 0.0262449 4.60793 0
M  V30 1772 H 161.048 -0.134492 4.16183 0
M  V30 1773 H 163.645 -2.89578 4.49498 0
M  V30 1774 H 163.988 -3.08687 2.79317 0
M  V30 1775 H 164.521 -1.61227 3.63663 0
M  V30 1776 H 161.26 -0.760658 6.51072 0
M  V30 1777 H 160.78 -2.1986 5.58052 0
M  V30 1778 H 162.459 -2.01868 6.14702 0
M  V30 1779 N 162.591 -1.51276 -0.441967 0
M  V30 1780 C 163.839 -1.63392 -1.18943 0
M  V30 1781 C 164.16 -0.350159 -1.9183 0
M  V30 1782 O 163.43 0.633784 -1.85364 0
M  V30 1783 H 162.01 -0.602164 -0.442049 0
M  V30 1784 H 164.672 -1.88186 -0.507165 0
M  V30 1785 H 163.768 -2.45934 -1.92154 0
M  V30 1786 N 164.069 0.697108 -1.41344 0
M  V30 1787 C 165.346 1.45154 -1.31109 0
M  V30 1788 C 165.726 2.11009 0.0620449 0
M  V30 1789 O 165.074 2.01571 1.07618 0
M  V30 1790 C 165.284 2.47223 -2.46337 0
M  V30 1791 C 166.632 3.1252 -2.87431 0
M  V30 1792 O 167.656 2.57547 -2.46065 0
M  V30 1793 O 166.515 4.12083 -3.58957 0
M  V30 1794 H 163.609 0.646365 -0.515889 0
M  V30 1795 H 166.155 0.727716 -1.53305 0
M  V30 1796 H 164.927 1.97204 -3.37974 0
M  V30 1797 H 164.55 3.27116 -2.2601 0
M  V30 1798 N 165.547 1.27147 0.931209 0
M  V30 1799 C 166.457 1.11372 2.06478 0
M  V30 1800 C 167.473 0.044645 1.73943 0
M  V30 1801 O 168.649 0.250417 1.99837 0
M  V30 1802 C 165.714 0.758838 3.38294 0
M  V30 1803 C 164.775 1.90841 3.84549 0
M  V30 1804 C 164.008 1.57036 5.10074 0
M  V30 1805 O 164.231 0.476645 5.68405 0
M  V30 1806 O 163.165 2.40839 5.51616 0
M  V30 1807 H 166.991 2.06493 2.22698 0
M  V30 1808 H 164.576 1.06301 1.04978 0
M  V30 1809 H 166.458 0.574098 4.17471 0
M  V30 1810 H 165.133 -0.162879 3.2329 0
M  V30 1811 H 164.04 2.14819 3.06274 0
M  V30 1812 H 165.373 2.81021 4.04089 0
M  V30 1813 N 167.025 -1.13721 1.09112 0
M  V30 1814 C 167.955 -2.21148 0.749385 0
M  V30 1815 C 168.936 -1.6792 -0.271475 0
M  V30 1816 O 170.121 -1.93693 -0.140251 0
M  V30 1817 C 167.251 -3.46905 0.165659 0
M  V30 1818 C 166.205 -4.13203 1.11567 0
M  V30 1819 C 165.531 -5.33248 0.393809 0
M  V30 1820 C 166.831 -4.60912 2.45678 0
M  V30 1821 H 168.525 -2.4999 1.64758 0
M  V30 1822 H 166.071 -1.20156 0.793626 0
M  V30 1823 H 168.024 -4.21313 -0.085466 0
M  V30 1824 H 166.748 -3.17449 -0.767714 0
M  V30 1825 H 165.407 -3.40758 1.35202 0
M  V30 1826 H 165.055 -5.00054 -0.543599 0
M  V30 1827 H 164.755 -5.78552 1.02721 0
M  V30 1828 H 166.279 -6.10413 0.150908 0
M  V30 1829 H 167.693 -5.26759 2.26269 0
M  V30 1830 H 166.09 -5.16944 3.04776 0
M  V30 1831 H 167.16 -3.75603 3.06677 0
M  V30 1832 N 168.503 -0.877838 -1.30888 0
M  V30 1833 C 169.749 -0.493426 -1.96706 0
M  V30 1834 C 170.082 0.953504 -1.6918 0
M  V30 1835 O 169.357 1.67266 -0.992594 0
M  V30 1836 C 169.64 -0.760429 -3.51979 0
M  V30 1837 C 169.493 -2.25747 -3.89048 0
M  V30 1838 C 170.812 -0.232148 -4.39487 0
M  V30 1839 H 167.931 -0.180746 -0.714493 0
M  V30 1840 H 170.573 -1.10052 -1.54882 0
M  V30 1841 H 168.723 -0.243715 -3.87735 0
M  V30 1842 H 170.395 -2.84204 -3.63354 0
M  V30 1843 H 168.638 -2.72694 -3.37373 0
M  V30 1844 H 169.309 -2.39491 -4.97341 0
M  V30 1845 H 171.785 -0.674314 -4.106 0
M  V30 1846 H 170.661 -0.448355 -5.47066 0
M  V30 1847 H 170.922 0.866297 -4.33529 0
M  V30 1848 N 169.982 1.44106 -0.638065 0
M  V30 1849 C 170.914 2.28976 0.101205 0
M  V30 1850 C 171.927 1.4167 0.802088 0
M  V30 1851 O 173.116 1.65755 0.662375 0
M  V30 1852 C 170.216 3.18217 1.16581 0
M  V30 1853 C 169.389 4.33978 0.546066 0
M  V30 1854 C 168.448 5.04202 1.50554 0
M  V30 1855 O 167.474 5.59986 1.01999 0
M  V30 1856 N 168.676 5.06296 2.8398 0
M  V30 1857 H 171.441 2.93064 -0.627186 0
M  V30 1858 H 169.002 1.54629 -0.479731 0
M  V30 1859 H 170.994 3.62061 1.80815 0
M  V30 1860 H 169.564 2.55833 1.79634 0
M  V30 1861 H 168.784 3.93239 -0.275046 0
M  V30 1862 H 170.072 5.08675 0.112793 0
M  V30 1863 H 169.47 4.62319 3.26002 0
M  V30 1864 H 168.027 5.53907 3.43556 0
M  V30 1865 N 171.46 0.379036 1.52974 0
M  V30 1866 C 172.688 -0.20679 2.05864 0
M  V30 1867 C 173.103 -1.41356 1.25155 0
M  V30 1868 O 172.46 -1.8009 0.295588 0
M  V30 1869 C 172.511 -0.587045 3.56702 0
M  V30 1870 O 172.232 0.571776 4.34353 0
M  V30 1871 C 173.733 -1.22983 4.25899 0
M  V30 1872 H 170.953 -0.0336123 0.670158 0
M  V30 1873 H 173.497 0.541298 1.97206 0
M  V30 1874 H 171.652 -1.28504 3.65466 0
M  V30 1875 H 172.066 0.261544 5.23847 0
M  V30 1876 H 173.54 -1.44635 5.32715 0
M  V30 1877 H 174.017 -2.19416 3.80465 0
M  V30 1878 H 174.623 -0.572892 4.21424 0
M  V30 1879 N 172.938 -1.57226 0.108567 0
M  V30 1880 C 174.168 -1.9889 -0.559142 0
M  V30 1881 C 174.576 -0.986889 -1.61422 0
M  V30 1882 O 173.919 0.0298705 -1.83676 0
M  V30 1883 C 173.981 -3.36952 -1.25315 0
M  V30 1884 C 173.645 -4.55679 -0.347248 0
M  V30 1885 C 174.642 -5.18281 0.409996 0
M  V30 1886 C 172.327 -5.0162 -0.261367 0
M  V30 1887 C 174.321 -6.25203 1.24096 0
M  V30 1888 C 172.008 -6.08405 0.573238 0
M  V30 1889 C 173.006 -6.70063 1.32304 0
M  V30 1890 O 172.694 -7.74788 2.14381 0
M  V30 1891 H 172.426 -0.658343 -0.153492 0
M  V30 1892 H 174.98 -2.04532 0.188584 0
M  V30 1893 H 173.21 -3.28032 -2.04773 0
M  V30 1894 H 174.899 -3.62974 -1.81673 0
M  V30 1895 H 175.665 -4.8371 0.353457 0
M  V30 1896 H 171.544 -4.53381 -0.834656 0
M  V30 1897 H 175.088 -6.73259 1.82669 0
M  V30 1898 H 170.985 -6.42406 0.631208 0
M  V30 1899 H 171.753 -7.91837 2.07209 0
M  V30 1900 N 174.416 0.165178 -1.56732 0
M  V30 1901 C 175.662 0.882112 -1.82611 0
M  V30 1902 C 175.995 1.81628 -0.687378 0
M  V30 1903 O 175.27 1.92009 0.310267 0
M  V30 1904 C 175.553 1.67245 -3.18906 0
M  V30 1905 C 175.406 0.760987 -4.43316 0
M  V30 1906 C 176.725 2.63884 -3.52212 0
M  V30 1907 H 173.844 0.319242 -0.664269 0
M  V30 1908 H 176.486 0.148052 -1.89422 0
M  V30 1909 H 174.636 2.29824 -3.1323 0
M  V30 1910 H 176.308 0.147596 -4.61064 0
M  V30 1911 H 174.551 0.0694102 -4.33744 0
M  V30 1912 H 175.222 1.34962 -5.35247 0
M  V30 1913 H 177.698 2.11429 -3.58381 0
M  V30 1914 H 176.574 3.16245 -4.48643 0
M  V30 1915 H 176.835 3.44377 -2.77231 0
M  V30 1916 N 175.894 1.51508 0.433938 0
M  V30 1917 C 177.124 1.67914 1.20369 0
M  V30 1918 C 177.532 0.377461 1.85397 0
M  V30 1919 O 176.875 -0.654255 1.71654 0
M  V30 1920 C 176.937 2.74045 2.32679 0
M  V30 1921 C 176.601 4.16543 1.87991 0
M  V30 1922 C 177.598 5.01211 1.38145 0
M  V30 1923 C 175.283 4.6266 1.95579 0
M  V30 1924 C 177.277 6.30056 0.964774 0
M  V30 1925 C 174.964 5.91501 1.53523 0
M  V30 1926 C 175.962 6.75027 1.04055 0
M  V30 1927 O 175.65 8.01459 0.625964 0
M  V30 1928 H 175.382 0.566578 0.368735 0
M  V30 1929 H 177.936 1.98709 0.51999 0
M  V30 1930 H 176.166 2.38572 3.04336 0
M  V30 1931 H 177.855 2.79295 2.94532 0
M  V30 1932 H 178.621 4.66783 1.31675 0
M  V30 1933 H 174.5 3.97767 2.33029 0
M  V30 1934 H 178.044 6.95202 0.57796 0
M  V30 1935 H 173.941 6.25442 1.59665 0
M  V30 1936 H 174.709 8.15043 0.751509 0
M  V30 1937 N 177.372 -0.689602 1.41712 0
M  V30 1938 C 178.282 -1.83314 1.46401 0
M  V30 1939 C 179.298 -1.7036 0.35405 0
M  V30 1940 O 180.474 -1.92171 0.602692 0
M  V30 1941 C 177.539 -3.19344 1.34982 0
M  V30 1942 C 176.6 -3.44363 2.56344 0
M  V30 1943 C 175.833 -4.73904 2.45461 0
M  V30 1944 O 176.056 -5.508 1.48241 0
M  V30 1945 O 174.99 -4.99839 3.35328 0
M  V30 1946 H 178.816 -1.82314 2.42889 0
M  V30 1947 H 176.401 -0.843438 1.23315 0
M  V30 1948 H 178.283 -4.00547 1.3092 0
M  V30 1949 H 176.958 -3.21014 0.41612 0
M  V30 1950 H 175.865 -2.63067 2.65982 0
M  V30 1951 H 177.198 -3.47512 3.48563 0
M  V30 1952 N 178.85 -1.27639 -0.924453 0
M  V30 1953 C 180.098 -1.13941 -1.66918 0
M  V30 1954 C 180.419 0.314589 -1.92446 0
M  V30 1955 O 179.689 1.21964 -1.53303 0
M  V30 1956 H 178.269 -0.418678 -0.618642 0
M  V30 1957 H 180.931 -1.60213 -1.10985 0
M  V30 1958 H 180.027 -1.67094 -2.63602 0
M  V30 1959 N 180.328 1.1314 -1.09713 0
M  V30 1960 C 181.574 1.84757 -0.836224 0
M  V30 1961 C 181.907 1.8347 0.636598 0
M  V30 1962 O 181.182 1.27491 1.46889 0
M  V30 1963 C 181.465 3.32782 -1.37578 0
M  V30 1964 C 181.318 3.42567 -2.91493 0
M  V30 1965 C 182.637 4.28307 -1.01198 0
M  V30 1966 H 179.756 0.67082 -0.305236 0
M  V30 1967 H 182.398 1.3278 -1.35903 0
M  V30 1968 H 180.548 3.77177 -0.931097 0
M  V30 1969 H 182.22 3.06862 -3.44432 0
M  V30 1970 H 180.463 2.83349 -3.28475 0
M  V30 1971 H 181.134 4.46674 -3.24324 0
M  V30 1972 H 183.61 3.91999 -1.39556 0
M  V30 1973 H 182.486 5.30307 -1.41653 0
M  V30 1974 H 182.747 4.42029 0.0794833 0
M  V30 1975 N 181.806 0.884767 1.30421 0
M  V30 1976 C 182.716 0.355398 2.31892 0
M  V30 1977 C 183.732 -0.542261 1.65335 0
M  V30 1978 O 184.908 -0.435432 1.96637 0
M  V30 1979 C 181.973 -0.421661 3.44126 0
M  V30 1980 C 181.034 0.505727 4.26311 0
M  V30 1981 C 180.267 -0.234343 5.33185 0
M  V30 1982 O 180.49 -1.46045 5.51386 0
M  V30 1983 O 179.424 0.415443 6.00465 0
M  V30 1984 H 183.25 1.19685 2.79122 0
M  V30 1985 H 180.835 0.648596 1.34587 0
M  V30 1986 H 182.717 -0.861641 4.12497 0
M  V30 1987 H 181.392 -1.23942 2.99032 0
M  V30 1988 H 180.299 0.994513 3.60639 0
M  V30 1989 H 181.632 1.28948 4.75009 0
M  V30 1990 N 183.284 -1.43765 0.645699 0
M  V30 1991 C 184.247 -2.29163 -0.0409488 0
M  V30 1992 C 185.247 -1.41813 -0.757996 0
M  V30 1993 O 186.437 -1.63527 -0.600382 0
M  V30 1994 C 183.569 -3.23716 -1.06869 0
M  V30 1995 H 184.762 -2.91366 0.710345 0
M  V30 1996 H 182.315 -1.5092 0.406547 0
M  V30 1997 H 183.05 -2.66393 -1.84947 0
M  V30 1998 H 182.835 -3.88105 -0.558277 0
M  V30 1999 H 184.325 -3.87831 -1.54845 0
M  V30 2000 N 184.763 -0.387143 -1.52771 0
M  V30 2001 C 185.71 0.449048 -2.26389 0
M  V30 2002 C 186.68 1.05961 -1.27912 0
M  V30 2003 O 187.865 1.08804 -1.56737 0
M  V30 2004 C 185.005 1.57155 -3.0724 0
M  V30 2005 C 184.118 0.984066 -4.20643 0
M  V30 2006 C 183.253 2.07745 -4.88892 0
M  V30 2007 C 182.292 1.46574 -5.94292 0
M  V30 2008 N 181.429 2.49834 -6.56146 0
M  V30 2009 H 186.269 -0.185205 -2.97424 0
M  V30 2010 H 183.806 -0.103164 -1.46738 0
M  V30 2011 H 185.764 2.23309 -3.52405 0
M  V30 2012 H 184.394 2.17615 -2.38419 0
M  V30 2013 H 183.446 0.212193 -3.79808 0
M  V30 2014 H 184.758 0.497029 -4.96318 0
M  V30 2015 H 183.912 2.81673 -5.3735 0
M  V30 2016 H 182.651 2.59807 -4.12737 0
M  V30 2017 H 181.656 0.711696 -5.45174 0
M  V30 2018 H 182.881 0.953088 -6.72379 0
M  V30 2019 H 180.827 3.0107 -5.82832 0
M  V30 2020 H 180.744 2.05879 -7.27427 0
M  V30 2021 H 182.012 3.23399 -7.09249 0
M  V30 2022 N 186.241 1.57166 -0.116904 0
M  V30 2023 C 187.657 1.5779 0.239693 0
M  V30 2024 C 187.857 1.1295 1.66867 0
M  V30 2025 O 186.913 0.81592 2.38954 0
M  V30 2026 C 188.226 3.00699 0.00828202 0
M  V30 2027 C 189.774 3.12912 0.0743438 0
M  V30 2028 C 190.249 4.57817 -0.129348 0
M  V30 2029 N 191.74 4.63139 -0.075247 0
M  V30 2030 C 192.475 5.73023 -0.207788 0
M  V30 2031 N 191.971 6.91665 -0.396382 0
M  V30 2032 N 193.764 5.61906 -0.14751 0
M  V30 2033 H 185.915 1.84615 -1.05029 0
M  V30 2034 H 188.178 0.85311 -0.41341 0
M  V30 2035 H 187.884 3.37784 -0.979531 0
M  V30 2036 H 187.758 3.69848 0.741077 0
M  V30 2037 H 190.145 2.75686 1.05268 0
M  V30 2038 H 190.226 2.4631 -0.690297 0
M  V30 2039 H 189.87 4.95742 -1.10465 0
M  V30 2040 H 189.8 5.22507 0.655253 0
M  V30 2041 H 192.291 3.7784 0.0670898 0
M  V30 2042 H 192.604 7.71255 -0.488437 0
M  V30 2043 H 190.949 6.93654 -0.432329 0
M  V30 2044 H 194.14 4.681 -0.00115036 0
M  V30 2045 H 194.313 6.47501 -0.254247 0
M  V30 2046 N 187.719 -0.156864 1.56817 0
M  V30 2047 C 188.968 -0.869504 1.81996 0
M  V30 2048 C 189.281 -1.82777 0.696545 0
M  V30 2049 O 190.487 -2.58384 0.833658 0
M  V30 2050 C 188.943 -1.59679 3.22538 0
M  V30 2051 C 188.551 -0.681431 4.42787 0
M  V30 2052 C 190.295 -2.2968 3.56997 0
M  V30 2053 C 188.202 -1.40978 5.74351 0
M  V30 2054 H 187.132 -0.328438 0.678708 0
M  V30 2055 H 189.783 -0.1223 1.83092 0
M  V30 2056 H 188.165 -2.38927 3.158 0
M  V30 2057 H 189.339 0.0751166 4.60739 0
M  V30 2058 H 187.654 -0.0903431 4.16302 0
M  V30 2059 H 190.251 -2.84794 4.52544 0
M  V30 2060 H 190.594 -3.05707 2.82576 0
M  V30 2061 H 191.127 -1.57361 3.65352 0
M  V30 2062 H 187.866 -0.691561 6.51842 0
M  V30 2063 H 187.386 -2.13929 5.60352 0
M  V30 2064 H 189.065 -1.95337 6.16808 0
M  V30 2065 N 189.197 -1.51736 -0.425897 0
M  V30 2066 C 190.444 -1.6497 -1.17436 0
M  V30 2067 C 190.772 -0.371445 -1.9092 0
M  V30 2068 O 190.027 0.644963 -1.84767 0
M  V30 2069 C 190.326 -2.81103 -2.20717 0
M  V30 2070 C 189.992 -4.19954 -1.64162 0
M  V30 2071 C 188.654 -4.57725 -1.48462 0
M  V30 2072 C 191.006 -5.06552 -1.22696 0
M  V30 2073 C 188.334 -5.79789 -0.897873 0
M  V30 2074 C 190.686 -6.29205 -0.654464 0
M  V30 2075 C 189.35 -6.6574 -0.484456 0
M  V30 2076 H 188.62 -0.603668 -0.429727 0
M  V30 2077 H 191.267 -1.85798 -0.463829 0
M  V30 2078 H 189.572 -2.54542 -2.97852 0
M  V30 2079 H 191.269 -2.8854 -2.78471 0
M  V30 2080 H 187.859 -3.90181 -1.77361 0
M  V30 2081 H 192.043 -4.77968 -1.33642 0
M  V30 2082 H 187.299 -6.06733 -0.75402 0
M  V30 2083 H 191.473 -6.95643 -0.324694 0
M  V30 2084 H 189.1 -7.60195 -0.0276833 0
M  V30 2085 N 190.675 0.682077 -1.42076 0
M  V30 2086 C 191.622 1.79578 -1.44984 0
M  V30 2087 C 192.592 1.6332 -0.302614 0
M  V30 2088 O 193.777 1.83978 -0.505633 0
M  V30 2089 C 190.917 3.1756 -1.35091 0
M  V30 2090 C 190.03 3.45156 -2.59791 0
M  V30 2091 C 189.165 4.72826 -2.42093 0
M  V30 2092 C 188.204 4.93433 -3.62202 0
M  V30 2093 N 187.341 6.12338 -3.43491 0
M  V30 2094 H 192.181 1.76427 -2.40161 0
M  V30 2095 H 189.718 0.861376 -1.19242 0
M  V30 2096 H 191.676 3.97287 -1.27354 0
M  V30 2097 H 190.306 3.19854 -0.435133 0
M  V30 2098 H 189.358 2.59736 -2.77923 0
M  V30 2099 H 190.67 3.5628 -3.49094 0
M  V30 2100 H 189.824 5.60631 -2.319 0
M  V30 2101 H 188.563 4.63973 -1.50268 0
M  V30 2102 H 187.568 4.04073 -3.72834 0
M  V30 2103 H 188.793 5.04136 -4.54998 0
M  V30 2104 H 186.739 6.04672 -2.54377 0
M  V30 2105 H 186.656 6.2429 -4.26377 0
M  V30 2106 H 187.924 7.02841 -3.37097 0
M  V30 2107 N 192.153 1.28127 0.917671 0
M  V30 2108 C 193.1 1.11717 2.0196 0
M  V30 2109 C 194.07 0.0153929 1.66093 0
M  V30 2110 O 195.255 0.179596 1.89953 0
M  V30 2111 C 192.395 0.780927 3.36148 0
M  V30 2112 C 191.508 1.96135 3.84909 0
M  V30 2113 C 190.643 1.56609 5.0759 0
M  V30 2114 C 189.682 2.71339 5.48673 0
M  V30 2115 N 188.819 2.32332 6.62545 0
M  V30 2116 H 193.659 2.06003 2.15329 0
M  V30 2117 H 191.196 1.02535 1.05475 0
M  V30 2118 H 193.154 0.56675 4.13333 0
M  V30 2119 H 191.784 -0.124998 3.22558 0
M  V30 2120 H 190.836 2.28777 3.03916 0
M  V30 2121 H 192.148 2.82165 4.1132 0
M  V30 2122 H 191.302 1.31374 5.92305 0
M  V30 2123 H 190.041 0.677014 4.82978 0
M  V30 2124 H 189.046 2.97276 4.62501 0
M  V30 2125 H 190.271 3.60882 5.75274 0
M  V30 2126 H 188.217 1.45889 6.39572 0
M  V30 2127 H 188.134 3.11899 6.88662 0
M  V30 2128 H 189.402 2.10371 7.50576 0
M  V30 2129 N 193.631 -1.12557 1.10312 0
M  V30 2130 C 194.908 -1.80363 0.756878 0
M  V30 2131 C 195.288 -1.97067 -0.756824 0
M  V30 2132 O 194.636 -1.54601 -1.68259 0
M  V30 2133 C 194.846 -3.14812 1.50647 0
M  V30 2134 C 196.194 -3.90029 1.67817 0
M  V30 2135 O 197.218 -3.24464 1.46974 0
M  V30 2136 O 196.077 -5.07652 2.02365 0
M  V30 2137 H 193.171 -0.780667 0.272926 0
M  V30 2138 H 195.717 -1.19404 1.20586 0
M  V30 2139 H 194.489 -2.97936 2.53672 0
M  V30 2140 H 194.112 -3.83478 1.05026 0
M  V30 2141 O 195.148 -1.02442 -1.24852 0
M  V30 2142 H 195.839 -0.688008 -1.81069 0
M  V30 END ATOM
M  V30 BEGIN BOND
M  V30 END BOND
M  V30 END CTAB
M  END
$$$$
