drugbank_target|P12319 High affinity immunoglobulin epsilon receptor subunit alpha (DB00043; DB00895; DB05797)
 OpenBabel12092119223D

  0  0  0     0  0            999 V3000
M  V30 BEGIN CTAB
M  V30 COUNTS 4150 4212 0 0 0
M  V30 BEGIN ATOM
M  V30 1 H -0.908 1.98254 -0.117106 0
M  V30 2 N 0 1.576 0 0
M  V30 3 C 0.933 2.03868 1.02534 0
M  V30 4 C 1.911 0.928543 1.3348 0
M  V30 5 O 3.095 1.19667 1.45644 0
M  V30 6 C 0.222 2.43627 2.35294 0
M  V30 7 C -0.732 3.65373 2.2001 0
M  V30 8 S 0.101 5.13292 1.52614 0
M  V30 9 C 1.257 5.56322 2.86805 0
M  V30 10 H 1.49 2.90518 0.631377 0
M  V30 11 H -0.977 1.52953 0.210867 0
M  V30 12 H 0.981 2.67203 3.11629 0
M  V30 13 H -0.358 1.57376 2.7183 0
M  V30 14 H -1.165 3.90944 3.18086 0
M  V30 15 H -1.563 3.418 1.51819 0
M  V30 16 H 0.729 5.58782 3.83104 0
M  V30 17 H 1.672 6.56266 2.65933 0
M  V30 18 H 2.08 4.83886 2.90714 0
M  V30 19 N 1.4781 -0.272755 1.55222 0
M  V30 20 C 2.4411 -1.32041 1.87344 0
M  V30 21 C 3.4411 -1.42342 0.74803 0
M  V30 22 O 4.6311 -1.41488 1.0162 0
M  V30 23 C 1.7631 -2.70173 2.07893 0
M  V30 24 H 2.9561 -1.04789 2.80997 0
M  V30 25 H 0.5091 -0.51083 1.47717 0
M  V30 26 H 1.2441 -3.02605 1.16622 0
M  V30 27 H 1.0291 -2.64082 2.89833 0
M  V30 28 H 2.5191 -3.45869 2.34017 0
M  V30 29 N 2.9562 -1.48159 -0.537278 0
M  V30 30 C 4.3672 -1.49429 -1.11928 0
M  V30 31 C 4.7182 -0.26 -1.9447 0
M  V30 32 O 3.8432 0.633489 -2.0692 0
M  V30 33 C 4.4382 -2.70758 -2.03656 0
M  V30 34 C 2.9972 -2.74923 -2.57088 0
M  V30 35 C 2.1442 -2.42835 -1.3389 0
M  V30 36 H 5.0952 -1.55381 -0.322886 0
M  V30 37 H 5.1162 -2.48861 -2.87834 0
M  V30 38 H 4.6282 -3.60575 -1.43553 0
M  V30 39 H 2.7292 -1.89296 -3.20933 0
M  V30 40 H 2.8422 -3.76157 -2.9672 0
M  V30 41 H 1.2062 -1.93836 -1.65226 0
M  V30 42 H 1.9892 -3.34884 -0.755504 0
M  V30 43 N 4.4343 0.785586 -1.36625 0
M  V30 44 C 5.3973 1.87999 -1.31107 0
M  V30 45 C 6.3973 1.59316 -0.217959 0
M  V30 46 O 7.5873 1.67656 -0.472977 0
M  V30 47 C 4.7193 3.24861 -1.03334 0
M  V30 48 H 5.9123 1.94307 -2.2844 0
M  V30 49 H 3.4653 0.983813 -1.21453 0
M  V30 50 H 4.2003 3.24235 -0.0647432 0
M  V30 51 H 3.9853 3.4707 -1.82441 0
M  V30 52 H 5.4753 4.04929 -1.02088 0
M  V30 53 N 5.9124 1.20967 1.01018 0
M  V30 54 C 6.8454 0.907578 2.09376 0
M  V30 55 C 7.8234 -0.142868 1.61971 0
M  V30 56 O 9.0074 -0.0150391 1.88494 0
M  V30 57 C 6.1344 0.361791 3.36762 0
M  V30 58 C 5.1804 1.39423 4.03068 0
M  V30 59 S 6.0134 2.96159 4.4615 0
M  V30 60 C 7.1694 2.43173 5.7673 0
M  V30 61 H 7.4024 1.82519 2.34678 0
M  V30 62 H 4.9354 1.03884 1.14225 0
M  V30 63 H 6.8934 0.0534523 4.10465 0
M  V30 64 H 5.5544 -0.53443 3.0952 0
M  V30 65 H 4.7474 0.961853 4.94737 0
M  V30 66 H 4.3494 1.65038 3.35617 0
M  V30 67 H 6.6414 1.83335 6.52223 0
M  V30 68 H 7.5844 3.33264 6.24773 0
M  V30 69 H 7.9924 1.85069 5.33301 0
M  V30 70 N 7.3905 -1.2043 1.01659 0
M  V30 71 C 8.3005 -2.2689 0.596484 0
M  V30 72 C 9.3165 -1.70107 -0.36599 0
M  V30 73 O 10.4925 -2.00117 -0.226942 0
M  V30 74 C 7.5575 -3.4665 -0.0586659 0
M  V30 75 C 6.6185 -4.18662 0.949751 0
M  V30 76 C 5.8515 -5.32705 0.32577 0
M  V30 77 O 6.0745 -5.63656 -0.874509 0
M  V30 78 O 5.0085 -5.92803 1.04249 0
M  V30 79 H 8.8345 -2.65041 1.4828 0
M  V30 80 H 6.4195 -1.27048 0.786082 0
M  V30 81 H 8.3015 -4.19256 -0.424564 0
M  V30 82 H 6.9765 -3.10375 -0.91918 0
M  V30 83 H 5.8835 -3.48229 1.36702 0
M  V30 84 H 7.2165 -4.58878 1.78023 0
M  V30 85 N 8.8686 -0.792821 -1.36206 0
M  V30 86 C 10.0936 -0.377701 -2.03932 0
M  V30 87 C 10.5186 0.998947 -1.59382 0
M  V30 88 O 9.8766 1.64421 -0.763903 0
M  V30 89 C 9.9246 -0.453635 -3.57735 0
M  V30 90 O 9.0286 0.538151 -4.08874 0
M  V30 91 H 8.3696 -0.159855 -0.644471 0
M  V30 92 H 10.8996 -1.07488 -1.7409 0
M  V30 93 H 10.9096 -0.318464 -4.06755 0
M  V30 94 H 9.5846 -1.45784 -3.89512 0
M  V30 95 H 8.1616 0.364359 -3.71116 0
M  V30 96 N 10.3467 1.47872 -0.545128 0
M  V30 97 C 11.7577 1.86384 -0.108581 0
M  V30 98 C 12.1087 1.45309 1.31832 0
M  V30 99 O 11.2337 0.850641 1.9898 0
M  V30 100 C 11.8287 3.38265 -0.190274 0
M  V30 101 C 10.3877 3.75914 0.191164 0
M  V30 102 C 9.5347 2.71926 -0.543273 0
M  V30 103 H 12.4857 1.39561 -0.755537 0
M  V30 104 H 12.5067 3.75831 0.594217 0
M  V30 105 H 12.0187 3.6813 -1.2289 0
M  V30 106 H 10.1197 3.51665 1.23136 0
M  V30 107 H 10.2327 4.78836 -0.158987 0
M  V30 108 H 8.5967 2.54697 0.0122495 0
M  V30 109 H 9.3797 3.04634 -1.58282 0
M  V30 110 N 11.8248 0.280983 1.55075 0
M  V30 111 C 13.0528 -0.337293 2.04132 0
M  V30 112 C 13.4678 -1.4903 1.15912 0
M  V30 113 O 12.8248 -1.81606 0.180459 0
M  V30 114 C 12.8758 -0.812706 3.52246 0
M  V30 115 O 12.5968 0.294387 4.3711 0
M  V30 116 C 14.0978 -1.4982 4.17216 0
M  V30 117 H 11.3178 -0.0761638 0.666663 0
M  V30 118 H 13.8618 0.414787 2.00249 0
M  V30 119 H 12.0168 -1.51486 3.56554 0
M  V30 120 H 12.4308 -0.0721325 5.2445 0
M  V30 121 H 13.9048 -1.7822 5.22438 0
M  V30 122 H 14.3818 -2.43168 3.65741 0
M  V30 123 H 14.9878 -0.839742 4.16927 0
M  V30 124 N 13.3029 -1.57598 0.00835791 0
M  V30 125 C 14.2329 -2.1198 -0.979113 0
M  V30 126 C 15.2139 -1.03091 -1.35301 0
M  V30 127 O 16.3989 -1.30818 -1.43528 0
M  V30 128 C 13.5289 -2.62995 -2.26828 0
M  V30 129 C 12.4829 -3.76485 -2.03576 0
M  V30 130 C 11.8089 -4.13846 -3.38579 0
M  V30 131 C 13.1089 -5.0342 -1.39161 0
M  V30 132 H 14.8029 -2.94738 -0.526281 0
M  V30 133 H 12.3489 -1.41783 -0.251704 0
M  V30 134 H 14.3019 -2.99669 -2.96271 0
M  V30 135 H 13.0259 -1.7737 -2.7424 0
M  V30 136 H 11.6849 -3.40217 -1.36557 0
M  V30 137 H 11.3329 -3.25232 -3.83709 0
M  V30 138 H 11.0329 -4.90312 -3.23834 0
M  V30 139 H 12.5569 -4.53086 -4.09323 0
M  V30 140 H 13.9709 -5.37812 -1.98573 0
M  V30 141 H 12.3679 -5.84746 -1.34878 0
M  V30 142 H 13.4379 -4.83548 -0.361868 0
M  V30 143 N 14.781 0.264519 -1.55364 0
M  V30 144 C 15.711 1.33121 -1.91836 0
M  V30 145 C 16.692 1.51101 -0.781192 0
M  V30 146 O 17.877 1.64003 -1.04003 0
M  V30 147 C 15.007 2.68921 -2.19769 0
M  V30 148 C 13.961 2.65661 -3.35571 0
M  V30 149 C 13.287 4.05093 -3.49004 0
M  V30 150 C 14.587 2.24187 -4.71739 0
M  V30 151 H 16.281 1.02844 -2.81182 0
M  V30 152 H 13.827 0.493286 -1.35287 0
M  V30 153 H 15.78 3.43663 -2.43872 0
M  V30 154 H 14.504 3.00799 -1.27231 0
M  V30 155 H 13.163 1.93377 -3.1145 0
M  V30 156 H 12.811 4.34206 -2.53917 0
M  V30 157 H 12.511 4.03804 -4.26868 0
M  V30 158 H 14.035 4.81561 -3.75408 0
M  V30 159 H 15.449 2.88654 -4.9533 0
M  V30 160 H 13.846 2.34044 -5.52579 0
M  V30 161 H 14.916 1.19327 -4.69988 0
M  V30 162 N 16.2591 1.48442 0.529413 0
M  V30 163 C 17.4991 1.58086 1.29569 0
M  V30 164 C 17.8631 0.249302 1.90375 0
M  V30 165 O 19.0641 0.220738 2.67892 0
M  V30 166 C 17.3351 2.68793 2.35552 0
M  V30 167 S 18.8941 2.98207 3.21898 0
M  V30 168 H 15.7121 0.557922 0.440732 0
M  V30 169 H 18.3141 1.85966 0.603059 0
M  V30 170 H 17.0181 3.64102 1.89363 0
M  V30 171 H 16.5491 2.42817 3.09522 0
M  V30 172 H 18.5641 2.37548 4.35644 0
M  V30 173 N 17.7372 -0.778329 1.37039 0
M  V30 174 C 18.9832 -1.53892 1.32079 0
M  V30 175 C 19.3162 -1.9396 -0.0965386 0
M  V30 176 O 18.5912 -1.63568 -1.05242 0
M  V30 177 C 18.8742 -2.80847 2.25382 0
M  V30 178 C 18.7272 -2.47076 3.75864 0
M  V30 179 C 20.0462 -3.82741 2.1725 0
M  V30 180 H 17.1652 -0.558303 0.48111 0
M  V30 181 H 19.8072 -0.893397 1.67685 0
M  V30 182 H 17.9572 -3.35931 1.95148 0
M  V30 183 H 19.6292 -1.97957 4.16666 0
M  V30 184 H 17.8722 -1.79863 3.94755 0
M  V30 185 H 18.5432 -3.37798 4.36574 0
M  V30 186 H 21.0192 -3.37133 2.43887 0
M  V30 187 H 19.8952 -4.69303 2.84686 0
M  V30 188 H 20.1562 -4.2652 1.16331 0
M  V30 189 N 19.2153 -1.21501 -1.00376 0
M  V30 190 C 20.1783 -0.976927 -2.07337 0
M  V30 191 C 21.1783 0.0525322 -1.60714 0
M  V30 192 O 22.3683 -0.184869 -1.73216 0
M  V30 193 C 19.5003 -0.473423 -3.37597 0
M  V30 194 H 20.6933 -1.92587 -2.29892 0
M  V30 195 H 18.2463 -1.03217 -1.17371 0
M  V30 196 H 18.9813 0.480379 -3.20722 0
M  V30 197 H 18.7663 -1.216 -3.72768 0
M  V30 198 H 20.2563 -0.32675 -4.1632 0
M  V30 199 N 20.6934 1.19889 -1.02296 0
M  V30 200 C 21.6234 2.25141 -0.619174 0
M  V30 201 C 22.6044 1.66051 0.368915 0
M  V30 202 O 23.7894 1.92546 0.252941 0
M  V30 203 C 20.9194 3.4728 0.0368783 0
M  V30 204 C 19.8734 4.19005 -0.872865 0
M  V30 205 C 19.1994 5.34637 -0.0822402 0
M  V30 206 C 20.4994 4.74452 -2.18387 0
M  V30 207 H 22.1934 2.59171 -1.49903 0
M  V30 208 H 19.7394 1.24579 -0.722222 0
M  V30 209 H 21.6924 4.20098 0.330958 0
M  V30 210 H 20.4164 3.12433 0.95149 0
M  V30 211 H 19.0754 3.48061 -1.15105 0
M  V30 212 H 18.7234 4.96034 0.83422 0
M  V30 213 H 18.4234 5.83557 -0.688149 0
M  V30 214 H 19.9474 6.10255 0.205238 0
M  V30 215 H 21.3614 5.39055 -1.95172 0
M  V30 216 H 19.7584 5.33834 -2.74119 0
M  V30 217 H 20.8284 3.92844 -2.84257 0
M  V30 218 N 22.1715 0.800033 1.35784 0
M  V30 219 C 23.1015 0.220184 2.3246 0
M  V30 220 C 24.0825 -0.65073 1.57161 0
M  V30 221 O 25.2675 -0.582359 1.85263 0
M  V30 222 C 22.3975 -0.637353 3.41402 0
M  V30 223 C 21.3515 0.134531 4.27789 0
M  V30 224 C 20.6775 -0.844285 5.27992 0
M  V30 225 C 21.9775 1.32979 5.05088 0
M  V30 226 H 23.6715 1.02787 2.81203 0
M  V30 227 H 21.2175 0.495717 1.35199 0
M  V30 228 H 23.1705 -1.05302 4.08031 0
M  V30 229 H 21.8945 -1.47785 2.91251 0
M  V30 230 H 20.5535 0.531296 3.6273 0
M  V30 231 H 20.2015 -1.68011 4.74111 0
M  V30 232 H 19.9015 -0.332184 5.8666 0
M  V30 233 H 21.4255 -1.2583 5.97494 0
M  V30 234 H 22.8395 0.98934 5.64699 0
M  V30 235 H 21.2365 1.77593 5.7322 0
M  V30 236 H 22.3065 2.11978 4.36111 0
M  V30 237 N 23.6496 -1.47581 0.552962 0
M  V30 238 C 24.8966 -2.02482 0.0273243 0
M  V30 239 C 25.2246 -1.42776 -1.32081 0
M  V30 240 O 24.4796 -0.571393 -1.87173 0
M  V30 241 C 24.7786 -3.57199 -0.119728 0
M  V30 242 C 24.4446 -4.35804 1.15697 0
M  V30 243 C 23.1066 -4.57 1.50681 0
M  V30 244 C 25.4586 -4.81167 2.00319 0
M  V30 245 C 22.7866 -5.20807 2.70142 0
M  V30 246 C 25.1386 -5.46293 3.18978 0
M  V30 247 C 23.8026 -5.65722 3.54281 0
M  V30 248 H 23.0726 -0.740933 0.00999866 0
M  V30 249 H 25.7196 -1.77302 0.72362 0
M  V30 250 H 24.0246 -3.81348 -0.89896 0
M  V30 251 H 25.7216 -3.97324 -0.541718 0
M  V30 252 H 22.3116 -4.19582 0.874561 0
M  V30 253 H 26.4956 -4.64574 1.74599 0
M  V30 254 H 21.7516 -5.34045 2.97668 0
M  V30 255 H 25.9256 -5.80407 3.84838 0
M  V30 256 H 23.5526 -6.14936 4.46942 0
M  V30 257 N 25.1277 -0.289203 -1.54924 0
M  V30 258 C 26.3747 0.323519 -1.99899 0
M  V30 259 C 26.7027 1.54797 -1.17762 0
M  V30 260 O 25.9577 1.94237 -0.238835 0
M  V30 261 C 26.2567 0.736119 -3.49737 0
M  V30 262 C 25.9227 -0.385276 -4.49251 0
M  V30 263 C 24.5847 -0.693156 -4.76181 0
M  V30 264 C 26.9367 -1.14021 -5.08575 0
M  V30 265 C 24.2647 -1.7593 -5.59701 0
M  V30 266 C 26.6167 -2.19619 -5.93254 0
M  V30 267 C 25.2807 -2.51026 -6.185 0
M  V30 268 H 24.5507 0.118384 -0.731482 0
M  V30 269 H 27.1977 -0.405847 -1.8715 0
M  V30 270 H 25.5027 1.54539 -3.60035 0
M  V30 271 H 27.1997 1.22118 -3.81953 0
M  V30 272 H 23.7897 -0.135202 -4.28387 0
M  V30 273 H 27.9737 -0.915611 -4.87781 0
M  V30 274 H 23.2297 -2.0075 -5.77503 0
M  V30 275 H 27.4037 -2.78581 -6.38252 0
M  V30 276 H 25.0307 -3.33772 -6.83008 0
M  V30 277 N 26.6058 1.57591 -0.0167156 0
M  V30 278 C 27.5688 2.08393 0.954204 0
M  V30 279 C 28.5688 0.996531 1.26198 0
M  V30 280 O 29.7588 1.25858 1.20438 0
M  V30 281 C 26.8908 2.5394 2.27436 0
M  V30 282 H 28.0838 2.95455 0.514451 0
M  V30 283 H 25.6368 1.54582 0.231089 0
M  V30 284 H 26.3718 1.70171 2.76066 0
M  V30 285 H 26.1568 3.33371 2.06412 0
M  V30 286 H 27.6468 2.93512 2.97053 0
M  V30 287 N 28.0839 -0.256276 1.55502 0
M  V30 288 C 29.4949 -0.826068 1.67431 0
M  V30 289 C 29.8459 -1.86396 0.612446 0
M  V30 290 O 28.9709 -2.15031 -0.243025 0
M  V30 291 C 29.5659 -1.50512 3.03532 0
M  V30 292 C 28.1249 -2.02273 3.17431 0
M  V30 293 C 27.2719 -0.870548 2.63281 0
M  V30 294 H 30.2229 -0.0322728 1.58667 0
M  V30 295 H 30.2439 -2.37279 2.97454 0
M  V30 296 H 29.7559 -0.749484 3.80794 0
M  V30 297 H 27.8569 -2.80746 2.44974 0
M  V30 298 H 27.9699 -2.22655 4.24219 0
M  V30 299 H 26.3339 -1.26851 2.20864 0
M  V30 300 H 27.1169 -0.128149 3.43061 0
M  V30 301 N 29.562 -1.4872 -0.521534 0
M  V30 302 C 30.839 -1.4766 -1.2828 0
M  V30 303 C 31.219 -0.19292 -2.10217 0
M  V30 304 O 30.567 0.825193 -2.13079 0
M  V30 305 C 30.777 -2.74358 -2.15705 0
M  V30 306 C 32.125 -3.23028 -2.75569 0
M  V30 307 O 33.149 -2.75333 -2.25987 0
M  V30 308 O 32.008 -4.0604 -3.65778 0
M  V30 309 H 29.102 -0.590085 -0.579421 0
M  V30 310 H 31.648 -1.60963 -0.537492 0
M  V30 311 H 30.42 -3.59292 -1.54999 0
M  V30 312 H 30.043 -2.63816 -2.97467 0
M  V30 313 N 31.0401 0.771051 -1.3745 0
M  V30 314 C 32.2881 1.52661 -1.32435 0
M  V30 315 C 32.6091 1.9479 0.0905024 0
M  V30 316 O 31.8791 1.66348 1.03466 0
M  V30 317 H 30.4591 0.566218 -0.487244 0
M  V30 318 H 33.1211 0.917636 -1.71946 0
M  V30 319 H 32.2171 2.42568 -1.96385 0
M  V30 320 N 32.5182 1.22032 0.997298 0
M  V30 321 C 33.7642 1.04376 1.73878 0
M  V30 322 C 34.0972 -0.420716 1.89588 0
M  V30 323 O 33.3722 -1.31202 1.43583 0
M  V30 324 C 33.6552 1.75047 3.14691 0
M  V30 325 C 33.5082 3.29062 3.06656 0
M  V30 326 C 34.8272 1.49928 4.13775 0
M  V30 327 H 31.9462 0.380578 0.631133 0
M  V30 328 H 34.5882 1.50312 1.16217 0
M  V30 329 H 32.7382 1.35996 3.63919 0
M  V30 330 H 34.4102 3.7753 2.65083 0
M  V30 331 H 32.6532 3.58967 2.43568 0
M  V30 332 H 33.3242 3.73683 4.06282 0
M  V30 333 H 35.8002 1.83842 3.73285 0
M  V30 334 H 34.6762 2.01878 5.10428 0
M  V30 335 H 34.9372 0.430929 4.39995 0
M  V30 336 N 33.9963 -1.19345 1.0293 0
M  V30 337 C 34.9263 -2.2481 0.631105 0
M  V30 338 C 35.9073 -1.66245 -0.360104 0
M  V30 339 O 37.0923 -1.92677 -0.242726 0
M  V30 340 C 34.2223 -3.47295 -0.0184607 0
M  V30 341 C 33.1763 -4.18536 0.895073 0
M  V30 342 C 32.5023 -5.34586 0.110592 0
M  V30 343 C 33.8023 -4.73287 2.209 0
M  V30 344 H 35.4963 -2.58372 1.51275 0
M  V30 345 H 33.0423 -1.24194 0.728818 0
M  V30 346 H 34.9953 -4.20268 -0.308675 0
M  V30 347 H 33.7193 -3.12933 -0.934907 0
M  V30 348 H 32.3783 -3.47446 1.16949 0
M  V30 349 H 32.0263 -4.96469 -0.807902 0
M  V30 350 H 31.7263 -5.83183 0.719087 0
M  V30 351 H 33.2503 -6.10355 -0.172871 0
M  V30 352 H 34.6643 -5.38013 1.98028 0
M  V30 353 H 33.0613 -5.32373 2.76946 0
M  V30 354 H 34.1313 -3.91331 2.86336 0
M  V30 355 N 35.4744 -0.807222 -1.35358 0
M  V30 356 C 36.4374 -0.223665 -2.28106 0
M  V30 357 C 37.4374 0.589354 -1.4961 0
M  V30 358 O 38.6274 0.407745 -1.69361 0
M  V30 359 C 35.7594 0.688149 -3.33882 0
M  V30 360 H 36.9524 -1.04169 -2.81227 0
M  V30 361 H 34.5054 -0.577921 -1.45223 0
M  V30 362 H 35.2404 1.52984 -2.85948 0
M  V30 363 H 35.0254 0.10687 -3.91954 0
M  V30 364 H 36.5154 1.09075 -4.03104 0
M  V30 365 N 36.9525 1.47285 -0.560781 0
M  V30 366 C 38.1985 2.02764 -0.0381184 0
M  V30 367 C 38.5315 1.43384 1.30976 0
M  V30 368 O 37.8065 0.590733 1.85312 0
M  V30 369 C 38.0895 3.60064 0.0511427 0
M  V30 370 C 37.9425 4.2987 -1.32408 0
M  V30 371 C 39.2615 4.33439 0.762795 0
M  V30 372 H 36.3805 0.736841 -0.0153264 0
M  V30 373 H 39.0225 1.75675 -0.723759 0
M  V30 374 H 37.1725 3.83274 0.635065 0
M  V30 375 H 38.8445 4.17989 -1.95148 0
M  V30 376 H 37.0875 3.90085 -1.8978 0
M  V30 377 H 37.7585 5.38478 -1.21431 0
M  V30 378 H 40.2345 4.15243 0.266965 0
M  V30 379 H 39.1105 5.43124 0.794221 0
M  V30 380 H 39.3715 4.02915 1.81966 0
M  V30 381 N 38.4306 0.297415 1.54768 0
M  V30 382 C 39.8416 -0.195947 1.85669 0
M  V30 383 C 40.1926 -1.53707 1.21937 0
M  V30 384 O 39.3176 -2.10164 0.515754 0
M  V30 385 C 39.9126 -0.362318 3.36857 0
M  V30 386 C 38.4716 -0.799901 3.67802 0
M  V30 387 C 37.6186 0.0938578 2.77141 0
M  V30 388 H 40.5696 0.518538 1.4999 0
M  V30 389 H 40.5906 -1.19745 3.61167 0
M  V30 390 H 40.1026 0.613921 3.83214 0
M  V30 391 H 38.2036 -1.78682 3.26961 0
M  V30 392 H 38.3166 -0.621773 4.75048 0
M  V30 393 H 36.6806 -0.426254 2.51108 0
M  V30 394 H 37.4636 1.06639 3.26318 0
M  V30 395 N 39.9087 -1.5758 0.0250728 0
M  V30 396 C 40.8407 -2.06869 -0.986796 0
M  V30 397 C 41.8537 -0.991332 -1.29137 0
M  V30 398 O 43.0427 -1.26761 -1.25674 0
M  V30 399 C 40.1427 -2.47486 -2.31525 0
M  V30 400 C 39.3157 -3.78253 -2.19643 0
M  V30 401 C 38.3747 -4.05464 -3.35388 0
M  V30 402 O 37.4007 -4.75774 -3.12454 0
M  V30 403 N 38.6027 -3.55321 -4.59051 0
M  V30 404 H 41.3677 -2.94302 -0.566276 0
M  V30 405 H 38.9287 -1.6109 -0.161776 0
M  V30 406 H 40.9207 -2.62785 -3.07776 0
M  V30 407 H 39.4907 -1.65441 -2.65232 0
M  V30 408 H 38.7107 -3.7279 -1.28144 0
M  V30 409 H 39.9987 -4.63936 -2.08903 0
M  V30 410 H 39.3967 -2.98431 -4.80578 0
M  V30 411 H 37.9537 -3.75905 -5.32483 0
M  V30 412 N 41.3868 0.248026 -1.55636 0
M  V30 413 C 42.3338 1.30707 -1.90222 0
M  V30 414 C 43.3038 1.47881 -0.756332 0
M  V30 415 O 44.4888 1.61883 -1.00988 0
M  V30 416 C 41.6288 2.65769 -2.20138 0
M  V30 417 C 40.7418 2.56612 -3.47526 0
M  V30 418 C 39.8768 3.8402 -3.67017 0
M  V30 419 C 38.9158 3.69476 -4.8801 0
M  V30 420 N 38.0528 4.88774 -5.04029 0
M  V30 421 H 42.8928 1.00512 -2.80538 0
M  V30 422 H 40.4298 0.485055 -1.38873 0
M  V30 423 H 42.3878 3.44386 -2.35487 0
M  V30 424 H 41.0178 2.94115 -1.33027 0
M  V30 425 H 40.0698 1.69571 -3.40514 0
M  V30 426 H 41.3818 2.41774 -4.36287 0
M  V30 427 H 40.5358 4.7108 -3.8232 0
M  V30 428 H 39.2748 4.01754 -2.76487 0
M  V30 429 H 38.2798 2.80799 -4.72686 0
M  V30 430 H 39.5048 3.53238 -5.8 0
M  V30 431 H 37.4508 5.0687 -4.16435 0
M  V30 432 H 37.3678 4.76562 -5.86877 0
M  V30 433 H 38.6358 5.77335 -5.23741 0
M  V30 434 N 42.8649 1.48995 0.513639 0
M  V30 435 C 44.2759 1.5119 1.09537 0
M  V30 436 C 44.6269 0.290906 1.94031 0
M  V30 437 O 43.7519 -0.60049 2.07902 0
M  V30 438 C 44.3469 2.73964 1.99322 0
M  V30 439 C 42.9059 2.78978 2.52682 0
M  V30 440 C 42.0529 2.44934 1.30009 0
M  V30 441 H 45.0039 1.55875 0.298125 0
M  V30 442 H 45.0249 2.53409 2.83838 0
M  V30 443 H 44.5369 3.62813 1.37799 0
M  V30 444 H 42.6379 1.94378 3.1788 0
M  V30 445 H 42.7509 3.8083 2.90698 0
M  V30 446 H 41.1149 1.9644 1.62122 0
M  V30 447 H 41.8979 3.36043 0.702131 0
M  V30 448 N 44.343 -0.763751 1.37857 0
M  V30 449 C 45.29 -1.87726 1.34267 0
M  V30 450 C 46.26 -1.64807 0.206879 0
M  V30 451 O 47.445 -1.86613 0.397508 0
M  V30 452 C 44.585 -3.24896 1.16346 0
M  V30 453 C 43.698 -3.59716 2.39225 0
M  V30 454 C 42.833 -4.86137 2.14114 0
M  V30 455 C 41.872 -5.13711 3.32817 0
M  V30 456 N 41.009 -6.31323 3.07206 0
M  V30 457 H 45.849 -1.90129 2.29466 0
M  V30 458 H 43.386 -0.929433 1.14017 0
M  V30 459 H 45.344 -4.04036 1.03975 0
M  V30 460 H 43.974 -3.21847 0.247909 0
M  V30 461 H 43.026 -2.75498 2.62307 0
M  V30 462 H 44.338 -3.76027 3.27728 0
M  V30 463 H 43.492 -5.73198 1.9882 0
M  V30 464 H 42.231 -4.71945 1.22961 0
M  V30 465 H 41.236 -4.25123 3.48641 0
M  V30 466 H 42.461 -5.29807 4.24832 0
M  V30 467 H 40.407 -6.18474 2.1869 0
M  V30 468 H 40.324 -6.48087 3.89254 0
M  V30 469 H 41.592 -7.213 2.95546 0
M  V30 470 N 45.8211 -1.22559 -0.990812 0
M  V30 471 C 47.0671 -1.05297 -1.73322 0
M  V30 472 C 47.4001 0.410655 -1.89808 0
M  V30 473 O 46.6751 1.30439 -1.44277 0
M  V30 474 C 46.9581 -1.76713 -3.13759 0
M  V30 475 C 46.8111 -3.30684 -3.04907 0
M  V30 476 C 48.1301 -1.52121 -4.12974 0
M  V30 477 H 45.2491 -0.38392 -0.629106 0
M  V30 478 H 47.8911 -1.50926 -1.15418 0
M  V30 479 H 46.0411 -1.37924 -3.63193 0
M  V30 480 H 47.7131 -3.7893 -2.63077 0
M  V30 481 H 45.9561 -3.60253 -2.41661 0
M  V30 482 H 46.6271 -3.75833 -4.04294 0
M  V30 483 H 49.1031 -1.85819 -3.72304 0
M  V30 484 H 47.9791 -2.04582 -5.0935 0
M  V30 485 H 48.2401 -0.454257 -4.3976 0
M  V30 486 N 47.2992 1.18797 -1.03562 0
M  V30 487 C 48.5242 1.9314 -0.755764 0
M  V30 488 C 48.9492 1.7537 0.68022 0
M  V30 489 O 48.3072 1.06046 1.47051 0
M  V30 490 C 48.3552 3.42747 -1.12058 0
M  V30 491 O 47.4592 4.11683 -0.243124 0
M  V30 492 H 46.8002 0.602724 -0.278604 0
M  V30 493 H 49.3302 1.50678 -1.3841 0
M  V30 494 H 49.3402 3.93437 -1.08035 0
M  V30 495 H 48.0152 3.55002 -2.16672 0
M  V30 496 H 46.5922 3.71323 -0.342539 0
M  V30 497 N 48.7773 0.814389 1.34928 0
M  V30 498 C 49.7073 0.244827 2.32213 0
M  V30 499 C 50.6883 -0.634024 1.57842 0
M  V30 500 O 51.8733 -0.562676 1.8587 0
M  V30 501 C 49.0033 -0.601106 3.42058 0
M  V30 502 C 47.9573 0.179896 4.27622 0
M  V30 503 C 47.2833 -0.788237 5.28858 0
M  V30 504 C 48.5833 1.38329 5.03649 0
M  V30 505 H 50.2773 1.05763 2.80097 0
M  V30 506 H 47.8233 0.510029 1.34665 0
M  V30 507 H 49.7763 -1.00968 4.09125 0
M  V30 508 H 48.5003 -1.44688 2.92802 0
M  V30 509 H 47.1593 0.569739 3.62146 0
M  V30 510 H 46.8073 -1.62973 4.75866 0
M  V30 511 H 46.5073 -0.269942 5.8698 0
M  V30 512 H 48.0313 -1.19485 5.98795 0
M  V30 513 H 49.4453 1.04918 5.63618 0
M  V30 514 H 47.8423 1.83662 5.71304 0
M  V30 515 H 48.9123 2.16592 4.33839 0
M  V30 516 N 50.2554 -1.46986 0.568584 0
M  V30 517 C 51.2034 -2.31858 -0.185649 0
M  V30 518 C 52.1974 -1.43624 -0.898249 0
M  V30 519 O 53.4034 -1.60327 -0.818242 0
M  V30 520 H 49.7784 -0.747866 -0.0787399 0
M  V30 521 H 51.7494 -2.93303 0.549191 0
M  V30 522 C 50.4984 -3.26513 -1.19519 0
M  V30 523 H 49.8214 -3.94377 -0.656285 0
M  V30 524 H 51.2614 -3.88707 -1.6936 0
M  V30 525 C 49.7204 -2.50847 -2.24894 0
M  V30 526 O 50.2504 -2.26119 -3.32014 0
M  V30 527 N 48.4564 -2.11656 -1.99124 0
M  V30 528 H 48.0034 -2.31966 -1.12024 0
M  V30 529 H 47.9614 -1.61347 -2.69842 0
M  V30 530 N 51.7335 -0.305618 -1.54608 0
M  V30 531 C 53.1445 0.186098 -1.8577 0
M  V30 532 C 53.4955 1.53058 -1.22751 0
M  V30 533 O 52.6205 2.09888 -0.526893 0
M  V30 534 C 53.2155 0.344449 -3.37044 0
M  V30 535 C 51.7745 0.780384 -3.68221 0
M  V30 536 C 50.9215 -0.108554 -2.77087 0
M  V30 537 H 53.8725 -0.526485 -1.49712 0
M  V30 538 H 53.8935 1.17828 -3.61796 0
M  V30 539 H 53.4055 -0.634235 -3.82883 0
M  V30 540 H 51.5065 1.76945 -3.27904 0
M  V30 541 H 51.6195 0.596572 -4.75371 0
M  V30 542 H 49.9835 0.412931 -2.5133 0
M  V30 543 H 50.7665 -1.08368 -3.25747 0
M  V30 544 N 53.2116 1.57565 -0.0334293 0
M  V30 545 C 54.6226 1.79746 0.504798 0
M  V30 546 C 54.9736 0.944091 1.71992 0
M  V30 547 O 54.0986 0.155694 2.15839 0
M  V30 548 C 54.6936 3.25997 0.922567 0
M  V30 549 C 53.2526 3.49159 1.40588 0
M  V30 550 C 52.3996 2.74785 0.372633 0
M  V30 551 H 55.3506 1.56565 -0.259436 0
M  V30 552 H 55.3716 3.35945 1.78666 0
M  V30 553 H 54.8836 3.88081 0.0379825 0
M  V30 554 H 52.9846 2.92332 2.31025 0
M  V30 555 H 53.0976 4.57873 1.41028 0
M  V30 556 H 51.4616 2.40391 0.841672 0
M  V30 557 H 52.2446 3.39587 -0.503559 0
M  V30 558 N 54.6897 -0.239769 1.55765 0
M  V30 559 C 55.9357 -0.963942 1.79108 0
M  V30 560 C 56.2907 -1.82689 0.60352 0
M  V30 561 O 55.5837 -1.87313 -0.403033 0
M  V30 562 C 55.7777 -1.852 3.05672 0
M  V30 563 C 55.6067 -1.07651 4.36625 0
M  V30 564 C 54.3767 -0.778738 4.99263 0
M  V30 565 C 56.5747 -0.45062 5.12322 0
M  V30 566 N 54.5567 0.0200708 6.13897 0
M  V30 567 C 55.9277 0.212429 6.19636 0
M  V30 568 C 57.9827 -0.361806 4.96584 0
M  V30 569 C 56.6857 0.955772 7.12922 0
M  V30 570 C 58.7117 0.368023 5.90254 0
M  V30 571 C 58.0737 1.01968 6.96981 0
M  V30 572 H 54.1727 -0.333601 0.707272 0
M  V30 573 H 56.7567 -0.236425 1.93259 0
M  V30 574 H 54.9277 -2.55149 2.92837 0
M  V30 575 H 56.6597 -2.51228 3.1728 0
M  V30 576 H 53.4147 -1.09229 4.60832 0
M  V30 577 H 53.8387 0.407777 6.75771 0
M  V30 578 H 58.4807 -0.851286 4.14141 0
M  V30 579 H 56.1987 1.45683 7.9486 0
M  V30 580 H 59.7847 0.437504 5.80153 0
M  V30 581 H 58.6647 1.5754 7.68213 0
M  V30 582 N 56.1678 -1.49265 -0.50573 0
M  V30 583 C 57.1158 -1.66065 -1.62866 0
M  V30 584 C 58.1098 -0.526636 -1.61006 0
M  V30 585 O 59.3158 -0.706126 -1.65571 0
M  V30 586 H 55.6908 -0.52356 -0.539805 0
M  V30 587 H 57.6618 -2.60329 -1.45848 0
M  V30 588 C 56.4108 -1.74008 -3.01026 0
M  V30 589 H 55.7338 -2.6064 -3.03161 0
M  V30 590 H 57.1738 -1.89798 -3.79147 0
M  V30 591 C 55.6328 -0.483868 -3.33407 0
M  V30 592 O 56.1628 0.392548 -3.99777 0
M  V30 593 N 54.3688 -0.348236 -2.88506 0
M  V30 594 H 53.9158 -1.06242 -2.34671 0
M  V30 595 H 53.8738 0.491204 -3.10539 0
M  V30 596 N 57.6459 0.756429 -1.3826 0
M  V30 597 C 59.0619 1.0591 -1.19395 0
M  V30 598 C 59.2619 2.01459 -0.0406567 0
M  V30 599 O 58.3179 2.44909 0.614467 0
M  V30 600 C 59.6309 1.64191 -2.51916 0
M  V30 601 C 61.1789 1.76376 -2.58574 0
M  V30 602 C 61.6539 2.38069 -3.91264 0
M  V30 603 N 63.1449 2.45503 -3.92788 0
M  V30 604 C 63.8799 2.94126 -4.92217 0
M  V30 605 N 63.3759 3.42805 -6.02043 0
M  V30 606 N 65.1689 2.9314 -4.7961 0
M  V30 607 H 57.3199 0.122313 -2.12048 0
M  V30 608 H 59.5829 0.116892 -0.940766 0
M  V30 609 H 59.2889 1.01451 -3.3675 0
M  V30 610 H 59.1629 2.6329 -2.70108 0
M  V30 611 H 61.5499 2.38244 -1.74137 0
M  V30 612 H 61.6309 0.759894 -2.44252 0
M  V30 613 H 61.2749 1.76835 -4.76121 0
M  V30 614 H 61.2049 3.39091 -4.02895 0
M  V30 615 H 63.6959 2.1107 -3.13461 0
M  V30 616 H 64.0089 3.78354 -6.73846 0
M  V30 617 H 62.3539 3.4087 -6.05667 0
M  V30 618 H 65.5449 2.54419 -3.92923 0
M  V30 619 H 65.7179 3.30721 -5.5725 0
M  V30 620 N 59.124 1.23083 0.984299 0
M  V30 621 C 60.373 1.05466 1.71929 0
M  V30 622 C 60.686 -0.409211 1.91272 0
M  V30 623 O 61.892 -0.705226 2.62181 0
M  V30 624 C 60.348 1.83874 3.09384 0
M  V30 625 C 59.956 3.34566 2.97943 0
M  V30 626 C 61.7 1.74734 3.8687 0
M  V30 627 C 59.607 4.05381 4.30605 0
M  V30 628 H 58.537 0.391039 0.644674 0
M  V30 629 H 61.188 1.47013 1.09815 0
M  V30 630 H 59.57 1.35131 3.72231 0
M  V30 631 H 60.744 3.90767 2.44209 0
M  V30 632 H 59.059 3.44476 2.33934 0
M  V30 633 H 61.656 2.24957 4.85076 0
M  V30 634 H 61.999 0.709372 4.10212 0
M  V30 635 H 62.532 2.21067 3.30717 0
M  V30 636 H 59.271 5.09467 4.1246 0
M  V30 637 H 58.791 3.53967 4.84218 0
M  V30 638 H 60.47 4.11458 4.99311 0
M  V30 639 N 60.6021 -1.18246 1.0419 0
M  V30 640 C 61.8491 -1.88257 0.746017 0
M  V30 641 C 62.1771 -1.80429 -0.726331 0
M  V30 642 O 61.4321 -1.2 -1.54591 0
M  V30 643 C 61.7311 -3.38082 1.15911 0
M  V30 644 C 61.3971 -3.66114 2.63195 0
M  V30 645 C 60.0591 -3.73474 3.03432 0
M  V30 646 C 62.4111 -3.78398 3.5842 0
M  V30 647 C 59.7391 -3.90599 4.37778 0
M  V30 648 C 62.0911 -3.97039 4.92487 0
M  V30 649 C 60.7551 -4.02635 5.32392 0
M  V30 650 H 60.0251 -0.688883 0.272987 0
M  V30 651 H 62.6721 -1.3995 1.30715 0
M  V30 652 H 60.9771 -3.88377 0.516806 0
M  V30 653 H 62.6741 -3.90596 0.907516 0
M  V30 654 H 59.2641 -3.61003 2.3103 0
M  V30 655 H 63.4481 -3.72042 3.28479 0
M  V30 656 H 58.7041 -3.93175 4.68213 0
M  V30 657 H 62.8781 -4.05486 5.66175 0
M  V30 658 H 60.5051 -4.15657 6.36501 0
M  V30 659 N 62.0802 -0.821533 -1.34494 0
M  V30 660 C 63.0272 -0.240397 -2.29545 0
M  V30 661 C 63.9972 0.634031 -1.53523 0
M  V30 662 O 65.1822 0.575966 -1.81899 0
M  V30 663 C 62.3222 0.592869 -3.39969 0
M  V30 664 C 61.4352 -0.30365 -4.30932 0
M  V30 665 C 60.5702 0.539049 -5.28458 0
M  V30 666 C 59.6092 -0.356942 -6.11058 0
M  V30 667 N 58.7462 0.446603 -7.00678 0
M  V30 668 H 63.5862 -1.05632 -2.7865 0
M  V30 669 H 61.1232 -0.532413 -1.37127 0
M  V30 670 H 63.0812 1.09129 -4.02675 0
M  V30 671 H 61.7112 1.37392 -2.92102 0
M  V30 672 H 60.7632 -0.920276 -3.691 0
M  V30 673 H 62.0752 -0.992661 -4.88823 0
M  V30 674 H 61.2292 1.102 -5.96608 0
M  V30 675 H 59.9682 1.26157 -4.71101 0
M  V30 676 H 58.9732 -0.932047 -5.41842 0
M  V30 677 H 60.1982 -1.07755 -6.70497 0
M  V30 678 H 58.1442 1.15282 -6.45791 0
M  V30 679 H 58.0612 -0.184048 -7.55776 0
M  V30 680 H 59.3292 0.992352 -7.73158 0
M  V30 681 N 63.5583 1.46682 -0.576371 0
M  V30 682 C 64.8063 2.02013 -0.0594163 0
M  V30 683 C 65.1273 1.45101 1.30271 0
M  V30 684 O 64.3973 0.633317 1.8538 0
M  V30 685 H 62.9773 0.746759 -0.0189745 0
M  V30 686 H 65.6393 1.79862 -0.750717 0
M  V30 687 H 64.7353 3.12097 0.014345 0
M  V30 688 N 65.0364 0.313813 1.54444 0
M  V30 689 C 65.9464 -0.565714 2.27677 0
M  V30 690 C 66.9624 -1.13754 1.31666 0
M  V30 691 O 68.1384 -1.15959 1.64668 0
M  V30 692 C 65.2034 -1.71528 3.01296 0
M  V30 693 C 64.2644 -1.17624 4.12872 0
M  V30 694 C 63.4974 -2.27102 4.8297 0
M  V30 695 O 63.7204 -3.47256 4.52514 0
M  V30 696 O 62.6544 -1.9307 5.70094 0
M  V30 697 H 66.4804 0.0287296 3.03686 0
M  V30 698 H 64.0654 0.0798312 1.49187 0
M  V30 699 H 65.9474 -2.38476 3.4743 0
M  V30 700 H 64.6224 -2.29608 2.2817 0
M  V30 701 H 63.5294 -0.472124 3.71109 0
M  V30 702 H 64.8624 -0.640695 4.88012 0
M  V30 703 N 66.5145 -1.57545 0.0417849 0
M  V30 704 C 67.4625 -2.12148 -0.953723 0
M  V30 705 C 68.4565 -1.05104 -1.32852 0
M  V30 706 O 69.6625 -1.23524 -1.30927 0
M  V30 707 H 66.0375 -0.677957 -0.325389 0
M  V30 708 H 68.0085 -2.94707 -0.467991 0
M  V30 709 C 66.7575 -2.6739 -2.22257 0
M  V30 710 H 66.0805 -3.49413 -1.94295 0
M  V30 711 H 67.5205 -3.09227 -2.90094 0
M  V30 712 C 65.9795 -1.60723 -2.96091 0
M  V30 713 O 66.5095 -1.01449 -3.88679 0
M  V30 714 N 64.7155 -1.32466 -2.58652 0
M  V30 715 H 64.2625 -1.80856 -1.83437 0
M  V30 716 H 64.2205 -0.61325 -3.08361 0
M  V30 717 N 67.9926 0.231505 -1.5589 0
M  V30 718 C 69.2386 0.95877 -1.78705 0
M  V30 719 C 69.5716 1.8438 -0.609725 0
M  V30 720 O 68.8466 1.90521 0.391426 0
M  V30 721 C 69.1296 1.8062 -3.11526 0
M  V30 722 C 68.9826 0.948328 -4.39689 0
M  V30 723 C 70.3016 2.78585 -3.40703 0
M  V30 724 H 67.4206 0.347129 -0.650131 0
M  V30 725 H 70.0626 0.228259 -1.88624 0
M  V30 726 H 68.2126 2.42902 -3.03201 0
M  V30 727 H 69.8846 0.343016 -4.60023 0
M  V30 728 H 68.1276 0.253314 -4.3306 0
M  V30 729 H 68.7986 1.57543 -5.29041 0
M  V30 730 H 71.2746 2.26439 -3.49091 0
M  V30 731 H 70.1506 3.34988 -4.34826 0
M  V30 732 H 70.4116 3.55825 -2.62375 0
M  V30 733 N 69.4707 1.49531 0.497807 0
M  V30 734 C 70.6987 1.62893 1.27567 0
M  V30 735 C 71.1137 0.301585 1.86376 0
M  V30 736 O 70.4707 -0.713335 1.67982 0
M  V30 737 C 70.5217 2.70013 2.40364 0
M  V30 738 O 70.2427 3.976 1.83972 0
M  V30 739 C 71.7437 2.94109 3.31685 0
M  V30 740 H 68.9637 0.548298 0.386794 0
M  V30 741 H 71.5077 1.95584 0.597245 0
M  V30 742 H 69.6627 2.40092 3.04031 0
M  V30 743 H 70.0767 4.56631 2.58047 0
M  V30 744 H 71.5507 3.72788 4.07104 0
M  V30 745 H 72.0277 2.04147 3.88871 0
M  V30 746 H 72.6337 3.2546 2.73781 0
M  V30 747 N 70.9488 -0.749086 1.3866 0
M  V30 748 C 71.8788 -1.8764 1.38973 0
M  V30 749 C 72.8598 -1.68178 0.255004 0
M  V30 750 O 74.0448 -1.88704 0.458754 0
M  V30 751 C 71.1748 -3.25222 1.21851 0
M  V30 752 C 70.1288 -3.59295 2.32575 0
M  V30 753 C 69.4548 -4.95663 2.00555 0
M  V30 754 C 70.7548 -3.63709 3.7485 0
M  V30 755 H 72.4488 -1.87635 2.3331 0
M  V30 756 H 69.9948 -0.901329 1.12303 0
M  V30 757 H 71.9478 -4.03746 1.20695 0
M  V30 758 H 70.6718 -3.25719 0.239775 0
M  V30 759 H 69.3308 -2.83093 2.32925 0
M  V30 760 H 68.9788 -4.92724 1.01154 0
M  V30 761 H 68.6788 -5.19429 2.74714 0
M  V30 762 H 70.2028 -5.7656 2.01024 0
M  V30 763 H 71.6168 -4.32338 3.76506 0
M  V30 764 H 70.0138 -3.98986 4.48252 0
M  V30 765 H 71.0838 -2.63834 4.06841 0
M  V30 766 N 72.4269 -1.23603 -0.977757 0
M  V30 767 C 73.6549 -1.09646 -1.75458 0
M  V30 768 C 74.0699 0.351859 -1.85492 0
M  V30 769 O 73.4269 1.24327 -1.336 0
M  V30 770 C 73.4779 -1.71895 -3.18016 0
M  V30 771 O 73.1989 -3.11063 -3.08498 0
M  V30 772 C 74.6999 -1.63415 -4.12081 0
M  V30 773 H 71.9199 -0.38359 -0.550545 0
M  V30 774 H 74.4639 -1.63507 -1.22824 0
M  V30 775 H 72.6189 -1.22061 -3.67668 0
M  V30 776 H 73.0329 -3.41305 -3.9826 0
M  V30 777 H 74.5069 -2.11669 -5.09804 0
M  V30 778 H 74.9839 -0.593462 -4.35172 0
M  V30 779 H 75.5899 -2.12628 -3.68334 0
M  V30 780 N 73.905 1.17692 -1.04816 0
M  V30 781 C 75.145 1.89545 -0.764979 0
M  V30 782 C 75.509 1.78979 0.695028 0
M  V30 783 O 76.71 2.45613 1.09215 0
M  V30 784 C 74.981 3.35659 -1.22751 0
M  V30 785 S 76.54 4.25526 -1.07112 0
M  V30 786 H 73.358 0.654432 -0.27792 0
M  V30 787 H 75.96 1.42163 -1.34201 0
M  V30 788 H 74.664 3.40882 -2.28533 0
M  V30 789 H 74.195 3.88083 -0.644594 0
M  V30 790 H 76.21 4.962 0.00697508 0
M  V30 791 N 75.3831 0.828654 1.34056 0
M  V30 792 C 76.3311 0.242973 2.31327 0
M  V30 793 C 77.3251 -0.61944 1.57668 0
M  V30 794 O 78.5311 -0.51014 1.7262 0
M  V30 795 H 74.9061 0.059834 0.749616 0
M  V30 796 H 76.8771 1.07809 2.78244 0
M  V30 797 C 75.6261 -0.575733 3.429 0
M  V30 798 H 74.9491 0.0785582 3.99723 0
M  V30 799 H 76.3891 -0.951547 4.13185 0
M  V30 800 C 74.8481 -1.75044 2.87856 0
M  V30 801 O 75.3781 -2.84882 2.83205 0
M  V30 802 N 73.5841 -1.56903 2.44602 0
M  V30 803 H 73.1311 -0.675547 2.48584 0
M  V30 804 H 73.0891 -2.35652 2.08124 0
M  V30 805 N 76.8612 -1.46375 0.584142 0
M  V30 806 C 78.1092 -2.01978 0.0701287 0
M  V30 807 C 78.4302 -1.4579 -1.295 0
M  V30 808 O 77.7002 -0.64314 -1.85042 0
M  V30 809 H 76.2802 -0.746648 0.0229345 0
M  V30 810 H 78.9422 -1.79461 0.760245 0
M  V30 811 H 78.0382 -3.121 0.0022064 0
M  V30 812 N 78.3393 -0.321999 -1.54275 0
M  V30 813 C 79.2873 0.560206 -2.25753 0
M  V30 814 C 80.2813 1.11984 -1.27106 0
M  V30 815 O 81.4873 1.06806 -1.44888 0
M  V30 816 H 77.8623 0.199304 -0.725108 0
M  V30 817 H 79.8333 -0.0649365 -2.98329 0
M  V30 818 C 78.5823 1.71023 -3.02731 0
M  V30 819 H 77.9053 1.28885 -3.78456 0
M  V30 820 H 79.3453 2.30314 -3.55993 0
M  V30 821 C 77.8043 2.62692 -2.10938 0
M  V30 822 O 78.3343 3.64364 -1.6912 0
M  V30 823 N 76.5403 2.30891 -1.76459 0
M  V30 824 H 76.0873 1.48253 -2.10663 0
M  V30 825 H 76.0453 2.92487 -1.1532 0
M  V30 826 N 79.8174 1.5752 -0.0501392 0
M  V30 827 C 80.7654 2.12651 0.942459 0
M  V30 828 C 81.7594 1.05807 1.32292 0
M  V30 829 O 82.9654 1.24217 1.3027 0
M  V30 830 H 79.3404 0.679673 0.321789 0
M  V30 831 H 81.3114 2.94951 0.452356 0
M  V30 832 C 80.0604 2.68565 2.20836 0
M  V30 833 H 79.3834 3.50439 1.92439 0
M  V30 834 H 80.8234 3.10761 2.8845 0
M  V30 835 C 79.2824 1.62291 2.95234 0
M  V30 836 O 79.8124 1.03508 3.88135 0
M  V30 837 N 78.0184 1.33836 2.57946 0
M  V30 838 H 77.5654 1.81826 1.82475 0
M  V30 839 H 77.5234 0.629595 3.08032 0
M  V30 840 N 81.2955 -0.223234 1.56011 0
M  V30 841 C 82.5425 -0.947875 1.78946 0
M  V30 842 C 82.8705 -1.844 0.618608 0
M  V30 843 O 82.1255 -1.91629 -0.397093 0
M  V30 844 C 82.4245 -1.81948 3.0762 0
M  V30 845 C 82.0905 -1.07672 4.37856 0
M  V30 846 C 80.7525 -0.871544 4.73242 0
M  V30 847 C 83.1045 -0.552081 5.18268 0
M  V30 848 C 80.4325 -0.129791 5.86556 0
M  V30 849 C 82.7845 0.17632 6.32354 0
M  V30 850 C 81.4485 0.39277 6.66343 0
M  V30 851 H 80.7185 -0.346852 0.654809 0
M  V30 852 H 83.3655 -0.216171 1.90276 0
M  V30 853 H 81.6705 -2.61899 2.91404 0
M  V30 854 H 83.3675 -2.38227 3.22566 0
M  V30 855 H 79.9575 -1.24662 4.1007 0
M  V30 856 H 84.1415 -0.698076 4.91366 0
M  V30 857 H 79.3975 0.048153 6.11381 0
M  V30 858 H 83.5715 0.590367 6.93893 0
M  V30 859 H 81.1985 0.969466 7.53993 0
M  V30 860 N 82.7736 -1.49793 -0.48987 0
M  V30 861 C 84.0206 -1.59841 -1.24327 0
M  V30 862 C 84.3486 -0.290135 -1.92324 0
M  V30 863 O 83.6036 0.722749 -1.81865 0
M  V30 864 C 83.9026 -2.71488 -2.32441 0
M  V30 865 C 83.5686 -4.12614 -1.81826 0
M  V30 866 C 82.2306 -4.51017 -1.67742 0
M  V30 867 C 84.5826 -5.00892 -1.4407 0
M  V30 868 C 81.9106 -5.75459 -1.14297 0
M  V30 869 C 84.2626 -6.25863 -0.920742 0
M  V30 870 C 82.9266 -6.63086 -0.766383 0
M  V30 871 H 82.1966 -0.584899 -0.454944 0
M  V30 872 H 84.8436 -1.83663 -0.542215 0
M  V30 873 H 83.1486 -2.4168 -3.0838 0
M  V30 874 H 84.8456 -2.76469 -2.90458 0
M  V30 875 H 81.4356 -3.82307 -1.93751 0
M  V30 876 H 85.6196 -4.7187 -1.53794 0
M  V30 877 H 80.8756 -6.02989 -1.01068 0
M  V30 878 H 85.0496 -6.9364 -0.619448 0
M  V30 879 H 82.6766 -7.59393 -0.350083 0
M  V30 880 N 84.2517 0.741722 -1.39055 0
M  V30 881 C 85.1617 1.88621 -1.39496 0
M  V30 882 C 86.1777 1.71557 -0.290578 0
M  V30 883 O 87.3537 1.94275 -0.530954 0
M  V30 884 C 84.4187 3.24134 -1.23037 0
M  V30 885 C 83.4797 3.5364 -2.43387 0
M  V30 886 C 82.7127 4.82687 -2.27703 0
M  V30 887 O 82.9357 5.55922 -1.27696 0
M  V30 888 O 81.8697 5.1194 -3.16545 0
M  V30 889 H 85.6957 1.91203 -2.35956 0
M  V30 890 H 83.2807 0.888625 -1.20099 0
M  V30 891 H 85.1627 4.0513 -1.15964 0
M  V30 892 H 83.8377 3.22337 -0.296691 0
M  V30 893 H 82.7447 2.72758 -2.56035 0
M  V30 894 H 84.0777 3.60209 -3.35425 0
M  V30 895 N 85.7298 1.2412 0.971189 0
M  V30 896 C 86.9758 1.08041 1.71625 0
M  V30 897 C 87.3088 -0.380407 1.90438 0
M  V30 898 O 86.5838 -1.28127 1.46334 0
M  V30 899 C 86.8668 1.81682 3.10908 0
M  V30 900 C 86.7198 3.35493 2.99608 0
M  V30 901 C 88.0388 1.58671 4.10501 0
M  V30 902 H 85.1578 0.39388 0.622919 0
M  V30 903 H 87.7998 1.52743 1.13003 0
M  V30 904 H 85.9498 1.43684 3.60953 0
M  V30 905 H 87.6218 3.83068 2.57015 0
M  V30 906 H 85.8648 3.64052 2.35899 0
M  V30 907 H 86.5358 3.82217 3.98264 0
M  V30 908 H 89.0118 1.91719 3.69301 0
M  V30 909 H 87.8878 2.1266 5.06031 0
M  V30 910 H 88.1488 0.524161 4.38982 0
M  V30 911 N 87.2079 -1.17134 1.05439 0
M  V30 912 C 88.4329 -1.91913 0.786396 0
M  V30 913 C 88.8579 -1.7643 -0.652234 0
M  V30 914 O 88.2159 -1.08372 -1.45345 0
M  V30 915 C 88.2639 -3.40921 1.17497 0
M  V30 916 O 87.3679 -4.11244 0.308589 0
M  V30 917 H 86.7089 -0.598215 0.288158 0
M  V30 918 H 89.2389 -1.48457 1.4079 0
M  V30 919 H 89.2489 -3.91668 1.14281 0
M  V30 920 H 87.9239 -3.5151 2.22292 0
M  V30 921 H 86.5009 -3.70731 0.40157 0
M  V30 922 N 88.686 -0.835752 -1.33615 0
M  V30 923 C 89.911 -0.442389 -2.02627 0
M  V30 924 C 90.336 0.947735 -1.62479 0
M  V30 925 O 89.694 1.61907 -0.815826 0
M  V30 926 C 89.742 -0.567216 -3.56111 0
M  V30 927 O 88.846 0.407799 -4.10379 0
M  V30 928 H 88.187 -0.180278 -0.639059 0
M  V30 929 H 90.717 -1.12972 -1.70583 0
M  V30 930 H 90.727 -0.447708 -4.05536 0
M  V30 931 H 89.402 -1.58103 -3.84677 0
M  V30 932 H 87.979 0.246107 -3.72087 0
M  V30 933 N 90.1641 1.46063 -0.591896 0
M  V30 934 C 91.3921 2.06717 -0.0868936 0
M  V30 935 C 91.8071 1.43916 1.22203 0
M  V30 936 O 91.1641 0.547698 1.74088 0
M  V30 937 C 91.2151 3.6142 0.0758725 0
M  V30 938 O 90.9361 4.21874 -1.18126 0
M  V30 939 C 92.4371 4.39025 0.61416 0
M  V30 940 H 89.6571 0.668162 -0.0616518 0
M  V30 941 H 92.2011 1.8755 -0.815175 0
M  V30 942 H 90.3561 3.79983 0.754413 0
M  V30 943 H 90.7701 5.14861 -1.00092 0
M  V30 944 H 92.2441 5.4783 0.677193 0
M  V30 945 H 92.7211 4.07708 1.63312 0
M  V30 946 H 93.3271 4.2529 -0.0298142 0
M  V30 947 N 91.6422 0.330177 1.54103 0
M  V30 948 C 92.5892 -0.532762 2.24567 0
M  V30 949 C 93.5592 -1.10635 1.23892 0
M  V30 950 O 94.7442 -1.14546 1.5259 0
M  V30 951 C 91.8842 -1.6845 3.01195 0
M  V30 952 C 90.9972 -1.13951 4.167 0
M  V30 953 C 90.1322 -2.25746 4.80845 0
M  V30 954 C 89.1712 -1.6853 5.88442 0
M  V30 955 N 88.3082 -2.74014 6.46421 0
M  V30 956 H 93.1482 0.0746905 2.97906 0
M  V30 957 H 90.6852 0.048632 1.4702 0
M  V30 958 H 92.6432 -2.36234 3.43874 0
M  V30 959 H 91.2732 -2.26314 2.30178 0
M  V30 960 H 90.3252 -0.35301 3.78758 0
M  V30 961 H 91.6372 -0.680892 4.94131 0
M  V30 962 H 90.7912 -3.01422 5.26526 0
M  V30 963 H 89.5302 -2.74947 4.0281 0
M  V30 964 H 88.5352 -0.913543 5.42157 0
M  V30 965 H 89.7602 -1.20198 6.68378 0
M  V30 966 H 87.7062 -3.22494 5.71256 0
M  V30 967 H 87.6232 -2.32735 7.19285 0
M  V30 968 H 88.8912 -3.49499 6.96757 0
M  V30 969 N 93.1203 -1.57491 0.0584922 0
M  V30 970 C 94.3663 -1.94081 -0.608617 0
M  V30 971 C 94.7213 -0.937438 -1.68017 0
M  V30 972 O 94.0143 0.0423034 -1.91553 0
M  V30 973 C 94.2083 -3.3513 -1.24188 0
M  V30 974 C 94.0373 -4.49095 -0.233187 0
M  V30 975 C 92.8073 -5.04988 0.177439 0
M  V30 976 C 95.0053 -5.1162 0.524306 0
M  V30 977 N 92.9873 -6.02487 1.17823 0
M  V30 978 C 94.3583 -6.04493 1.37796 0
M  V30 979 C 96.4133 -4.94489 0.581822 0
M  V30 980 C 95.1163 -6.82075 2.28399 0
M  V30 981 C 97.1423 -5.72703 1.47531 0
M  V30 982 C 96.5043 -6.65214 2.31667 0
M  V30 983 H 92.6033 -0.75752 -0.194134 0
M  V30 984 H 95.1873 -1.94248 0.132533 0
M  V30 985 H 93.3583 -3.35726 -1.95302 0
M  V30 986 H 95.0903 -3.5899 -1.86838 0
M  V30 987 H 91.8453 -4.73165 -0.203004 0
M  V30 988 H 92.2693 -6.55933 1.67573 0
M  V30 989 H 96.9113 -4.22765 -0.054443 0
M  V30 990 H 94.6293 -7.53085 2.93067 0
M  V30 991 H 98.2153 -5.61472 1.52448 0
M  V30 992 H 97.0953 -7.24679 2.99683 0
M  V30 993 N 94.5984 0.214957 -1.56127 0
M  V30 994 C 95.8454 0.938372 -1.79446 0
M  V30 995 C 96.1734 1.8407 -0.628378 0
M  V30 996 O 95.4284 1.91837 0.386925 0
M  V30 997 C 95.7274 1.80314 -3.0858 0
M  V30 998 C 95.3934 1.05349 -4.3842 0
M  V30 999 C 94.0554 0.846435 -4.73697 0
M  V30 1000 C 96.4074 0.524588 -5.18553 0
M  V30 1001 C 93.7354 0.098683 -5.86617 0
M  V30 1002 C 96.0874 -0.209853 -6.32252 0
M  V30 1003 C 94.7514 -0.428102 -6.66126 0
M  V30 1004 H 94.0214 0.343375 -0.656639 0
M  V30 1005 H 96.6684 0.206077 -1.90388 0
M  V30 1006 H 94.9734 2.6035 -2.92789 0
M  V30 1007 H 96.6704 2.36513 -3.23825 0
M  V30 1008 H 93.2604 1.22486 -4.10725 0
M  V30 1009 H 97.4444 0.672008 -4.91729 0
M  V30 1010 H 92.7004 -0.0805753 -6.11347 0
M  V30 1011 H 96.8744 -0.627157 -6.9357 0
M  V30 1012 H 94.5014 -1.00944 -7.53468 0
M  V30 1013 N 96.0765 1.50051 0.48192 0
M  V30 1014 C 97.0265 1.64512 1.5786 0
M  V30 1015 C 98.0105 0.500073 1.52932 0
M  V30 1016 O 99.2025 0.753964 1.60139 0
M  V30 1017 C 96.3315 1.73263 2.9637 0
M  V30 1018 C 95.4175 2.93409 3.06222 0
M  V30 1019 N 95.8085 4.17236 2.85915 0
M  V30 1020 C 94.1065 2.91742 3.37346 0
M  V30 1021 C 94.8075 4.981 3.00451 0
M  V30 1022 N 93.7835 4.3184 3.30174 0
M  V30 1023 H 97.5855 2.57955 1.40842 0
M  V30 1024 H 95.0995 1.47086 0.688439 0
M  V30 1025 H 97.0965 1.81724 3.75209 0
M  V30 1026 H 95.7565 0.809711 3.14442 0
M  V30 1027 H 96.7675 4.46909 2.6171 0
M  V30 1028 H 93.4445 2.08907 3.61475 0
M  V30 1029 H 94.8345 6.06532 2.89082 0
M  V30 1030 N 97.5546 -0.734337 1.39446 0
M  V30 1031 C 98.5026 -1.86971 1.38364 0
M  V30 1032 C 99.4966 -1.67288 0.266687 0
M  V30 1033 O 100.703 -1.74621 0.436755 0
M  V30 1034 H 97.0776 -0.615474 0.432082 0
M  V30 1035 H 99.0486 -1.85 2.34132 0
M  V30 1036 C 97.7976 -3.2466 1.24465 0
M  V30 1037 H 97.1206 -3.40402 2.09682 0
M  V30 1038 H 98.5606 -4.04292 1.27764 0
M  V30 1039 C 97.0196 -3.36867 -0.0468674 0
M  V30 1040 O 97.5496 -3.88618 -1.01681 0
M  V30 1041 N 95.7556 -2.90391 -0.110145 0
M  V30 1042 H 95.3026 -2.48466 0.679868 0
M  V30 1043 H 95.2606 -2.98939 -0.973799 0
M  V30 1044 N 99.0327 -1.24633 -0.964593 0
M  V30 1045 C 100.281 -1.08573 -1.70459 0
M  V30 1046 C 100.602 0.375655 -1.91347 0
M  V30 1047 O 99.8717 1.26779 -1.49345 0
M  V30 1048 H 98.4517 -0.398784 -0.631649 0
M  V30 1049 H 101.114 -1.56601 -1.16026 0
M  V30 1050 H 100.21 -1.58623 -2.68785 0
M  V30 1051 N 100.511 1.16574 -1.06058 0
M  V30 1052 C 101.736 1.91493 -0.796562 0
M  V30 1053 C 102.161 1.76773 0.642868 0
M  V30 1054 O 101.519 1.09142 1.44768 0
M  V30 1055 C 101.567 3.40293 -1.19303 0
M  V30 1056 O 100.671 4.11074 -0.330394 0
M  V30 1057 H 100.012 0.596678 -0.291326 0
M  V30 1058 H 102.542 1.47708 -1.41575 0
M  V30 1059 H 102.552 3.91057 -1.16356 0
M  V30 1060 H 101.227 3.50326 -2.24153 0
M  V30 1061 H 99.8038 3.70513 -0.421225 0
M  V30 1062 N 101.989 0.842826 1.3317 0
M  V30 1063 C 102.919 0.294028 2.31641 0
M  V30 1064 C 103.9 -0.600401 1.59151 0
M  V30 1065 O 105.085 -0.523124 1.87022 0
M  V30 1066 C 102.215 -0.528416 3.43257 0
M  V30 1067 C 101.169 0.27056 4.27144 0
M  V30 1068 C 100.495 -0.675881 5.30411 0
M  V30 1069 C 101.795 1.48981 5.00602 0
M  V30 1070 H 103.489 1.11681 2.77791 0
M  V30 1071 H 101.035 0.538478 1.33553 0
M  V30 1072 H 102.988 -0.922674 4.11175 0
M  V30 1073 H 101.712 -1.38445 2.95805 0
M  V30 1074 H 100.371 0.646427 3.60856 0
M  V30 1075 H 100.019 -1.52842 4.79216 0
M  V30 1076 H 99.7189 -0.145374 5.8742 0
M  V30 1077 H 101.243 -1.06757 6.01195 0
M  V30 1078 H 102.657 1.16849 5.61266 0
M  V30 1079 H 101.054 1.95739 5.6728 0
M  V30 1080 H 102.124 2.25746 4.29147 0
M  V30 1081 N 103.467 -1.45747 0.599634 0
M  V30 1082 C 104.692 -2.07178 0.0960198 0
M  V30 1083 C 105.117 -1.44268 -1.207 0
M  V30 1084 O 104.475 -0.532503 -1.73303 0
M  V30 1085 C 104.523 -3.60579 -0.0385348 0
M  V30 1086 O 103.627 -3.97713 -1.0908 0
M  V30 1087 H 102.968 -0.660251 0.0704593 0
M  V30 1088 H 105.498 -1.87124 0.827385 0
M  V30 1089 H 105.508 -4.07298 -0.239304 0
M  V30 1090 H 104.183 -4.05756 0.912947 0
M  V30 1091 H 102.76 -3.62678 -0.867135 0
M  V30 1092 N 104.945 -0.338344 -1.53925 0
M  V30 1093 C 105.855 0.529421 -2.28548 0
M  V30 1094 C 106.871 1.11645 -1.3346 0
M  V30 1095 O 108.047 1.13325 -1.66492 0
M  V30 1096 C 105.112 1.66713 -3.03987 0
M  V30 1097 C 104.173 1.11041 -4.14691 0
M  V30 1098 C 103.406 2.19389 -4.86522 0
M  V30 1099 O 103.629 3.40013 -4.57982 0
M  V30 1100 O 102.563 1.83976 -5.73094 0
M  V30 1101 H 106.389 -0.0770399 -3.03602 0
M  V30 1102 H 103.974 -0.103555 -1.49041 0
M  V30 1103 H 105.856 2.32918 -3.5118 0
M  V30 1104 H 104.531 2.25949 -2.31794 0
M  V30 1105 H 103.438 0.413024 -3.71813 0
M  V30 1106 H 104.771 0.562975 -4.8897 0
M  V30 1107 N 106.423 1.57458 -0.0668435 0
M  V30 1108 C 107.333 2.15937 0.916975 0
M  V30 1109 C 108.349 1.12123 1.33058 0
M  V30 1110 O 109.525 1.44366 1.40429 0
M  V30 1111 C 106.59 2.70547 2.16807 0
M  V30 1112 C 105.651 3.89215 1.81135 0
M  V30 1113 C 104.884 4.41211 3.0028 0
M  V30 1114 O 105.107 3.92225 4.14144 0
M  V30 1115 O 104.041 5.32605 2.80384 0
M  V30 1116 H 107.867 3.00354 0.449561 0
M  V30 1117 H 105.452 1.48584 0.155949 0
M  V30 1118 H 107.334 3.0557 2.90181 0
M  V30 1119 H 106.009 1.89192 2.62656 0
M  V30 1120 H 104.916 3.59054 1.05028 0
M  V30 1121 H 106.249 4.71848 1.40073 0
M  V30 1122 N 107.901 -0.206675 1.56239 0
M  V30 1123 C 109.129 -0.945345 1.8404 0
M  V30 1124 C 109.544 -1.77336 0.647885 0
M  V30 1125 O 108.901 -1.78425 -0.383511 0
M  V30 1126 C 108.952 -1.8509 3.10522 0
M  V30 1127 O 108.673 -1.05634 4.25174 0
M  V30 1128 C 110.174 -2.70222 3.51418 0
M  V30 1129 H 107.394 -0.276372 0.61144 0
M  V30 1130 H 109.938 -0.217417 2.03341 0
M  V30 1131 H 108.093 -2.53259 2.93153 0
M  V30 1132 H 108.507 -1.67238 4.97124 0
M  V30 1133 H 109.981 -3.29438 4.42916 0
M  V30 1134 H 110.458 -3.43358 2.73864 0
M  V30 1135 H 111.064 -2.07443 3.71278 0
M  V30 1136 N 109.379 -1.50304 -0.473955 0
M  V30 1137 C 110.327 -1.69482 -1.59307 0
M  V30 1138 C 111.321 -0.560669 -1.59853 0
M  V30 1139 O 112.527 -0.741087 -1.64036 0
M  V30 1140 H 108.902 -0.534892 -0.528578 0
M  V30 1141 H 110.873 -2.63364 -1.40293 0
M  V30 1142 C 109.622 -1.80354 -2.97267 0
M  V30 1143 H 108.945 -2.67012 -2.97564 0
M  V30 1144 H 110.385 -1.97798 -3.75036 0
M  V30 1145 C 108.844 -0.55448 -3.32306 0
M  V30 1146 O 109.374 0.307661 -4.0052 0
M  V30 1147 N 107.58 -0.409354 -2.87702 0
M  V30 1148 H 107.127 -1.11196 -2.32364 0
M  V30 1149 H 107.085 0.425223 -3.11511 0
M  V30 1150 N 110.857 0.726932 -1.39834 0
M  V30 1151 C 112.082 1.52121 -1.40976 0
M  V30 1152 C 112.507 1.88098 -0.00826029 0
M  V30 1153 O 111.865 1.52479 0.980807 0
M  V30 1154 C 111.913 2.78021 -2.29644 0
M  V30 1155 O 111.017 3.74272 -1.73188 0
M  V30 1156 H 110.358 0.45908 -0.479731 0
M  V30 1157 H 112.888 0.896207 -1.83927 0
M  V30 1158 H 112.898 3.26671 -2.44438 0
M  V30 1159 H 111.573 2.51169 -3.31492 0
M  V30 1160 H 110.15 3.33073 -1.6768 0
M  V30 1161 N 112.336 1.25143 0.95797 0
M  V30 1162 C 113.561 1.12521 1.74223 0
M  V30 1163 C 113.986 -0.317402 1.85403 0
M  V30 1164 O 113.344 -1.2299 1.33204 0
M  V30 1165 C 113.392 1.78062 3.1357 0
M  V30 1166 O 112.496 1.058 3.98598 0
M  V30 1167 H 111.837 0.39304 0.535178 0
M  V30 1168 H 114.367 1.65641 1.201 0
M  V30 1169 H 114.377 1.84213 3.64046 0
M  V30 1170 H 113.052 2.83021 3.04749 0
M  V30 1171 H 111.629 1.07506 3.57067 0
M  V30 1172 N 113.814 -1.1601 1.06675 0
M  V30 1173 C 114.744 -2.22688 0.702307 0
M  V30 1174 C 115.725 -1.67306 -0.307032 0
M  V30 1175 O 116.91 -1.93352 -0.181305 0
M  V30 1176 C 114.04 -3.47178 0.092038 0
M  V30 1177 C 112.994 -4.15477 1.02777 0
M  V30 1178 C 112.32 -5.33963 0.28061 0
M  V30 1179 C 113.62 -4.66019 2.35846 0
M  V30 1180 H 115.314 -2.53429 1.59419 0
M  V30 1181 H 112.86 -1.21813 0.767961 0
M  V30 1182 H 114.813 -4.21037 -0.174814 0
M  V30 1183 H 113.537 -3.15749 -0.834877 0
M  V30 1184 H 112.196 -3.43549 1.27944 0
M  V30 1185 H 111.844 -4.98788 -0.649545 0
M  V30 1186 H 111.544 -5.806 0.904258 0
M  V30 1187 H 113.068 -6.10596 0.021396 0
M  V30 1188 H 114.482 -5.3144 2.15045 0
M  V30 1189 H 112.879 -5.23293 2.93743 0
M  V30 1190 H 113.949 -3.82023 2.98641 0
M  V30 1191 N 115.292 -0.849877 -1.32721 0
M  V30 1192 C 116.24 -0.279745 -2.30912 0
M  V30 1193 C 117.234 0.594278 -1.58634 0
M  V30 1194 O 118.44 0.482613 -1.73409 0
M  V30 1195 H 114.815 -0.0717521 -0.748569 0
M  V30 1196 H 116.786 -1.12222 -2.76494 0
M  V30 1197 C 115.535 0.521108 -3.43773 0
M  V30 1198 H 114.858 -0.142141 -3.99547 0
M  V30 1199 H 116.298 0.885693 -4.14646 0
M  V30 1200 C 114.757 1.70442 -2.90605 0
M  V30 1201 O 115.287 2.8034 -2.87702 0
M  V30 1202 N 113.493 1.52991 -2.47067 0
M  V30 1203 H 113.04 0.635914 -2.49628 0
M  V30 1204 H 112.998 2.32311 -2.11847 0
M  V30 1205 N 116.77 1.45427 -0.607355 0
M  V30 1206 C 118.019 2.01452 -0.100036 0
M  V30 1207 C 118.332 1.48159 1.27704 0
M  V30 1208 O 119.538 1.96159 1.87707 0
M  V30 1209 C 117.994 3.59672 -0.128158 0
M  V30 1210 C 117.602 4.21962 -1.50507 0
M  V30 1211 C 119.346 4.23262 0.323932 0
M  V30 1212 C 117.253 5.72333 -1.48959 0
M  V30 1213 H 116.183 0.75325 -0.0336299 0
M  V30 1214 H 118.834 1.66901 -0.76265 0
M  V30 1215 H 117.216 3.91411 0.601105 0
M  V30 1216 H 118.39 4.01796 -2.25602 0
M  V30 1217 H 116.705 3.70565 -1.89923 0
M  V30 1218 H 119.302 5.33522 0.354691 0
M  V30 1219 H 119.645 3.93921 1.34656 0
M  V30 1220 H 120.178 3.96239 -0.352056 0
M  V30 1221 H 116.917 6.06373 -2.48981 0
M  V30 1222 H 116.437 5.94691 -0.781214 0
M  V30 1223 H 118.116 6.35525 -1.21313 0
M  V30 1224 N 118.248 0.346503 1.53744 0
M  V30 1225 C 119.494 -0.249473 2.0126 0
M  V30 1226 C 119.827 -1.49965 1.23386 0
M  V30 1227 O 119.102 -1.91811 0.32229 0
M  V30 1228 C 119.385 -0.560643 3.55709 0
M  V30 1229 C 119.238 0.701836 4.44291 0
M  V30 1230 C 120.557 -1.36905 4.18264 0
M  V30 1231 H 117.676 -0.0891987 0.731582 0
M  V30 1232 H 120.318 0.467624 1.84156 0
M  V30 1233 H 118.468 -1.17156 3.70414 0
M  V30 1234 H 120.14 1.33974 4.41417 0
M  V30 1235 H 118.383 1.32612 4.13033 0
M  V30 1236 H 119.054 0.43933 5.50249 0
M  V30 1237 H 121.53 -0.852448 4.07275 0
M  V30 1238 H 120.406 -1.55553 5.26398 0
M  V30 1239 H 120.667 -2.37203 3.73078 0
M  V30 1240 N 119.726 -1.57421 0.075193 0
M  V30 1241 C 120.674 -2.14124 -0.908508 0
M  V30 1242 C 121.668 -1.07898 -1.30592 0
M  V30 1243 O 122.874 -1.26273 -1.28277 0
M  V30 1244 H 119.249 -0.684707 -0.310935 0
M  V30 1245 H 121.22 -2.95634 -0.405374 0
M  V30 1246 C 119.969 -2.72044 -2.16535 0
M  V30 1247 H 119.292 -3.53456 -1.86839 0
M  V30 1248 H 120.732 -3.15311 -2.83469 0
M  V30 1249 C 119.191 -1.66968 -2.92615 0
M  V30 1250 O 119.721 -1.0967 -3.86439 0
M  V30 1251 N 117.927 -1.37923 -2.55784 0
M  V30 1252 H 117.474 -1.84706 -1.79559 0
M  V30 1253 H 117.432 -0.67852 -3.06991 0
M  V30 1254 N 121.204 0.198386 -1.56346 0
M  V30 1255 C 122.167 1.22952 -1.93431 0
M  V30 1256 C 123.167 1.38611 -0.815092 0
M  V30 1257 O 124.357 1.36479 -1.08255 0
M  V30 1258 C 121.489 2.59946 -2.20546 0
M  V30 1259 H 122.682 0.912626 -2.85677 0
M  V30 1260 H 120.235 0.43977 -1.49986 0
M  V30 1261 H 120.97 2.96696 -1.30927 0
M  V30 1262 H 120.755 2.49953 -3.02102 0
M  V30 1263 H 122.245 3.3431 -2.50253 0
M  V30 1264 N 122.682 1.50554 0.465978 0
M  V30 1265 C 123.629 1.6979 1.56333 0
M  V30 1266 C 124.599 0.539239 1.57103 0
M  V30 1267 O 125.784 0.770401 1.74555 0
M  V30 1268 C 122.924 1.80273 2.94271 0
M  V30 1269 C 122.037 3.07674 3.0325 0
M  V30 1270 C 121.172 3.08922 4.32135 0
M  V30 1271 C 120.211 4.30755 4.34875 0
M  V30 1272 N 119.348 4.29714 5.55239 0
M  V30 1273 H 124.188 2.63472 1.39235 0
M  V30 1274 H 121.725 1.30602 0.676873 0
M  V30 1275 H 123.683 1.84332 3.74269 0
M  V30 1276 H 122.313 0.900258 3.09992 0
M  V30 1277 H 121.365 3.13062 2.16094 0
M  V30 1278 H 122.677 3.97642 3.01135 0
M  V30 1279 H 121.831 3.11738 5.20485 0
M  V30 1280 H 120.57 2.16792 4.36866 0
M  V30 1281 H 119.575 4.28146 3.44922 0
M  V30 1282 H 120.8 5.24117 4.31831 0
M  V30 1283 H 118.746 3.4044 5.60746 0
M  V30 1284 H 118.663 5.13456 5.54886 0
M  V30 1285 H 119.931 4.36683 6.457 0
M  V30 1286 N 124.16 -0.719506 1.40217 0
M  V30 1287 C 125.407 -1.47933 1.38283 0
M  V30 1288 C 125.735 -1.94493 -0.0161536 0
M  V30 1289 O 124.99 -1.68224 -0.999956 0
M  V30 1290 C 125.289 -2.72271 2.31524 0
M  V30 1291 C 124.955 -2.44496 3.78857 0
M  V30 1292 C 123.617 -2.36631 4.18998 0
M  V30 1293 C 125.969 -2.21104 4.71977 0
M  V30 1294 C 123.297 -2.03437 5.503 0
M  V30 1295 C 125.649 -1.89423 6.03574 0
M  V30 1296 C 124.313 -1.80038 6.42762 0
M  V30 1297 H 123.583 -0.541325 0.506012 0
M  V30 1298 H 126.23 -0.824502 1.72842 0
M  V30 1299 H 124.535 -3.42572 1.90137 0
M  V30 1300 H 126.232 -3.30348 2.27313 0
M  V30 1301 H 122.822 -2.51503 3.47051 0
M  V30 1302 H 127.006 -2.26139 4.41786 0
M  V30 1303 H 122.262 -1.94705 5.79569 0
M  V30 1304 H 126.436 -1.70336 6.75247 0
M  V30 1305 H 124.063 -1.54083 7.44421 0
M  V30 1306 N 125.638 -1.25649 -0.95132 0
M  V30 1307 C 126.548 -1.08073 -2.08224 0
M  V30 1308 C 127.564 -0.0169666 -1.73992 0
M  V30 1309 O 128.74 -0.218593 -2.0021 0
M  V30 1310 C 125.805 -0.704922 -3.39458 0
M  V30 1311 C 124.866 -1.84699 -3.87537 0
M  V30 1312 C 124.099 -1.48902 -5.12508 0
M  V30 1313 O 124.322 -0.386156 -5.69091 0
M  V30 1314 O 123.256 -2.32033 -5.55378 0
M  V30 1315 H 127.082 -2.02924 -2.25954 0
M  V30 1316 H 124.667 -1.04618 -1.06656 0
M  V30 1317 H 126.549 -0.507609 -4.18332 0
M  V30 1318 H 125.224 0.214291 -3.2299 0
M  V30 1319 H 124.131 -2.09919 -3.09653 0
M  V30 1320 H 125.464 -2.74557 -4.08509 0
M  V30 1321 N 127.117 1.15442 -1.07289 0
M  V30 1322 C 128.394 1.82306 -0.708792 0
M  V30 1323 C 128.774 1.94991 0.808807 0
M  V30 1324 O 128.122 1.50085 1.72298 0
M  V30 1325 C 128.332 3.18695 -1.42247 0
M  V30 1326 C 129.68 3.94341 -1.57417 0
M  V30 1327 O 130.704 3.28247 -1.38319 0
M  V30 1328 O 129.563 5.12839 -1.88834 0
M  V30 1329 H 126.657 0.787628 -0.252132 0
M  V30 1330 H 129.203 1.22559 -1.17377 0
M  V30 1331 H 127.975 3.04557 -2.45684 0
M  V30 1332 H 127.598 3.86128 -0.948223 0
M  V30 1333 N 128.595 0.856903 1.32268 0
M  V30 1334 C 129.82 0.474569 2.01897 0
M  V30 1335 C 130.245 -0.921766 1.63967 0
M  V30 1336 O 129.603 -1.60589 0.84148 0
M  V30 1337 C 129.651 0.623799 3.55164 0
M  V30 1338 O 128.755 -0.342459 4.10976 0
M  V30 1339 H 128.096 0.190422 0.63611 0
M  V30 1340 H 130.626 1.15672 1.68764 0
M  V30 1341 H 130.636 0.512169 4.04773 0
M  V30 1342 H 129.311 1.64202 3.82113 0
M  V30 1343 H 127.888 -0.18688 3.72431 0
M  V30 1344 N 130.073 -1.45103 0.615059 0
M  V30 1345 C 131.321 -2.01784 0.112955 0
M  V30 1346 C 131.642 -1.48504 -1.26378 0
M  V30 1347 O 130.912 -0.682245 -1.83636 0
M  V30 1348 H 129.492 -0.745993 0.0387668 0
M  V30 1349 H 132.154 -1.77808 0.798141 0
M  V30 1350 H 131.25 -3.12025 0.0684069 0
M  V30 1351 N 131.551 -0.354651 -1.53558 0
M  V30 1352 C 132.461 0.50515 -2.29097 0
M  V30 1353 C 133.477 1.10223 -1.34636 0
M  V30 1354 O 134.653 1.11553 -1.67684 0
M  V30 1355 C 131.718 1.63479 -3.05738 0
M  V30 1356 C 130.779 1.06636 -4.15845 0
M  V30 1357 C 130.012 2.14217 -4.88822 0
M  V30 1358 O 130.235 3.35137 -4.61562 0
M  V30 1359 O 129.169 1.77887 -5.75013 0
M  V30 1360 H 132.995 -0.109237 -3.03503 0
M  V30 1361 H 130.58 -0.119357 -1.48922 0
M  V30 1362 H 132.462 2.2918 -3.5363 0
M  V30 1363 H 131.137 2.23478 -2.34178 0
M  V30 1364 H 130.044 0.373565 -3.7223 0
M  V30 1365 H 131.377 0.511081 -4.89539 0
M  V30 1366 N 133.029 1.57378 -0.0835403 0
M  V30 1367 C 134.259 1.97975 0.590713 0
M  V30 1368 C 134.667 0.961083 1.62972 0
M  V30 1369 O 134.01 -0.0590879 1.83605 0
M  V30 1370 C 134.072 3.34915 1.3066 0
M  V30 1371 C 133.736 4.55069 0.419698 0
M  V30 1372 C 134.733 5.18868 -0.32749 0
M  V30 1373 C 132.418 5.0114 0.341137 0
M  V30 1374 C 134.412 6.27098 -1.14134 0
M  V30 1375 C 132.099 6.0924 -0.476374 0
M  V30 1376 C 133.097 6.72083 -1.21627 0
M  V30 1377 O 132.785 7.781 -2.02028 0
M  V30 1378 H 132.517 0.655818 0.163947 0
M  V30 1379 H 135.071 2.04807 -0.156021 0
M  V30 1380 H 133.301 3.24733 2.09966 0
M  V30 1381 H 134.99 3.60037 1.87424 0
M  V30 1382 H 135.756 4.84211 -0.276459 0
M  V30 1383 H 131.635 4.51996 0.90668 0
M  V30 1384 H 135.179 6.7608 -1.71935 0
M  V30 1385 H 131.076 6.43329 -0.528927 0
M  V30 1386 H 131.844 7.95034 -1.94586 0
M  V30 1387 N 134.507 -0.190092 1.56449 0
M  V30 1388 C 135.454 -1.23557 1.94942 0
M  V30 1389 C 136.424 -1.44972 0.810696 0
M  V30 1390 O 137.609 -1.58023 1.06927 0
M  V30 1391 C 134.749 -2.57416 2.2985 0
M  V30 1392 C 133.862 -2.43537 3.5681 0
M  V30 1393 C 132.997 -3.70134 3.81017 0
M  V30 1394 C 132.036 -3.51109 5.01387 0
M  V30 1395 N 131.173 -4.6973 5.21822 0
M  V30 1396 H 136.013 -0.900304 2.84075 0
M  V30 1397 H 133.55 -0.43318 1.40577 0
M  V30 1398 H 135.508 -3.35409 2.48106 0
M  V30 1399 H 134.138 -2.88975 1.43852 0
M  V30 1400 H 133.19 -1.56816 3.46573 0
M  V30 1401 H 134.502 -2.25415 4.4496 0
M  V30 1402 H 133.656 -4.56566 3.9954 0
M  V30 1403 H 132.395 -3.91215 2.91207 0
M  V30 1404 H 131.4 -2.63063 4.82782 0
M  V30 1405 H 132.625 -3.31468 5.9271 0
M  V30 1406 H 130.571 -4.91065 4.34961 0
M  V30 1407 H 130.488 -4.54452 6.0416 0
M  V30 1408 H 131.756 -5.57499 5.44808 0
M  V30 1409 N 135.985 -1.50799 -0.457987 0
M  V30 1410 C 137.225 -1.64088 -1.21879 0
M  V30 1411 C 137.589 -0.339848 -1.88968 0
M  V30 1412 O 138.79 -0.348301 -2.66534 0
M  V30 1413 C 137.061 -2.79726 -2.2246 0
M  V30 1414 S 138.62 -3.13225 -3.07303 0
M  V30 1415 H 135.438 -0.578314 -0.41361 0
M  V30 1416 H 138.04 -1.88632 -0.513645 0
M  V30 1417 H 136.744 -3.72722 -1.71775 0
M  V30 1418 H 136.275 -2.57308 -2.97584 0
M  V30 1419 H 138.29 -2.58062 -4.23814 0
M  V30 1420 N 137.463 0.71206 -1.40597 0
M  V30 1421 C 138.395 1.83704 -1.37061 0
M  V30 1422 C 139.408 1.60453 -0.275426 0
M  V30 1423 O 140.597 1.70262 -0.53602 0
M  V30 1424 C 137.697 3.20172 -1.11099 0
M  V30 1425 C 136.87 3.7059 -2.3234 0
M  V30 1426 C 135.929 4.85681 -2.02485 0
M  V30 1427 O 134.955 4.9815 -2.75382 0
M  V30 1428 N 136.157 5.71735 -1.00497 0
M  V30 1429 H 138.922 1.87235 -2.34016 0
M  V30 1430 H 136.483 0.893739 -1.34996 0
M  V30 1431 H 138.475 3.94768 -0.891064 0
M  V30 1432 H 137.045 3.11767 -0.227989 0
M  V30 1433 H 136.265 2.87085 -2.7014 0
M  V30 1434 H 137.553 4.01011 -3.13157 0
M  V30 1435 H 136.951 5.64275 -0.401298 0
M  V30 1436 H 135.508 6.463 -0.844942 0
M  V30 1437 N 138.941 1.26152 0.944643 0
M  V30 1438 C 139.891 1.04081 2.02857 0
M  V30 1439 C 140.875 -0.0256555 1.6088 0
M  V30 1440 O 142.067 0.190884 1.75968 0
M  V30 1441 C 139.196 0.672118 3.36656 0
M  V30 1442 C 138.282 1.77586 3.85128 0
M  V30 1443 N 138.673 3.01272 4.06287 0
M  V30 1444 C 136.971 1.65867 4.1401 0
M  V30 1445 C 137.672 3.72983 4.46384 0
M  V30 1446 N 136.648 3.00653 4.52889 0
M  V30 1447 H 140.45 1.97968 2.17223 0
M  V30 1448 H 137.964 1.16618 1.13022 0
M  V30 1449 H 139.961 0.495166 4.13949 0
M  V30 1450 H 138.621 -0.259307 3.23663 0
M  V30 1451 H 139.632 3.37213 3.93075 0
M  V30 1452 H 136.309 0.796907 4.09824 0
M  V30 1453 H 137.699 4.792 4.70975 0
M  V30 1454 N 140.419 -1.14872 1.07899 0
M  V30 1455 C 141.351 -2.19425 0.662231 0
M  V30 1456 C 142.364 -1.60231 -0.288079 0
M  V30 1457 O 143.553 -1.78336 -0.076534 0
M  V30 1458 C 140.653 -3.38867 -0.0470695 0
M  V30 1459 C 139.826 -4.27597 0.920831 0
M  V30 1460 C 138.885 -5.25616 0.247805 0
M  V30 1461 O 137.911 -5.62189 0.890599 0
M  V30 1462 N 139.113 -5.71746 -1.00435 0
M  V30 1463 H 141.878 -2.55797 1.56166 0
M  V30 1464 H 139.439 -1.30042 0.964404 0
M  V30 1465 H 141.431 -4.01497 -0.50813 0
M  V30 1466 H 140.001 -3.00864 -0.848523 0
M  V30 1467 H 139.221 -3.61982 1.56087 0
M  V30 1468 H 140.509 -4.83748 1.57688 0
M  V30 1469 H 139.907 -5.44153 -1.54642 0
M  V30 1470 H 138.464 -6.36389 -1.40899 0
M  V30 1471 N 141.898 -0.863906 -1.31812 0
M  V30 1472 C 142.83 -0.272485 -2.27575 0
M  V30 1473 C 143.843 0.56104 -1.52827 0
M  V30 1474 O 145.032 0.384021 -1.7432 0
M  V30 1475 C 142.132 0.63283 -3.32939 0
M  V30 1476 C 141.305 -0.166902 -4.37081 0
M  V30 1477 C 140.364 0.665608 -5.21973 0
M  V30 1478 O 139.39 0.0958091 -5.69119 0
M  V30 1479 N 140.592 1.9787 -5.45736 0
M  V30 1480 H 143.357 -1.0954 -2.78964 0
M  V30 1481 H 140.918 -0.724791 -1.4477 0
M  V30 1482 H 142.91 1.19532 -3.86645 0
M  V30 1483 H 141.48 1.35642 -2.81638 0
M  V30 1484 H 140.7 -0.910838 -3.83533 0
M  V30 1485 H 141.988 -0.715874 -5.03739 0
M  V30 1486 H 141.386 2.46484 -5.09178 0
M  V30 1487 H 139.943 2.48911 -6.024 0
M  V30 1488 N 143.376 1.44774 -0.622745 0
M  V30 1489 C 144.622 2.0242 -0.124083 0
M  V30 1490 C 144.955 1.4881 1.24777 0
M  V30 1491 O 144.23 0.668799 1.8264 0
M  V30 1492 C 144.513 3.59957 -0.101619 0
M  V30 1493 C 144.366 4.23867 -1.50521 0
M  V30 1494 C 145.685 4.36284 0.578272 0
M  V30 1495 H 142.804 0.735528 -0.0465645 0
M  V30 1496 H 145.446 1.72447 -0.797617 0
M  V30 1497 H 143.596 3.85623 0.471934 0
M  V30 1498 H 145.268 4.09336 -2.12701 0
M  V30 1499 H 143.511 3.81684 -2.06154 0
M  V30 1500 H 144.182 5.32843 -1.4416 0
M  V30 1501 H 146.658 4.16001 0.0906057 0
M  V30 1502 H 145.534 5.46004 0.563149 0
M  V30 1503 H 145.795 4.10271 1.64713 0
M  V30 1504 N 144.854 0.36279 1.53368 0
M  V30 1505 C 145.802 -0.500155 2.27159 0
M  V30 1506 C 146.796 -1.08575 1.3003 0
M  V30 1507 O 148.002 -1.02927 1.47668 0
M  V30 1508 H 144.377 -0.180009 0.730138 0
M  V30 1509 H 146.348 0.14401 2.98052 0
M  V30 1510 C 145.097 -1.62937 3.07159 0
M  V30 1511 H 144.42 -1.18806 3.8174 0
M  V30 1512 H 145.86 -2.20795 3.61975 0
M  V30 1513 C 144.319 -2.57007 2.17829 0
M  V30 1514 O 144.849 -3.59752 1.78721 0
M  V30 1515 N 143.055 -2.26131 1.82518 0
M  V30 1516 H 142.602 -1.42616 2.14519 0
M  V30 1517 H 142.56 -2.89327 1.23034 0
M  V30 1518 N 146.332 -1.57332 0.0918853 0
M  V30 1519 C 147.242 -2.17368 -0.882505 0
M  V30 1520 C 148.258 -1.14226 -1.31257 0
M  V30 1521 O 149.434 -1.46582 -1.38115 0
M  V30 1522 C 146.499 -2.73962 -2.12476 0
M  V30 1523 C 145.56 -3.92048 -1.7492 0
M  V30 1524 C 144.793 -4.45933 -2.93223 0
M  V30 1525 O 145.016 -3.98764 -4.07852 0
M  V30 1526 O 143.95 -5.36999 -2.71875 0
M  V30 1527 H 147.776 -3.01031 -0.40172 0
M  V30 1528 H 145.361 -1.48813 -0.132291 0
M  V30 1529 H 147.243 -3.10147 -2.85283 0
M  V30 1530 H 145.918 -1.93347 -2.59613 0
M  V30 1531 H 144.825 -3.6068 -0.993025 0
M  V30 1532 H 146.158 -4.74017 -1.32548 0
M  V30 1533 N 147.81 0.181792 -1.56548 0
M  V30 1534 C 149.035 0.920019 -1.85877 0
M  V30 1535 C 149.46 1.75494 -0.677021 0
M  V30 1536 O 148.818 1.77399 0.374056 0
M  V30 1537 C 148.866 1.78112 -3.13542 0
M  V30 1538 O 147.97 2.88152 -2.95029 0
M  V30 1539 H 147.311 0.258334 -0.611686 0
M  V30 1540 H 149.841 0.183092 -2.03779 0
M  V30 1541 H 149.851 2.18314 -3.44678 0
M  V30 1542 H 148.526 1.16777 -3.99169 0
M  V30 1543 H 147.103 2.51609 -2.75222 0
M  V30 1544 N 149.288 1.51039 0.449983 0
M  V30 1545 C 150.198 1.74261 1.57067 0
M  V30 1546 C 151.214 0.626363 1.62335 0
M  V30 1547 O 152.39 0.907162 1.79812 0
M  V30 1548 C 149.455 1.85114 2.93144 0
M  V30 1549 C 148.516 3.0893 2.98095 0
M  V30 1550 C 147.749 3.19256 4.27681 0
M  V30 1551 O 147.972 2.35835 5.19363 0
M  V30 1552 O 146.906 4.12144 4.38658 0
M  V30 1553 H 150.732 2.69303 1.40391 0
M  V30 1554 H 148.317 1.35389 0.631688 0
M  V30 1555 H 150.199 1.94311 3.73926 0
M  V30 1556 H 148.874 0.932588 3.09975 0
M  V30 1557 H 147.781 3.0522 2.16314 0
M  V30 1558 H 149.114 4.00433 2.86206 0
M  V30 1559 N 150.766 -0.704594 1.40972 0
M  V30 1560 C 152.177 -1.28418 1.3552 0
M  V30 1561 C 152.528 -1.96171 0.0339434 0
M  V30 1562 O 151.653 -1.98231 -0.867944 0
M  V30 1563 C 152.248 -2.33528 2.45459 0
M  V30 1564 C 150.807 -2.87085 2.43433 0
M  V30 1565 C 149.954 -1.61007 2.2577 0
M  V30 1566 H 152.905 -0.499963 1.50619 0
M  V30 1567 H 152.926 -3.14619 2.13998 0
M  V30 1568 H 152.438 -1.84187 3.41609 0
M  V30 1569 H 150.539 -3.40626 1.51013 0
M  V30 1570 H 150.652 -3.3813 3.39419 0
M  V30 1571 H 149.016 -1.86482 1.73483 0
M  V30 1572 H 149.799 -1.13675 3.23933 0
M  V30 1573 N 152.244 -1.26651 -0.937939 0
M  V30 1574 C 153.49 -1.12553 -1.687 0
M  V30 1575 C 153.823 0.329782 -1.91379 0
M  V30 1576 O 153.098 1.24202 -1.4968 0
M  V30 1577 C 153.381 -1.89862 -3.05981 0
M  V30 1578 C 153.234 -3.43318 -2.90607 0
M  V30 1579 C 154.553 -1.69499 -4.0615 0
M  V30 1580 H 151.672 -0.410257 -0.612257 0
M  V30 1581 H 154.314 -1.55685 -1.08913 0
M  V30 1582 H 152.464 -1.53204 -3.57017 0
M  V30 1583 H 154.136 -3.89747 -2.46769 0
M  V30 1584 H 152.379 -3.70179 -2.26164 0
M  V30 1585 H 153.05 -3.92642 -3.8799 0
M  V30 1586 H 155.526 -2.01442 -3.64088 0
M  V30 1587 H 154.402 -2.26002 -5.00214 0
M  V30 1588 H 154.663 -0.640365 -4.37438 0
M  V30 1589 N 153.722 1.14298 -1.08507 0
M  V30 1590 C 154.952 1.88945 -0.835663 0
M  V30 1591 C 155.36 1.78894 0.615928 0
M  V30 1592 O 154.703 1.1468 1.43506 0
M  V30 1593 C 154.765 3.39585 -1.17994 0
M  V30 1594 C 154.429 3.7342 -2.63451 0
M  V30 1595 C 155.426 3.73454 -3.61702 0
M  V30 1596 C 153.111 4.03368 -2.99332 0
M  V30 1597 C 155.105 4.02961 -4.93864 0
M  V30 1598 C 152.792 4.32538 -4.31687 0
M  V30 1599 C 153.79 4.32318 -5.28763 0
M  V30 1600 O 153.478 4.6078 -6.58739 0
M  V30 1601 H 153.21 0.605307 -0.300965 0
M  V30 1602 H 155.764 1.45673 -1.44806 0
M  V30 1603 H 153.994 3.83315 -0.51055 0
M  V30 1604 H 155.683 3.9554 -0.911182 0
M  V30 1605 H 156.449 3.50403 -3.35325 0
M  V30 1606 H 152.328 4.02692 -2.24411 0
M  V30 1607 H 155.872 4.02704 -5.69627 0
M  V30 1608 H 151.769 4.55059 -4.57812 0
M  V30 1609 H 152.537 4.78492 -6.64069 0
M  V30 1610 N 155.201 0.870884 1.31352 0
M  V30 1611 C 156.131 0.343096 2.30966 0
M  V30 1612 C 157.112 -0.566507 1.60389 0
M  V30 1613 O 158.297 -0.483336 1.88089 0
M  V30 1614 C 155.427 -0.455487 3.443 0
M  V30 1615 C 154.381 0.361103 4.26474 0
M  V30 1616 C 153.707 -0.563221 5.31725 0
M  V30 1617 C 155.007 1.59566 4.97329 0
M  V30 1618 H 156.701 1.17548 2.75359 0
M  V30 1619 H 154.247 0.566686 1.32381 0
M  V30 1620 H 156.2 -0.83525 4.13039 0
M  V30 1621 H 154.924 -1.32139 2.98675 0
M  V30 1622 H 153.583 0.722825 3.59403 0
M  V30 1623 H 153.231 -1.42643 4.82351 0
M  V30 1624 H 152.931 -0.0207409 5.87596 0
M  V30 1625 H 154.455 -0.939808 6.03324 0
M  V30 1626 H 155.869 1.28728 5.58661 0
M  V30 1627 H 154.266 2.07728 5.63 0
M  V30 1628 H 155.336 2.34798 4.24262 0
M  V30 1629 N 156.679 -1.44442 0.630414 0
M  V30 1630 C 157.589 -2.34476 -0.0761693 0
M  V30 1631 C 158.605 -1.52576 -0.836449 0
M  V30 1632 O 159.781 -1.85307 -0.788874 0
M  V30 1633 C 156.846 -3.30545 -1.04599 0
M  V30 1634 C 155.907 -4.28352 -0.28516 0
M  V30 1635 C 155.14 -5.19831 -1.20878 0
M  V30 1636 O 155.363 -5.15223 -2.44747 0
M  V30 1637 O 154.297 -5.97892 -0.693491 0
M  V30 1638 H 158.123 -2.96345 0.664324 0
M  V30 1639 H 155.708 -1.44203 0.39061 0
M  V30 1640 H 157.59 -3.89681 -1.60396 0
M  V30 1641 H 156.265 -2.7121 -1.76711 0
M  V30 1642 H 155.172 -3.72764 0.315837 0
M  V30 1643 H 156.505 -4.90605 0.395924 0
M  V30 1644 N 158.157 -0.370918 -1.53173 0
M  V30 1645 C 159.403 0.217423 -2.01631 0
M  V30 1646 C 159.736 1.47983 -1.25756 0
M  V30 1647 O 159.011 1.91274 -0.352764 0
M  V30 1648 C 159.294 0.503982 -3.56556 0
M  V30 1649 C 159.147 -0.77243 -4.43118 0
M  V30 1650 C 160.466 1.30234 -4.20389 0
M  V30 1651 H 157.585 0.0775486 -0.732909 0
M  V30 1652 H 160.227 -0.496863 -1.83388 0
M  V30 1653 H 158.377 1.11248 -3.72231 0
M  V30 1654 H 160.049 -1.4098 -4.39229 0
M  V30 1655 H 158.292 -1.39167 -4.10871 0
M  V30 1656 H 158.963 -0.526815 -5.4948 0
M  V30 1657 H 161.439 0.787546 -4.08579 0
M  V30 1658 H 160.315 1.47158 -5.28806 0
M  V30 1659 H 160.576 2.31237 -3.76805 0
M  V30 1660 N 159.635 1.57281 -0.100228 0
M  V30 1661 C 160.882 1.94537 0.562268 0
M  V30 1662 C 161.21 0.982315 1.67871 0
M  V30 1663 O 160.465 0.00280936 1.957 0
M  V30 1664 C 160.764 3.38305 1.15259 0
M  V30 1665 C 160.43 4.50618 0.159409 0
M  V30 1666 C 159.092 4.81066 -0.113741 0
M  V30 1667 C 161.444 5.18615 -0.518461 0
M  V30 1668 C 158.772 5.76835 -1.07137 0
M  V30 1669 C 161.124 6.15412 -1.46459 0
M  V30 1670 C 159.788 6.44262 -1.74592 0
M  V30 1671 H 159.058 0.711863 0.205748 0
M  V30 1672 H 161.705 1.90679 -0.17715 0
M  V30 1673 H 160.01 3.38766 1.96836 0
M  V30 1674 H 161.707 3.64435 1.67297 0
M  V30 1675 H 158.297 4.2689 0.382491 0
M  V30 1676 H 162.481 4.95264 -0.320581 0
M  V30 1677 H 157.737 5.975 -1.29628 0
M  V30 1678 H 161.911 6.67194 -1.99564 0
M  V30 1679 H 159.538 7.1828 -2.48953 0
M  V30 1680 N 161.113 -0.173488 1.56642 0
M  V30 1681 C 162.338 -0.910149 1.86363 0
M  V30 1682 C 162.763 -1.75132 0.686318 0
M  V30 1683 O 162.121 -1.77595 -0.364643 0
M  V30 1684 C 162.169 -1.76447 3.14482 0
M  V30 1685 O 161.273 -2.86584 2.96553 0
M  V30 1686 H 160.614 -0.255086 0.613047 0
M  V30 1687 H 163.144 -0.172283 2.03873 0
M  V30 1688 H 163.154 -2.16483 3.45831 0
M  V30 1689 H 161.829 -1.14658 3.99783 0
M  V30 1690 H 160.406 -2.50146 2.76553 0
M  V30 1691 N 162.591 -1.51276 -0.441967 0
M  V30 1692 C 163.868 -1.54252 -1.20273 0
M  V30 1693 C 164.248 -0.30408 -2.08898 0
M  V30 1694 O 163.596 0.711084 -2.17154 0
M  V30 1695 C 163.806 -2.85406 -2.00859 0
M  V30 1696 C 165.154 -3.37181 -2.58059 0
M  V30 1697 O 166.178 -2.86925 -2.11074 0
M  V30 1698 O 165.037 -4.24858 -3.43741 0
M  V30 1699 H 162.131 -0.619969 -0.547328 0
M  V30 1700 H 164.677 -1.63586 -0.451413 0
M  V30 1701 H 163.449 -3.67003 -1.35736 0
M  V30 1702 H 163.072 -2.79213 -2.83065 0
M  V30 1703 N 164.069 0.697108 -1.41344 0
M  V30 1704 C 165.315 1.45796 -1.41828 0
M  V30 1705 C 165.67 1.92382 -0.0261743 0
M  V30 1706 O 164.963 1.66522 0.947688 0
M  V30 1707 C 165.157 2.68553 -2.35826 0
M  V30 1708 C 164.986 2.33975 -3.84039 0
M  V30 1709 C 163.756 2.24414 -4.52732 0
M  V30 1710 C 165.954 1.97048 -4.75054 0
M  V30 1711 N 163.936 1.82705 -5.86082 0
M  V30 1712 C 165.307 1.66086 -5.9734 0
M  V30 1713 C 167.362 1.83845 -4.62715 0
M  V30 1714 C 166.065 1.23246 -7.08663 0
M  V30 1715 C 168.091 1.4241 -5.73998 0
M  V30 1716 C 167.453 1.12357 -6.95381 0
M  V30 1717 H 163.552 0.530859 -0.574206 0
M  V30 1718 H 166.136 0.806674 -1.77203 0
M  V30 1719 H 164.307 3.31404 -2.02549 0
M  V30 1720 H 166.039 3.35015 -2.2704 0
M  V30 1721 H 162.794 2.4276 -4.0665 0
M  V30 1722 H 163.218 1.64337 -6.56751 0
M  V30 1723 H 167.86 2.05734 -3.69369 0
M  V30 1724 H 165.578 1.00102 -8.01876 0
M  V30 1725 H 169.164 1.32746 -5.66454 0
M  V30 1726 H 168.044 0.807795 -7.80028 0
M  V30 1727 N 165.547 1.27147 0.931209 0
M  V30 1728 C 166.477 1.12081 2.04842 0
M  V30 1729 C 167.458 0.0232364 1.70084 0
M  V30 1730 O 168.643 0.197085 1.93197 0
M  V30 1731 C 165.773 0.76354 3.38803 0
M  V30 1732 C 164.727 1.81396 3.87659 0
M  V30 1733 C 164.053 1.31075 5.18385 0
M  V30 1734 C 165.353 3.21739 4.11438 0
M  V30 1735 H 167.047 2.05537 2.17703 0
M  V30 1736 H 164.593 0.989603 1.04608 0
M  V30 1737 H 166.546 0.644982 4.16435 0
M  V30 1738 H 165.27 -0.206727 3.25945 0
M  V30 1739 H 163.929 1.92136 3.12217 0
M  V30 1740 H 163.577 0.330037 5.01916 0
M  V30 1741 H 163.277 2.013 5.52044 0
M  V30 1742 H 164.801 1.20506 5.98591 0
M  V30 1743 H 166.215 3.14019 4.79651 0
M  V30 1744 H 164.612 3.89644 4.56397 0
M  V30 1745 H 165.682 3.67054 3.16859 0
M  V30 1746 N 167.025 -1.13721 1.09112 0
M  V30 1747 C 167.955 -2.21148 0.749385 0
M  V30 1748 C 168.936 -1.6792 -0.271475 0
M  V30 1749 O 170.121 -1.93693 -0.140251 0
M  V30 1750 C 167.251 -3.46905 0.165659 0
M  V30 1751 C 166.205 -4.13203 1.11567 0
M  V30 1752 C 165.531 -5.33248 0.393809 0
M  V30 1753 C 166.831 -4.60912 2.45678 0
M  V30 1754 H 168.525 -2.4999 1.64758 0
M  V30 1755 H 166.071 -1.20156 0.793626 0
M  V30 1756 H 168.024 -4.21313 -0.085466 0
M  V30 1757 H 166.748 -3.17449 -0.767714 0
M  V30 1758 H 165.407 -3.40758 1.35202 0
M  V30 1759 H 165.055 -5.00054 -0.543599 0
M  V30 1760 H 164.755 -5.78552 1.02721 0
M  V30 1761 H 166.279 -6.10413 0.150908 0
M  V30 1762 H 167.693 -5.26759 2.26269 0
M  V30 1763 H 166.09 -5.16944 3.04776 0
M  V30 1764 H 167.16 -3.75603 3.06677 0
M  V30 1765 N 168.503 -0.877838 -1.30888 0
M  V30 1766 C 169.433 -0.35534 -2.3078 0
M  V30 1767 C 170.414 0.557994 -1.60687 0
M  V30 1768 O 171.599 0.473355 -1.88343 0
M  V30 1769 C 168.729 0.437221 -3.44537 0
M  V30 1770 C 167.683 -0.383715 -4.26276 0
M  V30 1771 C 167.009 0.535014 -5.32017 0
M  V30 1772 C 168.309 -1.62201 -4.96476 0
M  V30 1773 H 170.003 -1.19007 -2.74732 0
M  V30 1774 H 167.549 -0.573698 -1.32078 0
M  V30 1775 H 169.502 0.813334 -4.13477 0
M  V30 1776 H 168.226 1.30553 -2.99372 0
M  V30 1777 H 166.885 -0.741874 -3.59015 0
M  V30 1778 H 166.533 1.40083 -4.831 0
M  V30 1779 H 166.233 -0.0104211 -5.87599 0
M  V30 1780 H 167.757 0.907799 -6.03814 0
M  V30 1781 H 169.171 -1.31689 -5.5797 0
M  V30 1782 H 167.568 -2.10711 -5.61891 0
M  V30 1783 H 168.638 -2.37044 -4.23011 0
M  V30 1784 N 169.982 1.44106 -0.638065 0
M  V30 1785 C 170.914 2.28976 0.101205 0
M  V30 1786 C 171.927 1.4167 0.802088 0
M  V30 1787 O 173.116 1.65755 0.662375 0
M  V30 1788 C 170.216 3.18217 1.16581 0
M  V30 1789 C 169.389 4.33978 0.546066 0
M  V30 1790 C 168.448 5.04202 1.50554 0
M  V30 1791 O 167.474 5.59986 1.01999 0
M  V30 1792 N 168.676 5.06296 2.8398 0
M  V30 1793 H 171.441 2.93064 -0.627186 0
M  V30 1794 H 169.002 1.54629 -0.479731 0
M  V30 1795 H 170.994 3.62061 1.80815 0
M  V30 1796 H 169.564 2.55833 1.79634 0
M  V30 1797 H 168.784 3.93239 -0.275046 0
M  V30 1798 H 170.072 5.08675 0.112793 0
M  V30 1799 H 169.47 4.62319 3.26002 0
M  V30 1800 H 168.027 5.53907 3.43556 0
M  V30 1801 N 171.46 0.379036 1.52974 0
M  V30 1802 C 172.423 -0.448865 2.24762 0
M  V30 1803 C 173.423 -0.998689 1.26027 0
M  V30 1804 O 174.613 -0.882313 1.50203 0
M  V30 1805 C 171.745 -1.62872 2.99476 0
M  V30 1806 H 172.938 0.179491 2.99362 0
M  V30 1807 H 170.491 0.13096 1.5575 0
M  V30 1808 H 171.226 -2.29479 2.29151 0
M  V30 1809 H 171.011 -1.24128 3.71934 0
M  V30 1810 H 172.501 -2.2151 3.5401 0
M  V30 1811 N 172.938 -1.57226 0.108567 0
M  V30 1812 C 174.163 -1.99604 -0.563303 0
M  V30 1813 C 174.588 -0.987563 -1.6009 0
M  V30 1814 O 173.946 0.0421687 -1.81251 0
M  V30 1815 C 173.994 -3.40902 -1.17552 0
M  V30 1816 O 173.098 -3.42896 -2.2912 0
M  V30 1817 H 172.439 -0.648704 -0.1417 0
M  V30 1818 H 174.969 -2.03679 0.193961 0
M  V30 1819 H 174.979 -3.78886 -1.51357 0
M  V30 1820 H 173.654 -4.1382 -0.415445 0
M  V30 1821 H 172.231 -3.1672 -1.96832 0
M  V30 1822 N 174.416 0.165178 -1.56732 0
M  V30 1823 C 175.379 1.18822 -1.95995 0
M  V30 1824 C 176.379 1.3685 -0.84431 0
M  V30 1825 O 177.569 1.34152 -1.11126 0
M  V30 1826 C 174.701 2.5521 -2.26011 0
M  V30 1827 H 175.894 0.851825 -2.87548 0
M  V30 1828 H 173.447 0.407857 -1.50885 0
M  V30 1829 H 174.182 2.93852 -1.37191 0
M  V30 1830 H 173.967 2.43489 -3.07336 0
M  V30 1831 H 175.457 3.28927 -2.57288 0
M  V30 1832 N 175.894 1.51508 0.433938 0
M  V30 1833 C 176.804 1.75917 1.5521 0
M  V30 1834 C 177.82 0.643545 1.61662 0
M  V30 1835 O 178.996 0.926183 1.7884 0
M  V30 1836 C 176.061 1.88213 2.91164 0
M  V30 1837 C 175.122 3.12074 2.94802 0
M  V30 1838 C 174.355 3.23774 4.24271 0
M  V30 1839 O 174.578 2.4133 5.16833 0
M  V30 1840 O 173.512 4.16774 4.34262 0
M  V30 1841 H 177.338 2.70777 1.37527 0
M  V30 1842 H 174.923 1.36051 0.617293 0
M  V30 1843 H 176.805 1.98267 3.71845 0
M  V30 1844 H 175.48 0.965413 3.08968 0
M  V30 1845 H 174.387 3.07497 2.13065 0
M  V30 1846 H 175.72 4.03446 2.81943 0
M  V30 1847 N 177.372 -0.689602 1.41712 0
M  V30 1848 C 178.618 -1.45181 1.41599 0
M  V30 1849 C 178.951 -1.94181 0.0270081 0
M  V30 1850 O 178.226 -1.6993 -0.946265 0
M  V30 1851 C 178.509 -2.65945 2.42787 0
M  V30 1852 C 178.362 -2.22672 3.90816 0
M  V30 1853 C 179.681 -3.68149 2.41151 0
M  V30 1854 H 176.8 -0.526576 0.515642 0
M  V30 1855 H 179.442 -0.784947 1.73028 0
M  V30 1856 H 177.592 -3.2284 2.16116 0
M  V30 1857 H 179.264 -1.71058 4.28412 0
M  V30 1858 H 177.507 -1.54394 4.05395 0
M  V30 1859 H 178.178 -3.0935 4.57172 0
M  V30 1860 H 180.654 -3.2094 2.64834 0
M  V30 1861 H 179.53 -4.50248 3.13955 0
M  V30 1862 H 179.791 -4.18259 1.43221 0
M  V30 1863 N 178.85 -1.27639 -0.924453 0
M  V30 1864 C 180.096 -1.14336 -1.67497 0
M  V30 1865 C 180.429 0.309465 -1.91718 0
M  V30 1866 O 179.704 1.22608 -1.50989 0
M  V30 1867 C 179.987 -1.93096 -3.0395 0
M  V30 1868 C 179.84 -3.46381 -2.8695 0
M  V30 1869 C 181.159 -1.73798 -4.0433 0
M  V30 1870 H 178.278 -0.416728 -0.607871 0
M  V30 1871 H 180.92 -1.56832 -1.07256 0
M  V30 1872 H 179.07 -1.56982 -3.55372 0
M  V30 1873 H 180.742 -3.92343 -2.42621 0
M  V30 1874 H 178.985 -3.72557 -2.22225 0
M  V30 1875 H 179.656 -3.96735 -3.83804 0
M  V30 1876 H 182.132 -2.05293 -3.61931 0
M  V30 1877 H 181.008 -2.31294 -4.97789 0
M  V30 1878 H 181.269 -0.686725 -4.36734 0
M  V30 1879 N 180.328 1.1314 -1.09713 0
M  V30 1880 C 181.261 2.17735 -0.683137 0
M  V30 1881 C 182.239 1.59582 0.311841 0
M  V30 1882 O 183.423 1.87298 0.212514 0
M  V30 1883 C 180.55 3.38699 -0.00684324 0
M  V30 1884 C 179.596 4.1546 -0.964102 0
M  V30 1885 S 180.429 4.74733 -2.47767 0
M  V30 1886 C 181.585 5.9904 -1.81387 0
M  V30 1887 H 181.818 2.52515 -1.56918 0
M  V30 1888 H 179.351 1.24484 -0.913404 0
M  V30 1889 H 181.309 4.08765 0.377044 0
M  V30 1890 H 179.97 3.02214 0.85589 0
M  V30 1891 H 179.163 5.02093 -0.43803 0
M  V30 1892 H 178.765 3.51066 -1.28953 0
M  V30 1893 H 181.057 6.67846 -1.13967 0
M  V30 1894 H 182 6.56261 -2.65947 0
M  V30 1895 H 182.408 5.4976 -1.28155 0
M  V30 1896 N 181.806 0.884767 1.30421 0
M  V30 1897 C 182.716 0.355398 2.31892 0
M  V30 1898 C 183.732 -0.542261 1.65335 0
M  V30 1899 O 184.908 -0.435432 1.96637 0
M  V30 1900 C 181.973 -0.421661 3.44126 0
M  V30 1901 C 181.034 0.505727 4.26311 0
M  V30 1902 C 180.267 -0.234343 5.33185 0
M  V30 1903 O 180.49 -1.46045 5.51386 0
M  V30 1904 O 179.424 0.415443 6.00465 0
M  V30 1905 H 183.25 1.19685 2.79122 0
M  V30 1906 H 180.835 0.648596 1.34587 0
M  V30 1907 H 182.717 -0.861641 4.12497 0
M  V30 1908 H 181.392 -1.23942 2.99032 0
M  V30 1909 H 180.299 0.994513 3.60639 0
M  V30 1910 H 181.632 1.28948 4.75009 0
M  V30 1911 N 183.284 -1.43765 0.645699 0
M  V30 1912 C 184.532 -2.01499 0.155731 0
M  V30 1913 C 184.853 -1.51151 -1.232 0
M  V30 1914 O 184.123 -0.721044 -1.82148 0
M  V30 1915 H 182.703 -0.745003 0.0545817 0
M  V30 1916 H 185.365 -1.76075 0.835677 0
M  V30 1917 H 184.461 -3.1181 0.134577 0
M  V30 1918 N 184.763 -0.387143 -1.52771 0
M  V30 1919 C 185.695 0.484089 -2.2403 0
M  V30 1920 C 186.708 1.02849 -1.26198 0
M  V30 1921 O 187.897 0.931186 -1.52286 0
M  V30 1922 C 184.997 1.68337 -2.94136 0
M  V30 1923 C 184.17 1.26672 -4.18656 0
M  V30 1924 C 183.229 2.33045 -4.7178 0
M  V30 1925 O 182.255 1.94541 -5.34923 0
M  V30 1926 N 183.457 3.64929 -4.5145 0
M  V30 1927 H 186.222 -0.126404 -2.99433 0
M  V30 1928 H 183.783 -0.213392 -1.60488 0
M  V30 1929 H 185.775 2.39019 -3.26577 0
M  V30 1930 H 184.345 2.20025 -2.22053 0
M  V30 1931 H 183.565 0.388878 -3.92277 0
M  V30 1932 H 184.853 0.964964 -4.99566 0
M  V30 1933 H 184.251 3.98974 -4.01044 0
M  V30 1934 H 182.808 4.31651 -4.88386 0
M  V30 1935 N 186.241 1.57166 -0.116904 0
M  V30 1936 C 187.652 1.82169 0.408809 0
M  V30 1937 C 188.003 1.03393 1.66746 0
M  V30 1938 O 187.128 0.269886 2.1471 0
M  V30 1939 C 187.723 3.30429 0.748466 0
M  V30 1940 C 186.282 3.5612 1.21882 0
M  V30 1941 C 185.429 2.76374 0.226452 0
M  V30 1942 H 188.38 1.5497 -0.342063 0
M  V30 1943 H 188.401 3.44943 1.60607 0
M  V30 1944 H 187.913 3.87737 -0.167784 0
M  V30 1945 H 186.014 3.04168 2.15204 0
M  V30 1946 H 186.127 4.64705 1.16559 0
M  V30 1947 H 184.491 2.44515 0.713063 0
M  V30 1948 H 185.274 3.3644 -0.682859 0
M  V30 1949 N 187.719 -0.156864 1.56817 0
M  V30 1950 C 188.649 -1.19589 2.00551 0
M  V30 1951 C 189.63 -1.4536 0.883426 0
M  V30 1952 O 190.815 -1.56449 1.15054 0
M  V30 1953 C 187.945 -2.53143 2.37773 0
M  V30 1954 C 186.899 -2.41913 3.53075 0
M  V30 1955 C 186.225 -3.80088 3.76081 0
M  V30 1956 C 187.525 -1.91157 4.86062 0
M  V30 1957 H 189.219 -0.832293 2.87599 0
M  V30 1958 H 186.765 -0.398918 1.38364 0
M  V30 1959 H 188.718 -3.26047 2.66967 0
M  V30 1960 H 187.442 -2.91319 1.4765 0
M  V30 1961 H 186.101 -1.71462 3.24031 0
M  V30 1962 H 185.749 -4.15683 2.83225 0
M  V30 1963 H 185.449 -3.73439 4.53671 0
M  V30 1964 H 186.973 -4.54556 4.0769 0
M  V30 1965 H 188.387 -2.53846 5.14038 0
M  V30 1966 H 186.784 -1.95422 5.67389 0
M  V30 1967 H 187.854 -0.866673 4.77092 0
M  V30 1968 N 189.197 -1.51736 -0.425897 0
M  V30 1969 C 190.444 -1.6497 -1.17436 0
M  V30 1970 C 190.772 -0.371445 -1.9092 0
M  V30 1971 O 190.027 0.644963 -1.84767 0
M  V30 1972 C 190.326 -2.81103 -2.20717 0
M  V30 1973 C 189.992 -4.19954 -1.64162 0
M  V30 1974 C 188.654 -4.57725 -1.48462 0
M  V30 1975 C 191.006 -5.06552 -1.22696 0
M  V30 1976 C 188.334 -5.79789 -0.897873 0
M  V30 1977 C 190.686 -6.29205 -0.654464 0
M  V30 1978 C 189.35 -6.6574 -0.484456 0
M  V30 1979 H 188.62 -0.603668 -0.429727 0
M  V30 1980 H 191.267 -1.85798 -0.463829 0
M  V30 1981 H 189.572 -2.54542 -2.97852 0
M  V30 1982 H 191.269 -2.8854 -2.78471 0
M  V30 1983 H 187.859 -3.90181 -1.77361 0
M  V30 1984 H 192.043 -4.77968 -1.33642 0
M  V30 1985 H 187.299 -6.06733 -0.75402 0
M  V30 1986 H 191.473 -6.95643 -0.324694 0
M  V30 1987 H 189.1 -7.60195 -0.0276833 0
M  V30 1988 N 190.675 0.682077 -1.42076 0
M  V30 1989 C 191.605 1.80796 -1.47767 0
M  V30 1990 C 192.586 1.6677 -0.334954 0
M  V30 1991 O 193.771 1.863 -0.548264 0
M  V30 1992 C 190.901 3.19038 -1.37229 0
M  V30 1993 C 189.855 3.47789 -2.49453 0
M  V30 1994 C 189.181 4.8553 -2.23975 0
M  V30 1995 C 190.481 3.45411 -3.91776 0
M  V30 1996 H 192.175 1.7629 -2.41997 0
M  V30 1997 H 189.721 0.846721 -1.16476 0
M  V30 1998 H 191.674 3.97528 -1.39821 0
M  V30 1999 H 190.398 3.24204 -0.394907 0
M  V30 2000 H 189.057 2.71657 -2.46166 0
M  V30 2001 H 188.705 4.87337 -1.24547 0
M  V30 2002 H 188.405 5.0573 -2.99184 0
M  V30 2003 H 189.929 5.66312 -2.28304 0
M  V30 2004 H 191.343 4.13882 -3.96705 0
M  V30 2005 H 189.74 3.77145 -4.66778 0
M  V30 2006 H 190.81 2.44122 -4.18966 0
M  V30 2007 N 192.153 1.28127 0.917671 0
M  V30 2008 C 193.569 1.05749 1.19538 0
M  V30 2009 C 193.769 -0.202633 2.00479 0
M  V30 2010 O 192.825 -0.905382 2.3571 0
M  V30 2011 C 194.138 2.30273 1.93378 0
M  V30 2012 C 195.686 2.35412 2.06277 0
M  V30 2013 C 196.161 3.59692 2.83524 0
M  V30 2014 N 197.652 3.60309 2.91087 0
M  V30 2015 C 198.387 4.53147 3.51348 0
M  V30 2016 N 197.883 5.563 4.12919 0
M  V30 2017 N 199.676 4.40751 3.48849 0
M  V30 2018 H 191.827 2.09024 0.377184 0
M  V30 2019 H 194.09 0.919798 0.22951 0
M  V30 2020 H 193.796 3.22055 1.41328 0
M  V30 2021 H 193.67 2.36378 2.93947 0
M  V30 2022 H 196.057 1.4413 2.57508 0
M  V30 2023 H 196.138 2.33304 1.04895 0
M  V30 2024 H 195.782 4.51316 2.32973 0
M  V30 2025 H 195.712 3.59054 3.85211 0
M  V30 2026 H 198.203 2.85714 2.47338 0
M  V30 2027 H 198.516 6.2329 4.56869 0
M  V30 2028 H 196.861 5.60131 4.11435 0
M  V30 2029 H 200.052 3.59367 2.99955 0
M  V30 2030 H 200.225 5.13291 3.9552 0
M  V30 2031 N 193.631 -1.12557 1.10312 0
M  V30 2032 C 194.871 -1.8568 0.854543 0
M  V30 2033 C 195.235 -1.82091 -0.608843 0
M  V30 2034 O 196.436 -2.50544 -0.973717 0
M  V30 2035 C 194.707 -3.2942 1.38626 0
M  V30 2036 S 196.266 -4.19931 1.27293 0
M  V30 2037 H 193.084 -0.640427 0.308827 0
M  V30 2038 H 195.686 -1.35599 1.40831 0
M  V30 2039 H 194.39 -3.2959 2.44537 0
M  V30 2040 H 193.921 -3.84566 0.82902 0
M  V30 2041 H 195.936 -4.95668 0.229776 0
M  V30 2042 N 195.109 -0.891671 -1.2995 0
M  V30 2043 C 196.059 -0.334811 -2.25528 0
M  V30 2044 C 197.043 0.540553 -1.51548 0
M  V30 2045 O 198.235 0.383882 -1.72787 0
M  V30 2046 C 195.364 0.44374 -3.4042 0
M  V30 2047 C 194.45 -0.44609 -4.21747 0
M  V30 2048 N 194.841 -1.54963 -4.81477 0
M  V30 2049 C 193.139 -0.242415 -4.45341 0
M  V30 2050 C 193.84 -2.10015 -5.42465 0
M  V30 2051 N 192.816 -1.39423 -5.25416 0
M  V30 2052 H 196.618 -1.17792 -2.69262 0
M  V30 2053 H 194.132 -0.741822 -1.44467 0
M  V30 2054 H 196.129 0.859362 -4.07947 0
M  V30 2055 H 194.789 1.28421 -2.98225 0
M  V30 2056 H 195.8 -1.93244 -4.80497 0
M  V30 2057 H 192.477 0.560342 -4.13723 0
M  V30 2058 H 193.867 -3.02724 -5.9984 0
M  V30 2059 N 196.587 1.43421 -0.653314 0
M  V30 2060 C 197.835 2.01414 -0.166415 0
M  V30 2061 C 198.156 1.51803 1.22397 0
M  V30 2062 O 197.426 0.730693 1.81763 0
M  V30 2063 H 196.006 0.744703 -0.0585319 0
M  V30 2064 H 198.668 1.75629 -0.845003 0
M  V30 2065 H 197.764 3.11734 -0.151111 0
M  V30 2066 N 198.065 0.39524 1.52563 0
M  V30 2067 C 199.311 -0.177763 2.02622 0
M  V30 2068 C 199.666 -1.43974 1.27629 0
M  V30 2069 O 198.959 -1.87995 0.36992 0
M  V30 2070 C 199.153 -0.493444 3.53977 0
M  V30 2071 C 198.982 0.736392 4.4363 0
M  V30 2072 C 197.752 1.25744 4.89404 0
M  V30 2073 C 199.95 1.61046 4.88435 0
M  V30 2074 N 197.932 2.44421 5.63145 0
M  V30 2075 C 199.303 2.64359 5.60816 0
M  V30 2076 C 201.358 1.62985 4.70468 0
M  V30 2077 C 200.061 3.69505 6.17137 0
M  V30 2078 C 202.087 2.67042 5.27677 0
M  V30 2079 C 201.449 3.69077 5.99968 0
M  V30 2080 H 197.548 -0.0269794 0.781534 0
M  V30 2081 H 200.132 0.546466 1.86874 0
M  V30 2082 H 198.303 -1.18672 3.69826 0
M  V30 2083 H 200.035 -1.05412 3.90731 0
M  V30 2084 H 196.79 0.817546 4.6649 0
M  V30 2085 H 197.214 3.04485 6.04663 0
M  V30 2086 H 201.856 0.854442 4.14076 0
M  V30 2087 H 199.574 4.4791 6.72608 0
M  V30 2088 H 203.16 2.69433 5.15652 0
M  V30 2089 H 202.04 4.48273 6.43444 0
M  V30 2090 N 199.544 -1.57102 0.125237 0
M  V30 2091 C 200.96 -1.57915 -0.231322 0
M  V30 2092 C 201.16 -1.13833 -1.66266 0
M  V30 2093 O 200.216 -0.828581 -2.38518 0
M  V30 2094 C 201.529 -3.00699 0.00766489 0
M  V30 2095 C 203.077 -3.12947 -0.0577483 0
M  V30 2096 C 203.552 -4.57742 0.153626 0
M  V30 2097 N 205.043 -4.63092 0.0998073 0
M  V30 2098 C 205.778 -5.72905 0.238174 0
M  V30 2099 N 205.274 -6.91445 0.433057 0
M  V30 2100 N 207.067 -5.6182 0.177308 0
M  V30 2101 H 199.218 -1.84055 1.06007 0
M  V30 2102 H 201.481 -0.850905 0.417929 0
M  V30 2103 H 201.187 -3.3726 0.997431 0
M  V30 2104 H 201.061 -3.70236 -0.721452 0
M  V30 2105 H 203.448 -2.7624 -1.03804 0
M  V30 2106 H 203.529 -2.4594 0.70335 0
M  V30 2107 H 203.173 -4.95149 1.13092 0
M  V30 2108 H 203.103 -5.22848 -0.627534 0
M  V30 2109 H 205.594 -3.77871 -0.047051 0
M  V30 2110 H 205.907 -7.70985 0.529332 0
M  V30 2111 H 204.252 -6.93415 0.469109 0
M  V30 2112 H 207.443 -4.68093 0.0259748 0
M  V30 2113 H 207.616 -6.47357 0.288582 0
M  V30 2114 N 201.022 0.148545 -1.56898 0
M  V30 2115 C 201.97 1.20265 -1.99096 0
M  V30 2116 C 202.964 1.44559 -0.883123 0
M  V30 2117 O 204.17 1.4487 -1.0683 0
M  V30 2118 H 200.545 0.404786 -0.63376 0
M  V30 2119 H 202.516 0.82004 -2.86911 0
M  V30 2120 C 201.265 2.52886 -2.3863 0
M  V30 2121 H 200.588 2.35021 -3.23427 0
M  V30 2122 H 202.028 3.25274 -2.7198 0
M  V30 2123 C 200.487 3.13315 -1.23837 0
M  V30 2124 O 201.017 3.98077 -0.538268 0
M  V30 2125 N 199.223 2.72742 -1.00301 0
M  V30 2126 H 198.77 2.03912 -1.5741 0
M  V30 2127 H 198.728 3.13507 -0.236838 0
M  V30 2128 N 202.5 1.5196 0.417844 0
M  V30 2129 C 203.746 1.66793 1.16411 0
M  V30 2130 C 204.101 0.388758 1.88432 0
M  V30 2131 O 203.394 -0.616409 1.81414 0
M  V30 2132 C 203.588 2.82269 2.19223 0
M  V30 2133 C 203.417 4.21293 1.57297 0
M  V30 2134 C 202.187 4.86948 1.34944 0
M  V30 2135 C 204.385 5.03704 1.03858 0
M  V30 2136 N 202.367 6.1003 0.688195 0
M  V30 2137 C 203.738 6.1795 0.503742 0
M  V30 2138 C 205.793 4.89095 0.932203 0
M  V30 2139 C 204.496 7.19188 -0.127034 0
M  V30 2140 C 206.522 5.90559 0.315293 0
M  V30 2141 C 205.884 7.0409 -0.208906 0
M  V30 2142 H 201.983 0.66407 0.412959 0
M  V30 2143 H 204.567 1.89242 0.457772 0
M  V30 2144 H 202.738 2.61451 2.87225 0
M  V30 2145 H 204.47 2.86183 2.86149 0
M  V30 2146 H 201.225 4.45156 1.61657 0
M  V30 2147 H 201.649 6.75964 0.374449 0
M  V30 2148 H 206.291 4.01557 1.32332 0
M  V30 2149 H 204.009 8.06359 -0.530231 0
M  V30 2150 H 207.595 5.81327 0.234625 0
M  V30 2151 H 206.475 7.81257 -0.67875 0
M  V30 2152 N 203.978 -0.674533 1.42435 0
M  V30 2153 C 205.255 -1.4305 1.33402 0
M  V30 2154 C 205.635 -2.11081 -0.0284674 0
M  V30 2155 O 204.983 -2.03257 -1.04397 0
M  V30 2156 C 205.193 -2.43272 2.50239 0
M  V30 2157 C 206.541 -3.07907 2.92367 0
M  V30 2158 O 207.565 -2.53599 2.50132 0
M  V30 2159 O 206.424 -4.0632 3.65467 0
M  V30 2160 H 203.518 -0.638076 0.526106 0
M  V30 2161 H 206.064 -0.703235 1.54443 0
M  V30 2162 H 204.836 -1.91803 3.41068 0
M  V30 2163 H 204.459 -3.23479 2.31186 0
M  V30 2164 N 205.456 -1.28612 -0.910864 0
M  V30 2165 C 206.702 -1.16106 -1.66274 0
M  V30 2166 C 207.035 0.289113 -1.92036 0
M  V30 2167 O 206.31 1.21 -1.52281 0
M  V30 2168 C 206.593 -1.96309 -3.01885 0
M  V30 2169 C 206.446 -3.49405 -2.8326 0
M  V30 2170 C 207.765 -1.78076 -4.02463 0
M  V30 2171 H 204.884 -0.423152 -0.603417 0
M  V30 2172 H 207.526 -1.57961 -1.05586 0
M  V30 2173 H 205.676 -1.60742 -3.53687 0
M  V30 2174 H 207.348 -3.94894 -2.38446 0
M  V30 2175 H 205.591 -3.74893 -2.18261 0
M  V30 2176 H 206.262 -4.00784 -3.79574 0
M  V30 2177 H 208.738 -2.0912 -3.59733 0
M  V30 2178 H 207.614 -2.36561 -4.95308 0
M  V30 2179 H 207.875 -0.733008 -4.35981 0
M  V30 2180 N 206.934 1.1197 -1.10907 0
M  V30 2181 C 208.164 1.8713 -0.875553 0
M  V30 2182 C 208.572 1.8016 0.577843 0
M  V30 2183 O 207.915 1.17699 1.41042 0
M  V30 2184 C 207.977 3.37005 -1.2517 0
M  V30 2185 C 207.641 3.67748 -2.71313 0
M  V30 2186 C 208.638 3.65698 -3.69542 0
M  V30 2187 C 206.323 3.96928 -3.07821 0
M  V30 2188 C 208.317 3.92395 -5.023 0
M  V30 2189 C 206.004 4.23284 -4.40765 0
M  V30 2190 C 207.002 4.21005 -5.37814 0
M  V30 2191 O 206.69 4.46704 -6.68364 0
M  V30 2192 H 206.422 0.598786 -0.313737 0
M  V30 2193 H 208.976 1.42568 -1.47863 0
M  V30 2194 H 207.206 3.82146 -0.591741 0
M  V30 2195 H 208.895 3.93519 -0.994877 0
M  V30 2196 H 209.661 3.43211 -3.42682 0
M  V30 2197 H 205.54 3.97841 -2.32902 0
M  V30 2198 H 209.084 3.90531 -5.78041 0
M  V30 2199 H 204.981 4.45246 -4.67361 0
M  V30 2200 H 205.749 4.64299 -6.74069 0
M  V30 2201 N 208.412 0.89855 1.29475 0
M  V30 2202 C 209.359 0.373819 2.27753 0
M  V30 2203 C 210.329 -0.543444 1.56958 0
M  V30 2204 O 211.514 -0.468934 1.84948 0
M  V30 2205 C 208.654 -0.393648 3.42848 0
M  V30 2206 C 207.767 0.554379 4.28428 0
M  V30 2207 C 206.902 -0.230026 5.30702 0
M  V30 2208 C 205.941 0.712599 6.07938 0
M  V30 2209 N 205.078 -0.0373283 7.0209 0
M  V30 2210 H 209.918 1.21699 2.72017 0
M  V30 2211 H 207.455 0.611456 1.33789 0
M  V30 2212 H 209.413 -0.85466 4.08352 0
M  V30 2213 H 208.043 -1.20128 2.99615 0
M  V30 2214 H 207.095 1.13391 3.63107 0
M  V30 2215 H 208.407 1.27597 4.82204 0
M  V30 2216 H 207.561 -0.752288 6.02018 0
M  V30 2217 H 206.3 -0.984758 4.77654 0
M  V30 2218 H 205.305 1.24637 5.35486 0
M  V30 2219 H 206.53 1.46664 6.63074 0
M  V30 2220 H 204.476 -0.774348 6.51414 0
M  V30 2221 H 204.393 0.624374 7.53417 0
M  V30 2222 H 205.661 -0.539891 7.77628 0
M  V30 2223 N 209.89 -1.43072 0.660911 0
M  V30 2224 C 211.136 -2.0202 0.177708 0
M  V30 2225 C 211.469 -1.52066 -1.20787 0
M  V30 2226 O 210.744 -0.716987 -1.80802 0
M  V30 2227 C 211.027 -3.59561 0.197019 0
M  V30 2228 C 210.88 -4.19727 1.61706 0
M  V30 2229 C 212.199 -4.37664 -0.462396 0
M  V30 2230 H 209.318 -0.734034 0.0660494 0
M  V30 2231 H 211.96 -1.70272 0.843058 0
M  V30 2232 H 210.11 -3.86739 -0.369527 0
M  V30 2233 H 211.782 -4.03553 2.23479 0
M  V30 2234 H 210.025 -3.76084 2.16201 0
M  V30 2235 H 210.696 -5.28834 1.58237 0
M  V30 2236 H 213.172 -4.16095 0.0197215 0
M  V30 2237 H 212.048 -5.47305 -0.418188 0
M  V30 2238 H 212.309 -4.14493 -1.53778 0
M  V30 2239 N 211.368 -0.403325 -1.52352 0
M  V30 2240 C 212.617 0.175668 -2.00934 0
M  V30 2241 C 212.93 1.46718 -1.29356 0
M  V30 2242 O 214.136 2.12708 -1.68724 0
M  V30 2243 C 212.592 0.363612 -3.58058 0
M  V30 2244 C 212.2 -0.915472 -4.38547 0
M  V30 2245 C 213.944 0.89821 -4.14888 0
M  V30 2246 C 211.851 -0.695035 -5.87302 0
M  V30 2247 H 210.781 0.0694234 -0.750797 0
M  V30 2248 H 213.432 -0.527879 -1.75743 0
M  V30 2249 H 211.814 1.12935 -3.79555 0
M  V30 2250 H 212.988 -1.68691 -4.28812 0
M  V30 2251 H 211.303 -1.37606 -3.93006 0
M  V30 2252 H 213.9 1.07907 -5.23699 0
M  V30 2253 H 214.243 1.87126 -3.71873 0
M  V30 2254 H 214.776 0.191681 -3.97338 0
M  V30 2255 H 211.515 -1.63948 -6.34666 0
M  V30 2256 H 211.035 0.0372116 -5.99788 0
M  V30 2257 H 212.714 -0.33497 -6.46132 0
M  V30 2258 N 212.846 1.57033 -0.133567 0
M  V30 2259 C 214.076 1.99754 0.527429 0
M  V30 2260 C 214.484 1.01245 1.59832 0
M  V30 2261 O 213.827 -0.000645496 1.837 0
M  V30 2262 C 213.889 3.38903 1.19939 0
M  V30 2263 C 213.553 4.56174 0.274709 0
M  V30 2264 C 214.55 5.17563 -0.492398 0
M  V30 2265 C 212.235 5.01972 0.18153 0
M  V30 2266 C 214.229 6.2315 -1.34027 0
M  V30 2267 C 211.916 6.07416 -0.669958 0
M  V30 2268 C 212.914 6.67874 -1.42947 0
M  V30 2269 O 212.602 7.71279 -2.2668 0
M  V30 2270 H 212.334 0.660702 0.142999 0
M  V30 2271 H 214.888 2.04207 -0.221099 0
M  V30 2272 H 213.118 3.31248 1.99528 0
M  V30 2273 H 214.807 3.65818 1.75875 0
M  V30 2274 H 215.573 4.83087 -0.430367 0
M  V30 2275 H 211.452 4.54652 0.762422 0
M  V30 2276 H 214.996 6.70268 -1.93357 0
M  V30 2277 H 210.893 6.41321 -0.73333 0
M  V30 2278 H 211.661 7.88441 -2.1978 0
M  V30 2279 N 214.325 -0.140222 1.56975 0
M  V30 2280 C 215.555 -0.865181 1.87612 0
M  V30 2281 C 215.963 -1.74942 0.72055 0
M  V30 2282 O 215.306 -1.80917 -0.318561 0
M  V30 2283 C 215.368 -1.76782 3.13031 0
M  V30 2284 C 215.032 -1.06005 4.44536 0
M  V30 2285 C 216.029 -0.410768 5.18275 0
M  V30 2286 C 213.714 -1.04754 4.91255 0
M  V30 2287 C 215.708 0.241572 6.36942 0
M  V30 2288 C 213.395 -0.391394 6.09845 0
M  V30 2289 C 214.393 0.252029 6.82535 0
M  V30 2290 O 214.081 0.897757 7.98871 0
M  V30 2291 H 213.813 -0.255188 0.625983 0
M  V30 2292 H 216.367 -0.135653 2.04952 0
M  V30 2293 H 214.597 -2.53846 2.91718 0
M  V30 2294 H 216.286 -2.36533 3.29859 0
M  V30 2295 H 217.052 -0.412195 4.83245 0
M  V30 2296 H 212.931 -1.53777 4.34596 0
M  V30 2297 H 216.475 0.744375 6.93617 0
M  V30 2298 H 212.372 -0.387656 6.44335 0
M  V30 2299 H 213.14 0.800102 8.1458 0
M  V30 2300 N 215.803 -1.52179 -0.40978 0
M  V30 2301 C 216.75 -1.75475 -1.49924 0
M  V30 2302 C 217.72 -0.597175 -1.54994 0
M  V30 2303 O 218.905 -0.834655 -1.71575 0
M  V30 2304 C 216.045 -1.9107 -2.87378 0
M  V30 2305 C 215.158 -3.18717 -2.91622 0
M  V30 2306 C 214.293 -3.24747 -4.20372 0
M  V30 2307 C 213.332 -4.46598 -4.18588 0
M  V30 2308 N 212.469 -4.50025 -5.38908 0
M  V30 2309 H 217.309 -2.68458 -1.29361 0
M  V30 2310 H 214.846 -1.33024 -0.627934 0
M  V30 2311 H 216.804 -1.98096 -3.6717 0
M  V30 2312 H 215.434 -1.01469 -3.06437 0
M  V30 2313 H 214.486 -3.20866 -2.04326 0
M  V30 2314 H 215.798 -4.08544 -2.86169 0
M  V30 2315 H 214.952 -3.30841 -5.08556 0
M  V30 2316 H 213.691 -2.32857 -4.28519 0
M  V30 2317 H 212.696 -4.40652 -3.28794 0
M  V30 2318 H 213.921 -5.39783 -4.12081 0
M  V30 2319 H 211.867 -3.61017 -5.47725 0
M  V30 2320 H 211.784 -5.33697 -5.35447 0
M  V30 2321 H 213.052 -4.60347 -6.29048 0
M  V30 2322 N 217.281 0.66697 -1.42791 0
M  V30 2323 C 218.558 1.4234 -1.34159 0
M  V30 2324 C 218.938 2.11093 0.0172729 0
M  V30 2325 O 218.286 2.03808 1.03318 0
M  V30 2326 C 218.496 2.41942 -2.51526 0
M  V30 2327 C 219.844 3.06353 -2.93995 0
M  V30 2328 O 220.868 2.52269 -2.51473 0
M  V30 2329 O 219.727 4.04376 -3.67617 0
M  V30 2330 H 216.821 0.635277 -0.529483 0
M  V30 2331 H 219.367 0.695034 -1.54814 0
M  V30 2332 H 218.139 1.89991 -3.42081 0
M  V30 2333 H 217.762 3.22249 -2.32898 0
M  V30 2334 N 218.759 1.29093 0.90403 0
M  V30 2335 C 220.007 1.16583 1.65085 0
M  V30 2336 C 220.328 -0.283933 1.92922 0
M  V30 2337 O 219.598 -1.19509 1.55224 0
M  V30 2338 H 218.178 0.428467 0.611903 0
M  V30 2339 H 220.84 1.61959 1.08422 0
M  V30 2340 H 219.936 1.71266 2.6091 0
M  V30 2341 N 220.237 -1.11381 1.11499 0
M  V30 2342 C 221.147 -2.21019 0.786628 0
M  V30 2343 C 222.163 -1.72597 -0.220507 0
M  V30 2344 O 223.339 -2.01321 -0.0565251 0
M  V30 2345 C 220.404 -3.459 0.235333 0
M  V30 2346 C 219.465 -4.09107 1.30115 0
M  V30 2347 C 218.698 -5.28027 0.776068 0
M  V30 2348 O 218.921 -5.6904 -0.393661 0
M  V30 2349 O 217.855 -5.81835 1.54114 0
M  V30 2350 H 221.681 -2.51521 1.70209 0
M  V30 2351 H 219.266 -1.19928 0.890928 0
M  V30 2352 H 221.148 -4.21346 -0.067715 0
M  V30 2353 H 219.823 -3.17049 -0.652828 0
M  V30 2354 H 218.73 -3.35391 1.65722 0
M  V30 2355 H 220.063 -4.42139 2.16273 0
M  V30 2356 N 221.715 -0.905404 -1.28997 0
M  V30 2357 C 222.678 -0.392253 -2.25819 0
M  V30 2358 C 223.678 0.476753 -1.5357 0
M  V30 2359 O 224.868 0.280994 -1.71919 0
M  V30 2360 C 222 0.438588 -3.38067 0
M  V30 2361 H 223.193 -1.24743 -2.72725 0
M  V30 2362 H 220.746 -0.684051 -1.40536 0
M  V30 2363 H 221.481 1.31352 -2.96508 0
M  V30 2364 H 221.266 -0.184167 -3.91667 0
M  V30 2365 H 222.756 0.78873 -4.10084 0
M  V30 2366 N 223.193 1.4272 -0.668489 0
M  V30 2367 C 224.123 2.335 -0.000100175 0
M  V30 2368 C 225.104 1.50328 0.795964 0
M  V30 2369 O 226.289 1.78949 0.754385 0
M  V30 2370 C 223.419 3.33874 0.956302 0
M  V30 2371 C 222.373 4.27152 0.269278 0
M  V30 2372 C 221.699 5.17684 1.33818 0
M  V30 2373 C 222.999 5.15373 -0.847805 0
M  V30 2374 H 224.693 2.89639 -0.758244 0
M  V30 2375 H 222.239 1.39269 -0.366079 0
M  V30 2376 H 224.192 3.9629 1.43292 0
M  V30 2377 H 222.916 2.76025 1.74579 0
M  V30 2378 H 221.575 3.66123 -0.187042 0
M  V30 2379 H 221.223 4.56165 2.1195 0
M  V30 2380 H 220.923 5.80918 0.883659 0
M  V30 2381 H 222.447 5.82974 1.81586 0
M  V30 2382 H 223.861 5.7151 -0.452681 0
M  V30 2383 H 222.258 5.87407 -1.22773 0
M  V30 2384 H 223.328 4.5415 -1.69929 0
M  V30 2385 N 224.671 0.411399 1.52136 0
M  V30 2386 C 225.618 -0.412975 2.27075 0
M  V30 2387 C 226.588 -1.03912 1.29582 0
M  V30 2388 O 227.773 -1.06296 1.58448 0
M  V30 2389 C 224.913 -1.52247 3.09701 0
M  V30 2390 C 224.026 -0.917021 4.22155 0
M  V30 2391 C 223.161 -1.9994 4.92135 0
M  V30 2392 C 222.2 -1.37101 5.96548 0
M  V30 2393 N 221.337 -2.39364 6.60038 0
M  V30 2394 H 226.177 0.232499 2.97092 0
M  V30 2395 H 223.714 0.126496 1.46555 0
M  V30 2396 H 225.672 -2.17674 3.55913 0
M  V30 2397 H 224.302 -2.13794 2.41851 0
M  V30 2398 H 223.354 -0.151742 3.80097 0
M  V30 2399 H 224.666 -0.418006 4.97045 0
M  V30 2400 H 223.82 -2.73088 5.41763 0
M  V30 2401 H 222.559 -2.53208 4.16818 0
M  V30 2402 H 221.564 -0.624873 5.46237 0
M  V30 2403 H 222.789 -0.845998 6.7381 0
M  V30 2404 H 220.735 -2.91759 5.87548 0
M  V30 2405 H 220.652 -1.9428 7.3061 0
M  V30 2406 H 221.92 -3.12074 7.14304 0
M  V30 2407 N 226.149 -1.5696 0.141893 0
M  V30 2408 C 227.379 -2.00031 -0.516828 0
M  V30 2409 C 227.787 -1.02091 -1.59293 0
M  V30 2410 O 227.13 -0.00909657 -1.83698 0
M  V30 2411 C 227.192 -3.39534 -1.1814 0
M  V30 2412 C 226.856 -4.56313 -0.250513 0
M  V30 2413 C 227.853 -5.17295 0.519839 0
M  V30 2414 C 225.538 -5.02061 -0.154907 0
M  V30 2415 C 227.532 -6.2243 1.3733 0
M  V30 2416 C 225.219 -6.07053 0.702161 0
M  V30 2417 C 226.217 -6.67106 1.46487 0
M  V30 2418 O 225.905 -7.70066 2.30767 0
M  V30 2419 H 225.637 -0.661451 -0.139493 0
M  V30 2420 H 228.191 -2.04086 0.231926 0
M  V30 2421 H 226.421 -3.32302 -1.97769 0
M  V30 2422 H 228.11 -3.66745 -1.73933 0
M  V30 2423 H 228.876 -4.82852 0.45598 0
M  V30 2424 H 224.755 -4.5505 -0.7383 0
M  V30 2425 H 228.299 -6.69233 1.96909 0
M  V30 2426 H 224.196 -6.40923 0.76733 0
M  V30 2427 H 224.964 -7.87264 2.23959 0
M  V30 2428 N 227.627 0.131896 -1.57047 0
M  V30 2429 C 228.873 0.838268 -1.85323 0
M  V30 2430 C 229.228 1.78098 -0.727937 0
M  V30 2431 O 228.521 1.89645 0.27304 0
M  V30 2432 C 228.715 1.63703 -3.17704 0
M  V30 2433 C 228.544 0.773167 -4.43004 0
M  V30 2434 C 227.314 0.432956 -5.03442 0
M  V30 2435 C 229.512 0.0966216 -5.14209 0
M  V30 2436 N 227.494 -0.442924 -6.123 0
M  V30 2437 C 228.865 -0.638778 -6.16701 0
M  V30 2438 C 230.92 0.018861 -4.97896 0
M  V30 2439 C 229.623 -1.44462 -7.04644 0
M  V30 2440 C 231.649 -0.773762 -5.86316 0
M  V30 2441 C 231.011 -1.4974 -6.883 0
M  V30 2442 H 227.11 0.284086 -0.728573 0
M  V30 2443 H 229.694 0.102731 -1.94429 0
M  V30 2444 H 227.865 2.3437 -3.09718 0
M  V30 2445 H 229.597 2.28774 -3.33833 0
M  V30 2446 H 226.352 0.772237 -4.67262 0
M  V30 2447 H 226.776 -0.872332 -6.71356 0
M  V30 2448 H 231.418 0.56397 -4.19022 0
M  V30 2449 H 229.136 -2.00093 -7.82936 0
M  V30 2450 H 232.722 -0.83612 -5.75761 0
M  V30 2451 H 231.602 -2.10087 -7.55535 0
M  V30 2452 N 229.106 1.52395 0.401703 0
M  V30 2453 C 230.336 1.70429 1.1678 0
M  V30 2454 C 230.744 0.416702 1.84554 0
M  V30 2455 O 230.087 -0.617697 1.73003 0
M  V30 2456 C 230.149 2.78919 2.26814 0
M  V30 2457 C 229.813 4.20437 1.79113 0
M  V30 2458 C 230.81 5.04028 1.27482 0
M  V30 2459 C 228.495 4.66704 1.85722 0
M  V30 2460 C 230.489 6.31961 0.830913 0
M  V30 2461 C 228.176 5.94625 1.40942 0
M  V30 2462 C 229.174 6.77082 0.897128 0
M  V30 2463 O 228.862 8.02607 0.455822 0
M  V30 2464 H 228.594 0.574272 0.356634 0
M  V30 2465 H 231.148 1.99767 0.477724 0
M  V30 2466 H 229.378 2.44973 2.99207 0
M  V30 2467 H 231.067 2.8548 2.88541 0
M  V30 2468 H 231.833 4.69471 1.21744 0
M  V30 2469 H 227.712 4.0262 2.24539 0
M  V30 2470 H 231.256 6.96271 0.430368 0
M  V30 2471 H 227.153 6.28688 1.46362 0
M  V30 2472 H 227.921 8.16453 0.578457 0
M  V30 2473 N 230.584 -0.659388 1.43143 0
M  V30 2474 C 231.494 -1.80167 1.50256 0
M  V30 2475 C 232.51 -1.69571 0.390106 0
M  V30 2476 O 233.686 -1.90849 0.643319 0
M  V30 2477 C 230.751 -3.16409 1.41725 0
M  V30 2478 C 229.812 -3.38848 2.63591 0
M  V30 2479 C 229.045 -4.68591 2.55458 0
M  V30 2480 O 229.268 -5.47532 1.59891 0
M  V30 2481 O 228.202 -4.92614 3.45854 0
M  V30 2482 H 232.028 -1.77121 2.46702 0
M  V30 2483 H 229.613 -0.817092 1.25076 0
M  V30 2484 H 231.495 -3.9768 1.39387 0
M  V30 2485 H 230.17 -3.20059 0.484118 0
M  V30 2486 H 229.077 -2.57366 2.71502 0
M  V30 2487 H 230.41 -3.4004 3.55856 0
M  V30 2488 N 232.062 -1.29571 -0.897171 0
M  V30 2489 C 233.01 -1.14802 -2.02295 0
M  V30 2490 C 234.004 -0.0629637 -1.69283 0
M  V30 2491 O 235.21 -0.222945 -1.78614 0
M  V30 2492 H 231.585 -0.354692 -0.663097 0
M  V30 2493 H 233.556 -2.10108 -2.11889 0
M  V30 2494 C 232.305 -0.843966 -3.37302 0
M  V30 2495 H 231.628 -1.67093 -3.63208 0
M  V30 2496 H 233.068 -0.780672 -4.16751 0
M  V30 2497 C 231.527 0.452843 -3.33843 0
M  V30 2498 O 232.057 1.47813 -3.73516 0
M  V30 2499 N 230.263 0.459601 -2.86943 0
M  V30 2500 H 229.81 -0.375213 -2.54853 0
M  V30 2501 H 229.768 1.32726 -2.85011 0
M  V30 2502 N 233.54 1.10788 -1.12088 0
M  V30 2503 C 234.49 2.15158 -0.754401 0
M  V30 2504 C 235.474 1.59026 0.244846 0
M  V30 2505 O 236.666 1.76927 0.0509097 0
M  V30 2506 C 233.795 3.42677 -0.206657 0
M  V30 2507 C 232.881 4.05751 -1.23398 0
M  V30 2508 N 233.272 4.43582 -2.43041 0
M  V30 2509 C 231.57 4.32764 -1.07848 0
M  V30 2510 C 232.271 4.93085 -3.08613 0
M  V30 2511 N 231.247 4.89664 -2.36072 0
M  V30 2512 H 235.049 2.42195 -1.6649 0
M  V30 2513 H 232.563 1.27872 -1.00112 0
M  V30 2514 H 234.56 4.16834 0.0740646 0
M  V30 2515 H 233.22 3.17101 0.698342 0
M  V30 2516 H 234.231 4.35395 -2.80449 0
M  V30 2517 H 230.908 4.16863 -0.230483 0
M  V30 2518 H 232.298 5.31933 -4.10483 0
M  V30 2519 N 235.018 0.912232 1.28515 0
M  V30 2520 C 235.966 0.389597 2.29314 0
M  V30 2521 C 236.96 -0.517915 1.61289 0
M  V30 2522 O 238.166 -0.399328 1.75515 0
M  V30 2523 H 234.541 0.107386 0.744293 0
M  V30 2524 H 236.512 1.25286 2.70825 0
M  V30 2525 C 235.261 -0.356496 3.45868 0
M  V30 2526 H 234.584 0.332608 3.98414 0
M  V30 2527 H 236.024 -0.686851 4.184 0
M  V30 2528 C 234.483 -1.56383 2.98406 0
M  V30 2529 O 235.013 -2.66294 3.00749 0
M  V30 2530 N 233.219 -1.41029 2.54085 0
M  V30 2531 H 232.766 -0.516089 2.52377 0
M  V30 2532 H 232.724 -2.21939 2.22689 0
M  V30 2533 N 236.496 -1.42363 0.676048 0
M  V30 2534 C 237.745 -2.00745 0.196037 0
M  V30 2535 C 238.058 -1.54083 -1.20489 0
M  V30 2536 O 239.264 -2.04891 -1.78134 0
M  V30 2537 C 237.72 -3.58651 0.299616 0
M  V30 2538 C 237.328 -4.143 1.70468 0
M  V30 2539 C 239.072 -4.24326 -0.121619 0
M  V30 2540 C 236.979 -5.64574 1.76096 0
M  V30 2541 H 235.909 -0.750787 0.0695301 0
M  V30 2542 H 238.56 -1.63072 0.841412 0
M  V30 2543 H 236.942 -3.93833 -0.413673 0
M  V30 2544 H 238.116 -3.90575 2.44515 0
M  V30 2545 H 236.431 -3.61081 2.07387 0
M  V30 2546 H 239.028 -5.34607 -0.0997362 0
M  V30 2547 H 239.371 -3.99897 -1.15708 0
M  V30 2548 H 239.904 -3.94108 0.540706 0
M  V30 2549 H 236.643 -5.93804 2.77628 0
M  V30 2550 H 236.163 -5.90286 1.06406 0
M  V30 2551 H 237.842 -6.29013 1.51496 0
M  V30 2552 N 237.974 -0.419461 -1.51915 0
M  V30 2553 C 239.199 0.154572 -2.06823 0
M  V30 2554 C 239.624 1.3722 -1.28656 0
M  V30 2555 O 238.982 1.78461 -0.319583 0
M  V30 2556 C 239.03 0.473172 -3.57482 0
M  V30 2557 O 238.134 1.56255 -3.81652 0
M  V30 2558 H 237.475 0.0096924 -0.663929 0
M  V30 2559 H 240.005 -0.595642 -1.95738 0
M  V30 2560 H 240.015 0.728825 -4.01438 0
M  V30 2561 H 238.69 -0.416873 -4.13805 0
M  V30 2562 H 237.267 1.29825 -3.49571 0
M  V30 2563 N 239.452 1.56882 -0.150215 0
M  V30 2564 C 240.701 1.95403 0.500071 0
M  V30 2565 C 241.014 1.03777 1.658 0
M  V30 2566 O 242.22 1.31889 2.37313 0
M  V30 2567 C 240.676 3.4738 0.941018 0
M  V30 2568 C 240.284 4.47596 -0.190158 0
M  V30 2569 C 242.028 3.9476 1.56091 0
M  V30 2570 C 239.935 5.90787 0.269237 0
M  V30 2571 H 238.865 0.729515 0.190588 0
M  V30 2572 H 241.516 1.81988 -0.235074 0
M  V30 2573 H 239.898 3.56138 1.73152 0
M  V30 2574 H 241.072 4.50536 -0.967157 0
M  V30 2575 H 239.387 4.10151 -0.718666 0
M  V30 2576 H 241.984 4.99181 1.9163 0
M  V30 2577 H 242.327 3.36494 2.45107 0
M  V30 2578 H 242.86 3.88932 0.835249 0
M  V30 2579 H 239.599 6.52879 -0.585621 0
M  V30 2580 H 239.119 5.912 1.01204 0
M  V30 2581 H 240.798 6.42979 0.720176 0
M  V30 2582 N 240.93 -0.123565 1.57115 0
M  V30 2583 C 242.158 -0.846461 1.88793 0
M  V30 2584 C 242.573 -1.73652 0.740976 0
M  V30 2585 O 241.93 -1.80207 -0.288393 0
M  V30 2586 C 241.981 -1.6837 3.19897 0
M  V30 2587 O 241.702 -0.829477 4.30176 0
M  V30 2588 C 243.203 -2.51214 3.65248 0
M  V30 2589 H 240.423 -0.243573 0.625231 0
M  V30 2590 H 242.967 -0.109324 2.04208 0
M  V30 2591 H 241.122 -2.37364 3.06165 0
M  V30 2592 H 241.536 -1.40651 5.0529 0
M  V30 2593 H 243.01 -3.05497 4.59756 0
M  V30 2594 H 243.487 -3.28359 2.9168 0
M  V30 2595 H 244.093 -1.8747 3.81752 0
M  V30 2596 N 242.408 -1.52605 -0.393616 0
M  V30 2597 C 243.356 -1.77688 -1.50099 0
M  V30 2598 C 244.35 -0.644615 -1.56656 0
M  V30 2599 O 245.556 -0.826997 -1.59877 0
M  V30 2600 H 241.931 -0.562159 -0.499481 0
M  V30 2601 H 243.902 -2.7043 -1.26135 0
M  V30 2602 C 242.651 -1.95858 -2.87289 0
M  V30 2603 H 241.974 -2.8241 -2.82992 0
M  V30 2604 H 243.414 -2.174 -3.64024 0
M  V30 2605 C 241.873 -0.729848 -3.28899 0
M  V30 2606 O 242.403 0.0949217 -4.01588 0
M  V30 2607 N 240.609 -0.561283 -2.85128 0
M  V30 2608 H 240.156 -1.23357 -2.26143 0
M  V30 2609 H 240.114 0.2595 -3.13327 0
M  V30 2610 N 243.887 0.651787 -1.4349 0
M  V30 2611 C 244.85 1.74647 -1.48429 0
M  V30 2612 C 245.85 1.56513 -0.368817 0
M  V30 2613 O 247.04 1.62385 -0.630623 0
M  V30 2614 C 244.172 3.13533 -1.33827 0
M  V30 2615 H 245.365 1.71649 -2.4592 0
M  V30 2616 H 242.918 0.863573 -1.30277 0
M  V30 2617 H 243.653 3.22142 -0.37349 0
M  V30 2618 H 243.438 3.28101 -2.14691 0
M  V30 2619 H 244.928 3.93356 -1.40218 0
M  V30 2620 N 245.365 1.30045 0.890287 0
M  V30 2621 C 246.593 1.21472 1.67487 0
M  V30 2622 C 247.008 -0.223241 1.87476 0
M  V30 2623 O 246.365 -1.14828 1.41847 0
M  V30 2624 C 246.416 1.93394 3.05419 0
M  V30 2625 O 246.137 3.31576 2.86337 0
M  V30 2626 C 247.638 1.91414 3.99844 0
M  V30 2627 H 244.858 0.420604 0.522813 0
M  V30 2628 H 247.402 1.7158 1.11268 0
M  V30 2629 H 245.557 1.47099 3.58386 0
M  V30 2630 H 245.971 3.67929 3.73802 0
M  V30 2631 H 247.445 2.46285 4.94012 0
M  V30 2632 H 247.922 0.891833 4.3005 0
M  V30 2633 H 248.528 2.37496 3.52811 0
M  V30 2634 N 246.843 -1.10192 1.12674 0
M  V30 2635 C 248.089 -1.82475 0.884915 0
M  V30 2636 C 248.422 -1.85093 -0.58773 0
M  V30 2637 O 247.697 -1.3134 -1.43457 0
M  V30 2638 C 247.98 -3.29018 1.46353 0
M  V30 2639 C 247.833 -3.34718 3.00473 0
M  V30 2640 C 249.152 -4.25473 1.12519 0
M  V30 2641 H 246.271 -0.662492 0.322915 0
M  V30 2642 H 248.913 -1.2913 1.39375 0
M  V30 2643 H 247.063 -3.74576 1.03077 0
M  V30 2644 H 248.735 -2.97622 3.52447 0
M  V30 2645 H 246.978 -2.74541 3.35872 0
M  V30 2646 H 247.649 -4.37918 3.36053 0
M  V30 2647 H 250.125 -3.88161 1.499 0
M  V30 2648 H 249.001 -5.26365 1.55663 0
M  V30 2649 H 249.262 -4.42084 0.0377407 0
M  V30 2650 N 248.321 -0.919034 -1.28029 0
M  V30 2651 C 249.231 -0.416756 -2.30869 0
M  V30 2652 C 250.247 0.498235 -1.66714 0
M  V30 2653 O 251.423 0.383144 -1.97722 0
M  V30 2654 C 248.488 0.330274 -3.45123 0
M  V30 2655 C 247.549 -0.618578 -4.2482 0
M  V30 2656 C 246.782 0.0928959 -5.33619 0
M  V30 2657 O 247.005 1.31375 -5.55065 0
M  V30 2658 O 245.939 -0.574499 -5.99152 0
M  V30 2659 H 249.765 -1.27043 -2.75851 0
M  V30 2660 H 247.35 -0.684052 -1.3282 0
M  V30 2661 H 249.232 0.751972 -4.14636 0
M  V30 2662 H 247.907 1.1597 -3.02213 0
M  V30 2663 H 246.814 -1.08978 -3.57875 0
M  V30 2664 H 248.147 -1.41497 -4.71423 0
M  V30 2665 N 249.799 1.42003 -0.683588 0
M  V30 2666 C 251.076 1.95112 -0.138075 0
M  V30 2667 C 251.456 1.62359 1.34918 0
M  V30 2668 O 250.804 0.924311 2.08971 0
M  V30 2669 C 251.014 3.46505 -0.416581 0
M  V30 2670 C 252.362 4.23254 -0.337834 0
M  V30 2671 O 253.386 3.54468 -0.35082 0
M  V30 2672 O 252.245 5.45743 -0.287596 0
M  V30 2673 H 249.339 0.826961 -0.00797996 0
M  V30 2674 H 251.885 1.51784 -0.758924 0
M  V30 2675 H 250.657 3.63582 -1.4465 0
M  V30 2676 H 250.28 3.969 0.235839 0
M  V30 2677 N 251.277 0.427512 1.51691 0
M  V30 2678 C 252.502 -0.143601 2.06902 0
M  V30 2679 C 252.927 -1.36536 1.29382 0
M  V30 2680 O 252.285 -1.78289 0.329043 0
M  V30 2681 C 252.333 -0.454207 3.57728 0
M  V30 2682 O 251.437 -1.54228 3.82475 0
M  V30 2683 H 250.778 -0.00617128 0.663971 0
M  V30 2684 H 253.308 0.606014 1.95419 0
M  V30 2685 H 253.318 -0.707525 4.01818 0
M  V30 2686 H 251.993 0.438812 4.13579 0
M  V30 2687 H 250.57 -1.2797 3.50254 0
M  V30 2688 N 252.755 -1.56801 0.158532 0
M  V30 2689 C 254.003 -1.96102 -0.488712 0
M  V30 2690 C 254.324 -1.04498 -1.64636 0
M  V30 2691 O 253.594 -0.108783 -1.95598 0
M  V30 2692 H 252.174 -0.724102 -0.183535 0
M  V30 2693 H 254.836 -1.93457 0.236728 0
M  V30 2694 H 253.932 -3.00097 -0.857219 0
M  V30 2695 N 254.233 0.115231 -1.57178 0
M  V30 2696 C 255.461 0.836437 -1.89239 0
M  V30 2697 C 255.876 1.73256 -0.750175 0
M  V30 2698 O 255.233 1.80357 0.278832 0
M  V30 2699 C 255.284 1.66671 -3.20785 0
M  V30 2700 O 255.005 0.806652 -4.3061 0
M  V30 2701 C 256.506 2.49274 -3.66575 0
M  V30 2702 H 253.726 0.240253 -0.626514 0
M  V30 2703 H 256.27 0.0984932 -2.04263 0
M  V30 2704 H 254.425 2.35737 -3.0742 0
M  V30 2705 H 254.839 1.37969 -5.06028 0
M  V30 2706 H 256.313 3.03055 -4.6137 0
M  V30 2707 H 256.79 3.26807 -2.93417 0
M  V30 2708 H 257.396 1.85443 -3.82741 0
M  V30 2709 N 255.711 1.52812 0.385517 0
M  V30 2710 C 256.941 1.71658 1.14966 0
M  V30 2711 C 257.349 0.436253 1.84102 0
M  V30 2712 O 256.692 -0.599313 1.73649 0
M  V30 2713 C 256.754 2.81309 2.23843 0
M  V30 2714 C 256.418 4.22313 1.74644 0
M  V30 2715 C 257.415 5.05352 1.22129 0
M  V30 2716 C 255.1 4.68648 1.80761 0
M  V30 2717 C 257.094 6.32807 0.763838 0
M  V30 2718 C 254.781 5.96086 1.34627 0
M  V30 2719 C 255.779 6.77996 0.825264 0
M  V30 2720 O 255.467 8.03045 0.370669 0
M  V30 2721 H 255.199 0.578022 0.350523 0
M  V30 2722 H 257.753 2.00263 0.456509 0
M  V30 2723 H 255.983 2.48133 2.96592 0
M  V30 2724 H 257.672 2.88524 2.85497 0
M  V30 2725 H 258.438 4.70736 1.16758 0
M  V30 2726 H 254.317 4.04979 2.20256 0
M  V30 2727 H 257.861 6.96689 0.356494 0
M  V30 2728 H 253.758 6.30205 1.39686 0
M  V30 2729 H 254.526 8.17021 0.491829 0
M  V30 2730 N 257.189 -0.644168 1.43834 0
M  V30 2731 C 258.419 -1.42939 1.49171 0
M  V30 2732 C 258.827 -1.88874 0.111048 0
M  V30 2733 O 258.17 -1.60656 -0.8908 0
M  V30 2734 C 258.232 -2.69151 2.38324 0
M  V30 2735 C 257.896 -2.45097 3.85715 0
M  V30 2736 C 258.893 -2.07747 4.76589 0
M  V30 2737 C 256.578 -2.59141 4.30292 0
M  V30 2738 C 258.572 -1.8475 6.10038 0
M  V30 2739 C 256.259 -2.35759 5.63792 0
M  V30 2740 C 257.257 -1.9862 6.53482 0
M  V30 2741 O 256.945 -1.75489 7.84512 0
M  V30 2742 H 256.677 -0.445271 0.508635 0
M  V30 2743 H 259.231 -0.79621 1.8934 0
M  V30 2744 H 257.461 -3.3506 1.93058 0
M  V30 2745 H 259.15 -3.31123 2.3476 0
M  V30 2746 H 259.916 -1.96465 4.43426 0
M  V30 2747 H 255.795 -2.87022 3.60749 0
M  V30 2748 H 259.339 -1.55686 6.80006 0
M  V30 2749 H 255.236 -2.46646 5.9652 0
M  V30 2750 H 256.004 -1.89841 7.9618 0
M  V30 2751 N 258.668 -1.30515 -0.883378 0
M  V30 2752 C 259.908 -1.20716 -1.64946 0
M  V30 2753 C 260.272 0.234072 -1.90568 0
M  V30 2754 O 261.473 0.455335 -2.64915 0
M  V30 2755 C 259.744 -2.01444 -2.9522 0
M  V30 2756 S 261.303 -2.0836 -3.86175 0
M  V30 2757 H 258.121 -0.430165 -0.566109 0
M  V30 2758 H 260.723 -1.65011 -1.04841 0
M  V30 2759 H 259.427 -3.05268 -2.74298 0
M  V30 2760 H 258.958 -1.57817 -3.60357 0
M  V30 2761 H 260.973 -1.21215 -4.81167 0
M  V30 2762 N 260.146 1.09593 -1.13257 0
M  V30 2763 C 261.374 1.855 -0.916378 0
M  V30 2764 C 261.789 1.81069 0.534738 0
M  V30 2765 O 261.146 1.20562 1.37007 0
M  V30 2766 C 261.197 3.33546 -1.39388 0
M  V30 2767 O 260.918 3.37927 -2.78813 0
M  V30 2768 C 262.419 4.26299 -1.21588 0
M  V30 2769 H 259.639 0.585991 -0.326887 0
M  V30 2770 H 262.183 1.38488 -1.5047 0
M  V30 2771 H 260.338 3.77992 -0.848597 0
M  V30 2772 H 260.752 4.30254 -2.9997 0
M  V30 2773 H 262.226 5.28341 -1.59876 0
M  V30 2774 H 262.703 4.38918 -0.157376 0
M  V30 2775 H 263.309 3.87668 -1.7491 0
M  V30 2776 N 261.624 0.925811 1.2754 0
M  V30 2777 C 262.872 0.564138 1.94067 0
M  V30 2778 C 263.193 -0.897188 1.73134 0
M  V30 2779 O 262.463 -1.63573 1.07799 0
M  V30 2780 H 261.043 0.205645 0.718136 0
M  V30 2781 H 263.705 1.1778 1.55287 0
M  V30 2782 H 262.801 0.76881 3.02483 0
M  V30 2783 N 263.102 -1.41638 0.69111 0
M  V30 2784 C 264.049 -2.30789 0.0229705 0
M  V30 2785 C 265.019 -1.46863 -0.775911 0
M  V30 2786 O 266.204 -1.75661 -0.74485 0
M  V30 2787 C 263.344 -3.32868 -0.910666 0
M  V30 2788 C 262.457 -4.31875 -0.103874 0
M  V30 2789 C 261.592 -5.21024 -1.03475 0
M  V30 2790 C 260.631 -6.11702 -0.220598 0
M  V30 2791 N 259.768 -6.93349 -1.10504 0
M  V30 2792 H 264.608 -2.87366 0.788978 0
M  V30 2793 H 262.145 -1.41535 0.400794 0
M  V30 2794 H 264.103 -3.90596 -1.46597 0
M  V30 2795 H 262.733 -2.77851 -1.64312 0
M  V30 2796 H 261.785 -3.76131 0.568285 0
M  V30 2797 H 263.097 -4.96003 0.527504 0
M  V30 2798 H 262.251 -5.83565 -1.65943 0
M  V30 2799 H 260.99 -4.57112 -1.69999 0
M  V30 2800 H 259.995 -5.48215 0.417187 0
M  V30 2801 H 261.22 -6.77668 0.440784 0
M  V30 2802 H 259.166 -6.3205 -1.75638 0
M  V30 2803 H 259.083 -7.54146 -0.529125 0
M  V30 2804 H 260.351 -7.60362 -1.71667 0
M  V30 2805 N 264.58 -0.43555 -1.51462 0
M  V30 2806 C 265.826 0.131709 -2.02372 0
M  V30 2807 C 266.159 1.42516 -1.3192 0
M  V30 2808 O 265.434 1.89606 -0.433573 0
M  V30 2809 C 265.717 0.352301 -3.58373 0
M  V30 2810 C 265.57 -0.959676 -4.39443 0
M  V30 2811 C 266.889 1.12286 -4.25535 0
M  V30 2812 H 264.008 0.0463936 -0.735538 0
M  V30 2813 H 266.65 -0.574197 -1.81116 0
M  V30 2814 H 264.8 0.9536 -3.76615 0
M  V30 2815 H 266.472 -1.59482 -4.32855 0
M  V30 2816 H 264.715 -1.56468 -4.04599 0
M  V30 2817 H 265.386 -0.759394 -5.46752 0
M  V30 2818 H 267.862 0.613545 -4.11552 0
M  V30 2819 H 266.738 1.24598 -5.34571 0
M  V30 2820 H 266.999 2.15048 -3.86273 0
M  V30 2821 N 266.058 1.56714 -0.166846 0
M  V30 2822 C 267.304 1.97813 0.473473 0
M  V30 2823 C 267.659 1.05095 1.61161 0
M  V30 2824 O 266.952 0.0897541 1.9139 0
M  V30 2825 C 267.146 3.42889 1.00806 0
M  V30 2826 C 266.975 4.49635 -0.0767392 0
M  V30 2827 C 265.745 5.02566 -0.524894 0
M  V30 2828 C 267.943 5.06793 -0.875504 0
M  V30 2829 N 265.925 5.9294 -1.59047 0
M  V30 2830 C 267.296 5.93565 -1.79111 0
M  V30 2831 C 269.351 4.89306 -0.921083 0
M  V30 2832 C 268.054 6.64721 -2.74843 0
M  V30 2833 C 270.08 5.61179 -1.86633 0
M  V30 2834 C 269.442 6.47675 -2.76942 0
M  V30 2835 H 265.541 0.769093 0.141489 0
M  V30 2836 H 268.125 1.92874 -0.266031 0
M  V30 2837 H 266.296 3.48382 1.7171 0
M  V30 2838 H 268.028 3.71008 1.61664 0
M  V30 2839 H 264.783 4.73439 -0.123432 0
M  V30 2840 H 265.207 6.42831 -2.12361 0
M  V30 2841 H 269.849 4.22136 -0.23692 0
M  V30 2842 H 267.567 7.31107 -3.44249 0
M  V30 2843 H 271.153 5.49636 -1.90764 0
M  V30 2844 H 270.033 7.02313 -3.48893 0
M  V30 2845 N 267.536 -0.106894 1.57237 0
M  V30 2846 C 268.468 -1.15646 1.97885 0
M  V30 2847 C 269.481 -1.36981 0.879779 0
M  V30 2848 O 270.67 -1.35841 1.15799 0
M  V30 2849 C 267.77 -2.51425 2.27241 0
M  V30 2850 C 266.943 -2.50529 3.58545 0
M  V30 2851 C 266.002 -3.68145 3.75973 0
M  V30 2852 O 265.028 -3.51176 4.47956 0
M  V30 2853 N 266.23 -4.87177 3.15656 0
M  V30 2854 H 268.995 -0.81059 2.8853 0
M  V30 2855 H 266.556 -0.296024 1.59171 0
M  V30 2856 H 268.548 -3.28689 2.36105 0
M  V30 2857 H 267.118 -2.78147 1.42663 0
M  V30 2858 H 266.338 -1.58894 3.60758 0
M  V30 2859 H 267.626 -2.46997 4.44826 0
M  V30 2860 H 267.024 -5.03868 2.57165 0
M  V30 2861 H 265.581 -5.62075 3.30023 0
M  V30 2862 N 269.014 -1.53014 -0.377408 0
M  V30 2863 C 269.944 -1.81589 -1.46791 0
M  V30 2864 C 270.925 -0.668622 -1.56408 0
M  V30 2865 O 272.11 -0.917337 -1.71168 0
M  V30 2866 C 269.24 -1.99519 -2.8427 0
M  V30 2867 C 268.194 -3.15249 -2.89486 0
M  V30 2868 C 267.52 -3.18451 -4.29527 0
M  V30 2869 C 268.82 -4.54084 -2.58079 0
M  V30 2870 H 270.514 -2.7291 -1.23127 0
M  V30 2871 H 268.06 -1.31319 -0.590883 0
M  V30 2872 H 270.013 -2.18092 -3.60575 0
M  V30 2873 H 268.737 -1.04897 -3.09296 0
M  V30 2874 H 267.396 -2.96477 -2.15631 0
M  V30 2875 H 267.044 -2.2149 -4.5161 0
M  V30 2876 H 266.744 -3.962 -4.33934 0
M  V30 2877 H 268.268 -3.39193 -5.07721 0
M  V30 2878 H 269.682 -4.72899 -3.24098 0
M  V30 2879 H 268.079 -5.33987 -2.7382 0
M  V30 2880 H 269.149 -4.60006 -1.53372 0
M  V30 2881 N 270.492 0.636531 -1.44174 0
M  V30 2882 C 271.769 1.39463 -1.37148 0
M  V30 2883 C 272.149 2.11082 -0.027507 0
M  V30 2884 O 271.497 2.05954 0.989716 0
M  V30 2885 C 271.707 2.36552 -2.56601 0
M  V30 2886 C 273.055 3.00048 -3.00427 0
M  V30 2887 O 274.079 2.46878 -2.56767 0
M  V30 2888 O 272.938 3.96488 -3.76111 0
M  V30 2889 H 270.032 0.623903 -0.542839 0
M  V30 2890 H 272.578 0.662039 -1.56253 0
M  V30 2891 H 271.35 1.82692 -3.46034 0
M  V30 2892 H 270.973 3.17236 -2.39681 0
M  V30 2893 N 271.97 1.30982 0.876444 0
M  V30 2894 C 273.2 1.23063 1.65949 0
M  V30 2895 C 273.608 -0.207537 1.88058 0
M  V30 2896 O 272.951 -1.14781 1.43426 0
M  V30 2897 C 273.013 1.89768 3.05333 0
M  V30 2898 C 272.677 3.39106 3.0636 0
M  V30 2899 C 273.674 4.3496 2.84791 0
M  V30 2900 C 271.359 3.80693 3.27686 0
M  V30 2901 C 273.353 5.70375 2.84519 0
M  V30 2902 C 271.04 5.16223 3.27043 0
M  V30 2903 C 272.038 6.10875 3.05485 0
M  V30 2904 O 271.726 7.43928 3.04674 0
M  V30 2905 H 271.458 0.426685 0.524324 0
M  V30 2906 H 274.012 1.7329 1.10271 0
M  V30 2907 H 272.242 1.34082 3.6271 0
M  V30 2908 H 273.931 1.75853 3.65829 0
M  V30 2909 H 274.697 4.0416 2.68103 0
M  V30 2910 H 270.576 3.07457 3.43499 0
M  V30 2911 H 274.12 6.44228 2.67611 0
M  V30 2912 H 270.017 5.4666 3.43269 0
M  V30 2913 H 270.785 7.53022 3.2078 0
M  V30 2914 N 273.449 -1.08991 1.13837 0
M  V30 2915 C 274.359 -2.19301 0.833333 0
M  V30 2916 C 275.375 -1.73026 -0.183847 0
M  V30 2917 O 276.551 -2.01395 -0.0138092 0
M  V30 2918 C 273.616 -3.45323 0.308651 0
M  V30 2919 C 272.677 -4.06255 1.38764 0
M  V30 2920 C 271.91 -5.26262 0.887896 0
M  V30 2921 O 272.133 -5.69747 -0.27287 0
M  V30 2922 O 271.067 -5.78435 1.66421 0
M  V30 2923 H 274.893 -2.47854 1.75506 0
M  V30 2924 H 272.478 -1.18012 0.916166 0
M  V30 2925 H 274.36 -4.21394 0.0216739 0
M  V30 2926 H 273.035 -3.18362 -0.585431 0
M  V30 2927 H 271.942 -3.318 1.72799 0
M  V30 2928 H 273.275 -4.37452 2.25602 0
M  V30 2929 N 274.927 -0.932562 -1.27047 0
M  V30 2930 C 276.152 -0.591474 -1.98787 0
M  V30 2931 C 276.577 0.824601 -1.69062 0
M  V30 2932 O 275.935 1.5541 -0.933677 0
M  V30 2933 C 275.983 -0.829808 -3.50922 0
M  V30 2934 O 275.087 0.102266 -4.12273 0
M  V30 2935 H 274.428 -0.227185 -0.623926 0
M  V30 2936 H 276.958 -1.25314 -1.61733 0
M  V30 2937 H 276.968 -0.747292 -4.01098 0
M  V30 2938 H 275.643 -1.86201 -3.7189 0
M  V30 2939 H 274.22 -0.0305761 -3.72887 0
M  V30 2940 N 276.405 1.4127 -0.698611 0
M  V30 2941 C 277.315 2.34573 -0.0357891 0
M  V30 2942 C 278.331 1.56393 0.762701 0
M  V30 2943 O 279.507 1.8886 0.699564 0
M  V30 2944 C 276.572 3.35159 0.887089 0
M  V30 2945 C 275.633 4.29225 0.0804634 0
M  V30 2946 C 274.866 5.25006 0.959387 0
M  V30 2947 O 275.089 5.26314 2.19886 0
M  V30 2948 O 274.023 6.00519 0.407439 0
M  V30 2949 H 277.849 2.92838 -0.804957 0
M  V30 2950 H 275.434 1.42175 -0.458966 0
M  V30 2951 H 277.316 3.9689 1.41621 0
M  V30 2952 H 275.991 2.79333 1.6357 0
M  V30 2953 H 274.898 3.70833 -0.493328 0
M  V30 2954 H 276.231 4.88157 -0.629547 0
M  V30 2955 N 277.883 0.443576 1.51229 0
M  V30 2956 C 279.294 -0.0180867 1.86691 0
M  V30 2957 C 279.645 -1.41384 1.36033 0
M  V30 2958 O 278.77 -2.04291 0.713722 0
M  V30 2959 C 279.365 -0.039597 3.38777 0
M  V30 2960 C 277.924 -0.445692 3.73752 0
M  V30 2961 C 277.071 0.357584 2.74985 0
M  V30 2962 H 280.022 0.659138 1.44364 0
M  V30 2963 H 280.043 -0.847761 3.70936 0
M  V30 2964 H 279.555 0.976382 3.75617 0
M  V30 2965 H 277.656 -1.46704 3.42503 0
M  V30 2966 H 277.769 -0.166155 4.78812 0
M  V30 2967 H 276.133 -0.184973 2.54027 0
M  V30 2968 H 276.916 1.37256 3.14668 0
M  V30 2969 N 279.361 -1.56624 0.175154 0
M  V30 2970 C 280.291 -2.21155 -0.749195 0
M  V30 2971 C 281.272 -1.16836 -1.23626 0
M  V30 2972 O 282.457 -1.45277 -1.28873 0
M  V30 2973 C 279.587 -2.8553 -1.97711 0
M  V30 2974 C 278.541 -3.95921 -1.62575 0
M  V30 2975 C 277.867 -4.47365 -2.92864 0
M  V30 2976 C 279.167 -5.15323 -0.850838 0
M  V30 2977 H 280.861 -2.98653 -0.211295 0
M  V30 2978 H 278.407 -1.43651 -0.100188 0
M  V30 2979 H 280.36 -3.2935 -2.62881 0
M  V30 2980 H 279.084 -2.05406 -2.53921 0
M  V30 2981 H 277.743 -3.52762 -0.997719 0
M  V30 2982 H 277.391 -3.64027 -3.47122 0
M  V30 2983 H 277.091 -5.21839 -2.70106 0
M  V30 2984 H 278.615 -4.93873 -3.59056 0
M  V30 2985 H 280.029 -5.55812 -1.40521 0
M  V30 2986 H 278.426 -5.95739 -0.722154 0
M  V30 2987 H 279.496 -4.84661 0.152082 0
M  V30 2988 N 280.839 0.0985539 -1.57292 0
M  V30 2989 C 281.787 1.1387 -2.02821 0
M  V30 2990 C 282.781 1.41676 -0.928666 0
M  V30 2991 O 283.987 1.41398 -1.11385 0
M  V30 2992 H 280.362 0.384419 -0.646317 0
M  V30 2993 H 282.333 0.728347 -2.89375 0
M  V30 2994 C 281.082 2.45166 -2.46554 0
M  V30 2995 H 280.405 2.24613 -3.3074 0
M  V30 2996 H 281.845 3.16456 -2.8219 0
M  V30 2997 C 280.304 3.09216 -1.33742 0
M  V30 2998 O 280.834 3.96163 -0.66464 0
M  V30 2999 N 279.04 2.69413 -1.08928 0
M  V30 3000 H 278.587 1.98801 -1.63817 0
M  V30 3001 H 278.545 3.12594 -0.336458 0
M  V30 3002 N 282.317 1.53212 0.369288 0
M  V30 3003 C 283.566 1.68436 1.10961 0
M  V30 3004 C 283.879 0.440738 1.9057 0
M  V30 3005 O 285.085 0.473446 2.6734 0
M  V30 3006 C 283.541 2.97744 2.0218 0
M  V30 3007 C 283.149 4.29355 1.279 0
M  V30 3008 C 284.893 3.22334 2.76226 0
M  V30 3009 C 282.8 5.49755 2.17999 0
M  V30 3010 H 281.73 0.627568 0.41794 0
M  V30 3011 H 284.381 1.79713 0.370884 0
M  V30 3012 H 282.763 2.8026 2.79768 0
M  V30 3013 H 283.937 4.57458 0.554007 0
M  V30 3014 H 282.252 4.11179 0.657311 0
M  V30 3015 H 284.849 4.09471 3.43857 0
M  V30 3016 H 285.192 2.38238 3.41392 0
M  V30 3017 H 285.725 3.40475 2.05723 0
M  V30 3018 H 282.464 6.36318 1.57417 0
M  V30 3019 H 281.984 5.25937 2.88359 0
M  V30 3020 H 283.663 5.84401 2.77641 0
M  V30 3021 N 283.795 -0.628877 1.44509 0
M  V30 3022 C 285.023 -1.41554 1.50897 0
M  V30 3023 C 285.438 -1.8832 0.134564 0
M  V30 3024 O 284.795 -1.60969 -0.859965 0
M  V30 3025 C 284.846 -2.63435 2.47556 0
M  V30 3026 O 284.567 -2.18619 3.79654 0
M  V30 3027 C 286.068 -3.56537 2.63431 0
M  V30 3028 H 283.288 -0.434044 0.511709 0
M  V30 3029 H 285.832 -0.768895 1.89495 0
M  V30 3030 H 283.987 -3.24187 2.12089 0
M  V30 3031 H 284.401 -2.97652 4.31861 0
M  V30 3032 H 285.875 -4.38657 3.35088 0
M  V30 3033 H 286.352 -4.05493 1.68738 0
M  V30 3034 H 286.958 -3.01653 2.9981 0
M  V30 3035 N 285.273 -1.31445 -0.869486 0
M  V30 3036 C 286.519 -1.21337 -1.62496 0
M  V30 3037 C 286.852 0.227872 -1.92858 0
M  V30 3038 O 286.127 1.16094 -1.56053 0
M  V30 3039 C 286.41 -2.05814 -2.95487 0
M  V30 3040 C 286.263 -3.5824 -2.72 0
M  V30 3041 C 287.582 -1.9079 -3.96594 0
M  V30 3042 H 284.701 -0.442135 -0.589649 0
M  V30 3043 H 287.343 -1.6124 -1.00507 0
M  V30 3044 H 285.493 -1.71913 -3.48394 0
M  V30 3045 H 287.165 -4.0228 -2.25762 0
M  V30 3046 H 285.408 -3.81647 -2.06224 0
M  V30 3047 H 286.079 -4.12657 -3.66631 0
M  V30 3048 H 288.555 -2.20459 -3.52898 0
M  V30 3049 H 287.431 -2.52199 -4.87531 0
M  V30 3050 H 287.692 -0.871341 -4.33428 0
M  V30 3051 N 286.751 1.08385 -1.14413 0
M  V30 3052 C 288 1.80153 -0.907076 0
M  V30 3053 C 288.313 1.87176 0.567851 0
M  V30 3054 O 289.519 2.55359 0.922172 0
M  V30 3055 C 287.975 3.23687 -1.57336 0
M  V30 3056 C 287.583 3.24897 -3.08457 0
M  V30 3057 C 289.327 4.00136 -1.41744 0
M  V30 3058 C 287.234 4.6302 -3.67921 0
M  V30 3059 H 286.164 0.675139 -0.335714 0
M  V30 3060 H 288.815 1.21733 -1.37307 0
M  V30 3061 H 287.197 3.82234 -1.03505 0
M  V30 3062 H 288.371 2.76055 -3.68958 0
M  V30 3063 H 286.686 2.61943 -3.2369 0
M  V30 3064 H 289.283 5.02201 -1.83572 0
M  V30 3065 H 289.626 4.14709 -0.363576 0
M  V30 3066 H 290.159 3.48058 -1.92614 0
M  V30 3067 H 286.898 4.5365 -4.73161 0
M  V30 3068 H 286.418 5.12143 -3.12201 0
M  V30 3069 H 288.097 5.31994 -3.68227 0
M  V30 3070 N 288.23 0.939286 1.26551 0
M  V30 3071 C 289.177 0.446088 2.26448 0
M  V30 3072 C 290.147 -0.493234 1.58608 0
M  V30 3073 O 291.332 -0.409857 1.86346 0
M  V30 3074 C 288.472 -0.284375 3.43926 0
M  V30 3075 C 287.585 0.690399 4.26448 0
M  V30 3076 C 286.72 -0.0610712 5.31165 0
M  V30 3077 C 285.759 0.905649 6.05363 0
M  V30 3078 N 284.896 0.186055 7.01853 0
M  V30 3079 H 289.736 1.30291 2.68008 0
M  V30 3080 H 287.273 0.65371 1.31776 0
M  V30 3081 H 289.231 -0.724313 4.10864 0
M  V30 3082 H 287.861 -1.10535 3.03285 0
M  V30 3083 H 286.913 1.24885 3.59316 0
M  V30 3084 H 288.225 1.42873 4.779 0
M  V30 3085 H 287.379 -0.56038 6.04106 0
M  V30 3086 H 286.118 -0.832297 4.80546 0
M  V30 3087 H 285.123 1.4161 5.3125 0
M  V30 3088 H 286.348 1.67685 6.58072 0
M  V30 3089 H 284.294 -0.566714 6.53548 0
M  V30 3090 H 284.211 0.863752 7.51049 0
M  V30 3091 H 285.479 -0.292221 7.78952 0
M  V30 3092 N 289.708 -1.40897 0.706093 0
M  V30 3093 C 290.671 -2.29131 0.0562841 0
M  V30 3094 C 291.671 -1.44901 -0.697166 0
M  V30 3095 O 292.861 -1.65926 -0.530484 0
M  V30 3096 C 289.993 -3.27957 -0.93043 0
M  V30 3097 H 291.186 -2.88091 0.833284 0
M  V30 3098 H 288.739 -1.4906 0.470192 0
M  V30 3099 H 289.474 -2.73997 -1.73482 0
M  V30 3100 H 289.259 -3.90124 -0.393166 0
M  V30 3101 H 290.749 -3.94049 -1.38256 0
M  V30 3102 N 291.186 -0.45159 -1.50991 0
M  V30 3103 C 292.597 0.00818571 -1.86698 0
M  V30 3104 C 292.948 1.40661 -1.3678 0
M  V30 3105 O 292.073 2.0391 -0.724546 0
M  V30 3106 C 292.668 0.0216303 -3.38793 0
M  V30 3107 C 291.227 0.425865 -3.73983 0
M  V30 3108 C 290.374 -0.372163 -2.74791 0
M  V30 3109 H 293.325 -0.666785 -1.44013 0
M  V30 3110 H 293.346 0.828078 -3.7138 0
M  V30 3111 H 292.858 -0.996288 -3.75094 0
M  V30 3112 H 290.959 1.44886 -3.43277 0
M  V30 3113 H 291.072 0.140761 -4.78893 0
M  V30 3114 H 289.436 0.171498 -2.54122 0
M  V30 3115 H 290.219 -1.38922 -3.13935 0
M  V30 3116 N 292.664 1.56529 -0.183458 0
M  V30 3117 C 294.08 1.58664 0.172554 0
M  V30 3118 C 294.28 1.19925 1.61926 0
M  V30 3119 O 293.336 0.916534 2.35278 0
M  V30 3120 C 294.649 3.00463 -0.119262 0
M  V30 3121 C 296.197 3.12945 -0.0584396 0
M  V30 3122 C 296.672 4.56857 -0.323408 0
M  V30 3123 N 298.163 4.62403 -0.271612 0
M  V30 3124 C 298.898 5.71626 -0.450639 0
M  V30 3125 N 298.394 6.89362 -0.689384 0
M  V30 3126 N 300.187 5.60775 -0.385701 0
M  V30 3127 H 292.338 1.79994 -1.12765 0
M  V30 3128 H 294.601 0.834808 -0.449222 0
M  V30 3129 H 294.307 3.33326 -1.12192 0
M  V30 3130 H 294.181 3.72659 0.583544 0
M  V30 3131 H 296.568 2.79902 0.934805 0
M  V30 3132 H 296.649 2.4316 -0.794144 0
M  V30 3133 H 296.293 4.9061 -1.31392 0
M  V30 3134 H 296.223 5.24816 0.43305 0
M  V30 3135 H 298.714 3.77785 -0.0932256 0
M  V30 3136 H 299.027 7.68489 -0.815113 0
M  V30 3137 H 297.372 6.91196 -0.726142 0
M  V30 3138 H 300.563 4.67674 -0.199687 0
M  V30 3139 H 300.736 6.4584 -0.528646 0
M  V30 3140 N 294.142 -0.090211 1.57342 0
M  V30 3141 C 295.052 -1.12735 2.05738 0
M  V30 3142 C 296.068 -1.43557 0.983231 0
M  V30 3143 O 297.244 -1.54101 1.29672 0
M  V30 3144 C 294.309 -2.42659 2.47624 0
M  V30 3145 C 293.37 -2.18975 3.69254 0
M  V30 3146 C 292.603 -3.42704 4.09133 0
M  V30 3147 O 292.826 -4.51127 3.49057 0
M  V30 3148 O 291.76 -3.32003 5.02053 0
M  V30 3149 H 295.586 -0.746279 2.94388 0
M  V30 3150 H 293.171 -0.303064 1.46294 0
M  V30 3151 H 295.053 -3.19155 2.7517 0
M  V30 3152 H 293.728 -2.80182 1.62109 0
M  V30 3153 H 292.635 -1.40244 3.46818 0
M  V30 3154 H 293.968 -1.86342 4.55563 0
M  V30 3155 N 295.62 -1.53406 -0.361157 0
M  V30 3156 C 296.567 -1.80156 -1.44265 0
M  V30 3157 C 297.537 -0.646183 -1.53015 0
M  V30 3158 O 298.722 -0.888818 -1.68833 0
M  V30 3159 C 295.862 -2.00116 -2.81154 0
M  V30 3160 C 294.975 -3.27833 -2.81335 0
M  V30 3161 C 294.11 -3.37957 -4.09828 0
M  V30 3162 C 293.149 -4.59689 -4.04168 0
M  V30 3163 N 292.286 -4.66942 -5.24318 0
M  V30 3164 H 297.126 -2.72438 -1.20754 0
M  V30 3165 H 294.663 -1.34954 -0.585296 0
M  V30 3166 H 296.621 -2.09677 -3.60682 0
M  V30 3167 H 295.251 -1.11167 -3.03054 0
M  V30 3168 H 294.303 -3.27204 -1.94014 0
M  V30 3169 H 295.615 -4.17442 -2.73027 0
M  V30 3170 H 294.769 -3.46853 -4.97773 0
M  V30 3171 H 293.508 -2.46372 -4.20894 0
M  V30 3172 H 292.513 -4.50889 -3.14609 0
M  V30 3173 H 293.738 -5.5262 -3.947 0
M  V30 3174 H 291.684 -3.7826 -5.35962 0
M  V30 3175 H 291.601 -5.50462 -5.18197 0
M  V30 3176 H 292.869 -4.80127 -6.14084 0
M  V30 3177 N 297.098 0.621204 -1.44841 0
M  V30 3178 C 298.328 1.40548 -1.51426 0
M  V30 3179 C 298.736 1.88673 -0.141083 0
M  V30 3180 O 298.079 1.62053 0.865128 0
M  V30 3181 C 298.141 2.65325 -2.42576 0
M  V30 3182 C 297.805 2.3893 -3.89566 0
M  V30 3183 C 298.802 2.00138 -4.79834 0
M  V30 3184 C 296.487 2.52263 -4.3436 0
M  V30 3185 C 298.481 1.75021 -6.129 0
M  V30 3186 C 296.168 2.2676 -5.67471 0
M  V30 3187 C 297.166 1.88199 -6.56559 0
M  V30 3188 O 296.854 1.62986 -7.87204 0
M  V30 3189 H 296.586 0.437122 -0.515655 0
M  V30 3190 H 299.14 0.765987 -1.90583 0
M  V30 3191 H 297.37 3.31947 -1.98364 0
M  V30 3192 H 299.059 3.27347 -2.39998 0
M  V30 3193 H 299.825 1.89386 -4.46495 0
M  V30 3194 H 295.704 2.81246 -3.65269 0
M  V30 3195 H 299.248 1.44848 -6.82396 0
M  V30 3196 H 295.145 2.37125 -6.00368 0
M  V30 3197 H 295.913 1.7715 -7.991 0
M  V30 3198 N 298.576 1.31904 0.862503 0
M  V30 3199 C 299.822 1.23207 1.61838 0
M  V30 3200 C 300.177 -0.206062 1.91293 0
M  V30 3201 O 299.47 -1.14162 1.53875 0
M  V30 3202 C 299.664 2.01713 2.95037 0
M  V30 3203 C 299.493 3.53014 2.78588 0
M  V30 3204 C 298.263 4.22359 2.77382 0
M  V30 3205 C 300.461 4.47819 2.52909 0
M  V30 3206 N 298.443 5.59766 2.52062 0
M  V30 3207 C 299.814 5.72947 2.36922 0
M  V30 3208 C 301.869 4.37162 2.38314 0
M  V30 3209 C 300.572 6.88623 2.07823 0
M  V30 3210 C 302.598 5.5263 2.10604 0
M  V30 3211 C 301.96 6.76752 1.95411 0
M  V30 3212 H 298.059 0.505984 0.596242 0
M  V30 3213 H 300.643 1.66179 1.01452 0
M  V30 3214 H 298.814 1.61098 3.53415 0
M  V30 3215 H 300.546 1.84975 3.59953 0
M  V30 3216 H 297.301 3.74401 2.90036 0
M  V30 3217 H 297.725 6.32135 2.42352 0
M  V30 3218 H 302.367 3.41857 2.48784 0
M  V30 3219 H 300.085 7.83948 1.9609 0
M  V30 3220 H 303.671 5.46307 2.00101 0
M  V30 3221 H 302.551 7.6459 1.74274 0
M  V30 3222 N 300.054 -1.07777 1.14986 0
M  V30 3223 C 300.984 -2.16865 0.865557 0
M  V30 3224 C 301.965 -1.69123 -0.182083 0
M  V30 3225 O 303.15 -1.94164 -0.0373815 0
M  V30 3226 C 300.28 -3.45539 0.349313 0
M  V30 3227 C 299.234 -4.06708 1.33313 0
M  V30 3228 C 298.56 -5.30411 0.675918 0
M  V30 3229 C 299.86 -4.47241 2.69764 0
M  V30 3230 H 301.554 -2.40905 1.77778 0
M  V30 3231 H 299.1 -1.15781 0.856203 0
M  V30 3232 H 301.053 -4.21174 0.137983 0
M  V30 3233 H 299.777 -3.21072 -0.598362 0
M  V30 3234 H 298.436 -3.33112 1.53075 0
M  V30 3235 H 298.084 -5.02232 -0.277767 0
M  V30 3236 H 297.784 -5.72293 1.33244 0
M  V30 3237 H 299.308 -6.08755 0.474262 0
M  V30 3238 H 300.722 -5.14025 2.53873 0
M  V30 3239 H 299.119 -5.00062 3.3175 0
M  V30 3240 H 300.189 -3.58818 3.26156 0
M  V30 3241 N 301.532 -0.945985 -1.26051 0
M  V30 3242 C 302.464 -0.416662 -2.25381 0
M  V30 3243 C 303.477 0.462712 -1.56086 0
M  V30 3244 O 304.666 0.272383 -1.7641 0
M  V30 3245 C 301.766 0.419812 -3.3629 0
M  V30 3246 C 300.939 -0.444531 -4.35135 0
M  V30 3247 C 299.998 0.332305 -5.2515 0
M  V30 3248 O 299.024 -0.266324 -5.68577 0
M  V30 3249 N 300.226 1.62763 -5.57215 0
M  V30 3250 H 302.991 -1.27059 -2.71433 0
M  V30 3251 H 300.552 -0.815392 -1.39868 0
M  V30 3252 H 302.544 0.947013 -3.93464 0
M  V30 3253 H 301.114 1.17456 -2.89694 0
M  V30 3254 H 300.334 -1.15291 -3.76964 0
M  V30 3255 H 301.622 -1.03478 -4.98166 0
M  V30 3256 H 301.02 2.13603 -5.23823 0
M  V30 3257 H 299.577 2.10097 -6.17011 0
M  V30 3258 N 303.011 1.40521 -0.713556 0
M  V30 3259 C 304.258 2.00923 -0.25219 0
M  V30 3260 C 304.586 1.56571 1.15395 0
M  V30 3261 O 303.841 0.775874 1.79663 0
M  V30 3262 C 304.14 3.56317 -0.278 0
M  V30 3263 C 303.806 4.20246 -1.63415 0
M  V30 3264 C 302.468 4.37422 -2.00538 0
M  V30 3265 C 304.82 4.55923 -2.52554 0
M  V30 3266 C 302.148 4.87558 -3.2635 0
M  V30 3267 C 304.5 5.07458 -3.77716 0
M  V30 3268 C 303.164 5.22843 -4.14959 0
M  V30 3269 H 302.434 0.735231 -0.0922829 0
M  V30 3270 H 305.081 1.68161 -0.916188 0
M  V30 3271 H 303.386 3.88976 0.469567 0
M  V30 3272 H 305.083 4.00883 0.0967819 0
M  V30 3273 H 301.673 4.07263 -1.33546 0
M  V30 3274 H 305.857 4.42291 -2.25149 0
M  V30 3275 H 301.113 4.97654 -3.55176 0
M  V30 3276 H 305.287 5.34041 -4.4696 0
M  V30 3277 H 302.914 5.61454 -5.12516 0
M  V30 3278 N 304.489 0.459591 1.5075 0
M  V30 3279 C 305.736 -0.0993495 2.02256 0
M  V30 3280 C 306.064 -1.40751 1.34237 0
M  V30 3281 O 305.319 -1.90379 0.453228 0
M  V30 3282 C 305.618 -0.342866 3.55752 0
M  V30 3283 C 305.284 0.88218 4.42186 0
M  V30 3284 C 303.946 1.21808 4.65528 0
M  V30 3285 C 306.298 1.69837 4.92752 0
M  V30 3286 C 303.626 2.37045 5.36681 0
M  V30 3287 C 305.978 2.84192 5.65171 0
M  V30 3288 C 304.642 3.1821 5.8677 0
M  V30 3289 H 303.912 -0.0363545 0.740108 0
M  V30 3290 H 306.559 0.611329 1.8148 0
M  V30 3291 H 304.864 -1.13567 3.7498 0
M  V30 3292 H 306.561 -0.789121 3.93159 0
M  V30 3293 H 303.151 0.610467 4.2423 0
M  V30 3294 H 307.335 1.45205 4.74583 0
M  V30 3295 H 302.591 2.63689 5.51614 0
M  V30 3296 H 306.765 3.4779 6.03337 0
M  V30 3297 H 304.392 4.07613 6.41682 0
M  V30 3298 N 305.967 -1.56429 0.191757 0
M  V30 3299 C 307.216 -1.9666 -0.448088 0
M  V30 3300 C 307.529 -1.08136 -1.62991 0
M  V30 3301 O 308.735 -1.38135 -2.33733 0
M  V30 3302 C 307.191 -3.49753 -0.848585 0
M  V30 3303 C 306.799 -4.46935 0.308764 0
M  V30 3304 C 308.543 -3.9876 -1.4557 0
M  V30 3305 C 306.45 -5.91293 -0.112506 0
M  V30 3306 H 305.38 -0.734312 -0.171179 0
M  V30 3307 H 308.031 -1.81301 0.283242 0
M  V30 3308 H 306.413 -3.60604 -1.63649 0
M  V30 3309 H 307.587 -4.47813 1.08627 0
M  V30 3310 H 305.902 -4.08102 0.827158 0
M  V30 3311 H 308.499 -5.04086 -1.78328 0
M  V30 3312 H 308.842 -3.42875 -2.36099 0
M  V30 3313 H 309.375 -3.9101 -0.731836 0
M  V30 3314 H 306.114 -6.51097 0.758514 0
M  V30 3315 H 305.634 -5.93676 -0.854941 0
M  V30 3316 H 307.313 -6.44663 -0.549448 0
M  V30 3317 N 307.445 0.0818655 -1.57387 0
M  V30 3318 C 308.856 0.634871 -1.75574 0
M  V30 3319 C 309.207 1.78435 -0.815809 0
M  V30 3320 O 308.332 2.164 0.0025366 0
M  V30 3321 C 308.927 1.15845 -3.18379 0
M  V30 3322 C 307.486 1.65741 -3.37945 0
M  V30 3323 C 306.633 0.572549 -2.71325 0
M  V30 3324 H 309.584 -0.144268 -1.58043 0
M  V30 3325 H 309.605 2.02751 -3.21982 0
M  V30 3326 H 309.117 0.321631 -3.86765 0
M  V30 3327 H 307.218 2.51781 -2.74658 0
M  V30 3328 H 307.331 1.74129 -4.46336 0
M  V30 3329 H 305.695 1.01518 -2.33594 0
M  V30 3330 H 306.478 -0.253918 -3.4236 0
M  V30 3331 N 308.923 1.53595 0.353017 0
M  V30 3332 C 309.853 1.83902 1.43883 0
M  V30 3333 C 310.834 0.693421 1.55324 0
M  V30 3334 O 312.019 0.944452 1.69687 0
M  V30 3335 C 309.149 2.04016 2.8106 0
M  V30 3336 C 308.103 3.19814 2.84434 0
M  V30 3337 C 307.429 3.25244 4.24406 0
M  V30 3338 C 308.729 4.58133 2.50822 0
M  V30 3339 H 310.423 2.74835 1.1877 0
M  V30 3340 H 307.969 1.32242 0.569917 0
M  V30 3341 H 309.922 2.238 3.57059 0
M  V30 3342 H 308.646 1.09804 3.07588 0
M  V30 3343 H 307.305 2.9987 2.10887 0
M  V30 3344 H 306.953 2.28646 4.48029 0
M  V30 3345 H 306.653 4.03054 4.27576 0
M  V30 3346 H 308.177 3.47228 5.0226 0
M  V30 3347 H 309.591 4.77995 3.16534 0
M  V30 3348 H 307.988 5.38276 2.6529 0
M  V30 3349 H 309.058 4.62387 1.46034 0
M  V30 3350 N 310.401 -0.613514 1.45168 0
M  V30 3351 C 311.331 -1.7354 1.56225 0
M  V30 3352 C 312.312 -1.64981 0.41414 0
M  V30 3353 O 313.497 -1.83472 0.636526 0
M  V30 3354 C 310.627 -3.12128 1.52295 0
M  V30 3355 C 309.581 -3.35491 2.65762 0
M  V30 3356 C 308.907 -4.74291 2.46885 0
M  V30 3357 C 310.207 -3.26325 4.0781 0
M  V30 3358 H 311.901 -1.64543 2.50132 0
M  V30 3359 H 309.447 -0.790185 1.20383 0
M  V30 3360 H 311.4 -3.90404 1.58628 0
M  V30 3361 H 310.124 -3.2195 0.549139 0
M  V30 3362 H 308.783 -2.59603 2.58847 0
M  V30 3363 H 308.431 -4.80839 1.47657 0
M  V30 3364 H 308.131 -4.9088 3.22972 0
M  V30 3365 H 309.655 -5.54775 2.55063 0
M  V30 3366 H 311.069 -3.94483 4.16 0
M  V30 3367 H 309.466 -3.54445 4.8424 0
M  V30 3368 H 310.536 -2.23855 4.30136 0
M  V30 3369 N 311.879 -1.3236 -0.855495 0
M  V30 3370 C 313.125 -1.23054 -1.612 0
M  V30 3371 C 313.458 0.207404 -1.93089 0
M  V30 3372 O 312.733 1.14432 -1.57275 0
M  V30 3373 C 313.016 -2.08937 -2.93287 0
M  V30 3374 C 312.869 -3.61105 -2.68185 0
M  V30 3375 C 314.188 -1.94986 -3.94549 0
M  V30 3376 H 311.307 -0.448364 -0.584926 0
M  V30 3377 H 313.949 -1.62297 -0.987917 0
M  V30 3378 H 312.099 -1.75599 -3.46551 0
M  V30 3379 H 313.771 -4.04652 -2.21483 0
M  V30 3380 H 312.014 -3.83813 -2.02164 0
M  V30 3381 H 312.685 -4.16522 -3.62234 0
M  V30 3382 H 315.161 -2.24189 -3.5054 0
M  V30 3383 H 314.037 -2.57356 -4.84829 0
M  V30 3384 H 314.298 -0.917263 -4.3248 0
M  V30 3385 N 313.357 1.07166 -1.15556 0
M  V30 3386 C 314.603 1.80065 -0.932984 0
M  V30 3387 C 314.936 1.86586 0.53845 0
M  V30 3388 O 314.211 1.35098 1.39924 0
M  V30 3389 C 314.494 3.25022 -1.55025 0
M  V30 3390 C 314.347 3.26634 -3.09242 0
M  V30 3391 C 315.666 4.22341 -1.2376 0
M  V30 3392 H 312.785 0.653697 -0.340366 0
M  V30 3393 H 315.427 1.25389 -1.4275 0
M  V30 3394 H 313.577 3.71712 -1.12972 0
M  V30 3395 H 315.249 2.88173 -3.60214 0
M  V30 3396 H 313.492 2.65539 -3.43033 0
M  V30 3397 H 314.163 4.28854 -3.47546 0
M  V30 3398 H 316.639 3.8405 -1.60139 0
M  V30 3399 H 315.515 5.22053 -1.69564 0
M  V30 3400 H 315.776 4.41828 -0.154938 0
M  V30 3401 N 314.835 0.952656 1.25548 0
M  V30 3402 C 316.084 0.602053 1.92505 0
M  V30 3403 C 316.397 -0.864663 1.75451 0
M  V30 3404 O 317.603 -1.32514 2.36965 0
M  V30 3405 C 316.059 1.02607 3.44963 0
M  V30 3406 C 315.667 2.51519 3.70732 0
M  V30 3407 C 317.411 0.747905 4.1786 0
M  V30 3408 C 315.318 2.87732 5.16686 0
M  V30 3409 H 314.248 0.22146 0.720744 0
M  V30 3410 H 316.899 1.15684 1.42441 0
M  V30 3411 H 315.281 0.399712 3.93978 0
M  V30 3412 H 316.455 3.19157 3.32378 0
M  V30 3413 H 314.77 2.76786 3.11092 0
M  V30 3414 H 317.367 0.994647 5.25367 0
M  V30 3415 H 317.71 -0.315629 4.15102 0
M  V30 3416 H 318.243 1.33452 3.74747 0
M  V30 3417 H 314.982 3.93095 5.24554 0
M  V30 3418 H 314.502 2.24765 5.56094 0
M  V30 3419 H 316.181 2.76817 5.84792 0
M  V30 3420 N 316.313 -1.40141 0.720998 0
M  V30 3421 C 317.243 -2.33339 0.0867621 0
M  V30 3422 C 318.224 -1.53178 -0.739622 0
M  V30 3423 O 319.409 -1.81625 -0.687449 0
M  V30 3424 C 316.539 -3.37194 -0.831728 0
M  V30 3425 C 315.493 -4.27857 -0.110558 0
M  V30 3426 C 314.819 -5.22294 -1.14513 0
M  V30 3427 C 316.119 -5.11872 1.0385 0
M  V30 3428 H 317.813 -2.86626 0.865219 0
M  V30 3429 H 315.359 -1.37814 0.417516 0
M  V30 3430 H 317.312 -4.01335 -1.28485 0
M  V30 3431 H 316.036 -2.82314 -1.64214 0
M  V30 3432 H 314.695 -3.65176 0.322797 0
M  V30 3433 H 314.343 -4.63717 -1.94874 0
M  V30 3434 H 314.043 -5.83797 -0.667446 0
M  V30 3435 H 315.567 -5.89312 -1.59824 0
M  V30 3436 H 316.981 -5.69436 0.664482 0
M  V30 3437 H 315.378 -5.82445 1.4449 0
M  V30 3438 H 316.448 -4.4753 1.86668 0
M  V30 3439 N 317.792 -0.46758 -1.50504 0
M  V30 3440 C 319.039 0.0886219 -2.02306 0
M  V30 3441 C 319.367 1.40037 -1.34981 0
M  V30 3442 O 318.622 1.90136 -0.463318 0
M  V30 3443 C 318.921 0.323995 -3.55928 0
M  V30 3444 C 318.587 -0.905618 -4.41712 0
M  V30 3445 C 317.249 -1.24275 -4.64875 0
M  V30 3446 C 319.601 -1.72448 -4.91845 0
M  V30 3447 C 316.929 -2.39888 -5.35417 0
M  V30 3448 C 319.281 -2.87185 -5.63656 0
M  V30 3449 C 317.945 -3.21317 -5.85074 0
M  V30 3450 H 317.215 0.0324291 -0.74029 0
M  V30 3451 H 319.862 -0.620945 -1.81153 0
M  V30 3452 H 318.167 1.11577 -3.75577 0
M  V30 3453 H 319.864 0.76826 -3.93572 0
M  V30 3454 H 316.454 -0.632956 -4.239 0
M  V30 3455 H 320.638 -1.4772 -4.73806 0
M  V30 3456 H 315.894 -2.66611 -5.50208 0
M  V30 3457 H 320.068 -3.50985 -6.01484 0
M  V30 3458 H 317.695 -4.1101 -6.39511 0
M  V30 3459 N 319.27 1.56325 -0.20005 0
M  V30 3460 C 320.233 2.18084 0.705132 0
M  V30 3461 C 321.233 1.13666 1.1374 0
M  V30 3462 O 322.423 1.39023 1.04968 0
M  V30 3463 C 319.555 2.78689 1.96329 0
M  V30 3464 H 320.748 2.99435 0.167023 0
M  V30 3465 H 318.301 1.56221 0.0495725 0
M  V30 3466 H 319.036 2.0115 2.5438 0
M  V30 3467 H 318.821 3.55133 1.66202 0
M  V30 3468 H 320.311 3.26096 2.60866 0
M  V30 3469 N 320.748 -0.0735177 1.57428 0
M  V30 3470 C 321.994 -0.774145 1.87443 0
M  V30 3471 C 322.327 -1.77311 0.792103 0
M  V30 3472 O 321.602 -1.93492 -0.197793 0
M  V30 3473 C 321.885 -1.48367 3.28115 0
M  V30 3474 C 321.738 -0.501227 4.46999 0
M  V30 3475 C 323.057 -2.429 3.66998 0
M  V30 3476 H 320.176 -0.279971 0.681752 0
M  V30 3477 H 322.818 -0.0373616 1.89963 0
M  V30 3478 H 320.968 -2.11171 3.26097 0
M  V30 3479 H 322.64 0.121468 4.6114 0
M  V30 3480 H 320.883 0.183593 4.33411 0
M  V30 3481 H 321.554 -1.03526 5.42205 0
M  V30 3482 H 324.03 -1.90175 3.70098 0
M  V30 3483 H 322.906 -2.89549 4.66318 0
M  V30 3484 H 323.167 -3.27628 2.96837 0
M  V30 3485 N 322.226 -1.5378 -0.344866 0
M  V30 3486 C 323.503 -1.61589 -1.10219 0
M  V30 3487 C 323.883 -0.436316 -2.06542 0
M  V30 3488 O 323.231 0.571543 -2.21237 0
M  V30 3489 C 323.441 -2.97602 -1.82301 0
M  V30 3490 C 324.789 -3.5291 -2.36093 0
M  V30 3491 O 325.813 -2.99768 -1.924 0
M  V30 3492 O 324.672 -4.45859 -3.16026 0
M  V30 3493 H 321.766 -0.653522 -0.506792 0
M  V30 3494 H 324.312 -1.66126 -0.346465 0
M  V30 3495 H 323.084 -3.74893 -1.12121 0
M  V30 3496 H 322.707 -2.9665 -2.64735 0
M  V30 3497 N 323.704 0.605807 -1.45491 0
M  V30 3498 C 324.932 1.39136 -1.5313 0
M  V30 3499 C 325.347 1.88082 -0.164507 0
M  V30 3500 O 324.704 1.62316 0.834247 0
M  V30 3501 C 324.755 2.59463 -2.51716 0
M  V30 3502 O 324.476 2.12551 -3.83084 0
M  V30 3503 C 325.977 3.52301 -2.6907 0
M  V30 3504 H 323.197 0.425849 -0.51855 0
M  V30 3505 H 325.741 0.73865 -1.90694 0
M  V30 3506 H 323.896 3.20772 -2.17219 0
M  V30 3507 H 324.31 2.90744 -4.36541 0
M  V30 3508 H 325.784 4.33271 -3.42024 0
M  V30 3509 H 326.261 4.02757 -1.75167 0
M  V30 3510 H 326.867 2.96845 -3.04571 0
M  V30 3511 N 325.182 1.32811 0.848464 0
M  V30 3512 C 326.43 1.23479 1.59991 0
M  V30 3513 C 326.751 -0.201853 1.93952 0
M  V30 3514 O 326.021 -1.12818 1.60153 0
M  V30 3515 H 324.601 0.454034 0.593179 0
M  V30 3516 H 327.263 1.66412 1.01455 0
M  V30 3517 H 326.359 1.82178 2.53412 0
M  V30 3518 N 326.66 -1.06551 1.16123 0
M  V30 3519 C 327.59 -2.15935 0.88851 0
M  V30 3520 C 328.571 -1.69306 -0.164135 0
M  V30 3521 O 329.756 -1.94193 -0.0167857 0
M  V30 3522 C 326.886 -3.45149 0.385942 0
M  V30 3523 C 325.84 -4.05271 1.3762 0
M  V30 3524 C 325.166 -5.29664 0.732137 0
M  V30 3525 C 326.466 -4.44355 2.74493 0
M  V30 3526 H 328.16 -2.39006 1.80323 0
M  V30 3527 H 325.706 -1.14866 0.868435 0
M  V30 3528 H 327.659 -4.21004 0.182647 0
M  V30 3529 H 326.383 -3.21689 -0.564274 0
M  V30 3530 H 325.042 -3.3147 1.56599 0
M  V30 3531 H 324.69 -5.02499 -0.224483 0
M  V30 3532 H 324.39 -5.70848 1.39307 0
M  V30 3533 H 325.914 -6.08218 0.538802 0
M  V30 3534 H 327.328 -5.11303 2.59311 0
M  V30 3535 H 325.725 -4.96515 3.37035 0
M  V30 3536 H 326.795 -3.55339 3.29943 0
M  V30 3537 N 328.138 -0.959301 -1.25041 0
M  V30 3538 C 329.385 -0.616611 -1.92884 0
M  V30 3539 C 329.713 0.847036 -1.75087 0
M  V30 3540 O 328.968 1.62374 -1.09239 0
M  V30 3541 C 329.267 -0.927136 -3.45165 0
M  V30 3542 C 328.933 -2.37757 -3.83122 0
M  V30 3543 C 327.595 -2.77402 -3.93194 0
M  V30 3544 C 329.947 -3.31929 -4.01836 0
M  V30 3545 C 327.275 -4.10277 -4.19392 0
M  V30 3546 C 329.627 -4.64423 -4.29528 0
M  V30 3547 C 328.291 -5.03857 -4.37818 0
M  V30 3548 H 327.561 -0.225634 -0.705812 0
M  V30 3549 H 330.208 -1.20921 -1.48493 0
M  V30 3550 H 328.513 -0.252195 -3.90987 0
M  V30 3551 H 330.21 -0.6405 -3.95852 0
M  V30 3552 H 326.8 -2.06013 -3.75841 0
M  V30 3553 H 330.984 -3.02488 -3.93465 0
M  V30 3554 H 326.24 -4.40467 -4.24027 0
M  V30 3555 H 330.414 -5.37369 -4.42953 0
M  V30 3556 H 328.041 -6.06843 -4.57871 0
M  V30 3557 N 329.616 1.39756 -0.72842 0
M  V30 3558 C 330.865 1.99879 -0.270407 0
M  V30 3559 C 331.178 1.58449 1.14688 0
M  V30 3560 O 332.384 2.11362 1.70407 0
M  V30 3561 C 330.84 3.57292 -0.43252 0
M  V30 3562 C 330.448 4.07688 -1.85727 0
M  V30 3563 C 332.192 4.24485 -0.0359507 0
M  V30 3564 C 330.099 5.5765 -1.96928 0
M  V30 3565 H 329.029 0.747689 -0.0973472 0
M  V30 3566 H 331.68 1.59837 -0.901355 0
M  V30 3567 H 330.062 3.95097 0.267219 0
M  V30 3568 H 331.236 3.81231 -2.58843 0
M  V30 3569 H 329.551 3.53135 -2.20646 0
M  V30 3570 H 332.148 5.34609 -0.0987484 0
M  V30 3571 H 332.491 4.03915 1.00787 0
M  V30 3572 H 333.024 3.9183 -0.686604 0
M  V30 3573 H 329.763 5.8309 -2.99476 0
M  V30 3574 H 329.283 5.8593 -1.28241 0
M  V30 3575 H 330.962 6.22957 -1.74737 0
M  V30 3576 N 331.094 0.475555 1.50254 0
M  V30 3577 C 332.319 -0.0777042 2.07254 0
M  V30 3578 C 332.744 -1.3235 1.3366 0
M  V30 3579 O 332.102 -1.77152 0.385597 0
M  V30 3580 C 332.15 -0.340169 3.58992 0
M  V30 3581 O 331.254 -1.41982 3.87188 0
M  V30 3582 H 330.595 0.0149556 0.663832 0
M  V30 3583 H 333.125 0.667878 1.93392 0
M  V30 3584 H 333.135 -0.579332 4.03866 0
M  V30 3585 H 331.81 0.570167 4.11973 0
M  V30 3586 H 330.387 -1.16762 3.54148 0
M  V30 3587 N 332.573 -1.56217 0.208337 0
M  V30 3588 C 333.801 -2.02337 -0.43215 0
M  V30 3589 C 334.216 -1.08834 -1.54275 0
M  V30 3590 O 333.573 -0.0955462 -1.8225 0
M  V30 3591 C 333.624 -3.48072 -0.976138 0
M  V30 3592 O 333.345 -4.38007 0.0901621 0
M  V30 3593 C 334.846 -4.09773 -1.69119 0
M  V30 3594 H 332.066 -0.662385 -0.10718 0
M  V30 3595 H 334.61 -2.01966 0.320923 0
M  V30 3596 H 332.765 -3.49099 -1.67954 0
M  V30 3597 H 333.179 -5.23543 -0.316701 0
M  V30 3598 H 334.653 -5.13556 -2.02397 0
M  V30 3599 H 335.13 -3.53999 -2.59964 0
M  V30 3600 H 335.736 -4.12556 -1.03332 0
M  V30 3601 N 334.051 0.0651679 -1.57465 0
M  V30 3602 C 334.983 1.10359 -2.00882 0
M  V30 3603 C 335.996 1.346 -0.915788 0
M  V30 3604 O 337.185 1.32723 -1.1936 0
M  V30 3605 C 334.285 2.45312 -2.33828 0
M  V30 3606 C 333.458 2.40934 -3.65061 0
M  V30 3607 C 332.517 3.58047 -3.85602 0
M  V30 3608 O 331.543 3.39175 -4.57109 0
M  V30 3609 N 332.745 4.78637 -3.28462 0
M  V30 3610 H 335.51 0.733807 -2.90578 0
M  V30 3611 H 333.071 0.253719 -1.599 0
M  V30 3612 H 335.063 3.22314 -2.44737 0
M  V30 3613 H 333.633 2.74267 -1.49988 0
M  V30 3614 H 332.853 1.49273 -3.64844 0
M  V30 3615 H 334.141 2.35117 -4.51218 0
M  V30 3616 H 333.539 4.96872 -2.70433 0
M  V30 3617 H 332.096 5.53127 -3.44809 0
M  V30 3618 N 335.529 1.53961 0.336706 0
M  V30 3619 C 336.461 1.78751 1.4346 0
M  V30 3620 C 337.474 0.669019 1.48418 0
M  V30 3621 O 338.663 0.945884 1.51378 0
M  V30 3622 C 335.763 1.87844 2.82078 0
M  V30 3623 C 334.936 3.17854 3.00479 0
M  V30 3624 C 333.995 3.17816 4.19379 0
M  V30 3625 O 333.021 3.91511 4.13168 0
M  V30 3626 N 334.223 2.40669 5.2826 0
M  V30 3627 H 336.988 2.73493 1.22563 0
M  V30 3628 H 334.549 1.53096 0.526625 0
M  V30 3629 H 336.541 1.85261 3.59806 0
M  V30 3630 H 335.111 1.00257 2.96086 0
M  V30 3631 H 334.331 3.33504 2.10163 0
M  V30 3632 H 335.619 4.03718 3.0966 0
M  V30 3633 H 335.017 1.8036 5.36178 0
M  V30 3634 H 333.574 2.43877 6.04456 0
M  V30 3635 N 337.007 -0.598083 1.45811 0
M  V30 3636 C 337.939 -1.72231 1.51225 0
M  V30 3637 C 338.952 -1.57757 0.402059 0
M  V30 3638 O 340.141 -1.65464 0.669624 0
M  V30 3639 C 337.241 -3.10331 1.3619 0
M  V30 3640 C 336.414 -3.50955 2.61054 0
M  V30 3641 C 335.473 -4.68055 2.40439 0
M  V30 3642 O 334.499 -4.74691 3.14097 0
M  V30 3643 N 335.701 -5.61941 1.45612 0
M  V30 3644 H 338.466 -1.68046 2.48154 0
M  V30 3645 H 336.027 -0.783637 1.41671 0
M  V30 3646 H 338.019 -3.86439 1.20195 0
M  V30 3647 H 336.589 -3.0897 0.475015 0
M  V30 3648 H 335.809 -2.64711 2.92099 0
M  V30 3649 H 337.097 -3.74858 3.44034 0
M  V30 3650 H 336.495 -5.59301 0.848431 0
M  V30 3651 H 335.052 -6.37542 1.35585 0
M  V30 3652 N 338.485 -1.33259 -0.841409 0
M  V30 3653 C 339.731 -1.24757 -1.59886 0
M  V30 3654 C 340.064 0.186913 -1.93298 0
M  V30 3655 O 339.339 1.12757 -1.5848 0
M  V30 3656 C 339.622 -2.12036 -2.91055 0
M  V30 3657 C 339.475 -3.63929 -2.6434 0
M  V30 3658 C 340.794 -1.9916 -3.92458 0
M  V30 3659 H 337.913 -0.454542 -0.580138 0
M  V30 3660 H 340.555 -1.63335 -0.970647 0
M  V30 3661 H 338.705 -1.79265 -3.44669 0
M  V30 3662 H 340.377 -4.06978 -2.17178 0
M  V30 3663 H 338.62 -3.85935 -1.98082 0
M  V30 3664 H 339.291 -4.20341 -3.57796 0
M  V30 3665 H 341.767 -2.27895 -3.48143 0
M  V30 3666 H 340.643 -2.62484 -4.82072 0
M  V30 3667 H 340.904 -0.963082 -4.31482 0
M  V30 3668 N 339.963 1.05934 -1.16686 0
M  V30 3669 C 341.191 1.8249 -0.974929 0
M  V30 3670 C 341.606 1.82679 0.476861 0
M  V30 3671 O 340.963 1.2486 1.33103 0
M  V30 3672 C 341.014 3.28943 -1.49929 0
M  V30 3673 O 340.735 3.28886 -2.89423 0
M  V30 3674 C 342.236 4.22215 -1.35089 0
M  V30 3675 H 339.456 0.575295 -0.345365 0
M  V30 3676 H 342 1.33631 -1.548 0
M  V30 3677 H 340.155 3.751 -0.968423 0
M  V30 3678 H 340.569 4.20493 -3.13506 0
M  V30 3679 H 342.043 5.22987 -1.76603 0
M  V30 3680 H 342.52 4.38195 -0.296935 0
M  V30 3681 H 343.126 3.81907 -1.87155 0
M  V30 3682 N 341.441 0.965919 1.2453 0
M  V30 3683 C 342.688 0.626831 1.92554 0
M  V30 3684 C 343.016 -0.837739 1.75534 0
M  V30 3685 O 342.271 -1.61793 1.10098 0
M  V30 3686 C 342.57 0.945428 3.44669 0
M  V30 3687 C 342.236 2.39785 3.81856 0
M  V30 3688 C 340.898 2.79483 3.91718 0
M  V30 3689 C 343.25 3.34055 4.00071 0
M  V30 3690 C 340.578 4.12496 4.1721 0
M  V30 3691 C 342.93 4.66694 4.27059 0
M  V30 3692 C 341.594 5.06172 4.3514 0
M  V30 3693 H 340.864 0.229374 0.704605 0
M  V30 3694 H 343.511 1.21707 1.4785 0
M  V30 3695 H 341.816 0.272926 3.90848 0
M  V30 3696 H 343.513 0.661484 3.95507 0
M  V30 3697 H 340.103 2.08003 3.74743 0
M  V30 3698 H 344.287 3.04571 3.91855 0
M  V30 3699 H 339.543 4.42709 4.21685 0
M  V30 3700 H 343.717 5.3971 4.40097 0
M  V30 3701 H 341.344 6.09262 4.54646 0
M  V30 3702 N 342.919 -1.39368 0.735821 0
M  V30 3703 C 343.849 -2.33234 0.111506 0
M  V30 3704 C 344.83 -1.53954 -0.723334 0
M  V30 3705 O 346.015 -1.82344 -0.668147 0
M  V30 3706 C 343.145 -3.38057 -0.795917 0
M  V30 3707 C 342.099 -4.2795 -0.065172 0
M  V30 3708 C 341.425 -5.23479 -1.08967 0
M  V30 3709 C 342.725 -5.10741 1.09273 0
M  V30 3710 H 344.419 -2.85692 0.895571 0
M  V30 3711 H 341.965 -1.37364 0.432109 0
M  V30 3712 H 343.918 -4.02675 -1.24221 0
M  V30 3713 H 342.642 -2.8404 -1.61211 0
M  V30 3714 H 341.301 -3.64813 0.361511 0
M  V30 3715 H 340.949 -4.65758 -1.89944 0
M  V30 3716 H 340.649 -5.84472 -0.605489 0
M  V30 3717 H 342.173 -5.90974 -1.53565 0
M  V30 3718 H 343.587 -5.68699 0.724841 0
M  V30 3719 H 341.984 -5.8088 1.50659 0
M  V30 3720 H 343.054 -4.45525 1.91404 0
M  V30 3721 N 344.397 -0.483516 -1.5 0
M  V30 3722 C 345.327 0.293829 -2.31644 0
M  V30 3723 C 346.308 0.978864 -1.39112 0
M  V30 3724 O 347.493 0.973644 -1.68029 0
M  V30 3725 C 344.623 1.36897 -3.19181 0
M  V30 3726 C 343.577 0.804833 -4.20365 0
M  V30 3727 C 342.903 1.9792 -4.96721 0
M  V30 3728 C 344.203 -0.192313 -5.21946 0
M  V30 3729 H 345.897 -0.387616 -2.9688 0
M  V30 3730 H 343.443 -0.187856 -1.42769 0
M  V30 3731 H 345.396 1.92037 -3.751 0
M  V30 3732 H 344.12 2.07936 -2.51853 0
M  V30 3733 H 342.779 0.275319 -3.65565 0
M  V30 3734 H 342.427 2.67686 -4.25856 0
M  V30 3735 H 342.127 1.60789 -5.65173 0
M  V30 3736 H 343.651 2.53526 -5.55479 0
M  V30 3737 H 345.065 0.270333 -5.72662 0
M  V30 3738 H 343.462 -0.478543 -5.98189 0
M  V30 3739 H 344.532 -1.11409 -4.71928 0
M  V30 3740 N 345.875 1.56104 -0.216619 0
M  V30 3741 C 346.822 2.2007 0.695531 0
M  V30 3742 C 347.792 1.15471 1.19397 0
M  V30 3743 O 348.977 1.43807 1.25396 0
M  V30 3744 C 346.117 2.88073 1.90021 0
M  V30 3745 C 345.23 4.07253 1.44113 0
M  V30 3746 C 344.365 4.63052 2.603 0
M  V30 3747 C 343.404 5.74545 2.11103 0
M  V30 3748 N 342.541 6.24656 3.20545 0
M  V30 3749 H 347.381 2.97655 0.143327 0
M  V30 3750 H 344.918 1.46982 0.0589934 0
M  V30 3751 H 346.876 3.25681 2.60745 0
M  V30 3752 H 345.506 2.13015 2.42538 0
M  V30 3753 H 344.558 3.75164 0.628999 0
M  V30 3754 H 345.87 4.8783 1.04036 0
M  V30 3755 H 345.024 5.03078 3.39113 0
M  V30 3756 H 343.763 3.81628 3.03663 0
M  V30 3757 H 342.768 5.34027 1.3075 0
M  V30 3758 H 343.993 6.57801 1.68746 0
M  V30 3759 H 341.939 5.46148 3.63399 0
M  V30 3760 H 341.856 7.00343 2.84704 0
M  V30 3761 H 343.124 6.69338 3.99508 0
M  V30 3762 N 347.353 -0.0568162 1.57498 0
M  V30 3763 C 348.602 -0.752001 1.87157 0
M  V30 3764 C 348.915 -1.77978 0.811375 0
M  V30 3765 O 350.121 -2.52559 0.996293 0
M  V30 3766 C 348.577 -1.38844 3.3204 0
M  V30 3767 C 348.185 -0.398456 4.46225 0
M  V30 3768 C 349.929 -2.06512 3.70882 0
M  V30 3769 C 347.836 -1.04166 5.82154 0
M  V30 3770 H 346.766 -0.28461 0.698222 0
M  V30 3771 H 349.417 -0.00561272 1.83499 0
M  V30 3772 H 347.799 -2.1836 3.30356 0
M  V30 3773 H 348.973 0.367977 4.59328 0
M  V30 3774 H 347.288 0.174592 4.16034 0
M  V30 3775 H 349.885 -2.55437 4.6974 0
M  V30 3776 H 350.228 -2.87117 3.01445 0
M  V30 3777 H 350.761 -1.33808 3.7462 0
M  V30 3778 H 347.5 -0.275614 6.5492 0
M  V30 3779 H 347.02 -1.7786 5.72823 0
M  V30 3780 H 348.699 -1.55715 6.27982 0
M  V30 3781 N 348.832 -1.54138 -0.328536 0
M  V30 3782 C 349.779 -1.83176 -1.40411 0
M  V30 3783 C 350.749 -0.678494 -1.5161 0
M  V30 3784 O 351.934 -0.92443 -1.6691 0
M  V30 3785 C 349.074 -2.06035 -2.76846 0
M  V30 3786 C 348.187 -3.33727 -2.74318 0
M  V30 3787 C 347.322 -3.46574 -4.02567 0
M  V30 3788 C 346.361 -4.68159 -3.94327 0
M  V30 3789 N 345.498 -4.77959 -5.14296 0
M  V30 3790 H 350.338 -2.74938 -1.14948 0
M  V30 3791 H 347.875 -1.36166 -0.556538 0
M  V30 3792 H 349.833 -2.1728 -3.56153 0
M  V30 3793 H 348.463 -1.1757 -3.00628 0
M  V30 3794 H 347.515 -3.31246 -1.8703 0
M  V30 3795 H 348.827 -4.23139 -2.64111 0
M  V30 3796 H 347.981 -3.57333 -4.90304 0
M  V30 3797 H 346.72 -2.55245 -4.15574 0
M  V30 3798 H 345.725 -4.57461 -3.04974 0
M  V30 3799 H 346.95 -5.60868 -3.82889 0
M  V30 3800 H 344.896 -3.89544 -5.27818 0
M  V30 3801 H 344.813 -5.6133 -5.06404 0
M  V30 3802 H 346.081 -4.93044 -6.03761 0
M  V30 3803 N 350.31 0.590341 -1.46126 0
M  V30 3804 C 351.726 0.912917 -1.30912 0
M  V30 3805 C 351.926 1.99616 -0.274893 0
M  V30 3806 O 350.982 2.50397 0.325197 0
M  V30 3807 C 352.295 1.3375 -2.69317 0
M  V30 3808 C 353.843 1.45077 -2.77348 0
M  V30 3809 C 354.318 1.90904 -4.16317 0
M  V30 3810 N 355.809 1.9811 -4.18696 0
M  V30 3811 C 356.544 2.34828 -5.23109 0
M  V30 3812 N 356.04 2.70393 -6.37856 0
M  V30 3813 N 357.833 2.35317 -5.10473 0
M  V30 3814 H 349.984 -0.125358 -2.1203 0
M  V30 3815 H 352.247 0.00658481 -0.947977 0
M  V30 3816 H 351.953 0.615614 -3.4627 0
M  V30 3817 H 351.827 2.30058 -2.9892 0
M  V30 3818 H 354.214 2.16353 -2.00687 0
M  V30 3819 H 354.295 0.4704 -2.51438 0
M  V30 3820 H 353.939 1.20209 -4.9347 0
M  V30 3821 H 353.869 2.89886 -4.39629 0
M  V30 3822 H 356.36 1.73146 -3.359 0
M  V30 3823 H 356.673 2.97341 -7.13308 0
M  V30 3824 H 355.018 2.68048 -6.41229 0
M  V30 3825 H 358.209 2.0695 -4.19868 0
M  V30 3826 H 358.382 2.63605 -5.9196 0
M  V30 3827 N 351.788 1.33704 0.83433 0
M  V30 3828 C 353.016 1.28467 1.62185 0
M  V30 3829 C 353.431 -0.143526 1.88254 0
M  V30 3830 O 352.788 -1.08709 1.4659 0
M  V30 3831 C 352.839 2.06174 2.96942 0
M  V30 3832 O 352.56 3.43422 2.72016 0
M  V30 3833 C 354.061 2.08201 3.91366 0
M  V30 3834 H 351.281 0.4424 0.504503 0
M  V30 3835 H 353.825 1.76145 1.03891 0
M  V30 3836 H 351.98 1.62167 3.51825 0
M  V30 3837 H 352.394 3.83453 3.57861 0
M  V30 3838 H 353.868 2.67017 4.83121 0
M  V30 3839 H 354.345 1.07343 4.2588 0
M  V30 3840 H 354.951 2.52246 3.42421 0
M  V30 3841 N 353.266 -1.05314 1.17247 0
M  V30 3842 C 354.682 -1.30452 0.919473 0
M  V30 3843 C 354.882 -1.9703 -0.42209 0
M  V30 3844 O 353.938 -2.24311 -1.15935 0
M  V30 3845 C 355.251 -2.17551 2.07586 0
M  V30 3846 C 356.799 -2.30937 2.11275 0
M  V30 3847 C 357.274 -3.21396 3.26296 0
M  V30 3848 N 358.765 -3.28981 3.26076 0
M  V30 3849 C 359.5 -3.99095 4.11716 0
M  V30 3850 N 358.996 -4.71648 5.07465 0
M  V30 3851 N 360.789 -3.95247 3.9967 0
M  V30 3852 H 352.94 -0.604988 2.03602 0
M  V30 3853 H 355.203 -0.329368 0.888944 0
M  V30 3854 H 354.909 -1.75921 3.0454 0
M  V30 3855 H 354.783 -3.18182 2.02584 0
M  V30 3856 H 357.17 -2.71809 1.14907 0
M  V30 3857 H 357.251 -1.2994 2.20339 0
M  V30 3858 H 356.895 -2.81238 4.22927 0
M  V30 3859 H 356.825 -4.22395 3.14467 0
M  V30 3860 H 359.316 -2.77286 2.5675 0
M  V30 3861 H 359.629 -5.22705 5.6921 0
M  V30 3862 H 357.974 -4.70594 5.11435 0
M  V30 3863 H 361.165 -3.37691 3.24164 0
M  V30 3864 H 361.338 -4.4962 4.66632 0
M  V30 3865 N 354.744 -0.972509 -1.24016 0
M  V30 3866 C 355.691 -0.505969 -2.25186 0
M  V30 3867 C 356.661 0.451009 -1.5986 0
M  V30 3868 O 357.846 0.360307 -1.87367 0
M  V30 3869 C 354.986 0.193089 -3.44559 0
M  V30 3870 C 354.099 -0.803222 -4.24467 0
M  V30 3871 C 353.234 -0.0797793 -5.3114 0
M  V30 3872 C 352.273 -1.06583 -6.02749 0
M  V30 3873 N 351.41 -0.372074 -7.01113 0
M  V30 3874 H 356.25 -1.37351 -2.64459 0
M  V30 3875 H 353.787 -0.688419 -1.29997 0
M  V30 3876 H 355.745 0.615125 -4.1264 0
M  V30 3877 H 354.375 1.02455 -3.06109 0
M  V30 3878 H 353.427 -1.34368 -3.55878 0
M  V30 3879 H 354.739 -1.55494 -4.73944 0
M  V30 3880 H 353.893 0.400015 -6.0538 0
M  V30 3881 H 352.632 0.704597 -4.82583 0
M  V30 3882 H 351.637 -1.55645 -5.27309 0
M  V30 3883 H 352.862 -1.85074 -6.53395 0
M  V30 3884 H 350.808 0.393238 -6.5482 0
M  V30 3885 H 350.725 -1.06258 -7.48495 0
M  V30 3886 H 351.993 0.0855932 -7.79453 0
M  V30 3887 N 356.222 1.38976 -0.743202 0
M  V30 3888 C 357.47 1.99948 -0.29417 0
M  V30 3889 C 357.791 1.59279 1.12495 0
M  V30 3890 O 357.061 0.844808 1.76748 0
M  V30 3891 H 355.641 0.739473 -0.105774 0
M  V30 3892 H 358.303 1.699 -0.954986 0
M  V30 3893 H 357.399 3.10142 -0.349056 0
M  V30 3894 N 357.7 0.491464 1.49741 0
M  V30 3895 C 358.947 -0.0564256 2.02421 0
M  V30 3896 C 359.275 -1.37872 1.37192 0
M  V30 3897 O 358.53 -1.89375 0.493508 0
M  V30 3898 C 358.829 -0.267329 3.56399 0
M  V30 3899 C 358.495 0.975775 4.40215 0
M  V30 3900 C 357.157 1.31655 4.62839 0
M  V30 3901 C 359.509 1.80251 4.89039 0
M  V30 3902 C 356.837 2.48375 5.31532 0
M  V30 3903 C 359.189 2.96116 5.59015 0
M  V30 3904 C 357.853 3.30585 5.79888 0
M  V30 3905 H 357.123 -0.0206476 0.740712 0
M  V30 3906 H 359.77 0.649686 1.80143 0
M  V30 3907 H 358.075 -1.05588 3.77304 0
M  V30 3908 H 359.772 -0.705549 3.94744 0
M  V30 3909 H 356.362 0.700315 4.2284 0
M  V30 3910 H 360.546 1.55239 4.71396 0
M  V30 3911 H 355.802 2.7533 5.45897 0
M  V30 3912 H 359.976 3.60509 5.95824 0
M  V30 3913 H 357.603 4.21132 6.32892 0
M  V30 3914 N 359.178 -1.55987 0.224894 0
M  V30 3915 C 360.594 -1.59066 -0.130426 0
M  V30 3916 C 360.794 -1.24176 -1.5869 0
M  V30 3917 O 359.85 -0.978592 -2.32766 0
M  V30 3918 C 361.163 -3.00042 0.198883 0
M  V30 3919 C 362.711 -3.1268 0.141391 0
M  V30 3920 C 363.186 -4.55839 0.444422 0
M  V30 3921 N 364.677 -4.6152 0.394115 0
M  V30 3922 C 365.412 -5.70231 0.602038 0
M  V30 3923 N 364.908 -6.87291 0.871914 0
M  V30 3924 N 366.701 -5.59555 0.534245 0
M  V30 3925 H 358.852 -1.76941 1.17497 0
M  V30 3926 H 361.115 -0.822604 0.471197 0
M  V30 3927 H 360.821 -3.30234 1.2099 0
M  V30 3928 H 360.695 -3.74075 -0.484535 0
M  V30 3929 H 363.082 -2.82283 -0.860265 0
M  V30 3930 H 363.163 -2.40969 0.858335 0
M  V30 3931 H 362.807 -4.86954 1.44353 0
M  V30 3932 H 362.737 -5.2578 -0.293752 0
M  V30 3933 H 365.228 -3.77405 0.193356 0
M  V30 3934 H 365.541 -7.66058 1.01858 0
M  V30 3935 H 363.886 -6.89028 0.909145 0
M  V30 3936 H 367.077 -4.6698 0.323612 0
M  V30 3937 H 367.25 -6.44211 0.699693 0
M  V30 3938 N 360.656 0.0484629 -1.57525 0
M  V30 3939 C 361.586 1.0549 -2.08313 0
M  V30 3940 C 362.567 1.38929 -0.981463 0
M  V30 3941 O 363.752 1.48151 -1.25558 0
M  V30 3942 C 360.882 2.36162 -2.54646 0
M  V30 3943 C 359.836 2.17016 -3.68901 0
M  V30 3944 C 359.162 3.53278 -4.01371 0
M  V30 3945 C 360.462 1.57219 -4.98076 0
M  V30 3946 H 362.156 0.632195 -2.92649 0
M  V30 3947 H 359.702 0.302654 -1.40784 0
M  V30 3948 H 361.655 3.06882 -2.88793 0
M  V30 3949 H 360.379 2.80456 -1.67368 0
M  V30 3950 H 359.038 1.48733 -3.35073 0
M  V30 3951 H 358.686 3.95185 -3.11188 0
M  V30 3952 H 358.386 3.41299 -4.78318 0
M  V30 3953 H 359.91 4.25391 -4.38035 0
M  V30 3954 H 361.324 2.17832 -5.30304 0
M  V30 3955 H 359.721 1.55871 -5.79503 0
M  V30 3956 H 360.791 0.535956 -4.81929 0
M  V30 3957 N 362.134 1.5431 0.320358 0
M  V30 3958 C 363.064 1.86912 1.3995 0
M  V30 3959 C 364.045 0.726211 1.53819 0
M  V30 3960 O 365.23 0.980233 1.67646 0
M  V30 3961 C 362.36 2.09932 2.7667 0
M  V30 3962 C 361.314 3.25776 2.77586 0
M  V30 3963 C 360.64 3.34173 4.17412 0
M  V30 3964 C 361.94 4.6335 2.41048 0
M  V30 3965 H 363.634 2.77292 1.12914 0
M  V30 3966 H 361.18 1.33421 0.541738 0
M  V30 3967 H 363.133 2.31324 3.52232 0
M  V30 3968 H 361.857 1.16304 3.0519 0
M  V30 3969 H 360.516 3.04276 2.04479 0
M  V30 3970 H 360.164 2.38098 4.43078 0
M  V30 3971 H 359.864 4.12033 4.18931 0
M  V30 3972 H 361.388 3.57803 4.94782 0
M  V30 3973 H 362.802 4.84602 3.06324 0
M  V30 3974 H 361.199 5.43782 2.53813 0
M  V30 3975 H 362.269 4.65381 1.36193 0
M  V30 3976 N 363.613 -0.582584 1.46437 0
M  V30 3977 C 364.561 -1.71272 1.5738 0
M  V30 3978 C 365.555 -1.63524 0.44229 0
M  V30 3979 O 366.761 -1.69016 0.619166 0
M  V30 3980 H 363.136 -0.566273 0.494813 0
M  V30 3981 H 365.107 -1.59174 2.52401 0
M  V30 3982 C 363.856 -3.09658 1.58136 0
M  V30 3983 H 363.179 -3.16291 2.44541 0
M  V30 3984 H 364.619 -3.88494 1.69847 0
M  V30 3985 C 363.078 -3.3547 0.310026 0
M  V30 3986 O 363.608 -3.97199 -0.599683 0
M  V30 3987 N 361.814 -2.89925 0.197901 0
M  V30 3988 H 361.361 -2.39873 0.93909 0
M  V30 3989 H 361.319 -3.07568 -0.65185 0
M  V30 3990 N 365.091 -1.34144 -0.827227 0
M  V30 3991 C 366.502 -1.23557 -1.39966 0
M  V30 3992 C 366.853 0.140731 -1.95695 0
M  V30 3993 O 365.978 1.04087 -1.89723 0
M  V30 3994 C 366.573 -2.23708 -2.54441 0
M  V30 3995 C 365.132 -2.16924 -3.07605 0
M  V30 3996 C 364.279 -2.10549 -1.80456 0
M  V30 3997 H 367.23 -1.45573 -0.631991 0
M  V30 3998 H 367.251 -1.85157 -3.32411 0
M  V30 3999 H 366.763 -3.23866 -2.13851 0
M  V30 4000 H 364.864 -1.20107 -3.52711 0
M  V30 4001 H 364.977 -3.07988 -3.66988 0
M  V30 4002 H 363.341 -1.56203 -2.01178 0
M  V30 4003 H 364.124 -3.12535 -1.42046 0
M  V30 4004 N 366.569 1.04691 -1.17803 0
M  V30 4005 C 367.519 2.10856 -0.867391 0
M  V30 4006 C 368.503 1.601 0.160206 0
M  V30 4007 O 369.695 1.76948 -0.042947 0
M  V30 4008 C 366.824 3.411 -0.388012 0
M  V30 4009 C 365.91 3.9864 -1.44732 0
M  V30 4010 N 366.301 4.30075 -2.66212 0
M  V30 4011 C 364.599 4.26439 -1.30637 0
M  V30 4012 C 365.3 4.76033 -3.34317 0
M  V30 4013 N 364.276 4.76462 -2.61696 0
M  V30 4014 H 368.078 2.33029 -1.79094 0
M  V30 4015 H 365.592 1.22386 -1.0675 0
M  V30 4016 H 367.589 4.16641 -0.146994 0
M  V30 4017 H 366.249 3.20357 0.529271 0
M  V30 4018 H 367.26 4.19917 -3.03134 0
M  V30 4019 H 363.937 4.15056 -0.451129 0
M  V30 4020 H 365.327 5.09427 -4.38103 0
M  V30 4021 N 368.047 0.979072 1.23499 0
M  V30 4022 C 369.458 0.684391 1.73704 0
M  V30 4023 C 369.809 -0.799448 1.79174 0
M  V30 4024 O 368.934 -1.62531 1.42873 0
M  V30 4025 C 369.529 1.23564 3.15464 0
M  V30 4026 C 368.088 0.99063 3.6313 0
M  V30 4027 C 367.235 1.36416 2.41425 0
M  V30 4028 H 370.186 1.15307 1.09041 0
M  V30 4029 H 370.207 0.607417 3.7562 0
M  V30 4030 H 369.719 2.31561 3.1145 0
M  V30 4031 H 367.82 -0.0733136 3.72528 0
M  V30 4032 H 367.933 1.64427 4.5 0
M  V30 4033 H 366.297 0.782616 2.42378 0
M  V30 4034 H 367.08 2.45387 2.40083 0
M  V30 4035 N 369.525 -1.3858 0.750561 0
M  V30 4036 C 370.472 -2.30483 0.120835 0
M  V30 4037 C 371.442 -1.50022 -0.712923 0
M  V30 4038 O 372.627 -1.78662 -0.669676 0
M  V30 4039 C 369.767 -3.36431 -0.768666 0
M  V30 4040 C 368.88 -4.31927 0.0793922 0
M  V30 4041 C 368.015 -5.24944 -0.81283 0
M  V30 4042 C 367.054 -6.12088 0.0390447 0
M  V30 4043 N 366.191 -6.97412 -0.809969 0
M  V30 4044 H 371.031 -2.83761 0.91015 0
M  V30 4045 H 368.568 -1.39707 0.460463 0
M  V30 4046 H 370.526 -3.96462 -1.29898 0
M  V30 4047 H 369.156 -2.8457 -1.5238 0
M  V30 4048 H 368.208 -3.73382 0.727303 0
M  V30 4049 H 369.52 -4.93319 0.737401 0
M  V30 4050 H 368.674 -5.90078 -1.41042 0
M  V30 4051 H 367.413 -4.63911 -1.50458 0
M  V30 4052 H 366.418 -5.45952 0.649328 0
M  V30 4053 H 367.643 -6.75189 0.727809 0
M  V30 4054 H 365.589 -6.38931 -1.48672 0
M  V30 4055 H 365.506 -7.55712 -0.208789 0
M  V30 4056 H 366.774 -7.66959 -1.39263 0
M  V30 4057 N 371.003 -0.499398 -1.49478 0
M  V30 4058 C 372.414 -0.051215 -1.8663 0
M  V30 4059 C 372.765 1.36238 -1.41186 0
M  V30 4060 O 371.89 2.01502 -0.789051 0
M  V30 4061 C 372.485 -0.0861651 -3.3869 0
M  V30 4062 C 371.044 0.30667 -3.75149 0
M  V30 4063 C 370.191 -0.459397 -2.73468 0
M  V30 4064 H 373.142 -0.712264 -1.41818 0
M  V30 4065 H 373.163 0.709507 -3.73826 0
M  V30 4066 H 372.675 -1.11512 -3.71735 0
M  V30 4067 H 370.776 1.33892 -3.47712 0
M  V30 4068 H 370.889 -0.0116669 -4.79099 0
M  V30 4069 H 369.253 0.0905645 -2.54539 0
M  V30 4070 H 370.036 -1.4884 -3.09357 0
M  V30 4071 N 372.481 1.55866 -0.233164 0
M  V30 4072 C 373.429 2.22176 0.68851 0
M  V30 4073 C 374.423 1.20487 1.19076 0
M  V30 4074 O 375.629 1.38536 1.14925 0
M  V30 4075 H 372.004 0.712511 0.240483 0
M  V30 4076 H 373.975 2.98212 0.105935 0
M  V30 4077 C 372.724 2.92446 1.88071 0
M  V30 4078 H 372.047 3.70458 1.50337 0
M  V30 4079 H 373.487 3.42226 2.50314 0
M  V30 4080 C 371.946 1.95555 2.74335 0
M  V30 4081 O 372.476 1.47986 3.73447 0
M  V30 4082 N 370.682 1.62953 2.40613 0
M  V30 4083 H 370.229 2.01831 1.60069 0
M  V30 4084 H 370.187 0.983886 2.98609 0
M  V30 4085 N 373.959 -0.0401083 1.57549 0
M  V30 4086 C 375.37 -0.588097 1.77196 0
M  V30 4087 C 375.721 -1.76209 0.862832 0
M  V30 4088 O 374.846 -2.16331 0.0548389 0
M  V30 4089 C 375.441 -1.07363 3.21339 0
M  V30 4090 C 374 -1.56723 3.42221 0
M  V30 4091 C 373.147 -0.50041 2.72747 0
M  V30 4092 H 376.098 0.186119 1.57605 0
M  V30 4093 H 376.119 -1.94143 3.27244 0
M  V30 4094 H 375.631 -0.218975 3.87482 0
M  V30 4095 H 373.732 -2.4441 2.81237 0
M  V30 4096 H 373.845 -1.62234 4.50796 0
M  V30 4097 H 372.209 -0.952894 2.36203 0
M  V30 4098 H 372.992 0.344599 3.41566 0
M  V30 4099 N 375.437 -1.54477 -0.31217 0
M  V30 4100 C 376.384 -1.84655 -1.38461 0
M  V30 4101 C 377.354 -0.694536 -1.50882 0
M  V30 4102 O 378.539 -0.942081 -1.6592 0
M  V30 4103 C 375.679 -2.0896 -2.74645 0
M  V30 4104 C 374.792 -3.36618 -2.70763 0
M  V30 4105 C 373.927 -3.50824 -3.98868 0
M  V30 4106 C 372.966 -4.72315 -3.89339 0
M  V30 4107 N 372.103 -4.83387 -5.09197 0
M  V30 4108 H 376.943 -2.76142 -1.12026 0
M  V30 4109 H 374.48 -1.36748 -0.542065 0
M  V30 4110 H 376.438 -2.21045 -3.53829 0
M  V30 4111 H 375.068 -1.20752 -2.99364 0
M  V30 4112 H 374.12 -3.33211 -1.83506 0
M  V30 4113 H 375.432 -4.25917 -2.59608 0
M  V30 4114 H 374.586 -3.62513 -4.86486 0
M  V30 4115 H 373.325 -2.59638 -4.12843 0
M  V30 4116 H 372.33 -4.6067 -3.00105 0
M  V30 4117 H 373.555 -5.64897 -3.76919 0
M  V30 4118 H 371.501 -3.9512 -5.23657 0
M  V30 4119 H 371.418 -5.66669 -5.00422 0
M  V30 4120 H 372.686 -4.9942 -5.98498 0
M  V30 4121 N 376.915 0.57481 -1.46744 0
M  V30 4122 C 377.863 1.70435 -1.58286 0
M  V30 4123 C 378.857 1.63287 -0.450956 0
M  V30 4124 O 380.063 1.68685 -0.628121 0
M  V30 4125 H 376.438 0.56364 -0.497809 0
M  V30 4126 H 378.409 1.57833 -2.53242 0
M  V30 4127 C 377.158 3.08815 -1.59776 0
M  V30 4128 H 376.481 3.1499 -2.46214 0
M  V30 4129 H 377.921 3.87588 -1.71905 0
M  V30 4130 C 376.38 3.35301 -0.327812 0
M  V30 4131 O 376.91 3.97511 0.57861 0
M  V30 4132 N 375.116 2.89816 -0.213274 0
M  V30 4133 H 374.663 2.39371 -0.951798 0
M  V30 4134 H 374.621 3.0791 0.63553 0
M  V30 4135 N 378.394 1.34581 0.820102 0
M  V30 4136 C 379.342 1.26401 1.95258 0
M  V30 4137 C 380.336 0.161553 1.68628 0
M  V30 4138 O 381.542 0.326703 1.7701 0
M  V30 4139 H 377.917 0.392749 0.64129 0
M  V30 4140 H 379.888 2.22105 1.99279 0
M  V30 4141 C 378.637 1.03919 3.31807 0
M  V30 4142 H 377.96 1.87984 3.52848 0
M  V30 4143 H 379.4 1.02232 4.11491 0
M  V30 4144 C 377.859 -0.257433 3.35915 0
M  V30 4145 O 378.389 -1.25784 3.81499 0
M  V30 4146 N 376.595 -0.291524 2.89134 0
M  V30 4147 H 376.142 0.523161 2.52232 0
M  V30 4148 H 376.1 -1.15883 2.92264 0
M  V30 4149 O 379.911 -0.958615 1.29972 0
M  V30 4150 H 380.602 -1.5862 1.11172 0
M  V30 END ATOM
M  V30 BEGIN BOND
M  V30 END BOND
M  V30 END CTAB
M  END
$$$$
