drugbank_target|P12314 High affinity immunoglobulin gamma Fc receptor I (DB00002; DB00005; DB00028; DB00056; DB00087; DB00108; DB00110; DB00111; DB00112; DB00707; DB06607; DB11767; DB14962)
 OpenBabel12092119373D

  0  0  0     0  0            999 V3000
M  V30 BEGIN CTAB
M  V30 COUNTS 6015 6088 0 0 0
M  V30 BEGIN ATOM
M  V30 1 H -0.908 1.98254 -0.117106 0
M  V30 2 N 0 1.576 0 0
M  V30 3 C 0.933 2.03868 1.02534 0
M  V30 4 C 1.911 0.928543 1.3348 0
M  V30 5 O 3.095 1.19667 1.45644 0
M  V30 6 C 0.222 2.43627 2.35294 0
M  V30 7 C -0.732 3.65373 2.2001 0
M  V30 8 S 0.101 5.13292 1.52614 0
M  V30 9 C 1.257 5.56322 2.86805 0
M  V30 10 H 1.49 2.90518 0.631377 0
M  V30 11 H -0.977 1.52953 0.210867 0
M  V30 12 H 0.981 2.67203 3.11629 0
M  V30 13 H -0.358 1.57376 2.7183 0
M  V30 14 H -1.165 3.90944 3.18086 0
M  V30 15 H -1.563 3.418 1.51819 0
M  V30 16 H 0.729 5.58782 3.83104 0
M  V30 17 H 1.672 6.56266 2.65933 0
M  V30 18 H 2.08 4.83886 2.90714 0
M  V30 19 N 1.4781 -0.272755 1.55222 0
M  V30 20 C 2.7241 -1.00172 1.77023 0
M  V30 21 C 3.0791 -1.83928 0.564633 0
M  V30 22 O 2.3721 -1.86416 -0.442674 0
M  V30 23 C 2.5661 -1.91642 3.01675 0
M  V30 24 C 2.3951 -1.16888 4.34243 0
M  V30 25 C 1.1651 -0.884464 4.97499 0
M  V30 26 C 3.3631 -0.55919 5.11251 0
M  V30 27 N 1.3451 -0.11015 6.13801 0
M  V30 28 C 2.7161 0.0809469 6.19947 0
M  V30 29 C 4.7711 -0.467058 4.95705 0
M  V30 30 C 3.4741 0.804335 7.14789 0
M  V30 31 C 5.5001 0.242739 5.90902 0
M  V30 32 C 4.8621 0.871613 6.98987 0
M  V30 33 H 0.9611 -0.348529 0.700037 0
M  V30 34 H 3.5451 -0.277365 1.92714 0
M  V30 35 H 1.7161 -2.61303 2.87359 0
M  V30 36 H 3.4481 -2.57901 3.1188 0
M  V30 37 H 0.2031 -1.18979 4.58411 0
M  V30 38 H 0.6271 0.264344 6.76484 0
M  V30 39 H 5.2691 -0.93894 4.12242 0
M  V30 40 H 2.9871 1.2879 7.97771 0
M  V30 41 H 6.5731 0.314347 5.8095 0
M  V30 42 H 5.4531 1.4121 7.71381 0
M  V30 43 N 2.9562 -1.48159 -0.537278 0
M  V30 44 C 4.2032 -1.55804 -1.29349 0
M  V30 45 C 4.5312 -0.228802 -1.9315 0
M  V30 46 O 3.7862 0.780242 -1.79473 0
M  V30 47 C 4.0852 -2.63956 -2.40961 0
M  V30 48 C 3.7512 -4.0662 -1.94861 0
M  V30 49 C 2.4132 -4.45452 -1.82006 0
M  V30 50 C 4.7652 -4.96055 -1.59933 0
M  V30 51 C 2.0932 -5.71531 -1.32547 0
M  V30 52 C 4.4452 -6.22617 -1.11939 0
M  V30 53 C 3.1092 -6.60312 -0.976951 0
M  V30 54 H 2.3792 -0.570129 -0.473322 0
M  V30 55 H 5.0262 -1.81845 -0.600372 0
M  V30 56 H 3.3312 -2.31747 -3.15912 0
M  V30 57 H 5.0282 -2.67089 -2.99107 0
M  V30 58 H 1.6182 -3.75949 -2.05815 0
M  V30 59 H 5.8022 -4.66738 -1.68728 0
M  V30 60 H 1.0582 -5.99468 -1.202 0
M  V30 61 H 5.2322 -6.91318 -0.839811 0
M  V30 62 H 2.8592 -7.57895 -0.591501 0
M  V30 63 N 4.4343 0.785586 -1.36625 0
M  V30 64 C 5.3643 1.91259 -1.33949 0
M  V30 65 C 6.3453 1.68795 -0.210325 0
M  V30 66 O 7.5303 1.89854 -0.408561 0
M  V30 67 C 4.6603 3.28339 -1.13186 0
M  V30 68 C 3.6143 3.65335 -2.22967 0
M  V30 69 C 2.9403 5.00806 -1.87342 0
M  V30 70 C 4.2403 3.7352 -3.65075 0
M  V30 71 H 5.9343 1.93755 -2.28253 0
M  V30 72 H 3.4803 0.930788 -1.09874 0
M  V30 73 H 5.4333 4.06804 -1.09948 0
M  V30 74 H 4.1573 3.2624 -0.153332 0
M  V30 75 H 2.8163 2.89169 -2.25337 0
M  V30 76 H 2.4643 4.95233 -0.880545 0
M  V30 77 H 2.1643 5.26529 -2.60846 0
M  V30 78 H 3.6883 5.81687 -1.85667 0
M  V30 79 H 5.1023 4.42168 -3.64911 0
M  V30 80 H 3.4993 4.10731 -4.37516 0
M  V30 81 H 4.5693 2.74527 -3.99703 0
M  V30 82 N 5.9124 1.20967 1.01018 0
M  V30 83 C 7.1404 1.04956 1.78303 0
M  V30 84 C 7.5554 -0.400915 1.84494 0
M  V30 85 O 6.9124 -1.27826 1.30257 0
M  V30 86 C 6.9634 1.63403 3.22462 0
M  V30 87 O 6.6844 3.02775 3.16637 0
M  V30 88 C 8.1854 1.52432 4.16268 0
M  V30 89 H 5.4054 0.368858 0.560522 0
M  V30 90 H 7.9494 1.60193 1.27116 0
M  V30 91 H 6.1044 1.1227 3.70775 0
M  V30 92 H 6.5184 3.30626 4.07169 0
M  V30 93 H 7.9924 1.98078 5.15237 0
M  V30 94 H 8.4694 0.477875 4.36592 0
M  V30 95 H 9.0754 2.02787 3.73841 0
M  V30 96 N 7.3905 -1.2043 1.01659 0
M  V30 97 C 8.6185 -1.93777 0.725132 0
M  V30 98 C 9.0335 -1.74772 -0.714166 0
M  V30 99 O 8.3905 -1.06169 -1.4844 0
M  V30 100 C 8.4415 -3.45876 1.05129 0
M  V30 101 O 8.1625 -3.6426 2.43406 0
M  V30 102 C 9.6635 -4.36368 0.780891 0
M  V30 103 H 6.8835 -0.615901 0.266284 0
M  V30 104 H 9.4275 -1.52922 1.35776 0
M  V30 105 H 7.5825 -3.8461 0.464065 0
M  V30 106 H 7.9965 -4.58246 2.55169 0
M  V30 107 H 9.4705 -5.41743 1.05918 0
M  V30 108 H 9.9475 -4.38275 -0.284937 0
M  V30 109 H 10.5535 -4.03296 1.35027 0
M  V30 110 N 8.8686 -0.792821 -1.36206 0
M  V30 111 C 9.7986 -0.207853 -2.32573 0
M  V30 112 C 10.7796 0.659055 -1.56813 0
M  V30 113 O 11.9646 0.592176 -1.84951 0
M  V30 114 C 9.0946 0.655449 -3.41059 0
M  V30 115 C 8.0486 -0.111842 -4.27854 0
M  V30 116 C 7.3746 0.872274 -5.27537 0
M  V30 117 C 8.6746 -1.30299 -5.05786 0
M  V30 118 H 10.3686 -1.01294 -2.81744 0
M  V30 119 H 7.9146 -0.48854 -1.3546 0
M  V30 120 H 9.8676 1.07464 -4.07467 0
M  V30 121 H 8.5916 1.49328 -2.90463 0
M  V30 122 H 7.2506 -0.512053 -3.63006 0
M  V30 123 H 6.8986 1.70523 -4.73214 0
M  V30 124 H 6.5986 0.363291 -5.86476 0
M  V30 125 H 8.1226 1.28996 -5.96818 0
M  V30 126 H 9.5366 -0.959379 -5.65216 0
M  V30 127 H 7.9336 -1.7455 -5.74154 0
M  V30 128 H 9.0036 -2.09663 -4.37229 0
M  V30 129 N 10.3467 1.47872 -0.545128 0
M  V30 130 C 11.2767 2.32661 0.197793 0
M  V30 131 C 12.2577 1.43041 0.920504 0
M  V30 132 O 13.4427 1.71912 0.90333 0
M  V30 133 C 10.5727 3.24569 1.23582 0
M  V30 134 C 9.5267 4.23333 0.630323 0
M  V30 135 C 8.8527 5.0448 1.77211 0
M  V30 136 C 10.1527 5.20704 -0.407974 0
M  V30 137 H 11.8467 2.95024 -0.510045 0
M  V30 138 H 9.3927 1.4187 -0.246731 0
M  V30 139 H 11.3457 3.8272 1.76362 0
M  V30 140 H 10.0697 2.60236 1.97344 0
M  V30 141 H 8.7287 3.6639 0.123922 0
M  V30 142 H 8.3767 4.36561 2.49847 0
M  V30 143 H 8.0767 5.71339 1.37281 0
M  V30 144 H 9.6007 5.65487 2.3034 0
M  V30 145 H 11.0147 5.7329 0.033305 0
M  V30 146 H 9.4117 5.95699 -0.725486 0
M  V30 147 H 10.4817 4.66917 -1.30828 0
M  V30 148 N 11.8248 0.280983 1.55075 0
M  V30 149 C 12.7548 -0.597469 2.25727 0
M  V30 150 C 13.7358 -1.15417 1.24952 0
M  V30 151 O 14.9208 -1.18722 1.53684 0
M  V30 152 C 12.0508 -1.7789 2.98283 0
M  V30 153 C 11.0048 -1.35347 4.06036 0
M  V30 154 C 10.3308 -2.61846 4.66198 0
M  V30 155 C 11.6308 -0.499354 5.19907 0
M  V30 156 H 13.3248 -0.00824265 2.99399 0
M  V30 157 H 10.8708 -0.0025244 1.44 0
M  V30 158 H 12.8238 -2.39937 3.46422 0
M  V30 159 H 11.5478 -2.39405 2.22155 0
M  V30 160 H 10.2068 -0.756156 3.58717 0
M  V30 161 H 9.8548 -3.21632 3.86732 0
M  V30 162 H 9.5548 -2.3409 5.38958 0
M  V30 163 H 11.0788 -3.24732 5.1709 0
M  V30 164 H 12.4928 -1.02498 5.64063 0
M  V30 165 H 10.8898 -0.316424 5.99265 0
M  V30 166 H 11.9598 0.480459 4.82514 0
M  V30 167 N 13.3029 -1.57598 0.00835791 0
M  V30 168 C 14.5489 -1.92046 -0.670055 0
M  V30 169 C 14.9039 -0.88351 -1.70915 0
M  V30 170 O 14.1969 0.103223 -1.91322 0
M  V30 171 C 14.3909 -3.3101 -1.34787 0
M  V30 172 C 14.2199 -4.48126 -0.375945 0
M  V30 173 C 12.9899 -5.05297 0.0166914 0
M  V30 174 C 15.1879 -5.1303 0.361272 0
M  V30 175 N 13.1699 -6.05931 0.985952 0
M  V30 176 C 14.5409 -6.08571 1.18495 0
M  V30 177 C 16.5959 -4.9609 0.42421 0
M  V30 178 C 15.2989 -6.88996 2.06584 0
M  V30 179 C 17.3249 -5.77107 1.29236 0
M  V30 180 C 16.6869 -6.72248 2.10386 0
M  V30 181 H 12.7859 -0.75096 -0.218136 0
M  V30 182 H 15.3699 -1.94572 0.0706669 0
M  V30 183 H 13.5409 -3.29342 -2.05884 0
M  V30 184 H 15.2729 -3.52864 -1.98164 0
M  V30 185 H 12.0279 -4.72279 -0.353435 0
M  V30 186 H 12.4519 -6.60932 1.4662 0
M  V30 187 H 17.0939 -4.22378 -0.188915 0
M  V30 188 H 14.8119 -7.62028 2.6896 0
M  V30 189 H 18.3979 -5.66038 1.34508 0
M  V30 190 H 17.2779 -7.33846 2.76476 0
M  V30 191 N 14.781 0.264519 -1.55364 0
M  V30 192 C 16.027 0.99646 -1.76631 0
M  V30 193 C 16.36 1.85632 -0.570478 0
M  V30 194 O 15.635 1.89647 0.43175 0
M  V30 195 C 15.918 1.87187 -3.07625 0
M  V30 196 C 15.771 1.04138 -4.37579 0
M  V30 197 C 17.09 2.85749 -3.34717 0
M  V30 198 H 14.209 0.360841 -0.642622 0
M  V30 199 H 16.851 0.268218 -1.88097 0
M  V30 200 H 15.001 2.49279 -2.9798 0
M  V30 201 H 16.673 0.440517 -4.59192 0
M  V30 202 H 14.916 0.345115 -4.32425 0
M  V30 203 H 15.587 1.68729 -5.2558 0
M  V30 204 H 18.063 2.33793 -3.4421 0
M  V30 205 H 16.939 3.44136 -4.27623 0
M  V30 206 H 17.2 3.61311 -2.54768 0
M  V30 207 N 16.2591 1.48442 0.529413 0
M  V30 208 C 17.6701 1.5002 1.11134 0
M  V30 209 C 18.0211 0.27031 1.94329 0
M  V30 210 O 17.1461 -0.622507 2.07253 0
M  V30 211 C 17.7411 2.71834 2.02217 0
M  V30 212 C 16.3001 2.76283 2.55627 0
M  V30 213 C 15.4471 2.43542 1.326 0
M  V30 214 H 18.3981 1.5555 0.314641 0
M  V30 215 H 18.4191 2.50384 2.8651 0
M  V30 216 H 17.9311 3.61331 1.41639 0
M  V30 217 H 16.0321 1.90995 3.19924 0
M  V30 218 H 16.1451 3.77725 2.94721 0
M  V30 219 H 14.5091 1.94709 1.64196 0
M  V30 220 H 15.2921 3.3528 0.737734 0
M  V30 221 N 17.7372 -0.778329 1.37039 0
M  V30 222 C 18.9832 -1.53892 1.32079 0
M  V30 223 C 19.3162 -1.9396 -0.0965386 0
M  V30 224 O 18.5912 -1.63568 -1.05242 0
M  V30 225 C 18.8742 -2.80847 2.25382 0
M  V30 226 C 18.7272 -2.47076 3.75864 0
M  V30 227 C 20.0462 -3.82741 2.1725 0
M  V30 228 H 17.1652 -0.558303 0.48111 0
M  V30 229 H 19.8072 -0.893397 1.67685 0
M  V30 230 H 17.9572 -3.35931 1.95148 0
M  V30 231 H 19.6292 -1.97957 4.16666 0
M  V30 232 H 17.8722 -1.79863 3.94755 0
M  V30 233 H 18.5432 -3.37798 4.36574 0
M  V30 234 H 21.0192 -3.37133 2.43887 0
M  V30 235 H 19.8952 -4.69303 2.84686 0
M  V30 236 H 20.1562 -4.2652 1.16331 0
M  V30 237 N 19.2153 -1.21501 -1.00376 0
M  V30 238 C 20.4923 -0.941745 -1.71437 0
M  V30 239 C 20.8723 0.546114 -2.03914 0
M  V30 240 O 20.2203 1.51128 -1.71384 0
M  V30 241 C 20.4303 -1.82812 -2.97289 0
M  V30 242 C 21.7783 -2.07771 -3.70292 0
M  V30 243 O 22.8023 -1.80171 -3.07273 0
M  V30 244 O 21.6613 -2.54456 -4.83647 0
M  V30 245 H 18.7553 -0.353243 -0.747762 0
M  V30 246 H 21.3013 -1.32436 -1.06108 0
M  V30 247 H 20.0733 -2.83501 -2.69709 0
M  V30 248 H 19.6963 -1.4464 -3.70358 0
M  V30 249 N 20.6934 1.19889 -1.02296 0
M  V30 250 C 21.9414 1.89046 -0.714558 0
M  V30 251 C 22.2624 1.79636 0.758681 0
M  V30 252 O 21.5324 1.20292 1.54618 0
M  V30 253 H 20.1124 0.699802 -0.261317 0
M  V30 254 H 22.7744 1.45574 -1.29592 0
M  V30 255 H 21.8704 2.95524 -1.0036 0
M  V30 256 N 22.1715 0.800033 1.35784 0
M  V30 257 C 23.1035 0.163596 2.28615 0
M  V30 258 C 24.1165 -0.633317 1.49976 0
M  V30 259 O 25.3055 -0.466754 1.72289 0
M  V30 260 C 22.4055 -0.790958 3.29541 0
M  V30 261 C 21.5785 -0.0418255 4.3738 0
M  V30 262 C 20.6375 -0.91389 5.18203 0
M  V30 263 O 19.6635 -0.367234 5.68014 0
M  V30 264 N 20.8655 -2.23682 5.35674 0
M  V30 265 H 23.6305 0.96105 2.83873 0
M  V30 266 H 21.1915 0.654894 1.48063 0
M  V30 267 H 23.1835 -1.37844 3.80501 0
M  V30 268 H 21.7535 -1.48925 2.74846 0
M  V30 269 H 20.9735 0.726813 3.87442 0
M  V30 270 H 22.2615 0.474719 5.06581 0
M  V30 271 H 21.6595 -2.70497 4.96838 0
M  V30 272 H 20.2165 -2.77369 5.89839 0
M  V30 273 N 23.6496 -1.47581 0.552962 0
M  V30 274 C 24.8956 -2.02782 0.0273648 0
M  V30 275 C 25.2286 -1.42687 -1.31734 0
M  V30 276 O 24.5036 -0.580897 -1.85623 0
M  V30 277 C 24.7866 -3.60031 -0.0702371 0
M  V30 278 C 24.6396 -4.30566 1.30126 0
M  V30 279 C 25.9586 -4.33028 -0.785771 0
M  V30 280 H 23.0776 -0.736912 0.0114185 0
M  V30 281 H 25.7196 -1.76056 0.714432 0
M  V30 282 H 23.8696 -3.82932 -0.655382 0
M  V30 283 H 25.5416 -4.19018 1.92929 0
M  V30 284 H 23.7846 -3.91086 1.87709 0
M  V30 285 H 24.4556 -5.39114 1.18573 0
M  V30 286 H 26.9316 -4.15095 -0.288982 0
M  V30 287 H 25.8076 -5.42695 -0.823013 0
M  V30 288 H 26.0686 -4.01945 -1.841 0
M  V30 289 N 25.1277 -0.289203 -1.54924 0
M  V30 290 C 26.4047 0.376032 -1.91951 0
M  V30 291 C 26.7847 1.72622 -1.21511 0
M  V30 292 O 26.1327 2.25853 -0.346767 0
M  V30 293 C 26.3427 0.502378 -3.45365 0
M  V30 294 C 27.6907 0.778741 -4.17398 0
M  V30 295 O 28.7147 0.586647 -3.51336 0
M  V30 296 O 27.5737 1.14698 -5.34328 0
M  V30 297 H 24.6677 0.208167 -0.800372 0
M  V30 298 H 27.2137 -0.336394 -1.66332 0
M  V30 299 H 25.9857 -0.447255 -3.88736 0
M  V30 300 H 25.6087 1.26373 -3.76982 0
M  V30 301 N 26.6058 1.57591 -0.0167156 0
M  V30 302 C 27.8338 1.95575 0.675128 0
M  V30 303 C 28.2488 0.892542 1.6637 0
M  V30 304 O 27.6058 -0.126912 1.82058 0
M  V30 305 C 27.6568 3.33608 1.39239 0
M  V30 306 O 27.3778 4.3585 0.443444 0
M  V30 307 C 28.8788 3.86151 2.17721 0
M  V30 308 H 26.0988 0.644423 0.186978 0
M  V30 309 H 28.6428 2.0437 -0.0728 0
M  V30 310 H 26.7978 3.2607 2.09182 0
M  V30 311 H 27.2118 5.158 0.951358 0
M  V30 312 H 28.6858 4.85114 2.63379 0
M  V30 313 H 29.1628 3.19738 3.01105 0
M  V30 314 H 29.7688 3.96918 1.52761 0
M  V30 315 N 28.0839 -0.256276 1.55502 0
M  V30 316 C 29.3119 -1.00342 1.8094 0
M  V30 317 C 29.7269 -1.79307 0.59114 0
M  V30 318 O 29.0839 -1.77114 -0.440081 0
M  V30 319 C 29.1349 -1.94875 3.04476 0
M  V30 320 O 28.8559 -1.19107 4.21598 0
M  V30 321 C 30.3569 -2.81266 3.42644 0
M  V30 322 H 27.5769 -0.295685 0.602338 0
M  V30 323 H 30.1209 -0.281998 2.02546 0
M  V30 324 H 28.2759 -2.62457 2.84947 0
M  V30 325 H 28.6899 -1.82969 4.91551 0
M  V30 326 H 30.1639 -3.43362 4.32211 0
M  V30 327 H 30.6409 -3.51897 2.62802 0
M  V30 328 H 31.2469 -2.1915 3.64491 0
M  V30 329 N 29.562 -1.4872 -0.521534 0
M  V30 330 C 30.509 -1.63871 -1.62527 0
M  V30 331 C 31.479 -0.480559 -1.58996 0
M  V30 332 O 32.664 -0.705085 -1.77294 0
M  V30 333 C 29.804 -1.69227 -3.00759 0
M  V30 334 C 28.917 -2.96207 -3.14461 0
M  V30 335 C 28.052 -2.92671 -4.43303 0
M  V30 336 C 27.091 -4.14318 -4.50563 0
M  V30 337 N 26.228 -4.0881 -5.70805 0
M  V30 338 H 31.068 -2.58123 -1.48918 0
M  V30 339 H 28.605 -1.28 -0.724878 0
M  V30 340 H 30.563 -1.70314 -3.80853 0
M  V30 341 H 29.193 -0.784586 -3.1312 0
M  V30 342 H 28.245 -3.04826 -2.27564 0
M  V30 343 H 29.557 -3.86192 -3.15686 0
M  V30 344 H 28.711 -2.92206 -5.31696 0
M  V30 345 H 27.45 -2.00429 -4.44612 0
M  V30 346 H 26.455 -4.15049 -3.60575 0
M  V30 347 H 27.68 -5.07729 -4.50986 0
M  V30 348 H 25.626 -3.19394 -5.72995 0
M  V30 349 H 25.543 -4.92509 -5.7356 0
M  V30 350 H 26.811 -4.12418 -6.61462 0
M  V30 351 N 31.0401 0.771051 -1.3745 0
M  V30 352 C 32.0031 1.86598 -1.33093 0
M  V30 353 C 33.0031 1.59076 -0.234845 0
M  V30 354 O 34.1931 1.67145 -0.490732 0
M  V30 355 C 31.3251 3.23747 -1.06773 0
M  V30 356 H 32.5181 1.91873 -2.30488 0
M  V30 357 H 30.0711 0.970876 -1.2249 0
M  V30 358 H 30.8061 3.24148 -0.099129 0
M  V30 359 H 30.5911 3.45115 -1.86112 0
M  V30 360 H 32.0811 4.03824 -1.06377 0
M  V30 361 N 32.5182 1.22032 0.997298 0
M  V30 362 C 33.7642 1.04376 1.73878 0
M  V30 363 C 34.0972 -0.420716 1.89588 0
M  V30 364 O 33.3722 -1.31202 1.43583 0
M  V30 365 C 33.6552 1.75047 3.14691 0
M  V30 366 C 33.5082 3.29062 3.06656 0
M  V30 367 C 34.8272 1.49928 4.13775 0
M  V30 368 H 31.9462 0.380578 0.631133 0
M  V30 369 H 34.5882 1.50312 1.16217 0
M  V30 370 H 32.7382 1.35996 3.63919 0
M  V30 371 H 34.4102 3.7753 2.65083 0
M  V30 372 H 32.6532 3.58967 2.43568 0
M  V30 373 H 33.3242 3.73683 4.06282 0
M  V30 374 H 35.8002 1.83842 3.73285 0
M  V30 375 H 34.6762 2.01878 5.10428 0
M  V30 376 H 34.9372 0.430929 4.39995 0
M  V30 377 N 33.9963 -1.19345 1.0293 0
M  V30 378 C 35.2453 -1.88363 0.721256 0
M  V30 379 C 35.5583 -1.80514 -0.753254 0
M  V30 380 O 36.7643 -2.44788 -1.17436 0
M  V30 381 C 35.2203 -3.37872 1.23978 0
M  V30 382 C 34.8283 -3.54278 2.74211 0
M  V30 383 C 36.5723 -4.12365 1.00775 0
M  V30 384 C 34.4793 -4.97682 3.19479 0
M  V30 385 H 33.4093 -0.705484 0.266098 0
M  V30 386 H 36.0603 -1.34928 1.24365 0
M  V30 387 H 34.4423 -3.90707 0.6453 0
M  V30 388 H 35.6163 -3.11769 3.39318 0
M  V30 389 H 33.9313 -2.93174 2.95699 0
M  V30 390 H 36.5283 -5.18119 1.32123 0
M  V30 391 H 36.8713 -4.16263 -0.0554308 0
M  V30 392 H 37.4043 -3.65668 1.56625 0
M  V30 393 H 34.1433 -4.98945 4.25128 0
M  V30 394 H 33.6633 -5.4095 2.591 0
M  V30 395 H 35.3423 -5.66337 3.12845 0
M  V30 396 N 35.4744 -0.807222 -1.35358 0
M  V30 397 C 36.7024 -0.400377 -2.02989 0
M  V30 398 C 37.1174 0.988859 -1.60832 0
M  V30 399 O 36.4744 1.63729 -0.806175 0
M  V30 400 C 36.5254 -0.474867 -3.58368 0
M  V30 401 O 36.2464 -1.80933 -3.98992 0
M  V30 402 C 37.7474 -0.0609112 -4.43258 0
M  V30 403 H 34.9674 -0.162587 -0.651004 0
M  V30 404 H 37.5114 -1.09102 -1.72965 0
M  V30 405 H 35.6664 0.167534 -3.87038 0
M  V30 406 H 36.0804 -1.77256 -4.9364 0
M  V30 407 H 37.5544 -0.164145 -5.51756 0
M  V30 408 H 38.0314 0.993831 -4.27808 0
M  V30 409 H 38.6374 -0.676492 -4.19885 0
M  V30 410 N 36.9525 1.47285 -0.560781 0
M  V30 411 C 37.8825 2.32857 0.173105 0
M  V30 412 C 38.8635 1.44009 0.905281 0
M  V30 413 O 40.0485 1.7286 0.885046 0
M  V30 414 C 37.1785 3.25861 1.20133 0
M  V30 415 C 36.1325 4.23978 0.585388 0
M  V30 416 C 35.4585 5.06332 1.7185 0
M  V30 417 C 36.7585 5.20242 -0.463178 0
M  V30 418 H 38.4525 2.94466 -0.541307 0
M  V30 419 H 35.9985 1.41601 -0.261764 0
M  V30 420 H 37.9515 3.84569 1.72293 0
M  V30 421 H 36.6755 2.62315 1.94573 0
M  V30 422 H 35.3345 3.66501 0.085054 0
M  V30 423 H 34.9825 4.39186 2.45203 0
M  V30 424 H 34.6825 5.72762 1.31213 0
M  V30 425 H 36.2065 5.67899 2.24329 0
M  V30 426 H 37.6205 5.73293 -0.027502 0
M  V30 427 H 36.0175 5.94896 -0.788627 0
M  V30 428 H 37.0875 4.65504 -1.35773 0
M  V30 429 N 38.4306 0.297415 1.54768 0
M  V30 430 C 39.3626 -0.613881 2.20826 0
M  V30 431 C 40.3756 -1.10032 1.19987 0
M  V30 432 O 41.5646 -1.01839 1.46598 0
M  V30 433 C 38.6646 -1.852 2.83821 0
M  V30 434 C 37.8376 -1.50865 4.10559 0
M  V30 435 C 36.8966 -2.60154 4.57391 0
M  V30 436 O 35.9226 -2.25398 5.2267 0
M  V30 437 N 37.1246 -3.90629 4.29406 0
M  V30 438 H 39.8896 -0.048389 2.99661 0
M  V30 439 H 37.4506 0.11946 1.61459 0
M  V30 440 H 39.4426 -2.57652 3.12086 0
M  V30 441 H 38.0126 -2.32597 2.08847 0
M  V30 442 H 37.2326 -0.616925 3.89343 0
M  V30 443 H 38.5206 -1.25458 4.9309 0
M  V30 444 H 37.9186 -4.21677 3.77101 0
M  V30 445 H 36.4756 -4.59391 4.62388 0
M  V30 446 N 39.9087 -1.5758 0.0250728 0
M  V30 447 C 41.3197 -1.79476 -0.514323 0
M  V30 448 C 41.6707 -0.934956 -1.72491 0
M  V30 449 O 40.7957 -0.144245 -2.15919 0
M  V30 450 C 41.3907 -3.25503 -0.939842 0
M  V30 451 C 39.9497 -3.48408 -1.42438 0
M  V30 452 C 39.0967 -2.74583 -0.387201 0
M  V30 453 H 42.0477 -1.567 0.25113 0
M  V30 454 H 42.0687 -3.34992 -1.80445 0
M  V30 455 H 41.5807 -3.88056 -0.0585628 0
M  V30 456 H 39.6817 -2.91103 -2.32572 0
M  V30 457 H 39.7947 -4.57119 -1.43455 0
M  V30 458 H 38.1587 -2.39942 -0.854409 0
M  V30 459 H 38.9417 -3.39849 0.485543 0
M  V30 460 N 41.3868 0.248026 -1.55636 0
M  V30 461 C 42.7978 0.817177 -1.67866 0
M  V30 462 C 43.1488 1.86069 -0.622322 0
M  V30 463 O 42.2738 2.15157 0.231618 0
M  V30 464 C 42.8688 1.489 -3.04326 0
M  V30 465 C 41.4278 2.00587 -3.185 0
M  V30 466 C 40.5748 0.856573 -2.63739 0
M  V30 467 H 43.5258 0.0238579 -1.58682 0
M  V30 468 H 43.5468 2.35698 -2.98708 0
M  V30 469 H 43.0588 0.729279 -3.81186 0
M  V30 470 H 41.1598 2.79443 -2.4646 0
M  V30 471 H 41.2728 2.20402 -4.25393 0
M  V30 472 H 39.6368 1.25678 -2.21534 0
M  V30 473 H 40.4198 0.109953 -3.43124 0
M  V30 474 N 42.8649 1.48995 0.513639 0
M  V30 475 C 44.1109 1.59053 1.26783 0
M  V30 476 C 44.4659 0.268136 1.90522 0
M  V30 477 O 43.7589 -0.730534 1.77126 0
M  V30 478 C 43.9529 2.67756 2.36731 0
M  V30 479 C 43.7819 4.10437 1.83771 0
M  V30 480 C 42.5519 4.7738 1.65639 0
M  V30 481 C 44.7499 4.9608 1.35681 0
M  V30 482 N 42.7319 6.04419 1.07476 0
M  V30 483 C 44.1029 6.13496 0.895715 0
M  V30 484 C 46.1579 4.82177 1.24136 0
M  V30 485 C 44.8609 7.1854 0.3306 0
M  V30 486 C 46.8869 5.87358 0.690229 0
M  V30 487 C 46.2489 7.03993 0.239292 0
M  V30 488 H 42.3479 0.636463 0.454355 0
M  V30 489 H 44.9319 1.85948 0.577196 0
M  V30 490 H 43.1029 2.42655 3.03271 0
M  V30 491 H 44.8349 2.67406 3.0377 0
M  V30 492 H 41.5899 4.33974 1.8964 0
M  V30 493 H 42.0139 6.72214 0.803579 0
M  V30 494 H 46.6559 3.92329 1.57601 0
M  V30 495 H 44.3739 8.08098 -0.0163435 0
M  V30 496 H 47.9599 5.78658 0.603852 0
M  V30 497 H 46.8399 7.83992 -0.180526 0
M  V30 498 N 44.343 -0.763751 1.37857 0
M  V30 499 C 45.589 -1.52483 1.33704 0
M  V30 500 C 45.922 -1.94051 -0.0759612 0
M  V30 501 O 45.197 -1.64675 -1.03501 0
M  V30 502 C 45.48 -2.78441 2.28348 0
M  V30 503 C 45.333 -2.43075 3.78463 0
M  V30 504 C 46.652 -3.80415 2.21298 0
M  V30 505 H 43.771 -0.553169 0.487005 0
M  V30 506 H 46.413 -0.875562 1.68624 0
M  V30 507 H 44.563 -3.33842 1.987 0
M  V30 508 H 46.235 -1.93527 4.18742 0
M  V30 509 H 44.478 -1.75666 3.96641 0
M  V30 510 H 45.149 -3.33149 4.40132 0
M  V30 511 H 47.625 -3.34527 2.47449 0
M  V30 512 H 46.501 -4.66257 2.89647 0
M  V30 513 H 46.762 -4.25262 1.20849 0
M  V30 514 N 45.8211 -1.22559 -0.990812 0
M  V30 515 C 47.0461 -1.07862 -1.77145 0
M  V30 516 C 47.4711 0.366447 -1.84496 0
M  V30 517 O 46.8291 1.26478 -1.29896 0
M  V30 518 C 46.8771 -1.69686 -3.18181 0
M  V30 519 O 45.9811 -0.951946 -4.01263 0
M  V30 520 H 45.3221 -0.378712 -0.545411 0
M  V30 521 H 47.8521 -1.62399 -1.2445 0
M  V30 522 H 47.8621 -1.74496 -3.68802 0
M  V30 523 H 46.5371 -2.74841 -3.12146 0
M  V30 524 H 45.1141 -0.980011 -3.59792 0
M  V30 525 N 47.2992 1.18797 -1.03562 0
M  V30 526 C 48.5452 1.8893 -0.737113 0
M  V30 527 C 48.8782 1.79837 0.732956 0
M  V30 528 O 48.1532 1.19525 1.5344 0
M  V30 529 C 48.4362 3.39607 -1.19745 0
M  V30 530 C 48.2892 3.57537 -2.72924 0
M  V30 531 C 49.6082 4.33069 -0.783526 0
M  V30 532 H 46.7272 0.686057 -0.269249 0
M  V30 533 H 49.3692 1.39797 -1.28673 0
M  V30 534 H 47.5192 3.81583 -0.729855 0
M  V30 535 H 49.1912 3.24688 -3.27682 0
M  V30 536 H 47.4342 3.00363 -3.12993 0
M  V30 537 H 48.1052 4.63238 -3.00191 0
M  V30 538 H 50.5812 3.98846 -1.18581 0
M  V30 539 H 49.4572 5.3707 -1.13343 0
M  V30 540 H 49.7182 4.40986 0.313681 0
M  V30 541 N 48.7773 0.814389 1.34928 0
M  V30 542 C 50.0243 0.398423 1.98542 0
M  V30 543 C 50.3523 -1.03638 1.64589 0
M  V30 544 O 49.6073 -1.73509 0.90516 0
M  V30 545 C 49.9063 0.537781 3.53331 0
M  V30 546 C 49.5723 1.93704 4.07172 0
M  V30 547 C 48.2343 2.31984 4.21589 0
M  V30 548 C 50.5863 2.85213 4.36237 0
M  V30 549 C 47.9143 3.61125 4.62391 0
M  V30 550 C 50.2663 4.13809 4.78482 0
M  V30 551 C 48.9303 4.52077 4.91104 0
M  V30 552 H 48.2003 0.145793 0.726516 0
M  V30 553 H 50.8473 1.03669 1.61012 0
M  V30 554 H 49.1523 -0.183906 3.91368 0
M  V30 555 H 50.8493 0.196588 4.00518 0
M  V30 556 H 47.4393 1.62966 3.96409 0
M  V30 557 H 51.6233 2.56885 4.24645 0
M  V30 558 H 46.8793 3.90612 4.70353 0
M  V30 559 H 51.0533 4.84811 4.99932 0
M  V30 560 H 48.6803 5.52196 5.22478 0
M  V30 561 N 50.2554 -1.46986 0.568584 0
M  V30 562 C 51.1874 -2.28233 -0.210337 0
M  V30 563 C 52.2004 -1.37682 -0.868767 0
M  V30 564 O 53.3894 -1.62406 -0.740705 0
M  V30 565 C 50.4894 -3.12293 -1.3163 0
M  V30 566 C 49.6624 -4.30878 -0.7525 0
M  V30 567 C 48.7214 -4.96445 -1.74439 0
M  V30 568 O 47.7474 -5.54482 -1.286 0
M  V30 569 N 48.9494 -4.92171 -3.07812 0
M  V30 570 H 51.7144 -2.95723 0.486648 0
M  V30 571 H 49.2754 -1.56742 0.405409 0
M  V30 572 H 51.2674 -3.53022 -1.97883 0
M  V30 573 H 49.8374 -2.46971 -1.91636 0
M  V30 574 H 49.0574 -3.94104 0.0871128 0
M  V30 575 H 50.3454 -5.07558 -0.35536 0
M  V30 576 H 49.7434 -4.46239 -3.47688 0
M  V30 577 H 48.3004 -5.36884 -3.69592 0
M  V30 578 N 51.7335 -0.305618 -1.54608 0
M  V30 579 C 52.6435 0.57778 -2.27374 0
M  V30 580 C 53.6595 1.14451 -1.31061 0
M  V30 581 O 54.8355 1.16831 -1.6405 0
M  V30 582 C 51.9005 1.73123 -3.00382 0
M  V30 583 C 50.9615 1.19812 -4.12242 0
M  V30 584 C 50.1945 2.2966 -4.81759 0
M  V30 585 O 50.4175 3.49651 -4.50666 0
M  V30 586 O 49.3515 1.96091 -5.69062 0
M  V30 587 H 53.1775 -0.012624 -3.03697 0
M  V30 588 H 50.7625 -0.0719184 -1.49227 0
M  V30 589 H 52.6445 2.40315 -3.4616 0
M  V30 590 H 51.3195 2.30815 -2.26949 0
M  V30 591 H 50.2265 0.491798 -3.70853 0
M  V30 592 H 51.5595 0.666566 -4.87666 0
M  V30 593 N 53.2116 1.57565 -0.0334293 0
M  V30 594 C 54.1216 2.13943 0.962572 0
M  V30 595 C 55.1376 1.09276 1.35406 0
M  V30 596 O 56.3136 1.41355 1.4346 0
M  V30 597 C 53.3786 2.65887 2.22497 0
M  V30 598 C 52.4396 3.85286 1.8935 0
M  V30 599 C 51.6726 4.34743 3.09571 0
M  V30 600 O 51.8956 3.83352 4.22371 0
M  V30 601 O 50.8296 5.26538 2.91618 0
M  V30 602 H 54.6556 2.99333 0.513169 0
M  V30 603 H 52.2406 1.4822 0.18743 0
M  V30 604 H 54.1226 2.99346 2.96598 0
M  V30 605 H 52.7976 1.83578 2.6661 0
M  V30 606 H 51.7046 3.56746 1.1262 0
M  V30 607 H 53.0376 4.68771 1.5005 0
M  V30 608 N 54.6897 -0.239769 1.55765 0
M  V30 609 C 55.9177 -0.98417 1.81994 0
M  V30 610 C 56.3327 -1.7867 0.610124 0
M  V30 611 O 55.6897 -1.77571 -0.421271 0
M  V30 612 C 55.7407 -1.91635 3.06526 0
M  V30 613 O 55.4617 -1.14629 4.22838 0
M  V30 614 C 56.9627 -2.77616 3.45607 0
M  V30 615 H 54.1827 -0.28928 0.605441 0
M  V30 616 H 56.7267 -0.260499 2.02834 0
M  V30 617 H 54.8817 -2.5942 2.87715 0
M  V30 618 H 55.2957 -1.77745 4.93464 0
M  V30 619 H 56.7697 -3.38759 4.35828 0
M  V30 620 H 57.2467 -3.4909 2.6652 0
M  V30 621 H 57.8527 -2.15271 3.66795 0
M  V30 622 N 56.1678 -1.49265 -0.50573 0
M  V30 623 C 57.4138 -1.58748 -1.26202 0
M  V30 624 C 57.7468 -0.271227 -1.92297 0
M  V30 625 O 57.0218 0.724831 -1.80489 0
M  V30 626 C 57.3048 -2.74332 -2.33268 0
M  V30 627 C 57.1578 -4.15737 -1.71705 0
M  V30 628 C 58.4768 -2.85576 -3.34865 0
M  V30 629 H 55.5958 -0.577826 -0.457478 0
M  V30 630 H 58.2378 -1.81532 -0.560897 0
M  V30 631 H 56.3878 -2.55036 -2.93068 0
M  V30 632 H 58.0598 -4.46537 -1.15769 0
M  V30 633 H 56.3028 -4.21605 -1.02135 0
M  V30 634 H 56.9738 -4.92477 -2.49341 0
M  V30 635 H 59.4498 -3.03127 -2.8505 0
M  V30 636 H 58.3258 -3.68135 -4.07146 0
M  V30 637 H 58.5868 -1.94732 -3.96903 0
M  V30 638 N 57.6459 0.756429 -1.3826 0
M  V30 639 C 58.8739 1.54565 -1.3754 0
M  V30 640 C 59.2889 1.88767 0.0355331 0
M  V30 641 O 58.6459 1.52572 1.0014 0
M  V30 642 C 58.6969 2.84654 -2.22833 0
M  V30 643 O 58.4179 2.51912 -3.5843 0
M  V30 644 C 59.9189 3.78807 -2.30261 0
M  V30 645 H 57.1389 0.478353 -0.470553 0
M  V30 646 H 59.6829 0.936381 -1.81803 0
M  V30 647 H 57.8379 3.41965 -1.8204 0
M  V30 648 H 58.2519 3.35325 -4.03308 0
M  V30 649 H 59.7259 4.67045 -2.94233 0
M  V30 650 H 60.2029 4.19038 -1.31545 0
M  V30 651 H 60.8089 3.2742 -2.71433 0
M  V30 652 N 59.124 1.23083 0.984299 0
M  V30 653 C 60.054 1.03292 2.09411 0
M  V30 654 C 61.035 -0.048923 1.7003 0
M  V30 655 O 62.22 0.114967 1.93859 0
M  V30 656 C 59.35 0.619155 3.41736 0
M  V30 657 C 58.304 1.64791 3.95004 0
M  V30 658 C 57.63 1.0897 5.23478 0
M  V30 659 C 58.93 3.03999 4.24714 0
M  V30 660 H 60.624 1.96119 2.26225 0
M  V30 661 H 58.17 0.944344 1.08711 0
M  V30 662 H 60.123 0.467777 4.18796 0
M  V30 663 H 58.847 -0.344786 3.24775 0
M  V30 664 H 57.506 1.78721 3.20085 0
M  V30 665 H 57.154 0.11686 5.02864 0
M  V30 666 H 56.854 1.77704 5.60085 0
M  V30 667 H 58.378 0.950093 6.03163 0
M  V30 668 H 59.792 2.93393 4.92538 0
M  V30 669 H 58.189 3.69936 4.72512 0
M  V30 670 H 59.259 3.53285 3.32142 0
M  V30 671 N 60.6021 -1.18246 1.0419 0
M  V30 672 C 61.5521 -2.19843 0.604392 0
M  V30 673 C 62.5361 -1.56962 -0.353814 0
M  V30 674 O 63.7281 -1.76156 -0.17267 0
M  V30 675 C 60.8571 -3.43287 -0.0298975 0
M  V30 676 C 59.9431 -4.13288 0.951531 0
M  V30 677 N 60.3341 -4.59271 2.11906 0
M  V30 678 C 58.6321 -4.39165 0.7778 0
M  V30 679 C 59.3331 -5.13173 2.73912 0
M  V30 680 N 58.3091 -5.04763 2.01779 0
M  V30 681 H 62.1111 -2.53089 1.4941 0
M  V30 682 H 59.6251 -1.34465 0.910658 0
M  V30 683 H 61.6221 -4.15334 -0.361037 0
M  V30 684 H 60.2821 -3.11537 -0.915127 0
M  V30 685 H 61.2931 -4.5368 2.49789 0
M  V30 686 H 57.9701 -4.17461 -0.0572331 0
M  V30 687 H 59.3601 -5.58947 3.72864 0
M  V30 688 N 62.0802 -0.821533 -1.34494 0
M  V30 689 C 63.3202 -0.414785 -2.00147 0
M  V30 690 C 63.6842 1.00299 -1.6372 0
M  V30 691 O 64.8852 1.51255 -2.22206 0
M  V30 692 C 63.1562 -0.609403 -3.52166 0
M  V30 693 S 64.7152 -0.295297 -4.37805 0
M  V30 694 H 61.5332 -0.15679 -0.693497 0
M  V30 695 H 64.1352 -1.06705 -1.63812 0
M  V30 696 H 62.8392 -1.64096 -3.76166 0
M  V30 697 H 62.3702 0.0576414 -3.93358 0
M  V30 698 H 64.3852 0.891531 -4.88125 0
M  V30 699 N 63.5583 1.46682 -0.576371 0
M  V30 700 C 64.4683 2.34032 0.163141 0
M  V30 701 C 65.4843 1.49367 0.892501 0
M  V30 702 O 66.6603 1.82252 0.857106 0
M  V30 703 C 63.7253 3.26435 1.16795 0
M  V30 704 C 62.7863 4.26998 0.443944 0
M  V30 705 C 62.0193 5.14986 1.40088 0
M  V30 706 O 62.2423 5.05785 2.637 0
M  V30 707 O 61.1763 5.94906 0.914917 0
M  V30 708 H 65.0023 2.98607 -0.55388 0
M  V30 709 H 62.5873 1.45554 -0.336821 0
M  V30 710 H 64.4693 3.83459 1.74748 0
M  V30 711 H 63.1443 2.64465 1.86655 0
M  V30 712 H 62.0513 3.7368 -0.177271 0
M  V30 713 H 63.3843 4.91736 -0.213566 0
M  V30 714 N 65.0364 0.313813 1.54444 0
M  V30 715 C 66.2824 -0.292108 2.00685 0
M  V30 716 C 66.6154 -1.52548 1.20177 0
M  V30 717 O 65.8904 -1.92452 0.281531 0
M  V30 718 C 66.1734 -0.635968 3.5444 0
M  V30 719 C 66.0264 0.607437 4.4568 0
M  V30 720 C 67.3454 -1.45747 4.15266 0
M  V30 721 H 64.4644 -0.104697 0.729526 0
M  V30 722 H 67.1064 0.428457 1.85106 0
M  V30 723 H 65.2564 -1.24986 3.67846 0
M  V30 724 H 66.9284 1.24581 4.44159 0
M  V30 725 H 65.1714 1.23822 4.15753 0
M  V30 726 H 65.8424 0.322515 5.51057 0
M  V30 727 H 68.3184 -0.938645 4.05375 0
M  V30 728 H 67.1944 -1.66683 5.2298 0
M  V30 729 H 67.4554 -2.45063 3.67963 0
M  V30 730 N 66.5145 -1.57545 0.0417849 0
M  V30 731 C 67.4445 -2.14009 -0.933929 0
M  V30 732 C 68.4255 -1.05938 -1.33083 0
M  V30 733 O 69.6105 -1.33833 -1.40721 0
M  V30 734 C 66.7405 -2.67747 -2.21199 0
M  V30 735 C 65.6945 -3.80718 -1.95544 0
M  V30 736 C 65.0205 -4.20935 -3.29724 0
M  V30 737 C 66.3205 -5.06258 -1.28452 0
M  V30 738 H 68.0145 -2.95788 -0.463645 0
M  V30 739 H 65.5605 -1.42285 -0.221573 0
M  V30 740 H 67.5135 -3.05886 -2.89848 0
M  V30 741 H 66.2375 -1.83147 -2.70416 0
M  V30 742 H 64.8965 -3.43037 -1.2931 0
M  V30 743 H 64.5445 -3.33298 -3.76724 0
M  V30 744 H 64.2445 -4.9707 -3.13361 0
M  V30 745 H 65.7685 -4.61666 -3.9962 0
M  V30 746 H 67.1825 -5.41903 -1.8712 0
M  V30 747 H 65.5795 -5.87475 -1.22445 0
M  V30 748 H 66.6495 -4.84207 -0.259219 0
M  V30 749 N 67.9926 0.231505 -1.5589 0
M  V30 750 C 68.9426 1.29007 -1.87993 0
M  V30 751 C 69.9266 1.42764 -0.742102 0
M  V30 752 O 71.1186 1.45747 -1.00433 0
M  V30 753 C 68.2476 2.6425 -2.1915 0
M  V30 754 C 67.3336 2.54435 -3.39299 0
M  V30 755 N 67.7246 2.14262 -4.58176 0
M  V30 756 C 66.0226 2.85416 -3.42715 0
M  V30 757 C 66.7236 2.15455 -5.40328 0
M  V30 758 N 65.6996 2.55558 -4.79783 0
M  V30 759 H 69.5016 0.970213 -2.77424 0
M  V30 760 H 67.0156 0.440097 -1.56323 0
M  V30 761 H 69.0126 3.40665 -2.40319 0
M  V30 762 H 67.6726 2.9709 -1.31025 0
M  V30 763 H 68.6836 1.85554 -4.83518 0
M  V30 764 H 65.3606 3.22693 -2.64906 0
M  V30 765 H 66.7506 1.86605 -6.45467 0
M  V30 766 N 69.4707 1.49531 0.497807 0
M  V30 767 C 70.4007 1.6935 1.60757 0
M  V30 768 C 71.3817 0.542218 1.61227 0
M  V30 769 O 72.5667 0.778417 1.77917 0
M  V30 770 C 69.6967 1.76298 2.99226 0
M  V30 771 C 68.6507 2.91248 3.13622 0
M  V30 772 C 67.9767 2.83312 4.53474 0
M  V30 773 C 69.2767 4.3214 2.93346 0
M  V30 774 H 70.9707 2.62263 1.44425 0
M  V30 775 H 68.5167 1.26208 0.693367 0
M  V30 776 H 70.4697 1.88749 3.76765 0
M  V30 777 H 69.1937 0.799871 3.16654 0
M  V30 778 H 67.8527 2.78404 2.38509 0
M  V30 779 H 67.5007 1.84902 4.67782 0
M  V30 780 H 67.2007 3.60465 4.64046 0
M  V30 781 H 68.7247 2.97775 5.33069 0
M  V30 782 H 70.1387 4.45649 3.60652 0
M  V30 783 H 68.5357 5.1054 3.15387 0
M  V30 784 H 69.6057 4.46363 1.89441 0
M  V30 785 N 70.9488 -0.749086 1.3866 0
M  V30 786 C 72.3598 -1.32664 1.31366 0
M  V30 787 C 72.7108 -1.96179 -0.028484 0
M  V30 788 O 71.8358 -1.9537 -0.93057 0
M  V30 789 C 72.4308 -2.41219 2.37905 0
M  V30 790 C 70.9898 -2.94684 2.34176 0
M  V30 791 C 70.1368 -1.68108 2.20533 0
M  V30 792 H 73.0878 -0.547628 1.48952 0
M  V30 793 H 73.1088 -3.21268 2.0388 0
M  V30 794 H 72.6208 -1.94962 3.35576 0
M  V30 795 H 70.7218 -3.45258 1.401 0
M  V30 796 H 70.8348 -3.48757 3.2849 0
M  V30 797 H 69.1988 -1.91907 1.67463 0
M  V30 798 H 69.9818 -1.23923 3.20153 0
M  V30 799 N 72.4269 -1.23603 -0.977757 0
M  V30 800 C 73.6749 -1.06759 -1.71601 0
M  V30 801 C 73.9959 0.395929 -1.90938 0
M  V30 802 O 73.2659 1.28356 -1.47992 0
M  V30 803 H 71.8459 -0.392062 -0.635843 0
M  V30 804 H 74.5079 -1.55362 -1.1768 0
M  V30 805 H 73.6039 -1.55763 -2.70452 0
M  V30 806 N 73.905 1.17692 -1.04816 0
M  V30 807 C 75.13 1.92327 -0.776207 0
M  V30 808 C 75.555 1.76082 0.661581 0
M  V30 809 O 74.913 1.076 1.45917 0
M  V30 810 C 74.961 3.41539 -1.15687 0
M  V30 811 O 74.065 4.11402 -0.286775 0
M  V30 812 H 73.406 0.599735 -0.284981 0
M  V30 813 H 75.936 1.49201 -1.4 0
M  V30 814 H 75.946 3.92269 -1.12202 0
M  V30 815 H 74.621 3.52684 -2.20425 0
M  V30 816 H 73.198 3.70939 -0.381903 0
M  V30 817 N 75.3831 0.828654 1.34056 0
M  V30 818 C 76.6081 0.431637 2.02859 0
M  V30 819 C 77.0331 -0.956339 1.61975 0
M  V30 820 O 76.3911 -1.62338 0.807228 0
M  V30 821 C 76.4391 0.548323 3.56407 0
M  V30 822 O 75.5431 -0.429556 4.10157 0
M  V30 823 H 74.8841 0.176886 0.640006 0
M  V30 824 H 77.4141 1.12066 1.71179 0
M  V30 825 H 77.4241 0.426196 4.05768 0
M  V30 826 H 76.0991 1.5606 3.8551 0
M  V30 827 H 74.6761 -0.265836 3.71951 0
M  V30 828 N 76.8612 -1.46375 0.584142 0
M  V30 829 C 78.0862 -2.07268 0.0740405 0
M  V30 830 C 78.5112 -1.42979 -1.22223 0
M  V30 831 O 77.8692 -0.514092 -1.73859 0
M  V30 832 C 77.9172 -3.60518 -0.0767769 0
M  V30 833 O 77.0212 -3.96533 -1.13292 0
M  V30 834 H 76.3622 -0.660961 0.0634524 0
M  V30 835 H 78.8922 -1.87991 0.807492 0
M  V30 836 H 78.9022 -4.07021 -0.282489 0
M  V30 837 H 77.5772 -4.06702 0.86986 0
M  V30 838 H 76.1542 -3.61738 -0.905553 0
M  V30 839 N 78.3393 -0.321999 -1.54275 0
M  V30 840 C 79.5673 0.283052 -2.04955 0
M  V30 841 C 79.9823 1.45904 -1.19823 0
M  V30 842 O 79.3393 1.81063 -0.228545 0
M  V30 843 C 79.3903 0.719028 -3.54277 0
M  V30 844 O 79.1113 -0.410175 -4.36176 0
M  V30 845 C 80.6123 1.38705 -4.21041 0
M  V30 846 H 77.8323 0.0584616 -0.668448 0
M  V30 847 H 80.3763 -0.467734 -1.99079 0
M  V30 848 H 78.5313 1.41979 -3.60445 0
M  V30 849 H 78.9453 -0.0669416 -5.24457 0
M  V30 850 H 80.4193 1.64306 -5.2698 0
M  V30 851 H 80.8963 2.33385 -3.72059 0
M  V30 852 H 81.5023 0.728906 -4.19007 0
M  V30 853 N 79.8174 1.5752 -0.0501392 0
M  V30 854 C 80.7494 2.08413 0.95376 0
M  V30 855 C 81.7624 1.01175 1.27544 0
M  V30 856 O 82.9514 1.28744 1.23641 0
M  V30 857 C 80.0514 2.51138 2.27559 0
M  V30 858 C 79.2244 3.817 2.13598 0
M  V30 859 C 78.2834 4.10749 3.28895 0
M  V30 860 O 77.3094 4.80685 3.04845 0
M  V30 861 N 78.5114 3.62579 4.5334 0
M  V30 862 H 81.2764 2.95165 0.519383 0
M  V30 863 H 78.8374 1.61327 0.136127 0
M  V30 864 H 80.8294 2.67648 3.03557 0
M  V30 865 H 79.3994 1.6964 2.62567 0
M  V30 866 H 78.6194 3.74782 1.22197 0
M  V30 867 H 79.9074 4.67201 2.01496 0
M  V30 868 H 79.3054 3.06039 4.75769 0
M  V30 869 H 77.8624 3.84329 5.26436 0
M  V30 870 N 81.2955 -0.223234 1.56011 0
M  V30 871 C 82.5415 -0.944891 1.8012 0
M  V30 872 C 82.8965 -1.82039 0.622862 0
M  V30 873 O 82.1895 -1.8773 -0.383143 0
M  V30 874 C 82.3835 -1.81948 3.0762 0
M  V30 875 C 82.2125 -1.03014 4.37742 0
M  V30 876 C 80.9825 -0.72574 5.00061 0
M  V30 877 C 83.1805 -0.396256 5.12771 0
M  V30 878 N 81.1625 0.0851816 6.13841 0
M  V30 879 C 82.5335 0.278137 6.19376 0
M  V30 880 C 84.5885 -0.309117 4.9694 0
M  V30 881 C 83.2915 1.03133 7.11868 0
M  V30 882 C 85.3175 0.430607 5.8983 0
M  V30 883 C 84.6795 1.09355 6.9586 0
M  V30 884 H 80.7785 -0.326081 0.710771 0
M  V30 885 H 83.3625 -0.215914 1.93499 0
M  V30 886 H 81.5335 -2.52029 2.95527 0
M  V30 887 H 83.2655 -2.47848 3.19927 0
M  V30 888 H 80.0205 -1.04335 4.61964 0
M  V30 889 H 80.4445 0.479428 6.753 0
M  V30 890 H 85.0865 -0.807313 4.15021 0
M  V30 891 H 82.8045 1.54105 7.9327 0
M  V30 892 H 86.3905 0.499012 5.79656 0
M  V30 893 H 85.2705 1.65679 7.66499 0
M  V30 894 N 82.7736 -1.49793 -0.48987 0
M  V30 895 C 84.0206 -1.59841 -1.24327 0
M  V30 896 C 84.3486 -0.290135 -1.92324 0
M  V30 897 O 83.6036 0.722749 -1.81865 0
M  V30 898 C 83.9026 -2.71488 -2.32441 0
M  V30 899 C 83.5686 -4.12614 -1.81826 0
M  V30 900 C 82.2306 -4.51017 -1.67742 0
M  V30 901 C 84.5826 -5.00892 -1.4407 0
M  V30 902 C 81.9106 -5.75459 -1.14297 0
M  V30 903 C 84.2626 -6.25863 -0.920742 0
M  V30 904 C 82.9266 -6.63086 -0.766383 0
M  V30 905 H 82.1966 -0.584899 -0.454944 0
M  V30 906 H 84.8436 -1.83663 -0.542215 0
M  V30 907 H 83.1486 -2.4168 -3.0838 0
M  V30 908 H 84.8456 -2.76469 -2.90458 0
M  V30 909 H 81.4356 -3.82307 -1.93751 0
M  V30 910 H 85.6196 -4.7187 -1.53794 0
M  V30 911 H 80.8756 -6.02989 -1.01068 0
M  V30 912 H 85.0496 -6.9364 -0.619448 0
M  V30 913 H 82.6766 -7.59393 -0.350083 0
M  V30 914 N 84.2517 0.741722 -1.39055 0
M  V30 915 C 85.1817 1.869 -1.39966 0
M  V30 916 C 86.1627 1.6804 -0.26392 0
M  V30 917 O 87.3477 1.88458 -0.468755 0
M  V30 918 C 84.4777 3.24572 -1.23574 0
M  V30 919 C 83.4317 3.58056 -2.34477 0
M  V30 920 C 82.7577 4.94593 -2.0318 0
M  V30 921 C 84.0577 3.61716 -3.76774 0
M  V30 922 H 85.7517 1.86395 -2.34302 0
M  V30 923 H 83.2977 0.895361 -1.1278 0
M  V30 924 H 85.2507 4.031 -1.22834 0
M  V30 925 H 83.9747 3.25587 -0.257045 0
M  V30 926 H 82.6337 2.81854 -2.34423 0
M  V30 927 H 82.2817 4.92181 -1.03765 0
M  V30 928 H 81.9817 5.17964 -2.77465 0
M  V30 929 H 83.5057 5.75486 -2.04079 0
M  V30 930 H 84.9197 4.30335 -3.78794 0
M  V30 931 H 83.3167 3.96603 -4.50362 0
M  V30 932 H 84.3867 2.61672 -4.08235 0
M  V30 933 N 85.7298 1.2412 0.971189 0
M  V30 934 C 86.6778 1.02812 2.08644 0
M  V30 935 C 87.6718 -0.0358403 1.69362 0
M  V30 936 O 88.8778 0.118429 1.7961 0
M  V30 937 H 85.2528 0.315428 0.682649 0
M  V30 938 H 87.2238 1.97397 2.23779 0
M  V30 939 C 85.9728 0.645874 3.41649 0
M  V30 940 H 85.2958 1.45632 3.72332 0
M  V30 941 H 86.7358 0.536366 4.20594 0
M  V30 942 C 85.1948 -0.646713 3.30635 0
M  V30 943 O 85.7248 -1.69338 3.64263 0
M  V30 944 N 83.9308 -0.626115 2.83775 0
M  V30 945 H 83.4778 0.225988 2.56607 0
M  V30 946 H 83.4358 -1.49117 2.76788 0
M  V30 947 N 87.2079 -1.17134 1.05439 0
M  V30 948 C 88.4559 -1.87085 0.764429 0
M  V30 949 C 88.7769 -1.81584 -0.710787 0
M  V30 950 O 88.0469 -1.24349 -1.51374 0
M  V30 951 H 86.6269 -0.692627 0.279779 0
M  V30 952 H 89.2889 -1.42087 1.33406 0
M  V30 953 H 88.3849 -2.92759 1.0816 0
M  V30 954 N 88.686 -0.835752 -1.33615 0
M  V30 955 C 89.914 -0.443344 -2.02094 0
M  V30 956 C 90.329 0.954522 -1.62894 0
M  V30 957 O 89.686 1.61982 -0.840723 0
M  V30 958 C 89.737 -0.550775 -3.5728 0
M  V30 959 O 89.458 -1.89356 -3.95065 0
M  V30 960 C 90.959 -0.154919 -4.43029 0
M  V30 961 H 88.179 -0.176359 -0.647409 0
M  V30 962 H 90.723 -1.12746 -1.70612 0
M  V30 963 H 88.878 0.0853997 -3.87306 0
M  V30 964 H 89.292 -1.87687 -4.89769 0
M  V30 965 H 90.766 -0.281144 -5.51284 0
M  V30 966 H 91.243 0.902863 -4.2982 0
M  V30 967 H 91.849 -0.765404 -4.18356 0
M  V30 968 N 90.1641 1.46063 -0.591896 0
M  V30 969 C 91.1271 2.28854 0.125973 0
M  V30 970 C 92.1271 1.38903 0.810107 0
M  V30 971 O 93.3171 1.61186 0.66066 0
M  V30 972 C 90.4491 3.19526 1.1881 0
M  V30 973 H 91.6421 2.93802 -0.601717 0
M  V30 974 H 89.1951 1.52325 -0.350254 0
M  V30 975 H 89.9301 2.59345 1.94707 0
M  V30 976 H 89.7151 3.85766 0.701936 0
M  V30 977 H 91.2051 3.81817 1.69132 0
M  V30 978 N 91.6422 0.330177 1.54103 0
M  V30 979 C 92.8702 -0.272179 2.05102 0
M  V30 980 C 93.2852 -1.45267 1.20595 0
M  V30 981 O 92.6422 -1.8094 0.238144 0
M  V30 982 C 92.6932 -0.70023 3.54653 0
M  V30 983 O 92.4142 0.433301 4.35952 0
M  V30 984 C 93.9152 -1.3647 4.21771 0
M  V30 985 H 91.1352 -0.0549159 0.668749 0
M  V30 986 H 93.6792 0.478285 1.98828 0
M  V30 987 H 91.8342 -1.40066 3.61193 0
M  V30 988 H 92.2482 0.0947539 5.24414 0
M  V30 989 H 93.7222 -1.61509 5.27843 0
M  V30 990 H 94.1992 -2.31409 3.73292 0
M  V30 991 H 94.8052 -0.706675 4.19388 0
M  V30 992 N 93.1203 -1.57491 0.0584922 0
M  V30 993 C 94.0523 -2.08916 -0.942694 0
M  V30 994 C 95.0653 -1.0185 -1.27006 0
M  V30 995 O 96.2543 -1.29398 -1.22957 0
M  V30 996 C 93.3543 -2.52341 -2.26224 0
M  V30 997 C 92.5273 -3.82827 -2.1157 0
M  V30 998 C 91.5863 -4.12487 -3.26712 0
M  V30 999 O 90.6123 -4.82295 -3.02292 0
M  V30 1000 N 91.8143 -3.64978 -4.5141 0
M  V30 1001 H 94.5793 -2.95437 -0.503722 0
M  V30 1002 H 92.1403 -1.61397 -0.12757 0
M  V30 1003 H 94.1323 -2.69254 -3.02133 0
M  V30 1004 H 92.7023 -1.7103 -2.61663 0
M  V30 1005 H 91.9223 -3.75425 -1.20208 0
M  V30 1006 H 93.2103 -4.68263 -1.99015 0
M  V30 1007 H 92.6083 -3.08558 -4.7414 0
M  V30 1008 H 91.1653 -3.87115 -5.2439 0
M  V30 1009 N 94.5984 0.214957 -1.56127 0
M  V30 1010 C 95.8264 0.955092 -1.83536 0
M  V30 1011 C 96.2414 1.77677 -0.638472 0
M  V30 1012 O 95.5984 1.78219 0.392968 0
M  V30 1013 C 95.6494 1.86734 -3.09536 0
M  V30 1014 O 95.3704 1.07887 -4.24608 0
M  V30 1015 C 96.8714 2.72082 -3.4998 0
M  V30 1016 H 94.0914 0.279611 -0.609966 0
M  V30 1017 H 96.6354 0.228197 -2.03223 0
M  V30 1018 H 94.7904 2.5481 -2.91806 0
M  V30 1019 H 95.2044 1.69872 -4.9623 0
M  V30 1020 H 96.6784 3.31782 -4.41163 0
M  V30 1021 H 97.1554 3.44806 -2.7204 0
M  V30 1022 H 97.7614 2.09409 -3.70173 0
M  V30 1023 N 96.0765 1.50051 0.48192 0
M  V30 1024 C 97.3015 1.64508 1.26301 0
M  V30 1025 C 97.7265 0.323851 1.85291 0
M  V30 1026 O 97.0845 -0.710969 1.66778 0
M  V30 1027 C 97.1325 2.7305 2.35533 0
M  V30 1028 O 96.2365 2.3355 3.39895 0
M  V30 1029 H 95.5775 0.549978 0.372048 0
M  V30 1030 H 98.1075 1.9636 0.574786 0
M  V30 1031 H 98.1175 2.95799 2.8101 0
M  V30 1032 H 96.7925 3.68946 1.91967 0
M  V30 1033 H 95.3695 2.21205 3.00204 0
M  V30 1034 N 97.5546 -0.734337 1.39446 0
M  V30 1035 C 98.7826 -1.52358 1.39981 0
M  V30 1036 C 99.1976 -1.88799 -0.0054975 0
M  V30 1037 O 98.5546 -1.54146 -0.976998 0
M  V30 1038 C 98.6056 -2.81072 2.27333 0
M  V30 1039 O 98.3266 -2.46178 3.62392 0
M  V30 1040 C 99.8276 -3.75096 2.36259 0
M  V30 1041 H 97.0476 -0.470806 0.478103 0
M  V30 1042 H 99.5916 -0.907339 1.83269 0
M  V30 1043 H 97.7466 -3.39026 1.87457 0
M  V30 1044 H 98.1606 -3.28866 4.08592 0
M  V30 1045 H 99.6346 -4.62305 3.01626 0
M  V30 1046 H 100.112 -4.16892 1.38194 0
M  V30 1047 H 100.718 -3.23061 2.76608 0
M  V30 1048 N 99.0327 -1.24633 -0.964593 0
M  V30 1049 C 100.444 -1.08045 -1.5226 0
M  V30 1050 C 100.795 0.347116 -1.93105 0
M  V30 1051 O 99.9197 1.23588 -1.77637 0
M  V30 1052 C 100.515 -1.95514 -2.76695 0
M  V30 1053 C 99.0737 -1.8314 -3.28841 0
M  V30 1054 C 98.2207 -1.90262 -2.01732 0
M  V30 1055 H 101.172 -1.38064 -0.782553 0
M  V30 1056 H 101.193 -1.48925 -3.50145 0
M  V30 1057 H 100.705 -2.99407 -2.46936 0
M  V30 1058 H 98.8057 -0.82092 -3.63444 0
M  V30 1059 H 98.9187 -2.67406 -3.97531 0
M  V30 1060 H 97.2827 -1.34027 -2.16584 0
M  V30 1061 H 98.0657 -2.9574 -1.74334 0
M  V30 1062 N 100.511 1.16574 -1.06058 0
M  V30 1063 C 101.736 1.91493 -0.796562 0
M  V30 1064 C 102.161 1.76773 0.642868 0
M  V30 1065 O 101.519 1.09142 1.44768 0
M  V30 1066 C 101.567 3.40293 -1.19303 0
M  V30 1067 O 100.671 4.11074 -0.330394 0
M  V30 1068 H 100.012 0.596678 -0.291326 0
M  V30 1069 H 102.542 1.47708 -1.41575 0
M  V30 1070 H 102.552 3.91057 -1.16356 0
M  V30 1071 H 101.227 3.50326 -2.24153 0
M  V30 1072 H 99.8038 3.70513 -0.421225 0
M  V30 1073 N 101.989 0.842826 1.3317 0
M  V30 1074 C 103.219 0.453397 2.01564 0
M  V30 1075 C 103.627 -0.951147 1.63554 0
M  V30 1076 O 102.97 -1.63021 0.846746 0
M  V30 1077 C 103.032 0.499013 3.5602 0
M  V30 1078 C 102.696 1.86037 4.1742 0
M  V30 1079 C 103.693 2.82416 4.36506 0
M  V30 1080 C 101.378 2.15428 4.53757 0
M  V30 1081 C 103.372 4.06346 4.91082 0
M  V30 1082 C 101.059 3.39615 5.0804 0
M  V30 1083 C 102.057 4.3489 5.26649 0
M  V30 1084 O 101.745 5.5688 5.79776 0
M  V30 1085 H 101.477 0.177871 0.652179 0
M  V30 1086 H 104.031 1.13808 1.70988 0
M  V30 1087 H 102.261 -0.242467 3.85939 0
M  V30 1088 H 103.95 0.126852 4.05702 0
M  V30 1089 H 104.716 2.6101 4.08777 0
M  V30 1090 H 100.595 1.42061 4.38565 0
M  V30 1091 H 104.139 4.80722 5.05522 0
M  V30 1092 H 100.036 3.60876 5.352 0
M  V30 1093 H 100.804 5.58674 5.98185 0
M  V30 1094 N 103.467 -1.45747 0.599634 0
M  V30 1095 C 104.883 -1.57424 0.26264 0
M  V30 1096 C 105.083 -1.59222 -1.23493 0
M  V30 1097 O 104.139 -1.51825 -2.01756 0
M  V30 1098 C 105.452 -2.86061 0.926795 0
M  V30 1099 C 107 -2.99722 0.901967 0
M  V30 1100 C 107.475 -4.31119 1.54598 0
M  V30 1101 N 108.966 -4.37858 1.5111 0
M  V30 1102 C 109.701 -5.3818 1.97863 0
M  V30 1103 N 109.197 -6.45083 2.52666 0
M  V30 1104 N 110.99 -5.29487 1.88679 0
M  V30 1105 H 103.141 -1.42823 1.57211 0
M  V30 1106 H 105.404 -0.68235 0.658105 0
M  V30 1107 H 105.11 -2.90605 1.98095 0
M  V30 1108 H 104.984 -3.74563 0.445238 0
M  V30 1109 H 107.371 -2.9475 -0.143617 0
M  V30 1110 H 107.452 -2.12652 1.42171 0
M  V30 1111 H 107.096 -4.36849 2.59085 0
M  V30 1112 H 107.026 -5.16992 1.00132 0
M  V30 1113 H 109.517 -3.61209 1.11068 0
M  V30 1114 H 109.83 -7.17869 2.86155 0
M  V30 1115 H 108.175 -6.45856 2.56701 0
M  V30 1116 H 111.366 -4.44877 1.4561 0
M  V30 1117 H 111.539 -6.07524 2.25429 0
M  V30 1118 N 104.945 -0.338344 -1.53925 0
M  V30 1119 C 106.194 0.260732 -2.00008 0
M  V30 1120 C 106.507 1.52073 -1.23017 0
M  V30 1121 O 107.713 2.19672 -1.5955 0
M  V30 1122 C 106.169 0.51515 -3.56194 0
M  V30 1123 C 105.777 -0.728645 -4.42035 0
M  V30 1124 C 107.521 1.07337 -4.10706 0
M  V30 1125 C 105.428 -0.445315 -5.89721 0
M  V30 1126 H 104.358 0.101205 -0.747177 0
M  V30 1127 H 107.009 -0.452866 -1.77824 0
M  V30 1128 H 105.391 1.28932 -3.74423 0
M  V30 1129 H 106.565 -1.50352 -4.35581 0
M  V30 1130 H 104.88 -1.20813 -3.98489 0
M  V30 1131 H 107.477 1.30022 -5.18651 0
M  V30 1132 H 107.82 2.0273 -3.63602 0
M  V30 1133 H 108.353 0.360034 -3.96167 0
M  V30 1134 H 105.092 -1.36883 -6.41049 0
M  V30 1135 H 104.612 0.291569 -5.99091 0
M  V30 1136 H 106.291 -0.0606218 -6.46972 0
M  V30 1137 N 106.423 1.57458 -0.0668435 0
M  V30 1138 C 107.651 1.97624 0.612565 0
M  V30 1139 C 108.066 0.94502 1.63447 0
M  V30 1140 O 107.423 -0.0689276 1.8237 0
M  V30 1141 C 107.474 3.37869 1.28555 0
M  V30 1142 O 107.195 4.3704 0.304557 0
M  V30 1143 C 108.696 3.92882 2.05325 0
M  V30 1144 H 105.916 0.650045 0.166381 0
M  V30 1145 H 108.46 2.04035 -0.137782 0
M  V30 1146 H 106.615 3.3256 1.98702 0
M  V30 1147 H 107.029 5.18565 0.786779 0
M  V30 1148 H 108.503 4.93247 2.47812 0
M  V30 1149 H 108.98 3.29156 2.9078 0
M  V30 1150 H 109.586 4.01577 1.40056 0
M  V30 1151 N 107.901 -0.206675 1.56239 0
M  V30 1152 C 109.126 -0.949474 1.8439 0
M  V30 1153 C 109.551 -1.76549 0.649016 0
M  V30 1154 O 108.909 -1.76782 -0.402231 0
M  V30 1155 C 108.957 -1.83078 3.10668 0
M  V30 1156 O 108.061 -2.9281 2.90407 0
M  V30 1157 H 107.402 -0.268033 0.607499 0
M  V30 1158 H 109.932 -0.215488 2.03462 0
M  V30 1159 H 109.942 -2.2377 3.41161 0
M  V30 1160 H 108.617 -1.23112 3.97261 0
M  V30 1161 H 107.194 -2.55956 2.71184 0
M  V30 1162 N 109.379 -1.50304 -0.473955 0
M  V30 1163 C 110.342 -1.6841 -1.55469 0
M  V30 1164 C 111.342 -0.554905 -1.50922 0
M  V30 1165 O 112.532 -0.821882 -1.53593 0
M  V30 1166 C 109.664 -1.70667 -2.95102 0
M  V30 1167 H 110.857 -2.64828 -1.40733 0
M  V30 1168 H 108.41 -1.39742 -0.700132 0
M  V30 1169 H 109.145 -0.75932 -3.15285 0
M  V30 1170 H 108.93 -2.52698 -2.9981 0
M  V30 1171 H 110.42 -1.8664 -3.73571 0
M  V30 1172 N 110.857 0.726932 -1.39834 0
M  V30 1173 C 112.082 1.52121 -1.40976 0
M  V30 1174 C 112.507 1.88098 -0.00826029 0
M  V30 1175 O 111.865 1.52479 0.980807 0
M  V30 1176 C 111.913 2.78021 -2.29644 0
M  V30 1177 O 111.017 3.74272 -1.73188 0
M  V30 1178 H 110.358 0.45908 -0.479731 0
M  V30 1179 H 112.888 0.896207 -1.83927 0
M  V30 1180 H 112.898 3.26671 -2.44438 0
M  V30 1181 H 111.573 2.51169 -3.31492 0
M  V30 1182 H 110.15 3.33073 -1.6768 0
M  V30 1183 N 112.336 1.25143 0.95797 0
M  V30 1184 C 113.582 1.09855 1.70469 0
M  V30 1185 C 113.915 -0.360187 1.90831 0
M  V30 1186 O 113.19 -1.26568 1.47685 0
M  V30 1187 C 113.473 1.8497 3.08963 0
M  V30 1188 C 113.326 3.38652 2.96032 0
M  V30 1189 C 114.645 1.63016 4.08795 0
M  V30 1190 H 111.764 0.400465 0.618706 0
M  V30 1191 H 114.406 1.53933 1.11376 0
M  V30 1192 H 112.556 1.47505 3.59409 0
M  V30 1193 H 114.228 3.85772 2.52938 0
M  V30 1194 H 112.471 3.66534 2.32025 0
M  V30 1195 H 113.142 3.8642 3.94187 0
M  V30 1196 H 115.618 1.95625 3.67247 0
M  V30 1197 H 114.494 2.18015 5.03747 0
M  V30 1198 H 114.755 0.570692 4.38401 0
M  V30 1199 N 113.814 -1.1601 1.06675 0
M  V30 1200 C 114.762 -2.22586 0.675157 0
M  V30 1201 C 115.756 -1.66525 -0.310766 0
M  V30 1202 O 116.962 -1.79145 -0.175215 0
M  V30 1203 H 113.337 -0.724855 0.200223 0
M  V30 1204 H 115.308 -2.52899 1.58381 0
M  V30 1205 C 114.057 -3.47604 0.0817162 0
M  V30 1206 H 113.38 -3.91058 0.831484 0
M  V30 1207 H 114.82 -4.23718 -0.154708 0
M  V30 1208 C 113.279 -3.15718 -1.17576 0
M  V30 1209 O 113.809 -3.31878 -2.26318 0
M  V30 1210 N 112.015 -2.69816 -1.07923 0
M  V30 1211 H 111.562 -2.56866 -0.194293 0
M  V30 1212 H 111.52 -2.48855 -1.92141 0
M  V30 1213 N 115.292 -0.849877 -1.32721 0
M  V30 1214 C 116.569 -0.372405 -1.92022 0
M  V30 1215 C 116.949 1.1435 -1.77447 0
M  V30 1216 O 116.297 1.96296 -1.16962 0
M  V30 1217 C 116.507 -0.831482 -3.3895 0
M  V30 1218 C 117.855 -0.845882 -4.16089 0
M  V30 1219 O 118.879 -0.775806 -3.47649 0
M  V30 1220 O 117.738 -0.943753 -5.38289 0
M  V30 1221 H 114.832 -0.107667 -0.819961 0
M  V30 1222 H 117.378 -0.93646 -1.41522 0
M  V30 1223 H 116.15 -1.87448 -3.4348 0
M  V30 1224 H 115.773 -0.24461 -3.96847 0
M  V30 1225 N 116.77 1.45427 -0.607355 0
M  V30 1226 C 117.995 2.07124 -0.107006 0
M  V30 1227 C 118.42 1.44906 1.19933 0
M  V30 1228 O 117.778 0.541687 1.73019 0
M  V30 1229 C 117.826 3.60595 0.0194119 0
M  V30 1230 O 116.93 3.98285 1.0697 0
M  V30 1231 H 116.271 0.659868 -0.0739597 0
M  V30 1232 H 118.801 1.86683 -0.837297 0
M  V30 1233 H 118.811 4.07419 0.2177 0
M  V30 1234 H 117.486 4.05266 -0.934453 0
M  V30 1235 H 116.063 3.63133 0.847889 0
M  V30 1236 N 118.248 0.346503 1.53744 0
M  V30 1237 C 119.496 -0.248612 2.00565 0
M  V30 1238 C 119.817 -1.5083 1.23593 0
M  V30 1239 O 119.087 -1.92858 0.343912 0
M  V30 1240 H 117.667 -0.0948564 0.740953 0
M  V30 1241 H 120.329 0.468341 1.89189 0
M  V30 1242 H 119.425 -0.488994 3.08245 0
M  V30 1243 N 119.726 -1.57421 0.075193 0
M  V30 1244 C 120.636 -2.1642 -0.905511 0
M  V30 1245 C 121.652 -1.12828 -1.32461 0
M  V30 1246 O 122.828 -1.45109 -1.39661 0
M  V30 1247 C 119.893 -2.71693 -2.15369 0
M  V30 1248 C 118.954 -3.90171 -1.79068 0
M  V30 1249 C 118.187 -4.42798 -2.97936 0
M  V30 1250 O 118.41 -3.94416 -4.12058 0
M  V30 1251 O 117.344 -5.34085 -2.77555 0
M  V30 1252 H 121.17 -3.00588 -0.433626 0
M  V30 1253 H 118.755 -1.48664 -0.148067 0
M  V30 1254 H 120.637 -3.07104 -2.88557 0
M  V30 1255 H 119.312 -1.90582 -2.61649 0
M  V30 1256 H 118.219 -3.59606 -1.03122 0
M  V30 1257 H 119.552 -4.72584 -1.37569 0
M  V30 1258 N 121.204 0.198386 -1.56346 0
M  V30 1259 C 122.434 0.934215 -1.84271 0
M  V30 1260 C 122.842 1.77496 -0.655125 0
M  V30 1261 O 122.185 1.7961 0.385488 0
M  V30 1262 C 122.247 1.88278 -3.06254 0
M  V30 1263 C 121.911 1.22431 -4.40295 0
M  V30 1264 C 122.908 0.602839 -5.16393 0
M  V30 1265 C 120.593 1.22915 -4.87029 0
M  V30 1266 C 122.587 -0.0050083 -6.374 0
M  V30 1267 C 120.274 0.617465 -6.07973 0
M  V30 1268 C 121.272 0.00146341 -6.83 0
M  V30 1269 O 120.96 -0.600642 -8.01653 0
M  V30 1270 H 120.692 0.278245 -0.616081 0
M  V30 1271 H 123.246 0.211626 -2.04307 0
M  V30 1272 H 121.476 2.64498 -2.82095 0
M  V30 1273 H 123.165 2.48612 -3.20853 0
M  V30 1274 H 123.931 0.591265 -4.81382 0
M  V30 1275 H 119.81 1.69801 -4.28589 0
M  V30 1276 H 123.354 -0.48643 -6.95902 0
M  V30 1277 H 119.251 0.62653 -6.42452 0
M  V30 1278 H 120.019 -0.497225 -8.16988 0
M  V30 1279 N 122.682 1.50554 0.465978 0
M  V30 1280 C 124.098 1.38093 0.800154 0
M  V30 1281 C 124.298 0.440988 1.96615 0
M  V30 1282 O 123.354 -0.114499 2.5224 0
M  V30 1283 C 124.667 2.79565 1.10742 0
M  V30 1284 C 126.215 2.88516 1.21357 0
M  V30 1285 C 126.69 4.30833 1.55393 0
M  V30 1286 N 128.181 4.33807 1.62375 0
M  V30 1287 C 128.916 5.40927 1.90225 0
M  V30 1288 N 128.412 6.58247 2.16062 0
M  V30 1289 N 130.205 5.28376 1.9177 0
M  V30 1290 H 122.356 2.10237 -0.302366 0
M  V30 1291 H 124.619 0.945203 -0.0727746 0
M  V30 1292 H 124.325 3.50208 0.323661 0
M  V30 1293 H 124.199 3.17125 2.04234 0
M  V30 1294 H 126.586 2.1809 1.98799 0
M  V30 1295 H 126.667 2.54492 0.258321 0
M  V30 1296 H 126.311 5.01799 0.784889 0
M  V30 1297 H 126.241 4.62347 2.52076 0
M  V30 1298 H 128.732 3.49212 1.44427 0
M  V30 1299 H 129.045 7.3569 2.36601 0
M  V30 1300 H 127.39 6.61413 2.13444 0
M  V30 1301 H 130.581 4.35715 1.71085 0
M  V30 1302 H 130.754 6.11944 2.13139 0
M  V30 1303 N 124.16 -0.719506 1.40217 0
M  V30 1304 C 125.4 -1.49181 1.39729 0
M  V30 1305 C 125.764 -1.92 -0.00250614 0
M  V30 1306 O 126.965 -2.68473 -0.132479 0
M  V30 1307 C 125.236 -2.68767 2.35582 0
M  V30 1308 S 126.795 -3.58224 2.53418 0
M  V30 1309 H 123.613 -0.510091 0.495307 0
M  V30 1310 H 126.215 -0.841724 1.76452 0
M  V30 1311 H 124.919 -2.35475 3.36124 0
M  V30 1312 H 124.45 -3.38691 2.0013 0
M  V30 1313 H 126.465 -4.63033 1.78367 0
M  V30 1314 N 125.638 -1.25649 -0.95132 0
M  V30 1315 C 126.57 -1.02112 -2.05197 0
M  V30 1316 C 127.583 0.0150571 -1.62793 0
M  V30 1317 O 128.772 -0.223874 -1.77091 0
M  V30 1318 C 125.872 -0.522361 -3.3485 0
M  V30 1319 C 125.045 -1.62546 -4.06076 0
M  V30 1320 C 124.104 -1.12649 -5.14001 0
M  V30 1321 O 123.13 -1.82156 -5.39266 0
M  V30 1322 N 124.332 0.03047 -5.80492 0
M  V30 1323 H 127.097 -1.96885 -2.25957 0
M  V30 1324 H 124.658 -1.16899 -1.1201 0
M  V30 1325 H 126.65 -0.172961 -4.0433 0
M  V30 1326 H 125.22 0.33151 -3.10837 0
M  V30 1327 H 124.44 -2.14628 -3.30649 0
M  V30 1328 H 125.728 -2.36644 -4.50419 0
M  V30 1329 H 125.126 0.611169 -5.62389 0
M  V30 1330 H 123.683 0.320875 -6.5101 0
M  V30 1331 N 127.117 1.15442 -1.07289 0
M  V30 1332 C 128.533 1.38201 -0.798288 0
M  V30 1333 C 128.733 1.92429 0.597769 0
M  V30 1334 O 127.789 2.12962 1.3566 0
M  V30 1335 C 129.102 2.35357 -1.87156 0
M  V30 1336 C 130.65 2.49021 -1.89624 0
M  V30 1337 C 131.125 3.49468 -2.96034 0
M  V30 1338 N 132.616 3.57003 -2.95132 0
M  V30 1339 C 133.351 4.34543 -3.74112 0
M  V30 1340 N 132.847 5.15421 -4.6294 0
M  V30 1341 N 134.64 4.29625 -3.62462 0
M  V30 1342 H 126.791 0.78584 -1.97328 0
M  V30 1343 H 129.054 0.408065 -0.855679 0
M  V30 1344 H 128.76 2.02626 -2.87464 0
M  V30 1345 H 128.634 3.35129 -1.73114 0
M  V30 1346 H 131.021 2.81051 -0.899687 0
M  V30 1347 H 131.102 1.4925 -2.07745 0
M  V30 1348 H 130.746 3.18173 -3.95889 0
M  V30 1349 H 130.676 4.48992 -2.75161 0
M  V30 1350 H 133.167 2.99276 -2.30743 0
M  V30 1351 H 133.48 5.7183 -5.19837 0
M  V30 1352 H 131.825 5.14729 -4.66989 0
M  V30 1353 H 135.016 3.65505 -2.92444 0
M  V30 1354 H 135.189 4.89807 -4.24256 0
M  V30 1355 N 128.595 0.856903 1.32268 0
M  V30 1356 C 129.843 0.460474 1.96784 0
M  V30 1357 C 130.164 -0.987701 1.68135 0
M  V30 1358 O 129.434 -1.69058 0.989765 0
M  V30 1359 H 128.014 0.167289 0.728027 0
M  V30 1360 H 130.676 1.09383 1.61312 0
M  V30 1361 H 129.772 0.60739 3.06133 0
M  V30 1362 N 130.073 -1.45103 0.615059 0
M  V30 1363 C 131.003 -2.33339 -0.0865619 0
M  V30 1364 C 131.984 -1.4727 -0.851209 0
M  V30 1365 O 133.169 -1.76026 -0.820281 0
M  V30 1366 C 130.299 -3.30095 -1.07956 0
M  V30 1367 C 129.253 -4.25858 -0.427628 0
M  V30 1368 C 128.579 -5.12361 -1.5294 0
M  V30 1369 C 129.879 -5.18165 0.655944 0
M  V30 1370 H 131.573 -2.92254 0.650224 0
M  V30 1371 H 129.119 -1.40532 0.314138 0
M  V30 1372 H 131.072 -3.90698 -1.57901 0
M  V30 1373 H 129.796 -2.69355 -1.84703 0
M  V30 1374 H 128.455 -3.66564 0.0510292 0
M  V30 1375 H 128.103 -4.47984 -2.28734 0
M  V30 1376 H 127.803 -5.77238 -1.09865 0
M  V30 1377 H 129.327 -5.75833 -2.03098 0
M  V30 1378 H 130.741 -5.72796 0.240257 0
M  V30 1379 H 129.138 -5.91559 1.00888 0
M  V30 1380 H 130.208 -4.60144 1.52957 0
M  V30 1381 N 131.551 -0.354651 -1.53558 0
M  V30 1382 C 132.776 0.242153 -2.05981 0
M  V30 1383 C 133.201 1.42553 -1.2272 0
M  V30 1384 O 132.559 1.79656 -0.243604 0
M  V30 1385 C 132.607 0.624367 -3.55154 0
M  V30 1386 O 131.711 1.72301 -3.74681 0
M  V30 1387 H 131.052 0.0378432 -0.662921 0
M  V30 1388 H 133.582 -0.512087 -1.98088 0
M  V30 1389 H 133.592 0.898433 -3.97985 0
M  V30 1390 H 132.267 -0.240989 -4.15201 0
M  V30 1391 H 130.844 1.44535 -3.4375 0
M  V30 1392 N 133.029 1.57378 -0.0835403 0
M  V30 1393 C 134.277 1.93547 0.581718 0
M  V30 1394 C 134.598 0.96524 1.69435 0
M  V30 1395 O 133.868 0.0153369 1.95894 0
M  V30 1396 H 132.448 0.714521 0.217874 0
M  V30 1397 H 135.11 1.94366 -0.144158 0
M  V30 1398 H 134.206 2.95665 0.999423 0
M  V30 1399 N 134.507 -0.190092 1.56449 0
M  V30 1400 C 135.923 -0.54113 1.50146 0
M  V30 1401 C 136.123 -1.85603 0.784465 0
M  V30 1402 O 135.179 -2.5024 0.337051 0
M  V30 1403 C 136.492 -0.591241 2.9483 0
M  V30 1404 C 138.04 -0.679732 3.0553 0
M  V30 1405 C 138.515 -0.760908 4.51635 0
M  V30 1406 N 140.006 -0.824302 4.55806 0
M  V30 1407 C 140.741 -0.907365 5.66175 0
M  V30 1408 N 140.237 -0.952422 6.86222 0
M  V30 1409 N 142.03 -0.94494 5.541 0
M  V30 1410 H 134.181 0.67235 2.01478 0
M  V30 1411 H 136.444 0.240127 0.917084 0
M  V30 1412 H 136.15 0.305905 3.50367 0
M  V30 1413 H 136.024 -1.44422 3.48457 0
M  V30 1414 H 138.411 -1.56731 2.50039 0
M  V30 1415 H 138.492 0.199549 2.5502 0
M  V30 1416 H 138.136 0.122336 5.07753 0
M  V30 1417 H 138.066 -1.65606 4.99882 0
M  V30 1418 H 140.557 -0.798526 3.69367 0
M  V30 1419 H 140.87 -1.01645 7.66086 0
M  V30 1420 H 139.215 -0.921014 6.8887 0
M  V30 1421 H 142.406 -0.906612 4.59236 0
M  V30 1422 H 142.579 -1.00622 6.4014 0
M  V30 1423 N 135.985 -1.50799 -0.457987 0
M  V30 1424 C 137.21 -1.66496 -1.23668 0
M  V30 1425 C 137.635 -0.353288 -1.84752 0
M  V30 1426 O 136.993 0.684346 -1.67888 0
M  V30 1427 C 137.041 -2.76763 -2.3116 0
M  V30 1428 O 136.145 -2.38928 -3.36136 0
M  V30 1429 H 135.486 -0.555828 -0.363252 0
M  V30 1430 H 138.016 -1.9725 -0.543474 0
M  V30 1431 H 138.026 -3.00232 -2.76269 0
M  V30 1432 H 136.701 -3.71954 -1.86073 0
M  V30 1433 H 135.278 -2.25953 -2.96647 0
M  V30 1434 N 137.463 0.71206 -1.40597 0
M  V30 1435 C 138.74 1.46536 -1.29563 0
M  V30 1436 C 139.12 2.10931 0.0844217 0
M  V30 1437 O 138.468 2.00418 1.0975 0
M  V30 1438 C 138.678 2.49821 -2.43701 0
M  V30 1439 C 140.026 3.15551 -2.841 0
M  V30 1440 O 141.05 2.60142 -2.4332 0
M  V30 1441 O 139.909 4.15867 -3.54566 0
M  V30 1442 H 137.003 0.651801 -0.509004 0
M  V30 1443 H 139.549 0.743935 -1.52524 0
M  V30 1444 H 138.321 2.00778 -3.35863 0
M  V30 1445 H 137.944 3.29495 -2.22528 0
M  V30 1446 N 138.941 1.26152 0.944643 0
M  V30 1447 C 140.352 1.10454 1.50522 0
M  V30 1448 C 140.703 -0.31635 1.93633 0
M  V30 1449 O 139.828 -1.20746 1.79581 0
M  V30 1450 C 140.423 1.99891 2.73549 0
M  V30 1451 C 138.982 1.88348 3.25886 0
M  V30 1452 C 138.129 1.93447 1.9868 0
M  V30 1453 H 141.08 1.39292 0.760489 0
M  V30 1454 H 141.101 1.54477 3.47732 0
M  V30 1455 H 140.613 3.03297 2.42141 0
M  V30 1456 H 138.714 0.878636 3.62092 0
M  V30 1457 H 138.827 2.73696 3.93227 0
M  V30 1458 H 137.191 1.37456 2.14425 0
M  V30 1459 H 137.974 2.98476 1.69607 0
M  V30 1460 N 140.419 -1.14872 1.07899 0
M  V30 1461 C 141.668 -1.85135 0.800499 0
M  V30 1462 C 141.981 -1.83547 -0.676014 0
M  V30 1463 O 143.187 -2.49548 -1.06948 0
M  V30 1464 C 141.643 -3.3231 1.38197 0
M  V30 1465 C 141.251 -3.42329 2.8899 0
M  V30 1466 C 142.995 -4.0772 1.18174 0
M  V30 1467 C 140.902 -4.83684 3.403 0
M  V30 1468 H 139.832 -0.693563 0.29578 0
M  V30 1469 H 142.483 -1.29532 1.29976 0
M  V30 1470 H 140.865 -3.87618 0.810431 0
M  V30 1471 H 142.039 -2.97097 3.52236 0
M  V30 1472 H 140.354 -2.80369 3.07867 0
M  V30 1473 H 142.951 -5.12049 1.5398 0
M  V30 1474 H 143.294 -4.16124 0.12117 0
M  V30 1475 H 143.827 -3.58696 1.71994 0
M  V30 1476 H 140.566 -4.80465 4.45907 0
M  V30 1477 H 140.086 -5.29474 2.81811 0
M  V30 1478 H 141.765 -5.52558 3.36584 0
M  V30 1479 N 141.898 -0.863906 -1.31812 0
M  V30 1480 C 142.83 -0.272485 -2.27575 0
M  V30 1481 C 143.843 0.56104 -1.52827 0
M  V30 1482 O 145.032 0.384021 -1.7432 0
M  V30 1483 C 142.132 0.63283 -3.32939 0
M  V30 1484 C 141.305 -0.166902 -4.37081 0
M  V30 1485 C 140.364 0.665608 -5.21973 0
M  V30 1486 O 139.39 0.0958091 -5.69119 0
M  V30 1487 N 140.592 1.9787 -5.45736 0
M  V30 1488 H 143.357 -1.0954 -2.78964 0
M  V30 1489 H 140.918 -0.724791 -1.4477 0
M  V30 1490 H 142.91 1.19532 -3.86645 0
M  V30 1491 H 141.48 1.35642 -2.81638 0
M  V30 1492 H 140.7 -0.910838 -3.83533 0
M  V30 1493 H 141.988 -0.715874 -5.03739 0
M  V30 1494 H 141.386 2.46484 -5.09178 0
M  V30 1495 H 139.943 2.48911 -6.024 0
M  V30 1496 N 143.376 1.44774 -0.622745 0
M  V30 1497 C 144.306 2.33382 0.0741861 0
M  V30 1498 C 145.287 1.47719 0.843387 0
M  V30 1499 O 146.472 1.76458 0.810934 0
M  V30 1500 C 143.602 3.30663 1.06204 0
M  V30 1501 C 142.556 4.26079 0.405037 0
M  V30 1502 C 141.882 5.13165 1.5022 0
M  V30 1503 C 143.182 5.1781 -0.683414 0
M  V30 1504 H 144.876 2.91905 -0.665713 0
M  V30 1505 H 142.422 1.40363 -0.321587 0
M  V30 1506 H 144.375 3.9153 1.55827 0
M  V30 1507 H 143.099 2.70331 1.83272 0
M  V30 1508 H 141.758 3.66532 -0.0704683 0
M  V30 1509 H 141.406 4.49191 2.26355 0
M  V30 1510 H 141.106 5.77812 1.06803 0
M  V30 1511 H 142.63 5.76902 2.00041 0
M  V30 1512 H 144.044 5.72661 -0.270631 0
M  V30 1513 H 142.441 5.91015 -1.04023 0
M  V30 1514 H 143.511 4.59326 -1.55395 0
M  V30 1515 N 144.854 0.36279 1.53368 0
M  V30 1516 C 145.764 -0.492994 2.29362 0
M  V30 1517 C 146.78 -1.09507 1.35219 0
M  V30 1518 O 147.956 -1.10662 1.68273 0
M  V30 1519 C 145.021 -1.61855 3.066 0
M  V30 1520 C 144.082 -1.04429 4.16405 0
M  V30 1521 C 143.315 -2.11621 4.89951 0
M  V30 1522 O 143.538 -3.32684 4.63333 0
M  V30 1523 O 142.472 -1.74835 5.75948 0
M  V30 1524 H 146.298 0.125331 3.03441 0
M  V30 1525 H 143.883 0.127253 1.48857 0
M  V30 1526 H 145.765 -2.27302 3.54841 0
M  V30 1527 H 144.44 -2.22233 2.3536 0
M  V30 1528 H 143.347 -0.353819 3.72423 0
M  V30 1529 H 144.68 -0.485113 4.89804 0
M  V30 1530 N 146.332 -1.57332 0.0918853 0
M  V30 1531 C 147.581 -1.93412 -0.572249 0
M  V30 1532 C 147.894 -0.975515 -1.69538 0
M  V30 1533 O 149.1 -1.22991 -2.42045 0
M  V30 1534 C 147.556 -3.43648 -1.0693 0
M  V30 1535 C 147.164 -4.47994 0.0239049 0
M  V30 1536 C 148.908 -3.88695 -1.70635 0
M  V30 1537 C 146.815 -5.89381 -0.488319 0
M  V30 1538 H 145.745 -0.721939 -0.217532 0
M  V30 1539 H 148.396 -1.82735 0.167369 0
M  V30 1540 H 146.778 -3.49466 -1.8625 0
M  V30 1541 H 147.952 -4.53815 0.799277 0
M  V30 1542 H 146.267 -4.12536 0.565946 0
M  V30 1543 H 148.864 -4.91725 -2.10025 0
M  V30 1544 H 149.207 -3.27166 -2.57426 0
M  V30 1545 H 149.74 -3.85564 -0.979023 0
M  V30 1546 H 146.479 -6.54602 0.342906 0
M  V30 1547 H 145.999 -5.87037 -1.23077 0
M  V30 1548 H 147.678 -6.39863 -0.958317 0
M  V30 1549 N 147.81 0.181792 -1.56548 0
M  V30 1550 C 148.76 1.22961 -1.92002 0
M  V30 1551 C 149.744 1.40331 -0.787146 0
M  V30 1552 O 150.936 1.42478 -1.05019 0
M  V30 1553 C 148.065 2.57144 -2.27446 0
M  V30 1554 C 147.151 2.43512 -3.47222 0
M  V30 1555 N 147.542 1.99577 -4.64761 0
M  V30 1556 C 145.84 2.74368 -3.51622 0
M  V30 1557 C 146.541 1.98156 -5.46909 0
M  V30 1558 N 145.517 2.40164 -4.8767 0
M  V30 1559 H 149.319 0.881462 -2.8037 0
M  V30 1560 H 146.833 0.390141 -1.57644 0
M  V30 1561 H 148.83 3.32847 -2.51035 0
M  V30 1562 H 147.49 2.92771 -1.40411 0
M  V30 1563 H 148.501 1.70078 -4.89177 0
M  V30 1564 H 145.178 3.14102 -2.75038 0
M  V30 1565 H 146.568 1.65975 -6.51077 0
M  V30 1566 N 149.288 1.51039 0.449983 0
M  V30 1567 C 150.704 1.38934 0.785462 0
M  V30 1568 C 150.904 0.461817 1.96136 0
M  V30 1569 O 149.96 -0.0877389 2.52348 0
M  V30 1570 C 151.273 2.80724 1.0777 0
M  V30 1571 C 152.821 2.89787 1.1829 0
M  V30 1572 C 153.296 4.32457 1.50815 0
M  V30 1573 N 154.787 4.35505 1.57764 0
M  V30 1574 C 155.522 5.42914 1.84477 0
M  V30 1575 N 155.018 6.60502 2.09068 0
M  V30 1576 N 156.811 5.3038 1.86155 0
M  V30 1577 H 148.962 2.09904 -0.324647 0
M  V30 1578 H 151.225 0.944378 -0.0827957 0
M  V30 1579 H 150.931 3.50531 0.286498 0
M  V30 1580 H 150.805 3.19273 2.00859 0
M  V30 1581 H 153.192 2.20186 1.96474 0
M  V30 1582 H 153.273 2.54752 0.231314 0
M  V30 1583 H 152.917 5.02603 0.731622 0
M  V30 1584 H 152.847 4.64995 2.47158 0
M  V30 1585 H 155.338 3.50724 1.40715 0
M  V30 1586 H 155.651 7.38158 2.28785 0
M  V30 1587 H 153.996 6.63639 2.06416 0
M  V30 1588 H 157.187 4.37505 1.66454 0
M  V30 1589 H 157.36 6.1417 2.06637 0
M  V30 1590 N 150.766 -0.704594 1.40972 0
M  V30 1591 C 152.014 -1.46169 1.39568 0
M  V30 1592 C 152.335 -1.95 0.00253745 0
M  V30 1593 O 151.605 -1.71095 -0.954114 0
M  V30 1594 H 150.185 -0.542326 0.513704 0
M  V30 1595 H 152.847 -0.834553 1.76128 0
M  V30 1596 H 151.943 -2.32922 2.07735 0
M  V30 1597 N 152.244 -1.26651 -0.937939 0
M  V30 1598 C 153.49 -1.13562 -1.68746 0
M  V30 1599 C 153.845 0.317241 -1.89767 0
M  V30 1600 O 153.138 1.22939 -1.46957 0
M  V30 1601 C 153.332 -1.84168 -3.06295 0
M  V30 1602 C 153.161 -3.36171 -2.98696 0
M  V30 1603 C 151.931 -4.05468 -3.01535 0
M  V30 1604 C 154.129 -4.32312 -2.78588 0
M  V30 1605 N 152.111 -5.44118 -2.84269 0
M  V30 1606 C 153.482 -5.58159 -2.69924 0
M  V30 1607 C 155.537 -4.22524 -2.63396 0
M  V30 1608 C 154.24 -6.75335 -2.47618 0
M  V30 1609 C 156.266 -5.39411 -2.42466 0
M  V30 1610 C 155.628 -6.64208 -2.34536 0
M  V30 1611 H 151.727 -0.470361 -0.624728 0
M  V30 1612 H 154.311 -1.59982 -1.10968 0
M  V30 1613 H 152.482 -1.40219 -3.62206 0
M  V30 1614 H 154.214 -1.63674 -3.70126 0
M  V30 1615 H 150.969 -3.56854 -3.11372 0
M  V30 1616 H 151.393 -6.1693 -2.78795 0
M  V30 1617 H 156.035 -3.26771 -2.68292 0
M  V30 1618 H 153.753 -7.71182 -2.41463 0
M  V30 1619 H 157.339 -5.33711 -2.31611 0
M  V30 1620 H 156.219 -7.53129 -2.18555 0
M  V30 1621 N 153.722 1.14298 -1.08507 0
M  V30 1622 C 154.652 2.21542 -0.737646 0
M  V30 1623 C 155.633 1.67773 0.280377 0
M  V30 1624 O 156.818 1.93616 0.150521 0
M  V30 1625 C 153.948 3.46988 -0.147259 0
M  V30 1626 C 152.902 4.13789 -1.09374 0
M  V30 1627 C 152.228 5.33449 -0.365524 0
M  V30 1628 C 153.528 4.62208 -2.4323 0
M  V30 1629 H 155.222 2.5086 -1.6343 0
M  V30 1630 H 152.768 1.20576 -0.787243 0
M  V30 1631 H 154.721 4.21262 0.107808 0
M  V30 1632 H 153.445 3.17037 0.784538 0
M  V30 1633 H 152.104 3.4147 -1.33393 0
M  V30 1634 H 151.752 4.99759 0.57011 0
M  V30 1635 H 151.452 5.79088 -0.996512 0
M  V30 1636 H 152.976 6.10485 -0.118534 0
M  V30 1637 H 154.39 5.27952 -2.23472 0
M  V30 1638 H 152.787 5.18553 -3.02031 0
M  V30 1639 H 153.857 3.77224 -3.04681 0
M  V30 1640 N 155.201 0.870884 1.31352 0
M  V30 1641 C 156.131 0.343096 2.30966 0
M  V30 1642 C 157.112 -0.566507 1.60389 0
M  V30 1643 O 158.297 -0.483336 1.88089 0
M  V30 1644 C 155.427 -0.455487 3.443 0
M  V30 1645 C 154.381 0.361103 4.26474 0
M  V30 1646 C 153.707 -0.563221 5.31725 0
M  V30 1647 C 155.007 1.59566 4.97329 0
M  V30 1648 H 156.701 1.17548 2.75359 0
M  V30 1649 H 154.247 0.566686 1.32381 0
M  V30 1650 H 156.2 -0.83525 4.13039 0
M  V30 1651 H 154.924 -1.32139 2.98675 0
M  V30 1652 H 153.583 0.722825 3.59403 0
M  V30 1653 H 153.231 -1.42643 4.82351 0
M  V30 1654 H 152.931 -0.0207409 5.87596 0
M  V30 1655 H 154.455 -0.939808 6.03324 0
M  V30 1656 H 155.869 1.28728 5.58661 0
M  V30 1657 H 154.266 2.07728 5.63 0
M  V30 1658 H 155.336 2.34798 4.24262 0
M  V30 1659 N 156.679 -1.44442 0.630414 0
M  V30 1660 C 157.609 -2.33418 -0.0618083 0
M  V30 1661 C 158.59 -1.48165 -0.835541 0
M  V30 1662 O 159.775 -1.76886 -0.801564 0
M  V30 1663 C 156.905 -3.31222 -1.04449 0
M  V30 1664 C 155.859 -4.26288 -0.382436 0
M  V30 1665 C 155.185 -5.13954 -1.47497 0
M  V30 1666 C 156.485 -5.1744 0.710865 0
M  V30 1667 H 158.179 -2.91548 0.681184 0
M  V30 1668 H 155.725 -1.40191 0.329026 0
M  V30 1669 H 157.678 -3.92351 -1.53748 0
M  V30 1670 H 156.402 -2.71299 -1.81836 0
M  V30 1671 H 155.061 -3.6649 0.0899054 0
M  V30 1672 H 154.709 -4.50385 -2.2397 0
M  V30 1673 H 154.409 -5.7837 -1.03737 0
M  V30 1674 H 155.933 -5.77955 -1.96979 0
M  V30 1675 H 157.347 -5.72509 0.300996 0
M  V30 1676 H 155.744 -5.90455 1.07156 0
M  V30 1677 H 156.814 -4.58496 1.57829 0
M  V30 1678 N 158.157 -0.370918 -1.53173 0
M  V30 1679 C 159.089 0.507823 -2.23503 0
M  V30 1680 C 160.102 1.04182 -1.251 0
M  V30 1681 O 161.291 0.947286 -1.5129 0
M  V30 1682 C 158.391 1.71447 -2.92334 0
M  V30 1683 C 157.564 1.31105 -4.17289 0
M  V30 1684 C 156.623 2.38035 -4.69282 0
M  V30 1685 O 155.649 2.00204 -5.32829 0
M  V30 1686 N 156.851 3.69697 -4.47554 0
M  V30 1687 H 159.616 -0.0946382 -2.99551 0
M  V30 1688 H 157.177 -0.196358 -1.60705 0
M  V30 1689 H 159.169 2.42469 -3.24023 0
M  V30 1690 H 157.739 2.22368 -2.19707 0
M  V30 1691 H 156.959 0.430462 -3.91843 0
M  V30 1692 H 158.247 1.0179 -4.98514 0
M  V30 1693 H 157.645 4.03205 -3.9679 0
M  V30 1694 H 156.202 4.36807 -4.8378 0
M  V30 1695 N 159.635 1.57281 -0.100228 0
M  V30 1696 C 160.881 1.94826 0.563101 0
M  V30 1697 C 161.214 0.982475 1.67514 0
M  V30 1698 O 160.489 0.0164069 1.94493 0
M  V30 1699 C 160.772 3.42453 1.11346 0
M  V30 1700 C 160.625 4.498 0.00612081 0
M  V30 1701 C 161.944 3.91506 2.01024 0
M  V30 1702 H 159.063 0.708428 0.203221 0
M  V30 1703 H 161.705 1.8922 -0.171979 0
M  V30 1704 H 159.855 3.47361 1.7399 0
M  V30 1705 H 161.527 4.57 -0.628357 0
M  V30 1706 H 159.77 4.28756 -0.659581 0
M  V30 1707 H 160.441 5.50306 0.432109 0
M  V30 1708 H 162.917 3.88784 1.48278 0
M  V30 1709 H 161.793 4.95358 2.36457 0
M  V30 1710 H 162.054 3.31099 2.92961 0
M  V30 1711 N 161.113 -0.173488 1.56642 0
M  V30 1712 C 162.338 -0.910149 1.86363 0
M  V30 1713 C 162.763 -1.75132 0.686318 0
M  V30 1714 O 162.121 -1.77595 -0.364643 0
M  V30 1715 C 162.169 -1.76447 3.14482 0
M  V30 1716 O 161.273 -2.86584 2.96553 0
M  V30 1717 H 160.614 -0.255086 0.613047 0
M  V30 1718 H 163.144 -0.172283 2.03873 0
M  V30 1719 H 163.154 -2.16483 3.45831 0
M  V30 1720 H 161.829 -1.14658 3.99783 0
M  V30 1721 H 160.406 -2.50146 2.76553 0
M  V30 1722 N 162.591 -1.51276 -0.441967 0
M  V30 1723 C 163.816 -1.67799 -1.21895 0
M  V30 1724 C 164.241 -0.372864 -1.84367 0
M  V30 1725 O 163.599 0.666501 -1.68604 0
M  V30 1726 C 163.647 -2.79199 -2.28211 0
M  V30 1727 O 162.751 -2.42479 -3.33583 0
M  V30 1728 H 162.092 -0.559649 -0.357336 0
M  V30 1729 H 164.622 -1.97815 -0.522522 0
M  V30 1730 H 164.632 -3.03146 -2.73069 0
M  V30 1731 H 163.307 -3.73906 -1.82118 0
M  V30 1732 H 161.884 -2.29087 -2.94234 0
M  V30 1733 N 164.069 0.697108 -1.41344 0
M  V30 1734 C 165.485 1.00751 -1.2378 0
M  V30 1735 C 165.685 2.01105 -0.126066 0
M  V30 1736 O 164.741 2.47295 0.51004 0
M  V30 1737 C 166.054 1.53359 -2.58653 0
M  V30 1738 C 167.602 1.6525 -2.65822 0
M  V30 1739 C 168.077 2.2126 -4.01009 0
M  V30 1740 N 169.568 2.28622 -4.02847 0
M  V30 1741 C 170.303 2.72984 -5.04249 0
M  V30 1742 N 169.799 3.16962 -6.16041 0
M  V30 1743 N 171.592 2.72534 -4.91611 0
M  V30 1744 H 163.743 0.0322662 -2.12375 0
M  V30 1745 H 166.006 0.0768853 -0.944877 0
M  V30 1746 H 165.712 0.870773 -3.4075 0
M  V30 1747 H 165.586 2.51597 -2.81032 0
M  V30 1748 H 167.973 2.30644 -1.84086 0
M  V30 1749 H 168.054 0.655614 -2.47256 0
M  V30 1750 H 167.698 1.56482 -4.83193 0
M  V30 1751 H 167.628 3.21698 -4.16915 0
M  V30 1752 H 170.119 1.97585 -3.22131 0
M  V30 1753 H 170.432 3.49434 -6.89287 0
M  V30 1754 H 168.777 3.14875 -6.1958 0
M  V30 1755 H 171.968 2.37525 -4.0336 0
M  V30 1756 H 172.141 3.06789 -5.70775 0
M  V30 1757 N 165.547 1.27147 0.931209 0
M  V30 1758 C 166.793 1.13446 1.68101 0
M  V30 1759 C 167.126 -0.319628 1.91552 0
M  V30 1760 O 166.401 -1.23407 1.50336 0
M  V30 1761 C 166.684 1.91482 3.0497 0
M  V30 1762 C 166.537 3.44855 2.88782 0
M  V30 1763 C 167.856 1.71651 4.05246 0
M  V30 1764 H 164.975 0.413498 0.610072 0
M  V30 1765 H 167.617 1.56261 1.08086 0
M  V30 1766 H 165.767 1.55095 3.56199 0
M  V30 1767 H 167.439 3.9105 2.44698 0
M  V30 1768 H 165.682 3.71373 2.24198 0
M  V30 1769 H 166.353 3.94694 3.85902 0
M  V30 1770 H 168.829 2.0337 3.63015 0
M  V30 1771 H 167.705 2.28651 4.99009 0
M  V30 1772 H 167.966 0.663555 4.37092 0
M  V30 1773 N 167.025 -1.13721 1.09112 0
M  V30 1774 C 168.272 -1.84924 0.825192 0
M  V30 1775 C 168.6 -1.83347 -0.649151 0
M  V30 1776 O 167.855 -1.26449 -1.49362 0
M  V30 1777 C 168.154 -3.32861 1.30146 0
M  V30 1778 C 167.82 -3.54621 2.78486 0
M  V30 1779 C 166.482 -3.60268 3.18999 0
M  V30 1780 C 168.834 -3.62855 3.74146 0
M  V30 1781 C 166.162 -3.71679 4.53951 0
M  V30 1782 C 168.514 -3.75793 5.08883 0
M  V30 1783 C 167.178 -3.79692 5.4899 0
M  V30 1784 H 166.448 -0.676684 0.301959 0
M  V30 1785 H 169.095 -1.3428 1.36533 0
M  V30 1786 H 167.4 -3.85835 0.681064 0
M  V30 1787 H 169.097 -3.86395 1.07236 0
M  V30 1788 H 165.687 -3.50879 2.46134 0
M  V30 1789 H 169.871 -3.57775 3.43963 0
M  V30 1790 H 165.127 -3.72963 4.84467 0
M  V30 1791 H 169.301 -3.81107 5.82864 0
M  V30 1792 H 166.928 -3.88287 6.53558 0
M  V30 1793 N 168.503 -0.877838 -1.30888 0
M  V30 1794 C 169.731 -0.507414 -2.00581 0
M  V30 1795 C 170.146 0.902216 -1.65848 0
M  V30 1796 O 169.503 1.59225 -0.891831 0
M  V30 1797 C 169.554 -0.664162 -3.55347 0
M  V30 1798 O 169.275 -2.01829 -3.8884 0
M  V30 1799 C 170.776 -0.295787 -4.42312 0
M  V30 1800 H 167.996 -0.196866 -0.641471 0
M  V30 1801 H 170.54 -1.18117 -1.66939 0
M  V30 1802 H 168.695 -0.0378619 -3.87381 0
M  V30 1803 H 169.109 -2.03174 -4.8355 0
M  V30 1804 H 170.583 -0.456388 -5.5011 0
M  V30 1805 H 171.06 0.765663 -4.32475 0
M  V30 1806 H 171.666 -0.898113 -4.15709 0
M  V30 1807 N 169.982 1.44106 -0.638065 0
M  V30 1808 C 170.892 2.34513 0.0637334 0
M  V30 1809 C 171.908 1.53018 0.828346 0
M  V30 1810 O 173.084 1.85723 0.779036 0
M  V30 1811 C 170.149 3.31095 1.02844 0
M  V30 1812 C 169.21 4.28497 0.26244 0
M  V30 1813 C 168.443 5.20465 1.1812 0
M  V30 1814 O 168.666 5.16514 2.42011 0
M  V30 1815 O 167.6 5.98251 0.661774 0
M  V30 1816 H 171.426 2.95989 -0.68003 0
M  V30 1817 H 169.011 1.43994 -0.398252 0
M  V30 1818 H 170.893 3.90526 1.58327 0
M  V30 1819 H 169.568 2.72144 1.7527 0
M  V30 1820 H 168.475 3.72592 -0.335602 0
M  V30 1821 H 169.808 4.90388 -0.421936 0
M  V30 1822 N 171.46 0.379036 1.52974 0
M  V30 1823 C 172.708 -0.206014 2.01047 0
M  V30 1824 C 173.029 -1.48175 1.26765 0
M  V30 1825 O 172.299 -1.92085 0.384743 0
M  V30 1826 H 170.879 -0.0791184 0.742798 0
M  V30 1827 H 173.541 0.508366 1.88153 0
M  V30 1828 H 172.637 -0.423501 3.09213 0
M  V30 1829 N 172.938 -1.57226 0.108567 0
M  V30 1830 C 173.848 -2.18292 -0.859401 0
M  V30 1831 C 174.864 -1.15612 -1.30038 0
M  V30 1832 O 176.04 -1.48039 -1.36552 0
M  V30 1833 C 173.105 -2.762 -2.09558 0
M  V30 1834 C 172.166 -3.93881 -1.70752 0
M  V30 1835 C 171.399 -4.49018 -2.88477 0
M  V30 1836 O 171.622 -4.03068 -4.036 0
M  V30 1837 O 170.556 -5.39852 -2.66164 0
M  V30 1838 H 174.382 -3.01441 -0.369769 0
M  V30 1839 H 171.967 -1.48945 -0.1165 0
M  V30 1840 H 173.849 -3.13156 -2.81978 0
M  V30 1841 H 172.524 -1.96089 -2.57548 0
M  V30 1842 H 171.431 -3.61713 -0.954714 0
M  V30 1843 H 172.764 -4.75396 -1.27513 0
M  V30 1844 N 174.416 0.165178 -1.56732 0
M  V30 1845 C 175.827 0.727046 -1.71962 0
M  V30 1846 C 176.178 1.82508 -0.720078 0
M  V30 1847 O 175.303 2.16082 0.117242 0
M  V30 1848 C 175.898 1.32559 -3.11791 0
M  V30 1849 C 174.457 1.83422 -3.28684 0
M  V30 1850 C 173.604 0.715567 -2.67908 0
M  V30 1851 H 176.555 -0.0602896 -1.58585 0
M  V30 1852 H 176.576 2.19533 -3.10782 0
M  V30 1853 H 176.088 0.526195 -3.84516 0
M  V30 1854 H 174.189 2.65986 -2.60926 0
M  V30 1855 H 174.302 1.97543 -4.36478 0
M  V30 1856 H 172.666 1.13758 -2.27884 0
M  V30 1857 H 173.449 -0.0720836 -3.43224 0
M  V30 1858 N 175.894 1.51508 0.433938 0
M  V30 1859 C 176.824 1.76016 1.53429 0
M  V30 1860 C 177.805 0.610112 1.58782 0
M  V30 1861 O 178.99 0.853177 1.74455 0
M  V30 1862 C 176.12 1.88831 2.9148 0
M  V30 1863 C 175.074 3.04288 3.00987 0
M  V30 1864 C 174.4 3.0229 4.4105 0
M  V30 1865 C 175.7 4.44193 2.74754 0
M  V30 1866 H 177.394 2.68152 1.33171 0
M  V30 1867 H 174.94 1.29035 0.639214 0
M  V30 1868 H 176.893 2.04559 3.6842 0
M  V30 1869 H 175.617 0.933455 3.12976 0
M  V30 1870 H 174.276 2.8827 2.26486 0
M  V30 1871 H 173.924 2.04576 4.59519 0
M  V30 1872 H 173.624 3.79822 4.4834 0
M  V30 1873 H 175.148 3.20116 5.1996 0
M  V30 1874 H 176.562 4.60544 3.41426 0
M  V30 1875 H 174.959 5.23457 2.9345 0
M  V30 1876 H 176.029 4.53996 1.70339 0
M  V30 1877 N 177.372 -0.689602 1.41712 0
M  V30 1878 C 178.335 -1.78521 1.43746 0
M  V30 1879 C 179.335 -1.57436 0.327191 0
M  V30 1880 O 180.525 -1.64 0.587348 0
M  V30 1881 C 177.657 -3.16971 1.25467 0
M  V30 1882 H 178.85 -1.78108 2.41283 0
M  V30 1883 H 176.403 -0.89781 1.27942 0
M  V30 1884 H 177.138 -3.23019 0.287948 0
M  V30 1885 H 176.923 -3.33678 2.05917 0
M  V30 1886 H 178.413 -3.96935 1.2974 0
M  V30 1887 N 178.85 -1.27639 -0.924453 0
M  V30 1888 C 179.78 -1.13166 -2.04244 0
M  V30 1889 C 180.761 -0.032256 -1.70069 0
M  V30 1890 O 181.946 -0.207328 -1.9309 0
M  V30 1891 C 179.076 -0.781496 -3.38393 0
M  V30 1892 C 178.03 -1.83449 -3.86692 0
M  V30 1893 C 177.356 -1.33822 -5.17683 0
M  V30 1894 C 178.656 -3.23917 -4.09726 0
M  V30 1895 H 180.35 -2.06689 -2.1661 0
M  V30 1896 H 177.896 -0.995136 -1.04082 0
M  V30 1897 H 179.849 -0.667057 -4.16087 0
M  V30 1898 H 178.573 0.189439 -3.2605 0
M  V30 1899 H 177.232 -1.93789 -3.11193 0
M  V30 1900 H 176.88 -0.35665 -5.01734 0
M  V30 1901 H 176.58 -2.04224 -5.50968 0
M  V30 1902 H 178.104 -1.23679 -5.97943 0
M  V30 1903 H 179.518 -3.16559 -4.77978 0
M  V30 1904 H 177.915 -3.92059 -4.54324 0
M  V30 1905 H 178.985 -3.68729 -3.14908 0
M  V30 1906 N 180.328 1.1314 -1.09713 0
M  V30 1907 C 181.744 1.36477 -0.827423 0
M  V30 1908 C 181.944 1.93654 0.556817 0
M  V30 1909 O 181 2.15791 1.31112 0
M  V30 1910 C 182.313 2.31334 -1.92106 0
M  V30 1911 C 183.861 2.44943 -1.94864 0
M  V30 1912 C 184.336 3.4311 -3.0338 0
M  V30 1913 N 185.827 3.50662 -3.02639 0
M  V30 1914 C 186.562 4.2651 -3.83246 0
M  V30 1915 N 186.058 5.05485 -4.73768 0
M  V30 1916 N 187.851 4.2184 -3.71493 0
M  V30 1917 H 180.002 0.743807 -1.9895 0
M  V30 1918 H 182.265 0.389823 -0.864143 0
M  V30 1919 H 181.971 1.96483 -2.91698 0
M  V30 1920 H 181.845 3.31381 -1.80184 0
M  V30 1921 H 184.232 2.79079 -0.959099 0
M  V30 1922 H 184.313 1.4481 -2.10864 0
M  V30 1923 H 183.957 3.09704 -4.02549 0
M  V30 1924 H 183.887 4.43055 -2.84622 0
M  V30 1925 H 186.378 2.94315 -2.37039 0
M  V30 1926 H 186.691 5.60675 -5.3185 0
M  V30 1927 H 185.036 5.04708 -4.77802 0
M  V30 1928 H 188.227 3.5922 -3.00131 0
M  V30 1929 H 188.4 4.80697 -4.3455 0
M  V30 1930 N 181.806 0.884767 1.30421 0
M  V30 1931 C 183.046 0.509806 1.9794 0
M  V30 1932 C 183.41 -0.923736 1.68319 0
M  V30 1933 O 184.611 -1.40481 2.29169 0
M  V30 1934 C 182.882 0.776732 3.48858 0
M  V30 1935 S 184.441 0.503843 4.35898 0
M  V30 1936 H 181.259 0.189699 0.685227 0
M  V30 1937 H 183.861 1.14399 1.58535 0
M  V30 1938 H 182.565 1.81857 3.67908 0
M  V30 1939 H 182.096 0.1301 3.93185 0
M  V30 1940 H 184.111 -0.657625 4.91823 0
M  V30 1941 N 183.284 -1.43765 0.645699 0
M  V30 1942 C 184.234 -2.27884 -0.0726442 0
M  V30 1943 C 185.218 -1.39483 -0.802086 0
M  V30 1944 O 186.41 -1.63174 -0.685791 0
M  V30 1945 C 183.539 -3.27055 -1.04356 0
M  V30 1946 C 182.625 -4.22944 -0.312985 0
M  V30 1947 N 183.016 -5.01391 0.666386 0
M  V30 1948 C 181.314 -4.42528 -0.55546 0
M  V30 1949 C 182.015 -5.71217 1.09935 0
M  V30 1950 N 180.991 -5.41856 0.435137 0
M  V30 1951 H 184.793 -2.85949 0.678988 0
M  V30 1952 H 182.307 -1.55378 0.472368 0
M  V30 1953 H 184.304 -3.86089 -1.57292 0
M  V30 1954 H 182.964 -2.70551 -1.79534 0
M  V30 1955 H 183.975 -5.07252 1.04481 0
M  V30 1956 H 180.652 -3.97104 -1.28899 0
M  V30 1957 H 182.042 -6.44202 1.90929 0
M  V30 1958 N 184.763 -0.387143 -1.52771 0
M  V30 1959 C 185.726 0.436939 -2.24997 0
M  V30 1960 C 186.726 0.991991 -1.26555 0
M  V30 1961 O 187.916 0.874335 -1.50669 0
M  V30 1962 C 185.048 1.61281 -3.00335 0
M  V30 1963 H 186.241 -0.195365 -2.99263 0
M  V30 1964 H 183.794 -0.139218 -1.55679 0
M  V30 1965 H 184.529 2.2826 -2.30364 0
M  V30 1966 H 184.314 1.22154 -3.72587 0
M  V30 1967 H 185.804 2.19629 -3.5518 0
M  V30 1968 N 186.241 1.57166 -0.116904 0
M  V30 1969 C 187.487 1.96206 0.536166 0
M  V30 1970 C 187.842 0.99915 1.64422 0
M  V30 1971 O 187.135 0.0288195 1.91578 0
M  V30 1972 C 187.329 3.39508 1.11664 0
M  V30 1973 C 187.158 4.49651 0.0663474 0
M  V30 1974 C 185.928 5.03982 -0.36474 0
M  V30 1975 C 188.126 5.09322 -0.713829 0
M  V30 1976 N 186.108 5.97699 -1.40102 0
M  V30 1977 C 187.479 5.98963 -1.60136 0
M  V30 1978 C 189.534 4.91989 -0.764948 0
M  V30 1979 C 188.237 6.73128 -2.53556 0
M  V30 1980 C 190.263 5.66833 -1.68685 0
M  V30 1981 C 189.625 6.56158 -2.56196 0
M  V30 1982 H 185.724 0.764203 0.165886 0
M  V30 1983 H 188.308 1.93623 -0.204535 0
M  V30 1984 H 186.479 3.42743 1.82707 0
M  V30 1985 H 188.211 3.65677 1.73386 0
M  V30 1986 H 184.966 4.73592 0.027252 0
M  V30 1987 H 185.39 6.49262 -1.91802 0
M  V30 1988 H 190.032 4.22676 -0.102501 0
M  V30 1989 H 187.75 7.41689 -3.20816 0
M  V30 1990 H 191.336 5.55427 -1.73181 0
M  V30 1991 H 190.216 7.13057 -3.26372 0
M  V30 1992 N 187.719 -0.156864 1.56817 0
M  V30 1993 C 188.666 -1.19394 1.97519 0
M  V30 1994 C 189.636 -1.4322 0.841265 0
M  V30 1995 O 190.821 -1.55719 1.10255 0
M  V30 1996 C 187.961 -2.52483 2.35258 0
M  V30 1997 C 187.074 -2.35914 3.61896 0
M  V30 1998 C 186.209 -3.61969 3.88782 0
M  V30 1999 C 185.248 -3.40395 5.08722 0
M  V30 2000 N 184.385 -4.58556 5.31668 0
M  V30 2001 H 189.225 -0.839845 2.85921 0
M  V30 2002 H 186.762 -0.403264 1.41464 0
M  V30 2003 H 188.72 -3.30071 2.55165 0
M  V30 2004 H 187.35 -2.85859 1.49949 0
M  V30 2005 H 186.402 -1.49429 3.49821 0
M  V30 2006 H 187.714 -2.15926 4.49641 0
M  V30 2007 H 186.868 -4.47989 4.09135 0
M  V30 2008 H 185.607 -3.84951 2.9944 0
M  V30 2009 H 184.612 -2.52763 4.88253 0
M  V30 2010 H 185.837 -3.18822 5.99608 0
M  V30 2011 H 183.783 -4.81729 4.45279 0
M  V30 2012 H 183.7 -4.41535 6.13664 0
M  V30 2013 H 184.968 -5.45817 5.5651 0
M  V30 2014 N 189.197 -1.51736 -0.425897 0
M  V30 2015 C 190.474 -1.55519 -1.1863 0
M  V30 2016 C 190.854 -0.326219 -2.08564 0
M  V30 2017 O 190.202 0.688012 -2.17896 0
M  V30 2018 C 190.412 -2.87521 -1.9782 0
M  V30 2019 C 191.76 -3.39899 -2.54468 0
M  V30 2020 O 192.784 -2.89148 -2.08019 0
M  V30 2021 O 191.643 -4.2848 -3.39215 0
M  V30 2022 H 188.737 -0.625739 -0.540721 0
M  V30 2023 H 191.283 -1.64055 -0.434038 0
M  V30 2024 H 190.055 -3.68422 -1.31836 0
M  V30 2025 H 189.678 -2.822 -2.80088 0
M  V30 2026 N 190.675 0.682077 -1.42076 0
M  V30 2027 C 191.622 1.79578 -1.44984 0
M  V30 2028 C 192.592 1.6332 -0.302614 0
M  V30 2029 O 193.777 1.83978 -0.505633 0
M  V30 2030 C 190.917 3.1756 -1.35091 0
M  V30 2031 C 190.03 3.45156 -2.59791 0
M  V30 2032 C 189.165 4.72826 -2.42093 0
M  V30 2033 C 188.204 4.93433 -3.62202 0
M  V30 2034 N 187.341 6.12338 -3.43491 0
M  V30 2035 H 192.181 1.76427 -2.40161 0
M  V30 2036 H 189.718 0.861376 -1.19242 0
M  V30 2037 H 191.676 3.97287 -1.27354 0
M  V30 2038 H 190.306 3.19854 -0.435133 0
M  V30 2039 H 189.358 2.59736 -2.77923 0
M  V30 2040 H 190.67 3.5628 -3.49094 0
M  V30 2041 H 189.824 5.60631 -2.319 0
M  V30 2042 H 188.563 4.63973 -1.50268 0
M  V30 2043 H 187.568 4.04073 -3.72834 0
M  V30 2044 H 188.793 5.04136 -4.54998 0
M  V30 2045 H 186.739 6.04672 -2.54377 0
M  V30 2046 H 186.656 6.2429 -4.26377 0
M  V30 2047 H 187.924 7.02841 -3.37097 0
M  V30 2048 N 192.153 1.28127 0.917671 0
M  V30 2049 C 193.083 1.14248 2.03641 0
M  V30 2050 C 194.064 0.0412748 1.7005 0
M  V30 2051 O 195.249 0.217566 1.92977 0
M  V30 2052 C 192.379 0.799431 3.37974 0
M  V30 2053 C 191.333 1.85497 3.85713 0
M  V30 2054 C 190.659 1.36565 5.16966 0
M  V30 2055 C 191.959 3.26085 4.08002 0
M  V30 2056 H 193.653 2.07835 2.15511 0
M  V30 2057 H 191.199 1.00064 1.03553 0
M  V30 2058 H 193.152 0.689114 4.15727 0
M  V30 2059 H 191.876 -0.172145 3.26146 0
M  V30 2060 H 190.535 1.95437 3.10161 0
M  V30 2061 H 190.183 0.383253 5.01538 0
M  V30 2062 H 189.883 2.07143 5.49878 0
M  V30 2063 H 191.407 1.26848 5.97279 0
M  V30 2064 H 192.821 3.19089 4.76293 0
M  V30 2065 H 191.218 3.94462 4.52238 0
M  V30 2066 H 192.288 3.70394 3.12948 0
M  V30 2067 N 193.631 -1.12557 1.10312 0
M  V30 2068 C 194.877 -1.84311 0.846011 0
M  V30 2069 C 195.21 -1.83805 -0.626859 0
M  V30 2070 O 194.485 -1.28268 -1.46211 0
M  V30 2071 C 194.768 -3.32048 1.39341 0
M  V30 2072 C 194.621 -3.41016 2.93305 0
M  V30 2073 C 195.94 -4.27764 1.03468 0
M  V30 2074 H 193.059 -0.669192 0.30879 0
M  V30 2075 H 195.701 -1.32057 1.36605 0
M  V30 2076 H 193.851 -3.76678 0.951087 0
M  V30 2077 H 195.523 -3.05031 3.46055 0
M  V30 2078 H 193.766 -2.81603 3.29973 0
M  V30 2079 H 194.437 -4.44948 3.26689 0
M  V30 2080 H 196.913 -3.91253 1.41633 0
M  V30 2081 H 195.789 -5.29549 1.44463 0
M  V30 2082 H 196.05 -4.42064 -0.0560404 0
M  V30 2083 N 195.109 -0.891671 -1.2995 0
M  V30 2084 C 196.339 -0.527893 -1.99742 0
M  V30 2085 C 196.747 0.88979 -1.66971 0
M  V30 2086 O 196.09 1.59766 -0.906667 0
M  V30 2087 C 196.152 -0.630804 -3.53922 0
M  V30 2088 C 195.816 -2.01401 -4.10228 0
M  V30 2089 C 196.813 -2.98422 -4.25724 0
M  V30 2090 C 194.498 -2.32121 -4.45449 0
M  V30 2091 C 196.492 -4.24293 -4.75662 0
M  V30 2092 C 194.179 -3.58237 -4.95086 0
M  V30 2093 C 195.177 -4.54137 -5.10146 0
M  V30 2094 O 194.865 -5.78014 -5.58708 0
M  V30 2095 H 194.597 -0.201953 -0.645129 0
M  V30 2096 H 197.151 -1.20076 -1.66646 0
M  V30 2097 H 195.381 0.0990616 -3.86573 0
M  V30 2098 H 197.07 -0.277338 -4.04951 0
M  V30 2099 H 197.836 -2.76001 -3.98809 0
M  V30 2100 H 193.715 -1.5824 -4.32991 0
M  V30 2101 H 197.259 -4.99153 -4.87332 0
M  V30 2102 H 193.156 -3.80491 -5.21437 0
M  V30 2103 H 193.924 -5.8049 -5.77039 0
M  V30 2104 N 196.587 1.43421 -0.653314 0
M  V30 2105 C 197.535 2.32546 0.0501531 0
M  V30 2106 C 198.529 1.48617 0.812985 0
M  V30 2107 O 199.735 1.64825 0.723375 0
M  V30 2108 H 196.11 0.751185 0.0350032 0
M  V30 2109 H 198.081 2.89602 -0.719261 0
M  V30 2110 C 196.83 3.32925 1.00279 0
M  V30 2111 H 196.153 3.97532 0.425236 0
M  V30 2112 H 197.593 3.9792 1.46409 0
M  V30 2113 C 196.052 2.63532 2.09886 0
M  V30 2114 O 196.582 2.45092 3.18265 0
M  V30 2115 N 194.788 2.22905 1.86445 0
M  V30 2116 H 194.335 2.38103 0.98309 0
M  V30 2117 H 194.293 1.76805 2.59976 0
M  V30 2118 N 198.065 0.39524 1.52563 0
M  V30 2119 C 199.311 -0.185318 2.01952 0
M  V30 2120 C 199.644 -1.45964 1.28095 0
M  V30 2121 O 198.919 -1.90689 0.38315 0
M  V30 2122 C 199.202 -0.447193 3.57312 0
M  V30 2123 C 199.055 0.842828 4.41833 0
M  V30 2124 C 200.374 -1.23529 4.22408 0
M  V30 2125 H 197.493 -0.0658788 0.73405 0
M  V30 2126 H 200.135 0.525975 1.82575 0
M  V30 2127 H 198.285 -1.05312 3.73954 0
M  V30 2128 H 199.957 1.4795 4.36931 0
M  V30 2129 H 198.2 1.45686 4.08605 0
M  V30 2130 H 198.871 0.614165 5.48573 0
M  V30 2131 H 201.347 -0.722445 4.0978 0
M  V30 2132 H 200.223 -1.38727 5.3108 0
M  V30 2133 H 200.484 -2.25213 3.80436 0
M  V30 2134 N 199.544 -1.57102 0.125237 0
M  V30 2135 C 200.474 -2.18659 -0.819174 0
M  V30 2136 C 201.455 -1.12843 -1.27281 0
M  V30 2137 O 202.64 -1.41104 -1.33429 0
M  V30 2138 C 199.77 -2.79096 -2.06695 0
M  V30 2139 C 198.724 -3.90548 -1.75088 0
M  V30 2140 C 198.05 -4.37821 -3.06948 0
M  V30 2141 C 199.35 -5.12356 -1.01435 0
M  V30 2142 H 201.044 -2.9783 -0.306202 0
M  V30 2143 H 198.59 -1.4326 -0.145839 0
M  V30 2144 H 200.543 -3.2082 -2.73226 0
M  V30 2145 H 199.267 -1.97223 -2.60328 0
M  V30 2146 H 197.926 -3.49409 -1.10944 0
M  V30 2147 H 197.574 -3.52799 -3.58527 0
M  V30 2148 H 197.274 -5.12982 -2.86571 0
M  V30 2149 H 198.798 -4.822 -3.74587 0
M  V30 2150 H 200.212 -5.5106 -1.58132 0
M  V30 2151 H 198.609 -5.9314 -0.911319 0
M  V30 2152 H 199.679 -4.849 -0.00218681 0
M  V30 2153 N 201.022 0.148545 -1.56898 0
M  V30 2154 C 202.252 0.875118 -1.8715 0
M  V30 2155 C 202.66 1.75322 -0.711262 0
M  V30 2156 O 202.003 1.80745 0.328151 0
M  V30 2157 C 202.065 1.7844 -3.12089 0
M  V30 2158 C 201.729 1.08361 -4.43967 0
M  V30 2159 C 202.726 0.438247 -5.1805 0
M  V30 2160 C 200.411 1.07358 -4.90693 0
M  V30 2161 C 202.405 -0.20779 -6.37061 0
M  V30 2162 C 200.092 0.42373 -6.09629 0
M  V30 2163 C 201.09 -0.215829 -6.82659 0
M  V30 2164 O 200.778 -0.855378 -7.99336 0
M  V30 2165 H 200.51 0.258504 -0.624621 0
M  V30 2166 H 203.064 0.14652 -2.04877 0
M  V30 2167 H 201.294 2.55389 -2.90367 0
M  V30 2168 H 202.983 2.38279 -3.286 0
M  V30 2169 H 203.749 0.437817 -4.8302 0
M  V30 2170 H 199.628 1.5608 -4.33774 0
M  V30 2171 H 203.172 -0.70758 -6.94002 0
M  V30 2172 H 199.069 0.421822 -6.4412 0
M  V30 2173 H 199.837 -0.756892 -8.14993 0
M  V30 2174 N 202.5 1.5196 0.417844 0
M  V30 2175 C 203.73 1.69181 1.18581 0
M  V30 2176 C 204.138 0.397104 1.84986 0
M  V30 2177 O 203.481 -0.636011 1.72339 0
M  V30 2178 C 203.543 2.76497 2.29759 0
M  V30 2179 C 203.207 4.18514 1.83563 0
M  V30 2180 C 204.204 5.02648 1.32821 0
M  V30 2181 C 201.889 4.64708 1.90661 0
M  V30 2182 C 203.883 6.31044 0.897894 0
M  V30 2183 C 201.57 5.93096 1.47241 0
M  V30 2184 C 202.568 6.76093 0.968891 0
M  V30 2185 O 202.256 8.02078 0.540924 0
M  V30 2186 H 201.988 0.570457 0.362705 0
M  V30 2187 H 204.542 1.99249 0.498885 0
M  V30 2188 H 202.772 2.41786 3.01789 0
M  V30 2189 H 204.461 2.82403 2.91553 0
M  V30 2190 H 205.227 4.68154 1.26716 0
M  V30 2191 H 201.106 4.00216 2.28797 0
M  V30 2192 H 204.65 6.95776 0.504192 0
M  V30 2193 H 200.547 6.271 1.53022 0
M  V30 2194 H 201.315 8.15794 0.66502 0
M  V30 2195 N 203.978 -0.674533 1.42435 0
M  V30 2196 C 205.394 -0.98769 1.25367 0
M  V30 2197 C 205.594 -2.00879 0.158044 0
M  V30 2198 O 204.65 -2.48075 -0.470633 0
M  V30 2199 C 205.963 -1.49224 2.6106 0
M  V30 2200 C 207.511 -1.61 2.68417 0
M  V30 2201 C 207.986 -2.14852 4.04478 0
M  V30 2202 N 209.477 -2.22185 4.06434 0
M  V30 2203 C 210.212 -2.64928 5.08528 0
M  V30 2204 N 209.708 -3.07121 6.21006 0
M  V30 2205 N 211.501 -2.64679 4.95885 0
M  V30 2206 H 203.652 0.00152503 2.124 0
M  V30 2207 H 205.915 -0.0618434 0.945981 0
M  V30 2208 H 205.621 -0.816453 3.42092 0
M  V30 2209 H 205.495 -2.47094 2.84999 0
M  V30 2210 H 207.882 -2.27686 1.87732 0
M  V30 2211 H 207.963 -0.616195 2.48267 0
M  V30 2212 H 207.607 -1.48775 4.85622 0
M  V30 2213 H 207.537 -3.15024 4.2198 0
M  V30 2214 H 210.028 -1.92435 3.25234 0
M  V30 2215 H 210.341 -3.38423 6.94759 0
M  V30 2216 H 208.686 -3.04978 6.24511 0
M  V30 2217 H 211.877 -2.31078 4.07088 0
M  V30 2218 H 212.05 -2.9767 5.75584 0
M  V30 2219 N 205.456 -1.28612 -0.910864 0
M  V30 2220 C 206.404 -1.1265 -2.03501 0
M  V30 2221 C 207.398 -0.0450054 -1.6934 0
M  V30 2222 O 208.604 -0.203988 -1.7884 0
M  V30 2223 H 204.979 -0.347639 -0.666822 0
M  V30 2224 H 206.95 -2.07849 -2.14106 0
M  V30 2225 C 205.699 -0.808143 -3.38178 0
M  V30 2226 H 205.022 -1.63231 -3.6496 0
M  V30 2227 H 206.462 -0.736426 -4.17556 0
M  V30 2228 C 204.921 0.488226 -3.33344 0
M  V30 2229 O 205.451 1.51766 -3.71927 0
M  V30 2230 N 203.657 0.490009 -2.86439 0
M  V30 2231 H 203.204 -0.348161 -2.55236 0
M  V30 2232 H 203.162 1.35741 -2.83587 0
M  V30 2233 N 206.934 1.1197 -1.10907 0
M  V30 2234 C 208.182 1.83225 -0.852819 0
M  V30 2235 C 208.503 1.84769 0.623341 0
M  V30 2236 O 207.773 1.3143 1.45269 0
M  V30 2237 H 206.353 0.67849 -0.312507 0
M  V30 2238 H 209.015 1.3556 -1.40033 0
M  V30 2239 H 208.111 2.87265 -1.22005 0
M  V30 2240 N 208.412 0.89855 1.29475 0
M  V30 2241 C 209.359 0.373819 2.27753 0
M  V30 2242 C 210.329 -0.543444 1.56958 0
M  V30 2243 O 211.514 -0.468934 1.84948 0
M  V30 2244 C 208.654 -0.393648 3.42848 0
M  V30 2245 C 207.767 0.554379 4.28428 0
M  V30 2246 C 206.902 -0.230026 5.30702 0
M  V30 2247 C 205.941 0.712599 6.07938 0
M  V30 2248 N 205.078 -0.0373283 7.0209 0
M  V30 2249 H 209.918 1.21699 2.72017 0
M  V30 2250 H 207.455 0.611456 1.33789 0
M  V30 2251 H 209.413 -0.85466 4.08352 0
M  V30 2252 H 208.043 -1.20128 2.99615 0
M  V30 2253 H 207.095 1.13391 3.63107 0
M  V30 2254 H 208.407 1.27597 4.82204 0
M  V30 2255 H 207.561 -0.752288 6.02018 0
M  V30 2256 H 206.3 -0.984758 4.77654 0
M  V30 2257 H 205.305 1.24637 5.35486 0
M  V30 2258 H 206.53 1.46664 6.63074 0
M  V30 2259 H 204.476 -0.774348 6.51414 0
M  V30 2260 H 204.393 0.624374 7.53417 0
M  V30 2261 H 205.661 -0.539891 7.77628 0
M  V30 2262 N 209.89 -1.43072 0.660911 0
M  V30 2263 C 210.853 -2.29194 -0.0166406 0
M  V30 2264 C 211.853 -1.42609 -0.742912 0
M  V30 2265 O 213.043 -1.64155 -0.583004 0
M  V30 2266 C 210.175 -3.24831 -1.0343 0
M  V30 2267 H 211.368 -2.90596 0.741208 0
M  V30 2268 H 208.921 -1.5048 0.422532 0
M  V30 2269 H 209.656 -2.68339 -1.82111 0
M  V30 2270 H 209.441 -3.88676 -0.517082 0
M  V30 2271 H 210.931 -3.89451 -1.50723 0
M  V30 2272 N 211.368 -0.403325 -1.52352 0
M  V30 2273 C 212.615 0.174347 -2.01748 0
M  V30 2274 C 212.943 1.45636 -1.2892 0
M  V30 2275 O 212.198 1.9193 -0.382258 0
M  V30 2276 C 212.497 0.474665 -3.54234 0
M  V30 2277 C 212.163 -0.717458 -4.45155 0
M  V30 2278 C 210.825 -1.04447 -4.69728 0
M  V30 2279 C 213.177 -1.51432 -4.98716 0
M  V30 2280 C 210.505 -2.16963 -5.45109 0
M  V30 2281 C 212.857 -2.6302 -5.75329 0
M  V30 2282 C 211.521 -2.96213 -5.98175 0
M  V30 2283 H 210.791 0.0637981 -0.738248 0
M  V30 2284 H 213.438 -0.543553 -1.83624 0
M  V30 2285 H 211.743 1.27406 -3.70506 0
M  V30 2286 H 213.44 0.934496 -3.89959 0
M  V30 2287 H 210.03 -0.452596 -4.26204 0
M  V30 2288 H 214.214 -1.27491 -4.79645 0
M  V30 2289 H 209.47 -2.43034 -5.61021 0
M  V30 2290 H 213.644 -3.25158 -6.15829 0
M  V30 2291 H 211.271 -3.83516 -6.56368 0
M  V30 2292 N 212.846 1.57033 -0.133567 0
M  V30 2293 C 213.793 2.16074 0.811208 0
M  V30 2294 C 214.763 1.08979 1.2535 0
M  V30 2295 O 215.948 1.36958 1.32843 0
M  V30 2296 C 213.088 2.77595 2.05024 0
M  V30 2297 C 212.201 3.99042 1.65498 0
M  V30 2298 C 211.336 4.48603 2.84479 0
M  V30 2299 C 210.375 5.62547 2.41262 0
M  V30 2300 N 209.512 6.06787 3.53206 0
M  V30 2301 H 214.352 2.96477 0.300906 0
M  V30 2302 H 211.889 1.46462 0.136822 0
M  V30 2303 H 213.847 3.11402 2.77642 0
M  V30 2304 H 212.477 1.99859 2.53488 0
M  V30 2305 H 211.529 3.71302 0.826981 0
M  V30 2306 H 212.841 4.81629 1.29748 0
M  V30 2307 H 211.995 4.84395 3.65303 0
M  V30 2308 H 210.734 3.64995 3.23465 0
M  V30 2309 H 209.739 5.26345 1.58874 0
M  V30 2310 H 210.964 6.47931 2.03377 0
M  V30 2311 H 208.91 5.26117 3.91838 0
M  V30 2312 H 208.827 6.84266 3.21427 0
M  V30 2313 H 210.095 6.4722 4.34427 0
M  V30 2314 N 214.325 -0.140222 1.56975 0
M  V30 2315 C 215.572 -0.851687 1.83719 0
M  V30 2316 C 215.9 -1.80862 0.715485 0
M  V30 2317 O 215.155 -1.93464 -0.294956 0
M  V30 2318 C 215.454 -1.65386 3.16832 0
M  V30 2319 C 215.12 -0.843112 4.42947 0
M  V30 2320 C 213.782 -0.619464 4.77196 0
M  V30 2321 C 216.134 -0.276582 5.20466 0
M  V30 2322 C 213.462 0.181312 5.8642 0
M  V30 2323 C 215.814 0.51127 6.30531 0
M  V30 2324 C 214.478 0.745432 6.63325 0
M  V30 2325 H 213.748 -0.311654 0.672274 0
M  V30 2326 H 216.395 -0.115006 1.91154 0
M  V30 2327 H 214.7 -2.46084 3.04877 0
M  V30 2328 H 216.397 -2.20793 3.34741 0
M  V30 2329 H 212.987 -1.0275 4.16101 0
M  V30 2330 H 217.171 -0.436632 4.94376 0
M  V30 2331 H 212.427 0.372165 6.10266 0
M  V30 2332 H 216.601 0.957354 6.89788 0
M  V30 2333 H 214.228 1.36778 7.47794 0
M  V30 2334 N 215.803 -1.52179 -0.40978 0
M  V30 2335 C 217.05 -1.66206 -1.15679 0
M  V30 2336 C 217.378 -0.391674 -1.90516 0
M  V30 2337 O 216.633 0.62533 -1.8544 0
M  V30 2338 C 216.932 -2.83428 -2.17723 0
M  V30 2339 C 216.598 -4.21672 -1.59699 0
M  V30 2340 C 215.26 -4.59274 -1.43599 0
M  V30 2341 C 217.612 -5.07825 -1.17317 0
M  V30 2342 C 214.94 -5.80709 -0.836328 0
M  V30 2343 C 217.292 -6.29864 -0.587691 0
M  V30 2344 C 215.956 -6.66216 -0.413818 0
M  V30 2345 H 215.226 -0.608192 -0.423301 0
M  V30 2346 H 217.873 -1.86279 -0.444097 0
M  V30 2347 H 216.178 -2.57687 -2.95135 0
M  V30 2348 H 217.875 -2.91477 -2.75394 0
M  V30 2349 H 214.465 -3.9204 -1.73213 0
M  V30 2350 H 218.649 -4.79359 -1.28565 0
M  V30 2351 H 213.905 -6.07498 -0.689626 0
M  V30 2352 H 218.079 -6.95948 -0.250894 0
M  V30 2353 H 215.706 -7.60182 0.0529471 0
M  V30 2354 N 217.281 0.66697 -1.42791 0
M  V30 2355 C 218.231 1.77313 -1.43332 0
M  V30 2356 C 219.215 1.5801 -0.303586 0
M  V30 2357 O 220.407 1.68356 -0.546385 0
M  V30 2358 C 217.536 3.15822 -1.34578 0
M  V30 2359 C 216.622 3.40721 -2.52528 0
M  V30 2360 N 217.013 3.36162 -3.77927 0
M  V30 2361 C 215.311 3.71387 -2.46956 0
M  V30 2362 C 216.012 3.60762 -4.56318 0
M  V30 2363 N 214.988 3.81908 -3.86843 0
M  V30 2364 H 218.79 1.72193 -2.38174 0
M  V30 2365 H 216.304 0.868114 -1.3725 0
M  V30 2366 H 218.301 3.951 -1.33048 0
M  V30 2367 H 216.961 3.22133 -0.407453 0
M  V30 2368 H 217.972 3.15885 -4.10411 0
M  V30 2369 H 214.649 3.84897 -1.61743 0
M  V30 2370 H 216.039 3.63132 -5.65318 0
M  V30 2371 N 218.759 1.29093 0.90403 0
M  V30 2372 C 220.005 1.17996 1.65676 0
M  V30 2373 C 220.36 -0.266816 1.90541 0
M  V30 2374 O 219.653 -1.19 1.50165 0
M  V30 2375 C 219.847 1.92224 3.01305 0
M  V30 2376 C 219.676 3.43972 2.89678 0
M  V30 2377 C 218.446 4.1332 2.90679 0
M  V30 2378 C 220.644 4.39546 2.67028 0
M  V30 2379 N 218.626 5.51463 2.69743 0
M  V30 2380 C 219.997 5.65119 2.5503 0
M  V30 2381 C 222.052 4.29359 2.52101 0
M  V30 2382 C 220.755 6.81663 2.29626 0
M  V30 2383 C 222.781 5.4565 2.28079 0
M  V30 2384 C 222.143 6.70193 2.16843 0
M  V30 2385 H 218.242 0.486759 0.612037 0
M  V30 2386 H 220.826 1.62868 1.06688 0
M  V30 2387 H 218.997 1.49773 3.58361 0
M  V30 2388 H 220.729 1.73429 3.65656 0
M  V30 2389 H 217.484 3.64984 3.01801 0
M  V30 2390 H 217.908 6.24105 2.6234 0
M  V30 2391 H 222.55 3.33769 2.59534 0
M  V30 2392 H 220.268 7.77313 2.20932 0
M  V30 2393 H 223.854 5.39664 2.1738 0
M  V30 2394 H 222.734 7.58659 1.98511 0
M  V30 2395 N 220.237 -1.11381 1.11499 0
M  V30 2396 C 221.185 -2.19522 0.768956 0
M  V30 2397 C 222.179 -1.67693 -0.239857 0
M  V30 2398 O 223.385 -1.79727 -0.0990755 0
M  V30 2399 H 219.76 -0.715711 0.230786 0
M  V30 2400 H 221.731 -2.45954 1.68964 0
M  V30 2401 C 220.48 -3.46945 0.229073 0
M  V30 2402 H 219.803 -3.8718 0.996596 0
M  V30 2403 H 221.243 -4.23993 0.0251441 0
M  V30 2404 C 219.702 -3.2042 -1.04079 0
M  V30 2405 O 220.232 -3.41178 -2.12038 0
M  V30 2406 N 218.438 -2.74151 -0.963823 0
M  V30 2407 H 217.985 -2.57459 -0.0851722 0
M  V30 2408 H 217.943 -2.56781 -1.81414 0
M  V30 2409 N 221.715 -0.905404 -1.28997 0
M  V30 2410 C 222.94 -0.549175 -1.99997 0
M  V30 2411 C 223.365 0.860276 -1.67275 0
M  V30 2412 O 222.723 1.57355 -0.900502 0
M  V30 2413 C 222.771 -0.755185 -3.52604 0
M  V30 2414 O 221.875 0.189692 -4.11964 0
M  V30 2415 H 221.216 -0.213899 -0.628604 0
M  V30 2416 H 223.746 -1.21856 -1.64354 0
M  V30 2417 H 223.756 -0.662045 -4.02593 0
M  V30 2418 H 222.431 -1.78271 -3.75755 0
M  V30 2419 H 221.008 0.0485257 -3.72868 0
M  V30 2420 N 223.193 1.4272 -0.668489 0
M  V30 2421 C 224.141 2.32586 0.0254857 0
M  V30 2422 C 225.135 1.49471 0.797176 0
M  V30 2423 O 226.341 1.65583 0.705853 0
M  V30 2424 H 222.716 0.751514 0.0270339 0
M  V30 2425 H 224.687 2.88823 -0.749936 0
M  V30 2426 C 223.436 3.3397 0.967427 0
M  V30 2427 H 222.759 3.97961 0.383048 0
M  V30 2428 H 224.199 3.9945 1.42181 0
M  V30 2429 C 222.658 2.65744 2.0708 0
M  V30 2430 O 223.188 2.48454 3.15648 0
M  V30 2431 N 221.394 2.2487 1.8407 0
M  V30 2432 H 220.941 2.39132 0.95778 0
M  V30 2433 H 220.899 1.79552 2.58086 0
M  V30 2434 N 224.671 0.411399 1.52136 0
M  V30 2435 C 225.601 -0.404015 2.29978 0
M  V30 2436 C 226.582 -1.04412 1.34284 0
M  V30 2437 O 227.767 -1.0527 1.63192 0
M  V30 2438 C 224.897 -1.5197 3.12286 0
M  V30 2439 C 223.851 -1.00448 4.16046 0
M  V30 2440 C 223.177 -2.21393 4.86712 0
M  V30 2441 C 224.477 -0.0569336 5.22269 0
M  V30 2442 H 226.171 0.245529 2.98392 0
M  V30 2443 H 223.717 0.119525 1.43503 0
M  V30 2444 H 225.67 -2.09715 3.6551 0
M  V30 2445 H 224.394 -2.19716 2.41646 0
M  V30 2446 H 223.053 -0.449421 3.63835 0
M  V30 2447 H 222.701 -2.87699 4.12599 0
M  V30 2448 H 222.401 -1.87571 5.56858 0
M  V30 2449 H 223.925 -2.7974 5.4275 0
M  V30 2450 H 225.339 -0.54325 5.7072 0
M  V30 2451 H 223.736 0.192594 5.99791 0
M  V30 2452 H 224.806 0.887663 4.76706 0
M  V30 2453 N 226.149 -1.5696 0.141893 0
M  V30 2454 C 227.377 -2.00322 -0.517579 0
M  V30 2455 C 227.792 -1.02193 -1.58752 0
M  V30 2456 O 227.149 -0.0181619 -1.82491 0
M  V30 2457 C 227.2 -3.43618 -1.12289 0
M  V30 2458 O 226.921 -4.37995 -0.0956929 0
M  V30 2459 C 228.422 -4.02231 -1.86347 0
M  V30 2460 H 225.642 -0.657243 -0.135177 0
M  V30 2461 H 228.186 -2.03146 0.234973 0
M  V30 2462 H 226.341 -3.41662 -1.82609 0
M  V30 2463 H 226.755 -5.21729 -0.538469 0
M  V30 2464 H 228.229 -5.04509 -2.23997 0
M  V30 2465 H 228.706 -3.42655 -2.74744 0
M  V30 2466 H 229.312 -4.07802 -1.20737 0
M  V30 2467 N 227.627 0.131896 -1.57047 0
M  V30 2468 C 228.876 0.84044 -1.83356 0
M  V30 2469 C 229.189 1.81646 -0.725535 0
M  V30 2470 O 230.395 2.57025 -0.874659 0
M  V30 2471 C 228.851 1.54528 -3.25037 0
M  V30 2472 C 228.459 0.610902 -4.43815 0
M  V30 2473 C 230.203 2.23972 -3.60606 0
M  V30 2474 C 228.11 1.31823 -5.76521 0
M  V30 2475 H 227.04 0.317599 -0.683847 0
M  V30 2476 H 229.691 0.0931561 -1.83263 0
M  V30 2477 H 228.073 2.33873 -3.19561 0
M  V30 2478 H 229.247 -0.148407 -4.60561 0
M  V30 2479 H 227.562 0.0241016 -4.16393 0
M  V30 2480 H 230.159 2.77558 -4.57018 0
M  V30 2481 H 230.502 3.01173 -2.87403 0
M  V30 2482 H 231.035 1.51529 -3.6781 0
M  V30 2483 H 227.774 0.587771 -6.52859 0
M  V30 2484 H 227.294 2.04987 -5.63685 0
M  V30 2485 H 228.973 1.855 -6.19838 0
M  V30 2486 N 229.106 1.52395 0.401703 0
M  V30 2487 C 230.036 1.79231 1.49661 0
M  V30 2488 C 231.017 0.643654 1.57452 0
M  V30 2489 O 232.202 0.889989 1.72606 0
M  V30 2490 C 229.332 1.94971 2.87409 0
M  V30 2491 C 228.286 3.10604 2.94465 0
M  V30 2492 C 227.612 3.11577 4.34538 0
M  V30 2493 C 228.912 4.49921 2.6527 0
M  V30 2494 H 230.606 2.70917 1.27454 0
M  V30 2495 H 228.152 1.30362 0.6117 0
M  V30 2496 H 230.105 2.12328 3.63999 0
M  V30 2497 H 228.829 0.999632 3.10926 0
M  V30 2498 H 227.488 2.93009 2.20321 0
M  V30 2499 H 227.136 2.14277 4.55076 0
M  V30 2500 H 226.836 3.89247 4.40183 0
M  V30 2501 H 228.36 3.31073 5.13053 0
M  V30 2502 H 229.774 4.67683 3.31581 0
M  V30 2503 H 228.171 5.29564 2.82281 0
M  V30 2504 H 229.241 4.57507 1.60671 0
M  V30 2505 N 230.584 -0.659388 1.43143 0
M  V30 2506 C 231.531 -1.77249 1.47822 0
M  V30 2507 C 232.501 -1.62818 0.328558 0
M  V30 2508 O 233.686 -1.83151 0.534838 0
M  V30 2509 C 230.826 -3.15371 1.40126 0
M  V30 2510 C 229.939 -3.4098 2.65249 0
M  V30 2511 C 229.074 -4.68915 2.49584 0
M  V30 2512 C 228.113 -4.87608 3.70006 0
M  V30 2513 N 227.25 -6.06796 3.53189 0
M  V30 2514 H 232.09 -1.72584 2.42938 0
M  V30 2515 H 229.627 -0.842297 1.20598 0
M  V30 2516 H 231.585 -3.9521 1.33659 0
M  V30 2517 H 230.215 -3.19121 0.485964 0
M  V30 2518 H 229.267 -2.55282 2.8202 0
M  V30 2519 H 230.579 -3.50681 3.54717 0
M  V30 2520 H 229.733 -5.56871 2.4079 0
M  V30 2521 H 228.472 -4.61524 1.5763 0
M  V30 2522 H 227.477 -3.9809 3.79215 0
M  V30 2523 H 228.702 -4.96834 4.62961 0
M  V30 2524 H 226.648 -6.00549 2.63965 0
M  V30 2525 H 226.565 -6.17428 4.36255 0
M  V30 2526 H 227.833 -6.9739 3.48236 0
M  V30 2527 N 232.062 -1.29571 -0.897171 0
M  V30 2528 C 233.29 -1.20583 -1.68129 0
M  V30 2529 C 233.705 0.233181 -1.87354 0
M  V30 2530 O 233.062 1.15579 -1.41236 0
M  V30 2531 C 233.113 -1.91772 -3.06441 0
M  V30 2532 O 232.834 -3.30053 -2.88091 0
M  V30 2533 C 234.335 -1.89291 -4.00854 0
M  V30 2534 H 231.555 -0.417826 -0.525036 0
M  V30 2535 H 234.099 -1.70987 -1.12177 0
M  V30 2536 H 232.254 -1.45196 -3.59161 0
M  V30 2537 H 232.668 -3.65942 -3.75748 0
M  V30 2538 H 234.142 -2.43662 -4.95311 0
M  V30 2539 H 234.619 -0.869014 -4.30517 0
M  V30 2540 H 235.225 -2.35622 -3.54066 0
M  V30 2541 N 233.54 1.10788 -1.12088 0
M  V30 2542 C 234.488 2.19111 -0.780587 0
M  V30 2543 C 235.482 1.67818 0.230961 0
M  V30 2544 O 236.688 1.79777 0.0895427 0
M  V30 2545 H 233.063 0.714477 -0.234578 0
M  V30 2546 H 235.034 2.45055 -1.70266 0
M  V30 2547 C 233.783 3.46818 -0.24747 0
M  V30 2548 H 233.106 3.86646 -1.01712 0
M  V30 2549 H 234.546 4.23973 -0.0476291 0
M  V30 2550 C 233.005 3.20968 1.02378 0
M  V30 2551 O 233.535 3.42298 2.10226 0
M  V30 2552 N 231.741 2.74658 0.949271 0
M  V30 2553 H 231.288 2.57501 0.0715173 0
M  V30 2554 H 231.246 2.57739 1.80049 0
M  V30 2555 N 235.018 0.912232 1.28515 0
M  V30 2556 C 236.267 0.540504 1.94323 0
M  V30 2557 C 236.58 -0.920044 1.72611 0
M  V30 2558 O 237.786 -1.39986 2.32629 0
M  V30 2559 C 236.242 0.915803 3.48053 0
M  V30 2560 C 235.85 2.39598 3.78546 0
M  V30 2561 C 237.594 0.614588 4.20027 0
M  V30 2562 C 235.501 2.71148 5.25578 0
M  V30 2563 H 234.431 0.198418 0.727424 0
M  V30 2564 H 237.082 1.11094 1.46049 0
M  V30 2565 H 235.464 0.274168 3.9505 0
M  V30 2566 H 236.638 3.08422 3.42364 0
M  V30 2567 H 234.953 2.66749 3.1974 0
M  V30 2568 H 237.55 0.827002 5.28266 0
M  V30 2569 H 237.893 -0.447531 4.13887 0
M  V30 2570 H 238.426 1.21462 3.78803 0
M  V30 2571 H 235.165 3.76207 5.36794 0
M  V30 2572 H 234.685 2.0696 5.62963 0
M  V30 2573 H 236.364 2.58072 5.93302 0
M  V30 2574 N 236.496 -1.42363 0.676048 0
M  V30 2575 C 237.721 -2.06377 0.205705 0
M  V30 2576 C 238.146 -1.50463 -1.12883 0
M  V30 2577 O 237.504 -0.623619 -1.70237 0
M  V30 2578 C 237.552 -3.60277 0.152655 0
M  V30 2579 O 236.656 -4.02935 -0.87845 0
M  V30 2580 H 235.997 -0.655588 0.105359 0
M  V30 2581 H 238.527 -1.82475 0.925412 0
M  V30 2582 H 238.537 -4.07993 -0.0230675 0
M  V30 2583 H 237.212 -4.00346 1.12675 0
M  V30 2584 H 235.789 -3.66764 -0.673668 0
M  V30 2585 N 237.974 -0.419461 -1.51915 0
M  V30 2586 C 238.924 0.418496 -2.24126 0
M  V30 2587 C 239.908 1.00495 -1.25656 0
M  V30 2588 O 241.1 0.926058 -1.50842 0
M  V30 2589 C 238.229 1.52899 -3.07371 0
M  V30 2590 C 237.315 0.952797 -4.13258 0
M  V30 2591 N 237.706 0.104175 -5.05693 0
M  V30 2592 C 236.004 1.22224 -4.28926 0
M  V30 2593 C 236.705 -0.21752 -5.81293 0
M  V30 2594 N 235.681 0.394293 -5.42168 0
M  V30 2595 H 239.483 -0.236048 -2.92951 0
M  V30 2596 H 236.997 -0.230481 -1.60756 0
M  V30 2597 H 238.994 2.14199 -3.57665 0
M  V30 2598 H 237.654 2.18605 -2.40088 0
M  V30 2599 H 238.665 -0.260924 -5.17242 0
M  V30 2600 H 235.342 1.87812 -3.72871 0
M  V30 2601 H 236.732 -0.906992 -6.6575 0
M  V30 2602 N 239.452 1.56882 -0.150215 0
M  V30 2603 C 240.4 2.18214 0.805313 0
M  V30 2604 C 241.394 1.14006 1.25296 0
M  V30 2605 O 242.6 1.3225 1.22107 0
M  V30 2606 H 238.975 0.698762 0.277913 0
M  V30 2607 H 240.946 2.97231 0.263862 0
M  V30 2608 C 239.695 2.82065 2.03309 0
M  V30 2609 H 239.018 3.61968 1.69763 0
M  V30 2610 H 240.458 3.28477 2.68103 0
M  V30 2611 C 238.917 1.80739 2.84315 0
M  V30 2612 O 239.447 1.27983 3.80767 0
M  V30 2613 N 237.653 1.4997 2.48913 0
M  V30 2614 H 237.2 1.93062 1.70542 0
M  V30 2615 H 237.158 0.824217 3.03404 0
M  V30 2616 N 240.93 -0.123565 1.57115 0
M  V30 2617 C 242.178 -0.83051 1.84247 0
M  V30 2618 C 242.499 -1.80629 0.73471 0
M  V30 2619 O 241.769 -1.94403 -0.241688 0
M  V30 2620 H 240.349 -0.309694 0.679778 0
M  V30 2621 H 243.011 -0.111976 1.94578 0
M  V30 2622 H 242.107 -1.37852 2.80006 0
M  V30 2623 N 242.408 -1.52605 -0.393616 0
M  V30 2624 C 243.636 -1.71294 -1.16043 0
M  V30 2625 C 244.051 -0.429259 -1.83855 0
M  V30 2626 O 243.408 0.595921 -1.72496 0
M  V30 2627 C 243.459 -2.8593 -2.21193 0
M  V30 2628 O 243.18 -4.09329 -1.56146 0
M  V30 2629 C 244.681 -3.16259 -3.10636 0
M  V30 2630 H 241.901 -0.573641 -0.348104 0
M  V30 2631 H 244.445 -1.99234 -0.461092 0
M  V30 2632 H 242.6 -2.60465 -2.86769 0
M  V30 2633 H 243.014 -4.73323 -2.25978 0
M  V30 2634 H 244.488 -3.99946 -3.80456 0
M  V30 2635 H 244.965 -2.3045 -3.73884 0
M  V30 2636 H 245.571 -3.43547 -2.50711 0
M  V30 2637 N 243.887 0.651787 -1.4349 0
M  V30 2638 C 245.117 1.43728 -1.48411 0
M  V30 2639 C 245.525 1.8893 -0.10103 0
M  V30 2640 O 244.868 1.60182 0.899307 0
M  V30 2641 C 244.93 2.70411 -2.36893 0
M  V30 2642 C 244.594 2.4714 -3.8441 0
M  V30 2643 C 245.591 2.10271 -4.75481 0
M  V30 2644 C 243.276 2.6142 -4.28912 0
M  V30 2645 C 245.27 1.87982 -6.0905 0
M  V30 2646 C 242.957 2.38746 -5.62533 0
M  V30 2647 C 243.955 2.02083 -6.5242 0
M  V30 2648 O 243.643 1.79647 -7.8357 0
M  V30 2649 H 243.375 0.447962 -0.506267 0
M  V30 2650 H 245.929 0.80624 -1.88915 0
M  V30 2651 H 244.159 3.36079 -1.91278 0
M  V30 2652 H 245.848 3.32364 -2.33 0
M  V30 2653 H 246.614 1.98814 -4.42378 0
M  V30 2654 H 242.493 2.88931 -3.59222 0
M  V30 2655 H 246.037 1.5929 -6.7917 0
M  V30 2656 H 241.934 2.49806 -5.95203 0
M  V30 2657 H 242.702 1.9406 -7.95162 0
M  V30 2658 N 245.365 1.30045 0.890287 0
M  V30 2659 C 246.315 1.12592 1.9826 0
M  V30 2660 C 247.299 0.0426021 1.60844 0
M  V30 2661 O 248.491 0.265346 1.75 0
M  V30 2662 C 245.62 0.814301 3.33503 0
M  V30 2663 C 244.706 1.93761 3.7725 0
M  V30 2664 N 245.097 3.18232 3.93143 0
M  V30 2665 C 243.395 1.83277 4.06602 0
M  V30 2666 C 244.096 3.9158 4.30163 0
M  V30 2667 N 243.072 3.19591 4.3973 0
M  V30 2668 H 246.874 2.07003 2.08631 0
M  V30 2669 H 244.388 1.21307 1.07974 0
M  V30 2670 H 246.385 0.67029 4.11476 0
M  V30 2671 H 245.045 -0.121797 3.24471 0
M  V30 2672 H 246.056 3.53581 3.78419 0
M  V30 2673 H 242.733 0.97001 4.06075 0
M  V30 2674 H 244.123 4.98744 4.50226 0
M  V30 2675 N 246.843 -1.10192 1.12674 0
M  V30 2676 C 248.083 -1.83825 0.893736 0
M  V30 2677 C 248.447 -1.83341 -0.570082 0
M  V30 2678 O 249.648 -2.52553 -0.920354 0
M  V30 2679 C 247.919 -3.26405 1.45582 0
M  V30 2680 S 249.478 -4.17136 1.36171 0
M  V30 2681 H 246.296 -0.633732 0.322342 0
M  V30 2682 H 248.898 -1.32581 1.43675 0
M  V30 2683 H 247.602 -3.24329 2.51473 0
M  V30 2684 H 247.133 -3.82721 0.910405 0
M  V30 2685 H 249.148 -4.95069 0.334863 0
M  V30 2686 N 248.321 -0.919034 -1.28029 0
M  V30 2687 C 249.546 -0.570357 -1.99403 0
M  V30 2688 C 249.971 0.842486 -1.68178 0
M  V30 2689 O 249.329 1.56391 -0.917141 0
M  V30 2690 C 249.377 -0.792541 -3.51783 0
M  V30 2691 O 248.481 0.145988 -4.12142 0
M  V30 2692 H 247.822 -0.220555 -0.6263 0
M  V30 2693 H 250.352 -1.23592 -1.63053 0
M  V30 2694 H 250.362 -0.704708 -4.01868 0
M  V30 2695 H 249.037 -1.82247 -3.73844 0
M  V30 2696 H 247.614 0.00897528 -3.72899 0
M  V30 2697 N 249.799 1.42003 -0.683588 0
M  V30 2698 C 251.047 2.01015 -0.209101 0
M  V30 2699 C 251.368 1.54365 1.19149 0
M  V30 2700 O 250.638 0.769083 1.80172 0
M  V30 2701 H 249.218 0.743294 -0.074315 0
M  V30 2702 H 251.88 1.73798 -0.882066 0
M  V30 2703 H 250.976 3.11343 -0.2172 0
M  V30 2704 N 251.277 0.427512 1.51691 0
M  V30 2705 C 252.21 -0.433876 2.24037 0
M  V30 2706 C 253.188 -1.03287 1.25581 0
M  V30 2707 O 254.372 -1.07722 1.54688 0
M  V30 2708 C 251.499 -1.60385 2.98319 0
M  V30 2709 C 250.545 -1.12648 4.11355 0
M  V30 2710 S 251.378 -0.076543 5.35445 0
M  V30 2711 C 252.534 -1.25141 6.13262 0
M  V30 2712 H 252.767 0.180367 2.96752 0
M  V30 2713 H 250.3 0.211946 1.52938 0
M  V30 2714 H 252.258 -2.27462 3.41718 0
M  V30 2715 H 250.919 -2.18948 2.25213 0
M  V30 2716 H 250.112 -2.0011 4.62571 0
M  V30 2717 H 249.714 -0.534088 3.70167 0
M  V30 2718 H 252.006 -2.17162 6.41753 0
M  V30 2719 H 252.949 -0.779411 7.03797 0
M  V30 2720 H 253.357 -1.48553 5.44603 0
M  V30 2721 N 252.755 -1.56801 0.158532 0
M  V30 2722 C 254.003 -1.96102 -0.488712 0
M  V30 2723 C 254.324 -1.04498 -1.64636 0
M  V30 2724 O 253.594 -0.108783 -1.95598 0
M  V30 2725 H 252.174 -0.724102 -0.183535 0
M  V30 2726 H 254.836 -1.93457 0.236728 0
M  V30 2727 H 253.932 -3.00097 -0.857219 0
M  V30 2728 N 254.233 0.115231 -1.57178 0
M  V30 2729 C 255.18 1.14115 -2.00615 0
M  V30 2730 C 256.15 1.40939 -0.878941 0
M  V30 2731 O 257.335 1.52741 -1.14345 0
M  V30 2732 C 254.475 2.46156 -2.4187 0
M  V30 2733 C 253.588 2.26236 -3.68024 0
M  V30 2734 C 252.723 3.51534 -3.98243 0
M  V30 2735 C 251.762 3.26787 -5.17568 0
M  V30 2736 N 250.899 4.44298 -5.43639 0
M  V30 2737 H 255.739 0.763743 -2.88047 0
M  V30 2738 H 253.276 0.365615 -1.42484 0
M  V30 2739 H 255.234 3.23189 -2.63827 0
M  V30 2740 H 253.864 2.81783 -1.57475 0
M  V30 2741 H 252.916 1.40102 -3.5366 0
M  V30 2742 H 254.228 2.03929 -4.55208 0
M  V30 2743 H 253.382 4.36984 -4.20868 0
M  V30 2744 H 252.121 3.76876 -3.09541 0
M  V30 2745 H 251.126 2.39729 -4.94783 0
M  V30 2746 H 252.351 3.02812 -6.0785 0
M  V30 2747 H 250.297 4.69754 -4.57895 0
M  V30 2748 H 250.214 4.25109 -6.25154 0
M  V30 2749 H 251.482 5.3087 -5.70786 0
M  V30 2750 N 255.711 1.52812 0.385517 0
M  V30 2751 C 256.661 1.74219 1.47078 0
M  V30 2752 C 257.645 0.59632 1.49442 0
M  V30 2753 O 258.837 0.85428 1.5502 0
M  V30 2754 C 255.966 1.9176 2.84751 0
M  V30 2755 C 255.052 3.12289 2.86943 0
M  V30 2756 N 255.443 4.34575 2.58802 0
M  V30 2757 C 253.741 3.12605 3.1811 0
M  V30 2758 C 254.442 5.162 2.68166 0
M  V30 2759 N 253.418 4.51964 3.02043 0
M  V30 2760 H 257.22 2.6639 1.24152 0
M  V30 2761 H 254.734 1.51166 0.593504 0
M  V30 2762 H 256.731 2.05218 3.62893 0
M  V30 2763 H 255.391 1.00805 3.08656 0
M  V30 2764 H 256.402 4.62649 2.32759 0
M  V30 2765 H 253.079 2.31472 3.47458 0
M  V30 2766 H 254.469 6.23689 2.49923 0
M  V30 2767 N 257.189 -0.644168 1.43834 0
M  V30 2768 C 258.605 -0.960875 1.27434 0
M  V30 2769 C 258.805 -2.00499 0.200618 0
M  V30 2770 O 257.861 -2.49018 -0.417906 0
M  V30 2771 C 259.174 -1.43653 2.64167 0
M  V30 2772 C 260.722 -1.55271 2.71772 0
M  V30 2773 C 261.197 -2.06224 4.08944 0
M  V30 2774 N 262.688 -2.13513 4.11055 0
M  V30 2775 C 263.423 -2.54081 5.14033 0
M  V30 2776 N 262.919 -2.9388 6.27381 0
M  V30 2777 N 264.712 -2.54101 5.01387 0
M  V30 2778 H 256.863 0.0465779 2.12349 0
M  V30 2779 H 259.126 -0.0417638 0.94708 0
M  V30 2780 H 258.832 -0.743706 3.43747 0
M  V30 2781 H 258.706 -2.40993 2.90176 0
M  V30 2782 H 261.093 -2.23653 1.92519 0
M  V30 2783 H 261.174 -0.563395 2.49519 0
M  V30 2784 H 260.818 -1.38441 4.88668 0
M  V30 2785 H 260.748 -3.06003 4.28567 0
M  V30 2786 H 263.239 -1.85493 3.29242 0
M  V30 2787 H 263.552 -3.2361 7.01781 0
M  V30 2788 H 261.897 -2.91663 6.30839 0
M  V30 2789 H 265.088 -2.22391 4.11898 0
M  V30 2790 H 265.261 -2.85394 5.81768 0
M  V30 2791 N 258.668 -1.30515 -0.883378 0
M  V30 2792 C 259.898 -1.22182 -1.66599 0
M  V30 2793 C 260.306 0.217507 -1.87946 0
M  V30 2794 O 259.649 1.1554 -1.42815 0
M  V30 2795 C 259.711 -1.88146 -3.06335 0
M  V30 2796 C 259.375 -3.37476 -3.08154 0
M  V30 2797 C 260.372 -4.33443 -2.87094 0
M  V30 2798 C 258.057 -3.7895 -3.29701 0
M  V30 2799 C 260.051 -5.68858 -2.8754 0
M  V30 2800 C 257.738 -5.14482 -3.29776 0
M  V30 2801 C 258.736 -6.09246 -3.0872 0
M  V30 2802 O 258.424 -7.42302 -3.08615 0
M  V30 2803 H 258.156 -0.423898 -0.52658 0
M  V30 2804 H 260.71 -1.72703 -1.11188 0
M  V30 2805 H 258.94 -1.32157 -3.63416 0
M  V30 2806 H 260.629 -1.7391 -3.66756 0
M  V30 2807 H 261.395 -4.02733 -2.70243 0
M  V30 2808 H 257.274 -3.05631 -3.45124 0
M  V30 2809 H 260.818 -6.428 -2.71024 0
M  V30 2810 H 256.715 -5.44832 -3.46163 0
M  V30 2811 H 257.483 -7.5131 -3.24769 0
M  V30 2812 N 260.146 1.09593 -1.13257 0
M  V30 2813 C 261.374 1.855 -0.916378 0
M  V30 2814 C 261.789 1.81069 0.534738 0
M  V30 2815 O 261.146 1.20562 1.37007 0
M  V30 2816 C 261.197 3.33546 -1.39388 0
M  V30 2817 O 260.918 3.37927 -2.78813 0
M  V30 2818 C 262.419 4.26299 -1.21588 0
M  V30 2819 H 259.639 0.585991 -0.326887 0
M  V30 2820 H 262.183 1.38488 -1.5047 0
M  V30 2821 H 260.338 3.77992 -0.848597 0
M  V30 2822 H 260.752 4.30254 -2.9997 0
M  V30 2823 H 262.226 5.28341 -1.59876 0
M  V30 2824 H 262.703 4.38918 -0.157376 0
M  V30 2825 H 263.309 3.87668 -1.7491 0
M  V30 2826 N 261.624 0.925811 1.2754 0
M  V30 2827 C 262.849 0.580924 1.99098 0
M  V30 2828 C 263.274 -0.833555 1.68622 0
M  V30 2829 O 262.632 -1.55903 0.925422 0
M  V30 2830 C 262.68 0.811186 3.51358 0
M  V30 2831 O 261.784 -0.124129 4.12213 0
M  V30 2832 H 261.125 0.223873 0.625122 0
M  V30 2833 H 263.655 1.24455 1.62395 0
M  V30 2834 H 263.665 0.72601 4.01489 0
M  V30 2835 H 262.34 1.84227 3.72872 0
M  V30 2836 H 260.917 0.0108006 3.72898 0
M  V30 2837 N 263.102 -1.41638 0.69111 0
M  V30 2838 C 264.065 -2.29178 0.0319786 0
M  V30 2839 C 265.065 -1.44153 -0.712496 0
M  V30 2840 O 266.255 -1.65354 -0.548053 0
M  V30 2841 C 263.387 -3.26952 -0.965161 0
M  V30 2842 H 264.58 -2.88959 0.802681 0
M  V30 2843 H 262.133 -1.4955 0.454356 0
M  V30 2844 H 262.868 -2.72142 -1.76378 0
M  V30 2845 H 262.653 -3.89685 -0.434522 0
M  V30 2846 H 264.143 -3.92561 -1.42428 0
M  V30 2847 N 264.58 -0.43555 -1.51462 0
M  V30 2848 C 265.828 0.131254 -2.01673 0
M  V30 2849 C 266.149 1.43368 -1.32177 0
M  V30 2850 O 265.419 1.90524 -0.455769 0
M  V30 2851 H 263.999 0.0514954 -0.745223 0
M  V30 2852 H 266.661 -0.577847 -1.86137 0
M  V30 2853 H 265.757 0.308446 -3.10572 0
M  V30 2854 N 266.058 1.56714 -0.166846 0
M  V30 2855 C 267.307 1.95922 0.479318 0
M  V30 2856 C 267.62 1.05529 1.6469 0
M  V30 2857 O 268.826 1.34399 2.35901 0
M  V30 2858 C 267.282 3.48359 0.90412 0
M  V30 2859 C 266.89 4.47369 -0.237621 0
M  V30 2860 C 268.634 3.96394 1.51896 0
M  V30 2861 C 266.541 5.91039 0.206561 0
M  V30 2862 H 265.471 0.731495 0.18284 0
M  V30 2863 H 268.122 1.81728 -0.254363 0
M  V30 2864 H 266.504 3.57955 1.69365 0
M  V30 2865 H 267.678 4.49485 -1.01489 0
M  V30 2866 H 265.993 4.09366 -0.762128 0
M  V30 2867 H 268.59 5.01186 1.86325 0
M  V30 2868 H 268.933 3.39075 2.41524 0
M  V30 2869 H 269.466 3.89796 0.79395 0
M  V30 2870 H 266.205 6.52221 -0.654834 0
M  V30 2871 H 265.725 5.9224 0.949282 0
M  V30 2872 H 267.404 6.43707 0.651939 0
M  V30 2873 N 267.536 -0.106894 1.57237 0
M  V30 2874 C 268.761 -0.830287 1.90055 0
M  V30 2875 C 269.186 -1.72064 0.75998 0
M  V30 2876 O 268.544 -1.78982 -0.288991 0
M  V30 2877 C 268.592 -1.6295 3.21683 0
M  V30 2878 O 267.696 -2.73748 3.08441 0
M  V30 2879 H 267.037 -0.228855 0.623315 0
M  V30 2880 H 269.567 -0.085658 2.04421 0
M  V30 2881 H 269.577 -2.01621 3.54701 0
M  V30 2882 H 268.252 -0.975989 4.04286 0
M  V30 2883 H 266.829 -2.38192 2.86913 0
M  V30 2884 N 269.014 -1.53014 -0.377408 0
M  V30 2885 C 270.26 -1.68872 -1.12294 0
M  V30 2886 C 270.593 -0.433224 -1.89306 0
M  V30 2887 O 269.868 0.569258 -1.85983 0
M  V30 2888 C 270.151 -2.93115 -2.09179 0
M  V30 2889 C 270.004 -4.28794 -1.35853 0
M  V30 2890 C 271.323 -3.12928 -3.09458 0
M  V30 2891 H 268.442 -0.614518 -0.406862 0
M  V30 2892 H 271.084 -1.85633 -0.40503 0
M  V30 2893 H 269.234 -2.78956 -2.70399 0
M  V30 2894 H 270.906 -4.54742 -0.775082 0
M  V30 2895 H 269.149 -4.28744 -0.660364 0
M  V30 2896 H 269.82 -5.11837 -2.06706 0
M  V30 2897 H 272.296 -3.26194 -2.58334 0
M  V30 2898 H 271.172 -4.01316 -3.74482 0
M  V30 2899 H 271.433 -2.27669 -3.78971 0
M  V30 2900 N 270.492 0.636531 -1.44174 0
M  V30 2901 C 271.72 1.42353 -1.50144 0
M  V30 2902 C 272.135 1.88389 -0.124575 0
M  V30 2903 O 271.492 1.6051 0.868489 0
M  V30 2904 C 271.543 2.64744 -2.46156 0
M  V30 2905 O 271.264 2.20629 -3.7849 0
M  V30 2906 C 272.765 3.57929 -2.61537 0
M  V30 2907 H 269.985 0.436752 -0.5094 0
M  V30 2908 H 272.529 0.778933 -1.89084 0
M  V30 2909 H 270.684 3.25307 -2.10366 0
M  V30 2910 H 271.098 2.99938 -4.30276 0
M  V30 2911 H 272.572 4.40428 -3.32757 0
M  V30 2912 H 273.049 4.06382 -1.66585 0
M  V30 2913 H 273.655 3.03238 -2.98206 0
M  V30 2914 N 271.97 1.30982 0.876444 0
M  V30 2915 C 273.216 1.20474 1.63138 0
M  V30 2916 C 273.549 -0.238096 1.92735 0
M  V30 2917 O 272.824 -1.1692 1.55435 0
M  V30 2918 C 273.107 2.04244 2.96574 0
M  V30 2919 C 272.96 3.56793 2.73896 0
M  V30 2920 C 274.279 1.88684 3.97601 0
M  V30 2921 H 271.398 0.439001 0.591985 0
M  V30 2922 H 274.04 1.60704 1.01361 0
M  V30 2923 H 272.19 1.70063 3.493 0
M  V30 2924 H 273.862 4.01077 2.27892 0
M  V30 2925 H 272.105 3.80548 2.08245 0
M  V30 2926 H 272.776 4.10706 3.68815 0
M  V30 2927 H 275.252 2.18584 3.54062 0
M  V30 2928 H 274.128 2.4961 4.88862 0
M  V30 2929 H 274.389 0.848343 4.33884 0
M  V30 2930 N 273.449 -1.08991 1.13837 0
M  V30 2931 C 274.396 -2.15748 0.819835 0
M  V30 2932 C 275.366 -1.64636 -0.220026 0
M  V30 2933 O 276.551 -1.90582 -0.0912757 0
M  V30 2934 C 273.691 -3.4382 0.296913 0
M  V30 2935 C 272.804 -4.0881 1.39636 0
M  V30 2936 C 271.939 -5.24655 0.831314 0
M  V30 2937 C 270.978 -5.81575 1.90886 0
M  V30 2938 N 270.115 -6.88774 1.36142 0
M  V30 2939 H 274.955 -2.42338 1.73426 0
M  V30 2940 H 272.492 -1.18935 0.865613 0
M  V30 2941 H 274.45 -4.17193 -0.0244339 0
M  V30 2942 H 273.08 -3.17535 -0.580628 0
M  V30 2943 H 272.132 -3.33258 1.83422 0
M  V30 2944 H 273.444 -4.47141 2.21058 0
M  V30 2945 H 272.598 -6.04942 0.461515 0
M  V30 2946 H 271.337 -4.87698 -0.013932 0
M  V30 2947 H 270.342 -4.99946 2.28767 0
M  V30 2948 H 271.567 -6.20592 2.75758 0
M  V30 2949 H 269.513 -6.53788 0.538254 0
M  V30 2950 H 269.43 -7.25898 2.11208 0
M  V30 2951 H 270.698 -7.72806 1.01933 0
M  V30 2952 N 274.927 -0.932562 -1.27047 0
M  V30 2953 C 275.837 -0.441219 -2.30414 0
M  V30 2954 C 276.853 0.480525 -1.67233 0
M  V30 2955 O 278.029 0.362151 -1.98117 0
M  V30 2956 C 275.094 0.293651 -3.45454 0
M  V30 2957 C 274.155 -0.663601 -4.2414 0
M  V30 2958 C 273.388 0.0362932 -5.33688 0
M  V30 2959 O 273.611 1.2548 -5.56427 0
M  V30 2960 O 272.545 -0.638015 -5.98509 0
M  V30 2961 H 276.371 -1.29962 -2.74488 0
M  V30 2962 H 273.956 -0.6981 -1.32087 0
M  V30 2963 H 275.838 0.707951 -4.15411 0
M  V30 2964 H 274.513 1.12758 -3.03426 0
M  V30 2965 H 273.42 -1.12768 -3.56699 0
M  V30 2966 H 274.753 -1.46489 -4.69896 0
M  V30 2967 N 276.405 1.4127 -0.698611 0
M  V30 2968 C 277.335 2.33447 -0.049629 0
M  V30 2969 C 278.316 1.51982 0.763898 0
M  V30 2970 O 279.501 1.80509 0.716257 0
M  V30 2971 C 276.631 3.35828 0.885267 0
M  V30 2972 C 275.585 4.27627 0.178613 0
M  V30 2973 C 274.911 5.20406 1.22807 0
M  V30 2974 C 276.211 5.13459 -0.956933 0
M  V30 2975 H 277.905 2.87966 -0.81951 0
M  V30 2976 H 275.451 1.38461 -0.395538 0
M  V30 2977 H 277.404 3.9924 1.34854 0
M  V30 2978 H 276.128 2.79666 1.68685 0
M  V30 2979 H 274.787 3.65643 -0.26466 0
M  V30 2980 H 274.435 4.60558 2.02226 0
M  V30 2981 H 274.135 5.82661 0.760239 0
M  V30 2982 H 275.659 5.86695 1.69179 0
M  V30 2983 H 277.073 5.70421 -0.573805 0
M  V30 2984 H 275.47 5.8467 -1.35205 0
M  V30 2985 H 276.54 4.50443 -1.79524 0
M  V30 2986 N 277.883 0.443576 1.51229 0
M  V30 2987 C 279.13 -0.120796 2.02139 0
M  V30 2988 C 279.458 -1.42166 1.32736 0
M  V30 2989 O 278.713 -1.90849 0.43301 0
M  V30 2990 C 279.012 -0.380579 3.55368 0
M  V30 2991 C 278.678 0.83523 4.43097 0
M  V30 2992 C 277.34 1.16864 4.66794 0
M  V30 2993 C 279.692 1.64601 4.94526 0
M  V30 2994 C 277.02 2.31339 5.39165 0
M  V30 2995 C 279.372 2.78181 5.68153 0
M  V30 2996 C 278.036 3.11969 5.90112 0
M  V30 2997 H 277.306 -0.0442023 0.73968 0
M  V30 2998 H 279.953 0.592046 1.82118 0
M  V30 2999 H 278.258 -1.17538 3.73754 0
M  V30 3000 H 279.955 -0.830777 3.923 0
M  V30 3001 H 276.545 0.565437 4.24854 0
M  V30 3002 H 280.729 1.40163 4.76097 0
M  V30 3003 H 275.985 2.57823 5.5438 0
M  V30 3004 H 280.159 3.41371 6.06992 0
M  V30 3005 H 277.786 4.00784 6.45969 0
M  V30 3006 N 279.361 -1.56624 0.175154 0
M  V30 3007 C 280.772 -1.83561 -0.340916 0
M  V30 3008 C 281.123 -1.09511 -1.62794 0
M  V30 3009 O 280.248 -0.349389 -2.13561 0
M  V30 3010 C 280.843 -3.32979 -0.625313 0
M  V30 3011 C 279.402 -3.60399 -1.08581 0
M  V30 3012 C 278.549 -2.77024 -0.123722 0
M  V30 3013 H 281.5 -1.53593 0.399344 0
M  V30 3014 H 281.521 -3.50666 -1.47694 0
M  V30 3015 H 281.033 -3.86847 0.311575 0
M  V30 3016 H 279.134 -3.11945 -2.03767 0
M  V30 3017 H 279.247 -4.68711 -0.992317 0
M  V30 3018 H 277.611 -2.46993 -0.621821 0
M  V30 3019 H 278.394 -3.33674 0.807256 0
M  V30 3020 N 280.839 0.0985539 -1.57292 0
M  V30 3021 C 281.802 1.10402 -2.00858 0
M  V30 3022 C 282.802 1.33146 -0.901593 0
M  V30 3023 O 283.992 1.29318 -1.16716 0
M  V30 3024 C 281.124 2.45394 -2.36632 0
M  V30 3025 H 282.317 0.729099 -2.90902 0
M  V30 3026 H 279.87 0.343495 -1.52479 0
M  V30 3027 H 280.605 2.87769 -1.49531 0
M  V30 3028 H 280.39 2.30235 -3.17387 0
M  V30 3029 H 281.88 3.17718 -2.71007 0
M  V30 3030 N 282.317 1.53212 0.369288 0
M  V30 3031 C 283.728 1.60943 0.946276 0
M  V30 3032 C 284.079 0.47452 1.90375 0
M  V30 3033 O 283.204 -0.399597 2.12679 0
M  V30 3034 C 283.799 2.91715 1.72302 0
M  V30 3035 C 282.358 3.01792 2.24941 0
M  V30 3036 C 281.505 2.56211 1.06072 0
M  V30 3037 H 284.456 1.58007 0.148198 0
M  V30 3038 H 284.477 2.79309 2.58393 0
M  V30 3039 H 283.989 3.74295 1.0259 0
M  V30 3040 H 282.09 2.23791 2.97906 0
M  V30 3041 H 282.203 4.06803 2.53077 0
M  V30 3042 H 280.567 2.10998 1.4266 0
M  V30 3043 H 281.35 3.41206 0.378639 0
M  V30 3044 N 283.795 -0.628877 1.44509 0
M  V30 3045 C 285.041 -1.39045 1.47629 0
M  V30 3046 C 285.374 -1.93892 0.109343 0
M  V30 3047 O 284.649 -1.7379 -0.87334 0
M  V30 3048 C 284.932 -2.55408 2.53848 0
M  V30 3049 C 284.785 -2.05896 3.99909 0
M  V30 3050 C 286.104 -3.5759 2.56549 0
M  V30 3051 H 283.223 -0.504232 0.537512 0
M  V30 3052 H 285.865 -0.710854 1.76201 0
M  V30 3053 H 284.015 -3.13384 2.29615 0
M  V30 3054 H 285.687 -1.52734 4.35282 0
M  V30 3055 H 283.93 -1.37061 4.11578 0
M  V30 3056 H 284.601 -2.89681 4.69882 0
M  V30 3057 H 287.077 -3.09419 2.78207 0
M  V30 3058 H 285.953 -4.36527 3.32769 0
M  V30 3059 H 286.214 -4.11808 1.60832 0
M  V30 3060 N 285.273 -1.31445 -0.869486 0
M  V30 3061 C 286.203 -1.21727 -1.99261 0
M  V30 3062 C 287.184 -0.104359 -1.6978 0
M  V30 3063 O 288.369 -0.289038 -1.92037 0
M  V30 3064 C 285.499 -0.924317 -3.34774 0
M  V30 3065 C 284.453 -1.99685 -3.78563 0
M  V30 3066 C 283.779 -1.55658 -5.11541 0
M  V30 3067 C 285.079 -3.41003 -3.95619 0
M  V30 3068 H 286.773 -2.1569 -2.07649 0
M  V30 3069 H 284.319 -1.03839 -0.997675 0
M  V30 3070 H 286.272 -0.842934 -4.12883 0
M  V30 3071 H 284.996 0.0509793 -3.2656 0
M  V30 3072 H 283.655 -2.06813 -3.02694 0
M  V30 3073 H 283.303 -0.569132 -4.9977 0
M  V30 3074 H 283.003 -2.27409 -5.41811 0
M  V30 3075 H 284.527 -1.48928 -5.92159 0
M  V30 3076 H 285.941 -3.36547 -4.64122 0
M  V30 3077 H 284.338 -4.10975 -4.37286 0
M  V30 3078 H 285.408 -3.81754 -2.98985 0
M  V30 3079 N 286.751 1.08385 -1.14413 0
M  V30 3080 C 287.699 2.17406 -0.826888 0
M  V30 3081 C 288.693 1.6827 0.195312 0
M  V30 3082 O 289.899 1.79927 0.0513892 0
M  V30 3083 H 286.274 0.70934 -0.249681 0
M  V30 3084 H 288.245 2.41388 -1.75426 0
M  V30 3085 C 286.994 3.46215 -0.320979 0
M  V30 3086 H 286.317 3.84401 -1.0989 0
M  V30 3087 H 287.757 4.23777 -0.137549 0
M  V30 3088 C 286.216 3.23067 0.955472 0
M  V30 3089 O 286.746 3.4668 2.02918 0
M  V30 3090 N 284.952 2.7661 0.890798 0
M  V30 3091 H 284.499 2.57594 0.0168815 0
M  V30 3092 H 284.457 2.61501 1.74542 0
M  V30 3093 N 288.23 0.939286 1.26551 0
M  V30 3094 C 289.193 0.451987 2.24699 0
M  V30 3095 C 290.193 -0.435869 1.5478 0
M  V30 3096 O 291.383 -0.235314 1.72603 0
M  V30 3097 C 288.515 -0.348801 3.39111 0
M  V30 3098 H 289.708 1.3193 2.69322 0
M  V30 3099 H 287.261 0.721072 1.38673 0
M  V30 3100 H 287.996 -1.23444 2.99887 0
M  V30 3101 H 287.781 0.287945 3.91041 0
M  V30 3102 H 289.271 -0.679726 4.12031 0
M  V30 3103 N 289.708 -1.40897 0.706093 0
M  V30 3104 C 290.933 -2.05895 0.249435 0
M  V30 3105 C 291.358 -1.52823 -1.09666 0
M  V30 3106 O 290.716 -0.659589 -1.68876 0
M  V30 3107 C 290.764 -3.59872 0.22904 0
M  V30 3108 O 289.868 -4.04708 -0.792784 0
M  V30 3109 H 289.209 -0.653206 0.119241 0
M  V30 3110 H 291.739 -1.80471 0.96391 0
M  V30 3111 H 291.749 -4.07951 0.0634791 0
M  V30 3112 H 290.424 -3.97866 1.21141 0
M  V30 3113 H 289.001 -3.68111 -0.59572 0
M  V30 3114 N 291.186 -0.45159 -1.50991 0
M  V30 3115 C 292.432 0.110237 -2.025 0
M  V30 3116 C 292.765 1.41109 -1.33424 0
M  V30 3117 O 292.04 1.89135 -0.453659 0
M  V30 3118 C 292.323 0.314271 -3.58726 0
M  V30 3119 C 292.176 -1.00623 -4.38401 0
M  V30 3120 C 293.495 1.07767 -4.26702 0
M  V30 3121 H 290.614 0.0385897 -0.735989 0
M  V30 3122 H 293.256 -0.593374 -1.80497 0
M  V30 3123 H 291.406 0.913601 -3.77605 0
M  V30 3124 H 293.078 -1.64064 -4.31139 0
M  V30 3125 H 291.321 -1.6075 -4.02917 0
M  V30 3126 H 291.992 -0.817341 -5.45915 0
M  V30 3127 H 294.468 0.56986 -4.12179 0
M  V30 3128 H 293.344 1.18921 -5.35863 0
M  V30 3129 H 293.605 2.10939 -3.88532 0
M  V30 3130 N 292.664 1.56529 -0.183458 0
M  V30 3131 C 293.892 2.01623 0.464285 0
M  V30 3132 C 294.307 1.06366 1.55986 0
M  V30 3133 O 293.664 0.0665398 1.82379 0
M  V30 3134 C 293.715 3.46475 1.03139 0
M  V30 3135 O 293.436 4.38095 -0.0204675 0
M  V30 3136 C 294.937 4.0703 1.75617 0
M  V30 3137 H 292.157 0.660596 0.117704 0
M  V30 3138 H 294.701 2.02451 -0.288751 0
M  V30 3139 H 292.856 3.46383 1.73486 0
M  V30 3140 H 293.27 5.22973 0.399952 0
M  V30 3141 H 294.744 5.10271 2.10542 0
M  V30 3142 H 295.221 3.49819 2.65563 0
M  V30 3143 H 295.827 4.1086 1.09882 0
M  V30 3144 N 294.142 -0.090211 1.57342 0
M  V30 3145 C 295.367 -0.810082 1.90925 0
M  V30 3146 C 295.792 -1.71248 0.778187 0
M  V30 3147 O 295.15 -1.79278 -0.269991 0
M  V30 3148 C 295.198 -1.59529 3.23393 0
M  V30 3149 O 294.302 -2.70461 3.11327 0
M  V30 3150 H 293.643 -0.222231 0.625707 0
M  V30 3151 H 296.173 -0.0639716 2.045 0
M  V30 3152 H 296.183 -1.97847 3.5682 0
M  V30 3153 H 294.858 -0.933055 4.05299 0
M  V30 3154 H 293.435 -2.35135 2.89423 0
M  V30 3155 N 295.62 -1.53406 -0.361157 0
M  V30 3156 C 297.031 -1.61442 -0.937728 0
M  V30 3157 C 297.382 -0.48461 -1.90121 0
M  V30 3158 O 296.507 0.388312 -2.12888 0
M  V30 3159 C 297.102 -2.92624 -1.70753 0
M  V30 3160 C 295.661 -3.02981 -2.23337 0
M  V30 3161 C 294.808 -2.5677 -1.04712 0
M  V30 3162 H 297.759 -1.58083 -0.139816 0
M  V30 3163 H 297.78 -2.80675 -2.56908 0
M  V30 3164 H 297.292 -3.74834 -1.00604 0
M  V30 3165 H 295.393 -2.25368 -2.96715 0
M  V30 3166 H 295.506 -4.0814 -2.50916 0
M  V30 3167 H 293.87 -2.11752 -1.41539 0
M  V30 3168 H 294.653 -3.41402 -0.360539 0
M  V30 3169 N 297.098 0.621204 -1.44841 0
M  V30 3170 C 298.028 1.74366 -1.55303 0
M  V30 3171 C 299.009 1.65199 -0.405385 0
M  V30 3172 O 300.194 1.83807 -0.626787 0
M  V30 3173 C 297.324 3.12931 -1.50637 0
M  V30 3174 C 296.278 3.36896 -2.63979 0
M  V30 3175 C 295.604 4.75594 -2.44366 0
M  V30 3176 C 296.904 3.28483 -4.06074 0
M  V30 3177 H 298.598 1.65867 -2.49256 0
M  V30 3178 H 296.144 0.796558 -1.19962 0
M  V30 3179 H 298.097 3.9124 -1.56555 0
M  V30 3180 H 296.821 3.22237 -0.532057 0
M  V30 3181 H 295.48 2.60972 -2.57467 0
M  V30 3182 H 295.128 4.81616 -1.45105 0
M  V30 3183 H 294.828 4.92586 -3.20364 0
M  V30 3184 H 296.352 5.5612 -2.52117 0
M  V30 3185 H 297.766 3.96684 -4.13902 0
M  V30 3186 H 296.163 3.57008 -4.82354 0
M  V30 3187 H 297.233 2.26133 -4.28943 0
M  V30 3188 N 298.576 1.31904 0.862503 0
M  V30 3189 C 299.506 1.22782 1.98612 0
M  V30 3190 C 300.487 0.113362 1.69722 0
M  V30 3191 O 301.672 0.299218 1.91881 0
M  V30 3192 C 298.802 0.942058 3.34279 0
M  V30 3193 C 297.756 2.0169 3.77499 0
M  V30 3194 C 297.082 1.58369 5.10709 0
M  V30 3195 C 298.382 3.43096 3.93805 0
M  V30 3196 H 300.076 2.16788 2.06502 0
M  V30 3197 H 297.622 1.04366 0.992154 0
M  V30 3198 H 299.575 0.864818 4.1243 0
M  V30 3199 H 298.299 -0.0336603 3.26583 0
M  V30 3200 H 296.958 2.08416 3.01593 0
M  V30 3201 H 296.606 0.595628 4.99461 0
M  V30 3202 H 296.306 2.30279 5.40597 0
M  V30 3203 H 297.83 1.52067 5.91361 0
M  V30 3204 H 299.244 3.39003 4.62331 0
M  V30 3205 H 297.641 4.13288 4.35101 0
M  V30 3206 H 298.711 3.83334 2.96957 0
M  V30 3207 N 300.054 -1.07777 1.14986 0
M  V30 3208 C 300.964 -2.18404 0.856546 0
M  V30 3209 C 301.98 -1.73211 -0.165485 0
M  V30 3210 O 303.156 -2.01399 0.00755219 0
M  V30 3211 C 300.221 -3.44977 0.34526 0
M  V30 3212 C 299.282 -4.0476 1.43065 0
M  V30 3213 C 298.515 -5.25291 0.943663 0
M  V30 3214 O 298.738 -5.70004 -0.212426 0
M  V30 3215 O 297.672 -5.76638 1.72547 0
M  V30 3216 H 301.498 -2.45978 1.78125 0
M  V30 3217 H 299.083 -1.17033 0.928631 0
M  V30 3218 H 300.965 -4.21348 0.0663671 0
M  V30 3219 H 299.64 -3.18965 -0.551631 0
M  V30 3220 H 298.547 -3.29949 1.76309 0
M  V30 3221 H 299.88 -4.35035 2.30229 0
M  V30 3222 N 301.532 -0.945985 -1.26051 0
M  V30 3223 C 302.78 -0.594941 -1.93145 0
M  V30 3224 C 303.101 0.86953 -1.7454 0
M  V30 3225 O 302.371 1.61838 -1.10387 0
M  V30 3226 H 300.951 -0.217044 -0.714773 0
M  V30 3227 H 303.613 -1.20235 -1.53393 0
M  V30 3228 H 302.709 -0.816835 -3.01221 0
M  V30 3229 N 303.011 1.40521 -0.713556 0
M  V30 3230 C 303.959 2.32549 -0.0485227 0
M  V30 3231 C 304.953 1.51931 0.74922 0
M  V30 3232 O 306.159 1.67745 0.652816 0
M  V30 3233 H 302.534 0.751994 0.00311138 0
M  V30 3234 H 304.505 2.86291 -0.841443 0
M  V30 3235 C 303.254 3.36879 0.860687 0
M  V30 3236 H 302.577 3.98978 0.256246 0
M  V30 3237 H 304.017 4.03772 1.294 0
M  V30 3238 C 302.476 2.72197 1.9852 0
M  V30 3239 O 303.006 2.5837 3.07584 0
M  V30 3240 N 301.212 2.30612 1.76823 0
M  V30 3241 H 300.759 2.42059 0.881217 0
M  V30 3242 H 300.717 1.87672 2.52243 0
M  V30 3243 N 304.489 0.459591 1.5075 0
M  V30 3244 C 305.419 -0.330644 2.31147 0
M  V30 3245 C 306.4 -1.00087 1.37538 0
M  V30 3246 O 307.585 -1.00025 1.66459 0
M  V30 3247 C 304.715 -1.41958 3.16962 0
M  V30 3248 C 303.669 -0.871608 4.19031 0
M  V30 3249 C 302.995 -2.05797 4.9351 0
M  V30 3250 C 304.295 0.109251 5.22186 0
M  V30 3251 H 305.989 0.340336 2.97459 0
M  V30 3252 H 303.535 0.165119 1.4305 0
M  V30 3253 H 305.488 -1.9798 3.71997 0
M  V30 3254 H 304.212 -2.11917 2.48513 0
M  V30 3255 H 302.871 -0.333442 3.6508 0
M  V30 3256 H 302.519 -2.74427 4.21544 0
M  V30 3257 H 302.219 -1.6976 5.62544 0
M  V30 3258 H 303.743 -2.62331 5.51375 0
M  V30 3259 H 305.157 -0.361405 5.7216 0
M  V30 3260 H 303.554 0.383316 5.98875 0
M  V30 3261 H 304.624 1.03887 4.73641 0
M  V30 3262 N 305.967 -1.56429 0.191757 0
M  V30 3263 C 307.213 -1.97777 -0.448554 0
M  V30 3264 C 307.546 -1.07847 -1.61501 0
M  V30 3265 O 306.821 -0.129774 -1.94067 0
M  V30 3266 C 307.104 -3.48362 -0.911906 0
M  V30 3267 C 306.957 -4.4907 0.256136 0
M  V30 3268 C 308.276 -4.02561 -1.77857 0
M  V30 3269 H 305.395 -0.719071 -0.161572 0
M  V30 3270 H 308.037 -1.87896 0.282007 0
M  V30 3271 H 306.187 -3.56914 -1.53442 0
M  V30 3272 H 307.859 -4.5256 0.893733 0
M  V30 3273 H 306.102 -4.24181 0.908436 0
M  V30 3274 H 306.773 -5.51889 -0.11053 0
M  V30 3275 H 309.249 -3.96767 -1.25359 0
M  V30 3276 H 308.125 -5.08301 -2.07174 0
M  V30 3277 H 308.386 -3.47616 -2.73158 0
M  V30 3278 N 307.445 0.0818655 -1.57387 0
M  V30 3279 C 308.673 0.796108 -1.9097 0
M  V30 3280 C 309.088 1.71626 -0.786757 0
M  V30 3281 O 308.445 1.80908 0.240513 0
M  V30 3282 C 308.496 1.59829 -3.24248 0
M  V30 3283 O 308.217 0.715131 -4.32224 0
M  V30 3284 C 309.718 2.41442 -3.7178 0
M  V30 3285 H 306.938 0.22691 -0.631469 0
M  V30 3286 H 309.482 0.0551439 -2.04426 0
M  V30 3287 H 307.637 2.29163 -3.12351 0
M  V30 3288 H 308.051 1.27205 -5.08841 0
M  V30 3289 H 309.525 2.932 -4.67694 0
M  V30 3290 H 310.002 3.2051 -3.00283 0
M  V30 3291 H 310.608 1.77283 -3.86589 0
M  V30 3292 N 308.923 1.53595 0.353017 0
M  V30 3293 C 309.853 1.83902 1.43883 0
M  V30 3294 C 310.834 0.693421 1.55324 0
M  V30 3295 O 312.019 0.944452 1.69687 0
M  V30 3296 C 309.149 2.04016 2.8106 0
M  V30 3297 C 308.103 3.19814 2.84434 0
M  V30 3298 C 307.429 3.25244 4.24406 0
M  V30 3299 C 308.729 4.58133 2.50822 0
M  V30 3300 H 310.423 2.74835 1.1877 0
M  V30 3301 H 307.969 1.32242 0.569917 0
M  V30 3302 H 309.922 2.238 3.57059 0
M  V30 3303 H 308.646 1.09804 3.07588 0
M  V30 3304 H 307.305 2.9987 2.10887 0
M  V30 3305 H 306.953 2.28646 4.48029 0
M  V30 3306 H 306.653 4.03054 4.27576 0
M  V30 3307 H 308.177 3.47228 5.0226 0
M  V30 3308 H 309.591 4.77995 3.16534 0
M  V30 3309 H 307.988 5.38276 2.6529 0
M  V30 3310 H 309.058 4.62387 1.46034 0
M  V30 3311 N 310.401 -0.613514 1.45168 0
M  V30 3312 C 311.626 -1.40437 1.52618 0
M  V30 3313 C 312.051 -1.87438 0.157707 0
M  V30 3314 O 311.409 -1.59791 -0.856537 0
M  V30 3315 C 311.457 -2.58894 2.51011 0
M  V30 3316 O 310.561 -3.59326 2.02382 0
M  V30 3317 H 309.902 -0.419506 0.514695 0
M  V30 3318 H 312.432 -0.747215 1.90467 0
M  V30 3319 H 312.442 -3.06214 2.69624 0
M  V30 3320 H 311.117 -2.24032 3.50403 0
M  V30 3321 H 309.694 -3.18695 1.93618 0
M  V30 3322 N 311.879 -1.3236 -0.855495 0
M  V30 3323 C 313.119 -1.24187 -1.62348 0
M  V30 3324 C 313.483 0.193597 -1.91021 0
M  V30 3325 O 314.684 0.39904 -2.65822 0
M  V30 3326 C 312.955 -2.07661 -2.90881 0
M  V30 3327 S 314.514 -2.16505 -3.81669 0
M  V30 3328 H 311.332 -0.442076 -0.556857 0
M  V30 3329 H 313.934 -1.67198 -1.01317 0
M  V30 3330 H 312.638 -3.11018 -2.67761 0
M  V30 3331 H 312.169 -1.65425 -3.56929 0
M  V30 3332 H 314.184 -1.31394 -4.78487 0
M  V30 3333 N 313.357 1.07166 -1.15556 0
M  V30 3334 C 314.267 2.17947 -0.868116 0
M  V30 3335 C 315.283 1.73297 0.156297 0
M  V30 3336 O 316.459 2.01392 -0.0182327 0
M  V30 3337 C 313.524 3.44789 -0.36355 0
M  V30 3338 C 312.585 4.03996 -1.45209 0
M  V30 3339 C 311.818 5.24783 -0.971508 0
M  V30 3340 O 312.041 5.70109 0.182194 0
M  V30 3341 O 310.975 5.75715 -1.75603 0
M  V30 3342 H 314.801 2.4503 -1.79427 0
M  V30 3343 H 312.386 1.16539 -0.934824 0
M  V30 3344 H 314.268 4.21307 -0.0887113 0
M  V30 3345 H 312.943 3.19253 0.534708 0
M  V30 3346 H 311.85 3.29009 -1.78056 0
M  V30 3347 H 313.183 4.33808 -2.32533 0
M  V30 3348 N 314.835 0.952656 1.25548 0
M  V30 3349 C 316.063 0.623496 1.97282 0
M  V30 3350 C 316.478 -0.803987 1.70826 0
M  V30 3351 O 315.835 -1.53755 0.983147 0
M  V30 3352 C 315.886 0.870209 3.5087 0
M  V30 3353 O 315.607 2.24156 3.76412 0
M  V30 3354 C 317.108 0.553164 4.39835 0
M  V30 3355 H 314.328 0.233931 0.628902 0
M  V30 3356 H 316.872 1.27649 1.59768 0
M  V30 3357 H 315.027 0.263652 3.86502 0
M  V30 3358 H 315.441 2.31021 4.70882 0
M  V30 3359 H 316.915 0.776342 5.46513 0
M  V30 3360 H 317.392 -0.512215 4.36203 0
M  V30 3361 H 317.998 1.13896 4.09766 0
M  V30 3362 N 316.313 -1.40141 0.720998 0
M  V30 3363 C 317.26 -2.30688 0.071919 0
M  V30 3364 C 318.23 -1.48476 -0.744584 0
M  V30 3365 O 319.415 -1.77201 -0.707423 0
M  V30 3366 C 316.555 -3.34724 -0.839855 0
M  V30 3367 C 315.668 -4.31998 -0.0122438 0
M  V30 3368 C 314.803 -5.23102 -0.923995 0
M  V30 3369 C 313.842 -6.12033 -0.0907969 0
M  V30 3370 N 312.979 -6.95537 -0.957718 0
M  V30 3371 H 317.819 -2.85628 0.849755 0
M  V30 3372 H 315.356 -1.40653 0.430726 0
M  V30 3373 H 317.314 -3.93618 -1.38279 0
M  V30 3374 H 315.944 -2.81274 -1.58381 0
M  V30 3375 H 314.996 -3.74841 0.64794 0
M  V30 3376 H 316.308 -4.94772 0.632595 0
M  V30 3377 H 315.462 -5.86953 -1.53527 0
M  V30 3378 H 314.201 -4.60615 -1.60264 0
M  V30 3379 H 313.206 -5.47207 0.533377 0
M  V30 3380 H 314.431 -6.76581 0.584428 0
M  V30 3381 H 312.377 -6.35633 -1.62192 0
M  V30 3382 H 312.294 -7.55099 -0.36904 0
M  V30 3383 H 313.562 -7.63832 -1.555 0
M  V30 3384 N 317.792 -0.46758 -1.50504 0
M  V30 3385 C 318.722 0.318381 -2.31319 0
M  V30 3386 C 319.703 0.993564 -1.38066 0
M  V30 3387 O 320.888 0.991411 -1.66987 0
M  V30 3388 C 318.018 1.40275 -3.17711 0
M  V30 3389 C 316.972 0.849373 -4.19487 0
M  V30 3390 C 316.298 2.03177 -4.94594 0
M  V30 3391 C 317.598 -0.136942 -5.2212 0
M  V30 3392 H 319.292 -0.356106 -2.97275 0
M  V30 3393 H 316.838 -0.172703 -1.42961 0
M  V30 3394 H 318.791 1.96004 -3.73042 0
M  V30 3395 H 317.515 2.10596 -2.49634 0
M  V30 3396 H 316.174 0.314076 -3.65252 0
M  V30 3397 H 315.822 2.72187 -4.22993 0
M  V30 3398 H 315.522 1.66774 -5.63436 0
M  V30 3399 H 317.046 2.59403 -5.52759 0
M  V30 3400 H 318.46 0.331056 -5.72343 0
M  V30 3401 H 316.857 -0.41507 -5.98663 0
M  V30 3402 H 317.927 -1.06398 -4.73083 0
M  V30 3403 N 319.27 1.56325 -0.20005 0
M  V30 3404 C 320.2 2.22318 0.713916 0
M  V30 3405 C 321.181 1.18788 1.21752 0
M  V30 3406 O 322.366 1.47309 1.26545 0
M  V30 3407 C 319.496 2.88639 1.93144 0
M  V30 3408 C 318.45 3.98457 1.56255 0
M  V30 3409 C 317.776 4.51967 2.85709 0
M  V30 3410 C 319.076 5.16612 0.768747 0
M  V30 3411 H 320.77 2.98952 0.163755 0
M  V30 3412 H 318.316 1.43792 0.0773219 0
M  V30 3413 H 320.269 3.33491 2.57608 0
M  V30 3414 H 318.993 2.09419 2.50621 0
M  V30 3415 H 317.652 3.54305 0.941471 0
M  V30 3416 H 317.3 3.69503 3.41287 0
M  V30 3417 H 317 5.26071 2.6177 0
M  V30 3418 H 318.524 4.99523 3.51154 0
M  V30 3419 H 319.938 5.57977 1.3166 0
M  V30 3420 H 318.335 5.96812 0.627286 0
M  V30 3421 H 319.405 4.84358 -0.229168 0
M  V30 3422 N 320.748 -0.0735177 1.57428 0
M  V30 3423 C 321.678 -1.0879 2.06608 0
M  V30 3424 C 322.659 -1.40473 0.959237 0
M  V30 3425 O 323.844 -1.5013 1.23185 0
M  V30 3426 C 320.974 -2.40183 2.50857 0
M  V30 3427 C 319.928 -2.22858 3.65402 0
M  V30 3428 C 319.254 -3.59619 3.957 0
M  V30 3429 C 320.554 -1.65123 4.95511 0
M  V30 3430 H 322.248 -0.678673 2.91607 0
M  V30 3431 H 319.794 -0.325013 1.40284 0
M  V30 3432 H 321.747 -3.11437 2.83874 0
M  V30 3433 H 320.471 -2.83083 1.62885 0
M  V30 3434 H 319.13 -1.54045 3.32664 0
M  V30 3435 H 318.778 -4.00086 3.04861 0
M  V30 3436 H 318.478 -3.48866 4.72828 0
M  V30 3437 H 320.002 -4.32306 4.31212 0
M  V30 3438 H 321.416 -2.26241 5.26771 0
M  V30 3439 H 319.813 -1.65071 5.7695 0
M  V30 3440 H 320.883 -0.612559 4.81015 0
M  V30 3441 N 322.226 -1.5378 -0.344866 0
M  V30 3442 C 323.158 -1.77988 -1.44406 0
M  V30 3443 C 324.171 -0.661138 -1.48771 0
M  V30 3444 O 325.36 -0.937842 -1.51877 0
M  V30 3445 C 322.46 -1.86345 -2.8307 0
M  V30 3446 C 321.633 -3.16256 -3.0216 0
M  V30 3447 C 320.692 -3.15588 -4.21059 0
M  V30 3448 O 319.718 -3.89314 -4.15239 0
M  V30 3449 N 320.92 -2.37864 -5.29529 0
M  V30 3450 H 323.685 -2.72839 -1.24012 0
M  V30 3451 H 321.246 -1.52814 -0.534737 0
M  V30 3452 H 323.238 -1.83351 -3.60783 0
M  V30 3453 H 321.808 -0.986858 -2.96614 0
M  V30 3454 H 321.028 -3.32385 -2.11929 0
M  V30 3455 H 322.316 -4.0207 -3.11797 0
M  V30 3456 H 321.714 -1.77514 -5.37127 0
M  V30 3457 H 320.271 -2.40668 -6.05741 0
M  V30 3458 N 323.704 0.605807 -1.45491 0
M  V30 3459 C 325.12 0.926751 -1.29936 0
M  V30 3460 C 325.32 1.99896 -0.253706 0
M  V30 3461 O 324.376 2.50038 0.351737 0
M  V30 3462 C 325.689 1.36599 -2.67883 0
M  V30 3463 C 327.237 1.4801 -2.75793 0
M  V30 3464 C 327.712 1.95309 -4.14268 0
M  V30 3465 N 329.203 2.0254 -4.16571 0
M  V30 3466 C 329.938 2.40363 -5.20589 0
M  V30 3467 N 329.434 2.77143 -6.34952 0
M  V30 3468 N 331.227 2.40718 -5.07948 0
M  V30 3469 H 323.378 -0.102862 -2.12151 0
M  V30 3470 H 325.641 0.016639 -0.947854 0
M  V30 3471 H 325.347 0.652306 -3.45598 0
M  V30 3472 H 325.221 2.33215 -2.96463 0
M  V30 3473 H 327.608 2.1847 -1.98381 0
M  V30 3474 H 327.689 0.497041 -2.50925 0
M  V30 3475 H 327.333 1.25436 -4.92167 0
M  V30 3476 H 327.263 2.94532 -4.3653 0
M  V30 3477 H 329.754 1.76699 -3.34045 0
M  V30 3478 H 330.067 3.0489 -7.10114 0
M  V30 3479 H 328.412 2.74834 -6.3835 0
M  V30 3480 H 331.603 2.11392 -4.1765 0
M  V30 3481 H 331.776 2.69869 -5.89131 0
M  V30 3482 N 325.182 1.32811 0.848464 0
M  V30 3483 C 326.593 1.21315 1.41914 0
M  V30 3484 C 326.944 -0.171847 1.95446 0
M  V30 3485 O 326.069 -1.07093 1.88043 0
M  V30 3486 C 326.664 2.19631 2.57968 0
M  V30 3487 C 325.223 2.12003 3.11017 0
M  V30 3488 C 324.37 2.07651 1.83783 0
M  V30 3489 H 327.321 1.44549 0.655071 0
M  V30 3490 H 327.342 1.79845 3.35315 0
M  V30 3491 H 326.854 3.20423 2.18976 0
M  V30 3492 H 324.955 1.14481 3.54577 0
M  V30 3493 H 325.068 3.02111 3.71841 0
M  V30 3494 H 323.432 1.52983 2.03638 0
M  V30 3495 H 324.215 3.10235 1.47 0
M  V30 3496 N 326.66 -1.06551 1.16123 0
M  V30 3497 C 327.908 -1.78947 0.939267 0
M  V30 3498 C 328.229 -1.87532 -0.534476 0
M  V30 3499 O 327.499 -1.38211 -1.38833 0
M  V30 3500 H 326.079 -0.662807 0.344523 0
M  V30 3501 H 328.741 -1.28725 1.46342 0
M  V30 3502 H 327.837 -2.81117 1.35572 0
M  V30 3503 N 328.138 -0.959301 -1.25041 0
M  V30 3504 C 329.068 -0.501388 -2.28053 0
M  V30 3505 C 330.049 0.454673 -1.63911 0
M  V30 3506 O 331.234 0.352618 -1.90972 0
M  V30 3507 C 328.364 0.217224 -3.4662 0
M  V30 3508 C 327.318 -0.654034 -4.22973 0
M  V30 3509 C 326.644 0.195589 -5.34342 0
M  V30 3510 C 327.944 -1.93447 -4.85155 0
M  V30 3511 H 329.638 -1.36238 -2.66608 0
M  V30 3512 H 327.184 -0.656534 -1.28163 0
M  V30 3513 H 329.137 0.548732 -4.17812 0
M  V30 3514 H 327.861 1.1125 -3.07068 0
M  V30 3515 H 326.52 -0.968693 -3.5357 0
M  V30 3516 H 326.168 1.09076 -4.91031 0
M  V30 3517 H 325.868 -0.384091 -5.86343 0
M  V30 3518 H 327.392 0.521958 -6.08365 0
M  V30 3519 H 328.806 -1.66908 -5.48466 0
M  V30 3520 H 327.203 -2.46018 -5.47353 0
M  V30 3521 H 328.273 -2.63466 -4.07079 0
M  V30 3522 N 329.616 1.39756 -0.72842 0
M  V30 3523 C 330.548 2.29157 -0.0446202 0
M  V30 3524 C 331.561 1.46484 0.710367 0
M  V30 3525 O 332.75 1.69632 0.55562 0
M  V30 3526 C 329.85 3.24987 0.961071 0
M  V30 3527 C 329.023 4.36572 0.268967 0
M  V30 3528 C 328.082 5.12756 1.18184 0
M  V30 3529 O 327.108 5.6534 0.661794 0
M  V30 3530 N 328.31 5.23331 2.51206 0
M  V30 3531 H 331.075 2.88482 -0.812295 0
M  V30 3532 H 328.636 1.51265 -0.577098 0
M  V30 3533 H 330.628 3.72827 1.57423 0
M  V30 3534 H 329.198 2.66739 1.63 0
M  V30 3535 H 328.418 3.90694 -0.524574 0
M  V30 3536 H 329.706 5.08363 -0.210934 0
M  V30 3537 H 329.104 4.82116 2.9594 0
M  V30 3538 H 327.661 5.74634 3.07634 0
M  V30 3539 N 331.094 0.475555 1.50254 0
M  V30 3540 C 332.024 -0.30611 2.31485 0
M  V30 3541 C 333.005 -0.986228 1.38591 0
M  V30 3542 O 334.19 -0.982541 1.67511 0
M  V30 3543 C 331.32 -1.38588 3.1845 0
M  V30 3544 C 330.274 -0.827115 4.19932 0
M  V30 3545 C 329.6 -2.00551 4.95665 0
M  V30 3546 C 330.9 0.16463 5.2204 0
M  V30 3547 H 332.594 0.371866 2.97082 0
M  V30 3548 H 330.14 0.180282 1.42867 0
M  V30 3549 H 332.093 -1.94023 3.74076 0
M  V30 3550 H 330.817 -2.09269 2.50747 0
M  V30 3551 H 329.476 -0.294702 3.65414 0
M  V30 3552 H 329.124 -2.6994 4.2443 0
M  V30 3553 H 328.824 -1.63784 5.64313 0
M  V30 3554 H 330.348 -2.56468 5.54127 0
M  V30 3555 H 331.762 -0.300699 5.72511 0
M  V30 3556 H 330.159 0.446813 5.98434 0
M  V30 3557 H 331.229 1.08905 4.72512 0
M  V30 3558 N 332.573 -1.56217 0.208337 0
M  V30 3559 C 333.803 -2.02043 -0.431523 0
M  V30 3560 C 334.211 -1.08755 -1.54819 0
M  V30 3561 O 333.554 -0.0870009 -1.83494 0
M  V30 3562 C 333.616 -3.44239 -1.03633 0
M  V30 3563 C 333.28 -4.56965 -0.0567502 0
M  V30 3564 C 334.277 -5.14624 0.738773 0
M  V30 3565 C 331.962 -5.02266 0.0581736 0
M  V30 3566 C 333.956 -6.16045 1.63605 0
M  V30 3567 C 331.643 -6.03528 0.959001 0
M  V30 3568 C 332.641 -6.60293 1.7465 0
M  V30 3569 O 332.329 -7.59586 2.6322 0
M  V30 3570 H 332.061 -0.666772 -0.111313 0
M  V30 3571 H 334.615 -2.02919 0.318277 0
M  V30 3572 H 332.845 -3.40391 -1.83497 0
M  V30 3573 H 334.534 -3.73793 -1.58221 0
M  V30 3574 H 335.3 -4.80483 0.660364 0
M  V30 3575 H 331.179 -4.57771 -0.544633 0
M  V30 3576 H 334.723 -6.60279 2.25116 0
M  V30 3577 H 330.62 -6.37092 1.03848 0
M  V30 3578 H 331.388 -7.77057 2.57148 0
M  V30 3579 N 334.051 0.0651679 -1.57465 0
M  V30 3580 C 335.298 0.763063 -1.87573 0
M  V30 3581 C 335.626 1.77242 -0.800961 0
M  V30 3582 O 334.881 1.94651 0.202316 0
M  V30 3583 C 335.18 1.50081 -3.24362 0
M  V30 3584 C 334.846 0.630816 -4.46466 0
M  V30 3585 C 333.508 0.391082 -4.79608 0
M  V30 3586 C 335.86 0.0279465 -5.21193 0
M  V30 3587 C 333.188 -0.460894 -5.84887 0
M  V30 3588 C 335.54 -0.811522 -6.27373 0
M  V30 3589 C 334.204 -1.06106 -6.59013 0
M  V30 3590 H 333.474 0.279224 -0.686378 0
M  V30 3591 H 336.121 0.0236726 -1.91485 0
M  V30 3592 H 334.426 2.31258 -3.16271 0
M  V30 3593 H 336.123 2.04571 -3.44894 0
M  V30 3594 H 332.713 0.8278 -4.2053 0
M  V30 3595 H 336.897 0.200262 -4.95896 0
M  V30 3596 H 332.153 -0.662907 -6.07796 0
M  V30 3597 H 336.327 -1.28537 -6.84435 0
M  V30 3598 H 333.954 -1.723 -7.40417 0
M  V30 3599 N 335.529 1.53961 0.336706 0
M  V30 3600 C 336.754 1.75797 1.10046 0
M  V30 3601 C 337.179 0.498985 1.81361 0
M  V30 3602 O 336.537 -0.548769 1.72795 0
M  V30 3603 C 336.585 2.94257 2.08436 0
M  V30 3604 O 335.689 2.64883 3.16087 0
M  V30 3605 H 335.03 0.582936 0.317934 0
M  V30 3606 H 337.56 2.00945 0.38501 0
M  V30 3607 H 337.57 3.21237 2.51537 0
M  V30 3608 H 336.245 3.85564 1.55927 0
M  V30 3609 H 334.822 2.48812 2.77753 0
M  V30 3610 N 337.007 -0.598083 1.45811 0
M  V30 3611 C 338.254 -1.35681 1.50323 0
M  V30 3612 C 338.582 -1.9393 0.148739 0
M  V30 3613 O 337.837 -1.76094 -0.853787 0
M  V30 3614 C 338.136 -2.51669 2.53766 0
M  V30 3615 C 337.802 -2.11508 3.98215 0
M  V30 3616 C 336.464 -2.0027 4.37545 0
M  V30 3617 C 338.816 -1.80308 4.89018 0
M  V30 3618 C 336.144 -1.56067 5.65562 0
M  V30 3619 C 338.496 -1.37589 6.17456 0
M  V30 3620 C 337.16 -1.24916 6.55708 0
M  V30 3621 H 336.43 -0.496492 0.550069 0
M  V30 3622 H 339.077 -0.675052 1.79207 0
M  V30 3623 H 337.382 -3.25225 2.18486 0
M  V30 3624 H 339.079 -3.09895 2.54492 0
M  V30 3625 H 335.669 -2.21185 3.67117 0
M  V30 3626 H 339.853 -1.87884 4.59362 0
M  V30 3627 H 335.109 -1.44886 5.93985 0
M  V30 3628 H 339.283 -1.12495 6.87254 0
M  V30 3629 H 336.91 -0.904386 7.54801 0
M  V30 3630 N 338.485 -1.33259 -0.841409 0
M  V30 3631 C 339.715 -1.2742 -1.62628 0
M  V30 3632 C 340.123 0.157604 -1.88542 0
M  V30 3633 O 339.466 1.10938 -1.46419 0
M  V30 3634 C 339.528 -1.97797 -3.00194 0
M  V30 3635 C 339.192 -3.47109 -2.97261 0
M  V30 3636 C 340.189 -4.42358 -2.73159 0
M  V30 3637 C 337.874 -3.89247 -3.17478 0
M  V30 3638 C 339.868 -5.77718 -2.69296 0
M  V30 3639 C 337.555 -5.24713 -3.13241 0
M  V30 3640 C 338.553 -6.1876 -2.89181 0
M  V30 3641 O 338.241 -7.51745 -2.84843 0
M  V30 3642 H 337.973 -0.440436 -0.512827 0
M  V30 3643 H 340.527 -1.76153 -1.05638 0
M  V30 3644 H 338.757 -1.43652 -3.59028 0
M  V30 3645 H 340.446 -1.8549 -3.61038 0
M  V30 3646 H 341.212 -4.11127 -2.57294 0
M  V30 3647 H 337.091 -3.16456 -3.35226 0
M  V30 3648 H 340.635 -6.51097 -2.50436 0
M  V30 3649 H 336.532 -5.55569 -3.28654 0
M  V30 3650 H 337.3 -7.61262 -3.00702 0
M  V30 3651 N 339.963 1.05934 -1.16686 0
M  V30 3652 C 340.896 2.1295 -0.820225 0
M  V30 3653 C 341.874 1.61242 0.209722 0
M  V30 3654 O 343.058 1.88271 0.0929688 0
M  V30 3655 C 340.185 3.3797 -0.22223 0
M  V30 3656 C 339.231 4.08488 -1.22637 0
M  V30 3657 S 340.064 4.58015 -2.77457 0
M  V30 3658 C 341.22 5.86292 -2.19117 0
M  V30 3659 H 341.453 2.42025 -1.72659 0
M  V30 3660 H 338.986 1.18423 -0.990722 0
M  V30 3661 H 340.944 4.10335 0.116322 0
M  V30 3662 H 339.605 3.07045 0.66196 0
M  V30 3663 H 338.798 4.98291 -0.756455 0
M  V30 3664 H 338.4 3.42154 -1.51019 0
M  V30 3665 H 340.692 6.59246 -1.56209 0
M  V30 3666 H 341.635 6.38019 -3.07144 0
M  V30 3667 H 342.043 5.40497 -1.62858 0
M  V30 3668 N 341.441 0.965919 1.2453 0
M  V30 3669 C 342.689 0.625593 1.92174 0
M  V30 3670 C 343.01 -0.841652 1.75901 0
M  V30 3671 O 342.28 -1.60061 1.12948 0
M  V30 3672 H 340.86 0.228388 0.71123 0
M  V30 3673 H 343.522 1.2266 1.51461 0
M  V30 3674 H 342.618 0.864653 2.99884 0
M  V30 3675 N 342.919 -1.39368 0.735821 0
M  V30 3676 C 344.144 -2.05319 0.293052 0
M  V30 3677 C 344.569 -1.55115 -1.064 0
M  V30 3678 O 343.927 -0.695261 -1.67439 0
M  V30 3679 C 343.975 -3.59305 0.305323 0
M  V30 3680 O 343.079 -4.06299 -0.706761 0
M  V30 3681 H 342.42 -0.650529 0.13307 0
M  V30 3682 H 344.95 -1.78386 1.00197 0
M  V30 3683 H 344.96 -4.07724 0.149997 0
M  V30 3684 H 343.635 -3.95207 1.29553 0
M  V30 3685 H 342.212 -3.69292 -0.517504 0
M  V30 3686 N 344.397 -0.483516 -1.5 0
M  V30 3687 C 345.344 0.304164 -2.28787 0
M  V30 3688 C 346.314 0.976114 -1.34392 0
M  V30 3689 O 347.499 0.986156 -1.63339 0
M  V30 3690 C 344.639 1.37298 -3.16612 0
M  V30 3691 C 343.752 0.714561 -4.26049 0
M  V30 3692 C 342.887 1.76232 -5.01114 0
M  V30 3693 C 341.926 1.08483 -6.0241 0
M  V30 3694 N 341.063 2.076 -6.70706 0
M  V30 3695 H 345.903 -0.373981 -2.95644 0
M  V30 3696 H 343.44 -0.196275 -1.45785 0
M  V30 3697 H 345.398 2.00445 -3.65893 0
M  V30 3698 H 344.028 2.02012 -2.51776 0
M  V30 3699 H 343.08 -0.0297798 -3.80388 0
M  V30 3700 H 344.392 0.180383 -4.98474 0
M  V30 3701 H 343.546 2.46929 -5.54176 0
M  V30 3702 H 342.285 2.33033 -4.28424 0
M  V30 3703 H 341.29 0.363545 -5.48597 0
M  V30 3704 H 342.515 0.523551 -6.77079 0
M  V30 3705 H 340.461 2.63394 -6.00799 0
M  V30 3706 H 340.378 1.59201 -7.39047 0
M  V30 3707 H 341.646 2.77639 -7.2838 0
M  V30 3708 N 345.875 1.56104 -0.216619 0
M  V30 3709 C 347.103 2.02563 0.421413 0
M  V30 3710 C 347.518 1.0965 1.53695 0
M  V30 3711 O 346.875 0.10521 1.82196 0
M  V30 3712 C 346.926 3.48584 0.957665 0
M  V30 3713 O 346.647 4.37953 -0.113389 0
M  V30 3714 C 348.148 4.10664 1.66943 0
M  V30 3715 H 345.368 0.662944 0.103665 0
M  V30 3716 H 347.912 2.01793 -0.331629 0
M  V30 3717 H 346.067 3.49985 1.661 0
M  V30 3718 H 346.481 5.23704 0.288932 0
M  V30 3719 H 347.955 5.14622 1.99671 0
M  V30 3720 H 348.432 3.55373 2.58083 0
M  V30 3721 H 349.038 4.13098 1.01142 0
M  V30 3722 N 347.353 -0.0568162 1.57498 0
M  V30 3723 C 348.283 -1.06593 2.0775 0
M  V30 3724 C 349.264 -1.39448 0.974082 0
M  V30 3725 O 350.449 -1.48815 1.24771 0
M  V30 3726 C 347.579 -2.37509 2.5339 0
M  V30 3727 C 346.533 -2.1897 3.67745 0
M  V30 3728 C 345.859 -3.55402 3.99492 0
M  V30 3729 C 347.159 -1.59859 4.97235 0
M  V30 3730 H 348.853 -0.647706 2.9231 0
M  V30 3731 H 346.399 -0.310116 1.40621 0
M  V30 3732 H 348.352 -3.08409 2.87162 0
M  V30 3733 H 347.076 -2.8134 1.65878 0
M  V30 3734 H 345.735 -1.50508 3.3428 0
M  V30 3735 H 345.383 -3.9683 3.09088 0
M  V30 3736 H 345.083 -3.43831 4.76502 0
M  V30 3737 H 346.607 -4.27708 4.35773 0
M  V30 3738 H 348.021 -2.20642 5.29141 0
M  V30 3739 H 346.418 -1.58942 5.78669 0
M  V30 3740 H 347.488 -0.561506 4.81638 0
M  V30 3741 N 348.832 -1.54138 -0.328536 0
M  V30 3742 C 350.248 -1.44736 -0.672574 0
M  V30 3743 C 350.448 -0.616217 -1.91846 0
M  V30 3744 O 349.504 -0.113067 -2.52247 0
M  V30 3745 C 350.817 -2.884 -0.851217 0
M  V30 3746 C 352.365 -2.98271 -0.948877 0
M  V30 3747 C 352.84 -4.43074 -1.15973 0
M  V30 3748 N 354.331 -4.46665 -1.22658 0
M  V30 3749 C 355.066 -5.55857 -1.40751 0
M  V30 3750 N 354.562 -6.75026 -1.5592 0
M  V30 3751 N 356.355 -5.43495 -1.4342 0
M  V30 3752 H 348.506 -2.06661 0.490421 0
M  V30 3753 H 350.769 -0.934812 0.157579 0
M  V30 3754 H 350.475 -3.51699 -0.00704236 0
M  V30 3755 H 350.349 -3.34225 -1.74853 0
M  V30 3756 H 352.736 -2.35102 -1.78356 0
M  V30 3757 H 352.817 -2.55785 -0.0281435 0
M  V30 3758 H 352.461 -5.06827 -0.329915 0
M  V30 3759 H 352.391 -4.83165 -2.09426 0
M  V30 3760 H 354.882 -3.60797 -1.124 0
M  V30 3761 H 355.195 -7.54004 -1.69404 0
M  V30 3762 H 353.54 -6.77944 -1.53027 0
M  V30 3763 H 356.731 -4.49349 -1.31162 0
M  V30 3764 H 356.904 -6.28649 -1.57178 0
M  V30 3765 N 350.31 0.590341 -1.46126 0
M  V30 3766 C 351.558 1.34616 -1.50742 0
M  V30 3767 C 351.879 1.94363 -0.157486 0
M  V30 3768 O 351.149 1.78136 0.815136 0
M  V30 3769 H 349.729 0.499789 -0.555175 0
M  V30 3770 H 352.391 0.691953 -1.82203 0
M  V30 3771 H 351.487 2.15678 -2.25587 0
M  V30 3772 N 351.788 1.33704 0.83433 0
M  V30 3773 C 353.204 1.13137 1.12571 0
M  V30 3774 C 353.404 -0.0747261 2.01361 0
M  V30 3775 O 352.46 -0.753647 2.4099 0
M  V30 3776 C 353.773 2.42105 1.78342 0
M  V30 3777 C 355.321 2.48054 1.90888 0
M  V30 3778 C 355.796 3.76995 2.60075 0
M  V30 3779 N 357.287 3.78092 2.67584 0
M  V30 3780 C 358.022 4.74574 3.21818 0
M  V30 3781 N 357.518 5.81434 3.76705 0
M  V30 3782 N 359.311 4.62044 3.20112 0
M  V30 3783 H 351.462 2.11 0.243489 0
M  V30 3784 H 353.725 0.932532 0.17055 0
M  V30 3785 H 353.431 3.30391 1.20561 0
M  V30 3786 H 353.305 2.54594 2.7832 0
M  V30 3787 H 355.692 1.60215 2.47821 0
M  V30 3788 H 355.773 2.39502 0.898459 0
M  V30 3789 H 355.417 4.65219 2.03799 0
M  V30 3790 H 355.347 3.82825 3.61597 0
M  V30 3791 H 357.838 3.00865 2.28667 0
M  V30 3792 H 358.151 6.51084 4.16305 0
M  V30 3793 H 356.496 5.85163 3.7498 0
M  V30 3794 H 359.687 3.77716 2.76493 0
M  V30 3795 H 359.86 5.37406 3.62076 0
M  V30 3796 N 353.266 -1.05314 1.17247 0
M  V30 3797 C 354.214 -2.15137 0.884238 0
M  V30 3798 C 355.208 -1.68729 -0.15063 0
M  V30 3799 O 356.414 -1.8 -0.00366673 0
M  V30 3800 H 352.789 -0.702471 0.2684 0
M  V30 3801 H 354.76 -2.36652 1.81764 0
M  V30 3802 C 353.509 -3.45243 0.412659 0
M  V30 3803 H 352.832 -3.81352 1.20043 0
M  V30 3804 H 354.272 -4.23263 0.249858 0
M  V30 3805 C 352.731 -3.25487 -0.86948 0
M  V30 3806 O 353.261 -3.51938 -1.93655 0
M  V30 3807 N 351.467 -2.78875 -0.817147 0
M  V30 3808 H 351.014 -2.57549 0.0514211 0
M  V30 3809 H 350.972 -2.66036 -1.67547 0
M  V30 3810 N 354.744 -0.972509 -1.24016 0
M  V30 3811 C 355.972 -0.654803 -1.96265 0
M  V30 3812 C 356.387 0.776708 -1.72083 0
M  V30 3813 O 355.744 1.52171 -1.00748 0
M  V30 3814 C 355.795 -0.92592 -3.49441 0
M  V30 3815 O 355.516 -2.30116 -3.72798 0
M  V30 3816 C 357.017 -0.623068 -4.38899 0
M  V30 3817 H 354.237 -0.243907 -0.6251 0
M  V30 3818 H 356.781 -1.30175 -1.57717 0
M  V30 3819 H 354.936 -0.325108 -3.86033 0
M  V30 3820 H 355.35 -2.38483 -4.67147 0
M  V30 3821 H 356.824 -0.863189 -5.45209 0
M  V30 3822 H 357.301 0.442754 -4.36963 0
M  V30 3823 H 357.907 -1.204 -4.07902 0
M  V30 3824 N 356.222 1.38976 -0.743202 0
M  V30 3825 C 357.447 2.05161 -0.303936 0
M  V30 3826 C 357.872 1.55677 1.05576 0
M  V30 3827 O 357.23 0.704131 1.67068 0
M  V30 3828 C 357.278 3.59138 -0.324373 0
M  V30 3829 O 356.382 4.06668 0.685204 0
M  V30 3830 H 355.723 0.649815 -0.136518 0
M  V30 3831 H 358.253 1.77852 -1.01142 0
M  V30 3832 H 358.263 4.07639 -0.171618 0
M  V30 3833 H 356.938 3.94515 -1.31647 0
M  V30 3834 H 355.515 3.69561 0.497913 0
M  V30 3835 N 357.7 0.491464 1.49741 0
M  V30 3836 C 358.925 -0.0557177 2.07325 0
M  V30 3837 C 359.35 -1.30925 1.35056 0
M  V30 3838 O 358.708 -1.76733 0.404365 0
M  V30 3839 C 358.756 -0.302074 3.59333 0
M  V30 3840 O 357.86 -1.37868 3.88672 0
M  V30 3841 H 357.201 0.0219956 0.663636 0
M  V30 3842 H 359.731 0.688352 1.92673 0
M  V30 3843 H 359.741 -0.536464 4.04458 0
M  V30 3844 H 358.416 0.61383 4.11345 0
M  V30 3845 H 356.993 -1.12999 3.55367 0
M  V30 3846 N 359.178 -1.55987 0.224894 0
M  V30 3847 C 360.088 -2.24066 -0.69511 0
M  V30 3848 C 361.104 -1.24939 -1.21104 0
M  V30 3849 O 362.28 -1.5776 -1.25195 0
M  V30 3850 C 359.345 -2.90983 -1.88493 0
M  V30 3851 C 358.406 -4.05462 -1.41064 0
M  V30 3852 C 357.639 -4.69179 -2.54375 0
M  V30 3853 O 357.862 -4.31895 -3.72589 0
M  V30 3854 O 356.796 -5.58108 -2.25386 0
M  V30 3855 H 360.622 -3.03353 -0.145149 0
M  V30 3856 H 358.207 -1.49399 -0.00569476 0
M  V30 3857 H 360.089 -3.33209 -2.57972 0
M  V30 3858 H 358.764 -2.14653 -2.42293 0
M  V30 3859 H 357.671 -3.67798 -0.683774 0
M  V30 3860 H 359.004 -4.83545 -0.918985 0
M  V30 3861 N 360.656 0.0484629 -1.57525 0
M  V30 3862 C 361.886 0.754326 -1.92337 0
M  V30 3863 C 362.294 1.70443 -0.82132 0
M  V30 3864 O 361.637 1.82466 0.21254 0
M  V30 3865 C 361.699 1.58231 -3.22805 0
M  V30 3866 C 361.363 0.799074 -4.4996 0
M  V30 3867 C 362.36 0.1079 -5.19788 0
M  V30 3868 C 360.045 0.759345 -4.96527 0
M  V30 3869 C 362.039 -0.612516 -6.3445 0
M  V30 3870 C 359.726 0.0351713 -6.1109 0
M  V30 3871 C 360.724 -0.649537 -6.79904 0
M  V30 3872 O 360.412 -1.36199 -7.92278 0
M  V30 3873 H 360.144 0.218257 -0.639797 0
M  V30 3874 H 362.698 0.0159295 -2.05394 0
M  V30 3875 H 360.928 2.36406 -3.06021 0
M  V30 3876 H 362.617 2.16898 -3.43089 0
M  V30 3877 H 363.383 0.129748 -4.84826 0
M  V30 3878 H 359.262 1.28177 -4.42822 0
M  V30 3879 H 362.806 -1.14751 -6.88097 0
M  V30 3880 H 358.703 0.0113314 -6.45499 0
M  V30 3881 H 359.471 -1.27366 -8.0853 0
M  V30 3882 N 362.134 1.5431 0.320358 0
M  V30 3883 C 363.066 1.80262 1.41556 0
M  V30 3884 C 364.079 0.684723 1.477 0
M  V30 3885 O 365.268 0.961886 1.50366 0
M  V30 3886 C 362.368 1.90825 2.8007 0
M  V30 3887 C 361.541 3.21023 2.97091 0
M  V30 3888 C 360.6 3.22247 4.15985 0
M  V30 3889 O 359.626 3.95871 4.08992 0
M  V30 3890 N 360.828 2.46258 5.25678 0
M  V30 3891 H 363.593 2.74778 1.19655 0
M  V30 3892 H 361.154 1.53646 0.510358 0
M  V30 3893 H 363.146 1.89067 3.57821 0
M  V30 3894 H 361.716 1.03392 2.95006 0
M  V30 3895 H 360.936 3.35715 2.06614 0
M  V30 3896 H 362.224 4.0698 3.05361 0
M  V30 3897 H 361.622 1.86037 5.34235 0
M  V30 3898 H 360.179 2.50275 6.01835 0
M  V30 3899 N 363.613 -0.582584 1.46437 0
M  V30 3900 C 364.862 -1.337 1.5102 0
M  V30 3901 C 365.175 -1.94891 0.166359 0
M  V30 3902 O 366.381 -2.71351 0.0899954 0
M  V30 3903 C 364.837 -2.42315 2.66104 0
M  V30 3904 C 364.445 -1.87427 4.06909 0
M  V30 3905 C 366.189 -3.19099 2.79958 0
M  V30 3906 C 364.096 -2.93672 5.13333 0
M  V30 3907 H 363.026 -0.502619 0.562041 0
M  V30 3908 H 365.677 -0.621701 1.72647 0
M  V30 3909 H 364.059 -3.16645 2.37807 0
M  V30 3910 H 365.233 -1.19639 4.44998 0
M  V30 3911 H 363.548 -1.2331 3.97723 0
M  V30 3912 H 366.145 -3.9839 3.56636 0
M  V30 3913 H 366.488 -3.71695 1.87479 0
M  V30 3914 H 367.021 -2.51875 3.07902 0
M  V30 3915 H 363.76 -2.45962 6.07604 0
M  V30 3916 H 363.28 -3.59948 4.79789 0
M  V30 3917 H 364.959 -3.5762 5.39182 0
M  V30 3918 N 365.091 -1.34144 -0.827227 0
M  V30 3919 C 366.021 -1.28005 -1.95287 0
M  V30 3920 C 367.002 -0.158321 -1.69362 0
M  V30 3921 O 368.187 -0.349987 -1.9102 0
M  V30 3922 C 365.317 -1.03036 -3.31664 0
M  V30 3923 C 364.271 -2.11628 -3.72019 0
M  V30 3924 C 363.597 -1.71854 -5.0633 0
M  V30 3925 C 364.897 -3.53417 -3.8457 0
M  V30 3926 H 366.591 -2.22187 -2.00682 0
M  V30 3927 H 364.137 -1.0696 -0.964135 0
M  V30 3928 H 366.09 -0.973863 -4.09993 0
M  V30 3929 H 364.814 -0.0529391 -3.26557 0
M  V30 3930 H 363.473 -2.16339 -2.95961 0
M  V30 3931 H 363.121 -0.727841 -4.97706 0
M  V30 3932 H 362.821 -2.44531 -5.34302 0
M  V30 3933 H 364.345 -1.67692 -5.87122 0
M  V30 3934 H 365.759 -3.51142 -4.5318 0
M  V30 3935 H 364.156 -4.24679 -4.2399 0
M  V30 3936 H 365.226 -3.91072 -2.86689 0
M  V30 3937 N 366.569 1.04691 -1.17803 0
M  V30 3938 C 367.797 1.81446 -0.99423 0
M  V30 3939 C 368.212 1.83174 0.457459 0
M  V30 3940 O 367.569 1.26265 1.31771 0
M  V30 3941 C 367.62 3.27334 -1.5341 0
M  V30 3942 O 367.341 3.25798 -2.92895 0
M  V30 3943 C 368.842 4.20759 -1.39559 0
M  V30 3944 H 366.062 0.571599 -0.351447 0
M  V30 3945 H 368.606 1.31982 -1.56208 0
M  V30 3946 H 366.761 3.74052 -1.00815 0
M  V30 3947 H 367.175 4.17144 -3.17949 0
M  V30 3948 H 368.649 5.21084 -1.82141 0
M  V30 3949 H 369.126 4.37856 -0.343394 0
M  V30 3950 H 369.732 3.79901 -1.91195 0
M  V30 3951 N 368.047 0.979072 1.23499 0
M  V30 3952 C 369.01 0.523244 2.23147 0
M  V30 3953 C 370.01 -0.386406 1.56088 0
M  V30 3954 O 371.2 -0.180283 1.73265 0
M  V30 3955 C 368.332 -0.240739 3.40049 0
M  V30 3956 H 369.525 1.40432 2.64989 0
M  V30 3957 H 367.078 0.764824 1.36309 0
M  V30 3958 H 367.813 -1.13841 3.03662 0
M  V30 3959 H 367.598 0.412207 3.89927 0
M  V30 3960 H 369.088 -0.548297 4.13985 0
M  V30 3961 N 369.525 -1.3858 0.750561 0
M  V30 3962 C 370.941 -1.53759 0.427824 0
M  V30 3963 C 371.141 -1.71401 -1.05943 0
M  V30 3964 O 370.197 -1.72331 -1.84549 0
M  V30 3965 C 371.51 -2.74642 1.22443 0
M  V30 3966 C 373.058 -2.88489 1.2142 0
M  V30 3967 C 373.533 -4.12329 1.9937 0
M  V30 3968 N 375.024 -4.194 1.96616 0
M  V30 3969 C 375.759 -5.14209 2.53727 0
M  V30 3970 N 375.255 -6.14709 3.19539 0
M  V30 3971 N 377.048 -5.06537 2.43673 0
M  V30 3972 H 369.199 -1.25377 1.71447 0
M  V30 3973 H 371.462 -0.608844 0.726645 0
M  V30 3974 H 371.168 -2.68 2.27747 0
M  V30 3975 H 371.042 -3.67745 0.839273 0
M  V30 3976 H 373.429 -2.94614 0.169232 0
M  V30 3977 H 373.51 -1.96406 1.63885 0
M  V30 3978 H 373.154 -4.06966 3.03877 0
M  V30 3979 H 373.084 -5.03486 1.54302 0
M  V30 3980 H 375.575 -3.47421 1.48684 0
M  V30 3981 H 375.888 -6.8354 3.60545 0
M  V30 3982 H 374.233 -6.1505 3.23633 0
M  V30 3983 H 377.424 -4.26962 1.91889 0
M  V30 3984 H 377.597 -5.80245 2.88479 0
M  V30 3985 N 371.003 -0.499398 -1.49478 0
M  V30 3986 C 372.419 -0.155261 -1.58843 0
M  V30 3987 C 372.619 1.34008 -1.50479 0
M  V30 3988 O 371.675 2.11589 -1.37791 0
M  V30 3989 C 372.988 -0.730636 -2.91689 0
M  V30 3990 C 374.536 -0.696599 -3.0515 0
M  V30 3991 C 375.011 -1.25001 -4.40612 0
M  V30 3992 N 376.502 -1.21064 -4.47099 0
M  V30 3993 C 377.237 -1.60905 -5.50361 0
M  V30 3994 N 376.733 -2.08331 -6.60735 0
M  V30 3995 N 378.526 -1.52331 -5.41065 0
M  V30 3996 H 370.677 -1.47162 -1.53158 0
M  V30 3997 H 372.94 -0.610309 -0.725415 0
M  V30 3998 H 372.646 -1.77928 -3.03372 0
M  V30 3999 H 372.52 -0.190161 -3.7672 0
M  V30 4000 H 374.907 0.343204 -2.93097 0
M  V30 4001 H 374.988 -1.2742 -2.21806 0
M  V30 4002 H 374.632 -2.28859 -4.53416 0
M  V30 4003 H 374.562 -0.64836 -5.22593 0
M  V30 4004 H 377.053 -0.863128 -3.67911 0
M  V30 4005 H 377.366 -2.36805 -7.35624 0
M  V30 4006 H 375.711 -2.12304 -6.6178 0
M  V30 4007 H 378.902 -1.151 -4.53729 0
M  V30 4008 H 379.075 -1.83704 -6.21415 0
M  V30 4009 N 372.481 1.55866 -0.233164 0
M  V30 4010 C 373.391 2.24431 0.683217 0
M  V30 4011 C 374.407 1.2558 1.2044 0
M  V30 4012 O 375.583 1.58422 1.24356 0
M  V30 4013 C 372.648 2.91979 1.86947 0
M  V30 4014 C 371.709 4.06204 1.38912 0
M  V30 4015 C 370.942 4.70522 2.51883 0
M  V30 4016 O 371.165 4.33865 3.70293 0
M  V30 4017 O 370.099 5.59296 2.22423 0
M  V30 4018 H 373.925 3.03426 0.129059 0
M  V30 4019 H 371.51 1.494 -0.0022283 0
M  V30 4020 H 373.392 3.34573 2.56201 0
M  V30 4021 H 372.067 2.15935 2.41151 0
M  V30 4022 H 370.974 3.68155 0.664259 0
M  V30 4023 H 372.307 4.84025 0.893328 0
M  V30 4024 N 373.959 -0.0401083 1.57549 0
M  V30 4025 C 375.236 -0.767917 1.79896 0
M  V30 4026 C 375.616 -1.9416 0.82856 0
M  V30 4027 O 374.964 -2.2812 -0.131671 0
M  V30 4028 C 375.174 -1.2113 3.27305 0
M  V30 4029 C 376.522 -1.63175 3.91994 0
M  V30 4030 O 377.546 -1.30616 3.31388 0
M  V30 4031 O 376.405 -2.23565 4.98679 0
M  V30 4032 H 373.499 -0.370441 0.739393 0
M  V30 4033 H 376.045 -0.017737 1.69691 0
M  V30 4034 H 374.817 -0.372937 3.89519 0
M  V30 4035 H 374.44 -2.02183 3.42356 0
M  V30 4036 N 375.437 -1.54477 -0.31217 0
M  V30 4037 C 376.662 -1.77526 -1.07235 0
M  V30 4038 C 377.087 -0.527775 -1.80544 0
M  V30 4039 O 376.445 0.52121 -1.73646 0
M  V30 4040 C 376.493 -2.97535 -2.03728 0
M  V30 4041 O 375.597 -2.69878 -3.11833 0
M  V30 4042 H 374.938 -0.58792 -0.30862 0
M  V30 4043 H 377.468 -2.01532 -0.352993 0
M  V30 4044 H 377.478 -3.25198 -2.46395 0
M  V30 4045 H 376.153 -3.87996 -1.49774 0
M  V30 4046 H 374.73 -2.53199 -2.7376 0
M  V30 4047 N 376.915 0.57481 -1.46744 0
M  V30 4048 C 378.163 1.33009 -1.52161 0
M  V30 4049 C 378.484 1.94185 -0.178092 0
M  V30 4050 O 377.754 1.7899 0.796196 0
M  V30 4051 H 376.334 0.493873 -0.560445 0
M  V30 4052 H 378.996 0.672589 -1.82927 0
M  V30 4053 H 378.092 2.13273 -2.27862 0
M  V30 4054 N 378.394 1.34581 0.820102 0
M  V30 4055 C 379.324 1.29038 1.94606 0
M  V30 4056 C 380.305 0.1673 1.69275 0
M  V30 4057 O 381.49 0.360112 1.90832 0
M  V30 4058 C 378.62 1.04793 3.31113 0
M  V30 4059 C 377.574 2.13597 3.70891 0
M  V30 4060 C 376.9 1.74537 5.05412 0
M  V30 4061 C 378.2 3.55451 3.8269 0
M  V30 4062 H 379.894 2.23248 1.99501 0
M  V30 4063 H 377.44 1.0747 0.958449 0
M  V30 4064 H 379.393 0.995592 4.0947 0
M  V30 4065 H 378.117 0.0702565 3.26524 0
M  V30 4066 H 376.776 2.17905 2.9481 0
M  V30 4067 H 376.424 0.754226 4.97313 0
M  V30 4068 H 376.124 2.47361 5.32997 0
M  V30 4069 H 377.648 1.70803 5.86224 0
M  V30 4070 H 379.062 3.5354 4.51312 0
M  V30 4071 H 377.459 4.26922 4.21732 0
M  V30 4072 H 378.529 3.92587 2.84611 0
M  V30 4073 N 379.872 -1.04064 1.18357 0
M  V30 4074 C 381.102 -1.80654 1.00238 0
M  V30 4075 C 381.51 -1.83713 -0.452362 0
M  V30 4076 O 380.853 -1.27135 -1.32599 0
M  V30 4077 C 380.915 -3.27582 1.48088 0
M  V30 4078 C 380.579 -3.48184 2.96002 0
M  V30 4079 C 381.576 -3.39372 3.93856 0
M  V30 4080 C 379.261 -3.7478 3.34433 0
M  V30 4081 C 381.255 -3.5686 5.28138 0
M  V30 4082 C 378.942 -3.91915 4.68877 0
M  V30 4083 C 379.94 -3.82956 5.65539 0
M  V30 4084 O 379.628 -3.996 6.97549 0
M  V30 4085 H 379.36 -0.575751 0.354241 0
M  V30 4086 H 381.914 -1.32044 1.57333 0
M  V30 4087 H 380.144 -3.77161 0.853588 0
M  V30 4088 H 381.833 -3.8573 1.2636 0
M  V30 4089 H 382.599 -3.18789 3.65511 0
M  V30 4090 H 378.478 -3.80852 2.59756 0
M  V30 4091 H 382.022 -3.49783 6.03571 0
M  V30 4092 H 377.919 -4.11992 4.96923 0
M  V30 4093 H 378.687 -4.1676 7.04452 0
M  V30 4094 N 381.35 -0.985608 -1.22978 0
M  V30 4095 C 382.596 -0.667998 -1.92118 0
M  V30 4096 C 382.951 0.790454 -1.75413 0
M  V30 4097 O 382.244 1.56336 -1.10768 0
M  V30 4098 C 382.438 -1.00014 -3.43121 0
M  V30 4099 C 382.267 -2.48933 -3.74516 0
M  V30 4100 C 381.037 -3.15218 -3.94925 0
M  V30 4101 C 383.235 -3.47024 -3.79577 0
M  V30 4102 N 381.217 -4.53689 -4.13569 0
M  V30 4103 C 382.588 -4.70923 -4.03276 0
M  V30 4104 C 384.643 -3.41432 -3.62393 0
M  V30 4105 C 383.346 -5.89914 -4.11574 0
M  V30 4106 C 385.372 -4.59793 -3.71947 0
M  V30 4107 C 384.734 -5.82489 -3.96088 0
M  V30 4108 H 380.833 -0.295589 -0.723983 0
M  V30 4109 H 383.417 -1.26413 -1.4808 0
M  V30 4110 H 381.588 -0.432655 -3.85983 0
M  V30 4111 H 383.32 -0.63927 -3.99619 0
M  V30 4112 H 380.075 -2.65702 -3.92045 0
M  V30 4113 H 380.499 -5.25492 -4.26834 0
M  V30 4114 H 385.141 -2.47594 -3.4272 0
M  V30 4115 H 382.859 -6.84164 -4.30053 0
M  V30 4116 H 386.445 -4.57048 -3.59998 0
M  V30 4117 H 385.325 -6.72546 -4.033 0
M  V30 4118 N 382.828 1.3818 -0.7579 0
M  V30 4119 C 384.068 2.01864 -0.320968 0
M  V30 4120 C 384.432 1.58863 1.07827 0
M  V30 4121 O 385.633 2.14908 1.61456 0
M  V30 4122 C 383.904 3.54626 -0.44446 0
M  V30 4123 S 385.463 4.38706 -0.0907467 0
M  V30 4124 H 382.281 0.700056 -0.124268 0
M  V30 4125 H 384.883 1.68611 -0.989468 0
M  V30 4126 H 383.587 3.83411 -1.4637 0
M  V30 4127 H 383.118 3.92661 0.241073 0
M  V30 4128 H 385.133 4.83435 1.11826 0
M  V30 4129 N 384.306 0.507319 1.49211 0
M  V30 4130 C 385.216 -0.272136 2.33016 0
M  V30 4131 C 386.232 -0.961206 1.45041 0
M  V30 4132 O 387.408 -0.941191 1.78055 0
M  V30 4133 C 384.473 -1.31895 3.20631 0
M  V30 4134 C 383.534 -0.642648 4.24463 0
M  V30 4135 C 382.767 -1.63959 5.07891 0
M  V30 4136 O 382.99 -2.87007 4.92933 0
M  V30 4137 O 381.924 -1.19143 5.8999 0
M  V30 4138 H 385.75 0.413982 3.00865 0
M  V30 4139 H 383.335 0.268556 1.46966 0
M  V30 4140 H 385.217 -1.92446 3.7489 0
M  V30 4141 H 383.892 -1.98788 2.5547 0
M  V30 4142 H 382.799 0.00276252 3.741 0
M  V30 4143 H 384.132 -0.0160534 4.92197 0
M  V30 4144 N 385.784 -1.5574 0.241426 0
M  V30 4145 C 386.747 -2.19877 -0.647063 0
M  V30 4146 C 387.747 -1.16642 -1.10686 0
M  V30 4147 O 388.937 -1.41757 -1.01245 0
M  V30 4148 C 386.069 -2.83797 -1.88871 0
M  V30 4149 H 387.262 -2.99772 -0.087574 0
M  V30 4150 H 384.815 -1.56298 -0.00813574 0
M  V30 4151 H 385.55 -2.07824 -2.48957 0
M  V30 4152 H 385.335 -3.59414 -1.56728 0
M  V30 4153 H 386.825 -3.32898 -2.52129 0
M  V30 4154 N 387.262 0.0317525 -1.57568 0
M  V30 4155 C 388.225 1.01783 -2.0536 0
M  V30 4156 C 389.225 1.29203 -0.957253 0
M  V30 4157 O 390.415 1.24251 -1.22095 0
M  V30 4158 C 387.547 2.35137 -2.46827 0
M  V30 4159 H 388.74 0.605062 -2.93733 0
M  V30 4160 H 386.293 0.278514 -1.53799 0
M  V30 4161 H 387.028 2.81168 -1.61602 0
M  V30 4162 H 386.813 2.16566 -3.26866 0
M  V30 4163 H 388.303 3.05938 -2.84239 0
M  V30 4164 N 388.74 1.54641 0.303973 0
M  V30 4165 C 389.968 1.77768 1.05858 0
M  V30 4166 C 390.383 0.535722 1.8104 0
M  V30 4167 O 389.74 -0.494337 1.75677 0
M  V30 4168 C 389.791 2.9834 2.04146 0
M  V30 4169 O 389.512 4.17736 1.32015 0
M  V30 4170 C 391.013 3.33832 2.91669 0
M  V30 4171 H 388.233 0.592961 0.314067 0
M  V30 4172 H 390.777 2.01583 0.344149 0
M  V30 4173 H 388.932 2.76742 2.71096 0
M  V30 4174 H 389.346 4.85693 1.97998 0
M  V30 4175 H 390.82 4.21448 3.56491 0
M  V30 4176 H 391.297 2.51857 3.59812 0
M  V30 4177 H 391.903 3.57579 2.30254 0
M  V30 4178 N 390.218 -0.567019 1.47046 0
M  V30 4179 C 391.128 -1.70247 1.6141 0
M  V30 4180 C 392.144 -1.66746 0.497157 0
M  V30 4181 O 393.32 -1.86371 0.763389 0
M  V30 4182 C 390.385 -3.06756 1.61561 0
M  V30 4183 C 389.446 -3.21399 2.84607 0
M  V30 4184 C 388.679 -4.51396 2.84741 0
M  V30 4185 O 388.902 -5.36255 1.94388 0
M  V30 4186 O 387.836 -4.69621 3.76483 0
M  V30 4187 H 391.662 -1.61073 2.57467 0
M  V30 4188 H 389.247 -0.735894 1.30019 0
M  V30 4189 H 391.129 -3.8801 1.64396 0
M  V30 4190 H 389.804 -3.16333 0.686684 0
M  V30 4191 H 388.711 -2.39579 2.8732 0
M  V30 4192 H 390.044 -3.16721 3.76761 0
M  V30 4193 N 391.696 -1.35014 -0.812953 0
M  V30 4194 C 392.973 -1.18502 -1.55617 0
M  V30 4195 C 393.353 0.238421 -2.09749 0
M  V30 4196 O 392.701 1.2411 -1.91857 0
M  V30 4197 C 392.911 -2.24783 -2.66971 0
M  V30 4198 C 394.259 -2.60268 -3.35478 0
M  V30 4199 O 395.283 -2.23648 -2.77236 0
M  V30 4200 O 394.142 -3.2321 -4.40678 0
M  V30 4201 H 391.236 -0.459984 -0.687272 0
M  V30 4202 H 393.782 -1.46677 -0.853464 0
M  V30 4203 H 392.554 -3.20284 -2.24798 0
M  V30 4204 H 392.177 -1.97841 -3.44884 0
M  V30 4205 N 393.175 1.03435 -1.18907 0
M  V30 4206 C 394.423 1.76394 -0.986382 0
M  V30 4207 C 394.744 1.88883 0.484567 0
M  V30 4208 O 394.014 1.41843 1.3512 0
M  V30 4209 H 392.594 0.65344 -0.361975 0
M  V30 4210 H 395.256 1.248 -1.49703 0
M  V30 4211 H 394.352 2.77424 -1.42978 0
M  V30 4212 N 394.653 0.992116 1.22453 0
M  V30 4213 C 395.601 0.534644 2.26372 0
M  V30 4214 C 396.595 -0.414293 1.64256 0
M  V30 4215 O 397.801 -0.286899 1.77699 0
M  V30 4216 H 394.176 0.154502 0.735957 0
M  V30 4217 H 396.147 1.42256 2.62309 0
M  V30 4218 C 394.896 -0.135815 3.47435 0
M  V30 4219 H 394.219 0.585311 3.95492 0
M  V30 4220 H 395.659 -0.419374 4.21921 0
M  V30 4221 C 394.118 -1.37089 3.07747 0
M  V30 4222 O 394.648 -2.46629 3.17076 0
M  V30 4223 N 392.854 -1.24585 2.62539 0
M  V30 4224 H 392.401 -0.354542 2.55149 0
M  V30 4225 H 392.359 -2.07327 2.36353 0
M  V30 4226 N 396.131 -1.37776 0.765217 0
M  V30 4227 C 397.377 -2.00145 0.327072 0
M  V30 4228 C 397.71 -1.60607 -1.09175 0
M  V30 4229 O 396.985 -0.849127 -1.74986 0
M  V30 4230 C 397.268 -3.57109 0.46319 0
M  V30 4231 C 397.121 -4.06576 1.92395 0
M  V30 4232 C 398.44 -4.39888 -0.136473 0
M  V30 4233 H 395.559 -0.727113 0.120316 0
M  V30 4234 H 398.201 -1.63549 0.967039 0
M  V30 4235 H 396.351 -3.88414 -0.0816358 0
M  V30 4236 H 398.023 -3.85864 2.52798 0
M  V30 4237 H 396.266 -3.59011 2.43503 0
M  V30 4238 H 396.937 -5.15639 1.97028 0
M  V30 4239 H 399.413 -4.14803 0.328317 0
M  V30 4240 H 398.289 -5.48899 -0.0110582 0
M  V30 4241 H 398.55 -4.24758 -1.22608 0
M  V30 4242 N 397.609 -0.515225 -1.4894 0
M  V30 4243 C 398.539 0.244628 -2.32215 0
M  V30 4244 C 399.52 0.949136 -1.41157 0
M  V30 4245 O 400.705 0.937783 -1.70057 0
M  V30 4246 C 397.835 1.30096 -3.22013 0
M  V30 4247 C 396.789 0.715486 -4.21977 0
M  V30 4248 C 396.115 1.87339 -5.00808 0
M  V30 4249 C 397.415 -0.302982 -5.2142 0
M  V30 4250 H 399.109 -0.450501 -2.95991 0
M  V30 4251 H 396.655 -0.218098 -1.42339 0
M  V30 4252 H 398.608 1.84037 -3.79089 0
M  V30 4253 H 397.332 2.02547 -2.56207 0
M  V30 4254 H 395.991 0.197715 -3.66066 0
M  V30 4255 H 395.639 2.58592 -4.31438 0
M  V30 4256 H 395.339 1.48764 -5.68457 0
M  V30 4257 H 396.863 2.41686 -5.60732 0
M  V30 4258 H 398.277 0.148802 -5.73107 0
M  V30 4259 H 396.674 -0.60532 -5.97039 0
M  V30 4260 H 397.744 -1.21395 -4.69459 0
M  V30 4261 N 399.087 1.5561 -0.249682 0
M  V30 4262 C 400.034 2.21496 0.648694 0
M  V30 4263 C 401.004 1.17977 1.16921 0
M  V30 4264 O 402.189 1.46434 1.22318 0
M  V30 4265 C 399.329 2.92039 1.83868 0
M  V30 4266 C 398.442 4.10219 1.35442 0
M  V30 4267 C 397.577 4.6847 2.50419 0
M  V30 4268 C 396.616 5.78893 1.98869 0
M  V30 4269 N 395.753 6.31315 3.07223 0
M  V30 4270 H 400.593 2.97892 0.0801582 0
M  V30 4271 H 398.13 1.47074 0.0278031 0
M  V30 4272 H 400.088 3.31138 2.53778 0
M  V30 4273 H 398.718 2.18111 2.37965 0
M  V30 4274 H 397.77 3.76413 0.54928 0
M  V30 4275 H 399.082 4.89927 0.936649 0
M  V30 4276 H 398.236 5.10158 3.28366 0
M  V30 4277 H 396.975 3.87984 2.95499 0
M  V30 4278 H 395.98 5.3668 1.19393 0
M  V30 4279 H 397.205 6.61232 1.54755 0
M  V30 4280 H 395.151 5.53733 3.51732 0
M  V30 4281 H 395.068 7.06224 2.69784 0
M  V30 4282 H 396.336 6.77662 3.8522 0
M  V30 4283 N 400.565 -0.0233959 1.57583 0
M  V30 4284 C 401.981 -0.379134 1.55031 0
M  V30 4285 C 402.181 -1.76255 0.976548 0
M  V30 4286 O 401.237 -2.45266 0.600078 0
M  V30 4287 C 402.55 -0.275792 2.99433 0
M  V30 4288 C 404.098 -0.352458 3.11009 0
M  V30 4289 C 404.573 -0.278501 4.57152 0
M  V30 4290 N 406.064 -0.337123 4.61972 0
M  V30 4291 C 406.799 -0.302876 5.726 0
M  V30 4292 N 406.295 -0.220589 6.92449 0
M  V30 4293 N 408.088 -0.353023 5.6099 0
M  V30 4294 H 400.239 0.881869 1.93227 0
M  V30 4295 H 402.502 0.335867 0.886509 0
M  V30 4296 H 402.208 0.675108 3.4516 0
M  V30 4297 H 402.082 -1.06721 3.61788 0
M  V30 4298 H 404.469 -1.29379 2.65226 0
M  V30 4299 H 404.55 0.468409 2.51475 0
M  V30 4300 H 404.194 0.659189 5.03604 0
M  V30 4301 H 404.124 -1.11755 5.14605 0
M  V30 4302 H 406.615 -0.403002 3.75745 0
M  V30 4303 H 406.928 -0.199713 7.72542 0
M  V30 4304 H 405.273 -0.186555 6.9475 0
M  V30 4305 H 408.464 -0.415339 4.66254 0
M  V30 4306 H 408.637 -0.322866 6.47195 0
M  V30 4307 N 402.043 -1.548 -0.295768 0
M  V30 4308 C 403.268 -1.78653 -1.05346 0
M  V30 4309 C 403.693 -0.546894 -1.79974 0
M  V30 4310 O 403.051 0.502763 -1.7419 0
M  V30 4311 C 403.099 -2.99679 -2.00561 0
M  V30 4312 O 402.203 -2.7317 -3.08953 0
M  V30 4313 H 401.544 -0.59116 -0.302367 0
M  V30 4314 H 404.074 -2.01895 -0.331598 0
M  V30 4315 H 404.084 -3.27793 -2.42932 0
M  V30 4316 H 402.759 -3.89562 -1.4565 0
M  V30 4317 H 401.336 -2.56089 -2.71059 0
M  V30 4318 N 403.521 0.559213 -1.47345 0
M  V30 4319 C 404.932 1.14134 -1.47751 0
M  V30 4320 C 405.283 1.94834 -0.231103 0
M  V30 4321 O 404.408 2.05957 0.664137 0
M  V30 4322 C 405.003 2.07653 -2.67705 0
M  V30 4323 C 403.562 2.61141 -2.71076 0
M  V30 4324 C 402.709 1.3748 -2.40821 0
M  V30 4325 H 405.66 0.345917 -1.54884 0
M  V30 4326 H 405.681 2.91497 -2.44561 0
M  V30 4327 H 405.193 1.4889 -3.58404 0
M  V30 4328 H 403.294 3.23707 -1.84511 0
M  V30 4329 H 403.407 3.02272 -3.7171 0
M  V30 4330 H 401.771 1.68086 -1.91362 0
M  V30 4331 H 402.554 0.805135 -3.33725 0
M  V30 4332 N 404.999 1.35443 0.805782 0
M  V30 4333 C 405.909 1.30546 1.94923 0
M  V30 4334 C 406.925 0.210233 1.72725 0
M  V30 4335 O 408.101 0.43975 1.9654 0
M  V30 4336 C 405.166 1.07782 3.29521 0
M  V30 4337 C 404.227 2.26625 3.64609 0
M  V30 4338 C 403.46 2.04938 4.92784 0
M  V30 4339 O 403.683 1.01624 5.61274 0
M  V30 4340 O 402.617 2.9232 5.26149 0
M  V30 4341 H 406.443 2.26779 2.02002 0
M  V30 4342 H 404.028 1.15823 0.943682 0
M  V30 4343 H 405.91 0.969392 4.10098 0
M  V30 4344 H 404.585 0.146003 3.23371 0
M  V30 4345 H 403.492 2.43033 2.84404 0
M  V30 4346 H 404.825 3.18257 3.75464 0
M  V30 4347 N 406.477 -1.02803 1.19454 0
M  V30 4348 C 407.407 -2.12999 0.956758 0
M  V30 4349 C 408.388 -1.69743 -0.110188 0
M  V30 4350 O 409.573 -1.94148 0.0450038 0
M  V30 4351 C 406.703 -3.43746 0.495553 0
M  V30 4352 C 405.657 -4.00688 1.50443 0
M  V30 4353 C 404.983 -5.27067 0.900275 0
M  V30 4354 C 406.283 -4.35397 2.8849 0
M  V30 4355 H 407.977 -2.33148 1.87836 0
M  V30 4356 H 405.523 -1.12045 0.904539 0
M  V30 4357 H 407.476 -4.2021 0.316493 0
M  V30 4358 H 406.2 -3.23321 -0.461646 0
M  V30 4359 H 404.859 -3.2632 1.67065 0
M  V30 4360 H 404.507 -5.02959 -0.064503 0
M  V30 4361 H 404.207 -5.66127 1.57397 0
M  V30 4362 H 405.731 -6.06196 0.73203 0
M  V30 4363 H 407.145 -5.02795 2.75446 0
M  V30 4364 H 405.542 -4.85541 3.52661 0
M  V30 4365 H 406.612 -3.44662 3.41081 0
M  V30 4366 N 407.956 -0.998596 -1.21925 0
M  V30 4367 C 408.866 -0.562736 -2.27751 0
M  V30 4368 C 409.882 0.391203 -1.69545 0
M  V30 4369 O 411.058 0.256625 -1.99758 0
M  V30 4370 C 408.123 0.11012 -3.46525 0
M  V30 4371 C 407.184 -0.887495 -4.20026 0
M  V30 4372 C 406.417 -0.246654 -5.3313 0
M  V30 4373 O 406.64 0.958088 -5.62296 0
M  V30 4374 O 405.574 -0.954374 -5.94286 0
M  V30 4375 H 409.4 -1.44329 -2.67213 0
M  V30 4376 H 406.985 -0.767135 -1.28201 0
M  V30 4377 H 408.867 0.486756 -4.18579 0
M  V30 4378 H 407.542 0.965154 -3.08976 0
M  V30 4379 H 406.449 -1.31517 -3.5022 0
M  V30 4380 H 407.782 -1.71191 -4.6147 0
M  V30 4381 N 409.434 1.37368 -0.772513 0
M  V30 4382 C 410.364 2.32856 -0.173304 0
M  V30 4383 C 411.345 1.55818 0.682262 0
M  V30 4384 O 412.53 1.84052 0.619566 0
M  V30 4385 C 409.66 3.40048 0.706007 0
M  V30 4386 C 408.614 4.27973 -0.0483144 0
M  V30 4387 C 407.94 5.26184 0.950491 0
M  V30 4388 C 409.24 5.07665 -1.22776 0
M  V30 4389 H 410.934 2.83217 -0.971002 0
M  V30 4390 H 408.48 1.3617 -0.468377 0
M  V30 4391 H 410.433 4.05827 1.13501 0
M  V30 4392 H 409.157 2.88214 1.53623 0
M  V30 4393 H 407.816 3.63726 -0.458107 0
M  V30 4394 H 407.464 4.7063 1.77529 0
M  V30 4395 H 407.164 5.85872 0.450314 0
M  V30 4396 H 408.688 5.94838 1.37842 0
M  V30 4397 H 410.102 5.66578 -0.875366 0
M  V30 4398 H 408.499 5.76681 -1.66007 0
M  V30 4399 H 409.569 4.40294 -2.03149 0
M  V30 4400 N 410.912 0.523116 1.48665 0
M  V30 4401 C 411.844 -0.280421 2.27478 0
M  V30 4402 C 412.857 -0.910694 1.34945 0
M  V30 4403 O 414.046 -0.790295 1.60052 0
M  V30 4404 C 411.146 -1.41171 3.08097 0
M  V30 4405 C 410.319 -0.884642 4.28361 0
M  V30 4406 C 409.378 -1.89622 4.90846 0
M  V30 4407 O 408.404 -1.4559 5.50265 0
M  V30 4408 N 409.606 -3.22801 4.82472 0
M  V30 4409 H 412.371 0.395481 2.97079 0
M  V30 4410 H 409.932 0.357018 1.57915 0
M  V30 4411 H 411.924 -2.08645 3.4677 0
M  V30 4412 H 410.494 -1.99139 2.40961 0
M  V30 4413 H 409.714 -0.0341177 3.94185 0
M  V30 4414 H 411.002 -0.511268 5.06225 0
M  V30 4415 H 410.4 -3.61246 4.35336 0
M  V30 4416 H 408.957 -3.85927 5.25265 0
M  V30 4417 N 412.39 -1.55475 0.257931 0
M  V30 4418 C 413.636 -1.99502 -0.364266 0
M  V30 4419 C 413.969 -1.146 -1.56782 0
M  V30 4420 O 413.244 -0.211968 -1.93342 0
M  V30 4421 C 413.527 -3.51917 -0.763333 0
M  V30 4422 C 413.38 -4.4758 0.446371 0
M  V30 4423 C 414.699 -4.09742 -1.60623 0
M  V30 4424 H 411.818 -0.725277 -0.130929 0
M  V30 4425 H 414.46 -1.8653 0.361446 0
M  V30 4426 H 412.61 -3.63101 -1.38166 0
M  V30 4427 H 414.282 -4.48362 1.08487 0
M  V30 4428 H 412.525 -4.19947 1.08753 0
M  V30 4429 H 413.196 -5.51862 0.123645 0
M  V30 4430 H 415.672 -4.01727 -1.08418 0
M  V30 4431 H 414.548 -5.16631 -1.85429 0
M  V30 4432 H 414.809 -3.58889 -2.58169 0
M  V30 4433 N 413.868 0.0150385 -1.57593 0
M  V30 4434 C 414.798 1.01047 -2.10503 0
M  V30 4435 C 415.779 1.36816 -1.01071 0
M  V30 4436 O 416.964 1.45455 -1.28672 0
M  V30 4437 C 414.094 2.30708 -2.59598 0
M  V30 4438 C 413.048 2.09142 -3.73421 0
M  V30 4439 C 412.374 3.44685 -4.08774 0
M  V30 4440 C 413.674 1.46619 -5.01298 0
M  V30 4441 H 415.368 0.569978 -2.93925 0
M  V30 4442 H 412.914 0.272724 -1.41394 0
M  V30 4443 H 414.867 3.00687 -2.95238 0
M  V30 4444 H 413.591 2.76843 -1.73279 0
M  V30 4445 H 412.25 1.41592 -3.38153 0
M  V30 4446 H 411.898 3.88495 -3.195 0
M  V30 4447 H 411.598 3.31077 -4.8545 0
M  V30 4448 H 413.122 4.16004 -4.4696 0
M  V30 4449 H 414.536 2.06535 -5.34805 0
M  V30 4450 H 412.933 1.43544 -5.82679 0
M  V30 4451 H 414.003 0.433611 -4.82957 0
M  V30 4452 N 415.346 1.54954 0.287554 0
M  V30 4453 C 416.594 1.74528 1.01904 0
M  V30 4454 C 416.915 0.541349 1.87335 0
M  V30 4455 O 416.185 -0.444108 1.908 0
M  V30 4456 H 414.765 0.643576 0.379235 0
M  V30 4457 H 417.427 1.92333 0.315294 0
M  V30 4458 H 416.523 2.64015 1.6644 0
M  V30 4459 N 416.824 -0.551391 1.4764 0
M  V30 4460 C 417.754 -1.66757 1.63445 0
M  V30 4461 C 418.735 -1.63077 0.483742 0
M  V30 4462 O 419.92 -1.80607 0.71377 0
M  V30 4463 C 417.05 -3.05387 1.65396 0
M  V30 4464 C 416.004 -3.23918 2.79752 0
M  V30 4465 C 415.33 -4.63393 2.66779 0
M  V30 4466 C 416.63 -3.08735 4.21284 0
M  V30 4467 H 418.324 -1.53786 2.56886 0
M  V30 4468 H 415.87 -0.738415 1.23626 0
M  V30 4469 H 417.823 -3.83325 1.75043 0
M  V30 4470 H 416.547 -3.19332 0.685195 0
M  V30 4471 H 415.206 -2.48391 2.69625 0
M  V30 4472 H 414.854 -4.74144 1.67918 0
M  V30 4473 H 414.554 -4.7674 3.43501 0
M  V30 4474 H 416.078 -5.43458 2.78364 0
M  V30 4475 H 417.492 -3.76484 4.32357 0
M  V30 4476 H 415.889 -3.33588 4.98838 0
M  V30 4477 H 416.959 -2.0541 4.39243 0
M  V30 4478 N 418.302 -1.35869 -0.798587 0
M  V30 4479 C 419.234 -1.25305 -1.91915 0
M  V30 4480 C 420.247 -0.174548 -1.61862 0
M  V30 4481 O 421.436 -0.428499 -1.73281 0
M  V30 4482 C 418.536 -0.9086 -3.26493 0
M  V30 4483 C 417.709 -2.08711 -3.84394 0
M  V30 4484 C 416.768 -1.71717 -4.97393 0
M  V30 4485 O 415.794 -2.43692 -5.14396 0
M  V30 4486 N 416.996 -0.645473 -5.769 0
M  V30 4487 H 419.761 -2.21849 -2.01502 0
M  V30 4488 H 417.322 -1.29143 -0.976408 0
M  V30 4489 H 419.314 -0.642455 -3.99568 0
M  V30 4490 H 417.884 -0.0325815 -3.12583 0
M  V30 4491 H 417.104 -2.51659 -3.03416 0
M  V30 4492 H 418.392 -2.87468 -4.19809 0
M  V30 4493 H 417.79 -0.047648 -5.6568 0
M  V30 4494 H 416.347 -0.43913 -6.50319 0
M  V30 4495 N 419.78 1.02168 -1.19998 0
M  V30 4496 C 420.71 2.12488 -0.96804 0
M  V30 4497 C 421.691 1.69799 0.101185 0
M  V30 4498 O 422.876 1.94121 -0.0552993 0
M  V30 4499 C 420.006 3.43479 -0.513776 0
M  V30 4500 C 418.96 3.99884 -1.52566 0
M  V30 4501 C 418.286 5.26582 -0.928214 0
M  V30 4502 C 419.586 4.33861 -2.90795 0
M  V30 4503 H 421.28 2.32149 -1.89069 0
M  V30 4504 H 418.826 1.11564 -0.910468 0
M  V30 4505 H 420.779 4.20036 -0.338774 0
M  V30 4506 H 419.503 3.23561 0.444493 0
M  V30 4507 H 418.162 3.25429 -1.68794 0
M  V30 4508 H 417.81 5.02986 0.0378289 0
M  V30 4509 H 417.51 5.65284 -1.60397 0
M  V30 4510 H 419.034 6.05799 -0.764167 0
M  V30 4511 H 420.448 5.01327 -2.78109 0
M  V30 4512 H 418.845 4.83664 -3.55231 0
M  V30 4513 H 419.915 3.42848 -3.42904 0
M  V30 4514 N 421.258 1.00505 1.21394 0
M  V30 4515 C 422.669 0.721082 1.72213 0
M  V30 4516 C 423.02 -0.761263 1.80829 0
M  V30 4517 O 422.145 -1.59464 1.46288 0
M  V30 4518 C 422.74 1.30228 3.12772 0
M  V30 4519 C 421.299 1.06743 3.60947 0
M  V30 4520 C 420.446 1.41507 2.38477 0
M  V30 4521 H 423.397 1.17594 1.06571 0
M  V30 4522 H 423.418 0.686955 3.74247 0
M  V30 4523 H 422.93 2.38115 3.06468 0
M  V30 4524 H 421.031 0.00572162 3.726 0
M  V30 4525 H 421.144 1.73936 4.46411 0
M  V30 4526 H 419.508 0.833852 2.40664 0
M  V30 4527 H 420.291 2.50424 2.34824 0
M  V30 4528 N 422.737 -1.36956 0.779787 0
M  V30 4529 C 423.965 -2.03755 0.359398 0
M  V30 4530 C 424.38 -1.58807 -1.02106 0
M  V30 4531 O 423.737 -0.773024 -1.6532 0
M  V30 4532 C 423.788 -3.59251 0.402568 0
M  V30 4533 O 423.509 -4.02557 1.72858 0
M  V30 4534 C 425.01 -4.43291 -0.0284068 0
M  V30 4535 H 422.23 -0.654148 0.149437 0
M  V30 4536 H 424.774 -1.75128 1.05595 0
M  V30 4537 H 422.929 -3.86621 -0.245478 0
M  V30 4538 H 423.343 -4.97111 1.67275 0
M  V30 4539 H 424.817 -5.51975 0.0529466 0
M  V30 4540 H 425.294 -4.25719 -1.07982 0
M  V30 4541 H 425.9 -4.21163 0.591758 0
M  V30 4542 N 424.215 -0.530993 -1.48385 0
M  V30 4543 C 425.626 -0.0907905 -1.86479 0
M  V30 4544 C 425.977 1.33213 -1.44044 0
M  V30 4545 O 425.102 1.99783 -0.831615 0
M  V30 4546 C 425.697 -0.157987 -3.38431 0
M  V30 4547 C 424.256 0.227026 -3.75715 0
M  V30 4548 C 423.403 -0.5173 -2.72432 0
M  V30 4549 H 426.354 -0.742186 -1.40276 0
M  V30 4550 H 426.375 0.630053 -3.75247 0
M  V30 4551 H 425.887 -1.19372 -3.69286 0
M  V30 4552 H 423.988 1.26486 -3.50474 0
M  V30 4553 H 424.101 -0.113288 -4.78966 0
M  V30 4554 H 422.465 0.0365527 -2.54674 0
M  V30 4555 H 423.248 -1.55368 -3.0613 0
M  V30 4556 N 425.693 1.55336 -0.266172 0
M  V30 4557 C 426.939 1.99692 0.353681 0
M  V30 4558 C 427.272 1.1543 1.56172 0
M  V30 4559 O 426.547 0.222218 1.93226 0
M  V30 4560 C 426.83 3.52316 0.74466 0
M  V30 4561 C 426.683 4.47337 -0.470101 0
M  V30 4562 C 428.002 4.10588 1.58447 0
M  V30 4563 H 425.121 0.725961 0.12708 0
M  V30 4564 H 427.763 1.86336 -0.371333 0
M  V30 4565 H 425.913 3.63829 1.36239 0
M  V30 4566 H 427.585 4.4778 -1.10864 0
M  V30 4567 H 425.828 4.19364 -1.10978 0
M  V30 4568 H 426.499 5.51788 -0.15291 0
M  V30 4569 H 428.975 4.02297 1.06286 0
M  V30 4570 H 427.851 5.17607 1.82686 0
M  V30 4571 H 428.112 3.60253 2.56262 0
M  V30 4572 N 427.171 -0.0066808 1.57599 0
M  V30 4573 C 428.417 -0.68835 1.91398 0
M  V30 4574 C 428.772 -1.7175 0.86716 0
M  V30 4575 O 428.065 -1.91215 -0.121475 0
M  V30 4576 C 428.259 -1.37939 3.29708 0
M  V30 4577 C 428.088 -0.418689 4.47747 0
M  V30 4578 C 426.858 -0.031526 5.0529 0
M  V30 4579 C 429.056 0.312301 5.13351 0
M  V30 4580 N 427.038 0.928088 6.06844 0
M  V30 4581 C 428.409 1.12682 6.09674 0
M  V30 4582 C 430.464 0.376853 4.96472 0
M  V30 4583 C 429.167 2 6.90936 0
M  V30 4584 C 431.193 1.23723 5.78314 0
M  V30 4585 C 430.555 2.03962 6.74225 0
M  V30 4586 H 426.654 -0.225292 0.748844 0
M  V30 4587 H 429.238 0.0520973 1.9463 0
M  V30 4588 H 427.409 -2.09017 3.27363 0
M  V30 4589 H 429.141 -2.01522 3.50957 0
M  V30 4590 H 425.896 -0.398485 4.71921 0
M  V30 4591 H 426.32 1.40307 6.62301 0
M  V30 4592 H 430.962 -0.22921 4.22178 0
M  V30 4593 H 428.68 2.61676 7.64559 0
M  V30 4594 H 432.266 1.291 5.67296 0
M  V30 4595 H 431.146 2.69461 7.36451 0
M  V30 4596 N 428.649 -1.55105 -0.279332 0
M  V30 4597 C 429.896 -1.75412 -1.01177 0
M  V30 4598 C 430.224 -0.551728 -1.86511 0
M  V30 4599 O 429.479 0.465919 -1.90073 0
M  V30 4600 C 429.778 -3.0086 -1.92919 0
M  V30 4601 C 429.444 -4.33689 -1.23387 0
M  V30 4602 C 428.106 -4.69792 -1.04159 0
M  V30 4603 C 430.458 -5.15941 -0.738562 0
M  V30 4604 C 427.786 -5.85707 -0.341166 0
M  V30 4605 C 430.138 -6.32579 -0.0517636 0
M  V30 4606 C 428.802 -6.67326 0.152292 0
M  V30 4607 H 428.072 -0.641879 -0.370233 0
M  V30 4608 H 430.719 -1.89373 -0.284627 0
M  V30 4609 H 429.024 -2.81773 -2.72234 0
M  V30 4610 H 430.721 -3.13768 -2.49701 0
M  V30 4611 H 427.311 -4.05309 -1.39364 0
M  V30 4612 H 431.495 -4.8853 -0.874764 0
M  V30 4613 H 426.751 -6.11157 -0.172287 0
M  V30 4614 H 430.925 -6.9557 0.339828 0
M  V30 4615 H 428.552 -7.56998 0.697014 0
M  V30 4616 N 430.127 0.543554 -1.4793 0
M  V30 4617 C 431.077 1.64527 -1.57844 0
M  V30 4618 C 432.061 1.54869 -0.436408 0
M  V30 4619 O 433.253 1.63119 -0.687101 0
M  V30 4620 C 430.382 3.03281 -1.6086 0
M  V30 4621 C 429.468 3.18093 -2.80495 0
M  V30 4622 N 429.859 3.02923 -4.05057 0
M  V30 4623 C 428.157 3.49121 -2.77543 0
M  V30 4624 C 428.858 3.20791 -4.85251 0
M  V30 4625 N 427.834 3.47749 -4.17818 0
M  V30 4626 H 431.636 1.51388 -2.5191 0
M  V30 4627 H 429.15 0.748671 -1.44113 0
M  V30 4628 H 431.147 3.82403 -1.66054 0
M  V30 4629 H 429.807 3.17521 -0.678996 0
M  V30 4630 H 430.818 2.79966 -4.35705 0
M  V30 4631 H 427.495 3.69804 -1.93781 0
M  V30 4632 H 428.885 3.13915 -5.9406 0
M  V30 4633 N 431.605 1.3629 0.791371 0
M  V30 4634 C 432.851 1.30605 1.55146 0
M  V30 4635 C 433.184 -0.115042 1.93859 0
M  V30 4636 O 432.459 -1.06798 1.62556 0
M  V30 4637 C 432.742 2.22692 2.82985 0
M  V30 4638 C 432.595 3.73489 2.50651 0
M  V30 4639 C 433.914 2.13588 3.84796 0
M  V30 4640 H 431.033 0.475761 0.562868 0
M  V30 4641 H 433.675 1.66825 0.909358 0
M  V30 4642 H 431.825 1.91933 3.37778 0
M  V30 4643 H 433.497 4.14758 2.01924 0
M  V30 4644 H 431.74 3.93021 1.83622 0
M  V30 4645 H 432.411 4.3333 3.41949 0
M  V30 4646 H 434.887 2.40659 3.39445 0
M  V30 4647 H 433.763 2.80195 4.71998 0
M  V30 4648 H 434.024 1.12256 4.27611 0
M  V30 4649 N 433.083 -1.0153 1.20538 0
M  V30 4650 C 434.013 -2.11972 0.979295 0
M  V30 4651 C 434.994 -1.6985 -0.0921787 0
M  V30 4652 O 436.179 -1.94089 0.0655932 0
M  V30 4653 C 433.309 -3.43201 0.531984 0
M  V30 4654 C 432.263 -3.9907 1.54685 0
M  V30 4655 C 431.589 -5.26082 0.956127 0
M  V30 4656 C 432.889 -4.32313 2.93092 0
M  V30 4657 H 434.583 -2.31143 1.90298 0
M  V30 4658 H 432.129 -1.11079 0.916372 0
M  V30 4659 H 434.082 -4.1985 0.361044 0
M  V30 4660 H 432.806 -3.23792 -0.427327 0
M  V30 4661 H 431.465 -3.2453 1.70517 0
M  V30 4662 H 431.113 -5.02999 -0.0111538 0
M  V30 4663 H 430.813 -5.64426 1.63393 0
M  V30 4664 H 432.337 -6.05386 0.796284 0
M  V30 4665 H 433.751 -4.99845 2.80763 0
M  V30 4666 H 432.148 -4.81774 3.57791 0
M  V30 4667 H 433.218 -3.41025 3.44717 0
M  V30 4668 N 434.561 -1.01147 -1.20859 0
M  V30 4669 C 435.808 -0.697865 -1.90095 0
M  V30 4670 C 436.136 0.772014 -1.78522 0
M  V30 4671 O 435.391 1.57595 -1.16027 0
M  V30 4672 C 435.69 -1.0727 -3.40922 0
M  V30 4673 C 435.356 -2.53792 -3.72693 0
M  V30 4674 C 434.018 -2.93829 -3.81075 0
M  V30 4675 C 436.37 -3.48674 -3.87397 0
M  V30 4676 C 433.698 -4.27696 -4.01613 0
M  V30 4677 C 436.05 -4.82223 -4.09444 0
M  V30 4678 C 434.714 -5.21973 -4.16054 0
M  V30 4679 H 433.984 -0.255367 -0.695607 0
M  V30 4680 H 436.631 -1.27111 -1.43231 0
M  V30 4681 H 434.936 -0.417799 -3.89566 0
M  V30 4682 H 436.633 -0.807818 -3.92779 0
M  V30 4683 H 433.223 -2.21768 -3.66765 0
M  V30 4684 H 437.407 -3.18904 -3.80281 0
M  V30 4685 H 432.663 -4.58055 -4.04964 0
M  V30 4686 H 436.837 -5.55672 -4.19763 0
M  V30 4687 H 434.464 -6.25717 -4.31721 0
M  V30 4688 N 436.039 1.36541 -0.78704 0
M  V30 4689 C 437.269 2.03266 -0.369662 0
M  V30 4690 C 437.677 1.59481 1.01796 0
M  V30 4691 O 437.02 0.778612 1.66383 0
M  V30 4692 C 437.082 3.57779 -0.351371 0
M  V30 4693 C 436.746 4.24756 -1.68617 0
M  V30 4694 C 437.743 4.47811 -2.64124 0
M  V30 4695 C 435.428 4.62277 -1.96481 0
M  V30 4696 C 437.422 5.07464 -3.85693 0
M  V30 4697 C 435.109 5.21649 -3.18317 0
M  V30 4698 C 436.107 5.44182 -4.12741 0
M  V30 4699 O 435.795 6.02307 -5.32429 0
M  V30 4700 H 435.527 0.658977 -0.150751 0
M  V30 4701 H 438.081 1.75548 -1.0664 0
M  V30 4702 H 436.311 3.84606 0.401847 0
M  V30 4703 H 438 4.05879 0.0410147 0
M  V30 4704 H 438.766 4.19221 -2.43883 0
M  V30 4705 H 434.645 4.44065 -1.23805 0
M  V30 4706 H 438.189 5.24968 -4.59407 0
M  V30 4707 H 434.086 5.49664 -3.38437 0
M  V30 4708 H 434.854 6.20775 -5.33461 0
M  V30 4709 N 437.518 0.538854 1.48102 0
M  V30 4710 C 438.448 -0.207654 2.32575 0
M  V30 4711 C 439.429 -0.926559 1.4265 0
M  V30 4712 O 440.614 -0.91061 1.71527 0
M  V30 4713 C 437.744 -1.24957 3.24042 0
M  V30 4714 C 436.698 -0.648263 4.23062 0
M  V30 4715 C 436.024 -1.79348 5.03725 0
M  V30 4716 C 437.324 0.385897 5.20872 0
M  V30 4717 H 439.018 0.497534 2.95237 0
M  V30 4718 H 436.564 0.240715 1.41974 0
M  V30 4719 H 438.517 -1.77983 3.81969 0
M  V30 4720 H 437.241 -1.98446 2.59397 0
M  V30 4721 H 435.9 -0.139452 3.66335 0
M  V30 4722 H 435.548 -2.51696 4.35498 0
M  V30 4723 H 435.248 -1.39702 5.70751 0
M  V30 4724 H 436.772 -2.32735 5.64506 0
M  V30 4725 H 438.186 -0.057607 5.73271 0
M  V30 4726 H 436.583 0.700227 5.96001 0
M  V30 4727 H 437.653 1.28848 4.67468 0
M  V30 4728 N 438.996 -1.55193 0.274407 0
M  V30 4729 C 439.959 -2.212 -0.600279 0
M  V30 4730 C 440.959 -1.18963 -1.08187 0
M  V30 4731 O 442.149 -1.43873 -0.982158 0
M  V30 4732 C 439.281 -2.87739 -1.82809 0
M  V30 4733 H 440.474 -2.9989 -0.0239682 0
M  V30 4734 H 438.027 -1.5628 0.0250192 0
M  V30 4735 H 438.762 -2.13058 -2.44493 0
M  V30 4736 H 438.547 -3.62658 -1.49069 0
M  V30 4737 H 440.037 -3.38171 -2.45011 0
M  V30 4738 N 440.474 -0.00167713 -1.576 0
M  V30 4739 C 441.72 0.683832 -1.90923 0
M  V30 4740 C 442.053 1.7333 -0.875799 0
M  V30 4741 O 441.328 1.94215 0.10525 0
M  V30 4742 C 441.611 1.32543 -3.3482 0
M  V30 4743 C 441.464 0.287387 -4.48881 0
M  V30 4744 C 442.783 2.25114 -3.78169 0
M  V30 4745 H 439.902 0.247125 -0.694333 0
M  V30 4746 H 442.544 -0.0533149 -1.89925 0
M  V30 4747 H 440.694 1.95372 -3.35801 0
M  V30 4748 H 442.366 -0.341346 -4.60035 0
M  V30 4749 H 440.609 -0.39017 -4.32042 0
M  V30 4750 H 441.28 0.775393 -5.46527 0
M  V30 4751 H 443.756 1.723 -3.7875 0
M  V30 4752 H 442.632 2.66971 -4.79602 0
M  V30 4753 H 442.893 3.13092 -3.12131 0
M  V30 4754 N 441.952 1.55251 0.271103 0
M  V30 4755 C 443.2 1.75599 1.00047 0
M  V30 4756 C 443.521 0.561188 1.8675 0
M  V30 4757 O 442.791 -0.423846 1.9126 0
M  V30 4758 H 441.371 0.647562 0.372387 0
M  V30 4759 H 444.033 1.92656 0.294876 0
M  V30 4760 H 443.129 2.65766 1.6363 0
M  V30 4761 N 443.43 -0.535701 1.48216 0
M  V30 4762 C 444.679 -1.28828 1.55197 0
M  V30 4763 C 444.992 -1.94263 0.228278 0
M  V30 4764 O 446.198 -2.70927 0.176278 0
M  V30 4765 C 444.654 -2.33727 2.73678 0
M  V30 4766 C 444.262 -1.74386 4.12666 0
M  V30 4767 C 446.006 -3.1003 2.89968 0
M  V30 4768 C 443.913 -2.77192 5.22416 0
M  V30 4769 H 442.843 -0.484484 0.577747 0
M  V30 4770 H 445.494 -0.56646 1.74538 0
M  V30 4771 H 443.876 -3.08919 2.4776 0
M  V30 4772 H 445.05 -1.05421 4.48579 0
M  V30 4773 H 443.365 -1.10595 4.01445 0
M  V30 4774 H 445.962 -3.86842 3.6913 0
M  V30 4775 H 446.305 -3.65542 1.9921 0
M  V30 4776 H 446.838 -2.41952 3.15759 0
M  V30 4777 H 443.577 -2.26507 6.15122 0
M  V30 4778 H 443.097 -3.44502 4.90998 0
M  V30 4779 H 444.776 -3.40285 5.50286 0
M  V30 4780 N 444.908 -1.36708 -0.784132 0
M  V30 4781 C 445.841 -1.25827 -1.90375 0
M  V30 4782 C 446.819 -0.141331 -1.61985 0
M  V30 4783 O 448.003 -0.313389 -1.85877 0
M  V30 4784 C 445.13 -0.942621 -3.25319 0
M  V30 4785 C 444.176 -2.07474 -3.72635 0
M  V30 4786 S 445.009 -3.69317 -3.8777 0
M  V30 4787 C 446.165 -3.39876 -5.25581 0
M  V30 4788 H 446.398 -2.20593 -1.99314 0
M  V30 4789 H 443.931 -1.22186 -0.943926 0
M  V30 4790 H 445.889 -0.767321 -4.03265 0
M  V30 4791 H 444.55 -0.0126566 -3.14097 0
M  V30 4792 H 443.743 -1.80858 -4.70432 0
M  V30 4793 H 443.345 -2.20953 -3.01754 0
M  V30 4794 H 445.637 -2.94097 -6.10339 0
M  V30 4795 H 446.58 -4.36956 -5.57203 0
M  V30 4796 H 446.988 -2.75098 -4.92931 0
M  V30 4797 N 446.386 1.0089 -1.21074 0
M  V30 4798 C 447.633 1.74607 -1.0256 0
M  V30 4799 C 447.961 1.89426 0.44136 0
M  V30 4800 O 447.216 1.42266 1.34384 0
M  V30 4801 C 447.515 3.16335 -1.66334 0
M  V30 4802 C 447.181 3.21474 -3.16173 0
M  V30 4803 C 445.843 3.22583 -3.57062 0
M  V30 4804 C 448.195 3.19025 -4.12156 0
M  V30 4805 C 445.523 3.18925 -4.92446 0
M  V30 4806 C 447.875 3.16909 -5.47496 0
M  V30 4807 C 446.539 3.16326 -5.87787 0
M  V30 4808 H 445.809 0.638933 -0.375294 0
M  V30 4809 H 448.456 1.18274 -1.50611 0
M  V30 4810 H 446.761 3.75876 -1.10566 0
M  V30 4811 H 448.458 3.72083 -1.49516 0
M  V30 4812 H 445.048 3.2135 -2.83605 0
M  V30 4813 H 449.232 3.17332 -3.81595 0
M  V30 4814 H 444.488 3.16809 -5.22917 0
M  V30 4815 H 448.662 3.13968 -6.21609 0
M  V30 4816 H 446.289 3.13246 -6.92662 0
M  V30 4817 N 447.864 1.01787 1.20321 0
M  V30 4818 C 448.794 0.609625 2.25401 0
M  V30 4819 C 449.775 -0.375951 1.65893 0
M  V30 4820 O 450.96 -0.261101 1.92437 0
M  V30 4821 C 448.09 -0.0515995 3.47262 0
M  V30 4822 C 447.044 0.855095 4.19371 0
M  V30 4823 C 446.37 0.0595757 5.34667 0
M  V30 4824 C 447.67 2.16374 4.75373 0
M  V30 4825 H 449.364 1.48803 2.59804 0
M  V30 4826 H 446.91 0.716934 1.24884 0
M  V30 4827 H 448.863 -0.348764 4.19954 0
M  V30 4828 H 447.587 -0.964726 3.12027 0
M  V30 4829 H 446.246 1.13628 3.48546 0
M  V30 4830 H 445.894 -0.85524 4.95676 0
M  V30 4831 H 445.594 0.663406 5.83843 0
M  V30 4832 H 447.118 -0.231105 6.10162 0
M  V30 4833 H 448.532 1.92885 5.39878 0
M  V30 4834 H 446.929 2.71853 5.34991 0
M  V30 4835 H 447.999 2.82589 3.94045 0
M  V30 4836 N 449.342 -1.36122 0.79427 0
M  V30 4837 C 450.588 -1.99406 0.369452 0
M  V30 4838 C 450.921 -1.62886 -1.05743 0
M  V30 4839 O 450.196 -0.886053 -1.73145 0
M  V30 4840 C 450.479 -3.56046 0.538833 0
M  V30 4841 C 450.332 -4.02404 2.00976 0
M  V30 4842 C 451.651 -4.40079 -0.0431359 0
M  V30 4843 H 448.77 -0.724397 0.135712 0
M  V30 4844 H 451.412 -1.61461 1.00151 0
M  V30 4845 H 449.562 -3.885 0.000771004 0
M  V30 4846 H 451.234 -3.80415 2.60926 0
M  V30 4847 H 449.477 -3.53765 2.51063 0
M  V30 4848 H 450.148 -5.11344 2.07922 0
M  V30 4849 H 452.624 -4.14013 0.416228 0
M  V30 4850 H 451.5 -5.48799 0.105374 0
M  V30 4851 H 451.761 -4.27264 -1.13571 0
M  V30 4852 N 450.82 -0.546701 -1.47814 0
M  V30 4853 C 451.768 0.220048 -2.31557 0
M  V30 4854 C 452.762 0.919472 -1.42275 0
M  V30 4855 O 453.968 0.841953 -1.59095 0
M  V30 4856 H 450.343 0.0898334 -0.746615 0
M  V30 4857 H 452.314 -0.505589 -2.94086 0
M  V30 4858 C 451.063 1.24353 -3.24702 0
M  V30 4859 H 450.386 0.714758 -3.93359 0
M  V30 4860 H 451.826 1.75112 -3.8615 0
M  V30 4861 C 450.285 2.28593 -2.47481 0
M  V30 4862 O 450.815 3.35334 -2.21165 0
M  V30 4863 N 449.021 2.02244 -2.08676 0
M  V30 4864 H 448.568 1.15455 -2.30278 0
M  V30 4865 H 448.526 2.72207 -1.57323 0
M  V30 4866 N 452.299 1.55045 -0.282633 0
M  V30 4867 C 453.527 2.04168 0.33512 0
M  V30 4868 C 453.942 1.16071 1.48906 0
M  V30 4869 O 453.299 0.182391 1.81586 0
M  V30 4870 C 453.35 3.52332 0.808957 0
M  V30 4871 O 453.071 4.37078 -0.299038 0
M  V30 4872 C 454.572 4.17375 1.49375 0
M  V30 4873 H 451.792 0.666744 0.0754543 0
M  V30 4874 H 454.336 2.00205 -0.416918 0
M  V30 4875 H 452.491 3.56715 1.51106 0
M  V30 4876 H 452.905 5.24458 0.0665514 0
M  V30 4877 H 454.379 5.22627 1.77664 0
M  V30 4878 H 454.856 3.65999 2.42778 0
M  V30 4879 H 455.462 4.17016 0.835305 0
M  V30 4880 N 453.777 0.010035 1.57597 0
M  V30 4881 C 455.023 -0.673697 1.91283 0
M  V30 4882 C 455.356 -1.72863 0.884979 0
M  V30 4883 O 454.631 -1.94268 -0.0949487 0
M  V30 4884 C 454.914 -1.30766 3.35518 0
M  V30 4885 C 454.767 -0.263578 4.49027 0
M  V30 4886 C 456.086 -2.23105 3.79358 0
M  V30 4887 H 453.205 -0.243439 0.695634 0
M  V30 4888 H 455.847 0.0633864 1.89894 0
M  V30 4889 H 453.997 -1.93588 3.36832 0
M  V30 4890 H 455.669 0.365738 4.59848 0
M  V30 4891 H 453.912 0.413077 4.31829 0
M  V30 4892 H 454.583 -0.746398 5.4693 0
M  V30 4893 H 457.059 -1.70289 3.79659 0
M  V30 4894 H 455.935 -2.64424 4.81011 0
M  V30 4895 H 456.196 -3.11433 3.13787 0
M  V30 4896 N 455.255 -1.55392 -0.262866 0
M  V30 4897 C 456.185 -1.91978 -1.32917 0
M  V30 4898 C 457.166 -0.7828 -1.51017 0
M  V30 4899 O 458.351 -1.04178 -1.63892 0
M  V30 4900 C 455.481 -2.20055 -2.68687 0
M  V30 4901 C 454.435 -3.35854 -2.65304 0
M  V30 4902 C 453.761 -3.49435 -4.04721 0
M  V30 4903 C 455.061 -4.71977 -2.23685 0
M  V30 4904 H 456.755 -2.81292 -1.02544 0
M  V30 4905 H 454.301 -1.3534 -0.491846 0
M  V30 4906 H 456.254 -2.44237 -3.43404 0
M  V30 4907 H 454.978 -1.27551 -3.00663 0
M  V30 4908 H 453.637 -3.11655 -1.93045 0
M  V30 4909 H 453.285 -2.54379 -4.33936 0
M  V30 4910 H 452.985 -4.27297 -4.0335 0
M  V30 4911 H 454.509 -3.7592 -4.81161 0
M  V30 4912 H 455.923 -4.95637 -2.88127 0
M  V30 4913 H 454.32 -5.52828 -2.33456 0
M  V30 4914 H 455.39 -4.70115 -1.18827 0
M  V30 4915 N 456.733 0.527833 -1.48498 0
M  V30 4916 C 457.979 1.28295 -1.57836 0
M  V30 4917 C 458.334 1.9077 -0.249943 0
M  V30 4918 O 457.627 1.76421 0.747402 0
M  V30 4919 C 457.821 2.39275 -2.65485 0
M  V30 4920 C 457.65 1.87679 -4.08664 0
M  V30 4921 C 456.42 1.70187 -4.75778 0
M  V30 4922 C 458.618 1.40409 -4.94762 0
M  V30 4923 N 456.6 1.13238 -6.03366 0
M  V30 4924 C 457.971 0.954216 -6.12613 0
M  V30 4925 C 460.026 1.28732 -4.8097 0
M  V30 4926 C 458.729 0.39915 -7.18192 0
M  V30 4927 C 460.755 0.746244 -5.86673 0
M  V30 4928 C 460.117 0.306457 -7.03733 0
M  V30 4929 H 456.216 0.460408 -0.632099 0
M  V30 4930 H 458.8 0.594913 -1.85388 0
M  V30 4931 H 456.971 3.05572 -2.3975 0
M  V30 4932 H 458.703 3.06308 -2.64495 0
M  V30 4933 H 455.458 1.93772 -4.32145 0
M  V30 4934 H 455.882 0.867687 -6.71417 0
M  V30 4935 H 460.524 1.61338 -3.90807 0
M  V30 4936 H 458.242 0.0607678 -8.08077 0
M  V30 4937 H 461.828 0.659041 -5.78055 0
M  V30 4938 H 460.708 -0.105708 -7.84129 0
M  V30 4939 N 458.211 1.37122 0.776871 0
M  V30 4940 C 459.457 1.32243 1.53752 0
M  V30 4941 C 459.79 -0.0944745 1.9397 0
M  V30 4942 O 459.065 -1.05068 1.6368 0
M  V30 4943 C 459.348 2.25681 2.80607 0
M  V30 4944 C 459.201 3.76127 2.46676 0
M  V30 4945 C 460.52 2.17657 3.82509 0
M  V30 4946 H 457.639 0.481704 0.557791 0
M  V30 4947 H 460.281 1.6778 0.891612 0
M  V30 4948 H 458.431 1.95505 3.35723 0
M  V30 4949 H 460.103 4.16877 1.97513 0
M  V30 4950 H 458.346 3.94946 1.79443 0
M  V30 4951 H 459.017 4.36933 3.37333 0
M  V30 4952 H 461.493 2.44245 3.36873 0
M  V30 4953 H 460.369 2.85185 4.69 0
M  V30 4954 H 460.63 1.16785 4.26396 0
M  V30 4955 N 459.689 -1.00246 1.21608 0
M  V30 4956 C 460.917 -1.77631 1.06089 0
M  V30 4957 C 461.332 -1.84746 -0.38916 0
M  V30 4958 O 460.689 -1.31068 -1.26994 0
M  V30 4959 C 460.74 -3.21415 1.65453 0
M  V30 4960 O 460.461 -3.14703 3.04785 0
M  V30 4961 C 461.962 -4.15289 1.55079 0
M  V30 4962 H 459.182 -0.558162 0.37242 0
M  V30 4963 H 461.726 -1.26093 1.60999 0
M  V30 4964 H 459.881 -3.70053 1.14629 0
M  V30 4965 H 460.295 -4.05056 3.33212 0
M  V30 4966 H 461.769 -5.13965 2.01355 0
M  V30 4967 H 462.246 -4.36279 0.505665 0
M  V30 4968 H 462.852 -3.72543 2.05163 0
M  V30 4969 N 461.167 -1.02423 -1.1978 0
M  V30 4970 C 462.416 -0.713265 -1.88667 0
M  V30 4971 C 462.729 0.7609 -1.80193 0
M  V30 4972 O 463.935 1.18473 -2.44288 0
M  V30 4973 C 462.391 -1.22545 -3.38394 0
M  V30 4974 C 461.999 -2.72706 -3.55437 0
M  V30 4975 C 463.743 -0.990257 -4.12788 0
M  V30 4976 C 461.65 -3.17367 -4.99031 0
M  V30 4977 H 460.58 -0.263105 -0.706606 0
M  V30 4978 H 463.231 -1.23792 -1.35454 0
M  V30 4979 H 461.613 -0.628732 -3.90977 0
M  V30 4980 H 462.787 -3.37993 -3.13205 0
M  V30 4981 H 461.102 -2.94453 -2.94425 0
M  V30 4982 H 463.699 -1.29926 -5.18675 0
M  V30 4983 H 464.042 0.0730761 -4.16236 0
M  V30 4984 H 464.575 -1.55074 -3.66329 0
M  V30 4985 H 461.314 -4.23009 -5.00743 0
M  V30 4986 H 460.834 -2.56805 -5.42044 0
M  V30 4987 H 462.513 -3.10441 -5.67658 0
M  V30 4988 N 462.645 1.35699 -0.801477 0
M  V30 4989 C 464.061 1.52065 -0.484596 0
M  V30 4990 C 464.261 1.75215 0.995084 0
M  V30 4991 O 463.317 1.79061 1.78026 0
M  V30 4992 C 464.63 2.69908 -1.32552 0
M  V30 4993 C 466.178 2.83784 -1.32044 0
M  V30 4994 C 466.653 4.04646 -2.14536 0
M  V30 4995 N 468.144 4.11814 -2.12046 0
M  V30 4996 C 468.879 5.04437 -2.72636 0
M  V30 4997 N 468.375 6.02426 -3.42133 0
M  V30 4998 N 470.168 4.97144 -2.62305 0
M  V30 4999 H 462.319 1.18928 -1.75983 0
M  V30 5000 H 464.582 0.581455 -0.748741 0
M  V30 5001 H 464.288 2.59363 -2.37537 0
M  V30 5002 H 464.162 3.64376 -0.975181 0
M  V30 5003 H 466.549 2.93783 -0.27846 0
M  V30 5004 H 466.63 1.90188 -1.71062 0
M  V30 5005 H 466.274 3.95407 -3.18772 0
M  V30 5006 H 466.204 4.97413 -1.72882 0
M  V30 5007 H 468.695 3.41664 -1.61476 0
M  V30 5008 H 469.008 6.69688 -3.85666 0
M  V30 5009 H 467.353 6.02615 -3.46237 0
M  V30 5010 H 470.544 4.19546 -2.07603 0
M  V30 5011 H 470.717 5.69138 -3.09815 0
M  V30 5012 N 464.123 0.554532 1.47522 0
M  V30 5013 C 465.07 -0.19466 2.29978 0
M  V30 5014 C 466.04 -0.910882 1.38896 0
M  V30 5015 O 467.225 -0.907102 1.67858 0
M  V30 5016 C 464.365 -1.22035 3.22802 0
M  V30 5017 C 463.478 -0.510474 4.28973 0
M  V30 5018 C 462.613 -1.52123 5.08952 0
M  V30 5019 C 461.652 -0.796173 6.069 0
M  V30 5020 N 460.789 -1.75363 6.79847 0
M  V30 5021 H 465.629 0.51461 2.93523 0
M  V30 5022 H 463.166 0.265607 1.44682 0
M  V30 5023 H 465.124 -1.8276 3.7504 0
M  V30 5024 H 463.754 -1.89769 2.61127 0
M  V30 5025 H 462.806 0.211234 3.79813 0
M  V30 5026 H 464.118 0.0576503 4.98767 0
M  V30 5027 H 463.272 -2.20207 5.65326 0
M  V30 5028 H 462.011 -2.12327 4.39054 0
M  V30 5029 H 461.016 -0.101388 5.49707 0
M  V30 5030 H 462.241 -0.199911 6.78806 0
M  V30 5031 H 460.187 -2.3443 6.12682 0
M  V30 5032 H 460.104 -1.23759 7.45801 0
M  V30 5033 H 461.372 -2.4257 7.40797 0
M  V30 5034 N 465.601 -1.54893 0.290851 0
M  V30 5035 C 466.511 -2.26812 -0.59945 0
M  V30 5036 C 467.527 -1.29963 -1.15696 0
M  V30 5037 O 468.703 -1.62928 -1.18391 0
M  V30 5038 C 465.768 -2.98716 -1.75982 0
M  V30 5039 C 464.829 -4.1108 -1.2374 0
M  V30 5040 C 464.062 -4.79546 -2.34246 0
M  V30 5041 O 464.285 -4.47309 -3.53936 0
M  V30 5042 O 463.219 -5.67165 -2.01512 0
M  V30 5043 H 467.045 -3.03696 -0.0163561 0
M  V30 5044 H 464.63 -1.49289 0.0576755 0
M  V30 5045 H 466.512 -3.43851 -2.43607 0
M  V30 5046 H 465.187 -2.24737 -2.3297 0
M  V30 5047 H 464.094 -3.70367 -0.527163 0
M  V30 5048 H 465.427 -4.87007 -0.71307 0
M  V30 5049 N 467.08 -0.0183926 -1.57589 0
M  V30 5050 C 468.01 0.965596 -2.12599 0
M  V30 5051 C 468.991 1.34641 -1.0395 0
M  V30 5052 O 470.176 1.42693 -1.31729 0
M  V30 5053 C 467.306 2.25149 -2.64434 0
M  V30 5054 C 466.26 2.01175 -3.77773 0
M  V30 5055 C 465.586 3.35937 -4.15994 0
M  V30 5056 C 466.886 1.35953 -5.04296 0
M  V30 5057 H 468.58 0.507504 -2.95067 0
M  V30 5058 H 466.126 0.242671 -1.41941 0
M  V30 5059 H 468.079 2.94357 -3.01549 0
M  V30 5060 H 466.803 2.73105 -1.79112 0
M  V30 5061 H 465.462 1.34388 -3.4108 0
M  V30 5062 H 465.11 3.81631 -3.27669 0
M  V30 5063 H 464.81 3.20705 -4.92364 0
M  V30 5064 H 466.334 4.0643 -4.55683 0
M  V30 5065 H 467.748 1.95144 -5.39065 0
M  V30 5066 H 466.145 1.31152 -5.85593 0
M  V30 5067 H 467.215 0.331071 -4.83768 0
M  V30 5068 N 468.558 1.5553 0.254621 0
M  V30 5069 C 469.505 1.89666 1.31512 0
M  V30 5070 C 470.475 0.750057 1.482 0
M  V30 5071 O 471.66 1.00301 1.62309 0
M  V30 5072 C 468.8 2.19009 2.667 0
M  V30 5073 C 467.913 3.46435 2.58083 0
M  V30 5074 C 467.048 3.65386 3.85573 0
M  V30 5075 C 466.087 4.8644 3.71541 0
M  V30 5076 N 465.224 5.01952 4.90906 0
M  V30 5077 H 470.064 2.80109 1.017 0
M  V30 5078 H 467.601 1.38666 0.490938 0
M  V30 5079 H 469.559 2.34025 3.45381 0
M  V30 5080 H 468.189 1.31779 2.94676 0
M  V30 5081 H 467.241 3.39792 1.71013 0
M  V30 5082 H 468.553 4.35258 2.43622 0
M  V30 5083 H 467.707 3.80319 4.72697 0
M  V30 5084 H 466.446 2.74781 4.02922 0
M  V30 5085 H 465.451 4.71491 2.82801 0
M  V30 5086 H 466.676 5.78497 3.55694 0
M  V30 5087 H 464.622 4.14283 5.08631 0
M  V30 5088 H 464.539 5.84851 4.79046 0
M  V30 5089 H 465.807 5.21289 5.7955 0
M  V30 5090 N 470.036 -0.519951 1.48776 0
M  V30 5091 C 471.452 -0.849418 1.35119 0
M  V30 5092 C 471.652 -1.98077 0.36982 0
M  V30 5093 O 470.708 -2.51664 -0.205359 0
M  V30 5094 C 472.021 -1.20748 2.75391 0
M  V30 5095 C 473.569 -1.31679 2.83954 0
M  V30 5096 C 474.044 -1.70824 4.24951 0
M  V30 5097 N 475.535 -1.77908 4.27672 0
M  V30 5098 C 476.27 -2.09603 5.33717 0
M  V30 5099 N 475.766 -2.39652 6.5003 0
M  V30 5100 N 477.559 -2.10694 5.21119 0
M  V30 5101 H 469.71 0.226377 2.1119 0
M  V30 5102 H 471.973 0.0386519 0.947212 0
M  V30 5103 H 471.679 -0.449703 3.48813 0
M  V30 5104 H 471.553 -2.15534 3.09556 0
M  V30 5105 H 473.94 -2.06532 2.10781 0
M  V30 5106 H 474.021 -0.3499 2.53396 0
M  V30 5107 H 473.665 -0.965282 4.98643 0
M  V30 5108 H 473.595 -2.6858 4.52959 0
M  V30 5109 H 476.086 -1.56923 3.43779 0
M  V30 5110 H 476.399 -2.6297 7.26682 0
M  V30 5111 H 474.744 -2.37149 6.53288 0
M  V30 5112 H 477.935 -1.86682 4.29264 0
M  V30 5113 H 478.108 -2.35062 6.03863 0
M  V30 5114 N 471.514 -1.37532 -0.769588 0
M  V30 5115 C 472.461 -1.3347 -1.88293 0
M  V30 5116 C 473.431 -0.199891 -1.64893 0
M  V30 5117 O 474.616 -0.389594 -1.8678 0
M  V30 5118 C 471.756 -1.14968 -3.25387 0
M  V30 5119 C 470.869 -2.37698 -3.60727 0
M  V30 5120 C 470.004 -2.12051 -4.8704 0
M  V30 5121 C 469.043 -3.30636 -5.15117 0
M  V30 5122 N 468.18 -3.04527 -6.3262 0
M  V30 5123 H 473.02 -2.28658 -1.911 0
M  V30 5124 H 470.557 -1.13622 -0.934257 0
M  V30 5125 H 472.515 -1.02261 -4.04473 0
M  V30 5126 H 471.145 -0.234263 -3.21949 0
M  V30 5127 H 470.197 -2.61137 -2.76608 0
M  V30 5128 H 471.509 -3.26131 -3.77413 0
M  V30 5129 H 470.663 -1.96388 -5.74035 0
M  V30 5130 H 469.402 -1.20959 -4.72462 0
M  V30 5131 H 468.407 -3.46836 -4.26597 0
M  V30 5132 H 469.632 -4.22582 -5.31603 0
M  V30 5133 H 467.578 -2.16067 -6.19396 0
M  V30 5134 H 467.495 -3.86503 -6.49732 0
M  V30 5135 H 468.763 -2.92485 -7.22546 0
M  V30 5136 N 472.992 0.995999 -1.22138 0
M  V30 5137 C 473.939 2.08551 -0.988687 0
M  V30 5138 C 474.909 1.65864 0.0885021 0
M  V30 5139 O 476.094 1.90704 -0.0604589 0
M  V30 5140 C 473.234 3.40374 -0.569191 0
M  V30 5141 C 472.347 3.96421 -1.71681 0
M  V30 5142 C 471.482 5.1639 -1.2456 0
M  V30 5143 C 470.521 5.64567 -2.36497 0
M  V30 5144 N 469.658 6.75777 -1.90445 0
M  V30 5145 H 474.498 2.2779 -1.92135 0
M  V30 5146 H 472.035 1.1168 -0.957388 0
M  V30 5147 H 473.993 4.16068 -0.307166 0
M  V30 5148 H 472.623 3.21145 0.326462 0
M  V30 5149 H 471.675 3.17628 -2.09324 0
M  V30 5150 H 472.987 4.2816 -2.55891 0
M  V30 5151 H 472.141 5.99362 -0.940774 0
M  V30 5152 H 470.88 4.86266 -0.373662 0
M  V30 5153 H 469.885 4.80185 -2.67772 0
M  V30 5154 H 471.11 5.96716 -3.24202 0
M  V30 5155 H 469.056 6.47443 -1.05609 0
M  V30 5156 H 468.973 7.06818 -2.68223 0
M  V30 5157 H 470.241 7.62262 -1.63022 0
M  V30 5158 N 474.47 1.03057 1.19235 0
M  V30 5159 C 475.417 0.612832 2.22515 0
M  V30 5160 C 476.387 -0.374224 1.61829 0
M  V30 5161 O 477.572 -0.270501 1.88873 0
M  V30 5162 C 474.712 -0.028475 3.45088 0
M  V30 5163 C 473.825 1.00483 4.20151 0
M  V30 5164 C 472.96 0.333102 5.30155 0
M  V30 5165 C 471.999 1.3522 5.96977 0
M  V30 5166 N 471.136 0.70616 6.9854 0
M  V30 5167 H 475.976 1.49812 2.57605 0
M  V30 5168 H 473.513 0.749658 1.26564 0
M  V30 5169 H 475.471 -0.417548 4.15105 0
M  V30 5170 H 474.101 -0.877334 3.10649 0
M  V30 5171 H 473.153 1.51194 3.49062 0
M  V30 5172 H 474.465 1.77929 4.65986 0
M  V30 5173 H 473.619 -0.110725 6.06599 0
M  V30 5174 H 472.358 -0.473547 4.85396 0
M  V30 5175 H 471.363 1.80627 5.19282 0
M  V30 5176 H 472.588 2.16037 6.4382 0
M  V30 5177 H 470.534 -0.0803667 6.55951 0
M  V30 5178 H 470.451 1.41848 7.42573 0
M  V30 5179 H 471.719 0.286391 7.78974 0
M  V30 5180 N 475.948 -1.35272 0.808662 0
M  V30 5181 C 477.194 -1.99434 0.399717 0
M  V30 5182 C 477.549 -1.62992 -1.02232 0
M  V30 5183 O 476.842 -0.884091 -1.69983 0
M  V30 5184 C 477.036 -3.53556 0.522798 0
M  V30 5185 C 476.865 -4.04969 1.95525 0
M  V30 5186 C 475.635 -4.34228 2.58407 0
M  V30 5187 C 477.833 -4.23362 2.92009 0
M  V30 5188 N 475.815 -4.71585 3.93041 0
M  V30 5189 C 477.186 -4.63739 4.11517 0
M  V30 5190 C 479.241 -4.05576 2.88813 0
M  V30 5191 C 477.944 -4.88189 5.28265 0
M  V30 5192 C 479.97 -4.31184 4.04765 0
M  V30 5193 C 479.332 -4.71834 5.23022 0
M  V30 5194 H 475.431 -0.757534 0.19408 0
M  V30 5195 H 478.015 -1.63939 1.05034 0
M  V30 5196 H 476.186 -3.88277 -0.0978471 0
M  V30 5197 H 477.918 -4.04604 0.0882378 0
M  V30 5198 H 474.673 -4.24621 2.09747 0
M  V30 5199 H 475.097 -4.9452 4.62363 0
M  V30 5200 H 479.739 -3.73288 1.98535 0
M  V30 5201 H 477.457 -5.1935 6.19113 0
M  V30 5202 H 481.043 -4.18972 4.03675 0
M  V30 5203 H 479.923 -4.91263 6.11253 0
M  V30 5204 N 477.426 -0.562348 -1.47226 0
M  V30 5205 C 478.703 0.0256985 -1.95583 0
M  V30 5206 C 479.083 1.48032 -1.50498 0
M  V30 5207 O 478.431 2.15973 -0.746181 0
M  V30 5208 C 478.641 -0.125129 -3.48776 0
M  V30 5209 C 479.989 0.0175728 -4.24596 0
M  V30 5210 O 481.013 -0.0529341 -3.56161 0
M  V30 5211 O 479.872 0.170145 -5.46235 0
M  V30 5212 H 476.966 0.0612565 -0.824728 0
M  V30 5213 H 479.512 -0.629233 -1.57603 0
M  V30 5214 H 478.284 -1.13715 -3.74412 0
M  V30 5215 H 477.907 0.567178 -3.93534 0
M  V30 5216 N 478.904 1.54736 -0.299062 0
M  V30 5217 C 479.834 2.26409 0.571085 0
M  V30 5218 C 480.815 1.2629 1.13951 0
M  V30 5219 O 482 1.55059 1.16921 0
M  V30 5220 C 479.13 3.00338 1.74396 0
M  V30 5221 C 478.084 4.07588 1.30599 0
M  V30 5222 C 477.41 4.69222 2.56387 0
M  V30 5223 C 478.71 5.20455 0.438645 0
M  V30 5224 H 480.404 2.99388 -0.0266991 0
M  V30 5225 H 477.95 1.43993 -0.0142812 0
M  V30 5226 H 479.903 3.49198 2.35878 0
M  V30 5227 H 478.627 2.24934 2.36796 0
M  V30 5228 H 477.286 3.59575 0.71424 0
M  V30 5229 H 476.934 3.9046 3.17097 0
M  V30 5230 H 476.634 5.41653 2.27784 0
M  V30 5231 H 478.158 5.20844 3.18675 0
M  V30 5232 H 479.572 5.65221 0.959085 0
M  V30 5233 H 477.969 5.99594 0.246466 0
M  V30 5234 H 479.039 4.8192 -0.536738 0
M  V30 5235 N 480.382 0.0267497 1.57577 0
M  V30 5236 C 481.292 -0.971633 2.13533 0
M  V30 5237 C 482.308 -1.35868 1.08701 0
M  V30 5238 O 483.484 -1.44058 1.40746 0
M  V30 5239 C 480.549 -2.23622 2.64941 0
M  V30 5240 C 479.61 -1.90982 3.8448 0
M  V30 5241 C 478.843 -3.11411 4.33427 0
M  V30 5242 O 479.066 -4.23992 3.81558 0
M  V30 5243 O 478 -2.93848 5.25297 0
M  V30 5244 H 481.826 -0.525853 2.99113 0
M  V30 5245 H 479.411 -0.193712 1.48139 0
M  V30 5246 H 481.293 -2.97864 2.98086 0
M  V30 5247 H 479.968 -2.67386 1.82446 0
M  V30 5248 H 478.875 -1.14132 3.56265 0
M  V30 5249 H 480.208 -1.52036 4.6813 0
M  V30 5250 N 481.861 -1.55662 -0.24637 0
M  V30 5251 C 483.11 -1.7672 -0.972254 0
M  V30 5252 C 483.423 -0.59078 -1.86465 0
M  V30 5253 O 484.629 -0.684391 -2.62732 0
M  V30 5254 C 483.085 -3.12869 -1.7788 0
M  V30 5255 C 482.693 -4.38161 -0.933768 0
M  V30 5256 C 484.437 -3.43265 -2.49738 0
M  V30 5257 C 482.344 -5.6534 -1.73623 0
M  V30 5258 H 481.274 -0.658795 -0.366749 0
M  V30 5259 H 483.925 -1.82092 -0.226902 0
M  V30 5260 H 482.307 -3.01606 -2.56612 0
M  V30 5261 H 483.481 -4.60413 -0.188736 0
M  V30 5262 H 481.796 -4.15102 -0.328488 0
M  V30 5263 H 484.393 -4.35501 -3.10231 0
M  V30 5264 H 484.736 -2.64614 -3.2138 0
M  V30 5265 H 485.269 -3.55746 -1.78016 0
M  V30 5266 H 482.008 -6.46814 -1.06354 0
M  V30 5267 H 481.528 -5.47188 -2.45653 0
M  V30 5268 H 483.207 -6.04616 -2.30323 0
M  V30 5269 N 483.339 0.512053 -1.4905 0
M  V30 5270 C 484.564 1.2959 -1.6193 0
M  V30 5271 C 484.989 1.85906 -0.286454 0
M  V30 5272 O 484.347 1.65312 0.744426 0
M  V30 5273 C 484.395 2.40987 -2.68249 0
M  V30 5274 O 483.499 3.44531 -2.26654 0
M  V30 5275 H 482.84 0.383053 -0.542371 0
M  V30 5276 H 485.37 0.614231 -1.95162 0
M  V30 5277 H 485.38 2.86913 -2.90078 0
M  V30 5278 H 484.055 1.99361 -3.65004 0
M  V30 5279 H 482.632 3.046 -2.15112 0
M  V30 5280 N 484.817 1.37938 0.762283 0
M  V30 5281 C 485.747 1.37176 1.88958 0
M  V30 5282 C 486.728 0.238945 1.68413 0
M  V30 5283 O 487.913 0.440726 1.89133 0
M  V30 5284 C 485.043 1.18742 3.2637 0
M  V30 5285 C 483.997 2.29136 3.61498 0
M  V30 5286 C 483.323 1.95816 4.97554 0
M  V30 5287 C 484.623 3.71363 3.6727 0
M  V30 5288 H 486.317 2.31509 1.89853 0
M  V30 5289 H 483.863 1.11438 0.912005 0
M  V30 5290 H 485.816 1.16837 4.04879 0
M  V30 5291 H 484.54 0.208683 3.25933 0
M  V30 5292 H 483.199 2.30213 2.85303 0
M  V30 5293 H 482.847 0.964475 4.93667 0
M  V30 5294 H 482.547 2.69745 5.22026 0
M  V30 5295 H 484.071 1.95513 5.78452 0
M  V30 5296 H 485.485 3.72364 4.35911 0
M  V30 5297 H 483.882 4.44425 4.03245 0
M  V30 5298 H 484.952 4.04305 2.67704 0
M  V30 5299 N 486.295 -0.989507 1.22664 0
M  V30 5300 C 487.572 -1.70326 0.961688 0
M  V30 5301 C 487.952 -2.04537 -0.522279 0
M  V30 5302 O 487.3 -1.73136 -1.49118 0
M  V30 5303 C 487.51 -2.95135 1.86269 0
M  V30 5304 C 488.858 -3.67842 2.12078 0
M  V30 5305 O 489.882 -3.0515 1.83745 0
M  V30 5306 O 488.741 -4.80644 2.60083 0
M  V30 5307 H 485.835 -0.743589 0.361946 0
M  V30 5308 H 488.381 -1.04555 1.33665 0
M  V30 5309 H 487.153 -2.66382 2.8663 0
M  V30 5310 H 486.776 -3.68645 1.48952 0
M  V30 5311 N 487.773 -1.03688 -1.18687 0
M  V30 5312 C 488.998 -0.757819 -1.93059 0
M  V30 5313 C 489.423 0.678353 -1.75442 0
M  V30 5314 O 488.781 1.46938 -1.06203 0
M  V30 5315 C 488.829 -1.12423 -3.42627 0
M  V30 5316 O 487.933 -0.247505 -4.11657 0
M  V30 5317 H 487.274 -0.279245 -0.602427 0
M  V30 5318 H 489.804 -1.3857 -1.5053 0
M  V30 5319 H 489.814 -1.08454 -3.93322 0
M  V30 5320 H 488.489 -2.17049 -3.54771 0
M  V30 5321 H 487.066 -0.34649 -3.71287 0
M  V30 5322 N 489.251 1.34841 -0.815825 0
M  V30 5323 C 490.499 1.98107 -0.399744 0
M  V30 5324 C 490.82 1.65019 1.03894 0
M  V30 5325 O 490.09 0.937311 1.72021 0
M  V30 5326 H 488.67 0.732827 -0.144823 0
M  V30 5327 H 491.332 1.64599 -1.0437 0
M  V30 5328 H 490.428 3.07856 -0.512965 0
M  V30 5329 N 490.729 0.570148 1.46925 0
M  V30 5330 C 491.679 -0.190921 2.27199 0
M  V30 5331 C 492.663 -0.873457 1.35128 0
M  V30 5332 O 493.855 -0.769627 1.59392 0
M  V30 5333 C 490.984 -1.21204 3.21192 0
M  V30 5334 C 490.07 -0.532261 4.20747 0
M  V30 5335 N 490.461 0.405038 5.04176 0
M  V30 5336 C 488.759 -0.784582 4.39045 0
M  V30 5337 C 489.46 0.801149 5.76157 0
M  V30 5338 N 488.436 0.153082 5.43384 0
M  V30 5339 H 492.238 0.529535 2.8909 0
M  V30 5340 H 489.752 0.391019 1.57622 0
M  V30 5341 H 491.749 -1.77135 3.77398 0
M  V30 5342 H 490.409 -1.93345 2.6086 0
M  V30 5343 H 491.42 0.779903 5.11994 0
M  V30 5344 H 488.097 -1.49352 3.89872 0
M  V30 5345 H 489.487 1.57208 6.5325 0
M  V30 5346 N 492.207 -1.54576 0.307264 0
M  V30 5347 C 493.117 -2.27435 -0.57536 0
M  V30 5348 C 494.133 -1.31183 -1.14311 0
M  V30 5349 O 495.309 -1.64175 -1.16656 0
M  V30 5350 C 492.374 -3.00566 -1.72803 0
M  V30 5351 C 491.435 -4.12369 -1.19373 0
M  V30 5352 C 490.668 -4.82003 -2.29147 0
M  V30 5353 O 490.891 -4.51038 -3.49171 0
M  V30 5354 O 489.825 -5.69271 -1.95485 0
M  V30 5355 H 493.651 -3.03696 0.0158558 0
M  V30 5356 H 491.236 -1.49219 0.0735064 0
M  V30 5357 H 493.118 -3.46416 -2.39946 0
M  V30 5358 H 491.793 -2.27195 -2.30574 0
M  V30 5359 H 490.7 -3.70905 -0.487851 0
M  V30 5360 H 492.033 -4.87736 -0.661376 0
M  V30 5361 N 493.685 -0.035106 -1.57561 0
M  V30 5362 C 494.632 0.94474 -2.10578 0
M  V30 5363 C 495.602 1.3192 -1.00927 0
M  V30 5364 O 496.787 1.41147 -1.28382 0
M  V30 5365 C 493.927 2.21982 -2.64231 0
M  V30 5366 C 493.04 1.90128 -3.87911 0
M  V30 5367 C 492.175 3.11975 -4.29936 0
M  V30 5368 C 491.214 2.75968 -5.46359 0
M  V30 5369 N 490.351 3.90459 -5.83512 0
M  V30 5370 H 495.191 0.485717 -2.94015 0
M  V30 5371 H 492.728 0.228143 -1.4532 0
M  V30 5372 H 494.686 2.96572 -2.9343 0
M  V30 5373 H 493.316 2.6549 -1.83616 0
M  V30 5374 H 492.368 1.05755 -3.65404 0
M  V30 5375 H 493.68 1.59613 -4.72573 0
M  V30 5376 H 492.834 3.9488 -4.60603 0
M  V30 5377 H 491.573 3.45657 -3.44053 0
M  V30 5378 H 490.578 1.91478 -5.1538 0
M  V30 5379 H 491.803 2.43497 -6.33945 0
M  V30 5380 H 489.749 4.23971 -5.00584 0
M  V30 5381 H 489.666 3.63588 -6.62827 0
M  V30 5382 H 490.934 4.7405 -6.18787 0
M  V30 5383 N 495.163 1.55791 0.238111 0
M  V30 5384 C 496.11 1.9105 1.29493 0
M  V30 5385 C 497.08 0.765733 1.47397 0
M  V30 5386 O 498.265 1.02017 1.61236 0
M  V30 5387 C 495.405 2.21826 2.64362 0
M  V30 5388 C 494.518 3.49153 2.54394 0
M  V30 5389 C 493.653 3.69455 3.81676 0
M  V30 5390 C 492.692 4.90353 3.66361 0
M  V30 5391 N 491.829 5.07131 4.85554 0
M  V30 5392 H 496.669 2.81172 0.987233 0
M  V30 5393 H 494.206 1.39179 0.476203 0
M  V30 5394 H 496.164 2.37675 3.4288 0
M  V30 5395 H 494.794 1.34897 2.93262 0
M  V30 5396 H 493.846 3.41587 1.67399 0
M  V30 5397 H 495.158 4.37818 2.38991 0
M  V30 5398 H 494.312 3.85311 4.68636 0
M  V30 5399 H 493.051 2.7904 3.99985 0
M  V30 5400 H 492.056 4.74464 2.77784 0
M  V30 5401 H 493.281 5.82237 3.49538 0
M  V30 5402 H 491.227 4.19654 5.04209 0
M  V30 5403 H 491.144 5.89899 4.72816 0
M  V30 5404 H 492.412 5.27407 5.73988 0
M  V30 5405 N 496.642 -0.504142 1.49319 0
M  V30 5406 C 497.888 -1.26033 1.58882 0
M  V30 5407 C 498.221 -1.92268 0.273274 0
M  V30 5408 O 497.496 -1.80567 -0.72291 0
M  V30 5409 C 497.779 -2.32976 2.7458 0
M  V30 5410 C 497.632 -1.71263 4.1592 0
M  V30 5411 C 498.951 -3.34561 2.85932 0
M  V30 5412 H 496.07 -0.456863 0.578312 0
M  V30 5413 H 498.712 -0.558965 1.81592 0
M  V30 5414 H 496.862 -2.92796 2.55348 0
M  V30 5415 H 498.534 -1.15294 4.4666 0
M  V30 5416 H 496.777 -1.01686 4.21714 0
M  V30 5417 H 497.448 -2.48816 4.92742 0
M  V30 5418 H 499.924 -2.84727 3.0343 0
M  V30 5419 H 498.8 -4.06754 3.68568 0
M  V30 5420 H 499.061 -3.96695 1.95154 0
M  V30 5421 N 498.12 -1.38341 -0.754957 0
M  V30 5422 C 499.369 -1.33791 -1.5094 0
M  V30 5423 C 499.682 0.0699267 -1.95475 0
M  V30 5424 O 500.888 0.237956 -2.70455 0
M  V30 5425 C 499.344 -2.34934 -2.72643 0
M  V30 5426 C 498.952 -3.81332 -2.35138 0
M  V30 5427 C 500.696 -2.39425 -3.50536 0
M  V30 5428 C 498.603 -4.74164 -3.53444 0
M  V30 5429 H 497.533 -0.497314 -0.566741 0
M  V30 5430 H 500.184 -1.63888 -0.825403 0
M  V30 5431 H 498.566 -1.97878 -3.43017 0
M  V30 5432 H 499.74 -4.27319 -1.7244 0
M  V30 5433 H 498.055 -3.79946 -1.70382 0
M  V30 5434 H 500.652 -3.0598 -4.38498 0
M  V30 5435 H 500.995 -1.41278 -3.91594 0
M  V30 5436 H 501.528 -2.75274 -2.87174 0
M  V30 5437 H 498.267 -5.73501 -3.17453 0
M  V30 5438 H 497.787 -4.3287 -4.15191 0
M  V30 5439 H 499.466 -4.92111 -4.20043 0
M  V30 5440 N 499.598 0.982988 -1.23187 0
M  V30 5441 C 500.823 1.76455 -1.08988 0
M  V30 5442 C 501.248 1.84726 0.354691 0
M  V30 5443 O 500.606 1.30699 1.25649 0
M  V30 5444 C 500.654 3.17094 -1.71708 0
M  V30 5445 O 499.758 4.00648 -0.977477 0
M  V30 5446 H 499.099 0.542988 -0.382177 0
M  V30 5447 H 501.629 1.23413 -1.63188 0
M  V30 5448 H 501.639 3.67684 -1.76841 0
M  V30 5449 H 500.314 3.10389 -2.76823 0
M  V30 5450 H 498.891 3.59161 -1.0029 0
M  V30 5451 N 501.076 1.04316 1.18135 0
M  V30 5452 C 502.301 0.768047 1.92655 0
M  V30 5453 C 502.726 -0.66904 1.758 0
M  V30 5454 O 502.084 -1.46372 1.06981 0
M  V30 5455 C 502.132 1.14239 3.42026 0
M  V30 5456 O 501.236 0.269333 4.1152 0
M  V30 5457 H 500.577 0.282436 0.600937 0
M  V30 5458 H 503.107 1.39367 1.49793 0
M  V30 5459 H 503.117 1.10538 3.92741 0
M  V30 5460 H 501.792 2.18928 3.53615 0
M  V30 5461 H 500.369 0.366175 3.71098 0
M  V30 5462 N 502.554 -1.34406 0.822964 0
M  V30 5463 C 503.484 -2.32052 0.259608 0
M  V30 5464 C 504.465 -1.58243 -0.623961 0
M  V30 5465 O 505.65 -1.86224 -0.55083 0
M  V30 5466 C 502.78 -3.42434 -0.579314 0
M  V30 5467 C 501.734 -4.27499 0.20712 0
M  V30 5468 C 501.06 -5.29349 -0.754547 0
M  V30 5469 C 502.36 -5.02758 1.41533 0
M  V30 5470 H 504.054 -2.79418 1.07545 0
M  V30 5471 H 501.6 -1.34338 0.518593 0
M  V30 5472 H 503.553 -4.0976 -0.983612 0
M  V30 5473 H 502.277 -2.93717 -1.4282 0
M  V30 5474 H 500.936 -3.61776 0.592787 0
M  V30 5475 H 500.584 -4.76895 -1.59939 0
M  V30 5476 H 500.284 -5.8714 -0.232561 0
M  V30 5477 H 501.808 -5.99544 -1.1567 0
M  V30 5478 H 503.222 -5.62938 1.08504 0
M  V30 5479 H 501.619 -5.70123 1.87296 0
M  V30 5480 H 502.689 -4.32451 2.1935 0
M  V30 5481 N 504.032 -0.577932 -1.46621 0
M  V30 5482 C 504.964 0.195801 -2.28362 0
M  V30 5483 C 505.977 0.859983 -1.38232 0
M  V30 5484 O 507.166 0.730349 -1.62875 0
M  V30 5485 C 504.266 1.29639 -3.13124 0
M  V30 5486 C 503.439 0.725049 -4.31349 0
M  V30 5487 C 502.498 1.71274 -4.97546 0
M  V30 5488 O 501.524 1.25067 -5.5529 0
M  V30 5489 N 502.726 3.04672 -4.94121 0
M  V30 5490 H 505.491 -0.505468 -2.95407 0
M  V30 5491 H 503.052 -0.415381 -1.56481 0
M  V30 5492 H 505.044 1.95631 -3.54275 0
M  V30 5493 H 503.614 1.90059 -2.48186 0
M  V30 5494 H 502.834 -0.112205 -3.9404 0
M  V30 5495 H 504.122 0.323034 -5.07774 0
M  V30 5496 H 503.52 3.4484 -4.48444 0
M  V30 5497 H 502.077 3.66166 -5.39227 0
M  V30 5498 N 505.51 1.54411 -0.315457 0
M  V30 5499 C 506.42 2.27737 0.56329 0
M  V30 5500 C 507.436 1.31787 1.13614 0
M  V30 5501 O 508.612 1.64791 1.15784 0
M  V30 5502 C 505.677 3.01478 1.71207 0
M  V30 5503 C 504.738 4.12997 1.17185 0
M  V30 5504 C 503.971 4.83212 2.26588 0
M  V30 5505 O 504.194 4.52884 3.46775 0
M  V30 5506 O 503.128 5.70299 1.92463 0
M  V30 5507 H 506.954 3.03683 -0.0319614 0
M  V30 5508 H 504.539 1.49178 -0.0814188 0
M  V30 5509 H 506.421 3.47683 2.38106 0
M  V30 5510 H 505.096 2.28414 2.29366 0
M  V30 5511 H 504.003 3.71159 0.468174 0
M  V30 5512 H 505.336 4.8808 0.635501 0
M  V30 5513 N 506.988 0.0434614 1.5754 0
M  V30 5514 C 508.265 -0.671479 1.83713 0
M  V30 5515 C 508.645 -1.89495 0.930315 0
M  V30 5516 O 507.993 -2.28498 -0.0105639 0
M  V30 5517 C 508.203 -1.0361 3.33266 0
M  V30 5518 C 509.551 -1.42167 4.00092 0
M  V30 5519 O 510.575 -1.12866 3.37846 0
M  V30 5520 O 509.434 -1.96817 5.09829 0
M  V30 5521 H 506.528 -0.330726 0.75799 0
M  V30 5522 H 509.074 0.0722373 1.69546 0
M  V30 5523 H 507.846 -0.165938 3.90948 0
M  V30 5524 H 507.469 -1.83751 3.52592 0
M  V30 5525 N 508.466 -1.55915 -0.229846 0
M  V30 5526 C 509.882 -1.48721 -0.579166 0
M  V30 5527 C 510.082 -0.736976 -1.87539 0
M  V30 5528 O 509.138 -0.273258 -2.51017 0
M  V30 5529 C 510.451 -2.9323 -0.666082 0
M  V30 5530 C 511.999 -3.03701 -0.757267 0
M  V30 5531 C 512.474 -4.49552 -0.8756 0
M  V30 5532 N 513.965 -4.53561 -0.940035 0
M  V30 5533 C 514.7 -5.63683 -1.05116 0
M  V30 5534 N 514.196 -6.83576 -1.12675 0
M  V30 5535 N 515.989 -5.51516 -1.08565 0
M  V30 5536 H 508.14 -2.03123 0.620857 0
M  V30 5537 H 510.403 -0.922898 0.21671 0
M  V30 5538 H 510.109 -3.51032 0.21664 0
M  V30 5539 H 509.983 -3.44668 -1.53243 0
M  V30 5540 H 512.37 -2.45969 -1.63043 0
M  V30 5541 H 512.451 -2.55446 0.134583 0
M  V30 5542 H 512.095 -5.079 -0.00692351 0
M  V30 5543 H 512.025 -4.95506 -1.78274 0
M  V30 5544 H 514.516 -3.67215 -0.892269 0
M  V30 5545 H 514.829 -7.63251 -1.21109 0
M  V30 5546 H 513.174 -6.86303 -1.09603 0
M  V30 5547 H 516.365 -4.5678 -1.02319 0
M  V30 5548 H 516.538 -6.37372 -1.1688 0
M  V30 5549 N 509.944 0.496216 -1.49584 0
M  V30 5550 C 510.894 1.59422 -1.62999 0
M  V30 5551 C 511.878 1.53402 -0.485457 0
M  V30 5552 O 513.07 1.60851 -0.738649 0
M  V30 5553 C 510.199 2.98009 -1.70427 0
M  V30 5554 C 509.285 3.09008 -2.90473 0
M  V30 5555 N 509.676 2.89884 -4.14489 0
M  V30 5556 C 507.974 3.40115 -2.8851 0
M  V30 5557 C 508.675 3.0519 -4.95211 0
M  V30 5558 N 507.651 3.3428 -4.2867 0
M  V30 5559 H 511.453 1.43297 -2.56599 0
M  V30 5560 H 508.967 0.702443 -1.46422 0
M  V30 5561 H 510.964 3.76926 -1.78136 0
M  V30 5562 H 509.624 3.152 -0.77967 0
M  V30 5563 H 510.635 2.65963 -4.44392 0
M  V30 5564 H 507.312 3.63452 -2.05448 0
M  V30 5565 H 508.702 2.94856 -6.03746 0
M  V30 5566 N 511.423 1.38739 0.74761 0
M  V30 5567 C 512.353 1.39173 1.87492 0
M  V30 5568 C 513.334 0.256794 1.6815 0
M  V30 5569 O 514.519 0.460762 1.88655 0
M  V30 5570 C 511.649 1.22197 3.25093 0
M  V30 5571 C 510.603 2.32957 3.59047 0
M  V30 5572 C 509.929 2.01082 4.95449 0
M  V30 5573 C 511.229 3.75237 3.6331 0
M  V30 5574 H 512.923 2.3351 1.87386 0
M  V30 5575 H 510.469 1.12399 0.900134 0
M  V30 5576 H 512.422 1.21124 4.03617 0
M  V30 5577 H 511.146 0.243241 3.25693 0
M  V30 5578 H 509.805 2.33226 2.82845 0
M  V30 5579 H 509.453 1.01678 4.92616 0
M  V30 5580 H 509.153 2.75267 5.19136 0
M  V30 5581 H 510.677 2.01638 5.76346 0
M  V30 5582 H 512.091 3.76966 4.31937 0
M  V30 5583 H 510.488 4.48677 3.98509 0
M  V30 5584 H 511.558 4.07122 2.634 0
M  V30 5585 N 512.901 -0.976442 1.23707 0
M  V30 5586 C 513.811 -2.10359 1.03856 0
M  V30 5587 C 514.827 -1.73991 -0.0180919 0
M  V30 5588 O 516.003 -2.0061 0.178211 0
M  V30 5589 C 513.068 -3.40809 0.636387 0
M  V30 5590 C 512.129 -3.91179 1.76854 0
M  V30 5591 C 511.362 -5.15404 1.38546 0
M  V30 5592 O 511.585 -5.69754 0.27142 0
M  V30 5593 O 510.519 -5.5994 2.20797 0
M  V30 5594 H 514.345 -2.29997 1.98331 0
M  V30 5595 H 511.93 -1.08742 1.02448 0
M  V30 5596 H 513.812 -4.19269 0.423223 0
M  V30 5597 H 512.487 -3.22493 -0.279322 0
M  V30 5598 H 511.394 -3.13819 2.03638 0
M  V30 5599 H 512.727 -4.13958 2.6627 0
M  V30 5600 N 514.379 -1.04941 -1.1758 0
M  V30 5601 C 515.289 -0.658826 -2.25159 0
M  V30 5602 C 516.305 0.318941 -1.71052 0
M  V30 5603 O 517.481 0.171669 -2.00667 0
M  V30 5604 C 514.546 -0.0369522 -3.4668 0
M  V30 5605 C 513.607 -1.06484 -4.15884 0
M  V30 5606 C 512.84 -0.472551 -5.31604 0
M  V30 5607 O 513.063 0.718736 -5.65854 0
M  V30 5608 O 511.997 -1.20557 -5.89703 0
M  V30 5609 H 515.823 -1.55533 -2.60851 0
M  V30 5610 H 513.408 -0.820819 -1.24832 0
M  V30 5611 H 515.29 0.308784 -4.20267 0
M  V30 5612 H 513.965 0.833238 -3.12792 0
M  V30 5613 H 512.872 -1.46253 -3.44327 0
M  V30 5614 H 514.205 -1.9061 -4.53794 0
M  V30 5615 N 515.857 1.33968 -0.830081 0
M  V30 5616 C 516.767 2.33164 -0.259207 0
M  V30 5617 C 517.783 1.62951 0.610164 0
M  V30 5618 O 518.959 1.94668 0.516369 0
M  V30 5619 C 516.024 3.42088 0.563598 0
M  V30 5620 C 515.085 4.28037 -0.329014 0
M  V30 5621 C 514.318 5.3176 0.454616 0
M  V30 5622 O 514.541 5.44876 1.6872 0
M  V30 5623 O 513.475 6.01669 -0.166794 0
M  V30 5624 H 517.301 2.83832 -1.08041 0
M  V30 5625 H 514.886 1.37154 -0.59239 0
M  V30 5626 H 516.768 4.08581 1.03147 0
M  V30 5627 H 515.443 2.93651 1.36201 0
M  V30 5628 H 514.35 3.64443 -0.844538 0
M  V30 5629 H 515.683 4.79934 -1.09196 0
M  V30 5630 N 517.335 0.585699 1.46312 0
M  V30 5631 C 518.265 -0.133556 2.33118 0
M  V30 5632 C 519.246 -0.880707 1.45525 0
M  V30 5633 O 520.431 -0.855579 1.74337 0
M  V30 5634 C 517.561 -1.14585 3.27853 0
M  V30 5635 C 516.515 -0.513341 4.2491 0
M  V30 5636 C 515.841 -1.63231 5.09175 0
M  V30 5637 C 517.141 0.551413 5.19381 0
M  V30 5638 H 518.835 0.59121 2.93505 0
M  V30 5639 H 516.381 0.285761 1.41136 0
M  V30 5640 H 518.334 -1.65741 3.87438 0
M  V30 5641 H 517.058 -1.90093 2.65579 0
M  V30 5642 H 515.717 -0.0228349 3.66593 0
M  V30 5643 H 515.365 -2.37713 4.43285 0
M  V30 5644 H 515.065 -1.21473 5.74907 0
M  V30 5645 H 516.589 -2.14658 5.71624 0
M  V30 5646 H 518.003 0.124804 5.73164 0
M  V30 5647 H 516.4 0.889486 5.93471 0
M  V30 5648 H 517.47 1.43655 4.63132 0
M  V30 5649 N 518.813 -1.54241 0.323641 0
M  V30 5650 C 519.76 -2.24339 -0.542277 0
M  V30 5651 C 520.73 -1.23421 -1.11159 0
M  V30 5652 O 521.915 -1.52104 -1.15192 0
M  V30 5653 C 519.055 -3.00479 -1.69725 0
M  V30 5654 C 518.168 -4.16214 -1.15716 0
M  V30 5655 C 517.303 -4.79884 -2.27783 0
M  V30 5656 C 516.342 -5.87722 -1.71023 0
M  V30 5657 N 515.479 -6.45254 -2.76752 0
M  V30 5658 H 520.319 -2.97935 0.0620613 0
M  V30 5659 H 517.856 -1.47039 0.0423993 0
M  V30 5660 H 519.814 -3.42869 -2.3769 0
M  V30 5661 H 518.444 -2.29217 -2.27288 0
M  V30 5662 H 517.496 -3.78605 -0.369063 0
M  V30 5663 H 518.808 -4.93838 -0.701832 0
M  V30 5664 H 517.962 -5.25243 -3.03651 0
M  V30 5665 H 516.701 -4.01641 -2.76652 0
M  V30 5666 H 515.706 -5.41765 -0.936518 0
M  V30 5667 H 516.931 -6.67863 -1.2303 0
M  V30 5668 H 514.877 -5.69884 -3.24912 0
M  V30 5669 H 514.794 -7.18292 -2.35782 0
M  V30 5670 H 516.062 -6.95269 -3.5245 0
M  V30 5671 N 520.291 -0.0518155 -1.57515 0
M  V30 5672 C 521.531 0.625712 -1.94587 0
M  V30 5673 C 521.895 1.6797 -0.930053 0
M  V30 5674 O 523.096 2.41135 -1.18774 0
M  V30 5675 C 521.367 1.20574 -3.36447 0
M  V30 5676 S 522.926 1.90118 -3.95475 0
M  V30 5677 H 519.744 0.205434 -0.680675 0
M  V30 5678 H 522.346 -0.120906 -1.95126 0
M  V30 5679 H 521.05 0.426521 -4.08178 0
M  V30 5680 H 520.581 1.98916 -3.39405 0
M  V30 5681 H 522.596 3.18184 -3.80753 0
M  V30 5682 N 521.769 1.56035 0.221574 0
M  V30 5683 C 522.701 1.889 1.29805 0
M  V30 5684 C 523.714 0.777269 1.43047 0
M  V30 5685 O 524.903 1.05557 1.43945 0
M  V30 5686 C 522.003 2.0825 2.67367 0
M  V30 5687 C 521.176 3.39267 2.76073 0
M  V30 5688 C 520.235 3.48049 3.94649 0
M  V30 5689 O 519.261 4.2108 3.82988 0
M  V30 5690 N 520.463 2.79191 5.08953 0
M  V30 5691 H 523.228 2.81831 1.01938 0
M  V30 5692 H 520.789 1.5658 0.411612 0
M  V30 5693 H 522.781 2.11441 3.45072 0
M  V30 5694 H 521.351 1.21944 2.87834 0
M  V30 5695 H 520.571 3.48175 1.84846 0
M  V30 5696 H 521.859 4.25575 2.7886 0
M  V30 5697 H 521.257 2.19635 5.21322 0
M  V30 5698 H 519.814 2.88043 5.84701 0
M  V30 5699 N 523.247 -0.488276 1.49845 0
M  V30 5700 C 524.157 -1.61451 1.70207 0
M  V30 5701 C 525.173 -1.63877 0.584846 0
M  V30 5702 O 526.349 -1.82063 0.861107 0
M  V30 5703 C 523.414 -2.9776 1.77594 0
M  V30 5704 C 522.475 -3.05861 3.01243 0
M  V30 5705 C 521.708 -4.35668 3.08268 0
M  V30 5706 O 521.931 -5.25197 2.22541 0
M  V30 5707 O 520.865 -4.49005 4.00847 0
M  V30 5708 H 524.691 -1.47199 2.65643 0
M  V30 5709 H 522.276 -0.665939 1.33737 0
M  V30 5710 H 524.158 -3.7875 1.84732 0
M  V30 5711 H 522.833 -3.12248 0.8534 0
M  V30 5712 H 521.74 -2.24012 2.99616 0
M  V30 5713 H 523.073 -2.96304 3.9302 0
M  V30 5714 N 524.725 -1.39134 -0.740242 0
M  V30 5715 C 525.657 -1.33332 -1.86428 0
M  V30 5716 C 526.67 -0.243042 -1.60976 0
M  V30 5717 O 527.859 -0.501608 -1.71307 0
M  V30 5718 C 524.959 -1.04626 -3.22346 0
M  V30 5719 C 524.132 -2.24826 -3.75196 0
M  V30 5720 C 523.191 -1.92659 -4.89662 0
M  V30 5721 O 522.217 -2.6529 -5.03597 0
M  V30 5722 N 523.419 -0.889575 -5.73643 0
M  V30 5723 H 526.184 -2.30196 -1.91911 0
M  V30 5724 H 523.745 -1.33168 -0.920756 0
M  V30 5725 H 525.737 -0.811347 -3.96484 0
M  V30 5726 H 524.307 -0.165129 -3.12164 0
M  V30 5727 H 523.527 -2.64301 -2.9247 0
M  V30 5728 H 524.815 -3.05015 -4.07239 0
M  V30 5729 H 524.213 -0.287529 -5.64969 0
M  V30 5730 H 522.77 -0.714557 -6.47871 0
M  V30 5731 N 526.204 0.969867 -1.24223 0
M  V30 5732 C 527.151 2.06407 -1.0327 0
M  V30 5733 C 528.121 1.66014 0.0533 0
M  V30 5734 O 529.306 1.90533 -0.100896 0
M  V30 5735 C 526.446 3.3909 -0.641262 0
M  V30 5736 C 525.559 3.9269 -1.80051 0
M  V30 5737 C 524.694 5.13631 -1.35486 0
M  V30 5738 C 523.733 5.59423 -2.48419 0
M  V30 5739 N 522.87 6.71586 -2.04737 0
M  V30 5740 H 527.71 2.23663 -1.96923 0
M  V30 5741 H 525.247 1.09624 -0.980862 0
M  V30 5742 H 527.205 4.15323 -0.395351 0
M  V30 5743 H 525.835 3.21765 0.258269 0
M  V30 5744 H 524.887 3.13116 -2.16014 0
M  V30 5745 H 526.199 4.22636 -2.64916 0
M  V30 5746 H 525.353 5.97231 -1.0677 0
M  V30 5747 H 524.092 4.85364 -0.476722 0
M  V30 5748 H 523.097 4.74398 -2.77897 0
M  V30 5749 H 524.322 5.89705 -3.36786 0
M  V30 5750 H 522.268 6.45058 -1.19318 0
M  V30 5751 H 522.185 7.0097 -2.83156 0
M  V30 5752 H 523.453 7.58633 -1.79154 0
M  V30 5753 N 527.682 1.05563 1.17022 0
M  V30 5754 C 528.592 0.670758 2.24807 0
M  V30 5755 C 529.608 -0.309865 1.71219 0
M  V30 5756 O 530.784 -0.161025 2.00755 0
M  V30 5757 C 527.849 0.055337 3.46656 0
M  V30 5758 C 526.91 1.08688 4.15314 0
M  V30 5759 C 526.143 0.500736 5.31346 0
M  V30 5760 O 526.366 -0.688718 5.66227 0
M  V30 5761 O 525.3 1.23683 5.89055 0
M  V30 5762 H 529.126 1.56914 2.60023 0
M  V30 5763 H 526.711 0.827428 1.24395 0
M  V30 5764 H 528.593 -0.286492 4.20425 0
M  V30 5765 H 527.268 -0.816638 3.13229 0
M  V30 5766 H 526.175 1.48077 3.43546 0
M  V30 5767 H 527.508 1.93014 4.52777 0
M  V30 5768 N 529.16 -1.33526 0.837174 0
M  V30 5769 C 530.07 -2.33023 0.271568 0
M  V30 5770 C 531.086 -1.63272 -0.601514 0
M  V30 5771 O 532.262 -1.94939 -0.506038 0
M  V30 5772 C 529.327 -3.42382 -0.545448 0
M  V30 5773 C 528.388 -4.27857 0.351709 0
M  V30 5774 C 527.621 -5.31994 -0.426409 0
M  V30 5775 O 527.844 -5.45763 -1.65828 0
M  V30 5776 O 526.778 -6.01572 0.1987 0
M  V30 5777 H 530.604 -2.83256 1.09545 0
M  V30 5778 H 528.189 -1.36837 0.599655 0
M  V30 5779 H 530.071 -4.09122 -1.00979 0
M  V30 5780 H 528.746 -2.94369 -1.34641 0
M  V30 5781 H 527.653 -3.6399 0.863853 0
M  V30 5782 H 528.986 -4.79349 1.1174 0
M  V30 5783 N 530.638 -0.59345 -1.46 0
M  V30 5784 C 531.57 0.171569 -2.28557 0
M  V30 5785 C 532.583 0.845273 -1.39137 0
M  V30 5786 O 533.772 0.713033 -1.6364 0
M  V30 5787 C 530.872 1.26311 -3.14482 0
M  V30 5788 C 530.045 0.679258 -4.32094 0
M  V30 5789 C 529.104 1.65987 -4.99334 0
M  V30 5790 O 528.13 1.19171 -5.56585 0
M  V30 5791 N 529.332 2.99414 -4.97324 0
M  V30 5792 H 532.097 -0.536771 -2.94854 0
M  V30 5793 H 529.658 -0.431954 -1.56031 0
M  V30 5794 H 531.65 1.91863 -3.5633 0
M  V30 5795 H 530.22 1.87416 -2.50188 0
M  V30 5796 H 529.44 -0.153992 -3.93899 0
M  V30 5797 H 530.728 0.26916 -5.08088 0
M  V30 5798 H 530.126 3.40064 -4.52076 0
M  V30 5799 H 528.683 3.60426 -5.4308 0
M  V30 5800 N 532.116 1.54067 -0.331816 0
M  V30 5801 C 533.046 2.27569 0.522932 0
M  V30 5802 C 534.027 1.28679 1.11247 0
M  V30 5803 O 535.212 1.57504 1.13605 0
M  V30 5804 C 532.342 3.0397 1.67987 0
M  V30 5805 C 531.296 4.10267 1.21924 0
M  V30 5806 C 530.622 4.74555 2.46377 0
M  V30 5807 C 531.922 5.21268 0.32815 0
M  V30 5808 H 533.616 2.99264 -0.0901977 0
M  V30 5809 H 531.162 1.4393 -0.044821 0
M  V30 5810 H 533.115 3.54123 2.28418 0
M  V30 5811 H 531.839 2.29906 2.31971 0
M  V30 5812 H 530.498 3.61009 0.637809 0
M  V30 5813 H 530.146 3.97098 3.08743 0
M  V30 5814 H 529.846 5.46363 2.16243 0
M  V30 5815 H 531.37 5.27487 3.07555 0
M  V30 5816 H 532.784 5.67128 0.838978 0
M  V30 5817 H 531.181 5.99982 0.119228 0
M  V30 5818 H 532.251 4.80673 -0.638839 0
M  V30 5819 N 533.594 0.0601682 1.57485 0
M  V30 5820 C 534.526 -0.94047 2.09016 0
M  V30 5821 C 535.539 -1.26897 1.01985 0
M  V30 5822 O 536.728 -1.22819 1.29529 0
M  V30 5823 C 533.828 -2.25955 2.52582 0
M  V30 5824 C 533.001 -2.11163 3.83052 0
M  V30 5825 C 532.06 -3.26273 4.12835 0
M  V30 5826 O 531.086 -3.01779 4.82616 0
M  V30 5827 N 532.288 -4.51022 3.65458 0
M  V30 5828 H 535.053 -0.500578 2.9549 0
M  V30 5829 H 532.614 -0.125852 1.6141 0
M  V30 5830 H 534.606 -3.01846 2.69575 0
M  V30 5831 H 533.176 -2.61481 1.71308 0
M  V30 5832 H 532.396 -1.19808 3.75552 0
M  V30 5833 H 533.684 -1.98517 4.68475 0
M  V30 5834 H 533.082 -4.73811 3.09062 0
M  V30 5835 H 531.639 -5.23978 3.87673 0
M  V30 5836 N 535.072 -1.5615 -0.213296 0
M  V30 5837 C 535.982 -1.96265 -1.28519 0
M  V30 5838 C 536.998 -0.86765 -1.50824 0
M  V30 5839 O 538.174 -1.17191 -1.63793 0
M  V30 5840 C 535.239 -2.27836 -2.61327 0
M  V30 5841 C 534.3 -3.50949 -2.47252 0
M  V30 5842 C 533.533 -3.81004 -3.73727 0
M  V30 5843 O 533.756 -3.12612 -4.77106 0
M  V30 5844 O 532.69 -4.74477 -3.70344 0
M  V30 5845 H 536.516 -2.87631 -0.974795 0
M  V30 5846 H 534.101 -1.43467 -0.416832 0
M  V30 5847 H 535.983 -2.49299 -3.39747 0
M  V30 5848 H 534.658 -1.39643 -2.9203 0
M  V30 5849 H 533.565 -3.34754 -1.67004 0
M  V30 5850 H 534.898 -4.39551 -2.21486 0
M  V30 5851 N 536.55 0.480323 -1.50102 0
M  V30 5852 C 537.798 1.23063 -1.60312 0
M  V30 5853 C 538.119 1.92659 -0.301226 0
M  V30 5854 O 537.389 1.83691 0.680753 0
M  V30 5855 H 535.969 0.457231 -0.590719 0
M  V30 5856 H 538.631 0.554893 -1.86834 0
M  V30 5857 H 537.727 1.9835 -2.40964 0
M  V30 5858 N 538.028 1.39524 0.732853 0
M  V30 5859 C 539.274 1.37068 1.49467 0
M  V30 5860 C 539.607 -0.0327166 1.94172 0
M  V30 5861 O 538.882 -0.998071 1.66939 0
M  V30 5862 C 539.165 2.34494 2.73285 0
M  V30 5863 C 539.018 3.83784 2.34585 0
M  V30 5864 C 540.337 2.29717 3.75391 0
M  V30 5865 H 537.456 0.499206 0.542183 0
M  V30 5866 H 540.098 1.70532 0.837783 0
M  V30 5867 H 538.248 2.06087 3.29333 0
M  V30 5868 H 539.92 4.22949 1.84151 0
M  V30 5869 H 538.163 4.00455 1.66787 0
M  V30 5870 H 538.834 4.47444 3.23262 0
M  V30 5871 H 541.31 2.54839 3.28932 0
M  V30 5872 H 540.186 2.99962 4.59689 0
M  V30 5873 H 540.447 1.30291 4.22465 0
M  V30 5874 N 539.506 -0.963266 1.24736 0
M  V30 5875 C 540.456 -2.0438 1.01058 0
M  V30 5876 C 541.44 -1.60824 -0.0495354 0
M  V30 5877 O 542.632 -1.76232 0.164741 0
M  V30 5878 C 539.761 -3.37617 0.622067 0
M  V30 5879 C 538.847 -3.87722 1.7185 0
M  V30 5880 N 539.238 -4.10715 2.95207 0
M  V30 5881 C 537.536 -4.16426 1.59703 0
M  V30 5882 C 538.237 -4.51872 3.66315 0
M  V30 5883 N 537.213 -4.57302 2.93897 0
M  V30 5884 H 541.015 -2.20138 1.94721 0
M  V30 5885 H 538.529 -1.14741 1.14927 0
M  V30 5886 H 540.526 -4.14638 0.43366 0
M  V30 5887 H 539.186 -3.23242 -0.307327 0
M  V30 5888 H 540.197 -3.98037 3.31341 0
M  V30 5889 H 536.874 -4.10962 0.73598 0
M  V30 5890 H 538.264 -4.78037 4.72155 0
M  V30 5891 N 540.985 -1.06182 -1.16461 0
M  V30 5892 C 542.401 -0.785065 -1.38956 0
M  V30 5893 C 542.601 0.616103 -1.9185 0
M  V30 5894 O 541.657 1.37686 -2.11657 0
M  V30 5895 C 542.97 -1.84902 -2.37132 0
M  V30 5896 C 544.518 -1.8724 -2.50819 0
M  V30 5897 C 544.993 -2.92686 -3.52277 0
M  V30 5898 N 546.484 -2.91712 -3.59803 0
M  V30 5899 C 547.219 -3.69949 -4.38093 0
M  V30 5900 N 546.715 -4.58 -5.19815 0
M  V30 5901 N 548.508 -3.58346 -4.33064 0
M  V30 5902 H 540.659 -1.96569 -0.804634 0
M  V30 5903 H 542.922 -0.851747 -0.416211 0
M  V30 5904 H 542.628 -2.85518 -2.0536 0
M  V30 5905 H 542.502 -1.69908 -3.36766 0
M  V30 5906 H 544.889 -0.872827 -2.81897 0
M  V30 5907 H 544.97 -2.06311 -1.51226 0
M  V30 5908 H 544.614 -3.92835 -3.21937 0
M  V30 5909 H 544.544 -2.70864 -4.51598 0
M  V30 5910 H 547.035 -2.27876 -3.01464 0
M  V30 5911 H 547.348 -5.14357 -5.76764 0
M  V30 5912 H 545.693 -4.62056 -5.19162 0
M  V30 5913 H 548.884 -2.88943 -3.68279 0
M  V30 5914 H 549.057 -4.19563 -4.93833 0
M  V30 5915 N 542.463 1.3308 -0.844243 0
M  V30 5916 C 543.41 2.29104 -0.279323 0
M  V30 5917 C 544.38 1.54577 0.607882 0
M  V30 5918 O 545.565 1.8285 0.545009 0
M  V30 5919 C 542.705 3.40927 0.53508 0
M  V30 5920 C 541.818 4.30354 -0.376749 0
M  V30 5921 C 540.953 5.29297 0.449276 0
M  V30 5922 C 539.992 6.10365 -0.460606 0
M  V30 5923 N 539.129 7.01335 0.327612 0
M  V30 5924 H 543.969 2.76817 -1.10346 0
M  V30 5925 H 541.506 1.36203 -0.555611 0
M  V30 5926 H 543.464 4.04469 1.02278 0
M  V30 5927 H 542.094 2.94391 1.32414 0
M  V30 5928 H 541.146 3.67485 -0.982791 0
M  V30 5929 H 542.458 4.87067 -1.07549 0
M  V30 5930 H 541.612 5.98392 1.00058 0
M  V30 5931 H 540.351 4.73174 1.18143 0
M  V30 5932 H 539.356 5.40182 -1.02388 0
M  V30 5933 H 540.581 6.68571 -1.1912 0
M  V30 5934 H 538.527 6.47655 1.04305 0
M  V30 5935 H 538.444 7.55355 -0.3123 0
M  V30 5936 H 539.712 7.74731 0.86098 0
M  V30 5937 N 543.941 0.601185 1.45683 0
M  V30 5938 C 544.851 -0.123395 2.34275 0
M  V30 5939 C 545.867 -0.86702 1.5086 0
M  V30 5940 O 547.043 -0.826049 1.8368 0
M  V30 5941 C 544.108 -1.11237 3.2837 0
M  V30 5942 C 543.169 -0.371405 4.2769 0
M  V30 5943 C 542.402 -1.31327 5.1729 0
M  V30 5944 O 542.625 -2.55078 5.10188 0
M  V30 5945 O 541.559 -0.813811 5.96373 0
M  V30 5946 H 545.385 0.604483 2.97623 0
M  V30 5947 H 542.97 0.361477 1.44961 0
M  V30 5948 H 544.852 -1.68214 3.8637 0
M  V30 5949 H 543.527 -1.82139 2.67595 0
M  V30 5950 H 542.434 0.24067 3.73325 0
M  V30 5951 H 543.767 0.296998 4.91303 0
M  V30 5952 N 545.419 -1.53889 0.339982 0
M  V30 5953 C 546.83 -1.86139 -0.144671 0
M  V30 5954 C 547.181 -1.2613 -1.50285 0
M  V30 5955 O 546.306 -0.573515 -2.08662 0
M  V30 5956 C 546.901 -3.37728 -0.269285 0
M  V30 5957 C 545.46 -3.69868 -0.698168 0
M  V30 5958 C 544.607 -2.76777 0.170249 0
M  V30 5959 H 547.558 -1.48503 0.559704 0
M  V30 5960 H 547.579 -3.64331 -1.0974 0
M  V30 5961 H 547.091 -3.81375 0.719366 0
M  V30 5962 H 545.192 -3.31764 -1.69597 0
M  V30 5963 H 545.305 -4.76582 -0.490533 0
M  V30 5964 H 543.669 -2.52188 -0.356844 0
M  V30 5965 H 544.452 -3.23253 1.15597 0
M  V30 5966 N 546.897 -0.0685191 -1.57451 0
M  V30 5967 C 547.829 0.929372 -2.09512 0
M  V30 5968 C 548.842 1.26354 -1.02657 0
M  V30 5969 O 550.031 1.2213 -1.30179 0
M  V30 5970 C 547.131 2.24612 -2.53777 0
M  V30 5971 C 546.304 2.09128 -3.84167 0
M  V30 5972 C 545.363 3.24079 -4.14559 0
M  V30 5973 O 544.389 2.99215 -4.8421 0
M  V30 5974 N 545.591 4.49077 -3.67845 0
M  V30 5975 H 548.356 0.484901 -2.95751 0
M  V30 5976 H 545.917 0.11729 -1.61475 0
M  V30 5977 H 547.909 3.00412 -2.71172 0
M  V30 5978 H 546.479 2.60569 -1.72692 0
M  V30 5979 H 545.699 1.17815 -3.76182 0
M  V30 5980 H 546.987 1.9603 -4.69521 0
M  V30 5981 H 546.385 4.72165 -3.11571 0
M  V30 5982 H 544.942 5.21915 -3.90446 0
M  V30 5983 N 548.375 1.56261 0.205012 0
M  V30 5984 C 549.623 1.79684 0.925096 0
M  V30 5985 C 549.944 0.63989 1.84202 0
M  V30 5986 O 549.214 -0.342345 1.92885 0
M  V30 5987 H 547.794 0.662774 0.344587 0
M  V30 5988 H 550.456 1.93734 0.212899 0
M  V30 5989 H 549.552 2.72467 1.52211 0
M  V30 5990 N 549.853 -0.472356 1.50355 0
M  V30 5991 C 550.816 -1.5529 1.68576 0
M  V30 5992 C 551.816 -1.50863 0.556511 0
M  V30 5993 O 553.006 -1.53505 0.823516 0
M  V30 5994 C 550.138 -2.94921 1.70981 0
M  V30 5995 H 551.331 -1.40451 2.64978 0
M  V30 5996 H 548.884 -0.698645 1.39816 0
M  V30 5997 H 549.619 -3.15204 0.762675 0
M  V30 5998 H 549.404 -2.99541 2.53017 0
M  V30 5999 H 550.894 -3.73372 1.87037 0
M  V30 6000 N 551.331 -1.39911 -0.725443 0
M  V30 6001 C 552.559 -1.40949 -1.51463 0
M  V30 6002 C 552.974 -0.0065242 -1.88799 0
M  V30 6003 O 552.331 0.967163 -1.54765 0
M  V30 6004 C 552.382 -2.29119 -2.79619 0
M  V30 6005 O 552.103 -3.63952 -2.43866 0
M  V30 6006 C 553.604 -2.38642 -3.73584 0
M  V30 6007 H 550.824 -0.481091 -0.467752 0
M  V30 6008 H 553.368 -1.83843 -0.895651 0
M  V30 6009 H 551.523 -1.89612 -3.37826 0
M  V30 6010 H 551.937 -4.10677 -3.26258 0
M  V30 6011 H 553.411 -3.04563 -4.60375 0
M  V30 6012 H 553.888 -1.40846 -4.16004 0
M  V30 6013 H 554.494 -2.78659 -3.21293 0
M  V30 6014 O 552.848 0.866802 -1.36267 0
M  V30 6015 H 553.539 1.50585 -1.21835 0
M  V30 END ATOM
M  V30 BEGIN BOND
M  V30 END BOND
M  V30 END CTAB
M  END
$$$$
