drugbank_target|P12461 Thymidylate synthase (DB01099)
 OpenBabel12092119223D

  0  0  0     0  0            999 V3000
M  V30 BEGIN CTAB
M  V30 COUNTS 5043 5112 0 0 0
M  V30 BEGIN ATOM
M  V30 1 H -0.908 1.98254 -0.117106 0
M  V30 2 N 0 1.576 0 0
M  V30 3 C 0.933 2.03868 1.02534 0
M  V30 4 C 1.911 0.928543 1.3348 0
M  V30 5 O 3.095 1.19667 1.45644 0
M  V30 6 C 0.222 2.43627 2.35294 0
M  V30 7 C -0.732 3.65373 2.2001 0
M  V30 8 S 0.101 5.13292 1.52614 0
M  V30 9 C 1.257 5.56322 2.86805 0
M  V30 10 H 1.49 2.90518 0.631377 0
M  V30 11 H -0.977 1.52953 0.210867 0
M  V30 12 H 0.981 2.67203 3.11629 0
M  V30 13 H -0.358 1.57376 2.7183 0
M  V30 14 H -1.165 3.90944 3.18086 0
M  V30 15 H -1.563 3.418 1.51819 0
M  V30 16 H 0.729 5.58782 3.83104 0
M  V30 17 H 1.672 6.56266 2.65933 0
M  V30 18 H 2.08 4.83886 2.90714 0
M  V30 19 N 1.4781 -0.272755 1.55222 0
M  V30 20 C 2.7061 -1.02255 1.79865 0
M  V30 21 C 3.1211 -1.79924 0.572088 0
M  V30 22 O 2.4781 -1.76638 -0.458842 0
M  V30 23 C 2.5291 -1.98094 3.02392 0
M  V30 24 O 2.2501 -1.23572 4.20311 0
M  V30 25 C 3.7511 -2.84884 3.39641 0
M  V30 26 H 0.9711 -0.302057 0.599168 0
M  V30 27 H 3.5151 -0.303465 2.02236 0
M  V30 28 H 1.6701 -2.65465 2.82147 0
M  V30 29 H 2.0841 -1.88172 4.89583 0
M  V30 30 H 3.5581 -3.47927 4.28545 0
M  V30 31 H 4.0351 -3.54665 2.59055 0
M  V30 32 H 4.6411 -2.23003 3.62146 0
M  V30 33 N 2.9562 -1.48159 -0.537278 0
M  V30 34 C 4.2022 -1.56035 -1.29541 0
M  V30 35 C 4.5352 -0.230377 -1.92829 0
M  V30 36 O 3.8102 0.762952 -1.78911 0
M  V30 37 C 4.0932 -2.69323 -2.39034 0
M  V30 38 C 3.9462 -4.12002 -1.80485 0
M  V30 39 C 5.2652 -2.78408 -3.40847 0
M  V30 40 H 2.3842 -0.567992 -0.469632 0
M  V30 41 H 5.0262 -1.80302 -0.599277 0
M  V30 42 H 3.1762 -2.48763 -2.98412 0
M  V30 43 H 4.8482 -4.43981 -1.25215 0
M  V30 44 H 3.0912 -4.19344 -1.11055 0
M  V30 45 H 3.7622 -4.87077 -2.59731 0
M  V30 46 H 6.2382 -2.97012 -2.91416 0
M  V30 47 H 5.1142 -3.59416 -4.14863 0
M  V30 48 H 5.3752 -1.86269 -4.00944 0
M  V30 49 N 4.4343 0.785586 -1.36625 0
M  V30 50 C 5.6593 1.57963 -1.34397 0
M  V30 51 C 6.0843 1.87964 0.071526 0
M  V30 52 O 5.4423 1.48182 1.0446 0
M  V30 53 C 5.4903 2.87511 -2.17646 0
M  V30 54 O 4.5943 3.81281 -1.57158 0
M  V30 55 H 3.9353 0.479014 -0.459828 0
M  V30 56 H 6.4653 0.973411 -1.79961 0
M  V30 57 H 6.4753 3.36745 -2.30362 0
M  V30 58 H 5.1503 2.65002 -3.20541 0
M  V30 59 H 3.7273 3.39885 -1.53403 0
M  V30 60 N 5.9124 1.20967 1.01018 0
M  V30 61 C 7.3234 1.02319 1.56165 0
M  V30 62 C 7.6744 -0.418546 1.91684 0
M  V30 63 O 6.7994 -1.30096 1.72928 0
M  V30 64 C 7.3944 1.85109 2.8376 0
M  V30 65 C 5.9534 1.70809 3.35412 0
M  V30 66 C 5.1004 1.82643 2.08655 0
M  V30 67 H 8.0514 1.35065 0.833255 0
M  V30 68 H 8.0724 1.35827 3.55431 0
M  V30 69 H 7.5844 2.90035 2.57878 0
M  V30 70 H 5.6854 0.685464 3.66241 0
M  V30 71 H 5.7984 2.52467 4.07182 0
M  V30 72 H 4.1624 1.25896 2.21409 0
M  V30 73 H 4.9454 2.89066 1.85191 0
M  V30 74 N 7.3905 -1.2043 1.01659 0
M  V30 75 C 8.3385 -2.25249 0.580143 0
M  V30 76 C 9.3325 -1.65057 -0.381115 0
M  V30 77 O 10.5385 -1.78241 -0.251039 0
M  V30 78 H 6.9135 -0.732695 0.169299 0
M  V30 79 H 8.8845 -2.59389 1.47512 0
M  V30 80 C 7.6335 -3.47638 -0.065788 0
M  V30 81 H 6.9565 -3.94233 0.664874 0
M  V30 82 H 8.3965 -4.2268 -0.334282 0
M  V30 83 C 6.8555 -3.10447 -1.3086 0
M  V30 84 O 7.3855 -3.21981 -2.4019 0
M  V30 85 N 5.5915 -2.64996 -1.1927 0
M  V30 86 H 5.1385 -2.55811 -0.303064 0
M  V30 87 H 5.0965 -2.40482 -2.02523 0
M  V30 88 N 8.8686 -0.792821 -1.36206 0
M  V30 89 C 10.0966 -0.378825 -2.03402 0
M  V30 90 C 10.5116 1.00586 -1.59774 0
M  V30 91 O 9.8686 1.64574 -0.788764 0
M  V30 92 C 9.9196 -0.43683 -3.58851 0
M  V30 93 O 9.6406 -1.76691 -4.00889 0
M  V30 94 C 11.1416 -0.0138943 -4.43298 0
M  V30 95 H 8.3616 -0.155673 -0.652692 0
M  V30 96 H 10.9056 -1.07261 -1.74113 0
M  V30 97 H 9.0606 0.208575 -3.86838 0
M  V30 98 H 9.4746 -1.72011 -4.95492 0
M  V30 99 H 10.9486 -0.105615 -5.51899 0
M  V30 100 H 11.4256 1.03915 -4.2673 0
M  V30 101 H 12.0316 -0.63192 -4.20579 0
M  V30 102 N 10.3467 1.47872 -0.545128 0
M  V30 103 C 11.3097 2.28337 0.198717 0
M  V30 104 C 12.3097 1.36255 0.853888 0
M  V30 105 O 13.4997 1.59003 0.711606 0
M  V30 106 C 10.6317 3.15585 1.28915 0
M  V30 107 H 11.8247 2.95567 -0.507941 0
M  V30 108 H 9.3777 1.53362 -0.301616 0
M  V30 109 H 10.1127 2.53019 2.02859 0
M  V30 110 H 9.8977 3.83337 0.824309 0
M  V30 111 H 11.3877 3.76243 1.81194 0
M  V30 112 N 11.8248 0.280983 1.55075 0
M  V30 113 C 12.7348 -0.61388 2.26426 0
M  V30 114 C 13.7508 -1.16521 1.29224 0
M  V30 115 O 14.9268 -1.19426 1.62171 0
M  V30 116 C 11.9918 -1.7788 2.9759 0
M  V30 117 C 11.0528 -1.26355 4.10284 0
M  V30 118 C 10.2858 -2.37295 4.78045 0
M  V30 119 O 10.5088 -3.56777 4.45047 0
M  V30 120 O 9.4428 -2.05119 5.65871 0
M  V30 121 H 13.2688 -0.0356932 3.03679 0
M  V30 122 H 10.8538 0.0481686 1.49322 0
M  V30 123 H 12.7358 -2.45791 3.42293 0
M  V30 124 H 11.4108 -2.34397 2.23249 0
M  V30 125 H 10.3178 -0.550735 3.70024 0
M  V30 126 H 11.6508 -0.744065 4.86543 0
M  V30 127 N 13.3029 -1.57598 0.00835791 0
M  V30 128 C 14.2349 -2.05811 -1.00868 0
M  V30 129 C 15.2479 -0.977579 -1.30182 0
M  V30 130 O 16.4369 -1.25421 -1.27011 0
M  V30 131 C 13.5369 -2.45016 -2.34137 0
M  V30 132 C 12.7099 -3.75903 -2.23643 0
M  V30 133 C 11.7689 -4.01884 -3.3967 0
M  V30 134 O 10.7949 -4.72433 -3.17483 0
M  V30 135 N 11.9969 -3.50432 -4.62793 0
M  V30 136 H 14.7619 -2.93684 -0.597458 0
M  V30 137 H 12.3229 -1.60909 -0.178852 0
M  V30 138 H 14.3149 -2.59506 -3.10546 0
M  V30 139 H 12.8849 -1.62618 -2.66972 0
M  V30 140 H 12.1049 -3.7141 -1.32091 0
M  V30 141 H 13.3929 -4.61695 -2.13812 0
M  V30 142 H 12.7909 -2.93317 -4.83716 0
M  V30 143 H 11.3479 -3.70236 -5.3644 0
M  V30 144 N 14.781 0.264519 -1.55364 0
M  V30 145 C 15.744 1.31046 -1.88042 0
M  V30 146 C 16.744 1.41943 -0.755569 0
M  V30 147 O 17.934 1.40947 -1.02369 0
M  V30 148 C 15.066 2.69067 -2.09323 0
M  V30 149 H 16.259 1.03297 -2.81549 0
M  V30 150 H 13.812 0.502989 -1.47986 0
M  V30 151 H 14.547 3.01982 -1.18226 0
M  V30 152 H 14.332 2.62542 -2.91229 0
M  V30 153 H 15.822 3.44623 -2.35848 0
M  V30 154 N 16.2591 1.48442 0.529413 0
M  V30 155 C 17.4891 1.59919 1.30804 0
M  V30 156 C 17.8971 0.258792 1.87422 0
M  V30 157 O 17.2401 -0.762096 1.67146 0
M  V30 158 C 17.3021 2.58693 2.49636 0
M  V30 159 C 16.9661 4.03745 2.14101 0
M  V30 160 C 17.9631 4.9141 1.6974 0
M  V30 161 C 15.6481 4.49285 2.24607 0
M  V30 162 C 17.6421 6.22645 1.36351 0
M  V30 163 C 15.3291 5.8054 1.9083 0
M  V30 164 C 16.3271 6.67043 1.46773 0
M  V30 165 O 16.0151 7.95856 1.1344 0
M  V30 166 H 15.7471 0.541981 0.404021 0
M  V30 167 H 18.3011 1.95 0.645309 0
M  V30 168 H 16.5311 2.18734 3.18892 0
M  V30 169 H 18.2201 2.59999 3.11698 0
M  V30 170 H 18.9861 4.57465 1.61094 0
M  V30 171 H 14.8651 3.82142 2.57854 0
M  V30 172 H 18.4091 6.90119 1.01891 0
M  V30 173 H 14.3061 6.14022 1.99117 0
M  V30 174 H 15.0741 8.08613 1.26832 0
M  V30 175 N 17.7372 -0.778329 1.37039 0
M  V30 176 C 18.6672 -1.90546 1.34962 0
M  V30 177 C 19.6482 -1.68681 0.219274 0
M  V30 178 O 20.8332 -1.89634 0.418624 0
M  V30 179 C 17.9632 -3.27734 1.14925 0
M  V30 180 C 16.9172 -3.64147 2.24902 0
M  V30 181 C 16.2432 -4.99806 1.89996 0
M  V30 182 C 17.5432 -3.71579 3.67051 0
M  V30 183 H 19.2372 -1.92541 2.29277 0
M  V30 184 H 16.7832 -0.924948 1.10366 0
M  V30 185 H 18.7362 -4.06215 1.12104 0
M  V30 186 H 17.4602 -3.26154 0.170631 0
M  V30 187 H 16.1192 -2.8797 2.26868 0
M  V30 188 H 15.7672 -4.94759 0.906796 0
M  V30 189 H 15.4672 -5.25139 2.63634 0
M  V30 190 H 16.9912 -5.80694 1.88749 0
M  V30 191 H 18.4052 -4.40227 3.67251 0
M  V30 192 H 16.8022 -4.08405 4.39688 0
M  V30 193 H 17.8722 -2.72404 4.01154 0
M  V30 194 N 19.2153 -1.21501 -1.00376 0
M  V30 195 C 20.4923 -0.941745 -1.71437 0
M  V30 196 C 20.8723 0.546114 -2.03914 0
M  V30 197 O 20.2203 1.51128 -1.71384 0
M  V30 198 C 20.4303 -1.82812 -2.97289 0
M  V30 199 C 21.7783 -2.07771 -3.70292 0
M  V30 200 O 22.8023 -1.80171 -3.07273 0
M  V30 201 O 21.6613 -2.54456 -4.83647 0
M  V30 202 H 18.7553 -0.353243 -0.747762 0
M  V30 203 H 21.3013 -1.32436 -1.06108 0
M  V30 204 H 20.0733 -2.83501 -2.69709 0
M  V30 205 H 19.6963 -1.4464 -3.70358 0
M  V30 206 N 20.6934 1.19889 -1.02296 0
M  V30 207 C 21.6234 2.25141 -0.619174 0
M  V30 208 C 22.6044 1.66051 0.368915 0
M  V30 209 O 23.7894 1.92546 0.252941 0
M  V30 210 C 20.9194 3.4728 0.0368783 0
M  V30 211 C 19.8734 4.19005 -0.872865 0
M  V30 212 C 19.1994 5.34637 -0.0822402 0
M  V30 213 C 20.4994 4.74452 -2.18387 0
M  V30 214 H 22.1934 2.59171 -1.49903 0
M  V30 215 H 19.7394 1.24579 -0.722222 0
M  V30 216 H 21.6924 4.20098 0.330958 0
M  V30 217 H 20.4164 3.12433 0.95149 0
M  V30 218 H 19.0754 3.48061 -1.15105 0
M  V30 219 H 18.7234 4.96034 0.83422 0
M  V30 220 H 18.4234 5.83557 -0.688149 0
M  V30 221 H 19.9474 6.10255 0.205238 0
M  V30 222 H 21.3614 5.39055 -1.95172 0
M  V30 223 H 19.7584 5.33834 -2.74119 0
M  V30 224 H 20.8284 3.92844 -2.84257 0
M  V30 225 N 22.1715 0.800033 1.35784 0
M  V30 226 C 23.4115 0.382891 2.00782 0
M  V30 227 C 23.7755 -1.02891 1.62103 0
M  V30 228 O 24.9765 -1.54771 2.19771 0
M  V30 229 C 23.2475 0.553299 3.53091 0
M  V30 230 S 24.8065 0.225608 4.3822 0
M  V30 231 H 21.6245 0.145737 0.695904 0
M  V30 232 H 24.2265 1.04085 1.65489 0
M  V30 233 H 22.9305 1.58091 3.78729 0
M  V30 234 H 22.4615 -0.120214 3.93216 0
M  V30 235 H 24.4765 -0.969074 4.86645 0
M  V30 236 N 23.6496 -1.47581 0.552962 0
M  V30 237 C 24.5966 -2.29957 -0.197108 0
M  V30 238 C 25.5666 -1.38799 -0.912359 0
M  V30 239 O 26.7516 -1.67761 -0.908888 0
M  V30 240 C 23.8916 -3.22672 -1.22379 0
M  V30 241 C 23.0046 -4.28919 -0.515038 0
M  V30 242 C 22.1396 -5.0879 -1.52664 0
M  V30 243 C 21.1786 -6.06815 -0.802631 0
M  V30 244 N 20.3156 -6.7966 -1.76086 0
M  V30 245 H 25.1556 -2.93578 0.511486 0
M  V30 246 H 22.6926 -1.4471 0.264067 0
M  V30 247 H 24.6506 -3.74845 -1.83159 0
M  V30 248 H 23.2806 -2.60925 -1.90047 0
M  V30 249 H 22.3326 -3.79835 0.207192 0
M  V30 250 H 23.6446 -4.98773 0.0523425 0
M  V30 251 H 22.7986 -5.65091 -2.20809 0
M  V30 252 H 21.5376 -4.38828 -2.12794 0
M  V30 253 H 20.5426 -5.49695 -0.107238 0
M  V30 254 H 21.7676 -6.78784 -0.207135 0
M  V30 255 H 19.7136 -6.12432 -2.35081 0
M  V30 256 H 19.6306 -7.45669 -1.24552 0
M  V30 257 H 20.8986 -7.40538 -2.43359 0
M  V30 258 N 25.1277 -0.289203 -1.54924 0
M  V30 259 C 26.5437 0.0645403 -1.59469 0
M  V30 260 C 26.7437 1.53419 -1.30632 0
M  V30 261 O 25.7997 2.2852 -1.074 0
M  V30 262 C 27.1127 -0.32278 -2.98963 0
M  V30 263 C 28.6607 -0.270564 -3.11828 0
M  V30 264 C 29.1357 -0.632532 -4.53611 0
M  V30 265 N 30.6267 -0.584617 -4.59496 0
M  V30 266 C 31.3617 -0.837314 -5.67254 0
M  V30 267 N 30.8577 -1.15536 -6.83098 0
M  V30 268 N 32.6507 -0.765166 -5.56868 0
M  V30 269 H 24.8017 -1.24714 -1.71931 0
M  V30 270 H 27.0647 -0.504809 -0.802416 0
M  V30 271 H 26.7707 -1.34541 -3.24948 0
M  V30 272 H 26.6447 0.32944 -3.75759 0
M  V30 273 H 29.0317 0.742805 -2.85598 0
M  V30 274 H 29.1127 -0.957242 -2.37214 0
M  V30 275 H 28.7567 -1.64365 -4.80569 0
M  V30 276 H 28.6867 0.07609 -5.26545 0
M  V30 277 H 31.1777 -0.349248 -3.76283 0
M  V30 278 H 31.4907 -1.33447 -7.61191 0
M  V30 279 H 29.8357 -1.19328 -6.84679 0
M  V30 280 H 33.0267 -0.516432 -4.65243 0
M  V30 281 H 33.1997 -0.965477 -6.40767 0
M  V30 282 N 26.6058 1.57591 -0.0167156 0
M  V30 283 C 27.8548 1.90461 0.663877 0
M  V30 284 C 28.1678 0.893515 1.73999 0
M  V30 285 O 29.3738 1.11302 2.47637 0
M  V30 286 C 27.8298 3.38155 1.23204 0
M  V30 287 C 27.4378 4.47597 0.189866 0
M  V30 288 C 29.1818 3.80111 1.88986 0
M  V30 289 C 27.0888 5.86379 0.768964 0
M  V30 290 H 26.0188 0.710738 0.251729 0
M  V30 291 H 28.6698 1.83326 -0.0799926 0
M  V30 292 H 27.0518 3.40182 2.02712 0
M  V30 293 H 28.2258 4.57112 -0.581846 0
M  V30 294 H 26.5408 4.14766 -0.368475 0
M  V30 295 H 29.1378 4.81145 2.33247 0
M  V30 296 H 29.4808 3.14511 2.72743 0
M  V30 297 H 30.0138 3.80454 1.16187 0
M  V30 298 H 26.7528 6.55493 -0.0301957 0
M  V30 299 H 26.2728 5.80496 1.50945 0
M  V30 300 H 27.9518 6.34563 1.26251 0
M  V30 301 N 28.0839 -0.256276 1.55502 0
M  V30 302 C 29.3329 -0.983486 1.76098 0
M  V30 303 C 29.6459 -1.86837 0.578896 0
M  V30 304 O 30.8519 -2.63163 0.667648 0
M  V30 305 C 29.3079 -1.79868 3.1173 0
M  V30 306 C 28.9159 -0.961648 4.37557 0
M  V30 307 C 30.6599 -2.51919 3.41668 0
M  V30 308 C 28.5669 -1.77219 5.64223 0
M  V30 309 H 27.4969 -0.370936 0.656447 0
M  V30 310 H 30.1479 -0.238492 1.81944 0
M  V30 311 H 28.5299 -2.58527 2.99966 0
M  V30 312 H 29.7039 -0.218048 4.60284 0
M  V30 313 H 28.0189 -0.354913 4.14885 0
M  V30 314 H 30.6159 -3.12998 4.33516 0
M  V30 315 H 30.9589 -3.23059 2.62562 0
M  V30 316 H 31.4919 -1.80278 3.54605 0
M  V30 317 H 28.2309 -1.10471 6.46124 0
M  V30 318 H 27.7509 -2.49132 5.45613 0
M  V30 319 H 29.4299 -2.34169 6.03137 0
M  V30 320 N 29.562 -1.4872 -0.521534 0
M  V30 321 C 30.839 -1.4766 -1.2828 0
M  V30 322 C 31.219 -0.19292 -2.10217 0
M  V30 323 O 30.567 0.825193 -2.13079 0
M  V30 324 C 30.777 -2.74358 -2.15705 0
M  V30 325 C 32.125 -3.23028 -2.75569 0
M  V30 326 O 33.149 -2.75333 -2.25987 0
M  V30 327 O 32.008 -4.0604 -3.65778 0
M  V30 328 H 29.102 -0.590085 -0.579421 0
M  V30 329 H 31.648 -1.60963 -0.537492 0
M  V30 330 H 30.42 -3.59292 -1.54999 0
M  V30 331 H 30.043 -2.63816 -2.97467 0
M  V30 332 N 31.0401 0.771051 -1.3745 0
M  V30 333 C 31.9501 1.91538 -1.35464 0
M  V30 334 C 32.9661 1.72134 -0.254123 0
M  V30 335 O 34.1421 1.95358 -0.489626 0
M  V30 336 C 31.2071 3.26671 -1.16134 0
M  V30 337 C 30.2681 3.58723 -2.35831 0
M  V30 338 C 29.5011 4.87409 -2.17413 0
M  V30 339 O 29.7241 5.58506 -1.15876 0
M  V30 340 O 28.6581 5.18539 -3.05615 0
M  V30 341 H 32.4841 1.96165 -2.31847 0
M  V30 342 H 30.0691 0.9139 -1.18187 0
M  V30 343 H 31.9511 4.07499 -1.07345 0
M  V30 344 H 30.6261 3.22894 -0.228251 0
M  V30 345 H 29.5331 2.78127 -2.50192 0
M  V30 346 H 30.8661 3.67243 -3.27709 0
M  V30 347 N 32.5182 1.22032 0.997298 0
M  V30 348 C 33.7662 1.04016 1.73278 0
M  V30 349 C 34.0872 -0.426255 1.90284 0
M  V30 350 O 33.3572 -1.30694 1.45931 0
M  V30 351 H 31.9372 0.381897 0.642 0
M  V30 352 H 34.5992 1.5347 1.20137 0
M  V30 353 H 33.6952 1.51441 2.72896 0
M  V30 354 N 33.9963 -1.19345 1.0293 0
M  V30 355 C 34.9063 -2.26245 0.620515 0
M  V30 356 C 35.9223 -1.70486 -0.347928 0
M  V30 357 O 37.0983 -2.00347 -0.205704 0
M  V30 358 C 34.1633 -3.46693 -0.0218957 0
M  V30 359 C 33.2243 -4.17632 0.994102 0
M  V30 360 C 32.4573 -5.32329 0.382253 0
M  V30 361 O 32.6803 -5.64552 -0.814676 0
M  V30 362 O 31.6143 -5.91664 1.10531 0
M  V30 363 H 35.4403 -2.63453 1.51083 0
M  V30 364 H 33.0253 -1.26207 0.799513 0
M  V30 365 H 34.9073 -4.19683 -0.380072 0
M  V30 366 H 33.5823 -3.11333 -0.886209 0
M  V30 367 H 32.4893 -3.4676 1.40387 0
M  V30 368 H 33.8223 -4.56964 1.8288 0
M  V30 369 N 35.4744 -0.807222 -1.35358 0
M  V30 370 C 36.4244 -0.190706 -2.27201 0
M  V30 371 C 37.4084 0.635838 -1.47804 0
M  V30 372 O 38.6004 0.492991 -1.69996 0
M  V30 373 C 35.7294 0.659337 -3.36909 0
M  V30 374 C 34.8154 -0.176971 -4.23731 0
M  V30 375 N 35.2064 -1.24029 -4.90357 0
M  V30 376 C 33.5044 0.0412953 -4.45981 0
M  V30 377 C 34.2054 -1.75092 -5.54723 0
M  V30 378 N 33.1814 -1.05727 -5.33219 0
M  V30 379 H 36.9834 -1.0043 -2.76208 0
M  V30 380 H 34.4974 -0.648445 -1.48892 0
M  V30 381 H 36.4944 1.11706 -4.01656 0
M  V30 382 H 35.1544 1.47127 -2.89454 0
M  V30 383 H 36.1654 -1.62295 -4.91814 0
M  V30 384 H 32.8424 0.82232 -4.09322 0
M  V30 385 H 34.2324 -2.63963 -6.17878 0
M  V30 386 N 36.9525 1.47285 -0.560781 0
M  V30 387 C 38.3685 1.58065 -0.22081 0
M  V30 388 C 38.5685 1.55892 1.27671 0
M  V30 389 O 37.6245 1.46422 2.0571 0
M  V30 390 C 38.9375 2.88418 -0.850625 0
M  V30 391 C 40.4855 3.02009 -0.822184 0
M  V30 392 C 40.9605 4.35066 -1.43113 0
M  V30 393 N 42.4515 4.41711 -1.39448 0
M  V30 394 C 43.1865 5.43237 -1.83525 0
M  V30 395 N 42.6825 6.51555 -2.35474 0
M  V30 396 N 44.4755 5.34304 -1.74574 0
M  V30 397 H 36.6265 1.46941 -1.53369 0
M  V30 398 H 38.8895 0.699558 -0.639783 0
M  V30 399 H 38.5955 2.95755 -1.9032 0
M  V30 400 H 38.4695 3.75612 -0.345773 0
M  V30 401 H 40.8565 2.94266 0.221714 0
M  V30 402 H 40.9375 2.16347 -1.36483 0
M  V30 403 H 40.5815 4.43565 -2.47412 0
M  V30 404 H 40.5115 5.19465 -0.863899 0
M  V30 405 H 43.0025 3.64027 -1.01452 0
M  V30 406 H 43.3155 7.25203 -2.67021 0
M  V30 407 H 41.6605 6.52435 -2.39487 0
M  V30 408 H 44.8515 4.48581 -1.33763 0
M  V30 409 H 45.0245 6.13288 -2.09242 0
M  V30 410 N 38.4306 0.297415 1.54768 0
M  V30 411 C 39.8416 -0.195947 1.85669 0
M  V30 412 C 40.1926 -1.53707 1.21937 0
M  V30 413 O 39.3176 -2.10164 0.515754 0
M  V30 414 C 39.9126 -0.362318 3.36857 0
M  V30 415 C 38.4716 -0.799901 3.67802 0
M  V30 416 C 37.6186 0.0938578 2.77141 0
M  V30 417 H 40.5696 0.518538 1.4999 0
M  V30 418 H 40.5906 -1.19745 3.61167 0
M  V30 419 H 40.1026 0.613921 3.83214 0
M  V30 420 H 38.2036 -1.78682 3.26961 0
M  V30 421 H 38.3166 -0.621773 4.75048 0
M  V30 422 H 36.6806 -0.426254 2.51108 0
M  V30 423 H 37.4636 1.06639 3.26318 0
M  V30 424 N 39.9087 -1.5758 0.0250728 0
M  V30 425 C 41.1857 -1.82917 -0.692873 0
M  V30 426 C 41.5657 -0.908137 -1.90568 0
M  V30 427 O 40.9137 0.0372298 -2.2847 0
M  V30 428 C 41.1237 -3.32034 -1.07492 0
M  V30 429 C 42.4717 -3.98406 -1.46826 0
M  V30 430 O 43.4957 -3.36505 -1.16801 0
M  V30 431 O 42.3547 -5.07497 -2.02754 0
M  V30 432 H 39.4487 -0.754079 -0.33955 0
M  V30 433 H 41.9947 -1.69619 0.0524456 0
M  V30 434 H 40.7667 -3.90728 -0.211552 0
M  V30 435 H 40.3897 -3.50424 -1.87854 0
M  V30 436 N 41.3868 0.248026 -1.55636 0
M  V30 437 C 42.8028 0.596483 -1.48035 0
M  V30 438 C 43.0028 1.88386 -0.715039 0
M  V30 439 O 42.0588 2.51319 -0.243944 0
M  V30 440 C 43.3718 0.700258 -2.92433 0
M  V30 441 C 44.9198 0.792659 -3.02797 0
M  V30 442 C 45.3948 0.928005 -4.485 0
M  V30 443 N 46.8858 0.992903 -4.52433 0
M  V30 444 C 47.6208 1.11687 -5.62418 0
M  V30 445 N 47.1168 1.20645 -6.82214 0
M  V30 446 N 48.9098 1.14994 -5.50212 0
M  V30 447 H 41.0608 -0.597109 -2.03834 0
M  V30 448 H 43.3238 -0.205925 -0.925364 0
M  V30 449 H 43.0298 -0.175658 -3.51261 0
M  V30 450 H 42.9038 1.57255 -3.42857 0
M  V30 451 H 45.2908 1.65903 -2.4405 0
M  V30 452 H 45.3718 -0.104762 -2.55585 0
M  V30 453 H 45.0158 0.0661971 -5.07857 0
M  V30 454 H 44.9458 1.84045 -4.93391 0
M  V30 455 H 47.4368 0.935064 -3.66149 0
M  V30 456 H 47.7498 1.30008 -7.61786 0
M  V30 457 H 46.0948 1.17605 -6.84977 0
M  V30 458 H 49.2858 1.07643 -4.55555 0
M  V30 459 H 49.4588 1.24311 -6.35965 0
M  V30 460 N 42.8649 1.48995 0.513639 0
M  V30 461 C 44.0929 1.61531 1.29288 0
M  V30 462 C 44.5079 0.281801 1.86685 0
M  V30 463 O 43.8649 -0.731111 1.67215 0
M  V30 464 C 43.9159 2.67449 2.43215 0
M  V30 465 O 43.6369 3.95626 1.88179 0
M  V30 466 C 45.1379 2.90575 3.34785 0
M  V30 467 H 42.3579 0.544165 0.392588 0
M  V30 468 H 44.9019 1.9494 0.617956 0
M  V30 469 H 43.0569 2.36853 3.0656 0
M  V30 470 H 43.4709 4.53868 2.62876 0
M  V30 471 H 44.9449 3.68449 4.11035 0
M  V30 472 H 45.4219 2.00011 3.91015 0
M  V30 473 H 46.0279 3.22538 2.77218 0
M  V30 474 N 44.343 -0.763751 1.37857 0
M  V30 475 C 45.591 -1.51957 1.33243 0
M  V30 476 C 45.912 -1.94835 -0.0801709 0
M  V30 477 O 45.182 -1.66894 -1.02582 0
M  V30 478 H 43.762 -0.563626 0.49024 0
M  V30 479 H 46.424 -0.908504 1.7243 0
M  V30 480 H 45.52 -2.41523 1.97669 0
M  V30 481 N 45.8211 -1.22559 -0.990812 0
M  V30 482 C 47.0491 -1.07779 -1.76611 0
M  V30 483 C 47.4641 0.371513 -1.85109 0
M  V30 484 O 46.8211 1.25737 -1.32274 0
M  V30 485 C 46.8721 -1.68512 -3.19822 0
M  V30 486 O 46.5931 -3.07774 -3.1178 0
M  V30 487 C 48.0941 -1.59035 -4.13791 0
M  V30 488 H 45.3141 -0.377729 -0.554583 0
M  V30 489 H 47.8581 -1.62195 -1.24551 0
M  V30 490 H 46.0131 -1.18154 -3.68942 0
M  V30 491 H 46.4271 -3.37062 -4.01858 0
M  V30 492 H 47.9011 -2.0625 -5.1202 0
M  V30 493 H 48.3781 -0.547273 -4.35777 0
M  V30 494 H 48.9841 -2.08709 -3.70568 0
M  V30 495 N 47.2992 1.18797 -1.03562 0
M  V30 496 C 48.5472 1.88278 -0.734569 0
M  V30 497 C 48.8682 1.8043 0.739586 0
M  V30 498 O 48.1382 1.21925 1.53333 0
M  V30 499 H 46.7182 0.696991 -0.268725 0
M  V30 500 H 49.3802 1.44192 -1.31129 0
M  V30 501 H 48.4762 2.94443 -1.03489 0
M  V30 502 N 48.7773 0.814389 1.34928 0
M  V30 503 C 50.0053 0.411136 2.02774 0
M  V30 504 C 50.4203 -0.980316 1.61354 0
M  V30 505 O 49.7773 -1.63299 0.814847 0
M  V30 506 C 49.8283 0.493865 3.58111 0
M  V30 507 O 49.5493 1.83047 3.98027 0
M  V30 508 C 51.0503 0.0844174 4.4322 0
M  V30 509 H 48.2703 0.166037 0.650133 0
M  V30 510 H 50.8143 1.10018 1.72384 0
M  V30 511 H 48.9693 -0.147006 3.87121 0
M  V30 512 H 49.3833 1.79872 4.92693 0
M  V30 513 H 50.8573 0.193404 5.51661 0
M  V30 514 H 51.3343 -0.97113 4.28329 0
M  V30 515 H 51.9403 0.69875 4.19521 0
M  V30 516 N 50.2554 -1.46986 0.568584 0
M  V30 517 C 51.2024 -2.30153 -0.172707 0
M  V30 518 C 52.1724 -1.39759 -0.897586 0
M  V30 519 O 53.3574 -1.68716 -0.891044 0
M  V30 520 C 50.4974 -3.23952 -1.1895 0
M  V30 521 C 49.6104 -4.29441 -0.469517 0
M  V30 522 C 48.7454 -5.1038 -1.47259 0
M  V30 523 C 47.7844 -6.07632 -0.738225 0
M  V30 524 N 46.9214 -6.8149 -1.68868 0
M  V30 525 H 51.7614 -2.93019 0.542596 0
M  V30 526 H 49.2984 -1.44422 0.279401 0
M  V30 527 H 51.2564 -3.76767 -1.79173 0
M  V30 528 H 49.8864 -2.62926 -1.87269 0
M  V30 529 H 48.9384 -3.79594 0.247467 0
M  V30 530 H 50.2504 -4.98689 0.105241 0
M  V30 531 H 49.4044 -5.67402 -2.14803 0
M  V30 532 H 48.1434 -4.4106 -2.08128 0
M  V30 533 H 47.1484 -5.49778 -0.0489293 0
M  V30 534 H 48.3734 -6.78966 -0.135129 0
M  V30 535 H 46.3194 -6.14891 -2.28573 0
M  V30 536 H 46.2364 -7.46948 -1.16636 0
M  V30 537 H 47.5044 -7.43078 -2.3549 0
M  V30 538 N 51.7335 -0.305618 -1.54608 0
M  V30 539 C 52.9585 0.307562 -2.05107 0
M  V30 540 C 53.3835 1.46385 -1.18123 0
M  V30 541 O 52.7415 1.8034 -0.186324 0
M  V30 542 C 52.7895 0.73704 -3.52987 0
M  V30 543 O 51.8935 1.84134 -3.6901 0
M  V30 544 H 51.2345 0.0589143 -0.661381 0
M  V30 545 H 53.7645 -0.448807 -1.99617 0
M  V30 546 H 53.7745 1.02459 -3.94925 0
M  V30 547 H 52.4495 -0.108773 -4.15758 0
M  V30 548 H 51.0265 1.55398 -3.38978 0
M  V30 549 N 53.2116 1.57565 -0.0334293 0
M  V30 550 C 54.1416 2.13511 0.945265 0
M  V30 551 C 55.1226 1.05231 1.33643 0
M  V30 552 O 56.3076 1.33084 1.41429 0
M  V30 553 C 53.4376 2.6657 2.22616 0
M  V30 554 C 52.3916 3.79676 1.97561 0
M  V30 555 C 51.7176 4.1918 3.31952 0
M  V30 556 C 53.0176 5.0557 1.31135 0
M  V30 557 H 54.7116 2.95538 0.479325 0
M  V30 558 H 52.2576 1.42166 0.229115 0
M  V30 559 H 54.2106 3.04344 2.91466 0
M  V30 560 H 52.9346 1.8171 2.71384 0
M  V30 561 H 51.5936 3.42347 1.31127 0
M  V30 562 H 51.2416 3.31296 3.78487 0
M  V30 563 H 50.9416 4.95402 3.15992 0
M  V30 564 H 52.4656 4.59541 4.02063 0
M  V30 565 H 53.8796 5.40903 1.89992 0
M  V30 566 H 52.2766 5.86818 1.25559 0
M  V30 567 H 53.3466 4.84062 0.284894 0
M  V30 568 N 54.6897 -0.239769 1.55765 0
M  V30 569 C 55.9367 -0.966801 1.7793 0
M  V30 570 C 56.2647 -1.85046 0.599015 0
M  V30 571 O 55.5197 -1.91197 -0.417395 0
M  V30 572 C 55.8187 -1.852 3.05672 0
M  V30 573 C 55.4847 -1.1231 4.36689 0
M  V30 574 C 54.1467 -0.921689 4.72291 0
M  V30 575 C 56.4987 -0.607019 5.17653 0
M  V30 576 C 53.8267 -0.191996 5.86386 0
M  V30 577 C 56.1787 0.109241 6.32506 0
M  V30 578 C 54.8427 0.322073 6.66723 0
M  V30 579 H 54.1127 -0.353778 0.651093 0
M  V30 580 H 56.7597 -0.23634 1.90036 0
M  V30 581 H 55.0647 -2.64975 2.8861 0
M  V30 582 H 56.7617 -2.41635 3.20021 0
M  V30 583 H 53.3517 -1.29004 4.08725 0
M  V30 584 H 57.5357 -0.750153 4.90598 0
M  V30 585 H 52.7917 -0.0166949 6.11398 0
M  V30 586 H 56.9657 0.516737 6.9448 0
M  V30 587 H 54.5927 0.88944 7.54979 0
M  V30 588 N 56.1678 -1.49265 -0.50573 0
M  V30 589 C 57.1308 -1.65075 -1.59006 0
M  V30 590 C 58.1308 -0.522768 -1.52065 0
M  V30 591 O 59.3208 -0.789117 -1.55302 0
M  V30 592 C 56.4528 -1.64369 -2.98656 0
M  V30 593 H 57.6458 -2.61784 -1.46319 0
M  V30 594 H 55.1988 -1.38226 -0.729616 0
M  V30 595 H 55.9338 -0.692272 -3.16825 0
M  V30 596 H 55.7188 -2.46282 -3.05103 0
M  V30 597 H 57.2088 -1.78674 -3.77446 0
M  V30 598 N 57.6459 0.756429 -1.3826 0
M  V30 599 C 59.0569 1.33359 -1.30661 0
M  V30 600 C 59.4079 1.96161 0.0388875 0
M  V30 601 O 58.5329 1.94874 0.940918 0
M  V30 602 C 59.1279 2.42477 -2.36622 0
M  V30 603 C 57.6869 2.95922 -2.3261 0
M  V30 604 C 56.8339 1.69275 -2.19639 0
M  V30 605 H 59.7849 0.55552 -1.4866 0
M  V30 606 H 59.8059 3.22345 -2.02174 0
M  V30 607 H 59.3179 1.96739 -3.34538 0
M  V30 608 H 57.4189 3.45996 -1.38267 0
M  V30 609 H 57.5319 3.50494 -3.26636 0
M  V30 610 H 55.8959 1.92793 -1.66442 0
M  V30 611 H 56.6789 1.25619 -3.19491 0
M  V30 612 N 59.124 1.23083 0.984299 0
M  V30 613 C 60.535 1.05609 1.5396 0
M  V30 614 C 60.886 -0.377793 1.92528 0
M  V30 615 O 60.011 -1.26398 1.75649 0
M  V30 616 C 60.606 1.91087 2.7977 0
M  V30 617 C 59.165 1.77885 3.31713 0
M  V30 618 C 58.312 1.87028 2.04733 0
M  V30 619 H 61.263 1.36802 0.804419 0
M  V30 620 H 61.284 1.43336 3.5247 0
M  V30 621 H 60.796 2.9544 2.51668 0
M  V30 622 H 58.897 0.762995 3.64704 0
M  V30 623 H 59.01 2.61047 4.01735 0
M  V30 624 H 57.374 1.30565 2.18689 0
M  V30 625 H 58.157 2.92929 1.79017 0
M  V30 626 N 60.6021 -1.18246 1.0419 0
M  V30 627 C 61.5341 -2.2142 0.592088 0
M  V30 628 C 62.5471 -1.59233 -0.338909 0
M  V30 629 O 63.7361 -1.78002 -0.133231 0
M  V30 630 C 60.8361 -3.38546 -0.154854 0
M  V30 631 C 60.0091 -4.3031 0.784328 0
M  V30 632 C 59.0681 -5.26138 0.0804583 0
M  V30 633 O 58.0941 -5.64738 0.711292 0
M  V30 634 N 59.2961 -5.68261 -1.18574 0
M  V30 635 H 62.0611 -2.60636 1.47949 0
M  V30 636 H 59.6221 -1.33044 0.922544 0
M  V30 637 H 61.6141 -3.99678 -0.635606 0
M  V30 638 H 60.1841 -2.98012 -0.943811 0
M  V30 639 H 59.4041 -3.66764 1.44491 0
M  V30 640 H 60.6921 -4.8852 1.42218 0
M  V30 641 H 60.0901 -5.38957 -1.71876 0
M  V30 642 H 58.6471 -6.31584 -1.61074 0
M  V30 643 N 62.0802 -0.821533 -1.34494 0
M  V30 644 C 63.0102 -0.257138 -2.3208 0
M  V30 645 C 63.9912 0.625645 -1.58176 0
M  V30 646 O 65.1762 0.552811 -1.86166 0
M  V30 647 C 62.3062 0.582958 -3.42372 0
M  V30 648 C 61.2602 -0.202571 -4.2752 0
M  V30 649 C 60.5862 0.760179 -5.29269 0
M  V30 650 C 61.8862 -1.40998 -5.02908 0
M  V30 651 H 63.5802 -1.07247 -2.79532 0
M  V30 652 H 61.1262 -0.517163 -1.34393 0
M  V30 653 H 63.0792 0.987972 -4.09655 0
M  V30 654 H 61.8032 1.43133 -2.93565 0
M  V30 655 H 60.4622 -0.588936 -3.61838 0
M  V30 656 H 60.1102 1.60447 -4.76724 0
M  V30 657 H 59.8102 0.238809 -5.87115 0
M  V30 658 H 61.3342 1.16308 -5.9942 0
M  V30 659 H 62.7482 -1.07905 -5.63054 0
M  V30 660 H 61.1452 -1.86689 -5.70322 0
M  V30 661 H 62.2152 -2.1889 -4.32684 0
M  V30 662 N 63.5583 1.46682 -0.576371 0
M  V30 663 C 64.9743 1.57822 -0.237562 0
M  V30 664 C 65.1743 1.57237 1.26011 0
M  V30 665 O 64.2303 1.48596 2.04146 0
M  V30 666 C 65.5433 2.87499 -0.881168 0
M  V30 667 C 67.0913 3.01119 -0.85417 0
M  V30 668 C 67.5663 4.33524 -1.4772 0
M  V30 669 N 69.0573 4.40207 -1.44125 0
M  V30 670 C 69.7923 5.4126 -1.89276 0
M  V30 671 N 69.2883 6.49021 -2.42371 0
M  V30 672 N 71.0813 5.32422 -1.80231 0
M  V30 673 H 63.2323 1.45306 -1.54919 0
M  V30 674 H 65.4953 0.692733 -0.647167 0
M  V30 675 H 65.2013 2.9372 -1.93447 0
M  V30 676 H 65.0753 3.75224 -0.385592 0
M  V30 677 H 67.4623 2.94485 0.190491 0
M  V30 678 H 67.5433 2.14887 -1.3877 0
M  V30 679 H 67.1873 4.40916 -2.52103 0
M  V30 680 H 67.1173 5.1852 -0.918947 0
M  V30 681 H 69.6083 3.62931 -1.05307 0
M  V30 682 H 69.9213 7.2233 -2.74698 0
M  V30 683 H 68.2663 6.49858 -2.46393 0
M  V30 684 H 71.4573 4.47137 -1.38514 0
M  V30 685 H 71.6303 6.11034 -2.15735 0
M  V30 686 N 65.0364 0.313813 1.54444 0
M  V30 687 C 66.2834 -0.291675 2.00388 0
M  V30 688 C 66.6114 -1.52904 1.2021 0
M  V30 689 O 65.8664 -1.93833 0.269707 0
M  V30 690 C 66.1654 -0.680386 3.50864 0
M  V30 691 C 65.8314 0.456699 4.48581 0
M  V30 692 C 64.4934 0.768824 4.75018 0
M  V30 693 C 66.8454 1.22098 5.06697 0
M  V30 694 C 64.1734 1.84812 5.56831 0
M  V30 695 C 66.5254 2.29029 5.89685 0
M  V30 696 C 65.1894 2.60834 6.14428 0
M  V30 697 H 64.4594 -0.106732 0.733273 0
M  V30 698 H 67.1064 0.43557 1.86481 0
M  V30 699 H 65.4114 -1.48791 3.62448 0
M  V30 700 H 67.1084 -1.16026 3.83847 0
M  V30 701 H 63.6984 0.203337 4.28117 0
M  V30 702 H 67.8824 0.993096 4.86263 0
M  V30 703 H 63.1384 2.09912 5.74236 0
M  V30 704 H 67.3124 2.887 6.33739 0
M  V30 705 H 64.9394 3.44596 6.77612 0
M  V30 706 N 66.5145 -1.57545 0.0417849 0
M  V30 707 C 67.7915 -1.83642 -0.673433 0
M  V30 708 C 68.1715 -0.928298 -1.89594 0
M  V30 709 O 67.5195 0.0129955 -2.28496 0
M  V30 710 C 67.7295 -3.33155 -1.03964 0
M  V30 711 C 69.0775 -3.99941 -1.42592 0
M  V30 712 O 70.1015 -3.37725 -1.13226 0
M  V30 713 O 68.9605 -5.09619 -1.9736 0
M  V30 714 H 66.0545 -0.757638 -0.331533 0
M  V30 715 H 68.6005 -1.69554 0.070433 0
M  V30 716 H 67.3725 -3.9093 -0.170098 0
M  V30 717 H 66.9955 -3.52396 -1.84126 0
M  V30 718 N 67.9926 0.231505 -1.5589 0
M  V30 719 C 68.9226 1.29022 -1.94617 0
M  V30 720 C 69.9036 1.4941 -0.813067 0
M  V30 721 O 71.0886 1.6176 -1.07459 0
M  V30 722 C 68.2186 2.64199 -2.25424 0
M  V30 723 C 67.1726 2.58484 -3.41131 0
M  V30 724 C 66.4986 3.97599 -3.57518 0
M  V30 725 C 67.7986 2.1413 -4.76388 0
M  V30 726 H 69.4926 0.968563 -2.83301 0
M  V30 727 H 67.0386 0.464479 -1.36303 0
M  V30 728 H 68.9916 3.38413 -2.51107 0
M  V30 729 H 67.7156 2.98032 -1.33583 0
M  V30 730 H 66.3746 1.86727 -3.15481 0
M  V30 731 H 66.0226 4.28723 -2.6307 0
M  V30 732 H 65.7226 3.94659 -4.35337 0
M  V30 733 H 67.2466 4.7349 -3.85538 0
M  V30 734 H 68.6606 2.78083 -5.01341 0
M  V30 735 H 67.0576 2.2227 -5.57419 0
M  V30 736 H 68.1276 1.09331 -4.72414 0
M  V30 737 N 69.4707 1.49531 0.497807 0
M  V30 738 C 70.6957 1.63159 1.28039 0
M  V30 739 C 71.1207 0.30418 1.85624 0
M  V30 740 O 70.4787 -0.728618 1.66015 0
M  V30 741 C 70.5267 2.70537 2.38416 0
M  V30 742 O 69.6307 2.29931 3.42353 0
M  V30 743 H 68.9717 0.546001 0.377861 0
M  V30 744 H 71.5017 1.9574 0.59558 0
M  V30 745 H 71.5117 2.92802 2.84132 0
M  V30 746 H 70.1867 3.6689 1.95869 0
M  V30 747 H 68.7637 2.18009 3.02533 0
M  V30 748 N 70.9488 -0.749086 1.3866 0
M  V30 749 C 71.8968 -1.88428 1.36373 0
M  V30 750 C 72.8908 -1.67561 0.248929 0
M  V30 751 O 74.0968 -1.75074 0.41821 0
M  V30 752 H 70.4718 -0.620023 0.42553 0
M  V30 753 H 72.4428 -1.87473 2.32156 0
M  V30 754 C 71.1918 -3.25961 1.21014 0
M  V30 755 H 70.5148 -3.42607 2.06059 0
M  V30 756 H 71.9548 -4.05625 1.23469 0
M  V30 757 C 70.4138 -3.36799 -0.0825941 0
M  V30 758 O 70.9438 -3.87517 -1.05797 0
M  V30 759 N 69.1498 -2.90258 -0.140939 0
M  V30 760 H 68.6968 -2.49174 0.653477 0
M  V30 761 H 68.6548 -2.97889 -1.00545 0
M  V30 762 N 72.4269 -1.23603 -0.977757 0
M  V30 763 C 73.7039 -0.977897 -1.69401 0
M  V30 764 C 74.0839 0.502738 -2.05026 0
M  V30 765 O 73.4319 1.47459 -1.74551 0
M  V30 766 C 73.6419 -1.89077 -2.93345 0
M  V30 767 C 74.9899 -2.15579 -3.65802 0
M  V30 768 O 76.0139 -1.86648 -3.03383 0
M  V30 769 O 74.8729 -2.64658 -4.78141 0
M  V30 770 H 71.9669 -0.369025 -0.740101 0
M  V30 771 H 74.5129 -1.34657 -1.03274 0
M  V30 772 H 73.2849 -2.89158 -2.63634 0
M  V30 773 H 72.9079 -1.52463 -3.67207 0
M  V30 774 N 73.905 1.17692 -1.04816 0
M  V30 775 C 75.133 1.91786 -0.776254 0
M  V30 776 C 75.548 1.76604 0.667577 0
M  V30 777 O 74.905 1.10067 1.45573 0
M  V30 778 C 74.956 3.42967 -1.14263 0
M  V30 779 O 74.677 3.57678 -2.52978 0
M  V30 780 C 76.178 4.34144 -0.896311 0
M  V30 781 H 73.398 0.608624 -0.282519 0
M  V30 782 H 75.942 1.49268 -1.39783 0
M  V30 783 H 74.097 3.83245 -0.565874 0
M  V30 784 H 74.511 4.51319 -2.67229 0
M  V30 785 H 75.985 5.38744 -1.20244 0
M  V30 786 H 76.462 4.38876 0.168636 0
M  V30 787 H 77.068 3.99574 -1.45672 0
M  V30 788 N 75.3831 0.828654 1.34056 0
M  V30 789 C 76.6301 0.419458 1.98108 0
M  V30 790 C 76.9581 -1.01886 1.65679 0
M  V30 791 O 76.2131 -1.72539 0.923512 0
M  V30 792 C 76.5121 0.575226 3.52741 0
M  V30 793 C 76.1781 1.98012 4.05095 0
M  V30 794 C 74.8401 2.36442 4.19104 0
M  V30 795 C 77.1921 2.89824 4.33188 0
M  V30 796 C 74.5201 3.66009 4.58535 0
M  V30 797 C 76.8721 4.1886 4.74066 0
M  V30 798 C 75.5361 4.5726 4.86281 0
M  V30 799 H 74.8061 0.153491 0.724929 0
M  V30 800 H 77.4531 1.05371 1.59904 0
M  V30 801 H 75.7581 -0.142385 3.91541 0
M  V30 802 H 77.4551 0.239057 4.00287 0
M  V30 803 H 74.0451 1.67162 3.94658 0
M  V30 804 H 78.2291 2.61375 4.21897 0
M  V30 805 H 73.4851 3.95579 4.66184 0
M  V30 806 H 77.6591 4.90086 4.94761 0
M  V30 807 H 75.2861 5.57707 5.16592 0
M  V30 808 N 76.8612 -1.46375 0.584142 0
M  V30 809 C 78.2722 -1.86031 0.157959 0
M  V30 810 C 78.6232 -1.48753 -1.27933 0
M  V30 811 O 77.7482 -0.903098 -1.96655 0
M  V30 812 C 78.3432 -3.37642 0.279892 0
M  V30 813 C 76.9022 -3.76289 -0.09143 0
M  V30 814 C 76.0492 -2.7039 0.615178 0
M  V30 815 H 79.0002 -1.37509 0.792274 0
M  V30 816 H 79.0212 -3.77275 -0.494364 0
M  V30 817 H 78.5332 -3.64742 1.32607 0
M  V30 818 H 76.6342 -3.54806 -1.13769 0
M  V30 819 H 76.7472 -4.78246 0.285886 0
M  V30 820 H 75.1112 -2.5464 0.0552833 0
M  V30 821 H 75.8942 -3.0033 1.66303 0
M  V30 822 N 78.3393 -0.321999 -1.54275 0
M  V30 823 C 79.2693 0.537411 -2.27231 0
M  V30 824 C 80.2503 1.12064 -1.27968 0
M  V30 825 O 81.4353 1.14606 -1.56777 0
M  V30 826 C 78.5653 1.69919 -3.02894 0
M  V30 827 C 77.5193 1.24534 -4.09482 0
M  V30 828 C 76.8453 2.49394 -4.72977 0
M  V30 829 C 78.1453 0.361335 -5.21049 0
M  V30 830 H 79.8393 -0.0711406 -2.99315 0
M  V30 831 H 77.3853 -0.0356555 -1.43956 0
M  V30 832 H 79.3383 2.30668 -3.52662 0
M  V30 833 H 78.0623 2.33431 -2.28424 0
M  V30 834 H 76.7213 0.660782 -3.60596 0
M  V30 835 H 76.3693 3.11265 -3.95124 0
M  V30 836 H 76.0693 2.19718 -5.44975 0
M  V30 837 H 77.5933 3.10908 -5.25517 0
M  V30 838 H 79.0073 0.875072 -5.66582 0
M  V30 839 H 77.4043 0.157428 -5.99893 0
M  V30 840 H 78.4743 -0.60822 -4.8107 0
M  V30 841 N 79.8174 1.5752 -0.0501392 0
M  V30 842 C 80.7474 2.14502 0.922566 0
M  V30 843 C 81.7284 1.06642 1.3252 0
M  V30 844 O 82.9134 1.34577 1.4001 0
M  V30 845 C 80.0434 2.68916 2.19776 0
M  V30 846 C 78.9974 3.8175 1.93523 0
M  V30 847 C 78.3234 4.22677 3.27487 0
M  V30 848 C 79.6234 5.06932 1.25765 0
M  V30 849 H 81.3174 2.9603 0.447952 0
M  V30 850 H 78.8634 1.42401 0.214024 0
M  V30 851 H 80.8164 3.07419 2.88222 0
M  V30 852 H 79.5404 1.84578 2.69441 0
M  V30 853 H 78.1994 3.43718 1.27489 0
M  V30 854 H 77.8474 3.35291 3.74952 0
M  V30 855 H 77.5474 4.98725 3.1072 0
M  V30 856 H 79.0714 4.63779 3.97166 0
M  V30 857 H 80.4854 5.42888 1.84244 0
M  V30 858 H 78.8824 5.88116 1.19328 0
M  V30 859 H 79.9524 4.84337 0.233536 0
M  V30 860 N 81.2955 -0.223234 1.56011 0
M  V30 861 C 82.5235 -0.964812 1.83027 0
M  V30 862 C 82.9385 -1.78013 0.62904 0
M  V30 863 O 82.2955 -1.78008 -0.402414 0
M  V30 864 C 82.3465 -1.88373 3.08542 0
M  V30 865 O 82.0675 -1.10137 4.2403 0
M  V30 866 C 83.5685 -2.73934 3.48533 0
M  V30 867 H 80.7885 -0.282842 0.608475 0
M  V30 868 H 83.3325 -0.238971 2.03099 0
M  V30 869 H 81.4875 -2.56354 2.9045 0
M  V30 870 H 81.9015 -1.72501 4.95322 0
M  V30 871 H 83.3755 -3.34117 4.39397 0
M  V30 872 H 83.8525 -3.46244 2.70207 0
M  V30 873 H 84.4585 -2.11369 3.69057 0
M  V30 874 N 82.7736 -1.49793 -0.48987 0
M  V30 875 C 84.0016 -1.63568 -1.26701 0
M  V30 876 C 84.4166 -0.311465 -1.86213 0
M  V30 877 O 83.7736 0.704416 -1.68357 0
M  V30 878 C 83.8246 -2.71284 -2.38929 0
M  V30 879 O 83.5456 -3.9857 -1.81861 0
M  V30 880 C 85.0466 -2.95864 -3.3012 0
M  V30 881 H 82.2666 -0.550342 -0.383881 0
M  V30 882 H 84.8106 -1.95898 -0.586864 0
M  V30 883 H 82.9656 -2.417 -3.02753 0
M  V30 884 H 83.3796 -4.57993 -2.55622 0
M  V30 885 H 84.8536 -3.74941 -4.05121 0
M  V30 886 H 85.3306 -2.06206 -3.87783 0
M  V30 887 H 85.9366 -3.26907 -2.72051 0
M  V30 888 N 84.2517 0.741722 -1.39055 0
M  V30 889 C 85.1987 1.85566 -1.37237 0
M  V30 890 C 86.1687 1.64457 -0.233072 0
M  V30 891 O 87.3537 1.85957 -0.427147 0
M  V30 892 C 84.4937 3.23004 -1.215 0
M  V30 893 C 83.6067 3.55864 -2.44918 0
M  V30 894 C 82.7417 4.82669 -2.21821 0
M  V30 895 C 81.7807 5.08351 -3.40948 0
M  V30 896 N 80.9177 6.26356 -3.17211 0
M  V30 897 H 85.7577 1.86455 -2.32462 0
M  V30 898 H 83.2947 0.911176 -1.15482 0
M  V30 899 H 85.2527 4.02331 -1.10389 0
M  V30 900 H 83.8827 3.21411 -0.29908 0
M  V30 901 H 82.9347 2.7129 -2.66657 0
M  V30 902 H 84.2467 3.70765 -3.33668 0
M  V30 903 H 83.4007 5.69962 -2.07914 0
M  V30 904 H 82.1397 4.69929 -1.30454 0
M  V30 905 H 81.1447 4.19522 -3.55361 0
M  V30 906 H 82.3697 5.22981 -4.33207 0
M  V30 907 H 80.3157 6.14917 -2.28502 0
M  V30 908 H 80.2327 6.41813 -3.99515 0
M  V30 909 H 81.5007 7.16506 -3.06984 0
M  V30 910 N 85.7298 1.2412 0.971189 0
M  V30 911 C 86.6768 1.0305 2.06517 0
M  V30 912 C 87.6468 -0.0550666 1.66009 0
M  V30 913 O 88.8318 0.0988688 1.90544 0
M  V30 914 C 85.9718 0.637653 3.39158 0
M  V30 915 C 85.0848 1.79633 3.92882 0
M  V30 916 C 84.2198 1.34939 5.13775 0
M  V30 917 C 83.2588 2.47823 5.59687 0
M  V30 918 N 82.3958 2.04022 6.71803 0
M  V30 919 H 87.2358 1.96685 2.23873 0
M  V30 920 H 84.7728 0.979694 1.09729 0
M  V30 921 H 86.7308 0.390931 4.15364 0
M  V30 922 H 85.3608 -0.261693 3.21737 0
M  V30 923 H 84.4128 2.15681 3.13346 0
M  V30 924 H 85.7248 2.64466 4.22918 0
M  V30 925 H 84.8788 1.06134 5.97345 0
M  V30 926 H 83.6178 0.471557 4.85415 0
M  V30 927 H 82.6228 2.77392 4.74693 0
M  V30 928 H 83.8478 3.36158 5.90063 0
M  V30 929 H 81.7938 1.18632 6.45184 0
M  V30 930 H 81.7108 2.82409 7.01271 0
M  V30 931 H 82.9788 1.78347 7.58823 0
M  V30 932 N 87.2079 -1.17134 1.05439 0
M  V30 933 C 88.4539 -1.87733 0.767077 0
M  V30 934 C 88.7869 -1.8098 -0.704253 0
M  V30 935 O 88.0619 -1.21951 -1.5152 0
M  V30 936 C 88.3449 -3.37659 1.25133 0
M  V30 937 C 88.1979 -3.53149 2.78578 0
M  V30 938 C 89.5169 -4.31768 0.852324 0
M  V30 939 H 86.6359 -0.681687 0.280129 0
M  V30 940 H 89.2779 -1.37732 1.30881 0
M  V30 941 H 87.4279 -3.80373 0.790469 0
M  V30 942 H 89.0999 -3.19434 3.32806 0
M  V30 943 H 87.3429 -2.95345 3.17732 0
M  V30 944 H 88.0139 -4.58403 3.07523 0
M  V30 945 H 90.4899 -3.96909 1.24911 0
M  V30 946 H 89.3659 -5.35199 1.21873 0
M  V30 947 H 89.6269 -4.41429 -0.243485 0
M  V30 948 N 88.686 -0.835752 -1.33615 0
M  V30 949 C 89.933 -0.429959 -1.97883 0
M  V30 950 C 90.261 1.01006 -1.66217 0
M  V30 951 O 89.516 1.72047 -0.93265 0
M  V30 952 C 89.815 -0.593925 -3.52431 0
M  V30 953 C 89.481 -2.00158 -4.04039 0
M  V30 954 C 88.143 -2.38662 -4.17844 0
M  V30 955 C 90.495 -2.92117 -4.31644 0
M  V30 956 C 87.823 -3.68435 -4.56588 0
M  V30 957 C 90.175 -4.21368 -4.71838 0
M  V30 958 C 88.839 -4.59833 -4.83849 0
M  V30 959 H 88.109 -0.157333 -0.724104 0
M  V30 960 H 90.756 -1.06217 -1.59343 0
M  V30 961 H 89.061 0.121619 -3.91611 0
M  V30 962 H 90.758 -0.260282 -4.00154 0
M  V30 963 H 87.348 -1.69252 -3.93766 0
M  V30 964 H 91.532 -2.63608 -4.20505 0
M  V30 965 H 86.788 -3.98046 -4.64079 0
M  V30 966 H 90.962 -4.92703 -4.92155 0
M  V30 967 H 88.589 -5.60438 -5.13627 0
M  V30 968 N 90.1641 1.46063 -0.591896 0
M  V30 969 C 91.3891 2.07226 -0.0850314 0
M  V30 970 C 91.8141 1.43625 1.21463 0
M  V30 971 O 91.1721 0.523305 1.73583 0
M  V30 972 C 91.2201 3.60554 0.0576567 0
M  V30 973 O 90.3241 3.97128 1.11188 0
M  V30 974 H 89.6651 0.660615 -0.0669568 0
M  V30 975 H 92.1951 1.8756 -0.81745 0
M  V30 976 H 92.2051 4.07165 0.2609 0
M  V30 977 H 90.8801 4.06235 -0.891416 0
M  V30 978 H 89.4571 3.62213 0.886356 0
M  V30 979 N 91.6422 0.330177 1.54103 0
M  V30 980 C 92.5892 -0.532762 2.24567 0
M  V30 981 C 93.5592 -1.10635 1.23892 0
M  V30 982 O 94.7442 -1.14546 1.5259 0
M  V30 983 C 91.8842 -1.6845 3.01195 0
M  V30 984 C 90.9972 -1.13951 4.167 0
M  V30 985 C 90.1322 -2.25746 4.80845 0
M  V30 986 C 89.1712 -1.6853 5.88442 0
M  V30 987 N 88.3082 -2.74014 6.46421 0
M  V30 988 H 93.1482 0.0746905 2.97906 0
M  V30 989 H 90.6852 0.048632 1.4702 0
M  V30 990 H 92.6432 -2.36234 3.43874 0
M  V30 991 H 91.2732 -2.26314 2.30178 0
M  V30 992 H 90.3252 -0.35301 3.78758 0
M  V30 993 H 91.6372 -0.680892 4.94131 0
M  V30 994 H 90.7912 -3.01422 5.26526 0
M  V30 995 H 89.5302 -2.74947 4.0281 0
M  V30 996 H 88.5352 -0.913543 5.42157 0
M  V30 997 H 89.7602 -1.20198 6.68378 0
M  V30 998 H 87.7062 -3.22494 5.71256 0
M  V30 999 H 87.6232 -2.32735 7.19285 0
M  V30 1000 H 88.8912 -3.49499 6.96757 0
M  V30 1001 N 93.1203 -1.57491 0.0584922 0
M  V30 1002 C 94.3683 -1.92597 -0.612436 0
M  V30 1003 C 94.6893 -0.938162 -1.70949 0
M  V30 1004 O 93.9593 0.0158301 -1.95894 0
M  V30 1005 H 92.5393 -0.710964 -0.229214 0
M  V30 1006 H 95.2013 -1.94571 0.113218 0
M  V30 1007 H 94.2973 -2.94038 -1.04633 0
M  V30 1008 N 94.5984 0.214957 -1.56127 0
M  V30 1009 C 95.8474 0.936451 -1.78643 0
M  V30 1010 C 96.1604 1.85237 -0.628229 0
M  V30 1011 O 97.3664 2.613 -0.737186 0
M  V30 1012 C 95.8224 1.7154 -3.16389 0
M  V30 1013 C 95.4304 0.845299 -4.39953 0
M  V30 1014 C 97.1744 2.42772 -3.48227 0
M  V30 1015 C 95.0814 1.62198 -5.68723 0
M  V30 1016 H 94.0114 0.353401 -0.666051 0
M  V30 1017 H 96.6624 0.190169 -1.82512 0
M  V30 1018 H 95.0444 2.50484 -3.06715 0
M  V30 1019 H 96.2184 0.0959353 -4.607 0
M  V30 1020 H 94.5334 0.244789 -4.1568 0
M  V30 1021 H 97.1304 3.01394 -4.41663 0
M  V30 1022 H 97.4734 3.15984 -2.71035 0
M  V30 1023 H 98.0064 1.70813 -3.5926 0
M  V30 1024 H 94.7454 0.933011 -6.48826 0
M  V30 1025 H 94.2654 2.34579 -5.52026 0
M  V30 1026 H 95.9444 2.18095 -6.09133 0
M  V30 1027 N 96.0765 1.50051 0.48192 0
M  V30 1028 C 97.3255 1.59741 1.23149 0
M  V30 1029 C 97.6385 0.298163 1.93314 0
M  V30 1030 O 98.8445 0.273835 2.70116 0
M  V30 1031 C 97.3005 2.81926 2.23708 0
M  V30 1032 C 96.9085 4.18685 1.59396 0
M  V30 1033 C 98.6525 3.00956 2.99375 0
M  V30 1034 C 96.5595 5.3207 2.58178 0
M  V30 1035 H 95.4895 0.594838 0.46334 0
M  V30 1036 H 98.1405 1.76467 0.503169 0
M  V30 1037 H 96.5225 2.58736 2.99786 0
M  V30 1038 H 97.6965 4.52088 0.891811 0
M  V30 1039 H 96.0115 4.05171 0.960503 0
M  V30 1040 H 98.6085 3.82836 3.73283 0
M  V30 1041 H 98.9515 2.12258 3.58123 0
M  V30 1042 H 99.4845 3.24277 2.30411 0
M  V30 1043 H 96.2235 6.22888 2.04184 0
M  V30 1044 H 95.7435 5.03098 3.26577 0
M  V30 1045 H 97.4225 5.62196 3.20225 0
M  V30 1046 N 97.5546 -0.734337 1.39446 0
M  V30 1047 C 98.5046 -1.83949 1.34709 0
M  V30 1048 C 99.4886 -1.59279 0.227851 0
M  V30 1049 O 100.681 -1.70771 0.465438 0
M  V30 1050 C 97.8096 -3.21884 1.19356 0
M  V30 1051 C 96.8956 -3.52381 2.35984 0
M  V30 1052 N 97.2866 -3.53811 3.61457 0
M  V30 1053 C 95.5846 -3.82747 2.28956 0
M  V30 1054 C 96.2856 -3.82122 4.38586 0
M  V30 1055 N 95.2616 -3.9993 3.68181 0
M  V30 1056 H 99.0636 -1.83361 2.29687 0
M  V30 1057 H 96.5776 -0.932609 1.32952 0
M  V30 1058 H 98.5746 -4.00998 1.14046 0
M  V30 1059 H 97.2346 -3.23711 0.253295 0
M  V30 1060 H 98.2456 -3.35107 3.94872 0
M  V30 1061 H 94.9226 -3.92175 1.43194 0
M  V30 1062 H 96.3126 -3.89691 5.47349 0
M  V30 1063 N 99.0327 -1.24633 -0.964593 0
M  V30 1064 C 99.9427 -1.05859 -2.09359 0
M  V30 1065 C 100.959 0.00148855 -1.74 0
M  V30 1066 O 102.135 -0.197346 -2.00431 0
M  V30 1067 C 99.1997 -0.668879 -3.40187 0
M  V30 1068 C 98.2607 -1.80578 -3.89474 0
M  V30 1069 C 97.4937 -1.43457 -5.14058 0
M  V30 1070 O 97.7167 -0.325775 -5.69469 0
M  V30 1071 O 96.6507 -2.2613 -5.57807 0
M  V30 1072 H 100.477 -2.00516 -2.28094 0
M  V30 1073 H 98.0617 -1.03481 -1.0776 0
M  V30 1074 H 99.9437 -0.463211 -4.18846 0
M  V30 1075 H 98.6187 0.248536 -3.22744 0
M  V30 1076 H 97.5257 -2.06623 -3.11862 0
M  V30 1077 H 98.8587 -2.70208 -4.11398 0
M  V30 1078 N 100.511 1.16574 -1.06058 0
M  V30 1079 C 101.441 2.23057 -0.690488 0
M  V30 1080 C 102.422 1.67141 0.315901 0
M  V30 1081 O 103.607 1.93253 0.191556 0
M  V30 1082 C 100.737 3.47222 -0.073625 0
M  V30 1083 C 99.6908 4.16016 -1.00573 0
M  V30 1084 C 99.0168 5.34104 -0.252289 0
M  V30 1085 C 100.317 4.67264 -2.33371 0
M  V30 1086 H 102.011 2.54271 -1.58072 0
M  V30 1087 H 99.5568 1.22218 -0.76149 0
M  V30 1088 H 101.51 4.20939 0.19714 0
M  V30 1089 H 100.234 3.15302 0.85161 0
M  V30 1090 H 98.8928 3.44223 -1.2612 0
M  V30 1091 H 98.5408 4.98437 0.675988 0
M  V30 1092 H 98.2408 5.81072 -0.873455 0
M  V30 1093 H 99.7648 6.10599 0.0109857 0
M  V30 1094 H 101.179 5.32573 -2.12223 0
M  V30 1095 H 99.5758 5.24843 -2.90963 0
M  V30 1096 H 100.646 3.83602 -2.96611 0
M  V30 1097 N 101.989 0.842826 1.3317 0
M  V30 1098 C 102.919 0.294028 2.31641 0
M  V30 1099 C 103.9 -0.600401 1.59151 0
M  V30 1100 O 105.085 -0.523124 1.87022 0
M  V30 1101 C 102.215 -0.528416 3.43257 0
M  V30 1102 C 101.169 0.27056 4.27144 0
M  V30 1103 C 100.495 -0.675881 5.30411 0
M  V30 1104 C 101.795 1.48981 5.00602 0
M  V30 1105 H 103.489 1.11681 2.77791 0
M  V30 1106 H 101.035 0.538478 1.33553 0
M  V30 1107 H 102.988 -0.922674 4.11175 0
M  V30 1108 H 101.712 -1.38445 2.95805 0
M  V30 1109 H 100.371 0.646427 3.60856 0
M  V30 1110 H 100.019 -1.52842 4.79216 0
M  V30 1111 H 99.7189 -0.145374 5.8742 0
M  V30 1112 H 101.243 -1.06757 6.01195 0
M  V30 1113 H 102.657 1.16849 5.61266 0
M  V30 1114 H 101.054 1.95739 5.6728 0
M  V30 1115 H 102.124 2.25746 4.29147 0
M  V30 1116 N 103.467 -1.45747 0.599634 0
M  V30 1117 C 104.713 -2.03153 0.100263 0
M  V30 1118 C 105.068 -1.46073 -1.25221 0
M  V30 1119 O 104.361 -0.622878 -1.81193 0
M  V30 1120 C 104.555 -3.57399 -0.00602758 0
M  V30 1121 C 104.384 -4.2944 1.3346 0
M  V30 1122 C 103.154 -4.6768 1.91321 0
M  V30 1123 C 105.352 -4.61905 2.2616 0
M  V30 1124 N 103.334 -5.24544 3.18946 0
M  V30 1125 C 104.705 -5.19518 3.3838 0
M  V30 1126 C 106.76 -4.43841 2.25631 0
M  V30 1127 C 105.463 -5.60972 4.50226 0
M  V30 1128 C 107.489 -4.86322 3.36518 0
M  V30 1129 C 106.851 -5.44021 4.4746 0
M  V30 1130 H 102.95 -0.777911 0.0798696 0
M  V30 1131 H 105.534 -1.77674 0.796244 0
M  V30 1132 H 103.705 -3.82556 -0.671212 0
M  V30 1133 H 105.437 -4.01457 -0.51133 0
M  V30 1134 H 102.192 -4.5098 1.44617 0
M  V30 1135 H 102.616 -5.57483 3.84112 0
M  V30 1136 H 107.258 -3.98552 1.41123 0
M  V30 1137 H 104.976 -6.0523 5.35464 0
M  V30 1138 H 108.562 -4.74084 3.37247 0
M  V30 1139 H 107.442 -5.76289 5.31846 0
M  V30 1140 N 104.945 -0.338344 -1.53925 0
M  V30 1141 C 106.192 0.259758 -2.00827 0
M  V30 1142 C 106.52 1.50973 -1.22628 0
M  V30 1143 O 105.775 1.93379 -0.300509 0
M  V30 1144 C 106.074 0.62448 -3.51902 0
M  V30 1145 C 105.74 -0.528006 -4.47798 0
M  V30 1146 C 104.402 -0.844298 -4.73735 0
M  V30 1147 C 106.754 -1.30143 -5.0469 0
M  V30 1148 C 104.082 -1.93648 -5.53821 0
M  V30 1149 C 106.434 -2.38382 -5.85967 0
M  V30 1150 C 105.098 -2.70576 -6.10201 0
M  V30 1151 H 104.368 0.0950523 -0.734878 0
M  V30 1152 H 107.015 -0.465182 -1.85764 0
M  V30 1153 H 105.32 1.43006 -3.64769 0
M  V30 1154 H 107.017 1.09905 -3.85645 0
M  V30 1155 H 103.607 -0.271421 -4.2774 0
M  V30 1156 H 107.791 -1.07033 -4.84621 0
M  V30 1157 H 103.047 -2.19021 -5.70824 0
M  V30 1158 H 107.221 -2.98746 -6.29066 0
M  V30 1159 H 104.848 -3.55333 -6.72044 0
M  V30 1160 N 106.423 1.57458 -0.0668435 0
M  V30 1161 C 107.669 1.93587 0.6043 0
M  V30 1162 C 108.002 0.946722 1.69561 0
M  V30 1163 O 107.277 -0.0248516 1.94484 0
M  V30 1164 C 107.56 3.40014 1.18585 0
M  V30 1165 C 107.413 4.49685 0.101529 0
M  V30 1166 C 108.732 3.87154 2.09284 0
M  V30 1167 H 105.851 0.703958 0.218202 0
M  V30 1168 H 108.493 1.89542 -0.131804 0
M  V30 1169 H 106.643 3.43592 1.81319 0
M  V30 1170 H 108.315 4.5823 -0.531279 0
M  V30 1171 H 106.558 4.30059 -0.568487 0
M  V30 1172 H 107.229 5.49266 0.54874 0
M  V30 1173 H 109.705 3.85551 1.56491 0
M  V30 1174 H 108.581 4.90231 2.46911 0
M  V30 1175 H 108.842 3.2481 2.99918 0
M  V30 1176 N 107.901 -0.206675 1.56239 0
M  V30 1177 C 108.864 -1.23976 1.92776 0
M  V30 1178 C 109.864 -1.39041 0.807729 0
M  V30 1179 O 111.054 -1.37051 1.0753 0
M  V30 1180 C 108.186 -2.61112 2.19165 0
M  V30 1181 H 109.379 -0.927764 2.85189 0
M  V30 1182 H 106.932 -0.447718 1.4975 0
M  V30 1183 H 107.667 -2.97386 1.29352 0
M  V30 1184 H 107.452 -2.51552 3.00772 0
M  V30 1185 H 108.942 -3.35633 2.48476 0
M  V30 1186 N 109.379 -1.50304 -0.473955 0
M  V30 1187 C 110.627 -1.60832 -1.22382 0
M  V30 1188 C 110.948 -0.30939 -1.9253 0
M  V30 1189 O 110.218 0.67296 -1.83978 0
M  V30 1190 H 108.798 -0.592652 -0.454723 0
M  V30 1191 H 111.46 -1.87068 -0.546968 0
M  V30 1192 H 110.556 -2.41803 -1.97327 0
M  V30 1193 N 110.857 0.726932 -1.39834 0
M  V30 1194 C 112.082 1.52121 -1.40976 0
M  V30 1195 C 112.507 1.88098 -0.00826029 0
M  V30 1196 O 111.865 1.52479 0.980807 0
M  V30 1197 C 111.913 2.78021 -2.29644 0
M  V30 1198 O 111.017 3.74272 -1.73188 0
M  V30 1199 H 110.358 0.45908 -0.479731 0
M  V30 1200 H 112.888 0.896207 -1.83927 0
M  V30 1201 H 112.898 3.26671 -2.44438 0
M  V30 1202 H 111.573 2.51169 -3.31492 0
M  V30 1203 H 110.15 3.33073 -1.6768 0
M  V30 1204 N 112.336 1.25143 0.95797 0
M  V30 1205 C 113.564 1.12424 1.73691 0
M  V30 1206 C 113.979 -0.322304 1.86029 0
M  V30 1207 O 113.336 -1.22186 1.35561 0
M  V30 1208 C 113.387 1.76933 3.15241 0
M  V30 1209 O 113.108 3.15932 3.03511 0
M  V30 1210 C 114.609 1.6995 4.09429 0
M  V30 1211 H 111.829 0.3923 0.544373 0
M  V30 1212 H 114.373 1.6544 1.20207 0
M  V30 1213 H 112.528 1.27895 3.6568 0
M  V30 1214 H 112.942 3.47598 3.9278 0
M  V30 1215 H 114.416 2.19753 5.06372 0
M  V30 1216 H 114.893 0.662619 4.34173 0
M  V30 1217 H 115.499 2.18461 3.64904 0
M  V30 1218 N 113.814 -1.1601 1.06675 0
M  V30 1219 C 115.091 -1.82679 0.699114 0
M  V30 1220 C 115.471 -1.94559 -0.819137 0
M  V30 1221 O 114.819 -1.49169 -1.73092 0
M  V30 1222 C 115.029 -3.19445 1.40555 0
M  V30 1223 C 116.377 -3.95171 1.55323 0
M  V30 1224 O 117.401 -3.28976 1.36577 0
M  V30 1225 O 116.26 -5.13833 1.86112 0
M  V30 1226 H 113.354 -0.788954 0.247951 0
M  V30 1227 H 115.9 -1.23179 1.16726 0
M  V30 1228 H 114.672 -3.05856 2.44065 0
M  V30 1229 H 114.295 -3.86625 0.927733 0
M  V30 1230 N 115.292 -0.849877 -1.32721 0
M  V30 1231 C 116.255 -0.296122 -2.27279 0
M  V30 1232 C 117.255 0.541458 -1.5141 0
M  V30 1233 O 118.445 0.353658 -1.70572 0
M  V30 1234 C 115.577 0.581579 -3.35902 0
M  V30 1235 H 116.77 -1.13064 -2.77771 0
M  V30 1236 H 114.323 -0.62383 -1.43311 0
M  V30 1237 H 115.058 1.43809 -2.9067 0
M  V30 1238 H 114.843 -0.0178814 -3.92096 0
M  V30 1239 H 116.333 0.961951 -4.0637 0
M  V30 1240 N 116.77 1.45427 -0.607355 0
M  V30 1241 C 117.717 2.3053 0.111625 0
M  V30 1242 C 118.687 1.4209 0.860216 0
M  V30 1243 O 119.872 1.71019 0.845998 0
M  V30 1244 C 117.012 3.26992 1.10319 0
M  V30 1245 C 116.125 4.30535 0.355493 0
M  V30 1246 C 115.26 5.14105 1.33676 0
M  V30 1247 C 114.299 6.09376 0.576862 0
M  V30 1248 N 113.436 6.85727 1.5074 0
M  V30 1249 H 118.276 2.91477 -0.620093 0
M  V30 1250 H 115.813 1.43631 -0.317594 0
M  V30 1251 H 117.771 3.81385 1.6912 0
M  V30 1252 H 116.401 2.67799 1.80232 0
M  V30 1253 H 115.453 3.78805 -0.348023 0
M  V30 1254 H 116.765 4.98235 -0.237423 0
M  V30 1255 H 115.919 5.72897 1.99684 0
M  V30 1256 H 114.658 4.46423 1.9636 0
M  V30 1257 H 113.663 5.49715 -0.0968519 0
M  V30 1258 H 114.888 6.79085 -0.0449341 0
M  V30 1259 H 112.834 6.20735 2.12189 0
M  V30 1260 H 112.751 7.49778 0.967913 0
M  V30 1261 H 114.019 7.4906 2.15706 0
M  V30 1262 N 118.248 0.346503 1.53744 0
M  V30 1263 C 119.497 -0.250122 2.00143 0
M  V30 1264 C 119.81 -1.51418 1.23822 0
M  V30 1265 O 121.016 -2.18823 1.60713 0
M  V30 1266 C 119.472 -0.496252 3.56462 0
M  V30 1267 C 119.08 0.752077 4.41642 0
M  V30 1268 C 120.824 -1.05157 4.11269 0
M  V30 1269 C 118.731 0.476583 5.89477 0
M  V30 1270 H 117.661 -0.0972409 0.747703 0
M  V30 1271 H 120.312 0.46229 1.77581 0
M  V30 1272 H 118.694 -1.26944 3.75102 0
M  V30 1273 H 119.868 1.5266 4.34778 0
M  V30 1274 H 118.183 1.22925 3.97842 0
M  V30 1275 H 120.78 -1.27269 5.19333 0
M  V30 1276 H 121.123 -2.00799 3.64672 0
M  V30 1277 H 121.656 -0.339019 3.96353 0
M  V30 1278 H 118.395 1.4028 6.40314 0
M  V30 1279 H 117.915 -0.259794 5.99237 0
M  V30 1280 H 119.594 0.0949315 6.4693 0
M  V30 1281 N 119.726 -1.57421 0.075193 0
M  V30 1282 C 120.656 -2.15942 -0.888324 0
M  V30 1283 C 121.637 -1.08737 -1.30806 0
M  V30 1284 O 122.822 -1.36787 -1.37851 0
M  V30 1285 C 119.952 -2.72379 -2.1547 0
M  V30 1286 C 118.906 -3.8478 -1.87425 0
M  V30 1287 C 118.232 -4.27834 -3.20721 0
M  V30 1288 C 119.532 -5.08869 -1.17684 0
M  V30 1289 H 121.226 -2.96705 -0.400799 0
M  V30 1290 H 118.772 -1.42723 -0.191342 0
M  V30 1291 H 120.725 -3.11965 -2.83295 0
M  V30 1292 H 119.449 -1.88841 -2.6647 0
M  V30 1293 H 118.108 -3.45703 -1.22004 0
M  V30 1294 H 117.756 -3.41214 -3.6957 0
M  V30 1295 H 117.456 -5.03605 -3.02746 0
M  V30 1296 H 118.98 -4.70039 -3.89738 0
M  V30 1297 H 120.394 -5.4575 -1.75584 0
M  V30 1298 H 118.791 -5.8994 -1.09956 0
M  V30 1299 H 119.861 -4.84648 -0.156453 0
M  V30 1300 N 121.204 0.198386 -1.56346 0
M  V30 1301 C 122.429 0.939682 -1.84891 0
M  V30 1302 C 122.854 1.76202 -0.658369 0
M  V30 1303 O 122.212 1.76993 0.392851 0
M  V30 1304 C 122.26 1.81428 -3.11635 0
M  V30 1305 O 121.364 2.91265 -2.91956 0
M  V30 1306 H 120.705 0.264807 -0.608912 0
M  V30 1307 H 123.235 0.204695 -2.03573 0
M  V30 1308 H 123.245 2.21958 -3.42343 0
M  V30 1309 H 121.92 1.21004 -3.97908 0
M  V30 1310 H 120.497 2.54514 -2.72538 0
M  V30 1311 N 122.682 1.50554 0.465978 0
M  V30 1312 C 123.592 1.72585 1.58907 0
M  V30 1313 C 124.608 0.60911 1.6299 0
M  V30 1314 O 125.784 0.88804 1.80765 0
M  V30 1315 C 122.849 1.81995 2.95091 0
M  V30 1316 C 121.91 3.05751 3.01355 0
M  V30 1317 C 121.143 3.14702 4.31043 0
M  V30 1318 O 121.366 2.30313 5.21835 0
M  V30 1319 O 120.3 4.07468 4.43005 0
M  V30 1320 H 124.126 2.67799 1.43239 0
M  V30 1321 H 121.711 1.34711 0.646013 0
M  V30 1322 H 123.593 1.90335 3.75966 0
M  V30 1323 H 122.268 0.899659 3.10947 0
M  V30 1324 H 121.175 3.02908 2.19539 0
M  V30 1325 H 122.508 3.97375 2.90437 0
M  V30 1326 N 124.16 -0.719506 1.40217 0
M  V30 1327 C 125.107 -1.83359 1.40172 0
M  V30 1328 C 126.077 -1.64065 0.259206 0
M  V30 1329 O 127.262 -1.85254 0.456677 0
M  V30 1330 C 124.402 -3.2103 1.26624 0
M  V30 1331 C 123.515 -3.51923 2.50548 0
M  V30 1332 C 122.65 -4.79079 2.29471 0
M  V30 1333 C 121.689 -5.02863 3.48992 0
M  V30 1334 N 120.826 -6.2123 3.27135 0
M  V30 1335 H 125.666 -1.82733 2.35399 0
M  V30 1336 H 123.203 -0.892688 1.16917 0
M  V30 1337 H 125.161 -4.00524 1.16776 0
M  V30 1338 H 123.791 -3.20895 0.350176 0
M  V30 1339 H 122.843 -2.67014 2.70939 0
M  V30 1340 H 124.155 -3.6541 3.39525 0
M  V30 1341 H 123.309 -5.66582 2.16955 0
M  V30 1342 H 122.048 -4.67794 1.37913 0
M  V30 1343 H 121.053 -4.13816 3.6199 0
M  V30 1344 H 122.278 -5.16023 4.41472 0
M  V30 1345 H 120.224 -6.11204 2.38256 0
M  V30 1346 H 120.141 -6.35375 4.09675 0
M  V30 1347 H 121.409 -7.11532 3.18344 0
M  V30 1348 N 125.638 -1.25649 -0.95132 0
M  V30 1349 C 126.886 -1.10375 -1.69298 0
M  V30 1350 C 127.207 0.355339 -1.91735 0
M  V30 1351 O 126.477 1.25188 -1.50681 0
M  V30 1352 H 125.057 -0.405461 -0.627384 0
M  V30 1353 H 127.719 -1.57823 -1.14358 0
M  V30 1354 H 126.815 -1.61465 -2.67087 0
M  V30 1355 N 127.117 1.15442 -1.07289 0
M  V30 1356 C 128.363 1.86489 -0.796846 0
M  V30 1357 C 128.696 1.82078 0.675371 0
M  V30 1358 O 127.971 1.24346 1.4956 0
M  V30 1359 C 128.254 3.35626 -1.30489 0
M  V30 1360 C 128.107 3.48673 -2.84161 0
M  V30 1361 C 129.426 4.30357 -0.920907 0
M  V30 1362 H 126.545 0.677144 -0.290939 0
M  V30 1363 H 129.187 1.35633 -1.33056 0
M  V30 1364 H 127.337 3.79068 -0.850883 0
M  V30 1365 H 129.009 3.14099 -3.37846 0
M  V30 1366 H 127.252 2.90253 -3.22391 0
M  V30 1367 H 127.923 4.53453 -3.14777 0
M  V30 1368 H 130.399 3.94871 -1.3121 0
M  V30 1369 H 129.275 5.33193 -1.30372 0
M  V30 1370 H 129.536 4.4176 0.173226 0
M  V30 1371 N 128.595 0.856903 1.32268 0
M  V30 1372 C 129.542 0.301172 2.28827 0
M  V30 1373 C 130.512 -0.593104 1.5515 0
M  V30 1374 O 131.697 -0.527537 1.83362 0
M  V30 1375 C 128.837 -0.502523 3.41422 0
M  V30 1376 C 127.95 0.417797 4.29975 0
M  V30 1377 C 127.085 -0.398749 5.29701 0
M  V30 1378 C 126.124 0.518827 6.09897 0
M  V30 1379 N 125.261 -0.260674 7.01616 0
M  V30 1380 H 130.101 1.12983 2.75751 0
M  V30 1381 H 127.638 0.568582 1.35667 0
M  V30 1382 H 129.596 -0.984141 4.05426 0
M  V30 1383 H 128.226 -1.29599 2.95642 0
M  V30 1384 H 127.278 1.01781 3.66531 0
M  V30 1385 H 128.59 1.12191 4.86019 0
M  V30 1386 H 127.744 -0.943435 5.9932 0
M  V30 1387 H 126.483 -1.13622 4.7428 0
M  V30 1388 H 125.488 1.07538 5.39181 0
M  V30 1389 H 126.713 1.25495 6.67404 0
M  V30 1390 H 124.659 -0.981198 6.4862 0
M  V30 1391 H 124.576 0.384364 7.55022 0
M  V30 1392 H 125.844 -0.787014 7.75517 0
M  V30 1393 N 130.073 -1.45103 0.615059 0
M  V30 1394 C 131.322 -2.01396 0.110718 0
M  V30 1395 C 131.635 -1.48834 -1.26916 0
M  V30 1396 O 132.841 -1.97152 -1.86664 0
M  V30 1397 C 131.297 -3.59599 0.14723 0
M  V30 1398 C 130.905 -4.21158 1.52743 0
M  V30 1399 C 132.649 -4.23428 -0.30148 0
M  V30 1400 C 130.556 -5.71535 1.51992 0
M  V30 1401 H 129.486 -0.753061 0.0376241 0
M  V30 1402 H 132.137 -1.66494 0.77149 0
M  V30 1403 H 130.519 -3.91724 -0.580339 0
M  V30 1404 H 131.693 -4.00594 2.2773 0
M  V30 1405 H 130.008 -3.69552 1.91886 0
M  V30 1406 H 132.605 -5.33703 -0.326392 0
M  V30 1407 H 132.948 -3.94629 -1.32565 0
M  V30 1408 H 133.481 -3.96047 0.373065 0
M  V30 1409 H 130.22 -6.05044 2.52193 0
M  V30 1410 H 129.74 -5.94268 0.81274 0
M  V30 1411 H 131.419 -6.34873 1.24681 0
M  V30 1412 N 131.551 -0.354651 -1.53558 0
M  V30 1413 C 132.797 0.231422 -2.02079 0
M  V30 1414 C 133.152 1.47308 -1.23767 0
M  V30 1415 O 132.445 1.8891 -0.319947 0
M  V30 1416 C 132.639 0.587121 -3.52545 0
M  V30 1417 C 132.468 -0.618513 -4.45426 0
M  V30 1418 C 131.238 -1.12724 -4.92566 0
M  V30 1419 C 133.436 -1.48039 -4.92533 0
M  V30 1420 N 131.418 -2.29404 -5.69427 0
M  V30 1421 C 132.789 -2.49397 -5.67628 0
M  V30 1422 C 134.844 -1.50454 -4.74624 0
M  V30 1423 C 133.547 -3.53013 -6.26717 0
M  V30 1424 C 135.573 -2.52958 -5.34571 0
M  V30 1425 C 134.935 -3.5304 -6.09543 0
M  V30 1426 H 131.034 0.0476909 -0.780544 0
M  V30 1427 H 133.618 -0.496727 -1.88257 0
M  V30 1428 H 131.789 1.28436 -3.6655 0
M  V30 1429 H 133.521 1.15734 -3.87799 0
M  V30 1430 H 130.276 -0.693577 -4.68494 0
M  V30 1431 H 130.7 -2.88347 -6.12524 0
M  V30 1432 H 135.342 -0.744356 -4.16196 0
M  V30 1433 H 133.06 -4.2992 -6.84247 0
M  V30 1434 H 136.646 -2.55667 -5.22614 0
M  V30 1435 H 135.526 -4.31056 -6.55103 0
M  V30 1436 N 133.029 1.57378 -0.0835403 0
M  V30 1437 C 133.939 2.16897 0.894021 0
M  V30 1438 C 134.955 1.13528 1.31861 0
M  V30 1439 O 136.131 1.45848 1.3889 0
M  V30 1440 C 133.196 2.72831 2.13925 0
M  V30 1441 C 132.257 3.91115 1.76997 0
M  V30 1442 C 131.49 4.44371 2.95584 0
M  V30 1443 O 131.713 3.96596 4.09961 0
M  V30 1444 O 130.647 5.35549 2.74719 0
M  V30 1445 H 134.473 3.00814 0.417679 0
M  V30 1446 H 132.058 1.48741 0.140181 0
M  V30 1447 H 133.94 3.0863 2.86924 0
M  V30 1448 H 132.615 1.91967 2.60635 0
M  V30 1449 H 131.522 3.60148 1.01214 0
M  V30 1450 H 132.855 4.73307 1.3506 0
M  V30 1451 N 134.507 -0.190092 1.56449 0
M  V30 1452 C 135.755 -0.907908 1.80559 0
M  V30 1453 C 136.076 -1.83583 0.657438 0
M  V30 1454 O 135.346 -1.93203 -0.323924 0
M  V30 1455 H 133.926 -0.338247 0.666032 0
M  V30 1456 H 136.588 -0.194403 1.93928 0
M  V30 1457 H 135.684 -1.49604 2.73907 0
M  V30 1458 N 135.985 -1.50799 -0.457987 0
M  V30 1459 C 136.933 -1.71162 -1.575 0
M  V30 1460 C 137.927 -0.577592 -1.59249 0
M  V30 1461 O 139.133 -0.758443 -1.63241 0
M  V30 1462 H 135.508 -0.540468 -0.522875 0
M  V30 1463 H 137.479 -2.64837 -1.37492 0
M  V30 1464 C 136.228 -1.83496 -2.95338 0
M  V30 1465 H 135.551 -2.70153 -2.94716 0
M  V30 1466 H 136.991 -2.01765 -3.72917 0
M  V30 1467 C 135.45 -0.589694 -3.31699 0
M  V30 1468 O 135.98 0.265163 -4.00824 0
M  V30 1469 N 134.186 -0.439845 -2.87252 0
M  V30 1470 H 133.733 -1.13655 -2.31172 0
M  V30 1471 H 133.691 0.392159 -3.11945 0
M  V30 1472 N 137.463 0.71206 -1.40597 0
M  V30 1473 C 138.711 1.46907 -1.38791 0
M  V30 1474 C 139.032 1.94998 0.00780391 0
M  V30 1475 O 138.302 1.70587 0.963174 0
M  V30 1476 H 136.882 0.545043 -0.51082 0
M  V30 1477 H 139.544 0.843882 -1.75683 0
M  V30 1478 H 138.64 2.34021 -2.06496 0
M  V30 1479 N 138.941 1.26152 0.944643 0
M  V30 1480 C 140.166 1.14363 1.7302 0
M  V30 1481 C 140.591 -0.29772 1.85729 0
M  V30 1482 O 139.949 -1.2157 1.34501 0
M  V30 1483 C 139.997 1.81378 3.11664 0
M  V30 1484 O 139.101 1.10022 3.97453 0
M  V30 1485 H 138.442 0.398694 0.53098 0
M  V30 1486 H 140.972 1.66906 1.18337 0
M  V30 1487 H 140.982 1.88064 3.62072 0
M  V30 1488 H 139.657 2.86237 3.0173 0
M  V30 1489 H 138.234 1.11287 3.55907 0
M  V30 1490 N 140.419 -1.14872 1.07899 0
M  V30 1491 C 141.835 -1.37776 0.805606 0
M  V30 1492 C 142.035 -1.92743 -0.587555 0
M  V30 1493 O 141.091 -2.13678 -1.34528 0
M  V30 1494 C 142.404 -2.34361 1.88402 0
M  V30 1495 C 143.952 -2.48012 1.90942 0
M  V30 1496 C 144.427 -3.47893 2.97883 0
M  V30 1497 N 145.918 -3.55433 2.97021 0
M  V30 1498 C 146.653 -4.32553 3.76412 0
M  V30 1499 N 146.149 -5.12959 4.65666 0
M  V30 1500 N 147.942 -4.27697 3.64735 0
M  V30 1501 H 140.093 -0.775365 1.97742 0
M  V30 1502 H 142.356 -0.403521 0.857831 0
M  V30 1503 H 142.062 -2.01098 2.88535 0
M  V30 1504 H 141.936 -3.34206 1.74889 0
M  V30 1505 H 144.323 -2.8057 0.914579 0
M  V30 1506 H 144.404 -1.48147 2.08534 0
M  V30 1507 H 144.048 -3.16069 3.97571 0
M  V30 1508 H 143.978 -4.47527 2.77538 0
M  V30 1509 H 146.469 -2.98048 2.32326 0
M  V30 1510 H 146.782 -5.69065 5.22862 0
M  V30 1511 H 145.127 -5.12245 4.69712 0
M  V30 1512 H 148.318 -3.63949 2.94378 0
M  V30 1513 H 148.491 -4.8755 4.26848 0
M  V30 1514 N 141.898 -0.863906 -1.31812 0
M  V30 1515 C 142.808 -0.318461 -2.32428 0
M  V30 1516 C 143.824 0.568496 -1.64451 0
M  V30 1517 O 145 0.46666 -1.95919 0
M  V30 1518 C 142.065 0.476355 -3.43412 0
M  V30 1519 C 141.126 -0.43784 -4.27061 0
M  V30 1520 C 140.359 0.319138 -5.32745 0
M  V30 1521 O 140.582 1.54799 -5.48993 0
M  V30 1522 O 139.516 -0.319861 -6.01049 0
M  V30 1523 H 143.342 -1.15229 -2.80991 0
M  V30 1524 H 140.927 -0.627103 -1.35602 0
M  V30 1525 H 142.809 0.927156 -4.11074 0
M  V30 1526 H 141.484 1.28683 -2.97022 0
M  V30 1527 H 140.391 -0.937013 -3.62175 0
M  V30 1528 H 141.724 -1.21375 -4.77 0
M  V30 1529 N 143.376 1.44774 -0.622745 0
M  V30 1530 C 144.623 2.02121 -0.1239 0
M  V30 1531 C 144.951 1.48915 1.25118 0
M  V30 1532 O 144.206 0.660045 1.84233 0
M  V30 1533 C 144.505 3.57364 -0.0508323 0
M  V30 1534 C 144.171 4.29787 -1.36358 0
M  V30 1535 C 142.833 4.4929 -1.72314 0
M  V30 1536 C 145.185 4.71062 -2.23048 0
M  V30 1537 C 142.513 5.07325 -2.94682 0
M  V30 1538 C 144.865 5.30452 -3.44679 0
M  V30 1539 C 143.529 5.48175 -3.80868 0
M  V30 1540 H 142.799 0.739612 -0.0453381 0
M  V30 1541 H 145.446 1.73648 -0.807389 0
M  V30 1542 H 143.751 3.85202 0.715991 0
M  V30 1543 H 145.448 3.99456 0.351533 0
M  V30 1544 H 142.038 4.14932 -1.07375 0
M  V30 1545 H 146.222 4.55715 -1.96565 0
M  V30 1546 H 141.478 5.19235 -3.22809 0
M  V30 1547 H 145.652 5.61385 -4.12092 0
M  V30 1548 H 143.279 5.92912 -4.75773 0
M  V30 1549 N 144.854 0.36279 1.53368 0
M  V30 1550 C 145.784 -0.476976 2.28576 0
M  V30 1551 C 146.765 -1.08631 1.30894 0
M  V30 1552 O 147.95 -1.10409 1.59761 0
M  V30 1553 C 145.08 -1.61828 3.07293 0
M  V30 1554 C 144.034 -1.13633 4.1264 0
M  V30 1555 C 143.36 -2.36766 4.79423 0
M  V30 1556 C 144.66 -0.223061 5.21823 0
M  V30 1557 H 146.354 0.150474 2.99022 0
M  V30 1558 H 143.9 0.0738103 1.43811 0
M  V30 1559 H 145.853 -2.21237 3.58653 0
M  V30 1560 H 144.577 -2.27292 2.34533 0
M  V30 1561 H 143.236 -0.564945 3.62221 0
M  V30 1562 H 142.884 -3.0068 4.03238 0
M  V30 1563 H 142.584 -2.05192 5.50609 0
M  V30 1564 H 144.108 -2.96865 5.33576 0
M  V30 1565 H 145.522 -0.724545 5.68703 0
M  V30 1566 H 143.919 0.001678 6.001 0
M  V30 1567 H 144.989 0.735553 4.79289 0
M  V30 1568 N 146.332 -1.57332 0.0918853 0
M  V30 1569 C 147.609 -1.85691 -0.614668 0
M  V30 1570 C 147.989 -0.988146 -1.86545 0
M  V30 1571 O 147.337 -0.0597055 -2.28422 0
M  V30 1572 C 147.547 -3.36294 -0.933126 0
M  V30 1573 C 148.895 -4.04275 -1.29796 0
M  V30 1574 O 149.919 -3.41157 -1.02424 0
M  V30 1575 O 148.778 -5.1564 -1.81047 0
M  V30 1576 H 145.872 -0.767802 -0.307261 0
M  V30 1577 H 148.418 -1.69244 0.12434 0
M  V30 1578 H 147.19 -3.91273 -0.0456404 0
M  V30 1579 H 146.813 -3.58076 -1.72822 0
M  V30 1580 N 147.81 0.181792 -1.56548 0
M  V30 1581 C 148.757 1.22521 -1.95595 0
M  V30 1582 C 149.727 1.4454 -0.818373 0
M  V30 1583 O 150.912 1.57454 -1.07763 0
M  V30 1584 C 148.052 2.56193 -2.31212 0
M  V30 1585 C 147.165 2.41641 -3.58097 0
M  V30 1586 C 146.3 3.68108 -3.82975 0
M  V30 1587 C 145.339 3.48445 -5.03242 0
M  V30 1588 N 144.476 4.66956 -5.24306 0
M  V30 1589 H 149.316 0.885226 -2.84548 0
M  V30 1590 H 146.853 0.425718 -1.40805 0
M  V30 1591 H 148.811 3.34088 -2.49882 0
M  V30 1592 H 147.441 2.88208 -1.45382 0
M  V30 1593 H 146.493 1.54976 -3.474 0
M  V30 1594 H 147.805 2.23052 -4.46149 0
M  V30 1595 H 146.959 4.54441 -4.01956 0
M  V30 1596 H 145.698 3.89666 -2.93278 0
M  V30 1597 H 144.703 2.60499 -4.8417 0
M  V30 1598 H 145.928 3.2832 -5.9446 0
M  V30 1599 H 143.874 4.88752 -4.37559 0
M  V30 1600 H 143.791 4.51242 -6.06561 0
M  V30 1601 H 145.059 5.54602 -5.47756 0
M  V30 1602 N 149.288 1.51039 0.449983 0
M  V30 1603 C 150.218 1.74379 1.55288 0
M  V30 1604 C 151.199 0.593236 1.5942 0
M  V30 1605 O 152.384 0.834625 1.7535 0
M  V30 1606 C 149.514 1.85728 2.93466 0
M  V30 1607 C 148.468 3.01078 3.04197 0
M  V30 1608 C 147.794 2.97595 4.44231 0
M  V30 1609 C 149.094 4.41254 2.7945 0
M  V30 1610 H 150.788 2.66725 1.36008 0
M  V30 1611 H 148.334 1.2835 0.652864 0
M  V30 1612 H 150.287 2.0064 3.70569 0
M  V30 1613 H 149.011 0.900207 3.13949 0
M  V30 1614 H 147.67 2.85851 2.29531 0
M  V30 1615 H 147.318 1.99691 4.61663 0
M  V30 1616 H 147.018 3.75046 4.52343 0
M  V30 1617 H 148.542 3.14583 5.23326 0
M  V30 1618 H 149.956 4.56897 3.46292 0
M  V30 1619 H 148.353 5.20315 2.98985 0
M  V30 1620 H 149.423 4.52164 1.75144 0
M  V30 1621 N 150.766 -0.704594 1.40972 0
M  V30 1622 C 152.014 -1.46169 1.39568 0
M  V30 1623 C 152.335 -1.95 0.00253745 0
M  V30 1624 O 151.605 -1.71095 -0.954114 0
M  V30 1625 H 150.185 -0.542326 0.513704 0
M  V30 1626 H 152.847 -0.834553 1.76128 0
M  V30 1627 H 151.943 -2.32922 2.07735 0
M  V30 1628 N 152.244 -1.26651 -0.937939 0
M  V30 1629 C 153.174 -1.10993 -2.05433 0
M  V30 1630 C 154.155 -0.0142161 -1.70094 0
M  V30 1631 O 155.34 -0.186837 -1.93299 0
M  V30 1632 C 152.47 -0.745561 -3.39203 0
M  V30 1633 C 151.424 -1.79337 -3.88616 0
M  V30 1634 C 150.75 -1.28324 -5.19073 0
M  V30 1635 C 152.05 -3.19553 -4.13138 0
M  V30 1636 H 153.744 -2.0438 -2.1879 0
M  V30 1637 H 151.29 -0.984041 -1.05131 0
M  V30 1638 H 153.243 -0.622888 -4.16771 0
M  V30 1639 H 151.967 0.22401 -3.25831 0
M  V30 1640 H 150.626 -1.90477 -3.13231 0
M  V30 1641 H 150.274 -0.303414 -5.02084 0
M  V30 1642 H 149.974 -1.98369 -5.53103 0
M  V30 1643 H 151.498 -1.1733 -5.99221 0
M  V30 1644 H 152.912 -3.11471 -4.81309 0
M  V30 1645 H 151.309 -3.87218 -4.58457 0
M  V30 1646 H 152.379 -3.65368 -3.18801 0
M  V30 1647 N 153.722 1.14298 -1.08507 0
M  V30 1648 C 154.95 1.89219 -0.836876 0
M  V30 1649 C 155.365 1.78638 0.611054 0
M  V30 1650 O 154.722 1.14643 1.41998 0
M  V30 1651 C 154.773 3.39158 -1.25116 0
M  V30 1652 O 154.494 3.49449 -2.64229 0
M  V30 1653 C 155.995 4.31073 -1.03398 0
M  V30 1654 H 153.215 0.599328 -0.301739 0
M  V30 1655 H 155.759 1.44746 -1.44461 0
M  V30 1656 H 153.914 3.81251 -0.687514 0
M  V30 1657 H 154.328 4.42589 -2.81452 0
M  V30 1658 H 155.802 5.34646 -1.37323 0
M  V30 1659 H 156.279 4.3919 0.0289259 0
M  V30 1660 H 156.885 3.94738 -1.58311 0
M  V30 1661 N 155.201 0.870884 1.31352 0
M  V30 1662 C 156.151 0.298889 2.26032 0
M  V30 1663 C 157.135 -0.564595 1.50669 0
M  V30 1664 O 158.327 -0.411323 1.72154 0
M  V30 1665 C 155.456 -0.497842 3.39671 0
M  V30 1666 C 154.542 0.378937 4.22404 0
M  V30 1667 N 154.933 1.47284 4.83881 0
M  V30 1668 C 153.231 0.171535 4.4567 0
M  V30 1669 C 153.932 2.01359 5.45738 0
M  V30 1670 N 152.908 1.31047 5.27568 0
M  V30 1671 H 156.71 1.13494 2.71102 0
M  V30 1672 H 154.224 0.718745 1.45629 0
M  V30 1673 H 156.221 -0.924155 4.06528 0
M  V30 1674 H 154.881 -1.33149 2.96144 0
M  V30 1675 H 155.892 1.85575 4.8351 0
M  V30 1676 H 152.569 -0.626091 4.12779 0
M  V30 1677 H 153.959 2.93143 6.0458 0
M  V30 1678 N 156.679 -1.44442 0.630414 0
M  V30 1679 C 158.095 -1.56832 0.295973 0
M  V30 1680 C 158.295 -1.61806 -1.20088 0
M  V30 1681 O 157.351 -1.5607 -1.9849 0
M  V30 1682 C 158.664 -2.84031 0.987264 0
M  V30 1683 C 160.212 -2.97742 0.96534 0
M  V30 1684 C 160.687 -4.27743 1.63708 0
M  V30 1685 N 162.178 -4.34555 1.60364 0
M  V30 1686 C 162.913 -5.33862 2.09234 0
M  V30 1687 N 162.409 -6.39578 2.66292 0
M  V30 1688 N 164.202 -5.25366 1.99867 0
M  V30 1689 H 156.353 -1.39457 1.60205 0
M  V30 1690 H 158.616 -0.668237 0.672431 0
M  V30 1691 H 158.322 -2.86338 2.04215 0
M  V30 1692 H 158.196 -3.73534 0.524588 0
M  V30 1693 H 160.583 -2.94989 -0.0810639 0
M  V30 1694 H 160.664 -2.09589 1.4665 0
M  V30 1695 H 160.308 -4.31255 2.68293 0
M  V30 1696 H 160.238 -5.14752 1.11076 0
M  V30 1697 H 162.729 -3.58772 1.18705 0
M  V30 1698 H 163.042 -7.11637 3.01317 0
M  V30 1699 H 161.387 -6.40265 2.70343 0
M  V30 1700 H 164.578 -4.41688 1.55013 0
M  V30 1701 H 164.751 -6.02606 2.38265 0
M  V30 1702 N 158.157 -0.370918 -1.53173 0
M  V30 1703 C 159.573 -0.0200818 -1.59587 0
M  V30 1704 C 159.773 1.46279 -1.38581 0
M  V30 1705 O 158.829 2.22506 -1.19363 0
M  V30 1706 C 160.142 -0.4808 -2.96831 0
M  V30 1707 C 161.69 -0.435477 -3.09956 0
M  V30 1708 C 162.165 -0.872092 -4.4962 0
M  V30 1709 N 163.656 -0.827364 -4.55751 0
M  V30 1710 C 164.391 -1.13683 -5.62018 0
M  V30 1711 N 163.887 -1.51584 -6.76014 0
M  V30 1712 N 165.68 -1.05927 -5.52029 0
M  V30 1713 H 157.831 -1.33652 -1.65079 0
M  V30 1714 H 160.094 -0.546634 -0.774529 0
M  V30 1715 H 159.8 -1.51577 -3.1736 0
M  V30 1716 H 159.674 0.129796 -3.76977 0
M  V30 1717 H 162.061 0.590371 -2.89134 0
M  V30 1718 H 162.142 -1.08164 -2.31806 0
M  V30 1719 H 161.786 -1.89608 -4.71181 0
M  V30 1720 H 161.716 -0.203127 -5.26208 0
M  V30 1721 H 164.207 -0.548216 -3.73902 0
M  V30 1722 H 164.52 -1.73609 -7.53047 0
M  V30 1723 H 162.865 -1.55454 -6.77391 0
M  V30 1724 H 166.056 -0.762321 -4.61851 0
M  V30 1725 H 166.229 -1.30378 -6.34749 0
M  V30 1726 N 159.635 1.57281 -0.100228 0
M  V30 1727 C 160.545 2.17833 0.870965 0
M  V30 1728 C 161.561 1.14921 1.30649 0
M  V30 1729 O 162.737 1.47313 1.37335 0
M  V30 1730 C 159.802 2.75085 2.1102 0
M  V30 1731 C 158.863 3.9297 1.72838 0
M  V30 1732 C 158.096 4.47482 2.90854 0
M  V30 1733 O 158.319 4.00922 4.05731 0
M  V30 1734 O 157.253 5.38433 2.69023 0
M  V30 1735 H 161.079 3.0124 0.38575 0
M  V30 1736 H 158.664 1.48881 0.124397 0
M  V30 1737 H 160.546 3.11656 2.83634 0
M  V30 1738 H 159.221 1.94721 2.58584 0
M  V30 1739 H 158.128 3.61201 0.973883 0
M  V30 1740 H 159.461 4.74713 1.30033 0
M  V30 1741 N 161.113 -0.173488 1.56642 0
M  V30 1742 C 162.361 -0.888706 1.81512 0
M  V30 1743 C 162.682 -1.82875 0.676872 0
M  V30 1744 O 161.952 -1.93536 -0.303414 0
M  V30 1745 H 160.532 -0.331164 0.669582 0
M  V30 1746 H 163.194 -0.173823 1.94123 0
M  V30 1747 H 162.29 -1.46691 2.75478 0
M  V30 1748 N 162.591 -1.51276 -0.441967 0
M  V30 1749 C 163.868 -1.54252 -1.20273 0
M  V30 1750 C 164.248 -0.30408 -2.08898 0
M  V30 1751 O 163.596 0.711084 -2.17154 0
M  V30 1752 C 163.806 -2.85406 -2.00859 0
M  V30 1753 C 165.154 -3.37181 -2.58059 0
M  V30 1754 O 166.178 -2.86925 -2.11074 0
M  V30 1755 O 165.037 -4.24858 -3.43741 0
M  V30 1756 H 162.131 -0.619969 -0.547328 0
M  V30 1757 H 164.677 -1.63586 -0.451413 0
M  V30 1758 H 163.449 -3.67003 -1.35736 0
M  V30 1759 H 163.072 -2.79213 -2.83065 0
M  V30 1760 N 164.069 0.697108 -1.41344 0
M  V30 1761 C 164.999 1.82353 -1.45841 0
M  V30 1762 C 165.98 1.67115 -0.317247 0
M  V30 1763 O 167.165 1.86871 -0.528474 0
M  V30 1764 C 164.295 3.20476 -1.33838 0
M  V30 1765 C 163.249 3.50415 -2.4575 0
M  V30 1766 C 162.575 4.87878 -2.18813 0
M  V30 1767 C 163.875 3.49546 -3.88091 0
M  V30 1768 H 165.569 1.78846 -2.40113 0
M  V30 1769 H 163.115 0.859028 -1.15571 0
M  V30 1770 H 165.068 3.98988 -1.35596 0
M  V30 1771 H 163.792 3.24604 -0.360498 0
M  V30 1772 H 162.451 2.74253 -2.43271 0
M  V30 1773 H 162.099 4.8863 -1.19371 0
M  V30 1774 H 161.799 5.08875 -2.93803 0
M  V30 1775 H 163.323 5.68702 -2.22284 0
M  V30 1776 H 164.737 4.18066 -3.92293 0
M  V30 1777 H 163.134 3.82075 -4.62751 0
M  V30 1778 H 164.204 2.48552 -4.16353 0
M  V30 1779 N 165.547 1.27147 0.931209 0
M  V30 1780 C 166.795 1.13055 1.6752 0
M  V30 1781 C 167.116 -0.324791 1.92276 0
M  V30 1782 O 166.386 -1.22775 1.52654 0
M  V30 1783 H 164.966 0.415391 0.620854 0
M  V30 1784 H 167.628 1.59623 1.11833 0
M  V30 1785 H 166.724 1.65694 2.64485 0
M  V30 1786 N 167.025 -1.13721 1.09112 0
M  V30 1787 C 168.436 -1.6648 0.845068 0
M  V30 1788 C 168.787 -1.85911 -0.62701 0
M  V30 1789 O 167.912 -1.57556 -1.48341 0
M  V30 1790 C 168.507 -3.02413 1.52748 0
M  V30 1791 C 167.066 -3.52176 1.32849 0
M  V30 1792 C 166.213 -2.27492 1.58564 0
M  V30 1793 H 169.164 -0.976872 1.25072 0
M  V30 1794 H 169.185 -3.68223 0.958752 0
M  V30 1795 H 168.697 -2.88238 2.59885 0
M  V30 1796 H 166.798 -3.7156 0.278137 0
M  V30 1797 H 166.911 -4.32499 2.0611 0
M  V30 1798 H 165.275 -2.33923 1.00758 0
M  V30 1799 H 166.058 -2.15886 2.66924 0
M  V30 1800 N 168.503 -0.877838 -1.30888 0
M  V30 1801 C 169.749 -0.493426 -1.96706 0
M  V30 1802 C 170.082 0.953504 -1.6918 0
M  V30 1803 O 169.357 1.67266 -0.992594 0
M  V30 1804 C 169.64 -0.760429 -3.51979 0
M  V30 1805 C 169.493 -2.25747 -3.89048 0
M  V30 1806 C 170.812 -0.232148 -4.39487 0
M  V30 1807 H 167.931 -0.180746 -0.714493 0
M  V30 1808 H 170.573 -1.10052 -1.54882 0
M  V30 1809 H 168.723 -0.243715 -3.87735 0
M  V30 1810 H 170.395 -2.84204 -3.63354 0
M  V30 1811 H 168.638 -2.72694 -3.37373 0
M  V30 1812 H 169.309 -2.39491 -4.97341 0
M  V30 1813 H 171.785 -0.674314 -4.106 0
M  V30 1814 H 170.661 -0.448355 -5.47066 0
M  V30 1815 H 170.922 0.866297 -4.33529 0
M  V30 1816 N 169.982 1.44106 -0.638065 0
M  V30 1817 C 171.212 2.06037 -0.152394 0
M  V30 1818 C 171.62 1.47808 1.18108 0
M  V30 1819 O 170.963 0.598092 1.73691 0
M  V30 1820 C 171.025 3.59488 0.0293714 0
M  V30 1821 C 170.689 4.4022 -1.22702 0
M  V30 1822 C 171.686 4.73256 -2.15232 0
M  V30 1823 C 169.371 4.8048 -1.46437 0
M  V30 1824 C 171.365 5.45444 -3.29802 0
M  V30 1825 C 169.052 5.52417 -2.61303 0
M  V30 1826 C 170.05 5.84819 -3.52811 0
M  V30 1827 O 169.738 6.55289 -4.65673 0
M  V30 1828 H 169.47 0.671233 -0.0801401 0
M  V30 1829 H 172.024 1.85851 -0.874563 0
M  V30 1830 H 170.254 3.78191 0.806758 0
M  V30 1831 H 171.943 4.03164 0.470475 0
M  V30 1832 H 172.709 4.42684 -1.98131 0
M  V30 1833 H 168.588 4.54676 -0.760977 0
M  V30 1834 H 172.132 5.70653 -4.01249 0
M  V30 1835 H 168.029 5.82404 -2.78344 0
M  V30 1836 H 168.797 6.73762 -4.64744 0
M  V30 1837 N 171.46 0.379036 1.52974 0
M  V30 1838 C 172.708 -0.206014 2.01047 0
M  V30 1839 C 173.029 -1.48175 1.26765 0
M  V30 1840 O 172.299 -1.92085 0.384743 0
M  V30 1841 H 170.879 -0.0791184 0.742798 0
M  V30 1842 H 173.541 0.508366 1.88153 0
M  V30 1843 H 172.637 -0.423501 3.09213 0
M  V30 1844 N 172.938 -1.57226 0.108567 0
M  V30 1845 C 174.185 -1.94833 -0.551943 0
M  V30 1846 C 174.513 -0.991204 -1.67348 0
M  V30 1847 O 173.768 -0.0131878 -1.95696 0
M  V30 1848 C 174.067 -3.38911 -1.13463 0
M  V30 1849 C 173.733 -4.50696 -0.135509 0
M  V30 1850 C 172.395 -4.80998 0.139252 0
M  V30 1851 C 174.747 -5.18333 0.545957 0
M  V30 1852 C 172.075 -5.76259 1.10194 0
M  V30 1853 C 174.427 -6.14627 1.49721 0
M  V30 1854 C 173.091 -6.43327 1.78006 0
M  V30 1855 H 172.361 -0.712944 -0.20197 0
M  V30 1856 H 175.008 -1.90582 0.18726 0
M  V30 1857 H 173.313 -3.39805 -1.95037 0
M  V30 1858 H 175.01 -3.65317 -1.65362 0
M  V30 1859 H 171.6 -4.27087 -0.359846 0
M  V30 1860 H 175.784 -4.95087 0.346842 0
M  V30 1861 H 171.04 -5.96804 1.32795 0
M  V30 1862 H 175.214 -6.66126 2.03099 0
M  V30 1863 H 172.841 -7.1695 2.52759 0
M  V30 1864 N 174.416 0.165178 -1.56732 0
M  V30 1865 C 175.348 1.22911 -1.93457 0
M  V30 1866 C 176.361 1.40152 -0.828333 0
M  V30 1867 O 177.55 1.40046 -1.10677 0
M  V30 1868 C 174.65 2.59686 -2.17753 0
M  V30 1869 C 173.823 2.63663 -3.48999 0
M  V30 1870 C 172.882 3.81845 -3.62051 0
M  V30 1871 O 171.908 3.67559 -4.34613 0
M  V30 1872 N 173.11 4.98557 -2.97357 0
M  V30 1873 H 175.875 0.917118 -2.85323 0
M  V30 1874 H 173.436 0.354895 -1.57962 0
M  V30 1875 H 175.428 3.37225 -2.23743 0
M  V30 1876 H 173.998 2.83251 -1.32242 0
M  V30 1877 H 173.218 1.72173 -3.54612 0
M  V30 1878 H 174.506 2.63336 -4.35352 0
M  V30 1879 H 173.904 5.13065 -2.38287 0
M  V30 1880 H 172.461 5.73936 -3.08934 0
M  V30 1881 N 175.894 1.51508 0.433938 0
M  V30 1882 C 177.14 1.65549 1.18173 0
M  V30 1883 C 177.495 0.368751 1.88833 0
M  V30 1884 O 176.788 -0.635616 1.8075 0
M  V30 1885 C 176.982 2.79928 2.22205 0
M  V30 1886 C 176.811 4.19601 1.61756 0
M  V30 1887 C 175.581 4.85489 1.40101 0
M  V30 1888 C 177.779 5.02574 1.09194 0
M  V30 1889 N 175.761 6.09266 0.752859 0
M  V30 1890 C 177.132 6.17381 0.569255 0
M  V30 1891 C 179.187 4.88079 0.984025 0
M  V30 1892 C 177.89 7.19282 -0.0507472 0
M  V30 1893 C 179.916 5.90191 0.377912 0
M  V30 1894 C 179.278 7.04272 -0.134216 0
M  V30 1895 H 175.377 0.659653 0.419979 0
M  V30 1896 H 177.961 1.88746 0.477818 0
M  V30 1897 H 176.132 2.5839 2.89982 0
M  V30 1898 H 177.864 2.83132 2.89168 0
M  V30 1899 H 174.619 4.43417 1.66369 0
M  V30 1900 H 175.043 6.75528 0.446123 0
M  V30 1901 H 179.685 4.00131 1.36583 0
M  V30 1902 H 177.403 8.06876 -0.444676 0
M  V30 1903 H 180.989 5.81045 0.296269 0
M  V30 1904 H 179.869 7.81933 -0.59585 0
M  V30 1905 N 177.372 -0.689602 1.41712 0
M  V30 1906 C 178.788 -1.00093 1.24312 0
M  V30 1907 C 178.988 -2.01036 0.136729 0
M  V30 1908 O 178.044 -2.47562 -0.496918 0
M  V30 1909 C 179.357 -1.51985 2.59463 0
M  V30 1910 C 180.905 -1.63838 2.66695 0
M  V30 1911 C 181.38 -2.1913 4.02177 0
M  V30 1912 N 182.871 -2.26483 4.04054 0
M  V30 1913 C 183.606 -2.70306 5.0569 0
M  V30 1914 N 183.102 -3.13691 6.17713 0
M  V30 1915 N 184.895 -2.69923 4.9305 0
M  V30 1916 H 177.046 -0.0210029 2.1239 0
M  V30 1917 H 179.309 -0.0718733 0.945272 0
M  V30 1918 H 179.015 -0.85269 3.41207 0
M  V30 1919 H 178.889 -2.50103 2.82362 0
M  V30 1920 H 181.276 -2.29664 1.85306 0
M  V30 1921 H 181.357 -0.642492 2.476 0
M  V30 1922 H 181.001 -1.53918 4.84016 0
M  V30 1923 H 180.931 -3.19482 4.18615 0
M  V30 1924 H 183.422 -1.95874 3.23174 0
M  V30 1925 H 183.735 -3.45773 6.9113 0
M  V30 1926 H 182.08 -3.11585 6.21241 0
M  V30 1927 H 185.271 -2.35382 4.04614 0
M  V30 1928 H 185.444 -3.03758 5.72394 0
M  V30 1929 N 178.85 -1.27639 -0.924453 0
M  V30 1930 C 179.8 -1.07295 -2.01176 0
M  V30 1931 C 180.784 5.77352e-05 -1.609 0
M  V30 1932 O 181.976 -0.218855 -1.75642 0
M  V30 1933 C 179.105 -0.725592 -3.35544 0
M  V30 1934 C 178.191 -1.83691 -3.82254 0
M  V30 1935 N 178.582 -3.07697 -4.01443 0
M  V30 1936 C 176.88 -1.72433 -4.11319 0
M  V30 1937 C 177.581 -3.80037 -4.40394 0
M  V30 1938 N 176.557 -3.0782 -4.48049 0
M  V30 1939 H 180.359 -2.01399 -2.14046 0
M  V30 1940 H 177.873 -1.18401 -1.11153 0
M  V30 1941 H 179.87 -0.560959 -4.13109 0
M  V30 1942 H 178.53 0.207782 -3.24034 0
M  V30 1943 H 179.541 -3.43424 -3.8766 0
M  V30 1944 H 176.218 -0.862005 -4.08504 0
M  V30 1945 H 177.608 -4.86632 -4.63291 0
M  V30 1946 N 180.328 1.1314 -1.09713 0
M  V30 1947 C 181.575 1.84484 -0.834987 0
M  V30 1948 C 181.903 1.83689 0.639418 0
M  V30 1949 O 181.158 1.2724 1.4869 0
M  V30 1950 C 181.457 3.32167 -1.3191 0
M  V30 1951 C 181.123 3.53139 -2.80363 0
M  V30 1952 C 179.785 3.58571 -3.20905 0
M  V30 1953 C 182.137 3.60866 -3.76065 0
M  V30 1954 C 179.465 3.69267 -4.55916 0
M  V30 1955 C 181.817 3.73089 -5.10869 0
M  V30 1956 C 180.481 3.76775 -5.50996 0
M  V30 1957 H 179.751 0.675073 -0.305544 0
M  V30 1958 H 182.398 1.33554 -1.37243 0
M  V30 1959 H 180.703 3.85469 -0.701517 0
M  V30 1960 H 182.4 3.85821 -1.09284 0
M  V30 1961 H 178.99 3.49569 -2.47991 0
M  V30 1962 H 183.174 3.55946 -3.45855 0
M  V30 1963 H 178.43 3.70388 -4.86438 0
M  V30 1964 H 182.604 3.78011 -5.84877 0
M  V30 1965 H 180.231 3.84815 -6.55608 0
M  V30 1966 N 181.806 0.884767 1.30421 0
M  V30 1967 C 183.054 0.502112 1.95763 0
M  V30 1968 C 183.375 -0.951815 1.70192 0
M  V30 1969 O 182.645 -1.6692 1.0254 0
M  V30 1970 H 181.225 0.182694 0.724315 0
M  V30 1971 H 183.887 1.1278 1.58955 0
M  V30 1972 H 182.983 0.672188 3.04775 0
M  V30 1973 N 183.284 -1.43765 0.645699 0
M  V30 1974 C 184.247 -2.29163 -0.0409488 0
M  V30 1975 C 185.247 -1.41813 -0.757996 0
M  V30 1976 O 186.437 -1.63527 -0.600382 0
M  V30 1977 C 183.569 -3.23716 -1.06869 0
M  V30 1978 H 184.762 -2.91366 0.710345 0
M  V30 1979 H 182.315 -1.5092 0.406547 0
M  V30 1980 H 183.05 -2.66393 -1.84947 0
M  V30 1981 H 182.835 -3.88105 -0.558277 0
M  V30 1982 H 184.325 -3.87831 -1.54845 0
M  V30 1983 N 184.763 -0.387143 -1.52771 0
M  V30 1984 C 185.673 0.456442 -2.30117 0
M  V30 1985 C 186.689 1.07342 -1.36944 0
M  V30 1986 O 187.865 1.07971 -1.70013 0
M  V30 1987 C 184.93 1.56957 -3.09136 0
M  V30 1988 C 183.991 0.977916 -4.18014 0
M  V30 1989 C 183.224 2.038 -4.93256 0
M  V30 1990 O 183.447 3.25271 -4.68567 0
M  V30 1991 O 182.381 1.6565 -5.78657 0
M  V30 1992 H 186.207 -0.17359 -3.03203 0
M  V30 1993 H 183.792 -0.150919 -1.48636 0
M  V30 1994 H 185.674 2.21628 -3.58412 0
M  V30 1995 H 184.349 2.18461 -2.38865 0
M  V30 1996 H 183.256 0.294525 -3.72939 0
M  V30 1997 H 184.589 0.407128 -4.90513 0
M  V30 1998 N 186.241 1.57166 -0.116904 0
M  V30 1999 C 187.471 1.99184 0.548586 0
M  V30 2000 C 187.879 0.995436 1.60897 0
M  V30 2001 O 187.222 -0.0201293 1.83689 0
M  V30 2002 C 187.284 3.37611 1.23526 0
M  V30 2003 C 186.948 4.55857 0.323077 0
M  V30 2004 C 187.945 5.18056 -0.437476 0
M  V30 2005 C 185.63 5.01751 0.234761 0
M  V30 2006 C 187.624 6.24536 -1.2741 0
M  V30 2007 C 185.311 6.08093 -0.605496 0
M  V30 2008 C 186.309 6.69352 -1.35856 0
M  V30 2009 O 185.997 7.7364 -2.18487 0
M  V30 2010 H 185.729 0.659148 0.149999 0
M  V30 2011 H 188.283 2.0443 -0.199428 0
M  V30 2012 H 186.513 3.29113 2.0303 0
M  V30 2013 H 188.202 3.63932 1.79745 0
M  V30 2014 H 188.968 4.83516 -0.379105 0
M  V30 2015 H 184.847 4.53817 0.810601 0
M  V30 2016 H 188.391 6.72281 -1.86237 0
M  V30 2017 H 184.288 6.42063 -0.665268 0
M  V30 2018 H 185.056 7.90727 -2.11406 0
M  V30 2019 N 187.719 -0.156864 1.56817 0
M  V30 2020 C 188.666 -1.19394 1.97519 0
M  V30 2021 C 189.636 -1.4322 0.841265 0
M  V30 2022 O 190.821 -1.55719 1.10255 0
M  V30 2023 C 187.961 -2.52483 2.35258 0
M  V30 2024 C 187.074 -2.35914 3.61896 0
M  V30 2025 C 186.209 -3.61969 3.88782 0
M  V30 2026 C 185.248 -3.40395 5.08722 0
M  V30 2027 N 184.385 -4.58556 5.31668 0
M  V30 2028 H 189.225 -0.839845 2.85921 0
M  V30 2029 H 186.762 -0.403264 1.41464 0
M  V30 2030 H 188.72 -3.30071 2.55165 0
M  V30 2031 H 187.35 -2.85859 1.49949 0
M  V30 2032 H 186.402 -1.49429 3.49821 0
M  V30 2033 H 187.714 -2.15926 4.49641 0
M  V30 2034 H 186.868 -4.47989 4.09135 0
M  V30 2035 H 185.607 -3.84951 2.9944 0
M  V30 2036 H 184.612 -2.52763 4.88253 0
M  V30 2037 H 185.837 -3.18822 5.99608 0
M  V30 2038 H 183.783 -4.81729 4.45279 0
M  V30 2039 H 183.7 -4.41535 6.13664 0
M  V30 2040 H 184.968 -5.45817 5.5651 0
M  V30 2041 N 189.197 -1.51736 -0.425897 0
M  V30 2042 C 190.474 -1.55519 -1.1863 0
M  V30 2043 C 190.854 -0.326219 -2.08564 0
M  V30 2044 O 190.202 0.688012 -2.17896 0
M  V30 2045 C 190.412 -2.87521 -1.9782 0
M  V30 2046 C 191.76 -3.39899 -2.54468 0
M  V30 2047 O 192.784 -2.89148 -2.08019 0
M  V30 2048 O 191.643 -4.2848 -3.39215 0
M  V30 2049 H 188.737 -0.625739 -0.540721 0
M  V30 2050 H 191.283 -1.64055 -0.434038 0
M  V30 2051 H 190.055 -3.68422 -1.31836 0
M  V30 2052 H 189.678 -2.822 -2.80088 0
M  V30 2053 N 190.675 0.682077 -1.42076 0
M  V30 2054 C 191.915 1.45424 -1.43636 0
M  V30 2055 C 192.279 1.91939 -0.0484001 0
M  V30 2056 O 193.48 2.6873 0.0612514 0
M  V30 2057 C 191.751 2.62427 -2.42625 0
M  V30 2058 S 193.31 3.51379 -2.62827 0
M  V30 2059 H 190.128 0.496779 -0.508657 0
M  V30 2060 H 192.73 0.794645 -1.78621 0
M  V30 2061 H 191.434 2.26481 -3.42249 0
M  V30 2062 H 190.965 3.33266 -2.09039 0
M  V30 2063 H 192.98 4.58141 -1.9058 0
M  V30 2064 N 192.153 1.28127 0.917671 0
M  V30 2065 C 193.43 1.05761 1.64542 0
M  V30 2066 C 193.81 -0.404344 2.07191 0
M  V30 2067 O 193.158 -1.38963 1.81388 0
M  V30 2068 C 193.368 2.02857 2.83989 0
M  V30 2069 C 194.716 2.32786 3.551 0
M  V30 2070 O 195.74 2.0091 2.94132 0
M  V30 2071 O 194.599 2.87169 4.64969 0
M  V30 2072 H 191.693 0.403916 0.721652 0
M  V30 2073 H 194.239 1.39431 0.967322 0
M  V30 2074 H 193.011 3.01407 2.49538 0
M  V30 2075 H 192.634 1.69809 3.59514 0
M  V30 2076 N 193.631 -1.12557 1.10312 0
M  V30 2077 C 194.856 -1.88405 0.867085 0
M  V30 2078 C 195.281 -1.79038 -0.576817 0
M  V30 2079 O 194.639 -1.14439 -1.40618 0
M  V30 2080 C 194.687 -3.3563 1.31851 0
M  V30 2081 O 193.791 -4.09565 0.482734 0
M  V30 2082 H 193.132 -0.585455 0.313271 0
M  V30 2083 H 195.662 -1.42352 1.4696 0
M  V30 2084 H 195.672 -3.86469 1.3079 0
M  V30 2085 H 194.347 -3.41765 2.37001 0
M  V30 2086 H 192.924 -3.68695 0.558448 0
M  V30 2087 N 195.109 -0.891671 -1.2995 0
M  V30 2088 C 196.386 -0.433307 -1.9074 0
M  V30 2089 C 196.766 1.08646 -1.80995 0
M  V30 2090 O 196.114 1.92476 -1.23147 0
M  V30 2091 C 196.324 -0.938895 -3.36134 0
M  V30 2092 C 197.672 -0.977829 -4.13187 0
M  V30 2093 O 198.696 -0.886015 -3.45005 0
M  V30 2094 O 197.555 -1.11453 -5.35015 0
M  V30 2095 H 194.649 -0.133699 -0.816121 0
M  V30 2096 H 197.195 -0.981011 -1.38471 0
M  V30 2097 H 195.967 -1.98281 -3.37343 0
M  V30 2098 H 195.59 -0.37074 -3.95868 0
M  V30 2099 N 196.587 1.43421 -0.653314 0
M  V30 2100 C 197.817 2.05864 -0.174238 0
M  V30 2101 C 198.225 1.49052 1.16534 0
M  V30 2102 O 197.568 0.616481 1.73047 0
M  V30 2103 C 197.63 3.59499 -0.00875873 0
M  V30 2104 C 197.294 4.38893 -1.27364 0
M  V30 2105 C 198.291 4.70947 -2.20239 0
M  V30 2106 C 195.976 4.789 -1.51525 0
M  V30 2107 C 197.97 5.41916 -3.35568 0
M  V30 2108 C 195.657 5.49614 -2.67147 0
M  V30 2109 C 196.655 5.81044 -3.58994 0
M  V30 2110 O 196.343 6.50313 -4.72597 0
M  V30 2111 H 196.075 0.670345 -0.0872549 0
M  V30 2112 H 198.629 1.84913 -0.894226 0
M  V30 2113 H 196.859 3.79025 0.7666 0
M  V30 2114 H 198.548 4.0364 0.427687 0
M  V30 2115 H 199.314 4.40558 -2.02815 0
M  V30 2116 H 195.193 4.53843 -0.809158 0
M  V30 2117 H 198.737 5.66365 -4.07279 0
M  V30 2118 H 194.634 5.79419 -2.84505 0
M  V30 2119 H 195.402 6.68795 -4.71864 0
M  V30 2120 N 198.065 0.39524 1.52563 0
M  V30 2121 C 199.293 -0.184943 2.06072 0
M  V30 2122 C 199.708 -1.40021 1.26647 0
M  V30 2123 O 199.065 -1.79767 0.314672 0
M  V30 2124 C 199.116 -0.549179 3.57304 0
M  V30 2125 O 198.837 0.617813 4.33722 0
M  V30 2126 C 200.338 -1.18459 4.2718 0
M  V30 2127 H 197.558 -0.0265025 0.670476 0
M  V30 2128 H 200.102 0.562184 1.96621 0
M  V30 2129 H 198.257 -1.2462 3.66809 0
M  V30 2130 H 198.671 0.317091 5.23541 0
M  V30 2131 H 200.145 -1.38976 5.34219 0
M  V30 2132 H 200.622 -2.15368 3.82771 0
M  V30 2133 H 201.228 -0.528163 4.22008 0
M  V30 2134 N 199.544 -1.57102 0.125237 0
M  V30 2135 C 200.792 -1.95021 -0.530198 0
M  V30 2136 C 201.113 -1.00982 -1.66816 0
M  V30 2137 O 200.383 -0.0672693 -1.95784 0
M  V30 2138 H 198.963 -0.720046 -0.198853 0
M  V30 2139 H 201.625 -1.93916 0.19564 0
M  V30 2140 H 200.721 -2.98211 -0.920681 0
M  V30 2141 N 201.022 0.148545 -1.56898 0
M  V30 2142 C 201.954 1.20852 -1.9475 0
M  V30 2143 C 202.967 1.39265 -0.843152 0
M  V30 2144 O 204.156 1.38864 -1.12156 0
M  V30 2145 C 201.256 2.57362 -2.20495 0
M  V30 2146 C 200.429 2.59947 -3.51776 0
M  V30 2147 C 199.488 3.77984 -3.6608 0
M  V30 2148 O 198.514 3.62929 -4.38487 0
M  V30 2149 N 199.716 4.95375 -3.02629 0
M  V30 2150 H 202.481 0.886804 -2.86279 0
M  V30 2151 H 200.042 0.338121 -1.5833 0
M  V30 2152 H 202.034 3.34833 -2.27307 0
M  V30 2153 H 200.604 2.81832 -1.35238 0
M  V30 2154 H 199.824 1.68403 -3.56419 0
M  V30 2155 H 201.112 2.58704 -4.38121 0
M  V30 2156 H 200.51 5.10509 -2.43715 0
M  V30 2157 H 199.067 5.70627 -3.15004 0
M  V30 2158 N 202.5 1.5196 0.417844 0
M  V30 2159 C 203.748 1.65263 1.16329 0
M  V30 2160 C 204.069 0.380634 1.91249 0
M  V30 2161 O 203.339 -0.604214 1.86349 0
M  V30 2162 H 201.919 0.60912 0.432414 0
M  V30 2163 H 204.581 1.88969 0.477162 0
M  V30 2164 H 203.677 2.4896 1.88217 0
M  V30 2165 N 203.978 -0.674533 1.42435 0
M  V30 2166 C 205.225 -1.43459 1.42919 0
M  V30 2167 C 205.553 -1.94446 0.0457312 0
M  V30 2168 O 204.808 -1.7132 -0.94593 0
M  V30 2169 C 205.107 -2.64767 2.40069 0
M  V30 2170 C 204.773 -2.3232 3.86443 0
M  V30 2171 C 203.435 -2.23182 4.26314 0
M  V30 2172 C 205.787 -2.05977 4.78773 0
M  V30 2173 C 203.115 -1.85827 5.56494 0
M  V30 2174 C 205.467 -1.70125 6.09295 0
M  V30 2175 C 204.131 -1.59498 6.48164 0
M  V30 2176 H 203.401 -0.524952 0.522978 0
M  V30 2177 H 206.048 -0.769097 1.75377 0
M  V30 2178 H 204.353 -3.36349 2.00939 0
M  V30 2179 H 206.05 -3.22949 2.37707 0
M  V30 2180 H 202.64 -2.40334 3.54877 0
M  V30 2181 H 206.824 -2.11969 4.48757 0
M  V30 2182 H 202.08 -1.76168 5.8547 0
M  V30 2183 H 206.254 -1.48767 6.80324 0
M  V30 2184 H 203.881 -1.30322 7.48946 0
M  V30 2185 N 205.456 -1.28612 -0.910864 0
M  V30 2186 C 206.733 -1.06632 -1.63979 0
M  V30 2187 C 207.113 0.393351 -2.07403 0
M  V30 2188 O 206.461 1.37999 -1.82122 0
M  V30 2189 C 206.671 -2.0436 -2.8291 0
M  V30 2190 C 208.019 -2.34666 -3.5386 0
M  V30 2191 O 209.043 -2.02467 -2.93062 0
M  V30 2192 O 207.902 -2.89631 -4.63439 0
M  V30 2193 H 204.996 -0.407737 -0.7195 0
M  V30 2194 H 207.542 -1.39942 -0.959914 0
M  V30 2195 H 206.314 -3.02727 -2.47936 0
M  V30 2196 H 205.937 -1.71714 -3.58609 0
M  V30 2197 N 206.934 1.1197 -1.10907 0
M  V30 2198 C 207.866 2.17592 -0.720175 0
M  V30 2199 C 208.879 1.60938 0.245495 0
M  V30 2200 O 210.068 1.78476 0.0292245 0
M  V30 2201 C 207.168 3.38873 -0.0427917 0
M  V30 2202 C 206.341 4.25006 -1.03388 0
M  V30 2203 C 205.4 5.24774 -0.387075 0
M  V30 2204 O 204.426 5.59631 -1.03934 0
M  V30 2205 N 205.628 5.74208 0.852407 0
M  V30 2206 H 208.393 2.51567 -1.62893 0
M  V30 2207 H 205.954 1.27439 -0.998543 0
M  V30 2208 H 207.946 4.02703 0.401501 0
M  V30 2209 H 206.516 3.03007 0.768456 0
M  V30 2210 H 205.736 3.57716 -1.65629 0
M  V30 2211 H 207.024 4.79397 -1.70458 0
M  V30 2212 H 206.422 5.48062 1.40161 0
M  V30 2213 H 204.979 6.39901 1.23977 0
M  V30 2214 N 208.412 0.89855 1.29475 0
M  V30 2215 C 209.342 0.39201 2.30186 0
M  V30 2216 C 210.323 -0.532359 1.61555 0
M  V30 2217 O 211.508 -0.443331 1.89072 0
M  V30 2218 C 208.638 -0.382353 3.45189 0
M  V30 2219 C 207.592 0.451483 4.25612 0
M  V30 2220 C 206.918 -0.450307 5.328 0
M  V30 2221 C 208.218 1.70079 4.93832 0
M  V30 2222 H 209.912 1.23362 2.72804 0
M  V30 2223 H 207.458 0.594638 1.31149 0
M  V30 2224 H 209.411 -0.747451 4.14718 0
M  V30 2225 H 208.135 -1.25774 3.01411 0
M  V30 2226 H 206.794 0.798897 3.57789 0
M  V30 2227 H 206.442 -1.32379 4.85268 0
M  V30 2228 H 206.142 0.103902 5.87508 0
M  V30 2229 H 207.666 -0.811623 6.05182 0
M  V30 2230 H 209.08 1.40549 5.55805 0
M  V30 2231 H 207.477 2.19623 5.58467 0
M  V30 2232 H 208.547 2.43744 4.19186 0
M  V30 2233 N 209.89 -1.43072 0.660911 0
M  V30 2234 C 210.822 -2.29108 -0.0647641 0
M  V30 2235 C 211.835 -1.42928 -0.779448 0
M  V30 2236 O 213.024 -1.66788 -0.635921 0
M  V30 2237 C 210.124 -3.20032 -1.11503 0
M  V30 2238 C 209.297 -4.34792 -0.476955 0
M  V30 2239 C 208.356 -5.06534 -1.42513 0
M  V30 2240 O 207.382 -5.61538 -0.930771 0
M  V30 2241 N 208.584 -5.1075 -2.75889 0
M  V30 2242 H 211.349 -2.92029 0.673731 0
M  V30 2243 H 208.91 -1.53846 0.50427 0
M  V30 2244 H 210.902 -3.64892 -1.75032 0
M  V30 2245 H 209.472 -2.58658 -1.75541 0
M  V30 2246 H 208.692 -3.92752 0.337572 0
M  V30 2247 H 209.98 -5.0879 -0.0318525 0
M  V30 2248 H 209.378 -4.67447 -3.18606 0
M  V30 2249 H 207.935 -5.59302 -3.347 0
M  V30 2250 N 211.368 -0.403325 -1.52352 0
M  V30 2251 C 212.645 0.232611 -1.94212 0
M  V30 2252 C 213.025 1.63133 -1.33981 0
M  V30 2253 O 212.373 2.22659 -0.513344 0
M  V30 2254 C 212.583 0.244811 -3.4814 0
M  V30 2255 C 213.931 0.46698 -4.22024 0
M  V30 2256 O 214.955 0.324419 -3.5472 0
M  V30 2257 O 213.814 0.74747 -5.41364 0
M  V30 2258 H 210.908 0.148223 -0.813609 0
M  V30 2259 H 213.454 -0.458848 -1.63379 0
M  V30 2260 H 212.226 -0.734378 -3.84347 0
M  V30 2261 H 211.849 0.980611 -3.85318 0
M  V30 2262 N 212.846 1.57033 -0.133567 0
M  V30 2263 C 214.092 1.95976 0.521649 0
M  V30 2264 C 214.425 1.01779 1.65393 0
M  V30 2265 O 213.7 0.0576581 1.94415 0
M  V30 2266 C 213.983 3.44738 1.04057 0
M  V30 2267 C 213.836 4.49711 -0.0892897 0
M  V30 2268 C 215.155 3.95682 1.92675 0
M  V30 2269 H 212.274 0.712579 0.188149 0
M  V30 2270 H 214.916 1.88813 -0.212076 0
M  V30 2271 H 213.066 3.50973 1.66583 0
M  V30 2272 H 214.738 4.55565 -0.725152 0
M  V30 2273 H 212.981 4.27261 -0.750378 0
M  V30 2274 H 213.652 5.51099 0.315284 0
M  V30 2275 H 216.128 3.91841 1.39998 0
M  V30 2276 H 215.004 5.00262 2.25897 0
M  V30 2277 H 215.265 3.37239 2.85872 0
M  V30 2278 N 214.325 -0.140222 1.56975 0
M  V30 2279 C 215.574 -0.850152 1.82908 0
M  V30 2280 C 215.887 -1.82028 0.715892 0
M  V30 2281 O 217.093 -2.57485 0.861016 0
M  V30 2282 C 215.549 -1.5625 3.24213 0
M  V30 2283 C 215.157 -0.63443 4.43485 0
M  V30 2284 C 216.901 -2.25881 3.59413 0
M  V30 2285 C 214.808 -1.34879 5.75814 0
M  V30 2286 H 213.738 -0.321221 0.682153 0
M  V30 2287 H 216.389 -0.102874 1.83211 0
M  V30 2288 H 214.771 -2.35565 3.18316 0
M  V30 2289 H 215.945 0.12398 4.60633 0
M  V30 2290 H 214.26 -0.0461836 4.16374 0
M  V30 2291 H 216.857 -2.79978 4.5554 0
M  V30 2292 H 217.2 -3.02693 2.85802 0
M  V30 2293 H 217.733 -1.53477 3.67001 0
M  V30 2294 H 214.472 -0.622385 6.52539 0
M  V30 2295 H 213.992 -2.07974 5.6259 0
M  V30 2296 H 215.671 -1.88784 6.18845 0
M  V30 2297 N 215.803 -1.52179 -0.40978 0
M  V30 2298 C 216.75 -1.75475 -1.49924 0
M  V30 2299 C 217.72 -0.597175 -1.54994 0
M  V30 2300 O 218.905 -0.834655 -1.71575 0
M  V30 2301 C 216.045 -1.9107 -2.87378 0
M  V30 2302 C 215.158 -3.18717 -2.91622 0
M  V30 2303 C 214.293 -3.24747 -4.20372 0
M  V30 2304 C 213.332 -4.46598 -4.18588 0
M  V30 2305 N 212.469 -4.50025 -5.38908 0
M  V30 2306 H 217.309 -2.68458 -1.29361 0
M  V30 2307 H 214.846 -1.33024 -0.627934 0
M  V30 2308 H 216.804 -1.98096 -3.6717 0
M  V30 2309 H 215.434 -1.01469 -3.06437 0
M  V30 2310 H 214.486 -3.20866 -2.04326 0
M  V30 2311 H 215.798 -4.08544 -2.86169 0
M  V30 2312 H 214.952 -3.30841 -5.08556 0
M  V30 2313 H 213.691 -2.32857 -4.28519 0
M  V30 2314 H 212.696 -4.40652 -3.28794 0
M  V30 2315 H 213.921 -5.39783 -4.12081 0
M  V30 2316 H 211.867 -3.61017 -5.47725 0
M  V30 2317 H 211.784 -5.33697 -5.35447 0
M  V30 2318 H 213.052 -4.60347 -6.29048 0
M  V30 2319 N 217.281 0.66697 -1.42791 0
M  V30 2320 C 218.228 1.7803 -1.4688 0
M  V30 2321 C 219.198 1.6299 -0.319919 0
M  V30 2322 O 220.383 1.83432 -0.525118 0
M  V30 2323 C 217.523 3.1611 -1.38451 0
M  V30 2324 C 216.636 3.42381 -2.63437 0
M  V30 2325 C 215.771 4.70232 -2.47094 0
M  V30 2326 C 214.81 4.89564 -3.67415 0
M  V30 2327 N 213.947 6.08661 -3.49966 0
M  V30 2328 H 218.787 1.7387 -2.42019 0
M  V30 2329 H 216.324 0.84868 -1.20149 0
M  V30 2330 H 218.282 3.95914 -1.31561 0
M  V30 2331 H 216.912 3.19374 -0.469033 0
M  V30 2332 H 215.964 2.56774 -2.80662 0
M  V30 2333 H 217.276 3.52557 -3.52853 0
M  V30 2334 H 216.43 5.5814 -2.37834 0
M  V30 2335 H 215.169 4.62353 -1.5518 0
M  V30 2336 H 214.174 4.00096 -3.77099 0
M  V30 2337 H 215.399 4.99282 -4.6032 0
M  V30 2338 H 213.345 6.0194 -2.60776 0
M  V30 2339 H 213.262 6.19733 -4.32975 0
M  V30 2340 H 214.53 6.99226 -3.44532 0
M  V30 2341 N 218.759 1.29093 0.90403 0
M  V30 2342 C 219.689 1.16401 2.02418 0
M  V30 2343 C 220.67 0.0593085 1.69997 0
M  V30 2344 O 221.855 0.238021 1.92736 0
M  V30 2345 C 218.985 0.835233 3.37107 0
M  V30 2346 C 217.939 1.89578 3.83724 0
M  V30 2347 C 217.265 1.42041 5.15489 0
M  V30 2348 C 218.565 3.30394 4.04521 0
M  V30 2349 H 220.259 2.10109 2.13295 0
M  V30 2350 H 217.805 1.01157 1.02486 0
M  V30 2351 H 219.758 0.733169 4.14973 0
M  V30 2352 H 218.482 -0.137543 3.2631 0
M  V30 2353 H 217.141 1.98715 3.08071 0
M  V30 2354 H 216.789 0.436426 5.01103 0
M  V30 2355 H 216.489 2.12964 5.4765 0
M  V30 2356 H 218.013 1.33176 5.959 0
M  V30 2357 H 219.427 3.24123 4.72882 0
M  V30 2358 H 217.824 3.99237 4.48029 0
M  V30 2359 H 218.894 3.73692 3.09002 0
M  V30 2360 N 220.237 -1.11381 1.11499 0
M  V30 2361 C 221.184 -2.17439 0.773887 0
M  V30 2362 C 222.154 -1.64132 -0.254899 0
M  V30 2363 O 223.339 -1.90345 -0.13168 0
M  V30 2364 C 220.479 -3.44373 0.223917 0
M  V30 2365 C 219.592 -4.1168 1.30934 0
M  V30 2366 C 218.727 -5.263 0.71984 0
M  V30 2367 C 217.766 -5.85493 1.78507 0
M  V30 2368 N 216.903 -6.91507 1.21502 0
M  V30 2369 H 221.743 -2.45962 1.68246 0
M  V30 2370 H 219.28 -1.20744 0.840191 0
M  V30 2371 H 221.238 -4.17047 -0.112921 0
M  V30 2372 H 219.868 -3.16232 -0.647851 0
M  V30 2373 H 218.92 -3.37073 1.76312 0
M  V30 2374 H 220.232 -4.51729 2.11524 0
M  V30 2375 H 219.386 -6.05785 0.333094 0
M  V30 2376 H 218.125 -4.87559 -0.117377 0
M  V30 2377 H 217.13 -5.04686 2.18111 0
M  V30 2378 H 218.355 -6.26301 2.62533 0
M  V30 2379 H 216.301 -6.54783 0.399455 0
M  V30 2380 H 216.218 -7.30214 1.95763 0
M  V30 2381 H 217.486 -7.74795 0.855181 0
M  V30 2382 N 221.715 -0.905404 -1.28997 0
M  V30 2383 C 222.943 -0.549846 -1.9946 0
M  V30 2384 C 223.358 0.866834 -1.67724 0
M  V30 2385 O 222.715 1.57298 -0.925404 0
M  V30 2386 C 222.766 -0.739387 -3.53858 0
M  V30 2387 O 222.487 -2.10031 -3.84472 0
M  V30 2388 C 223.988 -0.389541 -4.41585 0
M  V30 2389 H 221.208 -0.210429 -0.637151 0
M  V30 2390 H 223.752 -1.21632 -1.64396 0
M  V30 2391 H 221.907 -0.120023 -3.87214 0
M  V30 2392 H 222.321 -2.13385 -4.79132 0
M  V30 2393 H 223.795 -0.572972 -5.49018 0
M  V30 2394 H 224.272 0.673756 -4.34001 0
M  V30 2395 H 224.878 -0.986089 -4.1371 0
M  V30 2396 N 223.193 1.4272 -0.668489 0
M  V30 2397 C 224.141 2.32586 0.0254857 0
M  V30 2398 C 225.135 1.49471 0.797176 0
M  V30 2399 O 226.341 1.65583 0.705853 0
M  V30 2400 H 222.716 0.751514 0.0270339 0
M  V30 2401 H 224.687 2.88823 -0.749936 0
M  V30 2402 C 223.436 3.3397 0.967427 0
M  V30 2403 H 222.759 3.97961 0.383048 0
M  V30 2404 H 224.199 3.9945 1.42181 0
M  V30 2405 C 222.658 2.65744 2.0708 0
M  V30 2406 O 223.188 2.48454 3.15648 0
M  V30 2407 N 221.394 2.2487 1.8407 0
M  V30 2408 H 220.941 2.39132 0.95778 0
M  V30 2409 H 220.899 1.79552 2.58086 0
M  V30 2410 N 224.671 0.411399 1.52136 0
M  V30 2411 C 226.082 -0.0576826 1.86611 0
M  V30 2412 C 226.433 -1.44238 1.33003 0
M  V30 2413 O 225.558 -2.05759 0.670228 0
M  V30 2414 C 226.153 -0.111448 3.38617 0
M  V30 2415 C 224.712 -0.52487 3.72723 0
M  V30 2416 C 223.859 0.299176 2.75681 0
M  V30 2417 H 226.81 0.628368 1.4573 0
M  V30 2418 H 226.831 -0.926252 3.69054 0
M  V30 2419 H 226.343 0.896488 3.77604 0
M  V30 2420 H 224.444 -1.53936 3.39315 0
M  V30 2421 H 224.557 -0.267681 4.78352 0
M  V30 2422 H 222.921 -0.238814 2.53578 0
M  V30 2423 H 223.704 1.3055 3.17508 0
M  V30 2424 N 226.149 -1.5696 0.141893 0
M  V30 2425 C 227.379 -2.00031 -0.516828 0
M  V30 2426 C 227.787 -1.02091 -1.59293 0
M  V30 2427 O 227.13 -0.00909657 -1.83698 0
M  V30 2428 C 227.192 -3.39534 -1.1814 0
M  V30 2429 C 226.856 -4.56313 -0.250513 0
M  V30 2430 C 227.853 -5.17295 0.519839 0
M  V30 2431 C 225.538 -5.02061 -0.154907 0
M  V30 2432 C 227.532 -6.2243 1.3733 0
M  V30 2433 C 225.219 -6.07053 0.702161 0
M  V30 2434 C 226.217 -6.67106 1.46487 0
M  V30 2435 O 225.905 -7.70066 2.30767 0
M  V30 2436 H 225.637 -0.661451 -0.139493 0
M  V30 2437 H 228.191 -2.04086 0.231926 0
M  V30 2438 H 226.421 -3.32302 -1.97769 0
M  V30 2439 H 228.11 -3.66745 -1.73933 0
M  V30 2440 H 228.876 -4.82852 0.45598 0
M  V30 2441 H 224.755 -4.5505 -0.7383 0
M  V30 2442 H 228.299 -6.69233 1.96909 0
M  V30 2443 H 224.196 -6.40923 0.76733 0
M  V30 2444 H 224.964 -7.87264 2.23959 0
M  V30 2445 N 227.627 0.131896 -1.57047 0
M  V30 2446 C 228.904 0.871495 -1.75112 0
M  V30 2447 C 229.284 1.9866 -0.713949 0
M  V30 2448 O 228.632 2.26965 0.264447 0
M  V30 2449 C 228.842 1.40007 -3.19686 0
M  V30 2450 C 230.19 1.85752 -3.81813 0
M  V30 2451 O 231.214 1.49715 -3.23209 0
M  V30 2452 O 230.073 2.5226 -4.84796 0
M  V30 2453 H 227.167 0.412919 -0.716538 0
M  V30 2454 H 229.713 0.116641 -1.69299 0
M  V30 2455 H 228.485 0.599404 -3.86682 0
M  V30 2456 H 228.108 2.218 -3.29986 0
M  V30 2457 N 229.106 1.52395 0.401703 0
M  V30 2458 C 230.522 1.41363 0.740864 0
M  V30 2459 C 230.722 0.523982 1.94568 0
M  V30 2460 O 229.778 -0.00741204 2.52499 0
M  V30 2461 C 231.091 2.84011 0.987847 0
M  V30 2462 C 232.639 2.93404 1.09011 0
M  V30 2463 C 233.114 4.37036 1.3698 0
M  V30 2464 N 234.605 4.40304 1.43829 0
M  V30 2465 C 235.34 5.48508 1.67112 0
M  V30 2466 N 234.836 6.66819 1.87949 0
M  V30 2467 N 236.629 5.36034 1.69187 0
M  V30 2468 H 228.78 2.08765 -0.391262 0
M  V30 2469 H 231.043 0.941265 -0.112798 0
M  V30 2470 H 230.749 3.51265 0.174835 0
M  V30 2471 H 230.623 3.25502 1.906 0
M  V30 2472 H 233.01 2.26325 1.8937 0
M  V30 2473 H 233.091 2.55359 0.15015 0
M  V30 2474 H 232.735 5.04676 0.571353 0
M  V30 2475 H 232.665 4.72623 2.3224 0
M  V30 2476 H 235.156 3.55024 1.29486 0
M  V30 2477 H 235.469 7.45063 2.05185 0
M  V30 2478 H 233.814 6.6987 1.85199 0
M  V30 2479 H 237.005 4.42579 1.52451 0
M  V30 2480 H 237.178 6.20434 1.86993 0
M  V30 2481 N 230.584 -0.659388 1.43143 0
M  V30 2482 C 232 -0.974337 1.26407 0
M  V30 2483 C 232.2 -2.007 0.179341 0
M  V30 2484 O 231.256 -2.4856 -0.444295 0
M  V30 2485 C 232.569 -1.46447 2.62628 0
M  V30 2486 C 234.117 -1.58144 2.7011 0
M  V30 2487 C 234.592 -2.1055 4.06734 0
M  V30 2488 N 236.083 -2.17861 4.08767 0
M  V30 2489 C 236.818 -2.59519 5.1131 0
M  V30 2490 N 236.314 -3.00518 6.24228 0
M  V30 2491 N 238.107 -2.59404 4.98664 0
M  V30 2492 H 230.258 0.0240528 2.12386 0
M  V30 2493 H 232.521 -0.0518065 0.946583 0
M  V30 2494 H 232.227 -0.780123 3.42939 0
M  V30 2495 H 232.101 -2.44058 2.87603 0
M  V30 2496 H 234.488 -2.25682 1.90136 0
M  V30 2497 H 234.569 -0.589828 2.48907 0
M  V30 2498 H 234.213 -1.43616 4.87172 0
M  V30 2499 H 234.143 -3.10531 4.25298 0
M  V30 2500 H 236.634 -1.88975 3.27257 0
M  V30 2501 H 236.947 -3.31036 6.98309 0
M  V30 2502 H 235.292 -2.98337 6.2771 0
M  V30 2503 H 238.483 -2.26747 4.09516 0
M  V30 2504 H 238.656 -2.91548 5.78709 0
M  V30 2505 N 232.062 -1.29571 -0.897171 0
M  V30 2506 C 233.311 -1.1706 -1.64256 0
M  V30 2507 C 233.624 0.276476 -1.93636 0
M  V30 2508 O 234.83 0.52294 -2.66416 0
M  V30 2509 C 233.286 -2.0475 -2.95982 0
M  V30 2510 C 232.894 -3.54295 -2.74187 0
M  V30 2511 C 234.638 -2.0097 -3.73914 0
M  V30 2512 C 232.545 -4.34081 -4.01656 0
M  V30 2513 H 231.475 -0.43452 -0.616205 0
M  V30 2514 H 234.126 -1.54229 -0.994268 0
M  V30 2515 H 232.508 -1.60452 -3.62038 0
M  V30 2516 H 233.682 -4.06662 -2.1671 0
M  V30 2517 H 231.997 -3.59773 -2.09648 0
M  V30 2518 H 234.594 -2.57838 -4.68427 0
M  V30 2519 H 234.937 -0.990273 -4.0435 0
M  V30 2520 H 235.47 -2.43325 -3.14703 0
M  V30 2521 H 232.209 -5.36671 -3.76384 0
M  V30 2522 H 231.729 -3.86483 -4.58684 0
M  V30 2523 H 233.408 -4.44877 -4.69781 0
M  V30 2524 N 233.54 1.10788 -1.12088 0
M  V30 2525 C 234.789 1.82036 -0.868659 0
M  V30 2526 C 235.102 1.85929 0.607426 0
M  V30 2527 O 236.308 2.53346 0.97613 0
M  V30 2528 C 234.764 3.26951 -1.50435 0
M  V30 2529 C 234.372 3.31367 -3.01496 0
M  V30 2530 C 236.116 4.03053 -1.33225 0
M  V30 2531 C 234.023 4.7072 -3.58017 0
M  V30 2532 H 232.953 0.682108 -0.321318 0
M  V30 2533 H 235.604 1.24618 -1.34694 0
M  V30 2534 H 233.986 3.84343 -0.953735 0
M  V30 2535 H 235.16 2.83819 -3.6302 0
M  V30 2536 H 233.475 2.6875 -3.18061 0
M  V30 2537 H 236.072 5.05981 -1.72878 0
M  V30 2538 H 236.415 4.15387 -0.275529 0
M  V30 2539 H 236.948 3.52066 -1.85188 0
M  V30 2540 H 233.687 4.63585 -4.63432 0
M  V30 2541 H 233.207 5.1865 -3.01268 0
M  V30 2542 H 234.886 5.39685 -3.56859 0
M  V30 2543 N 235.018 0.912232 1.28515 0
M  V30 2544 C 235.951 0.343928 2.25593 0
M  V30 2545 C 236.929 -0.550994 1.5298 0
M  V30 2546 O 238.113 -0.494991 1.81885 0
M  V30 2547 C 235.24 -0.508525 3.34861 0
M  V30 2548 C 234.286 0.320808 4.25292 0
M  V30 2549 S 235.119 1.72658 5.06902 0
M  V30 2550 C 236.275 0.881394 6.19663 0
M  V30 2551 H 236.508 1.16674 2.73449 0
M  V30 2552 H 234.041 0.713384 1.36931 0
M  V30 2553 H 235.999 -0.994539 3.9827 0
M  V30 2554 H 234.66 -1.30571 2.85675 0
M  V30 2555 H 233.853 -0.330941 5.02912 0
M  V30 2556 H 233.455 0.74042 3.66598 0
M  V30 2557 H 235.747 0.110359 6.7741 0
M  V30 2558 H 236.69 1.63009 6.89082 0
M  V30 2559 H 237.098 0.430239 5.62858 0
M  V30 2560 N 236.496 -1.42363 0.676048 0
M  V30 2561 C 237.721 -2.06377 0.205705 0
M  V30 2562 C 238.146 -1.50463 -1.12883 0
M  V30 2563 O 237.504 -0.623619 -1.70237 0
M  V30 2564 C 237.552 -3.60277 0.152655 0
M  V30 2565 O 236.656 -4.02935 -0.87845 0
M  V30 2566 H 235.997 -0.655588 0.105359 0
M  V30 2567 H 238.527 -1.82475 0.925412 0
M  V30 2568 H 238.537 -4.07993 -0.0230675 0
M  V30 2569 H 237.212 -4.00346 1.12675 0
M  V30 2570 H 235.789 -3.66764 -0.673668 0
M  V30 2571 N 237.974 -0.419461 -1.51915 0
M  V30 2572 C 238.937 0.389116 -2.25873 0
M  V30 2573 C 239.937 0.964924 -1.28631 0
M  V30 2574 O 241.127 0.842179 -1.52489 0
M  V30 2575 C 238.259 1.54874 -3.03689 0
M  V30 2576 H 239.452 -0.258799 -2.98781 0
M  V30 2577 H 237.005 -0.172209 -1.55348 0
M  V30 2578 H 237.74 2.23323 -2.35154 0
M  V30 2579 H 237.525 1.14223 -3.75094 0
M  V30 2580 H 239.015 2.12046 -3.59759 0
M  V30 2581 N 239.452 1.56882 -0.150215 0
M  V30 2582 C 240.698 1.97299 0.494427 0
M  V30 2583 C 241.053 1.0338 1.62266 0
M  V30 2584 O 240.346 0.0694497 1.91474 0
M  V30 2585 C 240.54 3.41801 1.04437 0
M  V30 2586 C 240.369 4.49691 -0.0290451 0
M  V30 2587 C 239.139 5.03095 -0.47156 0
M  V30 2588 C 241.337 5.07693 -0.821703 0
M  V30 2589 N 239.319 5.94593 -1.52749 0
M  V30 2590 C 240.69 5.95431 -1.72805 0
M  V30 2591 C 242.745 4.90256 -0.869134 0
M  V30 2592 C 241.448 6.67599 -2.67777 0
M  V30 2593 C 243.474 5.63127 -1.8067 0
M  V30 2594 C 242.836 6.50576 -2.70057 0
M  V30 2595 H 238.935 0.76755 0.149639 0
M  V30 2596 H 241.519 1.93145 -0.24556 0
M  V30 2597 H 239.69 3.46541 1.75396 0
M  V30 2598 H 241.422 3.69272 1.6559 0
M  V30 2599 H 238.177 4.73543 -0.0732101 0
M  V30 2600 H 238.601 6.45047 -2.05531 0
M  V30 2601 H 243.243 4.22363 -0.192134 0
M  V30 2602 H 240.961 7.34717 -3.36476 0
M  V30 2603 H 244.547 5.51629 -1.84924 0
M  V30 2604 H 243.427 7.05974 -3.41424 0
M  V30 2605 N 240.93 -0.123565 1.57115 0
M  V30 2606 C 241.878 -1.17082 2.00984 0
M  V30 2607 C 242.872 -1.43136 0.906009 0
M  V30 2608 O 244.078 -1.43152 1.09121 0
M  V30 2609 H 240.453 -0.394653 0.64012 0
M  V30 2610 H 242.424 -0.774292 2.88179 0
M  V30 2611 C 241.173 -2.49057 2.42623 0
M  V30 2612 H 240.496 -2.29846 3.27125 0
M  V30 2613 H 241.936 -3.20906 2.7712 0
M  V30 2614 C 240.395 -3.11305 1.28805 0
M  V30 2615 O 240.925 -3.97171 0.60153 0
M  V30 2616 N 239.131 -2.71111 1.04628 0
M  V30 2617 H 238.678 -2.01382 1.60634 0
M  V30 2618 H 238.636 -3.1309 0.286685 0
M  V30 2619 N 242.408 -1.52605 -0.393616 0
M  V30 2620 C 243.819 -1.59417 -0.971761 0
M  V30 2621 C 244.17 -0.444173 -1.91106 0
M  V30 2622 O 243.295 0.433382 -2.12016 0
M  V30 2623 C 243.89 -2.88936 -1.76921 0
M  V30 2624 C 242.449 -2.98175 -2.29714 0
M  V30 2625 C 241.596 -2.54491 -1.10135 0
M  V30 2626 H 244.547 -1.57751 -0.173317 0
M  V30 2627 H 244.568 -2.75163 -2.62804 0
M  V30 2628 H 244.08 -3.72616 -1.08532 0
M  V30 2629 H 242.181 -2.19024 -3.01429 0
M  V30 2630 H 242.294 -4.02726 -2.59517 0
M  V30 2631 H 240.658 -2.08702 -1.45999 0
M  V30 2632 H 241.441 -3.4056 -0.432874 0
M  V30 2633 N 243.887 0.651787 -1.4349 0
M  V30 2634 C 245.298 1.233 -1.40193 0
M  V30 2635 C 245.649 1.9591 -0.106727 0
M  V30 2636 O 244.774 2.01316 0.793773 0
M  V30 2637 C 245.369 2.24257 -2.53957 0
M  V30 2638 C 243.928 2.77852 -2.5392 0
M  V30 2639 C 243.075 1.52517 -2.3159 0
M  V30 2640 H 246.026 0.443717 -1.52371 0
M  V30 2641 H 246.047 3.0646 -2.25528 0
M  V30 2642 H 245.559 1.71382 -3.4821 0
M  V30 2643 H 243.66 3.34786 -1.63551 0
M  V30 2644 H 243.773 3.25299 -3.51735 0
M  V30 2645 H 242.137 1.79915 -1.80285 0
M  V30 2646 H 242.92 1.01574 -3.27929 0
M  V30 2647 N 245.365 1.30045 0.890287 0
M  V30 2648 C 246.642 1.09227 1.62262 0
M  V30 2649 C 247.022 -0.360305 2.08002 0
M  V30 2650 O 246.37 -1.35084 1.84295 0
M  V30 2651 C 246.58 2.08835 2.79623 0
M  V30 2652 C 247.928 2.40266 3.50082 0
M  V30 2653 O 248.952 2.07104 2.89804 0
M  V30 2654 O 247.811 2.96967 4.58773 0
M  V30 2655 H 244.905 0.419132 0.712922 0
M  V30 2656 H 247.451 1.41451 0.937529 0
M  V30 2657 H 246.223 3.06633 2.43089 0
M  V30 2658 H 245.846 1.77397 3.55832 0
M  V30 2659 N 246.843 -1.10192 1.12674 0
M  V30 2660 C 248.09 -1.82205 0.883606 0
M  V30 2661 C 248.418 -1.8532 -0.590492 0
M  V30 2662 O 247.673 -1.31137 -1.45264 0
M  V30 2663 C 247.972 -3.28552 1.4067 0
M  V30 2664 C 247.638 -3.45582 2.89627 0
M  V30 2665 C 246.3 -3.49937 3.30299 0
M  V30 2666 C 248.652 -3.50768 3.85501 0
M  V30 2667 C 245.98 -3.57049 4.65546 0
M  V30 2668 C 248.332 -3.59414 5.20581 0
M  V30 2669 C 246.996 -3.62034 5.60792 0
M  V30 2670 H 246.266 -0.666735 0.323334 0
M  V30 2671 H 248.913 -1.29868 1.40736 0
M  V30 2672 H 247.218 -3.83473 0.80347 0
M  V30 2673 H 248.915 -3.82788 1.19475 0
M  V30 2674 H 245.505 -3.42871 2.57172 0
M  V30 2675 H 249.689 -3.46651 3.55171 0
M  V30 2676 H 244.945 -3.57361 4.96088 0
M  V30 2677 H 249.119 -3.62371 5.94693 0
M  V30 2678 H 246.746 -3.67298 6.6558 0
M  V30 2679 N 248.321 -0.919034 -1.28029 0
M  V30 2680 C 249.284 -0.416182 -2.2539 0
M  V30 2681 C 250.284 0.460438 -1.54067 0
M  V30 2682 O 251.474 0.262744 -1.72207 0
M  V30 2683 C 248.606 0.402707 -3.38513 0
M  V30 2684 H 249.799 -1.27629 -2.71387 0
M  V30 2685 H 247.352 -0.698919 -1.39803 0
M  V30 2686 H 248.087 1.282 -2.97885 0
M  V30 2687 H 247.872 -0.225698 -3.9145 0
M  V30 2688 H 249.362 0.745191 -4.10897 0
M  V30 2689 N 249.799 1.42003 -0.683588 0
M  V30 2690 C 250.746 2.30798 -0.0107309 0
M  V30 2691 C 251.716 1.4645 0.783688 0
M  V30 2692 O 252.901 1.75263 0.754156 0
M  V30 2693 C 250.041 3.3238 0.928306 0
M  V30 2694 C 249.154 4.31814 0.126776 0
M  V30 2695 C 248.289 5.20468 1.06236 0
M  V30 2696 C 247.328 6.11577 0.253035 0
M  V30 2697 N 246.465 6.92754 1.14179 0
M  V30 2698 H 251.305 2.8778 -0.773727 0
M  V30 2699 H 248.842 1.41745 -0.393283 0
M  V30 2700 H 250.8 3.89813 1.48666 0
M  V30 2701 H 249.43 2.76976 1.65783 0
M  V30 2702 H 248.482 3.76427 -0.54833 0
M  V30 2703 H 249.794 4.96276 -0.501192 0
M  V30 2704 H 248.948 5.82677 1.69035 0
M  V30 2705 H 247.687 4.56204 1.7242 0
M  V30 2706 H 246.692 5.48428 -0.388108 0
M  V30 2707 H 247.917 6.77892 -0.404839 0
M  V30 2708 H 245.863 6.3111 1.78987 0
M  V30 2709 H 245.78 7.53855 0.569111 0
M  V30 2710 H 247.048 7.59441 1.75697 0
M  V30 2711 N 251.277 0.427512 1.51691 0
M  V30 2712 C 252.21 -0.433876 2.24037 0
M  V30 2713 C 253.188 -1.03287 1.25581 0
M  V30 2714 O 254.372 -1.07722 1.54688 0
M  V30 2715 C 251.499 -1.60385 2.98319 0
M  V30 2716 C 250.545 -1.12648 4.11355 0
M  V30 2717 S 251.378 -0.076543 5.35445 0
M  V30 2718 C 252.534 -1.25141 6.13262 0
M  V30 2719 H 252.767 0.180367 2.96752 0
M  V30 2720 H 250.3 0.211946 1.52938 0
M  V30 2721 H 252.258 -2.27462 3.41718 0
M  V30 2722 H 250.919 -2.18948 2.25213 0
M  V30 2723 H 250.112 -2.0011 4.62571 0
M  V30 2724 H 249.714 -0.534088 3.70167 0
M  V30 2725 H 252.006 -2.17162 6.41753 0
M  V30 2726 H 252.949 -0.779411 7.03797 0
M  V30 2727 H 253.357 -1.48553 5.44603 0
M  V30 2728 N 252.755 -1.56801 0.158532 0
M  V30 2729 C 253.718 -2.16138 -0.762705 0
M  V30 2730 C 254.718 -1.1061 -1.16713 0
M  V30 2731 O 255.908 -1.36191 -1.08617 0
M  V30 2732 C 253.04 -2.73386 -2.03649 0
M  V30 2733 H 254.233 -2.98886 -0.246354 0
M  V30 2734 H 251.786 -1.56035 -0.0909744 0
M  V30 2735 H 252.521 -1.94335 -2.59623 0
M  V30 2736 H 252.306 -3.50601 -1.75559 0
M  V30 2737 H 253.796 -3.19065 -2.6942 0
M  V30 2738 N 254.233 0.115231 -1.57178 0
M  V30 2739 C 255.163 1.1423 -2.03651 0
M  V30 2740 C 256.144 1.42967 -0.921655 0
M  V30 2741 O 257.329 1.53343 -1.19162 0
M  V30 2742 C 254.459 2.4675 -2.44401 0
M  V30 2743 C 253.413 2.32467 -3.59365 0
M  V30 2744 C 252.739 3.69984 -3.86026 0
M  V30 2745 C 254.039 1.78203 -4.90959 0
M  V30 2746 H 255.733 0.755749 -2.89705 0
M  V30 2747 H 253.279 0.362093 -1.39373 0
M  V30 2748 H 255.232 3.18854 -2.75517 0
M  V30 2749 H 253.956 2.87302 -1.55322 0
M  V30 2750 H 252.615 1.62811 -3.28463 0
M  V30 2751 H 252.263 4.08028 -2.94147 0
M  V30 2752 H 251.963 3.61279 -4.63412 0
M  V30 2753 H 253.487 4.43587 -4.19599 0
M  V30 2754 H 254.901 2.40128 -5.20587 0
M  V30 2755 H 253.298 1.8031 -5.72371 0
M  V30 2756 H 254.368 0.739876 -4.79222 0
M  V30 2757 N 255.711 1.52812 0.385517 0
M  V30 2758 C 257.122 1.5993 0.963293 0
M  V30 2759 C 257.473 0.454302 1.90868 0
M  V30 2760 O 256.598 -0.422132 2.12243 0
M  V30 2761 C 257.193 2.89871 1.75387 0
M  V30 2762 C 255.752 2.99389 2.28129 0
M  V30 2763 C 254.899 2.55071 1.08783 0
M  V30 2764 H 257.85 1.5784 0.164948 0
M  V30 2765 H 257.871 2.76553 2.61341 0
M  V30 2766 H 257.383 3.73186 1.06554 0
M  V30 2767 H 255.484 2.20619 3.00263 0
M  V30 2768 H 255.597 4.04096 2.57377 0
M  V30 2769 H 253.961 2.09473 1.4489 0
M  V30 2770 H 254.744 3.40785 0.414807 0
M  V30 2771 N 257.189 -0.644168 1.43834 0
M  V30 2772 C 258.6 -1.22554 1.40845 0
M  V30 2773 C 258.951 -1.9585 0.117115 0
M  V30 2774 O 258.076 -2.01734 -0.783086 0
M  V30 2775 C 258.671 -2.22907 2.55143 0
M  V30 2776 C 257.23 -2.76501 2.5539 0
M  V30 2777 C 256.377 -1.51287 2.32396 0
M  V30 2778 H 259.328 -0.43563 1.52604 0
M  V30 2779 H 259.349 -3.05259 2.2715 0
M  V30 2780 H 258.861 -1.69533 3.49114 0
M  V30 2781 H 256.962 -3.33914 1.65324 0
M  V30 2782 H 257.075 -3.23429 3.53455 0
M  V30 2783 H 255.439 -1.78957 1.81236 0
M  V30 2784 H 256.222 -0.998336 3.28463 0
M  V30 2785 N 258.668 -1.30515 -0.883378 0
M  V30 2786 C 259.908 -1.20716 -1.64946 0
M  V30 2787 C 260.272 0.234072 -1.90568 0
M  V30 2788 O 261.473 0.455335 -2.64915 0
M  V30 2789 C 259.744 -2.01444 -2.9522 0
M  V30 2790 S 261.303 -2.0836 -3.86175 0
M  V30 2791 H 258.121 -0.430165 -0.566109 0
M  V30 2792 H 260.723 -1.65011 -1.04841 0
M  V30 2793 H 259.427 -3.05268 -2.74298 0
M  V30 2794 H 258.958 -1.57817 -3.60357 0
M  V30 2795 H 260.973 -1.21215 -4.81167 0
M  V30 2796 N 260.146 1.09593 -1.13257 0
M  V30 2797 C 261.096 2.14345 -0.777179 0
M  V30 2798 C 262.08 1.59277 0.227966 0
M  V30 2799 O 263.272 1.76971 0.0321413 0
M  V30 2800 C 260.401 3.42439 -0.242991 0
M  V30 2801 C 259.487 4.04419 -1.27694 0
M  V30 2802 N 259.878 4.40979 -2.47732 0
M  V30 2803 C 258.176 4.31596 -1.12432 0
M  V30 2804 C 258.877 4.89784 -3.13826 0
M  V30 2805 N 257.853 4.87133 -2.41252 0
M  V30 2806 H 261.655 2.40415 -1.69049 0
M  V30 2807 H 259.169 1.26803 -1.01463 0
M  V30 2808 H 261.166 4.16889 0.0298496 0
M  V30 2809 H 259.826 3.17824 0.66467 0
M  V30 2810 H 260.837 4.32396 -2.85051 0
M  V30 2811 H 257.514 4.16595 -0.274684 0
M  V30 2812 H 258.904 5.2755 -4.16102 0
M  V30 2813 N 261.624 0.925811 1.2754 0
M  V30 2814 C 262.87 0.566092 1.94739 0
M  V30 2815 C 263.203 -0.890057 1.72603 0
M  V30 2816 O 262.478 -1.63467 1.05399 0
M  V30 2817 C 262.761 0.89054 3.48915 0
M  V30 2818 C 262.614 2.4003 3.80402 0
M  V30 2819 C 263.933 0.395101 4.38323 0
M  V30 2820 H 261.052 0.20714 0.707292 0
M  V30 2821 H 263.694 1.15725 1.50691 0
M  V30 2822 H 261.844 0.387452 3.86563 0
M  V30 2823 H 263.516 2.97494 3.52555 0
M  V30 2824 H 261.759 2.85028 3.2702 0
M  V30 2825 H 262.43 2.57785 4.8811 0
M  V30 2826 H 264.906 0.826241 4.07814 0
M  V30 2827 H 263.782 0.651086 5.45025 0
M  V30 2828 H 264.043 -0.704798 4.36446 0
M  V30 2829 N 263.102 -1.41638 0.69111 0
M  V30 2830 C 264.349 -2.01299 0.220193 0
M  V30 2831 C 264.677 -1.54715 -1.17871 0
M  V30 2832 O 263.932 -0.747193 -1.80874 0
M  V30 2833 C 264.231 -3.56714 0.221277 0
M  V30 2834 C 263.897 -4.22792 1.56709 0
M  V30 2835 C 262.559 -4.40557 1.93554 0
M  V30 2836 C 264.911 -4.59883 2.45268 0
M  V30 2837 C 262.239 -4.92688 3.18552 0
M  V30 2838 C 264.591 -5.13403 3.69595 0
M  V30 2839 C 263.255 -5.29379 4.06589 0
M  V30 2840 H 262.525 -0.736606 0.0805743 0
M  V30 2841 H 265.172 -1.69598 0.889319 0
M  V30 2842 H 263.477 -3.8818 -0.531391 0
M  V30 2843 H 265.174 -4.00678 -0.160547 0
M  V30 2844 H 261.764 -4.09336 1.2705 0
M  V30 2845 H 265.948 -4.45817 2.18084 0
M  V30 2846 H 261.204 -5.03242 3.47214 0
M  V30 2847 H 265.378 -5.41084 4.38407 0
M  V30 2848 H 263.005 -5.69537 5.03519 0
M  V30 2849 N 264.58 -0.43555 -1.51462 0
M  V30 2850 C 265.82 0.130708 -2.03982 0
M  V30 2851 C 266.184 1.40117 -1.31268 0
M  V30 2852 O 267.385 2.04755 -1.74152 0
M  V30 2853 C 265.656 0.346102 -3.5572 0
M  V30 2854 S 267.215 0.876022 -4.29967 0
M  V30 2855 H 264.033 0.0326881 -0.710248 0
M  V30 2856 H 266.635 -0.594544 -1.8624 0
M  V30 2857 H 265.339 -0.584911 -4.0621 0
M  V30 2858 H 264.87 1.09849 -3.77752 0
M  V30 2859 H 266.885 2.15379 -4.47019 0
M  V30 2860 N 266.058 1.56714 -0.166846 0
M  V30 2861 C 266.99 2.14914 0.796537 0
M  V30 2862 C 268.003 1.10357 1.19688 0
M  V30 2863 O 269.192 1.37561 1.13751 0
M  V30 2864 C 266.292 2.67326 2.08303 0
M  V30 2865 C 265.465 3.96493 1.84696 0
M  V30 2866 C 264.524 4.34014 2.97521 0
M  V30 2867 O 263.55 5.01973 2.6835 0
M  V30 2868 N 264.752 3.95208 4.25196 0
M  V30 2869 H 267.517 2.98205 0.299006 0
M  V30 2870 H 265.078 1.61892 0.0160839 0
M  V30 2871 H 267.07 2.89428 2.82867 0
M  V30 2872 H 265.64 1.88649 2.4926 0
M  V30 2873 H 264.86 3.82814 0.940602 0
M  V30 2874 H 266.148 4.8086 1.66285 0
M  V30 2875 H 265.546 3.40487 4.51758 0
M  V30 2876 H 264.103 4.2232 4.96477 0
M  V30 2877 N 267.536 -0.106894 1.57237 0
M  V30 2878 C 268.783 -0.812526 1.85484 0
M  V30 2879 C 269.111 -1.79304 0.753687 0
M  V30 2880 O 268.366 -1.94047 -0.253853 0
M  V30 2881 C 268.665 -1.58628 3.20268 0
M  V30 2882 C 268.331 -0.748967 4.44636 0
M  V30 2883 C 266.993 -0.518104 4.78403 0
M  V30 2884 C 269.345 -0.166122 5.20935 0
M  V30 2885 C 266.673 0.305659 5.85903 0
M  V30 2886 C 269.025 0.644899 6.29304 0
M  V30 2887 C 267.689 0.885965 6.61594 0
M  V30 2888 H 266.959 -0.297324 0.678734 0
M  V30 2889 H 269.606 -0.0744332 1.91355 0
M  V30 2890 H 267.911 -2.39562 3.10028 0
M  V30 2891 H 269.608 -2.13643 3.39349 0
M  V30 2892 H 266.198 -0.939006 4.18187 0
M  V30 2893 H 270.382 -0.33167 4.95191 0
M  V30 2894 H 265.638 0.501528 6.0934 0
M  V30 2895 H 269.812 1.10345 6.87602 0
M  V30 2896 H 267.439 1.52609 7.44725 0
M  V30 2897 N 269.014 -1.53014 -0.377408 0
M  V30 2898 C 270.244 -1.72265 -1.14054 0
M  V30 2899 C 270.652 -0.44601 -1.83868 0
M  V30 2900 O 269.995 0.590095 -1.73964 0
M  V30 2901 C 270.057 -2.82492 -2.22348 0
M  V30 2902 C 269.721 -4.23233 -1.72402 0
M  V30 2903 C 270.718 -5.05992 -1.19448 0
M  V30 2904 C 268.403 -4.696 -1.78273 0
M  V30 2905 C 270.397 -6.33203 -0.730268 0
M  V30 2906 C 268.084 -5.96792 -1.31464 0
M  V30 2907 C 269.082 -6.78424 -0.789297 0
M  V30 2908 O 268.77 -8.0323 -0.328077 0
M  V30 2909 H 268.502 -0.579873 -0.347453 0
M  V30 2910 H 271.056 -2.00502 -0.445882 0
M  V30 2911 H 269.286 -2.49702 -2.95272 0
M  V30 2912 H 270.975 -2.90034 -2.83963 0
M  V30 2913 H 271.741 -4.71349 -1.14259 0
M  V30 2914 H 267.62 -4.06142 -2.18106 0
M  V30 2915 H 271.164 -6.96868 -0.319542 0
M  V30 2916 H 267.061 -6.30937 -1.36342 0
M  V30 2917 H 267.829 -8.1727 -0.448493 0
M  V30 2918 N 270.492 0.636531 -1.44174 0
M  V30 2919 C 271.738 1.39826 -1.4689 0
M  V30 2920 C 272.071 1.93947 -0.0990585 0
M  V30 2921 O 271.346 1.73325 0.882544 0
M  V30 2922 C 271.629 2.56751 -2.5249 0
M  V30 2923 C 271.482 2.08014 -3.98811 0
M  V30 2924 C 272.801 3.58946 -2.54649 0
M  V30 2925 H 269.92 0.507075 -0.53483 0
M  V30 2926 H 272.562 0.720188 -1.75822 0
M  V30 2927 H 270.712 3.14597 -2.2795 0
M  V30 2928 H 272.384 1.5504 -4.34466 0
M  V30 2929 H 270.627 1.39242 -4.10846 0
M  V30 2930 H 271.298 2.92169 -4.68339 0
M  V30 2931 H 273.774 3.1089 -2.76563 0
M  V30 2932 H 272.65 4.38286 -3.3045 0
M  V30 2933 H 272.911 4.12655 -1.58646 0
M  V30 2934 N 271.97 1.30982 0.876444 0
M  V30 2935 C 272.918 1.18006 2.00443 0
M  V30 2936 C 273.912 0.0898871 1.69161 0
M  V30 2937 O 275.118 0.251333 1.78237 0
M  V30 2938 H 271.493 0.365196 0.65737 0
M  V30 2939 H 273.464 2.13453 2.0852 0
M  V30 2940 C 272.213 0.897521 3.35916 0
M  V30 2941 H 271.536 1.7285 3.60504 0
M  V30 2942 H 272.976 0.846874 4.15456 0
M  V30 2943 C 271.435 -0.399674 3.34521 0
M  V30 2944 O 271.965 -1.41852 3.7582 0
M  V30 2945 N 270.171 -0.413893 2.87637 0
M  V30 2946 H 269.718 0.41571 2.54224 0
M  V30 2947 H 269.676 -1.28175 2.87086 0
M  V30 2948 N 273.449 -1.08991 1.13837 0
M  V30 2949 C 274.696 -1.81258 0.902882 0
M  V30 2950 C 275.024 -1.85936 -0.570803 0
M  V30 2951 O 274.279 -1.3267 -1.43865 0
M  V30 2952 C 274.578 -3.27042 1.44147 0
M  V30 2953 C 274.244 -3.4249 2.93276 0
M  V30 2954 C 272.906 -3.46414 3.33992 0
M  V30 2955 C 275.258 -3.4666 3.892 0
M  V30 2956 C 272.586 -3.52091 4.69307 0
M  V30 2957 C 274.938 -3.53872 5.24364 0
M  V30 2958 C 273.602 -3.56066 5.646 0
M  V30 2959 H 272.872 -0.663268 0.330388 0
M  V30 2960 H 275.519 -1.28368 1.42105 0
M  V30 2961 H 273.824 -3.82599 0.844097 0
M  V30 2962 H 275.521 -3.81499 1.23528 0
M  V30 2963 H 272.111 -3.40124 2.60794 0
M  V30 2964 H 276.295 -3.42865 3.58828 0
M  V30 2965 H 271.551 -3.52079 4.9985 0
M  V30 2966 H 275.725 -3.56043 5.98503 0
M  V30 2967 H 273.352 -3.60218 6.69438 0
M  V30 2968 N 274.927 -0.932562 -1.27047 0
M  V30 2969 C 276.338 -0.619451 -1.76124 0
M  V30 2970 C 276.689 0.865397 -1.76083 0
M  V30 2971 O 275.814 1.67722 -1.36742 0
M  V30 2972 C 276.409 -1.11771 -3.19832 0
M  V30 2973 C 274.968 -0.855174 -3.66557 0
M  V30 2974 C 274.115 -1.27362 -2.46321 0
M  V30 2975 H 277.066 -1.11181 -1.13245 0
M  V30 2976 H 277.087 -0.46759 -3.77616 0
M  V30 2977 H 276.599 -2.19842 -3.1983 0
M  V30 2978 H 274.7 0.211524 -3.71999 0
M  V30 2979 H 274.813 -1.47613 -4.55793 0
M  V30 2980 H 273.177 -0.692119 -2.45116 0
M  V30 2981 H 273.96 -2.36307 -2.49025 0
M  V30 2982 N 276.405 1.4127 -0.698611 0
M  V30 2983 C 277.633 2.05503 -0.239992 0
M  V30 2984 C 278.048 1.52584 1.11191 0
M  V30 2985 O 277.405 0.675323 1.69545 0
M  V30 2986 C 277.456 3.60987 -0.192429 0
M  V30 2987 O 277.177 4.1195 -1.49094 0
M  V30 2988 C 278.678 4.42371 0.28681 0
M  V30 2989 H 275.898 0.661748 -0.111045 0
M  V30 2990 H 278.442 1.80987 -0.95205 0
M  V30 2991 H 276.597 3.84533 0.470472 0
M  V30 2992 H 277.011 5.06018 -1.38007 0
M  V30 2993 H 278.485 5.51344 0.26896 0
M  V30 2994 H 278.962 4.18699 1.32619 0
M  V30 2995 H 279.568 4.23897 -0.345201 0
M  V30 2996 N 277.883 0.443576 1.51229 0
M  V30 2997 C 279.108 -0.121648 2.07043 0
M  V30 2998 C 279.533 -1.35156 1.30823 0
M  V30 2999 O 278.891 -1.7793 0.347934 0
M  V30 3000 C 278.939 -0.41624 3.5819 0
M  V30 3001 O 278.043 -1.50163 3.8409 0
M  V30 3002 H 277.384 0.000871367 0.663999 0
M  V30 3003 H 279.914 0.626706 1.94765 0
M  V30 3004 H 279.924 -0.664867 4.02546 0
M  V30 3005 H 278.599 0.482653 4.1309 0
M  V30 3006 H 277.176 -1.24248 3.51592 0
M  V30 3007 N 279.361 -1.56624 0.175154 0
M  V30 3008 C 280.586 -2.01813 -0.478137 0
M  V30 3009 C 281.011 -1.05457 -1.55757 0
M  V30 3010 O 280.369 -0.0347439 -1.81267 0
M  V30 3011 C 280.417 -3.45581 -1.02987 0
M  V30 3012 O 279.521 -3.52305 -2.14371 0
M  V30 3013 H 278.862 -0.65413 -0.114059 0
M  V30 3014 H 281.392 -2.02673 0.280173 0
M  V30 3015 H 281.402 -3.84965 -1.35151 0
M  V30 3016 H 280.077 -4.1521 -0.239556 0
M  V30 3017 H 278.654 -3.24783 -1.83222 0
M  V30 3018 N 280.839 0.0985539 -1.57292 0
M  V30 3019 C 282.25 0.653457 -1.74891 0
M  V30 3020 C 282.601 1.7929 -0.796838 0
M  V30 3021 O 281.726 2.16385 0.0254886 0
M  V30 3022 C 282.321 1.19216 -3.17133 0
M  V30 3023 C 280.88 1.69316 -3.36168 0
M  V30 3024 C 280.027 0.601294 -2.70702 0
M  V30 3025 H 282.978 -0.127497 -1.58187 0
M  V30 3026 H 282.999 2.06154 -3.19814 0
M  V30 3027 H 282.511 0.362635 -3.86402 0
M  V30 3028 H 280.612 2.5468 -2.71972 0
M  V30 3029 H 280.725 1.78853 -4.44464 0
M  V30 3030 H 279.089 1.0399 -2.32504 0
M  V30 3031 H 279.872 -0.217592 -3.4261 0
M  V30 3032 N 282.317 1.53212 0.369288 0
M  V30 3033 C 283.594 1.59815 1.12776 0
M  V30 3034 C 283.974 0.403402 2.0721 0
M  V30 3035 O 283.322 -0.606667 2.20299 0
M  V30 3036 C 283.532 2.94664 1.87013 0
M  V30 3037 C 284.88 3.49109 2.41677 0
M  V30 3038 O 285.904 2.96669 1.97144 0
M  V30 3039 O 284.763 4.40775 3.23079 0
M  V30 3040 H 281.857 0.645376 0.517125 0
M  V30 3041 H 284.403 1.65553 0.37285 0
M  V30 3042 H 283.175 3.73061 1.18071 0
M  V30 3043 H 282.798 2.92401 2.69421 0
M  V30 3044 N 283.795 -0.628877 1.44509 0
M  V30 3045 C 285.206 -1.21054 1.42137 0
M  V30 3046 C 285.557 -1.95715 0.137881 0
M  V30 3047 O 284.682 -2.02554 -0.761645 0
M  V30 3048 C 285.277 -2.20189 2.57493 0
M  V30 3049 C 283.836 -2.73777 2.58308 0
M  V30 3050 C 282.983 -1.48813 2.33987 0
M  V30 3051 H 285.934 -0.41942 1.53057 0
M  V30 3052 H 285.955 -3.02833 2.30375 0
M  V30 3053 H 285.467 -1.6582 3.50892 0
M  V30 3054 H 283.568 -3.32142 1.68856 0
M  V30 3055 H 283.681 -3.19662 3.56865 0
M  V30 3056 H 282.045 -1.77024 1.83124 0
M  V30 3057 H 282.828 -0.963442 3.29504 0
M  V30 3058 N 285.273 -1.31445 -0.869486 0
M  V30 3059 C 286.221 -1.19067 -1.99814 0
M  V30 3060 C 287.215 -0.0988569 -1.69111 0
M  V30 3061 O 288.421 -0.260781 -1.78101 0
M  V30 3062 H 284.796 -0.368677 -0.655425 0
M  V30 3063 H 286.767 -2.14555 -2.07385 0
M  V30 3064 C 285.516 -0.915323 -3.35436 0
M  V30 3065 H 284.839 -1.74759 -3.59582 0
M  V30 3066 H 286.279 -0.868895 -4.15001 0
M  V30 3067 C 284.738 0.381928 -3.34728 0
M  V30 3068 O 285.268 1.39857 -3.76567 0
M  V30 3069 N 283.474 0.398633 -2.87853 0
M  V30 3070 H 283.021 -0.429186 -2.54 0
M  V30 3071 H 282.979 1.26651 -2.87762 0
M  V30 3072 N 286.751 1.08385 -1.14413 0
M  V30 3073 C 287.699 2.17406 -0.826888 0
M  V30 3074 C 288.693 1.6827 0.195312 0
M  V30 3075 O 289.899 1.79927 0.0513892 0
M  V30 3076 H 286.274 0.70934 -0.249681 0
M  V30 3077 H 288.245 2.41388 -1.75426 0
M  V30 3078 C 286.994 3.46215 -0.320979 0
M  V30 3079 H 286.317 3.84401 -1.0989 0
M  V30 3080 H 287.757 4.23777 -0.137549 0
M  V30 3081 C 286.216 3.23067 0.955472 0
M  V30 3082 O 286.746 3.4668 2.02918 0
M  V30 3083 N 284.952 2.7661 0.890798 0
M  V30 3084 H 284.499 2.57594 0.0168815 0
M  V30 3085 H 284.457 2.61501 1.74542 0
M  V30 3086 N 288.23 0.939286 1.26551 0
M  V30 3087 C 289.641 0.628782 1.75793 0
M  V30 3088 C 289.992 -0.856046 1.7654 0
M  V30 3089 O 289.117 -1.66994 1.3763 0
M  V30 3090 C 289.712 1.13465 3.19235 0
M  V30 3091 C 288.271 0.874601 3.66098 0
M  V30 3092 C 287.418 1.28667 2.45642 0
M  V30 3093 H 290.369 1.1178 1.12654 0
M  V30 3094 H 290.39 0.487609 3.77363 0
M  V30 3095 H 289.902 2.21535 3.1866 0
M  V30 3096 H 288.003 -0.191793 3.72106 0
M  V30 3097 H 288.116 1.50028 4.55004 0
M  V30 3098 H 286.48 0.705109 2.44745 0
M  V30 3099 H 287.263 2.37625 2.47769 0
M  V30 3100 N 289.708 -1.40897 0.706093 0
M  V30 3101 C 290.655 -2.30751 0.0474474 0
M  V30 3102 C 291.625 -1.47678 -0.76029 0
M  V30 3103 O 292.81 -1.76441 -0.726177 0
M  V30 3104 C 289.95 -3.33815 -0.875309 0
M  V30 3105 C 289.063 -4.31961 -0.0580623 0
M  V30 3106 C 288.198 -5.22093 -0.979425 0
M  V30 3107 C 287.237 -6.11902 -0.155706 0
M  V30 3108 N 286.374 -6.94482 -1.03144 0
M  V30 3109 H 291.214 -2.86513 0.819413 0
M  V30 3110 H 288.751 -1.41102 0.415783 0
M  V30 3111 H 290.709 -3.92129 -1.42446 0
M  V30 3112 H 289.339 -2.79579 -1.61356 0
M  V30 3113 H 288.391 -3.75507 0.608147 0
M  V30 3114 H 289.703 -4.95415 0.580082 0
M  V30 3115 H 288.857 -5.85292 -1.59744 0
M  V30 3116 H 287.596 -4.5889 -1.65141 0
M  V30 3117 H 286.601 -5.47742 0.475309 0
M  V30 3118 H 287.826 -6.77162 0.512635 0
M  V30 3119 H 285.772 -6.33877 -1.68924 0
M  V30 3120 H 285.689 -7.54665 -0.449108 0
M  V30 3121 H 286.957 -7.6214 -1.63593 0
M  V30 3122 N 291.186 -0.45159 -1.50991 0
M  V30 3123 C 292.118 0.388634 -2.25881 0
M  V30 3124 C 293.131 0.974041 -1.30446 0
M  V30 3125 O 294.32 0.865758 -1.56099 0
M  V30 3126 C 291.42 1.5571 -3.01011 0
M  V30 3127 C 290.593 1.08801 -4.23652 0
M  V30 3128 C 289.652 2.12825 -4.8124 0
M  V30 3129 O 288.678 1.71678 -5.42693 0
M  V30 3130 N 289.88 3.45453 -4.66522 0
M  V30 3131 H 292.645 -0.25329 -2.98628 0
M  V30 3132 H 290.206 -0.281268 -1.59438 0
M  V30 3133 H 292.198 2.24952 -3.3642 0
M  V30 3134 H 290.768 2.10409 -2.31186 0
M  V30 3135 H 289.988 0.22215 -3.93574 0
M  V30 3136 H 291.276 0.752213 -5.03209 0
M  V30 3137 H 290.674 3.81605 -4.17605 0
M  V30 3138 H 289.231 4.10549 -5.06254 0
M  V30 3139 N 292.664 1.56529 -0.183458 0
M  V30 3140 C 293.627 2.17324 0.728223 0
M  V30 3141 C 294.627 1.12453 1.14939 0
M  V30 3142 O 295.817 1.37902 1.06437 0
M  V30 3143 C 292.949 2.76591 1.99274 0
M  V30 3144 H 294.142 2.99241 0.198772 0
M  V30 3145 H 291.695 1.5616 0.0661391 0
M  V30 3146 H 292.43 1.98441 2.56499 0
M  V30 3147 H 292.215 3.5335 1.69959 0
M  V30 3148 H 293.705 3.23311 2.6431 0
M  V30 3149 N 294.142 -0.090211 1.57342 0
M  V30 3150 C 295.089 -1.10909 2.02405 0
M  V30 3151 C 296.059 -1.39523 0.901252 0
M  V30 3152 O 297.244 -1.50903 1.1676 0
M  V30 3153 C 294.384 -2.42277 2.45755 0
M  V30 3154 C 293.497 -2.20352 3.71576 0
M  V30 3155 C 292.632 -3.45154 4.03785 0
M  V30 3156 C 291.671 -3.18512 5.22701 0
M  V30 3157 N 290.808 -4.35593 5.50639 0
M  V30 3158 H 295.648 -0.71782 2.89225 0
M  V30 3159 H 293.185 -0.342901 1.43048 0
M  V30 3160 H 295.143 -3.18951 2.68935 0
M  V30 3161 H 293.773 -2.79242 1.61938 0
M  V30 3162 H 292.825 -1.34458 3.55844 0
M  V30 3163 H 294.137 -1.96661 4.58395 0
M  V30 3164 H 293.291 -4.30233 4.27767 0
M  V30 3165 H 292.03 -3.71904 3.15498 0
M  V30 3166 H 291.035 -2.31827 4.98534 0
M  V30 3167 H 292.26 -2.93103 6.12591 0
M  V30 3168 H 290.206 -4.6241 4.6531 0
M  V30 3169 H 290.123 -4.1511 6.31838 0
M  V30 3170 H 291.391 -5.21723 5.7916 0
M  V30 3171 N 295.62 -1.53406 -0.361157 0
M  V30 3172 C 296.848 -1.73717 -1.12383 0
M  V30 3173 C 297.263 -0.468161 -1.82904 0
M  V30 3174 O 296.62 0.559198 -1.73722 0
M  V30 3175 C 296.671 -2.90558 -2.15078 0
M  V30 3176 O 296.392 -4.12549 -1.47428 0
M  V30 3177 C 297.893 -3.22777 -3.03858 0
M  V30 3178 H 295.113 -0.580896 -0.335858 0
M  V30 3179 H 297.657 -2.00167 -0.418728 0
M  V30 3180 H 295.812 -2.66489 -2.8118 0
M  V30 3181 H 296.226 -4.78009 -2.15887 0
M  V30 3182 H 297.7 -4.07927 -3.71887 0
M  V30 3183 H 298.177 -2.38329 -3.68912 0
M  V30 3184 H 298.783 -3.48787 -2.43367 0
M  V30 3185 N 297.098 0.621204 -1.44841 0
M  V30 3186 C 298.061 1.71459 -1.521 0
M  V30 3187 C 299.061 1.55696 -0.401933 0
M  V30 3188 O 300.251 1.61011 -0.664925 0
M  V30 3189 C 297.383 3.10624 -1.40447 0
M  V30 3190 H 298.576 1.66394 -2.49506 0
M  V30 3191 H 296.129 0.835745 -1.3208 0
M  V30 3192 H 296.864 3.21277 -0.441737 0
M  V30 3193 H 296.649 3.23473 -2.21602 0
M  V30 3194 H 298.139 3.90293 -1.4853 0
M  V30 3195 N 298.576 1.31904 0.862503 0
M  V30 3196 C 299.523 1.20182 1.9704 0
M  V30 3197 C 300.493 0.0858247 1.65878 0
M  V30 3198 O 301.678 0.26 1.8902 0
M  V30 3199 C 298.818 0.922797 3.32533 0
M  V30 3200 C 297.931 2.12284 3.76244 0
M  V30 3201 C 297.066 1.77996 5.00491 0
M  V30 3202 C 296.105 2.94366 5.36671 0
M  V30 3203 N 295.242 2.60223 6.52095 0
M  V30 3204 H 300.082 2.14951 2.06398 0
M  V30 3205 H 297.619 1.06917 1.01031 0
M  V30 3206 H 299.577 0.741548 4.10557 0
M  V30 3207 H 298.207 0.0119227 3.22798 0
M  V30 3208 H 297.259 2.41461 2.9394 0
M  V30 3209 H 298.571 2.99357 3.98982 0
M  V30 3210 H 297.725 1.56377 5.862 0
M  V30 3211 H 296.464 0.881252 4.79672 0
M  V30 3212 H 295.469 3.16625 4.49476 0
M  V30 3213 H 296.694 3.84957 5.59451 0
M  V30 3214 H 294.64 1.72884 6.32809 0
M  V30 3215 H 294.557 3.40827 6.74814 0
M  V30 3216 H 295.825 2.42016 7.40978 0
M  V30 3217 N 300.054 -1.07777 1.14986 0
M  V30 3218 C 301.465 -1.61766 0.932127 0
M  V30 3219 C 301.816 -1.88974 -0.527581 0
M  V30 3220 O 300.941 -1.65198 -1.39781 0
M  V30 3221 C 301.536 -2.93891 1.68563 0
M  V30 3222 C 300.095 -3.44639 1.5133 0
M  V30 3223 C 299.242 -2.18767 1.704 0
M  V30 3224 H 302.193 -0.909201 1.30074 0
M  V30 3225 H 302.214 -3.62623 1.15259 0
M  V30 3226 H 301.726 -2.74057 2.74799 0
M  V30 3227 H 299.827 -3.69564 0.474702 0
M  V30 3228 H 299.94 -4.20966 2.28746 0
M  V30 3229 H 298.304 -2.28253 1.13016 0
M  V30 3230 H 299.087 -2.01433 2.77992 0
M  V30 3231 N 301.532 -0.945985 -1.26051 0
M  V30 3232 C 302.479 -0.45809 -2.26208 0
M  V30 3233 C 303.449 0.484816 -1.58867 0
M  V30 3234 O 304.634 0.399969 -1.86561 0
M  V30 3235 C 301.774 0.266131 -3.44072 0
M  V30 3236 C 300.887 -0.713005 -4.26075 0
M  V30 3237 C 300.022 0.0329013 -5.3119 0
M  V30 3238 C 299.061 -0.93774 -6.04874 0
M  V30 3239 N 298.198 -0.223274 -7.01745 0
M  V30 3240 H 303.038 -1.3171 -2.67313 0
M  V30 3241 H 300.575 -0.66069 -1.31428 0
M  V30 3242 H 302.533 0.702514 -4.11243 0
M  V30 3243 H 301.163 1.08925 -3.03867 0
M  V30 3244 H 300.215 -1.26789 -3.58648 0
M  V30 3245 H 301.527 -1.45406 -4.77136 0
M  V30 3246 H 300.681 0.528335 -6.04395 0
M  V30 3247 H 299.42 0.806801 -4.8098 0
M  V30 3248 H 298.425 -1.44425 -5.30492 0
M  V30 3249 H 299.65 -1.71172 -6.57173 0
M  V30 3250 H 297.596 0.532046 -6.53839 0
M  V30 3251 H 297.513 -0.90357 -7.50581 0
M  V30 3252 H 298.781 0.250907 -7.79096 0
M  V30 3253 N 303.011 1.40521 -0.713556 0
M  V30 3254 C 303.941 2.33381 -0.0743864 0
M  V30 3255 C 304.922 1.52784 0.747735 0
M  V30 3256 O 306.107 1.81258 0.697071 0
M  V30 3257 C 303.237 3.36748 0.849598 0
M  V30 3258 C 302.191 4.27793 0.133247 0
M  V30 3259 C 301.517 5.21679 1.17281 0
M  V30 3260 C 302.817 5.12415 -1.01134 0
M  V30 3261 H 304.511 2.87081 -0.850007 0
M  V30 3262 H 302.057 1.38034 -0.410201 0
M  V30 3263 H 304.01 4.00648 1.30612 0
M  V30 3264 H 302.734 2.81439 1.65709 0
M  V30 3265 H 301.393 3.65342 -0.303426 0
M  V30 3266 H 301.041 4.62677 1.9733 0
M  V30 3267 H 300.741 5.83435 0.698397 0
M  V30 3268 H 302.265 5.88456 1.62947 0
M  V30 3269 H 303.679 5.69781 -0.634274 0
M  V30 3270 H 302.076 5.83203 -1.41399 0
M  V30 3271 H 303.146 4.48514 -1.84292 0
M  V30 3272 N 304.489 0.459591 1.5075 0
M  V30 3273 C 305.714 -0.0996819 2.0716 0
M  V30 3274 C 306.139 -1.33761 1.32249 0
M  V30 3275 O 305.497 -1.77551 0.366786 0
M  V30 3276 C 305.545 -0.378226 3.58611 0
M  V30 3277 O 304.649 -1.46081 3.85661 0
M  V30 3278 H 303.99 0.00791392 0.663953 0
M  V30 3279 H 306.52 0.647329 1.9409 0
M  V30 3280 H 306.53 -0.622135 4.03229 0
M  V30 3281 H 305.205 0.526439 4.12555 0
M  V30 3282 H 303.782 -1.20511 3.5289 0
M  V30 3283 N 305.967 -1.56429 0.191757 0
M  V30 3284 C 307.207 -1.99383 -0.450099 0
M  V30 3285 C 307.571 -1.07581 -1.59029 0
M  V30 3286 O 308.772 -1.39758 -2.29611 0
M  V30 3287 C 307.043 -3.45841 -0.901611 0
M  V30 3288 S 308.602 -4.10822 -1.54177 0
M  V30 3289 H 305.42 -0.696253 -0.144057 0
M  V30 3290 H 308.022 -1.93276 0.294036 0
M  V30 3291 H 306.726 -4.10354 -0.0616596 0
M  V30 3292 H 306.257 -3.55757 -1.67929 0
M  V30 3293 H 308.272 -4.07553 -2.83046 0
M  V30 3294 N 307.445 0.0818655 -1.57387 0
M  V30 3295 C 308.375 1.09885 -2.06028 0
M  V30 3296 C 309.356 1.4098 -0.951774 0
M  V30 3297 O 310.541 1.50781 -1.22387 0
M  V30 3298 C 307.671 2.4151 -2.4958 0
M  V30 3299 C 306.625 2.24792 -3.64215 0
M  V30 3300 C 305.951 3.61712 -3.93787 0
M  V30 3301 C 307.251 1.67749 -4.94629 0
M  V30 3302 H 308.945 0.694128 -2.91243 0
M  V30 3303 H 306.491 0.332448 -1.4011 0
M  V30 3304 H 308.444 3.12939 -2.82219 0
M  V30 3305 H 307.168 2.83943 -1.61381 0
M  V30 3306 H 305.827 1.55807 -3.31843 0
M  V30 3307 H 305.475 4.01697 -3.02735 0
M  V30 3308 H 305.175 3.51368 -4.70971 0
M  V30 3309 H 306.699 4.34587 -4.28913 0
M  V30 3310 H 308.113 2.29032 -5.25564 0
M  V30 3311 H 306.51 1.68128 -5.76067 0
M  V30 3312 H 307.58 0.638059 -4.80684 0
M  V30 3313 N 308.923 1.53595 0.353017 0
M  V30 3314 C 309.853 1.83902 1.43883 0
M  V30 3315 C 310.834 0.693421 1.55324 0
M  V30 3316 O 312.019 0.944452 1.69687 0
M  V30 3317 C 309.149 2.04016 2.8106 0
M  V30 3318 C 308.103 3.19814 2.84434 0
M  V30 3319 C 307.429 3.25244 4.24406 0
M  V30 3320 C 308.729 4.58133 2.50822 0
M  V30 3321 H 310.423 2.74835 1.1877 0
M  V30 3322 H 307.969 1.32242 0.569917 0
M  V30 3323 H 309.922 2.238 3.57059 0
M  V30 3324 H 308.646 1.09804 3.07588 0
M  V30 3325 H 307.305 2.9987 2.10887 0
M  V30 3326 H 306.953 2.28646 4.48029 0
M  V30 3327 H 306.653 4.03054 4.27576 0
M  V30 3328 H 308.177 3.47228 5.0226 0
M  V30 3329 H 309.591 4.77995 3.16534 0
M  V30 3330 H 307.988 5.38276 2.6529 0
M  V30 3331 H 309.058 4.62387 1.46034 0
M  V30 3332 N 310.401 -0.613514 1.45168 0
M  V30 3333 C 311.631 -1.39743 1.52169 0
M  V30 3334 C 312.039 -1.88596 0.151086 0
M  V30 3335 O 311.382 -1.6251 -0.856521 0
M  V30 3336 C 311.444 -2.64035 2.43979 0
M  V30 3337 C 311.108 -2.36861 3.90827 0
M  V30 3338 C 312.105 -1.97591 4.80889 0
M  V30 3339 C 309.79 -2.49956 4.35692 0
M  V30 3340 C 311.784 -1.71768 6.1382 0
M  V30 3341 C 309.471 -2.23747 5.68665 0
M  V30 3342 C 310.469 -1.84714 6.57548 0
M  V30 3343 O 310.157 -1.58809 7.88058 0
M  V30 3344 H 309.889 -0.434382 0.517966 0
M  V30 3345 H 312.443 -0.75587 1.90986 0
M  V30 3346 H 310.673 -3.3089 2.00122 0
M  V30 3347 H 312.362 -3.26069 2.41731 0
M  V30 3348 H 313.128 -1.87015 4.47493 0
M  V30 3349 H 309.007 -2.79305 3.66756 0
M  V30 3350 H 312.551 -1.41227 6.83155 0
M  V30 3351 H 308.448 -2.33938 6.01617 0
M  V30 3352 H 309.216 -1.7291 8.00028 0
M  V30 3353 N 311.879 -1.3236 -0.855495 0
M  V30 3354 C 312.811 -1.17052 -1.97057 0
M  V30 3355 C 313.824 -0.10574 -1.62456 0
M  V30 3356 O 315.013 -0.354619 -1.74942 0
M  V30 3357 C 312.113 -0.769305 -3.30053 0
M  V30 3358 C 311.286 -1.9222 -3.929 0
M  V30 3359 C 310.345 -1.50466 -5.04228 0
M  V30 3360 O 309.371 -2.21655 -5.24269 0
M  V30 3361 N 310.573 -0.400209 -5.79119 0
M  V30 3362 H 313.338 -2.13103 -2.1073 0
M  V30 3363 H 310.899 -1.24885 -1.0303 0
M  V30 3364 H 312.891 -0.472407 -4.01933 0
M  V30 3365 H 311.461 0.100025 -3.1244 0
M  V30 3366 H 310.681 -2.38563 -3.13817 0
M  V30 3367 H 311.969 -2.69403 -4.31624 0
M  V30 3368 H 311.367 0.192319 -5.65373 0
M  V30 3369 H 309.924 -0.162912 -6.51596 0
M  V30 3370 N 313.357 1.07166 -1.15556 0
M  V30 3371 C 314.773 1.31899 -0.898603 0
M  V30 3372 C 314.973 1.96333 0.453383 0
M  V30 3373 O 314.029 2.22438 1.19489 0
M  V30 3374 C 315.342 2.20826 -2.04099 0
M  V30 3375 C 316.89 2.34269 -2.07574 0
M  V30 3376 C 317.365 3.26546 -3.21141 0
M  V30 3377 N 318.856 3.34127 -3.20801 0
M  V30 3378 C 319.591 4.05595 -4.05315 0
M  V30 3379 N 319.087 4.79661 -4.99897 0
M  V30 3380 N 320.88 4.01555 -3.93332 0
M  V30 3381 H 313.031 0.637302 -2.02613 0
M  V30 3382 H 315.294 0.343468 -0.883591 0
M  V30 3383 H 315 1.80744 -3.01703 0
M  V30 3384 H 314.874 3.21364 -1.97496 0
M  V30 3385 H 317.261 2.73603 -1.10568 0
M  V30 3386 H 317.342 1.33429 -2.18244 0
M  V30 3387 H 316.986 2.87931 -4.184 0
M  V30 3388 H 316.916 4.27345 -3.07708 0
M  V30 3389 H 319.407 2.81336 -2.52306 0
M  V30 3390 H 319.72 5.31694 -5.60822 0
M  V30 3391 H 318.065 4.78671 -5.03884 0
M  V30 3392 H 321.256 3.42806 -3.18751 0
M  V30 3393 H 321.429 4.56987 -4.5942 0
M  V30 3394 N 314.835 0.952656 1.25548 0
M  V30 3395 C 316.06 0.623025 1.97821 0
M  V30 3396 C 316.485 -0.7976 1.70352 0
M  V30 3397 O 315.843 -1.53905 0.958283 0
M  V30 3398 C 315.891 0.885532 3.49558 0
M  V30 3399 O 314.995 -0.0366641 4.12384 0
M  V30 3400 H 314.336 0.237082 0.620232 0
M  V30 3401 H 316.866 1.27871 1.59719 0
M  V30 3402 H 316.876 0.811009 3.99858 0
M  V30 3403 H 315.551 1.92094 3.6888 0
M  V30 3404 H 314.128 0.0898954 3.72792 0
M  V30 3405 N 316.313 -1.40141 0.720998 0
M  V30 3406 C 317.553 -2.02644 0.267335 0
M  V30 3407 C 317.917 -1.55948 -1.12001 0
M  V30 3408 O 319.118 -2.10552 -1.67097 0
M  V30 3409 C 317.389 -3.55679 0.350281 0
M  V30 3410 S 318.948 -4.38793 -0.0256004 0
M  V30 3411 H 315.766 -0.703105 0.105664 0
M  V30 3412 H 318.368 -1.71175 0.944416 0
M  V30 3413 H 317.072 -3.87157 1.36153 0
M  V30 3414 H 316.603 -3.91883 -0.345096 0
M  V30 3415 H 318.618 -4.803 -1.24604 0
M  V30 3416 N 317.792 -0.46758 -1.50504 0
M  V30 3417 C 319.069 0.15003 -1.95024 0
M  V30 3418 C 319.449 1.57304 -1.40779 0
M  V30 3419 O 318.797 2.20281 -0.607319 0
M  V30 3420 C 319.007 0.0969324 -3.48865 0
M  V30 3421 C 320.355 0.287565 -4.23625 0
M  V30 3422 O 321.379 0.173678 -3.55776 0
M  V30 3423 O 320.238 0.517186 -5.44047 0
M  V30 3424 H 317.332 0.113582 -0.819163 0
M  V30 3425 H 319.878 -0.52773 -1.61286 0
M  V30 3426 H 318.65 -0.896732 -3.80886 0
M  V30 3427 H 318.273 0.816303 -3.8913 0
M  V30 3428 N 319.27 1.56325 -0.20005 0
M  V30 3429 C 320.203 2.15234 0.758267 0
M  V30 3430 C 321.181 1.09046 1.20614 0
M  V30 3431 O 322.365 1.37186 1.29276 0
M  V30 3432 C 319.492 2.71524 2.02466 0
M  V30 3433 C 318.538 3.90345 1.71852 0
M  V30 3434 S 319.371 5.28513 0.862249 0
M  V30 3435 C 320.527 5.88227 2.13868 0
M  V30 3436 H 320.76 2.96183 0.2575 0
M  V30 3437 H 318.293 1.54393 0.0150099 0
M  V30 3438 H 320.251 3.04598 2.75191 0
M  V30 3439 H 318.912 1.90607 2.49655 0
M  V30 3440 H 318.105 4.28158 2.65888 0
M  V30 3441 H 317.707 3.58306 1.07205 0
M  V30 3442 H 319.999 6.02891 3.09076 0
M  V30 3443 H 320.942 6.84714 1.80479 0
M  V30 3444 H 321.35 5.16874 2.2694 0
M  V30 3445 N 320.748 -0.0735177 1.57428 0
M  V30 3446 C 321.996 -0.771472 1.86796 0
M  V30 3447 C 322.317 -1.78201 0.791804 0
M  V30 3448 O 321.587 -1.95074 -0.179718 0
M  V30 3449 H 320.167 -0.28791 0.689287 0
M  V30 3450 H 322.829 -0.0500161 1.94836 0
M  V30 3451 H 321.925 -1.28874 2.8425 0
M  V30 3452 N 322.226 -1.5378 -0.344866 0
M  V30 3453 C 323.156 -1.84662 -1.42906 0
M  V30 3454 C 324.137 -0.701648 -1.54955 0
M  V30 3455 O 325.322 -0.953438 -1.69184 0
M  V30 3456 C 322.452 -2.05503 -2.79974 0
M  V30 3457 C 321.406 -3.21318 -2.82734 0
M  V30 3458 C 320.732 -3.2749 -4.22675 0
M  V30 3459 C 322.032 -4.59456 -2.48389 0
M  V30 3460 H 323.726 -2.75461 -1.17311 0
M  V30 3461 H 321.272 -1.32542 -0.562896 0
M  V30 3462 H 323.225 -2.25691 -3.55867 0
M  V30 3463 H 321.949 -1.11434 -3.07002 0
M  V30 3464 H 320.608 -3.00984 -2.09294 0
M  V30 3465 H 320.256 -2.31019 -4.4681 0
M  V30 3466 H 319.956 -4.05316 -4.25433 0
M  V30 3467 H 321.48 -3.49887 -5.00412 0
M  V30 3468 H 322.894 -4.79667 -3.13995 0
M  V30 3469 H 321.291 -5.39675 -2.62432 0
M  V30 3470 H 322.361 -4.63155 -1.4358 0
M  V30 3471 N 323.704 0.605807 -1.45491 0
M  V30 3472 C 324.952 1.36207 -1.49305 0
M  V30 3473 C 325.273 1.94519 -0.136863 0
M  V30 3474 O 324.543 1.77261 0.833983 0
M  V30 3475 H 323.123 0.50565 -0.549843 0
M  V30 3476 H 325.785 0.711239 -1.81459 0
M  V30 3477 H 324.881 2.18058 -2.23287 0
M  V30 3478 N 325.182 1.32811 0.848464 0
M  V30 3479 C 326.428 1.23907 1.60546 0
M  V30 3480 C 326.761 -0.197161 1.93197 0
M  V30 3481 O 326.036 -1.13596 1.5788 0
M  V30 3482 C 326.319 2.10489 2.92175 0
M  V30 3483 C 326.172 3.62522 2.66266 0
M  V30 3484 C 327.491 1.97075 3.93509 0
M  V30 3485 H 324.61 0.451459 0.58254 0
M  V30 3486 H 327.252 1.62818 0.979296 0
M  V30 3487 H 325.402 1.77434 3.45614 0
M  V30 3488 H 327.074 4.05821 2.19334 0
M  V30 3489 H 325.317 3.84879 2.00126 0
M  V30 3490 H 325.988 4.18437 3.6002 0
M  V30 3491 H 328.464 2.26045 3.49346 0
M  V30 3492 H 327.34 2.59923 4.83457 0
M  V30 3493 H 327.601 0.940186 4.31987 0
M  V30 3494 N 326.66 -1.06551 1.16123 0
M  V30 3495 C 328.071 -1.60768 0.949232 0
M  V30 3496 C 328.422 -1.89523 -0.507508 0
M  V30 3497 O 327.547 -1.66671 -1.38021 0
M  V30 3498 C 328.142 -2.92086 1.71671 0
M  V30 3499 C 326.701 -3.43015 1.54977 0
M  V30 3500 C 325.848 -2.16947 1.72711 0
M  V30 3501 H 328.799 -0.895354 1.31031 0
M  V30 3502 H 328.82 -3.6138 1.19099 0
M  V30 3503 H 328.332 -2.71127 2.7769 0
M  V30 3504 H 326.433 -3.69039 0.513873 0
M  V30 3505 H 326.546 -4.18516 2.33198 0
M  V30 3506 H 324.91 -2.27041 1.15431 0
M  V30 3507 H 325.693 -1.98473 2.80113 0
M  V30 3508 N 328.138 -0.959301 -1.25041 0
M  V30 3509 C 329.385 -0.616611 -1.92884 0
M  V30 3510 C 329.713 0.847036 -1.75087 0
M  V30 3511 O 328.968 1.62374 -1.09239 0
M  V30 3512 C 329.267 -0.927136 -3.45165 0
M  V30 3513 C 328.933 -2.37757 -3.83122 0
M  V30 3514 C 327.595 -2.77402 -3.93194 0
M  V30 3515 C 329.947 -3.31929 -4.01836 0
M  V30 3516 C 327.275 -4.10277 -4.19392 0
M  V30 3517 C 329.627 -4.64423 -4.29528 0
M  V30 3518 C 328.291 -5.03857 -4.37818 0
M  V30 3519 H 327.561 -0.225634 -0.705812 0
M  V30 3520 H 330.208 -1.20921 -1.48493 0
M  V30 3521 H 328.513 -0.252195 -3.90987 0
M  V30 3522 H 330.21 -0.6405 -3.95852 0
M  V30 3523 H 326.8 -2.06013 -3.75841 0
M  V30 3524 H 330.984 -3.02488 -3.93465 0
M  V30 3525 H 326.24 -4.40467 -4.24027 0
M  V30 3526 H 330.414 -5.37369 -4.42953 0
M  V30 3527 H 328.041 -6.06843 -4.57871 0
M  V30 3528 N 329.616 1.39756 -0.72842 0
M  V30 3529 C 330.564 2.32485 -0.0731849 0
M  V30 3530 C 331.558 1.52717 0.733063 0
M  V30 3531 O 332.764 1.68428 0.634988 0
M  V30 3532 H 329.139 0.751984 -0.00486469 0
M  V30 3533 H 331.11 2.85382 -0.871761 0
M  V30 3534 C 329.859 3.37773 0.824908 0
M  V30 3535 H 329.182 3.99227 0.213915 0
M  V30 3536 H 330.622 4.05121 1.25111 0
M  V30 3537 C 329.081 2.74287 1.95622 0
M  V30 3538 O 329.611 2.61618 3.04826 0
M  V30 3539 N 327.817 2.32475 1.74367 0
M  V30 3540 H 327.364 2.4298 0.855494 0
M  V30 3541 H 327.322 1.90337 2.50238 0
M  V30 3542 N 331.094 0.475555 1.50254 0
M  V30 3543 C 332.343 -0.0795996 2.01543 0
M  V30 3544 C 332.656 -1.4038 1.36209 0
M  V30 3545 O 333.862 -2.04415 1.7868 0
M  V30 3546 C 332.318 -0.192363 3.59386 0
M  V30 3547 C 331.926 1.12367 4.33679 0
M  V30 3548 C 333.67 -0.699238 4.18701 0
M  V30 3549 C 331.577 0.974453 5.83317 0
M  V30 3550 H 330.507 -0.0335228 0.753254 0
M  V30 3551 H 333.158 0.611128 1.73025 0
M  V30 3552 H 331.54 -0.946974 3.84511 0
M  V30 3553 H 332.714 1.88958 4.20276 0
M  V30 3554 H 331.029 1.562 3.85993 0
M  V30 3555 H 333.626 -0.827978 5.28251 0
M  V30 3556 H 333.969 -1.69171 3.80377 0
M  V30 3557 H 334.502 -0.00188807 3.978 0
M  V30 3558 H 331.241 1.94042 6.26121 0
M  V30 3559 H 330.761 0.248998 5.99283 0
M  V30 3560 H 332.44 0.642867 6.43798 0
M  V30 3561 N 332.573 -1.56217 0.208337 0
M  V30 3562 C 333.536 -2.18455 -0.693557 0
M  V30 3563 C 334.536 -1.14268 -1.13135 0
M  V30 3564 O 335.726 -1.39577 -1.0423 0
M  V30 3565 C 332.858 -2.79727 -1.94848 0
M  V30 3566 H 334.051 -2.99519 -0.15114 0
M  V30 3567 H 331.604 -1.56245 -0.041287 0
M  V30 3568 H 332.339 -2.02497 -2.53309 0
M  V30 3569 H 332.124 -3.56009 -1.64316 0
M  V30 3570 H 333.614 -3.27475 -2.59133 0
M  V30 3571 N 334.051 0.0651679 -1.57465 0
M  V30 3572 C 335.276 0.779605 -1.9219 0
M  V30 3573 C 335.701 1.69988 -0.805333 0
M  V30 3574 O 335.059 1.79685 0.241435 0
M  V30 3575 C 335.107 1.54364 -3.2589 0
M  V30 3576 O 334.211 2.65474 -3.1559 0
M  V30 3577 H 333.552 0.212249 -0.629163 0
M  V30 3578 H 336.082 0.0314294 -2.04576 0
M  V30 3579 H 336.092 1.92146 -3.59922 0
M  V30 3580 H 334.767 0.868457 -4.06732 0
M  V30 3581 H 333.344 2.30501 -2.93128 0
M  V30 3582 N 335.529 1.53961 0.336706 0
M  V30 3583 C 336.759 1.75229 1.09446 0
M  V30 3584 C 337.167 0.494602 1.82621 0
M  V30 3585 O 336.51 -0.543764 1.75468 0
M  V30 3586 C 336.572 2.88288 2.1478 0
M  V30 3587 C 336.236 4.27656 1.6112 0
M  V30 3588 C 337.233 5.08981 1.0599 0
M  V30 3589 C 334.918 4.74161 1.6576 0
M  V30 3590 C 336.912 6.34916 0.562129 0
M  V30 3591 C 334.599 6.00067 1.15595 0
M  V30 3592 C 335.597 6.80278 0.609147 0
M  V30 3593 O 335.285 8.03818 0.114999 0
M  V30 3594 H 335.017 0.588881 0.331956 0
M  V30 3595 H 337.571 2.01614 0.392566 0
M  V30 3596 H 335.801 2.57443 2.88548 0
M  V30 3597 H 337.49 2.97461 2.76174 0
M  V30 3598 H 338.256 4.74213 1.01722 0
M  V30 3599 H 334.135 4.11781 2.07261 0
M  V30 3600 H 337.679 6.9747 0.134668 0
M  V30 3601 H 333.576 6.3433 1.19566 0
M  V30 3602 H 334.344 8.18172 0.231651 0
M  V30 3603 N 337.007 -0.598083 1.45811 0
M  V30 3604 C 337.97 -1.69018 1.54808 0
M  V30 3605 C 338.97 -1.55037 0.426652 0
M  V30 3606 O 340.16 -1.59932 0.690456 0
M  V30 3607 C 337.292 -3.0835 1.45371 0
M  V30 3608 H 338.485 -1.62403 2.52121 0
M  V30 3609 H 336.038 -0.814626 1.33392 0
M  V30 3610 H 336.773 -3.20534 0.492793 0
M  V30 3611 H 336.558 -3.19907 2.26721 0
M  V30 3612 H 338.048 -3.8788 1.54721 0
M  V30 3613 N 338.485 -1.33259 -0.841409 0
M  V30 3614 C 339.415 -1.25926 -1.96634 0
M  V30 3615 C 340.396 -0.140349 -1.6952 0
M  V30 3616 O 341.581 -0.329707 -1.91381 0
M  V30 3617 C 338.711 -0.99512 -3.32738 0
M  V30 3618 C 337.665 -2.0767 -3.74242 0
M  V30 3619 C 336.991 -1.66474 -5.08125 0
M  V30 3620 C 338.291 -3.49318 -3.88297 0
M  V30 3621 H 339.985 -2.20046 -2.03027 0
M  V30 3622 H 337.531 -1.05931 -0.975425 0
M  V30 3623 H 339.484 -0.930323 -4.11002 0
M  V30 3624 H 338.208 -0.0183004 -3.26595 0
M  V30 3625 H 336.867 -2.13187 -2.98239 0
M  V30 3626 H 336.515 -0.675012 -4.9845 0
M  V30 3627 H 336.215 -2.3885 -5.36865 0
M  V30 3628 H 337.739 -1.61455 -5.88867 0
M  V30 3629 H 339.153 -3.46316 -4.56879 0
M  V30 3630 H 337.55 -4.20158 -4.28471 0
M  V30 3631 H 338.62 -3.8801 -2.9082 0
M  V30 3632 N 339.963 1.05934 -1.16686 0
M  V30 3633 C 340.893 2.1546 -0.899949 0
M  V30 3634 C 341.874 1.69391 0.155154 0
M  V30 3635 O 343.059 1.94199 0.00648693 0
M  V30 3636 C 340.189 3.44939 -0.404241 0
M  V30 3637 C 339.143 4.04536 -1.39767 0
M  V30 3638 C 338.469 5.29268 -0.760216 0
M  V30 3639 C 339.769 4.42893 -2.76845 0
M  V30 3640 H 341.463 2.38046 -1.81588 0
M  V30 3641 H 339.009 1.14404 -0.874514 0
M  V30 3642 H 340.962 4.20901 -0.204971 0
M  V30 3643 H 339.686 3.21983 0.547206 0
M  V30 3644 H 338.345 3.30635 -1.58355 0
M  V30 3645 H 337.993 5.02611 0.197831 0
M  V30 3646 H 337.693 5.70101 -1.42332 0
M  V30 3647 H 339.217 6.07924 -0.57105 0
M  V30 3648 H 340.631 5.09921 -2.62019 0
M  V30 3649 H 339.028 4.94721 -3.39663 0
M  V30 3650 H 340.098 3.53584 -3.31823 0
M  V30 3651 N 341.441 0.965919 1.2453 0
M  V30 3652 C 342.669 0.644385 1.96609 0
M  V30 3653 C 343.084 -0.785823 1.71669 0
M  V30 3654 O 342.441 -1.52703 0.999399 0
M  V30 3655 C 342.492 0.907375 3.49927 0
M  V30 3656 O 342.213 2.28136 3.74013 0
M  V30 3657 C 343.714 0.599784 4.39224 0
M  V30 3658 H 340.934 0.240588 0.626385 0
M  V30 3659 H 343.478 1.29337 1.58405 0
M  V30 3660 H 341.633 0.304631 3.862 0
M  V30 3661 H 342.047 2.36002 4.68405 0
M  V30 3662 H 343.521 0.834263 5.45659 0
M  V30 3663 H 343.998 -0.465921 4.36722 0
M  V30 3664 H 344.604 1.18235 4.08535 0
M  V30 3665 N 342.919 -1.39368 0.735821 0
M  V30 3666 C 343.866 -2.30599 0.0963825 0
M  V30 3667 C 344.836 -1.49257 -0.728794 0
M  V30 3668 O 346.021 -1.77941 -0.688588 0
M  V30 3669 C 343.161 -3.35596 -0.804305 0
M  V30 3670 C 342.274 -4.31987 0.0335761 0
M  V30 3671 C 341.409 -5.24053 -0.868461 0
M  V30 3672 C 340.448 -6.12095 -0.0258776 0
M  V30 3673 N 339.585 -6.96514 -0.883893 0
M  V30 3674 H 344.425 -2.8471 0.880002 0
M  V30 3675 H 341.962 -1.40188 0.445619 0
M  V30 3676 H 343.92 -3.95062 -1.34096 0
M  V30 3677 H 342.55 -2.82938 -1.55389 0
M  V30 3678 H 341.602 -3.74133 0.68766 0
M  V30 3679 H 342.914 -4.94074 0.685036 0
M  V30 3680 H 342.068 -5.88549 -1.47293 0
M  V30 3681 H 340.807 -4.62289 -1.5537 0
M  V30 3682 H 339.812 -5.4661 0.591386 0
M  V30 3683 H 341.037 -6.75923 0.656156 0
M  V30 3684 H 338.983 -6.37318 -1.55441 0
M  V30 3685 H 338.9 -7.55448 -0.288931 0
M  V30 3686 H 340.168 -7.65439 -1.4739 0
M  V30 3687 N 344.397 -0.483516 -1.5 0
M  V30 3688 C 345.33 0.350427 -2.25493 0
M  V30 3689 C 346.308 0.985549 -1.29328 0
M  V30 3690 O 347.492 1.01906 -1.58579 0
M  V30 3691 C 344.619 1.49202 -3.04066 0
M  V30 3692 C 343.665 0.973036 -4.15252 0
M  V30 3693 S 344.498 -0.122237 -5.3536 0
M  V30 3694 C 345.654 1.02294 -6.17484 0
M  V30 3695 H 345.887 -0.290381 -2.95878 0
M  V30 3696 H 343.42 -0.268562 -1.52046 0
M  V30 3697 H 345.378 2.14623 -3.49925 0
M  V30 3698 H 344.039 2.10438 -2.33183 0
M  V30 3699 H 343.232 1.82804 -4.69679 0
M  V30 3700 H 342.834 0.396335 -3.71894 0
M  V30 3701 H 345.126 1.93195 -6.49371 0
M  V30 3702 H 346.069 0.517664 -7.06205 0
M  V30 3703 H 346.477 1.28238 -5.49741 0
M  V30 3704 N 345.875 1.56104 -0.216619 0
M  V30 3705 C 347.124 1.97348 0.416744 0
M  V30 3706 C 347.437 1.10715 1.6125 0
M  V30 3707 O 348.643 1.41836 2.31506 0
M  V30 3708 C 347.099 3.51059 0.792835 0
M  V30 3709 C 346.707 4.46387 -0.379828 0
M  V30 3710 C 348.451 4.01026 1.39208 0
M  V30 3711 C 346.358 5.91397 0.0184223 0
M  V30 3712 H 345.288 0.736942 0.159475 0
M  V30 3713 H 347.939 1.80827 -0.31205 0
M  V30 3714 H 346.321 3.63162 1.57891 0
M  V30 3715 H 347.495 4.46029 -1.15737 0
M  V30 3716 H 345.81 4.06734 -0.891979 0
M  V30 3717 H 348.407 5.0686 1.70286 0
M  V30 3718 H 348.75 3.46587 2.30614 0
M  V30 3719 H 349.283 3.92125 0.669537 0
M  V30 3720 H 346.022 6.49807 -0.862002 0
M  V30 3721 H 345.542 5.94961 0.760384 0
M  V30 3722 H 347.221 6.45455 0.446818 0
M  V30 3723 N 347.353 -0.0568162 1.57498 0
M  V30 3724 C 348.316 -1.05038 2.03715 0
M  V30 3725 C 349.316 -1.30709 0.936577 0
M  V30 3726 O 350.506 -1.26178 1.20103 0
M  V30 3727 C 347.638 -2.39034 2.43055 0
M  V30 3728 H 348.831 -0.651715 2.92733 0
M  V30 3729 H 346.384 -0.302947 1.53336 0
M  V30 3730 H 347.119 -2.83703 1.57108 0
M  V30 3731 H 346.904 -2.21739 3.2338 0
M  V30 3732 H 348.394 -3.10421 2.79336 0
M  V30 3733 N 348.832 -1.54138 -0.328536 0
M  V30 3734 C 349.782 -1.79557 -1.4051 0
M  V30 3735 C 350.766 -0.651373 -1.47126 0
M  V30 3736 O 351.958 -0.911226 -1.51742 0
M  V30 3737 C 349.087 -2.02196 -2.77438 0
M  V30 3738 C 348.173 -3.22724 -2.75155 0
M  V30 3739 N 348.564 -4.43881 -2.42494 0
M  V30 3740 C 346.862 -3.24196 -3.06289 0
M  V30 3741 C 347.563 -5.25797 -2.48822 0
M  V30 3742 N 346.539 -4.62862 -2.8506 0
M  V30 3743 H 350.341 -2.70814 -1.1418 0
M  V30 3744 H 347.855 -1.53265 -0.536991 0
M  V30 3745 H 349.852 -2.18546 -3.55026 0
M  V30 3746 H 348.512 -1.12191 -3.04702 0
M  V30 3747 H 349.523 -4.70969 -2.15428 0
M  V30 3748 H 346.2 -2.44208 -3.38627 0
M  V30 3749 H 347.59 -6.32535 -2.26603 0
M  V30 3750 N 350.31 0.590341 -1.46126 0
M  V30 3751 C 351.556 1.35082 -1.51264 0
M  V30 3752 C 351.889 1.93534 -0.160711 0
M  V30 3753 O 351.164 1.76045 0.826956 0
M  V30 3754 C 351.447 2.48588 -2.6053 0
M  V30 3755 C 351.3 1.95221 -4.05227 0
M  V30 3756 C 352.619 3.50662 -2.6594 0
M  V30 3757 H 349.738 0.489803 -0.550692 0
M  V30 3758 H 352.38 0.663887 -1.78024 0
M  V30 3759 H 350.53 3.07186 -2.37843 0
M  V30 3760 H 352.202 1.41139 -4.39178 0
M  V30 3761 H 350.445 1.26101 -4.15068 0
M  V30 3762 H 351.116 2.77121 -4.77397 0
M  V30 3763 H 353.592 3.01934 -2.86313 0
M  V30 3764 H 352.468 4.27551 -3.44226 0
M  V30 3765 H 352.729 4.07399 -1.71694 0
M  V30 3766 N 351.788 1.33704 0.83433 0
M  V30 3767 C 353.034 1.25603 1.59222 0
M  V30 3768 C 353.367 -0.176659 1.93395 0
M  V30 3769 O 352.642 -1.11915 1.59076 0
M  V30 3770 C 352.925 2.13576 2.89926 0
M  V30 3771 C 352.778 3.65326 2.62406 0
M  V30 3772 C 354.097 2.01238 3.91397 0
M  V30 3773 H 351.216 0.457613 0.577719 0
M  V30 3774 H 353.858 1.63848 0.961972 0
M  V30 3775 H 352.008 1.8109 3.43713 0
M  V30 3776 H 353.68 4.08124 2.15017 0
M  V30 3777 H 351.923 3.8698 1.96033 0
M  V30 3778 H 352.594 4.22232 3.55562 0
M  V30 3779 H 355.07 2.29738 3.46929 0
M  V30 3780 H 353.946 2.65036 4.80673 0
M  V30 3781 H 354.207 0.985951 4.30966 0
M  V30 3782 N 353.266 -1.05314 1.17247 0
M  V30 3783 C 354.543 -1.75184 0.87005 0
M  V30 3784 C 354.923 -2.01481 -0.629965 0
M  V30 3785 O 354.271 -1.64988 -1.58086 0
M  V30 3786 C 354.481 -3.04594 1.70363 0
M  V30 3787 C 355.829 -3.78567 1.92281 0
M  V30 3788 O 356.853 -3.14461 1.67311 0
M  V30 3789 O 355.712 -4.93755 2.3424 0
M  V30 3790 H 352.806 -0.761729 0.322021 0
M  V30 3791 H 355.352 -1.11493 1.27935 0
M  V30 3792 H 354.124 -2.81201 2.72106 0
M  V30 3793 H 353.747 -3.76022 1.29202 0
M  V30 3794 N 354.744 -0.972509 -1.24016 0
M  V30 3795 C 355.677 -0.45117 -2.23696 0
M  V30 3796 C 356.655 0.477378 -1.55434 0
M  V30 3797 O 357.839 0.407647 -1.84039 0
M  V30 3798 C 354.966 0.34818 -3.36906 0
M  V30 3799 C 354.012 -0.523355 -4.23277 0
M  V30 3800 S 354.845 -1.96647 -4.98087 0
M  V30 3801 C 356.001 -1.17604 -6.14752 0
M  V30 3802 H 356.234 -1.29588 -2.67571 0
M  V30 3803 H 353.767 -0.777903 -1.33372 0
M  V30 3804 H 355.725 0.803387 -4.02562 0
M  V30 3805 H 354.386 1.16792 -2.91579 0
M  V30 3806 H 353.579 0.0906181 -5.03919 0
M  V30 3807 H 353.181 -0.914485 -3.62647 0
M  V30 3808 H 355.473 -0.433434 -6.76112 0
M  V30 3809 H 356.416 -1.95701 -6.8052 0
M  V30 3810 H 356.824 -0.698295 -5.60164 0
M  V30 3811 N 356.222 1.38976 -0.743202 0
M  V30 3812 C 357.499 1.94351 -0.220705 0
M  V30 3813 C 357.879 1.67935 1.2791 0
M  V30 3814 O 357.227 1.01211 2.04862 0
M  V30 3815 C 357.437 3.44426 -0.563171 0
M  V30 3816 C 358.785 4.2144 -0.517046 0
M  V30 3817 O 359.809 3.52661 -0.500846 0
M  V30 3818 O 358.668 5.44032 -0.518806 0
M  V30 3819 H 355.762 0.825879 -0.043047 0
M  V30 3820 H 358.308 1.48429 -0.822618 0
M  V30 3821 H 357.08 3.5712 -1.59941 0
M  V30 3822 H 356.703 3.97543 0.0672883 0
M  V30 3823 N 357.7 0.491464 1.49741 0
M  V30 3824 C 358.94 -0.0549118 2.04326 0
M  V30 3825 C 359.304 -1.35148 1.36378 0
M  V30 3826 O 360.505 -1.9815 1.81631 0
M  V30 3827 C 358.776 -0.213841 3.5676 0
M  V30 3828 S 360.335 -0.715839 4.32922 0
M  V30 3829 H 357.153 -0.00630513 0.710972 0
M  V30 3830 H 359.755 0.663257 1.83905 0
M  V30 3831 H 358.459 0.73527 4.0376 0
M  V30 3832 H 357.99 -0.957529 3.81569 0
M  V30 3833 H 360.005 -1.9864 4.54705 0
M  V30 3834 N 359.178 -1.55987 0.224894 0
M  V30 3835 C 360.426 -1.97998 -0.405099 0
M  V30 3836 C 360.747 -1.11387 -1.60056 0
M  V30 3837 O 360.017 -0.191645 -1.9496 0
M  V30 3838 H 358.597 -0.731235 -0.152658 0
M  V30 3839 H 361.259 -1.92279 0.318567 0
M  V30 3840 H 360.355 -3.03463 -0.729167 0
M  V30 3841 N 360.656 0.0484629 -1.57525 0
M  V30 3842 C 361.566 1.07241 -2.08654 0
M  V30 3843 C 362.582 1.409 -1.02095 0
M  V30 3844 O 363.758 1.50609 -1.33712 0
M  V30 3845 C 360.823 2.36008 -2.5397 0
M  V30 3846 C 359.884 2.09108 -3.7493 0
M  V30 3847 C 359.117 3.31736 -4.18075 0
M  V30 3848 O 359.34 4.41714 -3.60895 0
M  V30 3849 O 358.274 3.18576 -5.10679 0
M  V30 3850 H 362.1 0.667965 -2.96263 0
M  V30 3851 H 359.685 0.26417 -1.47046 0
M  V30 3852 H 361.567 3.11747 -2.83535 0
M  V30 3853 H 360.242 2.75786 -1.69481 0
M  V30 3854 H 359.149 1.31 -3.50414 0
M  V30 3855 H 360.482 1.74198 -4.60343 0
M  V30 3856 N 362.134 1.5431 0.320358 0
M  V30 3857 C 363.381 1.72668 1.05792 0
M  V30 3858 C 363.709 0.502084 1.87908 0
M  V30 3859 O 362.964 -0.516149 1.88771 0
M  V30 3860 C 363.263 2.95639 2.00828 0
M  V30 3861 C 362.929 4.30265 1.34843 0
M  V30 3862 C 361.591 4.66865 1.16578 0
M  V30 3863 C 363.943 5.13801 0.875095 0
M  V30 3864 C 361.271 5.84597 0.496336 0
M  V30 3865 C 363.623 6.32219 0.219463 0
M  V30 3866 C 362.287 6.67495 0.0246915 0
M  V30 3867 H 361.557 0.631837 0.387121 0
M  V30 3868 H 364.204 1.88552 0.334735 0
M  V30 3869 H 362.509 2.74456 2.79609 0
M  V30 3870 H 364.206 3.07038 2.57932 0
M  V30 3871 H 360.796 4.01472 1.50061 0
M  V30 3872 H 364.98 4.86039 1.00398 0
M  V30 3873 H 360.236 6.10486 0.334264 0
M  V30 3874 H 364.41 6.96227 -0.155291 0
M  V30 3875 H 362.037 7.5858 -0.496065 0
M  V30 3876 N 363.613 -0.582584 1.46437 0
M  V30 3877 C 364.862 -1.337 1.5102 0
M  V30 3878 C 365.175 -1.94891 0.166359 0
M  V30 3879 O 366.381 -2.71351 0.0899954 0
M  V30 3880 C 364.837 -2.42315 2.66104 0
M  V30 3881 C 364.445 -1.87427 4.06909 0
M  V30 3882 C 366.189 -3.19099 2.79958 0
M  V30 3883 C 364.096 -2.93672 5.13333 0
M  V30 3884 H 363.026 -0.502619 0.562041 0
M  V30 3885 H 365.677 -0.621701 1.72647 0
M  V30 3886 H 364.059 -3.16645 2.37807 0
M  V30 3887 H 365.233 -1.19639 4.44998 0
M  V30 3888 H 363.548 -1.2331 3.97723 0
M  V30 3889 H 366.145 -3.9839 3.56636 0
M  V30 3890 H 366.488 -3.71695 1.87479 0
M  V30 3891 H 367.021 -2.51875 3.07902 0
M  V30 3892 H 363.76 -2.45962 6.07604 0
M  V30 3893 H 363.28 -3.59948 4.79789 0
M  V30 3894 H 364.959 -3.5762 5.39182 0
M  V30 3895 N 365.091 -1.34144 -0.827227 0
M  V30 3896 C 366.041 -1.21923 -1.92663 0
M  V30 3897 C 367.025 -0.119294 -1.60457 0
M  V30 3898 O 368.217 -0.348539 -1.73534 0
M  V30 3899 C 365.346 -0.972492 -3.29238 0
M  V30 3900 C 364.432 -2.1154 -3.67576 0
M  V30 3901 N 364.823 -3.36627 -3.77512 0
M  V30 3902 C 363.121 -2.02468 -3.97395 0
M  V30 3903 C 363.822 -4.11658 -4.1099 0
M  V30 3904 N 362.798 -3.40207 -4.23981 0
M  V30 3905 H 366.6 -2.16721 -1.98517 0
M  V30 3906 H 364.114 -1.2632 -1.02064 0
M  V30 3907 H 366.111 -0.865847 -4.0781 0
M  V30 3908 H 364.771 -0.0331509 -3.24683 0
M  V30 3909 H 365.782 -3.71234 -3.61118 0
M  V30 3910 H 362.459 -1.16265 -4.00985 0
M  V30 3911 H 363.849 -5.19657 -4.25918 0
M  V30 3912 N 366.569 1.04691 -1.17803 0
M  V30 3913 C 367.797 1.81446 -0.99423 0
M  V30 3914 C 368.212 1.83174 0.457459 0
M  V30 3915 O 367.569 1.26265 1.31771 0
M  V30 3916 C 367.62 3.27334 -1.5341 0
M  V30 3917 O 367.341 3.25798 -2.92895 0
M  V30 3918 C 368.842 4.20759 -1.39559 0
M  V30 3919 H 366.062 0.571599 -0.351447 0
M  V30 3920 H 368.606 1.31982 -1.56208 0
M  V30 3921 H 366.761 3.74052 -1.00815 0
M  V30 3922 H 367.175 4.17144 -3.17949 0
M  V30 3923 H 368.649 5.21084 -1.82141 0
M  V30 3924 H 369.126 4.37856 -0.343394 0
M  V30 3925 H 369.732 3.79901 -1.91195 0
M  V30 3926 N 368.047 0.979072 1.23499 0
M  V30 3927 C 368.977 0.537606 2.27227 0
M  V30 3928 C 369.958 -0.428539 1.64613 0
M  V30 3929 O 371.143 -0.322191 1.91509 0
M  V30 3930 C 368.273 -0.162052 3.46922 0
M  V30 3931 C 367.227 0.721242 4.21879 0
M  V30 3932 C 366.553 -0.110555 5.34586 0
M  V30 3933 C 367.853 2.01141 4.82016 0
M  V30 3934 H 369.547 1.40462 2.64406 0
M  V30 3935 H 367.093 0.67684 1.27102 0
M  V30 3936 H 369.046 -0.482192 4.18632 0
M  V30 3937 H 367.77 -1.06351 3.08799 0
M  V30 3938 H 366.429 1.02482 3.51984 0
M  V30 3939 H 366.077 -1.0125 4.92704 0
M  V30 3940 H 365.777 0.477325 5.85658 0
M  V30 3941 H 367.301 -0.425107 6.09118 0
M  V30 3942 H 368.715 1.75612 5.45741 0
M  V30 3943 H 367.112 2.54695 5.43369 0
M  V30 3944 H 368.182 2.69909 4.02836 0
M  V30 3945 N 369.525 -1.3858 0.750561 0
M  V30 3946 C 370.773 -1.99789 0.30477 0
M  V30 3947 C 371.094 -1.59874 -1.11649 0
M  V30 3948 O 370.364 -0.85417 -1.76297 0
M  V30 3949 H 368.944 -0.738902 0.109694 0
M  V30 3950 H 371.606 -1.69391 0.963983 0
M  V30 3951 H 370.702 -3.09952 0.365499 0
M  V30 3952 N 371.003 -0.499398 -1.49478 0
M  V30 3953 C 372.28 0.108629 -1.95298 0
M  V30 3954 C 372.66 1.54282 -1.44084 0
M  V30 3955 O 372.008 2.18944 -0.653908 0
M  V30 3956 C 372.218 0.0229111 -3.48992 0
M  V30 3957 C 373.566 0.197643 -4.2414 0
M  V30 3958 O 374.59 0.0981735 -3.56065 0
M  V30 3959 O 373.449 0.401669 -5.45022 0
M  V30 3960 H 370.543 0.096181 -0.821388 0
M  V30 3961 H 373.089 -0.561822 -1.6013 0
M  V30 3962 H 371.861 -0.977321 -3.78899 0
M  V30 3963 H 371.484 0.733579 -3.90774 0
M  V30 3964 N 372.481 1.55866 -0.233164 0
M  V30 3965 C 373.444 2.1953 0.658715 0
M  V30 3966 C 374.444 1.16053 1.11303 0
M  V30 3967 O 375.634 1.41218 1.01996 0
M  V30 3968 C 372.766 2.82791 1.90373 0
M  V30 3969 H 373.959 2.99721 0.10347 0
M  V30 3970 H 371.512 1.56291 0.0164245 0
M  V30 3971 H 372.247 2.06501 2.50056 0
M  V30 3972 H 372.032 3.58578 1.58632 0
M  V30 3973 H 373.522 3.31556 2.53891 0
M  V30 3974 N 373.959 -0.0401083 1.57549 0
M  V30 3975 C 374.909 -1.05175 2.02292 0
M  V30 3976 C 375.893 -1.32674 0.910294 0
M  V30 3977 O 377.085 -1.32444 1.17421 0
M  V30 3978 C 374.214 -2.35622 2.49674 0
M  V30 3979 C 373.3 -2.11261 3.67736 0
M  V30 3980 N 373.691 -1.56923 4.80842 0
M  V30 3981 C 371.989 -2.41596 3.74897 0
M  V30 3982 C 372.69 -1.48111 5.62528 0
M  V30 3983 N 371.666 -1.95282 5.07312 0
M  V30 3984 H 375.468 -0.625455 2.87168 0
M  V30 3985 H 372.982 -0.246624 1.60516 0
M  V30 3986 H 374.979 -3.08893 2.79983 0
M  V30 3987 H 373.639 -2.7894 1.662 0
M  V30 3988 H 374.65 -1.25345 5.02503 0
M  V30 3989 H 371.327 -2.88064 3.02201 0
M  V30 3990 H 372.717 -1.06683 6.63377 0
M  V30 3991 N 375.437 -1.54477 -0.31217 0
M  V30 3992 C 376.683 -1.73483 -1.0503 0
M  V30 3993 C 377.016 -0.513125 -1.87298 0
M  V30 3994 O 376.291 0.489864 -1.8823 0
M  V30 3995 C 376.574 -3.01723 -1.96558 0
M  V30 3996 C 376.427 -4.3417 -1.17545 0
M  V30 3997 C 377.746 -3.25772 -2.95907 0
M  V30 3998 H 374.865 -0.631222 -0.380432 0
M  V30 3999 H 377.507 -1.87184 -0.325932 0
M  V30 4000 H 375.657 -2.90174 -2.58324 0
M  V30 4001 H 377.329 -4.5762 -0.581513 0
M  V30 4002 H 375.572 -4.31159 -0.477925 0
M  V30 4003 H 376.243 -5.20143 -1.84811 0
M  V30 4004 H 378.719 -3.36857 -2.44267 0
M  V30 4005 H 377.595 -4.16838 -3.57123 0
M  V30 4006 H 377.856 -2.43537 -3.68974 0
M  V30 4007 N 376.915 0.57481 -1.46744 0
M  V30 4008 C 378.145 1.35659 -1.55821 0
M  V30 4009 C 378.553 1.88129 -0.201036 0
M  V30 4010 O 377.896 1.64723 0.813134 0
M  V30 4011 C 377.958 2.57473 -2.50894 0
M  V30 4012 C 377.622 2.26415 -3.9697 0
M  V30 4013 C 378.619 1.84771 -4.85958 0
M  V30 4014 C 376.304 2.38316 -4.42166 0
M  V30 4015 C 378.298 1.55434 -6.18158 0
M  V30 4016 C 375.985 2.08591 -5.74398 0
M  V30 4017 C 376.983 1.67216 -6.62214 0
M  V30 4018 O 376.671 1.37859 -7.91991 0
M  V30 4019 H 376.403 0.420496 -0.529301 0
M  V30 4020 H 378.957 0.704967 -1.92923 0
M  V30 4021 H 377.187 3.25468 -2.08824 0
M  V30 4022 H 378.876 3.19546 -2.50291 0
M  V30 4023 H 379.642 1.75085 -4.52295 0
M  V30 4024 H 375.521 2.69483 -3.74032 0
M  V30 4025 H 379.065 1.23065 -6.86659 0
M  V30 4026 H 374.962 2.17905 -6.07608 0
M  V30 4027 H 375.73 1.51638 -8.04331 0
M  V30 4028 N 378.394 1.34581 0.820102 0
M  V30 4029 C 379.324 1.29038 1.94606 0
M  V30 4030 C 380.305 0.1673 1.69275 0
M  V30 4031 O 381.49 0.360112 1.90832 0
M  V30 4032 C 378.62 1.04793 3.31113 0
M  V30 4033 C 377.574 2.13597 3.70891 0
M  V30 4034 C 376.9 1.74537 5.05412 0
M  V30 4035 C 378.2 3.55451 3.8269 0
M  V30 4036 H 379.894 2.23248 1.99501 0
M  V30 4037 H 377.44 1.0747 0.958449 0
M  V30 4038 H 379.393 0.995592 4.0947 0
M  V30 4039 H 378.117 0.0702565 3.26524 0
M  V30 4040 H 376.776 2.17905 2.9481 0
M  V30 4041 H 376.424 0.754226 4.97313 0
M  V30 4042 H 376.124 2.47361 5.32997 0
M  V30 4043 H 377.648 1.70803 5.86224 0
M  V30 4044 H 379.062 3.5354 4.51312 0
M  V30 4045 H 377.459 4.26922 4.21732 0
M  V30 4046 H 378.529 3.92587 2.84611 0
M  V30 4047 N 379.872 -1.04064 1.18357 0
M  V30 4048 C 381.149 -1.74252 0.888581 0
M  V30 4049 C 381.529 -2.02138 -0.60856 0
M  V30 4050 O 380.877 -1.66656 -1.56327 0
M  V30 4051 C 381.087 -3.0277 1.73584 0
M  V30 4052 C 382.435 -3.76506 1.96286 0
M  V30 4053 O 383.459 -3.12668 1.70637 0
M  V30 4054 O 382.318 -4.91243 2.39464 0
M  V30 4055 H 379.412 -0.758271 0.330082 0
M  V30 4056 H 381.958 -1.1013 1.2911 0
M  V30 4057 H 380.73 -2.78299 2.75073 0
M  V30 4058 H 380.353 -3.74631 1.33183 0
M  V30 4059 N 381.35 -0.985608 -1.22978 0
M  V30 4060 C 382.3 -0.50118 -2.22423 0
M  V30 4061 C 383.284 0.426649 -1.5514 0
M  V30 4062 O 384.476 0.254656 -1.75159 0
M  V30 4063 C 381.605 0.190003 -3.42774 0
M  V30 4064 C 380.691 -0.757703 -4.17276 0
M  V30 4065 N 381.082 -1.90251 -4.68656 0
M  V30 4066 C 379.38 -0.57209 -4.42316 0
M  V30 4067 C 380.081 -2.49676 -5.25392 0
M  V30 4068 N 379.057 -1.78013 -5.13627 0
M  V30 4069 H 382.859 -1.37441 -2.59783 0
M  V30 4070 H 380.373 -0.846941 -1.38567 0
M  V30 4071 H 382.37 0.55439 -4.13197 0
M  V30 4072 H 381.03 1.05946 -3.06929 0
M  V30 4073 H 382.041 -2.28354 -4.64839 0
M  V30 4074 H 378.718 0.251909 -4.16739 0
M  V30 4075 H 380.108 -3.46384 -5.75732 0
M  V30 4076 N 382.828 1.3818 -0.7579 0
M  V30 4077 C 384.077 1.99261 -0.312744 0
M  V30 4078 C 384.39 1.60846 1.11301 0
M  V30 4079 O 385.596 2.14929 1.65885 0
M  V30 4080 C 384.052 3.56294 -0.50821 0
M  V30 4081 C 383.66 4.03657 -1.94333 0
M  V30 4082 C 385.404 4.24313 -0.125982 0
M  V30 4083 C 383.311 5.53347 -2.08712 0
M  V30 4084 H 382.241 0.745456 -0.113185 0
M  V30 4085 H 384.892 1.57889 -0.935056 0
M  V30 4086 H 383.274 3.95575 0.183353 0
M  V30 4087 H 384.448 3.75655 -2.66871 0
M  V30 4088 H 382.763 3.48376 -2.28086 0
M  V30 4089 H 385.36 5.34279 -0.212125 0
M  V30 4090 H 385.703 4.05962 0.921964 0
M  V30 4091 H 386.236 3.90285 -0.769563 0
M  V30 4092 H 382.975 5.76607 -3.11777 0
M  V30 4093 H 382.495 5.83078 -1.4064 0
M  V30 4094 H 384.174 6.19111 -1.87912 0
M  V30 4095 N 384.306 0.507319 1.49211 0
M  V30 4096 C 385.583 -0.0982702 1.95353 0
M  V30 4097 C 385.963 -1.53516 1.449 0
M  V30 4098 O 385.311 -2.18594 0.66551 0
M  V30 4099 C 385.521 -0.00440283 3.49 0
M  V30 4100 C 386.869 -0.175147 4.24239 0
M  V30 4101 O 387.893 -0.0792891 3.56112 0
M  V30 4102 O 386.752 -0.37276 5.45227 0
M  V30 4103 H 383.846 -0.0918236 0.821887 0
M  V30 4104 H 386.392 0.570307 1.5983 0
M  V30 4105 H 385.164 0.997402 3.78375 0
M  V30 4106 H 384.787 -0.712845 3.91158 0
M  V30 4107 N 385.784 -1.5574 0.241426 0
M  V30 4108 C 386.747 -2.19877 -0.647063 0
M  V30 4109 C 387.747 -1.16642 -1.10686 0
M  V30 4110 O 388.937 -1.41757 -1.01245 0
M  V30 4111 C 386.069 -2.83797 -1.88871 0
M  V30 4112 H 387.262 -2.99772 -0.087574 0
M  V30 4113 H 384.815 -1.56298 -0.00813574 0
M  V30 4114 H 385.55 -2.07824 -2.48957 0
M  V30 4115 H 385.335 -3.59414 -1.56728 0
M  V30 4116 H 386.825 -3.32898 -2.52129 0
M  V30 4117 N 387.262 0.0317525 -1.57568 0
M  V30 4118 C 388.192 1.03274 -2.0942 0
M  V30 4119 C 389.173 1.3788 -0.996143 0
M  V30 4120 O 390.358 1.46811 -1.27122 0
M  V30 4121 C 387.488 2.33448 -2.57137 0
M  V30 4122 C 386.442 2.13091 -3.71182 0
M  V30 4123 C 385.768 3.49001 -4.05095 0
M  V30 4124 C 387.068 1.51928 -4.99715 0
M  V30 4125 H 388.762 0.60112 -2.93303 0
M  V30 4126 H 386.308 0.287705 -1.41097 0
M  V30 4127 H 388.261 3.03802 -2.92032 0
M  V30 4128 H 386.985 2.78665 -1.70333 0
M  V30 4129 H 385.644 1.45171 -3.36632 0
M  V30 4130 H 385.292 3.91862 -3.15362 0
M  V30 4131 H 384.992 3.36207 -4.81911 0
M  V30 4132 H 386.516 4.20721 -4.42522 0
M  V30 4133 H 387.93 2.12196 -5.32584 0
M  V30 4134 H 386.327 1.49716 -5.81124 0
M  V30 4135 H 387.397 0.484811 -4.8247 0
M  V30 4136 N 388.74 1.54641 0.303973 0
M  V30 4137 C 389.687 1.85386 1.37479 0
M  V30 4138 C 390.657 0.702528 1.50512 0
M  V30 4139 O 391.842 0.950867 1.65418 0
M  V30 4140 C 388.982 2.10413 2.73533 0
M  V30 4141 C 388.095 3.38049 2.68974 0
M  V30 4142 C 387.23 3.52934 3.97002 0
M  V30 4143 C 386.269 4.74373 3.86829 0
M  V30 4144 N 385.406 4.8608 5.06627 0
M  V30 4145 H 390.246 2.76732 1.1056 0
M  V30 4146 H 387.783 1.37034 0.534805 0
M  V30 4147 H 389.741 2.22919 3.52652 0
M  V30 4148 H 388.371 1.22338 2.98719 0
M  V30 4149 H 387.423 3.3418 1.81736 0
M  V30 4150 H 388.735 4.27288 2.57346 0
M  V30 4151 H 387.889 3.65088 4.84557 0
M  V30 4152 H 386.628 2.61824 4.1146 0
M  V30 4153 H 385.633 4.62255 2.97658 0
M  V30 4154 H 386.858 5.66888 3.73918 0
M  V30 4155 H 384.804 3.97891 5.21554 0
M  V30 4156 H 384.721 5.69315 4.9741 0
M  V30 4157 H 385.989 5.02587 5.95841 0
M  V30 4158 N 390.218 -0.567019 1.47046 0
M  V30 4159 C 391.128 -1.70247 1.6141 0
M  V30 4160 C 392.144 -1.66746 0.497157 0
M  V30 4161 O 393.32 -1.86371 0.763389 0
M  V30 4162 C 390.385 -3.06756 1.61561 0
M  V30 4163 C 389.446 -3.21399 2.84607 0
M  V30 4164 C 388.679 -4.51396 2.84741 0
M  V30 4165 O 388.902 -5.36255 1.94388 0
M  V30 4166 O 387.836 -4.69621 3.76483 0
M  V30 4167 H 391.662 -1.61073 2.57467 0
M  V30 4168 H 389.247 -0.735894 1.30019 0
M  V30 4169 H 391.129 -3.8801 1.64396 0
M  V30 4170 H 389.804 -3.16333 0.686684 0
M  V30 4171 H 388.711 -2.39579 2.8732 0
M  V30 4172 H 390.044 -3.16721 3.76761 0
M  V30 4173 N 391.696 -1.35014 -0.812953 0
M  V30 4174 C 392.628 -1.23262 -1.93233 0
M  V30 4175 C 393.641 -0.157371 -1.62038 0
M  V30 4176 O 394.83 -0.410096 -1.73725 0
M  V30 4177 C 391.93 -0.87392 -3.27438 0
M  V30 4178 C 391.103 -2.04622 -3.86586 0
M  V30 4179 C 390.162 -1.66432 -4.99186 0
M  V30 4180 O 389.188 -2.38222 -5.16951 0
M  V30 4181 N 390.39 -0.584248 -5.77552 0
M  V30 4182 H 393.155 -2.19699 -2.03844 0
M  V30 4183 H 390.716 -1.281 -0.99005 0
M  V30 4184 H 392.708 -0.600039 -4.00227 0
M  V30 4185 H 391.278 0.00057392 -3.126 0
M  V30 4186 H 390.498 -2.48427 -3.06068 0
M  V30 4187 H 391.786 -2.82999 -4.22835 0
M  V30 4188 H 391.184 0.0123526 -5.65699 0
M  V30 4189 H 389.741 -0.37013 -6.50748 0
M  V30 4190 N 393.175 1.03435 -1.18907 0
M  V30 4191 C 394.422 1.76743 -0.988334 0
M  V30 4192 C 394.75 1.88447 0.481441 0
M  V30 4193 O 394.005 1.39383 1.37371 0
M  V30 4194 C 394.304 3.19792 -1.59586 0
M  V30 4195 C 393.97 3.28108 -3.09283 0
M  V30 4196 C 392.632 3.30084 -3.5014 0
M  V30 4197 C 394.984 3.27696 -4.05296 0
M  V30 4198 C 392.312 3.29299 -4.85571 0
M  V30 4199 C 394.664 3.28451 -5.4065 0
M  V30 4200 C 393.328 3.28723 -5.80946 0
M  V30 4201 H 392.598 0.64675 -0.361657 0
M  V30 4202 H 395.245 1.21442 -1.48068 0
M  V30 4203 H 393.55 3.78136 -1.02568 0
M  V30 4204 H 395.247 3.75171 -1.41589 0
M  V30 4205 H 391.837 3.27294 -2.76725 0
M  V30 4206 H 396.021 3.25354 -3.74778 0
M  V30 4207 H 391.277 3.2783 -5.16079 0
M  V30 4208 H 395.451 3.27082 -6.14809 0
M  V30 4209 H 393.078 3.27868 -6.85862 0
M  V30 4210 N 394.653 0.992116 1.22453 0
M  V30 4211 C 395.563 0.55065 2.28046 0
M  V30 4212 C 396.579 -0.400189 1.69335 0
M  V30 4213 O 397.755 -0.267215 1.99619 0
M  V30 4214 C 394.82 -0.128496 3.46462 0
M  V30 4215 C 393.881 0.865208 4.20491 0
M  V30 4216 C 393.114 0.218377 5.33253 0
M  V30 4217 O 393.337 -0.987894 5.6178 0
M  V30 4218 O 392.271 0.922845 5.94783 0
M  V30 4219 H 396.097 1.4291 2.67975 0
M  V30 4220 H 393.682 0.760326 1.28606 0
M  V30 4221 H 395.564 -0.508947 4.18315 0
M  V30 4222 H 394.239 -0.981526 3.0846 0
M  V30 4223 H 393.146 1.29658 3.50913 0
M  V30 4224 H 394.479 1.68741 4.62371 0
M  V30 4225 N 396.131 -1.37776 0.765217 0
M  V30 4226 C 397.547 -1.53297 0.444108 0
M  V30 4227 C 397.747 -1.72515 -1.04119 0
M  V30 4228 O 396.803 -1.74278 -1.82711 0
M  V30 4229 C 398.116 -2.73328 1.25349 0
M  V30 4230 C 399.664 -2.87185 1.24473 0
M  V30 4231 C 400.139 -4.10191 2.03733 0
M  V30 4232 N 401.63 -4.17291 2.01053 0
M  V30 4233 C 402.365 -5.11488 2.59166 0
M  V30 4234 N 401.861 -6.11285 3.26041 0
M  V30 4235 N 403.654 -5.03924 2.49032 0
M  V30 4236 H 395.805 -1.23552 1.72768 0
M  V30 4237 H 398.068 -0.601103 0.733062 0
M  V30 4238 H 397.774 -2.6557 2.30577 0
M  V30 4239 H 397.648 -3.66834 0.87823 0
M  V30 4240 H 400.035 -2.94418 0.20047 0
M  V30 4241 H 400.116 -1.94657 1.65959 0
M  V30 4242 H 399.76 -4.0372 3.08176 0
M  V30 4243 H 399.69 -5.01821 1.59633 0
M  V30 4244 H 402.181 -3.45825 1.5236 0
M  V30 4245 H 402.494 -6.79678 3.67774 0
M  V30 4246 H 400.839 -6.11583 3.30138 0
M  V30 4247 H 404.03 -4.24902 1.96407 0
M  V30 4248 H 404.203 -5.77152 2.94617 0
M  V30 4249 N 397.609 -0.515225 -1.4894 0
M  V30 4250 C 398.858 0.0261361 -2.01683 0
M  V30 4251 C 399.171 1.36719 -1.39883 0
M  V30 4252 O 400.377 1.99606 -1.84037 0
M  V30 4253 C 398.833 0.0970111 -3.59769 0
M  V30 4254 C 398.441 -1.23825 -4.30548 0
M  V30 4255 C 400.185 0.587981 -4.20408 0
M  V30 4256 C 398.092 -1.12877 -5.80528 0
M  V30 4257 H 397.022 0.0135398 -0.753878 0
M  V30 4258 H 399.673 -0.656787 -1.71343 0
M  V30 4259 H 398.055 0.844694 -3.86886 0
M  V30 4260 H 399.229 -2.00034 -4.15118 0
M  V30 4261 H 397.544 -1.66379 -3.81716 0
M  V30 4262 H 400.141 0.68763 -5.3026 0
M  V30 4263 H 400.484 1.59026 -3.84729 0
M  V30 4264 H 401.017 -0.103582 -3.97665 0
M  V30 4265 H 397.756 -2.10575 -6.20756 0
M  V30 4266 H 397.276 -0.407799 -5.98412 0
M  V30 4267 H 398.955 -0.813332 -6.41868 0
M  V30 4268 N 399.087 1.5561 -0.249682 0
M  V30 4269 C 400.498 1.84979 0.252949 0
M  V30 4270 C 400.849 1.17153 1.57384 0
M  V30 4271 O 399.974 0.450884 2.11651 0
M  V30 4272 C 400.569 3.35584 0.465732 0
M  V30 4273 C 399.128 3.65169 0.912624 0
M  V30 4274 C 398.275 2.77299 -0.00859085 0
M  V30 4275 H 401.226 1.51513 -0.47217 0
M  V30 4276 H 401.247 3.57313 1.30795 0
M  V30 4277 H 400.759 3.8492 -0.49579 0
M  V30 4278 H 398.86 3.21312 1.88652 0
M  V30 4279 H 398.973 4.72912 0.767559 0
M  V30 4280 H 397.337 2.49678 0.50327 0
M  V30 4281 H 398.12 3.29442 -0.965537 0
M  V30 4282 N 400.565 -0.0233959 1.57583 0
M  V30 4283 C 401.512 -1.02224 2.06927 0
M  V30 4284 C 402.482 -1.35575 0.959617 0
M  V30 4285 O 403.667 -1.45815 1.23055 0
M  V30 4286 C 400.807 -2.31636 2.5581 0
M  V30 4287 C 399.92 -2.04394 3.80588 0
M  V30 4288 C 399.055 -3.27717 4.18061 0
M  V30 4289 C 398.094 -2.96056 5.3574 0
M  V30 4290 N 397.231 -4.11847 5.68618 0
M  V30 4291 H 402.071 -0.594504 2.9201 0
M  V30 4292 H 399.608 -0.281921 1.44373 0
M  V30 4293 H 401.566 -3.07258 2.82221 0
M  V30 4294 H 400.196 -2.72122 1.73636 0
M  V30 4295 H 399.248 -1.19244 3.61227 0
M  V30 4296 H 400.56 -1.77042 4.66323 0
M  V30 4297 H 399.714 -4.11702 4.4563 0
M  V30 4298 H 398.453 -3.58188 3.30988 0
M  V30 4299 H 397.458 -2.10474 5.07918 0
M  V30 4300 H 398.683 -2.66857 6.24471 0
M  V30 4301 H 396.629 -4.42258 4.84504 0
M  V30 4302 H 396.546 -3.87938 6.48876 0
M  V30 4303 H 397.814 -4.96689 6.00766 0
M  V30 4304 N 402.043 -1.548 -0.295768 0
M  V30 4305 C 402.975 -1.82492 -1.3867 0
M  V30 4306 C 403.988 -0.708134 -1.46592 0
M  V30 4307 O 405.177 -0.985686 -1.48817 0
M  V30 4308 C 402.277 -1.95256 -2.76999 0
M  V30 4309 C 401.45 -3.25709 -2.91946 0
M  V30 4310 C 400.509 -3.28824 -4.10806 0
M  V30 4311 O 399.535 -4.02328 -4.02643 0
M  V30 4312 N 400.737 -2.5459 -5.21694 0
M  V30 4313 H 403.502 -2.76646 -1.15269 0
M  V30 4314 H 401.063 -1.54438 -0.485849 0
M  V30 4315 H 403.055 -1.94736 -3.54768 0
M  V30 4316 H 401.625 -1.08072 -2.93324 0
M  V30 4317 H 400.845 -3.38959 -2.01247 0
M  V30 4318 H 402.133 -4.11786 -2.98847 0
M  V30 4319 H 401.531 -1.94512 -5.31208 0
M  V30 4320 H 400.088 -2.59818 -5.97778 0
M  V30 4321 N 403.521 0.559213 -1.47345 0
M  V30 4322 C 404.768 1.31648 -1.53867 0
M  V30 4323 C 405.096 1.93468 -0.200104 0
M  V30 4324 O 404.351 1.78295 0.806799 0
M  V30 4325 C 404.65 2.44853 -2.6035 0
M  V30 4326 C 404.316 2.00876 -4.03683 0
M  V30 4327 C 402.978 1.88599 -4.42701 0
M  V30 4328 C 405.33 1.67279 -4.93626 0
M  V30 4329 C 402.658 1.41017 -5.69501 0
M  V30 4330 C 405.01 1.21169 -6.20887 0
M  V30 4331 C 403.674 1.07487 -6.58789 0
M  V30 4332 H 402.944 0.481734 -0.56304 0
M  V30 4333 H 405.591 0.627301 -1.80934 0
M  V30 4334 H 403.896 3.19318 -2.27032 0
M  V30 4335 H 405.593 3.03039 -2.62619 0
M  V30 4336 H 402.183 2.11374 -3.72853 0
M  V30 4337 H 406.367 1.75638 -4.64182 0
M  V30 4338 H 401.623 1.29086 -5.97618 0
M  V30 4339 H 405.797 0.942345 -6.89995 0
M  V30 4340 H 403.424 0.703946 -7.56934 0
M  V30 4341 N 404.999 1.35443 0.805782 0
M  V30 4342 C 406.41 1.25768 1.37983 0
M  V30 4343 C 406.761 -0.10958 1.95894 0
M  V30 4344 O 405.886 -1.01056 1.91355 0
M  V30 4345 C 406.481 2.27727 2.5085 0
M  V30 4346 C 405.04 2.2179 3.04115 0
M  V30 4347 C 404.187 2.13393 1.77084 0
M  V30 4348 H 407.138 1.4656 0.608752 0
M  V30 4349 H 407.159 1.90422 3.29424 0
M  V30 4350 H 406.671 3.27227 2.08671 0
M  V30 4351 H 404.772 1.25703 3.50756 0
M  V30 4352 H 404.885 3.13788 3.62042 0
M  V30 4353 H 403.249 1.59384 1.98668 0
M  V30 4354 H 404.032 3.14755 1.37056 0
M  V30 4355 N 406.477 -1.02803 1.19454 0
M  V30 4356 C 407.424 -2.11099 0.933046 0
M  V30 4357 C 408.394 -1.65571 -0.132447 0
M  V30 4358 O 409.579 -1.90797 0.00987576 0
M  V30 4359 C 406.719 -3.41763 0.478747 0
M  V30 4360 C 405.832 -4.00833 1.6111 0
M  V30 4361 C 404.967 -5.19511 1.10825 0
M  V30 4362 C 404.006 -5.70639 2.21445 0
M  V30 4363 N 403.143 -6.80589 1.72461 0
M  V30 4364 H 407.983 -2.32804 1.86028 0
M  V30 4365 H 405.52 -1.14179 0.927441 0
M  V30 4366 H 407.478 -4.16736 0.196745 0
M  V30 4367 H 406.108 -3.20166 -0.411493 0
M  V30 4368 H 405.16 -3.23066 2.00829 0
M  V30 4369 H 406.472 -4.34794 2.4445 0
M  V30 4370 H 405.626 -6.01645 0.781533 0
M  V30 4371 H 404.365 -4.87086 0.244606 0
M  V30 4372 H 403.37 -4.87116 2.54947 0
M  V30 4373 H 404.595 -6.05102 3.08267 0
M  V30 4374 H 402.541 -6.50016 0.884056 0
M  V30 4375 H 402.458 -7.13681 2.49389 0
M  V30 4376 H 403.726 -7.66317 1.42755 0
M  V30 4377 N 407.956 -0.998596 -1.21925 0
M  V30 4378 C 408.886 -0.573688 -2.26343 0
M  V30 4379 C 409.867 0.402296 -1.65274 0
M  V30 4380 O 411.052 0.291683 -1.91997 0
M  V30 4381 C 408.182 0.106839 -3.47136 0
M  V30 4382 C 407.136 -0.788269 -4.20678 0
M  V30 4383 C 406.462 0.0254927 -5.34694 0
M  V30 4384 C 407.762 -2.08784 -4.78755 0
M  V30 4385 H 409.456 -1.44651 -2.62138 0
M  V30 4386 H 407.002 -0.696975 -1.26009 0
M  V30 4387 H 408.955 0.415531 -4.19346 0
M  V30 4388 H 407.679 1.01424 -3.10452 0
M  V30 4389 H 406.338 -1.08069 -3.50309 0
M  V30 4390 H 405.986 0.933989 -4.94253 0
M  V30 4391 H 405.686 -0.570437 -5.84825 0
M  V30 4392 H 407.21 0.328147 -6.09718 0
M  V30 4393 H 408.624 -1.84272 -5.42878 0
M  V30 4394 H 407.021 -2.63307 -5.39249 0
M  V30 4395 H 408.091 -2.76284 -3.98491 0
M  V30 4396 N 409.434 1.37368 -0.772513 0
M  V30 4397 C 410.68 1.99969 -0.337681 0
M  V30 4398 C 411.013 1.61184 1.08321 0
M  V30 4399 O 410.288 0.858395 1.74533 0
M  V30 4400 C 410.571 3.56858 -0.482121 0
M  V30 4401 C 410.424 4.0555 -1.94549 0
M  V30 4402 C 411.743 4.39955 0.113143 0
M  V30 4403 H 408.862 0.726464 -0.124171 0
M  V30 4404 H 411.504 1.63034 -0.975699 0
M  V30 4405 H 409.654 3.88452 0.0610361 0
M  V30 4406 H 411.326 3.84518 -2.54841 0
M  V30 4407 H 409.569 3.57715 -2.45403 0
M  V30 4408 H 410.24 5.14587 -1.9976 0
M  V30 4409 H 412.716 4.14623 -0.35031 0
M  V30 4410 H 411.592 5.48897 -0.0180514 0
M  V30 4411 H 411.853 4.25403 1.20354 0
M  V30 4412 N 410.912 0.523116 1.48665 0
M  V30 4413 C 412.161 -0.01544 2.01694 0
M  V30 4414 C 412.474 -1.35975 1.40606 0
M  V30 4415 O 413.68 -1.98627 1.85093 0
M  V30 4416 C 412.136 -0.0779303 3.59816 0
M  V30 4417 C 411.744 1.26107 4.29885 0
M  V30 4418 C 413.488 -0.565678 4.20714 0
M  V30 4419 C 411.395 1.15954 5.79921 0
M  V30 4420 H 410.325 -0.00954163 0.75394 0
M  V30 4421 H 412.976 0.665865 1.70993 0
M  V30 4422 H 411.358 -0.824165 3.87329 0
M  V30 4423 H 412.532 2.02233 4.14051 0
M  V30 4424 H 410.847 1.68401 3.80828 0
M  V30 4425 H 413.444 -0.6595 5.30617 0
M  V30 4426 H 413.787 -1.56984 3.85567 0
M  V30 4427 H 414.32 0.12467 3.97605 0
M  V30 4428 H 411.059 2.13864 6.19631 0
M  V30 4429 H 410.579 0.439529 5.98187 0
M  V30 4430 H 412.258 0.847361 6.41427 0
M  V30 4431 N 412.39 -1.55475 0.257931 0
M  V30 4432 C 413.337 -2.21837 -0.636939 0
M  V30 4433 C 414.307 -1.18596 -1.16294 0
M  V30 4434 O 415.492 -1.47081 -1.21539 0
M  V30 4435 C 412.632 -2.9301 -1.82317 0
M  V30 4436 C 411.745 -4.10931 -1.33265 0
M  V30 4437 C 410.88 -4.69791 -2.47931 0
M  V30 4438 C 409.919 -5.7994 -1.95796 0
M  V30 4439 N 409.056 -6.32935 -3.0387 0
M  V30 4440 H 413.896 -2.9793 -0.0643591 0
M  V30 4441 H 411.433 -1.47086 -0.0200031 0
M  V30 4442 H 413.391 -3.3248 -2.52018 0
M  V30 4443 H 412.021 -2.1937 -2.36805 0
M  V30 4444 H 411.073 -3.76699 -0.52931 0
M  V30 4445 H 412.385 -4.90417 -0.910654 0
M  V30 4446 H 411.539 -5.11892 -3.25656 0
M  V30 4447 H 410.278 -3.89545 -2.93438 0
M  V30 4448 H 409.283 -5.37305 -1.16546 0
M  V30 4449 H 410.508 -6.62043 -1.51246 0
M  V30 4450 H 408.454 -5.55591 -3.48791 0
M  V30 4451 H 408.371 -7.07645 -2.66035 0
M  V30 4452 H 409.639 -6.79695 -3.81621 0
M  V30 4453 N 413.868 0.0150385 -1.57593 0
M  V30 4454 C 414.778 1.02791 -2.10882 0
M  V30 4455 C 415.794 1.38702 -1.0506 0
M  V30 4456 O 416.97 1.47739 -1.36877 0
M  V30 4457 C 414.035 2.30568 -2.58919 0
M  V30 4458 C 413.096 2.01108 -3.79281 0
M  V30 4459 C 412.329 3.22794 -4.25018 0
M  V30 4460 O 412.552 4.33959 -3.70183 0
M  V30 4461 O 411.486 3.07672 -5.17322 0
M  V30 4462 H 415.312 0.604973 -2.97613 0
M  V30 4463 H 412.897 0.23292 -1.47573 0
M  V30 4464 H 414.779 3.05662 -2.90084 0
M  V30 4465 H 413.454 2.72129 -1.75293 0
M  V30 4466 H 412.361 1.23537 -3.53114 0
M  V30 4467 H 413.694 1.64394 -4.63935 0
M  V30 4468 N 415.346 1.54954 0.287554 0
M  V30 4469 C 416.256 1.8991 1.37736 0
M  V30 4470 C 417.272 0.794701 1.54792 0
M  V30 4471 O 418.448 1.09243 1.69198 0
M  V30 4472 C 415.513 2.15108 2.71899 0
M  V30 4473 C 414.574 3.38752 2.63715 0
M  V30 4474 C 413.807 3.62739 3.91479 0
M  V30 4475 O 414.03 2.89492 4.91478 0
M  V30 4476 O 412.964 4.56267 3.92561 0
M  V30 4477 H 416.79 2.82652 1.11092 0
M  V30 4478 H 414.375 1.41315 0.484807 0
M  V30 4479 H 416.257 2.32806 3.51254 0
M  V30 4480 H 414.932 1.25551 2.9836 0
M  V30 4481 H 413.839 3.26405 1.82786 0
M  V30 4482 H 415.172 4.28483 2.42205 0
M  V30 4483 N 416.824 -0.551391 1.4764 0
M  V30 4484 C 418.24 -0.877887 1.33287 0
M  V30 4485 C 418.44 -1.98817 0.327721 0
M  V30 4486 O 417.496 -2.51171 -0.258695 0
M  V30 4487 C 418.809 -1.26563 2.72768 0
M  V30 4488 C 420.357 -1.37673 2.81097 0
M  V30 4489 C 420.832 -1.79799 4.21232 0
M  V30 4490 N 422.323 -1.8694 4.23802 0
M  V30 4491 C 423.058 -2.20876 5.29151 0
M  V30 4492 N 422.554 -2.53386 6.448 0
M  V30 4493 N 424.347 -2.217 5.16532 0
M  V30 4494 H 416.498 0.18153 2.11623 0
M  V30 4495 H 418.761 0.0185514 0.947818 0
M  V30 4496 H 418.467 -0.523591 3.47781 0
M  V30 4497 H 418.341 -2.22052 3.04915 0
M  V30 4498 H 420.728 -2.10956 2.06353 0
M  V30 4499 H 420.809 -0.40357 2.52596 0
M  V30 4500 H 420.453 -1.07083 4.96483 0
M  V30 4501 H 420.383 -2.78128 4.4716 0
M  V30 4502 H 422.874 -1.64179 3.40373 0
M  V30 4503 H 423.187 -2.78325 7.20941 0
M  V30 4504 H 421.532 -2.50953 6.48111 0
M  V30 4505 H 424.723 -1.95745 4.25207 0
M  V30 4506 H 424.896 -2.47818 5.98741 0
M  V30 4507 N 418.302 -1.35869 -0.798587 0
M  V30 4508 C 419.249 -1.29446 -1.91082 0
M  V30 4509 C 420.219 -0.16487 -1.6528 0
M  V30 4510 O 421.404 -0.349888 -1.87564 0
M  V30 4511 C 418.544 -1.0804 -3.27752 0
M  V30 4512 C 417.657 -2.29993 -3.65687 0
M  V30 4513 C 416.792 -2.01673 -4.91428 0
M  V30 4514 C 415.831 -3.19636 -5.22015 0
M  V30 4515 N 414.968 -2.91039 -6.38937 0
M  V30 4516 H 419.808 -2.24553 -1.95907 0
M  V30 4517 H 417.345 -1.11615 -0.958148 0
M  V30 4518 H 419.303 -0.936586 -4.06551 0
M  V30 4519 H 417.933 -0.16592 -3.22373 0
M  V30 4520 H 416.985 -2.55211 -2.82085 0
M  V30 4521 H 418.297 -3.18052 -3.84245 0
M  V30 4522 H 417.451 -1.84168 -5.78072 0
M  V30 4523 H 416.19 -1.10911 -4.74921 0
M  V30 4524 H 415.195 -3.37709 -4.33858 0
M  V30 4525 H 416.42 -4.11211 -5.40447 0
M  V30 4526 H 414.366 -2.0288 -6.2384 0
M  V30 4527 H 414.283 -3.72635 -6.57784 0
M  V30 4528 H 415.551 -2.77093 -7.28587 0
M  V30 4529 N 419.78 1.02168 -1.19998 0
M  V30 4530 C 420.728 2.12717 -0.940967 0
M  V30 4531 C 421.722 1.69069 0.105841 0
M  V30 4532 O 422.928 1.79946 -0.0440583 0
M  V30 4533 H 419.303 0.695108 -0.28693 0
M  V30 4534 H 421.274 2.3175 -1.87975 0
M  V30 4535 C 420.023 3.44027 -0.504049 0
M  V30 4536 H 419.346 3.78036 -1.30112 0
M  V30 4537 H 420.786 4.22452 -0.361991 0
M  V30 4538 C 419.245 3.27678 0.782878 0
M  V30 4539 O 419.775 3.56949 1.84256 0
M  V30 4540 N 417.981 2.80943 0.742921 0
M  V30 4541 H 417.528 2.57322 -0.119687 0
M  V30 4542 H 417.486 2.70385 1.60435 0
M  V30 4543 N 421.258 1.00505 1.21394 0
M  V30 4544 C 422.168 0.574806 2.27449 0
M  V30 4545 C 423.184 -0.382206 1.6975 0
M  V30 4546 O 424.36 -0.246027 1.99892 0
M  V30 4547 C 421.425 -0.0917414 3.46579 0
M  V30 4548 C 420.486 0.909758 4.1955 0
M  V30 4549 C 419.719 0.274924 5.32991 0
M  V30 4550 O 419.942 -0.928254 5.62796 0
M  V30 4551 O 418.876 0.985877 5.93771 0
M  V30 4552 H 422.702 1.45744 2.66444 0
M  V30 4553 H 420.287 0.773923 1.27792 0
M  V30 4554 H 422.169 -0.464551 4.18832 0
M  V30 4555 H 420.844 -0.948755 3.09484 0
M  V30 4556 H 419.751 1.33372 3.49518 0
M  V30 4557 H 421.084 1.73636 4.60555 0
M  V30 4558 N 422.737 -1.36956 0.779787 0
M  V30 4559 C 423.986 -1.98738 0.344405 0
M  V30 4560 C 424.299 -1.62596 -1.08728 0
M  V30 4561 O 425.505 -2.1754 -1.62445 0
M  V30 4562 C 423.961 -3.5544 0.564829 0
M  V30 4563 C 423.569 -4.00514 2.0073 0
M  V30 4564 C 425.313 -4.24059 0.193471 0
M  V30 4565 C 423.22 -5.49957 2.17489 0
M  V30 4566 H 422.15 -0.743561 0.12503 0
M  V30 4567 H 424.801 -1.56381 0.960057 0
M  V30 4568 H 423.183 -3.95817 -0.120397 0
M  V30 4569 H 424.357 -3.71362 2.72814 0
M  V30 4570 H 422.672 -3.44703 2.336 0
M  V30 4571 H 425.269 -5.33874 0.297097 0
M  V30 4572 H 425.612 -4.07378 -0.857263 0
M  V30 4573 H 426.145 -3.89012 0.831556 0
M  V30 4574 H 422.884 -5.71574 3.2091 0
M  V30 4575 H 422.404 -5.80767 1.49899 0
M  V30 4576 H 424.083 -6.16043 1.97738 0
M  V30 4577 N 424.215 -0.530993 -1.48385 0
M  V30 4578 C 425.162 0.231223 -2.29639 0
M  V30 4579 C 426.132 0.932864 -1.37429 0
M  V30 4580 O 427.317 0.933692 -1.66394 0
M  V30 4581 C 424.457 1.27155 -3.2082 0
M  V30 4582 C 423.57 0.578655 -4.28107 0
M  V30 4583 C 422.705 1.602 -5.06467 0
M  V30 4584 C 421.744 0.892625 -6.05556 0
M  V30 4585 N 420.881 1.86157 -6.76971 0
M  V30 4586 H 425.721 -0.467848 -2.94305 0
M  V30 4587 H 423.258 -0.242556 -1.45086 0
M  V30 4588 H 425.216 1.88703 -3.72085 0
M  V30 4589 H 423.846 1.939 -2.58075 0
M  V30 4590 H 422.898 -0.150782 -3.80101 0
M  V30 4591 H 424.21 0.0217065 -4.98795 0
M  V30 4592 H 423.364 2.29173 -5.61751 0
M  V30 4593 H 422.103 2.19285 -4.35621 0
M  V30 4594 H 421.108 0.188829 -5.49476 0
M  V30 4595 H 422.333 0.307878 -6.78402 0
M  V30 4596 H 420.279 2.44147 -6.08875 0
M  V30 4597 H 420.196 1.35608 -7.43738 0
M  V30 4598 H 421.464 2.54325 -7.36844 0
M  V30 4599 N 425.693 1.55336 -0.266172 0
M  V30 4600 C 426.918 2.04258 0.359661 0
M  V30 4601 C 427.343 1.14359 1.49344 0
M  V30 4602 O 426.701 0.140369 1.80756 0
M  V30 4603 C 426.749 3.50997 0.826635 0
M  V30 4604 O 425.853 3.64204 1.93466 0
M  V30 4605 H 425.194 0.659668 0.075727 0
M  V30 4606 H 427.724 2.00694 -0.39786 0
M  V30 4607 H 427.734 3.9219 1.12477 0
M  V30 4608 H 426.409 4.159 -0.00293032 0
M  V30 4609 H 424.986 3.34913 1.63974 0
M  V30 4610 N 427.171 -0.0066808 1.57599 0
M  V30 4611 C 428.42 -0.692078 1.89455 0
M  V30 4612 C 428.733 -1.75306 0.867586 0
M  V30 4613 O 429.939 -2.49262 1.07614 0
M  V30 4614 C 428.395 -1.2821 3.36289 0
M  V30 4615 C 428.003 -0.256291 4.47266 0
M  V30 4616 C 429.747 -1.94608 3.77264 0
M  V30 4617 C 427.654 -0.855927 5.85173 0
M  V30 4618 H 426.584 -0.262252 0.706923 0
M  V30 4619 H 429.235 0.052769 1.83424 0
M  V30 4620 H 427.617 -2.0774 3.37135 0
M  V30 4621 H 428.791 0.513923 4.57925 0
M  V30 4622 H 427.106 0.306862 4.15268 0
M  V30 4623 H 429.703 -2.40364 4.77629 0
M  V30 4624 H 430.046 -2.77382 3.10427 0
M  V30 4625 H 430.579 -1.21822 3.78688 0
M  V30 4626 H 427.318 -0.0671161 6.55466 0
M  V30 4627 H 426.838 -1.59546 5.78191 0
M  V30 4628 H 428.517 -1.35658 6.32618 0
M  V30 4629 N 428.649 -1.55105 -0.279332 0
M  V30 4630 C 429.926 -1.66119 -1.03267 0
M  V30 4631 C 430.306 -0.523525 -2.04505 0
M  V30 4632 O 429.654 0.477194 -2.23462 0
M  V30 4633 C 429.864 -3.05067 -1.69515 0
M  V30 4634 C 431.212 -3.62606 -2.20912 0
M  V30 4635 O 432.236 -3.07659 -1.79512 0
M  V30 4636 O 431.095 -4.58861 -2.96831 0
M  V30 4637 H 428.189 -0.674429 -0.478618 0
M  V30 4638 H 430.735 -1.67446 -0.275694 0
M  V30 4639 H 429.507 -3.79311 -0.9612 0
M  V30 4640 H 429.13 -3.07611 -2.51915 0
M  V30 4641 N 430.127 0.543554 -1.4793 0
M  V30 4642 C 431.404 1.30458 -1.4574 0
M  V30 4643 C 431.784 2.1048 -0.161692 0
M  V30 4644 O 431.132 2.11831 0.856734 0
M  V30 4645 C 431.342 2.19754 -2.71126 0
M  V30 4646 C 432.69 2.80334 -3.18901 0
M  V30 4647 O 433.714 2.30049 -2.71948 0
M  V30 4648 O 432.573 3.71766 -4.00565 0
M  V30 4649 H 429.667 0.588117 -0.581418 0
M  V30 4650 H 432.213 0.561328 -1.60147 0
M  V30 4651 H 430.985 1.60316 -3.56952 0
M  V30 4652 H 430.608 3.01351 -2.59371 0
M  V30 4653 N 431.605 1.3629 0.791371 0
M  V30 4654 C 432.852 1.30412 1.54916 0
M  V30 4655 C 433.18 -0.117162 1.94147 0
M  V30 4656 O 432.435 -1.08599 1.62803 0
M  V30 4657 C 432.734 2.17068 2.8393 0
M  V30 4658 C 432.4 3.65645 2.63846 0
M  V30 4659 C 431.062 4.0614 2.58077 0
M  V30 4660 C 433.414 4.59855 2.45322 0
M  V30 4661 C 430.742 5.3899 2.31748 0
M  V30 4662 C 433.094 5.9292 2.2052 0
M  V30 4663 C 431.758 6.32542 2.13183 0
M  V30 4664 H 431.028 0.47721 0.566879 0
M  V30 4665 H 433.675 1.68325 0.913172 0
M  V30 4666 H 431.98 1.72085 3.51986 0
M  V30 4667 H 433.677 2.09846 3.4171 0
M  V30 4668 H 430.267 3.33518 2.69191 0
M  V30 4669 H 434.451 4.29443 2.48782 0
M  V30 4670 H 429.707 5.68672 2.24548 0
M  V30 4671 H 433.881 6.65487 2.05182 0
M  V30 4672 H 431.508 7.35412 1.92544 0
M  V30 4673 N 433.083 -1.0153 1.20538 0
M  V30 4674 C 434.03 -2.10098 0.955383 0
M  V30 4675 C 435 -1.65702 -0.114878 0
M  V30 4676 O 436.185 -1.90776 0.0301118 0
M  V30 4677 C 433.325 -3.41236 0.514969 0
M  V30 4678 C 432.438 -3.99102 1.65353 0
M  V30 4679 C 431.573 -5.18306 1.16329 0
M  V30 4680 C 430.612 -5.68258 2.27485 0
M  V30 4681 N 429.749 -6.78722 1.7967 0
M  V30 4682 H 434.589 -2.30818 1.88486 0
M  V30 4683 H 432.126 -1.13189 0.939499 0
M  V30 4684 H 434.084 -4.16504 0.240935 0
M  V30 4685 H 432.714 -3.20585 -0.377512 0
M  V30 4686 H 431.766 -3.20918 2.04245 0
M  V30 4687 H 433.078 -4.32177 2.49047 0
M  V30 4688 H 432.232 -6.00782 0.845302 0
M  V30 4689 H 430.971 -4.86799 0.296254 0
M  V30 4690 H 429.976 -4.84385 2.60099 0
M  V30 4691 H 431.201 -6.01798 3.14667 0
M  V30 4692 H 429.147 -6.49042 0.95295 0
M  V30 4693 H 429.064 -7.10996 2.56944 0
M  V30 4694 H 430.332 -7.64759 1.50875 0
M  V30 4695 N 434.561 -1.01147 -1.20859 0
M  V30 4696 C 435.808 -0.697865 -1.90095 0
M  V30 4697 C 436.136 0.772014 -1.78522 0
M  V30 4698 O 435.391 1.57595 -1.16027 0
M  V30 4699 C 435.69 -1.0727 -3.40922 0
M  V30 4700 C 435.356 -2.53792 -3.72693 0
M  V30 4701 C 434.018 -2.93829 -3.81075 0
M  V30 4702 C 436.37 -3.48674 -3.87397 0
M  V30 4703 C 433.698 -4.27696 -4.01613 0
M  V30 4704 C 436.05 -4.82223 -4.09444 0
M  V30 4705 C 434.714 -5.21973 -4.16054 0
M  V30 4706 H 433.984 -0.255367 -0.695607 0
M  V30 4707 H 436.631 -1.27111 -1.43231 0
M  V30 4708 H 434.936 -0.417799 -3.89566 0
M  V30 4709 H 436.633 -0.807818 -3.92779 0
M  V30 4710 H 433.223 -2.21768 -3.66765 0
M  V30 4711 H 437.407 -3.18904 -3.80281 0
M  V30 4712 H 432.663 -4.58055 -4.04964 0
M  V30 4713 H 436.837 -5.55672 -4.19763 0
M  V30 4714 H 434.464 -6.25717 -4.31721 0
M  V30 4715 N 436.039 1.36541 -0.78704 0
M  V30 4716 C 436.949 2.3387 -0.184896 0
M  V30 4717 C 437.965 1.60927 0.661697 0
M  V30 4718 O 439.141 1.92927 0.57804 0
M  V30 4719 C 436.206 3.40122 0.672145 0
M  V30 4720 C 435.267 4.28867 -0.19267 0
M  V30 4721 C 434.5 5.30045 0.623561 0
M  V30 4722 O 434.723 5.39232 1.8597 0
M  V30 4723 O 433.657 6.01895 0.0247068 0
M  V30 4724 H 437.483 2.87126 -0.989562 0
M  V30 4725 H 435.068 1.38969 -0.548455 0
M  V30 4726 H 436.95 4.05093 1.16094 0
M  V30 4727 H 435.625 2.89169 1.45474 0
M  V30 4728 H 434.532 3.66945 -0.728166 0
M  V30 4729 H 435.865 4.83165 -0.938722 0
M  V30 4730 N 437.518 0.538854 1.48102 0
M  V30 4731 C 438.795 -0.0568108 1.95517 0
M  V30 4732 C 439.175 -1.50408 1.48124 0
M  V30 4733 O 438.523 -2.17133 0.711727 0
M  V30 4734 C 438.733 0.0696262 3.48931 0
M  V30 4735 C 440.081 -0.0851202 4.24515 0
M  V30 4736 O 441.105 -0.0037347 3.562 0
M  V30 4737 O 439.964 -0.257025 5.45895 0
M  V30 4738 H 437.058 -0.0743695 0.823649 0
M  V30 4739 H 439.604 0.604081 1.58584 0
M  V30 4740 H 438.376 1.07744 3.76174 0
M  V30 4741 H 437.999 -0.629714 3.92582 0
M  V30 4742 N 438.996 -1.55193 0.274407 0
M  V30 4743 C 440.243 -1.99581 -0.342579 0
M  V30 4744 C 440.571 -1.1628 -1.55914 0
M  V30 4745 O 439.826 -0.22029 -1.94456 0
M  V30 4746 C 440.125 -3.49019 -0.769458 0
M  V30 4747 C 439.791 -4.49598 0.342389 0
M  V30 4748 C 438.453 -4.76821 0.647686 0
M  V30 4749 C 440.805 -5.0964 1.09163 0
M  V30 4750 C 438.133 -5.61354 1.70581 0
M  V30 4751 C 440.485 -5.95323 2.13948 0
M  V30 4752 C 439.149 -6.20867 2.45113 0
M  V30 4753 H 438.419 -0.730319 -0.125358 0
M  V30 4754 H 441.066 -1.87529 0.387971 0
M  V30 4755 H 439.371 -3.58544 -1.57967 0
M  V30 4756 H 441.068 -3.8077 -1.25757 0
M  V30 4757 H 437.658 -4.28496 0.094318 0
M  V30 4758 H 441.842 -4.88632 0.869024 0
M  V30 4759 H 437.098 -5.79392 1.9523 0
M  V30 4760 H 441.272 -6.40881 2.72478 0
M  V30 4761 H 438.899 -6.86162 3.27239 0
M  V30 4762 N 440.474 -0.00167713 -1.576 0
M  V30 4763 C 441.384 1.00548 -2.1196 0
M  V30 4764 C 442.4 1.3758 -1.06526 0
M  V30 4765 O 443.576 1.46278 -1.38436 0
M  V30 4766 C 440.641 2.27809 -2.6135 0
M  V30 4767 C 439.702 1.97074 -3.81393 0
M  V30 4768 C 438.935 3.18267 -4.28417 0
M  V30 4769 O 439.158 4.30009 -3.74765 0
M  V30 4770 O 438.092 3.02167 -5.20556 0
M  V30 4771 H 441.918 0.573373 -2.98238 0
M  V30 4772 H 439.503 0.217255 -1.47812 0
M  V30 4773 H 441.385 3.02568 -2.93309 0
M  V30 4774 H 440.06 2.70254 -1.78169 0
M  V30 4775 H 438.967 1.19785 -3.54404 0
M  V30 4776 H 440.3 1.59464 -4.65652 0
M  V30 4777 N 441.952 1.55251 0.271103 0
M  V30 4778 C 443.201 1.75151 1.00025 0
M  V30 4779 C 443.514 0.561041 1.87381 0
M  V30 4780 O 444.72 0.642506 2.63788 0
M  V30 4781 C 443.176 3.09999 1.82835 0
M  V30 4782 C 442.784 4.3662 1.00336 0
M  V30 4783 C 444.528 3.39249 2.55168 0
M  V30 4784 C 442.435 5.62506 1.82595 0
M  V30 4785 H 441.365 0.652877 0.377183 0
M  V30 4786 H 444.016 1.81708 0.255843 0
M  V30 4787 H 442.398 2.97485 2.61378 0
M  V30 4788 H 443.572 4.60055 0.261959 0
M  V30 4789 H 441.887 4.14527 0.394486 0
M  V30 4790 H 444.484 4.3051 3.1712 0
M  V30 4791 H 444.827 2.59467 3.2555 0
M  V30 4792 H 445.36 3.52869 1.83653 0
M  V30 4793 H 442.099 6.45041 1.16631 0
M  V30 4794 H 441.619 5.43211 2.54327 0
M  V30 4795 H 443.298 6.00875 2.39913 0
M  V30 4796 N 443.43 -0.535701 1.48216 0
M  V30 4797 C 444.676 -1.29375 1.56173 0
M  V30 4798 C 445.009 -1.92804 0.232429 0
M  V30 4799 O 444.284 -1.78992 -0.761048 0
M  V30 4800 C 444.567 -2.38747 2.69577 0
M  V30 4801 C 444.42 -1.80046 4.12193 0
M  V30 4802 C 445.739 -3.40551 2.78771 0
M  V30 4803 H 442.858 -0.469027 0.568491 0
M  V30 4804 H 445.5 -0.597358 1.80365 0
M  V30 4805 H 443.65 -2.98147 2.4908 0
M  V30 4806 H 445.322 -1.24742 4.44114 0
M  V30 4807 H 443.565 -1.10609 4.19462 0
M  V30 4808 H 444.236 -2.59212 4.87353 0
M  V30 4809 H 446.712 -2.91099 2.97322 0
M  V30 4810 H 445.588 -4.1448 3.59857 0
M  V30 4811 H 445.849 -4.00746 1.86696 0
M  V30 4812 N 444.908 -1.36708 -0.784132 0
M  V30 4813 C 446.156 -1.30972 -1.53918 0
M  V30 4814 C 446.477 0.109086 -1.94695 0
M  V30 4815 O 445.747 1.05048 -1.65353 0
M  V30 4816 H 444.327 -0.481819 -0.570841 0
M  V30 4817 H 446.989 -1.71063 -0.934002 0
M  V30 4818 H 446.085 -1.94061 -2.44431 0
M  V30 4819 N 446.386 1.0089 -1.21074 0
M  V30 4820 C 447.616 1.77933 -1.04993 0
M  V30 4821 C 448.024 1.84847 0.403495 0
M  V30 4822 O 447.367 1.30606 1.29181 0
M  V30 4823 C 447.429 3.23541 -1.56722 0
M  V30 4824 C 447.093 3.40214 -3.05129 0
M  V30 4825 C 448.09 3.2881 -4.02716 0
M  V30 4826 C 445.775 3.65781 -3.44252 0
M  V30 4827 C 447.769 3.42732 -5.37414 0
M  V30 4828 C 445.456 3.79346 -4.79103 0
M  V30 4829 C 446.454 3.67827 -5.75493 0
M  V30 4830 O 446.142 3.80965 -7.07899 0
M  V30 4831 H 445.874 0.566157 -0.369381 0
M  V30 4832 H 448.428 1.27826 -1.60779 0
M  V30 4833 H 446.658 3.74766 -0.953285 0
M  V30 4834 H 448.347 3.82245 -1.36543 0
M  V30 4835 H 449.113 3.08986 -3.73835 0
M  V30 4836 H 444.992 3.73831 -2.69762 0
M  V30 4837 H 448.536 3.33658 -6.12632 0
M  V30 4838 H 444.433 3.98672 -5.07672 0
M  V30 4839 H 445.201 3.97937 -7.15254 0
M  V30 4840 N 447.864 1.01787 1.20321 0
M  V30 4841 C 448.774 0.598898 2.26827 0
M  V30 4842 C 449.79 -0.36418 1.70146 0
M  V30 4843 O 450.966 -0.224812 2.00141 0
M  V30 4844 C 448.031 -0.0549769 3.46656 0
M  V30 4845 C 447.092 0.954205 4.18561 0
M  V30 4846 C 446.325 0.331439 5.3267 0
M  V30 4847 O 446.548 -0.86851 5.63749 0
M  V30 4848 O 445.482 1.0488 5.92692 0
M  V30 4849 H 449.308 1.48562 2.64883 0
M  V30 4850 H 446.893 0.787434 1.26964 0
M  V30 4851 H 448.775 -0.420102 4.19301 0
M  V30 4852 H 447.45 -0.915876 3.10473 0
M  V30 4853 H 446.357 1.37072 3.48083 0
M  V30 4854 H 447.69 1.78511 4.58688 0
M  V30 4855 N 449.342 -1.36122 0.79427 0
M  V30 4856 C 450.753 -1.81646 0.431446 0
M  V30 4857 C 451.104 -1.66043 -1.04518 0
M  V30 4858 O 450.229 -1.1841 -1.8113 0
M  V30 4859 C 450.824 -3.29785 0.776341 0
M  V30 4860 C 449.383 -3.73501 0.466282 0
M  V30 4861 C 448.53 -2.58313 1.00844 0
M  V30 4862 H 451.481 -1.24274 0.986995 0
M  V30 4863 H 451.502 -3.80437 0.0692413 0
M  V30 4864 H 451.014 -3.4111 1.8511 0
M  V30 4865 H 449.115 -3.67733 -0.600245 0
M  V30 4866 H 449.228 -4.68754 0.990288 0
M  V30 4867 H 447.592 -2.5102 0.431406 0
M  V30 4868 H 448.375 -2.72421 2.08906 0
M  V30 4869 N 450.82 -0.546701 -1.47814 0
M  V30 4870 C 452.05 -0.0232519 -2.06587 0
M  V30 4871 C 452.458 1.2712 -1.40133 0
M  V30 4872 O 451.801 1.77091 -0.488305 0
M  V30 4873 C 451.863 0.254117 -3.58601 0
M  V30 4874 C 451.527 -0.949331 -4.47031 0
M  V30 4875 C 452.524 -1.85216 -4.85789 0
M  V30 4876 C 450.209 -1.16104 -4.88697 0
M  V30 4877 C 452.203 -2.95047 -5.65001 0
M  V30 4878 C 449.89 -2.26247 -5.67676 0
M  V30 4879 C 450.888 -3.1555 -6.05737 0
M  V30 4880 O 450.576 -4.23784 -6.83127 0
M  V30 4881 H 450.308 -0.0380082 -0.674931 0
M  V30 4882 H 452.862 -0.756631 -1.90956 0
M  V30 4883 H 451.092 1.04168 -3.72406 0
M  V30 4884 H 452.781 0.72167 -3.99433 0
M  V30 4885 H 453.547 -1.70061 -4.54207 0
M  V30 4886 H 449.426 -0.475159 -4.58545 0
M  V30 4887 H 452.97 -3.64778 -5.94628 0
M  V30 4888 H 448.867 -2.41379 -5.98671 0
M  V30 4889 H 449.635 -4.21701 -7.01506 0
M  V30 4890 N 452.299 1.55045 -0.282633 0
M  V30 4891 C 453.71 1.85473 0.213655 0
M  V30 4892 C 454.061 1.20465 1.54863 0
M  V30 4893 O 453.186 0.495676 2.10647 0
M  V30 4894 C 453.781 3.36496 0.394445 0
M  V30 4895 C 452.34 3.67022 0.834961 0
M  V30 4896 C 451.487 2.77218 -0.0674081 0
M  V30 4897 H 454.438 1.50478 -0.504202 0
M  V30 4898 H 454.459 3.60007 1.23186 0
M  V30 4899 H 453.971 3.83782 -0.577326 0
M  V30 4900 H 452.072 3.25241 1.81794 0
M  V30 4901 H 452.185 4.74433 0.667075 0
M  V30 4902 H 450.549 2.5069 0.450196 0
M  V30 4903 H 451.332 3.2732 -1.0352 0
M  V30 4904 N 453.777 0.010035 1.57597 0
M  V30 4905 C 455.188 -0.531426 1.78977 0
M  V30 4906 C 455.539 -1.73375 0.918454 0
M  V30 4907 O 454.664 -2.16047 0.123635 0
M  V30 4908 C 455.259 -0.97086 3.24592 0
M  V30 4909 C 453.818 -1.45756 3.47033 0
M  V30 4910 C 452.965 -0.413384 2.74201 0
M  V30 4911 H 455.916 0.236166 1.56933 0
M  V30 4912 H 455.937 -1.83633 3.33255 0
M  V30 4913 H 455.449 -0.0955893 3.87982 0
M  V30 4914 H 453.55 -2.35339 2.88871 0
M  V30 4915 H 453.663 -1.4781 4.55729 0
M  V30 4916 H 452.027 -0.877266 2.39115 0
M  V30 4917 H 452.81 0.453092 3.40297 0
M  V30 4918 N 455.255 -1.55392 -0.262866 0
M  V30 4919 C 456.504 -1.75679 -0.990943 0
M  V30 4920 C 456.817 -0.57097 -1.87081 0
M  V30 4921 O 458.023 -0.656486 -2.63444 0
M  V30 4922 C 456.479 -3.10964 -1.81188 0
M  V30 4923 C 456.087 -4.37146 -0.980188 0
M  V30 4924 C 457.831 -3.40597 -2.53365 0
M  V30 4925 C 455.738 -5.63466 -1.7961 0
M  V30 4926 H 454.668 -0.654868 -0.373716 0
M  V30 4927 H 457.319 -1.81841 -0.246203 0
M  V30 4928 H 455.701 -2.98867 -2.59797 0
M  V30 4929 H 456.875 -4.60187 -0.237558 0
M  V30 4930 H 455.19 -4.14731 -0.372497 0
M  V30 4931 H 457.787 -4.32186 -3.14833 0
M  V30 4932 H 458.13 -2.6119 -3.24169 0
M  V30 4933 H 458.663 -3.53838 -1.81779 0
M  V30 4934 H 455.402 -6.4565 -1.13209 0
M  V30 4935 H 454.922 -5.44552 -2.51443 0
M  V30 4936 H 456.601 -6.02139 -2.36723 0
M  V30 4937 N 456.733 0.527833 -1.48498 0
M  V30 4938 C 457.68 1.6322 -1.6318 0
M  V30 4939 C 458.65 1.59199 -0.473815 0
M  V30 4940 O 459.835 1.77591 -0.697563 0
M  V30 4941 C 456.975 3.01474 -1.67951 0
M  V30 4942 C 456.088 3.15713 -2.94871 0
M  V30 4943 C 455.223 4.44539 -2.90789 0
M  V30 4944 C 454.262 4.52315 -4.12404 0
M  V30 4945 N 453.399 5.72533 -4.06387 0
M  V30 4946 H 458.239 1.50011 -2.57489 0
M  V30 4947 H 455.776 0.730298 -1.27691 0
M  V30 4948 H 457.734 3.81572 -1.68698 0
M  V30 4949 H 456.364 3.1345 -0.771306 0
M  V30 4950 H 455.416 2.28854 -3.03859 0
M  V30 4951 H 456.728 3.1732 -3.8485 0
M  V30 4952 H 455.882 5.3293 -2.89949 0
M  V30 4953 H 454.621 4.45457 -1.98542 0
M  V30 4954 H 453.626 3.62331 -4.13517 0
M  V30 4955 H 454.851 4.53134 -5.05812 0
M  V30 4956 H 452.797 5.74344 -3.16962 0
M  V30 4957 H 452.714 5.75643 -4.90073 0
M  V30 4958 H 453.982 6.63204 -4.0961 0
M  V30 4959 N 458.211 1.37122 0.776871 0
M  V30 4960 C 459.144 1.26835 1.89705 0
M  V30 4961 C 460.122 0.14992 1.61907 0
M  V30 4962 O 461.306 0.323242 1.85708 0
M  V30 4963 C 458.433 0.95986 3.24814 0
M  V30 4964 C 457.479 2.09447 3.7153 0
M  V30 4965 S 458.312 3.71368 3.85806 0
M  V30 4966 C 459.468 3.42659 5.23771 0
M  V30 4967 H 459.701 2.21647 1.98141 0
M  V30 4968 H 457.234 1.22685 0.937433 0
M  V30 4969 H 459.192 0.788696 4.02852 0
M  V30 4970 H 457.853 0.0293137 3.14086 0
M  V30 4971 H 457.046 1.8335 4.69467 0
M  V30 4972 H 456.648 2.2255 3.00578 0
M  V30 4973 H 458.94 2.9733 6.0877 0
M  V30 4974 H 459.883 4.39905 5.54878 0
M  V30 4975 H 460.291 2.77708 4.91466 0
M  V30 4976 N 459.689 -1.00246 1.21608 0
M  V30 4977 C 460.636 -2.09073 0.977613 0
M  V30 4978 C 461.606 -1.65815 -0.097297 0
M  V30 4979 O 462.791 -1.90734 0.0503445 0
M  V30 4980 C 459.931 -3.40671 0.551133 0
M  V30 4981 C 459.044 -3.97326 1.69576 0
M  V30 4982 C 458.179 -5.17043 1.2182 0
M  V30 4983 C 457.218 -5.65813 2.335 0
M  V30 4984 N 456.355 -6.76778 1.86859 0
M  V30 4985 H 461.195 -2.28806 1.90924 0
M  V30 4986 H 458.732 -1.12186 0.951452 0
M  V30 4987 H 460.69 -4.16225 0.285097 0
M  V30 4988 H 459.32 -3.20967 -0.343489 0
M  V30 4989 H 458.372 -3.18734 2.07637 0
M  V30 4990 H 459.684 -4.29511 2.53617 0
M  V30 4991 H 458.838 -5.99852 0.908975 0
M  V30 4992 H 457.577 -4.86458 0.347869 0
M  V30 4993 H 456.582 -4.81599 2.65222 0
M  V30 4994 H 457.807 -5.98427 3.21033 0
M  V30 4995 H 455.753 -6.47994 1.02174 0
M  V30 4996 H 455.67 -7.08231 2.64471 0
M  V30 4997 H 456.938 -7.63116 1.58978 0
M  V30 4998 N 461.167 -1.02423 -1.1978 0
M  V30 4999 C 462.1 -0.545641 -2.21581 0
M  V30 5000 C 463.078 0.411024 -1.57319 0
M  V30 5001 O 464.262 0.329223 -1.85603 0
M  V30 5002 C 461.389 0.204973 -3.38079 0
M  V30 5003 C 460.435 -0.70241 -4.20676 0
M  V30 5004 S 461.268 -2.17595 -4.89298 0
M  V30 5005 C 462.424 -1.43572 -6.09211 0
M  V30 5006 H 462.657 -1.4082 -2.61834 0
M  V30 5007 H 460.19 -0.833771 -1.29952 0
M  V30 5008 H 462.148 0.631924 -4.05607 0
M  V30 5009 H 460.809 1.0432 -2.9627 0
M  V30 5010 H 460.002 -0.123193 -5.03849 0
M  V30 5011 H 459.604 -1.06747 -3.58442 0
M  V30 5012 H 461.896 -0.719806 -6.73665 0
M  V30 5013 H 462.839 -2.24388 -6.71607 0
M  V30 5014 H 463.247 -0.935252 -5.56699 0
M  V30 5015 N 462.645 1.35699 -0.801477 0
M  V30 5016 C 463.87 2.03687 -0.390678 0
M  V30 5017 C 464.295 1.60015 0.988778 0
M  V30 5018 O 463.653 0.774357 1.63931 0
M  V30 5019 C 463.701 3.57439 -0.476404 0
M  V30 5020 O 462.805 4.09208 0.512106 0
M  V30 5021 H 462.146 0.64344 -0.163956 0
M  V30 5022 H 464.676 1.73403 -1.08594 0
M  V30 5023 H 464.686 4.06544 -0.344357 0
M  V30 5024 H 463.361 3.88576 -1.48262 0
M  V30 5025 H 461.938 3.7134 0.340721 0
M  V30 5026 N 464.123 0.554532 1.47522 0
M  V30 5027 C 465.369 0.0295227 2.02779 0
M  V30 5028 C 465.702 -1.31582 1.42828 0
M  V30 5029 O 464.977 -1.85561 0.582872 0
M  V30 5030 C 465.26 -0.0664057 3.60039 0
M  V30 5031 C 465.113 1.30585 4.30427 0
M  V30 5032 C 466.432 -0.781162 4.33112 0
M  V30 5033 H 463.551 0.0122027 0.736899 0
M  V30 5034 H 466.193 0.716305 1.7598 0
M  V30 5035 H 464.343 -0.651307 3.83002 0
M  V30 5036 H 466.015 1.93374 4.18813 0
M  V30 5037 H 464.258 1.88125 3.90886 0
M  V30 5038 H 464.929 1.19147 5.38988 0
M  V30 5039 H 467.405 -0.284565 4.15126 0
M  V30 5040 H 466.281 -0.817237 5.42782 0
M  V30 5041 H 466.542 -1.83672 4.0214 0
M  V30 5042 O 465.64 -1.55591 0.432879 0
M  V30 5043 H 466.331 -1.93432 -0.101927 0
M  V30 END ATOM
M  V30 BEGIN BOND
M  V30 END BOND
M  V30 END CTAB
M  END
$$$$
