drugbank_target|P12499 Gag-Pol polyprotein (DB01887; DB02804; DB04353)
 OpenBabel12092119523D

  0  0  0     0  0            999 V3000
M  V30 BEGIN CTAB
M  V30 COUNTS 22916 23168 0 0 0
M  V30 BEGIN ATOM
M  V30 1 H -0.908 1.98254 -0.117106 0
M  V30 2 N 0 1.576 0 0
M  V30 3 C 0.933 2.03868 1.02534 0
M  V30 4 C 1.911 0.928543 1.3348 0
M  V30 5 O 3.095 1.19667 1.45644 0
M  V30 6 C 0.222 2.43627 2.35294 0
M  V30 7 C -0.732 3.65373 2.2001 0
M  V30 8 S 0.101 5.13292 1.52614 0
M  V30 9 C 1.257 5.56322 2.86805 0
M  V30 10 H 1.49 2.90518 0.631377 0
M  V30 11 H -0.977 1.52953 0.210867 0
M  V30 12 H 0.981 2.67203 3.11629 0
M  V30 13 H -0.358 1.57376 2.7183 0
M  V30 14 H -1.165 3.90944 3.18086 0
M  V30 15 H -1.563 3.418 1.51819 0
M  V30 16 H 0.729 5.58782 3.83104 0
M  V30 17 H 1.672 6.56266 2.65933 0
M  V30 18 H 2.08 4.83886 2.90714 0
M  V30 19 N 1.4781 -0.272755 1.55222 0
M  V30 20 C 2.7261 -1.00234 1.75492 0
M  V30 21 C 3.0471 -1.8681 0.5592 0
M  V30 22 O 2.3171 -1.91215 -0.425882 0
M  V30 23 H 0.8971 -0.373076 0.647166 0
M  V30 24 H 3.5591 -0.296926 1.92625 0
M  V30 25 H 2.6551 -1.63913 2.65592 0
M  V30 26 N 2.9562 -1.48159 -0.537278 0
M  V30 27 C 3.9192 -1.61665 -1.62472 0
M  V30 28 C 4.9192 -0.490395 -1.5314 0
M  V30 29 O 6.1092 -0.755998 -1.5694 0
M  V30 30 C 3.2412 -1.57997 -3.02076 0
M  V30 31 H 4.4342 -2.58621 -1.51839 0
M  V30 32 H 1.9872 -1.36647 -0.758771 0
M  V30 33 H 2.7222 -0.624913 -3.18222 0
M  V30 34 H 2.5072 -2.39755 -3.10258 0
M  V30 35 H 3.9972 -1.70627 -3.81151 0
M  V30 36 N 4.4343 0.785586 -1.36625 0
M  V30 37 C 5.8503 1.08419 -1.17122 0
M  V30 38 C 6.0503 2.015 0.00208491 0
M  V30 39 O 5.1063 2.43551 0.666278 0
M  V30 40 C 6.4193 1.69498 -2.48377 0
M  V30 41 C 7.9673 1.81821 -2.54775 0
M  V30 42 C 8.4423 2.46315 -3.86126 0
M  V30 43 N 9.9333 2.53779 -3.87492 0
M  V30 44 C 10.6683 3.045 -4.85868 0
M  V30 45 N 10.1643 3.55499 -5.94637 0
M  V30 46 N 11.9573 3.03247 -4.73284 0
M  V30 47 H 4.1083 0.167264 -2.1174 0
M  V30 48 H 6.3713 0.13682 -0.938075 0
M  V30 49 H 6.0773 1.08571 -3.34522 0
M  V30 50 H 5.9513 2.6896 -2.64462 0
M  V30 51 H 8.3383 2.41884 -1.69045 0
M  V30 52 H 8.4193 0.811532 -2.42586 0
M  V30 53 H 8.0633 1.86895 -4.72263 0
M  V30 54 H 7.9933 3.47561 -3.95612 0
M  V30 55 H 10.4843 2.17672 -3.08913 0
M  V30 56 H 10.7973 3.92562 -6.65669 0
M  V30 57 H 9.1423 3.5364 -5.98301 0
M  V30 58 H 12.3333 2.62696 -3.87438 0
M  V30 59 H 12.5063 3.42467 -5.50109 0
M  V30 60 N 5.9124 1.20967 1.01018 0
M  V30 61 C 6.8754 0.965918 2.07853 0
M  V30 62 C 7.8754 -0.0610545 1.60684 0
M  V30 63 O 9.0654 0.175681 1.73312 0
M  V30 64 C 6.1974 0.455513 3.37843 0
M  V30 65 H 7.3904 1.91365 2.3091 0
M  V30 66 H 4.9434 1.02594 1.17916 0
M  V30 67 H 5.6784 -0.497381 3.20463 0
M  V30 68 H 5.4634 1.19622 3.73407 0
M  V30 69 H 6.9534 0.304667 4.16487 0
M  V30 70 N 7.3905 -1.2043 1.01659 0
M  V30 71 C 8.6155 -1.94318 0.724942 0
M  V30 72 C 9.0405 -1.74266 -0.708034 0
M  V30 73 O 8.3985 -1.03694 -1.48719 0
M  V30 74 C 8.4465 -3.44486 1.06591 0
M  V30 75 O 7.5505 -4.12017 0.177599 0
M  V30 76 H 6.8915 -0.60708 0.26898 0
M  V30 77 H 9.4215 -1.52861 1.35995 0
M  V30 78 H 9.4315 -3.95106 1.01762 0
M  V30 79 H 8.1065 -3.58404 2.10997 0
M  V30 80 H 6.6835 -3.71821 0.283421 0
M  V30 81 N 8.8686 -0.792821 -1.36206 0
M  V30 82 C 10.1146 -0.36733 -1.99446 0
M  V30 83 C 10.4476 1.05917 -1.62774 0
M  V30 84 O 9.7226 1.7324 -0.88421 0
M  V30 85 C 10.0056 -0.535044 -3.56103 0
M  V30 86 C 9.8586 -2.00548 -4.02617 0
M  V30 87 C 11.1776 0.0478191 -4.40074 0
M  V30 88 H 8.2966 -0.134941 -0.724541 0
M  V30 89 H 10.9386 -0.999794 -1.61568 0
M  V30 90 H 9.0886 0.00336329 -3.885 0
M  V30 91 H 10.7606 -2.60521 -3.80692 0
M  V30 92 H 9.0036 -2.50686 -3.54032 0
M  V30 93 H 9.6746 -2.07377 -5.11565 0
M  V30 94 H 12.1506 -0.411822 -4.14057 0
M  V30 95 H 11.0266 -0.0995336 -5.4881 0
M  V30 96 H 11.2876 1.14025 -4.27142 0
M  V30 97 N 10.3467 1.47872 -0.545128 0
M  V30 98 C 11.2767 2.32661 0.197793 0
M  V30 99 C 12.2577 1.43041 0.920504 0
M  V30 100 O 13.4427 1.71912 0.90333 0
M  V30 101 C 10.5727 3.24569 1.23582 0
M  V30 102 C 9.5267 4.23333 0.630323 0
M  V30 103 C 8.8527 5.0448 1.77211 0
M  V30 104 C 10.1527 5.20704 -0.407974 0
M  V30 105 H 11.8467 2.95024 -0.510045 0
M  V30 106 H 9.3927 1.4187 -0.246731 0
M  V30 107 H 11.3457 3.8272 1.76362 0
M  V30 108 H 10.0697 2.60236 1.97344 0
M  V30 109 H 8.7287 3.6639 0.123922 0
M  V30 110 H 8.3767 4.36561 2.49847 0
M  V30 111 H 8.0767 5.71339 1.37281 0
M  V30 112 H 9.6007 5.65487 2.3034 0
M  V30 113 H 11.0147 5.7329 0.033305 0
M  V30 114 H 9.4117 5.95699 -0.725486 0
M  V30 115 H 10.4817 4.66917 -1.30828 0
M  V30 116 N 11.8248 0.280983 1.55075 0
M  V30 117 C 13.0498 -0.340154 2.04592 0
M  V30 118 C 13.4748 -1.48246 1.15779 0
M  V30 119 O 12.8328 -1.80614 0.15761 0
M  V30 120 C 12.8808 -0.793104 3.5177 0
M  V30 121 O 11.9848 -1.89981 3.66034 0
M  V30 122 H 11.3258 -0.0694289 0.66036 0
M  V30 123 H 13.8558 0.416993 2.00306 0
M  V30 124 H 13.8658 -1.08729 3.93245 0
M  V30 125 H 12.5408 0.0426163 4.15878 0
M  V30 126 H 11.1178 -1.60771 3.36463 0
M  V30 127 N 13.3029 -1.57598 0.00835791 0
M  V30 128 C 14.5509 -1.90551 -0.6734 0
M  V30 129 C 14.8719 -0.883301 -1.73847 0
M  V30 130 O 14.1419 0.0781442 -1.95744 0
M  V30 131 H 12.7219 -0.703312 -0.251717 0
M  V30 132 H 15.3839 -1.94833 0.0512592 0
M  V30 133 H 14.4799 -2.9056 -1.13935 0
M  V30 134 N 14.781 0.264519 -1.55364 0
M  V30 135 C 16.029 0.993021 -1.76021 0
M  V30 136 C 16.35 1.86511 -0.569099 0
M  V30 137 O 15.62 1.91438 0.415735 0
M  V30 138 H 14.2 0.369639 -0.649135 0
M  V30 139 H 16.862 0.286707 -1.9278 0
M  V30 140 H 15.958 1.62502 -2.66457 0
M  V30 141 N 16.2591 1.48442 0.529413 0
M  V30 142 C 17.2061 1.63007 1.63394 0
M  V30 143 C 18.1761 0.47212 1.59249 0
M  V30 144 O 19.3611 0.695673 1.77666 0
M  V30 145 C 16.5011 1.6763 3.01653 0
M  V30 146 C 15.6141 2.94535 3.16027 0
M  V30 147 C 14.7491 2.90316 4.44849 0
M  V30 148 C 13.7881 4.11923 4.52754 0
M  V30 149 N 12.9251 4.05777 5.72965 0
M  V30 150 H 17.7651 2.5733 1.50285 0
M  V30 151 H 15.3021 1.27613 0.731656 0
M  V30 152 H 17.2601 1.68292 3.81751 0
M  V30 153 H 15.8901 0.76797 3.13532 0
M  V30 154 H 14.9421 3.03615 2.29177 0
M  V30 155 H 16.2541 3.84512 3.17729 0
M  V30 156 H 15.4081 2.89382 5.33238 0
M  V30 157 H 14.1471 1.98068 4.45668 0
M  V30 158 H 13.1521 4.13131 3.62771 0
M  V30 159 H 14.3771 5.0533 4.53672 0
M  V30 160 H 12.3231 3.16351 5.74681 0
M  V30 161 H 12.2401 4.8946 5.76164 0
M  V30 162 H 13.5081 4.08904 6.6364 0
M  V30 163 N 17.7372 -0.778329 1.37039 0
M  V30 164 C 18.6672 -1.90546 1.34962 0
M  V30 165 C 19.6482 -1.68681 0.219274 0
M  V30 166 O 20.8332 -1.89634 0.418624 0
M  V30 167 C 17.9632 -3.27734 1.14925 0
M  V30 168 C 16.9172 -3.64147 2.24902 0
M  V30 169 C 16.2432 -4.99806 1.89996 0
M  V30 170 C 17.5432 -3.71579 3.67051 0
M  V30 171 H 19.2372 -1.92541 2.29277 0
M  V30 172 H 16.7832 -0.924948 1.10366 0
M  V30 173 H 18.7362 -4.06215 1.12104 0
M  V30 174 H 17.4602 -3.26154 0.170631 0
M  V30 175 H 16.1192 -2.8797 2.26868 0
M  V30 176 H 15.7672 -4.94759 0.906796 0
M  V30 177 H 15.4672 -5.25139 2.63634 0
M  V30 178 H 16.9912 -5.80694 1.88749 0
M  V30 179 H 18.4052 -4.40227 3.67251 0
M  V30 180 H 16.8022 -4.08405 4.39688 0
M  V30 181 H 17.8722 -2.72404 4.01154 0
M  V30 182 N 19.2153 -1.21501 -1.00376 0
M  V30 183 C 20.4923 -0.941745 -1.71437 0
M  V30 184 C 20.8723 0.546114 -2.03914 0
M  V30 185 O 20.2203 1.51128 -1.71384 0
M  V30 186 C 20.4303 -1.82812 -2.97289 0
M  V30 187 C 21.7783 -2.07771 -3.70292 0
M  V30 188 O 22.8023 -1.80171 -3.07273 0
M  V30 189 O 21.6613 -2.54456 -4.83647 0
M  V30 190 H 18.7553 -0.353243 -0.747762 0
M  V30 191 H 21.3013 -1.32436 -1.06108 0
M  V30 192 H 20.0733 -2.83501 -2.69709 0
M  V30 193 H 19.6963 -1.4464 -3.70358 0
M  V30 194 N 20.6934 1.19889 -1.02296 0
M  V30 195 C 21.6564 2.21116 -0.603351 0
M  V30 196 C 22.6564 1.5738 0.329884 0
M  V30 197 O 23.8464 1.73802 0.117702 0
M  V30 198 C 20.9784 3.40696 0.117992 0
M  V30 199 H 22.1714 2.59754 -1.49893 0
M  V30 200 H 19.7244 1.33463 -0.813468 0
M  V30 201 H 20.4594 3.07569 1.0282 0
M  V30 202 H 20.2444 3.88188 -0.552511 0
M  V30 203 H 21.7344 4.15692 0.398696 0
M  V30 204 N 22.1715 0.800033 1.35784 0
M  V30 205 C 23.4175 0.38701 1.99684 0
M  V30 206 C 23.7725 -1.03268 1.62338 0
M  V30 207 O 23.0655 -1.70543 0.87325 0
M  V30 208 C 23.2595 0.500276 3.53881 0
M  V30 209 C 23.0885 1.92942 4.06206 0
M  V30 210 C 21.8585 2.55637 4.35865 0
M  V30 211 C 24.0565 2.89307 4.25213 0
M  V30 212 N 22.0385 3.9003 4.74078 0
M  V30 213 C 23.4095 4.08556 4.66349 0
M  V30 214 C 25.4645 2.86225 4.07406 0
M  V30 215 C 24.1675 5.25146 4.91543 0
M  V30 216 C 26.1935 4.02011 4.33752 0
M  V30 217 C 25.5555 5.20007 4.75155 0
M  V30 218 H 21.6545 0.189252 0.758754 0
M  V30 219 H 24.2385 1.03988 1.64604 0
M  V30 220 H 22.4095 -0.122568 3.88207 0
M  V30 221 H 24.1415 0.0624733 4.04652 0
M  V30 222 H 20.8965 2.07039 4.25948 0
M  V30 223 H 21.3205 4.59205 4.97454 0
M  V30 224 H 25.9625 1.96154 3.74544 0
M  V30 225 H 23.6805 6.15794 5.23281 0
M  V30 226 H 27.2665 4.00999 4.21534 0
M  V30 227 H 26.1465 6.08113 4.95145 0
M  V30 228 N 23.6496 -1.47581 0.552962 0
M  V30 229 C 24.5596 -2.33743 -0.200353 0
M  V30 230 C 25.5756 -1.47928 -0.916151 0
M  V30 231 O 26.7516 -1.80865 -0.885993 0
M  V30 232 C 23.8166 -3.24536 -1.21973 0
M  V30 233 C 22.8776 -4.26238 -0.511819 0
M  V30 234 C 22.1106 -5.12693 -1.48263 0
M  V30 235 O 22.3336 -5.01525 -2.71714 0
M  V30 236 O 21.2676 -5.93375 -1.00945 0
M  V30 237 H 25.0936 -2.9945 0.506304 0
M  V30 238 H 22.6786 -1.46071 0.313622 0
M  V30 239 H 24.5606 -3.80631 -1.80827 0
M  V30 240 H 23.2356 -2.61462 -1.90839 0
M  V30 241 H 22.1426 -3.73914 0.117799 0
M  V30 242 H 23.4756 -4.92014 0.135308 0
M  V30 243 N 25.1277 -0.289203 -1.54924 0
M  V30 244 C 26.0747 0.592115 -2.23075 0
M  V30 245 C 27.0447 1.13881 -1.20915 0
M  V30 246 O 28.2297 1.18551 -1.495 0
M  V30 247 C 25.3697 1.76376 -2.96623 0
M  V30 248 C 24.4827 1.24959 -4.13533 0
M  V30 249 C 23.6177 2.38416 -4.74691 0
M  V30 250 C 22.6567 1.84072 -5.83767 0
M  V30 251 N 21.7937 2.91057 -6.38929 0
M  V30 252 H 26.6337 0.00432038 -2.98 0
M  V30 253 H 24.1707 -0.00963529 -1.47097 0
M  V30 254 H 26.1287 2.45268 -3.3749 0
M  V30 255 H 24.7587 2.32337 -2.24097 0
M  V30 256 H 23.8107 0.453307 -3.77689 0
M  V30 257 H 25.1227 0.811662 -4.92152 0
M  V30 258 H 24.2767 3.15276 -5.18349 0
M  V30 259 H 23.0157 2.8553 -3.95378 0
M  V30 260 H 22.0207 1.05697 -5.39545 0
M  V30 261 H 23.2457 1.37877 -6.64956 0
M  V30 262 H 21.1917 3.37526 -5.62505 0
M  V30 263 H 21.1087 2.51724 -7.12861 0
M  V30 264 H 22.3767 3.6785 -6.87246 0
M  V30 265 N 26.6058 1.57591 -0.0167156 0
M  V30 266 C 27.8548 1.90461 0.663877 0
M  V30 267 C 28.1678 0.893515 1.73999 0
M  V30 268 O 29.3738 1.11302 2.47637 0
M  V30 269 C 27.8298 3.38155 1.23204 0
M  V30 270 C 27.4378 4.47597 0.189866 0
M  V30 271 C 29.1818 3.80111 1.88986 0
M  V30 272 C 27.0888 5.86379 0.768964 0
M  V30 273 H 26.0188 0.710738 0.251729 0
M  V30 274 H 28.6698 1.83326 -0.0799926 0
M  V30 275 H 27.0518 3.40182 2.02712 0
M  V30 276 H 28.2258 4.57112 -0.581846 0
M  V30 277 H 26.5408 4.14766 -0.368475 0
M  V30 278 H 29.1378 4.81145 2.33247 0
M  V30 279 H 29.4808 3.14511 2.72743 0
M  V30 280 H 30.0138 3.80454 1.16187 0
M  V30 281 H 26.7528 6.55493 -0.0301957 0
M  V30 282 H 26.2728 5.80496 1.50945 0
M  V30 283 H 27.9518 6.34563 1.26251 0
M  V30 284 N 28.0839 -0.256276 1.55502 0
M  V30 285 C 29.4999 -0.604325 1.47716 0
M  V30 286 C 29.6999 -1.88763 0.705039 0
M  V30 287 O 28.7559 -2.51445 0.230613 0
M  V30 288 C 30.0689 -0.715756 2.92057 0
M  V30 289 C 31.6169 -0.808706 3.02372 0
M  V30 290 C 32.0919 -0.951777 4.48001 0
M  V30 291 N 33.5829 -1.01688 4.519 0
M  V30 292 C 34.3179 -1.14668 5.61817 0
M  V30 293 N 33.8139 -1.24261 6.81565 0
M  V30 294 N 35.6069 -1.1791 5.49594 0
M  V30 295 H 27.7579 0.586291 2.04148 0
M  V30 296 H 30.0209 0.201015 0.926443 0
M  V30 297 H 29.7269 0.157027 3.51349 0
M  V30 298 H 29.6009 -1.59071 3.42018 0
M  V30 299 H 31.9879 -1.67195 2.43166 0
M  V30 300 H 32.0689 0.0912063 2.55637 0
M  V30 301 H 31.7129 -0.0931291 5.07815 0
M  V30 302 H 31.6429 -1.86659 4.92408 0
M  V30 303 H 34.1339 -0.954468 3.65648 0
M  V30 304 H 34.4469 -1.34046 7.61086 0
M  V30 305 H 32.7919 -1.21236 6.84344 0
M  V30 306 H 35.9829 -1.10057 4.54978 0
M  V30 307 H 36.1559 -1.27681 6.35296 0
M  V30 308 N 29.562 -1.4872 -0.521534 0
M  V30 309 C 30.492 -1.66771 -1.63431 0
M  V30 310 C 31.473 -0.516499 -1.62069 0
M  V30 311 O 32.658 -0.750013 -1.79132 0
M  V30 312 C 29.788 -1.71515 -3.01993 0
M  V30 313 C 28.742 -2.86222 -3.18216 0
M  V30 314 C 28.068 -2.76061 -4.57924 0
M  V30 315 C 29.368 -4.27419 -3.00184 0
M  V30 316 H 31.062 -2.59932 -1.48579 0
M  V30 317 H 28.608 -1.25089 -0.713358 0
M  V30 318 H 30.561 -1.82731 -3.7972 0
M  V30 319 H 29.285 -0.749393 -3.17886 0
M  V30 320 H 27.944 -2.74575 -2.42908 0
M  V30 321 H 27.592 -1.77437 -4.70665 0
M  V30 322 H 27.292 -3.53037 -4.69722 0
M  V30 323 H 28.816 -2.89256 -5.37739 0
M  V30 324 H 30.23 -4.39855 -3.67697 0
M  V30 325 H 28.627 -5.05458 -3.2347 0
M  V30 326 H 29.697 -4.43293 -1.96518 0
M  V30 327 N 31.0401 0.771051 -1.3745 0
M  V30 328 C 32.4561 1.07171 -1.18265 0
M  V30 329 C 32.6561 2.01491 -0.019287 0
M  V30 330 O 31.7121 2.44244 0.640408 0
M  V30 331 C 33.0251 1.66854 -2.50161 0
M  V30 332 C 34.5731 1.79109 -2.56689 0
M  V30 333 C 35.0481 2.42205 -3.88717 0
M  V30 334 N 36.5391 2.49655 -3.90162 0
M  V30 335 C 37.2741 2.9933 -4.8907 0
M  V30 336 N 36.7701 3.49172 -5.98374 0
M  V30 337 N 38.5631 2.9821 -4.76474 0
M  V30 338 H 30.7141 0.144796 -2.11906 0
M  V30 339 H 32.9771 0.126863 -0.939473 0
M  V30 340 H 32.6831 1.05017 -3.35655 0
M  V30 341 H 32.5571 2.6614 -2.673 0
M  V30 342 H 34.9441 2.40077 -1.71601 0
M  V30 343 H 35.0251 0.785757 -2.43433 0
M  V30 344 H 34.6691 1.81875 -4.74219 0
M  V30 345 H 34.5991 3.43345 -3.99276 0
M  V30 346 H 37.0901 2.14383 -3.11205 0
M  V30 347 H 37.4031 3.8548 -6.69795 0
M  V30 348 H 35.7481 3.47275 -6.02018 0
M  V30 349 H 38.9391 2.58572 -3.90203 0
M  V30 350 H 39.1121 3.36613 -5.53711 0
M  V30 351 N 32.5182 1.22032 0.997298 0
M  V30 352 C 33.9292 1.0397 1.55071 0
M  V30 353 C 34.2802 -0.398192 1.92117 0
M  V30 354 O 33.4052 -1.28254 1.74298 0
M  V30 355 C 34.0002 1.88109 2.81781 0
M  V30 356 C 32.5592 1.74357 3.33581 0
M  V30 357 C 31.7062 1.84846 2.06706 0
M  V30 358 H 34.6572 1.35941 0.818883 0
M  V30 359 H 34.6782 1.39589 3.53971 0
M  V30 360 H 34.1902 2.92754 2.54787 0
M  V30 361 H 32.2912 0.72427 3.65493 0
M  V30 362 H 32.4042 2.56772 4.04481 0
M  V30 363 H 30.7682 1.28238 2.20062 0
M  V30 364 H 31.5512 2.91014 1.82114 0
M  V30 365 N 33.9963 -1.19345 1.0293 0
M  V30 366 C 35.2443 -1.88665 0.724574 0
M  V30 367 C 35.5653 -1.80036 -0.749144 0
M  V30 368 O 34.8353 -1.2111 -1.53978 0
M  V30 369 H 33.4153 -0.698406 0.265025 0
M  V30 370 H 36.0773 -1.44885 1.30362 0
M  V30 371 H 35.1733 -2.94987 1.01926 0
M  V30 372 N 35.4744 -0.807222 -1.35358 0
M  V30 373 C 36.7224 -0.387122 -1.98358 0
M  V30 374 C 37.0434 1.04942 -1.64354 0
M  V30 375 O 36.3134 1.72615 -0.926339 0
M  V30 376 H 34.8934 -0.140154 -0.733734 0
M  V30 377 H 37.5554 -1.0332 -1.6526 0
M  V30 378 H 36.6514 -0.493352 -3.08176 0
M  V30 379 N 36.9525 1.47285 -0.560781 0
M  V30 380 C 37.8995 2.30058 0.18491 0
M  V30 381 C 38.8695 1.39281 0.904986 0
M  V30 382 O 40.0545 1.68241 0.899979 0
M  V30 383 C 37.1945 3.23317 1.20666 0
M  V30 384 C 36.3075 4.29186 0.492285 0
M  V30 385 C 35.4425 5.09592 1.49964 0
M  V30 386 C 34.4815 6.07232 0.770439 0
M  V30 387 N 33.6185 6.80584 1.72479 0
M  V30 388 H 38.4585 2.93302 -0.527048 0
M  V30 389 H 35.9955 1.44568 -0.271738 0
M  V30 390 H 37.9535 3.75811 1.81168 0
M  V30 391 H 36.5835 2.61929 1.88661 0
M  V30 392 H 35.6355 3.7972 -0.227333 0
M  V30 393 H 36.9475 4.98738 -0.0787929 0
M  V30 394 H 36.1015 5.66254 2.17809 0
M  V30 395 H 34.8405 4.3995 2.10464 0
M  V30 396 H 33.8455 5.49745 0.0780846 0
M  V30 397 H 35.0705 6.78884 0.171134 0
M  V30 398 H 33.0165 6.1367 2.3183 0
M  V30 399 H 32.9335 7.46319 1.20596 0
M  V30 400 H 34.2015 7.41818 2.39428 0
M  V30 401 N 38.4306 0.297415 1.54768 0
M  V30 402 C 39.3776 -0.580276 2.23386 0
M  V30 403 C 40.3476 -1.13238 1.21517 0
M  V30 404 O 41.5326 -1.17757 1.50126 0
M  V30 405 C 38.6726 -1.74801 2.97555 0
M  V30 406 C 37.7856 -1.22764 4.1419 0
M  V30 407 C 36.9206 -2.35895 4.75949 0
M  V30 408 C 35.9596 -1.80974 5.84735 0
M  V30 409 N 35.0966 -2.87664 6.40464 0
M  V30 410 H 39.9366 0.0114833 2.97998 0
M  V30 411 H 37.4736 0.0174361 1.4709 0
M  V30 412 H 39.4316 -2.43475 3.38786 0
M  V30 413 H 38.0616 -2.31145 2.25326 0
M  V30 414 H 37.1136 -0.433271 3.77924 0
M  V30 415 H 38.4256 -0.785551 4.92575 0
M  V30 416 H 37.5796 -3.12523 5.20014 0
M  V30 417 H 36.3186 -2.83429 3.96887 0
M  V30 418 H 35.3236 -1.02834 5.40097 0
M  V30 419 H 36.5486 -1.34348 6.65678 0
M  V30 420 H 34.4946 -3.34538 5.64287 0
M  V30 421 H 34.4116 -2.4794 7.14186 0
M  V30 422 H 35.6796 -3.642 6.89187 0
M  V30 423 N 39.9087 -1.5758 0.0250728 0
M  V30 424 C 40.8557 -2.09973 -0.958129 0
M  V30 425 C 41.8257 -1.00085 -1.3256 0
M  V30 426 O 43.0107 -1.27481 -1.41962 0
M  V30 427 C 40.1507 -2.62812 -2.2366 0
M  V30 428 C 39.2637 -3.86693 -1.92594 0
M  V30 429 C 38.3987 -4.27941 -3.14707 0
M  V30 430 C 37.4377 -5.44591 -2.79442 0
M  V30 431 N 36.5747 -5.81014 -3.94167 0
M  V30 432 H 41.4147 -2.937 -0.504428 0
M  V30 433 H 38.9517 -1.45172 -0.237392 0
M  V30 434 H 40.9097 -2.91536 -2.98434 0
M  V30 435 H 39.5397 -1.81922 -2.66654 0
M  V30 436 H 38.5917 -3.64723 -1.0808 0
M  V30 437 H 39.9037 -4.71547 -1.62619 0
M  V30 438 H 39.0577 -4.58079 -3.97804 0
M  V30 439 H 37.7967 -3.41845 -3.4784 0
M  V30 440 H 36.8017 -5.1415 -1.94755 0
M  V30 441 H 38.0267 -6.32382 -2.47528 0
M  V30 442 H 35.9727 -4.97874 -4.2715 0
M  V30 443 H 35.8897 -6.60498 -3.67801 0
M  V30 444 H 37.1577 -6.15756 -4.7798 0
M  V30 445 N 41.3868 0.248026 -1.55636 0
M  V30 446 C 42.6168 0.992367 -1.81206 0
M  V30 447 C 43.0248 1.7949 -0.598324 0
M  V30 448 O 42.3678 1.78292 0.442434 0
M  V30 449 C 42.4298 1.97926 -3.00109 0
M  V30 450 C 42.0938 1.36377 -4.36177 0
M  V30 451 C 43.0908 0.76682 -5.14214 0
M  V30 452 C 40.7758 1.38347 -4.82872 0
M  V30 453 C 42.7698 0.197778 -6.37093 0
M  V30 454 C 40.4568 0.810574 -6.057 0
M  V30 455 C 41.4548 0.218754 -6.8265 0
M  V30 456 O 41.1428 -0.345298 -8.03158 0
M  V30 457 H 40.8748 0.297704 -0.606917 0
M  V30 458 H 43.4288 0.276517 -2.0353 0
M  V30 459 H 41.6588 2.73339 -2.73538 0
M  V30 460 H 43.3478 2.58694 -3.12781 0
M  V30 461 H 44.1138 0.744114 -4.79258 0
M  V30 462 H 39.9928 1.8335 -4.2297 0
M  V30 463 H 43.5368 -0.264788 -6.97097 0
M  V30 464 H 39.4338 0.830604 -6.40134 0
M  V30 465 H 40.2018 -0.237055 -8.18157 0
M  V30 466 N 42.8649 1.48995 0.513639 0
M  V30 467 C 44.2809 1.35478 0.843682 0
M  V30 468 C 44.4809 0.378213 1.97919 0
M  V30 469 O 43.5369 -0.194689 2.51748 0
M  V30 470 C 44.8499 2.75901 1.1958 0
M  V30 471 C 46.3979 2.84509 1.30474 0
M  V30 472 C 46.8729 4.25671 1.69021 0
M  V30 473 N 48.3639 4.28422 1.76094 0
M  V30 474 C 49.0989 5.34601 2.07338 0
M  V30 475 N 48.5949 6.5104 2.36894 0
M  V30 476 N 50.3879 5.22007 2.08483 0
M  V30 477 H 42.5389 2.11092 -0.235328 0
M  V30 478 H 44.8019 0.947039 -0.0426669 0
M  V30 479 H 44.5079 3.49001 0.434913 0
M  V30 480 H 44.3819 3.10467 2.1422 0
M  V30 481 H 46.7689 2.11655 2.05637 0
M  V30 482 H 46.8499 2.53542 0.339155 0
M  V30 483 H 46.4939 4.99048 0.944135 0
M  V30 484 H 46.4239 4.54094 2.66658 0
M  V30 485 H 48.9149 3.44441 1.55464 0
M  V30 486 H 49.2279 7.2779 2.59887 0
M  V30 487 H 47.5729 6.54287 2.34378 0
M  V30 488 H 50.7639 4.30051 1.84861 0
M  V30 489 H 50.9369 6.04854 2.325 0
M  V30 490 N 44.343 -0.763751 1.37857 0
M  V30 491 C 45.273 -1.89103 1.36975 0
M  V30 492 C 46.254 -1.68439 0.237152 0
M  V30 493 O 47.439 -1.8918 0.438713 0
M  V30 494 C 44.569 -3.26496 1.18395 0
M  V30 495 C 43.523 -3.61741 2.28751 0
M  V30 496 C 42.849 -4.97762 1.95286 0
M  V30 497 C 44.149 -3.67665 3.70972 0
M  V30 498 H 45.843 -1.90099 2.31307 0
M  V30 499 H 43.389 -0.91319 1.11341 0
M  V30 500 H 45.342 -4.05003 1.16406 0
M  V30 501 H 44.066 -3.25955 0.205215 0
M  V30 502 H 42.725 -2.85547 2.29909 0
M  V30 503 H 42.373 -4.93769 0.959221 0
M  V30 504 H 42.073 -5.22313 2.69189 0
M  V30 505 H 43.597 -5.7866 1.94898 0
M  V30 506 H 45.011 -4.36307 3.719 0
M  V30 507 H 43.408 -4.03718 4.43995 0
M  V30 508 H 44.478 -2.68134 4.0402 0
M  V30 509 N 45.8211 -1.22559 -0.990812 0
M  V30 510 C 46.7681 -0.997519 -2.0813 0
M  V30 511 C 47.7381 0.0814702 -1.659 0
M  V30 512 O 48.9231 -0.0685424 -1.90677 0
M  V30 513 C 46.0631 -0.583615 -3.40129 0
M  V30 514 C 45.1761 -1.7336 -3.9569 0
M  V30 515 C 44.3111 -1.26748 -5.15857 0
M  V30 516 C 43.3501 -2.38888 -5.63559 0
M  V30 517 N 42.4871 -1.93308 -6.74964 0
M  V30 518 H 47.3271 -1.93099 -2.26973 0
M  V30 519 H 44.8641 -0.962114 -1.11273 0
M  V30 520 H 46.8221 -0.324801 -4.15934 0
M  V30 521 H 45.4521 0.312845 -3.2128 0
M  V30 522 H 44.5041 -2.10669 -3.16738 0
M  V30 523 H 45.8161 -2.57704 -4.27071 0
M  V30 524 H 44.9701 -0.966173 -5.98957 0
M  V30 525 H 43.7091 -0.394272 -4.86104 0
M  V30 526 H 42.7141 -2.69805 -4.79046 0
M  V30 527 H 43.9391 -3.26728 -5.95336 0
M  V30 528 H 41.8851 -1.08352 -6.4699 0
M  V30 529 H 41.8021 -2.71217 -7.05675 0
M  V30 530 H 43.0701 -1.66252 -7.61564 0
M  V30 531 N 47.2992 1.18797 -1.03562 0
M  V30 532 C 48.2492 2.20161 -0.592724 0
M  V30 533 C 49.2332 1.56772 0.362133 0
M  V30 534 O 50.4252 1.76062 0.182009 0
M  V30 535 C 47.5542 3.43266 0.0481024 0
M  V30 536 C 46.6402 4.13786 -0.9296 0
M  V30 537 N 47.0312 4.60388 -2.09467 0
M  V30 538 C 45.3292 4.39572 -0.754499 0
M  V30 539 C 46.0302 5.14619 -2.71187 0
M  V30 540 N 45.0062 5.05826 -1.991 0
M  V30 541 H 48.8082 2.53877 -1.48066 0
M  V30 542 H 46.3222 1.34946 -0.903514 0
M  V30 543 H 48.3192 4.15136 0.383058 0
M  V30 544 H 46.9792 3.11048 0.931636 0
M  V30 545 H 47.9902 4.54999 -2.47379 0
M  V30 546 H 44.6672 4.17425 0.0793713 0
M  V30 547 H 46.0572 5.60917 -3.69895 0
M  V30 548 N 48.7773 0.814389 1.34928 0
M  V30 549 C 49.7073 0.244827 2.32213 0
M  V30 550 C 50.6883 -0.634024 1.57842 0
M  V30 551 O 51.8733 -0.562676 1.8587 0
M  V30 552 C 49.0033 -0.601106 3.42058 0
M  V30 553 C 47.9573 0.179896 4.27622 0
M  V30 554 C 47.2833 -0.788237 5.28858 0
M  V30 555 C 48.5833 1.38329 5.03649 0
M  V30 556 H 50.2773 1.05763 2.80097 0
M  V30 557 H 47.8233 0.510029 1.34665 0
M  V30 558 H 49.7763 -1.00968 4.09125 0
M  V30 559 H 48.5003 -1.44688 2.92802 0
M  V30 560 H 47.1593 0.569739 3.62146 0
M  V30 561 H 46.8073 -1.62973 4.75866 0
M  V30 562 H 46.5073 -0.269942 5.8698 0
M  V30 563 H 48.0313 -1.19485 5.98795 0
M  V30 564 H 49.4453 1.04918 5.63618 0
M  V30 565 H 47.8423 1.83662 5.71304 0
M  V30 566 H 48.9123 2.16592 4.33839 0
M  V30 567 N 50.2554 -1.46986 0.568584 0
M  V30 568 C 51.5014 -2.02741 0.0488709 0
M  V30 569 C 51.8344 -1.44077 -1.30214 0
M  V30 570 O 51.1094 -0.600552 -1.84996 0
M  V30 571 C 51.3924 -3.60086 -0.032047 0
M  V30 572 C 51.2454 -4.29162 1.34686 0
M  V30 573 C 52.5644 -4.33838 -0.739798 0
M  V30 574 H 49.6834 -0.736749 0.0192338 0
M  V30 575 H 52.3254 -1.75289 0.733065 0
M  V30 576 H 50.4754 -3.83606 -0.61473 0
M  V30 577 H 52.1474 -4.16948 1.97362 0
M  V30 578 H 50.3904 -3.89073 1.91846 0
M  V30 579 H 51.0614 -5.37826 1.24285 0
M  V30 580 H 53.5374 -4.15378 -0.244939 0
M  V30 581 H 52.4134 -5.43537 -0.765406 0
M  V30 582 H 52.6744 -4.03875 -1.79827 0
M  V30 583 N 51.7335 -0.305618 -1.54608 0
M  V30 584 C 52.9795 0.295595 -2.01241 0
M  V30 585 C 53.3345 1.51171 -1.19018 0
M  V30 586 O 52.6275 1.89832 -0.259684 0
M  V30 587 C 52.8215 0.698983 -3.50498 0
M  V30 588 C 52.6505 -0.476491 -4.47168 0
M  V30 589 C 51.4205 -0.969963 -4.95903 0
M  V30 590 C 53.6185 -1.32294 -4.96994 0
M  V30 591 N 51.6005 -2.11172 -5.76437 0
M  V30 592 C 52.9715 -2.31212 -5.75275 0
M  V30 593 C 55.0265 -1.35278 -4.7917 0
M  V30 594 C 53.7295 -3.32896 -6.37631 0
M  V30 595 C 55.7555 -2.35823 -5.42348 0
M  V30 596 C 55.1175 -3.33469 -6.20466 0
M  V30 597 H 51.2165 0.0724992 -0.778632 0
M  V30 598 H 53.8005 -0.436583 -1.89742 0
M  V30 599 H 51.9715 1.40032 -3.62278 0
M  V30 600 H 53.7035 1.28013 -3.8392 0
M  V30 601 H 50.4585 -0.544178 -4.70463 0
M  V30 602 H 50.8825 -2.68714 -6.21387 0
M  V30 603 H 55.5245 -0.61157 -4.18354 0
M  V30 604 H 53.2425 -4.07933 -6.97579 0
M  V30 605 H 56.8285 -2.38911 -5.30484 0
M  V30 606 H 55.7085 -4.09996 -6.68485 0
M  V30 607 N 53.2116 1.57565 -0.0334293 0
M  V30 608 C 54.1746 2.09393 0.932048 0
M  V30 609 C 55.1746 1.00986 1.25134 0
M  V30 610 O 56.3646 1.27129 1.19096 0
M  V30 611 C 53.4966 2.56338 2.2473 0
M  V30 612 H 54.6896 2.95984 0.483085 0
M  V30 613 H 52.2426 1.54819 0.21468 0
M  V30 614 H 52.9776 1.7309 2.74245 0
M  V30 615 H 52.7626 3.35542 2.02865 0
M  V30 616 H 54.2526 2.96646 2.93923 0
M  V30 617 N 54.6897 -0.239769 1.55765 0
M  V30 618 C 55.9147 -0.988373 1.82335 0
M  V30 619 C 56.3397 -1.77886 0.611421 0
M  V30 620 O 55.6977 -1.75889 -0.439639 0
M  V30 621 C 55.7457 -1.89627 3.06715 0
M  V30 622 O 54.8497 -2.98904 2.84131 0
M  V30 623 H 54.1907 -0.280858 0.601677 0
M  V30 624 H 56.7207 -0.258597 2.02959 0
M  V30 625 H 56.7307 -2.30957 3.36338 0
M  V30 626 H 55.4057 -1.31511 3.9456 0
M  V30 627 H 53.9827 -2.61651 2.65694 0
M  V30 628 N 56.1678 -1.49265 -0.50573 0
M  V30 629 C 57.5838 -1.35923 -0.836486 0
M  V30 630 C 57.7838 -0.388704 -1.97715 0
M  V30 631 O 56.8398 0.181336 -2.51848 0
M  V30 632 C 58.1528 -2.76531 -1.18115 0
M  V30 633 C 59.7008 -2.85197 -1.28964 0
M  V30 634 C 60.1758 -4.26561 -1.66761 0
M  V30 635 N 61.6668 -4.2935 -1.73819 0
M  V30 636 C 62.4018 -5.35693 -2.045 0
M  V30 637 N 61.8978 -6.52287 -2.33438 0
M  V30 638 N 63.6908 -5.23105 -2.05711 0
M  V30 639 H 55.8418 -2.10965 0.246519 0
M  V30 640 H 58.1048 -0.9468 0.0476887 0
M  V30 641 H 57.8108 -3.49226 -0.416398 0
M  V30 642 H 57.6848 -3.11599 -2.1257 0
M  V30 643 H 60.0718 -2.12742 -2.04511 0
M  V30 644 H 60.1528 -2.53718 -0.325704 0
M  V30 645 H 59.7968 -4.99541 -0.917656 0
M  V30 646 H 59.7268 -4.55502 -2.64246 0
M  V30 647 H 62.2178 -3.4526 -1.53635 0
M  V30 648 H 62.5308 -7.29158 -2.56024 0
M  V30 649 H 60.8758 -6.55521 -2.30905 0
M  V30 650 H 64.0668 -4.31026 -1.82577 0
M  V30 651 H 64.2398 -6.06078 -2.29289 0
M  V30 652 N 57.6459 0.756429 -1.3826 0
M  V30 653 C 58.5559 1.9009 -1.37488 0
M  V30 654 C 59.5719 1.71855 -0.272366 0
M  V30 655 O 60.7479 1.94827 -0.510318 0
M  V30 656 C 57.8129 3.25421 -1.19592 0
M  V30 657 C 56.8739 3.56202 -2.39622 0
M  V30 658 C 56.1069 4.85075 -2.2257 0
M  V30 659 O 56.3299 5.57246 -1.21793 0
M  V30 660 O 55.2639 5.15269 -3.11098 0
M  V30 661 H 59.0899 1.93695 -2.33914 0
M  V30 662 H 56.6749 0.901313 -1.1915 0
M  V30 663 H 58.5569 4.06337 -1.11661 0
M  V30 664 H 57.2319 3.22634 -0.262486 0
M  V30 665 H 56.1389 2.75458 -2.53128 0
M  V30 666 H 57.4719 3.63747 -3.31586 0
M  V30 667 N 59.124 1.23083 0.984299 0
M  V30 668 C 60.054 1.03292 2.09411 0
M  V30 669 C 61.035 -0.048923 1.7003 0
M  V30 670 O 62.22 0.114967 1.93859 0
M  V30 671 C 59.35 0.619155 3.41736 0
M  V30 672 C 58.304 1.64791 3.95004 0
M  V30 673 C 57.63 1.0897 5.23478 0
M  V30 674 C 58.93 3.03999 4.24714 0
M  V30 675 H 60.624 1.96119 2.26225 0
M  V30 676 H 58.17 0.944344 1.08711 0
M  V30 677 H 60.123 0.467777 4.18796 0
M  V30 678 H 58.847 -0.344786 3.24775 0
M  V30 679 H 57.506 1.78721 3.20085 0
M  V30 680 H 57.154 0.11686 5.02864 0
M  V30 681 H 56.854 1.77704 5.60085 0
M  V30 682 H 58.378 0.950093 6.03163 0
M  V30 683 H 59.792 2.93393 4.92538 0
M  V30 684 H 58.189 3.69936 4.72512 0
M  V30 685 H 59.259 3.53285 3.32142 0
M  V30 686 N 60.6021 -1.18246 1.0419 0
M  V30 687 C 61.5121 -2.25574 0.644476 0
M  V30 688 C 62.5281 -1.70845 -0.329826 0
M  V30 689 O 63.7041 -2.00554 -0.184443 0
M  V30 690 C 60.7691 -3.46697 0.014877 0
M  V30 691 C 59.8301 -4.16554 1.03834 0
M  V30 692 C 59.0631 -5.31894 0.438692 0
M  V30 693 O 59.2861 -5.65385 -0.754752 0
M  V30 694 O 58.2201 -5.90459 1.168 0
M  V30 695 H 62.0461 -2.61836 1.53869 0
M  V30 696 H 59.6311 -1.25352 0.812854 0
M  V30 697 H 61.5131 -4.20062 -0.335538 0
M  V30 698 H 60.1881 -3.12255 -0.853138 0
M  V30 699 H 59.0951 -3.45251 1.44057 0
M  V30 700 H 60.4281 -4.54998 1.87716 0
M  V30 701 N 62.0802 -0.821533 -1.34494 0
M  V30 702 C 63.4962 -0.507117 -1.51329 0
M  V30 703 C 63.6962 0.968964 -1.76673 0
M  V30 704 O 62.7522 1.75348 -1.81685 0
M  V30 705 C 64.0652 -1.36544 -2.67911 0
M  V30 706 C 65.6132 -1.36242 -2.81793 0
M  V30 707 C 66.0882 -2.2052 -4.01416 0
M  V30 708 N 67.5792 -2.18136 -4.08621 0
M  V30 709 C 68.3142 -2.80095 -5.00334 0
M  V30 710 N 67.8102 -3.51039 -5.9728 0
M  V30 711 N 69.6032 -2.69656 -4.93196 0
M  V30 712 H 61.7542 -1.77729 -1.16302 0
M  V30 713 H 64.0172 -0.757291 -0.570276 0
M  V30 714 H 63.7232 -2.41361 -2.55808 0
M  V30 715 H 63.5972 -1.02917 -3.62888 0
M  V30 716 H 65.9842 -0.322041 -2.93338 0
M  V30 717 H 66.0652 -1.73866 -1.87628 0
M  V30 718 H 65.7092 -3.24607 -3.90631 0
M  V30 719 H 65.6392 -1.80247 -4.94791 0
M  V30 720 H 68.1302 -1.6653 -3.39229 0
M  V30 721 H 68.4432 -3.95565 -6.63889 0
M  V30 722 H 66.7882 -3.55145 -5.97409 0
M  V30 723 H 69.9792 -2.13808 -4.16418 0
M  V30 724 H 70.1522 -3.1823 -5.64476 0
M  V30 725 N 63.5583 1.46682 -0.576371 0
M  V30 726 C 64.8053 2.02412 -0.0595339 0
M  V30 727 C 65.1333 1.44859 1.29793 0
M  V30 728 O 64.3883 0.601099 1.8624 0
M  V30 729 C 64.6873 3.57345 0.062886 0
M  V30 730 C 64.3533 4.33908 -1.22616 0
M  V30 731 C 63.0153 4.54544 -1.57933 0
M  V30 732 C 65.3673 4.77919 -2.07948 0
M  V30 733 C 62.6953 5.16444 -2.78393 0
M  V30 734 C 65.0473 5.41149 -3.27629 0
M  V30 735 C 63.7113 5.60014 -3.63236 0
M  V30 736 H 62.9813 0.74068 -0.021785 0
M  V30 737 H 65.6283 1.76128 -0.751735 0
M  V30 738 H 63.9333 3.82729 0.838178 0
M  V30 739 H 65.6303 3.98136 0.478439 0
M  V30 740 H 62.2203 4.18138 -0.941202 0
M  V30 741 H 66.4043 4.61738 -1.81967 0
M  V30 742 H 61.6603 5.29242 -3.06126 0
M  V30 743 H 65.8343 5.74211 -3.94023 0
M  V30 744 H 63.4613 6.07748 -4.56669 0
M  V30 745 N 65.0364 0.313813 1.54444 0
M  V30 746 C 65.9994 -0.54379 2.22656 0
M  V30 747 C 66.9994 -1.05124 1.21678 0
M  V30 748 O 68.1894 -0.945225 1.46325 0
M  V30 749 C 65.3214 -1.75427 2.92298 0
M  V30 750 H 66.5144 0.0523599 2.99854 0
M  V30 751 H 64.0674 0.0647834 1.56166 0
M  V30 752 H 64.8024 -2.38991 2.19211 0
M  V30 753 H 64.5874 -1.39791 3.66334 0
M  V30 754 H 66.0774 -2.36325 3.44297 0
M  V30 755 N 66.5145 -1.57545 0.0417849 0
M  V30 756 C 67.4445 -2.14009 -0.933929 0
M  V30 757 C 68.4255 -1.05938 -1.33083 0
M  V30 758 O 69.6105 -1.33833 -1.40721 0
M  V30 759 C 66.7405 -2.67747 -2.21199 0
M  V30 760 C 65.6945 -3.80718 -1.95544 0
M  V30 761 C 65.0205 -4.20935 -3.29724 0
M  V30 762 C 66.3205 -5.06258 -1.28452 0
M  V30 763 H 68.0145 -2.95788 -0.463645 0
M  V30 764 H 65.5605 -1.42285 -0.221573 0
M  V30 765 H 67.5135 -3.05886 -2.89848 0
M  V30 766 H 66.2375 -1.83147 -2.70416 0
M  V30 767 H 64.8965 -3.43037 -1.2931 0
M  V30 768 H 64.5445 -3.33298 -3.76724 0
M  V30 769 H 64.2445 -4.9707 -3.13361 0
M  V30 770 H 65.7685 -4.61666 -3.9962 0
M  V30 771 H 67.1825 -5.41903 -1.8712 0
M  V30 772 H 65.5795 -5.87475 -1.22445 0
M  V30 773 H 66.6495 -4.84207 -0.259219 0
M  V30 774 N 67.9926 0.231505 -1.5589 0
M  V30 775 C 68.9406 1.30649 -1.92441 0
M  V30 776 C 69.9346 1.49037 -0.805254 0
M  V30 777 O 71.1406 1.50329 -0.990007 0
M  V30 778 H 67.5156 0.437812 -0.611412 0
M  V30 779 H 69.4866 0.970973 -2.82161 0
M  V30 780 C 68.2356 2.65179 -2.24889 0
M  V30 781 H 67.5586 2.51835 -3.10514 0
M  V30 782 H 68.9986 3.39234 -2.54355 0
M  V30 783 C 67.4576 3.19439 -1.07054 0
M  V30 784 O 67.9876 4.00371 -0.326499 0
M  V30 785 N 66.1936 2.77675 -0.85703 0
M  V30 786 H 65.7406 2.11969 -1.46379 0
M  V30 787 H 65.6986 3.14321 -0.0703223 0
M  V30 788 N 69.4707 1.49531 0.497807 0
M  V30 789 C 70.8817 1.52344 1.07927 0
M  V30 790 C 71.2327 0.311469 1.93712 0
M  V30 791 O 70.3577 -0.578405 2.08527 0
M  V30 792 C 70.9527 2.76062 1.96405 0
M  V30 793 C 69.5117 2.81643 2.49709 0
M  V30 794 C 68.6587 2.46299 1.27404 0
M  V30 795 H 71.6097 1.56182 0.281576 0
M  V30 796 H 71.6307 2.56405 2.81135 0
M  V30 797 H 71.1427 3.64254 1.33943 0
M  V30 798 H 69.2437 1.97739 3.15801 0
M  V30 799 H 69.3567 3.83891 2.86643 0
M  V30 800 H 67.7207 1.98148 1.60029 0
M  V30 801 H 68.5037 3.36769 0.66645 0
M  V30 802 N 70.9488 -0.749086 1.3866 0
M  V30 803 C 72.1968 -1.50535 1.34847 0
M  V30 804 C 72.5178 -1.94909 -0.0595016 0
M  V30 805 O 71.7878 -1.67973 -1.00806 0
M  V30 806 H 70.3678 -0.558395 0.49619 0
M  V30 807 H 73.0298 -0.890165 1.73384 0
M  V30 808 H 72.1258 -2.39413 2.00219 0
M  V30 809 N 72.4269 -1.23603 -0.977757 0
M  V30 810 C 73.3569 -1.04401 -2.0886 0
M  V30 811 C 74.3379 0.0399052 -1.70053 0
M  V30 812 O 75.5229 -0.125246 -1.93796 0
M  V30 813 C 72.6529 -0.637269 -3.41403 0
M  V30 814 C 71.6069 -1.66883 -3.94124 0
M  V30 815 C 70.9329 -1.11745 -5.22893 0
M  V30 816 C 72.2329 -3.06247 -4.23096 0
M  V30 817 H 73.9269 -1.97316 -2.25182 0
M  V30 818 H 71.4729 -0.950096 -1.08209 0
M  V30 819 H 73.4259 -0.48998 -4.18542 0
M  V30 820 H 72.1499 0.327557 -3.24953 0
M  V30 821 H 70.8089 -1.80416 -3.19133 0
M  V30 822 H 70.4569 -0.143527 -5.02795 0
M  V30 823 H 70.1569 -1.80672 -5.59134 0
M  V30 824 H 71.6809 -0.982067 -6.02651 0
M  V30 825 H 73.0949 -2.96001 -4.90975 0
M  V30 826 H 71.4919 -3.72436 -4.70544 0
M  V30 827 H 72.5619 -3.55041 -3.30263 0
M  V30 828 N 73.905 1.17692 -1.04816 0
M  V30 829 C 74.835 2.23777 -0.666791 0
M  V30 830 C 75.816 1.66796 0.33361 0
M  V30 831 O 77.001 1.93039 0.212042 0
M  V30 832 C 74.131 3.47281 -0.0367933 0
M  V30 833 C 73.085 4.17059 -0.961546 0
M  V30 834 C 72.411 5.34342 -0.195626 0
M  V30 835 C 73.711 4.69713 -2.28402 0
M  V30 836 H 75.405 2.55933 -1.55367 0
M  V30 837 H 72.951 1.23019 -0.748484 0
M  V30 838 H 74.904 4.20706 0.241775 0
M  V30 839 H 73.628 3.14381 0.885004 0
M  V30 840 H 72.287 3.45541 -1.22462 0
M  V30 841 H 71.935 4.97692 0.728816 0
M  V30 842 H 71.635 5.81966 -0.811775 0
M  V30 843 H 73.159 6.10553 0.0757473 0
M  V30 844 H 74.573 5.34794 -2.06563 0
M  V30 845 H 72.97 5.279 -2.8538 0
M  V30 846 H 74.04 3.86726 -2.92525 0
M  V30 847 N 75.3831 0.828654 1.34056 0
M  V30 848 C 76.2931 0.256725 2.33191 0
M  V30 849 C 77.3091 -0.611898 1.62886 0
M  V30 850 O 78.4851 -0.51844 1.94613 0
M  V30 851 C 75.5501 -0.567238 3.42028 0
M  V30 852 C 74.6111 0.324458 4.28072 0
M  V30 853 C 73.8441 -0.460274 5.31712 0
M  V30 854 O 74.0671 -1.693 5.44696 0
M  V30 855 O 73.0011 0.160391 6.01686 0
M  V30 856 H 76.8271 1.07739 2.83947 0
M  V30 857 H 74.4121 0.59093 1.37217 0
M  V30 858 H 76.2941 -1.03582 4.08471 0
M  V30 859 H 74.9691 -1.36513 2.93506 0
M  V30 860 H 73.8761 0.840659 3.64532 0
M  V30 861 H 75.2091 1.08685 4.8005 0
M  V30 862 N 76.8612 -1.46375 0.584142 0
M  V30 863 C 78.0892 -2.06761 0.0759296 0
M  V30 864 C 78.5042 -1.43266 -1.22965 0
M  V30 865 O 77.8612 -0.538458 -1.74376 0
M  V30 866 C 77.9122 -3.61375 -0.0950384 0
M  V30 867 O 77.6332 -4.22495 1.15887 0
M  V30 868 C 79.1342 -4.38693 -0.637434 0
M  V30 869 H 76.3542 -0.668479 0.0581075 0
M  V30 870 H 78.8982 -1.8798 0.805218 0
M  V30 871 H 77.0532 -3.79578 -0.774554 0
M  V30 872 H 77.4672 -5.15385 0.973598 0
M  V30 873 H 78.9412 -5.47464 -0.706237 0
M  V30 874 H 79.4182 -4.06836 -1.65472 0
M  V30 875 H 80.0242 -4.25299 0.00725967 0
M  V30 876 N 78.3393 -0.321999 -1.54275 0
M  V30 877 C 79.5643 0.285791 -2.05422 0
M  V30 878 C 79.9893 1.45124 -1.19669 0
M  V30 879 O 79.3473 1.80132 -0.205441 0
M  V30 880 C 79.3953 0.69956 -3.53749 0
M  V30 881 O 78.4993 1.8021 -3.70942 0
M  V30 882 H 77.8403 0.0518962 -0.661969 0
M  V30 883 H 80.3703 -0.469954 -1.9913 0
M  V30 884 H 80.3803 0.982649 -3.9599 0
M  V30 885 H 79.0553 -0.152864 -4.15619 0
M  V30 886 H 77.6323 1.51794 -3.40607 0
M  V30 887 N 79.8174 1.5752 -0.0501392 0
M  V30 888 C 81.0944 1.83996 0.663685 0
M  V30 889 C 81.4744 0.938339 1.89099 0
M  V30 890 O 80.8224 -0.00087759 2.285 0
M  V30 891 C 81.0324 3.33702 1.02196 0
M  V30 892 C 82.3804 4.00691 1.40469 0
M  V30 893 O 83.4044 3.38321 1.11433 0
M  V30 894 O 82.2634 5.10658 1.94654 0
M  V30 895 H 79.3574 0.759385 0.32751 0
M  V30 896 H 81.9034 1.69514 -0.0794238 0
M  V30 897 H 80.6754 3.91015 0.149364 0
M  V30 898 H 80.2984 3.53368 1.82255 0
M  V30 899 N 81.2955 -0.223234 1.56011 0
M  V30 900 C 82.5435 -0.946003 1.78592 0
M  V30 901 C 82.8645 -1.84936 0.618349 0
M  V30 902 O 82.1345 -1.92473 -0.364833 0
M  V30 903 H 80.7145 -0.352298 0.658707 0
M  V30 904 H 83.3765 -0.235494 1.93472 0
M  V30 905 H 82.4725 -1.55381 2.70672 0
M  V30 906 N 82.7736 -1.49793 -0.48987 0
M  V30 907 C 84.0136 -1.61466 -1.25332 0
M  V30 908 C 84.3776 -0.299688 -1.89647 0
M  V30 909 O 85.5786 -0.291687 -2.67213 0
M  V30 910 C 83.8496 -2.74944 -2.28343 0
M  V30 911 S 85.4086 -3.06637 -3.13878 0
M  V30 912 H 82.2266 -0.569411 -0.425784 0
M  V30 913 H 84.8286 -1.875 -0.553541 0
M  V30 914 H 83.5326 -3.68994 -1.79643 0
M  V30 915 H 83.0636 -2.50938 -3.02975 0
M  V30 916 H 85.0786 -2.49015 -4.29192 0
M  V30 917 N 84.2517 0.741722 -1.39055 0
M  V30 918 C 85.1987 1.85566 -1.37237 0
M  V30 919 C 86.1687 1.64457 -0.233072 0
M  V30 920 O 87.3537 1.85957 -0.427147 0
M  V30 921 C 84.4937 3.23004 -1.215 0
M  V30 922 C 83.6067 3.55864 -2.44918 0
M  V30 923 C 82.7417 4.82669 -2.21821 0
M  V30 924 C 81.7807 5.08351 -3.40948 0
M  V30 925 N 80.9177 6.26356 -3.17211 0
M  V30 926 H 85.7577 1.86455 -2.32462 0
M  V30 927 H 83.2947 0.911176 -1.15482 0
M  V30 928 H 85.2527 4.02331 -1.10389 0
M  V30 929 H 83.8827 3.21411 -0.29908 0
M  V30 930 H 82.9347 2.7129 -2.66657 0
M  V30 931 H 84.2467 3.70765 -3.33668 0
M  V30 932 H 83.4007 5.69962 -2.07914 0
M  V30 933 H 82.1397 4.69929 -1.30454 0
M  V30 934 H 81.1447 4.19522 -3.55361 0
M  V30 935 H 82.3697 5.22981 -4.33207 0
M  V30 936 H 80.3157 6.14917 -2.28502 0
M  V30 937 H 80.2327 6.41813 -3.99515 0
M  V30 938 H 81.5007 7.16506 -3.06984 0
M  V30 939 N 85.7298 1.2412 0.971189 0
M  V30 940 C 86.6618 0.988349 2.06795 0
M  V30 941 C 87.6748 -0.0409541 1.62748 0
M  V30 942 O 88.8638 0.195673 1.77424 0
M  V30 943 C 85.9638 0.469023 3.35639 0
M  V30 944 C 85.1368 1.56065 4.08611 0
M  V30 945 C 84.1958 1.04458 5.15728 0
M  V30 946 O 83.2218 1.73553 5.42096 0
M  V30 947 N 84.4238 -0.122817 5.8037 0
M  V30 948 H 87.1888 1.93265 2.29061 0
M  V30 949 H 84.7498 1.15102 1.13856 0
M  V30 950 H 86.7418 0.108613 4.04554 0
M  V30 951 H 85.3118 -0.380919 3.1027 0
M  V30 952 H 84.5318 2.09341 3.34021 0
M  V30 953 H 85.8198 2.29449 4.54126 0
M  V30 954 H 85.2178 -0.700563 5.61345 0
M  V30 955 H 83.7748 -0.424404 6.50417 0
M  V30 956 N 87.2079 -1.17134 1.05439 0
M  V30 957 C 88.4569 -1.86791 0.761049 0
M  V30 958 C 88.7699 -1.82072 -0.714795 0
M  V30 959 O 89.9759 -2.47223 -1.12218 0
M  V30 960 C 88.4319 -3.35166 1.31117 0
M  V30 961 C 88.0399 -3.48381 2.81664 0
M  V30 962 C 89.7839 -4.10134 1.09499 0
M  V30 963 C 87.6909 -4.90793 3.29964 0
M  V30 964 H 86.6209 -0.699681 0.281002 0
M  V30 965 H 89.2719 -1.3226 1.27199 0
M  V30 966 H 87.6539 -3.8925 0.72803 0
M  V30 967 H 88.8279 -3.04502 3.45855 0
M  V30 968 H 87.1429 -2.86836 3.01851 0
M  V30 969 H 89.7399 -5.152 1.43084 0
M  V30 970 H 90.0829 -4.16287 0.0328772 0
M  V30 971 H 90.6159 -3.62264 1.64346 0
M  V30 972 H 87.3549 -4.89816 4.35616 0
M  V30 973 H 86.8749 -5.35333 2.70516 0
M  V30 974 H 88.5539 -5.59573 3.24787 0
M  V30 975 N 88.686 -0.835752 -1.33615 0
M  V30 976 C 89.935 -0.426289 -1.97144 0
M  V30 977 C 90.248 1.01912 -1.66953 0
M  V30 978 O 91.454 1.53311 -2.24072 0
M  V30 979 C 89.91 -0.711321 -3.52801 0
M  V30 980 C 89.518 -2.1712 -3.91871 0
M  V30 981 C 91.262 -0.368654 -4.22896 0
M  V30 982 C 89.169 -2.40044 -5.40493 0
M  V30 983 H 88.099 -0.15567 -0.737755 0
M  V30 984 H 90.75 -1.0239 -1.52278 0
M  V30 985 H 89.132 -0.0433766 -3.95976 0
M  V30 986 H 90.306 -2.87936 -3.59763 0
M  V30 987 H 88.621 -2.47654 -3.34749 0
M  V30 988 H 91.218 -0.517601 -5.32189 0
M  V30 989 H 91.561 0.688078 -4.10574 0
M  V30 990 H 92.094 -0.991702 -3.8524 0
M  V30 991 H 88.833 -3.44271 -5.57815 0
M  V30 992 H 88.353 -1.73785 -5.74072 0
M  V30 993 H 90.032 -2.23042 -6.0734 0
M  V30 994 N 90.1641 1.46063 -0.591896 0
M  V30 995 C 91.4121 2.01938 -0.0808391 0
M  V30 996 C 91.7331 1.46475 1.28725 0
M  V30 997 O 91.0031 0.652944 1.84698 0
M  V30 998 H 89.5831 0.746516 -0.0268938 0
M  V30 999 H 92.2451 1.79055 -0.769752 0
M  V30 1000 H 91.3411 3.12094 -0.0187578 0
M  V30 1001 N 91.6422 0.330177 1.54103 0
M  V30 1002 C 92.5742 -0.566902 2.22079 0
M  V30 1003 C 93.5872 -1.07462 1.22294 0
M  V30 1004 O 94.7762 -0.987065 1.48726 0
M  V30 1005 C 91.8762 -1.79138 2.87685 0
M  V30 1006 C 91.0492 -1.42123 4.13666 0
M  V30 1007 C 90.1082 -2.50394 4.62806 0
M  V30 1008 O 89.1342 -2.14261 5.27334 0
M  V30 1009 N 90.3362 -3.81433 4.37595 0
M  V30 1010 H 93.1012 0.0151844 2.99696 0
M  V30 1011 H 90.6622 0.153681 1.61169 0
M  V30 1012 H 92.6542 -2.50975 3.1748 0
M  V30 1013 H 91.2242 -2.28115 2.13734 0
M  V30 1014 H 90.4442 -0.534201 3.90564 0
M  V30 1015 H 91.7322 -1.14971 4.9564 0
M  V30 1016 H 91.1302 -4.13584 3.8596 0
M  V30 1017 H 89.6872 -4.4948 4.72029 0
M  V30 1018 N 93.1203 -1.57491 0.0584922 0
M  V30 1019 C 94.0503 -2.14988 -0.911178 0
M  V30 1020 C 95.0313 -1.07343 -1.31952 0
M  V30 1021 O 96.2163 -1.35318 -1.39294 0
M  V30 1022 C 93.3463 -2.70078 -2.18347 0
M  V30 1023 C 92.3003 -3.82771 -1.91495 0
M  V30 1024 C 91.6263 -4.24408 -3.25241 0
M  V30 1025 C 92.9263 -5.07592 -1.23075 0
M  V30 1026 H 94.6203 -2.96263 -0.432246 0
M  V30 1027 H 92.1663 -1.42512 -0.206469 0
M  V30 1028 H 94.1193 -3.08943 -2.86587 0
M  V30 1029 H 92.8433 -1.86005 -2.68458 0
M  V30 1030 H 91.5023 -3.44389 -1.25664 0
M  V30 1031 H 91.1503 -3.37275 -3.73168 0
M  V30 1032 H 90.8503 -5.00366 -3.08071 0
M  V30 1033 H 92.3743 -4.65879 -3.94701 0
M  V30 1034 H 93.7883 -5.43857 -1.81362 0
M  V30 1035 H 92.1853 -5.88741 -1.16207 0
M  V30 1036 H 93.2553 -4.84454 -0.207847 0
M  V30 1037 N 94.5984 0.214957 -1.56127 0
M  V30 1038 C 95.5304 1.29004 -1.89448 0
M  V30 1039 C 96.5434 1.42716 -0.783326 0
M  V30 1040 O 97.7324 1.43496 -1.06166 0
M  V30 1041 C 94.8324 2.66482 -2.09381 0
M  V30 1042 C 94.0054 2.74633 -3.40434 0
M  V30 1043 C 93.0644 3.9317 -3.49719 0
M  V30 1044 O 92.0904 3.812 -4.227 0
M  V30 1045 N 93.2924 5.07765 -2.81346 0
M  V30 1046 H 96.0574 1.00743 -2.82261 0
M  V30 1047 H 93.6184 0.40497 -1.56753 0
M  V30 1048 H 95.6104 3.44173 -2.12901 0
M  V30 1049 H 94.1804 2.87314 -1.23163 0
M  V30 1050 H 93.4004 1.83368 -3.48955 0
M  V30 1051 H 94.6884 2.77054 -4.26754 0
M  V30 1052 H 94.0864 5.20386 -2.21843 0
M  V30 1053 H 92.6434 5.83474 -2.90519 0
M  V30 1054 N 96.0765 1.50051 0.48192 0
M  V30 1055 C 97.4875 1.5348 1.06305 0
M  V30 1056 C 97.8385 0.331997 1.93371 0
M  V30 1057 O 96.9635 -0.556256 2.09129 0
M  V30 1058 C 97.5585 2.7813 1.93466 0
M  V30 1059 C 96.1175 2.84275 2.46707 0
M  V30 1060 C 95.2645 2.47637 1.24785 0
M  V30 1061 H 98.2155 1.56472 0.264995 0
M  V30 1062 H 98.2365 2.59372 2.78399 0
M  V30 1063 H 97.7485 3.65654 1.30072 0
M  V30 1064 H 95.8495 2.01077 3.13686 0
M  V30 1065 H 95.9625 3.8691 2.82555 0
M  V30 1066 H 94.3265 1.99835 1.57918 0
M  V30 1067 H 95.1095 3.37457 0.630694 0
M  V30 1068 N 97.5546 -0.734337 1.39446 0
M  V30 1069 C 98.5176 -1.83004 1.37994 0
M  V30 1070 C 99.5176 -1.58397 0.276938 0
M  V30 1071 O 100.708 -1.65785 0.534875 0
M  V30 1072 C 97.8396 -3.20802 1.1532 0
M  V30 1073 H 99.0326 -1.85694 2.35494 0
M  V30 1074 H 96.5856 -0.938059 1.25021 0
M  V30 1075 H 97.3206 -3.23772 0.185036 0
M  V30 1076 H 97.1056 -3.4006 1.95197 0
M  V30 1077 H 98.5956 -4.00862 1.17046 0
M  V30 1078 N 99.0327 -1.24633 -0.964593 0
M  V30 1079 C 100.282 -1.08188 -1.7023 0
M  V30 1080 C 100.595 0.37873 -1.91898 0
M  V30 1081 O 101.801 0.663427 -2.6327 0
M  V30 1082 C 100.257 -1.88773 -3.06419 0
M  V30 1083 C 99.8647 -3.39263 -2.92582 0
M  V30 1084 C 101.609 -1.80867 -3.84041 0
M  V30 1085 C 99.5157 -4.1218 -4.24101 0
M  V30 1086 H 98.4457 -0.401245 -0.638372 0
M  V30 1087 H 101.097 -1.48742 -1.07462 0
M  V30 1088 H 99.4787 -1.41035 -3.70034 0
M  V30 1089 H 100.653 -3.94603 -2.37961 0
M  V30 1090 H 98.9677 -3.48154 -2.28424 0
M  V30 1091 H 101.565 -2.32646 -4.81435 0
M  V30 1092 H 101.908 -0.774543 -4.09031 0
M  V30 1093 H 102.441 -2.26301 -3.27159 0
M  V30 1094 H 99.1797 -5.15965 -4.04303 0
M  V30 1095 H 98.6997 -3.61626 -4.78526 0
M  V30 1096 H 100.379 -4.19349 -4.92702 0
M  V30 1097 N 100.511 1.16574 -1.06058 0
M  V30 1098 C 101.927 1.3904 -0.783585 0
M  V30 1099 C 102.127 1.91784 0.618145 0
M  V30 1100 O 101.183 2.11511 1.37911 0
M  V30 1101 C 102.496 2.37329 -1.84649 0
M  V30 1102 C 104.044 2.51018 -1.86973 0
M  V30 1103 C 104.519 3.52588 -2.92311 0
M  V30 1104 N 106.01 3.60113 -2.91329 0
M  V30 1105 C 106.745 4.38486 -3.69482 0
M  V30 1106 N 106.241 5.20302 -4.57447 0
M  V30 1107 N 108.034 4.33446 -3.57885 0
M  V30 1108 H 100.185 0.806725 -1.96483 0
M  V30 1109 H 102.448 0.417117 -0.851303 0
M  V30 1110 H 102.154 2.05663 -2.85299 0
M  V30 1111 H 102.028 3.36946 -1.6955 0
M  V30 1112 H 104.415 2.81989 -0.869827 0
M  V30 1113 H 104.496 1.51445 -2.0615 0
M  V30 1114 H 104.14 3.22354 -3.92492 0
M  V30 1115 H 104.07 4.51886 -2.70383 0
M  V30 1116 H 106.561 3.01707 -2.27555 0
M  V30 1117 H 106.874 5.77311 -5.13743 0
M  V30 1118 H 105.219 5.19653 -4.61503 0
M  V30 1119 H 108.41 3.68586 -2.88551 0
M  V30 1120 H 108.583 4.94279 -4.19037 0
M  V30 1121 N 101.989 0.842826 1.3317 0
M  V30 1122 C 103.217 0.454055 2.01856 0
M  V30 1123 C 103.632 -0.94587 1.63397 0
M  V30 1124 O 102.989 -1.61534 0.849302 0
M  V30 1125 C 103.04 0.569715 3.56982 0
M  V30 1126 O 102.761 1.91448 3.94055 0
M  V30 1127 C 104.262 0.178412 4.42941 0
M  V30 1128 H 101.482 0.17979 0.646465 0
M  V30 1129 H 104.026 1.1365 1.70012 0
M  V30 1130 H 102.181 -0.0648587 3.87346 0
M  V30 1131 H 102.595 1.90282 4.88767 0
M  V30 1132 H 104.069 0.310376 5.51127 0
M  V30 1133 H 104.546 -0.880056 4.30293 0
M  V30 1134 H 105.152 0.787579 4.17944 0
M  V30 1135 N 103.467 -1.45747 0.599634 0
M  V30 1136 C 104.715 -2.01893 0.0915472 0
M  V30 1137 C 105.036 -1.47155 -1.27946 0
M  V30 1138 O 104.306 -0.66273 -1.84349 0
M  V30 1139 H 102.886 -0.746363 0.0308524 0
M  V30 1140 H 105.548 -1.78645 0.779237 0
M  V30 1141 H 104.644 -3.1208 0.0353086 0
M  V30 1142 N 104.945 -0.338344 -1.53925 0
M  V30 1143 C 106.17 0.263987 -2.05713 0
M  V30 1144 C 106.595 1.43847 -1.21201 0
M  V30 1145 O 105.953 1.79904 -0.224535 0
M  V30 1146 C 106.001 0.662 -3.54471 0
M  V30 1147 O 105.105 1.76265 -3.72833 0
M  V30 1148 H 104.446 0.0448722 -0.662482 0
M  V30 1149 H 106.976 -0.491048 -1.9862 0
M  V30 1150 H 106.986 0.940594 -3.9701 0
M  V30 1151 H 105.661 -0.196937 -4.15433 0
M  V30 1152 H 104.238 1.48173 -3.42198 0
M  V30 1153 N 106.423 1.57458 -0.0668435 0
M  V30 1154 C 107.333 2.15937 0.916975 0
M  V30 1155 C 108.349 1.12123 1.33058 0
M  V30 1156 O 109.525 1.44366 1.40429 0
M  V30 1157 C 106.59 2.70547 2.16807 0
M  V30 1158 C 105.651 3.89215 1.81135 0
M  V30 1159 C 104.884 4.41211 3.0028 0
M  V30 1160 O 105.107 3.92225 4.14144 0
M  V30 1161 O 104.041 5.32605 2.80384 0
M  V30 1162 H 107.867 3.00354 0.449561 0
M  V30 1163 H 105.452 1.48584 0.155949 0
M  V30 1164 H 107.334 3.0557 2.90181 0
M  V30 1165 H 106.009 1.89192 2.62656 0
M  V30 1166 H 104.916 3.59054 1.05028 0
M  V30 1167 H 106.249 4.71848 1.40073 0
M  V30 1168 N 107.901 -0.206675 1.56239 0
M  V30 1169 C 108.811 -1.27686 1.96808 0
M  V30 1170 C 109.827 -1.50455 0.874035 0
M  V30 1171 O 111.003 -1.63295 1.17884 0
M  V30 1172 C 108.068 -2.60358 2.28942 0
M  V30 1173 C 107.129 -2.45762 3.51994 0
M  V30 1174 C 106.362 -3.72108 3.82585 0
M  V30 1175 O 106.585 -4.75776 3.14631 0
M  V30 1176 O 105.519 -3.6833 4.76043 0
M  V30 1177 H 109.345 -0.962593 2.88041 0
M  V30 1178 H 106.93 -0.410746 1.43643 0
M  V30 1179 H 108.812 -3.38687 2.50737 0
M  V30 1180 H 107.487 -2.91435 1.4088 0
M  V30 1181 H 106.394 -1.65584 3.35459 0
M  V30 1182 H 107.727 -2.19621 4.40486 0
M  V30 1183 N 109.379 -1.50304 -0.473955 0
M  V30 1184 C 110.309 -1.71886 -1.58042 0
M  V30 1185 C 111.29 -0.567799 -1.60344 0
M  V30 1186 O 112.475 -0.806623 -1.76656 0
M  V30 1187 C 109.605 -1.81036 -2.96384 0
M  V30 1188 C 108.559 -2.962 -3.08949 0
M  V30 1189 C 107.885 -2.9049 -4.48909 0
M  V30 1190 C 109.185 -4.36752 -2.86434 0
M  V30 1191 H 110.879 -2.64527 -1.40234 0
M  V30 1192 H 108.425 -1.27295 -0.673201 0
M  V30 1193 H 110.378 -1.94719 -3.73714 0
M  V30 1194 H 109.102 -0.850147 -3.15341 0
M  V30 1195 H 107.761 -2.82164 -2.3405 0
M  V30 1196 H 107.409 -1.92321 -4.64781 0
M  V30 1197 H 107.109 -3.67802 -4.58253 0
M  V30 1198 H 108.633 -3.06218 -5.28264 0
M  V30 1199 H 110.047 -4.5133 -3.53517 0
M  V30 1200 H 108.444 -5.15493 -3.07225 0
M  V30 1201 H 109.514 -4.49321 -1.82316 0
M  V30 1202 N 110.857 0.726932 -1.39834 0
M  V30 1203 C 112.273 1.03354 -1.21615 0
M  V30 1204 C 112.473 2.01327 -0.08338 0
M  V30 1205 O 111.529 2.46158 0.56238 0
M  V30 1206 C 112.842 1.58811 -2.55342 0
M  V30 1207 C 114.39 1.70851 -2.62257 0
M  V30 1208 C 114.865 2.29716 -3.96225 0
M  V30 1209 N 116.356 2.37116 -3.97907 0
M  V30 1210 C 117.091 2.83619 -4.98345 0
M  V30 1211 N 116.587 3.29958 -6.09179 0
M  V30 1212 N 118.38 2.82901 -4.8572 0
M  V30 1213 H 110.531 0.0773069 -2.12259 0
M  V30 1214 H 112.794 0.0969102 -0.943034 0
M  V30 1215 H 112.5 0.942855 -3.38826 0
M  V30 1216 H 112.374 2.57502 -2.75632 0
M  V30 1217 H 114.761 2.34497 -1.79152 0
M  V30 1218 H 114.842 0.707913 -2.45809 0
M  V30 1219 H 114.486 1.66696 -4.79765 0
M  V30 1220 H 114.416 3.30469 -4.09997 0
M  V30 1221 H 116.907 2.04374 -3.17868 0
M  V30 1222 H 117.22 3.63976 -6.8172 0
M  V30 1223 H 115.565 3.27946 -6.12761 0
M  V30 1224 H 118.756 2.46027 -3.98231 0
M  V30 1225 H 118.929 3.18827 -5.6414 0
M  V30 1226 N 112.336 1.25143 0.95797 0
M  V30 1227 C 113.561 1.12521 1.74223 0
M  V30 1228 C 113.986 -0.317402 1.85403 0
M  V30 1229 O 113.344 -1.2299 1.33204 0
M  V30 1230 C 113.392 1.78062 3.1357 0
M  V30 1231 O 112.496 1.058 3.98598 0
M  V30 1232 H 111.837 0.39304 0.535178 0
M  V30 1233 H 114.367 1.65641 1.201 0
M  V30 1234 H 114.377 1.84213 3.64046 0
M  V30 1235 H 113.052 2.83021 3.04749 0
M  V30 1236 H 111.629 1.07506 3.57067 0
M  V30 1237 N 113.814 -1.1601 1.06675 0
M  V30 1238 C 114.744 -2.22688 0.702307 0
M  V30 1239 C 115.725 -1.67306 -0.307032 0
M  V30 1240 O 116.91 -1.93352 -0.181305 0
M  V30 1241 C 114.04 -3.47178 0.092038 0
M  V30 1242 C 112.994 -4.15477 1.02777 0
M  V30 1243 C 112.32 -5.33963 0.28061 0
M  V30 1244 C 113.62 -4.66019 2.35846 0
M  V30 1245 H 115.314 -2.53429 1.59419 0
M  V30 1246 H 112.86 -1.21813 0.767961 0
M  V30 1247 H 114.813 -4.21037 -0.174814 0
M  V30 1248 H 113.537 -3.15749 -0.834877 0
M  V30 1249 H 112.196 -3.43549 1.27944 0
M  V30 1250 H 111.844 -4.98788 -0.649545 0
M  V30 1251 H 111.544 -5.806 0.904258 0
M  V30 1252 H 113.068 -6.10596 0.021396 0
M  V30 1253 H 114.482 -5.3144 2.15045 0
M  V30 1254 H 112.879 -5.23293 2.93743 0
M  V30 1255 H 113.949 -3.82023 2.98641 0
M  V30 1256 N 115.292 -0.849877 -1.32721 0
M  V30 1257 C 116.539 -0.450923 -1.97416 0
M  V30 1258 C 116.867 0.992376 -1.67279 0
M  V30 1259 O 116.122 1.71048 -0.950845 0
M  V30 1260 C 116.421 -0.631272 -3.51781 0
M  V30 1261 C 116.087 -2.04432 -4.01894 0
M  V30 1262 C 114.749 -2.4308 -4.1529 0
M  V30 1263 C 117.101 -2.96679 -4.28522 0
M  V30 1264 C 114.429 -3.73257 -4.52654 0
M  V30 1265 C 116.781 -4.26349 -4.67343 0
M  V30 1266 C 115.445 -4.64939 -4.78945 0
M  V30 1267 H 114.715 -0.165004 -0.722395 0
M  V30 1268 H 117.362 -1.07901 -1.58207 0
M  V30 1269 H 115.667 0.0800767 -3.91718 0
M  V30 1270 H 117.364 -0.302709 -3.99856 0
M  V30 1271 H 113.954 -1.73419 -3.91949 0
M  V30 1272 H 118.138 -2.68054 -4.17685 0
M  V30 1273 H 113.394 -4.02946 -4.59831 0
M  V30 1274 H 117.568 -4.97895 -4.86902 0
M  V30 1275 H 115.195 -5.65855 -5.07654 0
M  V30 1276 N 116.77 1.45427 -0.607355 0
M  V30 1277 C 117.718 2.32269 0.12411 0
M  V30 1278 C 118.712 1.45955 0.859854 0
M  V30 1279 O 119.918 1.6244 0.775447 0
M  V30 1280 H 116.293 0.749691 0.0588839 0
M  V30 1281 H 118.264 2.91743 -0.626762 0
M  V30 1282 C 117.013 3.29567 1.1082 0
M  V30 1283 H 116.336 3.95978 0.551492 0
M  V30 1284 H 117.776 3.93061 1.58995 0
M  V30 1285 C 116.235 2.56722 2.18164 0
M  V30 1286 O 116.765 2.34842 3.25902 0
M  V30 1287 N 114.971 2.16861 1.93442 0
M  V30 1288 H 114.518 2.34855 1.05834 0
M  V30 1289 H 114.476 1.68444 2.65469 0
M  V30 1290 N 118.248 0.346503 1.53744 0
M  V30 1291 C 119.476 -0.25041 2.05379 0
M  V30 1292 C 119.891 -1.43979 1.22129 0
M  V30 1293 O 119.248 -1.80677 0.257321 0
M  V30 1294 C 119.299 -0.662575 3.55376 0
M  V30 1295 O 119.02 0.479515 4.35468 0
M  V30 1296 C 120.521 -1.31989 4.23195 0
M  V30 1297 H 117.741 -0.0478198 0.669294 0
M  V30 1298 H 120.285 0.499346 1.9831 0
M  V30 1299 H 118.44 -1.36227 3.62658 0
M  V30 1300 H 118.854 0.15037 5.24284 0
M  V30 1301 H 120.328 -1.55902 5.29527 0
M  V30 1302 H 120.805 -2.27436 3.75725 0
M  V30 1303 H 121.411 -0.662154 4.20114 0
M  V30 1304 N 119.726 -1.57421 0.075193 0
M  V30 1305 C 120.972 -1.93905 -0.594025 0
M  V30 1306 C 121.305 -0.955701 -1.69056 0
M  V30 1307 O 120.58 0.0145373 -1.94495 0
M  V30 1308 C 120.863 -3.40638 -1.1678 0
M  V30 1309 C 120.716 -4.49733 -0.0776792 0
M  V30 1310 C 122.035 -3.88259 -2.07228 0
M  V30 1311 H 119.154 -0.705105 -0.214466 0
M  V30 1312 H 121.796 -1.8947 0.141854 0
M  V30 1313 H 119.946 -3.44549 -1.79494 0
M  V30 1314 H 121.618 -4.57942 0.555573 0
M  V30 1315 H 119.861 -4.29751 0.591286 0
M  V30 1316 H 120.532 -5.49549 -0.519603 0
M  V30 1317 H 123.008 -3.86376 -1.54445 0
M  V30 1318 H 121.884 -4.91533 -2.44308 0
M  V30 1319 H 122.145 -3.26396 -2.98191 0
M  V30 1320 N 121.204 0.198386 -1.56346 0
M  V30 1321 C 122.167 1.22952 -1.93431 0
M  V30 1322 C 123.167 1.38611 -0.815092 0
M  V30 1323 O 124.357 1.36479 -1.08255 0
M  V30 1324 C 121.489 2.59946 -2.20546 0
M  V30 1325 H 122.682 0.912626 -2.85677 0
M  V30 1326 H 120.235 0.43977 -1.49986 0
M  V30 1327 H 120.97 2.96696 -1.30927 0
M  V30 1328 H 120.755 2.49953 -3.02102 0
M  V30 1329 H 122.245 3.3431 -2.50253 0
M  V30 1330 N 122.682 1.50554 0.465978 0
M  V30 1331 C 123.91 1.65563 1.24083 0
M  V30 1332 C 124.325 0.341051 1.85694 0
M  V30 1333 O 123.682 -0.677543 1.69457 0
M  V30 1334 C 123.733 2.75051 2.34583 0
M  V30 1335 O 123.454 4.01413 1.75497 0
M  V30 1336 C 124.955 3.01078 3.25372 0
M  V30 1337 H 122.175 0.55638 0.375077 0
M  V30 1338 H 124.719 1.96807 0.555624 0
M  V30 1339 H 122.874 2.46486 2.9887 0
M  V30 1340 H 123.288 4.62002 2.48303 0
M  V30 1341 H 124.762 3.81339 3.99105 0
M  V30 1342 H 125.239 2.12349 3.84453 0
M  V30 1343 H 125.845 3.31194 2.66816 0
M  V30 1344 N 124.16 -0.719506 1.40217 0
M  V30 1345 C 125.09 -1.8465 1.42922 0
M  V30 1346 C 126.071 -1.67599 0.29062 0
M  V30 1347 O 127.256 -1.87688 0.498677 0
M  V30 1348 C 124.386 -3.22565 1.28722 0
M  V30 1349 C 123.34 -3.54281 2.40144 0
M  V30 1350 C 122.666 -4.91298 2.11023 0
M  V30 1351 C 123.966 -3.55676 3.82481 0
M  V30 1352 H 125.66 -1.82644 2.37237 0
M  V30 1353 H 123.206 -0.877305 1.1419 0
M  V30 1354 H 125.159 -4.01095 1.29232 0
M  V30 1355 H 123.883 -3.25137 0.308811 0
M  V30 1356 H 122.542 -2.78088 2.38877 0
M  V30 1357 H 122.19 -4.90468 1.11582 0
M  V30 1358 H 121.89 -5.13485 2.8567 0
M  V30 1359 H 123.414 -5.72166 2.13209 0
M  V30 1360 H 124.828 -4.24254 3.85592 0
M  V30 1361 H 123.225 -3.89388 4.56614 0
M  V30 1362 H 124.295 -2.55144 4.12346 0
M  V30 1363 N 125.638 -1.25649 -0.95132 0
M  V30 1364 C 126.868 -1.13179 -1.72841 0
M  V30 1365 C 127.276 0.316827 -1.86528 0
M  V30 1366 O 126.619 1.22948 -1.3649 0
M  V30 1367 C 126.681 -1.71644 -3.15878 0
M  V30 1368 C 126.345 -3.20667 -3.25609 0
M  V30 1369 C 127.342 -4.17616 -3.09666 0
M  V30 1370 C 125.027 -3.6094 -3.49324 0
M  V30 1371 C 127.021 -5.52817 -3.17289 0
M  V30 1372 C 124.708 -4.96278 -3.56584 0
M  V30 1373 C 125.706 -5.92025 -3.40581 0
M  V30 1374 O 125.394 -7.24899 -3.47528 0
M  V30 1375 H 125.126 -0.395389 -0.54831 0
M  V30 1376 H 127.68 -1.66566 -1.20187 0
M  V30 1377 H 125.91 -1.12707 -3.69911 0
M  V30 1378 H 127.599 -1.54225 -3.75459 0
M  V30 1379 H 128.365 -3.87842 -2.91211 0
M  V30 1380 H 124.244 -2.86907 -3.6084 0
M  V30 1381 H 127.788 -6.2753 -3.04716 0
M  V30 1382 H 123.685 -5.25716 -3.74556 0
M  V30 1383 H 124.453 -7.33039 -3.64138 0
M  V30 1384 N 127.117 1.15442 -1.07289 0
M  V30 1385 C 128.357 1.8788 -0.805012 0
M  V30 1386 C 128.721 1.80413 0.656907 0
M  V30 1387 O 129.922 2.47874 1.0398 0
M  V30 1388 C 128.193 3.3298 -1.29843 0
M  V30 1389 S 129.752 4.23158 -1.16114 0
M  V30 1390 H 126.57 0.64839 -0.291739 0
M  V30 1391 H 129.172 1.39285 -1.37186 0
M  V30 1392 H 127.876 3.35958 -2.35712 0
M  V30 1393 H 127.407 3.86629 -0.726767 0
M  V30 1394 H 129.422 4.96103 -0.0982778 0
M  V30 1395 N 128.595 0.856903 1.32268 0
M  V30 1396 C 129.841 0.462069 1.97466 0
M  V30 1397 C 130.174 -0.980298 1.67642 0
M  V30 1398 O 129.449 -1.68824 0.965858 0
M  V30 1399 C 129.732 0.704336 3.53145 0
M  V30 1400 C 129.585 2.19529 3.9259 0
M  V30 1401 C 130.904 0.1622 4.39801 0
M  V30 1402 H 128.023 0.169357 0.717278 0
M  V30 1403 H 130.665 1.07574 1.56614 0
M  V30 1404 H 128.815 0.181999 3.88073 0
M  V30 1405 H 130.487 2.78387 3.67829 0
M  V30 1406 H 128.73 2.67292 3.41668 0
M  V30 1407 H 129.401 2.31549 5.01088 0
M  V30 1408 H 131.877 0.608905 4.11621 0
M  V30 1409 H 130.753 0.361265 5.4771 0
M  V30 1410 H 131.014 -0.935158 4.32096 0
M  V30 1411 N 130.073 -1.45103 0.615059 0
M  V30 1412 C 131.023 -2.27679 -0.120966 0
M  V30 1413 C 132.007 -1.3775 -0.831491 0
M  V30 1414 O 133.199 -1.61683 -0.720249 0
M  V30 1415 C 130.328 -3.24767 -1.1127 0
M  V30 1416 C 129.414 -4.22184 -0.402627 0
M  V30 1417 N 129.805 -5.02692 0.559884 0
M  V30 1418 C 128.103 -4.4125 -0.649202 0
M  V30 1419 C 128.804 -5.73421 0.977942 0
M  V30 1420 N 127.78 -5.42657 0.320104 0
M  V30 1421 H 131.582 -2.87325 0.618181 0
M  V30 1422 H 129.096 -1.56345 0.439304 0
M  V30 1423 H 131.093 -3.82666 -1.65446 0
M  V30 1424 H 129.753 -2.66682 -1.85232 0
M  V30 1425 H 130.764 -5.09354 0.936976 0
M  V30 1426 H 127.441 -3.9428 -1.37293 0
M  V30 1427 H 128.831 -6.48107 1.77222 0
M  V30 1428 N 131.551 -0.354651 -1.53558 0
M  V30 1429 C 132.461 0.50515 -2.29097 0
M  V30 1430 C 133.477 1.10223 -1.34636 0
M  V30 1431 O 134.653 1.11553 -1.67684 0
M  V30 1432 C 131.718 1.63479 -3.05738 0
M  V30 1433 C 130.779 1.06636 -4.15845 0
M  V30 1434 C 130.012 2.14217 -4.88822 0
M  V30 1435 O 130.235 3.35137 -4.61562 0
M  V30 1436 O 129.169 1.77887 -5.75013 0
M  V30 1437 H 132.995 -0.109237 -3.03503 0
M  V30 1438 H 130.58 -0.119357 -1.48922 0
M  V30 1439 H 132.462 2.2918 -3.5363 0
M  V30 1440 H 131.137 2.23478 -2.34178 0
M  V30 1441 H 130.044 0.373565 -3.7223 0
M  V30 1442 H 131.377 0.511081 -4.89539 0
M  V30 1443 N 133.029 1.57378 -0.0835403 0
M  V30 1444 C 134.445 1.57246 0.273109 0
M  V30 1445 C 134.645 1.09385 1.69225 0
M  V30 1446 O 133.701 0.765051 2.40631 0
M  V30 1447 C 135.014 3.00614 0.0720628 0
M  V30 1448 C 136.562 3.12684 0.1407 0
M  V30 1449 C 137.037 4.57989 -0.0322094 0
M  V30 1450 N 138.528 4.63194 0.0230085 0
M  V30 1451 C 139.263 5.73335 -0.0861941 0
M  V30 1452 N 138.759 6.9235 -0.24958 0
M  V30 1453 N 140.552 5.62093 -0.0282886 0
M  V30 1454 H 132.703 1.86801 -1.0109 0
M  V30 1455 H 134.966 0.861687 -0.395222 0
M  V30 1456 H 134.672 3.39786 -0.907662 0
M  V30 1457 H 134.546 3.68193 0.81936 0
M  V30 1458 H 136.933 2.73391 1.11092 0
M  V30 1459 H 137.014 2.47719 -0.637896 0
M  V30 1460 H 136.658 4.97973 -0.999247 0
M  V30 1461 H 136.588 5.21 0.765937 0
M  V30 1462 H 139.079 3.77613 0.14722 0
M  V30 1463 H 139.392 7.72117 -0.324733 0
M  V30 1464 H 137.737 6.94415 -0.285097 0
M  V30 1465 H 140.928 4.67997 0.0981408 0
M  V30 1466 H 141.101 6.47895 -0.116845 0
M  V30 1467 N 134.507 -0.190092 1.56449 0
M  V30 1468 C 135.756 -0.907912 1.80111 0
M  V30 1469 C 136.069 -1.84214 0.657619 0
M  V30 1470 O 137.275 -2.60094 0.778663 0
M  V30 1471 C 135.731 -1.66485 3.19078 0
M  V30 1472 C 135.339 -0.7752 4.41242 0
M  V30 1473 C 137.083 -2.37201 3.52045 0
M  V30 1474 C 134.99 -1.53129 5.71231 0
M  V30 1475 H 133.92 -0.34276 0.671589 0
M  V30 1476 H 136.571 -0.161109 1.82791 0
M  V30 1477 H 134.953 -2.45572 3.10661 0
M  V30 1478 H 136.127 -0.0226298 4.60794 0
M  V30 1479 H 134.442 -0.178627 4.16017 0
M  V30 1480 H 137.039 -2.94329 4.46402 0
M  V30 1481 H 137.382 -3.11632 2.76028 0
M  V30 1482 H 137.915 -1.65075 3.61932 0
M  V30 1483 H 134.654 -0.82967 6.50228 0
M  V30 1484 H 134.174 -2.25767 5.55688 0
M  V30 1485 H 135.853 -2.08377 6.12526 0
M  V30 1486 N 135.985 -1.50799 -0.457987 0
M  V30 1487 C 136.895 -1.73426 -1.57989 0
M  V30 1488 C 137.911 -0.617745 -1.62665 0
M  V30 1489 O 139.087 -0.897614 -1.80291 0
M  V30 1490 C 136.152 -1.83557 -2.94122 0
M  V30 1491 C 135.213 -3.07345 -2.99729 0
M  V30 1492 C 134.446 -3.16983 -4.29368 0
M  V30 1493 O 134.669 -2.33077 -5.20607 0
M  V30 1494 O 133.603 -4.09812 -4.40837 0
M  V30 1495 H 137.429 -2.68555 -1.41817 0
M  V30 1496 H 135.014 -1.35052 -0.638859 0
M  V30 1497 H 136.896 -1.92326 -3.74952 0
M  V30 1498 H 135.571 -0.916137 -3.10465 0
M  V30 1499 H 134.478 -3.04068 -2.1793 0
M  V30 1500 H 135.811 -3.9891 -2.88326 0
M  V30 1501 N 137.463 0.71206 -1.40597 0
M  V30 1502 C 138.709 1.47416 -1.39271 0
M  V30 1503 C 139.042 1.942 0.00388791 0
M  V30 1504 O 138.317 1.68403 0.973179 0
M  V30 1505 C 138.6 2.69774 -2.38525 0
M  V30 1506 C 138.453 2.28861 -3.87224 0
M  V30 1507 C 139.772 3.71939 -2.35264 0
M  V30 1508 H 136.891 0.534713 -0.5072 0
M  V30 1509 H 139.533 0.812375 -1.71757 0
M  V30 1510 H 137.683 3.26238 -2.10953 0
M  V30 1511 H 139.355 1.77852 -4.25636 0
M  V30 1512 H 137.598 1.60824 -4.02887 0
M  V30 1513 H 138.269 3.16584 -4.52193 0
M  V30 1514 H 140.745 3.25113 -2.59694 0
M  V30 1515 H 139.621 4.55186 -3.06753 0
M  V30 1516 H 139.882 4.20484 -1.36549 0
M  V30 1517 N 138.941 1.26152 0.944643 0
M  V30 1518 C 139.888 1.07408 2.04285 0
M  V30 1519 C 140.858 -0.0198413 1.66088 0
M  V30 1520 O 142.043 0.139264 1.90291 0
M  V30 1521 C 139.183 0.70945 3.37729 0
M  V30 1522 C 138.296 1.87926 3.88983 0
M  V30 1523 C 137.431 1.45807 5.10797 0
M  V30 1524 C 136.47 2.5964 5.54305 0
M  V30 1525 N 135.607 2.18226 6.67324 0
M  V30 1526 H 140.447 2.01389 2.1965 0
M  V30 1527 H 137.984 1.00275 1.07626 0
M  V30 1528 H 139.942 0.478948 4.14442 0
M  V30 1529 H 138.572 -0.193389 3.2222 0
M  V30 1530 H 137.624 2.22279 3.08701 0
M  V30 1531 H 138.936 2.73377 4.17213 0
M  V30 1532 H 138.09 1.18781 5.94959 0
M  V30 1533 H 136.829 0.574414 4.84305 0
M  V30 1534 H 135.834 2.87399 4.68702 0
M  V30 1535 H 137.059 3.48599 5.828 0
M  V30 1536 H 135.005 1.3229 6.42523 0
M  V30 1537 H 134.922 2.97221 6.95123 0
M  V30 1538 H 136.19 1.94403 7.54869 0
M  V30 1539 N 140.419 -1.14872 1.07899 0
M  V30 1540 C 141.696 -1.81928 0.71845 0
M  V30 1541 C 142.076 -1.95417 -0.798455 0
M  V30 1542 O 141.424 -1.50997 -1.715 0
M  V30 1543 C 141.634 -3.17937 1.43935 0
M  V30 1544 C 142.982 -3.93501 1.59506 0
M  V30 1545 O 144.006 -3.27509 1.40058 0
M  V30 1546 O 142.865 -5.1183 1.91551 0
M  V30 1547 H 139.959 -0.78628 0.256305 0
M  V30 1548 H 142.505 -1.21934 1.18026 0
M  V30 1549 H 141.277 -3.0325 2.47295 0
M  V30 1550 H 140.9 -3.85619 0.968687 0
M  V30 1551 N 141.898 -0.863906 -1.31812 0
M  V30 1552 C 143.126 -0.486111 -2.01108 0
M  V30 1553 C 143.541 0.919755 -1.64882 0
M  V30 1554 O 142.898 1.60162 -0.874893 0
M  V30 1555 C 142.949 -0.626435 -3.56031 0
M  V30 1556 O 142.67 -1.97693 -3.90959 0
M  V30 1557 C 144.171 -0.248857 -4.42601 0
M  V30 1558 H 141.391 -0.190052 -0.643523 0
M  V30 1559 H 143.935 -1.1634 -1.68182 0
M  V30 1560 H 142.09 0.00322717 -3.874 0
M  V30 1561 H 142.504 -1.98034 -4.85678 0
M  V30 1562 H 143.978 -0.398016 -5.50563 0
M  V30 1563 H 144.455 0.811489 -4.31638 0
M  V30 1564 H 145.061 -0.853971 -4.16638 0
M  V30 1565 N 143.376 1.44774 -0.622745 0
M  V30 1566 C 144.323 2.30635 0.0871679 0
M  V30 1567 C 145.293 1.42994 0.845097 0
M  V30 1568 O 146.478 1.71907 0.827812 0
M  V30 1569 C 143.618 3.28144 1.06844 0
M  V30 1570 C 142.731 4.30888 0.309809 0
M  V30 1571 C 141.866 5.15494 1.28215 0
M  V30 1572 C 140.905 6.09953 0.512198 0
M  V30 1573 N 140.042 6.87287 1.43458 0
M  V30 1574 H 144.882 2.90803 -0.650974 0
M  V30 1575 H 142.419 1.43286 -0.33281 0
M  V30 1576 H 144.377 3.83157 1.65066 0
M  V30 1577 H 143.007 2.69695 1.77382 0
M  V30 1578 H 142.059 3.78414 -0.388181 0
M  V30 1579 H 143.371 4.97955 -0.290254 0
M  V30 1580 H 142.525 5.74983 1.93596 0
M  V30 1581 H 141.264 4.48481 1.91614 0
M  V30 1582 H 140.269 5.49581 -0.155151 0
M  V30 1583 H 141.494 6.78999 -0.116958 0
M  V30 1584 H 139.44 6.2295 2.05594 0
M  V30 1585 H 139.357 7.50763 0.888335 0
M  V30 1586 H 140.625 7.51306 2.07749 0
M  V30 1587 N 144.854 0.36279 1.53368 0
M  V30 1588 C 145.764 -0.492994 2.29362 0
M  V30 1589 C 146.78 -1.09507 1.35219 0
M  V30 1590 O 147.956 -1.10662 1.68273 0
M  V30 1591 C 145.021 -1.61855 3.066 0
M  V30 1592 C 144.082 -1.04429 4.16405 0
M  V30 1593 C 143.315 -2.11621 4.89951 0
M  V30 1594 O 143.538 -3.32684 4.63333 0
M  V30 1595 O 142.472 -1.74835 5.75948 0
M  V30 1596 H 146.298 0.125331 3.03441 0
M  V30 1597 H 143.883 0.127253 1.48857 0
M  V30 1598 H 145.765 -2.27302 3.54841 0
M  V30 1599 H 144.44 -2.22233 2.3536 0
M  V30 1600 H 143.347 -0.353819 3.72423 0
M  V30 1601 H 144.68 -0.485113 4.89804 0
M  V30 1602 N 146.332 -1.57332 0.0918853 0
M  V30 1603 C 147.295 -2.12708 -0.85369 0
M  V30 1604 C 148.295 -1.05561 -1.213 0
M  V30 1605 O 149.485 -1.31461 -1.14296 0
M  V30 1606 C 146.617 -2.64503 -2.15061 0
M  V30 1607 H 147.81 -2.97573 -0.3729 0
M  V30 1608 H 145.363 -1.55509 -0.157072 0
M  V30 1609 H 146.098 -1.83149 -2.67632 0
M  V30 1610 H 145.883 -3.4284 -1.90272 0
M  V30 1611 H 147.373 -3.07351 -2.82711 0
M  V30 1612 N 147.81 0.181792 -1.56548 0
M  V30 1613 C 148.74 1.22765 -1.98623 0
M  V30 1614 C 149.721 1.46747 -0.860189 0
M  V30 1615 O 150.906 1.58259 -1.12551 0
M  V30 1616 C 148.036 2.56894 -2.33715 0
M  V30 1617 C 146.99 2.475 -3.49182 0
M  V30 1618 C 146.316 3.86023 -3.69986 0
M  V30 1619 C 147.616 1.98866 -4.82959 0
M  V30 1620 H 149.31 0.877942 -2.86239 0
M  V30 1621 H 146.856 0.42088 -1.37712 0
M  V30 1622 H 148.809 3.30253 -2.61746 0
M  V30 1623 H 147.533 2.93632 -1.42997 0
M  V30 1624 H 146.192 1.76596 -3.21262 0
M  V30 1625 H 145.84 4.20136 -2.76576 0
M  V30 1626 H 145.54 3.80609 -4.47672 0
M  V30 1627 H 147.064 4.60984 -4.00407 0
M  V30 1628 H 148.478 2.61992 -5.09934 0
M  V30 1629 H 146.875 2.04424 -5.64208 0
M  V30 1630 H 147.945 0.942465 -4.75653 0
M  V30 1631 N 149.288 1.51039 0.449983 0
M  V30 1632 C 150.198 1.74261 1.57067 0
M  V30 1633 C 151.214 0.626363 1.62335 0
M  V30 1634 O 152.39 0.907162 1.79812 0
M  V30 1635 C 149.455 1.85114 2.93144 0
M  V30 1636 C 148.516 3.0893 2.98095 0
M  V30 1637 C 147.749 3.19256 4.27681 0
M  V30 1638 O 147.972 2.35835 5.19363 0
M  V30 1639 O 146.906 4.12144 4.38658 0
M  V30 1640 H 150.732 2.69303 1.40391 0
M  V30 1641 H 148.317 1.35389 0.631688 0
M  V30 1642 H 150.199 1.94311 3.73926 0
M  V30 1643 H 148.874 0.932588 3.09975 0
M  V30 1644 H 147.781 3.0522 2.16314 0
M  V30 1645 H 149.114 4.00433 2.86206 0
M  V30 1646 N 150.766 -0.704594 1.40972 0
M  V30 1647 C 151.713 -1.81862 1.42109 0
M  V30 1648 C 152.683 -1.63781 0.276593 0
M  V30 1649 O 153.868 -1.84759 0.4763 0
M  V30 1650 C 151.008 -3.19669 1.30022 0
M  V30 1651 C 150.121 -3.49246 2.54267 0
M  V30 1652 C 149.256 -4.76618 2.3454 0
M  V30 1653 C 148.295 -4.99133 3.54306 0
M  V30 1654 N 147.432 -6.17726 3.33706 0
M  V30 1655 H 152.272 -1.80226 2.37324 0
M  V30 1656 H 149.809 -0.880238 1.17857 0
M  V30 1657 H 151.767 -3.99263 1.21018 0
M  V30 1658 H 150.397 -3.20506 0.384192 0
M  V30 1659 H 149.449 -2.64125 2.73756 0
M  V30 1660 H 150.761 -3.61788 3.43381 0
M  V30 1661 H 149.915 -5.64249 2.22952 0
M  V30 1662 H 148.654 -4.66305 1.42867 0
M  V30 1663 H 147.659 -4.09953 3.66359 0
M  V30 1664 H 148.884 -5.11311 4.4692 0
M  V30 1665 H 146.83 -6.08642 2.44725 0
M  V30 1666 H 146.747 -6.30995 4.16391 0
M  V30 1667 H 148.015 -7.08115 3.25873 0
M  V30 1668 N 152.244 -1.26651 -0.937939 0
M  V30 1669 C 153.177 -1.02811 -2.03728 0
M  V30 1670 C 154.155 0.0481915 -1.62529 0
M  V30 1671 O 155.339 -0.0948839 -1.88261 0
M  V30 1672 C 152.466 -0.557517 -3.3408 0
M  V30 1673 C 151.512 -1.62686 -3.94253 0
M  V30 1674 S 152.345 -3.21667 -4.28125 0
M  V30 1675 C 153.501 -2.76384 -5.61572 0
M  V30 1676 H 153.734 -1.95891 -2.23638 0
M  V30 1677 H 151.267 -1.10367 -1.07974 0
M  V30 1678 H 153.225 -0.292674 -4.09455 0
M  V30 1679 H 151.886 0.353062 -3.12109 0
M  V30 1680 H 151.079 -1.24866 -4.88287 0
M  V30 1681 H 150.681 -1.84324 -3.25424 0
M  V30 1682 H 152.973 -2.2105 -6.40424 0
M  V30 1683 H 153.916 -3.69123 -6.0428 0
M  V30 1684 H 154.324 -2.15847 -5.21604 0
M  V30 1685 N 153.722 1.14298 -1.08507 0
M  V30 1686 C 154.632 2.23027 -0.727753 0
M  V30 1687 C 155.648 1.71952 0.26619 0
M  V30 1688 O 156.824 2.011 0.109882 0
M  V30 1689 C 153.889 3.46403 -0.143541 0
M  V30 1690 C 152.95 4.12413 -1.19223 0
M  V30 1691 C 152.183 5.29899 -0.635798 0
M  V30 1692 O 152.406 5.67796 0.544393 0
M  V30 1693 O 151.34 5.85717 -1.38634 0
M  V30 1694 H 155.166 2.55945 -1.63481 0
M  V30 1695 H 152.751 1.22248 -0.858817 0
M  V30 1696 H 154.633 4.21018 0.179404 0
M  V30 1697 H 153.308 3.15206 0.736659 0
M  V30 1698 H 152.215 3.39667 -1.56772 0
M  V30 1699 H 153.548 4.47718 -2.04474 0
M  V30 1700 N 155.201 0.870884 1.31352 0
M  V30 1701 C 156.111 0.330783 2.32256 0
M  V30 1702 C 157.127 -0.559767 1.6475 0
M  V30 1703 O 158.303 -0.456263 1.96164 0
M  V30 1704 C 155.368 -0.458137 3.4366 0
M  V30 1705 C 154.429 0.460482 4.26823 0
M  V30 1706 C 153.662 -0.290881 5.32907 0
M  V30 1707 O 153.885 -1.51885 5.49806 0
M  V30 1708 O 152.819 0.351732 6.00871 0
M  V30 1709 H 156.645 1.16718 2.80376 0
M  V30 1710 H 154.23 0.634285 1.35267 0
M  V30 1711 H 156.112 -0.905343 4.1156 0
M  V30 1712 H 154.787 -1.27106 2.97701 0
M  V30 1713 H 153.694 0.956207 3.61673 0
M  V30 1714 H 155.027 1.23903 4.7635 0
M  V30 1715 N 156.679 -1.44442 0.630414 0
M  V30 1716 C 157.589 -2.34476 -0.0761693 0
M  V30 1717 C 158.605 -1.52576 -0.836449 0
M  V30 1718 O 159.781 -1.85307 -0.788874 0
M  V30 1719 C 156.846 -3.30545 -1.04599 0
M  V30 1720 C 155.907 -4.28352 -0.28516 0
M  V30 1721 C 155.14 -5.19831 -1.20878 0
M  V30 1722 O 155.363 -5.15223 -2.44747 0
M  V30 1723 O 154.297 -5.97892 -0.693491 0
M  V30 1724 H 158.123 -2.96345 0.664324 0
M  V30 1725 H 155.708 -1.44203 0.39061 0
M  V30 1726 H 157.59 -3.89681 -1.60396 0
M  V30 1727 H 156.265 -2.7121 -1.76711 0
M  V30 1728 H 155.172 -3.72764 0.315837 0
M  V30 1729 H 156.505 -4.90605 0.395924 0
M  V30 1730 N 158.157 -0.370918 -1.53173 0
M  V30 1731 C 159.089 0.507823 -2.23503 0
M  V30 1732 C 160.102 1.04182 -1.251 0
M  V30 1733 O 161.291 0.947286 -1.5129 0
M  V30 1734 C 158.391 1.71447 -2.92334 0
M  V30 1735 C 157.564 1.31105 -4.17289 0
M  V30 1736 C 156.623 2.38035 -4.69282 0
M  V30 1737 O 155.649 2.00204 -5.32829 0
M  V30 1738 N 156.851 3.69697 -4.47554 0
M  V30 1739 H 159.616 -0.0946382 -2.99551 0
M  V30 1740 H 157.177 -0.196358 -1.60705 0
M  V30 1741 H 159.169 2.42469 -3.24023 0
M  V30 1742 H 157.739 2.22368 -2.19707 0
M  V30 1743 H 156.959 0.430462 -3.91843 0
M  V30 1744 H 158.247 1.0179 -4.98514 0
M  V30 1745 H 157.645 4.03205 -3.9679 0
M  V30 1746 H 156.202 4.36807 -4.8378 0
M  V30 1747 N 159.635 1.57281 -0.100228 0
M  V30 1748 C 160.583 2.15542 0.874328 0
M  V30 1749 C 161.577 1.09962 1.28859 0
M  V30 1750 O 162.783 1.28298 1.26252 0
M  V30 1751 H 159.158 0.689567 0.300003 0
M  V30 1752 H 161.129 2.96241 0.35829 0
M  V30 1753 C 159.878 2.75454 2.1218 0
M  V30 1754 H 159.201 3.56384 1.81193 0
M  V30 1755 H 160.641 3.19781 2.78417 0
M  V30 1756 C 159.1 1.71602 2.89921 0
M  V30 1757 O 159.63 1.15804 3.84646 0
M  V30 1758 N 157.836 1.41975 2.53558 0
M  V30 1759 H 157.383 1.87539 1.76598 0
M  V30 1760 H 157.341 0.727274 3.05873 0
M  V30 1761 N 161.113 -0.173488 1.56642 0
M  V30 1762 C 162.06 -1.21482 1.96242 0
M  V30 1763 C 163.03 -1.44104 0.826027 0
M  V30 1764 O 164.215 -1.5688 1.08597 0
M  V30 1765 C 161.355 -2.54964 2.32567 0
M  V30 1766 C 160.468 -2.39739 3.59373 0
M  V30 1767 C 159.603 -3.66072 3.84921 0
M  V30 1768 C 158.642 -3.45771 5.05083 0
M  V30 1769 N 157.779 -4.64169 5.26775 0
M  V30 1770 H 162.619 -0.870123 2.85014 0
M  V30 1771 H 160.156 -0.418245 1.41029 0
M  V30 1772 H 162.114 -3.32758 2.5165 0
M  V30 1773 H 160.744 -2.87433 1.46908 0
M  V30 1774 H 159.796 -1.53131 3.48217 0
M  V30 1775 H 161.108 -2.20683 4.47326 0
M  V30 1776 H 160.262 -4.52303 4.0436 0
M  V30 1777 H 159.001 -3.88105 2.9534 0
M  V30 1778 H 158.006 -2.57927 4.85545 0
M  V30 1779 H 159.231 -3.25163 5.96193 0
M  V30 1780 H 157.177 -4.86425 4.40144 0
M  V30 1781 H 157.094 -4.48019 6.08946 0
M  V30 1782 H 158.362 -5.51689 5.5069 0
M  V30 1783 N 162.591 -1.51276 -0.441967 0
M  V30 1784 C 163.816 -1.67799 -1.21895 0
M  V30 1785 C 164.241 -0.372864 -1.84367 0
M  V30 1786 O 163.599 0.666501 -1.68604 0
M  V30 1787 C 163.647 -2.79199 -2.28211 0
M  V30 1788 O 162.751 -2.42479 -3.33583 0
M  V30 1789 H 162.092 -0.559649 -0.357336 0
M  V30 1790 H 164.622 -1.97815 -0.522522 0
M  V30 1791 H 164.632 -3.03146 -2.73069 0
M  V30 1792 H 163.307 -3.73906 -1.82118 0
M  V30 1793 H 161.884 -2.29087 -2.94234 0
M  V30 1794 N 164.069 0.697108 -1.41344 0
M  V30 1795 C 165.016 1.81106 -1.43071 0
M  V30 1796 C 165.986 1.63632 -0.285275 0
M  V30 1797 O 167.171 1.84504 -0.486091 0
M  V30 1798 C 164.311 3.18975 -1.31715 0
M  V30 1799 C 163.424 3.47892 -2.56115 0
M  V30 1800 C 162.559 4.75367 -2.37064 0
M  V30 1801 C 161.598 4.97247 -3.56948 0
M  V30 1802 N 160.735 6.15947 -3.36977 0
M  V30 1803 H 165.575 1.78965 -2.38276 0
M  V30 1804 H 163.112 0.873975 -1.18322 0
M  V30 1805 H 165.07 3.98615 -1.23133 0
M  V30 1806 H 163.7 3.20297 -0.401183 0
M  V30 1807 H 162.752 2.62669 -2.75153 0
M  V30 1808 H 164.064 3.59962 -3.45295 0
M  V30 1809 H 163.218 5.63059 -2.25941 0
M  V30 1810 H 161.957 4.65541 -1.45338 0
M  V30 1811 H 160.962 4.08004 -3.68527 0
M  V30 1812 H 162.187 5.08934 -4.49626 0
M  V30 1813 H 160.133 6.07336 -2.47949 0
M  V30 1814 H 160.05 6.28777 -4.19732 0
M  V30 1815 H 161.318 7.06377 -3.29623 0
M  V30 1816 N 165.547 1.27147 0.931209 0
M  V30 1817 C 166.495 1.09398 2.05268 0
M  V30 1818 C 167.489 0.0180591 1.6939 0
M  V30 1819 O 168.695 0.17551 1.79142 0
M  V30 1820 H 165.07 0.336986 0.672268 0
M  V30 1821 H 167.041 2.04416 2.17386 0
M  V30 1822 C 165.79 0.75424 3.39421 0
M  V30 1823 H 165.113 1.57404 3.67511 0
M  V30 1824 H 166.553 0.669903 4.18674 0
M  V30 1825 C 165.012 -0.541197 3.32525 0
M  V30 1826 O 165.542 -1.57664 3.69466 0
M  V30 1827 N 163.748 -0.535517 2.85623 0
M  V30 1828 H 163.295 0.307511 2.55758 0
M  V30 1829 H 163.253 -1.40236 2.81392 0
M  V30 1830 N 167.025 -1.13721 1.09112 0
M  V30 1831 C 167.972 -2.19031 0.727591 0
M  V30 1832 C 168.942 -1.63555 -0.289656 0
M  V30 1833 O 170.127 -1.90023 -0.172026 0
M  V30 1834 C 167.267 -3.4477 0.15082 0
M  V30 1835 C 166.38 -4.14365 1.22172 0
M  V30 1836 C 165.515 -5.27709 0.608042 0
M  V30 1837 C 164.554 -5.89147 1.66047 0
M  V30 1838 N 163.691 -6.93929 1.06806 0
M  V30 1839 H 168.531 -2.49475 1.62991 0
M  V30 1840 H 166.068 -1.22499 0.81439 0
M  V30 1841 H 168.026 -4.16714 -0.201358 0
M  V30 1842 H 166.656 -3.14787 -0.714783 0
M  V30 1843 H 165.708 -3.40737 1.69122 0
M  V30 1844 H 167.02 -4.56114 2.01895 0
M  V30 1845 H 166.174 -6.06355 0.204523 0
M  V30 1846 H 164.913 -4.872 -0.220769 0
M  V30 1847 H 163.918 -5.09198 2.07357 0
M  V30 1848 H 165.143 -6.31729 2.49189 0
M  V30 1849 H 163.089 -6.55483 0.260476 0
M  V30 1850 H 163.006 -7.34202 1.8023 0
M  V30 1851 H 164.274 -7.76434 0.690644 0
M  V30 1852 N 168.503 -0.877838 -1.30888 0
M  V30 1853 C 169.45 -0.337538 -2.28318 0
M  V30 1854 C 170.42 0.568346 -1.56074 0
M  V30 1855 O 171.605 0.498298 -1.84178 0
M  V30 1856 C 168.745 0.448142 -3.42178 0
M  V30 1857 C 167.858 -0.48615 -4.29256 0
M  V30 1858 C 166.993 0.314427 -5.30269 0
M  V30 1859 C 166.032 -0.615791 -6.08995 0
M  V30 1860 N 165.169 0.14902 -7.01942 0
M  V30 1861 H 170.009 -1.17356 -2.73919 0
M  V30 1862 H 167.546 -0.590094 -1.34745 0
M  V30 1863 H 169.504 0.919517 -4.06941 0
M  V30 1864 H 168.134 1.24879 -2.97666 0
M  V30 1865 H 167.186 -1.076 -3.64865 0
M  V30 1866 H 168.498 -1.19909 -4.84173 0
M  V30 1867 H 167.652 0.847969 -6.00745 0
M  V30 1868 H 166.391 1.06062 -4.76027 0
M  V30 1869 H 165.396 -1.16102 -5.37401 0
M  V30 1870 H 166.621 -1.36097 -6.65323 0
M  V30 1871 H 164.567 0.877884 -6.50099 0
M  V30 1872 H 164.484 -0.504433 -7.54315 0
M  V30 1873 H 165.752 0.663537 -7.76671 0
M  V30 1874 N 169.982 1.44106 -0.638065 0
M  V30 1875 C 170.945 2.29138 0.0531013 0
M  V30 1876 C 171.945 1.41409 0.765506 0
M  V30 1877 O 173.135 1.63206 0.609046 0
M  V30 1878 C 170.267 3.23144 1.08584 0
M  V30 1879 H 171.46 2.91739 -0.694883 0
M  V30 1880 H 169.013 1.51134 -0.398538 0
M  V30 1881 H 169.748 2.65408 1.86357 0
M  V30 1882 H 169.533 3.87804 0.578852 0
M  V30 1883 H 171.023 3.87004 1.56899 0
M  V30 1884 N 171.46 0.379036 1.52974 0
M  V30 1885 C 172.392 -0.495963 2.2377 0
M  V30 1886 C 173.405 -1.03517 1.25651 0
M  V30 1887 O 174.594 -0.939249 1.51791 0
M  V30 1888 C 171.694 -1.69894 2.93239 0
M  V30 1889 C 170.867 -1.2889 4.17979 0
M  V30 1890 C 169.926 -2.35543 4.70538 0
M  V30 1891 O 168.952 -1.97375 5.33883 0
M  V30 1892 N 170.154 -3.67318 4.49508 0
M  V30 1893 H 172.919 0.110523 2.99496 0
M  V30 1894 H 170.48 0.204878 1.60598 0
M  V30 1895 H 172.472 -2.40747 3.25304 0
M  V30 1896 H 171.042 -2.212 2.20883 0
M  V30 1897 H 170.262 -0.409676 3.92065 0
M  V30 1898 H 171.55 -0.991443 4.99047 0
M  V30 1899 H 170.948 -4.01095 3.98923 0
M  V30 1900 H 169.505 -4.34235 4.8609 0
M  V30 1901 N 172.938 -1.57226 0.108567 0
M  V30 1902 C 173.87 -2.11809 -0.875752 0
M  V30 1903 C 174.883 -1.05839 -1.23701 0
M  V30 1904 O 176.072 -1.33245 -1.18778 0
M  V30 1905 C 173.172 -2.59411 -2.18081 0
M  V30 1906 C 172.345 -3.89364 -1.99284 0
M  V30 1907 C 171.404 -4.22672 -3.13424 0
M  V30 1908 O 170.43 -4.91668 -2.86795 0
M  V30 1909 N 171.632 -3.79154 -4.3957 0
M  V30 1910 H 174.397 -2.9689 -0.409477 0
M  V30 1911 H 171.958 -1.61721 -0.076158 0
M  V30 1912 H 173.95 -2.7873 -2.93414 0
M  V30 1913 H 172.52 -1.79268 -2.5609 0
M  V30 1914 H 171.74 -3.79059 -1.08203 0
M  V30 1915 H 173.028 -4.74358 -1.84017 0
M  V30 1916 H 172.426 -3.23486 -4.64083 0
M  V30 1917 H 170.983 -4.03602 -5.11809 0
M  V30 1918 N 174.416 0.165178 -1.56732 0
M  V30 1919 C 175.379 1.18822 -1.95995 0
M  V30 1920 C 176.379 1.3685 -0.84431 0
M  V30 1921 O 177.569 1.34152 -1.11126 0
M  V30 1922 C 174.701 2.5521 -2.26011 0
M  V30 1923 H 175.894 0.851825 -2.87548 0
M  V30 1924 H 173.447 0.407857 -1.50885 0
M  V30 1925 H 174.182 2.93852 -1.37191 0
M  V30 1926 H 173.967 2.43489 -3.07336 0
M  V30 1927 H 175.457 3.28927 -2.57288 0
M  V30 1928 N 175.894 1.51508 0.433938 0
M  V30 1929 C 176.857 1.72473 1.50949 0
M  V30 1930 C 177.857 0.594725 1.49398 0
M  V30 1931 O 179.047 0.862315 1.5136 0
M  V30 1932 C 176.179 1.78431 2.90474 0
M  V30 1933 H 177.372 2.68467 1.33662 0
M  V30 1934 H 174.925 1.41549 0.662836 0
M  V30 1935 H 175.66 0.842645 3.13161 0
M  V30 1936 H 175.445 2.60558 2.93005 0
M  V30 1937 H 176.935 1.96479 3.68491 0
M  V30 1938 N 177.372 -0.689602 1.41712 0
M  V30 1939 C 178.335 -1.78521 1.43746 0
M  V30 1940 C 179.335 -1.57436 0.327191 0
M  V30 1941 O 180.525 -1.64 0.587348 0
M  V30 1942 C 177.657 -3.16971 1.25467 0
M  V30 1943 H 178.85 -1.78108 2.41283 0
M  V30 1944 H 176.403 -0.89781 1.27942 0
M  V30 1945 H 177.138 -3.23019 0.287948 0
M  V30 1946 H 176.923 -3.33678 2.05917 0
M  V30 1947 H 178.413 -3.96935 1.2974 0
M  V30 1948 N 178.85 -1.27639 -0.924453 0
M  V30 1949 C 180.127 -1.04887 -1.651 0
M  V30 1950 C 180.507 0.415327 -2.06974 0
M  V30 1951 O 179.855 1.39923 -1.80648 0
M  V30 1952 C 180.065 -2.01348 -2.85061 0
M  V30 1953 C 181.413 -2.30899 -3.56329 0
M  V30 1954 O 182.437 -1.99348 -2.95193 0
M  V30 1955 O 181.296 -2.84699 -4.66485 0
M  V30 1956 H 178.39 -0.400083 -0.723784 0
M  V30 1957 H 180.936 -1.38916 -0.974703 0
M  V30 1958 H 179.708 -3.0008 -2.51133 0
M  V30 1959 H 179.331 -1.679 -3.6041 0
M  V30 1960 N 180.328 1.1314 -1.09713 0
M  V30 1961 C 181.291 2.16831 -0.742751 0
M  V30 1962 C 182.291 1.59159 0.229129 0
M  V30 1963 O 183.481 1.74199 0.00693237 0
M  V30 1964 C 180.613 3.40756 -0.0989168 0
M  V30 1965 H 181.806 2.49695 -1.66109 0
M  V30 1966 H 179.359 1.2802 -0.896699 0
M  V30 1967 H 180.094 3.13485 0.830514 0
M  V30 1968 H 179.879 3.83888 -0.798265 0
M  V30 1969 H 181.369 4.17386 0.133524 0
M  V30 1970 N 181.806 0.884767 1.30421 0
M  V30 1971 C 183.054 0.502112 1.95763 0
M  V30 1972 C 183.375 -0.951815 1.70192 0
M  V30 1973 O 182.645 -1.6692 1.0254 0
M  V30 1974 H 181.225 0.182694 0.724315 0
M  V30 1975 H 183.887 1.1278 1.58955 0
M  V30 1976 H 182.983 0.672188 3.04775 0
M  V30 1977 N 183.284 -1.43765 0.645699 0
M  V30 1978 C 184.232 -2.32516 -0.0624849 0
M  V30 1979 C 185.226 -1.48183 -0.820855 0
M  V30 1980 O 186.432 -1.64439 -0.732106 0
M  V30 1981 H 182.807 -0.750989 -0.0389864 0
M  V30 1982 H 184.778 -2.89979 0.703892 0
M  V30 1983 C 183.527 -3.32389 -1.02044 0
M  V30 1984 H 182.85 -3.97301 -0.446312 0
M  V30 1985 H 184.29 -3.97138 -1.48517 0
M  V30 1986 C 182.749 -2.62416 -2.11281 0
M  V30 1987 O 183.279 -2.434 -3.19561 0
M  V30 1988 N 181.485 -2.21913 -1.87624 0
M  V30 1989 H 181.032 -2.37578 -0.995703 0
M  V30 1990 H 180.99 -1.75424 -2.6091 0
M  V30 1991 N 184.763 -0.387143 -1.52771 0
M  V30 1992 C 185.711 0.463953 -2.27926 0
M  V30 1993 C 186.705 1.06493 -1.31741 0
M  V30 1994 O 187.911 1.00565 -1.49287 0
M  V30 1995 H 184.286 0.16837 -0.732909 0
M  V30 1996 H 186.257 -0.19141 -2.97785 0
M  V30 1997 C 185.006 1.5803 -3.09713 0
M  V30 1998 H 184.329 1.12718 -3.83581 0
M  V30 1999 H 185.769 2.15008 -3.65442 0
M  V30 2000 C 184.228 2.53509 -2.2189 0
M  V30 2001 O 184.758 3.56863 -1.84422 0
M  V30 2002 N 182.964 2.23199 -1.86093 0
M  V30 2003 H 182.511 1.39185 -2.16761 0
M  V30 2004 H 182.469 2.87333 -1.27621 0
M  V30 2005 N 186.241 1.57166 -0.116904 0
M  V30 2006 C 187.466 1.999 0.55271 0
M  V30 2007 C 187.891 0.996039 1.59564 0
M  V30 2008 O 187.249 -0.032556 1.81271 0
M  V30 2009 C 187.297 3.4152 1.15742 0
M  V30 2010 O 186.401 3.44106 2.27299 0
M  V30 2011 H 185.742 0.649447 0.138258 0
M  V30 2012 H 188.272 2.03573 -0.204759 0
M  V30 2013 H 188.282 3.79684 1.49346 0
M  V30 2014 H 186.957 4.14034 0.393493 0
M  V30 2015 H 185.534 3.17759 1.9515 0
M  V30 2016 N 187.719 -0.156864 1.56817 0
M  V30 2017 C 188.651 -1.21883 1.94106 0
M  V30 2018 C 189.664 -1.3971 0.835754 0
M  V30 2019 O 190.853 -1.39457 1.11418 0
M  V30 2020 C 187.953 -2.58527 2.19127 0
M  V30 2021 C 187.126 -2.61809 3.50393 0
M  V30 2022 C 186.185 -3.7992 3.64071 0
M  V30 2023 O 185.211 -3.65249 4.36557 0
M  V30 2024 N 186.413 -4.96973 2.99997 0
M  V30 2025 H 189.178 -0.901974 2.85805 0
M  V30 2026 H 186.739 -0.346513 1.58148 0
M  V30 2027 H 188.731 -3.36034 2.25529 0
M  V30 2028 H 187.301 -2.82545 1.33742 0
M  V30 2029 H 186.521 -1.7029 3.5552 0
M  V30 2030 H 187.809 -2.61024 4.36742 0
M  V30 2031 H 187.207 -5.11794 2.41004 0
M  V30 2032 H 185.764 -5.7229 3.11974 0
M  V30 2033 N 189.197 -1.51736 -0.425897 0
M  V30 2034 C 190.443 -1.65214 -1.1761 0
M  V30 2035 C 190.776 -0.372778 -1.90589 0
M  V30 2036 O 190.051 0.628139 -1.84078 0
M  V30 2037 C 190.334 -2.86312 -2.18398 0
M  V30 2038 C 190.187 -4.24254 -1.49426 0
M  V30 2039 C 191.506 -3.02925 -3.19256 0
M  V30 2040 H 188.625 -0.601263 -0.426206 0
M  V30 2041 H 191.267 -1.8425 -0.463882 0
M  V30 2042 H 189.417 -2.70213 -2.79137 0
M  V30 2043 H 191.089 -4.52046 -0.919362 0
M  V30 2044 H 189.332 -4.26426 -0.796432 0
M  V30 2045 H 190.003 -5.05001 -2.22885 0
M  V30 2046 H 192.479 -3.1781 -2.68581 0
M  V30 2047 H 191.355 -3.89199 -3.8706 0
M  V30 2048 H 191.616 -2.15497 -3.86023 0
M  V30 2049 N 190.675 0.682077 -1.42076 0
M  V30 2050 C 191.9 1.47558 -1.45744 0
M  V30 2051 C 192.325 1.87977 -0.0680981 0
M  V30 2052 O 191.683 1.55522 0.9318 0
M  V30 2053 C 191.731 2.70575 -2.38373 0
M  V30 2054 O 190.835 3.68573 -1.85007 0
M  V30 2055 H 190.176 0.443585 -0.494093 0
M  V30 2056 H 192.706 0.837238 -1.86686 0
M  V30 2057 H 192.716 3.18729 -2.54707 0
M  V30 2058 H 191.391 2.40495 -3.39315 0
M  V30 2059 H 189.968 3.2757 -1.78192 0
M  V30 2060 N 192.153 1.28127 0.917671 0
M  V30 2061 C 193.085 1.07517 2.02417 0
M  V30 2062 C 194.098 0.0281099 1.62776 0
M  V30 2063 O 195.287 0.270748 1.76435 0
M  V30 2064 C 192.387 0.610957 3.33347 0
M  V30 2065 C 191.56 1.73255 4.01624 0
M  V30 2066 C 190.619 1.26238 5.10833 0
M  V30 2067 O 189.645 1.96389 5.34247 0
M  V30 2068 N 190.847 0.123448 5.80369 0
M  V30 2069 H 193.612 2.02806 2.20658 0
M  V30 2070 H 191.173 1.19827 1.08871 0
M  V30 2071 H 193.165 0.280101 4.0373 0
M  V30 2072 H 191.735 -0.24898 3.11607 0
M  V30 2073 H 190.955 2.23319 3.24842 0
M  V30 2074 H 192.243 2.48503 4.43986 0
M  V30 2075 H 191.641 -0.461847 5.63812 0
M  V30 2076 H 190.198 -0.148158 6.51632 0
M  V30 2077 N 193.631 -1.12557 1.10312 0
M  V30 2078 C 194.579 -2.20325 0.745629 0
M  V30 2079 C 195.573 -1.67429 -0.25763 0
M  V30 2080 O 196.779 -1.79612 -0.118132 0
M  V30 2081 H 193.154 -0.718118 0.223182 0
M  V30 2082 H 195.125 -2.47733 1.66346 0
M  V30 2083 C 193.874 -3.47168 0.192262 0
M  V30 2084 H 193.197 -3.88215 0.955475 0
M  V30 2085 H 194.637 -4.23995 -0.0198274 0
M  V30 2086 C 193.096 -3.19298 -1.07472 0
M  V30 2087 O 193.626 -3.3891 -2.15645 0
M  V30 2088 N 191.832 -2.73113 -0.992847 0
M  V30 2089 H 191.379 -2.57354 -0.112474 0
M  V30 2090 H 191.337 -2.54842 -1.84127 0
M  V30 2091 N 195.109 -0.891671 -1.2995 0
M  V30 2092 C 196.339 -0.527893 -1.99742 0
M  V30 2093 C 196.747 0.88979 -1.66971 0
M  V30 2094 O 196.09 1.59766 -0.906667 0
M  V30 2095 C 196.152 -0.630804 -3.53922 0
M  V30 2096 C 195.816 -2.01401 -4.10228 0
M  V30 2097 C 196.813 -2.98422 -4.25724 0
M  V30 2098 C 194.498 -2.32121 -4.45449 0
M  V30 2099 C 196.492 -4.24293 -4.75662 0
M  V30 2100 C 194.179 -3.58237 -4.95086 0
M  V30 2101 C 195.177 -4.54137 -5.10146 0
M  V30 2102 O 194.865 -5.78014 -5.58708 0
M  V30 2103 H 194.597 -0.201953 -0.645129 0
M  V30 2104 H 197.151 -1.20076 -1.66646 0
M  V30 2105 H 195.381 0.0990616 -3.86573 0
M  V30 2106 H 197.07 -0.277338 -4.04951 0
M  V30 2107 H 197.836 -2.76001 -3.98809 0
M  V30 2108 H 193.715 -1.5824 -4.32991 0
M  V30 2109 H 197.259 -4.99153 -4.87332 0
M  V30 2110 H 193.156 -3.80491 -5.21437 0
M  V30 2111 H 193.924 -5.8049 -5.77039 0
M  V30 2112 N 196.587 1.43421 -0.653314 0
M  V30 2113 C 197.998 1.85065 -0.246537 0
M  V30 2114 C 198.349 1.54688 1.2069 0
M  V30 2115 O 197.474 0.995896 1.92122 0
M  V30 2116 C 198.069 3.35922 -0.440666 0
M  V30 2117 C 196.628 3.76297 -0.0882064 0
M  V30 2118 C 195.775 2.67147 -0.743484 0
M  V30 2119 H 198.726 1.33572 -0.856979 0
M  V30 2120 H 198.747 3.79204 0.313798 0
M  V30 2121 H 198.259 3.58 -1.49858 0
M  V30 2122 H 196.36 3.5983 0.96711 0
M  V30 2123 H 196.473 4.76338 -0.513738 0
M  V30 2124 H 194.837 2.54086 -0.176712 0
M  V30 2125 H 195.62 2.92053 -1.80443 0
M  V30 2126 N 198.065 0.39524 1.52563 0
M  V30 2127 C 199.314 -0.186321 2.00838 0
M  V30 2128 C 199.627 -1.47402 1.28577 0
M  V30 2129 O 200.833 -2.13599 1.67593 0
M  V30 2130 C 199.289 -0.382595 3.57861 0
M  V30 2131 C 198.897 0.892202 4.39026 0
M  V30 2132 C 200.641 -0.9202 4.14406 0
M  V30 2133 C 198.548 0.66388 5.87662 0
M  V30 2134 H 197.478 -0.0734041 0.750418 0
M  V30 2135 H 200.129 0.518552 1.76021 0
M  V30 2136 H 198.511 -1.14946 3.7895 0
M  V30 2137 H 199.685 1.66414 4.29701 0
M  V30 2138 H 198 1.35519 3.9373 0
M  V30 2139 H 200.597 -1.10683 5.23119 0
M  V30 2140 H 200.94 -1.89096 3.70875 0
M  V30 2141 H 201.473 -0.212751 3.97231 0
M  V30 2142 H 198.212 1.6058 6.35527 0
M  V30 2143 H 197.732 -0.0690193 5.9976 0
M  V30 2144 H 199.411 0.300699 6.46301 0
M  V30 2145 N 199.544 -1.57102 0.125237 0
M  V30 2146 C 200.79 -1.95697 -0.532035 0
M  V30 2147 C 201.123 -1.009 -1.6593 0
M  V30 2148 O 200.398 -0.047347 -1.94442 0
M  V30 2149 C 200.681 -3.44181 -1.05884 0
M  V30 2150 C 200.534 -4.49752 0.0654392 0
M  V30 2151 C 201.853 -3.94655 -1.9477 0
M  V30 2152 H 198.972 -0.711571 -0.191925 0
M  V30 2153 H 201.614 -1.88923 0.20206 0
M  V30 2154 H 199.764 -3.50085 -1.68442 0
M  V30 2155 H 201.436 -4.55943 0.700982 0
M  V30 2156 H 199.679 -4.27653 0.727709 0
M  V30 2157 H 200.35 -5.50924 -0.344505 0
M  V30 2158 H 202.826 -3.91094 -1.42074 0
M  V30 2159 H 201.702 -4.99057 -2.28546 0
M  V30 2160 H 201.963 -3.35718 -2.87656 0
M  V30 2161 N 201.022 0.148545 -1.56898 0
M  V30 2162 C 201.954 1.20852 -1.9475 0
M  V30 2163 C 202.967 1.39265 -0.843152 0
M  V30 2164 O 204.156 1.38864 -1.12156 0
M  V30 2165 C 201.256 2.57362 -2.20495 0
M  V30 2166 C 200.429 2.59947 -3.51776 0
M  V30 2167 C 199.488 3.77984 -3.6608 0
M  V30 2168 O 198.514 3.62929 -4.38487 0
M  V30 2169 N 199.716 4.95375 -3.02629 0
M  V30 2170 H 202.481 0.886804 -2.86279 0
M  V30 2171 H 200.042 0.338121 -1.5833 0
M  V30 2172 H 202.034 3.34833 -2.27307 0
M  V30 2173 H 200.604 2.81832 -1.35238 0
M  V30 2174 H 199.824 1.68403 -3.56419 0
M  V30 2175 H 201.112 2.58704 -4.38121 0
M  V30 2176 H 200.51 5.10509 -2.43715 0
M  V30 2177 H 199.067 5.70627 -3.15004 0
M  V30 2178 N 202.5 1.5196 0.417844 0
M  V30 2179 C 203.448 1.75278 1.52907 0
M  V30 2180 C 204.442 0.619611 1.57662 0
M  V30 2181 O 205.648 0.801457 1.61173 0
M  V30 2182 H 202.023 0.554141 0.508362 0
M  V30 2183 H 203.994 2.68389 1.30422 0
M  V30 2184 C 202.743 1.91262 2.90369 0
M  V30 2185 H 202.066 2.77872 2.8745 0
M  V30 2186 H 203.506 2.11581 3.67436 0
M  V30 2187 C 201.965 0.677431 3.30019 0
M  V30 2188 O 202.495 -0.158799 4.01386 0
M  V30 2189 N 200.701 0.515851 2.85985 0
M  V30 2190 H 200.248 1.19744 2.28077 0
M  V30 2191 H 200.206 -0.309315 3.12875 0
M  V30 2192 N 203.978 -0.674533 1.42435 0
M  V30 2193 C 204.908 -1.80009 1.48724 0
M  V30 2194 C 205.889 -1.6659 0.343793 0
M  V30 2195 O 207.074 -1.86007 0.558137 0
M  V30 2196 C 204.204 -3.18306 1.38919 0
M  V30 2197 C 203.158 -3.46461 2.51294 0
M  V30 2198 C 202.484 -4.84335 2.26547 0
M  V30 2199 C 203.784 -3.43328 3.93603 0
M  V30 2200 H 205.478 -1.75004 2.42928 0
M  V30 2201 H 203.024 -0.840533 1.16923 0
M  V30 2202 H 204.977 -3.9678 1.41927 0
M  V30 2203 H 203.701 -3.2399 0.412094 0
M  V30 2204 H 202.36 -2.70348 2.47604 0
M  V30 2205 H 202.008 -4.86669 1.2713 0
M  V30 2206 H 201.708 -5.04136 3.01861 0
M  V30 2207 H 203.232 -5.65094 2.31304 0
M  V30 2208 H 204.646 -4.11772 3.98894 0
M  V30 2209 H 203.043 -3.74664 4.68771 0
M  V30 2210 H 204.113 -2.41897 4.20255 0
M  V30 2211 N 205.456 -1.28612 -0.910864 0
M  V30 2212 C 206.388 -1.08589 -2.01844 0
M  V30 2213 C 207.401 -0.0367419 -1.62759 0
M  V30 2214 O 208.59 -0.280101 -1.76289 0
M  V30 2215 C 205.69 -0.628626 -3.33019 0
M  V30 2216 C 204.863 -1.75382 -4.00699 0
M  V30 2217 C 203.922 -1.28945 -5.10156 0
M  V30 2218 O 202.948 -1.9922 -5.33198 0
M  V30 2219 N 204.15 -0.154224 -5.80295 0
M  V30 2220 H 206.915 -2.03973 -2.19579 0
M  V30 2221 H 204.476 -1.20403 -1.08234 0
M  V30 2222 H 206.468 -0.301508 -4.03575 0
M  V30 2223 H 205.038 0.232451 -3.11735 0
M  V30 2224 H 204.258 -2.25039 -3.23653 0
M  V30 2225 H 205.546 -2.50854 -4.42662 0
M  V30 2226 H 204.944 0.43194 -5.64049 0
M  V30 2227 H 203.501 0.113599 -6.51701 0
M  V30 2228 N 206.934 1.1197 -1.10907 0
M  V30 2229 C 208.182 1.83225 -0.852819 0
M  V30 2230 C 208.503 1.84769 0.623341 0
M  V30 2231 O 207.773 1.3143 1.45269 0
M  V30 2232 H 206.353 0.67849 -0.312507 0
M  V30 2233 H 209.015 1.3556 -1.40033 0
M  V30 2234 H 208.111 2.87265 -1.22005 0
M  V30 2235 N 208.412 0.89855 1.29475 0
M  V30 2236 C 209.344 0.332726 2.26772 0
M  V30 2237 C 210.357 -0.520323 1.54261 0
M  V30 2238 O 211.546 -0.337668 1.75277 0
M  V30 2239 C 208.646 -0.544334 3.345 0
M  V30 2240 C 207.819 0.282728 4.36485 0
M  V30 2241 C 206.878 -0.526982 5.23555 0
M  V30 2242 O 205.904 0.0551165 5.69173 0
M  V30 2243 N 207.106 -1.83331 5.5079 0
M  V30 2244 H 209.871 1.16897 2.75962 0
M  V30 2245 H 207.432 0.762919 1.42798 0
M  V30 2246 H 209.424 -1.09239 3.89678 0
M  V30 2247 H 207.994 -1.28127 2.85136 0
M  V30 2248 H 207.214 1.01221 3.80983 0
M  V30 2249 H 208.502 0.84918 5.01664 0
M  V30 2250 H 207.9 -2.32898 5.15534 0
M  V30 2251 H 206.457 -2.32852 6.08788 0
M  V30 2252 N 209.89 -1.43072 0.660911 0
M  V30 2253 C 210.823 -2.28074 -0.0758862 0
M  V30 2254 C 211.801 -1.40271 -0.822362 0
M  V30 2255 O 212.985 -1.69713 -0.820352 0
M  V30 2256 C 210.112 -3.19843 -1.11437 0
M  V30 2257 C 209.158 -4.23957 -0.465069 0
M  V30 2258 S 209.991 -5.29978 0.767078 0
M  V30 2259 C 211.147 -6.25314 -0.270682 0
M  V30 2260 H 211.38 -2.90216 0.645139 0
M  V30 2261 H 208.913 -1.47697 0.449995 0
M  V30 2262 H 210.871 -3.73257 -1.70849 0
M  V30 2263 H 209.532 -2.56863 -1.80776 0
M  V30 2264 H 208.725 -4.88299 -1.24819 0
M  V30 2265 H 208.327 -3.73959 0.0551242 0
M  V30 2266 H 210.619 -6.67932 -1.13459 0
M  V30 2267 H 211.562 -7.07293 0.337916 0
M  V30 2268 H 211.97 -5.61195 -0.609937 0
M  V30 2269 N 211.368 -0.403325 -1.52352 0
M  V30 2270 C 212.614 0.174605 -2.02047 0
M  V30 2271 C 212.947 1.45282 -1.28867 0
M  V30 2272 O 212.222 1.90483 -0.393257 0
M  V30 2273 C 212.505 0.428238 -3.57545 0
M  V30 2274 C 212.358 -0.866248 -4.4138 0
M  V30 2275 C 213.677 1.21287 -4.23057 0
M  V30 2276 H 210.796 0.0619851 -0.734389 0
M  V30 2277 H 213.438 -0.53565 -1.82293 0
M  V30 2278 H 211.588 1.03327 -3.74507 0
M  V30 2279 H 213.26 -1.50265 -4.3614 0
M  V30 2280 H 211.503 -1.47851 -4.07827 0
M  V30 2281 H 212.174 -0.643249 -5.48239 0
M  V30 2282 H 214.65 0.700703 -4.10158 0
M  V30 2283 H 213.526 1.35909 -5.31808 0
M  V30 2284 H 213.787 2.23193 -3.81625 0
M  V30 2285 N 212.846 1.57033 -0.133567 0
M  V30 2286 C 213.796 2.12641 0.822671 0
M  V30 2287 C 214.78 1.05081 1.21847 0
M  V30 2288 O 215.972 1.31287 1.18713 0
M  V30 2289 C 213.101 2.74094 2.06706 0
M  V30 2290 C 212.187 3.88757 1.69497 0
M  V30 2291 N 212.578 4.95194 1.03037 0
M  V30 2292 C 210.876 3.99213 1.98859 0
M  V30 2293 C 211.577 5.75414 0.852873 0
M  V30 2294 N 210.553 5.25726 1.3825 0
M  V30 2295 H 214.355 2.92308 0.305537 0
M  V30 2296 H 211.869 1.62256 0.0684276 0
M  V30 2297 H 213.866 3.12285 2.76195 0
M  V30 2298 H 212.526 1.95896 2.5895 0
M  V30 2299 H 213.537 5.13247 0.692669 0
M  V30 2300 H 210.214 3.32075 2.53047 0
M  V30 2301 H 211.604 6.71089 0.330091 0
M  V30 2302 N 214.325 -0.140222 1.56975 0
M  V30 2303 C 215.257 -1.19818 1.95388 0
M  V30 2304 C 216.27 -1.38816 0.850525 0
M  V30 2305 O 217.459 -1.38267 1.12891 0
M  V30 2306 C 214.559 -2.56189 2.21857 0
M  V30 2307 C 213.732 -2.58077 3.5315 0
M  V30 2308 C 212.791 -3.76037 3.6808 0
M  V30 2309 O 211.817 -3.60598 4.40406 0
M  V30 2310 N 213.019 -4.93763 3.05251 0
M  V30 2311 H 215.784 -0.871609 2.86746 0
M  V30 2312 H 213.345 -0.32972 1.58507 0
M  V30 2313 H 215.337 -3.33623 2.2908 0
M  V30 2314 H 213.907 -2.81111 1.36731 0
M  V30 2315 H 213.127 -1.6651 3.57307 0
M  V30 2316 H 214.415 -2.56377 4.39486 0
M  V30 2317 H 213.813 -5.09209 2.46419 0
M  V30 2318 H 212.37 -5.68949 3.18026 0
M  V30 2319 N 215.803 -1.52179 -0.40978 0
M  V30 2320 C 216.766 -1.74853 -1.48186 0
M  V30 2321 C 217.766 -0.618417 -1.48433 0
M  V30 2322 O 218.956 -0.886286 -1.49969 0
M  V30 2323 C 216.088 -1.8303 -2.87598 0
M  V30 2324 H 217.281 -2.70559 -1.29374 0
M  V30 2325 H 214.834 -1.42586 -0.640233 0
M  V30 2326 H 215.569 -0.89236 -3.11781 0
M  V30 2327 H 215.354 -2.65187 -2.88822 0
M  V30 2328 H 216.844 -2.02316 -3.65319 0
M  V30 2329 N 217.281 0.66697 -1.42791 0
M  V30 2330 C 218.53 1.42278 -1.42968 0
M  V30 2331 C 218.843 1.9553 -0.0524489 0
M  V30 2332 O 220.049 2.71414 0.068363 0
M  V30 2333 C 218.505 2.57418 -2.51524 0
M  V30 2334 C 218.113 2.10832 -3.9529 0
M  V30 2335 C 219.857 3.34878 -2.60877 0
M  V30 2336 C 217.764 3.23101 -4.95338 0
M  V30 2337 H 216.694 0.534533 -0.531781 0
M  V30 2338 H 219.345 0.721302 -1.68729 0
M  V30 2339 H 217.727 3.29971 -2.18941 0
M  V30 2340 H 218.901 1.4538 -4.37266 0
M  V30 2341 H 217.216 1.46289 -3.89857 0
M  V30 2342 H 219.813 4.18505 -3.32802 0
M  V30 2343 H 220.156 3.81993 -1.6549 0
M  V30 2344 H 220.689 2.69398 -2.92693 0
M  V30 2345 H 217.428 2.80969 -5.9223 0
M  V30 2346 H 216.948 3.87309 -4.57987 0
M  V30 2347 H 218.627 3.88447 -5.17415 0
M  V30 2348 N 218.759 1.29093 0.90403 0
M  V30 2349 C 219.984 1.19809 1.69294 0
M  V30 2350 C 220.409 -0.238481 1.86582 0
M  V30 2351 O 219.767 -1.1723 1.383 0
M  V30 2352 C 219.815 1.91202 3.05736 0
M  V30 2353 O 218.919 1.22611 3.93752 0
M  V30 2354 H 218.26 0.415385 0.518027 0
M  V30 2355 H 220.79 1.70586 1.12967 0
M  V30 2356 H 220.8 1.99487 3.55906 0
M  V30 2357 H 219.475 2.95692 2.92471 0
M  V30 2358 H 218.052 1.22554 3.52186 0
M  V30 2359 N 220.237 -1.11381 1.11499 0
M  V30 2360 C 221.648 -1.6465 0.880191 0
M  V30 2361 C 221.999 -1.87199 -0.587434 0
M  V30 2362 O 221.124 -1.60667 -1.44966 0
M  V30 2363 C 221.719 -2.99105 1.59128 0
M  V30 2364 C 220.278 -3.49279 1.40289 0
M  V30 2365 C 219.425 -2.24077 1.63354 0
M  V30 2366 H 222.376 -0.950123 1.27116 0
M  V30 2367 H 222.397 -3.66107 1.03664 0
M  V30 2368 H 221.909 -2.82661 2.65941 0
M  V30 2369 H 220.01 -3.70887 0.356888 0
M  V30 2370 H 220.123 -4.2803 2.15238 0
M  V30 2371 H 218.487 -2.31733 1.05698 0
M  V30 2372 H 219.27 -2.10175 2.71443 0
M  V30 2373 N 221.715 -0.905404 -1.28997 0
M  V30 2374 C 223.131 -0.60233 -1.47798 0
M  V30 2375 C 223.331 0.854645 -1.82478 0
M  V30 2376 O 222.387 1.63439 -1.92468 0
M  V30 2377 C 223.7 -1.53306 -2.58685 0
M  V30 2378 C 225.248 -1.53887 -2.72558 0
M  V30 2379 C 225.723 -2.45602 -3.86579 0
M  V30 2380 N 227.214 -2.43681 -3.93921 0
M  V30 2381 C 227.949 -3.11347 -4.81509 0
M  V30 2382 N 227.445 -3.88313 -5.73746 0
M  V30 2383 N 229.238 -3.00476 -4.75048 0
M  V30 2384 H 221.389 -1.84765 -1.04764 0
M  V30 2385 H 223.652 -0.792025 -0.520961 0
M  V30 2386 H 223.358 -2.57141 -2.39941 0
M  V30 2387 H 223.232 -1.25787 -3.55609 0
M  V30 2388 H 225.619 -0.507941 -2.90696 0
M  V30 2389 H 225.7 -1.85447 -1.76191 0
M  V30 2390 H 225.344 -3.48792 -3.69197 0
M  V30 2391 H 225.274 -2.11349 -4.82327 0
M  V30 2392 H 227.765 -1.87767 -3.27951 0
M  V30 2393 H 228.078 -4.36985 -6.37389 0
M  V30 2394 H 226.423 -3.92419 -5.73614 0
M  V30 2395 H 229.614 -2.39858 -4.01977 0
M  V30 2396 H 229.787 -3.53485 -5.43095 0
M  V30 2397 N 223.193 1.4272 -0.668489 0
M  V30 2398 C 224.421 2.05966 -0.196348 0
M  V30 2399 C 224.836 1.50191 1.14403 0
M  V30 2400 O 224.193 0.639208 1.7094 0
M  V30 2401 C 224.244 3.61314 -0.115815 0
M  V30 2402 O 223.965 4.1502 -1.40322 0
M  V30 2403 C 225.466 4.41663 0.380579 0
M  V30 2404 H 222.686 0.663954 -0.0969829 0
M  V30 2405 H 225.23 1.82966 -0.913446 0
M  V30 2406 H 223.385 3.83448 0.551931 0
M  V30 2407 H 223.799 5.08832 -1.27243 0
M  V30 2408 H 225.273 5.5065 0.385848 0
M  V30 2409 H 225.75 4.15792 1.41471 0
M  V30 2410 H 226.356 4.24534 -0.255209 0
M  V30 2411 N 224.671 0.411399 1.52136 0
M  V30 2412 C 225.601 -0.404015 2.29978 0
M  V30 2413 C 226.582 -1.04412 1.34284 0
M  V30 2414 O 227.767 -1.0527 1.63192 0
M  V30 2415 C 224.897 -1.5197 3.12286 0
M  V30 2416 C 223.851 -1.00448 4.16046 0
M  V30 2417 C 223.177 -2.21393 4.86712 0
M  V30 2418 C 224.477 -0.0569336 5.22269 0
M  V30 2419 H 226.171 0.245529 2.98392 0
M  V30 2420 H 223.717 0.119525 1.43503 0
M  V30 2421 H 225.67 -2.09715 3.6551 0
M  V30 2422 H 224.394 -2.19716 2.41646 0
M  V30 2423 H 223.053 -0.449421 3.63835 0
M  V30 2424 H 222.701 -2.87699 4.12599 0
M  V30 2425 H 222.401 -1.87571 5.56858 0
M  V30 2426 H 223.925 -2.7974 5.4275 0
M  V30 2427 H 225.339 -0.54325 5.7072 0
M  V30 2428 H 223.736 0.192594 5.99791 0
M  V30 2429 H 224.806 0.887663 4.76706 0
M  V30 2430 N 226.149 -1.5696 0.141893 0
M  V30 2431 C 227.097 -2.17784 -0.816874 0
M  V30 2432 C 228.091 -1.1334 -1.25899 0
M  V30 2433 O 229.297 -1.316 -1.22806 0
M  V30 2434 H 225.672 -0.697278 -0.281615 0
M  V30 2435 H 227.643 -2.97087 -0.279621 0
M  V30 2436 C 226.392 -2.80983 -2.04802 0
M  V30 2437 H 225.715 -3.61062 -1.7168 0
M  V30 2438 H 227.155 -3.2705 -2.69841 0
M  V30 2439 C 225.614 -1.79228 -2.8527 0
M  V30 2440 O 226.144 -1.25962 -3.8144 0
M  V30 2441 N 224.35 -1.48647 -2.49704 0
M  V30 2442 H 223.897 -1.92155 -1.71564 0
M  V30 2443 H 223.855 -0.808115 -3.03837 0
M  V30 2444 N 227.627 0.131896 -1.57047 0
M  V30 2445 C 228.59 1.14638 -1.98471 0
M  V30 2446 C 229.59 1.35029 -0.873148 0
M  V30 2447 O 230.78 1.31764 -1.13946 0
M  V30 2448 C 227.912 2.50358 -2.31373 0
M  V30 2449 H 229.105 0.79064 -2.8929 0
M  V30 2450 H 226.658 0.375761 -1.51716 0
M  V30 2451 H 227.393 2.90876 -1.43393 0
M  V30 2452 H 227.178 2.36915 -3.12432 0
M  V30 2453 H 228.668 3.23395 -2.64207 0
M  V30 2454 N 229.106 1.52395 0.401703 0
M  V30 2455 C 230.352 1.68019 1.14635 0
M  V30 2456 C 230.707 0.408722 1.88009 0
M  V30 2457 O 230 -0.597133 1.82057 0
M  V30 2458 C 230.194 2.84578 2.16217 0
M  V30 2459 C 230.023 4.22938 1.5282 0
M  V30 2460 C 228.793 4.88352 1.29772 0
M  V30 2461 C 230.991 5.04778 0.985094 0
M  V30 2462 N 228.973 6.10726 0.623455 0
M  V30 2463 C 230.344 6.1845 0.438172 0
M  V30 2464 C 232.399 4.90057 0.880275 0
M  V30 2465 C 231.102 7.19013 -0.203306 0
M  V30 2466 C 233.128 5.9086 0.252639 0
M  V30 2467 C 232.49 7.03829 -0.283573 0
M  V30 2468 H 228.589 0.668413 0.405892 0
M  V30 2469 H 231.173 1.89717 0.437674 0
M  V30 2470 H 229.344 2.64483 2.84435 0
M  V30 2471 H 231.076 2.89202 2.83098 0
M  V30 2472 H 227.831 4.46846 1.56926 0
M  V30 2473 H 228.255 6.76323 0.302733 0
M  V30 2474 H 232.897 4.02938 1.28065 0
M  V30 2475 H 230.615 8.05751 -0.615726 0
M  V30 2476 H 234.201 5.81543 0.172954 0
M  V30 2477 H 233.081 7.80493 -0.761575 0
M  V30 2478 N 230.584 -0.659388 1.43143 0
M  V30 2479 C 231.83 -1.42145 1.44647 0
M  V30 2480 C 232.163 -1.9408 0.0681907 0
M  V30 2481 O 231.438 -1.71899 -0.910007 0
M  V30 2482 C 231.721 -2.60735 2.48373 0
M  V30 2483 C 231.574 -2.14332 3.95451 0
M  V30 2484 C 232.893 -3.62951 2.48906 0
M  V30 2485 H 230.012 -0.51552 0.526696 0
M  V30 2486 H 232.654 -0.748069 1.74654 0
M  V30 2487 H 230.804 -3.18184 2.22916 0
M  V30 2488 H 232.476 -1.61932 4.31944 0
M  V30 2489 H 230.719 -1.4576 4.08578 0
M  V30 2490 H 231.39 -2.99583 4.63631 0
M  V30 2491 H 233.866 -3.1525 2.71582 0
M  V30 2492 H 232.742 -4.43487 3.23435 0
M  V30 2493 H 233.003 -4.15126 1.52061 0
M  V30 2494 N 232.062 -1.29571 -0.897171 0
M  V30 2495 C 233.009 -1.14916 -2.00158 0
M  V30 2496 C 233.979 -0.0418149 -1.66047 0
M  V30 2497 O 235.164 -0.209793 -1.89643 0
M  V30 2498 C 232.304 -0.834307 -3.34863 0
M  V30 2499 C 231.417 -2.02234 -3.8174 0
M  V30 2500 C 230.552 -1.64664 -5.05034 0
M  V30 2501 C 229.591 -2.80033 -5.44286 0
M  V30 2502 N 228.728 -2.42843 -6.58765 0
M  V30 2503 H 233.568 -2.09403 -2.12025 0
M  V30 2504 H 231.105 -1.042 -1.0383 0
M  V30 2505 H 233.063 -0.632436 -4.12379 0
M  V30 2506 H 231.693 0.0736656 -3.22716 0
M  V30 2507 H 230.745 -2.33583 -3.00238 0
M  V30 2508 H 232.057 -2.88673 -4.06779 0
M  V30 2509 H 231.211 -1.4078 -5.9014 0
M  V30 2510 H 229.95 -0.753766 -4.8184 0
M  V30 2511 H 228.955 -3.04596 -4.57713 0
M  V30 2512 H 230.18 -3.69989 -5.6946 0
M  V30 2513 H 228.126 -1.56046 -6.3717 0
M  V30 2514 H 228.043 -3.22815 -6.83613 0
M  V30 2515 H 229.311 -2.22285 -7.47134 0
M  V30 2516 N 233.54 1.10788 -1.12088 0
M  V30 2517 C 234.786 1.82942 -0.875226 0
M  V30 2518 C 235.119 1.84779 0.597538 0
M  V30 2519 O 234.394 1.30578 1.44152 0
M  V30 2520 C 234.677 3.29789 -1.44606 0
M  V30 2521 C 234.53 3.36307 -2.98693 0
M  V30 2522 C 235.849 4.26064 -1.10261 0
M  V30 2523 H 232.968 0.664195 -0.319397 0
M  V30 2524 H 235.61 1.29867 -1.38689 0
M  V30 2525 H 233.76 3.75118 -1.01089 0
M  V30 2526 H 235.432 2.99487 -3.50864 0
M  V30 2527 H 233.675 2.76318 -3.34411 0
M  V30 2528 H 234.346 4.39694 -3.33726 0
M  V30 2529 H 236.822 3.88951 -1.4784 0
M  V30 2530 H 235.698 5.27183 -1.52869 0
M  V30 2531 H 235.959 4.42098 -0.0142953 0
M  V30 2532 N 235.018 0.912232 1.28515 0
M  V30 2533 C 236.267 0.540504 1.94323 0
M  V30 2534 C 236.58 -0.920044 1.72611 0
M  V30 2535 O 237.786 -1.39986 2.32629 0
M  V30 2536 C 236.242 0.915803 3.48053 0
M  V30 2537 C 235.85 2.39598 3.78546 0
M  V30 2538 C 237.594 0.614588 4.20027 0
M  V30 2539 C 235.501 2.71148 5.25578 0
M  V30 2540 H 234.431 0.198418 0.727424 0
M  V30 2541 H 237.082 1.11094 1.46049 0
M  V30 2542 H 235.464 0.274168 3.9505 0
M  V30 2543 H 236.638 3.08422 3.42364 0
M  V30 2544 H 234.953 2.66749 3.1974 0
M  V30 2545 H 237.55 0.827002 5.28266 0
M  V30 2546 H 237.893 -0.447531 4.13887 0
M  V30 2547 H 238.426 1.21462 3.78803 0
M  V30 2548 H 235.165 3.76207 5.36794 0
M  V30 2549 H 234.685 2.0696 5.62963 0
M  V30 2550 H 236.364 2.58072 5.93302 0
M  V30 2551 N 236.496 -1.42363 0.676048 0
M  V30 2552 C 237.406 -2.346 -0.00153389 0
M  V30 2553 C 238.422 -1.5516 -0.787485 0
M  V30 2554 O 239.598 -1.87723 -0.729521 0
M  V30 2555 C 236.663 -3.33705 -0.940298 0
M  V30 2556 C 235.724 -4.29042 -0.148739 0
M  V30 2557 C 234.957 -5.23413 -1.04279 0
M  V30 2558 O 235.18 -5.22749 -2.28232 0
M  V30 2559 O 234.114 -5.99795 -0.502925 0
M  V30 2560 H 237.94 -2.94082 0.758268 0
M  V30 2561 H 235.525 -1.42888 0.436289 0
M  V30 2562 H 237.407 -3.94586 -1.47917 0
M  V30 2563 H 236.082 -2.76695 -1.67993 0
M  V30 2564 H 234.989 -3.71571 0.43427 0
M  V30 2565 H 236.322 -4.89097 0.551805 0
M  V30 2566 N 237.974 -0.419461 -1.51915 0
M  V30 2567 C 238.884 0.407528 -2.31033 0
M  V30 2568 C 239.9 1.04413 -1.3919 0
M  V30 2569 O 241.076 1.0434 -1.72265 0
M  V30 2570 C 238.141 1.50365 -3.12396 0
M  V30 2571 C 237.202 0.889029 -4.19994 0
M  V30 2572 C 236.435 1.93291 -4.97468 0
M  V30 2573 O 236.658 3.15259 -4.75361 0
M  V30 2574 O 235.592 1.53339 -5.8204 0
M  V30 2575 H 239.418 -0.237865 -3.02767 0
M  V30 2576 H 237.003 -0.182413 -1.48282 0
M  V30 2577 H 238.885 2.13975 -3.63032 0
M  V30 2578 H 237.56 2.13345 -2.43445 0
M  V30 2579 H 236.467 0.215353 -3.7348 0
M  V30 2580 H 237.8 0.302991 -4.91267 0
M  V30 2581 N 239.452 1.56882 -0.150215 0
M  V30 2582 C 240.399 2.16922 0.788244 0
M  V30 2583 C 241.369 1.10303 1.24187 0
M  V30 2584 O 242.554 1.38359 1.31383 0
M  V30 2585 C 239.694 2.79754 2.02068 0
M  V30 2586 C 238.807 4.00775 1.61257 0
M  V30 2587 C 237.942 4.51595 2.79705 0
M  V30 2588 C 236.981 5.65074 2.35282 0
M  V30 2589 N 236.118 6.10499 3.4675 0
M  V30 2590 H 240.958 2.96779 0.269444 0
M  V30 2591 H 238.495 1.46599 0.12128 0
M  V30 2592 H 240.453 3.14329 2.74323 0
M  V30 2593 H 239.083 2.02536 2.51354 0
M  V30 2594 H 238.135 3.72158 0.787553 0
M  V30 2595 H 239.447 4.82978 1.24633 0
M  V30 2596 H 238.601 4.88242 3.60145 0
M  V30 2597 H 237.34 3.68406 3.19576 0
M  V30 2598 H 236.345 5.28 1.53283 0
M  V30 2599 H 237.57 6.50052 1.96493 0
M  V30 2600 H 235.516 5.30243 3.86236 0
M  V30 2601 H 235.433 6.87637 3.14152 0
M  V30 2602 H 236.701 6.51791 4.27537 0
M  V30 2603 N 240.93 -0.123565 1.57115 0
M  V30 2604 C 241.893 -1.13583 1.99076 0
M  V30 2605 C 242.893 -1.34564 0.880296 0
M  V30 2606 O 244.083 -1.31158 1.14644 0
M  V30 2607 C 241.215 -2.49128 2.32698 0
M  V30 2608 H 242.408 -0.775287 2.89706 0
M  V30 2609 H 239.961 -0.36771 1.51913 0
M  V30 2610 H 240.696 -2.90111 1.44934 0
M  V30 2611 H 240.481 -2.35255 3.13684 0
M  V30 2612 H 241.971 -3.2199 2.65918 0
M  V30 2613 N 242.408 -1.52605 -0.393616 0
M  V30 2614 C 243.655 -1.67424 -1.1391 0
M  V30 2615 C 243.983 -0.411859 -1.90089 0
M  V30 2616 O 243.238 0.605626 -1.86093 0
M  V30 2617 C 243.537 -2.85721 -2.14705 0
M  V30 2618 C 243.203 -4.23342 -1.55218 0
M  V30 2619 C 241.865 -4.60771 -1.3872 0
M  V30 2620 C 244.217 -5.09041 -1.11924 0
M  V30 2621 C 241.545 -5.81563 -0.774689 0
M  V30 2622 C 243.897 -6.30452 -0.520853 0
M  V30 2623 C 242.561 -6.66617 -0.343134 0
M  V30 2624 H 241.831 -0.612648 -0.416826 0
M  V30 2625 H 244.478 -1.8674 -0.424315 0
M  V30 2626 H 242.783 -2.60803 -2.92385 0
M  V30 2627 H 244.48 -2.94382 -2.72288 0
M  V30 2628 H 241.07 -3.93855 -1.69045 0
M  V30 2629 H 245.254 -4.80695 -1.23473 0
M  V30 2630 H 240.51 -6.08196 -0.625154 0
M  V30 2631 H 244.684 -6.96175 -0.177065 0
M  V30 2632 H 242.311 -7.60083 0.133571 0
M  V30 2633 N 243.887 0.651787 -1.4349 0
M  V30 2634 C 245.112 1.44434 -1.48841 0
M  V30 2635 C 245.537 1.8779 -0.107955 0
M  V30 2636 O 244.895 1.57464 0.898602 0
M  V30 2637 C 244.943 2.65458 -2.44059 0
M  V30 2638 O 244.047 3.64566 -1.92784 0
M  V30 2639 H 243.388 0.433005 -0.503391 0
M  V30 2640 H 245.918 0.797451 -1.88419 0
M  V30 2641 H 245.928 3.13255 -2.6141 0
M  V30 2642 H 244.603 2.33244 -3.4434 0
M  V30 2643 H 243.18 3.23716 -1.851 0
M  V30 2644 N 245.365 1.30045 0.890287 0
M  V30 2645 C 246.776 1.16738 1.45702 0
M  V30 2646 C 247.127 -0.233939 1.948 0
M  V30 2647 O 246.252 -1.13021 1.84541 0
M  V30 2648 C 246.847 2.11313 2.64825 0
M  V30 2649 C 245.406 2.02001 3.17604 0
M  V30 2650 C 244.553 2.01699 1.90296 0
M  V30 2651 H 247.504 1.42392 0.700726 0
M  V30 2652 H 247.525 1.69086 3.40867 0
M  V30 2653 H 247.037 3.13294 2.2906 0
M  V30 2654 H 245.138 1.03142 3.5804 0
M  V30 2655 H 245.251 2.90128 3.81264 0
M  V30 2656 H 243.615 1.46427 2.08402 0
M  V30 2657 H 244.398 3.05402 1.56795 0
M  V30 2658 N 246.843 -1.10192 1.12674 0
M  V30 2659 C 247.753 -2.20172 0.810026 0
M  V30 2660 C 248.769 -1.72821 -0.202188 0
M  V30 2661 O 249.945 -2.01369 -0.0351691 0
M  V30 2662 C 247.01 -3.45631 0.272007 0
M  V30 2663 C 246.071 -4.07704 1.34447 0
M  V30 2664 C 245.304 -5.27175 0.832029 0
M  V30 2665 O 245.527 -5.69425 -0.333284 0
M  V30 2666 O 244.461 -5.80168 1.60277 0
M  V30 2667 H 248.287 -2.49701 1.72867 0
M  V30 2668 H 245.872 -1.18977 0.903597 0
M  V30 2669 H 247.754 -4.21394 -0.0230219 0
M  V30 2670 H 246.429 -3.17723 -0.619164 0
M  V30 2671 H 245.336 -3.33614 1.6927 0
M  V30 2672 H 246.669 -4.3982 2.2095 0
M  V30 2673 N 248.321 -0.919034 -1.28029 0
M  V30 2674 C 249.567 -0.555757 -1.95036 0
M  V30 2675 C 249.9 0.899198 -1.72128 0
M  V30 2676 O 249.175 1.64023 -1.04531 0
M  V30 2677 C 249.458 -0.872024 -3.49382 0
M  V30 2678 C 249.311 -2.3801 -3.81669 0
M  V30 2679 C 250.63 -0.37185 -4.38526 0
M  V30 2680 H 247.749 -0.203386 -0.708381 0
M  V30 2681 H 250.391 -1.14924 -1.51303 0
M  V30 2682 H 248.541 -0.366946 -3.86763 0
M  V30 2683 H 250.213 -2.9562 -3.54128 0
M  V30 2684 H 248.456 -2.83289 -3.28526 0
M  V30 2685 H 249.127 -2.55192 -4.8947 0
M  V30 2686 H 251.603 -0.804602 -4.08247 0
M  V30 2687 H 250.479 -0.622173 -5.45362 0
M  V30 2688 H 250.74 0.727934 -4.36066 0
M  V30 2689 N 249.799 1.42003 -0.683588 0
M  V30 2690 C 251.048 2.00638 -0.206681 0
M  V30 2691 C 251.361 1.5472 1.19671 0
M  V30 2692 O 252.567 2.05833 1.77045 0
M  V30 2693 C 251.023 3.58487 -0.318632 0
M  V30 2694 C 250.631 4.1339 -1.72663 0
M  V30 2695 C 252.375 4.24384 0.0991141 0
M  V30 2696 C 250.282 5.63633 -1.79087 0
M  V30 2697 H 249.212 0.750408 -0.0735107 0
M  V30 2698 H 251.863 1.62624 -0.850048 0
M  V30 2699 H 250.245 3.94047 0.392781 0
M  V30 2700 H 251.419 3.89273 -2.46583 0
M  V30 2701 H 249.734 3.59976 -2.09299 0
M  V30 2702 H 252.331 5.34652 0.0713833 0
M  V30 2703 H 252.674 4.00505 1.13586 0
M  V30 2704 H 253.207 3.93816 -0.561599 0
M  V30 2705 H 249.946 5.92323 -2.80774 0
M  V30 2706 H 249.466 5.89714 -1.09535 0
M  V30 2707 H 251.145 6.28201 -1.5483 0
M  V30 2708 N 251.277 0.427512 1.51691 0
M  V30 2709 C 252.688 -0.0378867 1.86662 0
M  V30 2710 C 253.039 -1.42819 1.34525 0
M  V30 2711 O 252.164 -2.05037 0.692014 0
M  V30 2712 C 252.759 -0.0755266 3.38716 0
M  V30 2713 C 251.318 -0.485309 3.73258 0
M  V30 2714 C 250.465 0.328399 2.75349 0
M  V30 2715 H 253.416 0.64379 1.45055 0
M  V30 2716 H 253.437 -0.887056 3.70016 0
M  V30 2717 H 252.949 0.936487 3.76632 0
M  V30 2718 H 251.05 -1.50329 3.40928 0
M  V30 2719 H 251.163 -0.21693 4.78609 0
M  V30 2720 H 249.527 -0.211905 2.53817 0
M  V30 2721 H 250.31 1.3391 3.16106 0
M  V30 2722 N 252.755 -1.56801 0.158532 0
M  V30 2723 C 253.688 -2.13148 -0.815065 0
M  V30 2724 C 254.666 -1.0581 -1.23462 0
M  V30 2725 O 255.85 -1.3371 -1.32868 0
M  V30 2726 C 252.977 -2.6606 -2.09594 0
M  V30 2727 C 252.023 -3.85651 -1.82141 0
M  V30 2728 S 252.856 -5.26041 -1.00207 0
M  V30 2729 C 254.012 -5.8235 -2.29389 0
M  V30 2730 H 254.245 -2.95396 -0.335937 0
M  V30 2731 H 251.778 -1.54299 -0.0559391 0
M  V30 2732 H 253.736 -2.97195 -2.8317 0
M  V30 2733 H 252.397 -1.83921 -2.54621 0
M  V30 2734 H 251.59 -4.20958 -2.77147 0
M  V30 2735 H 251.192 -3.55338 -1.16667 0
M  V30 2736 H 253.484 -5.94485 -3.24952 0
M  V30 2737 H 254.427 -6.79688 -1.9857 0
M  V30 2738 H 254.835 -5.10675 -2.40564 0
M  V30 2739 N 254.233 0.115231 -1.57178 0
M  V30 2740 C 255.48 0.822351 -1.8505 0
M  V30 2741 C 255.808 1.79701 -0.744168 0
M  V30 2742 O 255.063 1.93909 0.26414 0
M  V30 2743 C 255.362 1.60324 -3.19423 0
M  V30 2744 C 255.028 0.772536 -4.44233 0
M  V30 2745 C 253.69 0.543468 -4.78121 0
M  V30 2746 C 256.042 0.193746 -5.2084 0
M  V30 2747 C 253.37 -0.274583 -5.86057 0
M  V30 2748 C 255.722 -0.611517 -6.29637 0
M  V30 2749 C 254.386 -0.850867 -6.62055 0
M  V30 2750 H 253.656 0.30092 -0.677147 0
M  V30 2751 H 256.303 0.0845802 -1.91313 0
M  V30 2752 H 254.608 2.41203 -3.08753 0
M  V30 2753 H 256.305 2.1544 -3.38211 0
M  V30 2754 H 252.895 0.96117 -4.17683 0
M  V30 2755 H 257.079 0.357926 -4.95008 0
M  V30 2756 H 252.335 -0.469206 -6.09597 0
M  V30 2757 H 256.509 -1.06697 -6.88178 0
M  V30 2758 H 254.136 -1.48657 -7.45523 0
M  V30 2759 N 255.711 1.52812 0.385517 0
M  V30 2760 C 256.936 1.72207 1.15583 0
M  V30 2761 C 257.361 0.441034 1.82857 0
M  V30 2762 O 256.719 -0.603465 1.70962 0
M  V30 2763 C 256.767 2.87476 2.17692 0
M  V30 2764 O 255.871 2.54693 3.24354 0
M  V30 2765 H 255.212 0.572526 0.336319 0
M  V30 2766 H 257.742 1.99618 0.448744 0
M  V30 2767 H 257.752 3.13072 2.6163 0
M  V30 2768 H 256.427 3.80408 1.68115 0
M  V30 2769 H 255.004 2.3985 2.85529 0
M  V30 2770 N 257.189 -0.644168 1.43834 0
M  V30 2771 C 258.152 -1.73857 1.49353 0
M  V30 2772 C 259.152 -1.56315 0.377112 0
M  V30 2773 O 260.342 -1.62048 0.639226 0
M  V30 2774 C 257.474 -3.12819 1.35488 0
M  V30 2775 H 258.667 -1.70342 2.46827 0
M  V30 2776 H 256.22 -0.856652 1.30733 0
M  V30 2777 H 256.955 -3.2194 0.390569 0
M  V30 2778 H 256.74 -3.26958 2.16428 0
M  V30 2779 H 258.23 -3.92606 1.42302 0
M  V30 2780 N 258.668 -1.30515 -0.883378 0
M  V30 2781 C 259.598 -1.19607 -2.00541 0
M  V30 2782 C 260.579 -0.086346 -1.69881 0
M  V30 2783 O 261.764 -0.268654 -1.92333 0
M  V30 2784 C 258.894 -0.888758 -3.35736 0
M  V30 2785 C 257.848 -1.95659 -3.8066 0
M  V30 2786 C 257.174 -1.50224 -5.13164 0
M  V30 2787 C 258.474 -3.36788 -3.99213 0
M  V30 2788 H 260.168 -2.13476 -2.09925 0
M  V30 2789 H 257.714 -1.02775 -1.00863 0
M  V30 2790 H 259.667 -0.799094 -4.13754 0
M  V30 2791 H 258.391 0.0856125 -3.26488 0
M  V30 2792 H 257.05 -2.03591 -3.04871 0
M  V30 2793 H 256.698 -0.516092 -5.00345 0
M  V30 2794 H 256.398 -2.2165 -5.44192 0
M  V30 2795 H 257.922 -1.42639 -5.93706 0
M  V30 2796 H 259.336 -3.31605 -4.67665 0
M  V30 2797 H 257.733 -4.06314 -4.41621 0
M  V30 2798 H 258.803 -3.78561 -3.03017 0
M  V30 2799 N 260.146 1.09593 -1.13257 0
M  V30 2800 C 261.371 1.8604 -0.916732 0
M  V30 2801 C 261.796 1.80504 0.529146 0
M  V30 2802 O 261.154 1.18127 1.37534 0
M  V30 2803 C 261.202 3.32017 -1.40703 0
M  V30 2804 O 260.306 4.08141 -0.591153 0
M  V30 2805 H 259.647 0.576943 -0.328683 0
M  V30 2806 H 262.177 1.38405 -1.50682 0
M  V30 2807 H 262.187 3.82865 -1.4099 0
M  V30 2808 H 260.862 3.35361 -2.45979 0
M  V30 2809 H 259.439 3.67084 -0.656005 0
M  V30 2810 N 261.624 0.925811 1.2754 0
M  V30 2811 C 262.534 0.428993 2.30644 0
M  V30 2812 C 263.55 -0.489387 1.66976 0
M  V30 2813 O 264.726 -0.372653 1.97922 0
M  V30 2814 C 261.791 -0.311967 3.45294 0
M  V30 2815 C 260.852 0.641098 4.24486 0
M  V30 2816 C 260.085 -0.0645955 5.33661 0
M  V30 2817 O 260.308 -1.28429 5.55754 0
M  V30 2818 O 259.242 0.606265 5.98839 0
M  V30 2819 H 263.068 1.28504 2.75173 0
M  V30 2820 H 260.653 0.691086 1.32455 0
M  V30 2821 H 262.535 -0.729972 4.15029 0
M  V30 2822 H 261.21 -1.14365 3.02824 0
M  V30 2823 H 260.117 1.10874 3.57292 0
M  V30 2824 H 261.45 1.43995 4.70666 0
M  V30 2825 N 263.102 -1.41638 0.69111 0
M  V30 2826 C 264.35 -2.00902 0.219758 0
M  V30 2827 C 264.671 -1.54994 -1.18329 0
M  V30 2828 O 263.941 -0.778628 -1.79762 0
M  V30 2829 H 262.521 -0.74289 0.0782558 0
M  V30 2830 H 265.183 -1.73327 0.891271 0
M  V30 2831 H 264.279 -3.11224 0.233708 0
M  V30 2832 N 264.58 -0.43555 -1.51462 0
M  V30 2833 C 265.543 0.365137 -2.26273 0
M  V30 2834 C 266.543 0.951227 -1.29647 0
M  V30 2835 O 267.733 0.825958 -1.53374 0
M  V30 2836 C 264.865 1.51645 -3.05314 0
M  V30 2837 H 266.058 -0.290474 -2.9849 0
M  V30 2838 H 263.611 -0.188676 -1.55157 0
M  V30 2839 H 264.346 2.20816 -2.3751 0
M  V30 2840 H 264.131 1.10238 -3.76284 0
M  V30 2841 H 265.621 2.08218 -3.61987 0
M  V30 2842 N 266.058 1.56714 -0.166846 0
M  V30 2843 C 267.286 2.0112 0.485644 0
M  V30 2844 C 267.701 1.04705 1.57106 0
M  V30 2845 O 267.058 0.0471923 1.82439 0
M  V30 2846 C 267.109 3.45361 1.06808 0
M  V30 2847 O 266.83 4.38092 0.0259995 0
M  V30 2848 C 268.331 4.05145 1.79924 0
M  V30 2849 H 265.551 0.65931 0.124704 0
M  V30 2850 H 268.095 2.02746 -0.267262 0
M  V30 2851 H 266.25 3.44524 1.7715 0
M  V30 2852 H 266.664 5.22519 0.455398 0
M  V30 2853 H 268.138 5.08009 2.15942 0
M  V30 2854 H 268.615 3.46982 2.69258 0
M  V30 2855 H 269.221 4.09672 1.14234 0
M  V30 2856 N 267.536 -0.106894 1.57237 0
M  V30 2857 C 268.947 -0.662723 1.74542 0
M  V30 2858 C 269.298 -1.7971 0.787319 0
M  V30 2859 O 268.423 -2.16368 -0.0369636 0
M  V30 2860 C 269.018 -1.20896 3.16496 0
M  V30 2861 C 267.577 -1.71096 3.35266 0
M  V30 2862 C 266.724 -0.615642 2.7038 0
M  V30 2863 H 269.675 0.119106 1.58252 0
M  V30 2864 H 269.696 -2.07847 3.18716 0
M  V30 2865 H 269.208 -0.383122 3.86204 0
M  V30 2866 H 267.309 -2.56119 2.70618 0
M  V30 2867 H 267.422 -1.81208 4.43509 0
M  V30 2868 H 265.786 -1.05222 2.31949 0
M  V30 2869 H 266.569 0.199419 3.4272 0
M  V30 2870 N 269.014 -1.53014 -0.377408 0
M  V30 2871 C 269.946 -1.74884 -1.48149 0
M  V30 2872 C 270.959 -0.629433 -1.5014 0
M  V30 2873 O 272.148 -0.905416 -1.53833 0
M  V30 2874 C 269.248 -1.80299 -2.86959 0
M  V30 2875 C 268.421 -3.09776 -3.08801 0
M  V30 2876 C 267.48 -3.06586 -4.27658 0
M  V30 2877 O 266.506 -3.80419 -4.23403 0
M  V30 2878 N 267.708 -2.26578 -5.34455 0
M  V30 2879 H 270.473 -2.70147 -1.29771 0
M  V30 2880 H 268.034 -1.51646 -0.56703 0
M  V30 2881 H 270.026 -1.75657 -3.64591 0
M  V30 2882 H 268.596 -0.92372 -2.98641 0
M  V30 2883 H 267.816 -3.27815 -2.18931 0
M  V30 2884 H 269.104 -3.95366 -3.20255 0
M  V30 2885 H 268.502 -1.66081 -5.40771 0
M  V30 2886 H 267.059 -2.27766 -6.10709 0
M  V30 2887 N 270.492 0.636531 -1.44174 0
M  V30 2888 C 271.769 1.39463 -1.37148 0
M  V30 2889 C 272.149 2.11082 -0.027507 0
M  V30 2890 O 271.497 2.05954 0.989716 0
M  V30 2891 C 271.707 2.36552 -2.56601 0
M  V30 2892 C 273.055 3.00048 -3.00427 0
M  V30 2893 O 274.079 2.46878 -2.56767 0
M  V30 2894 O 272.938 3.96488 -3.76111 0
M  V30 2895 H 270.032 0.623903 -0.542839 0
M  V30 2896 H 272.578 0.662039 -1.56253 0
M  V30 2897 H 271.35 1.82692 -3.46034 0
M  V30 2898 H 270.973 3.17236 -2.39681 0
M  V30 2899 N 271.97 1.30982 0.876444 0
M  V30 2900 C 272.9 1.20668 1.99903 0
M  V30 2901 C 273.881 0.095354 1.69833 0
M  V30 2902 O 275.066 0.27885 1.92188 0
M  V30 2903 C 272.196 0.90655 3.3526 0
M  V30 2904 C 271.15 1.97675 3.79617 0
M  V30 2905 C 270.476 1.52943 5.1236 0
M  V30 2906 C 271.776 3.389 3.97422 0
M  V30 2907 H 273.47 2.14586 2.0879 0
M  V30 2908 H 271.016 1.03308 1.00317 0
M  V30 2909 H 272.969 0.821025 4.13324 0
M  V30 2910 H 271.693 -0.0682969 3.26529 0
M  V30 2911 H 270.352 2.05205 3.03787 0
M  V30 2912 H 270 0.54262 5.00065 0
M  V30 2913 H 269.7 2.24532 5.43009 0
M  V30 2914 H 271.224 1.45786 5.92941 0
M  V30 2915 H 272.638 3.34081 4.659 0
M  V30 2916 H 271.035 4.0865 4.3946 0
M  V30 2917 H 272.105 3.80163 3.01006 0
M  V30 2918 N 273.449 -1.08991 1.13837 0
M  V30 2919 C 274.397 -2.17841 0.815347 0
M  V30 2920 C 275.391 -1.68164 -0.204233 0
M  V30 2921 O 276.597 -1.79897 -0.0609304 0
M  V30 2922 H 272.972 -0.710654 0.245915 0
M  V30 2923 H 274.943 -2.42315 1.74143 0
M  V30 2924 C 273.692 -3.46381 0.302614 0
M  V30 2925 H 273.015 -3.84979 1.0785 0
M  V30 2926 H 274.455 -4.23844 0.115074 0
M  V30 2927 C 272.914 -3.22556 -0.972591 0
M  V30 2928 O 273.444 -3.45599 -2.04754 0
M  V30 2929 N 271.65 -2.76134 -0.905455 0
M  V30 2930 H 271.197 -2.57582 -0.0305421 0
M  V30 2931 H 271.155 -2.60571 -1.75926 0
M  V30 2932 N 274.927 -0.932562 -1.27047 0
M  V30 2933 C 276.155 -0.592031 -1.98249 0
M  V30 2934 C 276.57 0.831062 -1.69525 0
M  V30 2935 O 275.927 1.55299 -0.958561 0
M  V30 2936 C 275.978 -0.814279 -3.5221 0
M  V30 2937 O 275.699 -2.18139 -3.7993 0
M  V30 2938 C 277.2 -0.483121 -4.4066 0
M  V30 2939 H 274.42 -0.223896 -0.632544 0
M  V30 2940 H 276.964 -1.25091 -1.61779 0
M  V30 2941 H 275.119 -0.20213 -3.86872 0
M  V30 2942 H 275.533 -2.235 -4.74498 0
M  V30 2943 H 277.007 -0.689298 -5.47679 0
M  V30 2944 H 277.484 0.581546 -4.35333 0
M  V30 2945 H 278.09 -1.07362 -4.11526 0
M  V30 2946 N 276.405 1.4127 -0.698611 0
M  V30 2947 C 277.338 2.28195 0.0153898 0
M  V30 2948 C 278.316 1.42402 0.784883 0
M  V30 2949 O 279.5 1.71828 0.775067 0
M  V30 2950 C 276.627 3.22685 1.02918 0
M  V30 2951 C 275.673 4.25041 0.352501 0
M  V30 2952 S 276.506 5.27757 -0.907322 0
M  V30 2953 C 277.662 6.25812 0.104796 0
M  V30 2954 H 277.895 2.88403 -0.721858 0
M  V30 2955 H 275.428 1.46452 -0.488996 0
M  V30 2956 H 277.386 3.77655 1.60893 0
M  V30 2957 H 276.047 2.61566 1.73902 0
M  V30 2958 H 275.24 4.91437 1.11828 0
M  V30 2959 H 274.842 3.73682 -0.154254 0
M  V30 2960 H 277.134 6.70705 0.957103 0
M  V30 2961 H 278.077 7.06149 -0.525323 0
M  V30 2962 H 278.485 5.62615 0.460931 0
M  V30 2963 N 277.883 0.443576 1.51229 0
M  V30 2964 C 278.813 -0.355142 2.30783 0
M  V30 2965 C 279.794 -1.0154 1.36468 0
M  V30 2966 O 280.979 -1.01785 1.65389 0
M  V30 2967 C 278.109 -1.45312 3.15439 0
M  V30 2968 C 277.063 -0.916002 4.18083 0
M  V30 2969 C 276.389 -2.1102 4.91299 0
M  V30 2970 C 277.689 0.0538602 5.22272 0
M  V30 2971 H 279.383 0.308767 2.97804 0
M  V30 2972 H 276.929 0.149937 1.43217 0
M  V30 2973 H 278.882 -2.01914 3.69876 0
M  V30 2974 H 277.606 -2.14541 2.46252 0
M  V30 2975 H 276.265 -0.372145 3.64706 0
M  V30 2976 H 275.913 -2.78882 4.18609 0
M  V30 2977 H 275.613 -1.75717 5.60712 0
M  V30 2978 H 277.137 -2.68164 5.48562 0
M  V30 2979 H 278.551 -0.422069 5.71744 0
M  V30 2980 H 276.948 0.319776 5.99247 0
M  V30 2981 H 278.018 0.98858 4.74716 0
M  V30 2982 N 279.361 -1.56624 0.175154 0
M  V30 2983 C 280.309 -2.19468 -0.770495 0
M  V30 2984 C 281.303 -1.15985 -1.23466 0
M  V30 2985 O 282.509 -1.34176 -1.19987 0
M  V30 2986 H 278.884 -0.703095 -0.266761 0
M  V30 2987 H 280.855 -2.97613 -0.216542 0
M  V30 2988 C 279.604 -2.85264 -1.98796 0
M  V30 2989 H 278.927 -3.64623 -1.63983 0
M  V30 2990 H 280.367 -3.327 -2.62843 0
M  V30 2991 C 278.826 -1.85239 -2.81404 0
M  V30 2992 O 279.356 -1.34024 -3.78682 0
M  V30 2993 N 277.562 -1.53911 -2.46495 0
M  V30 2994 H 277.109 -1.95751 -1.67449 0
M  V30 2995 H 277.067 -0.872382 -3.02054 0
M  V30 2996 N 280.839 0.0985539 -1.57292 0
M  V30 2997 C 282.067 0.816318 -1.90115 0
M  V30 2998 C 282.482 1.72451 -0.768509 0
M  V30 2999 O 281.839 1.80643 0.259687 0
M  V30 3000 C 281.89 1.63259 -3.22535 0
M  V30 3001 O 281.611 0.760934 -4.31441 0
M  V30 3002 C 283.112 2.45372 -3.69199 0
M  V30 3003 H 280.332 0.233595 -0.629027 0
M  V30 3004 H 282.876 0.0768229 -2.04356 0
M  V30 3005 H 281.031 2.32463 -3.09903 0
M  V30 3006 H 281.445 1.32595 -5.07463 0
M  V30 3007 H 282.919 2.98144 -4.64558 0
M  V30 3008 H 283.396 3.23677 -2.96867 0
M  V30 3009 H 284.002 1.81373 -3.84687 0
M  V30 3010 N 282.317 1.53212 0.369288 0
M  V30 3011 C 283.563 1.69466 1.11397 0
M  V30 3012 C 283.896 0.443257 1.89074 0
M  V30 3013 O 283.171 -0.559386 1.86282 0
M  V30 3014 C 283.454 2.9422 2.07621 0
M  V30 3015 C 283.307 4.29508 1.33577 0
M  V30 3016 C 284.626 3.14565 3.07794 0
M  V30 3017 H 281.745 0.616667 0.403597 0
M  V30 3018 H 284.387 1.85845 0.395179 0
M  V30 3019 H 282.537 2.80387 2.68916 0
M  V30 3020 H 284.209 4.55147 0.750955 0
M  V30 3021 H 282.452 4.29088 0.637618 0
M  V30 3022 H 283.123 5.12926 2.03989 0
M  V30 3023 H 285.599 3.2756 2.56601 0
M  V30 3024 H 284.475 4.03297 3.72348 0
M  V30 3025 H 284.736 2.29675 3.77759 0
M  V30 3026 N 283.795 -0.628877 1.44509 0
M  V30 3027 C 285.043 -1.38565 1.4712 0
M  V30 3028 C 285.364 -1.94712 0.105899 0
M  V30 3029 O 284.634 -1.75912 -0.862079 0
M  V30 3030 H 283.214 -0.514333 0.541729 0
M  V30 3031 H 285.876 -0.740018 1.80305 0
M  V30 3032 H 284.972 -2.21583 2.19789 0
M  V30 3033 N 285.273 -1.31445 -0.869486 0
M  V30 3034 C 286.521 -1.20918 -1.61936 0
M  V30 3035 C 286.842 0.232683 -1.93607 0
M  V30 3036 O 286.112 1.15352 -1.58338 0
M  V30 3037 H 284.692 -0.44454 -0.600328 0
M  V30 3038 H 287.354 -1.64776 -1.0409 0
M  V30 3039 H 286.45 -1.78124 -2.56278 0
M  V30 3040 N 286.751 1.08385 -1.14413 0
M  V30 3041 C 287.701 2.13509 -0.79987 0
M  V30 3042 C 288.685 1.5951 0.211059 0
M  V30 3043 O 289.877 1.76995 0.0133694 0
M  V30 3044 C 287.006 3.42162 -0.279297 0
M  V30 3045 C 286.092 4.03042 -1.31976 0
M  V30 3046 N 286.483 4.38327 -2.52395 0
M  V30 3047 C 284.781 4.30379 -1.17004 0
M  V30 3048 C 285.482 4.86428 -3.19003 0
M  V30 3049 N 284.458 4.84547 -2.46405 0
M  V30 3050 H 288.26 2.38609 -1.7159 0
M  V30 3051 H 285.774 1.2572 -1.02802 0
M  V30 3052 H 287.771 4.16898 -0.0143688 0
M  V30 3053 H 286.431 3.18511 0.630923 0
M  V30 3054 H 287.442 4.29349 -2.89621 0
M  V30 3055 H 284.119 4.16281 -0.318854 0
M  V30 3056 H 285.509 5.23107 -4.21674 0
M  V30 3057 N 288.23 0.939286 1.26551 0
M  V30 3058 C 289.162 0.404704 2.25599 0
M  V30 3059 C 290.175 -0.470983 1.55838 0
M  V30 3060 O 291.364 -0.281734 1.76263 0
M  V30 3061 C 288.464 -0.43764 3.36062 0
M  V30 3062 C 287.637 0.421449 4.35365 0
M  V30 3063 C 286.696 -0.36015 5.24966 0
M  V30 3064 O 285.722 0.236167 5.6871 0
M  V30 3065 N 286.924 -1.65715 5.56344 0
M  V30 3066 H 289.689 1.25618 2.72103 0
M  V30 3067 H 287.25 0.807963 1.40298 0
M  V30 3068 H 289.242 -0.967866 3.92956 0
M  V30 3069 H 287.812 -1.18991 2.89067 0
M  V30 3070 H 287.032 1.1329 3.7757 0
M  V30 3071 H 288.32 1.00835 4.98708 0
M  V30 3072 H 287.718 -2.16378 5.22682 0
M  V30 3073 H 286.275 -2.13366 6.15888 0
M  V30 3074 N 289.708 -1.40897 0.706093 0
M  V30 3075 C 290.671 -2.29131 0.0562841 0
M  V30 3076 C 291.671 -1.44901 -0.697166 0
M  V30 3077 O 292.861 -1.65926 -0.530484 0
M  V30 3078 C 289.993 -3.27957 -0.93043 0
M  V30 3079 H 291.186 -2.88091 0.833284 0
M  V30 3080 H 288.739 -1.4906 0.470192 0
M  V30 3081 H 289.474 -2.73997 -1.73482 0
M  V30 3082 H 289.259 -3.90124 -0.393166 0
M  V30 3083 H 290.749 -3.94049 -1.38256 0
M  V30 3084 N 291.186 -0.45159 -1.50991 0
M  V30 3085 C 292.149 0.341117 -2.26647 0
M  V30 3086 C 293.149 0.937422 -1.30649 0
M  V30 3087 O 294.339 0.809644 -1.54241 0
M  V30 3088 C 291.471 1.48398 -3.06905 0
M  V30 3089 H 292.664 -0.322117 -2.98165 0
M  V30 3090 H 290.217 -0.205122 -1.54948 0
M  V30 3091 H 290.952 2.18284 -2.39838 0
M  V30 3092 H 290.737 1.06241 -3.77432 0
M  V30 3093 H 292.227 2.04367 -3.64176 0
M  V30 3094 N 292.664 1.56529 -0.183458 0
M  V30 3095 C 293.597 2.14417 0.781052 0
M  V30 3096 C 294.575 1.07761 1.21763 0
M  V30 3097 O 295.759 1.35807 1.30724 0
M  V30 3098 C 292.886 2.69361 2.05335 0
M  V30 3099 C 291.932 3.885 1.75982 0
M  V30 3100 S 292.765 5.27568 0.918256 0
M  V30 3101 C 293.921 5.85926 2.20095 0
M  V30 3102 H 294.154 2.95893 0.2889 0
M  V30 3103 H 291.687 1.54368 0.0313844 0
M  V30 3104 H 293.645 3.01662 2.78406 0
M  V30 3105 H 292.306 1.87949 2.51663 0
M  V30 3106 H 291.499 4.25314 2.70415 0
M  V30 3107 H 291.101 3.57149 1.10999 0
M  V30 3108 H 293.393 5.99579 3.15453 0
M  V30 3109 H 294.336 6.82761 1.87731 0
M  V30 3110 H 294.744 5.14438 2.32409 0
M  V30 3111 N 294.142 -0.090211 1.57342 0
M  V30 3112 C 295.074 -1.13541 1.99101 0
M  V30 3113 C 296.087 -1.3604 0.894258 0
M  V30 3114 O 297.276 -1.34606 1.17233 0
M  V30 3115 C 294.376 -2.49001 2.29895 0
M  V30 3116 C 293.549 -2.46712 3.61182 0
M  V30 3117 C 292.608 -3.64136 3.79857 0
M  V30 3118 O 291.634 -3.46405 4.51655 0
M  V30 3119 N 292.836 -4.83802 3.20806 0
M  V30 3120 H 295.601 -0.779942 2.89373 0
M  V30 3121 H 293.162 -0.279125 1.59476 0
M  V30 3122 H 295.154 -3.26166 2.39578 0
M  V30 3123 H 293.724 -2.76619 1.45605 0
M  V30 3124 H 292.944 -1.55058 3.62423 0
M  V30 3125 H 294.232 -2.42265 4.4742 0
M  V30 3126 H 293.63 -5.01112 2.62494 0
M  V30 3127 H 292.187 -5.58543 3.35966 0
M  V30 3128 N 295.62 -1.53406 -0.361157 0
M  V30 3129 C 296.553 -1.74946 -1.46524 0
M  V30 3130 C 297.531 -0.59795 -1.51206 0
M  V30 3131 O 298.715 -0.831062 -1.69191 0
M  V30 3132 C 295.842 -1.83224 -2.84863 0
M  V30 3133 C 294.888 -3.05233 -2.97885 0
M  V30 3134 S 295.721 -4.6466 -2.66179 0
M  V30 3135 C 296.877 -4.75793 -4.06659 0
M  V30 3136 H 297.11 -2.68319 -1.28033 0
M  V30 3137 H 294.643 -1.44051 -0.555764 0
M  V30 3138 H 296.601 -1.88679 -3.64569 0
M  V30 3139 H 295.262 -0.908948 -3.00661 0
M  V30 3140 H 294.455 -3.07648 -3.9921 0
M  V30 3141 H 294.057 -2.97913 -2.26106 0
M  V30 3142 H 296.349 -4.5612 -5.0096 0
M  V30 3143 H 297.292 -5.7786 -4.09247 0
M  V30 3144 H 297.7 -4.04389 -3.93865 0
M  V30 3145 N 297.098 0.621204 -1.44841 0
M  V30 3146 C 298.028 1.74366 -1.55303 0
M  V30 3147 C 299.009 1.65199 -0.405385 0
M  V30 3148 O 300.194 1.83807 -0.626787 0
M  V30 3149 C 297.324 3.12931 -1.50637 0
M  V30 3150 C 296.278 3.36896 -2.63979 0
M  V30 3151 C 295.604 4.75594 -2.44366 0
M  V30 3152 C 296.904 3.28483 -4.06074 0
M  V30 3153 H 298.598 1.65867 -2.49256 0
M  V30 3154 H 296.144 0.796558 -1.19962 0
M  V30 3155 H 298.097 3.9124 -1.56555 0
M  V30 3156 H 296.821 3.22237 -0.532057 0
M  V30 3157 H 295.48 2.60972 -2.57467 0
M  V30 3158 H 295.128 4.81616 -1.45105 0
M  V30 3159 H 294.828 4.92586 -3.20364 0
M  V30 3160 H 296.352 5.5612 -2.52117 0
M  V30 3161 H 297.766 3.96684 -4.13902 0
M  V30 3162 H 296.163 3.57008 -4.82354 0
M  V30 3163 H 297.233 2.26133 -4.28943 0
M  V30 3164 N 298.576 1.31904 0.862503 0
M  V30 3165 C 299.523 1.20182 1.9704 0
M  V30 3166 C 300.493 0.0858247 1.65878 0
M  V30 3167 O 301.678 0.26 1.8902 0
M  V30 3168 C 298.818 0.922797 3.32533 0
M  V30 3169 C 297.931 2.12284 3.76244 0
M  V30 3170 C 297.066 1.77996 5.00491 0
M  V30 3171 C 296.105 2.94366 5.36671 0
M  V30 3172 N 295.242 2.60223 6.52095 0
M  V30 3173 H 300.082 2.14951 2.06398 0
M  V30 3174 H 297.619 1.06917 1.01031 0
M  V30 3175 H 299.577 0.741548 4.10557 0
M  V30 3176 H 298.207 0.0119227 3.22798 0
M  V30 3177 H 297.259 2.41461 2.9394 0
M  V30 3178 H 298.571 2.99357 3.98982 0
M  V30 3179 H 297.725 1.56377 5.862 0
M  V30 3180 H 296.464 0.881252 4.79672 0
M  V30 3181 H 295.469 3.16625 4.49476 0
M  V30 3182 H 296.694 3.84957 5.59451 0
M  V30 3183 H 294.64 1.72884 6.32809 0
M  V30 3184 H 294.557 3.40827 6.74814 0
M  V30 3185 H 295.825 2.42016 7.40978 0
M  V30 3186 N 300.054 -1.07777 1.14986 0
M  V30 3187 C 300.964 -2.18404 0.856546 0
M  V30 3188 C 301.98 -1.73211 -0.165485 0
M  V30 3189 O 303.156 -2.01399 0.00755219 0
M  V30 3190 C 300.221 -3.44977 0.34526 0
M  V30 3191 C 299.282 -4.0476 1.43065 0
M  V30 3192 C 298.515 -5.25291 0.943663 0
M  V30 3193 O 298.738 -5.70004 -0.212426 0
M  V30 3194 O 297.672 -5.76638 1.72547 0
M  V30 3195 H 301.498 -2.45978 1.78125 0
M  V30 3196 H 299.083 -1.17033 0.928631 0
M  V30 3197 H 300.965 -4.21348 0.0663671 0
M  V30 3198 H 299.64 -3.18965 -0.551631 0
M  V30 3199 H 298.547 -3.29949 1.76309 0
M  V30 3200 H 299.88 -4.35035 2.30229 0
M  V30 3201 N 301.532 -0.945985 -1.26051 0
M  V30 3202 C 302.76 -0.613025 -1.9761 0
M  V30 3203 C 303.175 0.813035 -1.70397 0
M  V30 3204 O 302.532 1.54274 -0.974979 0
M  V30 3205 C 302.583 -0.85159 -3.51326 0
M  V30 3206 O 302.304 -2.22157 -3.77595 0
M  V30 3207 C 303.805 -0.529831 -4.40122 0
M  V30 3208 H 301.025 -0.230593 -0.630133 0
M  V30 3209 H 303.569 -1.268 -1.60443 0
M  V30 3210 H 301.724 -0.243151 -3.86636 0
M  V30 3211 H 302.138 -2.2852 -4.721 0
M  V30 3212 H 303.612 -0.747348 -5.46917 0
M  V30 3213 H 304.089 0.535341 -4.35925 0
M  V30 3214 H 304.695 -1.11721 -4.10364 0
M  V30 3215 N 303.011 1.40521 -0.713556 0
M  V30 3216 C 304.26 2.00155 -0.249192 0
M  V30 3217 C 304.573 1.57224 1.16362 0
M  V30 3218 O 305.779 2.09542 1.72639 0
M  V30 3219 C 304.235 3.5773 -0.3946 0
M  V30 3220 C 303.843 4.09635 -1.81392 0
M  V30 3221 C 305.587 4.24499 0.00907364 0
M  V30 3222 C 303.494 5.59707 -1.91003 0
M  V30 3223 H 302.424 0.74868 -0.0894114 0
M  V30 3224 H 305.075 1.60784 -0.884352 0
M  V30 3225 H 303.457 3.94792 0.30911 0
M  V30 3226 H 304.631 3.83955 -2.54785 0
M  V30 3227 H 302.946 3.55456 -2.16888 0
M  V30 3228 H 305.543 5.34683 -0.0420404 0
M  V30 3229 H 305.886 4.02824 1.05065 0
M  V30 3230 H 306.419 3.92536 -0.645007 0
M  V30 3231 H 303.158 5.86234 -2.93275 0
M  V30 3232 H 302.678 5.87258 -1.22019 0
M  V30 3233 H 304.357 6.24776 -1.6812 0
M  V30 3234 N 304.489 0.459591 1.5075 0
M  V30 3235 C 305.437 -0.354678 2.2988 0
M  V30 3236 C 306.431 -1.00086 1.36672 0
M  V30 3237 O 307.637 -0.933277 1.53915 0
M  V30 3238 H 304.012 -0.13321 0.740107 0
M  V30 3239 H 305.983 0.333269 2.96533 0
M  V30 3240 C 304.732 -1.43073 3.169 0
M  V30 3241 H 304.055 -0.942882 3.88523 0
M  V30 3242 H 305.495 -1.97328 3.75284 0
M  V30 3243 C 303.954 -2.42633 2.33732 0
M  V30 3244 O 304.484 -3.47658 2.01238 0
M  V30 3245 N 302.69 -2.14066 1.9653 0
M  V30 3246 H 302.237 -1.28685 2.23155 0
M  V30 3247 H 302.195 -2.80917 1.41185 0
M  V30 3248 N 305.967 -1.56429 0.191757 0
M  V30 3249 C 306.877 -2.22541 -0.742481 0
M  V30 3250 C 307.893 -1.22342 -1.23727 0
M  V30 3251 O 309.069 -1.55069 -1.28513 0
M  V30 3252 C 306.134 -2.8692 -1.94623 0
M  V30 3253 C 305.195 -4.02378 -1.49633 0
M  V30 3254 C 304.428 -4.63678 -2.6427 0
M  V30 3255 O 304.651 -4.23895 -3.81666 0
M  V30 3256 O 303.585 -5.53202 -2.37174 0
M  V30 3257 H 307.411 -3.02977 -0.209462 0
M  V30 3258 H 304.996 -1.49353 -0.0373832 0
M  V30 3259 H 306.878 -3.27663 -2.64982 0
M  V30 3260 H 305.553 -2.09466 -2.46791 0
M  V30 3261 H 304.46 -3.66265 -0.761636 0
M  V30 3262 H 305.793 -4.81487 -1.02134 0
M  V30 3263 N 307.445 0.0818655 -1.57387 0
M  V30 3264 C 308.355 1.11642 -2.06333 0
M  V30 3265 C 309.371 1.43033 -0.99083 0
M  V30 3266 O 310.547 1.53411 -1.30488 0
M  V30 3267 C 307.612 2.41342 -2.48907 0
M  V30 3268 C 306.673 2.17014 -3.7041 0
M  V30 3269 C 305.906 3.4053 -4.10944 0
M  V30 3270 O 306.129 4.4927 -3.51444 0
M  V30 3271 O 305.063 3.29336 -5.03807 0
M  V30 3272 H 308.889 0.730657 -2.9478 0
M  V30 3273 H 306.474 0.295301 -1.46452 0
M  V30 3274 H 308.356 3.17691 -2.76858 0
M  V30 3275 H 307.031 2.79319 -1.63593 0
M  V30 3276 H 305.938 1.38403 -3.47556 0
M  V30 3277 H 307.271 1.83923 -4.56545 0
M  V30 3278 N 308.923 1.53595 0.353017 0
M  V30 3279 C 309.886 1.80232 1.41594 0
M  V30 3280 C 310.886 0.673081 1.46035 0
M  V30 3281 O 312.076 0.941335 1.46576 0
M  V30 3282 C 309.208 1.93578 2.80607 0
M  V30 3283 H 310.401 2.75174 1.19244 0
M  V30 3284 H 307.954 1.44864 0.586872 0
M  V30 3285 H 308.689 1.00746 3.08254 0
M  V30 3286 H 308.474 2.75724 2.78781 0
M  V30 3287 H 309.964 2.15735 3.57558 0
M  V30 3288 N 310.401 -0.613514 1.45168 0
M  V30 3289 C 311.364 -1.7065 1.53007 0
M  V30 3290 C 312.364 -1.5548 0.410184 0
M  V30 3291 O 313.554 -1.60656 0.673455 0
M  V30 3292 C 310.686 -3.09875 1.42093 0
M  V30 3293 H 311.879 -1.65068 2.50385 0
M  V30 3294 H 309.432 -0.828728 1.32521 0
M  V30 3295 H 310.167 -3.21039 0.458769 0
M  V30 3296 H 309.952 -3.22293 2.23315 0
M  V30 3297 H 311.442 -3.895 1.50598 0
M  V30 3298 N 311.879 -1.3236 -0.855495 0
M  V30 3299 C 312.789 -1.23221 -1.99634 0
M  V30 3300 C 313.805 -0.145983 -1.73387 0
M  V30 3301 O 314.981 -0.366502 -1.98037 0
M  V30 3302 C 312.046 -0.954782 -3.33294 0
M  V30 3303 C 311.107 -2.12937 -3.72769 0
M  V30 3304 C 310.34 -1.86508 -5.00051 0
M  V30 3305 O 310.563 -0.807231 -5.64659 0
M  V30 3306 O 309.497 -2.72591 -5.36636 0
M  V30 3307 H 313.323 -2.19126 -2.1028 0
M  V30 3308 H 310.908 -1.12241 -0.986018 0
M  V30 3309 H 312.79 -0.816519 -4.13414 0
M  V30 3310 H 311.465 -0.0258854 -3.2369 0
M  V30 3311 H 310.372 -2.3231 -2.93228 0
M  V30 3312 H 311.705 -3.04102 -3.87018 0
M  V30 3313 N 313.357 1.07166 -1.15556 0
M  V30 3314 C 314.603 1.80222 -0.942961 0
M  V30 3315 C 314.958 1.85121 0.524209 0
M  V30 3316 O 314.251 1.32531 1.38369 0
M  V30 3317 C 314.445 3.24707 -1.49332 0
M  V30 3318 C 314.274 3.33887 -3.01247 0
M  V30 3319 C 313.044 3.44337 -3.69811 0
M  V30 3320 C 315.242 3.24484 -3.99017 0
M  V30 3321 N 313.224 3.42439 -5.09518 0
M  V30 3322 C 314.595 3.29726 -5.25053 0
M  V30 3323 C 316.65 3.08307 -3.90962 0
M  V30 3324 C 315.353 3.20455 -6.43973 0
M  V30 3325 C 317.379 3.00371 -5.09442 0
M  V30 3326 C 316.741 3.06227 -6.34354 0
M  V30 3327 H 312.84 0.672709 -0.398731 0
M  V30 3328 H 315.424 1.27905 -1.46794 0
M  V30 3329 H 313.595 3.7544 -0.994946 0
M  V30 3330 H 315.327 3.85894 -1.21935 0
M  V30 3331 H 312.082 3.48762 -3.20409 0
M  V30 3332 H 312.506 3.45013 -5.8249 0
M  V30 3333 H 317.148 3.02633 -2.95251 0
M  V30 3334 H 314.866 3.24888 -7.39914 0
M  V30 3335 H 318.452 2.88955 -5.04971 0
M  V30 3336 H 317.332 3.00132 -7.24493 0
M  V30 3337 N 314.835 0.952656 1.25548 0
M  V30 3338 C 316.112 0.523818 1.88456 0
M  V30 3339 C 316.492 -0.998871 1.85973 0
M  V30 3340 O 315.84 -1.86381 1.3219 0
M  V30 3341 C 316.05 1.0982 3.31271 0
M  V30 3342 C 317.398 1.17385 4.08051 0
M  V30 3343 O 318.422 1.04961 3.40384 0
M  V30 3344 O 317.281 1.36852 5.29088 0
M  V30 3345 H 314.375 0.172485 0.808813 0
M  V30 3346 H 316.921 1.04596 1.33633 0
M  V30 3347 H 315.693 2.1415 3.27499 0
M  V30 3348 H 315.316 0.559191 3.93648 0
M  V30 3349 N 316.313 -1.40141 0.720998 0
M  V30 3350 C 317.729 -1.54632 0.395113 0
M  V30 3351 C 317.929 -1.69115 -1.09555 0
M  V30 3352 O 316.985 -1.68377 -1.88163 0
M  V30 3353 C 318.298 -2.77177 1.1659 0
M  V30 3354 C 319.846 -2.91 1.15274 0
M  V30 3355 C 320.321 -4.16465 1.90579 0
M  V30 3356 N 321.812 -4.23476 1.87675 0
M  V30 3357 C 322.547 -5.19475 2.42762 0
M  V30 3358 N 322.043 -6.21348 3.06428 0
M  V30 3359 N 323.836 -5.11592 2.32874 0
M  V30 3360 H 315.987 -1.28986 1.68749 0
M  V30 3361 H 318.25 -0.62412 0.713567 0
M  V30 3362 H 317.956 -2.72771 2.22011 0
M  V30 3363 H 317.83 -3.69442 0.76108 0
M  V30 3364 H 320.217 -2.94907 0.106702 0
M  V30 3365 H 320.298 -1.99838 1.59682 0
M  V30 3366 H 319.942 -4.1332 2.95176 0
M  V30 3367 H 319.872 -5.06646 1.43587 0
M  V30 3368 H 322.363 -3.50497 1.41281 0
M  V30 3369 H 322.676 -6.91034 3.45965 0
M  V30 3370 H 321.021 -6.21777 3.10514 0
M  V30 3371 H 324.212 -4.30936 1.82789 0
M  V30 3372 H 324.385 -5.86233 2.76106 0
M  V30 3373 N 317.792 -0.46758 -1.50504 0
M  V30 3374 C 318.722 0.318381 -2.31319 0
M  V30 3375 C 319.703 0.993564 -1.38066 0
M  V30 3376 O 320.888 0.991411 -1.66987 0
M  V30 3377 C 318.018 1.40275 -3.17711 0
M  V30 3378 C 316.972 0.849373 -4.19487 0
M  V30 3379 C 316.298 2.03177 -4.94594 0
M  V30 3380 C 317.598 -0.136942 -5.2212 0
M  V30 3381 H 319.292 -0.356106 -2.97275 0
M  V30 3382 H 316.838 -0.172703 -1.42961 0
M  V30 3383 H 318.791 1.96004 -3.73042 0
M  V30 3384 H 317.515 2.10596 -2.49634 0
M  V30 3385 H 316.174 0.314076 -3.65252 0
M  V30 3386 H 315.822 2.72187 -4.22993 0
M  V30 3387 H 315.522 1.66774 -5.63436 0
M  V30 3388 H 317.046 2.59403 -5.52759 0
M  V30 3389 H 318.46 0.331056 -5.72343 0
M  V30 3390 H 316.857 -0.41507 -5.98663 0
M  V30 3391 H 317.927 -1.06398 -4.73083 0
M  V30 3392 N 319.27 1.56325 -0.20005 0
M  V30 3393 C 320.22 2.15939 0.731743 0
M  V30 3394 C 321.204 1.10154 1.17281 0
M  V30 3395 O 322.396 1.36203 1.13038 0
M  V30 3396 C 319.525 2.82614 1.94895 0
M  V30 3397 C 318.611 3.95596 1.52855 0
M  V30 3398 N 319.002 4.99118 0.819418 0
M  V30 3399 C 317.3 4.07288 1.81748 0
M  V30 3400 C 318.001 5.78513 0.608053 0
M  V30 3401 N 316.977 5.31117 1.15828 0
M  V30 3402 H 320.779 2.9334 0.181285 0
M  V30 3403 H 318.293 1.624 -0.000452172 0
M  V30 3404 H 320.29 3.23718 2.62702 0
M  V30 3405 H 318.95 2.06702 2.50408 0
M  V30 3406 H 319.961 5.15723 0.47436 0
M  V30 3407 H 316.638 3.42509 2.38734 0
M  V30 3408 H 318.028 6.71885 0.0451619 0
M  V30 3409 N 320.748 -0.0735177 1.57428 0
M  V30 3410 C 322.159 -0.625551 1.75908 0
M  V30 3411 C 322.51 -1.78 0.825261 0
M  V30 3412 O 321.635 -2.16398 0.00893964 0
M  V30 3413 C 322.23 -1.14155 3.18989 0
M  V30 3414 C 320.789 -1.63946 3.38819 0
M  V30 3415 C 319.936 -0.558151 2.71625 0
M  V30 3416 H 322.887 0.152647 1.57964 0
M  V30 3417 H 322.908 -2.0104 3.23053 0
M  V30 3418 H 322.42 -0.301116 3.8693 0
M  V30 3419 H 320.521 -2.50321 2.7599 0
M  V30 3420 H 320.634 -1.71759 4.47253 0
M  V30 3421 H 318.998 -1.00278 2.34129 0
M  V30 3422 H 319.781 0.272071 3.4222 0
M  V30 3423 N 322.226 -1.5378 -0.344866 0
M  V30 3424 C 323.472 -1.71216 -1.08687 0
M  V30 3425 C 323.805 -0.473281 -1.88345 0
M  V30 3426 O 323.08 0.52968 -1.87149 0
M  V30 3427 C 323.363 -2.97486 -2.02914 0
M  V30 3428 C 323.216 -4.31579 -1.26727 0
M  V30 3429 C 324.535 -3.19422 -3.0275 0
M  V30 3430 H 321.654 -0.62301 -0.393735 0
M  V30 3431 H 324.296 -1.8645 -0.365563 0
M  V30 3432 H 322.446 -2.84629 -2.64421 0
M  V30 3433 H 324.118 -4.56284 -0.67845 0
M  V30 3434 H 322.361 -4.30049 -0.569273 0
M  V30 3435 H 323.032 -5.16106 -1.95803 0
M  V30 3436 H 325.508 -3.316 -2.51357 0
M  V30 3437 H 324.384 -4.09169 -3.65885 0
M  V30 3438 H 324.645 -2.35656 -3.74057 0
M  V30 3439 N 323.704 0.605807 -1.45491 0
M  V30 3440 C 324.654 1.71074 -1.50724 0
M  V30 3441 C 325.638 1.5658 -0.37033 0
M  V30 3442 O 326.83 1.65887 -0.617299 0
M  V30 3443 C 323.959 3.0983 -1.47852 0
M  V30 3444 C 323.045 3.29704 -2.66751 0
M  V30 3445 N 323.436 3.19831 -3.91844 0
M  V30 3446 C 321.734 3.60579 -2.62486 0
M  V30 3447 C 322.435 3.41083 -4.71208 0
M  V30 3448 N 321.411 3.65157 -4.02693 0
M  V30 3449 H 325.213 1.61937 -2.45263 0
M  V30 3450 H 322.727 0.80912 -1.40808 0
M  V30 3451 H 324.724 3.89101 -1.49686 0
M  V30 3452 H 323.384 3.20115 -0.543714 0
M  V30 3453 H 324.395 2.98194 -4.23439 0
M  V30 3454 H 321.072 3.7769 -1.77922 0
M  V30 3455 H 322.462 3.38828 -5.80211 0
M  V30 3456 N 325.182 1.32811 0.848464 0
M  V30 3457 C 326.145 1.22194 1.9391 0
M  V30 3458 C 327.145 0.143404 1.60159 0
M  V30 3459 O 328.335 0.394253 1.6968 0
M  V30 3460 C 325.467 0.88067 3.29328 0
M  V30 3461 H 326.66 2.19127 2.04752 0
M  V30 3462 H 324.213 1.16731 1.0394 0
M  V30 3463 H 324.948 -0.0865776 3.24184 0
M  V30 3464 H 324.733 1.66052 3.55203 0
M  V30 3465 H 326.223 0.830871 4.09251 0
M  V30 3466 N 326.66 -1.06551 1.16123 0
M  V30 3467 C 327.908 -1.78947 0.939267 0
M  V30 3468 C 328.229 -1.87532 -0.534476 0
M  V30 3469 O 327.499 -1.38211 -1.38833 0
M  V30 3470 H 326.079 -0.662807 0.344523 0
M  V30 3471 H 328.741 -1.28725 1.46342 0
M  V30 3472 H 327.837 -2.81117 1.35572 0
M  V30 3473 N 328.138 -0.959301 -1.25041 0
M  V30 3474 C 329.549 -0.65667 -1.74771 0
M  V30 3475 C 329.9 0.827852 -1.77879 0
M  V30 3476 O 329.025 1.64783 -1.40269 0
M  V30 3477 C 329.62 -1.1853 -3.1739 0
M  V30 3478 C 328.179 -0.932734 -3.6466 0
M  V30 3479 C 327.326 -1.32558 -2.43564 0
M  V30 3480 H 330.277 -1.13558 -1.10862 0
M  V30 3481 H 330.298 -0.547582 -3.76539 0
M  V30 3482 H 329.81 -2.26576 -3.15095 0
M  V30 3483 H 327.911 0.13257 -3.72364 0
M  V30 3484 H 328.024 -1.57248 -4.52559 0
M  V30 3485 H 326.388 -0.743956 -2.43593 0
M  V30 3486 H 327.171 -2.41537 -2.43957 0
M  V30 3487 N 329.616 1.39756 -0.72842 0
M  V30 3488 C 330.865 1.99879 -0.270407 0
M  V30 3489 C 331.178 1.58449 1.14688 0
M  V30 3490 O 332.384 2.11362 1.70407 0
M  V30 3491 C 330.84 3.57292 -0.43252 0
M  V30 3492 C 330.448 4.07688 -1.85727 0
M  V30 3493 C 332.192 4.24485 -0.0359507 0
M  V30 3494 C 330.099 5.5765 -1.96928 0
M  V30 3495 H 329.029 0.747689 -0.0973472 0
M  V30 3496 H 331.68 1.59837 -0.901355 0
M  V30 3497 H 330.062 3.95097 0.267219 0
M  V30 3498 H 331.236 3.81231 -2.58843 0
M  V30 3499 H 329.551 3.53135 -2.20646 0
M  V30 3500 H 332.148 5.34609 -0.0987484 0
M  V30 3501 H 332.491 4.03915 1.00787 0
M  V30 3502 H 333.024 3.9183 -0.686604 0
M  V30 3503 H 329.763 5.8309 -2.99476 0
M  V30 3504 H 329.283 5.8593 -1.28241 0
M  V30 3505 H 330.962 6.22957 -1.74737 0
M  V30 3506 N 331.094 0.475555 1.50254 0
M  V30 3507 C 332.057 -0.305016 2.27161 0
M  V30 3508 C 333.057 -0.916519 1.32123 0
M  V30 3509 O 334.247 -0.785003 1.5551 0
M  V30 3510 C 331.379 -1.43496 3.09227 0
M  V30 3511 H 332.572 0.369511 2.97615 0
M  V30 3512 H 330.125 0.229747 1.54602 0
M  V30 3513 H 330.86 -2.14441 2.43281 0
M  V30 3514 H 330.645 -1.00223 3.79075 0
M  V30 3515 H 332.135 -1.98548 3.67381 0
M  V30 3516 N 332.573 -1.56217 0.208337 0
M  V30 3517 C 333.984 -1.84243 -0.301904 0
M  V30 3518 C 334.335 -1.12939 -1.60434 0
M  V30 3519 O 333.46 -0.39461 -2.12772 0
M  V30 3520 C 334.055 -3.34231 -0.554543 0
M  V30 3521 C 332.614 -3.62621 -1.00912 0
M  V30 3522 C 331.761 -2.77224 -0.064933 0
M  V30 3523 H 334.712 -1.52712 0.431833 0
M  V30 3524 H 334.733 -3.5372 -1.40223 0
M  V30 3525 H 334.245 -3.86099 0.393561 0
M  V30 3526 H 332.346 -3.16197 -1.97104 0
M  V30 3527 H 332.459 -4.7071 -0.892674 0
M  V30 3528 H 330.823 -2.48256 -0.56929 0
M  V30 3529 H 331.606 -3.31887 0.877851 0
M  V30 3530 N 334.051 0.0651679 -1.57465 0
M  V30 3531 C 335.299 0.761555 -1.87202 0
M  V30 3532 C 335.62 1.77778 -0.801243 0
M  V30 3533 O 334.89 1.95166 0.16937 0
M  V30 3534 H 333.47 0.284251 -0.690804 0
M  V30 3535 H 336.132 0.0396827 -1.9486 0
M  V30 3536 H 335.228 1.27365 -2.84929 0
M  V30 3537 N 335.529 1.53961 0.336706 0
M  V30 3538 C 336.461 1.78751 1.4346 0
M  V30 3539 C 337.474 0.669019 1.48418 0
M  V30 3540 O 338.663 0.945884 1.51378 0
M  V30 3541 C 335.763 1.87844 2.82078 0
M  V30 3542 C 334.936 3.17854 3.00479 0
M  V30 3543 C 333.995 3.17816 4.19379 0
M  V30 3544 O 333.021 3.91511 4.13168 0
M  V30 3545 N 334.223 2.40669 5.2826 0
M  V30 3546 H 336.988 2.73493 1.22563 0
M  V30 3547 H 334.549 1.53096 0.526625 0
M  V30 3548 H 336.541 1.85261 3.59806 0
M  V30 3549 H 335.111 1.00257 2.96086 0
M  V30 3550 H 334.331 3.33504 2.10163 0
M  V30 3551 H 335.619 4.03718 3.0966 0
M  V30 3552 H 335.017 1.8036 5.36178 0
M  V30 3553 H 333.574 2.43877 6.04456 0
M  V30 3554 N 337.007 -0.598083 1.45811 0
M  V30 3555 C 337.94 -1.7223 1.49706 0
M  V30 3556 C 338.918 -1.58732 0.352535 0
M  V30 3557 O 340.102 -1.80162 0.554438 0
M  V30 3558 C 337.229 -3.10148 1.3611 0
M  V30 3559 C 336.275 -3.42209 2.54549 0
M  V30 3560 S 337.108 -3.35989 4.16979 0
M  V30 3561 C 338.264 -4.76471 4.05865 0
M  V30 3562 H 338.497 -1.68665 2.44826 0
M  V30 3563 H 336.03 -0.775541 1.33509 0
M  V30 3564 H 337.988 -3.8972 1.28953 0
M  V30 3565 H 336.649 -3.11219 0.424451 0
M  V30 3566 H 335.842 -4.42652 2.40988 0
M  V30 3567 H 335.444 -2.70173 2.58617 0
M  V30 3568 H 337.736 -5.665 3.71596 0
M  V30 3569 H 338.679 -4.95089 5.06253 0
M  V30 3570 H 339.087 -4.52599 3.37364 0
M  V30 3571 N 338.485 -1.33259 -0.841409 0
M  V30 3572 C 339.901 -1.12538 -1.13169 0
M  V30 3573 C 340.101 0.0854037 -2.01319 0
M  V30 3574 O 339.157 0.766417 -2.40587 0
M  V30 3575 C 340.47 -2.41156 -1.79623 0
M  V30 3576 C 342.018 -2.47038 -1.922 0
M  V30 3577 C 342.493 -3.7561 -2.6207 0
M  V30 3578 N 343.984 -3.76667 -2.69585 0
M  V30 3579 C 344.719 -4.72861 -3.2433 0
M  V30 3580 N 344.215 -5.79428 -3.79783 0
M  V30 3581 N 346.008 -4.6034 -3.22558 0
M  V30 3582 H 338.159 -2.10868 -0.254676 0
M  V30 3583 H 340.422 -0.931615 -0.175493 0
M  V30 3584 H 340.128 -3.29747 -1.22311 0
M  V30 3585 H 340.002 -2.53114 -2.79666 0
M  V30 3586 H 342.389 -1.58898 -2.48667 0
M  V30 3587 H 342.47 -2.39022 -0.911148 0
M  V30 3588 H 342.114 -4.64131 -2.06263 0
M  V30 3589 H 342.044 -3.80902 -3.63622 0
M  V30 3590 H 344.535 -2.99648 -2.30259 0
M  V30 3591 H 344.848 -6.48867 -4.19752 0
M  V30 3592 H 343.193 -5.83166 -3.78078 0
M  V30 3593 H 346.384 -3.76244 -2.78492 0
M  V30 3594 H 346.557 -5.35478 -3.64921 0
M  V30 3595 N 339.963 1.05934 -1.16686 0
M  V30 3596 C 340.873 2.17014 -0.891183 0
M  V30 3597 C 341.889 1.73453 0.137907 0
M  V30 3598 O 343.065 2.01361 -0.039592 0
M  V30 3599 C 340.13 3.44384 -0.400099 0
M  V30 3600 C 339.191 4.02433 -1.49486 0
M  V30 3601 C 338.424 5.23723 -1.02711 0
M  V30 3602 O 338.647 5.7027 0.121716 0
M  V30 3603 O 337.581 5.7382 -1.81699 0
M  V30 3604 H 341.407 2.43113 -1.82015 0
M  V30 3605 H 338.992 1.15541 -0.947132 0
M  V30 3606 H 340.874 4.21189 -0.133392 0
M  V30 3607 H 339.549 3.19802 0.500817 0
M  V30 3608 H 338.456 3.27102 -1.81535 0
M  V30 3609 H 339.789 4.31317 -2.37121 0
M  V30 3610 N 341.441 0.965919 1.2453 0
M  V30 3611 C 342.852 0.665929 1.7442 0
M  V30 3612 C 343.203 -0.818407 1.78316 0
M  V30 3613 O 342.328 -1.64037 1.41141 0
M  V30 3614 C 342.923 1.20211 3.16757 0
M  V30 3615 C 341.482 0.952059 3.6416 0
M  V30 3616 C 340.629 1.33848 2.42858 0
M  V30 3617 H 343.58 1.14144 1.10258 0
M  V30 3618 H 343.601 0.567544 3.76244 0
M  V30 3619 H 343.113 2.28244 3.13889 0
M  V30 3620 H 341.214 -0.112821 3.72429 0
M  V30 3621 H 341.327 1.59645 4.51719 0
M  V30 3622 H 339.691 0.756864 2.43195 0
M  V30 3623 H 340.474 2.42827 2.42673 0
M  V30 3624 N 342.919 -1.39368 0.735821 0
M  V30 3625 C 344.335 -1.54204 0.411492 0
M  V30 3626 C 344.535 -1.70268 -1.07755 0
M  V30 3627 O 343.591 -1.70364 -1.86366 0
M  V30 3628 C 344.904 -2.75925 1.19523 0
M  V30 3629 C 346.452 -2.89761 1.18354 0
M  V30 3630 C 346.927 -4.14421 1.94986 0
M  V30 3631 N 348.418 -4.21462 1.92156 0
M  V30 3632 C 349.153 -5.16871 2.48258 0
M  V30 3633 N 348.649 -6.18063 3.13001 0
M  V30 3634 N 350.442 -5.09093 2.38287 0
M  V30 3635 H 342.593 -1.27189 1.70108 0
M  V30 3636 H 344.856 -0.616517 0.720147 0
M  V30 3637 H 344.562 -2.70401 2.24892 0
M  V30 3638 H 344.436 -3.68614 0.800222 0
M  V30 3639 H 346.823 -2.94777 0.137975 0
M  V30 3640 H 346.904 -1.98133 1.61793 0
M  V30 3641 H 346.548 -4.10166 2.99543 0
M  V30 3642 H 346.478 -5.05095 1.48953 0
M  V30 3643 H 348.969 -3.48979 1.44991 0
M  V30 3644 H 349.282 -6.87326 3.53275 0
M  V30 3645 H 347.627 -6.18448 3.17091 0
M  V30 3646 H 350.818 -4.28973 1.8735 0
M  V30 3647 H 350.991 -5.83272 2.82308 0
M  V30 3648 N 344.397 -0.483516 -1.5 0
M  V30 3649 C 345.645 0.067027 -2.01989 0
M  V30 3650 C 345.966 1.3909 -1.36671 0
M  V30 3651 O 345.236 1.88978 -0.516152 0
M  V30 3652 H 343.816 0.0277606 -0.746484 0
M  V30 3653 H 346.478 -0.636773 -1.84204 0
M  V30 3654 H 345.574 0.209484 -3.11396 0
M  V30 3655 N 345.875 1.56104 -0.216619 0
M  V30 3656 C 347.1 2.0301 0.424462 0
M  V30 3657 C 347.525 1.0955 1.52907 0
M  V30 3658 O 346.883 0.0827914 1.81111 0
M  V30 3659 C 346.931 3.4819 0.937883 0
M  V30 3660 O 346.035 3.57865 2.04955 0
M  V30 3661 H 345.376 0.656925 0.0966755 0
M  V30 3662 H 347.906 2.01859 -0.33381 0
M  V30 3663 H 347.916 3.88413 1.24897 0
M  V30 3664 H 346.591 4.15699 0.129387 0
M  V30 3665 H 345.168 3.29527 1.74546 0
M  V30 3666 N 347.353 -0.0568162 1.57498 0
M  V30 3667 C 348.63 -0.786954 1.79071 0
M  V30 3668 C 349.01 -1.95028 0.80792 0
M  V30 3669 O 348.358 -2.27968 -0.155858 0
M  V30 3670 C 348.568 -1.24594 3.26002 0
M  V30 3671 C 349.916 -1.67323 3.90241 0
M  V30 3672 O 350.94 -1.34124 3.29984 0
M  V30 3673 O 349.799 -2.28842 4.9628 0
M  V30 3674 H 346.893 -0.378262 0.735423 0
M  V30 3675 H 349.439 -0.035734 1.69662 0
M  V30 3676 H 348.211 -0.41423 3.89101 0
M  V30 3677 H 347.834 -2.05803 3.40192 0
M  V30 3678 N 348.832 -1.54138 -0.328536 0
M  V30 3679 C 350.081 -1.71318 -1.06456 0
M  V30 3680 C 350.394 -0.491109 -1.89334 0
M  V30 3681 O 351.6 -0.54416 -2.65991 0
M  V30 3682 C 350.056 -3.03 -1.94214 0
M  V30 3683 C 349.664 -4.32595 -1.16471 0
M  V30 3684 C 351.408 -3.29544 -2.67583 0
M  V30 3685 C 349.315 -5.55341 -2.03347 0
M  V30 3686 H 348.245 -0.638429 -0.401155 0
M  V30 3687 H 350.896 -1.80633 -0.323106 0
M  V30 3688 H 349.278 -2.87579 -2.72239 0
M  V30 3689 H 350.452 -4.58766 -0.432525 0
M  V30 3690 H 348.767 -4.12777 -0.548063 0
M  V30 3691 H 351.364 -4.18444 -3.3288 0
M  V30 3692 H 351.707 -2.47206 -3.34955 0
M  V30 3693 H 352.24 -3.45809 -1.96623 0
M  V30 3694 H 348.979 -6.40268 -1.40491 0
M  V30 3695 H 348.499 -5.33397 -2.74313 0
M  V30 3696 H 350.178 -5.91557 -2.62049 0
M  V30 3697 N 350.31 0.590341 -1.46126 0
M  V30 3698 C 351.273 1.68194 -1.55703 0
M  V30 3699 C 352.273 1.54808 -0.434868 0
M  V30 3700 O 353.463 1.59564 -0.698928 0
M  V30 3701 C 350.595 3.07575 -1.47005 0
M  V30 3702 H 351.788 1.61064 -2.52979 0
M  V30 3703 H 349.341 0.807541 -1.33823 0
M  V30 3704 H 350.076 3.20268 -0.509785 0
M  V30 3705 H 349.861 3.187 -2.28414 0
M  V30 3706 H 351.351 3.87055 -1.56776 0
M  V30 3707 N 351.788 1.33704 0.83433 0
M  V30 3708 C 353.036 1.25169 1.58673 0
M  V30 3709 C 353.357 -0.18127 1.94156 0
M  V30 3710 O 352.627 -1.11113 1.6134 0
M  V30 3711 H 351.207 0.4603 0.58833 0
M  V30 3712 H 353.869 1.67478 0.996847 0
M  V30 3713 H 352.965 1.84856 2.51465 0
M  V30 3714 N 353.266 -1.05314 1.17247 0
M  V30 3715 C 354.494 -1.81971 0.984593 0
M  V30 3716 C 354.909 -1.82929 -0.467166 0
M  V30 3717 O 354.266 -1.25564 -1.32438 0
M  V30 3718 C 354.317 -3.28143 1.51672 0
M  V30 3719 O 354.038 -3.27347 2.91163 0
M  V30 3720 C 355.539 -4.21493 1.37326 0
M  V30 3721 H 352.759 -0.573455 0.348411 0
M  V30 3722 H 355.303 -1.32808 1.55506 0
M  V30 3723 H 353.458 -3.74582 0.988302 0
M  V30 3724 H 353.872 -4.18824 3.15732 0
M  V30 3725 H 355.346 -5.22043 1.79375 0
M  V30 3726 H 355.823 -4.38031 0.320169 0
M  V30 3727 H 356.429 -3.80909 1.89178 0
M  V30 3728 N 354.744 -0.972509 -1.24016 0
M  V30 3729 C 355.972 -0.654803 -1.96265 0
M  V30 3730 C 356.387 0.776708 -1.72083 0
M  V30 3731 O 355.744 1.52171 -1.00748 0
M  V30 3732 C 355.795 -0.92592 -3.49441 0
M  V30 3733 O 355.516 -2.30116 -3.72798 0
M  V30 3734 C 357.017 -0.623068 -4.38899 0
M  V30 3735 H 354.237 -0.243907 -0.6251 0
M  V30 3736 H 356.781 -1.30175 -1.57717 0
M  V30 3737 H 354.936 -0.325108 -3.86033 0
M  V30 3738 H 355.35 -2.38483 -4.67147 0
M  V30 3739 H 356.824 -0.863189 -5.45209 0
M  V30 3740 H 357.301 0.442754 -4.36963 0
M  V30 3741 H 357.907 -1.204 -4.07902 0
M  V30 3742 N 356.222 1.38976 -0.743202 0
M  V30 3743 C 357.447 2.05161 -0.303936 0
M  V30 3744 C 357.872 1.55677 1.05576 0
M  V30 3745 O 357.23 0.704131 1.67068 0
M  V30 3746 C 357.278 3.59138 -0.324373 0
M  V30 3747 O 356.382 4.06668 0.685204 0
M  V30 3748 H 355.723 0.649815 -0.136518 0
M  V30 3749 H 358.253 1.77852 -1.01142 0
M  V30 3750 H 358.263 4.07639 -0.171618 0
M  V30 3751 H 356.938 3.94515 -1.31647 0
M  V30 3752 H 355.515 3.69561 0.497913 0
M  V30 3753 N 357.7 0.491464 1.49741 0
M  V30 3754 C 358.928 -0.0535151 2.06831 0
M  V30 3755 C 359.343 -1.31683 1.35296 0
M  V30 3756 O 358.7 -1.77402 0.42836 0
M  V30 3757 C 358.751 -0.320835 3.60073 0
M  V30 3758 O 358.472 0.892394 4.28915 0
M  V30 3759 C 359.973 -0.910519 4.33848 0
M  V30 3760 H 357.193 0.0161909 0.670805 0
M  V30 3761 H 359.737 0.68609 1.92647 0
M  V30 3762 H 357.892 -1.0104 3.73991 0
M  V30 3763 H 358.306 0.649401 5.20464 0
M  V30 3764 H 359.78 -1.04721 5.41976 0
M  V30 3765 H 360.257 -1.90589 3.95692 0
M  V30 3766 H 360.863 -0.258712 4.24512 0
M  V30 3767 N 359.178 -1.55987 0.224894 0
M  V30 3768 C 360.108 -2.23426 -0.678457 0
M  V30 3769 C 361.089 -1.20709 -1.19847 0
M  V30 3770 O 362.274 -1.49304 -1.24186 0
M  V30 3771 C 359.404 -2.91676 -1.88527 0
M  V30 3772 C 358.358 -4.00893 -1.49896 0
M  V30 3773 C 357.684 -4.56455 -2.78483 0
M  V30 3774 C 358.984 -5.17769 -0.686461 0
M  V30 3775 H 360.678 -2.99175 -0.116173 0
M  V30 3776 H 358.224 -1.43897 -0.054436 0
M  V30 3777 H 360.177 -3.37547 -2.5227 0
M  V30 3778 H 358.901 -2.1338 -2.47258 0
M  V30 3779 H 357.56 -3.55758 -0.884985 0
M  V30 3780 H 357.208 -3.74886 -3.35365 0
M  V30 3781 H 356.908 -5.30169 -2.53368 0
M  V30 3782 H 358.432 -5.05047 -3.43162 0
M  V30 3783 H 359.846 -5.60001 -1.22767 0
M  V30 3784 H 358.243 -5.97735 -0.532259 0
M  V30 3785 H 359.313 -4.83932 0.306196 0
M  V30 3786 N 360.656 0.0484629 -1.57525 0
M  V30 3787 C 361.588 1.08222 -2.02041 0
M  V30 3788 C 362.601 1.33621 -0.930012 0
M  V30 3789 O 363.79 1.3145 -1.20761 0
M  V30 3790 C 360.89 2.42818 -2.36416 0
M  V30 3791 C 360.063 2.37049 -3.67596 0
M  V30 3792 C 359.122 3.53937 -3.89378 0
M  V30 3793 O 358.148 3.34308 -4.60681 0
M  V30 3794 N 359.35 4.75126 -3.3352 0
M  V30 3795 H 362.115 0.702946 -2.9134 0
M  V30 3796 H 359.676 0.236745 -1.6016 0
M  V30 3797 H 361.668 3.197 -2.48141 0
M  V30 3798 H 360.238 2.72661 -1.52888 0
M  V30 3799 H 359.458 1.45395 -3.66407 0
M  V30 3800 H 360.746 2.30318 -4.53686 0
M  V30 3801 H 360.144 4.93976 -2.75688 0
M  V30 3802 H 358.701 5.49439 -3.50656 0
M  V30 3803 N 362.134 1.5431 0.320358 0
M  V30 3804 C 363.044 1.86946 1.41734 0
M  V30 3805 C 364.06 0.761689 1.56443 0
M  V30 3806 O 365.236 1.05629 1.71477 0
M  V30 3807 C 362.301 2.09293 2.76401 0
M  V30 3808 C 361.362 3.33082 2.70841 0
M  V30 3809 C 360.595 3.54353 3.99086 0
M  V30 3810 O 360.818 2.79002 4.97508 0
M  V30 3811 O 359.752 4.47838 4.0215 0
M  V30 3812 H 363.578 2.80232 1.17062 0
M  V30 3813 H 361.163 1.40255 0.514673 0
M  V30 3814 H 363.045 2.25303 3.56113 0
M  V30 3815 H 361.72 1.19194 3.00956 0
M  V30 3816 H 360.627 3.22454 1.89668 0
M  V30 3817 H 361.96 4.23249 2.5124 0
M  V30 3818 N 363.613 -0.582584 1.46437 0
M  V30 3819 C 364.545 -1.70618 1.53043 0
M  V30 3820 C 365.558 -1.57322 0.418769 0
M  V30 3821 O 366.747 -1.64744 0.687136 0
M  V30 3822 C 363.847 -3.08869 1.39474 0
M  V30 3823 C 363.02 -3.48166 2.64762 0
M  V30 3824 C 362.079 -4.65478 2.4539 0
M  V30 3825 O 361.105 -4.71333 3.19114 0
M  V30 3826 N 362.307 -5.60365 1.51564 0
M  V30 3827 H 365.072 -1.65405 2.49923 0
M  V30 3828 H 362.633 -0.768567 1.42494 0
M  V30 3829 H 364.625 -3.85143 1.24287 0
M  V30 3830 H 363.195 -3.08449 0.507758 0
M  V30 3831 H 362.415 -2.61598 2.9489 0
M  V30 3832 H 363.703 -3.71188 3.4799 0
M  V30 3833 H 363.101 -5.5837 0.907705 0
M  V30 3834 H 361.658 -6.36068 1.4234 0
M  V30 3835 N 365.091 -1.34144 -0.827227 0
M  V30 3836 C 366.34 -1.25602 -1.5782 0
M  V30 3837 C 366.653 0.173445 -1.94829 0
M  V30 3838 O 367.859 0.380984 -2.68814 0
M  V30 3839 C 366.315 -2.20151 -2.84713 0
M  V30 3840 C 365.923 -3.68331 -2.55021 0
M  V30 3841 C 367.667 -2.20508 -3.62735 0
M  V30 3842 C 365.574 -4.54762 -3.78082 0
M  V30 3843 H 364.504 -0.466573 -0.592306 0
M  V30 3844 H 367.155 -1.59283 -0.911116 0
M  V30 3845 H 365.537 -1.79417 -3.53023 0
M  V30 3846 H 366.711 -4.17577 -1.94849 0
M  V30 3847 H 365.026 -3.7038 -1.90283 0
M  V30 3848 H 367.623 -2.82306 -4.54101 0
M  V30 3849 H 367.966 -1.20322 -3.98533 0
M  V30 3850 H 368.499 -2.59664 -3.01362 0
M  V30 3851 H 365.238 -5.55867 -3.47407 0
M  V30 3852 H 364.758 -4.10254 -4.37552 0
M  V30 3853 H 366.437 -4.69153 -4.45538 0
M  V30 3854 N 366.569 1.04691 -1.17803 0
M  V30 3855 C 367.532 2.10724 -0.901545 0
M  V30 3856 C 368.532 1.6042 0.110437 0
M  V30 3857 O 369.722 1.7377 -0.122303 0
M  V30 3858 C 366.854 3.39084 -0.351409 0
M  V30 3859 H 368.047 2.36686 -1.84174 0
M  V30 3860 H 365.6 1.21015 -0.98919 0
M  V30 3861 H 366.335 3.18782 0.59569 0
M  V30 3862 H 366.12 3.76909 -1.08083 0
M  V30 3863 H 367.61 4.17227 -0.176451 0
M  V30 3864 N 368.047 0.979072 1.23499 0
M  V30 3865 C 369.293 0.6578 1.9247 0
M  V30 3866 C 369.648 -0.799746 1.74991 0
M  V30 3867 O 368.941 -1.56922 1.09937 0
M  V30 3868 C 369.135 0.981932 3.43646 0
M  V30 3869 C 368.964 2.46944 3.75831 0
M  V30 3870 C 367.734 3.13119 3.96591 0
M  V30 3871 C 369.932 3.45006 3.81412 0
M  V30 3872 N 367.914 4.51489 4.15969 0
M  V30 3873 C 369.285 4.68778 4.05768 0
M  V30 3874 C 371.34 3.39505 3.64198 0
M  V30 3875 C 370.043 5.87723 4.14697 0
M  V30 3876 C 372.069 4.57814 3.7438 0
M  V30 3877 C 371.431 5.80381 3.99171 0
M  V30 3878 H 367.53 0.291746 0.72554 0
M  V30 3879 H 370.114 1.25626 1.48749 0
M  V30 3880 H 368.285 0.412179 3.86207 0
M  V30 3881 H 370.017 0.618068 3.99953 0
M  V30 3882 H 366.772 2.63619 3.93449 0
M  V30 3883 H 367.196 5.23221 4.29615 0
M  V30 3884 H 371.838 2.45773 3.44029 0
M  V30 3885 H 369.556 6.81874 4.33675 0
M  V30 3886 H 373.142 4.55132 3.62417 0
M  V30 3887 H 372.022 6.70398 4.06861 0
M  V30 3888 N 369.525 -1.3858 0.750561 0
M  V30 3889 C 370.458 -2.28095 0.0693139 0
M  V30 3890 C 371.436 -1.45217 -0.731491 0
M  V30 3891 O 372.62 -1.74587 -0.71076 0
M  V30 3892 C 369.747 -3.26282 -0.90871 0
M  V30 3893 C 368.793 -4.26056 -0.194507 0
M  V30 3894 S 369.626 -5.24026 1.10257 0
M  V30 3895 C 370.782 -6.2577 0.127542 0
M  V30 3896 H 371.015 -2.85526 0.8284 0
M  V30 3897 H 368.548 -1.44536 0.543014 0
M  V30 3898 H 370.506 -3.83367 -1.46766 0
M  V30 3899 H 369.167 -2.6784 -1.64075 0
M  V30 3900 H 368.36 -4.95249 -0.93512 0
M  V30 3901 H 367.962 -3.72852 0.292837 0
M  V30 3902 H 370.254 -6.73796 -0.707516 0
M  V30 3903 H 371.197 -7.03712 0.787044 0
M  V30 3904 H 371.605 -5.63938 -0.251803 0
M  V30 3905 N 371.003 -0.499398 -1.49478 0
M  V30 3906 C 372.231 0.0425456 -2.06856 0
M  V30 3907 C 372.646 1.30964 -1.35992 0
M  V30 3908 O 372.003 1.77172 -0.437762 0
M  V30 3909 C 372.054 0.301735 -3.60239 0
M  V30 3910 O 371.775 -0.915127 -4.28436 0
M  V30 3911 C 373.276 0.887499 -4.34325 0
M  V30 3912 H 370.496 -0.0197482 -0.670709 0
M  V30 3913 H 373.04 -0.696297 -1.92281 0
M  V30 3914 H 371.195 0.990556 -3.74522 0
M  V30 3915 H 371.609 -0.676993 -5.20113 0
M  V30 3916 H 373.083 1.01845 -5.42523 0
M  V30 3917 H 373.56 1.88488 -3.96698 0
M  V30 3918 H 374.166 0.236196 -4.24644 0
M  V30 3919 N 372.481 1.55866 -0.233164 0
M  V30 3920 C 373.706 2.03449 0.402906 0
M  V30 3921 C 374.131 1.11166 1.51736 0
M  V30 3922 O 373.489 0.101996 1.81013 0
M  V30 3923 C 373.537 3.49165 0.9009 0
M  V30 3924 O 372.641 3.60019 2.01147 0
M  V30 3925 H 371.982 0.657913 0.0897025 0
M  V30 3926 H 374.512 2.01493 -0.355201 0
M  V30 3927 H 374.522 3.89716 1.2077 0
M  V30 3928 H 373.197 4.15813 0.0852889 0
M  V30 3929 H 371.774 3.3136 1.71042 0
M  V30 3930 N 373.959 -0.0401083 1.57549 0
M  V30 3931 C 374.907 -1.06264 2.06908 0
M  V30 3932 C 375.901 -1.38132 0.980608 0
M  V30 3933 O 377.107 -1.37167 1.16556 0
M  V30 3934 H 373.482 -0.360166 0.660139 0
M  V30 3935 H 375.453 -0.620445 2.91878 0
M  V30 3936 C 374.202 -2.35846 2.55483 0
M  V30 3937 H 373.525 -2.12183 3.38849 0
M  V30 3938 H 374.965 -3.05765 2.93741 0
M  V30 3939 C 373.424 -3.0404 1.45126 0
M  V30 3940 O 373.954 -3.93424 0.811216 0
M  V30 3941 N 372.16 -2.65184 1.18852 0
M  V30 3942 H 371.707 -1.92584 1.71083 0
M  V30 3943 H 371.665 -3.1113 0.452244 0
M  V30 3944 N 375.437 -1.54477 -0.31217 0
M  V30 3945 C 376.848 -1.64344 -0.885891 0
M  V30 3946 C 377.199 -0.54485 -1.88483 0
M  V30 3947 O 376.324 0.320387 -2.14015 0
M  V30 3948 C 376.919 -2.97908 -1.61357 0
M  V30 3949 C 375.478 -3.09933 -2.13585 0
M  V30 3950 C 374.625 -2.59971 -0.964897 0
M  V30 3951 H 377.576 -1.58448 -0.0894528 0
M  V30 3952 H 377.597 -2.88706 -2.47848 0
M  V30 3953 H 377.109 -3.77845 -0.886277 0
M  V30 3954 H 375.21 -2.34694 -2.89395 0
M  V30 3955 H 375.323 -4.15916 -2.37804 0
M  V30 3956 H 373.687 -2.16147 -1.34731 0
M  V30 3957 H 374.47 -3.42376 -0.251742 0
M  V30 3958 N 376.915 0.57481 -1.46744 0
M  V30 3959 C 378.326 1.15695 -1.46532 0
M  V30 3960 C 378.677 1.95068 -0.210425 0
M  V30 3961 O 377.802 2.05241 0.685944 0
M  V30 3962 C 378.397 2.1048 -2.65487 0
M  V30 3963 C 376.956 2.64002 -2.68291 0
M  V30 3964 C 376.103 1.40026 -2.39349 0
M  V30 3965 H 379.054 0.362325 -1.54509 0
M  V30 3966 H 379.075 2.94074 -2.41455 0
M  V30 3967 H 378.587 1.52683 -3.56805 0
M  V30 3968 H 376.688 3.25646 -1.81067 0
M  V30 3969 H 376.801 3.06197 -3.68483 0
M  V30 3970 H 375.165 1.70106 -1.89568 0
M  V30 3971 H 375.948 0.840485 -3.32852 0
M  V30 3972 N 378.394 1.34581 0.820102 0
M  V30 3973 C 379.643 1.26437 1.57151 0
M  V30 3974 C 379.956 -0.163111 1.94919 0
M  V30 3975 O 381.162 -0.366722 2.69012 0
M  V30 3976 C 379.618 2.21658 2.83541 0
M  V30 3977 C 379.226 3.69679 2.53065 0
M  V30 3978 C 380.97 2.22428 3.61561 0
M  V30 3979 C 378.877 4.56761 3.75664 0
M  V30 3980 H 377.807 0.469707 0.589823 0
M  V30 3981 H 380.458 1.59763 0.902656 0
M  V30 3982 H 378.84 1.81287 3.52067 0
M  V30 3983 H 380.014 4.18605 1.92631 0
M  V30 3984 H 378.329 3.71384 1.88316 0
M  V30 3985 H 380.926 2.8471 4.52597 0
M  V30 3986 H 381.269 1.22434 3.97889 0
M  V30 3987 H 381.802 2.61259 2.99981 0
M  V30 3988 H 378.541 5.57702 3.44454 0
M  V30 3989 H 378.061 4.12568 4.35371 0
M  V30 3990 H 379.74 4.71509 4.43044 0
M  V30 3991 N 379.872 -1.04064 1.18357 0
M  V30 3992 C 381.283 -1.58719 0.98312 0
M  V30 3993 C 381.634 -1.90556 -0.467193 0
M  V30 3994 O 380.759 -1.69561 -1.34454 0
M  V30 3995 C 381.354 -2.88379 1.77828 0
M  V30 3996 C 379.913 -3.3965 1.62218 0
M  V30 3997 C 379.06 -2.13235 1.77274 0
M  V30 3998 H 382.011 -0.867359 1.32901 0
M  V30 3999 H 382.032 -3.58773 1.26737 0
M  V30 4000 H 381.544 -2.65176 2.83379 0
M  V30 4001 H 379.645 -3.67866 0.592036 0
M  V30 4002 H 379.758 -4.13475 2.42023 0
M  V30 4003 H 378.122 -2.24542 1.20221 0
M  V30 4004 H 378.905 -1.92487 2.8426 0
M  V30 4005 N 381.35 -0.985608 -1.22978 0
M  V30 4006 C 382.596 -0.65836 -1.91816 0
M  V30 4007 C 382.929 0.806692 -1.76653 0
M  V30 4008 O 382.204 1.58252 -1.13078 0
M  V30 4009 C 382.487 -1.056 -3.44268 0
M  V30 4010 C 382.34 -2.57906 -3.68516 0
M  V30 4011 C 383.659 -0.603781 -4.35939 0
M  V30 4012 H 380.778 -0.24065 -0.696604 0
M  V30 4013 H 383.42 -1.22783 -1.44998 0
M  V30 4014 H 381.57 -0.571445 -3.84274 0
M  V30 4015 H 383.242 -3.13976 -3.3796 0
M  V30 4016 H 381.485 -3.00305 -3.13048 0
M  V30 4017 H 382.156 -2.80779 -4.75255 0
M  V30 4018 H 384.632 -1.01987 -4.03408 0
M  V30 4019 H 383.508 -0.910383 -5.41298 0
M  V30 4020 H 383.769 0.495761 -4.39312 0
M  V30 4021 N 382.828 1.3818 -0.7579 0
M  V30 4022 C 384.076 1.99624 -0.315361 0
M  V30 4023 C 384.397 1.60464 1.10799 0
M  V30 4024 O 383.667 0.863507 1.75842 0
M  V30 4025 H 382.247 0.73831 -0.113611 0
M  V30 4026 H 384.909 1.68878 -0.972952 0
M  V30 4027 H 384.005 3.09754 -0.381931 0
M  V30 4028 N 384.306 0.507319 1.49211 0
M  V30 4029 C 385.216 -0.272136 2.33016 0
M  V30 4030 C 386.232 -0.961206 1.45041 0
M  V30 4031 O 387.408 -0.941191 1.78055 0
M  V30 4032 C 384.473 -1.31895 3.20631 0
M  V30 4033 C 383.534 -0.642648 4.24463 0
M  V30 4034 C 382.767 -1.63959 5.07891 0
M  V30 4035 O 382.99 -2.87007 4.92933 0
M  V30 4036 O 381.924 -1.19143 5.8999 0
M  V30 4037 H 385.75 0.413982 3.00865 0
M  V30 4038 H 383.335 0.268556 1.46966 0
M  V30 4039 H 385.217 -1.92446 3.7489 0
M  V30 4040 H 383.892 -1.98788 2.5547 0
M  V30 4041 H 382.799 0.00276252 3.741 0
M  V30 4042 H 384.132 -0.0160534 4.92197 0
M  V30 4043 N 385.784 -1.5574 0.241426 0
M  V30 4044 C 387.033 -1.97986 -0.385295 0
M  V30 4045 C 387.346 -1.13267 -1.59468 0
M  V30 4046 O 388.552 -1.45501 -2.2922 0
M  V30 4047 C 387.008 -3.52275 -0.736884 0
M  V30 4048 C 386.616 -4.45726 0.450796 0
M  V30 4049 C 388.36 -4.03189 -1.3281 0
M  V30 4050 C 386.267 -5.91352 0.0756662 0
M  V30 4051 H 385.197 -0.739386 -0.147731 0
M  V30 4052 H 387.848 -1.80308 0.340779 0
M  V30 4053 H 386.23 -3.65628 -1.52094 0
M  V30 4054 H 387.404 -4.44131 1.22819 0
M  V30 4055 H 385.719 -4.05264 0.956573 0
M  V30 4056 H 388.316 -5.09505 -1.62201 0
M  V30 4057 H 388.659 -3.50212 -2.25071 0
M  V30 4058 H 389.192 -3.93141 -0.607069 0
M  V30 4059 H 385.931 -6.48354 0.965272 0
M  V30 4060 H 385.451 -5.96095 -0.665635 0
M  V30 4061 H 387.13 -6.46084 -0.344075 0
M  V30 4062 N 387.262 0.0317525 -1.57568 0
M  V30 4063 C 388.492 0.733884 -1.93126 0
M  V30 4064 C 388.9 1.69563 -0.839352 0
M  V30 4065 O 388.243 1.82681 0.193175 0
M  V30 4066 C 388.305 1.54798 -3.24465 0
M  V30 4067 C 387.969 0.751304 -4.50782 0
M  V30 4068 C 388.966 0.0527632 -5.19873 0
M  V30 4069 C 386.651 0.706639 -4.97305 0
M  V30 4070 C 388.645 -0.679774 -6.33765 0
M  V30 4071 C 386.332 -0.0296449 -6.11093 0
M  V30 4072 C 387.33 -0.721614 -6.79177 0
M  V30 4073 O 387.018 -1.44595 -7.90789 0
M  V30 4074 H 386.75 0.211459 -0.642076 0
M  V30 4075 H 389.304 -0.00585615 -2.05399 0
M  V30 4076 H 387.534 2.33147 -3.08512 0
M  V30 4077 H 389.223 2.13247 -3.4537 0
M  V30 4078 H 389.989 0.0783188 -4.84937 0
M  V30 4079 H 385.868 1.23474 -4.44157 0
M  V30 4080 H 389.412 -1.22042 -6.86842 0
M  V30 4081 H 385.309 -0.0571331 -6.45475 0
M  V30 4082 H 386.077 -1.35935 -8.07133 0
M  V30 4083 N 388.74 1.54641 0.303973 0
M  V30 4084 C 389.687 1.85386 1.37479 0
M  V30 4085 C 390.657 0.702528 1.50512 0
M  V30 4086 O 391.842 0.950867 1.65418 0
M  V30 4087 C 388.982 2.10413 2.73533 0
M  V30 4088 C 388.095 3.38049 2.68974 0
M  V30 4089 C 387.23 3.52934 3.97002 0
M  V30 4090 C 386.269 4.74373 3.86829 0
M  V30 4091 N 385.406 4.8608 5.06627 0
M  V30 4092 H 390.246 2.76732 1.1056 0
M  V30 4093 H 387.783 1.37034 0.534805 0
M  V30 4094 H 389.741 2.22919 3.52652 0
M  V30 4095 H 388.371 1.22338 2.98719 0
M  V30 4096 H 387.423 3.3418 1.81736 0
M  V30 4097 H 388.735 4.27288 2.57346 0
M  V30 4098 H 387.889 3.65088 4.84557 0
M  V30 4099 H 386.628 2.61824 4.1146 0
M  V30 4100 H 385.633 4.62255 2.97658 0
M  V30 4101 H 386.858 5.66888 3.73918 0
M  V30 4102 H 384.804 3.97891 5.21554 0
M  V30 4103 H 384.721 5.69315 4.9741 0
M  V30 4104 H 385.989 5.02587 5.95841 0
M  V30 4105 N 390.218 -0.567019 1.47046 0
M  V30 4106 C 391.634 -0.891975 1.32348 0
M  V30 4107 C 391.834 -1.99154 0.306616 0
M  V30 4108 O 390.89 -2.50883 -0.28532 0
M  V30 4109 C 392.203 -1.29449 2.7141 0
M  V30 4110 C 393.751 -1.40646 2.79621 0
M  V30 4111 C 394.226 -1.84257 4.19301 0
M  V30 4112 N 395.717 -1.91424 4.21795 0
M  V30 4113 C 396.452 -2.26476 5.26779 0
M  V30 4114 N 395.948 -2.60211 6.42077 0
M  V30 4115 N 397.741 -2.27166 5.14152 0
M  V30 4116 H 389.892 0.159074 2.11803 0
M  V30 4117 H 392.155 0.00849752 0.947962 0
M  V30 4118 H 391.861 -0.560448 3.47206 0
M  V30 4119 H 391.735 -2.25273 3.02542 0
M  V30 4120 H 394.122 -2.13133 2.04104 0
M  V30 4121 H 394.203 -0.430339 2.52154 0
M  V30 4122 H 393.847 -1.12343 4.95319 0
M  V30 4123 H 393.777 -2.82855 4.44185 0
M  V30 4124 H 396.268 -1.6778 3.38612 0
M  V30 4125 H 396.581 -2.85956 7.17948 0
M  V30 4126 H 394.926 -2.57813 6.45413 0
M  V30 4127 H 398.117 -2.00244 4.23107 0
M  V30 4128 H 398.29 -2.54154 5.96079 0
M  V30 4129 N 391.696 -1.35014 -0.812953 0
M  V30 4130 C 392.942 -1.29129 -1.57154 0
M  V30 4131 C 393.297 0.134922 -1.91926 0
M  V30 4132 O 392.59 1.08373 -1.58006 0
M  V30 4133 C 392.784 -2.12524 -2.87347 0
M  V30 4134 C 392.613 -3.6311 -2.65294 0
M  V30 4135 C 391.383 -4.32363 -2.61516 0
M  V30 4136 C 393.581 -4.56897 -2.36114 0
M  V30 4137 N 391.563 -5.68735 -2.31113 0
M  V30 4138 C 392.934 -5.81345 -2.15494 0
M  V30 4139 C 394.989 -4.45706 -2.21925 0
M  V30 4140 C 393.692 -6.95862 -1.82122 0
M  V30 4141 C 395.718 -5.60066 -1.89948 0
M  V30 4142 C 395.08 -6.83539 -1.7016 0
M  V30 4143 H 391.179 -0.527764 -0.577052 0
M  V30 4144 H 393.763 -1.6983 -0.952146 0
M  V30 4145 H 391.934 -1.74104 -3.47192 0
M  V30 4146 H 393.666 -1.98207 -3.5284 0
M  V30 4147 H 390.421 -3.84907 -2.75941 0
M  V30 4148 H 390.845 -6.40694 -2.18724 0
M  V30 4149 H 395.487 -3.50855 -2.35925 0
M  V30 4150 H 393.205 -7.90685 -1.6686 0
M  V30 4151 H 396.791 -5.53357 -1.79687 0
M  V30 4152 H 395.671 -7.70531 -1.45777 0
M  V30 4153 N 393.175 1.03435 -1.18907 0
M  V30 4154 C 394.424 1.76143 -0.982669 0
M  V30 4155 C 394.737 1.89416 0.487953 0
M  V30 4156 O 395.943 2.59041 0.813036 0
M  V30 4157 C 394.399 3.16722 -1.70924 0
M  V30 4158 C 394.007 3.11522 -3.21959 0
M  V30 4159 C 395.751 3.93764 -1.58588 0
M  V30 4160 C 393.658 4.46999 -3.87228 0
M  V30 4161 H 392.588 0.660292 -0.364047 0
M  V30 4162 H 395.239 1.158 -1.42347 0
M  V30 4163 H 393.621 3.775 -1.19623 0
M  V30 4164 H 394.795 2.60158 -3.80335 0
M  V30 4165 H 393.11 2.47978 -3.34508 0
M  V30 4166 H 395.707 4.93963 -2.04707 0
M  V30 4167 H 396.05 4.12794 -0.539142 0
M  V30 4168 H 396.583 3.39576 -2.07203 0
M  V30 4169 H 393.322 4.33174 -4.91976 0
M  V30 4170 H 392.842 4.98441 -3.33642 0
M  V30 4171 H 394.521 5.15898 -3.90459 0
M  V30 4172 N 394.653 0.992116 1.22453 0
M  V30 4173 C 395.902 0.662992 1.90492 0
M  V30 4174 C 396.215 -0.808407 1.78113 0
M  V30 4175 O 397.421 -1.24908 2.41061 0
M  V30 4176 C 395.877 1.1353 3.41524 0
M  V30 4177 C 395.485 2.63187 3.62542 0
M  V30 4178 C 397.229 0.880465 4.15269 0
M  V30 4179 C 395.136 3.04024 5.0727 0
M  V30 4180 H 394.066 0.244278 0.713333 0
M  V30 4181 H 396.717 1.20157 1.38688 0
M  V30 4182 H 395.099 0.52485 3.92506 0
M  V30 4183 H 396.273 3.2957 3.22056 0
M  V30 4184 H 394.588 2.86543 3.02129 0
M  V30 4185 H 397.185 1.16128 5.21937 0
M  V30 4186 H 397.528 -0.183408 4.15896 0
M  V30 4187 H 398.061 1.45307 3.70312 0
M  V30 4188 H 394.8 4.09584 5.11782 0
M  V30 4189 H 394.32 2.42343 5.48662 0
M  V30 4190 H 395.999 2.95282 5.75689 0
M  V30 4191 N 396.131 -1.37776 0.765217 0
M  V30 4192 C 397.061 -2.32945 0.160953 0
M  V30 4193 C 398.042 -1.55454 -0.690516 0
M  V30 4194 O 399.227 -1.83721 -0.629318 0
M  V30 4195 C 396.357 -3.39669 -0.724031 0
M  V30 4196 C 395.311 -4.27992 0.0256173 0
M  V30 4197 C 394.637 -5.25673 -0.978383 0
M  V30 4198 C 395.937 -5.08309 1.20082 0
M  V30 4199 H 397.631 -2.83728 0.955969 0
M  V30 4200 H 395.177 -1.36416 0.461149 0
M  V30 4201 H 397.13 -4.05219 -1.15652 0
M  V30 4202 H 395.854 -2.87396 -1.5515 0
M  V30 4203 H 394.513 -3.63964 0.438812 0
M  V30 4204 H 394.161 -4.69682 -1.80022 0
M  V30 4205 H 393.861 -5.85625 -0.481378 0
M  V30 4206 H 395.385 -5.94098 -1.40995 0
M  V30 4207 H 396.799 -5.67034 0.845307 0
M  V30 4208 H 395.196 -5.77554 1.62947 0
M  V30 4209 H 396.266 -4.41365 2.00811 0
M  V30 4210 N 397.609 -0.515225 -1.4894 0
M  V30 4211 C 398.857 0.0241671 -2.02086 0
M  V30 4212 C 399.178 1.3616 -1.3959 0
M  V30 4213 O 398.448 1.87841 -0.556121 0
M  V30 4214 H 397.028 0.0119203 -0.746905 0
M  V30 4215 H 399.69 -0.675702 -1.82812 0
M  V30 4216 H 398.786 0.143385 -3.1177 0
M  V30 4217 N 399.087 1.5561 -0.249682 0
M  V30 4218 C 400.017 2.24477 0.642826 0
M  V30 4219 C 400.998 1.22601 1.17911 0
M  V30 4220 O 402.183 1.5126 1.21795 0
M  V30 4221 C 399.313 2.94638 1.83863 0
M  V30 4222 C 398.267 4.03227 1.435 0
M  V30 4223 C 397.593 4.60828 2.71186 0
M  V30 4224 C 398.893 5.18796 0.604002 0
M  V30 4225 H 400.587 2.99321 0.0685625 0
M  V30 4226 H 398.133 1.43965 0.0315363 0
M  V30 4227 H 400.086 3.41517 2.46868 0
M  V30 4228 H 398.81 2.17287 2.43832 0
M  V30 4229 H 397.469 3.57121 0.828275 0
M  V30 4230 H 397.117 3.80174 3.29358 0
M  V30 4231 H 396.817 5.34132 2.44901 0
M  V30 4232 H 398.341 5.10442 3.35084 0
M  V30 4233 H 399.755 5.61883 1.13842 0
M  V30 4234 H 398.152 5.98506 0.437097 0
M  V30 4235 H 399.222 4.83384 -0.383147 0
M  V30 4236 N 400.565 -0.0233959 1.57583 0
M  V30 4237 C 401.513 -1.04063 2.08023 0
M  V30 4238 C 402.507 -1.37084 0.995204 0
M  V30 4239 O 403.713 -1.35923 1.18004 0
M  V30 4240 H 400.088 -0.353144 0.663922 0
M  V30 4241 H 402.059 -0.589453 2.9252 0
M  V30 4242 C 400.808 -2.33123 2.57971 0
M  V30 4243 H 400.131 -2.08577 3.4108 0
M  V30 4244 H 401.571 -3.02632 2.96967 0
M  V30 4245 C 400.03 -3.02483 1.48342 0
M  V30 4246 O 400.56 -3.92541 0.852898 0
M  V30 4247 N 398.766 -2.63909 1.21658 0
M  V30 4248 H 398.313 -1.90758 1.73116 0
M  V30 4249 H 398.271 -3.10633 0.485218 0
M  V30 4250 N 402.043 -1.548 -0.295768 0
M  V30 4251 C 402.99 -1.86113 -1.36494 0
M  V30 4252 C 403.96 -0.7105 -1.50137 0
M  V30 4253 O 405.145 -0.959626 -1.64912 0
M  V30 4254 C 402.285 -2.11861 -2.72413 0
M  V30 4255 C 401.398 -3.39471 -2.67177 0
M  V30 4256 C 400.533 -3.55035 -3.95125 0
M  V30 4257 C 399.572 -4.76418 -3.84308 0
M  V30 4258 N 398.709 -4.8876 -5.04042 0
M  V30 4259 H 403.549 -2.77314 -1.09091 0
M  V30 4260 H 401.086 -1.37315 -0.52753 0
M  V30 4261 H 403.044 -2.24786 -3.51464 0
M  V30 4262 H 401.674 -1.2392 -2.98066 0
M  V30 4263 H 400.726 -3.35139 -1.79962 0
M  V30 4264 H 402.038 -4.28646 -2.55076 0
M  V30 4265 H 401.192 -3.67653 -4.82614 0
M  V30 4266 H 399.931 -2.64002 -4.10066 0
M  V30 4267 H 398.936 -4.63827 -2.95202 0
M  V30 4268 H 400.161 -5.68863 -3.70906 0
M  V30 4269 H 398.107 -4.00652 -5.19436 0
M  V30 4270 H 398.024 -5.71945 -4.94384 0
M  V30 4271 H 399.292 -5.0574 -5.93167 0
M  V30 4272 N 403.521 0.559213 -1.47345 0
M  V30 4273 C 404.77 1.31281 -1.53128 0
M  V30 4274 C 405.083 1.94602 -0.197344 0
M  V30 4275 O 406.289 2.71173 -0.133154 0
M  V30 4276 C 404.745 2.38051 -2.69925 0
M  V30 4277 C 404.353 1.8093 -4.0984 0
M  V30 4278 C 406.097 3.14604 -2.84999 0
M  V30 4279 C 404.004 2.85468 -5.1794 0
M  V30 4280 H 402.934 0.493614 -0.569966 0
M  V30 4281 H 405.585 0.594155 -1.73615 0
M  V30 4282 H 403.967 3.12822 -2.42814 0
M  V30 4283 H 405.141 1.12544 -4.46845 0
M  V30 4284 H 403.456 1.16967 -3.99634 0
M  V30 4285 H 406.053 3.92666 -3.62929 0
M  V30 4286 H 406.396 3.68665 -1.93369 0
M  V30 4287 H 406.929 2.46945 -3.1187 0
M  V30 4288 H 403.668 2.36264 -6.1144 0
M  V30 4289 H 403.188 3.52269 -4.85455 0
M  V30 4290 H 404.867 3.48996 -5.44803 0
M  V30 4291 N 404.999 1.35443 0.805782 0
M  V30 4292 C 406.245 1.28952 1.56522 0
M  V30 4293 C 406.578 -0.135597 1.93726 0
M  V30 4294 O 405.853 -1.08516 1.61414 0
M  V30 4295 C 406.136 2.19678 2.85331 0
M  V30 4296 C 405.989 3.7081 2.54598 0
M  V30 4297 C 407.308 2.09495 3.8704 0
M  V30 4298 H 404.427 0.469764 0.567883 0
M  V30 4299 H 407.069 1.65851 0.927001 0
M  V30 4300 H 405.219 1.8834 3.39795 0
M  V30 4301 H 406.891 4.12593 2.06312 0
M  V30 4302 H 405.134 3.91051 1.8778 0
M  V30 4303 H 405.805 4.29679 3.46525 0
M  V30 4304 H 408.281 2.37045 3.41978 0
M  V30 4305 H 407.157 2.75173 4.74943 0
M  V30 4306 H 407.418 1.07714 4.28777 0
M  V30 4307 N 406.477 -1.02803 1.19454 0
M  V30 4308 C 407.893 -1.28473 0.946937 0
M  V30 4309 C 408.093 -1.97881 -0.380202 0
M  V30 4310 O 407.149 -2.26719 -1.11151 0
M  V30 4311 C 408.462 -2.13099 2.12154 0
M  V30 4312 C 410.01 -2.26404 2.16126 0
M  V30 4313 C 410.485 -3.14402 3.33039 0
M  V30 4314 N 411.976 -3.21991 3.32981 0
M  V30 4315 C 412.711 -3.90272 4.20089 0
M  V30 4316 N 412.207 -4.60777 5.17355 0
M  V30 4317 N 414 -3.8668 4.07964 0
M  V30 4318 H 406.151 -0.561665 2.04839 0
M  V30 4319 H 408.414 -0.310438 0.89573 0
M  V30 4320 H 408.12 -1.69422 3.08203 0
M  V30 4321 H 407.994 -3.13813 2.09287 0
M  V30 4322 H 410.381 -2.69311 1.20647 0
M  V30 4323 H 410.462 -1.25237 2.23045 0
M  V30 4324 H 410.106 -2.72204 4.28798 0
M  V30 4325 H 410.036 -4.1563 3.23356 0
M  V30 4326 H 412.527 -2.71778 2.62574 0
M  V30 4327 H 412.84 -5.10513 5.80169 0
M  V30 4328 H 411.185 -4.5964 5.21302 0
M  V30 4329 H 414.376 -3.30739 3.31254 0
M  V30 4330 H 414.549 -4.39621 4.76064 0
M  V30 4331 N 407.956 -0.998596 -1.21925 0
M  V30 4332 C 408.889 -0.498517 -2.22688 0
M  V30 4333 C 409.867 0.444301 -1.56412 0
M  V30 4334 O 411.051 0.368518 -1.84863 0
M  V30 4335 C 408.178 0.276639 -3.37568 0
M  V30 4336 C 407.224 -0.61302 -4.22071 0
M  V30 4337 S 408.057 -2.07168 -4.93803 0
M  V30 4338 C 409.213 -1.30617 -6.12119 0
M  V30 4339 H 409.446 -1.35234 -2.64762 0
M  V30 4340 H 406.979 -0.806018 -1.31692 0
M  V30 4341 H 408.937 0.717817 -4.04175 0
M  V30 4342 H 407.598 1.10581 -2.93991 0
M  V30 4343 H 406.791 -0.0162909 -5.03997 0
M  V30 4344 H 406.393 -0.991202 -3.60626 0
M  V30 4345 H 408.685 -0.57675 -6.75041 0
M  V30 4346 H 409.628 -2.10091 -6.76215 0
M  V30 4347 H 410.036 -0.816957 -5.58557 0
M  V30 4348 N 409.434 1.37368 -0.772513 0
M  V30 4349 C 410.664 2.03647 -0.348082 0
M  V30 4350 C 411.072 1.58392 1.03482 0
M  V30 4351 O 410.415 0.760921 1.672 0
M  V30 4352 C 410.477 3.58131 -0.313404 0
M  V30 4353 C 410.141 4.2652 -1.64102 0
M  V30 4354 C 411.138 4.50587 -2.5936 0
M  V30 4355 C 408.823 4.64335 -1.91567 0
M  V30 4356 C 410.817 5.11526 -3.80289 0
M  V30 4357 C 408.504 5.24996 -3.12766 0
M  V30 4358 C 409.502 5.48529 -4.06946 0
M  V30 4359 O 409.19 6.07921 -5.26011 0
M  V30 4360 H 408.922 0.660538 -0.143753 0
M  V30 4361 H 411.476 1.76669 -1.04772 0
M  V30 4362 H 409.706 3.84159 0.442617 0
M  V30 4363 H 411.395 4.05813 0.0840613 0
M  V30 4364 H 412.161 4.21784 -2.39423 0
M  V30 4365 H 408.04 4.45353 -1.19088 0
M  V30 4366 H 411.584 5.29811 -4.53813 0
M  V30 4367 H 407.481 5.53223 -3.32588 0
M  V30 4368 H 408.249 6.26398 -5.26847 0
M  V30 4369 N 410.912 0.523116 1.48665 0
M  V30 4370 C 412.137 -0.0117284 2.07397 0
M  V30 4371 C 412.562 -1.28031 1.37803 0
M  V30 4372 O 411.92 -1.75836 0.441762 0
M  V30 4373 C 411.968 -0.225786 3.59892 0
M  V30 4374 O 411.072 -1.29592 3.91509 0
M  V30 4375 H 410.413 0.0360673 0.66302 0
M  V30 4376 H 412.943 0.729066 1.9117 0
M  V30 4377 H 412.953 -0.450552 4.05505 0
M  V30 4378 H 411.628 0.700944 4.09951 0
M  V30 4379 H 410.205 -1.05436 3.57684 0
M  V30 4380 N 412.39 -1.55475 0.257931 0
M  V30 4381 C 413.801 -1.8511 -0.243135 0
M  V30 4382 C 414.152 -1.17986 -1.5676 0
M  V30 4383 O 413.277 -0.462102 -2.11409 0
M  V30 4384 C 413.872 -3.35826 -0.447929 0
M  V30 4385 C 412.431 -3.65647 -0.893245 0
M  V30 4386 C 411.578 -2.7729 0.0232965 0
M  V30 4387 H 414.529 -1.51261 0.480199 0
M  V30 4388 H 414.55 -3.58002 -1.28898 0
M  V30 4389 H 414.062 -3.84652 0.516196 0
M  V30 4390 H 412.163 -3.22308 -1.86945 0
M  V30 4391 H 412.276 -4.73312 -0.742469 0
M  V30 4392 H 410.64 -2.49942 -0.490021 0
M  V30 4393 H 411.423 -3.28926 0.982994 0
M  V30 4394 N 413.868 0.0150385 -1.57593 0
M  V30 4395 C 415.114 0.704043 -1.90187 0
M  V30 4396 C 415.447 1.74249 -0.857366 0
M  V30 4397 O 414.722 1.94092 0.125843 0
M  V30 4398 C 415.005 1.36087 -3.33395 0
M  V30 4399 C 414.858 0.334981 -4.48551 0
M  V30 4400 C 416.177 2.29112 -3.7576 0
M  V30 4401 H 413.296 0.254475 -0.691673 0
M  V30 4402 H 415.938 -0.0331678 -1.89971 0
M  V30 4403 H 414.088 1.98922 -3.3371 0
M  V30 4404 H 415.76 -0.292534 -4.60372 0
M  V30 4405 H 414.003 -0.344325 -4.32431 0
M  V30 4406 H 414.674 0.833316 -5.45674 0
M  V30 4407 H 417.15 1.76308 -3.76902 0
M  V30 4408 H 416.026 2.72043 -4.76743 0
M  V30 4409 H 416.287 3.16385 -3.08793 0
M  V30 4410 N 415.346 1.54954 0.287554 0
M  V30 4411 C 416.571 1.79209 1.04397 0
M  V30 4412 C 416.996 0.556431 1.79682 0
M  V30 4413 O 416.354 -0.493518 1.74454 0
M  V30 4414 C 416.402 3.00739 1.98969 0
M  V30 4415 O 415.506 2.74805 3.075 0
M  V30 4416 H 414.847 0.592755 0.299227 0
M  V30 4417 H 417.377 2.02068 0.320886 0
M  V30 4418 H 417.387 3.29077 2.4119 0
M  V30 4419 H 416.062 3.90329 1.43582 0
M  V30 4420 H 414.639 2.57523 2.69697 0
M  V30 4421 N 416.824 -0.551391 1.4764 0
M  V30 4422 C 418.073 -1.30467 1.53822 0
M  V30 4423 C 418.386 -1.94495 0.207661 0
M  V30 4424 O 419.592 -2.71099 0.147533 0
M  V30 4425 C 418.048 -2.36616 2.71184 0
M  V30 4426 C 417.656 -1.78754 4.10793 0
M  V30 4427 C 419.4 -3.13088 2.86663 0
M  V30 4428 C 417.307 -2.82717 5.19447 0
M  V30 4429 H 416.237 -0.490584 0.572576 0
M  V30 4430 H 418.888 -0.58494 1.73927 0
M  V30 4431 H 417.27 -3.11529 2.4447 0
M  V30 4432 H 418.444 -1.10173 4.47435 0
M  V30 4433 H 416.759 -1.14846 4.00249 0
M  V30 4434 H 419.356 -3.90736 3.65007 0
M  V30 4435 H 419.699 -3.67635 1.95321 0
M  V30 4436 H 420.232 -2.45288 3.13175 0
M  V30 4437 H 416.971 -2.33018 6.12685 0
M  V30 4438 H 416.491 -3.4969 4.87316 0
M  V30 4439 H 418.17 -3.46102 5.46646 0
M  V30 4440 N 418.302 -1.35869 -0.798587 0
M  V30 4441 C 419.232 -1.32118 -1.92528 0
M  V30 4442 C 420.213 -0.194209 -1.68988 0
M  V30 4443 O 421.398 -0.390426 -1.90235 0
M  V30 4444 C 418.528 -1.10047 -3.29404 0
M  V30 4445 C 417.482 -2.19471 -3.67446 0
M  V30 4446 C 416.808 -1.82555 -5.02571 0
M  V30 4447 C 418.108 -3.61495 -3.76987 0
M  V30 4448 H 419.802 -2.26394 -1.95924 0
M  V30 4449 H 417.348 -1.08981 -0.94123 0
M  V30 4450 H 419.301 -1.06061 -4.07835 0
M  V30 4451 H 418.025 -0.122195 -3.26371 0
M  V30 4452 H 416.684 -2.22568 -2.91306 0
M  V30 4453 H 416.332 -0.833249 -4.9605 0
M  V30 4454 H 416.032 -2.5581 -5.28995 0
M  V30 4455 H 417.556 -1.80108 -5.83432 0
M  V30 4456 H 418.97 -3.60676 -4.4563 0
M  V30 4457 H 417.367 -4.33577 -4.14887 0
M  V30 4458 H 418.437 -3.97065 -2.78329 0
M  V30 4459 N 419.78 1.02168 -1.19998 0
M  V30 4460 C 421.057 1.72816 -0.916191 0
M  V30 4461 C 421.437 2.03081 0.576325 0
M  V30 4462 O 420.785 1.69122 1.53656 0
M  V30 4463 C 420.995 2.9997 -1.78378 0
M  V30 4464 C 422.343 3.73336 -2.02251 0
M  V30 4465 O 423.367 3.09914 -1.75589 0
M  V30 4466 O 422.226 4.87371 -2.47249 0
M  V30 4467 H 419.32 0.752924 -0.342103 0
M  V30 4468 H 421.866 1.08062 -1.30846 0
M  V30 4469 H 420.638 2.73888 -2.79466 0
M  V30 4470 H 420.261 3.72464 -1.39126 0
M  V30 4471 N 421.258 1.00505 1.21394 0
M  V30 4472 C 422.507 0.683159 1.89778 0
M  V30 4473 C 422.82 -0.789471 1.7896 0
M  V30 4474 O 424.026 -1.22344 2.42372 0
M  V30 4475 C 422.482 1.17146 3.40301 0
M  V30 4476 C 422.09 2.67017 3.5973 0
M  V30 4477 C 423.834 0.924461 4.14311 0
M  V30 4478 C 421.741 3.09387 5.04017 0
M  V30 4479 H 420.671 0.25183 0.710702 0
M  V30 4480 H 423.322 1.21622 1.37406 0
M  V30 4481 H 421.704 0.566451 3.91928 0
M  V30 4482 H 422.878 3.32968 3.18542 0
M  V30 4483 H 421.193 2.89732 2.99073 0
M  V30 4484 H 423.79 1.21658 5.20676 0
M  V30 4485 H 424.133 -0.139286 4.16067 0
M  V30 4486 H 424.666 1.49226 3.6875 0
M  V30 4487 H 421.405 4.14989 5.07409 0
M  V30 4488 H 420.925 2.48149 5.46061 0
M  V30 4489 H 422.604 3.01371 5.72525 0
M  V30 4490 N 422.737 -1.36956 0.779787 0
M  V30 4491 C 424.153 -1.52817 0.460342 0
M  V30 4492 C 424.353 -1.7361 -1.02283 0
M  V30 4493 O 423.409 -1.76207 -1.80852 0
M  V30 4494 C 424.722 -2.71983 1.28241 0
M  V30 4495 C 426.27 -2.85849 1.27512 0
M  V30 4496 C 426.745 -4.08008 2.08072 0
M  V30 4497 N 428.236 -4.15135 2.05467 0
M  V30 4498 C 428.971 -5.08711 2.64577 0
M  V30 4499 N 428.467 -6.07792 3.32506 0
M  V30 4500 N 430.26 -5.01254 2.54363 0
M  V30 4501 H 422.411 -1.21713 1.74068 0
M  V30 4502 H 424.674 -0.593294 0.739396 0
M  V30 4503 H 424.38 -2.63109 2.33381 0
M  V30 4504 H 424.254 -3.65882 0.917088 0
M  V30 4505 H 426.641 -2.94189 0.231686 0
M  V30 4506 H 426.722 -1.92886 1.68014 0
M  V30 4507 H 426.366 -4.00429 3.12441 0
M  V30 4508 H 426.296 -5.001 1.64947 0
M  V30 4509 H 428.787 -3.44189 1.5602 0
M  V30 4510 H 429.1 -6.75739 3.74963 0
M  V30 4511 H 427.445 -6.08047 3.36606 0
M  V30 4512 H 430.636 -4.22795 2.00902 0
M  V30 4513 H 430.809 -5.73995 3.00722 0
M  V30 4514 N 424.215 -0.530993 -1.48385 0
M  V30 4515 C 425.147 0.268353 -2.27624 0
M  V30 4516 C 426.16 0.903525 -1.35426 0
M  V30 4517 O 427.349 0.781796 -1.60469 0
M  V30 4518 C 424.449 1.39535 -3.08842 0
M  V30 4519 C 423.622 0.861913 -4.28824 0
M  V30 4520 C 422.681 1.87016 -4.91845 0
M  V30 4521 O 421.707 1.4267 -5.5103 0
M  V30 4522 N 422.909 3.20238 -4.84178 0
M  V30 4523 H 425.674 -0.41123 -2.96865 0
M  V30 4524 H 423.235 -0.365387 -1.57723 0
M  V30 4525 H 425.227 2.06803 -3.47871 0
M  V30 4526 H 423.797 1.97859 -2.42014 0
M  V30 4527 H 423.017 0.0132126 -3.94198 0
M  V30 4528 H 424.305 0.484415 -5.06489 0
M  V30 4529 H 423.703 3.58932 -4.37246 0
M  V30 4530 H 422.26 3.83136 -5.27305 0
M  V30 4531 N 425.693 1.55336 -0.266172 0
M  V30 4532 C 426.941 1.99003 0.35246 0
M  V30 4533 C 427.262 1.15591 1.57047 0
M  V30 4534 O 426.532 0.243268 1.94384 0
M  V30 4535 H 425.112 0.735025 0.133217 0
M  V30 4536 H 427.774 1.91367 -0.369434 0
M  V30 4537 H 426.87 3.05289 0.648453 0
M  V30 4538 N 427.171 -0.0066808 1.57599 0
M  V30 4539 C 428.582 -0.550379 1.78403 0
M  V30 4540 C 428.933 -1.74339 0.900014 0
M  V30 4541 O 428.058 -2.16166 0.100713 0
M  V30 4542 C 428.653 -1.00523 3.23544 0
M  V30 4543 C 427.212 -1.49428 3.45468 0
M  V30 4544 C 426.359 -0.442444 2.73748 0
M  V30 4545 H 429.31 0.219508 1.57175 0
M  V30 4546 H 429.331 -1.87157 3.31289 0
M  V30 4547 H 428.843 -0.136735 3.87859 0
M  V30 4548 H 426.944 -2.3839 2.86358 0
M  V30 4549 H 427.057 -1.52635 4.54136 0
M  V30 4550 H 425.421 -0.902578 2.38171 0
M  V30 4551 H 426.204 0.416973 3.40758 0
M  V30 4552 N 428.649 -1.55105 -0.279332 0
M  V30 4553 C 429.596 -1.8755 -1.34513 0
M  V30 4554 C 430.566 -0.726384 -1.49375 0
M  V30 4555 O 431.751 -0.977063 -1.63884 0
M  V30 4556 C 428.891 -2.14738 -2.70151 0
M  V30 4557 C 428.004 -3.42285 -2.63562 0
M  V30 4558 C 427.139 -3.59206 -3.91337 0
M  V30 4559 C 426.178 -4.80467 -3.79233 0
M  V30 4560 N 425.315 -4.94079 -4.98829 0
M  V30 4561 H 430.155 -2.78456 -1.06143 0
M  V30 4562 H 427.692 -1.37867 -0.512936 0
M  V30 4563 H 429.65 -2.28501 -3.49061 0
M  V30 4564 H 428.28 -1.27075 -2.96735 0
M  V30 4565 H 427.332 -3.37029 -1.76397 0
M  V30 4566 H 428.644 -4.31328 -2.50515 0
M  V30 4567 H 427.798 -3.72751 -4.78687 0
M  V30 4568 H 426.537 -2.68337 -4.07243 0
M  V30 4569 H 425.542 -4.66932 -2.90266 0
M  V30 4570 H 426.767 -5.72765 -3.64852 0
M  V30 4571 H 424.713 -4.06139 -5.15158 0
M  V30 4572 H 424.63 -5.77156 -4.8829 0
M  V30 4573 H 425.898 -5.12003 -5.8777 0
M  V30 4574 N 430.127 0.543554 -1.4793 0
M  V30 4575 C 431.037 1.67657 -1.64098 0
M  V30 4576 C 432.053 1.65934 -0.523622 0
M  V30 4577 O 433.229 1.85133 -0.792943 0
M  V30 4578 C 430.294 3.04146 -1.66421 0
M  V30 4579 C 429.355 3.16831 -2.89684 0
M  V30 4580 C 428.588 4.46809 -2.91886 0
M  V30 4581 O 428.811 5.33095 -2.02895 0
M  V30 4582 O 427.745 4.63573 -3.83906 0
M  V30 4583 H 431.571 1.56957 -2.59997 0
M  V30 4584 H 429.156 0.715116 -1.31173 0
M  V30 4585 H 431.038 3.85346 -1.70548 0
M  V30 4586 H 429.713 3.152 -0.736923 0
M  V30 4587 H 428.62 2.34977 -2.91095 0
M  V30 4588 H 429.953 3.10687 -3.81752 0
M  V30 4589 N 431.605 1.3629 0.791371 0
M  V30 4590 C 433.016 1.27225 1.36641 0
M  V30 4591 C 433.367 -0.0887968 1.95999 0
M  V30 4592 O 432.492 -0.990207 1.92416 0
M  V30 4593 C 433.087 2.30375 2.48421 0
M  V30 4594 C 431.646 2.25004 3.01746 0
M  V30 4595 C 430.793 2.15259 1.7481 0
M  V30 4596 H 433.744 1.47198 0.593173 0
M  V30 4597 H 433.765 1.93905 3.27385 0
M  V30 4598 H 433.277 3.29422 2.05189 0
M  V30 4599 H 431.378 1.29417 3.49403 0
M  V30 4600 H 431.491 3.1761 3.58693 0
M  V30 4601 H 429.855 1.61482 1.96966 0
M  V30 4602 H 430.638 3.16191 1.33709 0
M  V30 4603 N 433.083 -1.0153 1.20538 0
M  V30 4604 C 434.33 -1.75149 1.01633 0
M  V30 4605 C 434.658 -1.89189 -0.451399 0
M  V30 4606 O 433.913 -1.41551 -1.35136 0
M  V30 4607 C 434.212 -3.17213 1.64654 0
M  V30 4608 C 433.878 -3.23146 3.14464 0
M  V30 4609 C 432.54 -3.24472 3.55347 0
M  V30 4610 C 434.892 -3.21207 4.10458 0
M  V30 4611 C 432.22 -3.21532 4.90748 0
M  V30 4612 C 434.572 -3.19808 5.45807 0
M  V30 4613 C 433.236 -3.19439 5.86102 0
M  V30 4614 H 432.506 -0.640914 0.3719 0
M  V30 4615 H 435.153 -1.19071 1.49981 0
M  V30 4616 H 433.458 -3.76457 1.08571 0
M  V30 4617 H 435.155 -3.72871 1.4754 0
M  V30 4618 H 431.745 -3.2285 2.81897 0
M  V30 4619 H 435.929 -3.19351 3.79906 0
M  V30 4620 H 431.185 -3.19578 5.21229 0
M  V30 4621 H 435.359 -3.1726 6.19935 0
M  V30 4622 H 432.986 -3.16915 6.90991 0
M  V30 4623 N 434.561 -1.01147 -1.20859 0
M  V30 4624 C 435.977 -0.725422 -1.42161 0
M  V30 4625 C 436.177 0.696919 -1.89064 0
M  V30 4626 O 435.233 1.46539 -2.05627 0
M  V30 4627 C 436.546 -1.74678 -2.44761 0
M  V30 4628 C 438.094 -1.76433 -2.58535 0
M  V30 4629 C 438.569 -2.77481 -3.64374 0
M  V30 4630 N 440.06 -2.76189 -3.71852 0
M  V30 4631 C 440.795 -3.51035 -4.53389 0
M  V30 4632 N 440.291 -4.35541 -5.38773 0
M  V30 4633 N 442.084 -3.39655 -4.47873 0
M  V30 4634 H 434.235 -1.92979 -0.887282 0
M  V30 4635 H 436.498 -0.833327 -0.451962 0
M  V30 4636 H 436.204 -2.76551 -2.17285 0
M  V30 4637 H 436.078 -1.55472 -3.43669 0
M  V30 4638 H 438.465 -0.75248 -2.85345 0
M  V30 4639 H 438.546 -1.99712 -1.5984 0
M  V30 4640 H 438.19 -3.78827 -3.38308 0
M  V30 4641 H 438.12 -2.51466 -4.6268 0
M  V30 4642 H 440.611 -2.14885 -3.10858 0
M  V30 4643 H 440.924 -4.89432 -5.98061 0
M  V30 4644 H 439.269 -4.39621 -5.38292 0
M  V30 4645 H 442.46 -2.73063 -3.80203 0
M  V30 4646 H 442.633 -3.9824 -5.11184 0
M  V30 4647 N 436.039 1.36541 -0.78704 0
M  V30 4648 C 437.316 1.9355 -0.282424 0
M  V30 4649 C 437.696 1.71919 1.22503 0
M  V30 4650 O 437.044 1.07677 2.01539 0
M  V30 4651 C 437.254 3.4246 -0.672462 0
M  V30 4652 C 438.602 4.19582 -0.650863 0
M  V30 4653 O 439.626 3.50889 -0.612789 0
M  V30 4654 O 438.485 5.42106 -0.691623 0
M  V30 4655 H 435.579 0.824091 -0.0693 0
M  V30 4656 H 438.125 1.45736 -0.869423 0
M  V30 4657 H 436.897 3.51851 -1.71221 0
M  V30 4658 H 436.52 3.97556 -0.0592211 0
M  V30 4659 N 437.518 0.538854 1.48102 0
M  V30 4660 C 438.748 0.0122958 2.06596 0
M  V30 4661 C 439.156 -1.27861 1.39457 0
M  V30 4662 O 438.499 -1.77348 0.478907 0
M  V30 4663 C 438.561 -0.273131 3.58461 0
M  V30 4664 C 438.225 0.92561 4.47528 0
M  V30 4665 C 439.222 1.82637 4.86765 0
M  V30 4666 C 436.907 1.13511 4.89306 0
M  V30 4667 C 438.901 2.92047 5.66558 0
M  V30 4668 C 436.588 2.23233 5.68868 0
M  V30 4669 C 437.586 3.12333 6.07402 0
M  V30 4670 O 437.274 4.20155 6.85365 0
M  V30 4671 H 437.006 0.0344283 0.675123 0
M  V30 4672 H 439.56 0.746494 1.91355 0
M  V30 4673 H 437.79 -1.06141 3.71848 0
M  V30 4674 H 439.479 -0.742842 3.99045 0
M  V30 4675 H 440.245 1.67649 4.55103 0
M  V30 4676 H 436.124 0.450835 4.5879 0
M  V30 4677 H 439.668 3.6162 5.96554 0
M  V30 4678 H 435.565 2.38201 5.99942 0
M  V30 4679 H 436.333 4.17975 7.03732 0
M  V30 4680 N 438.996 -1.55193 0.274407 0
M  V30 4681 C 440.242 -1.99877 -0.343086 0
M  V30 4682 C 440.575 -1.16256 -1.55558 0
M  V30 4683 O 439.85 -0.232462 -1.93106 0
M  V30 4684 C 440.133 -3.52706 -0.725965 0
M  V30 4685 C 439.986 -4.47081 0.493818 0
M  V30 4686 C 441.305 -4.11422 -1.56268 0
M  V30 4687 H 438.424 -0.726625 -0.123229 0
M  V30 4688 H 441.066 -1.86136 0.38121 0
M  V30 4689 H 439.216 -3.64546 -1.34307 0
M  V30 4690 H 440.888 -4.47186 1.13237 0
M  V30 4691 H 439.131 -4.1877 1.13201 0
M  V30 4692 H 439.802 -5.51699 0.18217 0
M  V30 4693 H 442.278 -4.02855 -1.04151 0
M  V30 4694 H 441.154 -5.18568 -1.79939 0
M  V30 4695 H 441.415 -3.61607 -2.54348 0
M  V30 4696 N 440.474 -0.00167713 -1.576 0
M  V30 4697 C 441.751 0.719951 -1.81868 0
M  V30 4698 C 442.131 1.91895 -0.879747 0
M  V30 4699 O 441.479 2.28389 0.0711423 0
M  V30 4700 C 441.689 1.12409 -3.30402 0
M  V30 4701 C 443.037 1.52724 -3.96182 0
M  V30 4702 O 444.061 1.21784 -3.34734 0
M  V30 4703 O 442.92 2.10265 -5.04431 0
M  V30 4704 H 440.014 0.350707 -0.748955 0
M  V30 4705 H 442.56 -0.0272597 -1.69678 0
M  V30 4706 H 441.332 0.269532 -3.90371 0
M  V30 4707 H 440.955 1.93035 -3.47596 0
M  V30 4708 N 441.952 1.55251 0.271103 0
M  V30 4709 C 443.368 1.47133 0.618393 0
M  V30 4710 C 443.568 0.686994 1.89427 0
M  V30 4711 O 442.624 0.206609 2.51653 0
M  V30 4712 C 443.937 2.91361 0.743593 0
M  V30 4713 C 445.485 3.01587 0.837522 0
M  V30 4714 C 445.96 4.47073 0.994483 0
M  V30 4715 N 447.451 4.50909 1.05996 0
M  V30 4716 C 448.186 5.60698 1.20024 0
M  V30 4717 N 447.682 6.80348 1.30759 0
M  V30 4718 N 449.475 5.48444 1.23149 0
M  V30 4719 H 441.626 2.04698 -0.566784 0
M  V30 4720 H 443.889 0.928319 -0.192165 0
M  V30 4721 H 443.595 3.51483 -0.123493 0
M  V30 4722 H 443.469 3.40484 1.62328 0
M  V30 4723 H 445.856 2.4156 1.69507 0
M  V30 4724 H 445.937 2.55713 -0.0668086 0
M  V30 4725 H 445.581 5.07703 0.141582 0
M  V30 4726 H 445.511 4.90605 1.91349 0
M  V30 4727 H 448.002 3.6472 0.989316 0
M  V30 4728 H 448.315 7.59772 1.41303 0
M  V30 4729 H 446.66 6.83156 1.27761 0
M  V30 4730 H 449.851 4.53907 1.14394 0
M  V30 4731 H 450.024 6.34049 1.33738 0
M  V30 4732 N 443.43 -0.535701 1.48216 0
M  V30 4733 C 444.677 -1.29183 1.55942 0
M  V30 4734 C 445.005 -1.93125 0.230857 0
M  V30 4735 O 444.26 -1.79556 -0.778331 0
M  V30 4736 C 444.559 -2.4068 2.64212 0
M  V30 4737 C 444.225 -1.94428 4.06827 0
M  V30 4738 C 442.887 -1.81532 4.45645 0
M  V30 4739 C 445.239 -1.59405 4.96225 0
M  V30 4740 C 442.567 -1.31939 5.71672 0
M  V30 4741 C 444.919 -1.11276 6.22736 0
M  V30 4742 C 443.583 -0.969924 6.60416 0
M  V30 4743 H 442.853 -0.472715 0.570632 0
M  V30 4744 H 445.5 -0.598437 1.81909 0
M  V30 4745 H 443.805 -3.15666 2.32083 0
M  V30 4746 H 445.502 -2.98822 2.67407 0
M  V30 4747 H 442.092 -2.05415 3.76168 0
M  V30 4748 H 446.276 -1.68231 4.66917 0
M  V30 4749 H 441.532 -1.19562 5.99596 0
M  V30 4750 H 445.706 -0.832453 6.91407 0
M  V30 4751 H 443.333 -0.583436 7.57958 0
M  V30 4752 N 444.908 -1.36708 -0.784132 0
M  V30 4753 C 446.138 -1.34203 -1.57077 0
M  V30 4754 C 446.546 0.0774945 -1.89041 0
M  V30 4755 O 445.889 1.04628 -1.50992 0
M  V30 4756 C 445.951 -2.10351 -2.91535 0
M  V30 4757 C 445.615 -3.59405 -2.82272 0
M  V30 4758 C 446.612 -4.53545 -2.54151 0
M  V30 4759 C 444.297 -4.02362 -3.00683 0
M  V30 4760 C 446.291 -5.8862 -2.44551 0
M  V30 4761 C 443.978 -5.37526 -2.90704 0
M  V30 4762 C 444.976 -6.30468 -2.62677 0
M  V30 4763 O 444.664 -7.63149 -2.52702 0
M  V30 4764 H 444.396 -0.461791 -0.493685 0
M  V30 4765 H 446.95 -1.80475 -0.980712 0
M  V30 4766 H 445.18 -1.5875 -3.52612 0
M  V30 4767 H 446.869 -2.00636 -3.52845 0
M  V30 4768 H 447.635 -4.21669 -2.39625 0
M  V30 4769 H 443.514 -3.30389 -3.21503 0
M  V30 4770 H 447.058 -6.61133 -2.22596 0
M  V30 4771 H 442.955 -5.69008 -3.04795 0
M  V30 4772 H 443.723 -7.73331 -2.68144 0
M  V30 4773 N 446.386 1.0089 -1.21074 0
M  V30 4774 C 447.333 2.09588 -0.966512 0
M  V30 4775 C 448.303 1.65761 0.106089 0
M  V30 4776 O 449.488 1.90758 -0.0402287 0
M  V30 4777 C 446.628 3.40958 -0.533058 0
M  V30 4778 C 445.741 3.9822 -1.67467 0
M  V30 4779 C 444.876 5.17682 -1.19076 0
M  V30 4780 C 443.915 5.67043 -2.30496 0
M  V30 4781 N 443.052 6.77759 -1.83267 0
M  V30 4782 H 447.892 2.29815 -1.89708 0
M  V30 4783 H 445.429 1.12689 -0.945489 0
M  V30 4784 H 447.387 4.1637 -0.263019 0
M  V30 4785 H 446.017 3.20781 0.360505 0
M  V30 4786 H 445.069 3.1983 -2.05944 0
M  V30 4787 H 446.381 4.3085 -2.51336 0
M  V30 4788 H 445.535 6.00326 -0.877151 0
M  V30 4789 H 444.274 4.86635 -0.322066 0
M  V30 4790 H 443.279 4.82999 -2.62664 0
M  V30 4791 H 444.504 6.00121 -3.17855 0
M  V30 4792 H 442.45 6.48527 -0.987356 0
M  V30 4793 H 442.367 7.09624 -2.60711 0
M  V30 4794 H 443.635 7.63949 -1.54928 0
M  V30 4795 N 447.864 1.01787 1.20321 0
M  V30 4796 C 449.092 0.727194 1.937 0
M  V30 4797 C 449.507 -0.712305 1.74848 0
M  V30 4798 O 448.864 -1.48327 1.06327 0
M  V30 4799 C 448.915 1.05497 3.45764 0
M  V30 4800 O 448.636 2.43794 3.64 0
M  V30 4801 C 450.137 0.785534 4.36285 0
M  V30 4802 H 447.357 0.266939 0.615617 0
M  V30 4803 H 449.901 1.35939 1.52777 0
M  V30 4804 H 448.056 0.468158 3.84561 0
M  V30 4805 H 448.47 2.55656 4.57974 0
M  V30 4806 H 449.944 1.06495 5.4163 0
M  V30 4807 H 450.421 -0.280273 4.38305 0
M  V30 4808 H 451.027 1.35456 4.03152 0
M  V30 4809 N 449.342 -1.36122 0.79427 0
M  V30 4810 C 450.272 -2.32551 0.210328 0
M  V30 4811 C 451.253 -1.56884 -0.657386 0
M  V30 4812 O 452.438 -1.85014 -0.590207 0
M  V30 4813 C 449.568 -3.41128 -0.651819 0
M  V30 4814 C 448.522 -4.27842 0.116395 0
M  V30 4815 C 447.848 -5.2763 -0.86666 0
M  V30 4816 C 449.148 -5.05647 1.30837 0
M  V30 4817 H 450.842 -2.81636 1.01594 0
M  V30 4818 H 448.388 -1.35407 0.489981 0
M  V30 4819 H 450.341 -4.07581 -1.07031 0
M  V30 4820 H 449.065 -2.90622 -1.49019 0
M  V30 4821 H 447.724 -3.62952 0.515915 0
M  V30 4822 H 447.372 -4.73395 -1.70019 0
M  V30 4823 H 447.072 -5.86514 -0.35705 0
M  V30 4824 H 448.596 -5.96955 -1.28361 0
M  V30 4825 H 450.01 -5.65113 0.965393 0
M  V30 4826 H 448.407 -5.73967 1.75161 0
M  V30 4827 H 449.477 -4.37006 2.10128 0
M  V30 4828 N 450.82 -0.546701 -1.47814 0
M  V30 4829 C 452.236 -0.205717 -1.58269 0
M  V30 4830 C 452.436 1.29153 -1.54667 0
M  V30 4831 O 451.492 2.07098 -1.44453 0
M  V30 4832 C 452.805 -0.823065 -2.89216 0
M  V30 4833 C 454.353 -0.793328 -3.02779 0
M  V30 4834 C 454.828 -1.38955 -4.36412 0
M  V30 4835 N 456.319 -1.35227 -4.43021 0
M  V30 4836 C 457.054 -1.78333 -5.44963 0
M  V30 4837 N 456.55 -2.29246 -6.53772 0
M  V30 4838 N 458.343 -1.69467 -5.35945 0
M  V30 4839 H 450.494 -1.5196 -1.48398 0
M  V30 4840 H 452.757 -0.633078 -0.705632 0
M  V30 4841 H 452.463 -1.8749 -2.97558 0
M  V30 4842 H 452.337 -0.309915 -3.75925 0
M  V30 4843 H 454.724 0.249784 -2.94041 0
M  V30 4844 H 454.805 -1.34412 -2.17639 0
M  V30 4845 H 454.449 -2.43168 -4.45906 0
M  V30 4846 H 454.379 -0.814291 -5.20266 0
M  V30 4847 H 456.87 -0.979739 -3.64979 0
M  V30 4848 H 457.183 -2.60089 -7.27718 0
M  V30 4849 H 455.528 -2.3325 -6.5469 0
M  V30 4850 H 458.719 -1.29477 -4.49837 0
M  V30 4851 H 458.892 -2.03381 -6.15256 0
M  V30 4852 N 452.299 1.55045 -0.282633 0
M  V30 4853 C 453.262 2.21515 0.588539 0
M  V30 4854 C 454.262 1.19535 1.07554 0
M  V30 4855 O 455.452 1.44391 0.974514 0
M  V30 4856 C 452.584 2.88704 1.8128 0
M  V30 4857 H 453.777 2.99899 0.00806397 0
M  V30 4858 H 451.33 1.56265 -0.0333067 0
M  V30 4859 H 452.065 2.14352 2.43359 0
M  V30 4860 H 451.85 3.63443 1.47144 0
M  V30 4861 H 453.34 3.39465 2.43214 0
M  V30 4862 N 453.777 0.010035 1.57597 0
M  V30 4863 C 454.687 -0.994226 2.12491 0
M  V30 4864 C 455.703 -1.37013 1.07254 0
M  V30 4865 O 456.879 -1.45542 1.3921 0
M  V30 4866 C 453.944 -2.2642 2.62555 0
M  V30 4867 C 453.005 -1.95049 3.82432 0
M  V30 4868 C 452.238 -3.15991 4.30099 0
M  V30 4869 O 452.461 -4.28015 3.7704 0
M  V30 4870 O 451.395 -2.99403 5.22151 0
M  V30 4871 H 455.221 -0.557549 2.98538 0
M  V30 4872 H 452.806 -0.209413 1.47925 0
M  V30 4873 H 454.688 -3.01009 2.9491 0
M  V30 4874 H 453.363 -2.69306 1.796 0
M  V30 4875 H 452.27 -1.17904 3.55034 0
M  V30 4876 H 453.603 -1.56992 4.66491 0
M  V30 4877 N 455.255 -1.55392 -0.262866 0
M  V30 4878 C 456.187 -1.85392 -1.34768 0
M  V30 4879 C 457.2 -0.739069 -1.45057 0
M  V30 4880 O 458.389 -1.01703 -1.46693 0
M  V30 4881 C 455.489 -2.01088 -2.72795 0
M  V30 4882 C 454.662 -3.31828 -2.84972 0
M  V30 4883 C 453.721 -3.37464 -4.03738 0
M  V30 4884 O 452.747 -4.10778 -3.94018 0
M  V30 4885 N 453.949 -2.65599 -5.16176 0
M  V30 4886 H 456.714 -2.79029 -1.09375 0
M  V30 4887 H 454.275 -1.55434 -0.452981 0
M  V30 4888 H 456.267 -2.02217 -3.50557 0
M  V30 4889 H 454.837 -1.1427 -2.90966 0
M  V30 4890 H 454.057 -3.43152 -1.94012 0
M  V30 4891 H 455.345 -4.18032 -2.90045 0
M  V30 4892 H 454.743 -2.05736 -5.26962 0
M  V30 4893 H 453.3 -2.72439 -5.92132 0
M  V30 4894 N 456.733 0.527833 -1.48498 0
M  V30 4895 C 457.696 1.61439 -1.62696 0
M  V30 4896 C 458.696 1.52824 -0.500136 0
M  V30 4897 O 459.886 1.56456 -0.765976 0
M  V30 4898 C 457.018 3.01063 -1.59918 0
M  V30 4899 H 458.211 1.50189 -2.59583 0
M  V30 4900 H 455.764 0.750055 -1.37127 0
M  V30 4901 H 456.499 3.17818 -0.645163 0
M  V30 4902 H 456.284 3.08725 -2.41726 0
M  V30 4903 H 457.774 3.80057 -1.73051 0
M  V30 4904 N 458.211 1.37122 0.776871 0
M  V30 4905 C 459.436 1.354 1.57104 0
M  V30 4906 C 459.861 -0.0595562 1.88006 0
M  V30 4907 O 459.219 -1.03514 1.48844 0
M  V30 4908 C 459.267 2.19472 2.8612 0
M  V30 4909 O 458.371 1.59582 3.80273 0
M  V30 4910 H 457.712 0.462869 0.476076 0
M  V30 4911 H 460.242 1.80577 0.961932 0
M  V30 4912 H 460.252 2.32502 3.35271 0
M  V30 4913 H 458.927 3.22222 2.62956 0
M  V30 4914 H 457.504 1.55564 3.38902 0
M  V30 4915 N 459.689 -1.00246 1.21608 0
M  V30 4916 C 460.621 -2.09244 0.935401 0
M  V30 4917 C 461.634 -1.62592 -0.0823594 0
M  V30 4918 O 462.823 -1.77865 0.150456 0
M  V30 4919 C 459.923 -3.36724 0.383453 0
M  V30 4920 C 459.096 -4.1245 1.45615 0
M  V30 4921 C 458.155 -5.18219 0.912991 0
M  V30 4922 O 457.181 -5.46337 1.59701 0
M  V30 4923 N 458.383 -5.7987 -0.270478 0
M  V30 4924 H 461.148 -2.33905 1.87373 0
M  V30 4925 H 458.709 -1.16748 1.12167 0
M  V30 4926 H 460.701 -4.047 0.00562157 0
M  V30 4927 H 459.271 -3.09201 -0.459758 0
M  V30 4928 H 458.491 -3.39241 2.00772 0
M  V30 4929 H 459.779 -4.59819 2.17817 0
M  V30 4930 H 459.177 -5.59381 -0.843195 0
M  V30 4931 H 457.734 -6.49126 -0.589794 0
M  V30 4932 N 461.167 -1.02423 -1.1978 0
M  V30 4933 C 462.077 -0.610919 -2.26506 0
M  V30 4934 C 463.093 0.355152 -1.70337 0
M  V30 4935 O 464.269 0.214195 -2.00258 0
M  V30 4936 C 461.334 0.0365921 -3.46681 0
M  V30 4937 C 460.395 -0.976389 -4.18049 0
M  V30 4938 C 459.628 -0.359683 -5.32487 0
M  V30 4939 O 459.851 0.838601 -5.64202 0
M  V30 4940 O 458.785 -1.08022 -5.92127 0
M  V30 4941 H 462.611 -1.49965 -2.64091 0
M  V30 4942 H 460.196 -0.794156 -1.26545 0
M  V30 4943 H 462.078 0.39786 -4.19518 0
M  V30 4944 H 460.753 0.899398 -3.10954 0
M  V30 4945 H 459.66 -1.38916 -3.47352 0
M  V30 4946 H 460.993 -1.80941 -4.57735 0
M  V30 4947 N 462.645 1.35699 -0.801477 0
M  V30 4948 C 463.891 1.99208 -0.380022 0
M  V30 4949 C 464.224 1.63445 1.04878 0
M  V30 4950 O 463.499 0.895223 1.72673 0
M  V30 4951 C 463.782 3.55755 -0.557708 0
M  V30 4952 C 463.635 4.01332 -2.03107 0
M  V30 4953 C 464.954 4.40096 0.0197968 0
M  V30 4954 H 462.073 0.723667 -0.139552 0
M  V30 4955 H 464.715 1.60928 -1.01006 0
M  V30 4956 H 462.865 3.88494 -0.0213741 0
M  V30 4957 H 464.537 3.79026 -2.62939 0
M  V30 4958 H 462.78 3.52429 -2.52936 0
M  V30 4959 H 463.451 5.10234 -2.1063 0
M  V30 4960 H 465.927 4.13786 -0.438179 0
M  V30 4961 H 464.803 5.48735 -0.134477 0
M  V30 4962 H 465.064 4.2786 1.11303 0
M  V30 4963 N 464.123 0.554532 1.47522 0
M  V30 4964 C 465.07 -0.19466 2.29978 0
M  V30 4965 C 466.04 -0.910882 1.38896 0
M  V30 4966 O 467.225 -0.907102 1.67858 0
M  V30 4967 C 464.365 -1.22035 3.22802 0
M  V30 4968 C 463.478 -0.510474 4.28973 0
M  V30 4969 C 462.613 -1.52123 5.08952 0
M  V30 4970 C 461.652 -0.796173 6.069 0
M  V30 4971 N 460.789 -1.75363 6.79847 0
M  V30 4972 H 465.629 0.51461 2.93523 0
M  V30 4973 H 463.166 0.265607 1.44682 0
M  V30 4974 H 465.124 -1.8276 3.7504 0
M  V30 4975 H 463.754 -1.89769 2.61127 0
M  V30 4976 H 462.806 0.211234 3.79813 0
M  V30 4977 H 464.118 0.0576503 4.98767 0
M  V30 4978 H 463.272 -2.20207 5.65326 0
M  V30 4979 H 462.011 -2.12327 4.39054 0
M  V30 4980 H 461.016 -0.101388 5.49707 0
M  V30 4981 H 462.241 -0.199911 6.78806 0
M  V30 4982 H 460.187 -2.3443 6.12682 0
M  V30 4983 H 460.104 -1.23759 7.45801 0
M  V30 4984 H 461.372 -2.4257 7.40797 0
M  V30 4985 N 465.601 -1.54893 0.290851 0
M  V30 4986 C 466.849 -1.99538 -0.320756 0
M  V30 4987 C 467.17 -1.18075 -1.55188 0
M  V30 4988 O 466.44 -0.274162 -1.93972 0
M  V30 4989 H 465.02 -0.737052 -0.121507 0
M  V30 4990 H 467.682 -1.90755 0.399832 0
M  V30 4991 H 466.778 -3.06282 -0.599802 0
M  V30 4992 N 467.08 -0.0183926 -1.57589 0
M  V30 4993 C 468.326 0.657813 -1.92469 0
M  V30 4994 C 468.681 1.70349 -0.894375 0
M  V30 4995 O 467.974 1.91384 0.0910389 0
M  V30 4996 C 468.168 1.32676 -3.31861 0
M  V30 4997 C 467.997 0.347403 -4.48356 0
M  V30 4998 C 466.767 -0.0488653 -5.05276 0
M  V30 4999 C 468.965 -0.393931 -5.12789 0
M  V30 5000 N 466.947 -1.02451 -6.05291 0
M  V30 5001 C 468.318 -1.22367 -6.07804 0
M  V30 5002 C 470.373 -0.455789 -4.95809 0
M  V30 5003 C 469.076 -2.10966 -6.87667 0
M  V30 5004 C 471.102 -1.32908 -5.76272 0
M  V30 5005 C 470.464 -2.14662 -6.70894 0
M  V30 5006 H 466.563 0.21335 -0.752334 0
M  V30 5007 H 469.147 -0.0830547 -1.94523 0
M  V30 5008 H 467.318 2.03782 -3.30647 0
M  V30 5009 H 469.05 1.95913 -3.54119 0
M  V30 5010 H 465.805 0.323356 -4.72495 0
M  V30 5011 H 466.229 -1.50826 -6.59985 0
M  V30 5012 H 470.871 0.162017 -4.22489 0
M  V30 5013 H 468.589 -2.73807 -7.603 0
M  V30 5014 H 472.175 -1.38109 -5.6517 0
M  V30 5015 H 471.055 -2.81143 -7.32071 0
M  V30 5016 N 468.558 1.5553 0.254621 0
M  V30 5017 C 469.491 1.84624 1.34124 0
M  V30 5018 C 470.469 0.700693 1.46728 0
M  V30 5019 O 471.653 0.94564 1.63064 0
M  V30 5020 C 468.78 2.02412 2.71564 0
M  V30 5021 C 467.826 3.25028 2.7615 0
M  V30 5022 S 468.659 4.81893 2.33538 0
M  V30 5023 C 469.815 5.02677 3.72917 0
M  V30 5024 H 470.048 2.76501 1.09245 0
M  V30 5025 H 467.581 1.47537 0.455211 0
M  V30 5026 H 469.539 2.13345 3.50705 0
M  V30 5027 H 468.2 1.11391 2.93685 0
M  V30 5028 H 467.393 3.34418 3.77069 0
M  V30 5029 H 466.995 3.12781 2.05046 0
M  V30 5030 H 469.287 4.89546 4.68349 0
M  V30 5031 H 470.23 6.0468 3.68467 0
M  V30 5032 H 470.638 4.30561 3.65072 0
M  V30 5033 N 470.036 -0.519951 1.48776 0
M  V30 5034 C 471.264 -1.29971 1.60982 0
M  V30 5035 C 471.679 -1.86803 0.273885 0
M  V30 5036 O 471.036 -1.66904 -0.738193 0
M  V30 5037 C 471.087 -2.44346 2.66415 0
M  V30 5038 O 470.808 -1.89855 3.94825 0
M  V30 5039 C 472.309 -3.36014 2.89153 0
M  V30 5040 H 469.529 -0.394891 0.542496 0
M  V30 5041 H 472.073 -0.626214 1.94676 0
M  V30 5042 H 470.228 -3.07562 2.35552 0
M  V30 5043 H 470.642 -2.64798 4.5275 0
M  V30 5044 H 472.116 -4.12593 3.66703 0
M  V30 5045 H 472.593 -3.91859 1.98351 0
M  V30 5046 H 473.199 -2.78582 3.21359 0
M  V30 5047 N 471.514 -1.37532 -0.769588 0
M  V30 5048 C 472.424 -1.35668 -1.91393 0
M  V30 5049 C 473.44 -0.255954 -1.72107 0
M  V30 5050 O 474.616 -0.491704 -1.95305 0
M  V30 5051 C 471.681 -1.16481 -3.26547 0
M  V30 5052 C 470.742 -2.36212 -3.58472 0
M  V30 5053 C 469.975 -2.17932 -4.87177 0
M  V30 5054 O 470.198 -1.1647 -5.58382 0
M  V30 5055 O 469.132 -3.06167 -5.18214 0
M  V30 5056 H 472.958 -2.32055 -1.95918 0
M  V30 5057 H 470.543 -1.18284 -0.912641 0
M  V30 5058 H 472.425 -1.07778 -4.07384 0
M  V30 5059 H 471.1 -0.231687 -3.2287 0
M  V30 5060 H 470.007 -2.50488 -2.77861 0
M  V30 5061 H 471.34 -3.281 -3.66894 0
M  V30 5062 N 472.992 0.995999 -1.22138 0
M  V30 5063 C 474.22 1.77066 -1.07029 0
M  V30 5064 C 474.635 1.8495 0.379357 0
M  V30 5065 O 473.992 1.3174 1.26297 0
M  V30 5066 C 474.043 3.20533 -1.67155 0
M  V30 5067 O 473.764 3.13082 -3.06449 0
M  V30 5068 C 475.265 4.14461 -1.5728 0
M  V30 5069 H 472.485 0.556179 -0.375374 0
M  V30 5070 H 475.029 1.25238 -1.61666 0
M  V30 5071 H 473.184 3.6944 -1.16589 0
M  V30 5072 H 473.598 4.03283 -3.35355 0
M  V30 5073 H 475.072 5.1289 -2.04078 0
M  V30 5074 H 475.549 4.36005 -0.528795 0
M  V30 5075 H 476.155 3.71449 -2.07136 0
M  V30 5076 N 474.47 1.03057 1.19235 0
M  V30 5077 C 475.4 0.633497 2.24742 0
M  V30 5078 C 476.381 -0.358335 1.66283 0
M  V30 5079 O 477.566 -0.240676 1.92703 0
M  V30 5080 C 474.696 -0.0147648 3.47297 0
M  V30 5081 C 473.65 0.899527 4.18441 0
M  V30 5082 C 472.976 0.116281 5.34574 0
M  V30 5083 C 474.276 2.21404 4.73051 0
M  V30 5084 H 475.97 1.5155 2.58211 0
M  V30 5085 H 473.516 0.73014 1.24117 0
M  V30 5086 H 475.469 -0.304202 4.20301 0
M  V30 5087 H 474.193 -0.931577 3.13032 0
M  V30 5088 H 472.852 1.17319 3.47321 0
M  V30 5089 H 472.5 -0.802619 4.96555 0
M  V30 5090 H 472.2 0.725293 5.83107 0
M  V30 5091 H 473.724 -0.166376 6.10373 0
M  V30 5092 H 475.138 1.98601 5.37802 0
M  V30 5093 H 473.535 2.77512 5.32078 0
M  V30 5094 H 474.605 2.86752 3.91026 0
M  V30 5095 N 475.948 -1.35272 0.808662 0
M  V30 5096 C 476.878 -2.32315 0.234981 0
M  V30 5097 C 477.859 -1.57572 -0.64071 0
M  V30 5098 O 479.044 -1.8563 -0.570551 0
M  V30 5099 C 476.174 -3.41801 -0.615601 0
M  V30 5100 C 475.128 -4.27694 0.161767 0
M  V30 5101 C 474.454 -5.28519 -0.810649 0
M  V30 5102 C 475.754 -5.04231 1.36193 0
M  V30 5103 H 477.448 -2.80543 1.04575 0
M  V30 5104 H 474.994 -1.3488 0.504315 0
M  V30 5105 H 476.947 -4.08693 -1.02702 0
M  V30 5106 H 475.671 -2.92186 -1.45928 0
M  V30 5107 H 474.33 -3.62384 0.554382 0
M  V30 5108 H 473.978 -4.75171 -1.64988 0
M  V30 5109 H 473.678 -5.8686 -0.294822 0
M  V30 5110 H 475.202 -5.98283 -1.22023 0
M  V30 5111 H 476.616 -5.64058 1.02528 0
M  V30 5112 H 475.013 -5.72077 1.81239 0
M  V30 5113 H 476.083 -4.34753 2.14751 0
M  V30 5114 N 477.426 -0.562348 -1.47226 0
M  V30 5115 C 478.672 -0.0402761 -2.0276 0
M  V30 5116 C 479.005 1.30823 -1.43523 0
M  V30 5117 O 478.28 1.85249 -0.592705 0
M  V30 5118 C 478.563 0.047311 -3.60069 0
M  V30 5119 C 478.416 -1.32865 -4.29729 0
M  V30 5120 C 479.735 0.758182 -4.3352 0
M  V30 5121 H 476.854 -0.0161105 -0.736824 0
M  V30 5122 H 479.496 -0.725628 -1.75598 0
M  V30 5123 H 477.646 0.630986 -3.83342 0
M  V30 5124 H 479.318 -1.95593 -4.17781 0
M  V30 5125 H 477.561 -1.90195 -3.89882 0
M  V30 5126 H 478.232 -1.22004 -5.38349 0
M  V30 5127 H 480.708 0.262546 -4.15271 0
M  V30 5128 H 479.584 0.78844 -5.43208 0
M  V30 5129 H 479.845 1.81537 -4.03109 0
M  V30 5130 N 478.904 1.54736 -0.299062 0
M  V30 5131 C 479.836 2.20891 0.61153 0
M  V30 5132 C 480.849 1.20104 1.09904 0
M  V30 5133 O 482.038 1.46707 1.01683 0
M  V30 5134 C 479.138 2.84018 1.84897 0
M  V30 5135 C 478.311 4.10719 1.50428 0
M  V30 5136 C 477.37 4.57667 2.59667 0
M  V30 5137 O 476.396 5.2291 2.24842 0
M  V30 5138 N 477.598 4.29821 3.90172 0
M  V30 5139 H 480.363 2.99666 0.0452001 0
M  V30 5140 H 477.924 1.61446 -0.121178 0
M  V30 5141 H 479.916 3.1236 2.5732 0
M  V30 5142 H 478.486 2.09095 2.32375 0
M  V30 5143 H 477.706 3.89408 0.612781 0
M  V30 5144 H 478.994 4.93223 1.24934 0
M  V30 5145 H 478.392 3.77549 4.21276 0
M  V30 5146 H 476.949 4.62877 4.58899 0
M  V30 5147 N 480.382 0.0267497 1.57577 0
M  V30 5148 C 481.33 -0.973923 2.11229 0
M  V30 5149 C 482.324 -1.33849 1.03831 0
M  V30 5150 O 483.53 -1.321 1.22269 0
M  V30 5151 H 479.905 -0.331844 0.674821 0
M  V30 5152 H 481.876 -0.496092 2.94247 0
M  V30 5153 C 480.625 -2.24798 2.65257 0
M  V30 5154 H 479.948 -1.9762 3.47543 0
M  V30 5155 H 481.388 -2.93031 3.06445 0
M  V30 5156 C 479.847 -2.97611 1.57891 0
M  V30 5157 O 480.377 -3.89629 0.97735 0
M  V30 5158 N 478.583 -2.59905 1.29992 0
M  V30 5159 H 478.13 -1.85154 1.79097 0
M  V30 5160 H 478.088 -3.08932 0.583798 0
M  V30 5161 N 481.861 -1.55662 -0.24637 0
M  V30 5162 C 482.824 -1.89558 -1.28842 0
M  V30 5163 C 483.824 -0.772082 -1.41052 0
M  V30 5164 O 485.014 -1.04007 -1.39743 0
M  V30 5165 C 482.146 -2.12449 -2.66605 0
M  V30 5166 H 483.339 -2.82735 -1.00004 0
M  V30 5167 H 480.892 -1.48562 -0.485684 0
M  V30 5168 H 481.627 -1.21742 -3.00582 0
M  V30 5169 H 481.412 -2.94273 -2.59125 0
M  V30 5170 H 482.902 -2.39854 -3.41847 0
M  V30 5171 N 483.339 0.512053 -1.4905 0
M  V30 5172 C 484.287 1.63568 -1.65373 0
M  V30 5173 C 485.281 1.61228 -0.519806 0
M  V30 5174 O 486.487 1.65869 -0.699101 0
M  V30 5175 H 482.862 0.542019 -0.521267 0
M  V30 5176 H 484.833 1.4695 -2.59708 0
M  V30 5177 C 483.582 3.01761 -1.7273 0
M  V30 5178 H 482.905 3.04263 -2.59353 0
M  V30 5179 H 484.345 3.79948 -1.8819 0
M  V30 5180 C 482.804 3.33609 -0.46973 0
M  V30 5181 O 483.334 3.99607 0.409492 0
M  V30 5182 N 481.54 2.88651 -0.336003 0
M  V30 5183 H 481.087 2.35119 -1.05247 0
M  V30 5184 H 481.045 3.10328 0.504363 0
M  V30 5185 N 484.817 1.37938 0.762283 0
M  V30 5186 C 486.228 1.30094 1.33912 0
M  V30 5187 C 486.579 -0.0472026 1.96143 0
M  V30 5188 O 485.704 -0.94917 1.94473 0
M  V30 5189 C 486.299 2.35592 2.43478 0
M  V30 5190 C 484.858 2.31353 2.96905 0
M  V30 5191 C 484.005 2.18919 1.70205 0
M  V30 5192 H 486.956 1.48423 0.561816 0
M  V30 5193 H 486.977 2.00806 3.23199 0
M  V30 5194 H 486.489 3.33701 1.98155 0
M  V30 5195 H 484.59 1.36799 3.46579 0
M  V30 5196 H 484.703 3.25147 3.51875 0
M  V30 5197 H 483.067 1.65624 1.93496 0
M  V30 5198 H 483.85 3.18956 1.26973 0
M  V30 5199 N 486.295 -0.989507 1.22664 0
M  V30 5200 C 487.572 -1.70326 0.961688 0
M  V30 5201 C 487.952 -2.04537 -0.522279 0
M  V30 5202 O 487.3 -1.73136 -1.49118 0
M  V30 5203 C 487.51 -2.95135 1.86269 0
M  V30 5204 C 488.858 -3.67842 2.12078 0
M  V30 5205 O 489.882 -3.0515 1.83745 0
M  V30 5206 O 488.741 -4.80644 2.60083 0
M  V30 5207 H 485.835 -0.743589 0.361946 0
M  V30 5208 H 488.381 -1.04555 1.33665 0
M  V30 5209 H 487.153 -2.66382 2.8663 0
M  V30 5210 H 486.776 -3.68645 1.48952 0
M  V30 5211 N 487.773 -1.03688 -1.18687 0
M  V30 5212 C 489.013 -0.746858 -1.90267 0
M  V30 5213 C 489.377 0.712075 -1.78307 0
M  V30 5214 O 490.578 1.11553 -2.44559 0
M  V30 5215 C 488.849 -1.19543 -3.36815 0
M  V30 5216 S 490.408 -1.03047 -4.26529 0
M  V30 5217 H 487.226 -0.271663 -0.657054 0
M  V30 5218 H 489.828 -1.32838 -1.43437 0
M  V30 5219 H 488.532 -2.2527 -3.43047 0
M  V30 5220 H 488.063 -0.607533 -3.88681 0
M  V30 5221 H 490.078 0.0543232 -4.9617 0
M  V30 5222 N 489.251 1.34841 -0.815825 0
M  V30 5223 C 490.198 2.29644 -0.230664 0
M  V30 5224 C 491.168 1.53253 0.640533 0
M  V30 5225 O 492.353 1.81653 0.583672 0
M  V30 5226 C 489.493 3.39715 0.607275 0
M  V30 5227 C 488.606 4.31056 -0.28538 0
M  V30 5228 C 487.741 5.28225 0.561446 0
M  V30 5229 C 486.78 6.11204 -0.331035 0
M  V30 5230 N 485.917 7.00483 0.476302 0
M  V30 5231 H 490.757 2.79095 -1.0445 0
M  V30 5232 H 488.294 1.37351 -0.526595 0
M  V30 5233 H 490.252 4.02208 1.10835 0
M  V30 5234 H 488.882 2.91517 1.38629 0
M  V30 5235 H 487.934 3.69487 -0.904621 0
M  V30 5236 H 489.246 4.89239 -0.97193 0
M  V30 5237 H 488.4 5.96135 1.12728 0
M  V30 5238 H 487.139 4.70562 1.28153 0
M  V30 5239 H 486.144 5.42232 -0.909069 0
M  V30 5240 H 487.369 6.70947 -1.04912 0
M  V30 5241 H 485.315 6.45296 1.18019 0
M  V30 5242 H 485.232 7.55847 -0.152008 0
M  V30 5243 H 486.5 7.7273 1.02512 0
M  V30 5244 N 490.729 0.570148 1.46925 0
M  V30 5245 C 491.957 0.0561966 2.06824 0
M  V30 5246 C 492.372 -1.24326 1.42086 0
M  V30 5247 O 491.729 -1.74882 0.521794 0
M  V30 5248 C 491.78 -0.129517 3.61268 0
M  V30 5249 O 491.501 1.1185 4.23581 0
M  V30 5250 C 493.002 -0.679266 4.38065 0
M  V30 5251 H 490.222 0.0517261 0.669003 0
M  V30 5252 H 492.766 0.787243 1.8874 0
M  V30 5253 H 490.921 -0.810739 3.78822 0
M  V30 5254 H 491.335 0.924375 5.1629 0
M  V30 5255 H 492.809 -0.758445 5.46765 0
M  V30 5256 H 493.286 -1.69346 4.05239 0
M  V30 5257 H 493.892 -0.0333237 4.25287 0
M  V30 5258 N 492.207 -1.54576 0.307264 0
M  V30 5259 C 493.456 -1.99442 -0.300976 0
M  V30 5260 C 493.769 -1.19928 -1.5452 0
M  V30 5261 O 494.975 -1.55092 -2.22842 0
M  V30 5262 C 493.431 -3.55084 -0.586809 0
M  V30 5263 C 493.039 -4.43413 0.639438 0
M  V30 5264 C 494.783 -4.0846 -1.1559 0
M  V30 5265 C 492.69 -5.90499 0.326411 0
M  V30 5266 H 491.62 -0.744986 -0.116238 0
M  V30 5267 H 494.271 -1.787 0.416947 0
M  V30 5268 H 492.653 -3.71749 -1.36449 0
M  V30 5269 H 493.827 -4.38522 1.41545 0
M  V30 5270 H 492.142 -4.00842 1.1276 0
M  V30 5271 H 494.739 -5.15926 -1.40445 0
M  V30 5272 H 495.082 -3.59443 -2.10015 0
M  V30 5273 H 495.615 -3.95362 -0.439778 0
M  V30 5274 H 492.354 -6.43676 1.23939 0
M  V30 5275 H 491.874 -5.98382 -0.412212 0
M  V30 5276 H 493.553 -6.46962 -0.0697393 0
M  V30 5277 N 493.685 -0.035106 -1.57561 0
M  V30 5278 C 494.615 0.942993 -2.13612 0
M  V30 5279 C 495.596 1.33531 -1.05373 0
M  V30 5280 O 496.781 1.41287 -1.33235 0
M  V30 5281 C 493.911 2.22332 -2.66807 0
M  V30 5282 C 492.865 1.97156 -3.79886 0
M  V30 5283 C 492.191 3.31506 -4.19533 0
M  V30 5284 C 493.491 1.30596 -5.05709 0
M  V30 5285 H 495.185 0.476179 -2.95589 0
M  V30 5286 H 492.731 0.227602 -1.4219 0
M  V30 5287 H 494.684 2.91142 -3.04654 0
M  V30 5288 H 493.408 2.7119 -1.81999 0
M  V30 5289 H 492.067 1.30763 -3.42486 0
M  V30 5290 H 491.715 3.78134 -3.31698 0
M  V30 5291 H 491.415 3.15465 -4.95738 0
M  V30 5292 H 492.939 4.01574 -4.59968 0
M  V30 5293 H 494.353 1.89416 -5.41105 0
M  V30 5294 H 492.75 1.24934 -5.86951 0
M  V30 5295 H 493.82 0.279742 -4.84092 0
M  V30 5296 N 495.163 1.55791 0.238111 0
M  V30 5297 C 496.11 1.9105 1.29493 0
M  V30 5298 C 497.08 0.765733 1.47397 0
M  V30 5299 O 498.265 1.02017 1.61236 0
M  V30 5300 C 495.405 2.21826 2.64362 0
M  V30 5301 C 494.518 3.49153 2.54394 0
M  V30 5302 C 493.653 3.69455 3.81676 0
M  V30 5303 C 492.692 4.90353 3.66361 0
M  V30 5304 N 491.829 5.07131 4.85554 0
M  V30 5305 H 496.669 2.81172 0.987233 0
M  V30 5306 H 494.206 1.39179 0.476203 0
M  V30 5307 H 496.164 2.37675 3.4288 0
M  V30 5308 H 494.794 1.34897 2.93262 0
M  V30 5309 H 493.846 3.41587 1.67399 0
M  V30 5310 H 495.158 4.37818 2.38991 0
M  V30 5311 H 494.312 3.85311 4.68636 0
M  V30 5312 H 493.051 2.7904 3.99985 0
M  V30 5313 H 492.056 4.74464 2.77784 0
M  V30 5314 H 493.281 5.82237 3.49538 0
M  V30 5315 H 491.227 4.19654 5.04209 0
M  V30 5316 H 491.144 5.89899 4.72816 0
M  V30 5317 H 492.412 5.27407 5.73988 0
M  V30 5318 N 496.642 -0.504142 1.49319 0
M  V30 5319 C 497.605 -1.5883 1.65244 0
M  V30 5320 C 498.605 -1.52009 0.524386 0
M  V30 5321 O 499.795 -1.55218 0.79077 0
M  V30 5322 C 496.927 -2.98481 1.64687 0
M  V30 5323 H 498.12 -1.4604 2.61939 0
M  V30 5324 H 495.673 -0.728144 1.38303 0
M  V30 5325 H 496.408 -3.16751 0.695644 0
M  V30 5326 H 496.193 -3.0484 2.46607 0
M  V30 5327 H 497.683 -3.77256 1.79075 0
M  V30 5328 N 498.12 -1.38341 -0.754957 0
M  V30 5329 C 499.05 -1.38176 -1.88227 0
M  V30 5330 C 500.031 -0.247873 -1.68284 0
M  V30 5331 O 501.216 -0.45075 -1.88896 0
M  V30 5332 C 498.346 -1.20471 -3.25736 0
M  V30 5333 C 497.3 -2.3105 -3.60278 0
M  V30 5334 C 496.626 -1.98452 -4.96509 0
M  V30 5335 C 497.926 -3.73305 -3.65295 0
M  V30 5336 H 499.62 -2.32512 -1.88622 0
M  V30 5337 H 497.166 -1.1192 -0.906082 0
M  V30 5338 H 499.119 -1.18982 -4.04254 0
M  V30 5339 H 497.843 -0.225965 -3.25817 0
M  V30 5340 H 496.502 -2.31723 -2.84078 0
M  V30 5341 H 496.15 -0.990641 -4.93148 0
M  V30 5342 H 495.85 -2.7251 -5.20588 0
M  V30 5343 H 497.374 -1.98578 -5.77407 0
M  V30 5344 H 498.788 -3.7467 -4.3393 0
M  V30 5345 H 497.185 -4.46557 -4.00883 0
M  V30 5346 H 498.255 -4.05719 -2.65556 0
M  V30 5347 N 499.598 0.982988 -1.23187 0
M  V30 5348 C 500.846 1.72052 -1.06031 0
M  V30 5349 C 501.167 1.90769 0.404019 0
M  V30 5350 O 500.437 1.47446 1.28982 0
M  V30 5351 H 499.017 0.637499 -0.389363 0
M  V30 5352 H 501.679 1.18338 -1.54862 0
M  V30 5353 H 500.775 2.7111 -1.54615 0
M  V30 5354 N 501.076 1.04316 1.18135 0
M  V30 5355 C 502.487 0.775505 1.69832 0
M  V30 5356 C 502.838 -0.703348 1.8316 0
M  V30 5357 O 501.963 -1.54729 1.51287 0
M  V30 5358 C 502.558 1.40112 3.0847 0
M  V30 5359 C 501.117 1.18172 3.57368 0
M  V30 5360 C 500.264 1.49022 2.33854 0
M  V30 5361 H 503.215 1.20925 1.02775 0
M  V30 5362 H 503.236 0.805672 3.71873 0
M  V30 5363 H 502.748 2.47744 2.98738 0
M  V30 5364 H 500.849 0.124258 3.72393 0
M  V30 5365 H 500.962 1.8805 4.40652 0
M  V30 5366 H 499.326 0.909995 2.37889 0
M  V30 5367 H 500.109 2.57768 2.26738 0
M  V30 5368 N 502.554 -1.34406 0.822964 0
M  V30 5369 C 503.486 -2.28305 0.202375 0
M  V30 5370 C 504.499 -1.5103 -0.60777 0
M  V30 5371 O 505.688 -1.73057 -0.437444 0
M  V30 5372 C 502.788 -3.30836 -0.734911 0
M  V30 5373 C 501.961 -4.37388 0.0324177 0
M  V30 5374 C 501.02 -5.1968 -0.825803 0
M  V30 5375 O 500.046 -5.68556 -0.270771 0
M  V30 5376 N 501.248 -5.39393 -2.14558 0
M  V30 5377 H 504.013 -2.82201 1.00909 0
M  V30 5378 H 501.574 -1.4693 0.67993 0
M  V30 5379 H 503.566 -3.82786 -1.31365 0
M  V30 5380 H 502.136 -2.77334 -1.44238 0
M  V30 5381 H 501.356 -3.86152 0.792469 0
M  V30 5382 H 502.644 -5.05702 0.560633 0
M  V30 5383 H 502.042 -5.01357 -2.62025 0
M  V30 5384 H 500.599 -5.94461 -2.67318 0
M  V30 5385 N 504.032 -0.577932 -1.46621 0
M  V30 5386 C 504.995 0.147805 -2.28723 0
M  V30 5387 C 505.995 0.823325 -1.38123 0
M  V30 5388 O 507.185 0.676011 -1.60548 0
M  V30 5389 C 504.317 1.21853 -3.18378 0
M  V30 5390 H 505.51 -0.573654 -2.94362 0
M  V30 5391 H 503.063 -0.335703 -1.52652 0
M  V30 5392 H 503.798 1.97173 -2.57475 0
M  V30 5393 H 503.583 0.738714 -3.85078 0
M  V30 5394 H 505.073 1.72768 -3.80186 0
M  V30 5395 N 505.51 1.54411 -0.315457 0
M  V30 5396 C 506.738 2.04833 0.291738 0
M  V30 5397 C 507.153 1.19203 1.46411 0
M  V30 5398 O 506.51 0.220867 1.81159 0
M  V30 5399 C 506.561 3.53969 0.73404 0
M  V30 5400 O 506.282 4.36346 -0.391682 0
M  V30 5401 C 507.783 4.2045 1.40489 0
M  V30 5402 H 505.003 0.668195 0.0612947 0
M  V30 5403 H 507.547 1.99276 -0.45929 0
M  V30 5404 H 505.702 3.5984 1.43506 0
M  V30 5405 H 506.116 5.24481 -0.0447088 0
M  V30 5406 H 507.59 5.26278 1.66539 0
M  V30 5407 H 508.067 3.71067 2.3496 0
M  V30 5408 H 508.673 4.18694 0.746662 0
M  V30 5409 N 506.988 0.0434614 1.5754 0
M  V30 5410 C 507.918 -0.931651 2.14109 0
M  V30 5411 C 508.899 -1.32971 1.06079 0
M  V30 5412 O 510.084 -1.40579 1.33982 0
M  V30 5413 C 507.214 -2.20914 2.67982 0
M  V30 5414 C 506.168 -1.95139 3.80926 0
M  V30 5415 C 505.494 -3.29276 4.21285 0
M  V30 5416 C 506.794 -1.27913 5.06395 0
M  V30 5417 H 508.488 -0.460497 2.95837 0
M  V30 5418 H 506.034 -0.220058 1.42309 0
M  V30 5419 H 507.987 -2.89522 3.06194 0
M  V30 5420 H 506.711 -2.70221 1.83434 0
M  V30 5421 H 505.37 -1.28945 3.43175 0
M  V30 5422 H 505.018 -3.76369 3.33699 0
M  V30 5423 H 504.718 -3.12831 4.97404 0
M  V30 5424 H 506.242 -3.99129 4.62091 0
M  V30 5425 H 507.656 -1.86544 5.42102 0
M  V30 5426 H 506.053 -1.2182 5.87605 0
M  V30 5427 H 507.123 -0.254066 4.84234 0
M  V30 5428 N 508.466 -1.55915 -0.229846 0
M  V30 5429 C 509.376 -1.94891 -1.30593 0
M  V30 5430 C 510.392 -0.851604 -1.51736 0
M  V30 5431 O 511.568 -1.15447 -1.65027 0
M  V30 5432 C 508.633 -2.25052 -2.63728 0
M  V30 5433 C 507.694 -3.48306 -2.5096 0
M  V30 5434 C 506.927 -3.77019 -3.77747 0
M  V30 5435 O 507.15 -3.07534 -4.80395 0
M  V30 5436 O 506.084 -4.70523 -3.75356 0
M  V30 5437 H 509.91 -2.86581 -1.00525 0
M  V30 5438 H 507.495 -1.43017 -0.432025 0
M  V30 5439 H 509.377 -2.45682 -3.42372 0
M  V30 5440 H 508.052 -1.36538 -2.93495 0
M  V30 5441 H 506.959 -3.32964 -1.70546 0
M  V30 5442 H 508.292 -4.37177 -2.26136 0
M  V30 5443 N 509.944 0.496216 -1.49584 0
M  V30 5444 C 510.854 1.62352 -1.69349 0
M  V30 5445 C 511.87 1.64184 -0.576147 0
M  V30 5446 O 513.046 1.82517 -0.85144 0
M  V30 5447 C 510.111 2.98698 -1.76013 0
M  V30 5448 C 509.172 3.07454 -2.99617 0
M  V30 5449 C 508.405 4.37296 -3.05953 0
M  V30 5450 O 508.628 5.2637 -2.19752 0
M  V30 5451 O 507.562 4.51124 -3.9846 0
M  V30 5452 H 511.388 1.48606 -2.64859 0
M  V30 5453 H 508.973 0.673022 -1.33382 0
M  V30 5454 H 510.855 3.79725 -1.82721 0
M  V30 5455 H 509.53 3.12696 -0.836828 0
M  V30 5456 H 508.437 2.25597 -2.98424 0
M  V30 5457 H 509.77 2.98385 -3.91443 0
M  V30 5458 N 511.423 1.38739 0.74761 0
M  V30 5459 C 512.356 1.3083 1.86972 0
M  V30 5460 C 513.334 0.184229 1.61553 0
M  V30 5461 O 514.518 0.36256 1.8498 0
M  V30 5462 C 511.645 1.02854 3.22705 0
M  V30 5463 C 510.691 2.17281 3.67003 0
M  V30 5464 S 511.524 3.79468 3.77842 0
M  V30 5465 C 512.68 3.53692 5.16385 0
M  V30 5466 H 512.913 2.258 1.93395 0
M  V30 5467 H 510.446 1.24646 0.911199 0
M  V30 5468 H 512.404 0.87397 4.01089 0
M  V30 5469 H 511.065 0.0959295 3.13953 0
M  V30 5470 H 510.258 1.93267 4.65472 0
M  V30 5471 H 509.86 2.28876 2.9579 0
M  V30 5472 H 512.152 3.10176 6.02327 0
M  V30 5473 H 513.095 4.51576 5.45422 0
M  V30 5474 H 513.503 2.8807 4.85464 0
M  V30 5475 N 512.901 -0.976442 1.23707 0
M  V30 5476 C 513.834 -2.06793 0.964973 0
M  V30 5477 C 514.812 -1.62304 -0.0981472 0
M  V30 5478 O 515.996 -1.88464 0.0369477 0
M  V30 5479 C 513.123 -3.35636 0.454522 0
M  V30 5480 C 512.169 -3.99069 1.50485 0
M  V30 5481 S 513.002 -4.37814 3.0835 0
M  V30 5482 C 514.158 -5.69805 2.58985 0
M  V30 5483 H 514.391 -2.29556 1.88922 0
M  V30 5484 H 511.924 -1.11317 1.06995 0
M  V30 5485 H 513.882 -4.10162 0.166626 0
M  V30 5486 H 512.543 -3.10876 -0.448871 0
M  V30 5487 H 511.736 -4.91896 1.09792 0
M  V30 5488 H 511.338 -3.30938 1.7423 0
M  V30 5489 H 513.63 -6.46919 2.01252 0
M  V30 5490 H 514.573 -6.15345 3.50366 0
M  V30 5491 H 514.981 -5.27994 1.99705 0
M  V30 5492 N 514.379 -1.04941 -1.1758 0
M  V30 5493 C 515.607 -0.778294 -1.91703 0
M  V30 5494 C 516.022 0.665697 -1.76675 0
M  V30 5495 O 515.379 1.45456 -1.10222 0
M  V30 5496 C 515.43 -1.14628 -3.42845 0
M  V30 5497 O 515.151 -2.53359 -3.57409 0
M  V30 5498 C 516.652 -0.900931 -4.34049 0
M  V30 5499 H 513.872 -0.283167 -0.608323 0
M  V30 5500 H 516.416 -1.39942 -1.49119 0
M  V30 5501 H 514.571 -0.569953 -3.83184 0
M  V30 5502 H 514.985 -2.67709 -4.51035 0
M  V30 5503 H 516.459 -1.20817 -5.38616 0
M  V30 5504 H 516.936 0.163966 -4.38894 0
M  V30 5505 H 517.542 -1.46097 -3.99419 0
M  V30 5506 N 515.857 1.33968 -0.830081 0
M  V30 5507 C 516.82 2.27694 -0.26235 0
M  V30 5508 C 517.82 1.50589 0.563876 0
M  V30 5509 O 519.01 1.70028 0.378941 0
M  V30 5510 C 516.142 3.35002 0.63138 0
M  V30 5511 H 517.335 2.79419 -1.08928 0
M  V30 5512 H 514.888 1.44221 -0.602486 0
M  V30 5513 H 515.623 2.88504 1.48109 0
M  V30 5514 H 515.408 3.92079 0.0403276 0
M  V30 5515 H 516.898 4.04897 1.02217 0
M  V30 5516 N 517.335 0.585699 1.46312 0
M  V30 5517 C 518.575 0.0751432 2.04262 0
M  V30 5518 C 518.939 -1.26201 1.44697 0
M  V30 5519 O 520.14 -1.86198 1.93865 0
M  V30 5520 C 518.411 0.013478 3.57397 0
M  V30 5521 S 519.97 -0.439068 4.36598 0
M  V30 5522 H 516.788 0.0389228 0.709934 0
M  V30 5523 H 519.39 0.778871 1.79315 0
M  V30 5524 H 518.094 0.990558 3.98266 0
M  V30 5525 H 517.625 -0.712927 3.86886 0
M  V30 5526 H 519.64 -1.6932 4.66417 0
M  V30 5527 N 518.813 -1.54241 0.323641 0
M  V30 5528 C 519.745 -2.21836 -0.576311 0
M  V30 5529 C 520.758 -1.21837 -1.07979 0
M  V30 5530 O 521.947 -1.48306 -0.99336 0
M  V30 5531 C 519.047 -2.86923 -1.80356 0
M  V30 5532 C 518.22 -4.1306 -1.43875 0
M  V30 5533 C 517.279 -4.6174 -2.52353 0
M  V30 5534 O 516.305 -5.26421 -2.16494 0
M  V30 5535 N 517.507 -4.35974 -3.83284 0
M  V30 5536 H 520.272 -2.997 0.00247987 0
M  V30 5537 H 517.833 -1.61233 0.146848 0
M  V30 5538 H 519.825 -3.16414 -2.52318 0
M  V30 5539 H 518.395 -2.12765 -2.29019 0
M  V30 5540 H 517.615 -3.90334 -0.550752 0
M  V30 5541 H 518.903 -4.95148 -1.17071 0
M  V30 5542 H 518.301 -3.84203 -4.15216 0
M  V30 5543 H 516.858 -4.70119 -4.51477 0
M  V30 5544 N 520.291 -0.0518155 -1.57515 0
M  V30 5545 C 521.539 0.620595 -1.92336 0
M  V30 5546 C 521.86 1.71345 -0.930907 0
M  V30 5547 O 521.13 1.95885 0.0241341 0
M  V30 5548 H 519.71 0.232226 -0.709986 0
M  V30 5549 H 522.372 -0.104969 -1.94617 0
M  V30 5550 H 521.468 1.05879 -2.93592 0
M  V30 5551 N 521.769 1.56035 0.221574 0
M  V30 5552 C 523.015 1.79312 0.947372 0
M  V30 5553 C 523.348 0.621453 1.83988 0
M  V30 5554 O 522.623 -0.379287 1.90766 0
M  V30 5555 C 522.906 3.1267 1.78633 0
M  V30 5556 C 522.759 4.40284 0.920312 0
M  V30 5557 C 524.078 3.4247 2.7641 0
M  V30 5558 H 521.197 0.652328 0.342982 0
M  V30 5559 H 523.839 1.88765 0.216244 0
M  V30 5560 H 521.989 3.04741 2.40967 0
M  V30 5561 H 523.661 4.60232 0.313718 0
M  V30 5562 H 521.904 4.33212 0.225734 0
M  V30 5563 H 522.575 5.30033 1.54171 0
M  V30 5564 H 525.051 3.50526 2.24211 0
M  V30 5565 H 523.927 4.3695 3.32213 0
M  V30 5566 H 524.188 2.64635 3.54148 0
M  V30 5567 N 523.247 -0.488276 1.49845 0
M  V30 5568 C 524.495 -1.23911 1.59657 0
M  V30 5569 C 524.816 -1.92816 0.291005 0
M  V30 5570 O 524.086 -1.83328 -0.690485 0
M  V30 5571 H 522.666 -0.460357 0.588286 0
M  V30 5572 H 525.328 -0.564794 1.86537 0
M  V30 5573 H 524.424 -1.99625 2.39909 0
M  V30 5574 N 524.725 -1.39134 -0.740242 0
M  V30 5575 C 525.973 -1.35803 -1.49673 0
M  V30 5576 C 526.294 0.0470897 -1.94943 0
M  V30 5577 O 525.564 0.997347 -1.68611 0
M  V30 5578 H 524.144 -0.499736 -0.555224 0
M  V30 5579 H 526.806 -1.73947 -0.879107 0
M  V30 5580 H 525.902 -2.0174 -2.38133 0
M  V30 5581 N 526.204 0.969867 -1.24223 0
M  V30 5582 C 527.615 1.52717 -1.07399 0
M  V30 5583 C 527.966 1.92956 0.355298 0
M  V30 5584 O 527.091 1.77112 1.2434 0
M  V30 5585 C 527.686 2.77521 -1.94339 0
M  V30 5586 C 526.245 3.29615 -1.81744 0
M  V30 5587 C 525.392 2.02537 -1.89405 0
M  V30 5588 H 528.343 0.788399 -1.37732 0
M  V30 5589 H 528.364 3.50773 -1.47439 0
M  V30 5590 H 527.876 2.48203 -2.98357 0
M  V30 5591 H 525.977 3.63789 -0.805505 0
M  V30 5592 H 526.09 3.98661 -2.65718 0
M  V30 5593 H 524.454 2.17151 -1.33108 0
M  V30 5594 H 525.237 1.75587 -2.94999 0
M  V30 5595 N 527.682 1.05563 1.17022 0
M  V30 5596 C 528.907 0.788437 1.91829 0
M  V30 5597 C 529.332 -0.650356 1.76499 0
M  V30 5598 O 528.69 -1.45229 1.08527 0
M  V30 5599 C 528.738 1.1786 3.40795 0
M  V30 5600 O 527.842 0.312965 4.11211 0
M  V30 5601 H 527.183 0.288794 0.597908 0
M  V30 5602 H 529.713 1.40948 1.48307 0
M  V30 5603 H 529.723 1.14697 3.91546 0
M  V30 5604 H 528.398 2.22666 3.51273 0
M  V30 5605 H 526.975 0.405515 3.70689 0
M  V30 5606 N 529.16 -1.33526 0.837174 0
M  V30 5607 C 530.11 -2.2672 0.241269 0
M  V30 5608 C 531.094 -1.49183 -0.602756 0
M  V30 5609 O 532.286 -1.71052 -0.455002 0
M  V30 5610 C 529.415 -3.38294 -0.584125 0
M  V30 5611 C 528.501 -4.23231 0.271315 0
M  V30 5612 N 528.892 -4.87473 1.34922 0
M  V30 5613 C 527.19 -4.45962 0.0580589 0
M  V30 5614 C 527.891 -5.50685 1.87405 0
M  V30 5615 N 526.867 -5.30732 1.17578 0
M  V30 5616 H 530.669 -2.73903 1.06558 0
M  V30 5617 H 528.183 -1.47411 0.68145 0
M  V30 5618 H 530.18 -4.04044 -1.02731 0
M  V30 5619 H 528.84 -2.9266 -1.40643 0
M  V30 5620 H 529.851 -4.88077 1.7321 0
M  V30 5621 H 526.528 -4.11052 -0.730938 0
M  V30 5622 H 527.918 -6.11845 2.77661 0
M  V30 5623 N 530.638 -0.59345 -1.46 0
M  V30 5624 C 531.585 0.133618 -2.30413 0
M  V30 5625 C 532.555 0.873736 -1.41262 0
M  V30 5626 O 533.74 0.862279 -1.70204 0
M  V30 5627 C 530.88 1.13434 -3.25924 0
M  V30 5628 C 529.993 0.39656 -4.30176 0
M  V30 5629 C 529.128 1.38575 -5.12806 0
M  V30 5630 C 528.167 0.634984 -6.08797 0
M  V30 5631 N 527.304 1.57276 -6.84258 0
M  V30 5632 H 532.144 -0.592252 -2.92055 0
M  V30 5633 H 529.681 -0.303874 -1.43927 0
M  V30 5634 H 531.639 1.72752 -3.79753 0
M  V30 5635 H 530.269 1.82779 -2.66067 0
M  V30 5636 H 529.321 -0.311861 -3.79119 0
M  V30 5637 H 530.633 -0.189869 -4.98438 0
M  V30 5638 H 529.787 2.05141 -5.70966 0
M  V30 5639 H 528.526 2.00611 -4.44529 0
M  V30 5640 H 527.531 -0.0443925 -5.49782 0
M  V30 5641 H 528.756 0.0198678 -6.79097 0
M  V30 5642 H 526.702 2.18103 -6.18682 0
M  V30 5643 H 526.619 1.03941 -7.48821 0
M  V30 5644 H 527.887 2.22844 -7.46968 0
M  V30 5645 N 532.116 1.54067 -0.331816 0
M  V30 5646 C 533.079 2.23275 0.517768 0
M  V30 5647 C 534.079 1.22897 1.03697 0
M  V30 5648 O 535.269 1.47419 0.928084 0
M  V30 5649 C 532.401 2.94326 1.72004 0
M  V30 5650 H 533.594 2.99773 -0.0873507 0
M  V30 5651 H 531.147 1.56079 -0.0830042 0
M  V30 5652 H 531.882 2.21986 2.36417 0
M  V30 5653 H 531.667 3.67941 1.35507 0
M  V30 5654 H 533.157 3.47031 2.32291 0
M  V30 5655 N 533.594 0.0601682 1.57485 0
M  V30 5656 C 535.01 -0.296422 1.56823 0
M  V30 5657 C 535.21 -1.70831 1.0686 0
M  V30 5658 O 534.266 -2.4174 0.729245 0
M  V30 5659 C 535.579 -0.116681 3.00474 0
M  V30 5660 C 537.127 -0.187103 3.1244 0
M  V30 5661 C 537.602 -0.035783 4.57986 0
M  V30 5662 N 539.093 -0.0917676 4.63109 0
M  V30 5663 C 539.828 0.00107251 5.734 0
M  V30 5664 N 539.324 0.146773 6.92645 0
M  V30 5665 N 541.117 -0.0551577 5.62073 0
M  V30 5666 H 533.268 0.983055 1.88281 0
M  V30 5667 H 535.531 0.382386 0.867459 0
M  V30 5668 H 535.237 0.85712 3.41096 0
M  V30 5669 H 535.111 -0.873929 3.66936 0
M  V30 5670 H 537.498 -1.15138 2.71712 0
M  V30 5671 H 537.579 0.601052 2.48638 0
M  V30 5672 H 537.223 0.925212 4.99402 0
M  V30 5673 H 537.153 -0.843196 5.19806 0
M  V30 5674 H 539.644 -0.203261 3.77353 0
M  V30 5675 H 539.957 0.210076 7.72514 0
M  V30 5676 H 538.302 0.181979 6.94762 0
M  V30 5677 H 541.493 -0.167605 4.678 0
M  V30 5678 H 541.666 0.020652 6.47997 0
M  V30 5679 N 535.072 -1.5615 -0.213296 0
M  V30 5680 C 536.318 -1.79812 -0.937849 0
M  V30 5681 C 536.651 -0.631201 -1.83656 0
M  V30 5682 O 535.926 0.369165 -1.90964 0
M  V30 5683 C 536.209 -3.13613 -1.76972 0
M  V30 5684 C 536.062 -4.40766 -0.89695 0
M  V30 5685 C 537.381 -3.43931 -2.7459 0
M  V30 5686 H 534.5 -0.654138 -0.339518 0
M  V30 5687 H 537.142 -1.88877 -0.20623 0
M  V30 5688 H 535.292 -3.06015 -2.39347 0
M  V30 5689 H 536.964 -4.60392 -0.289306 0
M  V30 5690 H 535.207 -4.33326 -0.202756 0
M  V30 5691 H 535.878 -5.30843 -1.51358 0
M  V30 5692 H 538.354 -3.5171 -2.22349 0
M  V30 5693 H 537.23 -4.38706 -3.29891 0
M  V30 5694 H 537.491 -2.6651 -3.52739 0
M  V30 5695 N 536.55 0.480323 -1.50102 0
M  V30 5696 C 537.48 1.58769 -1.71215 0
M  V30 5697 C 538.461 1.60583 -0.560997 0
M  V30 5698 O 539.646 1.76996 -0.799127 0
M  V30 5699 C 536.776 2.97148 -1.79778 0
M  V30 5700 C 535.73 3.10201 -2.94888 0
M  V30 5701 C 535.056 4.50137 -2.88584 0
M  V30 5702 C 536.356 2.88283 -4.35534 0
M  V30 5703 H 538.05 1.41354 -2.6393 0
M  V30 5704 H 535.596 0.678591 -1.27008 0
M  V30 5705 H 537.549 3.74536 -1.93133 0
M  V30 5706 H 536.273 3.15699 -0.836772 0
M  V30 5707 H 534.932 2.35244 -2.81169 0
M  V30 5708 H 534.58 4.65593 -1.90349 0
M  V30 5709 H 534.28 4.59808 -3.65856 0
M  V30 5710 H 535.804 5.29558 -3.03976 0
M  V30 5711 H 537.218 3.55427 -4.49827 0
M  V30 5712 H 535.615 3.09408 -5.14186 0
M  V30 5713 H 536.685 1.84219 -4.48544 0
M  V30 5714 N 538.028 1.39524 0.732853 0
M  V30 5715 C 538.991 1.38189 1.82857 0
M  V30 5716 C 539.991 0.278624 1.58368 0
M  V30 5717 O 541.181 0.536639 1.65728 0
M  V30 5718 C 538.313 1.15661 3.2068 0
M  V30 5719 H 539.506 2.35692 1.85444 0
M  V30 5720 H 537.059 1.2512 0.936728 0
M  V30 5721 H 537.794 0.188482 3.23752 0
M  V30 5722 H 537.579 1.95559 3.39852 0
M  V30 5723 H 539.069 1.17472 4.00737 0
M  V30 5724 N 539.506 -0.963266 1.24736 0
M  V30 5725 C 540.416 -2.09246 1.06082 0
M  V30 5726 C 541.432 -1.74 0.000363101 0
M  V30 5727 O 542.608 -2.0041 0.199479 0
M  V30 5728 C 539.673 -3.40115 0.672498 0
M  V30 5729 C 538.734 -3.89282 1.80993 0
M  V30 5730 C 537.967 -5.13905 1.44004 0
M  V30 5731 O 538.19 -5.69434 0.331835 0
M  V30 5732 O 537.124 -5.57566 2.26723 0
M  V30 5733 H 540.95 -2.27881 2.00759 0
M  V30 5734 H 538.535 -1.07649 1.03595 0
M  V30 5735 H 540.417 -4.18797 0.467668 0
M  V30 5736 H 539.092 -3.22771 -0.245102 0
M  V30 5737 H 537.999 -3.11642 2.06955 0
M  V30 5738 H 539.332 -4.1111 2.70646 0
M  V30 5739 N 540.985 -1.06182 -1.16461 0
M  V30 5740 C 541.948 -0.675723 -2.19013 0
M  V30 5741 C 542.948 0.277963 -1.58379 0
M  V30 5742 O 544.138 0.0604962 -1.74095 0
M  V30 5743 C 541.27 0.00591459 -3.40899 0
M  V30 5744 H 542.463 -1.58353 -2.54685 0
M  V30 5745 H 540.016 -0.856908 -1.30716 0
M  V30 5746 H 540.751 0.92652 -3.10783 0
M  V30 5747 H 540.536 -0.67984 -3.86161 0
M  V30 5748 H 542.026 0.26181 -4.16778 0
M  V30 5749 N 542.463 1.3308 -0.844243 0
M  V30 5750 C 543.396 2.27075 -0.226279 0
M  V30 5751 C 544.374 1.49911 0.629716 0
M  V30 5752 O 545.558 1.79068 0.588803 0
M  V30 5753 C 542.685 3.31767 0.681782 0
M  V30 5754 C 541.731 4.26384 -0.0994565 0
M  V30 5755 S 542.564 5.15186 -1.46094 0
M  V30 5756 C 543.72 6.23405 -0.558319 0
M  V30 5757 H 543.953 2.79141 -1.02312 0
M  V30 5758 H 541.486 1.40452 -0.641292 0
M  V30 5759 H 543.444 3.92566 1.20008 0
M  V30 5760 H 542.105 2.78507 1.45234 0
M  V30 5761 H 541.298 5.00514 0.591733 0
M  V30 5762 H 540.9 3.69949 -0.548991 0
M  V30 5763 H 543.192 6.77069 0.241672 0
M  V30 5764 H 544.135 6.96619 -1.26995 0
M  V30 5765 H 544.543 5.64333 -0.13728 0
M  V30 5766 N 543.941 0.601185 1.45683 0
M  V30 5767 C 545.166 0.0982245 2.07167 0
M  V30 5768 C 545.591 -1.20546 1.44396 0
M  V30 5769 O 544.949 -1.73247 0.534347 0
M  V30 5770 C 544.997 -0.0346976 3.60583 0
M  V30 5771 O 544.101 -1.08657 3.97828 0
M  V30 5772 H 543.442 0.0711618 0.660176 0
M  V30 5773 H 545.972 0.829376 1.87036 0
M  V30 5774 H 545.982 -0.234969 4.07323 0
M  V30 5775 H 544.657 0.917265 4.05659 0
M  V30 5776 H 543.234 -0.863275 3.6277 0
M  V30 5777 N 545.419 -1.53889 0.339982 0
M  V30 5778 C 546.351 -2.22435 -0.55275 0
M  V30 5779 C 547.364 -1.22975 -1.06681 0
M  V30 5780 O 548.553 -1.49351 -0.977575 0
M  V30 5781 C 545.653 -2.8882 -1.77302 0
M  V30 5782 C 544.826 -4.14563 -1.39486 0
M  V30 5783 C 543.885 -4.64391 -2.47442 0
M  V30 5784 O 542.911 -5.28687 -2.10899 0
M  V30 5785 N 544.113 -4.40015 -3.78639 0
M  V30 5786 H 546.878 -2.9968 0.0342669 0
M  V30 5787 H 544.439 -1.61068 0.16394 0
M  V30 5788 H 546.431 -3.19072 -2.48948 0
M  V30 5789 H 545.001 -2.15182 -2.26749 0
M  V30 5790 H 544.221 -3.90896 -0.509321 0
M  V30 5791 H 545.509 -4.96362 -1.11813 0
M  V30 5792 H 544.907 -3.88586 -4.11118 0
M  V30 5793 H 543.464 -4.74881 -4.46465 0
M  V30 5794 N 546.897 -0.0685191 -1.57451 0
M  V30 5795 C 547.86 0.885173 -2.11417 0
M  V30 5796 C 548.86 1.22853 -1.03748 0
M  V30 5797 O 550.05 1.16235 -1.2975 0
M  V30 5798 C 547.182 2.18964 -2.61281 0
M  V30 5799 H 548.375 0.417034 -2.96986 0
M  V30 5800 H 545.928 0.18014 -1.55258 0
M  V30 5801 H 546.663 2.70321 -1.79156 0
M  V30 5802 H 546.448 1.9534 -3.39977 0
M  V30 5803 H 547.938 2.87242 -3.0312 0
M  V30 5804 N 548.375 1.56261 0.205012 0
M  V30 5805 C 549.603 1.84141 0.943386 0
M  V30 5806 C 550.018 0.649772 1.77266 0
M  V30 5807 O 549.375 -0.381612 1.78466 0
M  V30 5808 C 549.426 3.10719 1.84759 0
M  V30 5809 O 549.147 4.25286 1.05181 0
M  V30 5810 C 550.648 3.51706 2.69848 0
M  V30 5811 H 547.868 0.611734 0.275721 0
M  V30 5812 H 550.412 2.03364 0.215253 0
M  V30 5813 H 548.567 2.93422 2.52947 0
M  V30 5814 H 548.981 4.97301 1.66709 0
M  V30 5815 H 550.455 4.43266 3.28967 0
M  V30 5816 H 550.932 2.7423 3.43067 0
M  V30 5817 H 551.538 3.71499 2.07047 0
M  V30 5818 N 549.853 -0.472356 1.50355 0
M  V30 5819 C 550.801 -1.59126 1.69651 0
M  V30 5820 C 551.795 -1.59793 0.56237 0
M  V30 5821 O 553.001 -1.63957 0.742832 0
M  V30 5822 H 549.376 -0.528008 0.535454 0
M  V30 5823 H 551.347 -1.40013 2.63513 0
M  V30 5824 C 550.096 -2.97075 1.8067 0
M  V30 5825 H 549.419 -2.9728 2.67329 0
M  V30 5826 H 550.859 -3.74825 1.98197 0
M  V30 5827 C 549.318 -3.32247 0.558016 0
M  V30 5828 O 549.848 -4.00553 -0.303399 0
M  V30 5829 N 548.054 -2.87659 0.412415 0
M  V30 5830 H 547.601 -2.32246 1.11443 0
M  V30 5831 H 547.559 -3.11556 -0.421908 0
M  V30 5832 N 551.331 -1.39911 -0.725443 0
M  V30 5833 C 552.556 -1.41137 -1.5197 0
M  V30 5834 C 552.981 -0.010262 -1.88097 0
M  V30 5835 O 552.339 0.979184 -1.52583 0
M  V30 5836 C 552.387 -2.2994 -2.77777 0
M  V30 5837 O 551.491 -1.73586 -3.74088 0
M  V30 5838 H 550.832 -0.480219 -0.458569 0
M  V30 5839 H 553.362 -1.84023 -0.894249 0
M  V30 5840 H 553.372 -2.44785 -3.26411 0
M  V30 5841 H 552.047 -3.31759 -2.50816 0
M  V30 5842 H 550.624 -1.68035 -3.32894 0
M  V30 5843 N 552.809 0.956637 -1.25245 0
M  V30 5844 C 553.772 2.03457 -1.05537 0
M  V30 5845 C 554.772 1.60798 -0.00886317 0
M  V30 5846 O 555.962 1.72384 -0.250865 0
M  V30 5847 C 553.094 3.35543 -0.601965 0
M  V30 5848 H 554.287 2.22372 -2.01223 0
M  V30 5849 H 551.84 1.13344 -1.07623 0
M  V30 5850 H 552.575 3.22323 0.357584 0
M  V30 5851 H 552.36 3.67854 -1.35743 0
M  V30 5852 H 553.85 4.14769 -0.485454 0
M  V30 5853 N 554.287 1.06798 1.15896 0
M  V30 5854 C 555.25 0.687328 2.18651 0
M  V30 5855 C 556.25 -0.269559 1.58524 0
M  V30 5856 O 557.44 -0.0512627 1.74125 0
M  V30 5857 C 554.572 0.0121642 3.40898 0
M  V30 5858 H 555.765 1.59701 2.53842 0
M  V30 5859 H 553.318 0.863828 1.3026 0
M  V30 5860 H 554.053 -0.910025 3.1127 0
M  V30 5861 H 553.838 0.700309 3.85795 0
M  V30 5862 H 555.328 -0.239703 4.16911 0
M  V30 5863 N 555.766 -1.3263 0.851289 0
M  V30 5864 C 556.729 -2.27247 0.298541 0
M  V30 5865 C 557.729 -1.51467 -0.539847 0
M  V30 5866 O 558.919 -1.7061 -0.351843 0
M  V30 5867 C 556.051 -3.35964 -0.578004 0
M  V30 5868 H 557.244 -2.7765 1.13359 0
M  V30 5869 H 554.797 -1.43245 0.625354 0
M  V30 5870 H 555.532 -2.90823 -1.435 0
M  V30 5871 H 555.317 -3.92094 0.0220539 0
M  V30 5872 H 556.807 -4.06472 -0.957626 0
M  V30 5873 N 557.244 -0.608902 -1.45362 0
M  V30 5874 C 558.49 -0.104762 -2.02529 0
M  V30 5875 C 558.823 1.26191 -1.47613 0
M  V30 5876 O 558.098 1.8327 -0.65134 0
M  V30 5877 C 558.381 -0.0672661 -3.60037 0
M  V30 5878 C 558.234 -1.4647 -4.25284 0
M  V30 5879 C 559.553 0.619877 -4.35713 0
M  V30 5880 H 556.672 -0.0395438 -0.735938 0
M  V30 5881 H 559.314 -0.781126 -1.73201 0
M  V30 5882 H 557.464 0.50871 -3.85155 0
M  V30 5883 H 559.136 -2.08785 -4.11347 0
M  V30 5884 H 557.379 -2.02502 -3.83634 0
M  V30 5885 H 558.05 -1.39069 -5.34195 0
M  V30 5886 H 560.526 0.130297 -4.15896 0
M  V30 5887 H 559.402 0.615224 -5.45441 0
M  V30 5888 H 559.663 1.68621 -4.0868 0
M  V30 5889 N 558.722 1.53707 -0.348139 0
M  V30 5890 C 559.655 2.21481 0.549667 0
M  V30 5891 C 560.633 1.20046 1.09671 0
M  V30 5892 O 561.817 1.48883 1.15612 0
M  V30 5893 C 558.944 2.89585 1.75664 0
M  V30 5894 C 557.99 4.04948 1.33864 0
M  V30 5895 S 558.823 5.34325 0.354577 0
M  V30 5896 C 559.979 6.05934 1.56828 0
M  V30 5897 H 560.212 2.97289 -0.0259755 0
M  V30 5898 H 557.745 1.53833 -0.132216 0
M  V30 5899 H 559.703 3.29441 2.44906 0
M  V30 5900 H 558.364 2.13535 2.30351 0
M  V30 5901 H 557.557 4.51552 2.23868 0
M  V30 5902 H 557.159 3.66893 0.725651 0
M  V30 5903 H 559.451 6.29606 2.50205 0
M  V30 5904 H 560.394 6.98799 1.14395 0
M  V30 5905 H 560.802 5.36151 1.76642 0
M  V30 5906 N 560.2 0.0768682 1.57412 0
M  V30 5907 C 561.133 -0.924685 2.08626 0
M  V30 5908 C 562.111 -1.28792 0.992542 0
M  V30 5909 O 563.295 -1.39634 1.26628 0
M  V30 5910 C 560.422 -2.23131 2.54814 0
M  V30 5911 C 559.468 -2.01928 3.75669 0
M  V30 5912 S 560.301 -1.27397 5.20125 0
M  V30 5913 C 561.457 -2.59329 5.69648 0
M  V30 5914 H 561.69 -0.488928 2.93252 0
M  V30 5915 H 559.223 -0.136014 1.538 0
M  V30 5916 H 561.181 -2.98226 2.82084 0
M  V30 5917 H 559.842 -2.63831 1.70447 0
M  V30 5918 H 559.035 -2.98639 4.05993 0
M  V30 5919 H 558.637 -1.34967 3.48798 0
M  V30 5920 H 560.929 -3.55394 5.76803 0
M  V30 5921 H 561.872 -2.33608 6.68456 0
M  V30 5922 H 562.28 -2.66767 4.9749 0
M  V30 5923 N 561.678 -1.56367 -0.196722 0
M  V30 5924 C 562.61 -1.90941 -1.26784 0
M  V30 5925 C 563.623 -0.799928 -1.41792 0
M  V30 5926 O 564.812 -1.07833 -1.42247 0
M  V30 5927 C 561.912 -2.12477 -2.6402 0
M  V30 5928 C 561.085 -3.43616 -2.70641 0
M  V30 5929 C 560.144 -3.54284 -3.89062 0
M  V30 5930 O 559.17 -4.2712 -3.76241 0
M  V30 5931 N 560.372 -2.87252 -5.04447 0
M  V30 5932 H 563.137 -2.83417 -0.974417 0
M  V30 5933 H 560.698 -1.57215 -0.386649 0
M  V30 5934 H 562.69 -2.16904 -3.41665 0
M  V30 5935 H 561.26 -1.26508 -2.85857 0
M  V30 5936 H 560.48 -3.51072 -1.79283 0
M  V30 5937 H 561.768 -4.29958 -2.72054 0
M  V30 5938 H 561.166 -2.27901 -5.17762 0
M  V30 5939 H 559.723 -2.97308 -5.80044 0
M  V30 5940 N 563.156 0.464375 -1.50603 0
M  V30 5941 C 564.572 0.798684 -1.38178 0
M  V30 5942 C 564.772 1.96568 -0.44308 0
M  V30 5943 O 563.828 2.52252 0.111814 0
M  V30 5944 C 565.141 1.10444 -2.79683 0
M  V30 5945 C 566.689 1.2105 -2.88645 0
M  V30 5946 C 567.164 1.54934 -4.30998 0
M  V30 5947 N 568.655 1.61913 -4.3398 0
M  V30 5948 C 569.39 1.8965 -5.41129 0
M  V30 5949 N 568.886 2.15361 -6.58477 0
M  V30 5950 N 570.679 1.91207 -5.28579 0
M  V30 5951 H 562.83 -0.304603 -2.10204 0
M  V30 5952 H 565.093 -0.0737804 -0.945125 0
M  V30 5953 H 564.799 0.319934 -3.50242 0
M  V30 5954 H 564.673 2.03896 -3.17342 0
M  V30 5955 H 567.06 1.98567 -2.18301 0
M  V30 5956 H 567.141 0.255613 -2.5452 0
M  V30 5957 H 566.785 0.779549 -5.01882 0
M  V30 5958 H 566.715 2.51584 -4.62615 0
M  V30 5959 H 569.206 1.44055 -3.49366 0
M  V30 5960 H 569.519 2.35818 -7.35941 0
M  V30 5961 H 567.864 2.1274 -6.6164 0
M  V30 5962 H 571.055 1.70622 -4.35897 0
M  V30 5963 H 571.228 2.12488 -6.12171 0
M  V30 5964 N 564.634 1.40294 0.718013 0
M  V30 5965 C 565.882 1.38167 1.47494 0
M  V30 5966 C 566.203 -0.01607 1.94993 0
M  V30 5967 O 565.473 -0.970396 1.70177 0
M  V30 5968 H 564.053 0.508505 0.547203 0
M  V30 5969 H 566.715 1.75324 0.851322 0
M  V30 5970 H 565.811 2.05503 2.34894 0
M  V30 5971 N 566.112 -0.949982 1.2575 0
M  V30 5972 C 567.06 -2.06869 1.06339 0
M  V30 5973 C 568.054 -1.69399 -0.00708901 0
M  V30 5974 O 569.26 -1.79383 0.148897 0
M  V30 5975 H 565.635 -0.677197 0.326969 0
M  V30 5976 H 567.606 -2.20396 2.01167 0
M  V30 5977 C 566.355 -3.40503 0.703769 0
M  V30 5978 H 565.678 -3.69807 1.51931 0
M  V30 5979 H 567.118 -4.19623 0.607677 0
M  V30 5980 C 565.577 -3.31685 -0.5905 0
M  V30 5981 O 566.107 -3.67085 -1.63131 0
M  V30 5982 N 564.313 -2.84797 -0.577859 0
M  V30 5983 H 563.86 -2.56186 0.26951 0
M  V30 5984 H 563.818 -2.79279 -1.44398 0
M  V30 5985 N 567.59 -1.07411 -1.15328 0
M  V30 5986 C 568.837 -0.797649 -1.86128 0
M  V30 5987 C 569.165 0.676298 -1.82364 0
M  V30 5988 O 568.42 1.51223 -1.24218 0
M  V30 5989 C 568.719 -1.25191 -3.34757 0
M  V30 5990 C 568.385 -2.73191 -3.58716 0
M  V30 5991 C 567.047 -3.13616 -3.64964 0
M  V30 5992 C 569.399 -3.68718 -3.6837 0
M  V30 5993 C 566.727 -4.48383 -3.78377 0
M  V30 5994 C 569.079 -5.03248 -3.83306 0
M  V30 5995 C 567.743 -5.43293 -3.878 0
M  V30 5996 H 567.013 -0.29188 -0.681092 0
M  V30 5997 H 569.66 -1.34524 -1.36292 0
M  V30 5998 H 567.965 -0.623712 -3.86804 0
M  V30 5999 H 569.662 -1.01489 -3.87945 0
M  V30 6000 H 566.252 -2.40898 -3.54494 0
M  V30 6001 H 570.436 -3.38614 -3.62842 0
M  V30 6002 H 565.692 -4.78877 -3.80114 0
M  V30 6003 H 569.866 -5.77142 -3.89718 0
M  V30 6004 H 567.493 -6.47721 -3.97946 0
M  V30 6005 N 569.068 1.32177 -0.85831 0
M  V30 6006 C 570.015 2.28794 -0.303607 0
M  V30 6007 C 570.985 1.55213 0.591453 0
M  V30 6008 O 572.17 1.83418 0.525585 0
M  V30 6009 C 569.31 3.41475 0.49889 0
M  V30 6010 C 568.423 4.2993 -0.422373 0
M  V30 6011 C 567.558 5.29743 0.393111 0
M  V30 6012 C 566.597 6.09842 -0.525317 0
M  V30 6013 N 565.734 7.01643 0.253208 0
M  V30 6014 H 570.574 2.75631 -1.13276 0
M  V30 6015 H 568.111 1.35606 -0.570026 0
M  V30 6016 H 570.069 4.05531 0.979826 0
M  V30 6017 H 568.699 2.95779 1.29284 0
M  V30 6018 H 567.751 3.66422 -1.02171 0
M  V30 6019 H 569.063 4.85899 -1.12709 0
M  V30 6020 H 568.217 5.9942 0.937056 0
M  V30 6021 H 566.956 4.744 1.13117 0
M  V30 6022 H 565.961 5.39066 -1.08112 0
M  V30 6023 H 567.186 6.6727 -1.26205 0
M  V30 6024 H 565.132 6.48725 0.974295 0
M  V30 6025 H 565.049 7.54981 -0.392398 0
M  V30 6026 H 566.317 7.756 0.778761 0
M  V30 6027 N 570.547 0.616602 1.45037 0
M  V30 6028 C 571.795 0.115103 2.01772 0
M  V30 6029 C 572.116 -1.2622 1.48639 0
M  V30 6030 O 571.386 -1.83563 0.684199 0
M  V30 6031 H 569.966 0.0395607 0.745952 0
M  V30 6032 H 572.628 0.800032 1.77723 0
M  V30 6033 H 571.724 0.0717274 3.12018 0
M  V30 6034 N 572.025 -1.5352 0.356285 0
M  V30 6035 C 573.436 -1.86282 -0.12492 0
M  V30 6036 C 573.787 -1.27717 -1.48939 0
M  V30 6037 O 572.912 -0.595614 -2.08042 0
M  V30 6038 C 573.507 -3.37995 -0.23345 0
M  V30 6039 C 572.066 -3.70588 -0.658899 0
M  V30 6040 C 571.213 -2.76581 0.199596 0
M  V30 6041 H 574.164 -1.47901 0.575423 0
M  V30 6042 H 574.185 -3.65475 -1.0587 0
M  V30 6043 H 573.697 -3.8059 0.759776 0
M  V30 6044 H 571.798 -3.33544 -1.66069 0
M  V30 6045 H 571.911 -4.77076 -0.439957 0
M  V30 6046 H 570.275 -2.52552 -0.330076 0
M  V30 6047 H 571.058 -3.22008 1.19019 0
M  V30 6048 N 573.503 -0.0852151 -1.57369 0
M  V30 6049 C 574.919 0.271436 -1.57275 0
M  V30 6050 C 575.119 1.69109 -1.09565 0
M  V30 6051 O 574.175 2.40549 -0.767611 0
M  V30 6052 C 575.488 0.0688638 -3.00621 0
M  V30 6053 C 577.036 0.137373 -3.12698 0
M  V30 6054 C 577.511 -0.0370832 -4.57985 0
M  V30 6055 N 579.002 0.0180794 -4.63196 0
M  V30 6056 C 579.737 -0.0922953 -5.73326 0
M  V30 6057 N 579.233 -0.256948 -6.92323 0
M  V30 6058 N 581.026 -0.0342702 -5.6209 0
M  V30 6059 H 573.177 -1.01288 -1.86693 0
M  V30 6060 H 575.44 -0.396138 -0.861266 0
M  V30 6061 H 575.146 -0.911277 -3.39689 0
M  V30 6062 H 575.02 0.815442 -3.6828 0
M  V30 6063 H 577.407 1.10801 -2.73509 0
M  V30 6064 H 577.488 -0.640532 -2.47651 0
M  V30 6065 H 577.132 -1.00455 -4.97867 0
M  V30 6066 H 577.062 0.760392 -5.21081 0
M  V30 6067 H 579.553 0.143202 -3.77629 0
M  V30 6068 H 579.866 -0.332949 -7.72082 0
M  V30 6069 H 578.211 -0.292487 -6.94384 0
M  V30 6070 H 581.402 0.0931605 -4.68007 0
M  V30 6071 H 581.575 -0.12374 -6.47882 0
M  V30 6072 N 574.981 1.5647 0.188427 0
M  V30 6073 C 575.928 1.95073 1.23349 0
M  V30 6074 C 576.898 0.812238 1.44886 0
M  V30 6075 O 578.083 1.07095 1.57909 0
M  V30 6076 C 575.223 2.30124 2.57171 0
M  V30 6077 C 574.336 3.57069 2.43157 0
M  V30 6078 C 573.471 3.81411 3.69729 0
M  V30 6079 C 572.51 5.0176 3.50575 0
M  V30 6080 N 571.647 5.22321 4.69175 0
M  V30 6081 H 576.487 2.84171 0.89728 0
M  V30 6082 H 574.024 1.40623 0.431683 0
M  V30 6083 H 575.982 2.48463 3.35145 0
M  V30 6084 H 574.612 1.44159 2.88822 0
M  V30 6085 H 573.664 3.4674 1.56447 0
M  V30 6086 H 574.976 4.452 2.24942 0
M  V30 6087 H 574.13 4.00026 4.56141 0
M  V30 6088 H 572.869 2.91624 3.90905 0
M  V30 6089 H 571.874 4.83061 2.62549 0
M  V30 6090 H 573.099 5.93063 3.30837 0
M  V30 6091 H 571.045 4.35483 4.90602 0
M  V30 6092 H 570.962 6.04643 4.53809 0
M  V30 6093 H 572.23 5.45401 5.56919 0
M  V30 6094 N 576.459 -0.456382 1.50847 0
M  V30 6095 C 577.687 -1.23026 1.66349 0
M  V30 6096 C 578.102 -1.85473 0.352868 0
M  V30 6097 O 577.459 -1.69885 -0.666739 0
M  V30 6098 C 577.51 -2.32827 2.76539 0
M  V30 6099 O 577.231 -1.72938 4.02522 0
M  V30 6100 C 578.732 -3.23448 3.03144 0
M  V30 6101 H 575.952 -0.371527 0.558756 0
M  V30 6102 H 578.496 -0.543082 1.97157 0
M  V30 6103 H 576.651 -2.97294 2.48384 0
M  V30 6104 H 577.065 -2.45357 4.63573 0
M  V30 6105 H 578.539 -3.96669 3.83872 0
M  V30 6106 H 579.016 -3.83094 2.14793 0
M  V30 6107 H 579.622 -2.64702 3.32886 0
M  V30 6108 N 577.937 -1.40673 -0.710563 0
M  V30 6109 C 579.186 -1.38525 -1.46607 0
M  V30 6110 C 579.499 0.0077024 -1.95598 0
M  V30 6111 O 580.705 0.151792 -2.71075 0
M  V30 6112 C 579.161 -2.43489 -2.6503 0
M  V30 6113 C 578.769 -3.88619 -2.22888 0
M  V30 6114 C 580.513 -2.50456 -3.42742 0
M  V30 6115 C 578.42 -4.85168 -3.3818 0
M  V30 6116 H 577.35 -0.515092 -0.550632 0
M  V30 6117 H 580.001 -1.66431 -0.772846 0
M  V30 6118 H 578.383 -2.0869 -3.36548 0
M  V30 6119 H 579.557 -4.32588 -1.58758 0
M  V30 6120 H 577.872 -3.85174 -1.58208 0
M  V30 6121 H 580.469 -3.19776 -4.28541 0
M  V30 6122 H 580.812 -1.53665 -3.86902 0
M  V30 6123 H 581.345 -2.84271 -2.78271 0
M  V30 6124 H 578.084 -5.8331 -2.99047 0
M  V30 6125 H 577.604 -4.4586 -4.01209 0
M  V30 6126 H 579.283 -5.05225 -4.04174 0
M  V30 6127 N 579.415 0.9433 -1.26252 0
M  V30 6128 C 580.362 2.0417 -1.07625 0
M  V30 6129 C 581.332 1.6609 0.0180738 0
M  V30 6130 O 582.517 1.90276 -0.141289 0
M  V30 6131 C 579.657 3.37653 -0.713043 0
M  V30 6132 C 578.77 3.88783 -1.8834 0
M  V30 6133 C 577.905 5.10642 -1.4635 0
M  V30 6134 C 576.944 5.54028 -2.60229 0
M  V30 6135 N 576.081 6.67092 -2.18936 0
M  V30 6136 H 580.921 2.19436 -2.01623 0
M  V30 6137 H 578.458 1.07519 -1.00389 0
M  V30 6138 H 580.416 4.14391 -0.483358 0
M  V30 6139 H 579.046 3.22241 0.18996 0
M  V30 6140 H 578.098 3.08464 -2.22608 0
M  V30 6141 H 579.41 4.16922 -2.73821 0
M  V30 6142 H 578.564 5.94832 -1.19414 0
M  V30 6143 H 577.303 4.84244 -0.579568 0
M  V30 6144 H 576.308 4.68396 -2.87898 0
M  V30 6145 H 577.533 5.82429 -3.49219 0
M  V30 6146 H 575.479 6.42381 -1.32974 0
M  V30 6147 H 575.396 6.94806 -2.97961 0
M  V30 6148 H 576.664 7.54662 -1.95206 0
M  V30 6149 N 580.893 1.08022 1.14757 0
M  V30 6150 C 582.133 0.816959 1.87364 0
M  V30 6151 C 582.497 -0.645407 1.80827 0
M  V30 6152 O 583.698 -1.024 2.48531 0
M  V30 6153 C 581.969 1.31961 3.32146 0
M  V30 6154 S 583.528 1.18806 4.2241 0
M  V30 6155 H 580.346 0.295862 0.646519 0
M  V30 6156 H 582.948 1.3807 1.38408 0
M  V30 6157 H 581.652 2.37847 3.3445 0
M  V30 6158 H 581.183 0.751371 3.86158 0
M  V30 6159 H 583.198 0.129865 4.9603 0
M  V30 6160 N 582.371 -1.3172 0.865308 0
M  V30 6161 C 583.618 -1.96876 0.473931 0
M  V30 6162 C 583.946 -1.68425 -0.972786 0
M  V30 6163 O 583.201 -0.970742 -1.69927 0
M  V30 6164 C 583.5 -3.5102 0.672283 0
M  V30 6165 C 583.166 -3.9948 2.09108 0
M  V30 6166 C 581.828 -4.12425 2.4791 0
M  V30 6167 C 584.18 -4.2503 3.0166 0
M  V30 6168 C 581.508 -4.48267 3.78515 0
M  V30 6169 C 583.86 -4.62335 4.31774 0
M  V30 6170 C 582.524 -4.73486 4.70497 0
M  V30 6171 H 581.794 -0.72042 0.173424 0
M  V30 6172 H 584.441 -1.56937 1.0974 0
M  V30 6173 H 582.746 -3.91785 -0.034356 0
M  V30 6174 H 584.443 -3.99475 0.349353 0
M  V30 6175 H 581.033 -3.89898 1.77981 0
M  V30 6176 H 585.217 -4.14529 2.7291 0
M  V30 6177 H 580.473 -4.55097 4.08285 0
M  V30 6178 H 584.647 -4.81058 5.03543 0
M  V30 6179 H 582.274 -5.01016 5.71741 0
M  V30 6180 N 583.85 -0.624285 -1.44708 0
M  V30 6181 C 584.798 0.0969952 -2.32398 0
M  V30 6182 C 585.792 0.842762 -1.46949 0
M  V30 6183 O 586.998 0.756436 -1.63334 0
M  V30 6184 H 583.373 0.0501306 -0.750327 0
M  V30 6185 H 585.344 -0.660767 -2.90992 0
M  V30 6186 C 584.093 1.06967 -3.30837 0
M  V30 6187 H 583.416 0.505242 -3.96595 0
M  V30 6188 H 584.856 1.54397 -3.94889 0
M  V30 6189 C 583.315 2.15153 -2.5925 0
M  V30 6190 O 583.845 3.23139 -2.3863 0
M  V30 6191 N 582.051 1.90898 -2.19103 0
M  V30 6192 H 581.598 1.03086 -2.36074 0
M  V30 6193 H 581.556 2.63485 -1.71531 0
M  V30 6194 N 585.328 1.53329 -0.364422 0
M  V30 6195 C 586.568 2.0315 0.22572 0
M  V30 6196 C 586.932 1.24589 1.46087 0
M  V30 6197 O 588.133 1.64411 2.12656 0
M  V30 6198 C 586.404 3.53718 0.511663 0
M  V30 6199 S 587.963 4.25412 1.07564 0
M  V30 6200 H 584.781 0.70795 0.0657843 0
M  V30 6201 H 587.383 1.88811 -0.507019 0
M  V30 6202 H 586.087 4.08497 -0.394784 0
M  V30 6203 H 585.618 3.72217 1.27351 0
M  V30 6204 H 587.633 4.36486 2.35997 0
M  V30 6205 N 586.806 0.0935595 1.57322 0
M  V30 6206 C 588.054 -0.569383 1.93913 0
M  V30 6207 C 588.375 -1.68817 0.976009 0
M  V30 6208 O 587.645 -1.9588 0.0278099 0
M  V30 6209 H 586.225 -0.21332 0.715894 0
M  V30 6210 H 588.887 0.156531 1.9427 0
M  V30 6211 H 587.983 -0.980577 2.96296 0
M  V30 6212 N 588.284 -1.56567 -0.180126 0
M  V30 6213 C 589.231 -1.95725 -1.22313 0
M  V30 6214 C 590.201 -0.819911 -1.44453 0
M  V30 6215 O 591.386 -1.07931 -1.57339 0
M  V30 6216 C 588.526 -2.31484 -2.55947 0
M  V30 6217 C 587.639 -3.58354 -2.4126 0
M  V30 6218 C 586.774 -3.83366 -3.67701 0
M  V30 6219 C 585.813 -5.03612 -3.47909 0
M  V30 6220 N 584.95 -5.24802 -4.66398 0
M  V30 6221 H 589.79 -2.84642 -0.882198 0
M  V30 6222 H 587.327 -1.4085 -0.42422 0
M  V30 6223 H 589.285 -2.50237 -3.33822 0
M  V30 6224 H 587.915 -1.45689 -2.88053 0
M  V30 6225 H 586.967 -3.47565 -1.54606 0
M  V30 6226 H 588.279 -4.46386 -2.22577 0
M  V30 6227 H 587.433 -4.02439 -4.54013 0
M  V30 6228 H 586.172 -2.93692 -3.89353 0
M  V30 6229 H 585.177 -4.84447 -2.59983 0
M  V30 6230 H 586.402 -5.94809 -3.27688 0
M  V30 6231 H 584.348 -4.38079 -4.88286 0
M  V30 6232 H 584.265 -6.07041 -4.50596 0
M  V30 6233 H 585.533 -5.48346 -5.54019 0
M  V30 6234 N 589.762 0.448376 -1.51087 0
M  V30 6235 C 590.672 1.56882 -1.74428 0
M  V30 6236 C 591.688 1.62268 -0.62809 0
M  V30 6237 O 592.864 1.79716 -0.909075 0
M  V30 6238 C 589.929 2.92947 -1.85426 0
M  V30 6239 C 588.99 2.97766 -3.09247 0
M  V30 6240 C 588.223 4.27341 -3.19711 0
M  V30 6241 O 588.446 5.19112 -2.36387 0
M  V30 6242 O 587.38 4.38219 -4.12611 0
M  V30 6243 H 591.206 1.40104 -2.69452 0
M  V30 6244 H 588.791 0.630247 -1.35456 0
M  V30 6245 H 590.673 3.73719 -1.94709 0
M  V30 6246 H 589.348 3.09876 -0.935887 0
M  V30 6247 H 588.255 2.15989 -3.0545 0
M  V30 6248 H 589.588 2.8578 -4.00738 0
M  V30 6249 N 591.24 1.41047 0.703093 0
M  V30 6250 C 592.488 1.39723 1.4602 0
M  V30 6251 C 592.809 0.00461257 1.94999 0
M  V30 6252 O 592.079 -0.952292 1.71196 0
M  V30 6253 H 590.659 0.514281 0.541779 0
M  V30 6254 H 593.321 1.76217 0.832678 0
M  V30 6255 H 592.417 2.07982 2.32701 0
M  V30 6256 N 592.718 -0.936591 1.26751 0
M  V30 6257 C 593.668 -2.0219 1.05371 0
M  V30 6258 C 594.652 -1.60893 -0.0154112 0
M  V30 6259 O 595.844 -1.75843 0.202085 0
M  V30 6260 C 592.973 -3.36222 0.693541 0
M  V30 6261 C 592.059 -3.8399 1.80035 0
M  V30 6262 N 592.45 -4.0436 3.03852 0
M  V30 6263 C 590.748 -4.12945 1.685 0
M  V30 6264 C 591.449 -4.44 3.75818 0
M  V30 6265 N 590.425 -4.50966 3.03531 0
M  V30 6266 H 594.227 -2.15958 1.99347 0
M  V30 6267 H 591.741 -1.12277 1.17335 0
M  V30 6268 H 593.738 -4.13625 0.521513 0
M  V30 6269 H 592.398 -3.23821 -0.238693 0
M  V30 6270 H 593.409 -3.9092 3.39709 0
M  V30 6271 H 590.086 -4.09308 0.822986 0
M  V30 6272 H 591.476 -4.67914 4.82189 0
M  V30 6273 N 594.196 -1.08629 -1.14182 0
M  V30 6274 C 595.445 -0.812271 -1.84621 0
M  V30 6275 C 595.758 0.664313 -1.83973 0
M  V30 6276 O 596.964 1.05357 -2.50224 0
M  V30 6277 C 595.42 -1.4031 -3.31423 0
M  V30 6278 C 595.028 -2.91164 -3.40481 0
M  V30 6279 C 596.772 -1.20767 -4.06959 0
M  V30 6280 C 594.679 -3.43373 -4.81507 0
M  V30 6281 H 593.609 -0.30019 -0.691666 0
M  V30 6282 H 596.26 -1.30798 -1.28701 0
M  V30 6283 H 594.642 -0.835096 -3.87094 0
M  V30 6284 H 595.816 -3.5412 -2.94848 0
M  V30 6285 H 594.131 -3.09646 -2.78403 0
M  V30 6286 H 596.728 -1.57237 -5.11058 0
M  V30 6287 H 597.071 -0.147664 -4.16038 0
M  V30 6288 H 597.604 -1.74274 -3.57594 0
M  V30 6289 H 594.343 -4.48958 -4.77616 0
M  V30 6290 H 593.863 -2.85176 -5.27669 0
M  V30 6291 H 595.542 -3.40095 -5.50404 0
M  V30 6292 N 595.674 1.31259 -0.872281 0
M  V30 6293 C 596.637 2.26744 -0.334656 0
M  V30 6294 C 597.637 1.52307 0.515681 0
M  V30 6295 O 598.827 1.71148 0.324656 0
M  V30 6296 C 595.959 3.36841 0.524482 0
M  V30 6297 H 597.152 2.75812 -1.17762 0
M  V30 6298 H 594.705 1.42232 -0.648064 0
M  V30 6299 H 595.44 2.93069 1.38855 0
M  V30 6300 H 595.225 3.92009 -0.0844299 0
M  V30 6301 H 596.715 4.07944 0.892838 0
M  V30 6302 N 597.152 0.631951 1.44375 0
M  V30 6303 C 598.099 -0.0724807 2.30686 0
M  V30 6304 C 599.069 -0.835975 1.43529 0
M  V30 6305 O 600.254 -0.816849 1.7243 0
M  V30 6306 C 597.394 -1.04753 3.28817 0
M  V30 6307 C 596.507 -0.282367 4.31076 0
M  V30 6308 C 595.642 -1.2493 5.163 0
M  V30 6309 C 594.681 -0.473349 6.10267 0
M  V30 6310 N 593.818 -1.39079 6.88187 0
M  V30 6311 H 598.658 0.669477 2.90383 0
M  V30 6312 H 596.195 0.341927 1.43071 0
M  V30 6313 H 598.153 -1.62623 3.842 0
M  V30 6314 H 596.783 -1.75661 2.70819 0
M  V30 6315 H 595.835 0.412268 3.78159 0
M  V30 6316 H 597.147 0.321955 4.9776 0
M  V30 6317 H 596.301 -1.89931 5.76204 0
M  V30 6318 H 595.04 -1.88755 4.49692 0
M  V30 6319 H 594.045 0.190142 5.49471 0
M  V30 6320 H 595.27 0.16019 6.78911 0
M  V30 6321 H 593.216 -2.01623 6.24247 0
M  V30 6322 H 593.133 -0.840513 7.51313 0
M  V30 6323 H 594.401 -2.02961 7.52613 0
M  V30 6324 N 598.631 -1.53133 0.372548 0
M  V30 6325 C 599.579 -2.27473 -0.485681 0
M  V30 6326 C 600.573 -1.30719 -1.07745 0
M  V30 6327 O 601.779 -1.48321 -1.01985 0
M  V30 6328 H 598.154 -0.731269 -0.175356 0
M  V30 6329 H 600.125 -2.97955 0.162986 0
M  V30 6330 C 598.874 -3.08191 -1.60978 0
M  V30 6331 H 598.197 -3.82488 -1.16373 0
M  V30 6332 H 599.637 -3.63373 -2.18485 0
M  V30 6333 C 598.096 -2.19461 -2.55614 0
M  V30 6334 O 598.626 -1.81008 -3.58607 0
M  V30 6335 N 596.832 -1.83955 -2.24965 0
M  V30 6336 H 596.379 -2.15423 -1.41247 0
M  V30 6337 H 596.337 -1.24874 -2.88538 0
M  V30 6338 N 600.109 -0.101901 -1.5727 0
M  V30 6339 C 601.349 0.563489 -1.96479 0
M  V30 6340 C 601.713 1.64926 -0.983021 0
M  V30 6341 O 602.914 2.37234 -1.26386 0
M  V30 6342 C 601.185 1.09809 -3.40113 0
M  V30 6343 S 602.744 1.7744 -4.01323 0
M  V30 6344 H 599.562 0.183675 -0.686866 0
M  V30 6345 H 602.164 -0.182922 -1.94642 0
M  V30 6346 H 600.868 0.296447 -4.09328 0
M  V30 6347 H 600.399 1.88018 -3.45562 0
M  V30 6348 H 602.414 3.0591 -3.90683 0
M  V30 6349 N 601.587 1.56661 0.17182 0
M  V30 6350 C 603.003 1.50768 0.52357 0
M  V30 6351 C 603.203 0.806072 1.84675 0
M  V30 6352 O 602.259 0.366233 2.4983 0
M  V30 6353 C 603.572 2.955 0.556793 0
M  V30 6354 C 605.12 3.06303 0.644029 0
M  V30 6355 C 605.595 4.52492 0.708148 0
M  V30 6356 N 607.086 4.56737 0.771051 0
M  V30 6357 C 607.821 5.67196 0.841229 0
M  V30 6358 N 607.317 6.87287 0.872272 0
M  V30 6359 N 609.11 5.55165 0.88021 0
M  V30 6360 H 601.261 2.00679 -0.695817 0
M  V30 6361 H 603.524 0.914219 -0.250814 0
M  V30 6362 H 603.23 3.49986 -0.346774 0
M  V30 6363 H 603.104 3.50119 1.40346 0
M  V30 6364 H 605.491 2.51851 1.53802 0
M  V30 6365 H 605.572 2.5477 -0.229297 0
M  V30 6366 H 605.216 5.07575 -0.181585 0
M  V30 6367 H 605.146 5.01781 1.59761 0
M  V30 6368 H 607.637 3.70274 0.755364 0
M  V30 6369 H 607.95 7.6722 0.92698 0
M  V30 6370 H 606.295 6.89898 0.840557 0
M  V30 6371 H 609.486 4.60263 0.852956 0
M  V30 6372 H 609.659 6.41271 0.931439 0
M  V30 6373 N 603.065 -0.440357 1.51323 0
M  V30 6374 C 604.028 -1.51679 1.71832 0
M  V30 6375 C 605.028 -1.49648 0.588386 0
M  V30 6376 O 606.218 -1.51724 0.855891 0
M  V30 6377 C 603.35 -2.91228 1.77199 0
M  V30 6378 H 604.543 -1.34799 2.67898 0
M  V30 6379 H 602.096 -0.66883 1.41267 0
M  V30 6380 H 602.831 -3.13516 0.829363 0
M  V30 6381 H 602.616 -2.94107 2.59314 0
M  V30 6382 H 604.106 -3.69321 1.94915 0
M  V30 6383 N 604.543 -1.41418 -0.695603 0
M  V30 6384 C 605.954 -1.36335 -1.27552 0
M  V30 6385 C 606.305 -0.0464336 -1.96145 0
M  V30 6386 O 605.43 0.855304 -1.9878 0
M  V30 6387 C 606.025 -2.46941 -2.3196 0
M  V30 6388 C 604.584 -2.45256 -2.85529 0
M  V30 6389 C 603.731 -2.2679 -1.59566 0
M  V30 6390 H 606.682 -1.50934 -0.490362 0
M  V30 6391 H 606.703 -2.15997 -3.1325 0
M  V30 6392 H 606.215 -3.42775 -1.82008 0
M  V30 6393 H 604.316 -1.53179 -3.39657 0
M  V30 6394 H 604.429 -3.41565 -3.35961 0
M  V30 6395 H 602.793 -1.74667 -1.85374 0
M  V30 6396 H 603.576 -3.24651 -1.1161 0
M  V30 6397 N 606.021 0.929856 -1.27246 0
M  V30 6398 C 607.437 1.20542 -1.04603 0
M  V30 6399 C 607.637 2.00276 0.221754 0
M  V30 6400 O 606.693 2.34835 0.927833 0
M  V30 6401 C 608.006 1.95566 -2.28417 0
M  V30 6402 C 609.554 2.08513 -2.33433 0
M  V30 6403 C 610.029 2.86943 -3.5697 0
M  V30 6404 N 611.52 2.94512 -3.57515 0
M  V30 6405 C 612.255 3.55656 -4.49774 0
M  V30 6406 N 611.751 4.18209 -5.52334 0
M  V30 6407 N 613.544 3.53038 -4.37402 0
M  V30 6408 H 605.695 0.397113 -2.08655 0
M  V30 6409 H 607.958 0.238277 -0.917566 0
M  V30 6410 H 607.664 1.44395 -3.20691 0
M  V30 6411 H 607.538 2.9619 -2.33563 0
M  V30 6412 H 609.925 2.58872 -1.41666 0
M  V30 6413 H 610.006 1.07117 -2.32292 0
M  V30 6414 H 609.65 2.37268 -4.49072 0
M  V30 6415 H 609.58 3.8862 -3.55362 0
M  V30 6416 H 612.071 2.50053 -2.83341 0
M  V30 6417 H 612.384 4.62796 -6.18902 0
M  V30 6418 H 610.729 4.16761 -5.56179 0
M  V30 6419 H 613.92 3.0337 -3.56489 0
M  V30 6420 H 614.093 4.004 -5.09493 0
M  V30 6421 N 607.499 1.09233 1.13605 0
M  V30 6422 C 608.915 0.82163 1.36826 0
M  V30 6423 C 609.115 -0.565021 1.93416 0
M  V30 6424 O 608.171 -1.32026 2.15234 0
M  V30 6425 C 609.484 1.91124 2.32147 0
M  V30 6426 C 611.032 1.93824 2.45767 0
M  V30 6427 C 611.507 3.01923 3.44393 0
M  V30 6428 N 612.998 3.01149 3.51942 0
M  V30 6429 C 613.733 3.81434 4.2813 0
M  V30 6430 N 613.229 4.71621 5.07489 0
M  V30 6431 N 615.022 3.69702 4.23411 0
M  V30 6432 H 607.173 1.98633 0.752234 0
M  V30 6433 H 609.436 0.862482 0.393482 0
M  V30 6434 H 609.142 2.90862 1.97717 0
M  V30 6435 H 609.016 1.78777 3.32142 0
M  V30 6436 H 611.403 0.94726 2.79483 0
M  V30 6437 H 611.484 2.10248 1.45703 0
M  V30 6438 H 611.128 4.01232 3.11408 0
M  V30 6439 H 611.058 2.82742 4.44257 0
M  V30 6440 H 613.549 2.35789 2.95317 0
M  V30 6441 H 613.862 5.29468 5.62924 0
M  V30 6442 H 612.207 4.75658 5.06729 0
M  V30 6443 H 615.398 2.98606 3.60489 0
M  V30 6444 H 615.571 4.32509 4.82535 0
M  V30 6445 N 608.977 -1.30795 0.87923 0
M  V30 6446 C 609.924 -2.28282 0.339968 0
M  V30 6447 C 610.894 -1.56134 -0.566685 0
M  V30 6448 O 612.079 -1.84231 -0.496338 0
M  V30 6449 C 609.219 -3.42225 -0.444501 0
M  V30 6450 C 608.332 -4.29204 0.490717 0
M  V30 6451 C 607.467 -5.30302 -0.308784 0
M  V30 6452 C 606.506 -6.08929 0.622272 0
M  V30 6453 N 605.643 -7.01957 -0.14155 0
M  V30 6454 H 610.483 -2.73794 1.17647 0
M  V30 6455 H 608.02 -1.34682 0.591527 0
M  V30 6456 H 609.978 -4.07038 -0.915186 0
M  V30 6457 H 608.608 -2.97799 -1.24562 0
M  V30 6458 H 607.66 -3.6475 1.07988 0
M  V30 6459 H 608.972 -4.84045 1.20425 0
M  V30 6460 H 608.126 -6.00835 -0.841575 0
M  V30 6461 H 606.865 -4.7614 -1.05556 0
M  V30 6462 H 605.87 -5.37278 1.16674 0
M  V30 6463 H 607.095 -6.65178 1.36804 0
M  V30 6464 H 605.041 -6.50192 -0.870966 0
M  V30 6465 H 604.958 -7.54261 0.51246 0
M  V30 6466 H 606.226 -7.76741 -0.655271 0
M  V30 6467 N 610.455 -0.639598 -1.44038 0
M  V30 6468 C 611.703 -0.147188 -2.01563 0
M  V30 6469 C 612.024 1.2384 -1.50628 0
M  V30 6470 O 611.294 1.82452 -0.713316 0
M  V30 6471 H 609.874 -0.0514231 -0.745228 0
M  V30 6472 H 612.536 -0.828205 -1.76428 0
M  V30 6473 H 611.632 -0.121358 -3.11864 0
M  V30 6474 N 611.933 1.52934 -0.380664 0
M  V30 6475 C 613.173 2.03378 0.204161 0
M  V30 6476 C 613.537 1.26132 1.44758 0
M  V30 6477 O 614.738 1.66657 2.109 0
M  V30 6478 C 613.009 3.54241 0.474118 0
M  V30 6479 S 614.568 4.26529 1.03046 0
M  V30 6480 H 611.386 0.708608 0.0582719 0
M  V30 6481 H 613.988 1.88263 -0.527017 0
M  V30 6482 H 612.692 4.08055 -0.438088 0
M  V30 6483 H 612.223 3.73547 1.23396 0
M  V30 6484 H 614.238 4.38964 2.31354 0
M  V30 6485 N 613.412 0.11024 1.57214 0
M  V30 6486 C 614.658 -0.544479 1.95977 0
M  V30 6487 C 615.013 -1.64845 0.992171 0
M  V30 6488 O 614.306 -1.91589 0.0206981 0
M  V30 6489 C 614.5 -1.13102 3.39032 0
M  V30 6490 C 614.329 -0.0854079 4.49619 0
M  V30 6491 C 613.099 0.343373 5.04132 0
M  V30 6492 C 615.297 0.692232 5.0962 0
M  V30 6493 N 613.279 1.37567 5.98288 0
M  V30 6494 C 614.65 1.57596 5.99636 0
M  V30 6495 C 616.705 0.744085 4.92309 0
M  V30 6496 C 615.408 2.50701 6.74197 0
M  V30 6497 C 617.434 1.6628 5.67543 0
M  V30 6498 C 616.796 2.53412 6.57238 0
M  V30 6499 H 612.895 -0.169124 0.763493 0
M  V30 6500 H 615.479 0.196326 1.93708 0
M  V30 6501 H 613.65 -1.84158 3.41965 0
M  V30 6502 H 615.382 -1.74934 3.64939 0
M  V30 6503 H 612.137 -0.0473277 4.73576 0
M  V30 6504 H 612.561 1.89048 6.50069 0
M  V30 6505 H 617.203 0.0845825 4.22715 0
M  V30 6506 H 614.921 3.17669 7.43043 0
M  V30 6507 H 618.507 1.70825 5.56156 0
M  V30 6508 H 617.387 3.23347 7.14434 0
M  V30 6509 N 614.89 -1.56749 -0.16351 0
M  V30 6510 C 615.837 -1.97011 -1.2023 0
M  V30 6511 C 616.807 -0.835186 -1.43575 0
M  V30 6512 O 617.992 -1.09594 -1.56185 0
M  V30 6513 C 615.132 -2.34186 -2.53478 0
M  V30 6514 C 614.245 -3.60893 -2.37446 0
M  V30 6515 C 613.38 -3.87245 -3.63614 0
M  V30 6516 C 612.419 -5.07274 -3.42548 0
M  V30 6517 N 611.556 -5.29719 -4.60806 0
M  V30 6518 H 616.396 -2.85562 -0.851958 0
M  V30 6519 H 613.933 -1.41292 -0.409257 0
M  V30 6520 H 615.891 -2.53764 -3.31149 0
M  V30 6521 H 614.521 -1.48736 -2.86492 0
M  V30 6522 H 613.573 -3.49185 -1.50911 0
M  V30 6523 H 614.885 -4.48722 -2.1783 0
M  V30 6524 H 614.039 -4.07232 -4.49719 0
M  V30 6525 H 612.778 -2.97806 -3.86216 0
M  V30 6526 H 611.783 -4.87177 -2.5483 0
M  V30 6527 H 613.008 -5.98251 -3.2136 0
M  V30 6528 H 610.954 -4.43233 -4.83612 0
M  V30 6529 H 610.871 -6.11786 -4.44132 0
M  V30 6530 H 612.139 -5.54192 -5.48171 0
M  V30 6531 N 616.368 0.432326 -1.51554 0
M  V30 6532 C 617.608 1.19076 -1.66133 0
M  V30 6533 C 617.972 1.88364 -0.371873 0
M  V30 6534 O 619.173 2.65904 -0.39349 0
M  V30 6535 C 617.444 2.1768 -2.83461 0
M  V30 6536 S 619.003 3.01943 -3.18396 0
M  V30 6537 H 615.821 0.403735 -0.585251 0
M  V30 6538 H 618.423 0.481554 -1.89476 0
M  V30 6539 H 617.127 1.65424 -3.75583 0
M  V30 6540 H 616.658 2.93174 -2.62322 0
M  V30 6541 H 618.673 4.19373 -2.65219 0
M  V30 6542 N 617.846 1.41785 0.688094 0
M  V30 6543 C 619.094 1.41264 1.4453 0
M  V30 6544 C 619.415 0.0252946 1.94984 0
M  V30 6545 O 618.685 -0.934081 1.72197 0
M  V30 6546 H 617.265 0.519998 0.536294 0
M  V30 6547 H 619.927 1.7709 0.813941 0
M  V30 6548 H 619.023 2.10439 2.30482 0
M  V30 6549 N 619.324 -0.923095 1.27737 0
M  V30 6550 C 620.271 -2.02432 1.1086 0
M  V30 6551 C 621.241 -1.66098 0.00835195 0
M  V30 6552 O 622.426 -1.90027 0.171542 0
M  V30 6553 C 619.566 -3.36476 0.766671 0
M  V30 6554 C 618.679 -3.85737 1.94501 0
M  V30 6555 C 617.814 -5.08249 1.54455 0
M  V30 6556 C 616.853 -5.49818 2.6901 0
M  V30 6557 N 615.99 -6.63524 2.29521 0
M  V30 6558 H 620.83 -2.16201 2.05089 0
M  V30 6559 H 618.367 -1.05909 1.02087 0
M  V30 6560 H 620.325 -4.13569 0.549223 0
M  V30 6561 H 618.955 -3.22502 -0.13867 0
M  V30 6562 H 618.007 -3.04883 2.27487 0
M  V30 6563 H 619.319 -4.12513 2.80419 0
M  V30 6564 H 618.473 -5.92857 1.28862 0
M  V30 6565 H 617.212 -4.83261 0.656534 0
M  V30 6566 H 616.217 -4.63757 2.95313 0
M  V30 6567 H 617.442 -5.76799 3.5844 0
M  V30 6568 H 615.388 -6.40185 1.43177 0
M  V30 6569 H 615.305 -6.89978 3.08977 0
M  V30 6570 H 616.573 -7.51461 2.07187 0
M  V30 6571 N 620.802 -1.09834 -1.13024 0
M  V30 6572 C 621.712 -0.753731 -2.22162 0
M  V30 6573 C 622.728 0.246105 -1.72251 0
M  V30 6574 O 623.904 0.0864051 -2.01215 0
M  V30 6575 C 620.969 -0.183958 -3.46212 0
M  V30 6576 C 620.03 -1.24028 -4.10993 0
M  V30 6577 C 619.263 -0.697597 -5.29121 0
M  V30 6578 O 619.486 0.478092 -5.68393 0
M  V30 6579 O 618.42 -1.4546 -5.84059 0
M  V30 6580 H 622.246 -1.66456 -2.5402 0
M  V30 6581 H 619.831 -0.873026 -1.21238 0
M  V30 6582 H 621.713 0.130257 -4.21199 0
M  V30 6583 H 620.388 0.699823 -3.16045 0
M  V30 6584 H 619.295 -1.60725 -3.37814 0
M  V30 6585 H 620.628 -2.09685 -4.45301 0
M  V30 6586 N 622.28 1.30327 -0.886154 0
M  V30 6587 C 623.528 1.9571 -0.504195 0
M  V30 6588 C 623.849 1.70294 0.950003 0
M  V30 6589 O 623.119 1.02718 1.66811 0
M  V30 6590 H 621.699 0.72412 -0.183465 0
M  V30 6591 H 624.361 1.58835 -1.12949 0
M  V30 6592 H 623.457 3.04704 -0.675431 0
M  V30 6593 N 623.758 0.647228 1.43697 0
M  V30 6594 C 624.708 -0.0702191 2.27892 0
M  V30 6595 C 625.692 -0.800601 1.39568 0
M  V30 6596 O 626.884 -0.684055 1.63247 0
M  V30 6597 C 624.013 -1.04008 3.27165 0
M  V30 6598 C 623.099 -0.308484 4.22977 0
M  V30 6599 N 623.49 0.671721 5.0132 0
M  V30 6600 C 621.788 -0.550751 4.42586 0
M  V30 6601 C 622.489 1.10543 5.711 0
M  V30 6602 N 621.465 0.440903 5.41809 0
M  V30 6603 H 625.267 0.682031 2.85877 0
M  V30 6604 H 622.781 0.474022 1.55328 0
M  V30 6605 H 624.778 -1.56881 3.86256 0
M  V30 6606 H 623.438 -1.79246 2.70742 0
M  V30 6607 H 624.449 1.0502 5.0714 0
M  V30 6608 H 621.126 -1.28476 3.97241 0
M  V30 6609 H 622.516 1.91614 6.43998 0
M  V30 6610 N 625.236 -1.5273 0.388769 0
M  V30 6611 C 626.168 -2.24081 -0.481704 0
M  V30 6612 C 627.181 -1.26307 -1.02715 0
M  V30 6613 O 628.37 -1.52386 -0.929565 0
M  V30 6614 C 625.47 -2.94315 -1.68024 0
M  V30 6615 C 624.643 -4.18791 -1.26226 0
M  V30 6616 C 623.702 -4.72028 -2.32542 0
M  V30 6617 O 622.728 -5.35129 -1.93972 0
M  V30 6618 N 623.93 -4.51838 -3.64448 0
M  V30 6619 H 626.695 -2.9942 0.129591 0
M  V30 6620 H 624.256 -1.60465 0.2151 0
M  V30 6621 H 626.248 -3.26831 -2.38671 0
M  V30 6622 H 624.818 -2.22287 -2.19789 0
M  V30 6623 H 624.038 -3.92318 -0.384703 0
M  V30 6624 H 625.326 -4.99668 -0.959647 0
M  V30 6625 H 624.724 -4.01468 -3.98547 0
M  V30 6626 H 623.281 -4.88845 -4.31131 0
M  V30 6627 N 626.714 -0.118576 -1.57153 0
M  V30 6628 C 627.644 0.828436 -2.1831 0
M  V30 6629 C 628.625 1.27758 -1.12303 0
M  V30 6630 O 629.81 1.34026 -1.40537 0
M  V30 6631 C 626.94 2.07876 -2.78217 0
M  V30 6632 C 625.894 1.76742 -3.89803 0
M  V30 6633 C 625.22 3.08801 -4.36516 0
M  V30 6634 C 626.52 1.03606 -5.11921 0
M  V30 6635 H 628.214 0.318824 -2.97698 0
M  V30 6636 H 625.76 0.151911 -1.43196 0
M  V30 6637 H 627.713 2.74584 -3.19659 0
M  V30 6638 H 626.437 2.61161 -1.96118 0
M  V30 6639 H 625.096 1.12424 -3.48936 0
M  V30 6640 H 624.744 3.6002 -3.51276 0
M  V30 6641 H 624.444 2.88743 -5.11763 0
M  V30 6642 H 625.968 3.76627 -4.80608 0
M  V30 6643 H 627.382 1.60467 -5.50385 0
M  V30 6644 H 625.779 0.936454 -5.92748 0
M  V30 6645 H 626.849 0.0227421 -4.84895 0
M  V30 6646 N 628.193 1.56834 0.155195 0
M  V30 6647 C 629.14 1.97646 1.19184 0
M  V30 6648 C 630.11 0.842788 1.4313 0
M  V30 6649 O 631.295 1.1042 1.55602 0
M  V30 6650 C 628.435 2.35527 2.52232 0
M  V30 6651 C 627.548 3.62147 2.35529 0
M  V30 6652 C 626.683 3.89167 3.61555 0
M  V30 6653 C 625.722 5.09084 3.39853 0
M  V30 6654 N 624.859 5.32156 4.5799 0
M  V30 6655 H 629.699 2.8601 0.836802 0
M  V30 6656 H 627.236 1.41507 0.401758 0
M  V30 6657 H 629.194 2.55516 3.29799 0
M  V30 6658 H 627.824 1.50253 2.85699 0
M  V30 6659 H 626.876 3.4998 1.49057 0
M  V30 6660 H 628.188 4.49871 2.15448 0
M  V30 6661 H 627.342 4.09611 4.47553 0
M  V30 6662 H 626.081 2.9985 3.84632 0
M  V30 6663 H 625.086 4.88522 2.52243 0
M  V30 6664 H 626.311 5.99947 3.18183 0
M  V30 6665 H 624.257 4.45791 4.81255 0
M  V30 6666 H 624.174 6.14133 4.40882 0
M  V30 6667 H 625.442 5.57091 5.45225 0
M  V30 6668 N 629.671 -0.424282 1.51781 0
M  V30 6669 C 630.948 -1.18464 1.55646 0
M  V30 6670 C 631.328 -2.08529 0.328438 0
M  V30 6671 O 630.676 -2.17969 -0.685693 0
M  V30 6672 C 630.886 -1.97514 2.87731 0
M  V30 6673 C 632.234 -2.54106 3.40169 0
M  V30 6674 O 633.258 -2.07711 2.89369 0
M  V30 6675 O 632.117 -3.38759 4.28841 0
M  V30 6676 H 629.211 -0.540055 0.626314 0
M  V30 6677 H 631.757 -0.432291 1.64102 0
M  V30 6678 H 630.529 -1.31444 3.68562 0
M  V30 6679 H 630.152 -2.79787 2.82498 0
M  V30 6680 N 631.149 -1.42148 -0.680565 0
M  V30 6681 C 632.389 -1.4379 -1.45271 0
M  V30 6682 C 632.753 -0.0504426 -1.91934 0
M  V30 6683 O 633.954 0.0583916 -2.68737 0
M  V30 6684 C 632.225 -2.42904 -2.62168 0
M  V30 6685 S 633.784 -2.63201 -3.51099 0
M  V30 6686 H 630.602 -0.509185 -0.496237 0
M  V30 6687 H 633.204 -1.78706 -0.792744 0
M  V30 6688 H 631.908 -3.4249 -2.26116 0
M  V30 6689 H 631.439 -2.09394 -3.33043 0
M  V30 6690 H 633.454 -1.91068 -4.57938 0
M  V30 6691 N 632.627 0.916307 -1.28225 0
M  V30 6692 C 633.855 1.69901 -1.18073 0
M  V30 6693 C 634.27 1.86988 0.260968 0
M  V30 6694 O 633.627 1.39505 1.17663 0
M  V30 6695 C 633.678 3.09254 -1.87201 0
M  V30 6696 O 633.399 2.92959 -3.2574 0
M  V30 6697 C 634.9 4.0362 -1.83319 0
M  V30 6698 H 632.12 0.531181 -0.409985 0
M  V30 6699 H 634.664 1.14703 -1.69303 0
M  V30 6700 H 632.819 3.61277 -1.39848 0
M  V30 6701 H 633.233 3.81139 -3.60324 0
M  V30 6702 H 634.707 4.98873 -2.36282 0
M  V30 6703 H 635.184 4.3176 -0.805007 0
M  V30 6704 H 635.79 3.57524 -2.3034 0
M  V30 6705 N 634.105 1.10431 1.1244 0
M  V30 6706 C 635.015 0.765502 2.21759 0
M  V30 6707 C 636.031 -0.236966 1.72379 0
M  V30 6708 O 637.207 -0.0757329 2.01258 0
M  V30 6709 C 634.272 0.202316 3.46109 0
M  V30 6710 C 633.333 1.26205 4.1033 0
M  V30 6711 C 632.566 0.725648 5.28744 0
M  V30 6712 O 632.789 -0.447942 5.68638 0
M  V30 6713 O 631.723 1.48555 5.83279 0
M  V30 6714 H 635.549 1.67801 2.53133 0
M  V30 6715 H 633.134 0.879443 1.20773 0
M  V30 6716 H 635.016 -0.107918 4.21262 0
M  V30 6717 H 633.691 -0.683052 3.16411 0
M  V30 6718 H 632.598 1.62514 3.36957 0
M  V30 6719 H 633.931 2.12044 4.44183 0
M  V30 6720 N 635.583 -1.29855 0.893053 0
M  V30 6721 C 636.999 -1.48366 0.588199 0
M  V30 6722 C 637.199 -1.81654 -0.872018 0
M  V30 6723 O 636.255 -1.909 -1.65268 0
M  V30 6724 C 637.568 -2.60136 1.5083 0
M  V30 6725 C 639.116 -2.74014 1.51279 0
M  V30 6726 C 639.591 -3.88905 2.41902 0
M  V30 6727 N 641.082 -3.96228 2.39911 0
M  V30 6728 C 641.817 -4.84458 3.06738 0
M  V30 6729 N 641.313 -5.77426 3.8282 0
M  V30 6730 N 643.106 -4.77894 2.95929 0
M  V30 6731 H 635.257 -1.06522 1.83757 0
M  V30 6732 H 637.52 -0.528495 0.787018 0
M  V30 6733 H 637.226 -2.42383 2.54839 0
M  V30 6734 H 637.1 -3.56793 1.22388 0
M  V30 6735 H 639.487 -2.91167 0.480179 0
M  V30 6736 H 639.568 -1.77952 1.83757 0
M  V30 6737 H 639.212 -3.72508 3.45253 0
M  V30 6738 H 639.142 -4.84322 2.06737 0
M  V30 6739 H 641.633 -3.29728 1.84629 0
M  V30 6740 H 641.946 -6.41529 4.30883 0
M  V30 6741 H 640.291 -5.77332 3.86927 0
M  V30 6742 H 643.482 -4.04248 2.36012 0
M  V30 6743 H 643.655 -5.46444 3.48286 0
M  V30 6744 N 637.061 -0.65484 -1.43351 0
M  V30 6745 C 637.993 0.0744757 -2.29079 0
M  V30 6746 C 639.006 0.7855 -1.42596 0
M  V30 6747 O 640.195 0.642986 -1.66517 0
M  V30 6748 C 637.295 1.12859 -3.19556 0
M  V30 6749 C 636.468 0.495381 -4.34586 0
M  V30 6750 C 635.527 1.44659 -5.05925 0
M  V30 6751 O 634.553 0.954567 -5.61139 0
M  V30 6752 N 635.755 2.78051 -5.09576 0
M  V30 6753 H 638.52 -0.661346 -2.92312 0
M  V30 6754 H 636.081 -0.497744 -1.54059 0
M  V30 6755 H 638.073 1.76577 -3.64147 0
M  V30 6756 H 636.643 1.76636 -2.57912 0
M  V30 6757 H 635.863 -0.32092 -3.92892 0
M  V30 6758 H 637.151 0.0534203 -5.08772 0
M  V30 6759 H 636.549 3.20584 -4.66093 0
M  V30 6760 H 635.106 3.37068 -5.57878 0
M  V30 6761 N 638.539 1.52521 -0.396863 0
M  V30 6762 C 639.502 2.2527 0.422604 0
M  V30 6763 C 640.502 1.27184 0.983913 0
M  V30 6764 O 641.692 1.51222 0.864723 0
M  V30 6765 C 638.824 3.01356 1.59365 0
M  V30 6766 H 640.017 2.99133 -0.214416 0
M  V30 6767 H 637.57 1.55587 -0.149128 0
M  V30 6768 H 638.305 2.31813 2.26789 0
M  V30 6769 H 638.09 3.73357 1.19779 0
M  V30 6770 H 639.58 3.56571 2.17363 0
M  V30 6771 N 640.017 0.126909 1.57088 0
M  V30 6772 C 640.965 -0.837618 2.16995 0
M  V30 6773 C 641.959 -1.26974 1.12133 0
M  V30 6774 O 643.165 -1.24056 1.30423 0
M  V30 6775 H 639.54 -0.288256 0.694559 0
M  V30 6776 H 641.511 -0.307957 2.96807 0
M  V30 6777 C 640.26 -2.07474 2.79016 0
M  V30 6778 H 639.583 -1.75117 3.59408 0
M  V30 6779 H 641.023 -2.72949 3.24461 0
M  V30 6780 C 639.482 -2.86967 1.76498 0
M  V30 6781 O 640.012 -3.82625 1.22316 0
M  V30 6782 N 638.218 -2.51111 1.46258 0
M  V30 6783 H 637.765 -1.73389 1.90509 0
M  V30 6784 H 637.723 -3.04594 0.779085 0
M  V30 6785 N 641.495 -1.56914 -0.146875 0
M  V30 6786 C 642.742 -1.83356 -0.859467 0
M  V30 6787 C 643.07 -0.707811 -1.81164 0
M  V30 6788 O 642.325 0.303155 -1.93338 0
M  V30 6789 C 642.624 -3.16128 -1.66727 0
M  V30 6790 C 642.29 -4.42586 -0.861881 0
M  V30 6791 C 640.952 -4.76929 -0.639687 0
M  V30 6792 C 643.304 -5.20344 -0.298643 0
M  V30 6793 C 640.632 -5.86491 0.156451 0
M  V30 6794 C 642.984 -6.30742 0.484536 0
M  V30 6795 C 641.648 -6.63635 0.717306 0
M  V30 6796 H 640.918 -0.670947 -0.314501 0
M  V30 6797 H 643.565 -1.91104 -0.123108 0
M  V30 6798 H 641.87 -3.03831 -2.47374 0
M  V30 6799 H 643.567 -3.33802 -2.2221 0
M  V30 6800 H 640.157 -4.15662 -1.04513 0
M  V30 6801 H 644.341 -4.94186 -0.457585 0
M  V30 6802 H 639.597 -6.10419 0.346292 0
M  V30 6803 H 643.771 -6.90188 0.928105 0
M  V30 6804 H 641.398 -7.48367 1.33607 0
M  V30 6805 N 642.974 0.416227 -1.52004 0
M  V30 6806 C 643.904 1.51365 -1.77795 0
M  V30 6807 C 644.885 1.58059 -0.628601 0
M  V30 6808 O 646.07 1.73447 -0.873478 0
M  V30 6809 C 643.2 2.89256 -1.92219 0
M  V30 6810 C 642.154 2.97415 -3.0778 0
M  V30 6811 C 641.48 4.37492 -3.07417 0
M  V30 6812 C 642.78 2.69551 -4.47369 0
M  V30 6813 H 644.474 1.30033 -2.69688 0
M  V30 6814 H 642.02 0.624112 -1.29772 0
M  V30 6815 H 643.973 3.66008 -2.08845 0
M  V30 6816 H 642.697 3.11866 -0.969917 0
M  V30 6817 H 641.356 2.23107 -2.90893 0
M  V30 6818 H 641.004 4.571 -2.09925 0
M  V30 6819 H 640.704 4.43877 -3.85029 0
M  V30 6820 H 642.228 5.16188 -3.26162 0
M  V30 6821 H 643.642 3.36028 -4.64497 0
M  V30 6822 H 642.039 2.87321 -5.26846 0
M  V30 6823 H 643.109 1.65029 -4.55953 0
M  V30 6824 N 644.452 1.42507 0.673017 0
M  V30 6825 C 645.868 1.25472 0.986355 0
M  V30 6826 C 646.068 0.160181 2.00862 0
M  V30 6827 O 645.124 -0.467993 2.48125 0
M  V30 6828 C 646.437 2.61219 1.48947 0
M  V30 6829 C 647.985 2.68589 1.60715 0
M  V30 6830 C 648.46 4.04707 2.14422 0
M  V30 6831 N 649.951 4.0667 2.21752 0
M  V30 6832 C 650.686 5.0881 2.64386 0
M  V30 6833 N 650.182 6.21332 3.0646 0
M  V30 6834 N 651.975 4.96166 2.64151 0
M  V30 6835 H 644.126 2.124 -0.00378532 0
M  V30 6836 H 646.389 0.946046 0.0608367 0
M  V30 6837 H 646.095 3.42179 0.812812 0
M  V30 6838 H 645.969 2.85261 2.46791 0
M  V30 6839 H 648.356 1.87974 2.27486 0
M  V30 6840 H 648.437 2.48333 0.613552 0
M  V30 6841 H 648.081 4.8578 1.48258 0
M  V30 6842 H 648.011 4.22315 3.14575 0
M  V30 6843 H 650.502 3.25438 1.92089 0
M  V30 6844 H 650.815 6.95118 3.37684 0
M  V30 6845 H 649.16 6.24835 3.04313 0
M  V30 6846 H 652.351 4.07334 2.30644 0
M  V30 6847 H 652.524 5.759 2.97057 0
M  V30 6848 N 645.93 -0.909495 1.28709 0
M  V30 6849 C 646.84 -2.04558 1.14861 0
M  V30 6850 C 647.856 -1.73842 0.0741621 0
M  V30 6851 O 649.032 -1.99383 0.2843 0
M  V30 6852 C 646.097 -3.36957 0.816148 0
M  V30 6853 C 645.158 -3.81255 1.97341 0
M  V30 6854 C 644.391 -5.07335 1.65671 0
M  V30 6855 O 644.614 -5.67514 0.573053 0
M  V30 6856 O 643.548 -5.47449 2.50167 0
M  V30 6857 H 647.374 -2.19161 2.10243 0
M  V30 6858 H 644.959 -1.03159 1.08068 0
M  V30 6859 H 646.841 -4.16436 0.644873 0
M  V30 6860 H 645.516 -3.2352 -0.107983 0
M  V30 6861 H 644.423 -3.02584 2.19986 0
M  V30 6862 H 645.756 -3.99261 2.87839 0
M  V30 6863 N 647.408 -1.11026 -1.11852 0
M  V30 6864 C 648.685 -0.768347 -1.79877 0
M  V30 6865 C 649.065 0.744261 -1.97545 0
M  V30 6866 O 648.413 1.67271 -1.55669 0
M  V30 6867 C 648.623 -1.52648 -3.13846 0
M  V30 6868 C 649.971 -1.70297 -3.88953 0
M  V30 6869 O 650.995 -1.49037 -3.23522 0
M  V30 6870 O 649.854 -2.05593 -5.06353 0
M  V30 6871 H 646.948 -0.277891 -0.778913 0
M  V30 6872 H 649.494 -1.21343 -1.18633 0
M  V30 6873 H 648.266 -2.55564 -2.96315 0
M  V30 6874 H 647.889 -1.07466 -3.82801 0
M  V30 6875 N 648.886 1.2938 -0.899927 0
M  V30 6876 C 649.816 2.30144 -0.39446 0
M  V30 6877 C 650.797 1.61611 0.530639 0
M  V30 6878 O 651.982 1.89119 0.441319 0
M  V30 6879 C 649.112 3.45229 0.37868 0
M  V30 6880 C 648.066 4.25564 -0.456012 0
M  V30 6881 C 647.392 5.32848 0.444637 0
M  V30 6882 C 648.692 4.93651 -1.70605 0
M  V30 6883 H 650.386 2.72673 -1.23653 0
M  V30 6884 H 647.932 1.31086 -0.596034 0
M  V30 6885 H 649.885 4.14797 0.743037 0
M  V30 6886 H 648.609 3.01545 1.25453 0
M  V30 6887 H 647.268 3.57704 -0.802704 0
M  V30 6888 H 646.916 4.85408 1.31863 0
M  V30 6889 H 646.616 5.87497 -0.110154 0
M  V30 6890 H 648.14 6.05268 0.805182 0
M  V30 6891 H 649.554 5.55655 -1.41141 0
M  V30 6892 H 647.951 5.58233 -2.20217 0
M  V30 6893 H 649.021 4.18926 -2.4419 0
M  V30 6894 N 650.364 0.662433 1.43002 0
M  V30 6895 C 651.327 -0.0142016 2.29196 0
M  V30 6896 C 652.327 -0.741394 1.42688 0
M  V30 6897 O 653.517 -0.581257 1.64216 0
M  V30 6898 C 650.649 -1.03084 3.24941 0
M  V30 6899 H 651.842 0.7443 2.90517 0
M  V30 6900 H 649.395 0.424133 1.50435 0
M  V30 6901 H 650.13 -1.81826 2.68533 0
M  V30 6902 H 649.915 -0.512946 3.8873 0
M  V30 6903 H 651.405 -1.50308 3.89612 0
M  V30 6904 N 651.842 -1.52309 0.404946 0
M  V30 6905 C 653.089 -2.01767 -0.1722 0
M  V30 6906 C 653.417 -1.29075 -1.45498 0
M  V30 6907 O 652.672 -0.3843 -1.9189 0
M  V30 6908 C 652.971 -3.54284 -0.470895 0
M  V30 6909 C 652.637 -4.45079 0.722194 0
M  V30 6910 C 651.299 -4.69617 1.04946 0
M  V30 6911 C 653.651 -4.98555 1.51962 0
M  V30 6912 C 650.979 -5.44878 2.17543 0
M  V30 6913 C 653.331 -5.75049 2.63632 0
M  V30 6914 C 651.995 -5.9786 2.9685 0
M  V30 6915 H 651.265 -0.738316 -0.0630125 0
M  V30 6916 H 653.912 -1.83566 0.545506 0
M  V30 6917 H 652.217 -3.70642 -1.27012 0
M  V30 6918 H 653.914 -3.90058 -0.930346 0
M  V30 6919 H 650.504 -4.26155 0.457131 0
M  V30 6920 H 654.688 -4.79509 1.28002 0
M  V30 6921 H 649.944 -5.60762 2.43631 0
M  V30 6922 H 654.118 -6.15483 3.25813 0
M  V30 6923 H 651.745 -6.5596 3.84215 0
M  V30 6924 N 653.32 -0.135238 -1.57019 0
M  V30 6925 C 654.731 0.387521 -1.82634 0
M  V30 6926 C 655.082 1.65528 -1.05332 0
M  V30 6927 O 654.207 2.14381 -0.294926 0
M  V30 6928 C 654.802 0.709852 -3.3128 0
M  V30 6929 C 653.361 1.17718 -3.57518 0
M  V30 6930 C 652.508 0.194183 -2.76619 0
M  V30 6931 H 655.459 -0.360126 -1.5456 0
M  V30 6932 H 655.48 1.5657 -3.46794 0
M  V30 6933 H 654.992 -0.213024 -3.87515 0
M  V30 6934 H 653.093 2.1164 -3.06658 0
M  V30 6935 H 653.206 1.11128 -4.66034 0
M  V30 6936 H 651.57 0.684478 -2.4533 0
M  V30 6937 H 652.353 -0.722076 -3.3562 0
M  V30 6938 N 654.798 1.5699 0.138552 0
M  V30 6939 C 655.73 1.95515 1.1961 0
M  V30 6940 C 656.743 0.852002 1.38726 0
M  V30 6941 O 657.932 1.13038 1.38147 0
M  V30 6942 C 655.032 2.2213 2.55952 0
M  V30 6943 C 654.205 3.53424 2.57702 0
M  V30 6944 C 653.264 3.6848 3.75645 0
M  V30 6945 O 652.29 4.4079 3.60129 0
M  V30 6946 N 653.492 3.05777 4.93438 0
M  V30 6947 H 656.257 2.86838 0.868557 0
M  V30 6948 H 653.818 1.58542 0.328033 0
M  V30 6949 H 655.81 2.29435 3.33379 0
M  V30 6950 H 654.38 1.3703 2.80965 0
M  V30 6951 H 653.6 3.57484 1.6613 0
M  V30 6952 H 654.888 4.39759 2.55909 0
M  V30 6953 H 654.286 2.46961 5.08947 0
M  V30 6954 H 652.843 3.18631 5.6861 0
M  V30 6955 N 656.276 -0.40816 1.52223 0
M  V30 6956 C 657.524 -1.15274 1.66001 0
M  V30 6957 C 657.845 -1.91003 0.392803 0
M  V30 6958 O 657.115 -1.8673 -0.592336 0
M  V30 6959 H 655.695 -0.428526 0.611861 0
M  V30 6960 H 658.357 -0.46512 1.89269 0
M  V30 6961 H 657.453 -1.86628 2.50153 0
M  V30 6962 N 657.755 -1.42862 -0.66545 0
M  V30 6963 C 658.702 -1.4707 -1.77874 0
M  V30 6964 C 659.672 -0.321654 -1.62956 0
M  V30 6965 O 660.857 -0.52707 -1.83376 0
M  V30 6966 C 657.997 -1.38788 -3.15962 0
M  V30 6967 C 657.11 -2.63801 -3.42101 0
M  V30 6968 C 656.245 -2.47594 -4.69969 0
M  V30 6969 C 655.284 -3.67936 -4.89172 0
M  V30 6970 N 654.421 -3.50614 -6.08288 0
M  V30 6971 H 659.261 -2.42204 -1.73613 0
M  V30 6972 H 656.798 -1.20239 -0.847401 0
M  V30 6973 H 658.756 -1.31982 -3.95773 0
M  V30 6974 H 657.386 -0.472431 -3.19324 0
M  V30 6975 H 656.438 -2.80935 -2.56475 0
M  V30 6976 H 657.75 -3.53228 -3.52181 0
M  V30 6977 H 656.904 -2.38427 -5.57886 0
M  V30 6978 H 655.643 -1.55672 -4.62188 0
M  V30 6979 H 654.648 -3.77525 -3.99694 0
M  V30 6980 H 655.873 -4.60851 -4.98792 0
M  V30 6981 H 653.819 -2.61417 -6.01662 0
M  V30 6982 H 653.736 -4.33634 -6.19272 0
M  V30 6983 H 655.004 -3.45276 -6.98859 0
M  V30 6984 N 659.233 0.902656 -1.29189 0
M  V30 6985 C 660.196 1.98797 -1.14071 0
M  V30 6986 C 661.196 1.60615 -0.0770549 0
M  V30 6987 O 662.386 1.71165 -0.323753 0
M  V30 6988 C 659.518 3.32688 -0.743739 0
M  V30 6989 H 660.711 2.13637 -2.10473 0
M  V30 6990 H 658.264 1.08678 -1.12334 0
M  V30 6991 H 658.999 3.23549 0.220554 0
M  V30 6992 H 658.784 3.61765 -1.51223 0
M  V30 6993 H 660.274 4.12337 -0.660935 0
M  V30 6994 N 660.711 1.11618 1.11262 0
M  V30 6995 C 661.959 0.864469 1.82678 0
M  V30 6996 C 662.28 -0.611564 1.85162 0
M  V30 6997 O 661.55 -1.44429 1.32352 0
M  V30 6998 H 660.13 0.316821 0.676486 0
M  V30 6999 H 662.792 1.40894 1.34666 0
M  V30 7000 H 661.888 1.23832 2.86482 0
M  V30 7001 N 662.189 -1.289 0.906776 0
M  V30 7002 C 663.099 -2.31256 0.394707 0
M  V30 7003 C 664.115 -1.66231 -0.514121 0
M  V30 7004 O 665.291 -1.97347 -0.401994 0
M  V30 7005 C 662.356 -3.44792 -0.363191 0
M  V30 7006 C 661.417 -4.25391 0.578012 0
M  V30 7007 C 660.65 -5.33506 -0.143811 0
M  V30 7008 O 660.873 -5.53786 -1.36665 0
M  V30 7009 O 659.807 -5.99673 0.5173 0
M  V30 7010 H 663.633 -2.77051 1.24405 0
M  V30 7011 H 661.218 -1.33466 0.671346 0
M  V30 7012 H 663.1 -4.139 -0.791503 0
M  V30 7013 H 661.775 -3.01093 -1.18848 0
M  V30 7014 H 660.682 -3.58899 1.05558 0
M  V30 7015 H 662.015 -4.72752 1.36992 0
M  V30 7016 N 663.667 -0.670007 -1.42649 0
M  V30 7017 C 664.597 -0.00258501 -2.335 0
M  V30 7018 C 665.578 0.794364 -1.50412 0
M  V30 7019 O 666.763 0.75248 -1.79029 0
M  V30 7020 C 663.893 0.952748 -3.33976 0
M  V30 7021 C 662.847 0.264733 -4.2718 0
M  V30 7022 C 662.173 1.33267 -5.17826 0
M  V30 7023 C 663.473 -0.853289 -5.15283 0
M  V30 7024 H 665.167 -0.761326 -2.89559 0
M  V30 7025 H 662.713 -0.367561 -1.3923 0
M  V30 7026 H 664.666 1.4287 -3.96442 0
M  V30 7027 H 663.39 1.74285 -2.7621 0
M  V30 7028 H 662.049 -0.190938 -3.66102 0
M  V30 7029 H 661.697 2.11464 -4.5639 0
M  V30 7030 H 661.397 0.877476 -5.81011 0
M  V30 7031 H 662.921 1.80965 -5.83167 0
M  V30 7032 H 664.335 -0.458763 -5.71462 0
M  V30 7033 H 662.732 -1.23398 -5.87276 0
M  V30 7034 H 663.802 -1.70412 -4.53969 0
M  V30 7035 N 665.145 1.52092 -0.413018 0
M  V30 7036 C 666.37 2.06756 0.163338 0
M  V30 7037 C 666.795 1.28073 1.37764 0
M  V30 7038 O 666.153 0.312015 1.78595 0
M  V30 7039 C 666.201 3.57278 0.488322 0
M  V30 7040 O 665.305 3.80986 1.57871 0
M  V30 7041 H 664.646 0.663882 0.0125068 0
M  V30 7042 H 667.176 1.95988 -0.587339 0
M  V30 7043 H 667.186 4.01125 0.745836 0
M  V30 7044 H 665.861 4.13978 -0.399327 0
M  V30 7045 H 664.438 3.49017 1.31306 0
M  V30 7046 N 666.623 0.143563 1.56945 0
M  V30 7047 C 667.848 -0.518701 2.00809 0
M  V30 7048 C 668.273 -1.5785 1.02298 0
M  V30 7049 O 667.631 -1.813 -0.0017839 0
M  V30 7050 C 667.679 -1.09929 3.43436 0
M  V30 7051 O 666.783 -2.21425 3.47915 0
M  V30 7052 H 666.124 -0.127215 0.6517 0
M  V30 7053 H 668.654 0.239283 2.03196 0
M  V30 7054 H 668.664 -1.4288 3.82164 0
M  V30 7055 H 667.339 -0.323162 4.14643 0
M  V30 7056 H 665.916 -1.89728 3.21026 0
M  V30 7057 N 668.101 -1.57061 -0.130224 0
M  V30 7058 C 669.011 -2.02802 -1.17934 0
M  V30 7059 C 670.027 -0.946378 -1.46013 0
M  V30 7060 O 671.203 -1.25708 -1.57351 0
M  V30 7061 C 668.268 -2.41368 -2.48882 0
M  V30 7062 C 667.329 -3.63561 -2.28301 0
M  V30 7063 C 666.562 -4.00279 -3.53005 0
M  V30 7064 O 666.785 -3.37463 -4.59864 0
M  V30 7065 O 665.719 -4.93441 -3.44673 0
M  V30 7066 H 669.545 -2.92394 -0.820958 0
M  V30 7067 H 667.13 -1.45475 -0.340197 0
M  V30 7068 H 669.012 -2.66958 -3.26054 0
M  V30 7069 H 667.687 -1.54926 -2.84217 0
M  V30 7070 H 666.594 -3.43136 -1.49025 0
M  V30 7071 H 667.927 -4.50673 -1.97875 0
M  V30 7072 N 669.579 0.400081 -1.52437 0
M  V30 7073 C 670.511 1.50729 -1.72666 0
M  V30 7074 C 671.524 1.51058 -0.607075 0
M  V30 7075 O 672.713 1.5516 -0.88248 0
M  V30 7076 C 669.813 2.89604 -1.76019 0
M  V30 7077 C 668.986 3.13365 -3.05157 0
M  V30 7078 C 668.045 4.32163 -3.00203 0
M  V30 7079 O 667.071 4.29004 -3.74092 0
M  V30 7080 N 668.273 5.3776 -2.18619 0
M  V30 7081 H 671.038 1.33767 -2.68191 0
M  V30 7082 H 668.599 0.58948 -1.50787 0
M  V30 7083 H 670.591 3.67159 -1.70225 0
M  V30 7084 H 669.161 2.99979 -0.879284 0
M  V30 7085 H 668.381 2.23774 -3.24529 0
M  V30 7086 H 669.669 3.26089 -3.90568 0
M  V30 7087 H 669.067 5.43177 -1.58035 0
M  V30 7088 H 667.624 6.14023 -2.18674 0
M  V30 7089 N 671.057 1.43213 0.657864 0
M  V30 7090 C 672.285 1.48015 1.44566 0
M  V30 7091 C 672.7 0.0965951 1.88553 0
M  V30 7092 O 672.057 -0.892221 1.59203 0
M  V30 7093 C 672.108 2.42199 2.68369 0
M  V30 7094 O 671.829 3.75173 2.26223 0
M  V30 7095 C 673.33 2.56195 3.61772 0
M  V30 7096 H 670.55 0.502861 0.444266 0
M  V30 7097 H 673.094 1.87907 0.806917 0
M  V30 7098 H 671.249 2.05514 3.28394 0
M  V30 7099 H 671.663 4.25776 3.06293 0
M  V30 7100 H 673.137 3.26182 4.4532 0
M  V30 7101 H 673.614 1.60534 4.0881 0
M  V30 7102 H 674.22 2.93671 3.07632 0
M  V30 7103 N 672.536 -0.895792 1.29666 0
M  V30 7104 C 673.952 -1.17726 1.07763 0
M  V30 7105 C 674.152 -2.00794 -0.168576 0
M  V30 7106 O 673.208 -2.37213 -0.865244 0
M  V30 7107 C 674.521 -1.89441 2.33522 0
M  V30 7108 C 676.069 -2.02251 2.3888 0
M  V30 7109 C 676.544 -2.77378 3.64452 0
M  V30 7110 N 678.035 -2.8493 3.65198 0
M  V30 7111 C 678.77 -3.43606 4.59045 0
M  V30 7112 N 678.266 -4.03417 5.63228 0
M  V30 7113 N 680.059 -3.41317 4.46608 0
M  V30 7114 H 672.21 -0.341652 2.09634 0
M  V30 7115 H 674.473 -0.213865 0.923561 0
M  V30 7116 H 674.179 -1.35842 3.24407 0
M  V30 7117 H 674.053 -2.89893 2.41334 0
M  V30 7118 H 676.44 -2.55025 1.4848 0
M  V30 7119 H 676.521 -1.0092 2.3505 0
M  V30 7120 H 676.165 -2.25279 4.55205 0
M  V30 7121 H 676.095 -3.79062 3.65541 0
M  V30 7122 H 678.586 -2.42453 2.89871 0
M  V30 7123 H 678.899 -4.46224 6.30955 0
M  V30 7124 H 677.244 -4.01868 5.67033 0
M  V30 7125 H 680.435 -2.93812 3.64407 0
M  V30 7126 H 680.608 -3.86751 5.1993 0
M  V30 7127 N 674.014 -1.12206 -1.10668 0
M  V30 7128 C 674.977 -0.790867 -2.15123 0
M  V30 7129 C 675.977 0.193618 -1.5963 0
M  V30 7130 O 677.167 -0.0318728 -1.74171 0
M  V30 7131 C 674.299 -0.174797 -3.40452 0
M  V30 7132 H 675.492 -1.7163 -2.45933 0
M  V30 7133 H 673.045 -0.924993 -1.2599 0
M  V30 7134 H 673.78 0.760478 -3.15257 0
M  V30 7135 H 673.565 -0.88358 -3.82015 0
M  V30 7136 H 675.055 0.0405162 -4.1758 0
M  V30 7137 N 675.492 1.28418 -0.913599 0
M  V30 7138 C 676.44 2.29272 -0.392037 0
M  V30 7139 C 677.434 1.61344 0.516198 0
M  V30 7140 O 678.64 1.75557 0.39746 0
M  V30 7141 H 675.015 0.744178 -0.108178 0
M  V30 7142 H 676.986 2.70691 -1.25574 0
M  V30 7143 C 675.735 3.45905 0.352815 0
M  V30 7144 H 675.058 3.98378 -0.336848 0
M  V30 7145 H 676.498 4.18473 0.682398 0
M  V30 7146 C 674.957 2.98572 1.56065 0
M  V30 7147 O 675.487 3.01033 2.65974 0
M  V30 7148 N 673.693 2.54235 1.40759 0
M  V30 7149 H 673.24 2.52432 0.513403 0
M  V30 7150 H 673.198 2.22925 2.21702 0
M  V30 7151 N 676.97 0.677563 1.42291 0
M  V30 7152 C 678.195 0.207901 2.06355 0
M  V30 7153 C 678.62 -1.12723 1.50583 0
M  V30 7154 O 677.978 -1.70171 0.62543 0
M  V30 7155 C 678.026 0.156489 3.6026 0
M  V30 7156 O 677.13 -0.874162 4.03029 0
M  V30 7157 H 676.471 0.106056 0.655475 0
M  V30 7158 H 679.001 0.927354 1.82377 0
M  V30 7159 H 679.011 -0.0187258 4.07996 0
M  V30 7160 H 677.686 1.13101 4.00226 0
M  V30 7161 H 676.263 -0.669764 3.66836 0
M  V30 7162 N 678.448 -1.51871 0.421078 0
M  V30 7163 C 679.859 -1.86644 -0.0457991 0
M  V30 7164 C 680.21 -1.33919 -1.43388 0
M  V30 7165 O 679.335 -0.683316 -2.05328 0
M  V30 7166 C 679.93 -3.38681 -0.0898844 0
M  V30 7167 C 678.489 -3.73049 -0.501127 0
M  V30 7168 C 677.636 -2.75485 0.316723 0
M  V30 7169 H 680.587 -1.45327 0.637635 0
M  V30 7170 H 680.608 -3.69636 -0.902734 0
M  V30 7171 H 680.12 -3.77025 0.920513 0
M  V30 7172 H 678.221 -3.40288 -1.51773 0
M  V30 7173 H 678.334 -4.78512 -0.237217 0
M  V30 7174 H 676.698 -2.53725 -0.222663 0
M  V30 7175 H 677.481 -3.16671 1.32569 0
M  V30 7176 N 679.926 -0.151884 -1.56866 0
M  V30 7177 C 681.154 0.504813 -2.00647 0
M  V30 7178 C 681.569 1.58098 -1.03201 0
M  V30 7179 O 680.926 1.82476 -0.0297814 0
M  V30 7180 C 680.977 1.10099 -3.44326 0
M  V30 7181 O 680.698 0.0678021 -4.38048 0
M  V30 7182 C 682.199 1.83782 -4.03409 0
M  V30 7183 H 679.419 0.130989 -0.65809 0
M  V30 7184 H 681.963 -0.247903 -2.02992 0
M  V30 7185 H 680.118 1.8043 -3.42817 0
M  V30 7186 H 680.532 0.505237 -5.22061 0
M  V30 7187 H 682.006 2.2078 -5.05925 0
M  V30 7188 H 682.483 2.72557 -3.44397 0
M  V30 7189 H 683.089 1.18138 -4.08563 0
M  V30 7190 N 681.404 1.57128 0.121893 0
M  V30 7191 C 682.629 1.89254 0.848385 0
M  V30 7192 C 683.054 0.743527 1.72781 0
M  V30 7193 O 682.412 -0.306056 1.78698 0
M  V30 7194 C 682.46 3.20113 1.66012 0
M  V30 7195 O 681.564 3.05815 2.76679 0
M  V30 7196 H 680.905 0.621103 0.234793 0
M  V30 7197 H 683.435 2.0433 0.10516 0
M  V30 7198 H 683.445 3.52761 2.04996 0
M  V30 7199 H 682.12 4.03336 1.01452 0
M  V30 7200 H 680.697 2.84627 2.40918 0
M  V30 7201 N 682.882 -0.391992 1.52647 0
M  V30 7202 C 684.298 -0.731848 1.41831 0
M  V30 7203 C 684.498 -1.9423 0.536361 0
M  V30 7204 O 683.554 -2.52499 0.00866571 0
M  V30 7205 C 684.867 -0.969743 2.84634 0
M  V30 7206 C 686.415 -1.0714 2.94092 0
M  V30 7207 C 686.89 -1.34195 4.37899 0
M  V30 7208 N 688.381 -1.41023 4.41211 0
M  V30 7209 C 689.116 -1.63616 5.49561 0
M  V30 7210 N 688.612 -1.83699 6.68002 0
M  V30 7211 N 690.405 -1.65771 5.371 0
M  V30 7212 H 682.556 0.404547 2.08512 0
M  V30 7213 H 684.819 0.11879 0.940528 0
M  V30 7214 H 684.525 -0.152465 3.51369 0
M  V30 7215 H 684.399 -1.88523 3.26709 0
M  V30 7216 H 686.786 -1.87925 2.27526 0
M  V30 7217 H 686.867 -0.133887 2.55449 0
M  V30 7218 H 686.511 -0.539207 5.0503 0
M  V30 7219 H 686.441 -2.29226 4.74092 0
M  V30 7220 H 688.932 -1.27223 3.55841 0
M  V30 7221 H 689.245 -2.00437 7.46354 0
M  V30 7222 H 687.59 -1.8093 6.71036 0
M  V30 7223 H 690.781 -1.4963 4.43541 0
M  V30 7224 H 690.954 -1.83038 6.21612 0
M  V30 7225 N 684.36 -1.4356 -0.65026 0
M  V30 7226 C 685.27 -1.514 -1.79207 0
M  V30 7227 C 686.286 -0.400895 -1.69319 0
M  V30 7228 O 687.462 -0.655458 -1.90436 0
M  V30 7229 C 684.527 -1.43737 -3.155 0
M  V30 7230 C 683.588 -2.65743 -3.37163 0
M  V30 7231 C 682.821 -2.58436 -4.66954 0
M  V30 7232 O 683.044 -1.63374 -5.46503 0
M  V30 7233 O 681.978 -3.48984 -4.90402 0
M  V30 7234 H 685.804 -2.47825 -1.75547 0
M  V30 7235 H 683.389 -1.25594 -0.809111 0
M  V30 7236 H 685.271 -1.41916 -3.96784 0
M  V30 7237 H 683.946 -0.504488 -3.19745 0
M  V30 7238 H 682.853 -2.73136 -2.55632 0
M  V30 7239 H 684.186 -3.58014 -3.37768 0
M  V30 7240 N 685.838 0.888903 -1.30139 0
M  V30 7241 C 686.768 2.01046 -1.18755 0
M  V30 7242 C 687.749 1.69916 -0.0791438 0
M  V30 7243 O 688.934 1.92445 -0.260498 0
M  V30 7244 C 686.064 3.36109 -0.874518 0
M  V30 7245 C 685.018 3.81486 -1.94043 0
M  V30 7246 C 684.344 5.13796 -1.48047 0
M  V30 7247 C 685.644 4.00637 -3.35093 0
M  V30 7248 H 687.338 2.10828 -2.12584 0
M  V30 7249 H 684.884 1.01298 -1.02346 0
M  V30 7250 H 686.837 4.14089 -0.781548 0
M  V30 7251 H 685.561 3.26449 0.0994519 0
M  V30 7252 H 684.22 3.05731 -2.02297 0
M  V30 7253 H 683.868 5.0056 -0.494878 0
M  V30 7254 H 683.568 5.45127 -2.19341 0
M  V30 7255 H 685.092 5.94305 -1.40121 0
M  V30 7256 H 686.506 4.69067 -3.2962 0
M  V30 7257 H 684.903 4.43339 -4.04438 0
M  V30 7258 H 685.973 3.0462 -3.77273 0
M  V30 7259 N 687.317 1.12792 1.10072 0
M  V30 7260 C 688.733 0.864745 1.34143 0
M  V30 7261 C 688.933 -0.503201 1.95116 0
M  V30 7262 O 687.989 -1.25111 2.19325 0
M  V30 7263 C 689.302 1.98413 2.25949 0
M  V30 7264 C 690.85 2.01545 2.39476 0
M  V30 7265 C 691.325 3.12727 3.34613 0
M  V30 7266 N 692.816 3.12194 3.42183 0
M  V30 7267 C 693.551 3.94862 4.15779 0
M  V30 7268 N 693.047 4.87528 4.92228 0
M  V30 7269 N 694.84 3.82985 4.11435 0
M  V30 7270 H 686.991 2.00926 0.68866 0
M  V30 7271 H 689.254 0.874564 0.365844 0
M  V30 7272 H 688.96 2.97005 1.88364 0
M  V30 7273 H 688.834 1.89254 3.26287 0
M  V30 7274 H 691.221 1.0357 2.76328 0
M  V30 7275 H 691.302 2.14777 1.3894 0
M  V30 7276 H 690.946 4.10936 2.98486 0
M  V30 7277 H 690.876 2.96732 4.35037 0
M  V30 7278 H 693.367 2.45065 2.87666 0
M  V30 7279 H 693.68 5.47109 5.45794 0
M  V30 7280 H 692.025 4.91539 4.9134 0
M  V30 7281 H 695.216 3.09923 3.50807 0
M  V30 7282 H 695.389 4.47641 4.68531 0
M  V30 7283 N 688.795 -1.27931 0.920396 0
M  V30 7284 C 690.041 -1.94977 0.557832 0
M  V30 7285 C 690.374 -1.72224 -0.897365 0
M  V30 7286 O 689.649 -1.04705 -1.63912 0
M  V30 7287 C 689.932 -3.49289 0.875741 0
M  V30 7288 C 689.785 -3.81416 2.38416 0
M  V30 7289 C 691.104 -4.38486 0.376517 0
M  V30 7290 H 688.223 -0.708164 0.20414 0
M  V30 7291 H 690.865 -1.5118 1.15085 0
M  V30 7292 H 689.015 -3.86724 0.371062 0
M  V30 7293 H 690.687 -3.53813 2.95997 0
M  V30 7294 H 688.93 -3.28225 2.83639 0
M  V30 7295 H 689.601 -4.89198 2.55713 0
M  V30 7296 H 692.077 -4.08161 0.808945 0
M  V30 7297 H 690.953 -5.45296 0.627976 0
M  V30 7298 H 691.214 -4.36143 -0.723293 0
M  V30 7299 N 690.273 -0.685099 -1.4193 0
M  V30 7300 C 691.519 -0.220688 -2.02199 0
M  V30 7301 C 691.874 1.16329 -1.5325 0
M  V30 7302 O 691.167 1.77175 -0.729345 0
M  V30 7303 C 691.361 -0.206154 -3.56805 0
M  V30 7304 C 691.19 -1.58718 -4.2076 0
M  V30 7305 C 689.96 -2.18747 -4.55497 0
M  V30 7306 C 692.158 -2.53182 -4.47664 0
M  V30 7307 N 690.14 -3.49523 -5.04685 0
M  V30 7308 C 691.511 -3.68625 -4.98514 0
M  V30 7309 C 693.566 -2.51582 -4.29664 0
M  V30 7310 C 692.269 -4.82734 -5.33255 0
M  V30 7311 C 694.295 -3.64795 -4.65487 0
M  V30 7312 C 693.657 -4.78967 -5.16498 0
M  V30 7313 H 689.756 -0.12591 -0.771797 0
M  V30 7314 H 692.34 -0.900316 -1.72634 0
M  V30 7315 H 690.511 0.442923 -3.85866 0
M  V30 7316 H 692.243 0.272103 -4.03784 0
M  V30 7317 H 688.998 -1.71135 -4.41599 0
M  V30 7318 H 689.422 -4.1653 -5.33696 0
M  V30 7319 H 694.064 -1.64535 -3.89472 0
M  V30 7320 H 691.782 -5.7045 -5.72375 0
M  V30 7321 H 695.368 -3.64796 -4.53227 0
M  V30 7322 H 694.248 -5.6512 -5.437 0
M  V30 7323 N 691.751 1.51645 -0.429126 0
M  V30 7324 C 692.999 2.01616 0.139802 0
M  V30 7325 C 693.32 1.31568 1.43927 0
M  V30 7326 O 692.59 0.447688 1.90716 0
M  V30 7327 H 691.17 0.744998 0.054654 0
M  V30 7328 H 693.832 1.8638 -0.569952 0
M  V30 7329 H 692.928 3.10439 0.321609 0
M  V30 7330 N 693.229 0.160201 1.56784 0
M  V30 7331 C 694.645 -0.196089 1.58391 0
M  V30 7332 C 694.845 -1.63689 1.17508 0
M  V30 7333 O 693.901 -2.36613 0.881506 0
M  V30 7334 C 695.214 0.0746449 3.00607 0
M  V30 7335 C 696.762 0.0119762 3.12998 0
M  V30 7336 C 697.237 0.255551 4.57286 0
M  V30 7337 N 698.728 0.202938 4.62755 0
M  V30 7338 C 699.463 0.365731 5.72232 0
M  V30 7339 N 698.959 0.586972 6.90309 0
M  V30 7340 N 700.752 0.302411 5.61286 0
M  V30 7341 H 692.903 1.1008 1.81648 0
M  V30 7342 H 695.166 0.436779 0.841384 0
M  V30 7343 H 694.872 1.07231 3.34954 0
M  V30 7344 H 694.746 -0.638802 3.71751 0
M  V30 7345 H 697.133 -0.976254 2.78484 0
M  V30 7346 H 697.214 0.75796 2.44313 0
M  V30 7347 H 696.858 1.24094 4.92507 0
M  V30 7348 H 696.788 -0.510912 5.24116 0
M  V30 7349 H 699.279 0.0371328 3.77882 0
M  V30 7350 H 699.592 0.700941 7.69615 0
M  V30 7351 H 697.937 0.623453 6.92198 0
M  V30 7352 H 701.128 0.130238 4.67919 0
M  V30 7353 H 701.301 0.432712 6.46554 0
M  V30 7354 N 694.707 -1.5719 -0.113559 0
M  V30 7355 C 695.984 -1.76117 -0.850999 0
M  V30 7356 C 696.364 -0.737085 -1.97814 0
M  V30 7357 O 695.712 0.237942 -2.27258 0
M  V30 7358 C 695.922 -3.21298 -1.36266 0
M  V30 7359 C 697.27 -3.83955 -1.81283 0
M  V30 7360 O 698.294 -3.24934 -1.45933 0
M  V30 7361 O 697.153 -4.87707 -2.46585 0
M  V30 7362 H 694.247 -0.721308 -0.404529 0
M  V30 7363 H 696.793 -1.69423 -0.0968756 0
M  V30 7364 H 695.565 -3.87355 -0.554235 0
M  V30 7365 H 695.188 -3.32552 -2.17933 0
M  V30 7366 N 696.185 0.383891 -1.52853 0
M  V30 7367 C 697.133 1.48965 -1.7864 0
M  V30 7368 C 698.127 1.56242 -0.654577 0
M  V30 7369 O 699.333 1.59347 -0.83716 0
M  V30 7370 H 695.708 0.495892 -0.565328 0
M  V30 7371 H 697.679 1.24411 -2.71228 0
M  V30 7372 C 696.428 2.86036 -1.97683 0
M  V30 7373 H 695.751 2.81188 -2.84206 0
M  V30 7374 H 697.191 3.62632 -2.19713 0
M  V30 7375 C 695.65 3.28428 -0.750776 0
M  V30 7376 O 696.18 4.0164 0.0693491 0
M  V30 7377 N 694.386 2.84765 -0.579427 0
M  V30 7378 H 693.933 2.25353 -1.24795 0
M  V30 7379 H 693.891 3.13486 0.239544 0
M  V30 7380 N 697.663 1.43903 0.642637 0
M  V30 7381 C 699.074 1.40975 1.22404 0
M  V30 7382 C 699.425 0.1192 1.95838 0
M  V30 7383 O 698.55 -0.780939 2.01818 0
M  V30 7384 C 699.145 2.5538 2.22636 0
M  V30 7385 C 697.704 2.55684 2.76229 0
M  V30 7386 C 696.851 2.32556 1.51039 0
M  V30 7387 H 699.802 1.5265 0.434006 0
M  V30 7388 H 699.823 2.27474 3.05017 0
M  V30 7389 H 699.335 3.49294 1.69161 0
M  V30 7390 H 697.436 1.65679 3.33738 0
M  V30 7391 H 697.549 3.53799 3.23053 0
M  V30 7392 H 695.913 1.81427 1.78764 0
M  V30 7393 H 696.696 3.28569 0.99484 0
M  V30 7394 N 699.141 -0.881989 1.30609 0
M  V30 7395 C 700.071 -2.00413 1.1982 0
M  V30 7396 C 701.052 -1.69871 0.0881538 0
M  V30 7397 O 702.237 -1.92304 0.2707 0
M  V30 7398 C 699.367 -3.35641 0.89233 0
M  V30 7399 C 698.321 -3.80451 1.96064 0
M  V30 7400 C 697.647 -5.13003 1.5077 0
M  V30 7401 C 698.947 -3.98855 3.37213 0
M  V30 7402 H 700.641 -2.09698 2.13699 0
M  V30 7403 H 698.187 -1.00754 1.02882 0
M  V30 7404 H 700.14 -4.13669 0.803497 0
M  V30 7405 H 698.864 -3.26497 -0.0821381 0
M  V30 7406 H 697.523 -3.04654 2.03916 0
M  V30 7407 H 697.171 -5.0029 0.521417 0
M  V30 7408 H 696.871 -5.43956 2.22229 0
M  V30 7409 H 698.395 -5.93554 1.43271 0
M  V30 7410 H 699.809 -4.67312 3.32103 0
M  V30 7411 H 698.206 -4.41188 4.06784 0
M  V30 7412 H 699.276 -3.02614 3.78883 0
M  V30 7413 N 700.619 -1.13374 -1.09472 0
M  V30 7414 C 701.844 -0.918711 -1.85942 0
M  V30 7415 C 702.269 0.527225 -1.8056 0
M  V30 7416 O 701.627 1.37408 -1.18274 0
M  V30 7417 C 701.675 -1.41056 -3.31867 0
M  V30 7418 O 700.779 -0.595496 -4.08078 0
M  V30 7419 H 700.12 -0.329297 -0.576593 0
M  V30 7420 H 702.65 -1.50829 -1.38245 0
M  V30 7421 H 702.66 -1.41398 -3.82715 0
M  V30 7422 H 701.335 -2.46335 -3.35099 0
M  V30 7423 H 699.912 -0.659911 -3.67014 0
M  V30 7424 N 702.098 1.27442 -0.927168 0
M  V30 7425 C 703.008 2.30599 -0.431448 0
M  V30 7426 C 704.024 1.67028 0.48761 0
M  V30 7427 O 705.2 1.97962 0.370546 0
M  V30 7428 C 702.265 3.45327 0.308292 0
M  V30 7429 C 701.326 4.24418 -0.645615 0
M  V30 7430 C 700.559 5.33667 0.0589164 0
M  V30 7431 O 700.782 5.5589 1.27838 0
M  V30 7432 O 699.716 5.98774 -0.612638 0
M  V30 7433 H 703.542 2.75036 -1.28797 0
M  V30 7434 H 701.127 1.32382 -0.692495 0
M  V30 7435 H 703.009 4.15107 0.725555 0
M  V30 7436 H 701.684 3.02945 1.14043 0
M  V30 7437 H 700.591 3.57174 -1.11255 0
M  V30 7438 H 701.924 4.70512 -1.44496 0
M  V30 7439 N 703.576 0.692616 1.41565 0
M  V30 7440 C 704.804 0.231279 2.05603 0
M  V30 7441 C 705.219 -1.11837 1.52111 0
M  V30 7442 O 704.576 -1.6983 0.66813 0
M  V30 7443 C 704.627 0.177125 3.61066 0
M  V30 7444 O 704.348 1.47346 4.12578 0
M  V30 7445 C 705.849 -0.30556 4.42246 0
M  V30 7446 H 703.069 0.108238 0.662213 0
M  V30 7447 H 705.613 0.944369 1.81389 0
M  V30 7448 H 703.768 -0.486769 3.8433 0
M  V30 7449 H 704.182 1.35861 5.06599 0
M  V30 7450 H 705.656 -0.29233 5.51225 0
M  V30 7451 H 706.133 -1.34393 4.18133 0
M  V30 7452 H 706.739 0.327229 4.24039 0
M  V30 7453 N 705.054 -1.51416 0.437162 0
M  V30 7454 C 706.302 -2.01687 -0.129108 0
M  V30 7455 C 706.623 -1.32329 -1.43227 0
M  V30 7456 O 705.893 -0.457796 -1.90476 0
M  V30 7457 H 704.473 -0.745277 -0.0507023 0
M  V30 7458 H 707.135 -1.86075 0.579828 0
M  V30 7459 H 706.231 -3.10605 -0.305141 0
M  V30 7460 N 706.532 -0.168513 -1.56696 0
M  V30 7461 C 707.495 0.748928 -2.16619 0
M  V30 7462 C 708.495 1.16007 -1.11351 0
M  V30 7463 O 709.685 1.07748 -1.3688 0
M  V30 7464 C 706.817 2.01904 -2.74677 0
M  V30 7465 H 708.01 0.227317 -2.99037 0
M  V30 7466 H 705.563 0.0810372 -1.5609 0
M  V30 7467 H 706.298 2.58381 -1.95985 0
M  V30 7468 H 706.083 1.73323 -3.51712 0
M  V30 7469 H 707.573 2.67383 -3.20774 0
M  V30 7470 N 708.01 1.57248 0.105221 0
M  V30 7471 C 708.92 2.04653 1.14693 0
M  V30 7472 C 709.936 0.969488 1.44489 0
M  V30 7473 O 711.112 1.28196 1.55331 0
M  V30 7474 C 708.177 2.45297 2.45011 0
M  V30 7475 C 707.238 3.67148 2.22489 0
M  V30 7476 C 706.471 4.05844 3.46592 0
M  V30 7477 O 706.694 3.44736 4.54437 0
M  V30 7478 O 705.628 4.98862 3.36779 0
M  V30 7479 H 709.454 2.93663 0.774336 0
M  V30 7480 H 707.039 1.45998 0.31701 0
M  V30 7481 H 708.921 2.72112 3.21766 0
M  V30 7482 H 707.596 1.59429 2.81717 0
M  V30 7483 H 706.503 3.45463 1.43547 0
M  V30 7484 H 707.836 4.53764 1.9068 0
M  V30 7485 N 709.488 -0.375779 1.53054 0
M  V30 7486 C 710.904 -0.716764 1.426 0
M  V30 7487 C 711.104 -1.93651 0.556931 0
M  V30 7488 O 710.16 -2.52475 0.0354461 0
M  V30 7489 C 711.473 -0.939499 2.85646 0
M  V30 7490 C 713.021 -1.04015 2.95212 0
M  V30 7491 C 713.496 -1.29543 4.39298 0
M  V30 7492 N 714.987 -1.36335 4.42682 0
M  V30 7493 C 715.722 -1.57778 5.51266 0
M  V30 7494 N 715.218 -1.76604 6.69913 0
M  V30 7495 N 717.011 -1.60065 5.38828 0
M  V30 7496 H 709.162 0.42664 2.08071 0
M  V30 7497 H 711.425 0.128758 0.939215 0
M  V30 7498 H 711.131 -0.115189 3.51511 0
M  V30 7499 H 711.005 -1.85048 3.2869 0
M  V30 7500 H 713.392 -1.85501 2.29507 0
M  V30 7501 H 713.473 -0.106785 2.55577 0
M  V30 7502 H 713.117 -0.485611 5.05573 0
M  V30 7503 H 713.047 -2.24184 4.76497 0
M  V30 7504 H 715.538 -1.23441 3.5717 0
M  V30 7505 H 715.851 -1.9251 7.48438 0
M  V30 7506 H 714.196 -1.73802 6.72917 0
M  V30 7507 H 717.387 -1.44917 4.45103 0
M  V30 7508 H 717.56 -1.76435 6.23518 0
M  V30 7509 N 710.966 -1.44241 -0.634997 0
M  V30 7510 C 711.898 -1.46793 -1.76024 0
M  V30 7511 C 712.911 -0.361781 -1.58729 0
M  V30 7512 O 714.1 -0.627297 -1.67114 0
M  V30 7513 C 711.2 -1.28248 -3.13697 0
M  V30 7514 C 710.373 -2.52038 -3.57485 0
M  V30 7515 C 709.432 -2.2845 -4.74022 0
M  V30 7516 O 708.458 -3.01915 -4.82531 0
M  V30 7517 N 709.66 -1.31264 -5.65464 0
M  V30 7518 H 712.425 -2.43797 -1.74307 0
M  V30 7519 H 709.986 -1.39631 -0.819438 0
M  V30 7520 H 711.978 -1.10321 -3.89373 0
M  V30 7521 H 710.548 -0.39623 -3.10079 0
M  V30 7522 H 709.768 -2.85268 -2.72059 0
M  V30 7523 H 711.056 -3.34382 -3.83492 0
M  V30 7524 H 710.454 -0.705817 -5.6128 0
M  V30 7525 H 709.011 -1.19316 -6.40786 0
M  V30 7526 N 712.444 0.87505 -1.31075 0
M  V30 7527 C 713.692 1.62447 -1.20231 0
M  V30 7528 C 714.013 1.93506 0.240888 0
M  V30 7529 O 713.283 1.57847 1.16022 0
M  V30 7530 H 711.863 0.602207 -0.441991 0
M  V30 7531 H 714.525 1.04788 -1.64334 0
M  V30 7532 H 713.621 2.57031 -1.77036 0
M  V30 7533 N 713.922 1.13953 1.08869 0
M  V30 7534 C 715.15 0.92817 1.84912 0
M  V30 7535 C 715.565 -0.523197 1.81406 0
M  V30 7536 O 714.922 -1.36237 1.21432 0
M  V30 7537 C 714.973 1.41509 3.32652 0
M  V30 7538 O 714.694 2.80959 3.36145 0
M  V30 7539 C 716.195 1.243 4.25517 0
M  V30 7540 H 713.415 0.330612 0.583898 0
M  V30 7541 H 715.959 1.51349 1.37527 0
M  V30 7542 H 714.114 0.872648 3.77444 0
M  V30 7543 H 714.528 3.02704 4.28335 0
M  V30 7544 H 716.002 1.63237 5.27312 0
M  V30 7545 H 716.479 0.18532 4.38809 0
M  V30 7546 H 717.085 1.77375 3.86546 0
M  V30 7547 N 715.4 -1.26948 0.933913 0
M  V30 7548 C 716.646 -1.94374 0.57848 0
M  V30 7549 C 716.979 -1.73166 -0.879048 0
M  V30 7550 O 716.254 -1.06438 -1.62792 0
M  V30 7551 C 716.537 -3.4834 0.912739 0
M  V30 7552 C 716.39 -3.78866 2.42448 0
M  V30 7553 C 717.709 -4.38062 0.423003 0
M  V30 7554 H 714.828 -0.705959 0.211639 0
M  V30 7555 H 717.47 -1.49951 1.16682 0
M  V30 7556 H 715.62 -3.86309 0.412058 0
M  V30 7557 H 717.292 -3.50654 2.99733 0
M  V30 7558 H 715.535 -3.25198 2.87104 0
M  V30 7559 H 716.206 -4.86458 2.60887 0
M  V30 7560 H 718.682 -4.0728 0.852191 0
M  V30 7561 H 717.558 -5.44599 0.685776 0
M  V30 7562 H 717.819 -4.36886 -0.676994 0
M  V30 7563 N 716.879 -0.700114 -1.41195 0
M  V30 7564 C 718.104 -0.240704 -2.05998 0
M  V30 7565 C 718.529 1.10313 -1.52357 0
M  V30 7566 O 717.887 1.69154 -0.652424 0
M  V30 7567 C 717.935 -0.213783 -3.59966 0
M  V30 7568 O 717.039 0.809933 -4.04368 0
M  V30 7569 H 716.38 -0.116471 -0.653705 0
M  V30 7570 H 718.91 -0.956251 -1.80878 0
M  V30 7571 H 718.92 -0.0461852 -4.07974 0
M  V30 7572 H 717.595 -1.19454 -3.98376 0
M  V30 7573 H 716.172 0.611319 -3.67855 0
M  V30 7574 N 718.357 1.51182 -0.445186 0
M  V30 7575 C 719.604 2.02152 0.118645 0
M  V30 7576 C 719.932 1.32888 1.42025 0
M  V30 7577 O 719.187 0.435041 1.90803 0
M  V30 7578 C 719.486 3.55408 0.376797 0
M  V30 7579 C 719.152 4.43008 -0.839945 0
M  V30 7580 C 717.814 4.66669 -1.17361 0
M  V30 7581 C 720.166 4.9435 -1.65127 0
M  V30 7582 C 717.494 5.38919 -2.31913 0
M  V30 7583 C 719.846 5.67857 -2.78786 0
M  V30 7584 C 718.51 5.89779 -3.12597 0
M  V30 7585 H 717.78 0.739727 0.0434152 0
M  V30 7586 H 720.427 1.82055 -0.593984 0
M  V30 7587 H 718.732 3.73879 1.1714 0
M  V30 7588 H 720.429 3.92388 0.826602 0
M  V30 7589 H 717.019 4.24793 -0.569958 0
M  V30 7590 H 721.203 4.75947 -1.4067 0
M  V30 7591 H 716.459 5.54105 -2.58413 0
M  V30 7592 H 720.633 6.06628 -3.42017 0
M  V30 7593 H 718.26 6.45542 -4.01471 0
M  V30 7594 N 719.835 0.176821 1.56605 0
M  V30 7595 C 720.783 -0.768159 2.1955 0
M  V30 7596 C 721.777 -1.23343 1.16116 0
M  V30 7597 O 722.983 -1.19844 1.34303 0
M  V30 7598 H 719.358 -0.266013 0.703378 0
M  V30 7599 H 721.329 -0.213374 2.97636 0
M  V30 7600 C 720.078 -1.98492 2.85475 0
M  V30 7601 H 719.401 -1.63595 3.64797 0
M  V30 7602 H 720.841 -2.62489 3.3298 0
M  V30 7603 C 719.3 -2.81207 1.85538 0
M  V30 7604 O 719.83 -3.7854 1.34427 0
M  V30 7605 N 718.036 -2.46331 1.54173 0
M  V30 7606 H 717.583 -1.67241 1.95929 0
M  V30 7607 H 717.541 -3.01961 0.875595 0
M  V30 7608 N 721.313 -1.57302 -0.09688 0
M  V30 7609 C 722.553 -1.87823 -0.806334 0
M  V30 7610 C 722.917 -0.767593 -1.75989 0
M  V30 7611 O 724.118 -0.955173 -2.51257 0
M  V30 7612 C 722.389 -3.23585 -1.51749 0
M  V30 7613 S 723.948 -3.75795 -2.26547 0
M  V30 7614 H 720.766 -0.658281 -0.268676 0
M  V30 7615 H 723.368 -1.95397 -0.0635476 0
M  V30 7616 H 722.072 -4.0234 -0.809348 0
M  V30 7617 H 721.603 -3.19145 -2.30021 0
M  V30 7618 H 723.618 -3.49068 -3.52656 0
M  V30 7619 N 722.791 0.367657 -1.53252 0
M  V30 7620 C 724.202 0.944563 -1.61043 0
M  V30 7621 C 724.553 1.90325 -0.476546 0
M  V30 7622 O 723.678 2.12721 0.397333 0
M  V30 7623 C 724.273 1.71992 -2.91898 0
M  V30 7624 C 722.832 2.2462 -3.02031 0
M  V30 7625 C 721.979 1.05799 -2.56324 0
M  V30 7626 H 724.93 0.146516 -1.58022 0
M  V30 7627 H 724.951 2.58095 -2.79584 0
M  V30 7628 H 724.463 1.02192 -3.74404 0
M  V30 7629 H 722.564 2.97668 -2.24108 0
M  V30 7630 H 722.677 2.52644 -4.07073 0
M  V30 7631 H 721.041 1.42435 -2.1115 0
M  V30 7632 H 721.824 0.375008 -3.41246 0
M  V30 7633 N 724.269 1.44576 0.627338 0
M  V30 7634 C 725.201 1.47724 1.75243 0
M  V30 7635 C 726.214 0.370193 1.58535 0
M  V30 7636 O 727.403 0.636151 1.66779 0
M  V30 7637 C 724.503 1.2991 3.13012 0
M  V30 7638 C 723.676 2.5393 3.56143 0
M  V30 7639 C 722.735 2.30961 4.72804 0
M  V30 7640 O 721.761 3.04469 4.80923 0
M  V30 7641 N 722.963 1.34261 5.6476 0
M  V30 7642 H 725.728 2.44718 1.73012 0
M  V30 7643 H 723.289 1.40064 0.812022 0
M  V30 7644 H 725.281 1.12385 3.88782 0
M  V30 7645 H 723.851 0.412668 3.09864 0
M  V30 7646 H 723.071 2.86707 2.70542 0
M  V30 7647 H 724.359 3.36411 3.81713 0
M  V30 7648 H 723.757 0.735573 5.60897 0
M  V30 7649 H 722.314 1.22713 6.40144 0
M  V30 7650 N 725.747 -0.868086 1.31537 0
M  V30 7651 C 726.996 -1.61607 1.20689 0
M  V30 7652 C 727.309 -1.94204 -0.233275 0
M  V30 7653 O 728.515 -2.67515 -0.463465 0
M  V30 7654 C 726.971 -2.91348 2.11292 0
M  V30 7655 C 726.579 -2.66227 3.60315 0
M  V30 7656 C 728.323 -3.69344 2.09249 0
M  V30 7657 C 726.23 -3.91887 4.42921 0
M  V30 7658 H 725.16 -0.606373 0.448138 0
M  V30 7659 H 727.811 -0.959666 1.56405 0
M  V30 7660 H 726.193 -3.58374 1.68477 0
M  V30 7661 H 727.367 -2.07597 4.11388 0
M  V30 7662 H 725.682 -2.01582 3.64354 0
M  V30 7663 H 728.279 -4.62567 2.68209 0
M  V30 7664 H 728.622 -4.02044 1.0801 0
M  V30 7665 H 729.155 -3.09205 2.50274 0
M  V30 7666 H 725.894 -3.64336 5.44922 0
M  V30 7667 H 725.414 -4.49961 3.96605 0
M  V30 7668 H 727.093 -4.59754 4.55231 0
M  V30 7669 N 727.225 -1.14528 -1.08264 0
M  V30 7670 C 728.453 -0.937964 -1.84418 0
M  V30 7671 C 728.868 0.51357 -1.81681 0
M  V30 7672 O 728.225 1.35591 -1.22153 0
M  V30 7673 C 728.276 -1.43272 -3.31897 0
M  V30 7674 O 727.997 -2.82738 -3.34651 0
M  V30 7675 C 729.498 -1.26555 -4.24851 0
M  V30 7676 H 726.718 -0.333704 -0.582136 0
M  V30 7677 H 729.262 -1.52076 -1.36723 0
M  V30 7678 H 727.417 -0.892653 -3.76975 0
M  V30 7679 H 727.831 -3.04971 -4.26724 0
M  V30 7680 H 729.305 -1.66031 -5.26439 0
M  V30 7681 H 729.782 -0.208589 -4.38704 0
M  V30 7682 H 730.388 -1.79423 -3.856 0
M  V30 7683 N 728.703 1.26451 -0.940633 0
M  V30 7684 C 729.633 2.28773 -0.467479 0
M  V30 7685 C 730.614 1.63218 0.478955 0
M  V30 7686 O 731.799 1.90427 0.380929 0
M  V30 7687 C 728.929 3.46259 0.268656 0
M  V30 7688 C 727.883 4.23898 -0.591171 0
M  V30 7689 C 727.209 5.33993 0.274891 0
M  V30 7690 C 728.509 4.87974 -1.86223 0
M  V30 7691 H 730.203 2.68601 -1.32265 0
M  V30 7692 H 727.749 1.29123 -0.637436 0
M  V30 7693 H 729.702 4.16951 0.610696 0
M  V30 7694 H 728.426 3.05383 1.15796 0
M  V30 7695 H 727.085 3.54969 -0.916098 0
M  V30 7696 H 726.733 4.89358 1.16353 0
M  V30 7697 H 726.433 5.86849 -0.297006 0
M  V30 7698 H 727.957 6.07523 0.612213 0
M  V30 7699 H 729.371 5.50883 -1.58747 0
M  V30 7700 H 727.768 5.50945 -2.37866 0
M  V30 7701 H 728.838 4.10945 -2.57394 0
M  V30 7702 N 730.181 0.707592 1.40822 0
M  V30 7703 C 731.427 0.252828 2.01823 0
M  V30 7704 C 731.782 -1.13876 1.55081 0
M  V30 7705 O 731.075 -1.75993 0.757439 0
M  V30 7706 C 731.269 0.262892 3.56432 0
M  V30 7707 C 731.098 1.65392 4.18181 0
M  V30 7708 C 729.868 2.25966 4.5196 0
M  V30 7709 C 732.066 2.60272 4.4358 0
M  V30 7710 N 730.048 3.57508 4.9906 0
M  V30 7711 C 731.419 3.76509 4.92586 0
M  V30 7712 C 733.474 2.58386 4.25607 0
M  V30 7713 C 732.177 4.91157 5.25507 0
M  V30 7714 C 734.203 3.72155 4.59625 0
M  V30 7715 C 733.565 4.87123 5.08813 0
M  V30 7716 H 729.664 0.138172 0.769696 0
M  V30 7717 H 732.248 0.927667 1.7118 0
M  V30 7718 H 730.419 -0.381479 3.86522 0
M  V30 7719 H 732.151 -0.20783 4.04166 0
M  V30 7720 H 728.906 1.78138 4.38821 0
M  V30 7721 H 729.33 4.24968 5.27002 0
M  V30 7722 H 733.972 1.7071 3.86805 0
M  V30 7723 H 731.69 5.79483 5.63227 0
M  V30 7724 H 735.276 3.71961 4.47366 0
M  V30 7725 H 734.156 5.73698 5.3464 0
M  V30 7726 N 731.66 -1.50943 0.453197 0
M  V30 7727 C 732.592 -2.25922 -0.38623 0
M  V30 7728 C 733.605 -1.3055 -0.972652 0
M  V30 7729 O 734.794 -1.56191 -0.864097 0
M  V30 7730 C 731.894 -3.01176 -1.5539 0
M  V30 7731 C 731.067 -4.23768 -1.0835 0
M  V30 7732 C 730.126 -4.81466 -2.12313 0
M  V30 7733 O 729.152 -5.42875 -1.71101 0
M  V30 7734 N 730.354 -4.66889 -3.44956 0
M  V30 7735 H 733.119 -2.98601 0.256468 0
M  V30 7736 H 730.68 -1.59408 0.282965 0
M  V30 7737 H 732.672 -3.36659 -2.24594 0
M  V30 7738 H 731.242 -2.31409 -2.10163 0
M  V30 7739 H 730.462 -3.93597 -0.217961 0
M  V30 7740 H 731.75 -5.03289 -0.746857 0
M  V30 7741 H 731.148 -4.18011 -3.81161 0
M  V30 7742 H 729.705 -5.06691 -4.1001 0
M  V30 7743 N 733.138 -0.185124 -1.56509 0
M  V30 7744 C 734.554 0.170865 -1.58683 0
M  V30 7745 C 734.754 1.61799 -1.20098 0
M  V30 7746 O 733.81 2.35181 -0.919038 0
M  V30 7747 C 735.123 -0.122459 -3.00451 0
M  V30 7748 C 736.671 -0.0617699 -3.12939 0
M  V30 7749 C 737.146 -0.328269 -4.56822 0
M  V30 7750 N 738.637 -0.276533 -4.62374 0
M  V30 7751 C 739.372 -0.456722 -5.71578 0
M  V30 7752 N 738.868 -0.69672 -6.89288 0
M  V30 7753 N 740.661 -0.391669 -5.60734 0
M  V30 7754 H 732.812 -1.12956 -1.79874 0
M  V30 7755 H 735.075 -0.45011 -0.834329 0
M  V30 7756 H 734.781 -1.12546 -3.33206 0
M  V30 7757 H 734.655 0.579578 -3.72721 0
M  V30 7758 H 737.042 0.931826 -2.80002 0
M  V30 7759 H 737.123 -0.796732 -2.43076 0
M  V30 7760 H 736.767 -1.31914 -4.9047 0
M  V30 7761 H 736.697 0.427465 -5.24862 0
M  V30 7762 H 739.188 -0.0972458 -3.77775 0
M  V30 7763 H 739.501 -0.823291 -7.68402 0
M  V30 7764 H 737.846 -0.733497 -6.91119 0
M  V30 7765 H 741.037 -0.204663 -4.67652 0
M  V30 7766 H 741.21 -0.535518 -6.45783 0
M  V30 7767 N 734.616 1.57351 0.0885366 0
M  V30 7768 C 736.027 1.75303 0.642308 0
M  V30 7769 C 736.378 0.808238 1.78779 0
M  V30 7770 O 735.503 -0.01171 2.16397 0
M  V30 7771 C 736.098 3.17885 1.17194 0
M  V30 7772 C 734.657 3.37239 1.67172 0
M  V30 7773 C 733.804 2.7108 0.584045 0
M  V30 7774 H 736.755 1.58103 -0.137567 0
M  V30 7775 H 736.776 3.2112 2.04114 0
M  V30 7776 H 736.288 3.86625 0.338024 0
M  V30 7777 H 734.389 2.73588 2.52943 0
M  V30 7778 H 734.502 4.45594 1.76019 0
M  V30 7779 H 732.866 2.33161 1.02508 0
M  V30 7780 H 733.649 3.42464 -0.239403 0
M  V30 7781 N 736.094 -0.359525 1.53444 0
M  V30 7782 C 737.024 -1.44662 1.8329 0
M  V30 7783 C 738.005 -1.55617 0.68683 0
M  V30 7784 O 739.19 -1.70086 0.93725 0
M  V30 7785 C 736.32 -2.81923 2.02822 0
M  V30 7786 C 735.274 -2.85787 3.18606 0
M  V30 7787 C 734.6 -4.25781 3.23442 0
M  V30 7788 C 735.9 -2.52762 4.57065 0
M  V30 7789 H 737.594 -1.19934 2.74329 0
M  V30 7790 H 735.14 -0.575517 1.31999 0
M  V30 7791 H 737.093 -3.58005 2.22285 0
M  V30 7792 H 735.817 -3.08051 1.085 0
M  V30 7793 H 734.476 -2.12157 2.98973 0
M  V30 7794 H 734.124 -4.48994 2.26745 0
M  V30 7795 H 733.824 -4.29281 4.01238 0
M  V30 7796 H 735.348 -5.03727 3.45096 0
M  V30 7797 H 736.762 -3.18557 4.76649 0
M  V30 7798 H 735.159 -2.67569 5.37147 0
M  V30 7799 H 736.229 -1.47993 4.61764 0
M  V30 7800 N 737.572 -1.44907 -0.619662 0
M  V30 7801 C 738.818 -1.48512 -1.38102 0
M  V30 7802 C 739.151 -0.121686 -1.93818 0
M  V30 7803 O 738.426 0.862256 -1.74343 0
M  V30 7804 C 738.709 -2.55469 -2.53787 0
M  V30 7805 C 738.562 -4.01212 -2.03345 0
M  V30 7806 C 739.881 -2.58821 -3.55949 0
M  V30 7807 H 737 -0.540712 -0.500799 0
M  V30 7808 H 739.642 -1.7665 -0.69962 0
M  V30 7809 H 737.792 -2.31606 -3.11915 0
M  V30 7810 H 739.464 -4.36245 -1.49959 0
M  V30 7811 H 737.707 -4.12443 -1.34438 0
M  V30 7812 H 738.378 -4.71717 -2.86683 0
M  V30 7813 H 740.854 -2.80172 -3.07641 0
M  V30 7814 H 739.73 -3.35542 -4.34399 0
M  V30 7815 H 739.991 -1.63451 -4.10775 0
M  V30 7816 N 739.05 0.861098 -1.31996 0
M  V30 7817 C 740.278 1.6474 -1.25173 0
M  V30 7818 C 740.693 1.87926 0.181425 0
M  V30 7819 O 740.05 1.4437 1.1164 0
M  V30 7820 C 740.101 3.01036 -2.0015 0
M  V30 7821 O 739.822 2.7888 -3.37872 0
M  V30 7822 C 741.323 3.95481 -2.00273 0
M  V30 7823 H 738.543 0.513314 -0.432146 0
M  V30 7824 H 741.087 1.07419 -1.74016 0
M  V30 7825 H 739.242 3.55021 -1.55046 0
M  V30 7826 H 739.656 3.65514 -3.76165 0
M  V30 7827 H 741.13 4.88403 -2.57229 0
M  V30 7828 H 741.607 4.27957 -0.987407 0
M  V30 7829 H 742.213 3.47433 -2.45296 0
M  V30 7830 N 740.528 1.15101 1.07655 0
M  V30 7831 C 741.777 0.918528 1.79572 0
M  V30 7832 C 742.09 -0.555922 1.87534 0
M  V30 7833 O 743.296 -0.905893 2.55941 0
M  V30 7834 C 741.752 1.59394 3.22679 0
M  V30 7835 C 741.36 3.1052 3.22927 0
M  V30 7836 C 743.104 1.44289 3.99225 0
M  V30 7837 C 741.011 3.70862 4.60668 0
M  V30 7838 H 739.941 0.340006 0.672987 0
M  V30 7839 H 742.592 1.38079 1.20857 0
M  V30 7840 H 740.974 1.05936 3.81567 0
M  V30 7841 H 742.148 3.70708 2.737 0
M  V30 7842 H 740.463 3.25351 2.59876 0
M  V30 7843 H 743.06 1.86766 5.01022 0
M  V30 7844 H 743.403 0.389975 4.14469 0
M  V30 7845 H 743.936 1.94826 3.46825 0
M  V30 7846 H 740.675 4.7604 4.50628 0
M  V30 7847 H 740.195 3.15456 5.10145 0
M  V30 7848 H 741.874 3.71607 5.29639 0
M  V30 7849 N 742.006 -1.2595 0.947325 0
M  V30 7850 C 742.953 -2.26159 0.460497 0
M  V30 7851 C 743.923 -1.58919 -0.483125 0
M  V30 7852 O 745.108 -1.86603 -0.397983 0
M  V30 7853 C 742.248 -3.441 -0.26247 0
M  V30 7854 C 741.361 -4.25999 0.717539 0
M  V30 7855 C 740.496 -5.31193 -0.0272486 0
M  V30 7856 C 739.535 -6.04774 0.944177 0
M  V30 7857 N 738.672 -7.01721 0.230741 0
M  V30 7858 H 743.512 -2.67173 1.31995 0
M  V30 7859 H 741.049 -1.31358 0.662088 0
M  V30 7860 H 743.007 -4.11317 -0.698137 0
M  V30 7861 H 741.637 -3.03983 -1.08602 0
M  V30 7862 H 740.689 -3.58513 1.27171 0
M  V30 7863 H 742.001 -4.76981 1.45913 0
M  V30 7864 H 741.155 -6.04451 -0.521903 0
M  V30 7865 H 739.894 -4.81066 -0.801682 0
M  V30 7866 H 738.899 -5.30338 1.4499 0
M  V30 7867 H 740.124 -6.56991 1.71872 0
M  V30 7868 H 738.07 -6.53895 -0.525088 0
M  V30 7869 H 737.987 -7.50484 0.911556 0
M  V30 7870 H 739.255 -7.79122 -0.242616 0
M  V30 7871 N 743.484 -0.715051 -1.40445 0
M  V30 7872 C 744.733 -0.251322 -2.00128 0
M  V30 7873 C 745.046 1.16194 -1.57347 0
M  V30 7874 O 746.252 1.72416 -2.09726 0
M  V30 7875 C 744.708 -0.398407 -3.57688 0
M  V30 7876 C 744.316 -1.81828 -4.09442 0
M  V30 7877 C 746.06 0.00455625 -4.245 0
M  V30 7878 C 743.967 -1.91598 -5.59503 0
M  V30 7879 H 742.897 -0.0902081 -0.748584 0
M  V30 7880 H 745.548 -0.886062 -1.6069 0
M  V30 7881 H 743.93 0.304908 -3.94824 0
M  V30 7882 H 745.104 -2.55193 -3.83684 0
M  V30 7883 H 743.419 -2.17266 -3.55225 0
M  V30 7884 H 746.016 -0.0477303 -5.34679 0
M  V30 7885 H 746.359 1.04636 -4.02935 0
M  V30 7886 H 746.892 -0.649184 -3.92467 0
M  V30 7887 H 743.631 -2.93898 -5.85922 0
M  V30 7888 H 743.151 -1.22644 -5.87127 0
M  V30 7889 H 744.83 -1.68785 -6.24596 0
M  V30 7890 N 744.962 1.50701 -0.461195 0
M  V30 7891 C 746.21 2.01867 0.0970051 0
M  V30 7892 C 746.531 1.34591 1.41104 0
M  V30 7893 O 745.801 0.488041 1.89723 0
M  V30 7894 H 744.381 0.74599 0.0388392 0
M  V30 7895 H 747.043 1.85129 -0.609357 0
M  V30 7896 H 746.139 3.11051 0.255688 0
M  V30 7897 N 746.441 0.193421 1.56409 0
M  V30 7898 C 747.689 -0.444908 1.97142 0
M  V30 7899 C 748.01 -1.62268 1.08139 0
M  V30 7900 O 747.28 -1.95307 0.152326 0
M  V30 7901 H 745.86 -0.16736 0.728011 0
M  V30 7902 H 748.522 0.279763 1.92882 0
M  V30 7903 H 747.618 -0.790159 3.01932 0
M  V30 7904 N 747.919 -1.57396 -0.0801906 0
M  V30 7905 C 748.851 -1.9982 -1.12271 0
M  V30 7906 C 749.864 -0.902902 -1.35468 0
M  V30 7907 O 751.053 -1.18088 -1.33856 0
M  V30 7908 C 748.153 -2.31476 -2.47532 0
M  V30 7909 C 747.326 -3.62745 -2.44407 0
M  V30 7910 C 746.385 -3.82168 -3.6171 0
M  V30 7911 O 745.411 -4.53852 -3.43522 0
M  V30 7912 N 746.613 -3.2388 -4.81749 0
M  V30 7913 H 749.378 -2.89864 -0.761501 0
M  V30 7914 H 746.939 -1.5965 -0.268965 0
M  V30 7915 H 748.931 -2.4165 -3.24634 0
M  V30 7916 H 747.501 -1.47364 -2.75686 0
M  V30 7917 H 746.721 -3.63403 -1.52747 0
M  V30 7918 H 748.009 -4.48954 -2.39412 0
M  V30 7919 H 747.407 -2.6568 -4.9943 0
M  V30 7920 H 745.964 -3.39515 -5.56392 0
M  V30 7921 N 749.397 0.351382 -1.53633 0
M  V30 7922 C 750.327 1.43688 -1.84055 0
M  V30 7923 C 751.308 1.55251 -0.695073 0
M  V30 7924 O 752.493 1.69587 -0.946257 0
M  V30 7925 C 749.623 2.80843 -2.04315 0
M  V30 7926 C 748.577 2.84094 -3.20117 0
M  V30 7927 C 747.903 4.2406 -3.25696 0
M  V30 7928 C 749.203 2.50334 -4.58399 0
M  V30 7929 H 750.897 1.18478 -2.74961 0
M  V30 7930 H 748.443 0.568509 -1.32303 0
M  V30 7931 H 750.396 3.56821 -2.2418 0
M  V30 7932 H 749.12 3.07471 -1.10132 0
M  V30 7933 H 747.779 2.10568 -3.00094 0
M  V30 7934 H 747.427 4.47785 -2.29123 0
M  V30 7935 H 747.127 4.27147 -4.03509 0
M  V30 7936 H 748.651 5.0189 -3.47762 0
M  V30 7937 H 750.065 3.16025 -4.78332 0
M  V30 7938 H 748.462 2.64717 -5.38558 0
M  V30 7939 H 749.532 1.45542 -4.62543 0
M  V30 7940 N 750.875 1.45233 0.611969 0
M  V30 7941 C 751.822 1.5357 1.72293 0
M  V30 7942 C 752.792 0.381912 1.6165 0
M  V30 7943 O 753.977 0.594765 1.81293 0
M  V30 7944 C 751.117 1.50419 3.10593 0
M  V30 7945 C 750.23 2.76316 3.32074 0
M  V30 7946 C 749.365 2.64866 4.60456 0
M  V30 7947 C 748.404 3.85838 4.7518 0
M  V30 7948 N 747.541 3.72949 5.94856 0
M  V30 7949 H 752.381 2.4848 1.64504 0
M  V30 7950 H 749.918 1.23302 0.802191 0
M  V30 7951 H 751.876 1.4658 3.90602 0
M  V30 7952 H 750.506 0.590621 3.17351 0
M  V30 7953 H 749.558 2.90261 2.45872 0
M  V30 7954 H 750.87 3.66055 3.38829 0
M  V30 7955 H 750.024 2.58969 5.48653 0
M  V30 7956 H 748.763 1.72719 4.56092 0
M  V30 7957 H 747.768 3.92099 3.85407 0
M  V30 7958 H 748.993 4.79045 4.81344 0
M  V30 7959 H 746.939 2.83567 5.91545 0
M  V30 7960 H 746.856 4.56319 6.02751 0
M  V30 7961 H 748.124 3.70976 6.85563 0
M  V30 7962 N 752.353 -0.854086 1.3245 0
M  V30 7963 C 753.263 -1.99503 1.23434 0
M  V30 7964 C 754.279 -1.73371 0.147828 0
M  V30 7965 O 755.455 -1.97998 0.368609 0
M  V30 7966 C 752.52 -3.33192 0.958328 0
M  V30 7967 C 751.581 -3.72542 2.13333 0
M  V30 7968 C 750.814 -4.99852 1.8704 0
M  V30 7969 O 751.037 -5.64573 0.813239 0
M  V30 7970 O 749.971 -5.36345 2.73161 0
M  V30 7971 H 753.797 -2.10046 2.1935 0
M  V30 7972 H 751.382 -0.984823 1.12346 0
M  V30 7973 H 753.264 -4.13327 0.820918 0
M  V30 7974 H 751.939 -3.23687 0.0293299 0
M  V30 7975 H 750.846 -2.92981 2.32622 0
M  V30 7976 H 752.179 -3.86694 3.04514 0
M  V30 7977 N 753.831 -1.1567 -1.07043 0
M  V30 7978 C 754.794 -0.858906 -2.12498 0
M  V30 7979 C 755.794 0.142735 -1.60165 0
M  V30 7980 O 756.984 -0.0872678 -1.73981 0
M  V30 7981 C 754.116 -0.283021 -3.39723 0
M  V30 7982 H 755.309 -1.79368 -2.40348 0
M  V30 7983 H 752.862 -0.964608 -1.22984 0
M  V30 7984 H 753.597 0.659796 -3.17517 0
M  V30 7985 H 753.382 -1.00467 -3.7901 0
M  V30 7986 H 754.872 -0.0923543 -4.17498 0
M  V30 7987 N 755.309 1.25446 -0.953992 0
M  V30 7988 C 756.239 2.28264 -0.491717 0
M  V30 7989 C 757.22 1.63717 0.461617 0
M  V30 7990 O 758.405 1.90821 0.36071 0
M  V30 7991 C 755.535 3.46525 0.231915 0
M  V30 7992 C 754.489 4.23247 -0.636098 0
M  V30 7993 C 753.815 5.34254 0.218238 0
M  V30 7994 C 755.115 4.85971 -1.91389 0
M  V30 7995 H 756.809 2.67183 -1.35106 0
M  V30 7996 H 754.355 1.2844 -0.651095 0
M  V30 7997 H 756.308 4.17576 0.566439 0
M  V30 7998 H 755.032 3.06594 1.12551 0
M  V30 7999 H 753.691 3.53978 -0.953696 0
M  V30 8000 H 753.339 4.90564 1.11156 0
M  V30 8001 H 753.039 5.86501 -0.359232 0
M  V30 8002 H 754.563 6.08138 0.547743 0
M  V30 8003 H 755.977 5.49168 -1.64581 0
M  V30 8004 H 754.374 5.48391 -2.43696 0
M  V30 8005 H 755.444 4.08192 -2.61738 0
M  V30 8006 N 756.787 0.722489 1.40064 0
M  V30 8007 C 757.717 0.0892452 2.33329 0
M  V30 8008 C 758.698 -0.737992 1.53257 0
M  V30 8009 O 759.883 -0.685516 1.81698 0
M  V30 8010 C 757.013 -0.828139 3.37282 0
M  V30 8011 C 755.967 -0.106005 4.27869 0
M  V30 8012 C 755.293 -1.13957 5.22415 0
M  V30 8013 C 756.593 1.04395 5.11761 0
M  V30 8014 H 758.287 0.868269 2.86534 0
M  V30 8015 H 755.833 0.418982 1.3777 0
M  V30 8016 H 757.786 -1.28058 4.01471 0
M  V30 8017 H 756.51 -1.63914 2.82489 0
M  V30 8018 H 755.169 0.326683 3.65142 0
M  V30 8019 H 754.817 -1.9438 4.63924 0
M  V30 8020 H 754.517 -0.661233 5.83868 0
M  V30 8021 H 756.041 -1.59197 5.89482 0
M  V30 8022 H 757.455 0.670541 5.69365 0
M  V30 8023 H 755.852 1.4511 5.82291 0
M  V30 8024 H 756.922 1.87144 4.47331 0
M  V30 8025 N 758.265 -1.50454 0.469181 0
M  V30 8026 C 759.542 -1.9504 -0.147955 0
M  V30 8027 C 759.922 -1.40946 -1.57154 0
M  V30 8028 O 759.27 -0.609663 -2.20217 0
M  V30 8029 C 759.48 -3.48875 -0.0932198 0
M  V30 8030 C 760.828 -4.23655 -0.283056 0
M  V30 8031 O 761.852 -3.55795 -0.169892 0
M  V30 8032 O 760.711 -5.44102 -0.511396 0
M  V30 8033 H 757.805 -0.819283 -0.11271 0
M  V30 8034 H 760.351 -1.6123 0.529446 0
M  V30 8035 H 759.123 -3.80791 0.900784 0
M  V30 8036 H 758.746 -3.89217 -0.812161 0
M  V30 8037 N 759.743 -0.201713 -1.56304 0
M  V30 8038 C 760.971 0.440723 -2.02152 0
M  V30 8039 C 761.386 1.54735 -1.08179 0
M  V30 8040 O 760.743 1.82289 -0.0878196 0
M  V30 8041 C 760.794 0.990884 -3.47655 0
M  V30 8042 O 760.515 -0.0715937 -4.38041 0
M  V30 8043 C 762.016 1.70854 -4.09052 0
M  V30 8044 H 759.236 0.109987 -0.661924 0
M  V30 8045 H 761.78 -0.312358 -2.021 0
M  V30 8046 H 759.935 1.69432 -3.48384 0
M  V30 8047 H 760.349 0.338892 -5.23404 0
M  V30 8048 H 761.823 2.04572 -5.12693 0
M  V30 8049 H 762.3 2.61462 -3.52894 0
M  V30 8050 H 762.906 1.0508 -4.12114 0
M  V30 8051 N 761.222 1.57436 0.0718424 0
M  V30 8052 C 762.47 1.86878 0.769484 0
M  V30 8053 C 762.791 0.7937 1.78116 0
M  V30 8054 O 762.061 -0.177642 1.95093 0
M  V30 8055 H 760.641 0.689593 0.287177 0
M  V30 8056 H 763.303 1.94841 0.0479427 0
M  V30 8057 H 762.399 2.84387 1.28572 0
M  V30 8058 N 762.7 -0.34323 1.53817 0
M  V30 8059 C 763.663 -1.40444 1.8113 0
M  V30 8060 C 764.663 -1.45604 0.682366 0
M  V30 8061 O 765.853 -1.45974 0.950649 0
M  V30 8062 C 762.985 -2.79369 1.95361 0
M  V30 8063 H 764.178 -1.17489 2.75928 0
M  V30 8064 H 761.731 -0.577636 1.45234 0
M  V30 8065 H 762.466 -3.07607 1.02707 0
M  V30 8066 H 762.251 -2.7702 2.77493 0
M  V30 8067 H 763.741 -3.56178 2.18008 0
M  V30 8068 N 764.178 -1.45556 -0.604258 0
M  V30 8069 C 765.455 -1.40221 -1.36373 0
M  V30 8070 C 765.835 -0.0745195 -2.10968 0
M  V30 8071 O 765.183 0.943594 -2.08107 0
M  V30 8072 C 765.393 -2.61807 -2.30777 0
M  V30 8073 C 766.741 -3.07037 -2.93281 0
M  V30 8074 O 767.765 -2.62203 -2.41097 0
M  V30 8075 O 766.624 -3.8485 -3.88011 0
M  V30 8076 H 763.718 -0.556602 -0.611656 0
M  V30 8077 H 766.264 -1.57689 -0.627069 0
M  V30 8078 H 765.036 -3.50017 -1.74939 0
M  V30 8079 H 764.659 -2.46688 -3.11818 0
M  V30 8080 N 765.656 0.84705 -1.32902 0
M  V30 8081 C 766.933 1.58583 -1.14503 0
M  V30 8082 C 767.313 2.09075 0.291724 0
M  V30 8083 O 766.661 1.88636 1.28952 0
M  V30 8084 C 766.871 2.72605 -2.17916 0
M  V30 8085 C 768.219 3.41993 -2.51646 0
M  V30 8086 O 769.243 2.82838 -2.1652 0
M  V30 8087 O 768.102 4.48761 -3.1189 0
M  V30 8088 H 765.196 0.698756 -0.442345 0
M  V30 8089 H 767.742 0.890516 -1.44457 0
M  V30 8090 H 766.514 2.32876 -3.14459 0
M  V30 8091 H 766.137 3.49807 -1.89 0
M  V30 8092 N 767.134 1.16236 1.06428 0
M  V30 8093 C 768.362 0.967184 1.82902 0
M  V30 8094 C 768.777 -0.484601 1.82475 0
M  V30 8095 O 768.134 -1.33631 1.24294 0
M  V30 8096 C 768.185 1.48534 3.29576 0
M  V30 8097 O 767.906 2.88026 3.3011 0
M  V30 8098 C 769.407 1.33298 4.22784 0
M  V30 8099 H 766.627 0.342923 0.576754 0
M  V30 8100 H 769.171 1.54232 1.34286 0
M  V30 8101 H 767.326 0.952513 3.75508 0
M  V30 8102 H 767.74 3.11721 4.21818 0
M  V30 8103 H 769.214 1.74385 5.23731 0
M  V30 8104 H 769.691 0.278356 4.38317 0
M  V30 8105 H 770.297 1.85535 3.82697 0
M  V30 8106 N 768.612 -1.24939 0.960631 0
M  V30 8107 C 769.858 -1.93104 0.61958 0
M  V30 8108 C 770.191 -1.74991 -0.84212 0
M  V30 8109 O 769.466 -1.09867 -1.60498 0
M  V30 8110 C 769.749 -3.46326 0.986422 0
M  V30 8111 C 769.602 -3.73638 2.50429 0
M  V30 8112 C 770.921 -4.37067 0.515827 0
M  V30 8113 H 768.04 -0.701311 0.226566 0
M  V30 8114 H 770.682 -1.47442 1.19836 0
M  V30 8115 H 768.832 -3.85348 0.493907 0
M  V30 8116 H 770.504 -3.44217 3.07103 0
M  V30 8117 H 768.747 -3.19035 2.93937 0
M  V30 8118 H 769.418 -4.80815 2.71147 0
M  V30 8119 H 771.894 -4.05381 0.938389 0
M  V30 8120 H 770.77 -5.43022 0.80114 0
M  V30 8121 H 771.031 -4.38224 -0.584171 0
M  V30 8122 N 770.09 -0.729906 -1.39679 0
M  V30 8123 C 771.02 -0.101618 -2.33279 0
M  V30 8124 C 772.001 0.729854 -1.53646 0
M  V30 8125 O 773.186 0.67587 -1.82059 0
M  V30 8126 C 770.316 0.81024 -3.37716 0
M  V30 8127 C 769.27 0.0833126 -4.27919 0
M  V30 8128 C 768.596 1.11185 -5.23012 0
M  V30 8129 C 769.896 -1.07107 -5.112 0
M  V30 8130 H 771.59 -0.883452 -2.86069 0
M  V30 8131 H 769.136 -0.426283 -1.37546 0
M  V30 8132 H 771.089 1.25927 -4.02145 0
M  V30 8133 H 769.813 1.62413 -2.83354 0
M  V30 8134 H 768.472 -0.346043 -3.64963 0
M  V30 8135 H 768.12 1.91917 -4.64948 0
M  V30 8136 H 767.82 0.63026 -5.8421 0
M  V30 8137 H 769.344 1.56068 -5.90318 0
M  V30 8138 H 770.758 -0.700726 -5.69002 0
M  V30 8139 H 769.155 -1.48196 -5.81514 0
M  V30 8140 H 770.225 -1.89513 -4.46332 0
M  V30 8141 N 771.568 1.50203 -0.477153 0
M  V30 8142 C 772.478 2.32421 0.319027 0
M  V30 8143 C 773.494 1.43075 0.990233 0
M  V30 8144 O 774.67 1.76123 0.976873 0
M  V30 8145 C 771.735 3.17909 1.38328 0
M  V30 8146 C 770.796 4.23082 0.728036 0
M  V30 8147 C 770.029 5.04484 1.74158 0
M  V30 8148 O 770.252 4.8705 2.96881 0
M  V30 8149 O 769.186 5.8747 1.31006 0
M  V30 8150 H 773.012 3.01638 -0.353281 0
M  V30 8151 H 770.597 1.47478 -0.238891 0
M  V30 8152 H 772.479 3.70937 1.9996 0
M  V30 8153 H 771.154 2.51413 2.03895 0
M  V30 8154 H 770.061 3.7403 0.07261 0
M  V30 8155 H 771.394 4.92065 0.115216 0
M  V30 8156 N 773.046 0.209999 1.56195 0
M  V30 8157 C 773.956 -0.716459 2.23392 0
M  V30 8158 C 774.972 -1.22291 1.23778 0
M  V30 8159 O 776.148 -1.26694 1.56558 0
M  V30 8160 C 773.213 -1.91261 2.89172 0
M  V30 8161 C 772.274 -1.44927 4.04097 0
M  V30 8162 C 771.507 -2.5884 4.66731 0
M  V30 8163 O 771.73 -3.76693 4.2832 0
M  V30 8164 O 770.664 -2.30701 5.55932 0
M  V30 8165 H 774.49 -0.174089 3.03201 0
M  V30 8166 H 772.075 -0.0199505 1.49387 0
M  V30 8167 H 773.957 -2.6114 3.30733 0
M  V30 8168 H 772.632 -2.4433 2.12331 0
M  V30 8169 H 771.539 -0.718839 3.67129 0
M  V30 8170 H 772.872 -0.965084 4.82646 0
M  V30 8171 N 774.524 -1.57472 -0.0634922 0
M  V30 8172 C 775.457 -1.99571 -1.10664 0
M  V30 8173 C 776.435 -0.874015 -1.37112 0
M  V30 8174 O 777.619 -1.13702 -1.50347 0
M  V30 8175 C 774.746 -2.3395 -2.44918 0
M  V30 8176 C 773.792 -3.56213 -2.34551 0
M  V30 8177 S 774.625 -5.06727 -1.73169 0
M  V30 8178 C 775.781 -5.44316 -3.08984 0
M  V30 8179 H 776.014 -2.87739 -0.747905 0
M  V30 8180 H 773.547 -1.5198 -0.272316 0
M  V30 8181 H 775.505 -2.54431 -3.22141 0
M  V30 8182 H 774.166 -1.46297 -2.7795 0
M  V30 8183 H 773.359 -3.77812 -3.33578 0
M  V30 8184 H 772.961 -3.35406 -1.65466 0
M  V30 8185 H 775.253 -5.42894 -4.05305 0
M  V30 8186 H 776.196 -6.4502 -2.92156 0
M  V30 8187 H 776.604 -4.71781 -3.09972 0
M  V30 8188 N 776.003 0.335068 -1.53997 0
M  V30 8189 C 776.951 1.43206 -1.83289 0
M  V30 8190 C 777.945 1.54081 -0.703953 0
M  V30 8191 O 779.151 1.56603 -0.887432 0
M  V30 8192 H 775.526 0.477655 -0.580818 0
M  V30 8193 H 777.497 1.15719 -2.75049 0
M  V30 8194 C 776.246 2.79602 -2.06683 0
M  V30 8195 H 775.569 2.72004 -2.93008 0
M  V30 8196 H 777.009 3.55459 -2.31139 0
M  V30 8197 C 775.468 3.25873 -0.854883 0
M  V30 8198 O 775.998 4.01657 -0.0584648 0
M  V30 8199 N 774.204 2.82777 -0.669729 0
M  V30 8200 H 773.751 2.21269 -1.31901 0
M  V30 8201 H 773.709 3.1409 0.13969 0
M  V30 8202 N 777.481 1.45874 0.596531 0
M  V30 8203 C 778.411 1.5824 1.71705 0
M  V30 8204 C 779.392 0.433366 1.64487 0
M  V30 8205 O 780.577 0.657895 1.82717 0
M  V30 8206 C 777.707 1.55927 3.10329 0
M  V30 8207 C 776.661 2.69659 3.32367 0
M  V30 8208 C 775.987 2.52403 4.71377 0
M  V30 8209 C 777.287 4.11591 3.21544 0
M  V30 8210 H 778.981 2.52035 1.61613 0
M  V30 8211 H 776.527 1.21297 0.776082 0
M  V30 8212 H 778.48 1.63173 3.88526 0
M  V30 8213 H 777.204 0.586674 3.21288 0
M  V30 8214 H 775.863 2.61859 2.56564 0
M  V30 8215 H 775.511 1.53258 4.79083 0
M  V30 8216 H 775.211 3.28679 4.87077 0
M  V30 8217 H 776.735 2.6152 5.5176 0
M  V30 8218 H 778.149 4.20576 3.89601 0
M  V30 8219 H 776.546 4.88344 3.4877 0
M  V30 8220 H 777.616 4.32719 2.1882 0
M  V30 8221 N 778.959 -0.83999 1.33349 0
M  V30 8222 C 780.37 -1.41139 1.22216 0
M  V30 8223 C 780.721 -1.95551 -0.159398 0
M  V30 8224 O 779.846 -1.88721 -1.05893 0
M  V30 8225 C 780.441 -2.56564 2.21269 0
M  V30 8226 C 779 -3.09661 2.13979 0
M  V30 8227 C 778.147 -1.82457 2.08818 0
M  V30 8228 H 781.098 -0.645853 1.44964 0
M  V30 8229 H 781.119 -3.34163 1.81976 0
M  V30 8230 H 780.631 -2.16932 3.21811 0
M  V30 8231 H 778.732 -3.53841 1.16736 0
M  V30 8232 H 778.845 -3.6991 3.04472 0
M  V30 8233 H 777.209 -2.0266 1.54276 0
M  V30 8234 H 777.992 -1.45022 3.11165 0
M  V30 8235 N 780.437 -1.16799 -1.0581 0
M  V30 8236 C 781.685 -0.950642 -1.78346 0
M  V30 8237 C 782.006 0.522524 -1.87869 0
M  V30 8238 O 781.276 1.3795 -1.39092 0
M  V30 8239 H 779.856 -0.348736 -0.6606 0
M  V30 8240 H 782.518 -1.47158 -1.27791 0
M  V30 8241 H 781.614 -1.37359 -2.80248 0
M  V30 8242 N 781.915 1.24427 -0.967243 0
M  V30 8243 C 782.862 2.25398 -0.496419 0
M  V30 8244 C 783.832 1.59667 0.457781 0
M  V30 8245 O 785.017 1.87213 0.368246 0
M  V30 8246 C 782.157 3.44474 0.207693 0
M  V30 8247 C 781.27 4.24804 -0.785221 0
M  V30 8248 C 780.405 5.31169 -0.0572631 0
M  V30 8249 C 779.444 6.03195 -1.04027 0
M  V30 8250 N 778.581 7.01265 -0.34235 0
M  V30 8251 H 783.421 2.65039 -1.36229 0
M  V30 8252 H 780.958 1.30288 -0.682902 0
M  V30 8253 H 782.916 4.12376 0.632612 0
M  V30 8254 H 781.546 3.05672 1.03752 0
M  V30 8255 H 780.598 3.56445 -1.32858 0
M  V30 8256 H 781.91 4.74599 -1.53483 0
M  V30 8257 H 781.064 6.05205 0.425674 0
M  V30 8258 H 779.803 4.8228 0.725047 0
M  V30 8259 H 778.808 5.27964 -1.53409 0
M  V30 8260 H 780.033 6.54173 -1.82302 0
M  V30 8261 H 777.979 6.54648 0.420993 0
M  V30 8262 H 777.896 7.48939 -1.03084 0
M  V30 8263 H 779.164 7.7941 0.118634 0
M  V30 8264 N 783.393 0.737304 1.3929 0
M  V30 8265 C 784.639 0.295581 2.01241 0
M  V30 8266 C 784.994 -1.10561 1.57461 0
M  V30 8267 O 784.287 -1.74346 0.7946 0
M  V30 8268 C 784.481 0.338438 3.55794 0
M  V30 8269 C 784.31 1.74225 4.14579 0
M  V30 8270 C 783.08 2.35502 4.47065 0
M  V30 8271 C 785.278 2.69623 4.37959 0
M  V30 8272 N 783.26 3.68014 4.91365 0
M  V30 8273 C 784.631 3.86873 4.84489 0
M  V30 8274 C 786.686 2.67355 4.2003 0
M  V30 8275 C 785.389 5.02193 5.14971 0
M  V30 8276 C 787.415 3.8182 4.51627 0
M  V30 8277 C 786.777 4.97806 4.98366 0
M  V30 8278 H 782.876 0.154468 0.766592 0
M  V30 8279 H 785.46 0.963768 1.69173 0
M  V30 8280 H 783.631 -0.299406 3.87244 0
M  V30 8281 H 785.363 -0.122053 4.04516 0
M  V30 8282 H 782.118 1.87406 4.34943 0
M  V30 8283 H 782.542 4.36051 5.17869 0
M  V30 8284 H 787.184 1.78876 3.83097 0
M  V30 8285 H 784.902 5.913 5.50809 0
M  V30 8286 H 788.488 3.81366 4.39376 0
M  V30 8287 H 787.368 5.84909 5.22351 0
M  V30 8288 N 784.871 -1.49948 0.485112 0
M  V30 8289 C 785.818 -2.28819 -0.301729 0
M  V30 8290 C 786.788 -1.34496 -0.974683 0
M  V30 8291 O 787.973 -1.63444 -0.984418 0
M  V30 8292 C 785.113 -3.16758 -1.36961 0
M  V30 8293 C 784.226 -4.26125 -0.710027 0
M  V30 8294 C 783.361 -5.01302 -1.75699 0
M  V30 8295 C 782.4 -6.02525 -1.07841 0
M  V30 8296 N 781.537 -6.70927 -2.06886 0
M  V30 8297 H 786.377 -2.95604 0.377127 0
M  V30 8298 H 783.914 -1.45764 0.197826 0
M  V30 8299 H 785.872 -3.66106 -2.00056 0
M  V30 8300 H 784.502 -2.51991 -2.01744 0
M  V30 8301 H 783.554 -3.80385 0.0338278 0
M  V30 8302 H 784.866 -4.98493 -0.175079 0
M  V30 8303 H 784.02 -5.54438 -2.46339 0
M  V30 8304 H 782.759 -4.28672 -2.32577 0
M  V30 8305 H 781.764 -5.48635 -0.357706 0
M  V30 8306 H 782.989 -6.77134 -0.516345 0
M  V30 8307 H 780.935 -6.01079 -2.62755 0
M  V30 8308 H 780.852 -7.39216 -1.58414 0
M  V30 8309 H 782.12 -7.28675 -2.76863 0
M  V30 8310 N 786.349 -0.21828 -1.56081 0
M  V30 8311 C 787.76 0.290166 -1.84431 0
M  V30 8312 C 788.111 1.59712 -1.13958 0
M  V30 8313 O 787.236 2.12516 -0.40815 0
M  V30 8314 C 787.831 0.53325 -3.34577 0
M  V30 8315 C 786.39 0.986011 -3.63256 0
M  V30 8316 C 785.537 0.0472798 -2.7726 0
M  V30 8317 H 788.488 -0.441548 -1.52434 0
M  V30 8318 H 788.509 1.37967 -3.54606 0
M  V30 8319 H 788.021 -0.418137 -3.85841 0
M  V30 8320 H 786.122 1.95087 -3.17446 0
M  V30 8321 H 786.235 0.862684 -4.71269 0
M  V30 8322 H 784.599 0.553471 -2.48614 0
M  V30 8323 H 785.382 -0.898966 -3.31321 0
M  V30 8324 N 787.827 1.57504 0.0551401 0
M  V30 8325 C 788.774 2.04825 1.06373 0
M  V30 8326 C 789.744 0.932108 1.37481 0
M  V30 8327 O 790.929 1.20093 1.48265 0
M  V30 8328 C 788.069 2.51091 2.36743 0
M  V30 8329 C 787.182 3.76392 2.12021 0
M  V30 8330 C 786.317 4.11373 3.36074 0
M  V30 8331 C 785.356 5.29666 3.0679 0
M  V30 8332 N 784.493 5.60205 4.2322 0
M  V30 8333 H 789.333 2.90753 0.653216 0
M  V30 8334 H 786.87 1.43776 0.310951 0
M  V30 8335 H 788.828 2.75973 3.12881 0
M  V30 8336 H 787.458 1.68118 2.75565 0
M  V30 8337 H 786.51 3.58751 1.26498 0
M  V30 8338 H 787.822 4.62662 1.86401 0
M  V30 8339 H 786.976 4.37245 4.20597 0
M  V30 8340 H 785.715 3.23704 3.64784 0
M  V30 8341 H 784.72 5.03574 2.20664 0
M  V30 8342 H 785.945 6.18968 2.79385 0
M  V30 8343 H 783.891 4.75495 4.5193 0
M  V30 8344 H 783.808 6.40928 4.00933 0
M  V30 8345 H 785.076 5.90637 5.08692 0
M  V30 8346 N 789.305 -0.326896 1.54172 0
M  V30 8347 C 790.238 -1.42591 1.78166 0
M  V30 8348 C 791.216 -1.49837 0.631484 0
M  V30 8349 O 792.4 -1.67298 0.868544 0
M  V30 8350 C 789.527 -2.8071 1.89524 0
M  V30 8351 C 788.573 -2.91012 3.11792 0
M  V30 8352 S 789.406 -2.55763 4.70474 0
M  V30 8353 C 790.562 -3.9596 4.84733 0
M  V30 8354 H 790.795 -1.22024 2.71104 0
M  V30 8355 H 788.328 -0.523539 1.45253 0
M  V30 8356 H 790.286 -3.60276 1.96753 0
M  V30 8357 H 788.947 -2.98562 0.975696 0
M  V30 8358 H 788.14 -3.92258 3.16464 0
M  V30 8359 H 787.742 -2.19414 3.02876 0
M  V30 8360 H 790.034 -4.90676 4.67166 0
M  V30 8361 H 790.977 -3.96273 5.86833 0
M  V30 8362 H 791.385 -3.8476 4.13062 0
M  V30 8363 N 790.784 -1.46188 -0.588786 0
M  V30 8364 C 792.033 -1.50452 -1.34339 0
M  V30 8365 C 792.346 -0.158096 -1.9496 0
M  V30 8366 O 793.552 -0.0784918 -2.71387 0
M  V30 8367 C 792.008 -2.65074 -2.43441 0
M  V30 8368 C 791.616 -4.06111 -1.8915 0
M  V30 8369 C 793.36 -2.78603 -3.20282 0
M  V30 8370 C 791.267 -5.12084 -2.95845 0
M  V30 8371 H 790.197 -0.559905 -0.504997 0
M  V30 8372 H 792.848 -1.72382 -0.629014 0
M  V30 8373 H 791.23 -2.36462 -3.1765 0
M  V30 8374 H 792.404 -4.44487 -1.21524 0
M  V30 8375 H 790.719 -3.97197 -1.24995 0
M  V30 8376 H 793.316 -3.54944 -3.99898 0
M  V30 8377 H 793.659 -1.85902 -3.72486 0
M  V30 8378 H 794.192 -3.06832 -2.53178 0
M  V30 8379 H 790.931 -6.06556 -2.48535 0
M  V30 8380 H 790.451 -4.78259 -3.61979 0
M  V30 8381 H 792.13 -5.37661 -3.59902 0
M  V30 8382 N 792.262 0.832906 -1.33792 0
M  V30 8383 C 793.51 1.58539 -1.25338 0
M  V30 8384 C 793.831 1.94175 0.179204 0
M  V30 8385 O 793.101 1.61458 1.10941 0
M  V30 8386 H 791.681 0.58784 -0.460926 0
M  V30 8387 H 794.343 0.995064 -1.67584 0
M  V30 8388 H 793.439 2.51268 -1.85123 0
M  V30 8389 N 793.74 1.17359 1.05189 0
M  V30 8390 C 794.988 0.960087 1.77839 0
M  V30 8391 C 795.309 -0.512554 1.88143 0
M  V30 8392 O 794.579 -1.3721 1.39822 0
M  V30 8393 H 793.159 0.352234 0.658741 0
M  V30 8394 H 795.821 1.47834 1.27008 0
M  V30 8395 H 794.917 1.38843 2.79516 0
M  V30 8396 N 795.218 -1.23913 0.973828 0
M  V30 8397 C 796.467 -1.91455 0.63464 0
M  V30 8398 C 796.78 -1.76893 -0.834759 0
M  V30 8399 O 797.986 -2.3918 -1.28473 0
M  V30 8400 C 796.442 -3.43172 1.08447 0
M  V30 8401 C 796.05 -3.66409 2.57776 0
M  V30 8402 C 797.794 -4.1653 0.818721 0
M  V30 8403 C 795.701 -5.11728 2.9646 0
M  V30 8404 H 794.631 -0.716881 0.233661 0
M  V30 8405 H 797.282 -1.40457 1.18085 0
M  V30 8406 H 795.664 -3.93242 0.466524 0
M  V30 8407 H 796.838 -3.26913 3.24753 0
M  V30 8408 H 795.153 -3.06349 2.82027 0
M  V30 8409 H 797.75 -5.23603 1.08367 0
M  V30 8410 H 798.093 -4.15578 -0.245128 0
M  V30 8411 H 798.626 -3.72428 1.39793 0
M  V30 8412 H 795.365 -5.17806 4.01941 0
M  V30 8413 H 794.885 -5.52199 2.34172 0
M  V30 8414 H 796.564 -5.80009 2.86703 0
M  V30 8415 N 796.696 -0.74468 -1.38897 0
M  V30 8416 C 797.944 -0.296298 -1.99916 0
M  V30 8417 C 798.265 1.12325 -1.59399 0
M  V30 8418 O 797.535 1.76658 -0.846689 0
M  V30 8419 H 796.115 -0.106561 -0.73936 0
M  V30 8420 H 798.777 -0.956793 -1.69798 0
M  V30 8421 H 797.873 -0.352356 -3.10105 0
M  V30 8422 N 798.174 1.49689 -0.493057 0
M  V30 8423 C 799.422 2.02027 0.0541642 0
M  V30 8424 C 799.743 1.37554 1.38217 0
M  V30 8425 O 799.013 0.528174 1.88646 0
M  V30 8426 H 797.593 0.746646 0.0230069 0
M  V30 8427 H 800.255 1.83795 -0.648489 0
M  V30 8428 H 799.351 3.11523 0.189652 0
M  V30 8429 N 799.652 0.226554 1.55963 0
M  V30 8430 C 800.899 -0.403789 1.98433 0
M  V30 8431 C 801.227 -1.59416 1.1143 0
M  V30 8432 O 800.482 -1.95042 0.160389 0
M  V30 8433 C 800.781 -0.87642 3.46488 0
M  V30 8434 C 800.447 0.203973 4.50438 0
M  V30 8435 C 799.109 0.500754 4.78587 0
M  V30 8436 C 801.461 0.934396 5.12756 0
M  V30 8437 C 798.789 1.53239 5.66334 0
M  V30 8438 C 801.141 1.9554 6.0162 0
M  V30 8439 C 799.805 2.25905 6.28111 0
M  V30 8440 H 799.075 -0.147757 0.726119 0
M  V30 8441 H 801.722 0.330121 1.88633 0
M  V30 8442 H 800.027 -1.68918 3.53517 0
M  V30 8443 H 801.724 -1.37407 3.76723 0
M  V30 8444 H 798.314 -0.0374917 4.28584 0
M  V30 8445 H 802.498 0.718355 4.91074 0
M  V30 8446 H 797.754 1.77321 5.85122 0
M  V30 8447 H 801.928 2.52642 6.48957 0
M  V30 8448 H 799.555 3.05985 6.959 0
M  V30 8449 N 801.13 -1.57531 -0.0467866 0
M  V30 8450 C 802.379 -1.87632 -0.740069 0
M  V30 8451 C 802.692 -0.822691 -1.77457 0
M  V30 8452 O 803.898 -1.01235 -2.5192 0
M  V30 8453 C 802.354 -3.32917 -1.36727 0
M  V30 8454 C 801.962 -4.46469 -0.370035 0
M  V30 8455 C 803.706 -3.72189 -2.04146 0
M  V30 8456 C 801.613 -5.82806 -1.00457 0
M  V30 8457 H 800.543 -0.70002 -0.280158 0
M  V30 8458 H 803.194 -1.83499 0.00607151 0
M  V30 8459 H 801.576 -3.31739 -2.16252 0
M  V30 8460 H 802.75 -4.59085 0.397217 0
M  V30 8461 H 801.065 -4.15914 0.201079 0
M  V30 8462 H 803.662 -4.71357 -2.52441 0
M  V30 8463 H 804.005 -3.03268 -2.85192 0
M  V30 8464 H 804.538 -3.75465 -1.3142 0
M  V30 8465 H 801.277 -6.55083 -0.233907 0
M  V30 8466 H 800.797 -5.73944 -1.74209 0
M  V30 8467 H 802.476 -6.28961 -1.51713 0
M  V30 8468 N 802.608 0.318715 -1.54344 0
M  V30 8469 C 803.555 1.39242 -1.84066 0
M  V30 8470 C 804.525 1.51175 -0.688134 0
M  V30 8471 O 805.71 1.66318 -0.935039 0
M  V30 8472 C 802.85 2.75528 -2.07794 0
M  V30 8473 C 801.963 2.72187 -3.35467 0
M  V30 8474 C 801.098 4.00352 -3.4913 0
M  V30 8475 C 800.137 3.91338 -4.7066 0
M  V30 8476 N 799.274 5.11242 -4.81224 0
M  V30 8477 H 804.114 1.13196 -2.75664 0
M  V30 8478 H 801.651 0.547857 -1.36517 0
M  V30 8479 H 803.609 3.54763 -2.19543 0
M  V30 8480 H 802.239 2.99873 -1.19482 0
M  V30 8481 H 801.291 1.84917 -3.3243 0
M  V30 8482 H 802.603 2.61411 -4.24812 0
M  V30 8483 H 801.757 4.88019 -3.60448 0
M  V30 8484 H 800.496 4.1394 -2.57886 0
M  V30 8485 H 799.501 3.02055 -4.59394 0
M  V30 8486 H 800.726 3.7931 -5.63294 0
M  V30 8487 H 798.672 5.25327 -3.92897 0
M  V30 8488 H 798.589 5.0282 -5.64543 0
M  V30 8489 H 799.857 6.0061 -4.96879 0
M  V30 8490 N 804.086 1.46499 0.581025 0
M  V30 8491 C 805.332 1.52121 1.34116 0
M  V30 8492 C 805.665 0.173031 1.93428 0
M  V30 8493 O 804.94 -0.815729 1.76568 0
M  V30 8494 C 805.223 2.62108 2.46924 0
M  V30 8495 C 805.076 4.06462 1.92636 0
M  V30 8496 C 806.395 2.68167 3.48962 0
M  V30 8497 H 803.514 0.5538 0.486287 0
M  V30 8498 H 806.156 1.78443 0.652538 0
M  V30 8499 H 804.306 2.39794 3.05665 0
M  V30 8500 H 805.978 4.40068 1.3834 0
M  V30 8501 H 804.221 4.15862 1.23455 0
M  V30 8502 H 804.892 4.79152 2.74076 0
M  V30 8503 H 807.368 2.8823 3.00104 0
M  V30 8504 H 806.244 3.46942 4.2535 0
M  V30 8505 H 806.505 1.74284 4.06297 0
M  V30 8506 N 805.565 -0.825799 1.34232 0
M  V30 8507 C 806.981 -1.11848 1.13851 0
M  V30 8508 C 807.181 -2.01405 -0.0619031 0
M  V30 8509 O 806.237 -2.41465 -0.738287 0
M  V30 8510 C 807.55 -1.76797 2.43235 0
M  V30 8511 C 809.098 -1.89304 2.49265 0
M  V30 8512 C 809.573 -2.57669 3.78643 0
M  V30 8513 N 811.064 -2.65171 3.79788 0
M  V30 8514 C 811.799 -3.1879 4.76614 0
M  V30 8515 N 811.295 -3.72995 5.83821 0
M  V30 8516 N 813.088 -3.17164 4.64073 0
M  V30 8517 H 805.239 -0.230049 2.11151 0
M  V30 8518 H 807.502 -0.164609 0.9336 0
M  V30 8519 H 807.208 -1.18455 3.31152 0
M  V30 8520 H 807.082 -2.76693 2.56361 0
M  V30 8521 H 809.469 -2.46796 1.6179 0
M  V30 8522 H 809.55 -0.883191 2.4007 0
M  V30 8523 H 809.194 -2.00833 4.66507 0
M  V30 8524 H 809.124 -3.59152 3.8512 0
M  V30 8525 H 811.615 -2.26746 3.02315 0
M  V30 8526 H 811.928 -4.12151 6.53721 0
M  V30 8527 H 810.273 -3.71246 5.87538 0
M  V30 8528 H 813.464 -2.74082 3.79469 0
M  V30 8529 H 813.637 -3.58647 5.397 0
M  V30 8530 N 807.043 -1.17915 -1.04565 0
M  V30 8531 C 807.975 -0.859359 -2.1248 0
M  V30 8532 C 808.988 0.140922 -1.62189 0
M  V30 8533 O 810.177 -0.0862361 -1.78292 0
M  V30 8534 C 807.277 -0.261811 -3.37887 0
M  V30 8535 C 806.45 -1.30651 -4.17431 0
M  V30 8536 C 805.509 -0.725575 -5.21174 0
M  V30 8537 O 804.535 -1.39901 -5.51739 0
M  V30 8538 N 805.737 0.479351 -5.78517 0
M  V30 8539 H 808.502 -1.78818 -2.40508 0
M  V30 8540 H 806.063 -1.07885 -1.20716 0
M  V30 8541 H 808.055 0.14028 -4.04457 0
M  V30 8542 H 806.625 0.570929 -3.07342 0
M  V30 8543 H 805.845 -1.88412 -3.46258 0
M  V30 8544 H 807.133 -2.01099 -4.67372 0
M  V30 8545 H 806.531 1.04431 -5.55977 0
M  V30 8546 H 805.088 0.823427 -6.46578 0
M  V30 8547 N 808.521 1.23394 -0.980386 0
M  V30 8548 C 809.751 1.9556 -0.666319 0
M  V30 8549 C 810.159 1.72786 0.770815 0
M  V30 8550 O 809.502 1.0162 1.53033 0
M  V30 8551 C 809.564 3.48643 -0.876825 0
M  V30 8552 C 809.228 3.95135 -2.29602 0
M  V30 8553 C 810.225 4.03806 -3.2747 0
M  V30 8554 C 807.91 4.28122 -2.62711 0
M  V30 8555 C 809.904 4.44818 -4.56526 0
M  V30 8556 C 807.591 4.68814 -3.9199 0
M  V30 8557 C 808.589 4.77129 -4.88709 0
M  V30 8558 O 808.277 5.16908 -6.15679 0
M  V30 8559 H 808.009 0.629422 -0.246585 0
M  V30 8560 H 810.563 1.57839 -1.31438 0
M  V30 8561 H 808.793 3.86319 -0.171587 0
M  V30 8562 H 810.482 4.0202 -0.55992 0
M  V30 8563 H 811.248 3.78526 -3.03222 0
M  V30 8564 H 807.127 4.20861 -1.8814 0
M  V30 8565 H 810.671 4.51223 -5.32018 0
M  V30 8566 H 806.568 4.93545 -4.16033 0
M  V30 8567 H 807.336 5.3502 -6.19432 0
M  V30 8568 N 809.999 0.752036 1.385 0
M  V30 8569 C 811.276 0.233075 1.94206 0
M  V30 8570 C 811.656 -1.26838 1.68746 0
M  V30 8571 O 811.004 -2.04214 1.02513 0
M  V30 8572 C 811.214 0.58509 3.44061 0
M  V30 8573 C 812.562 0.543871 4.21102 0
M  V30 8574 O 813.586 0.523291 3.52335 0
M  V30 8575 O 812.445 0.553436 5.4369 0
M  V30 8576 H 809.539 0.0483049 0.825588 0
M  V30 8577 H 812.085 0.832053 1.47902 0
M  V30 8578 H 810.857 1.62212 3.56094 0
M  V30 8579 H 810.48 -0.0419738 3.97578 0
M  V30 8580 N 811.477 -1.49425 0.500989 0
M  V30 8581 C 812.409 -2.27037 -0.314159 0
M  V30 8582 C 813.422 -1.33578 -0.930626 0
M  V30 8583 O 814.611 -1.58861 -0.813968 0
M  V30 8584 C 811.711 -3.05968 -1.45729 0
M  V30 8585 C 810.884 -4.27 -0.948135 0
M  V30 8586 C 809.943 -4.87977 -1.96888 0
M  V30 8587 O 808.969 -5.48044 -1.53743 0
M  V30 8588 N 810.171 -4.77627 -3.29928 0
M  V30 8589 H 812.936 -2.97634 0.351336 0
M  V30 8590 H 810.497 -1.58427 0.333536 0
M  V30 8591 H 812.489 -3.43634 -2.1377 0
M  V30 8592 H 811.059 -2.37978 -2.02695 0
M  V30 8593 H 810.279 -3.94091 -0.0926311 0
M  V30 8594 H 811.567 -5.0541 -0.586362 0
M  V30 8595 H 810.965 -4.29926 -3.67669 0
M  V30 8596 H 809.522 -5.19478 -3.93682 0
M  V30 8597 N 812.955 -0.234822 -1.55841 0
M  V30 8598 C 814.204 0.393685 -1.97821 0
M  V30 8599 C 814.517 1.59947 -1.1259 0
M  V30 8600 O 815.723 2.29835 -1.44528 0
M  V30 8601 C 814.179 0.751811 -3.5196 0
M  V30 8602 C 813.787 -0.431898 -4.45913 0
M  V30 8603 C 815.531 1.34518 -4.02623 0
M  V30 8604 C 813.438 -0.0505976 -5.91378 0
M  V30 8605 H 812.368 0.150864 -0.738753 0
M  V30 8606 H 815.019 -0.333132 -1.80451 0
M  V30 8607 H 813.401 1.53642 -3.6498 0
M  V30 8608 H 814.575 -1.20935 -4.44647 0
M  V30 8609 H 812.89 -0.939385 -4.05666 0
M  V30 8610 H 815.487 1.64359 -5.08813 0
M  V30 8611 H 815.83 2.26554 -3.49255 0
M  V30 8612 H 816.363 0.623729 -3.9288 0
M  V30 8613 H 813.102 -0.937779 -6.48757 0
M  V30 8614 H 812.622 0.690898 -5.95808 0
M  V30 8615 H 814.301 0.37146 -6.45933 0
M  V30 8616 N 814.433 1.57553 0.0384317 0
M  V30 8617 C 815.363 2.0898 1.04161 0
M  V30 8618 C 816.344 0.99029 1.38301 0
M  V30 8619 O 817.529 1.26499 1.47349 0
M  V30 8620 C 814.659 2.56145 2.34536 0
M  V30 8621 C 813.613 3.70275 2.14663 0
M  V30 8622 C 812.939 4.03612 3.50715 0
M  V30 8623 C 814.239 4.99067 1.54045 0
M  V30 8624 H 815.933 2.93046 0.613548 0
M  V30 8625 H 813.479 1.40973 0.293684 0
M  V30 8626 H 815.432 2.90741 3.05037 0
M  V30 8627 H 814.156 1.6915 2.79385 0
M  V30 8628 H 812.815 3.36013 1.46597 0
M  V30 8629 H 812.463 3.13698 3.93195 0
M  V30 8630 H 812.163 4.80482 3.38247 0
M  V30 8631 H 813.687 4.40735 4.22593 0
M  V30 8632 H 815.101 5.3168 2.14451 0
M  V30 8633 H 813.498 5.80484 1.52178 0
M  V30 8634 H 814.568 4.8226 0.505259 0
M  V30 8635 N 815.911 -0.310526 1.54511 0
M  V30 8636 C 817.16 -1.0445 1.72549 0
M  V30 8637 C 817.473 -1.88748 0.513172 0
M  V30 8638 O 818.679 -2.65338 0.575165 0
M  V30 8639 C 817.135 -1.90665 3.05246 0
M  V30 8640 C 816.743 -1.11415 4.33925 0
M  V30 8641 C 818.487 -2.63719 3.32645 0
M  V30 8642 C 816.394 -1.96852 5.57677 0
M  V30 8643 H 815.324 -0.393676 0.643067 0
M  V30 8644 H 817.975 -0.302003 1.80998 0
M  V30 8645 H 816.357 -2.68864 2.90737 0
M  V30 8646 H 817.531 -0.378956 4.59239 0
M  V30 8647 H 815.846 -0.499853 4.13389 0
M  V30 8648 H 818.443 -3.27974 4.223 0
M  V30 8649 H 818.786 -3.32047 2.51098 0
M  V30 8650 H 819.319 -1.92574 3.48081 0
M  V30 8651 H 816.058 -1.33009 6.41864 0
M  V30 8652 H 815.578 -2.68069 5.36562 0
M  V30 8653 H 817.257 -2.55127 5.94575 0
M  V30 8654 N 817.389 -1.46805 -0.573248 0
M  V30 8655 C 818.299 -1.60687 -1.70929 0
M  V30 8656 C 819.315 -0.490084 -1.66956 0
M  V30 8657 O 820.491 -0.755482 -1.86693 0
M  V30 8658 C 817.556 -1.60259 -3.07438 0
M  V30 8659 C 816.617 -2.83242 -3.22603 0
M  V30 8660 C 815.85 -2.82825 -4.52599 0
M  V30 8661 O 816.073 -1.92113 -5.37074 0
M  V30 8662 O 815.007 -3.74489 -4.71213 0
M  V30 8663 H 818.833 -2.56782 -1.62163 0
M  V30 8664 H 816.418 -1.29706 -0.741399 0
M  V30 8665 H 818.3 -1.6275 -3.88704 0
M  V30 8666 H 816.975 -0.673268 -3.16621 0
M  V30 8667 H 815.882 -2.86302 -2.40794 0
M  V30 8668 H 817.215 -3.75415 -3.18315 0
M  V30 8669 N 818.867 0.818669 -1.34668 0
M  V30 8670 C 820.116 1.57017 -1.26604 0
M  V30 8671 C 820.429 1.94936 0.161036 0
M  V30 8672 O 821.635 2.69051 0.36386 0
M  V30 8673 C 820.091 2.83305 -2.2196 0
M  V30 8674 C 819.699 2.52671 -3.69948 0
M  V30 8675 C 821.443 3.61324 -2.22813 0
M  V30 8676 C 819.35 3.75178 -4.5716 0
M  V30 8677 H 818.28 0.589323 -0.470335 0
M  V30 8678 H 820.931 0.900956 -1.59859 0
M  V30 8679 H 819.313 3.51874 -1.81661 0
M  V30 8680 H 820.487 1.92186 -4.18809 0
M  V30 8681 H 818.802 1.8792 -3.71584 0
M  V30 8682 H 821.399 4.52294 -2.85192 0
M  V30 8683 H 821.742 3.97759 -1.22857 0
M  V30 8684 H 822.275 2.99703 -2.61578 0
M  V30 8685 H 819.014 3.43861 -5.58068 0
M  V30 8686 H 818.534 4.34931 -4.13031 0
M  V30 8687 H 820.213 4.42542 -4.71981 0
M  V30 8688 N 820.346 1.18468 1.03938 0
M  V30 8689 C 821.586 0.991823 1.78724 0
M  V30 8690 C 821.95 -0.470115 1.86156 0
M  V30 8691 O 823.151 -0.782451 2.5716 0
M  V30 8692 C 821.422 1.63018 3.18056 0
M  V30 8693 S 822.981 1.58527 4.09163 0
M  V30 8694 H 819.799 0.356137 0.615376 0
M  V30 8695 H 822.401 1.50634 1.24618 0
M  V30 8696 H 821.105 2.68642 3.10258 0
M  V30 8697 H 820.636 1.11601 3.77238 0
M  V30 8698 H 822.651 0.602059 4.92534 0
M  V30 8699 N 821.824 -1.22873 0.986916 0
M  V30 8700 C 823.072 -1.91084 0.658121 0
M  V30 8701 C 823.393 -1.77304 -0.811675 0
M  V30 8702 O 822.663 -1.15649 -1.58121 0
M  V30 8703 H 821.243 -0.707251 0.240427 0
M  V30 8704 H 823.905 -1.49357 1.25213 0
M  V30 8705 H 823.001 -2.98373 0.915428 0
M  V30 8706 N 823.302 -0.75937 -1.38099 0
M  V30 8707 C 824.252 -0.111098 -2.27729 0
M  V30 8708 C 825.236 0.687161 -1.45489 0
M  V30 8709 O 826.428 0.552167 -1.68167 0
M  V30 8710 C 823.557 0.776809 -3.34396 0
M  V30 8711 C 822.643 -0.0286108 -4.2409 0
M  V30 8712 N 823.034 -1.06797 -4.94397 0
M  V30 8713 C 821.332 0.197307 -4.45563 0
M  V30 8714 C 822.033 -1.55576 -5.6051 0
M  V30 8715 N 821.009 -0.870059 -5.36592 0
M  V30 8716 H 824.811 -0.907047 -2.79553 0
M  V30 8717 H 822.325 -0.595954 -1.5107 0
M  V30 8718 H 824.322 1.25691 -3.97502 0
M  V30 8719 H 822.982 1.57164 -2.84129 0
M  V30 8720 H 823.993 -1.44988 -4.97191 0
M  V30 8721 H 820.67 0.965028 -4.06194 0
M  V30 8722 H 822.06 -2.42184 -6.26735 0
M  V30 8723 N 824.78 1.49157 -0.508906 0
M  V30 8724 C 825.727 2.2927 0.265288 0
M  V30 8725 C 826.697 1.3603 0.953162 0
M  V30 8726 O 827.882 1.64989 0.958291 0
M  V30 8727 C 825.022 3.18897 1.31904 0
M  V30 8728 C 824.135 4.27201 0.642144 0
M  V30 8729 C 823.27 5.04033 1.67701 0
M  V30 8730 C 822.309 6.04165 0.982422 0
M  V30 8731 N 821.446 6.74133 1.96186 0
M  V30 8732 H 826.286 2.94967 -0.424107 0
M  V30 8733 H 823.823 1.45431 -0.220991 0
M  V30 8734 H 825.781 3.69242 1.94206 0
M  V30 8735 H 824.411 2.55168 1.97709 0
M  V30 8736 H 823.463 3.80283 -0.0943395 0
M  V30 8737 H 824.775 4.98708 0.0957507 0
M  V30 8738 H 823.929 5.58287 2.37487 0
M  V30 8739 H 822.668 4.32317 2.25728 0
M  V30 8740 H 821.673 5.49135 0.270378 0
M  V30 8741 H 822.898 6.7787 0.408554 0
M  V30 8742 H 820.844 6.05183 2.53159 0
M  V30 8743 H 820.761 7.41643 1.46634 0
M  V30 8744 H 822.029 7.32987 2.65236 0
M  V30 8745 N 826.258 0.243083 1.55714 0
M  V30 8746 C 827.221 -0.644723 2.19945 0
M  V30 8747 C 828.221 -1.10562 1.16759 0
M  V30 8748 O 829.411 -1.01095 1.41865 0
M  V30 8749 C 826.543 -1.88569 2.83997 0
M  V30 8750 H 827.736 -0.0843839 2.99781 0
M  V30 8751 H 825.289 -0.00647246 1.56299 0
M  V30 8752 H 826.024 -2.48736 2.08089 0
M  V30 8753 H 825.809 -1.56345 3.59581 0
M  V30 8754 H 827.299 -2.51774 3.33166 0
M  V30 8755 N 827.736 -1.57571 -0.0300757 0
M  V30 8756 C 828.985 -1.88407 -0.720126 0
M  V30 8757 C 829.298 -0.841466 -1.76575 0
M  V30 8758 O 830.504 -1.03902 -2.50832 0
M  V30 8759 C 828.96 -3.34348 -1.33188 0
M  V30 8760 C 828.568 -4.46837 -0.32266 0
M  V30 8761 C 830.312 -3.74333 -2.00187 0
M  V30 8762 C 828.219 -5.83838 -0.942703 0
M  V30 8763 H 827.149 -0.702952 -0.272718 0
M  V30 8764 H 829.8 -1.83482 0.0255337 0
M  V30 8765 H 828.182 -3.34014 -2.12721 0
M  V30 8766 H 829.356 -4.58638 0.445887 0
M  V30 8767 H 827.671 -4.15678 0.245181 0
M  V30 8768 H 830.268 -4.74008 -2.47428 0
M  V30 8769 H 830.611 -3.06275 -2.81959 0
M  V30 8770 H 831.144 -3.76837 -1.2743 0
M  V30 8771 H 827.883 -6.55294 -0.164413 0
M  V30 8772 H 827.403 -5.75759 -1.68111 0
M  V30 8773 H 829.082 -6.30535 -1.45034 0
M  V30 8774 N 829.214 0.302327 -1.54673 0
M  V30 8775 C 830.462 1.03565 -1.73547 0
M  V30 8776 C 830.783 1.87843 -0.523448 0
M  V30 8777 O 830.053 1.90367 0.462295 0
M  V30 8778 H 828.633 0.385358 -0.639928 0
M  V30 8779 H 831.295 0.333632 -1.92023 0
M  V30 8780 H 830.391 1.68952 -2.62415 0
M  V30 8781 N 830.692 1.47107 0.565454 0
M  V30 8782 C 831.92 1.56909 1.3486 0
M  V30 8783 C 832.335 0.216312 1.87557 0
M  V30 8784 O 831.692 -0.789168 1.64555 0
M  V30 8785 C 831.743 2.58776 2.52423 0
M  V30 8786 O 831.464 3.888 2.01906 0
M  V30 8787 C 832.965 2.78683 3.44747 0
M  V30 8788 H 830.185 0.530096 0.411387 0
M  V30 8789 H 832.729 1.92658 0.685782 0
M  V30 8790 H 830.884 2.25983 3.1466 0
M  V30 8791 H 831.298 4.44393 2.78595 0
M  V30 8792 H 832.772 3.53842 4.23674 0
M  V30 8793 H 833.249 1.86208 3.97773 0
M  V30 8794 H 833.855 3.12641 2.88333 0
M  V30 8795 N 832.17 -0.811516 1.35101 0
M  V30 8796 C 833.416 -1.57068 1.28287 0
M  V30 8797 C 833.749 -1.93667 -0.143808 0
M  V30 8798 O 833.024 -1.60953 -1.09199 0
M  V30 8799 C 833.307 -2.86259 2.18466 0
M  V30 8800 C 833.16 -2.56168 3.69727 0
M  V30 8801 C 834.479 -3.87924 2.07852 0
M  V30 8802 H 831.598 -0.569869 0.467353 0
M  V30 8803 H 834.24 -0.934023 1.65457 0
M  V30 8804 H 832.39 -3.4059 1.86898 0
M  V30 8805 H 834.062 -2.08059 4.11715 0
M  V30 8806 H 832.305 -1.89436 3.90252 0
M  V30 8807 H 832.976 -3.48344 4.28206 0
M  V30 8808 H 835.452 -3.4298 2.35593 0
M  V30 8809 H 834.328 -4.76106 2.73157 0
M  V30 8810 H 834.589 -4.2923 1.05896 0
M  V30 8811 N 833.648 -1.19017 -1.03309 0
M  V30 8812 C 834.578 -0.94772 -2.13402 0
M  V30 8813 C 835.559 0.117383 -1.69694 0
M  V30 8814 O 836.744 -0.0367733 -1.94165 0
M  V30 8815 C 833.874 -0.480977 -3.43953 0
M  V30 8816 C 832.828 -1.48743 -4.01322 0
M  V30 8817 C 832.154 -0.877924 -5.27443 0
M  V30 8818 C 833.454 -2.86642 -4.36616 0
M  V30 8819 H 835.148 -1.86846 -2.33942 0
M  V30 8820 H 832.694 -0.899781 -1.12427 0
M  V30 8821 H 834.647 -0.298677 -4.2034 0
M  V30 8822 H 833.371 0.475348 -3.23122 0
M  V30 8823 H 832.03 -1.65681 -3.27025 0
M  V30 8824 H 831.678 0.0858232 -5.02927 0
M  V30 8825 H 831.378 -1.54996 -5.66789 0
M  V30 8826 H 832.902 -0.706326 -6.06501 0
M  V30 8827 H 834.316 -2.73312 -5.03958 0
M  V30 8828 H 832.713 -3.50599 -4.87032 0
M  V30 8829 H 833.783 -3.39617 -3.46105 0
M  V30 8830 N 835.127 1.22348 -0.993418 0
M  V30 8831 C 836.373 1.91393 -0.67056 0
M  V30 8832 C 836.706 1.77163 0.795428 0
M  V30 8833 O 835.981 1.14084 1.57528 0
M  V30 8834 C 836.264 3.43589 -1.0779 0
M  V30 8835 C 836.117 3.66867 -2.60248 0
M  V30 8836 C 837.436 4.35545 -0.631527 0
M  V30 8837 H 834.555 0.695057 -0.24508 0
M  V30 8838 H 837.197 1.44213 -1.23703 0
M  V30 8839 H 835.347 3.83903 -0.595902 0
M  V30 8840 H 837.019 3.35954 -3.16121 0
M  V30 8841 H 835.262 3.1113 -3.02293 0
M  V30 8842 H 835.933 4.73457 -2.838 0
M  V30 8843 H 838.409 4.0275 -1.04554 0
M  V30 8844 H 837.285 5.40707 -0.944831 0
M  V30 8845 H 837.546 4.39618 0.467779 0
M  V30 8846 N 836.605 0.766683 1.37694 0
M  V30 8847 C 837.853 0.328065 1.9942 0
M  V30 8848 C 838.174 -1.09775 1.61166 0
M  V30 8849 O 837.444 -1.75288 0.874686 0
M  V30 8850 H 836.024 0.11831 0.737572 0
M  V30 8851 H 838.686 0.983686 1.68255 0
M  V30 8852 H 837.782 0.401647 3.09505 0
M  V30 8853 N 838.083 -1.48885 0.516809 0
M  V30 8854 C 839.494 -1.86557 0.0729921 0
M  V30 8855 C 839.845 -1.42767 -1.34581 0
M  V30 8856 O 838.97 -0.812514 -2.00567 0
M  V30 8857 C 839.565 -3.38567 0.125686 0
M  V30 8858 C 838.124 -3.75481 -0.262867 0
M  V30 8859 C 837.271 -2.72913 0.491281 0
M  V30 8860 H 840.222 -1.40978 0.728767 0
M  V30 8861 H 840.243 -3.74629 -0.665831 0
M  V30 8862 H 839.755 -3.70408 1.15842 0
M  V30 8863 H 837.856 -3.49251 -1.29824 0
M  V30 8864 H 837.969 -4.79052 0.067579 0
M  V30 8865 H 836.333 -2.54627 -0.0608525 0
M  V30 8866 H 837.116 -3.07599 1.5244 0
M  V30 8867 N 839.561 -0.251338 -1.55583 0
M  V30 8868 C 840.789 0.376187 -2.03451 0
M  V30 8869 C 841.204 1.51215 -1.13047 0
M  V30 8870 O 840.561 1.81917 -0.145769 0
M  V30 8871 C 840.612 0.879779 -3.50631 0
M  V30 8872 O 840.333 -0.210917 -4.37592 0
M  V30 8873 C 841.834 1.57754 -4.14281 0
M  V30 8874 H 839.054 0.0888722 -0.665089 0
M  V30 8875 H 841.598 -0.376497 -2.01004 0
M  V30 8876 H 839.753 1.58263 -3.53598 0
M  V30 8877 H 840.167 0.172203 -5.24217 0
M  V30 8878 H 841.641 1.88158 -5.18942 0
M  V30 8879 H 842.118 2.50103 -3.61034 0
M  V30 8880 H 842.724 0.919154 -4.15249 0
M  V30 8881 N 841.039 1.57585 0.0217189 0
M  V30 8882 C 842.45 1.7787 0.567377 0
M  V30 8883 C 842.801 0.883337 1.7519 0
M  V30 8884 O 841.926 0.0800819 2.16252 0
M  V30 8885 C 842.521 3.2257 1.03606 0
M  V30 8886 C 841.08 3.44026 1.52718 0
M  V30 8887 C 840.227 2.73313 0.468545 0
M  V30 8888 H 843.178 1.57377 -0.2045 0
M  V30 8889 H 843.199 3.29488 1.9031 0
M  V30 8890 H 842.711 3.87711 0.173739 0
M  V30 8891 H 840.812 2.8407 2.41111 0
M  V30 8892 H 840.925 4.52659 1.56962 0
M  V30 8893 H 839.289 2.37299 0.925263 0
M  V30 8894 H 840.072 3.41141 -0.384438 0
M  V30 8895 N 842.517 -0.29412 1.54831 0
M  V30 8896 C 843.763 -1.02999 1.74697 0
M  V30 8897 C 844.096 -1.86687 0.534949 0
M  V30 8898 O 843.371 -1.88789 -0.467863 0
M  V30 8899 C 843.654 -1.93024 3.03996 0
M  V30 8900 C 843.507 -1.1247 4.35512 0
M  V30 8901 C 844.826 -2.92085 3.29203 0
M  V30 8902 H 841.945 -0.373039 0.635618 0
M  V30 8903 H 844.587 -0.304065 1.87551 0
M  V30 8904 H 842.737 -2.5492 2.93169 0
M  V30 8905 H 844.409 -0.528067 4.58268 0
M  V30 8906 H 842.652 -0.427574 4.31688 0
M  V30 8907 H 843.323 -1.78728 5.22265 0
M  V30 8908 H 845.799 -2.40319 3.39685 0
M  V30 8909 H 844.675 -3.52234 4.20978 0
M  V30 8910 H 844.936 -3.66107 2.47827 0
M  V30 8911 N 843.995 -1.47404 -0.557645 0
M  V30 8912 C 844.943 -1.60265 -1.68576 0
M  V30 8913 C 845.937 -0.469982 -1.6275 0
M  V30 8914 O 847.143 -0.647764 -1.67941 0
M  V30 8915 H 843.518 -0.504353 -0.557792 0
M  V30 8916 H 845.489 -2.55066 -1.54867 0
M  V30 8917 C 844.238 -1.63369 -3.0693 0
M  V30 8918 H 843.561 -2.49874 -3.12095 0
M  V30 8919 H 845.001 -1.76417 -3.85556 0
M  V30 8920 C 843.46 -0.366921 -3.34896 0
M  V30 8921 O 843.99 0.53218 -3.98159 0
M  V30 8922 N 842.196 -0.247082 -2.89548 0
M  V30 8923 H 841.743 -0.979669 -2.38244 0
M  V30 8924 H 841.701 0.599552 -3.0863 0
M  V30 8925 N 845.473 0.80434 -1.35529 0
M  V30 8926 C 846.722 1.55665 -1.28263 0
M  V30 8927 C 847.035 1.95096 0.140352 0
M  V30 8928 O 848.241 2.69422 0.335303 0
M  V30 8929 C 846.697 2.80935 -2.24952 0
M  V30 8930 C 846.305 2.48733 -3.72607 0
M  V30 8931 C 848.049 3.5894 -2.26632 0
M  V30 8932 C 845.956 3.70308 -4.61114 0
M  V30 8933 H 844.886 0.584301 -0.476559 0
M  V30 8934 H 847.537 0.88395 -1.60806 0
M  V30 8935 H 845.919 3.49927 -1.85383 0
M  V30 8936 H 847.093 1.87733 -4.20824 0
M  V30 8937 H 845.408 1.83969 -3.73557 0
M  V30 8938 H 848.005 4.49244 -2.89973 0
M  V30 8939 H 848.348 3.96433 -1.27069 0
M  V30 8940 H 848.881 2.96912 -2.64742 0
M  V30 8941 H 845.62 3.37922 -5.61684 0
M  V30 8942 H 845.14 4.30526 -4.17621 0
M  V30 8943 H 846.819 4.37511 -4.76648 0
M  V30 8944 N 846.951 1.19563 1.02676 0
M  V30 8945 C 848.2 0.993864 1.75514 0
M  V30 8946 C 848.513 -0.475882 1.89723 0
M  V30 8947 O 849.719 -0.796525 2.59553 0
M  V30 8948 C 848.175 1.72937 3.15628 0
M  V30 8949 C 847.783 3.23937 3.09466 0
M  V30 8950 C 849.527 1.61092 3.92746 0
M  V30 8951 C 847.434 3.90067 4.44524 0
M  V30 8952 H 846.364 0.368244 0.657961 0
M  V30 8953 H 849.015 1.43081 1.14891 0
M  V30 8954 H 847.397 1.22025 3.76731 0
M  V30 8955 H 848.571 3.81983 2.57731 0
M  V30 8956 H 846.886 3.3608 2.45843 0
M  V30 8957 H 849.483 2.07848 4.92649 0
M  V30 8958 H 849.826 0.565415 4.12442 0
M  V30 8959 H 850.359 2.09361 3.3825 0
M  V30 8960 H 847.098 4.94725 4.30032 0
M  V30 8961 H 846.618 3.36809 4.96306 0
M  V30 8962 H 848.297 3.93736 5.13401 0
M  V30 8963 N 848.429 -1.21819 0.999893 0
M  V30 8964 C 849.677 -1.90375 0.678351 0
M  V30 8965 C 849.998 -1.78155 -0.792824 0
M  V30 8966 O 849.268 -1.17319 -1.56885 0
M  V30 8967 H 847.848 -0.704661 0.247915 0
M  V30 8968 H 850.51 -1.48021 1.2679 0
M  V30 8969 H 849.606 -2.97385 0.947023 0
M  V30 8970 N 849.908 -0.773975 -1.37286 0
M  V30 8971 C 851.324 -0.45386 -1.53011 0
M  V30 8972 C 851.524 1.03018 -1.73175 0
M  V30 8973 O 850.58 1.81597 -1.75438 0
M  V30 8974 C 851.893 -1.27087 -2.72524 0
M  V30 8975 C 853.441 -1.26299 -2.86387 0
M  V30 8976 C 853.916 -2.0634 -4.08886 0
M  V30 8977 N 855.407 -2.03706 -4.16003 0
M  V30 8978 C 856.142 -2.62418 -5.09828 0
M  V30 8979 N 855.638 -3.29926 -6.09197 0
M  V30 8980 N 857.431 -2.52236 -5.02328 0
M  V30 8981 H 849.582 -1.73551 -1.22449 0
M  V30 8982 H 851.845 -0.736874 -0.596423 0
M  V30 8983 H 851.551 -2.32263 -2.64096 0
M  V30 8984 H 851.425 -0.90157 -3.66267 0
M  V30 8985 H 853.812 -0.219213 -2.94285 0
M  V30 8986 H 853.893 -1.67195 -1.93596 0
M  V30 8987 H 853.537 -3.10741 -4.01749 0
M  V30 8988 H 853.467 -1.62825 -5.00795 0
M  V30 8989 H 855.958 -1.54559 -3.44848 0
M  V30 8990 H 856.271 -3.72095 -6.77322 0
M  V30 8991 H 854.616 -3.34026 -6.09469 0
M  V30 8992 H 857.807 -1.99108 -4.23643 0
M  V30 8993 H 857.98 -2.98286 -5.75265 0
M  V30 8994 N 851.386 1.48609 -0.524698 0
M  V30 8995 C 852.334 2.31205 0.254398 0
M  V30 8996 C 853.328 1.40894 0.940491 0
M  V30 8997 O 854.534 1.57827 0.865478 0
M  V30 8998 H 850.909 0.745199 0.100907 0
M  V30 8999 H 852.88 2.94804 -0.461876 0
M  V30 9000 C 851.629 3.2282 1.2916 0
M  V30 9001 H 850.952 3.92255 0.773074 0
M  V30 9002 H 852.392 3.83508 1.80825 0
M  V30 9003 C 850.851 2.4406 2.32242 0
M  V30 9004 O 851.381 2.16163 3.3858 0
M  V30 9005 N 849.587 2.05651 2.05319 0
M  V30 9006 H 849.134 2.28539 1.18861 0
M  V30 9007 H 849.092 1.53265 2.74513 0
M  V30 9008 N 852.864 0.259585 1.55447 0
M  V30 9009 C 853.794 -0.62852 2.24882 0
M  V30 9010 C 854.775 -1.17128 1.23349 0
M  V30 9011 O 855.96 -1.20829 1.52033 0
M  V30 9012 C 853.09 -1.81983 2.95803 0
M  V30 9013 C 852.044 -1.40929 4.04132 0
M  V30 9014 C 851.37 -2.68246 4.62545 0
M  V30 9015 C 852.67 -0.570956 5.1917 0
M  V30 9016 H 854.364 -0.0495021 2.99359 0
M  V30 9017 H 851.91 -0.0223688 1.43983 0
M  V30 9018 H 853.863 -2.44689 3.43082 0
M  V30 9019 H 852.587 -2.42444 2.18835 0
M  V30 9020 H 851.246 -0.805519 3.57641 0
M  V30 9021 H 850.894 -3.26931 3.82263 0
M  V30 9022 H 850.594 -2.41495 5.35681 0
M  V30 9023 H 852.118 -3.31827 5.12565 0
M  V30 9024 H 853.532 -1.10262 5.62597 0
M  V30 9025 H 851.929 -0.398979 5.98772 0
M  V30 9026 H 852.999 0.413918 4.8313 0
M  V30 9027 N 854.342 -1.57594 -0.0133615 0
M  V30 9028 C 855.272 -2.10611 -1.00823 0
M  V30 9029 C 856.253 -1.01217 -1.36708 0
M  V30 9030 O 857.438 -1.28827 -1.45318 0
M  V30 9031 C 854.568 -2.59844 -2.30431 0
M  V30 9032 C 853.522 -3.73644 -2.08745 0
M  V30 9033 C 852.848 -4.09141 -3.4425 0
M  V30 9034 C 854.148 -5.01454 -1.46086 0
M  V30 9035 H 855.842 -2.93985 -0.566849 0
M  V30 9036 H 853.388 -1.41423 -0.271219 0
M  V30 9037 H 855.341 -2.95557 -3.00373 0
M  V30 9038 H 854.065 -1.73573 -2.76658 0
M  V30 9039 H 852.724 -3.38303 -1.41232 0
M  V30 9040 H 852.372 -3.19914 -3.88155 0
M  V30 9041 H 852.072 -4.85802 -3.3056 0
M  V30 9042 H 853.596 -4.47402 -4.15528 0
M  V30 9043 H 855.01 -5.35024 -2.05966 0
M  V30 9044 H 853.407 -5.82832 -1.42924 0
M  V30 9045 H 854.477 -4.83003 -0.428471 0
M  V30 9046 N 855.82 0.285905 -1.54985 0
M  V30 9047 C 857.048 1.03776 -1.78992 0
M  V30 9048 C 857.463 1.80402 -0.556814 0
M  V30 9049 O 856.82 1.76242 0.473801 0
M  V30 9050 C 856.871 2.0065 -3.00702 0
M  V30 9051 O 856.592 1.27131 -4.19249 0
M  V30 9052 C 858.093 2.87753 -3.37214 0
M  V30 9053 H 855.313 0.307126 -0.596586 0
M  V30 9054 H 857.857 0.3206 -2.01971 0
M  V30 9055 H 856.012 2.67847 -2.79887 0
M  V30 9056 H 856.426 1.92316 -4.8797 0
M  V30 9057 H 857.9 3.51548 -4.2558 0
M  V30 9058 H 858.377 3.56848 -2.56039 0
M  V30 9059 H 858.983 2.26065 -3.60242 0
M  V30 9060 N 857.298 1.47698 0.54982 0
M  V30 9061 C 858.23 1.56806 1.67166 0
M  V30 9062 C 859.243 0.453709 1.5635 0
M  V30 9063 O 860.432 0.723663 1.63173 0
M  V30 9064 C 857.532 1.4632 3.05686 0
M  V30 9065 C 856.705 2.72452 3.42182 0
M  V30 9066 C 855.764 2.55698 4.59897 0
M  V30 9067 O 854.79 3.29534 4.64108 0
M  V30 9068 N 855.992 1.64009 5.56849 0
M  V30 9069 H 858.757 2.53545 1.59797 0
M  V30 9070 H 856.318 1.44171 0.736635 0
M  V30 9071 H 858.31 1.32835 3.82279 0
M  V30 9072 H 856.88 0.57634 3.07241 0
M  V30 9073 H 856.1 3.00644 2.54964 0
M  V30 9074 H 857.388 3.56172 3.63344 0
M  V30 9075 H 856.786 1.03186 5.5621 0
M  V30 9076 H 855.343 1.56473 6.3274 0
M  V30 9077 N 858.776 -0.797141 1.35954 0
M  V30 9078 C 860.025 -1.54983 1.29086 0
M  V30 9079 C 860.338 -1.95167 -0.130003 0
M  V30 9080 O 861.544 -2.69596 -0.32101 0
M  V30 9081 C 860 -2.79738 2.26439 0
M  V30 9082 C 859.608 -2.46753 3.73921 0
M  V30 9083 C 861.352 -3.57733 2.28533 0
M  V30 9084 C 859.259 -3.67858 4.63071 0
M  V30 9085 H 858.189 -0.581766 0.479651 0
M  V30 9086 H 860.84 -0.87541 1.61273 0
M  V30 9087 H 859.222 -3.48939 1.87236 0
M  V30 9088 H 860.396 -1.85499 4.21814 0
M  V30 9089 H 858.711 -1.81985 3.74527 0
M  V30 9090 H 861.308 -4.47699 2.92351 0
M  V30 9091 H 861.651 -3.95754 1.29169 0
M  V30 9092 H 862.184 -2.95504 2.66313 0
M  V30 9093 H 858.923 -3.34939 5.63468 0
M  V30 9094 H 858.443 -4.28305 4.19898 0
M  V30 9095 H 860.122 -4.34977 4.78961 0
M  V30 9096 N 860.254 -1.20106 -1.0204 0
M  V30 9097 C 861.502 -1.0069 -1.75231 0
M  V30 9098 C 861.823 0.462491 -1.89436 0
M  V30 9099 O 861.093 1.33455 -1.4341 0
M  V30 9100 H 859.673 -0.369576 -0.649171 0
M  V30 9101 H 862.335 -1.51149 -1.23044 0
M  V30 9102 H 861.431 -1.46205 -2.75736 0
M  V30 9103 N 861.732 1.21287 -1.00634 0
M  V30 9104 C 862.972 1.92106 -0.698194 0
M  V30 9105 C 863.336 1.76437 0.757222 0
M  V30 9106 O 864.537 2.41641 1.17741 0
M  V30 9107 C 862.808 3.39748 -1.10932 0
M  V30 9108 S 864.367 4.29013 -0.921586 0
M  V30 9109 H 861.185 0.663755 -0.254853 0
M  V30 9110 H 863.787 1.46772 -1.29145 0
M  V30 9111 H 862.491 3.48669 -2.16467 0
M  V30 9112 H 862.022 3.90101 -0.508419 0
M  V30 9113 H 864.037 4.95871 0.180578 0
M  V30 9114 N 863.21 0.781244 1.36873 0
M  V30 9115 C 864.438 0.361566 2.03716 0
M  V30 9116 C 864.853 -1.01937 1.58916 0
M  V30 9117 O 864.21 -1.65237 0.774783 0
M  V30 9118 C 864.261 0.406391 3.59208 0
M  V30 9119 O 863.982 1.73286 4.02372 0
M  V30 9120 C 865.483 -0.0236894 4.43294 0
M  V30 9121 H 862.703 0.150133 0.653988 0
M  V30 9122 H 865.247 1.05781 1.75016 0
M  V30 9123 H 863.402 -0.241364 3.86647 0
M  V30 9124 H 863.816 1.67804 4.96933 0
M  V30 9125 H 865.29 0.0588205 5.51969 0
M  V30 9126 H 865.767 -1.07529 4.25833 0
M  V30 9127 H 866.373 0.59624 4.211 0
M  V30 9128 N 864.689 -1.48329 0.532571 0
M  V30 9129 C 865.619 -2.32485 -0.217511 0
M  V30 9130 C 866.6 -1.42255 -0.932598 0
M  V30 9131 O 867.785 -1.7114 -0.917873 0
M  V30 9132 C 864.915 -3.23509 -1.26329 0
M  V30 9133 C 863.869 -4.22784 -0.666191 0
M  V30 9134 C 863.195 -5.0296 -1.81482 0
M  V30 9135 C 864.495 -5.21031 0.363813 0
M  V30 9136 H 866.189 -2.95445 0.485014 0
M  V30 9137 H 863.735 -1.42075 0.234694 0
M  V30 9138 H 865.688 -3.81211 -1.79601 0
M  V30 9139 H 864.412 -2.58554 -1.99543 0
M  V30 9140 H 863.071 -3.66272 -0.15498 0
M  V30 9141 H 862.719 -4.34427 -2.5354 0
M  V30 9142 H 862.419 -5.70154 -1.4212 0
M  V30 9143 H 863.943 -5.63514 -2.35126 0
M  V30 9144 H 865.357 -5.73241 -0.0819079 0
M  V30 9145 H 863.754 -5.96292 0.674956 0
M  V30 9146 H 864.824 -4.6801 1.26865 0
M  V30 9147 N 866.167 -0.267825 -1.55308 0
M  V30 9148 C 867.115 0.638848 -2.23655 0
M  V30 9149 C 868.109 1.16363 -1.2311 0
M  V30 9150 O 869.315 1.1181 -1.41062 0
M  V30 9151 H 865.69 0.224551 -0.717691 0
M  V30 9152 H 867.661 0.0394809 -2.98374 0
M  V30 9153 C 866.41 1.8151 -2.96562 0
M  V30 9154 H 865.733 1.42048 -3.73715 0
M  V30 9155 H 867.173 2.42629 -3.47717 0
M  V30 9156 C 865.632 2.69911 -2.01618 0
M  V30 9157 O 866.162 3.70058 -1.56268 0
M  V30 9158 N 864.368 2.36924 -1.68272 0
M  V30 9159 H 863.915 1.55533 -2.05347 0
M  V30 9160 H 863.873 2.96343 -1.05016 0
M  V30 9161 N 867.645 1.57599 0.00500368 0
M  V30 9162 C 868.892 1.90349 0.690895 0
M  V30 9163 C 869.22 0.868045 1.74055 0
M  V30 9164 O 868.475 -0.127855 1.95282 0
M  V30 9165 C 868.774 3.29855 1.37588 0
M  V30 9166 C 868.44 4.48548 0.459906 0
M  V30 9167 C 867.102 4.80752 0.207693 0
M  V30 9168 C 869.454 5.20919 -0.171054 0
M  V30 9169 C 866.782 5.82701 -0.683855 0
M  V30 9170 C 869.134 6.23818 -1.05045 0
M  V30 9171 C 867.798 6.54481 -1.31189 0
M  V30 9172 H 867.068 0.696538 0.252816 0
M  V30 9173 H 869.715 1.91436 -0.0494495 0
M  V30 9174 H 868.02 3.24869 2.19015 0
M  V30 9175 H 869.717 3.52452 1.91255 0
M  V30 9176 H 866.307 4.23384 0.666648 0
M  V30 9177 H 870.491 4.96299 0.0107942 0
M  V30 9178 H 865.747 6.04822 -0.894467 0
M  V30 9179 H 869.921 6.79029 -1.54574 0
M  V30 9180 H 867.548 7.33299 -2.00442 0
M  V30 9181 N 869.123 -0.277682 1.55134 0
M  V30 9182 C 870.534 -0.849063 1.66276 0
M  V30 9183 C 870.885 -1.87223 0.5867 0
M  V30 9184 O 870.01 -2.14676 -0.272635 0
M  V30 9185 C 870.605 -1.54681 3.01429 0
M  V30 9186 C 869.164 -2.06628 3.14614 0
M  V30 9187 C 868.311 -0.906748 2.62056 0
M  V30 9188 H 871.262 -0.0541357 1.58608 0
M  V30 9189 H 871.283 -2.41356 2.94156 0
M  V30 9190 H 870.795 -0.80189 3.79725 0
M  V30 9191 H 868.896 -2.84095 2.41082 0
M  V30 9192 H 869.009 -2.2848 4.2111 0
M  V30 9193 H 867.373 -1.29882 2.19095 0
M  V30 9194 H 868.156 -0.175414 3.42852 0
M  V30 9195 N 870.601 -1.47988 -0.541979 0
M  V30 9196 C 871.85 -1.5465 -1.29485 0
M  V30 9197 C 872.163 -0.220041 -1.94358 0
M  V30 9198 O 873.369 -0.164792 -2.70999 0
M  V30 9199 C 871.825 -2.72685 -2.34885 0
M  V30 9200 C 871.433 -4.11923 -1.76134 0
M  V30 9201 C 873.177 -2.88651 -3.11257 0
M  V30 9202 C 871.084 -5.21237 -2.79404 0
M  V30 9203 H 870.014 -0.575688 -0.486928 0
M  V30 9204 H 872.665 -1.74296 -0.573853 0
M  V30 9205 H 871.047 -2.46448 -3.09966 0
M  V30 9206 H 872.221 -4.48128 -1.07322 0
M  V30 9207 H 870.536 -4.00972 -1.12295 0
M  V30 9208 H 873.133 -3.67487 -3.88404 0
M  V30 9209 H 873.476 -1.97658 -3.66384 0
M  V30 9210 H 874.009 -3.14731 -2.43288 0
M  V30 9211 H 870.748 -6.14156 -2.29113 0
M  V30 9212 H 870.268 -4.89533 -3.4658 0
M  V30 9213 H 871.947 -5.48839 -3.42615 0
M  V30 9214 N 872.079 0.78992 -1.36375 0
M  V30 9215 C 873.304 1.58389 -1.33895 0
M  V30 9216 C 873.729 1.8794 0.0774934 0
M  V30 9217 O 873.087 1.4785 1.0493 0
M  V30 9218 C 873.135 2.88201 -2.16732 0
M  V30 9219 O 872.239 3.81778 -1.55946 0
M  V30 9220 H 871.58 0.480471 -0.458305 0
M  V30 9221 H 874.11 0.979119 -1.79651 0
M  V30 9222 H 874.12 3.37475 -2.29292 0
M  V30 9223 H 872.795 2.66019 -3.19698 0
M  V30 9224 H 871.372 3.40371 -1.52323 0
M  V30 9225 N 873.557 1.20646 1.01402 0
M  V30 9226 C 874.968 1.01823 1.56489 0
M  V30 9227 C 875.319 -0.42463 1.9155 0
M  V30 9228 O 874.444 -1.30644 1.72514 0
M  V30 9229 C 875.039 1.84208 2.84347 0
M  V30 9230 C 873.598 1.69743 3.35953 0
M  V30 9231 C 872.745 1.8198 2.09233 0
M  V30 9232 H 875.696 1.348 0.837539 0
M  V30 9233 H 875.717 1.34698 3.55861 0
M  V30 9234 H 875.229 2.89215 2.58798 0
M  V30 9235 H 873.33 0.673833 3.66456 0
M  V30 9236 H 873.443 2.51173 4.07981 0
M  V30 9237 H 871.807 1.25193 2.21808 0
M  V30 9238 H 872.59 2.88477 1.86107 0
M  V30 9239 N 875.035 -1.20752 1.01276 0
M  V30 9240 C 876.284 -1.8934 0.695229 0
M  V30 9241 C 876.597 -1.79459 -0.77806 0
M  V30 9242 O 877.803 -2.43146 -1.20799 0
M  V30 9243 C 876.259 -3.39548 1.1931 0
M  V30 9244 C 875.867 -3.58023 2.69302 0
M  V30 9245 C 877.611 -4.13714 0.950823 0
M  V30 9246 C 875.518 -5.02037 3.1259 0
M  V30 9247 H 874.448 -0.709084 0.25635 0
M  V30 9248 H 877.099 -1.36629 1.22494 0
M  V30 9249 H 875.481 -3.91559 0.591395 0
M  V30 9250 H 876.655 -3.16416 3.34989 0
M  V30 9251 H 874.97 -2.97222 2.9163 0
M  V30 9252 H 877.567 -5.19891 1.24971 0
M  V30 9253 H 877.91 -4.16147 -0.112791 0
M  V30 9254 H 878.443 -3.67792 1.51571 0
M  V30 9255 H 875.182 -5.04757 4.18211 0
M  V30 9256 H 874.702 -5.44469 2.51621 0
M  V30 9257 H 876.381 -5.70594 3.0501 0
M  V30 9258 N 876.513 -0.788492 -1.36457 0
M  V30 9259 C 877.423 -0.187385 -2.3385 0
M  V30 9260 C 878.439 0.659984 -1.60998 0
M  V30 9261 O 879.615 0.575986 -1.92988 0
M  V30 9262 C 876.68 0.668525 -3.40194 0
M  V30 9263 C 875.741 -0.197234 -4.28847 0
M  V30 9264 C 874.974 0.61792 -5.30111 0
M  V30 9265 O 875.197 1.85396 -5.3943 0
M  V30 9266 O 874.131 0.0183016 -6.01897 0
M  V30 9267 H 877.957 -0.992617 -2.87021 0
M  V30 9268 H 875.542 -0.549934 -1.3891 0
M  V30 9269 H 877.424 1.15663 -4.05216 0
M  V30 9270 H 876.099 1.45166 -2.89324 0
M  V30 9271 H 875.006 -0.73207 -3.66867 0
M  V30 9272 H 876.339 -0.943863 -4.83065 0
M  V30 9273 N 877.991 1.48044 -0.54043 0
M  V30 9274 C 879.219 2.06895 -0.0145153 0
M  V30 9275 C 879.634 1.39552 1.27164 0
M  V30 9276 O 878.991 0.486454 1.75897 0
M  V30 9277 C 879.042 3.60934 0.202278 0
M  V30 9278 O 878.763 4.25749 -1.03293 0
M  V30 9279 C 880.264 4.36607 0.767387 0
M  V30 9280 H 877.484 0.66991 -0.0382368 0
M  V30 9281 H 880.028 1.90288 -0.749057 0
M  V30 9282 H 878.183 3.77111 0.886897 0
M  V30 9283 H 878.597 5.18048 -0.820167 0
M  V30 9284 H 880.071 5.45126 0.86845 0
M  V30 9285 H 880.548 4.01745 1.77477 0
M  V30 9286 H 881.154 4.25133 0.119002 0
M  V30 9287 N 879.47 0.276058 1.55163 0
M  V30 9288 C 880.716 -0.340959 1.99913 0
M  V30 9289 C 881.049 -1.55434 1.16422 0
M  V30 9290 O 880.324 -1.93081 0.234517 0
M  V30 9291 C 880.607 -0.722211 3.52783 0
M  V30 9292 C 880.46 0.498575 4.47028 0
M  V30 9293 C 881.779 -1.5583 4.11589 0
M  V30 9294 H 878.898 -0.122455 0.726756 0
M  V30 9295 H 881.54 0.38319 1.86096 0
M  V30 9296 H 879.69 -1.33919 3.64689 0
M  V30 9297 H 881.362 1.13713 4.47065 0
M  V30 9298 H 879.605 1.13646 4.18649 0
M  V30 9299 H 880.276 0.188041 5.5168 0
M  V30 9300 H 882.752 -1.03722 4.02965 0
M  V30 9301 H 881.628 -1.79387 5.1876 0
M  V30 9302 H 881.889 -2.53963 3.61877 0
M  V30 9303 N 880.948 -1.576 0.00335426 0
M  V30 9304 C 882.359 -1.7875 -0.539008 0
M  V30 9305 C 882.71 -0.911097 -1.73763 0
M  V30 9306 O 881.835 -0.114476 -2.16097 0
M  V30 9307 C 882.43 -3.24177 -0.984611 0
M  V30 9308 C 880.989 -3.46412 -1.47226 0
M  V30 9309 C 880.136 -2.74024 -0.425004 0
M  V30 9310 H 883.087 -1.57032 0.229511 0
M  V30 9311 H 883.108 -3.32474 -1.85044 0
M  V30 9312 H 882.62 -3.87938 -0.112035 0
M  V30 9313 H 880.721 -2.8787 -2.36562 0
M  V30 9314 H 880.834 -4.55098 -1.49741 0
M  V30 9315 H 879.198 -2.38741 -0.887394 0
M  V30 9316 H 879.981 -3.40486 0.438662 0
M  V30 9317 N 882.426 0.269451 -1.5528 0
M  V30 9318 C 883.672 1.00206 -1.76314 0
M  V30 9319 C 884.005 1.85812 -0.564581 0
M  V30 9320 O 883.28 1.89509 0.437769 0
M  V30 9321 C 883.563 1.88163 -3.07029 0
M  V30 9322 C 883.416 1.05527 -4.37246 0
M  V30 9323 C 884.735 2.8681 -3.33808 0
M  V30 9324 H 881.854 0.36288 -0.641473 0
M  V30 9325 H 884.496 0.274188 -1.88011 0
M  V30 9326 H 882.646 2.50224 -2.97187 0
M  V30 9327 H 884.318 0.455094 -4.5905 0
M  V30 9328 H 882.561 0.358842 -4.32313 0
M  V30 9329 H 883.232 1.70397 -5.25042 0
M  V30 9330 H 885.708 2.34884 -3.43466 0
M  V30 9331 H 884.584 3.45492 -4.26528 0
M  V30 9332 H 884.845 3.62118 -2.5362 0
M  V30 9333 N 883.904 1.48273 0.534124 0
M  V30 9334 C 884.851 1.62487 1.6391 0
M  V30 9335 C 885.821 0.467062 1.59398 0
M  V30 9336 O 887.006 0.690029 1.77885 0
M  V30 9337 C 884.146 1.66671 3.02183 0
M  V30 9338 C 883.259 2.9353 3.16961 0
M  V30 9339 C 882.394 2.88902 4.45768 0
M  V30 9340 C 881.433 4.10483 4.54059 0
M  V30 9341 N 880.57 4.03956 5.74251 0
M  V30 9342 H 885.41 2.56851 1.51101 0
M  V30 9343 H 882.947 1.27381 0.735704 0
M  V30 9344 H 884.905 1.67079 3.82283 0
M  V30 9345 H 883.535 0.758011 3.13774 0
M  V30 9346 H 882.587 3.02886 2.3014 0
M  V30 9347 H 883.899 3.83501 3.18949 0
M  V30 9348 H 883.053 2.87688 5.34154 0
M  V30 9349 H 881.792 1.96652 4.46295 0
M  V30 9350 H 880.797 4.11977 3.64081 0
M  V30 9351 H 882.022 5.03887 4.55274 0
M  V30 9352 H 879.968 3.14525 5.75682 0
M  V30 9353 H 879.885 4.87628 5.77715 0
M  V30 9354 H 881.153 4.06795 6.64935 0
M  V30 9355 N 885.382 -0.782676 1.36792 0
M  V30 9356 C 886.312 -1.90973 1.34356 0
M  V30 9357 C 887.293 -1.6875 0.213917 0
M  V30 9358 O 888.478 -1.89766 0.412601 0
M  V30 9359 C 885.608 -3.28097 1.13884 0
M  V30 9360 C 884.562 -3.6486 2.23744 0
M  V30 9361 C 883.888 -5.00406 1.88408 0
M  V30 9362 C 885.188 -3.72742 3.6587 0
M  V30 9363 H 886.882 -1.93268 2.28665 0
M  V30 9364 H 884.428 -0.928447 1.10072 0
M  V30 9365 H 886.381 -4.06569 1.10813 0
M  V30 9366 H 885.105 -3.26206 0.160275 0
M  V30 9367 H 883.764 -2.88689 2.25952 0
M  V30 9368 H 883.412 -4.95044 0.891083 0
M  V30 9369 H 883.112 -5.25973 2.61966 0
M  V30 9370 H 884.636 -5.81291 1.86905 0
M  V30 9371 H 886.05 -4.4139 3.65852 0
M  V30 9372 H 884.447 -4.09798 4.38389 0
M  V30 9373 H 885.517 -2.73676 4.00287 0
M  V30 9374 N 886.86 -1.21182 -1.00761 0
M  V30 9375 C 887.807 -0.968741 -2.09485 0
M  V30 9376 C 888.777 0.104325 -1.65772 0
M  V30 9377 O 889.962 -0.0422587 -1.90753 0
M  V30 9378 C 887.102 -0.536686 -3.40901 0
M  V30 9379 C 886.215 -1.6789 -3.98041 0
M  V30 9380 C 885.35 -1.19627 -5.17555 0
M  V30 9381 C 884.389 -2.31099 -5.66798 0
M  V30 9382 N 883.526 -1.83988 -6.77564 0
M  V30 9383 H 888.366 -1.89952 -2.29613 0
M  V30 9384 H 885.903 -0.946688 -1.12589 0
M  V30 9385 H 887.861 -0.26745 -4.16342 0
M  V30 9386 H 886.491 0.357092 -3.20819 0
M  V30 9387 H 885.543 -2.06284 -3.19611 0
M  V30 9388 H 886.855 -2.51794 -4.30582 0
M  V30 9389 H 886.009 -0.883539 -6.00232 0
M  V30 9390 H 884.748 -0.327244 -4.86601 0
M  V30 9391 H 883.753 -2.63178 -4.82719 0
M  V30 9392 H 884.978 -3.18493 -5.99782 0
M  V30 9393 H 882.924 -0.994257 -6.48422 0
M  V30 9394 H 882.841 -2.61466 -7.09346 0
M  V30 9395 H 884.109 -1.55741 -7.63783 0
M  V30 9396 N 888.338 1.20213 -1.01915 0
M  V30 9397 C 889.749 1.7136 -0.741131 0
M  V30 9398 C 890.1 1.81705 0.740107 0
M  V30 9399 O 889.225 1.48139 1.57746 0
M  V30 9400 C 889.82 3.11231 -1.33869 0
M  V30 9401 C 888.379 3.59677 -1.10948 0
M  V30 9402 C 887.526 2.36809 -1.4428 0
M  V30 9403 H 890.477 1.05191 -1.1883 0
M  V30 9404 H 890.498 3.7342 -0.730585 0
M  V30 9405 H 890.01 3.03669 -2.41675 0
M  V30 9406 H 888.111 3.72568 -0.0492052 0
M  V30 9407 H 888.224 4.44351 -1.79134 0
M  V30 9408 H 886.588 2.39674 -0.861881 0
M  V30 9409 H 887.371 2.31886 -2.53148 0
M  V30 9410 N 889.816 0.795718 1.36037 0
M  V30 9411 C 891.064 0.370291 1.98679 0
M  V30 9412 C 891.385 -1.06332 1.63458 0
M  V30 9413 O 890.655 -1.73394 0.911671 0
M  V30 9414 H 889.235 0.133928 0.734896 0
M  V30 9415 H 891.897 1.01915 1.6613 0
M  V30 9416 H 890.993 0.467207 3.08583 0
M  V30 9417 N 891.294 -1.47756 0.548274 0
M  V30 9418 C 892.227 -2.26804 -0.252059 0
M  V30 9419 C 893.205 -1.3349 -0.928389 0
M  V30 9420 O 894.389 -1.6286 -0.949156 0
M  V30 9421 C 891.516 -3.10266 -1.35841 0
M  V30 9422 C 890.562 -4.1909 -0.791578 0
M  V30 9423 S 891.395 -5.34323 0.354878 0
M  V30 9424 C 892.551 -6.21348 -0.753511 0
M  V30 9425 H 892.784 -2.94336 0.418744 0
M  V30 9426 H 890.317 -1.50735 0.334413 0
M  V30 9427 H 892.275 -3.58925 -1.99207 0
M  V30 9428 H 890.936 -2.42112 -2.00101 0
M  V30 9429 H 890.129 -4.77183 -1.62212 0
M  V30 9430 H 889.731 -3.73266 -0.234274 0
M  V30 9431 H 892.023 -6.57156 -1.6478 0
M  V30 9432 H 892.966 -7.07788 -0.210141 0
M  V30 9433 H 893.374 -5.54797 -1.04216 0
M  V30 9434 N 892.772 -0.284283 -1.55015 0
M  V30 9435 C 894.049 0.382125 -1.91831 0
M  V30 9436 C 894.429 1.73007 -1.20962 0
M  V30 9437 O 893.777 2.25962 -0.339594 0
M  V30 9438 C 893.987 0.513341 -3.45204 0
M  V30 9439 C 895.335 0.791989 -4.17148 0
M  V30 9440 O 896.359 0.597799 -3.51148 0
M  V30 9441 O 895.218 1.16394 -5.33961 0
M  V30 9442 H 892.312 0.210707 -0.799707 0
M  V30 9443 H 894.858 -0.331111 -1.66438 0
M  V30 9444 H 893.63 -0.434911 -3.88876 0
M  V30 9445 H 893.253 1.27569 -3.76579 0
M  V30 9446 N 894.251 1.57596 -0.0117121 0
M  V30 9447 C 895.499 1.90694 0.669342 0
M  V30 9448 C 895.82 0.886999 1.73659 0
M  V30 9449 O 895.09 -0.0739779 1.9576 0
M  V30 9450 H 893.67 0.703846 0.250219 0
M  V30 9451 H 896.332 1.94821 -0.0554057 0
M  V30 9452 H 895.428 2.90802 1.13316 0
M  V30 9453 N 895.729 -0.261212 1.5542 0
M  V30 9454 C 897.14 -0.83138 1.67167 0
M  V30 9455 C 897.491 -1.8659 0.606525 0
M  V30 9456 O 896.616 -2.14953 -0.24985 0
M  V30 9457 C 897.211 -1.51475 3.03052 0
M  V30 9458 C 895.77 -2.0328 3.16787 0
M  V30 9459 C 894.917 -0.878903 2.63003 0
M  V30 9460 H 897.868 -0.0373102 1.58656 0
M  V30 9461 H 897.889 -2.38222 2.96699 0
M  V30 9462 H 897.401 -0.76157 3.80554 0
M  V30 9463 H 895.502 -2.81523 2.44082 0
M  V30 9464 H 895.615 -2.24001 4.2351 0
M  V30 9465 H 893.979 -1.27551 2.2046 0
M  V30 9466 H 894.762 -0.13904 3.43018 0
M  V30 9467 N 897.207 -1.48554 -0.526253 0
M  V30 9468 C 898.154 -1.63354 -1.63046 0
M  V30 9469 C 899.124 -0.475509 -1.59148 0
M  V30 9470 O 900.309 -0.699453 -1.77517 0
M  V30 9471 C 897.449 -1.68271 -3.01295 0
M  V30 9472 C 896.562 -2.95207 -3.15399 0
M  V30 9473 C 895.697 -2.91262 -4.4423 0
M  V30 9474 C 894.736 -4.12886 -4.51876 0
M  V30 9475 N 893.873 -4.06996 -5.721 0
M  V30 9476 H 898.713 -2.57649 -1.49737 0
M  V30 9477 H 896.25 -1.27769 -0.728938 0
M  V30 9478 H 898.208 -1.69104 -3.81392 0
M  V30 9479 H 896.838 -0.774641 -3.13367 0
M  V30 9480 H 895.89 -3.04102 -2.2853 0
M  V30 9481 H 897.202 -3.85187 -3.1691 0
M  V30 9482 H 896.356 -2.90516 -5.32621 0
M  V30 9483 H 895.095 -1.99016 -4.45246 0
M  V30 9484 H 894.1 -4.13902 -3.61891 0
M  V30 9485 H 895.325 -5.06294 -4.52596 0
M  V30 9486 H 893.271 -3.17573 -5.74006 0
M  V30 9487 H 893.188 -4.90685 -5.75121 0
M  V30 9488 H 894.456 -4.10315 -6.62768 0
M  V30 9489 N 898.685 0.775411 -1.37205 0
M  V30 9490 C 899.931 1.53611 -1.32407 0
M  V30 9491 C 900.264 1.9398 0.0924103 0
M  V30 9492 O 899.539 1.63791 1.04893 0
M  V30 9493 C 899.822 2.80367 -2.25979 0
M  V30 9494 C 899.675 2.46275 -3.76389 0
M  V30 9495 C 900.994 3.82277 -2.18064 0
M  V30 9496 H 898.113 0.557278 -0.482297 0
M  V30 9497 H 900.755 0.889826 -1.67875 0
M  V30 9498 H 898.905 3.35515 -1.95862 0
M  V30 9499 H 900.577 1.9707 -4.17087 0
M  V30 9500 H 898.82 1.79023 -3.95137 0
M  V30 9501 H 899.491 3.36868 -4.37291 0
M  V30 9502 H 901.967 3.36613 -2.44604 0
M  V30 9503 H 900.843 4.68696 -2.85684 0
M  V30 9504 H 901.104 4.26272 -1.17239 0
M  V30 9505 N 900.163 1.21714 1.00117 0
M  V30 9506 C 901.11 0.979837 2.08968 0
M  V30 9507 C 902.08 -0.0955324 1.65825 0
M  V30 9508 O 903.265 0.0523742 1.90728 0
M  V30 9509 C 900.405 0.554758 3.40612 0
M  V30 9510 C 899.518 1.69999 3.97145 0
M  V30 9511 C 898.653 1.2237 5.16913 0
M  V30 9512 C 897.692 2.34101 5.65564 0
M  V30 9513 N 896.829 1.87579 6.76579 0
M  V30 9514 H 901.669 1.91167 2.28602 0
M  V30 9515 H 899.206 0.952645 1.12085 0
M  V30 9516 H 901.164 0.289526 4.16194 0
M  V30 9517 H 899.794 -0.340073 3.21004 0
M  V30 9518 H 898.846 2.07976 3.18512 0
M  V30 9519 H 900.158 2.54074 4.29241 0
M  V30 9520 H 899.312 0.915358 5.99755 0
M  V30 9521 H 898.051 0.353045 4.8642 0
M  V30 9522 H 897.056 2.65734 4.81316 0
M  V30 9523 H 898.281 3.21669 5.98085 0
M  V30 9524 H 896.227 1.02863 6.47885 0
M  V30 9525 H 896.144 2.65225 7.07949 0
M  V30 9526 H 897.412 1.5979 7.62947 0
M  V30 9527 N 901.641 -1.19671 1.02551 0
M  V30 9528 C 902.573 -2.22215 0.561517 0
M  V30 9529 C 903.586 -1.58751 -0.360821 0
M  V30 9530 O 904.775 -1.77802 -0.157749 0
M  V30 9531 C 901.875 -3.383 -0.201494 0
M  V30 9532 C 901.048 -4.3135 0.724952 0
M  V30 9533 C 900.107 -5.26199 0.00794334 0
M  V30 9534 O 899.133 -5.65665 0.633398 0
M  V30 9535 N 900.335 -5.66573 -1.26394 0
M  V30 9536 H 903.1 -2.6265 1.44343 0
M  V30 9537 H 900.661 -1.34303 0.904122 0
M  V30 9538 H 902.653 -3.98764 -0.690625 0
M  V30 9539 H 901.223 -2.96683 -0.98479 0
M  V30 9540 H 900.443 -3.6872 1.39423 0
M  V30 9541 H 901.731 -4.90433 1.35472 0
M  V30 9542 H 901.129 -5.36538 -1.79287 0
M  V30 9543 H 899.686 -6.29304 -1.69763 0
M  V30 9544 N 903.119 -0.802921 -1.35613 0
M  V30 9545 C 904.365 -0.391259 -1.99601 0
M  V30 9546 C 904.72 1.02922 -1.62557 0
M  V30 9547 O 904.013 1.70357 -0.876878 0
M  V30 9548 C 904.207 -0.507806 -3.53774 0
M  V30 9549 C 904.036 -1.93807 -4.05794 0
M  V30 9550 C 902.806 -2.56564 -4.3532 0
M  V30 9551 C 905.004 -2.90211 -4.24596 0
M  V30 9552 N 902.986 -3.91038 -4.73247 0
M  V30 9553 C 904.357 -4.09548 -4.65479 0
M  V30 9554 C 906.412 -2.87091 -4.06796 0
M  V30 9555 C 905.115 -5.26191 -4.90424 0
M  V30 9556 C 907.141 -4.02933 -4.32896 0
M  V30 9557 C 906.503 -5.21017 -4.74047 0
M  V30 9558 H 902.602 -0.190867 -0.758349 0
M  V30 9559 H 905.186 -1.04338 -1.64382 0
M  V30 9560 H 903.357 0.114306 -3.88232 0
M  V30 9561 H 905.089 -0.0710855 -4.04638 0
M  V30 9562 H 901.844 -2.07945 -4.25507 0
M  V30 9563 H 902.268 -4.60262 -4.96475 0
M  V30 9564 H 906.91 -1.96951 -3.74126 0
M  V30 9565 H 904.628 -6.16906 -5.2197 0
M  V30 9566 H 908.214 -4.01895 -4.2068 0
M  V30 9567 H 907.094 -6.09165 -4.93849 0
M  V30 9568 N 904.597 1.47463 -0.556102 0
M  V30 9569 C 906.008 1.86298 -0.122429 0
M  V30 9570 C 906.359 1.46285 1.30749 0
M  V30 9571 O 905.484 0.865405 1.98342 0
M  V30 9572 C 906.079 3.38115 -0.215407 0
M  V30 9573 C 904.638 3.76046 0.163223 0
M  V30 9574 C 903.785 2.71515 -0.563466 0
M  V30 9575 H 906.736 1.38996 -0.765888 0
M  V30 9576 H 906.757 3.76263 0.566271 0
M  V30 9577 H 906.269 3.67207 -1.25622 0
M  V30 9578 H 904.37 3.5257 1.20519 0
M  V30 9579 H 904.483 4.78705 -0.194568 0
M  V30 9580 H 902.847 2.54699 -0.00667879 0
M  V30 9581 H 903.63 3.03449 -1.60542 0
M  V30 9582 N 906.075 0.2925 1.54862 0
M  V30 9583 C 907.005 -0.580677 2.26165 0
M  V30 9584 C 907.986 -1.14485 1.25806 0
M  V30 9585 O 909.171 -1.17577 1.54562 0
M  V30 9586 C 906.301 -1.75668 2.99596 0
M  V30 9587 C 905.255 -1.32325 4.07031 0
M  V30 9588 C 904.581 -2.58374 4.68131 0
M  V30 9589 C 905.881 -0.460703 5.20264 0
M  V30 9590 H 907.575 0.0140075 2.99397 0
M  V30 9591 H 905.121 0.00817706 1.43998 0
M  V30 9592 H 907.074 -2.37356 3.48195 0
M  V30 9593 H 905.798 -2.37747 2.23928 0
M  V30 9594 H 904.457 -0.729477 3.59269 0
M  V30 9595 H 904.105 -3.18749 3.89112 0
M  V30 9596 H 903.805 -2.30078 5.40683 0
M  V30 9597 H 905.329 -3.2088 5.19489 0
M  V30 9598 H 906.743 -0.983037 5.64809 0
M  V30 9599 H 905.14 -0.271881 5.99484 0
M  V30 9600 H 906.21 0.516304 4.82143 0
M  V30 9601 N 907.553 -1.57587 0.0200696 0
M  V30 9602 C 908.781 -1.95718 -0.670964 0
M  V30 9603 C 909.196 -0.896081 -1.6618 0
M  V30 9604 O 908.553 0.123037 -1.82085 0
M  V30 9605 C 908.604 -3.33904 -1.38529 0
M  V30 9606 O 908.325 -4.35943 -0.434167 0
M  V30 9607 C 909.826 -3.86614 -2.16898 0
M  V30 9608 H 907.046 -0.644819 -0.185606 0
M  V30 9609 H 909.59 -2.04354 0.0771495 0
M  V30 9610 H 907.745 -3.26515 -2.08487 0
M  V30 9611 H 908.159 -5.16001 -0.940378 0
M  V30 9612 H 909.633 -4.85673 -2.62346 0
M  V30 9613 H 910.11 -3.20379 -3.00423 0
M  V30 9614 H 910.716 -3.97243 -1.51916 0
M  V30 9615 N 909.032 0.252966 -1.55557 0
M  V30 9616 C 909.942 1.33472 -1.92931 0
M  V30 9617 C 910.958 1.52983 -0.828985 0
M  V30 9618 O 912.134 1.66723 -1.12984 0
M  V30 9619 C 909.199 2.6704 -2.21112 0
M  V30 9620 C 908.26 2.56103 -3.44542 0
M  V30 9621 C 907.493 3.83302 -3.71369 0
M  V30 9622 O 907.716 4.84907 -3.00368 0
M  V30 9623 O 906.65 3.823 -4.64898 0
M  V30 9624 H 910.476 1.04768 -2.85057 0
M  V30 9625 H 908.061 0.453208 -1.4236 0
M  V30 9626 H 909.943 3.45981 -2.40572 0
M  V30 9627 H 908.618 2.95489 -1.32166 0
M  V30 9628 H 907.525 1.7547 -3.30396 0
M  V30 9629 H 908.858 2.32601 -4.33772 0
M  V30 9630 N 910.51 1.48831 0.518367 0
M  V30 9631 C 911.42 1.6692 1.64848 0
M  V30 9632 C 912.436 0.551711 1.65022 0
M  V30 9633 O 913.612 0.824251 1.83761 0
M  V30 9634 C 910.677 1.71559 3.01278 0
M  V30 9635 C 909.738 2.9502 3.11868 0
M  V30 9636 C 908.971 2.99428 4.4179 0
M  V30 9637 O 909.194 2.11914 5.29574 0
M  V30 9638 O 908.128 3.91719 4.5699 0
M  V30 9639 H 911.954 2.62623 1.52521 0
M  V30 9640 H 909.539 1.32368 0.692749 0
M  V30 9641 H 911.421 1.77064 3.82396 0
M  V30 9642 H 910.096 0.790316 3.13904 0
M  V30 9643 H 909.003 2.95042 2.30003 0
M  V30 9644 H 910.336 3.8697 3.04163 0
M  V30 9645 N 911.988 -0.768124 1.37614 0
M  V30 9646 C 912.935 -1.88151 1.33671 0
M  V30 9647 C 913.905 -1.64871 0.201645 0
M  V30 9648 O 915.09 -1.86739 0.391582 0
M  V30 9649 C 912.23 -3.25264 1.15314 0
M  V30 9650 C 911.343 -3.60473 2.38082 0
M  V30 9651 C 910.478 -4.86814 2.12569 0
M  V30 9652 C 909.517 -5.14765 3.31184 0
M  V30 9653 N 908.654 -6.32295 3.052 0
M  V30 9654 H 913.494 -1.90857 2.28862 0
M  V30 9655 H 911.031 -0.933048 1.13722 0
M  V30 9656 H 912.989 -4.04364 1.02691 0
M  V30 9657 H 911.619 -3.21924 0.237689 0
M  V30 9658 H 910.671 -2.7633 2.61431 0
M  V30 9659 H 911.983 -3.77065 3.26532 0
M  V30 9660 H 911.137 -5.73826 1.96999 0
M  V30 9661 H 909.876 -4.72333 1.21462 0
M  V30 9662 H 908.881 -4.26227 3.4729 0
M  V30 9663 H 910.106 -5.31153 4.23147 0
M  V30 9664 H 908.052 -6.19166 2.16726 0
M  V30 9665 H 907.969 -6.4932 3.87195 0
M  V30 9666 H 909.237 -7.22234 2.93254 0
M  V30 9667 N 913.466 -1.22244 -0.994698 0
M  V30 9668 C 914.715 -1.04005 -1.72817 0
M  V30 9669 C 915.028 0.425413 -1.90918 0
M  V30 9670 O 916.234 0.727429 -2.61574 0
M  V30 9671 C 914.69 -1.81244 -3.10932 0
M  V30 9672 C 914.298 -3.32028 -3.00768 0
M  V30 9673 C 916.042 -1.71448 -3.88337 0
M  V30 9674 C 913.949 -4.01716 -4.34026 0
M  V30 9675 H 912.879 -0.385559 -0.647966 0
M  V30 9676 H 915.53 -1.46077 -1.11058 0
M  V30 9677 H 913.912 -1.3197 -3.73363 0
M  V30 9678 H 915.086 -3.88682 -2.47513 0
M  V30 9679 H 913.401 -3.4248 -2.36846 0
M  V30 9680 H 915.998 -2.20836 -4.86965 0
M  V30 9681 H 916.341 -0.674568 -4.10798 0
M  V30 9682 H 916.874 -2.18256 -3.3258 0
M  V30 9683 H 913.613 -5.05952 -4.16765 0
M  V30 9684 H 913.133 -3.49849 -4.87202 0
M  V30 9685 H 914.812 -4.0721 -5.02782 0
M  V30 9686 N 914.944 1.19125 -1.03184 0
M  V30 9687 C 915.891 2.2245 -0.6152 0
M  V30 9688 C 916.861 1.61869 0.372502 0
M  V30 9689 O 918.046 1.88901 0.268491 0
M  V30 9690 C 915.186 3.45091 0.0248027 0
M  V30 9691 C 914.299 4.20044 -1.0093 0
M  V30 9692 C 913.434 5.30119 -0.338744 0
M  V30 9693 C 912.473 5.96833 -1.35855 0
M  V30 9694 N 911.61 6.98464 -0.713594 0
M  V30 9695 H 916.45 2.57445 -1.50086 0
M  V30 9696 H 913.987 1.26485 -0.751005 0
M  V30 9697 H 915.945 4.15149 0.413131 0
M  V30 9698 H 914.575 3.10742 0.874028 0
M  V30 9699 H 913.627 3.48901 -1.51566 0
M  V30 9700 H 914.939 4.65796 -1.78425 0
M  V30 9701 H 914.093 6.0661 0.104269 0
M  V30 9702 H 912.832 4.85446 0.468382 0
M  V30 9703 H 911.837 5.1909 -1.81179 0
M  V30 9704 H 913.062 6.4359 -2.16722 0
M  V30 9705 H 911.008 6.55959 0.0733863 0
M  V30 9706 H 910.925 7.42422 -1.42638 0
M  V30 9707 H 912.193 7.78943 -0.294681 0
M  V30 9708 N 916.422 0.810101 1.35185 0
M  V30 9709 C 917.385 0.22852 2.28058 0
M  V30 9710 C 918.385 -0.586168 1.49735 0
M  V30 9711 O 919.575 -0.40414 1.69447 0
M  V30 9712 C 916.707 -0.681041 3.34028 0
M  V30 9713 H 917.9 1.04768 2.81005 0
M  V30 9714 H 915.453 0.58101 1.451 0
M  V30 9715 H 916.188 -1.52375 2.86273 0
M  V30 9716 H 915.973 -0.0985276 3.91976 0
M  V30 9717 H 917.463 -1.08217 4.03335 0
M  V30 9718 N 917.9 -1.47166 0.563914 0
M  V30 9719 C 918.83 -2.32894 -0.168148 0
M  V30 9720 C 919.811 -1.44202 -0.902214 0
M  V30 9721 O 920.996 -1.73048 -0.881365 0
M  V30 9722 C 918.126 -3.26116 -1.19439 0
M  V30 9723 C 917.08 -4.24101 -0.576363 0
M  V30 9724 C 916.406 -5.06696 -1.70772 0
M  V30 9725 C 917.706 -5.20142 0.47425 0
M  V30 9726 H 919.4 -2.9435 0.547573 0
M  V30 9727 H 916.946 -1.41545 0.264778 0
M  V30 9728 H 918.899 -3.84935 -1.71474 0
M  V30 9729 H 917.623 -2.62728 -1.94014 0
M  V30 9730 H 916.282 -3.66519 -0.0772534 0
M  V30 9731 H 915.93 -4.39707 -2.44268 0
M  V30 9732 H 915.63 -5.7304 -1.29994 0
M  V30 9733 H 917.154 -5.68375 -2.2312 0
M  V30 9734 H 918.568 -5.73286 0.0397035 0
M  V30 9735 H 916.965 -5.94726 0.801287 0
M  V30 9736 H 918.035 -4.65214 1.36764 0
M  V30 9737 N 919.378 -0.300708 -1.54705 0
M  V30 9738 C 920.606 0.31127 -2.04545 0
M  V30 9739 C 921.021 1.47542 -1.178 0
M  V30 9740 O 920.378 1.81361 -0.203571 0
M  V30 9741 C 920.429 0.767783 -3.53253 0
M  V30 9742 O 920.15 -0.350027 -4.36699 0
M  V30 9743 C 921.651 1.44494 -4.1909 0
M  V30 9744 H 918.871 0.067668 -0.667579 0
M  V30 9745 H 921.415 -0.440254 -1.99705 0
M  V30 9746 H 919.57 1.46933 -3.58454 0
M  V30 9747 H 919.984 0.00534038 -5.245 0
M  V30 9748 H 921.458 1.71553 -5.24665 0
M  V30 9749 H 921.935 2.3849 -3.68808 0
M  V30 9750 H 922.541 0.786581 -4.17963 0
M  V30 9751 N 920.856 1.57574 -0.0284266 0
M  V30 9752 C 921.766 2.13637 0.96936 0
M  V30 9753 C 922.782 1.08845 1.35752 0
M  V30 9754 O 923.958 1.40899 1.43908 0
M  V30 9755 C 921.023 2.65179 2.2334 0
M  V30 9756 C 920.084 3.84683 1.90572 0
M  V30 9757 C 919.317 4.33758 3.1095 0
M  V30 9758 O 919.54 3.82009 4.23586 0
M  V30 9759 O 918.474 5.2561 2.93288 0
M  V30 9760 H 922.3 2.99169 0.52267 0
M  V30 9761 H 919.885 1.48159 0.192135 0
M  V30 9762 H 921.767 2.98402 2.97547 0
M  V30 9763 H 920.442 1.82731 2.67191 0
M  V30 9764 H 919.349 3.56386 1.13753 0
M  V30 9765 H 920.682 4.68292 1.51538 0
M  V30 9766 N 922.334 -0.244713 1.55689 0
M  V30 9767 C 923.583 -0.970373 1.76824 0
M  V30 9768 C 923.896 -1.86402 0.592764 0
M  V30 9769 O 925.102 -2.62659 0.687186 0
M  V30 9770 C 923.558 -1.77547 3.13058 0
M  V30 9771 C 923.166 -0.929104 4.3826 0
M  V30 9772 C 924.91 -2.49373 3.43531 0
M  V30 9773 C 922.817 -1.73021 5.65524 0
M  V30 9774 H 921.747 -0.366048 0.659185 0
M  V30 9775 H 924.398 -0.224964 1.82116 0
M  V30 9776 H 922.78 -2.56291 3.01879 0
M  V30 9777 H 923.954 -0.183836 4.60433 0
M  V30 9778 H 922.269 -0.324071 4.15137 0
M  V30 9779 H 924.866 -3.09767 4.35831 0
M  V30 9780 H 925.209 -3.21099 2.64955 0
M  V30 9781 H 925.742 -1.77637 3.55935 0
M  V30 9782 H 922.481 -1.05666 6.46927 0
M  V30 9783 H 922.001 -2.45071 5.47449 0
M  V30 9784 H 923.68 -2.2968 6.0486 0
M  V30 9785 N 923.813 -1.49104 -0.510467 0
M  V30 9786 C 925.053 -1.59723 -1.27545 0
M  V30 9787 C 925.417 -0.273525 -1.90042 0
M  V30 9788 O 926.618 -0.254835 -2.67589 0
M  V30 9789 C 924.889 -2.71771 -2.3211 0
M  V30 9790 S 926.448 -3.02282 -3.18074 0
M  V30 9791 H 923.266 -0.563489 -0.433591 0
M  V30 9792 H 925.868 -1.86719 -0.579328 0
M  V30 9793 H 924.572 -3.66483 -1.84711 0
M  V30 9794 H 924.103 -2.46739 -3.06404 0
M  V30 9795 H 926.118 -2.43076 -4.32583 0
M  V30 9796 N 925.291 0.760815 -1.38019 0
M  V30 9797 C 926.519 1.55001 -1.37048 0
M  V30 9798 C 926.934 1.88754 0.0415261 0
M  V30 9799 O 926.291 1.52254 1.00624 0
M  V30 9800 C 926.342 2.8536 -2.21928 0
M  V30 9801 O 926.063 2.53049 -3.57628 0
M  V30 9802 C 927.564 3.79536 -2.29057 0
M  V30 9803 H 924.784 0.479844 -0.469032 0
M  V30 9804 H 927.328 0.942148 -1.81504 0
M  V30 9805 H 925.483 3.42542 -1.80953 0
M  V30 9806 H 925.897 3.36604 -4.02241 0
M  V30 9807 H 927.371 4.67977 -2.92749 0
M  V30 9808 H 927.848 4.19453 -1.30213 0
M  V30 9809 H 928.454 3.28281 -2.70392 0
M  V30 9810 N 926.769 1.22769 0.988202 0
M  V30 9811 C 927.679 1.01844 2.11341 0
M  V30 9812 C 928.695 -0.0346937 1.73965 0
M  V30 9813 O 929.871 0.159061 2.00771 0
M  V30 9814 C 926.936 0.603837 3.41401 0
M  V30 9815 C 925.997 1.73113 3.92849 0
M  V30 9816 C 925.23 1.33621 5.16702 0
M  V30 9817 O 925.453 0.217041 5.69987 0
M  V30 9818 O 924.387 2.15444 5.62021 0
M  V30 9819 H 928.213 1.96127 2.31879 0
M  V30 9820 H 925.798 1.01405 1.09715 0
M  V30 9821 H 927.68 0.383196 4.19654 0
M  V30 9822 H 926.355 -0.310082 3.22211 0
M  V30 9823 H 925.262 2.00634 3.15748 0
M  V30 9824 H 926.595 2.62308 4.1648 0
M  V30 9825 N 928.247 -1.18576 1.03814 0
M  V30 9826 C 929.18 -2.20929 0.571463 0
M  V30 9827 C 930.158 -1.57788 -0.392636 0
M  V30 9828 O 931.342 -1.85974 -0.30754 0
M  V30 9829 C 928.469 -3.38295 -0.165504 0
M  V30 9830 C 927.515 -4.19828 0.751457 0
M  V30 9831 S 928.348 -4.86725 2.23291 0
M  V30 9832 C 929.504 -6.07494 1.50672 0
M  V30 9833 H 929.737 -2.60173 1.43866 0
M  V30 9834 H 927.27 -1.2897 0.84888 0
M  V30 9835 H 929.228 -4.06317 -0.584545 0
M  V30 9836 H 927.889 -2.97468 -1.00855 0
M  V30 9837 H 927.082 -5.03671 0.181986 0
M  V30 9838 H 926.684 -3.57172 1.10923 0
M  V30 9839 H 928.976 -6.72779 0.798377 0
M  V30 9840 H 929.919 -6.68942 2.3221 0
M  V30 9841 H 930.327 -5.55569 1.00016 0
M  V30 9842 N 929.725 -0.817259 -1.34754 0
M  V30 9843 C 930.635 -0.236946 -2.334 0
M  V30 9844 C 931.651 0.625685 -1.62361 0
M  V30 9845 O 932.827 0.534921 -1.94166 0
M  V30 9846 C 929.892 0.596215 -3.41535 0
M  V30 9847 C 928.953 -0.288154 -4.28332 0
M  V30 9848 C 928.186 0.505337 -5.31302 0
M  V30 9849 O 928.409 1.73912 -5.43241 0
M  V30 9850 O 927.343 -0.109374 -6.01801 0
M  V30 9851 H 931.169 -1.05327 -2.84851 0
M  V30 9852 H 928.754 -0.579275 -1.37713 0
M  V30 9853 H 930.636 1.07041 -4.07578 0
M  V30 9854 H 929.311 1.38997 -2.92338 0
M  V30 9855 H 928.218 -0.809724 -3.65232 0
M  V30 9856 H 929.551 -1.04612 -4.80955 0
M  V30 9857 N 931.203 1.46865 -0.571711 0
M  V30 9858 C 932.15 2.30189 0.167808 0
M  V30 9859 C 933.12 1.3995 0.89461 0
M  V30 9860 O 934.305 1.68905 0.887451 0
M  V30 9861 C 931.445 3.24205 1.1826 0
M  V30 9862 C 930.558 4.2954 0.460376 0
M  V30 9863 C 929.693 5.10693 1.46173 0
M  V30 9864 C 928.732 6.07788 0.725291 0
M  V30 9865 N 927.869 6.81847 1.67417 0
M  V30 9866 H 932.709 2.92902 -0.548831 0
M  V30 9867 H 930.246 1.44362 -0.282474 0
M  V30 9868 H 932.204 3.77147 1.7837 0
M  V30 9869 H 930.834 2.63324 1.86709 0
M  V30 9870 H 929.886 3.79541 -0.255546 0
M  V30 9871 H 931.198 4.98665 -0.115855 0
M  V30 9872 H 930.352 5.67857 2.13595 0
M  V30 9873 H 929.091 4.41502 2.07188 0
M  V30 9874 H 928.096 5.49787 0.037228 0
M  V30 9875 H 929.321 6.78993 0.120678 0
M  V30 9876 H 927.267 6.15376 2.27263 0
M  V30 9877 H 927.184 7.47195 1.15046 0
M  V30 9878 H 928.452 7.43577 2.33908 0
M  V30 9879 N 932.681 0.308908 1.54543 0
M  V30 9880 C 933.591 -0.572939 2.27496 0
M  V30 9881 C 934.607 -1.14171 1.31305 0
M  V30 9882 O 935.783 -1.16481 1.64299 0
M  V30 9883 C 932.848 -1.72483 3.0075 0
M  V30 9884 C 931.909 -1.18934 4.12496 0
M  V30 9885 C 931.142 -2.28634 4.82247 0
M  V30 9886 O 931.365 -3.48691 4.5141 0
M  V30 9887 O 930.299 -1.94879 5.69478 0
M  V30 9888 H 934.125 0.0190877 3.03694 0
M  V30 9889 H 931.71 0.0750943 1.49211 0
M  V30 9890 H 933.592 -2.39578 3.46671 0
M  V30 9891 H 932.267 -2.30332 2.2744 0
M  V30 9892 H 931.174 -0.483904 3.70957 0
M  V30 9893 H 932.507 -0.656185 4.87806 0
M  V30 9894 N 934.159 -1.57557 0.0367827 0
M  V30 9895 C 935.407 -1.91735 -0.63892 0
M  V30 9896 C 935.728 -0.914515 -1.72226 0
M  V30 9897 O 934.998 0.0428248 -1.95853 0
M  V30 9898 H 933.578 -0.707738 -0.23899 0
M  V30 9899 H 936.24 -1.94708 0.0863931 0
M  V30 9900 H 935.336 -2.92568 -1.08676 0
M  V30 9901 N 935.637 0.236453 -1.55816 0
M  V30 9902 C 936.584 1.29289 -1.91188 0
M  V30 9903 C 937.554 1.47315 -0.767301 0
M  V30 9904 O 938.739 1.61128 -1.02189 0
M  V30 9905 C 935.879 2.64126 -2.22107 0
M  V30 9906 C 934.992 2.54022 -3.49423 0
M  V30 9907 C 934.127 3.81282 -3.69861 0
M  V30 9908 C 933.166 3.65839 -4.90743 0
M  V30 9909 N 932.303 4.85014 -5.07647 0
M  V30 9910 H 937.143 0.98424 -2.81277 0
M  V30 9911 H 934.68 0.474722 -1.39229 0
M  V30 9912 H 936.638 3.42626 -2.3804 0
M  V30 9913 H 935.268 2.93118 -1.35209 0
M  V30 9914 H 934.32 1.67036 -3.41765 0
M  V30 9915 H 935.632 2.38525 -4.38072 0
M  V30 9916 H 934.786 4.68226 -3.8581 0
M  V30 9917 H 933.525 3.99688 -2.79465 0
M  V30 9918 H 932.53 2.77279 -4.74759 0
M  V30 9919 H 933.755 3.48918 -5.82609 0
M  V30 9920 H 931.701 5.03762 -4.20191 0
M  V30 9921 H 931.618 4.72188 -5.90402 0
M  V30 9922 H 932.886 5.73427 -5.28017 0
M  V30 9923 N 937.115 1.49373 0.502552 0
M  V30 9924 C 938.364 1.58028 1.25339 0
M  V30 9925 C 938.677 0.271494 1.93707 0
M  V30 9926 O 939.883 0.236584 2.70467 0
M  V30 9927 C 938.339 2.78817 2.27572 0
M  V30 9928 C 937.947 4.16448 1.65151 0
M  V30 9929 C 939.691 2.96802 3.03494 0
M  V30 9930 C 937.598 5.28461 2.65486 0
M  V30 9931 H 936.528 0.588396 0.471494 0
M  V30 9932 H 939.179 1.75756 0.52744 0
M  V30 9933 H 937.561 2.5458 3.03323 0
M  V30 9934 H 938.735 4.50816 0.954029 0
M  V30 9935 H 937.05 4.03809 1.01625 0
M  V30 9936 H 939.647 3.77656 3.78524 0
M  V30 9937 H 939.99 2.07303 3.61014 0
M  V30 9938 H 940.523 3.21071 2.34858 0
M  V30 9939 H 937.262 6.20015 2.12749 0
M  V30 9940 H 936.782 4.9855 3.33479 0
M  V30 9941 H 938.461 5.5773 3.27943 0
M  V30 9942 N 938.594 -0.753485 1.38421 0
M  V30 9943 C 939.819 -1.54783 1.38047 0
M  V30 9944 C 940.244 -1.8808 -0.0276371 0
M  V30 9945 O 939.602 -1.5058 -1.00973 0
M  V30 9946 C 939.65 -2.82353 2.24297 0
M  V30 9947 O 938.754 -3.77509 1.66014 0
M  V30 9948 H 938.095 -0.468151 0.470883 0
M  V30 9949 H 940.625 -0.931144 1.82184 0
M  V30 9950 H 940.635 -3.31277 2.38159 0
M  V30 9951 H 939.31 -2.57449 3.26639 0
M  V30 9952 H 937.887 -3.36212 1.61294 0
M  V30 9953 N 940.072 -1.23292 -0.981677 0
M  V30 9954 C 941.488 -0.995295 -1.24764 0
M  V30 9955 C 941.688 0.304379 -1.99188 0
M  V30 9956 O 940.744 1.02414 -2.30798 0
M  V30 9957 C 942.057 -2.20135 -2.04844 0
M  V30 9958 C 943.605 -2.24612 -2.17988 0
M  V30 9959 C 944.08 -3.448 -3.01458 0
M  V30 9960 N 945.571 -3.45031 -3.09044 0
M  V30 9961 C 946.306 -4.34683 -3.7395 0
M  V30 9962 N 945.802 -5.34569 -4.4069 0
M  V30 9963 N 947.595 -4.22429 -3.70823 0
M  V30 9964 H 939.746 -2.06834 -0.483052 0
M  V30 9965 H 942.009 -0.906929 -0.276014 0
M  V30 9966 H 941.715 -3.14446 -1.57532 0
M  V30 9967 H 941.589 -2.21115 -3.05594 0
M  V30 9968 H 943.976 -1.30841 -2.64508 0
M  V30 9969 H 944.057 -2.27664 -1.16631 0
M  V30 9970 H 943.701 -4.38877 -2.55635 0
M  V30 9971 H 943.631 -3.38988 -4.02982 0
M  V30 9972 H 946.122 -2.72759 -2.61555 0
M  V30 9973 H 946.435 -5.99236 -4.87991 0
M  V30 9974 H 944.78 -5.3847 -4.39403 0
M  V30 9975 H 947.971 -3.43639 -3.17851 0
M  V30 9976 H 948.144 -4.92501 -4.21126 0
M  V30 9977 N 941.55 1.18024 -1.04442 0
M  V30 9978 C 942.796 1.88377 -0.751133 0
M  V30 9979 C 943.129 1.80377 0.719571 0
M  V30 9980 O 942.404 1.20662 1.52548 0
M  V30 9981 C 942.687 3.38708 -1.22265 0
M  V30 9982 C 942.54 3.55499 -2.75574 0
M  V30 9983 C 943.859 4.32475 -0.815688 0
M  V30 9984 H 940.978 0.684037 -0.27434 0
M  V30 9985 H 943.62 1.38837 -1.29709 0
M  V30 9986 H 941.77 3.8103 -0.758192 0
M  V30 9987 H 943.442 3.22244 -3.30086 0
M  V30 9988 H 941.685 2.98028 -3.15217 0
M  V30 9989 H 942.356 4.60994 -3.03625 0
M  V30 9990 H 944.832 3.97953 -1.21542 0
M  V30 9991 H 943.708 5.36213 -1.17331 0
M  V30 9992 H 943.969 4.41207 0.280901 0
M  V30 9993 N 943.028 0.824394 1.34319 0
M  V30 9994 C 944.276 0.41235 1.97849 0
M  V30 9995 C 944.597 -1.02841 1.65677 0
M  V30 9996 O 943.867 -1.71421 0.948245 0
M  V30 9997 H 942.447 0.149486 0.73189 0
M  V30 9998 H 945.109 1.05416 1.63931 0
M  V30 9999 H 944.205 0.532557 3.07523 0
M  V30 10000 N 944.506 -1.46559 0.579492 0
M  V30 10001 C 945.917 -1.8608 0.152052 0
M  V30 10002 C 946.268 -1.48346 -1.28405 0
M  V30 10003 O 945.393 -0.89685 -1.9694 0
M  V30 10004 C 945.988 -3.37729 0.269171 0
M  V30 10005 C 944.547 -3.76258 -0.103376 0
M  V30 10006 C 943.694 -2.70584 0.60659 0
M  V30 10007 H 946.645 -1.3776 0.787904 0
M  V30 10008 H 946.666 -3.77116 -0.506339 0
M  V30 10009 H 946.178 -3.65162 1.31448 0
M  V30 10010 H 944.279 -3.54443 -1.14895 0
M  V30 10011 H 944.392 -4.78335 0.270701 0
M  V30 10012 H 942.756 -2.54656 0.0471984 0
M  V30 10013 H 943.539 -3.00856 1.65349 0
M  V30 10014 N 945.984 -0.3171 -1.54377 0
M  V30 10015 C 946.894 0.560867 -2.27797 0
M  V30 10016 C 947.91 1.13473 -1.31908 0
M  V30 10017 O 949.086 1.15608 -1.64914 0
M  V30 10018 C 946.151 1.70886 -3.0166 0
M  V30 10019 C 945.212 1.16745 -4.13121 0
M  V30 10020 C 944.445 2.26073 -4.83453 0
M  V30 10021 O 944.668 3.46292 -4.53252 0
M  V30 10022 O 943.602 1.91856 -5.70504 0
M  V30 10023 H 947.428 -0.035193 -3.0368 0
M  V30 10024 H 945.013 -0.0830062 -1.49169 0
M  V30 10025 H 946.895 2.37736 -3.47936 0
M  V30 10026 H 945.57 2.29122 -2.28658 0
M  V30 10027 H 944.477 0.464224 -3.71209 0
M  V30 10028 H 945.81 0.630307 -4.88147 0
M  V30 10029 N 947.462 1.57535 -0.0451378 0
M  V30 10030 C 948.41 2.12351 0.949205 0
M  V30 10031 C 949.404 1.05386 1.32628 0
M  V30 10032 O 950.61 1.23802 1.30664 0
M  V30 10033 H 946.985 0.678648 0.323945 0
M  V30 10034 H 948.956 2.94806 0.461718 0
M  V30 10035 C 947.705 2.67862 2.21687 0
M  V30 10036 H 947.028 3.49826 1.93551 0
M  V30 10037 H 948.468 3.09844 2.89435 0
M  V30 10038 C 946.927 1.61353 2.95748 0
M  V30 10039 O 947.457 1.02276 3.88462 0
M  V30 10040 N 945.663 1.33017 2.5837 0
M  V30 10041 H 945.21 1.81246 1.83051 0
M  V30 10042 H 945.168 0.619812 3.0823 0
M  V30 10043 N 948.94 -0.228186 1.55939 0
M  V30 10044 C 950.351 -0.795734 1.68893 0
M  V30 10045 C 950.702 -1.85261 0.645967 0
M  V30 10046 O 949.827 -2.15434 -0.2042 0
M  V30 10047 C 950.422 -1.45013 3.06197 0
M  V30 10048 C 948.981 -1.96514 3.21028 0
M  V30 10049 C 948.128 -0.822918 2.64808 0
M  V30 10050 H 951.079 -0.0036485 1.587 0
M  V30 10051 H 951.1 -2.31875 3.01685 0
M  V30 10052 H 950.612 -0.680678 3.82084 0
M  V30 10053 H 948.713 -2.76282 2.49998 0
M  V30 10054 H 948.826 -2.14967 4.28166 0
M  V30 10055 H 947.19 -1.22846 2.23116 0
M  V30 10056 H 947.973 -0.0662493 3.43236 0
M  V30 10057 N 950.418 -1.49637 -0.494624 0
M  V30 10058 C 951.648 -1.62928 -1.27036 0
M  V30 10059 C 952.056 -0.302464 -1.86767 0
M  V30 10060 O 951.399 0.722878 -1.68879 0
M  V30 10061 C 951.461 -2.64449 -2.43531 0
M  V30 10062 C 951.125 -4.08632 -2.0462 0
M  V30 10063 C 952.122 -4.95238 -1.58225 0
M  V30 10064 C 949.807 -4.54405 -2.1406 0
M  V30 10065 C 951.801 -6.25658 -1.21782 0
M  V30 10066 C 949.488 -5.84836 -1.77228 0
M  V30 10067 C 950.486 -6.70287 -1.31165 0
M  V30 10068 O 950.174 -7.98287 -0.948339 0
M  V30 10069 H 949.906 -0.551263 -0.391261 0
M  V30 10070 H 952.46 -1.96453 -0.599621 0
M  V30 10071 H 950.69 -2.26117 -3.137 0
M  V30 10072 H 952.379 -2.67203 -3.05545 0
M  V30 10073 H 953.145 -4.611 -1.50373 0
M  V30 10074 H 949.024 -3.88056 -2.48865 0
M  V30 10075 H 952.568 -6.92309 -0.857566 0
M  V30 10076 H 948.465 -6.18502 -1.84732 0
M  V30 10077 H 949.233 -8.11353 -1.07925 0
M  V30 10078 N 951.896 0.746133 -1.38819 0
M  V30 10079 C 952.844 1.88137 -1.36774 0
M  V30 10080 C 953.838 1.67508 -0.252495 0
M  V30 10081 O 955.044 1.74985 -0.421935 0
M  V30 10082 H 951.419 0.619116 -0.426849 0
M  V30 10083 H 953.39 1.86978 -2.32555 0
M  V30 10084 C 952.139 3.25703 -1.21708 0
M  V30 10085 H 951.462 3.42168 -2.06788 0
M  V30 10086 H 952.902 4.05361 -1.24332 0
M  V30 10087 C 951.361 3.36816 0.0754257 0
M  V30 10088 O 951.891 3.87742 1.04972 0
M  V30 10089 N 950.097 2.90287 0.134761 0
M  V30 10090 H 949.644 2.49034 -0.658779 0
M  V30 10091 H 949.602 2.98103 0.999109 0
M  V30 10092 N 953.375 1.23811 0.975125 0
M  V30 10093 C 954.603 1.10019 1.75224 0
M  V30 10094 C 955.018 -0.34791 1.85567 0
M  V30 10095 O 954.375 -1.24043 1.33864 0
M  V30 10096 C 954.426 1.72572 3.1765 0
M  V30 10097 O 954.147 3.11719 3.07836 0
M  V30 10098 C 955.648 1.64292 4.11732 0
M  V30 10099 H 952.868 0.38476 0.549728 0
M  V30 10100 H 955.412 1.63768 1.22476 0
M  V30 10101 H 953.567 1.22843 3.67408 0
M  V30 10102 H 953.981 3.42152 3.97533 0
M  V30 10103 H 955.455 2.12754 5.09352 0
M  V30 10104 H 955.932 0.602722 4.35045 0
M  V30 10105 H 956.538 2.13411 3.6788 0
M  V30 10106 N 954.853 -1.17469 1.05066 0
M  V30 10107 C 956.264 -1.69334 0.786304 0
M  V30 10108 C 956.615 -1.83604 -0.691671 0
M  V30 10109 O 955.74 -1.52269 -1.53763 0
M  V30 10110 C 956.335 -3.07572 1.42074 0
M  V30 10111 C 954.894 -3.56609 1.20446 0
M  V30 10112 C 954.041 -2.329 1.50508 0
M  V30 10113 H 956.992 -1.02003 1.21577 0
M  V30 10114 H 957.013 -3.71352 0.829334 0
M  V30 10115 H 956.525 -2.97154 2.49642 0
M  V30 10116 H 954.626 -3.72306 0.147968 0
M  V30 10117 H 954.739 -4.39446 1.90852 0
M  V30 10118 H 953.103 -2.37305 0.925124 0
M  V30 10119 H 953.886 -2.25093 2.59207 0
M  V30 10120 N 956.331 -0.831506 -1.3388 0
M  V30 10121 C 957.58 -0.420028 -1.97278 0
M  V30 10122 C 957.893 1.02441 -1.66629 0
M  V30 10123 O 959.099 1.54021 -2.23584 0
M  V30 10124 C 957.555 -0.700116 -3.53025 0
M  V30 10125 C 957.163 -2.15874 -3.92559 0
M  V30 10126 C 958.907 -0.355226 -4.23011 0
M  V30 10127 C 956.814 -2.38327 -5.41252 0
M  V30 10128 H 955.744 -0.153326 -0.738246 0
M  V30 10129 H 958.395 -1.01906 -1.52602 0
M  V30 10130 H 956.777 -0.0308044 -3.95988 0
M  V30 10131 H 957.951 -2.86792 -3.60675 0
M  V30 10132 H 956.266 -2.4659 -3.35533 0
M  V30 10133 H 958.863 -0.500701 -5.32351 0
M  V30 10134 H 959.206 0.70111 -4.10354 0
M  V30 10135 H 959.739 -0.979466 -3.85553 0
M  V30 10136 H 956.478 -3.42498 -5.58906 0
M  V30 10137 H 955.998 -1.71962 -5.74621 0
M  V30 10138 H 957.677 -2.21113 -6.08045 0
M  V30 10139 N 957.809 1.4625 -0.587256 0
M  V30 10140 C 959.056 2.02363 -0.0745746 0
M  V30 10141 C 959.384 1.4582 1.28712 0
M  V30 10142 O 958.639 0.614922 1.85788 0
M  V30 10143 C 958.938 3.57382 0.036328 0
M  V30 10144 C 958.604 4.32985 -1.25837 0
M  V30 10145 C 957.266 4.53358 -1.61306 0
M  V30 10146 C 959.618 4.76361 -2.11494 0
M  V30 10147 C 956.946 5.14361 -2.82223 0
M  V30 10148 C 959.298 5.38699 -3.31641 0
M  V30 10149 C 957.962 5.57299 -3.67388 0
M  V30 10150 H 957.232 0.740497 -0.0272888 0
M  V30 10151 H 959.879 1.75565 -0.764804 0
M  V30 10152 H 958.184 3.83342 0.809712 0
M  V30 10153 H 959.881 3.9848 0.448838 0
M  V30 10154 H 956.471 4.17427 -0.972251 0
M  V30 10155 H 960.655 4.60372 -1.85394 0
M  V30 10156 H 955.911 5.26952 -3.10051 0
M  V30 10157 H 960.085 5.71267 -3.9828 0
M  V30 10158 H 957.712 6.04338 -4.61173 0
M  V30 10159 N 959.287 0.325282 1.54207 0
M  V30 10160 C 960.25 -0.527228 2.23054 0
M  V30 10161 C 961.25 -1.04217 1.22456 0
M  V30 10162 O 962.44 -0.934325 1.47024 0
M  V30 10163 C 959.572 -1.7325 2.93594 0
M  V30 10164 H 960.765 0.0746423 2.99807 0
M  V30 10165 H 958.318 0.0763872 1.56113 0
M  V30 10166 H 959.053 -2.37356 2.20981 0
M  V30 10167 H 958.838 -1.37065 3.67363 0
M  V30 10168 H 960.328 -2.3376 3.46043 0
M  V30 10169 N 960.765 -1.57509 0.0534917 0
M  V30 10170 C 962.014 -1.91959 -0.619244 0
M  V30 10171 C 962.327 -0.933882 -1.71866 0
M  V30 10172 O 963.533 -1.17052 -2.44972 0
M  V30 10173 C 961.989 -3.40938 -1.15278 0
M  V30 10174 C 961.597 -4.47919 -0.085348 0
M  V30 10175 C 963.341 -3.84419 -1.80063 0
M  V30 10176 C 961.248 -5.88014 -0.631897 0
M  V30 10177 H 960.178 -0.71642 -0.235072 0
M  V30 10178 H 962.829 -1.83089 0.122758 0
M  V30 10179 H 961.211 -3.44821 -1.94717 0
M  V30 10180 H 962.385 -4.55629 0.688374 0
M  V30 10181 H 960.7 -4.13793 0.465178 0
M  V30 10182 H 963.297 -4.86457 -2.21954 0
M  V30 10183 H 963.64 -3.20791 -2.65328 0
M  V30 10184 H 964.173 -3.83062 -1.07275 0
M  V30 10185 H 960.912 -6.55244 0.183175 0
M  V30 10186 H 960.432 -5.83861 -1.37355 0
M  V30 10187 H 962.111 -6.37336 -1.11407 0
M  V30 10188 N 962.243 0.219913 -1.56058 0
M  V30 10189 C 963.19 1.27254 -1.92549 0
M  V30 10190 C 964.16 1.46493 -0.782883 0
M  V30 10191 O 965.345 1.60035 -1.03892 0
M  V30 10192 C 962.485 2.61756 -2.24896 0
M  V30 10193 C 961.598 2.50302 -3.52098 0
M  V30 10194 C 960.733 3.77338 -3.73884 0
M  V30 10195 C 959.772 3.60613 -4.94595 0
M  V30 10196 N 958.909 4.79603 -5.12763 0
M  V30 10197 H 963.749 0.954352 -2.82305 0
M  V30 10198 H 961.286 0.459928 -1.39725 0
M  V30 10199 H 963.244 3.40082 -2.4166 0
M  V30 10200 H 961.874 2.91668 -1.38311 0
M  V30 10201 H 960.926 1.63401 -3.43517 0
M  V30 10202 H 962.238 2.33866 -4.40577 0
M  V30 10203 H 961.392 4.64108 -3.90754 0
M  V30 10204 H 960.131 3.96702 -2.83689 0
M  V30 10205 H 959.136 2.72228 -4.77674 0
M  V30 10206 H 960.361 3.42719 -5.86277 0
M  V30 10207 H 958.307 4.99277 -4.2551 0
M  V30 10208 H 958.224 4.65899 -5.95377 0
M  V30 10209 H 959.492 5.67794 -5.34069 0
M  V30 10210 N 963.721 1.49897 0.486681 0
M  V30 10211 C 964.668 1.67619 1.58658 0
M  V30 10212 C 965.638 0.517537 1.57831 0
M  V30 10213 O 966.823 0.746272 1.756 0
M  V30 10214 C 963.963 1.762 2.96728 0
M  V30 10215 C 963.076 3.03465 3.07462 0
M  V30 10216 C 962.211 3.02937 4.36351 0
M  V30 10217 C 961.25 4.24721 4.4077 0
M  V30 10218 N 960.387 4.22021 5.61108 0
M  V30 10219 H 965.227 2.61528 1.42853 0
M  V30 10220 H 962.764 1.29657 0.694807 0
M  V30 10221 H 964.722 1.79156 3.76774 0
M  V30 10222 H 963.352 0.857452 3.11203 0
M  V30 10223 H 962.404 3.10054 2.20387 0
M  V30 10224 H 963.716 3.93454 3.06586 0
M  V30 10225 H 962.87 3.04536 5.24731 0
M  V30 10226 H 961.609 2.10751 4.39813 0
M  V30 10227 H 960.614 4.23352 3.5079 0
M  V30 10228 H 961.839 5.18116 4.39013 0
M  V30 10229 H 959.785 3.3268 5.65385 0
M  V30 10230 H 959.702 5.05761 5.61909 0
M  V30 10231 H 960.97 4.27743 6.51656 0
M  V30 10232 N 965.199 -0.738761 1.39212 0
M  V30 10233 C 966.146 -1.85273 1.37631 0
M  V30 10234 C 967.116 -1.64407 0.236572 0
M  V30 10235 O 968.301 -1.85866 0.431104 0
M  V30 10236 C 965.441 -3.22745 1.22188 0
M  V30 10237 C 964.554 -3.55342 2.45674 0
M  V30 10238 C 963.689 -4.82195 2.22847 0
M  V30 10239 C 962.728 -5.07625 3.42029 0
M  V30 10240 N 961.865 -6.25679 3.18543 0
M  V30 10241 H 966.705 -1.85959 2.32859 0
M  V30 10242 H 964.242 -0.908716 1.15675 0
M  V30 10243 H 966.2 -4.02095 1.11245 0
M  V30 10244 H 964.83 -3.21347 0.30592 0
M  V30 10245 H 963.882 -2.70722 2.67233 0
M  V30 10246 H 965.194 -3.70054 3.34457 0
M  V30 10247 H 964.348 -5.69518 2.09126 0
M  V30 10248 H 963.087 -4.6965 1.31454 0
M  V30 10249 H 962.092 -4.18765 3.56253 0
M  V30 10250 H 963.317 -5.22058 4.34319 0
M  V30 10251 H 961.263 -6.14429 2.2981 0
M  V30 10252 H 961.18 -6.40961 4.0088 0
M  V30 10253 H 962.448 -7.15851 3.08508 0
M  V30 10254 N 966.677 -1.24326 -0.968545 0
M  V30 10255 C 967.954 -0.990459 -1.68669 0
M  V30 10256 C 968.334 0.487487 -2.05394 0
M  V30 10257 O 967.682 1.46158 -1.75642 0
M  V30 10258 C 967.892 -1.91251 -2.91931 0
M  V30 10259 C 969.24 -2.18291 -3.6419 0
M  V30 10260 O 970.264 -1.88897 -3.01987 0
M  V30 10261 O 969.123 -2.68204 -4.76161 0
M  V30 10262 H 966.217 -0.374515 -0.737338 0
M  V30 10263 H 968.763 -1.35421 -1.02271 0
M  V30 10264 H 967.535 -2.9111 -2.61478 0
M  V30 10265 H 967.158 -1.55188 -3.66064 0
M  V30 10266 N 968.156 1.1691 -1.05688 0
M  V30 10267 C 969.381 1.91745 -0.790478 0
M  V30 10268 C 969.806 1.76568 0.648478 0
M  V30 10269 O 969.164 1.08682 1.45114 0
M  V30 10270 C 969.212 3.4067 -1.18222 0
M  V30 10271 O 968.316 4.11177 -0.317341 0
M  V30 10272 H 967.657 0.5976 -0.28943 0
M  V30 10273 H 970.187 1.48157 -1.41105 0
M  V30 10274 H 970.197 3.91424 -1.15114 0
M  V30 10275 H 968.872 3.51036 -2.2304 0
M  V30 10276 H 967.449 3.70645 -0.409459 0
M  V30 10277 N 969.634 0.838594 1.33437 0
M  V30 10278 C 970.862 0.447644 2.01999 0
M  V30 10279 C 971.277 -0.951053 1.63096 0
M  V30 10280 O 970.634 -1.61802 0.844169 0
M  V30 10281 C 970.685 0.558378 3.57162 0
M  V30 10282 O 970.406 1.90196 3.94661 0
M  V30 10283 C 971.907 0.164348 4.42995 0
M  V30 10284 H 969.127 0.177736 0.647032 0
M  V30 10285 H 971.671 1.13109 1.70372 0
M  V30 10286 H 969.826 -0.0771563 3.87323 0
M  V30 10287 H 970.24 1.88729 4.89369 0
M  V30 10288 H 971.714 0.292876 5.51222 0
M  V30 10289 H 972.191 -0.893713 4.30011 0
M  V30 10290 H 972.797 0.774306 4.18192 0
M  V30 10291 N 971.112 -1.45937 0.595003 0
M  V30 10292 C 972.059 -2.30427 -0.131165 0
M  V30 10293 C 973.029 -1.41355 -0.872232 0
M  V30 10294 O 974.214 -1.70296 -0.860467 0
M  V30 10295 C 971.354 -3.26045 -1.13087 0
M  V30 10296 C 970.467 -4.30218 -0.391982 0
M  V30 10297 C 969.602 -5.12953 -1.3803 0
M  V30 10298 C 968.641 -6.08865 -0.628505 0
M  V30 10299 N 967.778 -6.84425 -1.56548 0
M  V30 10300 H 972.618 -2.91992 0.595359 0
M  V30 10301 H 970.155 -1.43895 0.305405 0
M  V30 10302 H 972.113 -3.79937 -1.72348 0
M  V30 10303 H 970.743 -2.66261 -1.82496 0
M  V30 10304 H 969.795 -3.79086 0.315895 0
M  V30 10305 H 971.107 -4.98418 0.195173 0
M  V30 10306 H 970.261 -5.71184 -2.04534 0
M  V30 10307 H 969 -4.44743 -2.00138 0
M  V30 10308 H 968.005 -5.49777 0.0502431 0
M  V30 10309 H 969.23 -6.79099 -0.012641 0
M  V30 10310 H 967.176 -6.18913 -2.17444 0
M  V30 10311 H 967.093 -7.48931 -1.03145 0
M  V30 10312 H 968.361 -7.47204 -2.22049 0
M  V30 10313 N 972.59 -0.333456 -1.54032 0
M  V30 10314 C 973.836 0.259248 -2.01741 0
M  V30 10315 C 974.191 1.48999 -1.21725 0
M  V30 10316 O 973.484 1.89333 -0.293882 0
M  V30 10317 C 973.678 0.63565 -3.51702 0
M  V30 10318 C 973.507 -0.55707 -4.46236 0
M  V30 10319 C 972.277 -1.05925 -4.94073 0
M  V30 10320 C 974.475 -1.41237 -4.94527 0
M  V30 10321 N 972.457 -2.21535 -5.72534 0
M  V30 10322 C 973.828 -2.41551 -5.71011 0
M  V30 10323 C 975.883 -1.43899 -4.76652 0
M  V30 10324 C 974.586 -3.44342 -6.31523 0
M  V30 10325 C 976.612 -2.45567 -5.38006 0
M  V30 10326 C 975.974 -3.44606 -6.1435 0
M  V30 10327 H 972.073 0.0584431 -0.779813 0
M  V30 10328 H 974.657 -0.470736 -1.88924 0
M  V30 10329 H 972.828 1.33475 -3.64745 0
M  V30 10330 H 974.56 1.21067 -3.86167 0
M  V30 10331 H 971.315 -0.628947 -4.69405 0
M  V30 10332 H 971.739 -2.79878 -6.16439 0
M  V30 10333 H 976.381 -0.686929 -4.17182 0
M  V30 10334 H 974.099 -4.20449 -6.90107 0
M  V30 10335 H 977.685 -2.4844 -5.26088 0
M  V30 10336 H 976.565 -4.21987 -6.60982 0
M  V30 10337 N 974.068 1.57479 -0.061844 0
M  V30 10338 C 975.484 1.56855 0.294753 0
M  V30 10339 C 975.684 1.07042 1.70717 0
M  V30 10340 O 974.74 0.731817 2.41662 0
M  V30 10341 C 976.053 3.00486 0.113484 0
M  V30 10342 C 977.601 3.1246 0.183778 0
M  V30 10343 C 978.076 4.5799 0.0309092 0
M  V30 10344 N 979.567 4.63119 0.0868393 0
M  V30 10345 C 980.302 5.734 -0.00717446 0
M  V30 10346 N 979.798 6.92628 -0.154144 0
M  V30 10347 N 981.591 5.62078 0.0491763 0
M  V30 10348 H 973.742 1.88176 -0.985058 0
M  V30 10349 H 976.005 0.867051 -0.383309 0
M  V30 10350 H 975.711 3.41004 -0.86075 0
M  V30 10351 H 975.585 3.67029 0.870023 0
M  V30 10352 H 977.972 2.71834 1.14849 0
M  V30 10353 H 978.053 2.48574 -0.603697 0
M  V30 10354 H 977.697 4.99303 -0.930526 0
M  V30 10355 H 977.627 5.19895 0.837664 0
M  V30 10356 H 980.118 3.77374 0.199245 0
M  V30 10357 H 980.431 7.72492 -0.218296 0
M  V30 10358 H 978.776 6.94742 -0.189372 0
M  V30 10359 H 981.967 4.67817 0.162626 0
M  V30 10360 H 982.14 6.47994 -0.0275478 0
M  V30 10361 N 975.546 -0.211634 1.56173 0
M  V30 10362 C 976.493 -1.26231 1.93221 0
M  V30 10363 C 977.463 -1.46076 0.790641 0
M  V30 10364 O 978.648 -1.59482 1.04739 0
M  V30 10365 C 975.788 -2.60559 2.26281 0
M  V30 10366 C 974.901 -2.48431 3.5342 0
M  V30 10367 C 974.036 -3.7535 3.7588 0
M  V30 10368 C 973.075 -3.57985 4.96501 0
M  V30 10369 N 972.212 -4.76877 5.15299 0
M  V30 10370 H 977.052 -0.939367 2.82807 0
M  V30 10371 H 974.589 -0.452511 1.39967 0
M  V30 10372 H 976.547 -3.38796 2.43461 0
M  V30 10373 H 975.177 -2.9093 1.39855 0
M  V30 10374 H 974.229 -1.61577 3.44379 0
M  V30 10375 H 975.541 -2.31526 4.41811 0
M  V30 10376 H 974.695 -4.62029 3.9321 0
M  V30 10377 H 973.434 -3.95191 2.85788 0
M  V30 10378 H 972.439 -2.69691 4.79111 0
M  V30 10379 H 973.664 -3.39605 5.88086 0
M  V30 10380 H 971.61 -4.97013 4.28152 0
M  V30 10381 H 971.527 -4.62735 5.9784 0
M  V30 10382 H 972.795 -5.64954 5.37073 0
M  V30 10383 N 977.024 -1.50153 -0.478725 0
M  V30 10384 C 977.954 -1.71384 -1.58587 0
M  V30 10385 C 978.935 -0.562705 -1.60523 0
M  V30 10386 O 980.12 -0.80101 -1.76911 0
M  V30 10387 C 977.25 -1.80094 -2.96957 0
M  V30 10388 C 976.204 -2.95218 -3.09888 0
M  V30 10389 C 975.53 -2.89063 -4.49829 0
M  V30 10390 C 976.83 -4.35841 -2.8782 0
M  V30 10391 H 978.524 -2.64081 -1.41073 0
M  V30 10392 H 976.07 -1.27081 -0.677239 0
M  V30 10393 H 978.023 -1.93531 -3.74331 0
M  V30 10394 H 976.747 -0.840131 -3.1561 0
M  V30 10395 H 975.406 -2.81419 -2.34944 0
M  V30 10396 H 975.054 -1.90844 -4.6539 0
M  V30 10397 H 974.754 -3.66345 -4.59418 0
M  V30 10398 H 976.278 -3.04539 -5.29234 0
M  V30 10399 H 977.692 -4.50205 -3.54948 0
M  V30 10400 H 976.089 -5.14515 -3.0886 0
M  V30 10401 H 977.159 -4.48739 -1.83742 0
M  V30 10402 N 978.502 0.731368 -1.39602 0
M  V30 10403 C 979.748 1.49321 -1.37227 0
M  V30 10404 C 980.081 1.94176 0.0306502 0
M  V30 10405 O 979.356 1.67046 0.996294 0
M  V30 10406 C 979.639 2.73035 -2.34784 0
M  V30 10407 C 979.492 2.34176 -3.84033 0
M  V30 10408 C 980.811 3.75146 -2.30116 0
M  V30 10409 H 977.93 0.541652 -0.499783 0
M  V30 10410 H 980.572 0.835968 -1.70621 0
M  V30 10411 H 978.722 3.29114 -2.06437 0
M  V30 10412 H 980.394 1.83701 -4.23145 0
M  V30 10413 H 978.637 1.66361 -4.00633 0
M  V30 10414 H 979.308 3.22786 -4.47787 0
M  V30 10415 H 981.784 3.28661 -2.55189 0
M  V30 10416 H 980.66 4.5937 -3.00451 0
M  V30 10417 H 980.921 4.22326 -1.30741 0
M  V30 10418 N 979.98 1.24838 0.961938 0
M  V30 10419 C 981.257 0.99939 1.68141 0
M  V30 10420 C 981.637 -0.476588 2.0565 0
M  V30 10421 O 980.985 -1.45224 1.76415 0
M  V30 10422 C 981.195 1.92797 2.90913 0
M  V30 10423 C 982.543 2.20219 3.63027 0
M  V30 10424 O 983.567 1.90496 3.00981 0
M  V30 10425 O 982.426 2.70725 4.74731 0
M  V30 10426 H 979.52 0.37842 0.735342 0
M  V30 10427 H 982.066 1.35961 1.01551 0
M  V30 10428 H 980.838 2.92492 2.59931 0
M  V30 10429 H 980.461 1.57127 3.65235 0
M  V30 10430 N 981.458 -1.16348 1.06306 0
M  V30 10431 C 982.705 -1.86881 0.779852 0
M  V30 10432 C 983.033 -1.8171 -0.693668 0
M  V30 10433 O 982.288 -1.22769 -1.52401 0
M  V30 10434 C 982.587 -3.35936 1.21991 0
M  V30 10435 C 982.253 -3.61307 2.69756 0
M  V30 10436 C 980.915 -3.6794 3.10119 0
M  V30 10437 C 983.267 -3.71871 3.65187 0
M  V30 10438 C 980.595 -3.82639 4.44752 0
M  V30 10439 C 982.947 -3.88091 4.99568 0
M  V30 10440 C 981.611 -3.92967 5.39568 0
M  V30 10441 H 980.881 -0.683847 0.285368 0
M  V30 10442 H 983.528 -1.37569 1.33218 0
M  V30 10443 H 981.833 -3.87381 0.586774 0
M  V30 10444 H 983.53 -3.88895 0.977821 0
M  V30 10445 H 980.12 -3.56777 2.37504 0
M  V30 10446 H 984.304 -3.66057 3.35136 0
M  V30 10447 H 979.56 -3.84666 4.75228 0
M  V30 10448 H 983.734 -3.95207 5.73397 0
M  V30 10449 H 981.361 -4.04109 6.43895 0
M  V30 10450 N 982.937 -0.845659 -1.3299 0
M  V30 10451 C 984.353 -0.53433 -1.5039 0
M  V30 10452 C 984.553 0.936939 -1.78392 0
M  V30 10453 O 983.609 1.72043 -1.84818 0
M  V30 10454 C 984.922 -1.41354 -2.65404 0
M  V30 10455 C 986.47 -1.41303 -2.79289 0
M  V30 10456 C 986.945 -2.27724 -3.97373 0
M  V30 10457 N 988.436 -2.25471 -4.0462 0
M  V30 10458 C 989.171 -2.89074 -4.95201 0
M  V30 10459 N 988.667 -3.61755 -5.90851 0
M  V30 10460 N 990.46 -2.78508 -4.88251 0
M  V30 10461 H 982.611 -1.79798 -1.13078 0
M  V30 10462 H 984.874 -0.767454 -0.556524 0
M  V30 10463 H 984.58 -2.45936 -2.51413 0
M  V30 10464 H 984.454 -1.09445 -3.60973 0
M  V30 10465 H 986.841 -0.374899 -2.92709 0
M  V30 10466 H 986.922 -1.77222 -1.84461 0
M  V30 10467 H 986.566 -3.316 -3.84713 0
M  V30 10468 H 986.496 -1.89142 -4.9146 0
M  V30 10469 H 988.987 -1.72622 -3.3617 0
M  V30 10470 H 989.3 -4.07475 -6.56646 0
M  V30 10471 H 987.645 -3.65863 -5.90906 0
M  V30 10472 H 990.836 -2.21285 -4.12493 0
M  V30 10473 H 991.009 -3.2836 -5.58645 0
M  V30 10474 N 984.415 1.45619 -0.602734 0
M  V30 10475 C 985.325 2.34288 0.120902 0
M  V30 10476 C 986.341 1.50952 0.865414 0
M  V30 10477 O 987.517 1.83768 0.824094 0
M  V30 10478 C 984.582 3.28489 1.10888 0
M  V30 10479 C 983.643 4.2773 0.366853 0
M  V30 10480 C 982.876 5.17429 1.30776 0
M  V30 10481 O 983.099 5.10459 2.54535 0
M  V30 10482 O 982.033 5.96459 0.807464 0
M  V30 10483 H 985.859 2.97559 -0.60765 0
M  V30 10484 H 983.444 1.44922 -0.363019 0
M  V30 10485 H 985.326 3.86549 1.67803 0
M  V30 10486 H 984.001 2.67789 1.81854 0
M  V30 10487 H 982.908 3.73299 -0.244643 0
M  V30 10488 H 984.241 4.91271 -0.302226 0
M  V30 10489 N 985.893 0.34162 1.53853 0
M  V30 10490 C 986.823 -0.508431 2.27897 0
M  V30 10491 C 987.804 -1.10425 1.29384 0
M  V30 10492 O 988.989 -1.126 1.58224 0
M  V30 10493 C 986.119 -1.66048 3.05034 0
M  V30 10494 C 985.073 -1.19309 4.11035 0
M  V30 10495 C 984.399 -2.4335 4.76114 0
M  V30 10496 C 985.699 -0.294952 5.21467 0
M  V30 10497 H 987.393 0.109251 2.99201 0
M  V30 10498 H 984.939 0.0539847 1.43899 0
M  V30 10499 H 986.892 -2.26158 3.5557 0
M  V30 10500 H 985.616 -2.30503 2.31379 0
M  V30 10501 H 984.275 -0.614809 3.61408 0
M  V30 10502 H 983.923 -3.06208 3.99056 0
M  V30 10503 H 983.623 -2.1276 5.47729 0
M  V30 10504 H 985.147 -3.0419 5.29434 0
M  V30 10505 H 986.561 -0.80285 5.67651 0
M  V30 10506 H 984.958 -0.0810221 6.00045 0
M  V30 10507 H 986.028 0.669433 4.80257 0
M  V30 10508 N 987.371 -1.57444 0.0701946 0
M  V30 10509 C 988.319 -2.13834 -0.915302 0
M  V30 10510 C 989.313 -1.07483 -1.30934 0
M  V30 10511 O 990.519 -1.25865 -1.28678 0
M  V30 10512 H 986.894 -0.683716 -0.313108 0
M  V30 10513 H 988.865 -2.95503 -0.414758 0
M  V30 10514 C 987.614 -2.71355 -2.17398 0
M  V30 10515 H 986.937 -3.52861 -1.87961 0
M  V30 10516 H 988.377 -3.1441 -2.84469 0
M  V30 10517 C 986.836 -1.66038 -2.93143 0
M  V30 10518 O 987.366 -1.08443 -3.86786 0
M  V30 10519 N 985.572 -1.3711 -2.56221 0
M  V30 10520 H 985.119 -1.84135 -1.80145 0
M  V30 10521 H 985.077 -0.66877 -3.07205 0
M  V30 10522 N 988.849 0.203349 -1.56283 0
M  V30 10523 C 989.796 1.25205 -1.93888 0
M  V30 10524 C 990.766 1.45654 -0.798376 0
M  V30 10525 O 991.951 1.58924 -1.05583 0
M  V30 10526 C 989.091 2.59355 -2.27659 0
M  V30 10527 C 988.204 2.46553 -3.54733 0
M  V30 10528 C 987.339 3.73351 -3.77865 0
M  V30 10529 C 986.378 3.55347 -4.98392 0
M  V30 10530 N 985.515 4.74137 -5.17821 0
M  V30 10531 H 990.355 0.924356 -2.83301 0
M  V30 10532 H 987.892 0.445082 -1.40205 0
M  V30 10533 H 989.85 3.375 -2.45254 0
M  V30 10534 H 988.48 2.90184 -1.41396 0
M  V30 10535 H 987.532 1.59749 -3.45231 0
M  V30 10536 H 988.844 2.2918 -4.43033 0
M  V30 10537 H 987.998 4.59937 -3.95655 0
M  V30 10538 H 986.737 3.9367 -2.8788 0
M  V30 10539 H 985.742 2.67146 -4.80534 0
M  V30 10540 H 986.967 3.36482 -5.89879 0
M  V30 10541 H 984.913 4.94735 -4.30782 0
M  V30 10542 H 984.83 4.59558 -6.00285 0
M  V30 10543 H 986.098 5.62098 -5.40061 0
M  V30 10544 N 990.327 1.50405 0.470755 0
M  V30 10545 C 991.743 1.37838 0.804534 0
M  V30 10546 C 991.943 0.434743 1.96754 0
M  V30 10547 O 990.999 -0.122507 2.52203 0
M  V30 10548 C 992.312 2.79212 1.11629 0
M  V30 10549 C 993.86 2.88129 1.22272 0
M  V30 10550 C 994.335 4.30337 1.5676 0
M  V30 10551 N 995.826 4.3329 1.63751 0
M  V30 10552 C 996.561 5.4032 1.91942 0
M  V30 10553 N 996.057 6.57558 2.18151 0
M  V30 10554 N 997.85 5.27764 1.93446 0
M  V30 10555 H 990.001 2.10332 -0.295689 0
M  V30 10556 H 992.264 0.945429 -0.0697733 0
M  V30 10557 H 991.97 3.50103 0.334778 0
M  V30 10558 H 991.844 3.16475 2.0524 0
M  V30 10559 H 994.231 2.17457 1.9949 0
M  V30 10560 H 994.312 2.54409 0.2664 0
M  V30 10561 H 993.956 5.01547 0.800817 0
M  V30 10562 H 993.886 4.61545 2.53543 0
M  V30 10563 H 996.377 3.48752 1.45535 0
M  V30 10564 H 996.69 7.34935 2.38936 0
M  V30 10565 H 995.035 6.60732 2.15542 0
M  V30 10566 H 998.226 4.35169 1.72468 0
M  V30 10567 H 998.399 6.11264 2.15081 0
M  V30 10568 N 991.805 -0.723954 1.39988 0
M  V30 10569 C 993.033 -1.51313 1.4111 0
M  V30 10570 C 993.448 -1.88798 0.00853333 0
M  V30 10571 O 992.805 -1.54868 -0.965516 0
M  V30 10572 C 992.856 -2.79375 2.29416 0
M  V30 10573 O 992.577 -2.43478 3.64211 0
M  V30 10574 C 994.078 -3.7333 2.3904 0
M  V30 10575 H 991.298 -0.46724 0.481589 0
M  V30 10576 H 993.842 -0.893694 1.83938 0
M  V30 10577 H 991.997 -3.37624 1.89971 0
M  V30 10578 H 992.411 -3.25821 4.11024 0
M  V30 10579 H 993.885 -4.60051 3.05053 0
M  V30 10580 H 994.362 -4.15854 1.41289 0
M  V30 10581 H 994.968 -3.20996 2.79001 0
M  V30 10582 N 993.283 -1.25346 -0.955304 0
M  V30 10583 C 994.215 -1.0146 -2.0552 0
M  V30 10584 C 995.228 0.0202256 -1.62787 0
M  V30 10585 O 996.417 -0.218251 -1.77161 0
M  V30 10586 C 993.517 -0.511727 -3.35014 0
M  V30 10587 C 992.69 -1.61256 -4.0659 0
M  V30 10588 C 991.749 -1.11017 -5.14356 0
M  V30 10589 O 990.775 -1.80443 -5.39842 0
M  V30 10590 N 991.977 0.0489001 -5.80479 0
M  V30 10591 H 994.742 -1.96166 -2.26581 0
M  V30 10592 H 992.303 -1.16543 -1.12381 0
M  V30 10593 H 994.295 -0.160123 -4.04383 0
M  V30 10594 H 992.865 0.341377 -3.1073 0
M  V30 10595 H 992.085 -2.13577 -3.31328 0
M  V30 10596 H 993.373 -2.35213 -4.51168 0
M  V30 10597 H 992.771 0.629021 -5.62192 0
M  V30 10598 H 991.328 0.341542 -6.50905 0
M  V30 10599 N 994.761 1.15782 -1.06922 0
M  V30 10600 C 996.038 1.8253 -0.703 0
M  V30 10601 C 996.418 1.94733 0.814994 0
M  V30 10602 O 995.766 1.49537 1.72774 0
M  V30 10603 C 995.976 3.19145 -1.41234 0
M  V30 10604 C 997.324 3.94839 -1.56164 0
M  V30 10605 O 998.348 3.28685 -1.37277 0
M  V30 10606 O 997.207 5.13436 -1.87205 0
M  V30 10607 H 994.301 0.788425 -0.24963 0
M  V30 10608 H 996.847 1.22931 -1.16988 0
M  V30 10609 H 995.619 3.05336 -2.44715 0
M  V30 10610 H 995.242 3.86427 -0.935959 0
M  V30 10611 N 996.239 0.8527 1.3254 0
M  V30 10612 C 997.486 0.455123 1.97319 0
M  V30 10613 C 997.814 -0.988814 1.67489 0
M  V30 10614 O 997.069 -1.70845 0.954483 0
M  V30 10615 C 997.368 0.638757 3.51646 0
M  V30 10616 C 997.034 2.05287 4.01458 0
M  V30 10617 C 995.696 2.43963 4.14771 0
M  V30 10618 C 998.048 2.9759 4.27889 0
M  V30 10619 C 995.376 3.7422 4.51859 0
M  V30 10620 C 997.728 4.27343 4.66434 0
M  V30 10621 C 996.392 4.65957 4.77954 0
M  V30 10622 H 995.662 0.166541 0.722042 0
M  V30 10623 H 998.309 1.08238 1.57977 0
M  V30 10624 H 996.614 -0.0717394 3.91734 0
M  V30 10625 H 998.311 0.311219 3.9979 0
M  V30 10626 H 994.901 1.74253 3.91579 0
M  V30 10627 H 999.085 2.68942 4.17114 0
M  V30 10628 H 994.341 4.03923 4.58973 0
M  V30 10629 H 998.515 4.9893 4.85841 0
M  V30 10630 H 996.142 5.66934 5.06449 0
M  V30 10631 N 997.718 -1.45297 0.610449 0
M  V30 10632 C 998.964 -2.03073 0.115358 0
M  V30 10633 C 999.319 -1.47 -1.24132 0
M  V30 10634 O 998.612 -0.636326 -1.80725 0
M  V30 10635 C 998.806 -3.57394 0.0205329 0
M  V30 10636 C 998.635 -4.28436 1.36647 0
M  V30 10637 C 997.405 -4.66245 1.94791 0
M  V30 10638 C 999.603 -4.60211 2.29587 0
M  V30 10639 N 997.585 -5.22159 3.22835 0
M  V30 10640 C 998.956 -5.16989 3.42232 0
M  V30 10641 C 1001.01 -4.42152 2.28923 0
M  V30 10642 C 999.714 -5.5761 4.54382 0
M  V30 10643 C 1001.74 -4.83808 3.40123 0
M  V30 10644 C 1001.1 -5.40681 4.5149 0
M  V30 10645 H 997.201 -0.777296 0.0856485 0
M  V30 10646 H 999.785 -1.77077 0.809426 0
M  V30 10647 H 997.956 -3.83045 -0.642763 0
M  V30 10648 H 999.688 -4.01826 -0.481481 0
M  V30 10649 H 996.443 -4.49893 1.47965 0
M  V30 10650 H 996.867 -5.54613 3.88245 0
M  V30 10651 H 1001.51 -3.97493 1.44081 0
M  V30 10652 H 999.227 -6.01234 5.39947 0
M  V30 10653 H 1002.81 -4.71565 3.40761 0
M  V30 10654 H 1001.69 -5.72321 5.36114 0
M  V30 10655 N 999.196 -0.349774 -1.5367 0
M  V30 10656 C 1000.11 0.512421 -2.28935 0
M  V30 10657 C 1001.12 1.1065 -1.34286 0
M  V30 10658 O 1002.3 1.12084 -1.67329 0
M  V30 10659 C 999.363 1.64449 -3.05217 0
M  V30 10660 C 998.424 1.07956 -4.15505 0
M  V30 10661 C 997.657 2.15768 -4.88139 0
M  V30 10662 O 997.88 3.366 -4.60496 0
M  V30 10663 O 996.814 1.79712 -5.74445 0
M  V30 10664 H 1000.64 -0.0996001 -3.03537 0
M  V30 10665 H 998.225 -0.114629 -1.4896 0
M  V30 10666 H 1000.11 2.30302 -3.52901 0
M  V30 10667 H 998.782 2.24221 -2.33467 0
M  V30 10668 H 997.689 0.385381 -3.7211 0
M  V30 10669 H 999.022 0.526621 -4.89375 0
M  V30 10670 N 1000.67 1.57404 -0.0785433 0
M  V30 10671 C 1001.92 1.94031 0.589896 0
M  V30 10672 C 1002.25 0.959297 1.68852 0
M  V30 10673 O 1001.53 -0.0103978 1.94497 0
M  V30 10674 C 1001.81 3.40886 1.16055 0
M  V30 10675 C 1001.66 4.49748 0.0681072 0
M  V30 10676 C 1002.98 3.88699 2.06401 0
M  V30 10677 H 1000.1 0.70556 0.212965 0
M  V30 10678 H 1002.74 1.89439 -0.145886 0
M  V30 10679 H 1000.89 3.4493 1.78761 0
M  V30 10680 H 1002.57 4.57823 -0.565318 0
M  V30 10681 H 1000.81 4.29625 -0.600431 0
M  V30 10682 H 1001.48 5.49658 0.507906 0
M  V30 10683 H 1003.96 3.86703 1.53622 0
M  V30 10684 H 1002.83 4.92052 2.43261 0
M  V30 10685 H 1003.09 3.2703 2.97496 0
M  V30 10686 N 1002.15 -0.195058 1.56388 0
M  V30 10687 C 1003.08 -1.26581 1.91076 0
M  V30 10688 C 1004.1 -1.41707 0.801436 0
M  V30 10689 O 1005.29 -1.42132 1.07985 0
M  V30 10690 C 1002.39 -2.63794 2.12758 0
M  V30 10691 C 1001.56 -2.70275 3.43904 0
M  V30 10692 C 1000.62 -3.88685 3.54698 0
M  V30 10693 O 999.644 -3.75786 4.2752 0
M  V30 10694 N 1000.85 -5.04141 2.87789 0
M  V30 10695 H 1003.61 -0.971401 2.83521 0
M  V30 10696 H 1001.17 -0.384976 1.57256 0
M  V30 10697 H 1003.16 -3.41434 2.17267 0
M  V30 10698 H 1001.73 -2.85723 1.26812 0
M  V30 10699 H 1000.95 -1.78909 3.51262 0
M  V30 10700 H 1002.24 -2.71597 4.30247 0
M  V30 10701 H 1001.64 -5.17519 2.28452 0
M  V30 10702 H 1000.2 -5.79727 2.97925 0
M  V30 10703 N 1003.63 -1.50653 -0.462772 0
M  V30 10704 C 1004.56 -1.73056 -1.5676 0
M  V30 10705 C 1005.54 -0.579699 -1.59917 0
M  V30 10706 O 1006.73 -0.819729 -1.76051 0
M  V30 10707 C 1003.86 -1.83234 -2.9503 0
M  V30 10708 C 1002.81 -2.98488 -3.06739 0
M  V30 10709 C 1002.14 -2.93818 -4.46738 0
M  V30 10710 C 1003.44 -4.38869 -2.83181 0
M  V30 10711 H 1005.13 -2.65562 -1.38265 0
M  V30 10712 H 1002.68 -1.27792 -0.663722 0
M  V30 10713 H 1004.63 -1.97491 -3.72257 0
M  V30 10714 H 1003.35 -0.873558 -3.14701 0
M  V30 10715 H 1002.01 -2.83895 -2.31946 0
M  V30 10716 H 1001.66 -1.95769 -4.63339 0
M  V30 10717 H 1001.36 -3.71197 -4.55507 0
M  V30 10718 H 1002.88 -3.10135 -5.25974 0
M  V30 10719 H 1004.3 -4.53945 -3.50153 0
M  V30 10720 H 1002.69 -5.17762 -3.03386 0
M  V30 10721 H 1003.76 -4.50663 -1.78972 0
M  V30 10722 N 1005.11 0.71652 -1.4037 0
M  V30 10723 C 1006.36 1.47347 -1.38324 0
M  V30 10724 C 1006.68 1.94995 0.0139949 0
M  V30 10725 O 1005.95 1.7028 0.968585 0
M  V30 10726 H 1004.53 0.546662 -0.509087 0
M  V30 10727 H 1007.19 0.849455 -1.75415 0
M  V30 10728 H 1006.29 2.34675 -2.05752 0
M  V30 10729 N 1006.59 1.25851 0.948643 0
M  V30 10730 C 1007.84 1.10347 1.68838 0
M  V30 10731 C 1008.15 -0.354262 1.92365 0
M  V30 10732 O 1009.35 -0.629847 2.64093 0
M  V30 10733 C 1007.81 1.92659 3.03991 0
M  V30 10734 C 1007.42 3.42962 2.88238 0
M  V30 10735 C 1009.16 1.85743 3.81707 0
M  V30 10736 C 1007.07 4.17547 4.18818 0
M  V30 10737 H 1006 0.409342 0.63321 0
M  V30 10738 H 1008.65 1.50098 1.05559 0
M  V30 10739 H 1007.03 1.45736 3.68208 0
M  V30 10740 H 1008.21 3.97601 2.32917 0
M  V30 10741 H 1006.52 3.51035 2.23972 0
M  V30 10742 H 1009.12 2.38758 4.78434 0
M  V30 10743 H 1009.46 0.826568 4.08012 0
M  V30 10744 H 1009.99 2.30449 3.2425 0
M  V30 10745 H 1006.73 5.21072 3.97699 0
M  V30 10746 H 1006.25 3.6769 4.73882 0
M  V30 10747 H 1007.93 4.25589 4.87322 0
M  V30 10748 N 1008.06 -1.15214 1.07534 0
M  V30 10749 C 1009.48 -1.67628 0.822045 0
M  V30 10750 C 1009.83 -1.8503 -0.652571 0
M  V30 10751 O 1008.95 -1.55497 -1.50498 0
M  V30 10752 C 1009.55 -3.04489 1.48566 0
M  V30 10753 C 1008.11 -3.53974 1.27983 0
M  V30 10754 C 1007.25 -2.29656 1.55414 0
M  V30 10755 H 1010.2 -0.994016 1.23713 0
M  V30 10756 H 1010.22 -3.69509 0.907916 0
M  V30 10757 H 1009.74 -2.91792 2.55888 0
M  V30 10758 H 1007.84 -3.71908 0.226906 0
M  V30 10759 H 1007.95 -4.35298 2.0013 0
M  V30 10760 H 1006.31 -2.35289 0.975251 0
M  V30 10761 H 1007.1 -2.19544 2.63923 0
M  V30 10762 N 1009.54 -0.859717 -1.32086 0
M  V30 10763 C 1010.49 -0.279715 -2.26278 0
M  V30 10764 C 1011.48 0.577348 -1.50185 0
M  V30 10765 O 1012.67 0.425903 -1.71799 0
M  V30 10766 C 1009.8 0.526622 -3.39237 0
M  V30 10767 C 1008.88 -0.343112 -4.2271 0
M  V30 10768 N 1009.27 -1.43176 -4.85113 0
M  V30 10769 C 1007.57 -0.133744 -4.45799 0
M  V30 10770 C 1008.27 -1.96725 -5.47425 0
M  V30 10771 N 1007.25 -1.26569 -5.2866 0
M  V30 10772 H 1011.05 -1.11191 -2.72055 0
M  V30 10773 H 1008.57 -0.706372 -1.46233 0
M  V30 10774 H 1010.56 0.958587 -4.0573 0
M  V30 10775 H 1009.22 1.35655 -2.95005 0
M  V30 10776 H 1010.23 -1.81469 -4.85066 0
M  V30 10777 H 1006.91 0.661064 -4.12233 0
M  V30 10778 H 1008.3 -2.88006 -6.07044 0
M  V30 10779 N 1011.02 1.44971 -0.618145 0
M  V30 10780 C 1012.43 1.85611 -0.201334 0
M  V30 10781 C 1012.78 1.51698 1.24427 0
M  V30 10782 O 1011.91 0.94875 1.94493 0
M  V30 10783 C 1012.5 3.36897 -0.358619 0
M  V30 10784 C 1011.06 3.764 0.00358196 0
M  V30 10785 C 1010.21 2.68881 -0.678118 0
M  V30 10786 H 1013.16 1.35622 -0.824152 0
M  V30 10787 H 1013.18 3.78326 0.406176 0
M  V30 10788 H 1012.69 3.61548 -1.41084 0
M  V30 10789 H 1010.79 3.57365 1.05457 0
M  V30 10790 H 1010.91 4.77449 -0.397427 0
M  V30 10791 H 1009.27 2.54442 -0.114699 0
M  V30 10792 H 1010.05 2.96367 -1.73268 0
M  V30 10793 N 1012.5 0.357919 1.53482 0
M  V30 10794 C 1013.46 -0.479797 2.24122 0
M  V30 10795 C 1014.46 -1.01596 1.24639 0
M  V30 10796 O 1015.65 -0.902928 1.48973 0
M  V30 10797 C 1012.78 -1.66983 2.97203 0
M  V30 10798 H 1013.98 0.138219 2.99581 0
M  V30 10799 H 1011.53 0.109484 1.55916 0
M  V30 10800 H 1012.26 -2.32615 2.25966 0
M  V30 10801 H 1012.05 -1.29242 3.70188 0
M  V30 10802 H 1013.54 -2.26367 3.50924 0
M  V30 10803 N 1013.98 -1.5736 0.0868897 0
M  V30 10804 C 1015.22 -1.9367 -0.577598 0
M  V30 10805 C 1015.55 -0.968844 -1.69229 0
M  V30 10806 O 1014.82 -0.0195061 -1.9589 0
M  V30 10807 H 1013.4 -0.714983 -0.216353 0
M  V30 10808 H 1016.06 -1.94335 0.148294 0
M  V30 10809 H 1015.15 -2.95877 -0.993128 0
M  V30 10810 N 1015.45 0.186762 -1.56489 0
M  V30 10811 C 1016.38 1.23395 -1.98232 0
M  V30 10812 C 1017.37 1.4702 -0.855526 0
M  V30 10813 O 1018.55 1.58616 -1.12048 0
M  V30 10814 C 1015.68 2.57635 -2.32898 0
M  V30 10815 C 1014.63 2.48607 -3.48394 0
M  V30 10816 C 1013.96 3.87196 -3.68759 0
M  V30 10817 C 1015.26 2.00398 -4.82325 0
M  V30 10818 H 1016.95 0.887026 -2.85958 0
M  V30 10819 H 1014.5 0.42525 -1.37578 0
M  V30 10820 H 1016.45 3.31082 -2.60696 0
M  V30 10821 H 1015.18 2.94084 -1.42064 0
M  V30 10822 H 1013.84 1.77615 -3.207 0
M  V30 10823 H 1013.48 4.21012 -2.75241 0
M  V30 10824 H 1013.18 3.82029 -4.46462 0
M  V30 10825 H 1014.71 4.62253 -3.98941 0
M  V30 10826 H 1016.12 2.6361 -5.091 0
M  V30 10827 H 1014.52 2.06214 -5.63556 0
M  V30 10828 H 1015.59 0.957562 -4.75351 0
M  V30 10829 N 1016.93 1.50896 0.454776 0
M  V30 10830 C 1017.88 1.70947 1.55067 0
M  V30 10831 C 1018.85 0.550899 1.56698 0
M  V30 10832 O 1020.03 0.783352 1.73978 0
M  V30 10833 C 1017.17 1.82455 2.92924 0
M  V30 10834 C 1016.29 3.09919 3.00956 0
M  V30 10835 C 1015.42 3.12125 4.29827 0
M  V30 10836 C 1014.46 4.33975 4.31662 0
M  V30 10837 N 1013.6 4.33828 5.5203 0
M  V30 10838 H 1018.44 2.645 1.37273 0
M  V30 10839 H 1015.98 1.31101 0.667148 0
M  V30 10840 H 1017.93 1.87108 3.72889 0
M  V30 10841 H 1016.56 0.92327 3.09315 0
M  V30 10842 H 1015.62 3.14659 2.13761 0
M  V30 10843 H 1016.93 3.99869 2.98172 0
M  V30 10844 H 1016.08 3.15598 5.18154 0
M  V30 10845 H 1014.82 2.20033 4.35243 0
M  V30 10846 H 1013.83 4.30697 3.41731 0
M  V30 10847 H 1015.05 5.27312 4.27924 0
M  V30 10848 H 1013 3.44598 5.58201 0
M  V30 10849 H 1012.91 5.17566 5.51055 0
M  V30 10850 H 1014.18 4.4147 6.42437 0
M  V30 10851 N 1018.41 -0.709066 1.40748 0
M  V30 10852 C 1019.36 -1.82312 1.4153 0
M  V30 10853 C 1020.33 -1.63868 0.271392 0
M  V30 10854 O 1021.51 -1.8491 0.470431 0
M  V30 10855 C 1018.65 -3.2008 1.29006 0
M  V30 10856 C 1017.77 -3.50051 2.53156 0
M  V30 10857 C 1016.9 -4.7736 2.33025 0
M  V30 10858 C 1015.94 -5.00255 3.52719 0
M  V30 10859 N 1015.08 -6.18782 3.31743 0
M  V30 10860 H 1019.92 -1.80978 2.36751 0
M  V30 10861 H 1017.45 -0.883975 1.17577 0
M  V30 10862 H 1019.41 -3.99645 1.19749 0
M  V30 10863 H 1018.04 -3.20626 0.374014 0
M  V30 10864 H 1017.09 -2.64993 2.72916 0
M  V30 10865 H 1018.41 -3.62877 3.42231 0
M  V30 10866 H 1017.56 -5.64954 2.21159 0
M  V30 10867 H 1016.3 -4.66756 1.41386 0
M  V30 10868 H 1015.3 -4.11114 3.65055 0
M  V30 10869 H 1016.53 -5.12728 4.45295 0
M  V30 10870 H 1014.47 -6.09416 2.42791 0
M  V30 10871 H 1014.39 -6.32313 4.14386 0
M  V30 10872 H 1015.66 -7.09146 3.23623 0
M  V30 10873 N 1019.89 -1.26353 -0.941956 0
M  V30 10874 C 1020.84 -1.07842 -2.04056 0
M  V30 10875 C 1021.81 0.0163064 -1.66092 0
M  V30 10876 O 1022.99 -0.143313 -1.90261 0
M  V30 10877 C 1020.13 -0.716636 -3.37577 0
M  V30 10878 C 1019.24 -1.88754 -3.88582 0
M  V30 10879 C 1018.38 -1.46893 -5.10486 0
M  V30 10880 C 1017.42 -2.60819 -5.53751 0
M  V30 10881 N 1016.56 -2.19646 -6.66858 0
M  V30 10882 H 1021.4 -2.01856 -2.19221 0
M  V30 10883 H 1018.93 -1.00504 -1.07412 0
M  V30 10884 H 1020.89 -0.487768 -4.14339 0
M  V30 10885 H 1019.52 0.18653 -3.22261 0
M  V30 10886 H 1018.57 -2.22936 -3.08227 0
M  V30 10887 H 1019.88 -2.74264 -4.1663 0
M  V30 10888 H 1019.04 -1.20047 -5.94705 0
M  V30 10889 H 1017.78 -0.584721 -4.84182 0
M  V30 10890 H 1016.78 -2.88396 -4.6809 0
M  V30 10891 H 1018.01 -3.49838 -5.82057 0
M  V30 10892 H 1015.95 -1.33657 -6.4224 0
M  V30 10893 H 1015.87 -2.987 -6.94489 0
M  V30 10894 H 1017.14 -1.96009 -7.54454 0
M  V30 10895 N 1021.37 1.14642 -1.08144 0
M  V30 10896 C 1022.31 2.1964 -0.708995 0
M  V30 10897 C 1023.28 1.63303 0.303512 0
M  V30 10898 O 1024.47 1.8987 0.18813 0
M  V30 10899 C 1021.61 3.44886 -0.121585 0
M  V30 10900 C 1020.72 4.15386 -1.18654 0
M  V30 10901 C 1019.86 5.28205 -0.56328 0
M  V30 10902 C 1018.9 5.90534 -1.61046 0
M  V30 10903 N 1018.03 6.94809 -1.00919 0
M  V30 10904 H 1022.87 2.50848 -1.6087 0
M  V30 10905 H 1020.41 1.23185 -0.803975 0
M  V30 10906 H 1022.37 4.16528 0.23668 0
M  V30 10907 H 1021 3.14169 0.741445 0
M  V30 10908 H 1020.05 3.42159 -1.66227 0
M  V30 10909 H 1021.36 4.57809 -1.9802 0
M  V30 10910 H 1020.52 6.06507 -0.153109 0
M  V30 10911 H 1019.26 4.86995 0.262066 0
M  V30 10912 H 1018.26 5.10938 -2.03033 0
M  V30 10913 H 1019.49 6.33819 -2.43824 0
M  V30 10914 H 1017.43 6.5568 -0.204894 0
M  V30 10915 H 1017.35 7.35704 -1.73999 0
M  V30 10916 H 1018.62 7.76992 -0.624792 0
M  V30 10917 N 1022.85 0.866709 1.31628 0
M  V30 10918 C 1024.07 0.48956 2.01539 0
M  V30 10919 C 1024.5 -0.909556 1.64647 0
M  V30 10920 O 1023.85 -1.59959 0.853391 0
M  V30 10921 C 1023.9 0.650176 3.5469 0
M  V30 10922 O 1023.01 -0.311908 4.11219 0
M  V30 10923 H 1022.35 0.195144 0.634677 0
M  V30 10924 H 1024.88 1.16923 1.679 0
M  V30 10925 H 1024.89 0.542236 4.04381 0
M  V30 10926 H 1023.56 1.67038 3.80882 0
M  V30 10927 H 1022.14 -0.159197 3.7256 0
M  V30 10928 N 1024.32 -1.44642 0.625825 0
M  V30 10929 C 1025.57 -2.02393 0.128391 0
M  V30 10930 C 1025.9 -1.49075 -1.2446 0
M  V30 10931 O 1025.18 -0.672684 -1.82497 0
M  V30 10932 C 1025.46 -3.59934 0.109279 0
M  V30 10933 C 1025.31 -4.23546 1.51423 0
M  V30 10934 C 1026.63 -4.36406 -0.568985 0
M  V30 10935 H 1023.75 -0.735427 0.0481299 0
M  V30 10936 H 1026.39 -1.72277 0.801286 0
M  V30 10937 H 1024.54 -3.85722 -0.463726 0
M  V30 10938 H 1026.22 -4.08882 2.13572 0
M  V30 10939 H 1024.46 -3.81245 2.06966 0
M  V30 10940 H 1025.13 -5.32535 1.45294 0
M  V30 10941 H 1027.61 -4.1602 -0.0817516 0
M  V30 10942 H 1026.48 -5.46122 -0.551527 0
M  V30 10943 H 1026.74 -4.1062 -1.6384 0
M  V30 10944 N 1025.8 -0.366053 -1.5329 0
M  V30 10945 C 1027.03 0.224236 -2.05681 0
M  V30 10946 C 1027.44 1.42412 -1.23952 0
M  V30 10947 O 1026.8 1.80334 -0.280309 0
M  V30 10948 C 1026.85 0.617266 -3.56191 0
M  V30 10949 O 1026.57 -0.534931 -4.34822 0
M  V30 10950 C 1028.07 1.26589 -4.24841 0
M  V30 10951 H 1025.29 0.0392928 -0.669849 0
M  V30 10952 H 1027.84 -0.52456 -1.97658 0
M  V30 10953 H 1025.99 1.31598 -3.64364 0
M  V30 10954 H 1026.41 -0.217123 -5.2405 0
M  V30 10955 H 1027.88 1.49146 -5.31469 0
M  V30 10956 H 1028.36 2.22633 -3.78591 0
M  V30 10957 H 1028.96 0.6086 -4.20923 0
M  V30 10958 N 1027.28 1.57312 -0.0952337 0
M  V30 10959 C 1028.53 1.94646 0.569284 0
M  V30 10960 C 1028.86 0.977152 1.67825 0
M  V30 10961 O 1028.13 0.0102318 1.94497 0
M  V30 10962 C 1028.42 3.42098 1.12433 0
M  V30 10963 C 1028.27 4.49795 0.0204016 0
M  V30 10964 C 1029.59 3.90866 2.02266 0
M  V30 10965 H 1026.71 0.707779 0.205469 0
M  V30 10966 H 1029.35 1.89274 -0.16597 0
M  V30 10967 H 1027.5 3.46807 1.75092 0
M  V30 10968 H 1029.17 4.57198 -0.613845 0
M  V30 10969 H 1027.41 4.28964 -0.645965 0
M  V30 10970 H 1028.09 5.50166 0.449579 0
M  V30 10971 H 1030.56 3.88311 1.49512 0
M  V30 10972 H 1029.44 4.94604 2.38029 0
M  V30 10973 H 1029.7 3.30167 2.9401 0
M  V30 10974 N 1028.76 -0.17846 1.56586 0
M  V30 10975 C 1029.69 -1.22342 1.98884 0
M  V30 10976 C 1030.67 -1.46564 0.86331 0
M  V30 10977 O 1031.85 -1.58019 1.12887 0
M  V30 10978 C 1028.98 -2.56396 2.34261 0
M  V30 10979 C 1027.94 -2.46756 3.49708 0
M  V30 10980 C 1027.26 -3.85235 3.70807 0
M  V30 10981 C 1028.56 -1.97838 4.83381 0
M  V30 10982 H 1030.26 -0.871848 2.86425 0
M  V30 10983 H 1027.8 -0.417948 1.37801 0
M  V30 10984 H 1029.76 -3.29695 2.62448 0
M  V30 10985 H 1028.48 -2.93327 1.43621 0
M  V30 10986 H 1027.14 -1.75912 3.21637 0
M  V30 10987 H 1026.79 -4.19547 2.7747 0
M  V30 10988 H 1026.49 -3.79655 4.48481 0
M  V30 10989 H 1028.01 -4.60131 4.01387 0
M  V30 10990 H 1029.43 -2.60906 5.10491 0
M  V30 10991 H 1027.82 -2.03223 5.64642 0
M  V30 10992 H 1028.89 -0.932339 4.75852 0
M  V30 10993 N 1030.24 -1.51135 -0.446768 0
M  V30 10994 C 1031.51 -1.5387 -1.20762 0
M  V30 10995 C 1031.89 -0.297446 -2.08994 0
M  V30 10996 O 1031.24 0.717975 -2.16927 0
M  V30 10997 C 1031.45 -2.84767 -2.01764 0
M  V30 10998 C 1032.8 -3.3636 -2.59128 0
M  V30 10999 O 1033.82 -2.86254 -2.11984 0
M  V30 11000 O 1032.68 -4.23765 -3.45088 0
M  V30 11001 H 1029.78 -0.618228 -0.549293 0
M  V30 11002 H 1032.32 -1.63442 -0.456605 0
M  V30 11003 H 1031.09 -3.6657 -1.36901 0
M  V30 11004 H 1030.72 -2.78313 -2.8395 0
M  V30 11005 N 1031.71 0.701592 -1.41122 0
M  V30 11006 C 1032.96 1.46376 -1.40363 0
M  V30 11007 C 1033.29 1.94197 -0.0105442 0
M  V30 11008 O 1032.57 1.69121 0.960637 0
M  V30 11009 C 1032.85 2.67994 -2.40523 0
M  V30 11010 C 1032.7 2.25977 -3.88914 0
M  V30 11011 C 1034.02 3.70181 -2.38022 0
M  V30 11012 H 1031.14 0.530929 -0.511159 0
M  V30 11013 H 1033.78 0.799588 -1.72356 0
M  V30 11014 H 1031.93 3.24661 -2.13372 0
M  V30 11015 H 1033.61 1.74684 -4.26946 0
M  V30 11016 H 1031.85 1.57826 -4.04071 0
M  V30 11017 H 1032.52 3.13215 -4.54533 0
M  V30 11018 H 1035 3.23174 -2.62103 0
M  V30 11019 H 1033.87 4.52894 -3.10127 0
M  V30 11020 H 1034.13 4.19458 -1.3967 0
M  V30 11021 N 1033.19 1.2685 0.935242 0
M  V30 11022 C 1034.44 1.12522 1.67878 0
M  V30 11023 C 1034.76 -0.330894 1.92172 0
M  V30 11024 O 1034.03 -1.23259 1.52263 0
M  V30 11025 H 1032.61 0.413418 0.622169 0
M  V30 11026 H 1035.27 1.59267 1.12339 0
M  V30 11027 H 1034.37 1.64853 2.65009 0
M  V30 11028 N 1034.67 -1.14067 1.0875 0
M  V30 11029 C 1035.95 -1.81389 0.73195 0
M  V30 11030 C 1036.33 -1.96005 -0.78391 0
M  V30 11031 O 1035.68 -1.52267 -1.70373 0
M  V30 11032 C 1035.89 -3.16858 1.46294 0
M  V30 11033 C 1037.23 -3.92305 1.62426 0
M  V30 11034 O 1038.26 -3.26459 1.42488 0
M  V30 11035 O 1037.12 -5.10393 1.9535 0
M  V30 11036 H 1034.21 -0.784354 0.262141 0
M  V30 11037 H 1036.76 -1.21054 1.18929 0
M  V30 11038 H 1035.53 -3.01404 2.49542 0
M  V30 11039 H 1035.15 -3.84889 0.997318 0
M  V30 11040 N 1036.15 -0.873678 -1.31166 0
M  V30 11041 C 1037.11 -0.337069 -2.26708 0
M  V30 11042 C 1038.11 0.51406 -1.52362 0
M  V30 11043 O 1039.3 0.322834 -1.71182 0
M  V30 11044 C 1036.43 0.520897 -3.36897 0
M  V30 11045 H 1037.63 -1.18056 -2.75686 0
M  V30 11046 H 1035.18 -0.649577 -1.42163 0
M  V30 11047 H 1035.91 1.38543 -2.93217 0
M  V30 11048 H 1035.7 -0.0886015 -3.92 0
M  V30 11049 H 1037.19 0.888497 -4.08039 0
M  V30 11050 N 1037.63 1.44308 -0.633487 0
M  V30 11051 C 1038.86 2.06085 -0.145852 0
M  V30 11052 C 1039.26 1.47432 1.18577 0
M  V30 11053 O 1038.61 0.592575 1.7388 0
M  V30 11054 C 1038.67 3.59477 0.0407848 0
M  V30 11055 C 1038.33 4.40607 -1.21304 0
M  V30 11056 C 1039.33 4.73937 -2.13728 0
M  V30 11057 C 1037.02 4.80943 -1.44911 0
M  V30 11058 C 1039.01 5.46489 -3.28068 0
M  V30 11059 C 1036.7 5.53243 -2.59548 0
M  V30 11060 C 1037.69 5.85936 -3.50953 0
M  V30 11061 O 1037.38 6.56764 -4.6359 0
M  V30 11062 H 1037.11 0.671484 -0.0780085 0
M  V30 11063 H 1039.67 1.86128 -0.868658 0
M  V30 11064 H 1037.9 3.77933 0.818761 0
M  V30 11065 H 1039.59 4.03013 0.483273 0
M  V30 11066 H 1040.35 4.43311 -1.96725 0
M  V30 11067 H 1036.23 4.54915 -0.746537 0
M  V30 11068 H 1039.78 5.71924 -3.99435 0
M  V30 11069 H 1035.67 5.83285 -2.76493 0
M  V30 11070 H 1036.44 6.75234 -4.62602 0
M  V30 11071 N 1039.1 0.374177 1.53094 0
M  V30 11072 C 1040.35 -0.212816 2.01379 0
M  V30 11073 C 1040.68 -1.48069 1.26118 0
M  V30 11074 O 1039.93 -1.92625 0.345561 0
M  V30 11075 C 1040.23 -0.542179 3.53264 0
M  V30 11076 C 1039.9 0.632375 4.46444 0
M  V30 11077 C 1038.56 0.954635 4.71636 0
M  V30 11078 C 1040.91 1.41887 5.01515 0
M  V30 11079 C 1038.24 2.06521 5.4915 0
M  V30 11080 C 1040.59 2.51993 5.80243 0
M  V30 11081 C 1039.26 2.84744 6.03719 0
M  V30 11082 H 1038.53 -0.0778749 0.736897 0
M  V30 11083 H 1041.17 0.508412 1.84628 0
M  V30 11084 H 1039.48 -1.34454 3.68007 0
M  V30 11085 H 1041.18 -1.00874 3.88105 0
M  V30 11086 H 1037.77 0.371179 4.2699 0
M  V30 11087 H 1041.95 1.18315 4.81991 0
M  V30 11088 H 1037.21 2.32284 5.65557 0
M  V30 11089 H 1041.38 3.13346 6.21922 0
M  V30 11090 H 1039.01 3.70921 6.63568 0
M  V30 11091 N 1040.58 -1.57259 0.103575 0
M  V30 11092 C 1041.81 -1.99424 -0.569638 0
M  V30 11093 C 1042.23 -0.982475 -1.60403 0
M  V30 11094 O 1041.59 0.0479231 -1.81237 0
M  V30 11095 C 1041.64 -3.40527 -1.18633 0
M  V30 11096 O 1040.74 -3.42167 -2.30208 0
M  V30 11097 H 1040.08 -0.648251 -0.143759 0
M  V30 11098 H 1042.61 -2.03739 0.187493 0
M  V30 11099 H 1042.62 -3.78404 -1.5256 0
M  V30 11100 H 1041.3 -4.13686 -0.428582 0
M  V30 11101 H 1039.88 -3.16093 -1.97837 0
M  V30 11102 N 1042.06 0.170153 -1.56679 0
M  V30 11103 C 1043.31 0.887906 -1.8233 0
M  V30 11104 C 1043.64 1.81845 -0.681608 0
M  V30 11105 O 1042.91 1.9191 0.316362 0
M  V30 11106 C 1043.2 1.68256 -3.18374 0
M  V30 11107 C 1043.05 0.775059 -4.43072 0
M  V30 11108 C 1044.37 2.65001 -3.51372 0
M  V30 11109 H 1041.49 0.32135 -0.663252 0
M  V30 11110 H 1044.13 0.154065 -1.89374 0
M  V30 11111 H 1042.28 2.30817 -3.12499 0
M  V30 11112 H 1043.95 0.162234 -4.61015 0
M  V30 11113 H 1042.2 0.0831809 -4.3372 0
M  V30 11114 H 1042.87 1.36661 -5.34816 0
M  V30 11115 H 1045.34 2.12566 -3.57708 0
M  V30 11116 H 1044.22 3.17667 -4.47637 0
M  V30 11117 H 1044.48 3.45255 -2.76136 0
M  V30 11118 N 1043.54 1.5137 0.438746 0
M  V30 11119 C 1044.95 1.56462 1.01866 0
M  V30 11120 C 1045.3 0.387244 1.9234 0
M  V30 11121 O 1044.43 -0.496131 2.10636 0
M  V30 11122 C 1045.02 2.83557 1.85421 0
M  V30 11123 C 1043.58 2.91224 2.38464 0
M  V30 11124 C 1042.73 2.51109 1.17641 0
M  V30 11125 H 1045.68 1.57167 0.220072 0
M  V30 11126 H 1045.7 2.6724 2.70857 0
M  V30 11127 H 1045.21 3.69229 1.19546 0
M  V30 11128 H 1043.31 2.09979 3.07798 0
M  V30 11129 H 1043.42 3.94844 2.71358 0
M  V30 11130 H 1041.79 2.04276 1.5213 0
M  V30 11131 H 1042.57 3.39125 0.533785 0
M  V30 11132 N 1045.02 -0.694098 1.41492 0
M  V30 11133 C 1045.95 -1.82042 1.46229 0
M  V30 11134 C 1046.93 -1.67047 0.320803 0
M  V30 11135 O 1048.11 -1.86758 0.53245 0
M  V30 11136 C 1045.24 -3.2019 1.34519 0
M  V30 11137 C 1044.2 -3.49892 2.46495 0
M  V30 11138 C 1043.52 -4.87411 2.1985 0
M  V30 11139 C 1044.82 -3.4872 3.88834 0
M  V30 11140 H 1046.52 -1.78335 2.40493 0
M  V30 11141 H 1044.06 -0.856566 1.15754 0
M  V30 11142 H 1046.02 -3.98699 1.36445 0
M  V30 11143 H 1044.74 -3.24527 0.367406 0
M  V30 11144 H 1043.4 -2.73734 2.43854 0
M  V30 11145 H 1043.05 -4.88375 1.20411 0
M  V30 11146 H 1042.75 -5.08248 2.94885 0
M  V30 11147 H 1044.27 -5.68228 2.23494 0
M  V30 11148 H 1045.68 -4.1723 3.93182 0
M  V30 11149 H 1044.08 -3.81089 4.63564 0
M  V30 11150 H 1045.15 -2.47665 4.16881 0
M  V30 11151 N 1046.49 -1.27344 -0.928501 0
M  V30 11152 C 1047.77 -1.04362 -1.65433 0
M  V30 11153 C 1048.15 0.421896 -2.06841 0
M  V30 11154 O 1047.5 1.40496 -1.80203 0
M  V30 11155 C 1047.71 -2.00442 -2.85699 0
M  V30 11156 C 1049.06 -2.29767 -3.57061 0
M  V30 11157 O 1050.08 -1.98409 -2.95825 0
M  V30 11158 O 1048.94 -2.83217 -4.67387 0
M  V30 11159 H 1046.03 -0.397783 -0.72505 0
M  V30 11160 H 1048.58 -1.38606 -0.979109 0
M  V30 11161 H 1047.35 -2.99281 -2.52085 0
M  V30 11162 H 1046.98 -1.66755 -3.60941 0
M  V30 11163 N 1047.97 1.13488 -1.09353 0
M  V30 11164 C 1048.92 2.18876 -0.732251 0
M  V30 11165 C 1049.89 1.63616 0.286175 0
M  V30 11166 O 1051.07 1.90059 0.167981 0
M  V30 11167 C 1048.21 3.44737 -0.158157 0
M  V30 11168 C 1047.33 4.14104 -1.23053 0
M  V30 11169 C 1046.46 5.27578 -0.619272 0
M  V30 11170 C 1045.5 5.88793 -1.67301 0
M  V30 11171 N 1044.64 6.937 -1.08283 0
M  V30 11172 H 1049.48 2.49128 -1.63522 0
M  V30 11173 H 1047.02 1.22326 -0.816995 0
M  V30 11174 H 1048.97 4.16756 0.192488 0
M  V30 11175 H 1047.6 3.14938 0.708082 0
M  V30 11176 H 1046.66 3.40376 -1.69847 0
M  V30 11177 H 1047.97 4.55683 -2.02865 0
M  V30 11178 H 1047.12 6.0631 -0.217428 0
M  V30 11179 H 1045.86 4.87246 0.210399 0
M  V30 11180 H 1044.87 5.08756 -2.0844 0
M  V30 11181 H 1046.09 6.31197 -2.50533 0
M  V30 11182 H 1044.04 6.55426 -0.274426 0
M  V30 11183 H 1043.95 7.33817 -1.81792 0
M  V30 11184 H 1045.22 7.76286 -0.707167 0
M  V30 11185 N 1049.45 0.880621 1.30701 0
M  V30 11186 C 1050.73 0.41712 1.91101 0
M  V30 11187 C 1051.11 -1.10177 1.80067 0
M  V30 11188 O 1050.46 -1.93513 1.21511 0
M  V30 11189 C 1050.67 0.910364 3.36917 0
M  V30 11190 C 1052.01 0.942764 4.14001 0
M  V30 11191 O 1053.04 0.856733 3.45743 0
M  V30 11192 O 1051.9 1.06913 5.3594 0
M  V30 11193 H 1048.99 0.126775 0.817225 0
M  V30 11194 H 1051.54 0.969236 1.39298 0
M  V30 11195 H 1050.31 1.95414 3.39012 0
M  V30 11196 H 1049.93 0.337164 3.96168 0
M  V30 11197 N 1050.93 -1.4397 0.641131 0
M  V30 11198 C 1052.18 -2.01946 0.149629 0
M  V30 11199 C 1052.5 -1.50496 -1.23212 0
M  V30 11200 O 1051.76 -0.683453 -1.83378 0
M  V30 11201 C 1052.06 -3.5727 0.0963368 0
M  V30 11202 C 1051.72 -4.28016 1.4182 0
M  V30 11203 C 1050.39 -4.47059 1.78021 0
M  V30 11204 C 1052.74 -4.68183 2.29028 0
M  V30 11205 C 1050.07 -5.03532 3.01119 0
M  V30 11206 C 1052.42 -5.26019 3.51406 0
M  V30 11207 C 1051.08 -5.4328 3.87818 0
M  V30 11208 H 1050.35 -0.738974 0.0547531 0
M  V30 11209 H 1053 -1.72605 0.829436 0
M  V30 11210 H 1051.3 -3.86083 -0.666879 0
M  V30 11211 H 1053 -3.99871 -0.300635 0
M  V30 11212 H 1049.59 -4.13531 1.12651 0
M  V30 11213 H 1053.78 -4.53175 2.02353 0
M  V30 11214 H 1049.03 -5.15082 3.29395 0
M  V30 11215 H 1053.21 -5.56092 4.19208 0
M  V30 11216 H 1050.83 -5.86805 4.83284 0
M  V30 11217 N 1052.41 -0.382291 -1.52893 0
M  V30 11218 C 1053.82 -0.031941 -1.59568 0
M  V30 11219 C 1054.02 1.45245 -1.39664 0
M  V30 11220 O 1053.08 2.21612 -1.21013 0
M  V30 11221 C 1054.39 -0.502846 -2.96466 0
M  V30 11222 C 1055.94 -0.4585 -3.09624 0
M  V30 11223 C 1056.42 -0.905481 -4.4896 0
M  V30 11224 N 1057.91 -0.861211 -4.55124 0
M  V30 11225 C 1058.64 -1.17856 -5.61157 0
M  V30 11226 N 1058.14 -1.56603 -6.74868 0
M  V30 11227 N 1059.93 -1.10027 -5.51226 0
M  V30 11228 H 1052.08 -1.34875 -1.64081 0
M  V30 11229 H 1054.34 -0.552375 -0.770446 0
M  V30 11230 H 1054.05 -1.53931 -3.16225 0
M  V30 11231 H 1053.92 0.101777 -3.77063 0
M  V30 11232 H 1056.31 0.568868 -2.89565 0
M  V30 11233 H 1056.39 -1.09884 -2.30996 0
M  V30 11234 H 1056.04 -1.93105 -4.69759 0
M  V30 11235 H 1055.97 -0.242227 -5.26043 0
M  V30 11236 H 1058.46 -0.575988 -3.73485 0
M  V30 11237 H 1058.77 -1.792 -7.51736 0
M  V30 11238 H 1057.12 -1.60484 -6.76217 0
M  V30 11239 H 1060.31 -0.796623 -4.61272 0
M  V30 11240 H 1060.48 -1.35091 -6.33762 0
M  V30 11241 N 1053.89 1.57202 -0.111913 0
M  V30 11242 C 1054.83 2.14936 0.840908 0
M  V30 11243 C 1055.8 1.07242 1.2684 0
M  V30 11244 O 1056.99 1.35114 1.34718 0
M  V30 11245 C 1054.13 2.74743 2.0883 0
M  V30 11246 C 1053.24 3.96723 1.70982 0
M  V30 11247 C 1052.38 4.4464 2.90634 0
M  V30 11248 C 1051.41 5.59169 2.48992 0
M  V30 11249 N 1050.55 6.01862 3.61534 0
M  V30 11250 H 1055.39 2.96034 0.341735 0
M  V30 11251 H 1052.93 1.4626 0.156993 0
M  V30 11252 H 1054.89 3.07546 2.81907 0
M  V30 11253 H 1053.52 1.96346 2.56218 0
M  V30 11254 H 1052.57 3.70127 0.878072 0
M  V30 11255 H 1053.88 4.79795 1.36373 0
M  V30 11256 H 1053.03 4.79315 3.71944 0
M  V30 11257 H 1051.77 3.60503 3.28464 0
M  V30 11258 H 1050.78 5.24106 1.66113 0
M  V30 11259 H 1052 6.45067 2.12287 0
M  V30 11260 H 1049.95 5.20667 3.99051 0
M  V30 11261 H 1049.87 6.79772 3.30827 0
M  V30 11262 H 1051.13 6.41172 4.43305 0
M  V30 11263 N 1055.36 -0.161842 1.56767 0
M  V30 11264 C 1056.59 -0.890953 1.86402 0
M  V30 11265 C 1057 -1.75918 0.696373 0
M  V30 11266 O 1056.34 -1.80461 -0.343463 0
M  V30 11267 C 1056.41 -1.81079 3.10565 0
M  V30 11268 C 1056.07 -1.12121 4.43032 0
M  V30 11269 C 1057.07 -0.482152 5.17659 0
M  V30 11270 C 1054.75 -1.11514 4.89765 0
M  V30 11271 C 1056.75 0.153772 6.37214 0
M  V30 11272 C 1054.43 -0.4754 6.09248 0
M  V30 11273 C 1055.43 0.157944 6.82817 0
M  V30 11274 O 1055.12 0.787579 8.00033 0
M  V30 11275 H 1054.85 -0.26379 0.622407 0
M  V30 11276 H 1057.41 -0.163884 2.04745 0
M  V30 11277 H 1055.64 -2.57842 2.88192 0
M  V30 11278 H 1057.32 -2.41056 3.26568 0
M  V30 11279 H 1058.09 -0.478752 4.82631 0
M  V30 11280 H 1053.97 -1.59752 4.32435 0
M  V30 11281 H 1057.51 0.648716 6.94577 0
M  V30 11282 H 1053.41 -0.476416 6.43739 0
M  V30 11283 H 1054.18 0.687769 8.15605 0
M  V30 11284 N 1056.84 -1.516 -0.430713 0
M  V30 11285 C 1058.07 -1.68414 -1.20185 0
M  V30 11286 C 1058.48 -0.384297 -1.84847 0
M  V30 11287 O 1057.84 0.637808 -1.70992 0
M  V30 11288 C 1057.89 -2.80451 -2.28099 0
M  V30 11289 O 1057.61 -4.05399 -1.66081 0
M  V30 11290 C 1059.11 -3.0859 -3.18256 0
M  V30 11291 H 1056.33 -0.564982 -0.361989 0
M  V30 11292 H 1058.88 -1.9805 -0.50954 0
M  V30 11293 H 1057.03 -2.53395 -2.93036 0
M  V30 11294 H 1057.45 -4.67671 -2.37453 0
M  V30 11295 H 1058.92 -3.9055 -3.90096 0
M  V30 11296 H 1059.4 -2.21264 -3.79393 0
M  V30 11297 H 1060 -3.37331 -2.59014 0
M  V30 11298 N 1058.32 0.686584 -1.41858 0
M  V30 11299 C 1059.28 1.78214 -1.44126 0
M  V30 11300 C 1060.28 1.57366 -0.330541 0
M  V30 11301 O 1061.47 1.63874 -0.590837 0
M  V30 11302 C 1058.6 3.16704 -1.26142 0
M  V30 11303 H 1059.8 1.77594 -2.41661 0
M  V30 11304 H 1057.35 0.895085 -1.28132 0
M  V30 11305 H 1058.09 3.22957 -0.294823 0
M  V30 11306 H 1057.87 3.33238 -2.06627 0
M  V30 11307 H 1059.36 3.96658 -1.30584 0
M  V30 11308 N 1059.8 1.27835 0.921735 0
M  V30 11309 C 1061.04 1.14523 1.67005 0
M  V30 11310 C 1061.37 -0.307776 1.92049 0
M  V30 11311 O 1060.63 -1.24103 1.51317 0
M  V30 11312 C 1060.93 1.88054 3.03925 0
M  V30 11313 C 1060.59 3.37886 2.9857 0
M  V30 11314 C 1059.25 3.78752 2.96817 0
M  V30 11315 C 1061.61 4.33462 2.89414 0
M  V30 11316 C 1058.93 5.13549 2.83698 0
M  V30 11317 C 1061.29 5.68322 2.77836 0
M  V30 11318 C 1059.95 6.08475 2.74436 0
M  V30 11319 H 1059.22 0.419068 0.611116 0
M  V30 11320 H 1061.87 1.58515 1.07449 0
M  V30 11321 H 1060.17 1.36587 3.67221 0
M  V30 11322 H 1061.87 1.75176 3.60714 0
M  V30 11323 H 1058.46 3.05389 3.00725 0
M  V30 11324 H 1062.64 4.02857 2.89862 0
M  V30 11325 H 1057.9 5.43796 2.79456 0
M  V30 11326 H 1062.07 6.42048 2.69717 0
M  V30 11327 H 1059.7 7.12877 2.64027 0
M  V30 11328 N 1061.28 -1.12907 1.09954 0
M  V30 11329 C 1062.5 -1.88138 0.860905 0
M  V30 11330 C 1062.92 -1.79402 -0.588256 0
M  V30 11331 O 1062.28 -1.16442 -1.40526 0
M  V30 11332 C 1062.33 -3.37537 1.29425 0
M  V30 11333 O 1062.05 -3.46056 2.68658 0
M  V30 11334 C 1063.55 -4.29721 1.08879 0
M  V30 11335 H 1060.77 -0.595437 0.309347 0
M  V30 11336 H 1063.31 -1.42894 1.46292 0
M  V30 11337 H 1061.47 -3.80344 0.736009 0
M  V30 11338 H 1061.88 -4.38969 2.87065 0
M  V30 11339 H 1063.36 -5.32854 1.4412 0
M  V30 11340 H 1063.83 -4.39192 0.0270053 0
M  V30 11341 H 1064.44 -3.9269 1.63325 0
M  V30 11342 N 1062.75 -0.88754 -1.30232 0
M  V30 11343 C 1064 -0.503322 -1.95319 0
M  V30 11344 C 1064.32 0.952817 -1.70824 0
M  V30 11345 O 1065.52 1.444 -2.29915 0
M  V30 11346 C 1063.98 -0.849216 -3.49738 0
M  V30 11347 C 1063.59 -2.3233 -3.83049 0
M  V30 11348 C 1065.33 -0.53432 -4.21124 0
M  V30 11349 C 1063.24 -2.61069 -5.30657 0
M  V30 11350 H 1062.17 -0.1845 -0.731078 0
M  V30 11351 H 1064.82 -1.08287 -1.48143 0
M  V30 11352 H 1063.2 -0.198729 -3.95501 0
M  V30 11353 H 1064.37 -3.01832 -3.48187 0
M  V30 11354 H 1062.69 -2.60599 -3.24773 0
M  V30 11355 H 1065.29 -0.726039 -5.29748 0
M  V30 11356 H 1065.63 0.526434 -4.12958 0
M  V30 11357 H 1066.16 -1.14211 -3.81052 0
M  V30 11358 H 1062.9 -3.65895 -5.43876 0
M  V30 11359 H 1062.42 -1.96179 -5.6681 0
M  V30 11360 H 1064.1 -2.46703 -5.98119 0
M  V30 11361 N 1064.23 1.43628 -0.648757 0
M  V30 11362 C 1065.64 1.85142 -0.24066 0
M  V30 11363 C 1065.99 1.54304 1.21181 0
M  V30 11364 O 1065.12 0.989792 1.92437 0
M  V30 11365 C 1065.71 3.3606 -0.429999 0
M  V30 11366 C 1064.27 3.76323 -0.0762588 0
M  V30 11367 C 1063.42 2.67382 -0.734999 0
M  V30 11368 H 1066.37 1.33844 -0.852734 0
M  V30 11369 H 1066.39 3.79102 0.325836 0
M  V30 11370 H 1065.9 3.58474 -1.48721 0
M  V30 11371 H 1064.01 3.59521 0.978529 0
M  V30 11372 H 1064.12 4.76498 -0.498612 0
M  V30 11373 H 1062.48 2.54141 -0.168644 0
M  V30 11374 H 1063.27 2.92625 -1.79515 0
M  V30 11375 N 1065.71 0.390394 1.52688 0
M  V30 11376 C 1066.94 -0.194013 2.06491 0
M  V30 11377 C 1067.36 -1.3965 1.26014 0
M  V30 11378 O 1066.72 -1.79038 0.285468 0
M  V30 11379 C 1066.77 -0.541306 3.56514 0
M  V30 11380 O 1065.87 -1.63509 3.78601 0
M  V30 11381 H 1065.21 -0.0223608 0.663623 0
M  V30 11382 H 1067.74 0.558179 1.96839 0
M  V30 11383 H 1067.75 -0.805301 3.99974 0
M  V30 11384 H 1066.43 0.337828 4.14526 0
M  V30 11385 H 1065 -1.36473 3.4703 0
M  V30 11386 N 1067.19 -1.57141 0.120249 0
M  V30 11387 C 1068.44 -1.94413 -0.53727 0
M  V30 11388 C 1068.75 -1.00594 -1.67751 0
M  V30 11389 O 1069.96 -1.27336 -2.39787 0
M  V30 11390 C 1068.41 -3.45521 -1.00714 0
M  V30 11391 C 1068.02 -4.47878 0.104706 0
M  V30 11392 C 1069.76 -3.9171 -1.63596 0
M  V30 11393 C 1067.67 -5.90165 -0.381932 0
M  V30 11394 H 1066.6 -0.725745 -0.204475 0
M  V30 11395 H 1069.25 -1.82404 0.200302 0
M  V30 11396 H 1067.63 -3.52769 -1.79917 0
M  V30 11397 H 1068.81 -4.523 0.881002 0
M  V30 11398 H 1067.12 -4.11448 0.640264 0
M  V30 11399 H 1069.72 -4.95433 -2.01122 0
M  V30 11400 H 1070.06 -3.31756 -2.51483 0
M  V30 11401 H 1070.6 -3.87268 -0.909319 0
M  V30 11402 H 1067.34 -6.53877 0.460921 0
M  V30 11403 H 1066.86 -5.89161 -1.12468 0
M  V30 11404 H 1068.53 -6.41488 -0.842748 0
M  V30 11405 N 1068.67 0.153526 -1.5685 0
M  V30 11406 C 1069.61 1.20896 -1.98713 0
M  V30 11407 C 1070.61 1.44839 -0.878529 0
M  V30 11408 O 1071.81 1.45208 -1.0637 0
M  V30 11409 H 1068.19 0.406797 -0.632472 0
M  V30 11410 H 1070.16 0.829145 -2.86649 0
M  V30 11411 C 1068.91 2.53642 -2.37825 0
M  V30 11412 H 1068.23 2.36047 -3.22679 0
M  V30 11413 H 1069.67 3.26136 -2.70946 0
M  V30 11414 C 1068.13 3.13706 -1.22841 0
M  V30 11415 O 1068.66 3.98246 -0.525626 0
M  V30 11416 N 1066.87 2.73059 -0.99435 0
M  V30 11417 H 1066.41 2.0441 -1.56761 0
M  V30 11418 H 1066.37 3.1358 -0.226883 0
M  V30 11419 N 1070.14 1.51827 0.422667 0
M  V30 11420 C 1071.09 1.74791 1.53463 0
M  V30 11421 C 1072.09 0.614602 1.57858 0
M  V30 11422 O 1073.29 0.796336 1.61426 0
M  V30 11423 H 1069.67 0.552524 0.510118 0
M  V30 11424 H 1071.64 2.67974 1.31273 0
M  V30 11425 C 1070.39 1.90339 2.90975 0
M  V30 11426 H 1069.71 2.76958 2.8833 0
M  V30 11427 H 1071.15 2.10413 3.68106 0
M  V30 11428 C 1069.61 0.66695 3.30232 0
M  V30 11429 O 1070.14 -0.171542 4.01334 0
M  V30 11430 N 1068.35 0.506768 2.86147 0
M  V30 11431 H 1067.89 1.19019 2.28456 0
M  V30 11432 H 1067.85 -0.319247 3.12775 0
M  V30 11433 N 1071.62 -0.679052 1.4222 0
M  V30 11434 C 1072.53 -1.82221 1.47759 0
M  V30 11435 C 1073.55 -1.70092 0.3667 0
M  V30 11436 O 1074.72 -1.91718 0.616957 0
M  V30 11437 C 1071.79 -3.18332 1.37351 0
M  V30 11438 C 1070.85 -3.42449 2.58896 0
M  V30 11439 C 1070.08 -4.72067 2.48976 0
M  V30 11440 O 1070.31 -5.49683 1.5233 0
M  V30 11441 O 1069.24 -4.97333 3.39033 0
M  V30 11442 H 1073.07 -1.80504 2.44238 0
M  V30 11443 H 1070.65 -0.834251 1.23938 0
M  V30 11444 H 1072.53 -3.99563 1.33893 0
M  V30 11445 H 1071.21 -3.20696 0.439965 0
M  V30 11446 H 1070.12 -2.61083 2.6793 0
M  V30 11447 H 1071.45 -3.44912 3.51136 0
M  V30 11448 N 1073.1 -1.28322 -0.914942 0
M  V30 11449 C 1074.33 -1.18254 -1.69775 0
M  V30 11450 C 1074.74 0.258978 -1.87015 0
M  V30 11451 O 1074.1 1.17514 -1.3963 0
M  V30 11452 C 1074.15 -1.8753 -3.09054 0
M  V30 11453 O 1073.87 -3.26051 -2.92613 0
M  V30 11454 C 1075.37 -1.83749 -4.03424 0
M  V30 11455 H 1072.59 -0.41055 -0.530744 0
M  V30 11456 H 1075.14 -1.69425 -1.14523 0
M  V30 11457 H 1073.29 -1.40233 -3.61128 0
M  V30 11458 H 1073.71 -3.60729 -3.80756 0
M  V30 11459 H 1075.18 -2.36813 -4.98622 0
M  V30 11460 H 1075.66 -0.809601 -4.31674 0
M  V30 11461 H 1076.26 -2.3072 -3.57279 0
M  V30 11462 N 1074.58 1.12322 -1.10551 0
M  V30 11463 C 1075.99 1.6539 -0.8662 0
M  V30 11464 C 1076.34 1.86695 0.603284 0
M  V30 11465 O 1075.47 1.59432 1.46323 0
M  V30 11466 C 1076.06 3.00443 -1.56587 0
M  V30 11467 C 1074.62 3.50456 -1.37323 0
M  V30 11468 C 1073.77 2.25454 -1.61449 0
M  V30 11469 H 1076.72 0.960866 -1.26305 0
M  V30 11470 H 1076.74 3.66972 -1.00557 0
M  V30 11471 H 1076.25 2.84905 -2.63535 0
M  V30 11472 H 1074.35 3.71176 -0.325431 0
M  V30 11473 H 1074.46 4.29839 -2.11601 0
M  V30 11474 H 1072.83 2.32621 -1.03729 0
M  V30 11475 H 1073.61 2.12469 -2.69651 0
M  V30 11476 N 1076.06 0.894434 1.2976 0
M  V30 11477 C 1077.3 0.516646 1.95385 0
M  V30 11478 C 1077.63 -0.939141 1.70895 0
M  V30 11479 O 1076.9 -1.66153 1.03778 0
M  V30 11480 H 1075.48 0.188072 0.722937 0
M  V30 11481 H 1078.14 1.13958 1.58113 0
M  V30 11482 H 1077.23 0.694819 3.04267 0
M  V30 11483 N 1077.53 -1.43282 0.656365 0
M  V30 11484 C 1078.78 -2.00996 0.168354 0
M  V30 11485 C 1079.1 -1.52408 -1.22601 0
M  V30 11486 O 1080.3 -2.02417 -1.80941 0
M  V30 11487 C 1078.76 -3.5903 0.250161 0
M  V30 11488 C 1078.37 -4.1661 1.64742 0
M  V30 11489 C 1080.11 -4.24118 -0.180084 0
M  V30 11490 C 1078.02 -5.66948 1.68299 0
M  V30 11491 H 1076.95 -0.751674 0.0591769 0
M  V30 11492 H 1079.6 -1.64216 0.818859 0
M  V30 11493 H 1077.98 -3.93226 -0.467908 0
M  V30 11494 H 1079.15 -3.93908 2.3911 0
M  V30 11495 H 1077.47 -3.63905 2.02391 0
M  V30 11496 H 1080.07 -5.34419 -0.173401 0
M  V30 11497 H 1080.41 -3.98264 -1.21208 0
M  V30 11498 H 1080.94 -3.94816 0.486343 0
M  V30 11499 H 1077.68 -5.97573 2.69419 0
M  V30 11500 H 1077.2 -5.91697 0.98261 0
M  V30 11501 H 1078.88 -6.31041 1.42813 0
M  V30 11502 N 1079.01 -0.398486 -1.52479 0
M  V30 11503 C 1080.43 -0.0488635 -1.59525 0
M  V30 11504 C 1080.63 1.43756 -1.41197 0
M  V30 11505 O 1079.69 2.20317 -1.23357 0
M  V30 11506 C 1081 -0.534262 -2.95916 0
M  V30 11507 C 1082.55 -0.491314 -3.0912 0
M  V30 11508 C 1083.02 -0.953049 -4.47974 0
M  V30 11509 N 1084.51 -0.909434 -4.54184 0
M  V30 11510 C 1085.25 -1.23801 -5.59876 0
M  V30 11511 N 1084.74 -1.63752 -6.73169 0
M  V30 11512 N 1086.54 -1.15867 -5.50028 0
M  V30 11513 H 1078.69 -1.36608 -1.62641 0
M  V30 11514 H 1080.95 -0.560515 -0.764544 0
M  V30 11515 H 1080.66 -1.57277 -3.14574 0
M  V30 11516 H 1080.53 0.0617787 -3.77149 0
M  V30 11517 H 1082.92 0.538123 -2.90152 0
M  V30 11518 H 1083 -1.12327 -2.29818 0
M  V30 11519 H 1082.64 -1.98076 -4.67684 0
M  V30 11520 H 1082.57 -0.298007 -5.25756 0
M  V30 11521 H 1085.06 -0.615569 -3.72853 0
M  V30 11522 H 1085.38 -1.87163 -7.49793 0
M  V30 11523 H 1083.72 -1.67647 -6.74477 0
M  V30 11524 H 1086.91 -0.845502 -4.60401 0
M  V30 11525 H 1087.09 -1.41805 -6.32294 0
M  V30 11526 N 1080.49 1.57075 -0.12858 0
M  V30 11527 C 1081.72 1.99586 0.533769 0
M  V30 11528 C 1082.13 1.00737 1.60152 0
M  V30 11529 O 1081.47 -0.00647783 1.83699 0
M  V30 11530 C 1081.53 3.3852 1.21014 0
M  V30 11531 C 1081.2 4.56084 0.289191 0
M  V30 11532 C 1082.2 5.17717 -0.475963 0
M  V30 11533 C 1079.88 5.01912 0.197467 0
M  V30 11534 C 1081.87 6.23572 -1.32048 0
M  V30 11535 C 1079.56 6.07626 -0.65067 0
M  V30 11536 C 1080.56 6.68324 -1.40826 0
M  V30 11537 O 1080.25 7.71995 -2.2423 0
M  V30 11538 H 1079.98 0.660245 0.145096 0
M  V30 11539 H 1082.53 2.04276 -0.214615 0
M  V30 11540 H 1080.76 3.30613 2.00579 0
M  V30 11541 H 1082.45 3.65258 1.77036 0
M  V30 11542 H 1083.22 4.83221 -0.415027 0
M  V30 11543 H 1079.1 4.54407 0.776853 0
M  V30 11544 H 1082.64 6.70878 -1.91228 0
M  V30 11545 H 1078.54 6.41551 -0.712965 0
M  V30 11546 H 1079.31 7.89135 -2.17276 0
M  V30 11547 N 1081.97 -0.145205 1.5693 0
M  V30 11548 C 1082.9 -1.20438 1.95006 0
M  V30 11549 C 1083.91 -1.39085 0.846114 0
M  V30 11550 O 1085.1 -1.38625 1.12452 0
M  V30 11551 C 1082.2 -2.56892 2.21043 0
M  V30 11552 C 1081.38 -2.59197 3.52329 0
M  V30 11553 C 1080.44 -3.77204 3.66884 0
M  V30 11554 O 1079.46 -3.61995 4.39259 0
M  V30 11555 N 1080.66 -4.9473 3.03682 0
M  V30 11556 H 1083.43 -0.880709 2.86467 0
M  V30 11557 H 1080.99 -0.334751 1.58401 0
M  V30 11558 H 1082.98 -3.34349 2.2802 0
M  V30 11559 H 1081.55 -2.81544 1.35838 0
M  V30 11560 H 1080.77 -1.67644 3.56776 0
M  V30 11561 H 1082.06 -2.57771 4.3867 0
M  V30 11562 H 1081.46 -5.09989 2.44801 0
M  V30 11563 H 1080.01 -5.69956 3.16218 0
M  V30 11564 N 1083.45 -1.52049 -0.414609 0
M  V30 11565 C 1084.68 -1.69433 -1.18221 0
M  V30 11566 C 1085.09 -0.40104 -1.84901 0
M  V30 11567 O 1084.43 0.632342 -1.72474 0
M  V30 11568 C 1084.49 -2.76986 -2.2917 0
M  V30 11569 C 1084.15 -4.18903 -1.82671 0
M  V30 11570 C 1085.15 -5.02929 -1.31751 0
M  V30 11571 C 1082.84 -4.65113 -1.89672 0
M  V30 11572 C 1084.83 -6.31234 -0.884461 0
M  V30 11573 C 1082.52 -5.93408 -1.45978 0
M  V30 11574 C 1083.52 -6.76297 -0.9545 0
M  V30 11575 O 1083.2 -8.02191 -0.523852 0
M  V30 11576 H 1082.94 -0.571228 -0.36149 0
M  V30 11577 H 1085.49 -1.99355 -0.494643 0
M  V30 11578 H 1083.72 -2.42428 -3.01273 0
M  V30 11579 H 1085.41 -2.83023 -2.90951 0
M  V30 11580 H 1086.17 -4.68422 -1.2572 0
M  V30 11581 H 1082.05 -4.00702 -2.27945 0
M  V30 11582 H 1085.6 -6.95881 -0.489383 0
M  V30 11583 H 1081.49 -6.27424 -1.51687 0
M  V30 11584 H 1082.26 -8.15934 -0.647656 0
M  V30 11585 N 1084.93 0.6715 -1.42579 0
M  V30 11586 C 1085.87 1.80623 -1.46554 0
M  V30 11587 C 1086.87 1.65934 -0.340932 0
M  V30 11588 O 1088.07 1.72502 -0.514098 0
M  V30 11589 H 1084.45 0.595619 -0.459067 0
M  V30 11590 H 1086.42 1.74388 -2.42139 0
M  V30 11591 C 1085.17 3.18794 -1.38801 0
M  V30 11592 H 1084.49 3.30725 -2.24635 0
M  V30 11593 H 1085.93 3.98201 -1.45645 0
M  V30 11594 C 1084.39 3.36742 -0.103219 0
M  V30 11595 O 1084.92 3.92761 0.842715 0
M  V30 11596 N 1083.13 2.90594 -0.0193034 0
M  V30 11597 H 1082.67 2.45192 -0.78986 0
M  V30 11598 H 1082.63 3.0298 0.839686 0
M  V30 11599 N 1086.4 1.28806 0.908124 0
M  V30 11600 C 1087.65 1.1646 1.66027 0
M  V30 11601 C 1087.98 -0.285025 1.92097 0
M  V30 11602 O 1087.26 -1.20675 1.52538 0
M  V30 11603 C 1087.54 1.96951 3.01467 0
M  V30 11604 C 1087.39 3.50007 2.82515 0
M  V30 11605 C 1088.71 1.78932 4.02084 0
M  V30 11606 H 1085.83 0.424435 0.602515 0
M  V30 11607 H 1088.47 1.58185 1.0525 0
M  V30 11608 H 1086.62 1.61495 3.53344 0
M  V30 11609 H 1088.3 3.95401 2.37605 0
M  V30 11610 H 1086.54 3.75356 2.17463 0
M  V30 11611 H 1087.21 4.01591 3.7872 0
M  V30 11612 H 1089.69 2.09885 3.59287 0
M  V30 11613 H 1088.56 2.37615 4.94803 0
M  V30 11614 H 1088.82 0.742286 4.35824 0
M  V30 11615 N 1087.88 -1.11734 1.11145 0
M  V30 11616 C 1088.81 -2.1976 0.789152 0
M  V30 11617 C 1089.79 -1.68382 -0.241143 0
M  V30 11618 O 1090.98 -1.93914 -0.105292 0
M  V30 11619 C 1088.11 -3.46549 0.228204 0
M  V30 11620 C 1087.06 -4.11123 1.19002 0
M  V30 11621 C 1086.39 -5.32451 0.489928 0
M  V30 11622 C 1087.69 -4.56406 2.53951 0
M  V30 11623 H 1089.38 -2.46978 1.69241 0
M  V30 11624 H 1086.93 -1.18705 0.81517 0
M  V30 11625 H 1088.88 -4.21399 -0.00945908 0
M  V30 11626 H 1087.6 -3.18782 -0.71033 0
M  V30 11627 H 1086.26 -3.38264 1.41326 0
M  V30 11628 H 1085.91 -5.00953 -0.453315 0
M  V30 11629 H 1085.61 -5.76605 1.1314 0
M  V30 11630 H 1087.14 -6.10042 0.260984 0
M  V30 11631 H 1088.55 -5.22592 2.35733 0
M  V30 11632 H 1086.95 -5.11363 3.14051 0
M  V30 11633 H 1088.02 -3.7001 3.13402 0
M  V30 11634 N 1089.36 -0.901303 -1.29284 0
M  V30 11635 C 1090.77 -0.576317 -1.77582 0
M  V30 11636 C 1091.12 0.908078 -1.73921 0
M  V30 11637 O 1090.25 1.71006 -1.32611 0
M  V30 11638 C 1090.84 -1.03938 -3.22463 0
M  V30 11639 C 1089.4 -0.765533 -3.68533 0
M  V30 11640 C 1088.55 -1.21318 -2.49354 0
M  V30 11641 H 1091.5 -1.08386 -1.15923 0
M  V30 11642 H 1091.52 -0.375367 -3.78644 0
M  V30 11643 H 1091.03 -2.11977 -3.25096 0
M  V30 11644 H 1089.13 0.302176 -3.71373 0
M  V30 11645 H 1089.25 -1.36454 -4.59257 0
M  V30 11646 H 1087.61 -0.632141 -2.46731 0
M  V30 11647 H 1088.39 -2.30165 -2.54714 0
M  V30 11648 N 1090.84 1.42931 -0.663954 0
M  V30 11649 C 1091.77 2.29122 0.0598878 0
M  V30 11650 C 1092.78 1.43094 0.776404 0
M  V30 11651 O 1093.97 1.66923 0.63237 0
M  V30 11652 C 1091.07 3.20268 1.10822 0
M  V30 11653 C 1090.24 4.34892 0.4677 0
M  V30 11654 C 1089.3 5.06836 1.41435 0
M  V30 11655 O 1088.33 5.61735 0.918818 0
M  V30 11656 N 1089.53 5.11336 2.74801 0
M  V30 11657 H 1092.3 2.91885 -0.679945 0
M  V30 11658 H 1089.86 1.53739 -0.507543 0
M  V30 11659 H 1091.85 3.65264 1.74255 0
M  V30 11660 H 1090.42 2.59031 1.7499 0
M  V30 11661 H 1089.64 3.92679 -0.34593 0
M  V30 11662 H 1090.93 5.08796 0.0210237 0
M  V30 11663 H 1090.33 4.68124 3.1761 0
M  V30 11664 H 1088.88 5.60013 3.33509 0
M  V30 11665 N 1092.32 0.406567 1.52266 0
M  V30 11666 C 1093.56 -0.169717 2.01386 0
M  V30 11667 C 1093.88 -1.45864 1.29417 0
M  V30 11668 O 1093.15 -1.9136 0.419327 0
M  V30 11669 H 1091.73 -0.0657075 0.744105 0
M  V30 11670 H 1094.4 0.542221 1.87206 0
M  V30 11671 H 1093.49 -0.367659 3.09927 0
M  V30 11672 N 1093.79 -1.57004 0.136909 0
M  V30 11673 C 1095.04 -1.96873 -0.511137 0
M  V30 11674 C 1095.4 -1.02001 -1.63137 0
M  V30 11675 O 1094.69 -0.0532138 -1.91526 0
M  V30 11676 C 1094.88 -3.40903 -1.07331 0
M  V30 11677 C 1094.71 -4.49699 -0.00908112 0
M  V30 11678 C 1093.48 -5.03477 0.42889 0
M  V30 11679 C 1095.68 -5.08372 0.778631 0
M  V30 11680 N 1093.66 -5.95867 1.47702 0
M  V30 11681 C 1095.03 -5.96875 1.67751 0
M  V30 11682 C 1097.09 -4.90975 0.827538 0
M  V30 11683 C 1095.79 -6.69845 2.62108 0
M  V30 11684 C 1097.82 -5.64639 1.75889 0
M  V30 11685 C 1097.18 -6.52842 2.64531 0
M  V30 11686 H 1093.28 -0.766253 -0.156141 0
M  V30 11687 H 1095.86 -1.93347 0.229176 0
M  V30 11688 H 1094.03 -3.45042 -1.78327 0
M  V30 11689 H 1095.76 -3.67855 -1.68715 0
M  V30 11690 H 1092.52 -4.73588 0.03306 0
M  V30 11691 H 1092.94 -6.46767 2.00055 0
M  V30 11692 H 1097.59 -4.22511 0.156318 0
M  V30 11693 H 1095.3 -7.37544 3.30235 0
M  V30 11694 H 1098.89 -5.53177 1.80241 0
M  V30 11695 H 1097.77 -7.08843 3.35426 0
M  V30 11696 N 1095.27 0.136881 -1.57004 0
M  V30 11697 C 1096.22 1.16869 -1.99023 0
M  V30 11698 C 1097.19 1.42137 -0.859435 0
M  V30 11699 O 1098.37 1.54303 -1.12229 0
M  V30 11700 C 1095.51 2.49466 -2.38455 0
M  V30 11701 C 1094.63 2.31286 -3.64871 0
M  V30 11702 C 1093.76 3.56989 -3.9336 0
M  V30 11703 C 1092.8 3.33889 -5.13015 0
M  V30 11704 N 1091.94 4.51748 -5.37464 0
M  V30 11705 H 1096.78 0.803366 -2.86967 0
M  V30 11706 H 1094.32 0.385216 -1.41967 0
M  V30 11707 H 1096.27 3.26794 -2.59348 0
M  V30 11708 H 1094.9 2.83926 -1.53577 0
M  V30 11709 H 1093.96 1.44962 -3.51696 0
M  V30 11710 H 1095.27 2.10183 -4.52355 0
M  V30 11711 H 1094.42 4.42742 -4.14806 0
M  V30 11712 H 1093.16 3.81106 -3.04318 0
M  V30 11713 H 1092.17 2.46525 -4.91432 0
M  V30 11714 H 1093.39 3.1116 -6.03619 0
M  V30 11715 H 1091.34 4.76019 -4.51377 0
M  V30 11716 H 1091.25 4.33684 -6.19237 0
M  V30 11717 H 1092.52 5.38686 -5.63416 0
M  V30 11718 N 1096.75 1.52266 0.40654 0
M  V30 11719 C 1098 1.66123 1.15097 0
M  V30 11720 C 1098.32 0.394836 1.90961 0
M  V30 11721 O 1097.59 -0.590349 1.86793 0
M  V30 11722 H 1096.17 0.612317 0.427875 0
M  V30 11723 H 1098.83 1.89318 0.463106 0
M  V30 11724 H 1097.93 2.50351 1.86361 0
M  V30 11725 N 1098.23 -0.663929 1.42933 0
M  V30 11726 C 1099.45 -1.45691 1.47611 0
M  V30 11727 C 1099.88 -1.87875 0.0920305 0
M  V30 11728 O 1099.24 -1.56696 -0.91192 0
M  V30 11729 C 1099.28 -2.67517 2.41799 0
M  V30 11730 O 1098.39 -3.66187 1.89686 0
M  V30 11731 H 1097.73 -0.437257 0.499702 0
M  V30 11732 H 1100.26 -0.813397 1.87737 0
M  V30 11733 H 1100.27 -3.1546 2.58745 0
M  V30 11734 H 1098.94 -2.36155 3.4235 0
M  V30 11735 H 1097.52 -3.25274 1.82349 0
M  V30 11736 N 1099.71 -1.29285 -0.901281 0
M  V30 11737 C 1101.12 -1.15499 -1.46686 0
M  V30 11738 C 1101.47 0.250446 -1.94595 0
M  V30 11739 O 1100.59 1.14581 -1.83576 0
M  V30 11740 C 1101.19 -2.0906 -2.66607 0
M  V30 11741 C 1099.75 -1.99301 -3.19306 0
M  V30 11742 C 1098.89 -2.00079 -1.91999 0
M  V30 11743 H 1101.85 -1.41793 -0.712773 0
M  V30 11744 H 1101.87 -1.6619 -3.42288 0
M  V30 11745 H 1101.38 -3.11341 -2.31707 0
M  V30 11746 H 1099.48 -1.00103 -3.58901 0
M  V30 11747 H 1099.59 -2.86885 -3.8371 0
M  V30 11748 H 1097.96 -1.44655 -2.09636 0
M  V30 11749 H 1098.74 -3.04061 -1.59379 0
M  V30 11750 N 1101.18 1.11143 -1.11736 0
M  V30 11751 C 1102.15 2.15456 -0.78174 0
M  V30 11752 C 1103.15 1.59547 0.200383 0
M  V30 11753 O 1104.34 1.74183 -0.0244893 0
M  V30 11754 C 1101.47 3.40523 -0.160364 0
M  V30 11755 H 1102.66 2.46658 -1.70586 0
M  V30 11756 H 1100.22 1.26381 -0.919644 0
M  V30 11757 H 1100.95 3.14932 0.773835 0
M  V30 11758 H 1100.74 3.82386 -0.867378 0
M  V30 11759 H 1102.23 4.17559 0.0582175 0
M  V30 11760 N 1102.66 0.908147 1.28804 0
M  V30 11761 C 1103.91 0.534332 1.94494 0
M  V30 11762 C 1104.22 -0.92552 1.72318 0
M  V30 11763 O 1105.43 -1.40724 2.32183 0
M  V30 11764 C 1103.89 0.904748 3.48342 0
M  V30 11765 C 1103.49 2.38394 3.79305 0
M  V30 11766 C 1105.24 0.601249 4.2022 0
M  V30 11767 C 1103.15 2.69478 5.26437 0
M  V30 11768 H 1102.08 0.196107 0.728051 0
M  V30 11769 H 1104.73 1.1063 1.46401 0
M  V30 11770 H 1103.11 0.261624 3.95135 0
M  V30 11771 H 1104.28 3.07333 3.43341 0
M  V30 11772 H 1102.6 2.65733 3.20586 0
M  V30 11773 H 1105.19 0.810225 5.28526 0
M  V30 11774 H 1105.54 -0.460669 4.13743 0
M  V30 11775 H 1106.07 1.20259 3.79187 0
M  V30 11776 H 1102.81 3.74501 5.37986 0
M  V30 11777 H 1102.33 2.05171 5.63618 0
M  V30 11778 H 1104.01 2.56187 5.94119 0
M  V30 11779 N 1104.14 -1.42577 0.671525 0
M  V30 11780 C 1105.39 -2.01584 0.192431 0
M  V30 11781 C 1105.72 -1.53076 -1.19992 0
M  V30 11782 O 1104.97 -0.722196 -1.81887 0
M  V30 11783 C 1105.27 -3.56985 0.172097 0
M  V30 11784 C 1104.94 -4.24912 1.50867 0
M  V30 11785 C 1103.6 -4.43182 1.87464 0
M  V30 11786 C 1105.95 -4.6322 2.38908 0
M  V30 11787 C 1103.28 -4.97031 3.11732 0
M  V30 11788 C 1105.63 -5.18447 3.62485 0
M  V30 11789 C 1104.29 -5.34932 3.99255 0
M  V30 11790 H 1103.56 -0.737647 0.0704155 0
M  V30 11791 H 1106.21 -1.70807 0.865862 0
M  V30 11792 H 1104.52 -3.87411 -0.584835 0
M  V30 11793 H 1106.21 -4.00419 -0.215749 0
M  V30 11794 H 1102.8 -4.11048 1.21397 0
M  V30 11795 H 1106.99 -4.4878 2.1192 0
M  V30 11796 H 1102.24 -5.07979 3.40246 0
M  V30 11797 H 1106.42 -5.47075 4.30909 0
M  V30 11798 H 1104.04 -5.76422 4.95623 0
M  V30 11799 N 1105.62 -0.414636 -1.52048 0
M  V30 11800 C 1106.55 0.443601 -2.24866 0
M  V30 11801 C 1107.56 1.00556 -1.28032 0
M  V30 11802 O 1108.75 0.903566 -1.53941 0
M  V30 11803 C 1105.85 1.63004 -2.97124 0
M  V30 11804 C 1105.03 1.191 -4.20873 0
M  V30 11805 C 1104.08 2.24497 -4.75907 0
M  V30 11806 O 1103.11 1.84861 -5.38345 0
M  V30 11807 N 1104.31 3.56727 -4.57959 0
M  V30 11808 H 1107.08 -0.180393 -2.99157 0
M  V30 11809 H 1104.64 -0.242305 -1.60077 0
M  V30 11810 H 1106.63 2.33089 -3.30835 0
M  V30 11811 H 1105.2 2.15984 -2.25986 0
M  V30 11812 H 1104.42 0.318059 -3.92915 0
M  V30 11813 H 1105.71 0.874699 -5.01225 0
M  V30 11814 H 1105.11 3.91675 -4.08175 0
M  V30 11815 H 1103.66 4.22772 -4.96092 0
M  V30 11816 N 1107.1 1.56929 -0.145233 0
M  V30 11817 C 1108.32 2.00864 0.516564 0
M  V30 11818 C 1108.75 1.02466 1.57741 0
M  V30 11819 O 1108.1 0.000145439 1.813 0
M  V30 11820 C 1108.15 3.43552 1.09563 0
M  V30 11821 O 1107.26 3.4815 2.21055 0
M  V30 11822 H 1106.6 0.651835 0.126521 0
M  V30 11823 H 1109.13 2.0317 -0.241445 0
M  V30 11824 H 1109.14 3.82316 1.42473 0
M  V30 11825 H 1107.81 4.14677 0.318749 0
M  V30 11826 H 1106.39 3.21228 1.89387 0
M  V30 11827 N 1108.58 -0.128553 1.57075 0
M  V30 11828 C 1109.8 -0.8564 1.88893 0
M  V30 11829 C 1110.23 -1.73095 0.736196 0
M  V30 11830 O 1109.58 -1.78567 -0.313629 0
M  V30 11831 C 1109.63 -1.67368 3.19406 0
M  V30 11832 O 1108.74 -2.77973 3.04639 0
M  V30 11833 H 1108.08 -0.237424 0.620102 0
M  V30 11834 H 1110.61 -0.113821 2.04283 0
M  V30 11835 H 1110.62 -2.0649 3.51889 0
M  V30 11836 H 1109.29 -1.03161 4.02903 0
M  V30 11837 H 1107.87 -2.42123 2.83603 0
M  V30 11838 N 1110.05 -1.5248 -0.398459 0
M  V30 11839 C 1110.99 -1.71321 -1.50746 0
M  V30 11840 C 1111.96 -0.5609 -1.52619 0
M  V30 11841 O 1113.15 -0.789557 -1.71167 0
M  V30 11842 C 1110.28 -1.76223 -2.89246 0
M  V30 11843 C 1109.32 -2.97878 -3.05239 0
M  V30 11844 S 1110.15 -4.58031 -2.77431 0
M  V30 11845 C 1111.31 -4.65735 -4.18141 0
M  V30 11846 H 1111.54 -2.65117 -1.34538 0
M  V30 11847 H 1109.08 -1.42653 -0.590727 0
M  V30 11848 H 1111.03 -1.79733 -3.69062 0
M  V30 11849 H 1109.7 -0.83536 -3.02788 0
M  V30 11850 H 1108.89 -2.97821 -4.06594 0
M  V30 11851 H 1108.49 -2.92311 -2.33304 0
M  V30 11852 H 1110.78 -4.43768 -5.11934 0
M  V30 11853 H 1111.73 -5.67709 -4.23217 0
M  V30 11854 H 1112.13 -3.94664 -4.03609 0
M  V30 11855 N 1111.53 0.65634 -1.43283 0
M  V30 11856 C 1112.76 1.44408 -1.48168 0
M  V30 11857 C 1113.17 1.88542 -0.0986016 0
M  V30 11858 O 1112.53 1.59298 0.890527 0
M  V30 11859 C 1112.58 2.68111 -2.42484 0
M  V30 11860 O 1112.3 2.25824 -3.75413 0
M  V30 11861 C 1113.8 3.61499 -2.56579 0
M  V30 11862 H 1111.02 0.443731 -0.503333 0
M  V30 11863 H 1113.57 0.804917 -1.87993 0
M  V30 11864 H 1111.72 3.28175 -2.05863 0
M  V30 11865 H 1112.14 3.05839 -4.26102 0
M  V30 11866 H 1113.61 4.44972 -3.26655 0
M  V30 11867 H 1114.09 4.08639 -1.60969 0
M  V30 11868 H 1114.69 3.07319 -2.93998 0
M  V30 11869 N 1113.01 1.29761 0.894412 0
M  V30 11870 C 1113.96 1.15341 1.99912 0
M  V30 11871 C 1114.93 0.0453488 1.66038 0
M  V30 11872 O 1116.11 0.213829 1.89598 0
M  V30 11873 C 1113.25 0.841432 3.34685 0
M  V30 11874 C 1112.36 2.03046 3.81309 0
M  V30 11875 C 1111.5 1.65739 5.04682 0
M  V30 11876 C 1110.54 2.81191 5.43689 0
M  V30 11877 N 1109.68 2.44244 6.58247 0
M  V30 11878 H 1114.52 2.09854 2.11578 0
M  V30 11879 H 1112.05 1.04421 1.03608 0
M  V30 11880 H 1114.01 0.641211 4.12243 0
M  V30 11881 H 1112.64 -0.066797 3.22731 0
M  V30 11882 H 1111.69 2.34222 2.9974 0
M  V30 11883 H 1113 2.89538 4.06164 0
M  V30 11884 H 1112.16 1.42036 5.8984 0
M  V30 11885 H 1110.9 0.764019 4.81678 0
M  V30 11886 H 1109.9 3.0557 4.57064 0
M  V30 11887 H 1111.13 3.712 5.68672 0
M  V30 11888 H 1109.07 1.57402 6.36837 0
M  V30 11889 H 1108.99 3.24269 6.82924 0
M  V30 11890 H 1110.26 2.23875 7.46659 0
M  V30 11891 N 1114.49 -1.10549 1.12324 0
M  V30 11892 C 1115.74 -1.81851 0.872531 0
M  V30 11893 C 1116.05 -1.86058 -0.603468 0
M  V30 11894 O 1117.26 -2.53553 -0.970736 0
M  V30 11895 C 1115.71 -3.26631 1.51131 0
M  V30 11896 C 1115.32 -3.30725 3.02201 0
M  V30 11897 C 1117.06 -4.02768 1.34082 0
M  V30 11898 C 1114.97 -4.69957 3.59018 0
M  V30 11899 H 1113.9 -0.681422 0.322769 0
M  V30 11900 H 1116.55 -1.24332 1.34959 0
M  V30 11901 H 1114.93 -3.8414 0.961913 0
M  V30 11902 H 1116.11 -2.83046 3.63623 0
M  V30 11903 H 1114.42 -2.68072 3.18632 0
M  V30 11904 H 1117.02 -5.05612 1.73955 0
M  V30 11905 H 1117.36 -4.15328 0.284369 0
M  V30 11906 H 1117.9 -3.51671 1.85937 0
M  V30 11907 H 1114.63 -4.62597 4.64418 0
M  V30 11908 H 1114.15 -5.18008 3.02371 0
M  V30 11909 H 1115.83 -5.38925 3.58007 0
M  V30 11910 N 1115.97 -0.914965 -1.28321 0
M  V30 11911 C 1116.9 -0.421292 -2.29668 0
M  V30 11912 C 1117.88 0.511743 -1.6222 0
M  V30 11913 O 1119.06 0.419218 -1.89621 0
M  V30 11914 C 1116.19 0.338364 -3.45648 0
M  V30 11915 C 1115.15 -0.505646 -4.25003 0
M  V30 11916 C 1114.47 0.382421 -5.33331 0
M  V30 11917 C 1115.77 -1.76354 -4.91626 0
M  V30 11918 H 1117.47 -1.26826 -2.71211 0
M  V30 11919 H 1115.01 -0.611291 -1.30381 0
M  V30 11920 H 1116.96 0.694578 -4.15636 0
M  V30 11921 H 1115.69 1.21925 -3.02988 0
M  V30 11922 H 1114.35 -0.844395 -3.56743 0
M  V30 11923 H 1114 1.26189 -4.86914 0
M  V30 11924 H 1113.7 -0.17871 -5.87328 0
M  V30 11925 H 1115.22 0.73449 -6.06166 0
M  V30 11926 H 1116.63 -1.47616 -5.5397 0
M  V30 11927 H 1115.03 -2.26717 -5.55625 0
M  V30 11928 H 1116.1 -2.49063 -4.16048 0
M  V30 11929 N 1117.44 1.42219 -0.679077 0
M  V30 11930 C 1118.35 2.346 -0.00345919 0
M  V30 11931 C 1119.37 1.55327 0.784181 0
M  V30 11932 O 1120.55 1.87878 0.725524 0
M  V30 11933 C 1117.61 3.33905 0.933194 0
M  V30 11934 C 1116.67 4.29073 0.139607 0
M  V30 11935 C 1115.9 5.23634 1.03165 0
M  V30 11936 O 1116.13 5.23234 2.27119 0
M  V30 11937 O 1115.06 5.99901 0.490159 0
M  V30 11938 H 1118.89 2.9392 -0.764525 0
M  V30 11939 H 1116.47 1.42794 -0.439329 0
M  V30 11940 H 1118.35 3.949 1.47077 0
M  V30 11941 H 1117.03 2.77052 1.67404 0
M  V30 11942 H 1115.94 3.71478 -0.442177 0
M  V30 11943 H 1117.27 4.88979 -0.562214 0
M  V30 11944 N 1118.92 0.422693 1.51826 0
M  V30 11945 C 1120.33 -0.0438129 1.86649 0
M  V30 11946 C 1120.68 -1.43246 1.34071 0
M  V30 11947 O 1119.81 -2.05256 0.685501 0
M  V30 11948 C 1120.4 -0.0862802 3.3869 0
M  V30 11949 C 1118.96 -0.497157 3.73102 0
M  V30 11950 C 1118.11 0.319655 2.75451 0
M  V30 11951 H 1121.06 0.639181 1.45259 0
M  V30 11952 H 1121.08 -0.8988 3.69732 0
M  V30 11953 H 1120.59 0.924525 3.76927 0
M  V30 11954 H 1118.69 -1.51411 3.40449 0
M  V30 11955 H 1118.81 -0.232125 4.78537 0
M  V30 11956 H 1117.17 -0.219963 2.53748 0
M  V30 11957 H 1117.95 1.32906 3.16529 0
M  V30 11958 N 1120.4 -1.5685 0.153553 0
M  V30 11959 C 1121.65 -1.96334 -0.495915 0
M  V30 11960 C 1121.97 -1.03873 -1.64441 0
M  V30 11961 O 1121.23 -0.069231 -1.95578 0
M  V30 11962 C 1121.53 -3.42022 -1.0371 0
M  V30 11963 C 1121.19 -4.509 -0.00637049 0
M  V30 11964 C 1119.86 -4.80402 0.276956 0
M  V30 11965 C 1122.21 -5.16556 0.694187 0
M  V30 11966 C 1119.54 -5.72866 1.26653 0
M  V30 11967 C 1121.89 -6.10087 1.67263 0
M  V30 11968 C 1120.55 -6.37965 1.96359 0
M  V30 11969 H 1119.82 -0.718436 -0.181468 0
M  V30 11970 H 1122.47 -1.89968 0.241768 0
M  V30 11971 H 1120.77 -3.45252 -1.85225 0
M  V30 11972 H 1122.47 -3.69903 -1.54831 0
M  V30 11973 H 1119.06 -4.27942 -0.237378 0
M  V30 11974 H 1123.25 -4.9389 0.488496 0
M  V30 11975 H 1118.5 -5.92756 1.49833 0
M  V30 11976 H 1122.68 -6.60036 2.22094 0
M  V30 11977 H 1120.3 -7.09416 2.73189 0
M  V30 11978 N 1121.88 0.120221 -1.57141 0
M  V30 11979 C 1123.29 0.473718 -1.52408 0
M  V30 11980 C 1123.49 1.81925 -0.866354 0
M  V30 11981 O 1122.55 2.48491 -0.448173 0
M  V30 11982 C 1123.86 0.459338 -2.97171 0
M  V30 11983 C 1125.41 0.542975 -3.08254 0
M  V30 11984 C 1125.89 0.558996 -4.54576 0
M  V30 11985 N 1127.38 0.620469 -4.59026 0
M  V30 11986 C 1128.11 0.654292 -5.69655 0
M  V30 11987 N 1127.61 0.645835 -6.89783 0
M  V30 11988 N 1129.4 0.697208 -5.57759 0
M  V30 11989 H 1121.55 -0.76142 -1.98283 0
M  V30 11990 H 1123.81 -0.280736 -0.905479 0
M  V30 11991 H 1123.52 -0.461654 -3.48657 0
M  V30 11992 H 1123.39 1.28759 -3.54543 0
M  V30 11993 H 1125.78 1.45439 -2.56772 0
M  V30 11994 H 1125.86 -0.312936 -2.53879 0
M  V30 11995 H 1125.51 -0.348367 -5.06704 0
M  V30 11996 H 1125.44 1.43177 -5.06762 0
M  V30 11997 H 1127.93 0.633218 -3.72557 0
M  V30 11998 H 1128.24 0.674233 -7.69853 0
M  V30 11999 H 1126.59 0.613279 -6.92289 0
M  V30 12000 H 1129.78 0.70117 -4.62819 0
M  V30 12001 H 1129.95 0.7201 -6.43986 0
M  V30 12002 N 1123.36 1.52689 0.390367 0
M  V30 12003 C 1124.3 1.7737 1.47677 0
M  V30 12004 C 1125.27 0.616864 1.54221 0
M  V30 12005 O 1126.46 0.856437 1.70499 0
M  V30 12006 C 1123.6 1.94715 2.84921 0
M  V30 12007 C 1122.71 3.22405 2.8754 0
M  V30 12008 C 1121.85 3.30074 4.16202 0
M  V30 12009 C 1120.89 4.51893 4.12867 0
M  V30 12010 N 1120.02 4.56851 5.33134 0
M  V30 12011 H 1124.86 2.70084 1.25932 0
M  V30 12012 H 1122.4 1.33813 0.610943 0
M  V30 12013 H 1124.36 2.02755 3.64618 0
M  V30 12014 H 1122.99 1.05363 3.0512 0
M  V30 12015 H 1122.04 3.23442 2.00223 0
M  V30 12016 H 1123.35 4.12156 2.80943 0
M  V30 12017 H 1122.51 3.3729 5.04302 0
M  V30 12018 H 1121.24 2.38295 4.25519 0
M  V30 12019 H 1120.25 4.44803 3.23156 0
M  V30 12020 H 1121.47 5.44987 4.05174 0
M  V30 12021 H 1119.42 3.67963 5.43083 0
M  V30 12022 H 1119.34 5.40472 5.28607 0
M  V30 12023 H 1120.61 4.6832 6.23134 0
M  V30 12024 N 1124.83 -0.648732 1.43629 0
M  V30 12025 C 1125.77 -1.77417 1.45107 0
M  V30 12026 C 1126.78 -1.59067 0.346618 0
M  V30 12027 O 1127.97 -1.67705 0.611322 0
M  V30 12028 C 1125.07 -3.14906 1.25249 0
M  V30 12029 C 1124.24 -3.59874 2.48616 0
M  V30 12030 C 1123.3 -4.76181 2.23916 0
M  V30 12031 O 1122.33 -4.8539 2.97296 0
M  V30 12032 N 1123.53 -5.66691 1.25862 0
M  V30 12033 H 1126.29 -1.76626 2.42123 0
M  V30 12034 H 1123.85 -0.832725 1.38843 0
M  V30 12035 H 1125.85 -3.90408 1.06601 0
M  V30 12036 H 1124.42 -3.10443 0.366623 0
M  V30 12037 H 1123.64 -2.74768 2.82659 0
M  V30 12038 H 1124.92 -3.86665 3.30708 0
M  V30 12039 H 1124.32 -5.61927 0.652227 0
M  V30 12040 H 1122.88 -6.41895 1.13196 0
M  V30 12041 N 1126.31 -1.30234 -0.887518 0
M  V30 12042 C 1127.26 -1.16302 -2.01436 0
M  V30 12043 C 1128.25 -0.0755422 -1.69231 0
M  V30 12044 O 1129.46 -0.236213 -1.78443 0
M  V30 12045 H 1125.84 -0.35961 -0.660443 0
M  V30 12046 H 1127.81 -2.11677 -2.10322 0
M  V30 12047 C 1126.56 -0.869009 -3.36665 0
M  V30 12048 H 1125.88 -1.69787 -3.61956 0
M  V30 12049 H 1127.32 -0.811621 -4.16159 0
M  V30 12050 C 1125.78 0.428021 -3.3417 0
M  V30 12051 O 1126.31 1.45033 -3.74604 0
M  V30 12052 N 1124.51 0.438264 -2.87276 0
M  V30 12053 H 1124.06 -0.394142 -2.54567 0
M  V30 12054 H 1124.02 1.30604 -2.85989 0
M  V30 12055 N 1127.79 1.09952 -1.12909 0
M  V30 12056 C 1129.2 1.63516 -0.901087 0
M  V30 12057 C 1129.55 1.87932 0.563547 0
M  V30 12058 O 1128.68 1.625 1.42908 0
M  V30 12059 C 1129.27 2.97054 -1.62924 0
M  V30 12060 C 1127.83 3.47464 -1.44725 0
M  V30 12061 C 1126.98 2.21979 -1.66194 0
M  V30 12062 H 1129.93 0.933858 -1.28315 0
M  V30 12063 H 1129.95 3.64757 -1.08318 0
M  V30 12064 H 1129.46 2.79251 -2.69519 0
M  V30 12065 H 1127.56 3.70402 -0.40409 0
M  V30 12066 H 1127.68 4.25254 -2.20671 0
M  V30 12067 H 1126.04 2.30368 -1.0864 0
M  V30 12068 H 1126.82 2.06702 -2.74097 0
M  V30 12069 N 1129.27 0.921757 1.27833 0
M  V30 12070 C 1130.18 0.421668 2.30779 0
M  V30 12071 C 1131.19 -0.494686 1.6682 0
M  V30 12072 O 1132.37 -0.378935 1.97803 0
M  V30 12073 C 1129.44 -0.322928 3.45193 0
M  V30 12074 C 1128.5 0.627618 4.24687 0
M  V30 12075 C 1127.73 -0.0815385 5.33638 0
M  V30 12076 O 1127.95 -1.30193 5.55343 0
M  V30 12077 O 1126.89 0.58725 5.99028 0
M  V30 12078 H 1130.71 1.2763 2.7558 0
M  V30 12079 H 1128.3 0.686877 1.32674 0
M  V30 12080 H 1130.18 -0.743145 4.14796 0
M  V30 12081 H 1128.85 -1.15326 3.02459 0
M  V30 12082 H 1127.76 1.09739 3.57642 0
M  V30 12083 H 1129.09 1.425 4.71121 0
M  V30 12084 N 1130.75 -1.41857 0.686609 0
M  V30 12085 C 1132 -2.00594 0.21095 0
M  V30 12086 C 1132.31 -1.54974 -1.19341 0
M  V30 12087 O 1133.51 -2.0621 -1.76607 0
M  V30 12088 C 1131.97 -3.58418 0.326261 0
M  V30 12089 C 1131.58 -4.13022 1.73542 0
M  V30 12090 C 1133.32 -4.24404 -0.0900816 0
M  V30 12091 C 1131.23 -5.6325 1.80287 0
M  V30 12092 H 1130.16 -0.75025 0.0751077 0
M  V30 12093 H 1132.81 -1.62442 0.853508 0
M  V30 12094 H 1131.19 -3.9413 -0.384394 0
M  V30 12095 H 1132.37 -3.88747 2.47411 0
M  V30 12096 H 1130.68 -3.5953 2.10065 0
M  V30 12097 H 1133.28 -5.34666 -0.060004 0
M  V30 12098 H 1133.62 -4.00745 -1.12733 0
M  V30 12099 H 1134.15 -3.93695 0.569979 0
M  V30 12100 H 1130.89 -5.91724 2.82034 0
M  V30 12101 H 1130.41 -5.89479 1.1079 0
M  V30 12102 H 1132.09 -6.2787 1.56167 0
M  V30 12103 N 1132.22 -0.430739 -1.51599 0
M  V30 12104 C 1133.47 0.138133 -2.02329 0
M  V30 12105 C 1133.8 1.42934 -1.31466 0
M  V30 12106 O 1133.08 1.89743 -0.427551 0
M  V30 12107 C 1133.36 0.363677 -3.58259 0
M  V30 12108 C 1133.21 -0.94572 -4.39746 0
M  V30 12109 C 1134.53 1.13637 -4.25176 0
M  V30 12110 H 1131.65 0.0487287 -0.735387 0
M  V30 12111 H 1134.29 -0.568444 -1.81297 0
M  V30 12112 H 1132.44 0.965552 -3.7631 0
M  V30 12113 H 1134.12 -1.58107 -4.33359 0
M  V30 12114 H 1132.36 -1.55183 -4.05094 0
M  V30 12115 H 1133.03 -0.742031 -5.4699 0
M  V30 12116 H 1135.51 0.626608 -4.11355 0
M  V30 12117 H 1134.38 1.26294 -5.34173 0
M  V30 12118 H 1134.64 2.16273 -3.85588 0
M  V30 12119 N 1133.7 1.56767 -0.161869 0
M  V30 12120 C 1134.95 1.95769 0.485536 0
M  V30 12121 C 1135.26 1.05006 1.65025 0
M  V30 12122 O 1136.47 1.33649 2.36326 0
M  V30 12123 C 1134.93 3.4807 0.915176 0
M  V30 12124 C 1134.53 4.47443 -0.223416 0
M  V30 12125 C 1136.28 3.95909 1.53153 0
M  V30 12126 C 1134.19 5.90971 0.225325 0
M  V30 12127 H 1133.12 0.730911 0.185161 0
M  V30 12128 H 1135.77 1.81808 -0.248592 0
M  V30 12129 H 1134.15 3.57415 1.705 0
M  V30 12130 H 1135.32 4.49805 -1.00061 0
M  V30 12131 H 1133.64 4.09606 -0.749127 0
M  V30 12132 H 1136.23 5.00592 1.87915 0
M  V30 12133 H 1136.58 3.38307 2.42599 0
M  V30 12134 H 1137.11 3.89542 0.806322 0
M  V30 12135 H 1133.85 6.52426 -0.634124 0
M  V30 12136 H 1133.37 5.91936 0.96808 0
M  V30 12137 H 1135.05 6.43497 0.672373 0
M  V30 12138 N 1135.18 -0.111886 1.57202 0
M  V30 12139 C 1136.41 -0.8312 1.89142 0
M  V30 12140 C 1136.82 -1.73614 0.751987 0
M  V30 12141 O 1136.16 -1.81462 -0.285877 0
M  V30 12142 C 1136.22 -1.71107 3.16169 0
M  V30 12143 C 1135.89 -0.9797 4.46375 0
M  V30 12144 C 1136.88 -0.317219 5.18931 0
M  V30 12145 C 1134.57 -0.958764 4.93065 0
M  V30 12146 C 1136.56 0.356419 6.36403 0
M  V30 12147 C 1134.25 -0.281332 6.10452 0
M  V30 12148 C 1135.25 0.375098 6.81969 0
M  V30 12149 O 1134.94 1.0417 7.97122 0
M  V30 12150 H 1134.67 -0.243855 0.630484 0
M  V30 12151 H 1137.22 -0.0986634 2.05163 0
M  V30 12152 H 1135.45 -2.48543 2.96249 0
M  V30 12153 H 1137.14 -2.30544 3.34072 0
M  V30 12154 H 1137.91 -0.324965 4.8391 0
M  V30 12155 H 1133.79 -1.45913 4.37299 0
M  V30 12156 H 1137.33 0.869362 6.92162 0
M  V30 12157 H 1133.23 -0.271374 6.44929 0
M  V30 12158 H 1134 0.946899 8.13004 0
M  V30 12159 N 1136.66 -1.52894 -0.382264 0
M  V30 12160 C 1137.59 -1.74413 -1.48703 0
M  V30 12161 C 1138.6 -0.624663 -1.50339 0
M  V30 12162 O 1139.79 -0.900527 -1.54119 0
M  V30 12163 C 1136.89 -1.79387 -2.8753 0
M  V30 12164 C 1136.07 -3.08794 -3.09783 0
M  V30 12165 C 1135.12 -3.05226 -4.2863 0
M  V30 12166 O 1134.15 -3.79073 -4.24609 0
M  V30 12167 N 1135.35 -2.2488 -5.35172 0
M  V30 12168 H 1138.12 -2.69734 -1.30628 0
M  V30 12169 H 1135.68 -1.51465 -0.571842 0
M  V30 12170 H 1137.67 -1.74498 -3.65147 0
M  V30 12171 H 1136.24 -0.914233 -2.98932 0
M  V30 12172 H 1135.46 -3.27118 -2.19971 0
M  V30 12173 H 1136.75 -3.94347 -3.21509 0
M  V30 12174 H 1136.15 -1.64363 -5.41296 0
M  V30 12175 H 1134.7 -2.25825 -6.1143 0
M  V30 12176 N 1138.14 0.641106 -1.43971 0
M  V30 12177 C 1139.37 1.42622 -1.49475 0
M  V30 12178 C 1139.78 1.8885 -0.115068 0
M  V30 12179 O 1139.12 1.60846 0.887378 0
M  V30 12180 C 1139.18 2.68643 -2.38896 0
M  V30 12181 C 1138.84 2.44276 -3.86236 0
M  V30 12182 C 1139.84 2.06732 -4.7703 0
M  V30 12183 C 1137.53 2.58225 -4.30842 0
M  V30 12184 C 1139.52 1.83451 -6.1043 0
M  V30 12185 C 1137.21 2.34559 -5.64292 0
M  V30 12186 C 1138.21 1.97229 -6.53903 0
M  V30 12187 O 1137.89 1.73819 -7.84884 0
M  V30 12188 H 1137.63 0.444187 -0.509582 0
M  V30 12189 H 1140.18 0.792179 -1.89509 0
M  V30 12190 H 1138.41 3.34649 -1.93771 0
M  V30 12191 H 1140.1 3.30623 -2.35464 0
M  V30 12192 H 1140.86 1.95521 -4.43843 0
M  V30 12193 H 1136.74 2.86253 -3.61359 0
M  V30 12194 H 1140.29 1.54238 -6.80335 0
M  V30 12195 H 1136.18 2.45376 -5.97043 0
M  V30 12196 H 1136.95 1.88146 -7.96582 0
M  V30 12197 N 1139.62 1.30703 0.880598 0
M  V30 12198 C 1140.55 1.11783 1.98947 0
M  V30 12199 C 1141.53 0.0242461 1.62582 0
M  V30 12200 O 1142.71 0.178641 1.87652 0
M  V30 12201 C 1139.84 0.705762 3.31265 0
M  V30 12202 C 1138.88 1.80084 3.86616 0
M  V30 12203 S 1139.72 3.40416 4.13373 0
M  V30 12204 C 1140.87 3.01122 5.48704 0
M  V30 12205 H 1141.11 2.05658 2.14691 0
M  V30 12206 H 1138.64 1.15067 1.02951 0
M  V30 12207 H 1140.6 0.474754 4.07745 0
M  V30 12208 H 1139.26 -0.213699 3.13372 0
M  V30 12209 H 1138.45 1.4649 4.82241 0
M  V30 12210 H 1138.05 1.98636 3.16891 0
M  V30 12211 H 1140.34 2.49355 6.29943 0
M  V30 12212 H 1141.29 3.95671 5.87239 0
M  V30 12213 H 1141.7 2.38865 5.11472 0
M  V30 12214 N 1141.09 -1.09351 1.1349 0
M  V30 12215 C 1142.37 -1.78121 0.808225 0
M  V30 12216 C 1142.75 -1.99154 -0.700072 0
M  V30 12217 O 1142.1 -1.59356 -1.63762 0
M  V30 12218 C 1142.31 -3.10368 1.59601 0
M  V30 12219 C 1143.66 -3.85063 1.78919 0
M  V30 12220 O 1144.68 -3.20122 1.56206 0
M  V30 12221 O 1143.54 -5.01648 2.16821 0
M  V30 12222 H 1140.63 -0.77253 0.295173 0
M  V30 12223 H 1143.18 -1.15901 1.23956 0
M  V30 12224 H 1141.95 -2.90549 2.62101 0
M  V30 12225 H 1141.57 -3.80312 1.15967 0
M  V30 12226 N 1142.57 -0.928524 -1.27343 0
M  V30 12227 C 1143.85 -0.487758 -1.89421 0
M  V30 12228 C 1144.23 1.03418 -1.84032 0
M  V30 12229 O 1143.58 1.8887 -1.2861 0
M  V30 12230 C 1143.79 -1.03478 -3.33307 0
M  V30 12231 C 1145.13 -1.09577 -4.10217 0
M  V30 12232 O 1146.16 -0.984463 -3.42326 0
M  V30 12233 O 1145.02 -1.2673 -5.31603 0
M  V30 12234 H 1142.11 -0.157018 -0.811957 0
M  V30 12235 H 1144.66 -1.02027 -1.35605 0
M  V30 12236 H 1143.43 -2.07861 -3.31526 0
M  V30 12237 H 1143.05 -0.483967 -3.94644 0
M  V30 12238 N 1144.05 1.41491 -0.694123 0
M  V30 12239 C 1144.98 2.33462 -0.0422169 0
M  V30 12240 C 1145.96 1.51739 0.76872 0
M  V30 12241 O 1147.15 1.8028 0.721985 0
M  V30 12242 C 1144.28 3.35545 0.895925 0
M  V30 12243 C 1143.23 4.27568 0.192188 0
M  V30 12244 C 1142.56 5.20014 1.24459 0
M  V30 12245 C 1143.86 5.1376 -0.940626 0
M  V30 12246 H 1145.55 2.88225 -0.810363 0
M  V30 12247 H 1143.1 1.38586 -0.39114 0
M  V30 12248 H 1145.05 3.9881 1.36121 0
M  V30 12249 H 1143.77 2.79129 1.69572 0
M  V30 12250 H 1142.43 3.65726 -0.25305 0
M  V30 12251 H 1142.08 4.59913 2.03687 0
M  V30 12252 H 1141.78 5.82417 0.778734 0
M  V30 12253 H 1143.3 5.86155 1.71041 0
M  V30 12254 H 1144.72 5.70601 -0.555692 0
M  V30 12255 H 1143.11 5.85097 -1.33349 0
M  V30 12256 H 1144.18 4.51011 -1.78093 0
M  V30 12257 N 1145.53 0.438773 1.51369 0
M  V30 12258 C 1146.76 -0.125665 2.06217 0
M  V30 12259 C 1147.17 -1.36887 1.30609 0
M  V30 12260 O 1146.51 -1.80149 0.359433 0
M  V30 12261 C 1146.57 -0.511846 3.55838 0
M  V30 12262 C 1146.23 0.624755 4.52709 0
M  V30 12263 C 1147.23 1.49731 4.97872 0
M  V30 12264 C 1144.92 0.805895 4.95793 0
M  V30 12265 C 1146.91 2.53569 5.84792 0
M  V30 12266 C 1144.6 1.84755 5.82502 0
M  V30 12267 C 1145.6 2.71083 6.269 0
M  V30 12268 O 1145.28 3.7346 7.11887 0
M  V30 12269 H 1145.02 -0.0107227 0.675915 0
M  V30 12270 H 1147.57 0.617071 1.95912 0
M  V30 12271 H 1145.8 -1.30731 3.63932 0
M  V30 12272 H 1147.49 -1.0076 3.93195 0
M  V30 12273 H 1148.25 1.36891 4.65281 0
M  V30 12274 H 1144.13 0.14352 4.60777 0
M  V30 12275 H 1147.68 3.20984 6.19367 0
M  V30 12276 H 1143.57 1.97614 6.14507 0
M  V30 12277 H 1144.34 3.70058 7.30068 0
M  V30 12278 N 1147.01 -1.56678 0.170181 0
M  V30 12279 C 1148.25 -1.9714 -0.475767 0
M  V30 12280 C 1148.58 -1.05611 -1.62972 0
M  V30 12281 O 1147.86 -0.103017 -1.94227 0
M  V30 12282 C 1148.14 -3.47072 -0.959828 0
M  V30 12283 C 1148 -4.4938 0.194225 0
M  V30 12284 C 1149.31 -4.00071 -1.83387 0
M  V30 12285 H 1146.43 -0.716776 -0.171466 0
M  V30 12286 H 1149.08 -1.88266 0.256086 0
M  V30 12287 H 1147.23 -3.54766 -1.58346 0
M  V30 12288 H 1148.9 -4.53748 0.83128 0
M  V30 12289 H 1147.14 -4.25393 0.849893 0
M  V30 12290 H 1147.81 -5.51685 -0.186575 0
M  V30 12291 H 1150.29 -3.95002 -1.30815 0
M  V30 12292 H 1149.16 -5.05398 -2.14159 0
M  V30 12293 H 1149.42 -3.43819 -2.77923 0
M  V30 12294 N 1148.48 0.103547 -1.57259 0
M  V30 12295 C 1149.73 0.806979 -1.8529 0
M  V30 12296 C 1150.05 1.79679 -0.757653 0
M  V30 12297 O 1149.32 1.94695 0.216913 0
M  V30 12298 H 1147.9 0.301012 -0.683667 0
M  V30 12299 H 1150.56 0.0871886 -1.94705 0
M  V30 12300 H 1149.66 1.34275 -2.81738 0
M  V30 12301 N 1149.96 1.53094 0.37415 0
M  V30 12302 C 1151.19 1.73061 1.143 0
M  V30 12303 C 1151.61 0.454611 1.82524 0
M  V30 12304 O 1150.97 -0.590743 1.71406 0
M  V30 12305 C 1151.02 2.89086 2.15549 0
M  V30 12306 O 1150.12 2.57096 3.22452 0
M  V30 12307 H 1149.46 0.575009 0.332055 0
M  V30 12308 H 1151.99 1.99946 0.433897 0
M  V30 12309 H 1152 3.15007 2.59296 0
M  V30 12310 H 1150.68 3.81647 1.65283 0
M  V30 12311 H 1149.25 2.41965 2.83738 0
M  V30 12312 N 1151.44 -0.633461 1.44309 0
M  V30 12313 C 1152.72 -1.3917 1.37444 0
M  V30 12314 C 1153.1 -2.11076 0.0319994 0
M  V30 12315 O 1152.44 -2.06164 -0.98533 0
M  V30 12316 C 1152.65 -2.36005 2.57104 0
M  V30 12317 C 1154 -2.99407 3.01065 0
M  V30 12318 O 1155.03 -2.46331 2.57292 0
M  V30 12319 O 1153.89 -3.95686 3.76954 0
M  V30 12320 H 1150.98 -0.622746 0.544166 0
M  V30 12321 H 1153.53 -0.658712 1.56394 0
M  V30 12322 H 1152.3 -1.81955 3.46422 0
M  V30 12323 H 1151.92 -3.16725 2.40356 0
M  V30 12324 N 1152.92 -1.31168 -0.873655 0
M  V30 12325 C 1153.85 -1.21094 -1.99646 0
M  V30 12326 C 1154.83 -0.0989684 -1.69812 0
M  V30 12327 O 1156.01 -0.282939 -1.92128 0
M  V30 12328 C 1153.14 -0.913684 -3.35066 0
M  V30 12329 C 1152.1 -1.98482 -3.79195 0
M  V30 12330 C 1151.42 -1.54033 -5.12033 0
M  V30 12331 C 1152.72 -3.39745 -3.96699 0
M  V30 12332 H 1154.42 -2.1503 -2.08333 0
M  V30 12333 H 1151.96 -1.03521 -1.00097 0
M  V30 12334 H 1153.92 -0.829821 -4.13149 0
M  V30 12335 H 1152.64 0.0613471 -3.26542 0
M  V30 12336 H 1151.3 -2.05851 -3.03349 0
M  V30 12337 H 1150.95 -0.553261 -4.99948 0
M  V30 12338 H 1150.65 -2.25688 -5.4253 0
M  V30 12339 H 1152.17 -1.47047 -5.92629 0
M  V30 12340 H 1153.59 -3.35071 -4.65188 0
M  V30 12341 H 1151.98 -4.09585 -4.38589 0
M  V30 12342 H 1153.05 -3.80802 -3.00196 0
M  V30 12343 N 1154.4 1.08748 -1.14068 0
M  V30 12344 C 1155.31 2.19123 -0.837998 0
M  V30 12345 C 1156.32 1.73065 0.180164 0
M  V30 12346 O 1157.5 2.01398 0.00952285 0
M  V30 12347 C 1154.56 3.45257 -0.316 0
M  V30 12348 C 1153.62 4.05959 -1.39628 0
M  V30 12349 C 1152.86 5.26072 -0.899095 0
M  V30 12350 O 1153.08 5.69804 0.260744 0
M  V30 12351 O 1152.01 5.7808 -1.67652 0
M  V30 12352 H 1155.84 2.4748 -1.76033 0
M  V30 12353 H 1153.43 1.17816 -0.918675 0
M  V30 12354 H 1155.31 4.21389 -0.0306425 0
M  V30 12355 H 1153.98 3.18486 0.578654 0
M  V30 12356 H 1152.89 3.31432 -1.73505 0
M  V30 12357 H 1154.22 4.36971 -2.26533 0
M  V30 12358 N 1155.87 0.935264 1.26849 0
M  V30 12359 C 1157.12 0.575467 1.93317 0
M  V30 12360 C 1157.44 -0.88876 1.74242 0
M  V30 12361 O 1158.64 -1.35767 2.35116 0
M  V30 12362 C 1157.1 0.978433 3.46345 0
M  V30 12363 C 1156.71 2.46386 3.74163 0
M  V30 12364 C 1158.45 0.690249 4.18851 0
M  V30 12365 C 1156.36 2.80584 5.20602 0
M  V30 12366 H 1155.29 0.211506 0.723727 0
M  V30 12367 H 1157.94 1.1371 1.44022 0
M  V30 12368 H 1156.32 0.345379 3.94491 0
M  V30 12369 H 1157.49 3.14547 3.36745 0
M  V30 12370 H 1155.81 2.72473 3.14877 0
M  V30 12371 H 1158.41 0.922151 5.26688 0
M  V30 12372 H 1158.75 -0.372805 4.14627 0
M  V30 12373 H 1159.28 1.28275 3.76551 0
M  V30 12374 H 1156.02 3.85828 5.29921 0
M  V30 12375 H 1155.54 2.1708 5.59139 0
M  V30 12376 H 1157.22 2.68732 5.88551 0
M  V30 12377 N 1157.35 -1.41121 0.701616 0
M  V30 12378 C 1158.6 -2.00733 0.234682 0
M  V30 12379 C 1158.92 -1.55869 -1.17174 0
M  V30 12380 O 1158.19 -0.791965 -1.79178 0
M  V30 12381 H 1156.77 -0.742288 0.0837745 0
M  V30 12382 H 1159.43 -1.7266 0.904127 0
M  V30 12383 H 1158.53 -3.11041 0.256831 0
M  V30 12384 N 1158.83 -0.446794 -1.51134 0
M  V30 12385 C 1159.76 0.395804 -2.25757 0
M  V30 12386 C 1160.78 0.978178 -1.30137 0
M  V30 12387 O 1161.96 0.87071 -1.55823 0
M  V30 12388 C 1159.06 1.56665 -3.00515 0
M  V30 12389 C 1158.24 1.10146 -4.23305 0
M  V30 12390 C 1157.3 2.14352 -4.80562 0
M  V30 12391 O 1156.32 1.73401 -5.42145 0
M  V30 12392 N 1157.52 3.46932 -4.65423 0
M  V30 12393 H 1160.29 -0.243808 -2.98707 0
M  V30 12394 H 1157.85 -0.276205 -1.59527 0
M  V30 12395 H 1159.84 2.26019 -3.35704 0
M  V30 12396 H 1158.41 2.11142 -2.30516 0
M  V30 12397 H 1157.63 0.234644 -3.93501 0
M  V30 12398 H 1158.92 0.768185 -5.02968 0
M  V30 12399 H 1158.32 3.82929 -4.16391 0
M  V30 12400 H 1156.88 4.12154 -5.04948 0
M  V30 12401 N 1160.31 1.56586 -0.178487 0
M  V30 12402 C 1161.26 2.1491 0.761432 0
M  V30 12403 C 1162.24 1.08528 1.18788 0
M  V30 12404 O 1163.43 1.34633 1.14904 0
M  V30 12405 C 1160.56 2.79902 1.98771 0
M  V30 12406 C 1159.65 3.93452 1.58293 0
M  V30 12407 N 1160.04 4.97942 0.888124 0
M  V30 12408 C 1158.34 4.04745 1.87343 0
M  V30 12409 C 1159.04 5.7762 0.68772 0
M  V30 12410 N 1158.02 5.2947 1.23136 0
M  V30 12411 H 1161.82 2.93063 0.221693 0
M  V30 12412 H 1159.33 1.62385 0.0219283 0
M  V30 12413 H 1161.33 3.20067 2.67138 0
M  V30 12414 H 1159.99 2.03232 2.53233 0
M  V30 12415 H 1161 5.1502 0.545387 0
M  V30 12416 H 1157.68 3.39186 2.43432 0
M  V30 12417 H 1159.07 6.71759 0.13775 0
M  V30 12418 N 1161.79 -0.095206 1.57312 0
M  V30 12419 C 1163.2 -0.449411 1.53142 0
M  V30 12420 C 1163.4 -1.80523 0.895187 0
M  V30 12421 O 1162.46 -2.47746 0.487649 0
M  V30 12422 C 1163.77 -0.412002 2.97864 0
M  V30 12423 C 1165.32 -0.493866 3.09079 0
M  V30 12424 C 1165.79 -0.486606 4.55408 0
M  V30 12425 N 1167.29 -0.547363 4.59955 0
M  V30 12426 C 1168.02 -0.563582 5.70624 0
M  V30 12427 N 1167.52 -0.536015 6.90723 0
M  V30 12428 N 1169.31 -0.608385 5.58798 0
M  V30 12429 H 1161.46 0.792869 1.97047 0
M  V30 12430 H 1163.72 0.295106 0.900898 0
M  V30 12431 H 1163.43 0.517064 3.47878 0
M  V30 12432 H 1163.3 -1.23102 3.56547 0
M  V30 12433 H 1165.69 -1.41335 2.59053 0
M  V30 12434 H 1165.77 0.353286 2.53349 0
M  V30 12435 H 1165.42 0.428935 5.06086 0
M  V30 12436 H 1165.35 -1.35097 5.08976 0
M  V30 12437 H 1167.84 -0.573867 3.73517 0
M  V30 12438 H 1168.15 -0.551671 7.70828 0
M  V30 12439 H 1166.49 -0.503064 6.93177 0
M  V30 12440 H 1169.69 -0.627451 4.63876 0
M  V30 12441 H 1169.86 -0.617556 6.45051 0
M  V30 12442 N 1163.26 -1.53291 -0.366026 0
M  V30 12443 C 1164.49 -1.73359 -1.12934 0
M  V30 12444 C 1164.91 -0.462352 -1.83051 0
M  V30 12445 O 1164.26 0.564711 -1.73543 0
M  V30 12446 C 1164.32 -2.89873 -2.15999 0
M  V30 12447 O 1164.04 -4.12079 -1.48737 0
M  V30 12448 C 1165.54 -3.21811 -3.04881 0
M  V30 12449 H 1162.76 -0.579827 -0.337701 0
M  V30 12450 H 1165.3 -2.00033 -0.425081 0
M  V30 12451 H 1163.46 -2.65595 -2.82025 0
M  V30 12452 H 1163.87 -4.77322 -2.17404 0
M  V30 12453 H 1165.34 -4.06744 -3.7318 0
M  V30 12454 H 1165.82 -2.37156 -3.69667 0
M  V30 12455 H 1166.43 -3.48013 -2.44473 0
M  V30 12456 N 1164.74 0.6258 -1.44643 0
M  V30 12457 C 1165.69 1.73751 -1.51919 0
M  V30 12458 C 1166.66 1.62007 -0.36647 0
M  V30 12459 O 1167.84 1.81852 -0.577439 0
M  V30 12460 C 1164.98 3.12015 -1.47448 0
M  V30 12461 C 1164.1 3.34696 -2.73135 0
M  V30 12462 C 1163.23 4.62962 -2.6046 0
M  V30 12463 C 1162.27 4.7884 -3.81286 0
M  V30 12464 N 1161.41 5.98388 -3.67255 0
M  V30 12465 H 1166.25 1.66867 -2.46899 0
M  V30 12466 H 1163.79 0.813921 -1.22531 0
M  V30 12467 H 1165.74 3.91983 -1.42846 0
M  V30 12468 H 1164.37 3.179 -0.560312 0
M  V30 12469 H 1163.43 2.4863 -2.87901 0
M  V30 12470 H 1164.74 3.42306 -3.62806 0
M  V30 12471 H 1163.89 5.51099 -2.53722 0
M  V30 12472 H 1162.63 4.57719 -1.68359 0
M  V30 12473 H 1161.64 3.89131 -3.88403 0
M  V30 12474 H 1162.86 4.85893 -4.74431 0
M  V30 12475 H 1160.81 5.94224 -2.77909 0
M  V30 12476 H 1160.72 6.07078 -4.50547 0
M  V30 12477 H 1161.99 6.89072 -3.64417 0
M  V30 12478 N 1166.22 1.31629 0.866686 0
M  V30 12479 C 1167.47 1.20861 1.61479 0
M  V30 12480 C 1167.78 -0.231208 1.94229 0
M  V30 12481 O 1168.99 -0.460618 2.67564 0
M  V30 12482 C 1167.44 2.11602 2.91123 0
M  V30 12483 C 1167.05 3.60598 2.65844 0
M  V30 12484 C 1168.8 2.09642 3.69121 0
M  V30 12485 C 1166.7 4.43337 3.91415 0
M  V30 12486 H 1165.63 0.448783 0.605896 0
M  V30 12487 H 1168.28 1.56507 0.958001 0
M  V30 12488 H 1166.67 1.68858 3.58194 0
M  V30 12489 H 1167.84 4.11609 2.07159 0
M  V30 12490 H 1166.16 3.64568 2.01194 0
M  V30 12491 H 1168.75 2.68701 4.62281 0
M  V30 12492 H 1169.1 1.08438 4.01929 0
M  V30 12493 H 1169.63 2.50603 3.08938 0
M  V30 12494 H 1166.37 5.45309 3.63756 0
M  V30 12495 H 1165.89 3.97083 4.49539 0
M  V30 12496 H 1167.57 4.5572 4.5927 0
M  V30 12497 N 1167.7 -1.08142 1.14644 0
M  V30 12498 C 1168.61 -2.18675 0.849607 0
M  V30 12499 C 1169.63 -1.73158 -0.170983 0
M  V30 12500 O 1170.8 -2.014 0.0011579 0
M  V30 12501 C 1167.87 -3.45084 0.334305 0
M  V30 12502 C 1166.93 -4.05213 1.41779 0
M  V30 12503 C 1166.16 -5.25588 0.926981 0
M  V30 12504 O 1166.38 -5.69934 -0.230522 0
M  V30 12505 O 1165.32 -5.77183 1.70715 0
M  V30 12506 H 1169.14 -2.46542 1.77343 0
M  V30 12507 H 1166.73 -1.17328 0.924911 0
M  V30 12508 H 1168.61 -4.21367 0.0529893 0
M  V30 12509 H 1167.29 -3.18788 -0.561755 0
M  V30 12510 H 1166.19 -3.30507 1.7526 0
M  V30 12511 H 1167.53 -4.35764 2.28847 0
M  V30 12512 N 1169.18 -0.941978 -1.26351 0
M  V30 12513 C 1170.09 -0.45833 -2.30079 0
M  V30 12514 C 1171.1 0.468084 -1.67586 0
M  V30 12515 O 1172.28 0.347418 -1.98381 0
M  V30 12516 C 1169.34 0.26797 -3.45663 0
M  V30 12517 C 1168.41 -0.695102 -4.23635 0
M  V30 12518 C 1167.64 -0.003369 -5.337 0
M  V30 12519 O 1167.86 1.21342 -5.57344 0
M  V30 12520 O 1166.8 -0.682476 -5.98018 0
M  V30 12521 H 1170.62 -1.31998 -2.73514 0
M  V30 12522 H 1168.21 -0.707897 -1.31564 0
M  V30 12523 H 1170.09 0.677061 -4.15925 0
M  V30 12524 H 1168.76 1.105 -3.04256 0
M  V30 12525 H 1167.67 -1.15415 -3.55851 0
M  V30 12526 H 1169 -1.49977 -4.68794 0
M  V30 12527 N 1170.66 1.40747 -0.709091 0
M  V30 12528 C 1171.59 2.33404 -0.0669763 0
M  V30 12529 C 1172.57 1.52546 0.752582 0
M  V30 12530 O 1173.75 1.81036 0.702823 0
M  V30 12531 C 1170.88 3.36476 0.860285 0
M  V30 12532 C 1169.84 4.27748 0.146828 0
M  V30 12533 C 1169.16 5.21304 1.18937 0
M  V30 12534 C 1170.46 5.12734 -0.995064 0
M  V30 12535 H 1172.16 2.87349 -0.840888 0
M  V30 12536 H 1169.7 1.38163 -0.405817 0
M  V30 12537 H 1171.65 4.00231 1.31883 0
M  V30 12538 H 1170.38 2.80912 1.66602 0
M  V30 12539 H 1169.04 3.65437 -0.291826 0
M  V30 12540 H 1168.69 4.62048 1.98798 0
M  V30 12541 H 1168.39 5.8321 0.716917 0
M  V30 12542 H 1169.91 5.87936 1.64815 0
M  V30 12543 H 1171.32 5.69979 -0.61618 0
M  V30 12544 H 1169.72 5.83649 -1.39547 0
M  V30 12545 H 1170.79 4.49097 -1.82867 0
M  V30 12546 N 1172.13 0.454803 1.50895 0
M  V30 12547 C 1173.55 0.108037 1.59234 0
M  V30 12548 C 1173.75 -1.38416 1.46435 0
M  V30 12549 O 1172.81 -2.15586 1.31449 0
M  V30 12550 C 1174.12 0.643721 2.93729 0
M  V30 12551 C 1175.67 0.605703 3.07083 0
M  V30 12552 C 1176.14 1.11865 4.44128 0
M  V30 12553 N 1177.63 1.07738 4.50496 0
M  V30 12554 C 1178.37 1.44495 5.54895 0
M  V30 12555 N 1177.86 1.88624 6.66628 0
M  V30 12556 N 1179.66 1.36201 5.45349 0
M  V30 12557 H 1171.81 1.4255 1.57459 0
M  V30 12558 H 1174.07 0.588504 0.743214 0
M  V30 12559 H 1173.78 1.68844 3.0852 0
M  V30 12560 H 1173.65 0.0782404 3.77119 0
M  V30 12561 H 1176.04 -0.430065 2.91949 0
M  V30 12562 H 1176.12 1.2078 2.2549 0
M  V30 12563 H 1175.76 2.15297 4.6001 0
M  V30 12564 H 1175.69 0.492933 5.24288 0
M  V30 12565 H 1178.18 0.753526 3.70311 0
M  V30 12566 H 1178.5 2.14863 7.4233 0
M  V30 12567 H 1176.84 1.92564 6.6779 0
M  V30 12568 H 1180.03 1.01579 4.56946 0
M  V30 12569 H 1180.21 1.65175 6.26595 0
M  V30 12570 N 1173.61 -1.56489 0.186789 0
M  V30 12571 C 1174.52 -2.22304 -0.749543 0
M  V30 12572 C 1175.54 -1.21949 -1.24115 0
M  V30 12573 O 1176.71 -1.5466 -1.29005 0
M  V30 12574 C 1173.78 -2.863 -1.95533 0
M  V30 12575 C 1172.84 -4.01901 -1.5091 0
M  V30 12576 C 1172.07 -4.62837 -2.6574 0
M  V30 12577 O 1172.3 -4.22681 -3.8301 0
M  V30 12578 O 1171.23 -5.52446 -2.38929 0
M  V30 12579 H 1175.06 -3.02909 -0.21908 0
M  V30 12580 H 1172.64 -1.49341 -0.0421249 0
M  V30 12581 H 1174.52 -3.2682 -2.6602 0
M  V30 12582 H 1173.2 -2.08681 -2.47455 0
M  V30 12583 H 1172.1 -3.66021 -0.773261 0
M  V30 12584 H 1173.44 -4.8116 -1.03663 0
M  V30 12585 N 1175.09 0.086862 -1.5736 0
M  V30 12586 C 1176.04 1.11134 -1.99081 0
M  V30 12587 C 1177.02 1.35318 -0.870506 0
M  V30 12588 O 1178.22 1.35871 -1.13437 0
M  V30 12589 C 1175.34 2.42931 -2.42569 0
M  V30 12590 C 1174.43 2.22085 -3.61302 0
M  V30 12591 N 1174.82 1.71128 -4.75971 0
M  V30 12592 C 1173.12 2.52619 -3.67559 0
M  V30 12593 C 1173.82 1.64745 -5.57883 0
M  V30 12594 N 1172.8 2.10257 -5.01291 0
M  V30 12595 H 1176.6 0.710431 -2.85184 0
M  V30 12596 H 1174.11 0.294168 -1.59714 0
M  V30 12597 H 1176.11 3.17069 -2.7069 0
M  V30 12598 H 1174.77 2.83751 -1.57846 0
M  V30 12599 H 1175.78 1.40207 -4.9856 0
M  V30 12600 H 1172.46 2.96908 -2.93516 0
M  V30 12601 H 1173.85 1.26329 -6.59917 0
M  V30 12602 N 1176.57 1.53483 0.357892 0
M  V30 12603 C 1177.5 1.83444 1.44466 0
M  V30 12604 C 1178.48 0.688486 1.55544 0
M  V30 12605 O 1179.66 0.93906 1.69986 0
M  V30 12606 C 1176.79 2.03122 2.81707 0
M  V30 12607 C 1175.75 3.1891 2.85448 0
M  V30 12608 C 1175.07 3.23895 4.25436 0
M  V30 12609 C 1176.37 4.57334 2.52275 0
M  V30 12610 H 1178.07 2.74456 1.19642 0
M  V30 12611 H 1175.61 1.3206 0.574112 0
M  V30 12612 H 1177.57 2.22666 3.57768 0
M  V30 12613 H 1176.29 1.08827 3.07935 0
M  V30 12614 H 1174.95 2.99199 2.11838 0
M  V30 12615 H 1174.6 2.27223 4.48753 0
M  V30 12616 H 1174.3 4.01694 4.28854 0
M  V30 12617 H 1175.82 3.45632 5.0336 0
M  V30 12618 H 1177.24 4.76988 3.1805 0
M  V30 12619 H 1175.63 5.37431 2.66998 0
M  V30 12620 H 1176.7 4.61921 1.47501 0
M  V30 12621 N 1178.05 -0.61812 1.44973 0
M  V30 12622 C 1178.98 -1.74035 1.55673 0
M  V30 12623 C 1179.96 -1.65112 0.4089 0
M  V30 12624 O 1181.14 -1.83673 0.630698 0
M  V30 12625 C 1178.27 -3.1261 1.51303 0
M  V30 12626 C 1177.23 -3.36334 2.64696 0
M  V30 12627 C 1176.55 -4.75072 2.45378 0
M  V30 12628 C 1177.85 -3.27618 4.06772 0
M  V30 12629 H 1179.55 -1.65336 2.49608 0
M  V30 12630 H 1177.09 -0.794003 1.20132 0
M  V30 12631 H 1179.04 -3.90906 1.57388 0
M  V30 12632 H 1177.77 -3.22123 0.538914 0
M  V30 12633 H 1176.43 -2.60423 2.58022 0
M  V30 12634 H 1176.08 -4.81306 1.46129 0
M  V30 12635 H 1175.78 -4.91903 3.21412 0
M  V30 12636 H 1177.3 -5.55582 2.53301 0
M  V30 12637 H 1178.71 -3.95802 4.14746 0
M  V30 12638 H 1177.11 -3.55981 4.83113 0
M  V30 12639 H 1178.18 -2.25219 4.29423 0
M  V30 12640 N 1179.52 -1.32087 -0.859693 0
M  V30 12641 C 1180.94 -1.10968 -1.14709 0
M  V30 12642 C 1181.14 0.113139 -2.01182 0
M  V30 12643 O 1180.2 0.799499 -2.39508 0
M  V30 12644 C 1181.51 -2.38657 -1.8293 0
M  V30 12645 C 1183.06 -2.44366 -1.95587 0
M  V30 12646 C 1183.53 -3.71963 -2.67222 0
M  V30 12647 N 1185.02 -3.72916 -2.7475 0
M  V30 12648 C 1185.76 -4.68346 -3.30816 0
M  V30 12649 N 1185.25 -5.74139 -3.87732 0
M  V30 12650 N 1187.05 -4.55851 -3.28872 0
M  V30 12651 H 1179.2 -2.10497 -0.283711 0
M  V30 12652 H 1181.46 -0.929108 -0.188315 0
M  V30 12653 H 1181.17 -3.2803 -1.26844 0
M  V30 12654 H 1181.04 -2.49236 -2.83128 0
M  V30 12655 H 1183.43 -1.55456 -2.50833 0
M  V30 12656 H 1183.51 -2.37744 -0.944001 0
M  V30 12657 H 1183.15 -4.61245 -2.1264 0
M  V30 12658 H 1183.08 -3.75855 -3.68837 0
M  V30 12659 H 1185.57 -2.96447 -2.34367 0
M  V30 12660 H 1185.89 -6.43021 -4.28654 0
M  V30 12661 H 1184.23 -5.779 -3.86078 0
M  V30 12662 H 1187.42 -3.72371 -2.83651 0
M  V30 12663 H 1187.6 -5.30398 -3.72266 0
M  V30 12664 N 1181 1.07532 -1.15215 0
M  V30 12665 C 1182.25 1.8052 -0.937234 0
M  V30 12666 C 1182.6 1.84954 0.530084 0
M  V30 12667 O 1181.9 1.32091 1.3879 0
M  V30 12668 C 1182.09 3.2518 -1.483 0
M  V30 12669 C 1181.92 3.34841 -3.00185 0
M  V30 12670 C 1180.69 3.45509 -3.68716 0
M  V30 12671 C 1182.89 3.25749 -3.97985 0
M  V30 12672 N 1180.87 3.44055 -5.08429 0
M  V30 12673 C 1182.24 3.31391 -5.24004 0
M  V30 12674 C 1184.29 3.09547 -3.89981 0
M  V30 12675 C 1183 3.22498 -6.42952 0
M  V30 12676 C 1185.02 3.01987 -5.08486 0
M  V30 12677 C 1184.39 3.08239 -6.33378 0
M  V30 12678 H 1180.48 0.673971 -0.396594 0
M  V30 12679 H 1183.07 1.2837 -1.46387 0
M  V30 12680 H 1181.24 3.75754 -0.983021 0
M  V30 12681 H 1182.97 3.86279 -1.20709 0
M  V30 12682 H 1179.73 3.49778 -3.193 0
M  V30 12683 H 1180.15 3.4686 -5.81392 0
M  V30 12684 H 1184.79 3.03568 -2.94289 0
M  V30 12685 H 1182.51 3.27236 -7.38879 0
M  V30 12686 H 1186.1 2.90557 -5.04051 0
M  V30 12687 H 1184.98 3.02431 -7.23537 0
M  V30 12688 N 1182.48 0.948665 1.2585 0
M  V30 12689 C 1183.73 0.59905 1.93018 0
M  V30 12690 C 1184.05 -0.865813 1.74725 0
M  V30 12691 O 1183.32 -1.61602 1.10732 0
M  V30 12692 H 1181.9 0.218565 0.71431 0
M  V30 12693 H 1184.56 1.20561 1.53137 0
M  V30 12694 H 1183.66 0.823244 3.01047 0
M  V30 12695 N 1183.96 -1.40369 0.716545 0
M  V30 12696 C 1185.21 -2.00869 0.256466 0
M  V30 12697 C 1185.53 -1.56816 -1.15061 0
M  V30 12698 O 1184.79 -0.779696 -1.79497 0
M  V30 12699 C 1185.09 -3.56257 0.285583 0
M  V30 12700 C 1184.75 -4.19897 1.64309 0
M  V30 12701 C 1183.42 -4.36994 2.01469 0
M  V30 12702 C 1185.77 -4.55385 2.53524 0
M  V30 12703 C 1183.1 -4.86862 3.27387 0
M  V30 12704 C 1185.45 -5.06653 3.78795 0
M  V30 12705 C 1184.11 -5.21959 4.16071 0
M  V30 12706 H 1183.38 -0.735033 0.0938475 0
M  V30 12707 H 1186.03 -1.67966 0.919765 0
M  V30 12708 H 1184.33 -3.89075 -0.461287 0
M  V30 12709 H 1186.03 -4.00903 -0.0882496 0
M  V30 12710 H 1182.62 -4.06978 1.34413 0
M  V30 12711 H 1186.8 -4.41811 2.2609 0
M  V30 12712 H 1182.06 -4.96897 3.56235 0
M  V30 12713 H 1186.23 -5.33089 4.48095 0
M  V30 12714 H 1183.86 -5.60362 5.1371 0
M  V30 12715 N 1185.44 -0.462799 -1.50652 0
M  V30 12716 C 1186.66 0.0929761 -2.06691 0
M  V30 12717 C 1187.08 1.34241 -1.32758 0
M  V30 12718 O 1186.44 1.78187 -0.394427 0
M  V30 12719 C 1186.49 0.389492 -3.59396 0
M  V30 12720 O 1186.21 -0.810379 -4.3054 0
M  V30 12721 C 1187.71 0.993147 -4.32032 0
M  V30 12722 H 1184.93 -0.00338664 -0.670991 0
M  V30 12723 H 1187.47 -0.649201 -1.93922 0
M  V30 12724 H 1185.63 1.08159 -3.71995 0
M  V30 12725 H 1186.04 -0.54996 -5.21609 0
M  V30 12726 H 1187.52 1.15044 -5.39878 0
M  V30 12727 H 1187.99 1.98106 -3.91983 0
M  V30 12728 H 1188.6 0.339677 -4.23941 0
M  V30 12729 N 1186.91 1.56388 -0.195085 0
M  V30 12730 C 1188.14 2.01963 0.449289 0
M  V30 12731 C 1188.56 1.07522 1.55192 0
M  V30 12732 O 1187.91 0.0800915 1.82324 0
M  V30 12733 C 1187.97 3.47231 1.00561 0
M  V30 12734 O 1187.69 4.38068 -0.0530241 0
M  V30 12735 C 1189.19 4.08324 1.72587 0
M  V30 12736 H 1186.41 0.661452 0.112792 0
M  V30 12737 H 1188.95 2.02231 -0.303788 0
M  V30 12738 H 1187.11 3.47663 1.70907 0
M  V30 12739 H 1187.52 5.23256 0.361076 0
M  V30 12740 H 1188.99 5.11821 2.06744 0
M  V30 12741 H 1189.47 3.51782 2.62956 0
M  V30 12742 H 1190.08 4.11665 1.06826 0
M  V30 12743 N 1188.39 -0.0785156 1.57404 0
M  V30 12744 C 1189.8 -0.631132 1.75709 0
M  V30 12745 C 1190.15 -1.78261 0.819605 0
M  V30 12746 O 1189.28 -2.164 0.00206912 0
M  V30 12747 C 1189.87 -1.15168 3.18625 0
M  V30 12748 C 1188.43 -1.65021 3.38297 0
M  V30 12749 C 1187.58 -0.566773 2.71446 0
M  V30 12750 H 1190.53 0.147631 1.58012 0
M  V30 12751 H 1190.55 -2.02065 3.22413 0
M  V30 12752 H 1190.06 -0.313399 3.86833 0
M  V30 12753 H 1188.17 -2.51196 2.75194 0
M  V30 12754 H 1188.28 -1.73179 4.46706 0
M  V30 12755 H 1186.64 -1.01021 2.33809 0
M  V30 12756 H 1187.43 0.261204 3.42305 0
M  V30 12757 N 1189.87 -1.5367 -0.349747 0
M  V30 12758 C 1191.15 -1.61238 -1.10732 0
M  V30 12759 C 1191.53 -0.429756 -2.06679 0
M  V30 12760 O 1190.88 0.578564 -2.21054 0
M  V30 12761 C 1191.09 -2.97022 -1.83245 0
M  V30 12762 C 1192.43 -3.52158 -2.37212 0
M  V30 12763 O 1193.46 -2.99156 -1.9335 0
M  V30 12764 O 1192.32 -4.44853 -3.1744 0
M  V30 12765 H 1189.41 -0.65191 -0.508864 0
M  V30 12766 H 1191.96 -1.66015 -0.351738 0
M  V30 12767 H 1190.73 -3.74535 -1.13311 0
M  V30 12768 H 1190.35 -2.95808 -2.65675 0
M  V30 12769 N 1191.35 0.610423 -1.45298 0
M  V30 12770 C 1192.3 1.7213 -1.53753 0
M  V30 12771 C 1193.27 1.61609 -0.383632 0
M  V30 12772 O 1194.45 1.8123 -0.596694 0
M  V30 12773 C 1191.59 3.10433 -1.50749 0
M  V30 12774 C 1190.7 3.3178 -2.76669 0
M  V30 12775 C 1189.84 4.60173 -2.65356 0
M  V30 12776 C 1188.88 4.74769 -3.86343 0
M  V30 12777 N 1188.01 5.94459 -3.73581 0
M  V30 12778 H 1192.85 1.64239 -2.48655 0
M  V30 12779 H 1190.39 0.800879 -1.23387 0
M  V30 12780 H 1192.35 3.90446 -1.46996 0
M  V30 12781 H 1190.98 3.17288 -0.593998 0
M  V30 12782 H 1190.03 2.45563 -2.90522 0
M  V30 12783 H 1191.34 3.38439 -3.66416 0
M  V30 12784 H 1190.5 5.48377 -2.59553 0
M  V30 12785 H 1189.24 4.55907 -1.73204 0
M  V30 12786 H 1188.24 3.8499 -3.92509 0
M  V30 12787 H 1189.47 4.80834 -4.79557 0
M  V30 12788 H 1187.41 5.91243 -2.84196 0
M  V30 12789 H 1187.33 6.02265 -4.5696 0
M  V30 12790 H 1188.6 6.85168 -3.71705 0
M  V30 12791 N 1192.83 1.32541 0.852676 0
M  V30 12792 C 1193.77 1.21643 1.96142 0
M  V30 12793 C 1194.74 0.0981496 1.6581 0
M  V30 12794 O 1195.93 0.27404 1.88822 0
M  V30 12795 C 1193.07 0.947483 3.31838 0
M  V30 12796 C 1192.18 2.15074 3.74656 0
M  V30 12797 C 1191.32 1.81711 4.99154 0
M  V30 12798 C 1190.36 2.98346 5.34468 0
M  V30 12799 N 1189.49 2.65062 6.50143 0
M  V30 12800 H 1194.33 2.16479 2.04795 0
M  V30 12801 H 1191.87 1.07664 1.00234 0
M  V30 12802 H 1193.83 0.772038 4.09994 0
M  V30 12803 H 1192.46 0.0359112 3.2278 0
M  V30 12804 H 1191.51 2.43639 2.92137 0
M  V30 12805 H 1192.82 3.02314 3.96747 0
M  V30 12806 H 1191.98 1.60729 5.85022 0
M  V30 12807 H 1190.71 0.916875 4.79004 0
M  V30 12808 H 1189.72 3.19956 4.47111 0
M  V30 12809 H 1190.94 3.89104 5.56574 0
M  V30 12810 H 1188.89 1.77582 6.31507 0
M  V30 12811 H 1188.81 3.45832 6.72262 0
M  V30 12812 H 1190.08 2.47516 7.39159 0
M  V30 12813 N 1194.3 -1.0692 1.15784 0
M  V30 12814 C 1195.25 -2.12473 0.826994 0
M  V30 12815 C 1196.24 -1.59766 -0.19073 0
M  V30 12816 O 1197.43 -1.76998 0.00917115 0
M  V30 12817 C 1194.56 -3.41779 0.322847 0
M  V30 12818 C 1193.65 -4.01329 1.37098 0
M  V30 12819 N 1194.04 -4.35077 2.57957 0
M  V30 12820 C 1192.33 -4.28854 1.22475 0
M  V30 12821 C 1193.04 -4.82326 3.25171 0
M  V30 12822 N 1192.01 -4.81369 2.52556 0
M  V30 12823 H 1195.81 -2.36404 1.74614 0
M  V30 12824 H 1193.33 -1.244 1.04395 0
M  V30 12825 H 1195.32 -4.16845 0.0674576 0
M  V30 12826 H 1193.98 -3.19289 -0.590311 0
M  V30 12827 H 1195 -4.25626 2.95065 0
M  V30 12828 H 1191.67 -4.15841 0.371839 0
M  V30 12829 H 1193.06 -5.17695 4.28301 0
M  V30 12830 N 1195.78 -0.955326 -1.25345 0
M  V30 12831 C 1196.71 -0.4334 -2.25065 0
M  V30 12832 C 1197.73 0.451099 -1.56425 0
M  V30 12833 O 1198.92 0.259265 -1.76607 0
M  V30 12834 C 1196.02 0.394809 -3.36592 0
M  V30 12835 C 1195.19 -0.476856 -4.34793 0
M  V30 12836 C 1194.25 0.293269 -5.25382 0
M  V30 12837 O 1193.27 -0.30857 -5.68363 0
M  V30 12838 N 1194.48 1.58617 -5.58409 0
M  V30 12839 H 1197.24 -1.29073 -2.70482 0
M  V30 12840 H 1194.8 -0.825764 -1.39258 0
M  V30 12841 H 1196.79 0.917747 -3.94157 0
M  V30 12842 H 1195.36 1.153 -2.90559 0
M  V30 12843 H 1194.58 -1.18089 -3.76097 0
M  V30 12844 H 1195.87 -1.07178 -4.97384 0
M  V30 12845 H 1195.27 2.09705 -5.25395 0
M  V30 12846 H 1193.83 2.05506 -6.18555 0
M  V30 12847 N 1197.26 1.39987 -0.723979 0
M  V30 12848 C 1198.21 2.30672 -0.0768286 0
M  V30 12849 C 1199.18 1.48634 0.741422 0
M  V30 12850 O 1200.36 1.77351 0.703649 0
M  V30 12851 C 1197.5 3.34902 0.832729 0
M  V30 12852 C 1196.62 4.32 0.00304942 0
M  V30 12853 C 1195.75 5.23298 0.91286 0
M  V30 12854 C 1194.79 6.12051 0.0777706 0
M  V30 12855 N 1193.93 6.9574 0.942912 0
M  V30 12856 H 1198.77 2.85446 -0.855832 0
M  V30 12857 H 1196.3 1.40561 -0.433718 0
M  V30 12858 H 1198.26 3.93911 1.37441 0
M  V30 12859 H 1196.89 2.81611 1.57782 0
M  V30 12860 H 1195.94 3.74702 -0.655916 0
M  V30 12861 H 1197.26 4.94637 -0.643124 0
M  V30 12862 H 1196.41 5.87279 1.52277 0
M  V30 12863 H 1195.15 4.60956 1.59284 0
M  V30 12864 H 1194.15 5.47092 -0.545022 0
M  V30 12865 H 1195.38 6.76455 -0.598827 0
M  V30 12866 H 1193.33 6.35977 1.60838 0
M  V30 12867 H 1193.24 7.55176 0.352968 0
M  V30 12868 H 1194.51 7.64162 1.53874 0
M  V30 12869 N 1198.74 0.470782 1.50404 0
M  V30 12870 C 1199.65 -0.328877 2.32283 0
M  V30 12871 C 1200.67 -0.99629 1.42654 0
M  V30 12872 O 1201.84 -0.984331 1.75707 0
M  V30 12873 C 1198.91 -1.39675 3.1732 0
M  V30 12874 C 1197.97 -0.745965 4.22769 0
M  V30 12875 C 1197.2 -1.76295 5.03742 0
M  V30 12876 O 1197.42 -2.98943 4.85788 0
M  V30 12877 O 1196.36 -1.33495 5.86909 0
M  V30 12878 H 1200.18 0.340491 3.01785 0
M  V30 12879 H 1197.77 0.232637 1.47578 0
M  V30 12880 H 1199.65 -2.0153 3.70086 0
M  V30 12881 H 1198.33 -2.04959 2.50546 0
M  V30 12882 H 1197.23 -0.0884647 3.73995 0
M  V30 12883 H 1198.57 -0.136074 4.92012 0
M  V30 12884 N 1200.22 -1.56282 0.203376 0
M  V30 12885 C 1201.63 -1.84146 -0.307752 0
M  V30 12886 C 1201.98 -1.12429 -1.60792 0
M  V30 12887 O 1201.1 -0.387852 -2.12896 0
M  V30 12888 C 1201.7 -3.34053 -0.565152 0
M  V30 12889 C 1200.26 -3.62298 -1.02063 0
M  V30 12890 C 1199.41 -2.77202 -0.0737343 0
M  V30 12891 H 1202.36 -1.52848 0.426983 0
M  V30 12892 H 1202.38 -3.53273 -1.41345 0
M  V30 12893 H 1201.89 -3.86222 0.381301 0
M  V30 12894 H 1199.99 -3.1557 -1.98107 0
M  V30 12895 H 1200.1 -4.70424 -0.907614 0
M  V30 12896 H 1198.47 -2.48074 -0.577169 0
M  V30 12897 H 1199.25 -3.32164 0.86731 0
M  V30 12898 N 1201.7 0.070167 -1.57444 0
M  V30 12899 C 1203.11 0.621805 -1.76041 0
M  V30 12900 C 1203.46 1.77824 -0.829047 0
M  V30 12901 O 1202.58 2.16396 -0.0135453 0
M  V30 12902 C 1203.18 1.13476 -3.19231 0
M  V30 12903 C 1201.74 1.63225 -3.39167 0
M  V30 12904 C 1200.88 0.552369 -2.71743 0
M  V30 12905 H 1203.83 -0.156009 -1.57931 0
M  V30 12906 H 1203.86 2.00352 -3.2348 0
M  V30 12907 H 1203.37 0.29288 -3.86993 0
M  V30 12908 H 1201.47 2.49733 -2.76522 0
M  V30 12909 H 1201.58 1.70807 -4.47618 0
M  V30 12910 H 1199.95 0.997797 -2.34342 0
M  V30 12911 H 1200.73 -0.279354 -3.42162 0
M  V30 12912 N 1203.17 1.53854 0.341593 0
M  V30 12913 C 1204.42 1.71194 1.08162 0
M  V30 12914 C 1204.75 0.47614 1.88582 0
M  V30 12915 O 1204 -0.542115 1.88041 0
M  V30 12916 C 1204.3 2.92844 2.04884 0
M  V30 12917 C 1203.97 4.28366 1.40759 0
M  V30 12918 C 1202.63 4.65214 1.23 0
M  V30 12919 C 1204.98 5.12546 0.945819 0
M  V30 12920 C 1202.31 5.83857 0.576852 0
M  V30 12921 C 1204.66 6.31857 0.306568 0
M  V30 12922 C 1203.33 6.67398 0.116677 0
M  V30 12923 H 1202.6 0.626442 0.395792 0
M  V30 12924 H 1205.24 1.88073 0.360688 0
M  V30 12925 H 1203.55 2.70576 2.83365 0
M  V30 12926 H 1205.25 3.03454 2.62139 0
M  V30 12927 H 1201.84 3.99366 1.5558 0
M  V30 12928 H 1206.02 4.84609 1.07087 0
M  V30 12929 H 1201.28 6.09967 0.418363 0
M  V30 12930 H 1205.45 6.96375 -0.0593285 0
M  V30 12931 H 1203.08 7.59191 -0.391477 0
M  V30 12932 N 1204.65 -0.602709 1.4562 0
M  V30 12933 C 1205.58 -1.72374 1.5751 0
M  V30 12934 C 1206.56 -1.64669 0.426389 0
M  V30 12935 O 1207.75 -1.82994 0.650143 0
M  V30 12936 C 1204.88 -3.10987 1.5461 0
M  V30 12937 C 1203.83 -3.33507 2.68248 0
M  V30 12938 C 1203.16 -4.72443 2.50403 0
M  V30 12939 C 1204.46 -3.23285 4.10224 0
M  V30 12940 H 1206.15 -1.62679 2.51348 0
M  V30 12941 H 1203.7 -0.781217 1.20967 0
M  V30 12942 H 1205.65 -3.89214 1.61525 0
M  V30 12943 H 1204.37 -3.21533 0.573049 0
M  V30 12944 H 1203.03 -2.57672 2.60769 0
M  V30 12945 H 1202.68 -4.79729 1.51226 0
M  V30 12946 H 1202.38 -4.88466 3.26611 0
M  V30 12947 H 1203.91 -5.52864 2.59179 0
M  V30 12948 H 1205.32 -3.91381 4.1892 0
M  V30 12949 H 1203.72 -3.50837 4.86861 0
M  V30 12950 H 1204.79 -2.20652 4.31788 0
M  V30 12951 N 1206.13 -1.32992 -0.845635 0
M  V30 12952 C 1207.38 -1.25258 -1.60256 0
M  V30 12953 C 1207.73 0.181685 -1.9154 0
M  V30 12954 O 1207.02 1.12193 -1.55316 0
M  V30 12955 C 1207.22 -2.05454 -2.92444 0
M  V30 12956 C 1207.05 -3.56533 -2.7407 0
M  V30 12957 C 1205.82 -4.25857 -2.71981 0
M  V30 12958 C 1208.01 -4.51003 -2.47186 0
M  V30 12959 N 1206 -5.6293 -2.44913 0
M  V30 12960 C 1207.37 -5.75917 -2.29607 0
M  V30 12961 C 1209.42 -4.40162 -2.32727 0
M  V30 12962 C 1208.13 -6.91214 -1.99037 0
M  V30 12963 C 1210.15 -5.55267 -2.0355 0
M  V30 12964 C 1209.51 -6.79186 -1.86777 0
M  V30 12965 H 1205.61 -0.513536 -0.58975 0
M  V30 12966 H 1208.2 -1.67458 -0.993277 0
M  V30 12967 H 1206.37 -1.65585 -3.51335 0
M  V30 12968 H 1208.1 -1.89543 -3.57569 0
M  V30 12969 H 1204.85 -3.78064 -2.85245 0
M  V30 12970 H 1205.28 -6.3517 -2.34282 0
M  V30 12971 H 1209.92 -3.44998 -2.4441 0
M  V30 12972 H 1207.64 -7.86381 -1.86091 0
M  V30 12973 H 1211.22 -5.48811 -1.93127 0
M  V30 12974 H 1210.1 -7.66748 -1.64523 0
M  V30 12975 N 1207.61 1.06304 -1.1635 0
M  V30 12976 C 1208.54 2.13209 -0.81346 0
M  V30 12977 C 1209.52 1.61174 0.21484 0
M  V30 12978 O 1210.7 1.8824 0.0989458 0
M  V30 12979 C 1207.83 3.38039 -0.211498 0
M  V30 12980 C 1206.88 4.08875 -1.21339 0
M  V30 12981 S 1207.71 4.58894 -2.76001 0
M  V30 12982 C 1208.86 5.86985 -2.17254 0
M  V30 12983 H 1209.1 2.42572 -1.7189 0
M  V30 12984 H 1206.63 1.18737 -0.986957 0
M  V30 12985 H 1208.59 4.10296 0.129349 0
M  V30 12986 H 1207.25 3.06834 0.671705 0
M  V30 12987 H 1206.44 4.98528 -0.740631 0
M  V30 12988 H 1206.04 3.42632 -1.49932 0
M  V30 12989 H 1208.34 6.59738 -1.54115 0
M  V30 12990 H 1209.28 6.38991 -3.05117 0
M  V30 12991 H 1209.69 5.41012 -1.61141 0
M  V30 12992 N 1209.09 0.96196 1.24836 0
M  V30 12993 C 1210.33 0.619489 1.92371 0
M  V30 12994 C 1210.65 -0.847233 1.75633 0
M  V30 12995 O 1209.92 -1.60419 1.12439 0
M  V30 12996 H 1208.5 0.226129 0.711951 0
M  V30 12997 H 1211.17 1.22179 1.5185 0
M  V30 12998 H 1210.26 0.855128 3.00157 0
M  V30 12999 N 1210.56 -1.39601 0.731392 0
M  V30 13000 C 1211.79 -2.0459 0.287472 0
M  V30 13001 C 1212.2 -1.5525 -1.08139 0
M  V30 13002 O 1211.54 -0.710949 -1.69385 0
M  V30 13003 C 1211.61 -3.58904 0.206948 0
M  V30 13004 C 1211.27 -4.31204 1.51368 0
M  V30 13005 C 1212.27 -4.58088 2.45869 0
M  V30 13006 C 1209.95 -4.69818 1.77698 0
M  V30 13007 C 1211.95 -5.22591 3.64935 0
M  V30 13008 C 1209.63 -5.34049 2.97043 0
M  V30 13009 C 1210.63 -5.60368 3.90483 0
M  V30 13010 O 1210.32 -6.23268 5.07732 0
M  V30 13011 H 1210.05 -0.664515 0.12408 0
M  V30 13012 H 1212.61 -1.79701 0.994814 0
M  V30 13013 H 1210.84 -3.82675 -0.556466 0
M  V30 13014 H 1212.52 -4.05385 -0.204498 0
M  V30 13015 H 1213.29 -4.28706 2.26796 0
M  V30 13016 H 1209.17 -4.48692 1.05815 0
M  V30 13017 H 1212.71 -5.43049 4.37885 0
M  V30 13018 H 1208.61 -5.62852 3.16018 0
M  V30 13019 H 1209.38 -6.41763 5.08019 0
M  V30 13020 N 1212.04 -0.478751 -1.50152 0
M  V30 13021 C 1212.95 0.316554 -2.32455 0
M  V30 13022 C 1213.97 0.98871 -1.4318 0
M  V30 13023 O 1215.14 0.974998 -1.76226 0
M  V30 13024 C 1212.21 1.3799 -3.18056 0
M  V30 13025 C 1211.27 0.723534 -4.23159 0
M  V30 13026 C 1210.5 1.73621 -5.0467 0
M  V30 13027 O 1210.73 2.96362 -4.87366 0
M  V30 13028 O 1209.66 1.30381 -5.87609 0
M  V30 13029 H 1213.49 -0.356491 -3.016 0
M  V30 13030 H 1211.07 -0.24046 -1.47452 0
M  V30 13031 H 1212.95 1.99565 -3.71149 0
M  V30 13032 H 1211.63 2.03627 -2.5163 0
M  V30 13033 H 1210.54 0.0686296 -3.74037 0
M  V30 13034 H 1211.87 0.109979 -4.92077 0
M  V30 13035 N 1213.52 1.56172 -0.211661 0
M  V30 13036 C 1214.45 2.22843 0.697375 0
M  V30 13037 C 1215.43 1.19689 1.20866 0
M  V30 13038 O 1216.62 1.48245 1.25447 0
M  V30 13039 C 1213.75 2.90067 1.90993 0
M  V30 13040 C 1212.7 3.99608 1.5329 0
M  V30 13041 C 1212.03 4.54078 2.82343 0
M  V30 13042 C 1213.33 5.17169 0.730333 0
M  V30 13043 H 1215.02 2.99065 0.141533 0
M  V30 13044 H 1212.57 1.43846 0.0666337 0
M  V30 13045 H 1214.52 3.35396 2.55123 0
M  V30 13046 H 1213.24 2.11276 2.49058 0
M  V30 13047 H 1211.9 3.54995 0.915115 0
M  V30 13048 H 1211.55 3.72029 3.38531 0
M  V30 13049 H 1211.25 5.28001 2.57853 0
M  V30 13050 H 1212.77 5.02119 3.47432 0
M  V30 13051 H 1214.19 5.5894 1.2751 0
M  V30 13052 H 1212.59 5.97262 0.582916 0
M  V30 13053 H 1213.66 4.84174 -0.265157 0
M  V30 13054 N 1215 -0.0618163 1.57479 0
M  V30 13055 C 1215.95 -1.07953 2.00824 0
M  V30 13056 C 1216.93 -1.33916 0.891924 0
M  V30 13057 O 1218.12 -1.3405 1.15584 0
M  V30 13058 C 1215.25 -2.39041 2.46403 0
M  V30 13059 C 1214.34 -2.16309 3.64789 0
M  V30 13060 N 1214.73 -1.63534 4.78634 0
M  V30 13061 C 1213.03 -2.46739 3.71531 0
M  V30 13062 C 1213.73 -1.55849 5.60434 0
M  V30 13063 N 1212.71 -2.02255 5.04573 0
M  V30 13064 H 1216.51 -0.66497 2.86278 0
M  V30 13065 H 1214.02 -0.268722 1.60161 0
M  V30 13066 H 1216.02 -3.12722 2.757 0
M  V30 13067 H 1214.68 -2.81204 1.6234 0
M  V30 13068 H 1215.69 -1.32258 5.00728 0
M  V30 13069 H 1212.37 -2.92201 2.98203 0
M  V30 13070 H 1213.76 -1.15814 6.61843 0
M  V30 13071 N 1216.48 -1.54033 -0.333429 0
M  V30 13072 C 1217.89 -1.63107 -0.908455 0
M  V30 13073 C 1218.24 -0.518823 -1.89216 0
M  V30 13074 O 1217.36 0.34985 -2.13553 0
M  V30 13075 C 1217.96 -2.95657 -1.65447 0
M  V30 13076 C 1216.52 -3.0696 -2.17836 0
M  V30 13077 C 1215.66 -2.58617 -1.00063 0
M  V30 13078 H 1218.62 -1.58309 -0.11128 0
M  V30 13079 H 1218.64 -2.85263 -2.51804 0
M  V30 13080 H 1218.15 -3.76588 -0.938263 0
M  V30 13081 H 1216.25 -2.30683 -2.92602 0
M  V30 13082 H 1216.36 -4.12599 -2.43513 0
M  V30 13083 H 1214.73 -2.1427 -1.37697 0
M  V30 13084 H 1215.51 -3.41996 -0.298901 0
M  V30 13085 N 1217.95 0.594978 -1.45938 0
M  V30 13086 C 1219.23 1.35477 -1.41086 0
M  V30 13087 C 1219.61 2.10917 -0.0879512 0
M  V30 13088 O 1218.96 2.08704 0.930323 0
M  V30 13089 C 1219.17 2.29106 -2.63271 0
M  V30 13090 C 1220.52 2.9132 -3.08898 0
M  V30 13091 O 1221.54 2.39423 -2.63733 0
M  V30 13092 O 1220.4 3.85553 -3.87313 0
M  V30 13093 H 1217.49 0.6081 -0.560485 0
M  V30 13094 H 1220.04 0.617016 -1.58085 0
M  V30 13095 H 1218.81 1.72707 -3.51124 0
M  V30 13096 H 1218.44 3.10241 -2.48669 0
M  V30 13097 N 1219.43 1.33438 0.838571 0
M  V30 13098 C 1220.38 1.23717 1.94841 0
M  V30 13099 C 1221.35 0.11573 1.65696 0
M  V30 13100 O 1222.53 0.294051 1.8852 0
M  V30 13101 C 1219.67 0.982626 3.30815 0
M  V30 13102 C 1218.79 2.19036 3.72354 0
M  V30 13103 C 1217.92 1.86995 4.97199 0
M  V30 13104 C 1216.96 3.03998 5.31274 0
M  V30 13105 N 1216.1 2.71943 6.47295 0
M  V30 13106 H 1220.94 2.18639 2.02487 0
M  V30 13107 H 1218.48 1.08721 0.990861 0
M  V30 13108 H 1220.43 0.81548 4.09152 0
M  V30 13109 H 1219.06 0.0701443 3.22724 0
M  V30 13110 H 1218.12 2.46724 2.89537 0
M  V30 13111 H 1219.43 3.06505 3.93518 0
M  V30 13112 H 1218.58 1.66925 5.83285 0
M  V30 13113 H 1217.32 0.967628 4.78004 0
M  V30 13114 H 1216.33 3.24681 4.43692 0
M  V30 13115 H 1217.55 3.94985 5.52416 0
M  V30 13116 H 1215.5 1.8427 6.29588 0
M  V30 13117 H 1215.41 3.52943 6.68556 0
M  V30 13118 H 1216.68 2.55342 7.36492 0
M  V30 13119 N 1220.91 -1.05686 1.16912 0
M  V30 13120 C 1222.16 -1.79006 0.965835 0
M  V30 13121 C 1222.51 -1.85774 -0.500593 0
M  V30 13122 O 1221.8 -1.34282 -1.3667 0
M  V30 13123 C 1222 -3.22779 1.53455 0
M  V30 13124 C 1221.83 -3.30023 3.05474 0
M  V30 13125 C 1220.6 -3.396 3.74166 0
M  V30 13126 C 1222.8 -3.19376 4.03117 0
M  V30 13127 N 1220.78 -3.35923 5.13838 0
M  V30 13128 C 1222.15 -3.23013 5.2921 0
M  V30 13129 C 1224.2 -3.03304 3.94856 0
M  V30 13130 C 1222.91 -3.12228 6.48002 0
M  V30 13131 C 1224.93 -2.93859 5.13226 0
M  V30 13132 C 1224.29 -2.98124 6.38202 0
M  V30 13133 H 1220.39 -0.667577 0.407266 0
M  V30 13134 H 1222.98 -1.26025 1.48411 0
M  V30 13135 H 1221.15 -3.74143 1.04268 0
M  V30 13136 H 1222.88 -3.8431 1.26839 0
M  V30 13137 H 1219.64 -3.44654 3.24824 0
M  V30 13138 H 1220.06 -3.37567 5.86837 0
M  V30 13139 H 1224.7 -2.98848 2.99081 0
M  V30 13140 H 1222.42 -3.15439 7.43992 0
M  V30 13141 H 1226.01 -2.82501 5.0861 0
M  V30 13142 H 1224.89 -2.90882 7.28256 0
M  V30 13143 N 1222.39 -0.968567 -1.24324 0
M  V30 13144 C 1223.62 -0.648568 -1.96472 0
M  V30 13145 C 1224.03 0.782168 -1.71836 0
M  V30 13146 O 1223.39 1.5249 -1.00265 0
M  V30 13147 C 1223.44 -0.91482 -3.49733 0
M  V30 13148 O 1223.16 -2.28931 -3.73527 0
M  V30 13149 C 1224.66 -0.609131 -4.39095 0
M  V30 13150 H 1221.88 -0.241921 -0.625872 0
M  V30 13151 H 1224.43 -1.29673 -1.5813 0
M  V30 13152 H 1222.58 -0.31285 -3.86135 0
M  V30 13153 H 1222.99 -2.36998 -4.67902 0
M  V30 13154 H 1224.47 -0.845875 -5.4548 0
M  V30 13155 H 1224.95 0.456625 -4.3682 0
M  V30 13156 H 1225.55 -1.19105 -4.08282 0
M  V30 13157 N 1223.87 1.39211 -0.738786 0
M  V30 13158 C 1225.11 2.00733 -0.288817 0
M  V30 13159 C 1225.45 1.58494 1.1222 0
M  V30 13160 O 1224.72 0.815579 1.76575 0
M  V30 13161 C 1225 3.57928 -0.394956 0
M  V30 13162 C 1224.86 4.10174 -1.84601 0
M  V30 13163 C 1226.18 4.39548 0.220395 0
M  V30 13164 H 1223.29 0.729276 -0.106418 0
M  V30 13165 H 1225.94 1.65365 -0.935652 0
M  V30 13166 H 1224.09 3.88188 0.155744 0
M  V30 13167 H 1225.76 3.90618 -2.45388 0
M  V30 13168 H 1224 3.63593 -2.36607 0
M  V30 13169 H 1224.67 5.19305 -1.87152 0
M  V30 13170 H 1227.15 4.15354 -0.249098 0
M  V30 13171 H 1226.02 5.48778 0.115806 0
M  V30 13172 H 1226.29 4.22341 1.30691 0
M  V30 13173 N 1225.34 0.486708 1.49896 0
M  V30 13174 C 1226.28 -0.335809 2.26727 0
M  V30 13175 C 1227.29 -0.94333 1.32684 0
M  V30 13176 O 1228.48 -0.82909 1.58077 0
M  V30 13177 C 1225.58 -1.48642 3.04563 0
M  V30 13178 C 1224.75 -0.988837 4.26076 0
M  V30 13179 C 1223.81 -2.01535 4.86076 0
M  V30 13180 O 1222.84 -1.58966 5.46552 0
M  V30 13181 N 1224.04 -3.34471 4.74457 0
M  V30 13182 H 1226.8 0.322919 2.97955 0
M  V30 13183 H 1224.36 0.318403 1.58738 0
M  V30 13184 H 1226.36 -2.17039 3.41579 0
M  V30 13185 H 1224.93 -2.04956 2.36033 0
M  V30 13186 H 1224.15 -0.130232 3.93985 0
M  V30 13187 H 1225.43 -0.634562 5.04827 0
M  V30 13188 H 1224.83 -3.71755 4.26398 0
M  V30 13189 H 1223.39 -3.98621 5.15698 0
M  V30 13190 N 1226.82 -1.56058 0.219941 0
M  V30 13191 C 1228.05 -2.031 -0.42014 0
M  V30 13192 C 1228.47 -1.09875 -1.52673 0
M  V30 13193 O 1227.83 -0.0866458 -1.81093 0
M  V30 13194 C 1227.88 -3.48389 -0.93047 0
M  V30 13195 O 1226.98 -3.583 -2.04192 0
M  V30 13196 H 1226.32 -0.657129 -0.0952772 0
M  V30 13197 H 1228.85 -2.01787 0.338105 0
M  V30 13198 H 1228.86 -3.88678 -1.2407 0
M  V30 13199 H 1227.54 -4.15725 -0.120539 0
M  V30 13200 H 1226.12 -3.29898 -1.73845 0
M  V30 13201 N 1228.3 0.053464 -1.57509 0
M  V30 13202 C 1229.55 0.748016 -1.87317 0
M  V30 13203 C 1229.86 1.77805 -0.815161 0
M  V30 13204 O 1231.07 2.52347 -1.00167 0
M  V30 13205 C 1229.53 1.38137 -3.32334 0
M  V30 13206 C 1229.13 0.388958 -4.46308 0
M  V30 13207 C 1230.88 2.05722 -3.7132 0
M  V30 13208 C 1228.78 1.02927 -5.82374 0
M  V30 13209 H 1227.71 0.283123 -0.698826 0
M  V30 13210 H 1230.37 0.00170723 -1.835 0
M  V30 13211 H 1228.75 2.17656 -3.3082 0
M  V30 13212 H 1229.92 -0.377752 -4.59249 0
M  V30 13213 H 1228.24 -0.183447 -4.15996 0
M  V30 13214 H 1230.83 2.54437 -4.70283 0
M  V30 13215 H 1231.18 2.86475 -3.02056 0
M  V30 13216 H 1231.71 1.3301 -3.74904 0
M  V30 13217 H 1228.45 0.261674 -6.54977 0
M  V30 13218 H 1227.97 1.7664 -5.732 0
M  V30 13219 H 1229.65 1.54378 -6.28312 0
M  V30 13220 N 1229.78 1.54207 0.325255 0
M  V30 13221 C 1230.73 1.83474 1.40021 0
M  V30 13222 C 1231.7 0.681719 1.51466 0
M  V30 13223 O 1232.88 0.92798 1.66713 0
M  V30 13224 C 1230.02 2.06624 2.76407 0
M  V30 13225 C 1229.13 3.3431 2.73607 0
M  V30 13226 C 1228.27 3.4743 4.01828 0
M  V30 13227 C 1227.31 4.68997 3.93329 0
M  V30 13228 N 1226.45 4.79052 5.13277 0
M  V30 13229 H 1231.29 2.75182 1.14363 0
M  V30 13230 H 1228.82 1.36284 0.553639 0
M  V30 13231 H 1230.78 2.18037 3.5569 0
M  V30 13232 H 1229.41 1.18209 3.00377 0
M  V30 13233 H 1228.46 3.31643 1.86324 0
M  V30 13234 H 1229.77 4.237 2.6321 0
M  V30 13235 H 1228.93 3.58376 4.89542 0
M  V30 13236 H 1227.67 2.56128 4.1503 0
M  V30 13237 H 1226.67 4.58109 3.04 0
M  V30 13238 H 1227.9 5.61681 3.81695 0
M  V30 13239 H 1225.84 3.90666 5.26988 0
M  V30 13240 H 1225.76 5.62406 5.05208 0
M  V30 13241 H 1227.03 4.94328 6.02711 0
M  V30 13242 N 1231.26 -0.58723 1.46251 0
M  V30 13243 C 1232.19 -1.70694 1.5933 0
M  V30 13244 C 1233.17 -1.64208 0.443831 0
M  V30 13245 O 1234.35 -1.82294 0.669516 0
M  V30 13246 C 1231.48 -3.0933 1.579 0
M  V30 13247 C 1230.44 -3.30643 2.7177 0
M  V30 13248 C 1229.76 -4.69761 2.554 0
M  V30 13249 C 1231.06 -3.18916 4.1363 0
M  V30 13250 H 1232.76 -1.60004 2.53059 0
M  V30 13251 H 1230.3 -0.768343 1.21789 0
M  V30 13252 H 1232.26 -3.87479 1.65644 0
M  V30 13253 H 1230.98 -3.20907 0.60712 0
M  V30 13254 H 1229.64 -2.54892 2.63488 0
M  V30 13255 H 1229.29 -4.78098 1.56306 0
M  V30 13256 H 1228.99 -4.84974 3.31774 0
M  V30 13257 H 1230.51 -5.50084 2.65028 0
M  V30 13258 H 1231.93 -3.86915 4.23048 0
M  V30 13259 H 1230.32 -3.45653 4.90555 0
M  V30 13260 H 1231.39 -2.1606 4.34104 0
M  V30 13261 N 1232.74 -1.33881 -0.831482 0
M  V30 13262 C 1234.15 -1.23112 -1.40358 0
M  V30 13263 C 1234.5 0.146944 -1.95649 0
M  V30 13264 O 1233.62 1.04689 -1.89391 0
M  V30 13265 C 1234.22 -2.22899 -2.5515 0
M  V30 13266 C 1232.78 -2.15946 -3.08292 0
M  V30 13267 C 1231.92 -2.09975 -1.81124 0
M  V30 13268 H 1234.87 -1.45372 -0.63661 0
M  V30 13269 H 1234.9 -1.841 -3.32997 0
M  V30 13270 H 1234.41 -3.23186 -2.14878 0
M  V30 13271 H 1232.51 -1.18987 -3.53091 0
M  V30 13272 H 1232.62 -3.06822 -3.67964 0
M  V30 13273 H 1230.99 -1.55564 -2.01673 0
M  V30 13274 H 1231.77 -3.12082 -1.43037 0
M  V30 13275 N 1234.21 1.05064 -1.1747 0
M  V30 13276 C 1235.12 2.16346 -0.907286 0
M  V30 13277 C 1236.14 1.7355 0.125013 0
M  V30 13278 O 1237.32 2.01326 -0.0545551 0
M  V30 13279 C 1234.38 3.44077 -0.425681 0
M  V30 13280 C 1233.44 4.01311 -1.52473 0
M  V30 13281 C 1232.67 5.22946 -1.06601 0
M  V30 13282 O 1232.9 5.70345 0.0793329 0
M  V30 13283 O 1231.83 5.72454 -1.85958 0
M  V30 13284 H 1235.66 2.41754 -1.83817 0
M  V30 13285 H 1233.24 1.14834 -0.955693 0
M  V30 13286 H 1235.12 4.21078 -0.164689 0
M  V30 13287 H 1233.8 3.20166 0.477037 0
M  V30 13288 H 1232.71 3.25744 -1.83961 0
M  V30 13289 H 1234.04 4.29543 -2.4032 0
M  V30 13290 N 1235.69 0.975146 1.23809 0
M  V30 13291 C 1236.64 0.510761 2.25077 0
M  V30 13292 C 1237.61 -0.447605 1.59955 0
M  V30 13293 O 1238.79 -0.356318 1.87443 0
M  V30 13294 C 1235.93 -0.185755 3.446 0
M  V30 13295 C 1235.05 0.812254 4.24295 0
M  V30 13296 C 1234.18 0.0910835 5.31122 0
M  V30 13297 C 1233.22 1.07866 6.02521 0
M  V30 13298 N 1232.36 0.386995 7.01033 0
M  V30 13299 H 1237.2 1.37913 2.64166 0
M  V30 13300 H 1234.73 0.691184 1.2985 0
M  V30 13301 H 1236.69 -0.606341 4.1277 0
M  V30 13302 H 1235.32 -1.01803 3.06327 0
M  V30 13303 H 1234.37 1.35125 3.55592 0
M  V30 13304 H 1235.69 1.56502 4.73612 0
M  V30 13305 H 1234.84 -0.387129 6.05464 0
M  V30 13306 H 1233.58 -0.694324 4.82732 0
M  V30 13307 H 1232.58 1.56767 5.26976 0
M  V30 13308 H 1233.81 1.86464 6.52999 0
M  V30 13309 H 1231.76 -0.3793 6.54903 0
M  V30 13310 H 1231.67 1.0785 7.48268 0
M  V30 13311 H 1232.94 -0.0690036 7.79469 0
M  V30 13312 N 1237.17 -1.38817 0.746158 0
M  V30 13313 C 1238.08 -2.34316 0.115386 0
M  V30 13314 C 1239.1 -1.58892 -0.709179 0
M  V30 13315 O 1240.27 -1.91126 -0.635059 0
M  V30 13316 C 1237.34 -3.37977 -0.772821 0
M  V30 13317 C 1236.4 -4.2925 0.0652679 0
M  V30 13318 C 1235.63 -5.2796 -0.78064 0
M  V30 13319 O 1235.85 -5.33474 -2.01896 0
M  V30 13320 O 1234.79 -6.01556 -0.20338 0
M  V30 13321 H 1238.61 -2.89937 0.903887 0
M  V30 13322 H 1236.2 -1.40536 0.506958 0
M  V30 13323 H 1238.08 -4.01468 -1.28068 0
M  V30 13324 H 1236.76 -2.84723 -1.53994 0
M  V30 13325 H 1235.66 -3.68945 0.61891 0
M  V30 13326 H 1237 -4.85739 0.794871 0
M  V30 13327 N 1238.65 -0.49465 -1.49636 0
M  V30 13328 C 1239.87 0.051305 -2.07337 0
M  V30 13329 C 1240.3 1.30637 -1.35335 0
M  V30 13330 O 1239.66 1.76647 -0.408126 0
M  V30 13331 C 1239.7 0.294425 -3.59396 0
M  V30 13332 O 1238.81 1.3704 -3.88965 0
M  V30 13333 H 1238.15 -0.023408 -0.663587 0
M  V30 13334 H 1240.68 -0.692451 -1.92526 0
M  V30 13335 H 1240.69 0.527854 -4.04571 0
M  V30 13336 H 1239.36 -0.622583 -4.11214 0
M  V30 13337 H 1237.94 1.12242 -3.55607 0
M  V30 13338 N 1240.13 1.55939 -0.228214 0
M  V30 13339 C 1241.37 1.99518 0.395485 0
M  V30 13340 C 1241.73 1.11339 1.56912 0
M  V30 13341 O 1241.02 0.164788 1.9089 0
M  V30 13342 C 1241.21 3.46581 0.872732 0
M  V30 13343 C 1241.04 4.48987 -0.253122 0
M  V30 13344 C 1239.81 5.0012 -0.721702 0
M  V30 13345 C 1242.01 5.02967 -1.0737 0
M  V30 13346 N 1239.99 5.86242 -1.82192 0
M  V30 13347 C 1241.36 5.86079 -2.02265 0
M  V30 13348 C 1243.42 4.85315 -1.11238 0
M  V30 13349 C 1242.12 6.53424 -3.00716 0
M  V30 13350 C 1244.15 5.53423 -2.0851 0
M  V30 13351 C 1243.51 6.36308 -3.02144 0
M  V30 13352 H 1239.61 0.774053 0.1112 0
M  V30 13353 H 1242.19 1.91681 -0.341512 0
M  V30 13354 H 1240.36 3.54852 1.57907 0
M  V30 13355 H 1242.1 3.77066 1.46981 0
M  V30 13356 H 1238.85 4.7259 -0.309119 0
M  V30 13357 H 1239.27 6.34003 -2.37423 0
M  V30 13358 H 1243.92 4.20881 -0.402389 0
M  V30 13359 H 1241.63 7.17035 -3.72674 0
M  V30 13360 H 1245.22 5.41727 -2.12186 0
M  V30 13361 H 1244.1 6.88081 -3.76183 0
M  V30 13362 N 1241.6 -0.0451101 1.57535 0
M  V30 13363 C 1242.83 -0.75132 1.92777 0
M  V30 13364 C 1243.25 -1.69743 0.826599 0
M  V30 13365 O 1242.6 -1.8142 -0.198224 0
M  V30 13366 C 1242.66 -1.52218 3.2789 0
M  V30 13367 O 1242.38 -0.614059 4.33775 0
M  V30 13368 C 1243.88 -2.32699 3.77314 0
M  V30 13369 H 1241.1 -0.21211 0.636593 0
M  V30 13370 H 1243.64 -0.0074174 2.04499 0
M  V30 13371 H 1241.8 -2.2181 3.17614 0
M  V30 13372 H 1242.21 -1.15294 5.11671 0
M  V30 13373 H 1243.68 -2.82205 4.7441 0
M  V30 13374 H 1244.16 -3.13414 3.07682 0
M  V30 13375 H 1244.77 -1.68212 3.90621 0
M  V30 13376 N 1243.08 -1.54377 -0.317073 0
M  V30 13377 C 1244.33 -1.73149 -1.05581 0
M  V30 13378 C 1244.66 -0.507176 -1.8746 0
M  V30 13379 O 1243.94 0.495837 -1.88074 0
M  V30 13380 C 1244.22 -3.01098 -1.97515 0
M  V30 13381 C 1244.07 -4.33794 -1.18922 0
M  V30 13382 C 1245.39 -3.24831 -2.9694 0
M  V30 13383 H 1242.51 -0.630011 -0.382434 0
M  V30 13384 H 1245.15 -1.87079 -0.331873 0
M  V30 13385 H 1243.3 -2.89352 -2.59244 0
M  V30 13386 H 1244.97 -4.57433 -0.596039 0
M  V30 13387 H 1243.22 -4.31005 -0.491612 0
M  V30 13388 H 1243.89 -5.19554 -1.86462 0
M  V30 13389 H 1246.36 -3.3608 -2.45335 0
M  V30 13390 H 1245.24 -4.15702 -3.58445 0
M  V30 13391 H 1245.5 -2.42365 -3.69745 0
M  V30 13392 N 1244.56 0.579466 -1.4656 0
M  V30 13393 C 1245.51 1.70937 -1.57744 0
M  V30 13394 C 1246.5 1.6343 -0.44577 0
M  V30 13395 O 1247.71 1.68884 -0.622762 0
M  V30 13396 H 1244.08 0.565218 -0.496017 0
M  V30 13397 H 1246.05 1.58636 -2.52739 0
M  V30 13398 C 1244.8 3.09321 -1.58794 0
M  V30 13399 H 1244.13 3.1577 -2.45213 0
M  V30 13400 H 1245.57 3.88132 -1.70674 0
M  V30 13401 C 1244.03 3.35404 -0.317165 0
M  V30 13402 O 1244.56 3.97325 0.591228 0
M  V30 13403 N 1242.76 2.89883 -0.204071 0
M  V30 13404 H 1242.31 2.39672 -0.944194 0
M  V30 13405 H 1242.27 3.07706 0.645303 0
M  V30 13406 N 1246.04 1.3432 0.824371 0
M  V30 13407 C 1247.32 1.17178 1.56616 0
M  V30 13408 C 1247.7 -0.256195 2.0954 0
M  V30 13409 O 1247.04 -1.25732 1.90798 0
M  V30 13410 C 1247.25 2.22511 2.68867 0
M  V30 13411 C 1248.6 2.57414 3.37673 0
M  V30 13412 O 1249.63 2.2129 2.79122 0
M  V30 13413 O 1248.48 3.19462 4.43403 0
M  V30 13414 H 1245.58 0.454141 0.691147 0
M  V30 13415 H 1248.12 1.45948 0.865869 0
M  V30 13416 H 1246.9 3.18366 2.27505 0
M  V30 13417 H 1246.52 1.9491 3.46548 0
M  V30 13418 N 1247.52 -1.0444 1.18026 0
M  V30 13419 C 1248.77 -1.7697 0.9677 0
M  V30 13420 C 1249.08 -1.88995 -0.503994 0
M  V30 13421 O 1250.28 -2.58342 -0.834968 0
M  V30 13422 C 1248.74 -3.1816 1.68232 0
M  V30 13423 C 1248.35 -3.14241 3.19307 0
M  V30 13424 C 1250.09 -3.95095 1.55244 0
M  V30 13425 C 1248 -4.50266 3.83425 0
M  V30 13426 H 1246.93 -0.663355 0.358436 0
M  V30 13427 H 1249.58 -1.17003 1.4136 0
M  V30 13428 H 1247.96 -3.78501 1.16418 0
M  V30 13429 H 1249.14 -2.63373 3.78115 0
M  V30 13430 H 1247.45 -2.50805 3.32394 0
M  V30 13431 H 1250.05 -4.95681 2.00511 0
M  V30 13432 H 1250.39 -4.13236 0.504125 0
M  V30 13433 H 1250.92 -3.4132 2.04317 0
M  V30 13434 H 1247.66 -4.37329 4.88286 0
M  V30 13435 H 1247.18 -5.01251 3.29404 0
M  V30 13436 H 1248.86 -5.1919 3.86071 0
M  V30 13437 N 1248.99 -0.981699 -1.2329 0
M  V30 13438 C 1249.93 -0.481042 -2.24095 0
M  V30 13439 C 1250.94 0.417818 -1.57347 0
M  V30 13440 O 1252.13 0.221746 -1.77117 0
M  V30 13441 C 1249.23 0.323324 -3.37354 0
M  V30 13442 C 1248.4 -0.568975 -4.33684 0
M  V30 13443 C 1247.46 0.181761 -5.25886 0
M  V30 13444 O 1246.49 -0.429059 -5.67581 0
M  V30 13445 N 1247.69 1.46737 -5.61648 0
M  V30 13446 H 1250.45 -1.34781 -2.67683 0
M  V30 13447 H 1248.01 -0.855117 -1.37475 0
M  V30 13448 H 1250.01 0.833934 -3.96015 0
M  V30 13449 H 1248.58 1.09111 -2.9294 0
M  V30 13450 H 1247.8 -1.2604 -3.73507 0
M  V30 13451 H 1249.08 -1.17704 -4.94998 0
M  V30 13452 H 1248.48 1.98513 -5.29725 0
M  V30 13453 H 1247.04 1.92339 -6.22775 0
M  V30 13454 N 1250.47 1.3842 -0.753509 0
M  V30 13455 C 1251.42 2.30457 -0.12574 0
M  V30 13456 C 1252.39 1.50173 0.709728 0
M  V30 13457 O 1253.57 1.78804 0.665872 0
M  V30 13458 C 1250.71 3.36593 0.761503 0
M  V30 13459 C 1249.83 4.31909 -0.0885848 0
M  V30 13460 C 1248.96 5.25116 0.801655 0
M  V30 13461 C 1248 6.12078 -0.0520719 0
M  V30 13462 N 1247.14 6.97583 0.795124 0
M  V30 13463 H 1251.98 2.83567 -0.916187 0
M  V30 13464 H 1249.52 1.39609 -0.463436 0
M  V30 13465 H 1251.47 3.96738 1.29054 0
M  V30 13466 H 1250.1 2.84894 1.51774 0
M  V30 13467 H 1249.16 3.73227 -0.735249 0
M  V30 13468 H 1250.47 4.93161 -0.747899 0
M  V30 13469 H 1249.62 5.90377 1.39786 0
M  V30 13470 H 1248.36 4.6423 1.4947 0
M  V30 13471 H 1247.37 5.45813 -0.660946 0
M  V30 13472 H 1248.59 6.75032 -0.742178 0
M  V30 13473 H 1246.54 6.39246 1.47312 0
M  V30 13474 H 1246.45 7.55754 0.192705 0
M  V30 13475 H 1247.72 7.67254 1.3763 0
M  V30 13476 N 1251.95 0.502579 1.49372 0
M  V30 13477 C 1252.88 -0.264307 2.31999 0
M  V30 13478 C 1253.86 -0.96107 1.40348 0
M  V30 13479 O 1255.05 -0.952167 1.69255 0
M  V30 13480 C 1252.18 -1.32822 3.20898 0
M  V30 13481 C 1251.13 -0.751236 4.21355 0
M  V30 13482 C 1250.46 -1.91578 4.99201 0
M  V30 13483 C 1251.76 0.258764 5.21659 0
M  V30 13484 H 1253.45 0.425391 2.96363 0
M  V30 13485 H 1251 0.206022 1.42519 0
M  V30 13486 H 1252.95 -1.87245 3.77515 0
M  V30 13487 H 1251.67 -2.04712 2.54481 0
M  V30 13488 H 1250.33 -0.228743 3.65886 0
M  V30 13489 H 1249.98 -2.62241 4.2923 0
M  V30 13490 H 1249.68 -1.53578 5.67175 0
M  V30 13491 H 1251.2 -2.46432 5.58663 0
M  V30 13492 H 1252.62 -0.197385 5.7296 0
M  V30 13493 H 1251.02 0.554681 5.97531 0
M  V30 13494 H 1252.09 1.1741 4.70471 0
M  V30 13495 N 1253.43 -1.55816 0.23648 0
M  V30 13496 C 1254.67 -1.98981 -0.391725 0
M  V30 13497 C 1255.01 -1.12428 -1.58346 0
M  V30 13498 O 1254.28 -0.185303 -1.93615 0
M  V30 13499 C 1254.57 -3.50831 -0.811759 0
M  V30 13500 C 1254.42 -4.48152 0.384648 0
M  V30 13501 C 1255.74 -4.07489 -1.66254 0
M  V30 13502 H 1252.86 -0.723404 -0.140911 0
M  V30 13503 H 1255.5 -1.87011 0.335706 0
M  V30 13504 H 1253.65 -3.61162 -1.43157 0
M  V30 13505 H 1255.32 -4.49814 1.02298 0
M  V30 13506 H 1253.56 -4.21406 1.02955 0
M  V30 13507 H 1254.23 -5.51979 0.0475809 0
M  V30 13508 H 1256.71 -4.00195 -1.13944 0
M  V30 13509 H 1255.59 -5.14026 -1.92531 0
M  V30 13510 H 1255.85 -3.55297 -2.6309 0
M  V30 13511 N 1254.91 0.036755 -1.57557 0
M  V30 13512 C 1256.15 0.727665 -1.88546 0
M  V30 13513 C 1256.48 1.76304 -0.833179 0
M  V30 13514 O 1255.75 1.9544 0.13414 0
M  V30 13515 H 1254.33 0.271744 -0.695819 0
M  V30 13516 H 1256.99 0.00452915 -1.94899 0
M  V30 13517 H 1256.08 1.22205 -2.8718 0
M  V30 13518 N 1256.39 1.54543 0.308881 0
M  V30 13519 C 1257.33 1.84949 1.38067 0
M  V30 13520 C 1258.3 0.697746 1.50734 0
M  V30 13521 O 1259.49 0.94561 1.65719 0
M  V30 13522 C 1256.63 2.09544 2.74199 0
M  V30 13523 C 1255.74 3.37193 2.70046 0
M  V30 13524 C 1254.88 3.51672 3.98121 0
M  V30 13525 C 1253.91 4.73143 3.88333 0
M  V30 13526 N 1253.05 4.84469 5.08167 0
M  V30 13527 H 1257.89 2.76379 1.11438 0
M  V30 13528 H 1255.43 1.36863 0.539153 0
M  V30 13529 H 1257.39 2.21798 3.53358 0
M  V30 13530 H 1256.02 1.21389 2.99106 0
M  V30 13531 H 1255.07 3.33601 1.82796 0
M  V30 13532 H 1256.38 4.26468 2.58701 0
M  V30 13533 H 1255.53 3.63548 4.85714 0
M  V30 13534 H 1254.27 2.60516 4.1229 0
M  V30 13535 H 1253.28 4.61308 2.99124 0
M  V30 13536 H 1254.5 5.65698 3.75716 0
M  V30 13537 H 1252.45 3.96234 5.22814 0
M  V30 13538 H 1252.37 5.67733 4.99215 0
M  V30 13539 H 1253.63 5.00693 5.97434 0
M  V30 13540 N 1257.86 -0.571685 1.46866 0
M  V30 13541 C 1258.79 -1.68994 1.61131 0
M  V30 13542 C 1259.77 -1.63728 0.461222 0
M  V30 13543 O 1260.96 -1.81574 0.688813 0
M  V30 13544 C 1258.09 -3.07638 1.61172 0
M  V30 13545 C 1257.04 -3.27742 2.75262 0
M  V30 13546 C 1256.37 -4.67025 2.60368 0
M  V30 13547 C 1257.67 -3.14511 4.16989 0
M  V30 13548 H 1259.36 -1.57311 2.54742 0
M  V30 13549 H 1256.91 -0.755382 1.22597 0
M  V30 13550 H 1258.86 -3.857 1.69744 0
M  V30 13551 H 1257.59 -3.20245 0.641122 0
M  V30 13552 H 1256.25 -2.52083 2.66176 0
M  V30 13553 H 1255.89 -4.76413 1.61368 0
M  V30 13554 H 1255.59 -4.81428 3.36899 0
M  V30 13555 H 1257.12 -5.47242 2.70848 0
M  V30 13556 H 1258.53 -3.82407 4.27128 0
M  V30 13557 H 1256.93 -3.40431 4.94193 0
M  V30 13558 H 1258 -2.11443 4.36371 0
M  V30 13559 N 1259.34 -1.34755 -0.817236 0
M  V30 13560 C 1260.29 -1.26816 -1.94988 0
M  V30 13561 C 1261.28 -0.165142 -1.68593 0
M  V30 13562 O 1262.49 -0.330469 -1.7694 0
M  V30 13563 H 1258.86 -0.394113 -0.640452 0
M  V30 13564 H 1260.84 -2.22528 -1.98806 0
M  V30 13565 C 1259.58 -1.04625 -3.31586 0
M  V30 13566 H 1258.91 -1.88735 -3.52447 0
M  V30 13567 H 1260.35 -1.03108 -4.11272 0
M  V30 13568 C 1258.81 0.250283 -3.35969 0
M  V30 13569 O 1259.34 1.24972 -3.81765 0
M  V30 13570 N 1257.54 0.285369 -2.89195 0
M  V30 13571 H 1257.09 -0.528528 -2.5212 0
M  V30 13572 H 1257.05 1.15261 -2.9251 0
M  V30 13573 N 1260.82 1.03812 -1.18578 0
M  V30 13574 C 1262.07 1.77447 -0.994191 0
M  V30 13575 C 1262.42 1.86546 0.470974 0
M  V30 13576 O 1261.71 1.3644 1.34517 0
M  V30 13577 C 1261.91 3.20297 -1.5857 0
M  V30 13578 C 1261.74 3.25122 -3.10686 0
M  V30 13579 C 1260.51 3.33604 -3.79521 0
M  V30 13580 C 1262.7 3.12923 -4.08147 0
M  V30 13581 N 1260.69 3.27705 -5.19117 0
M  V30 13582 C 1262.06 3.14553 -5.34281 0
M  V30 13583 C 1264.11 2.96983 -3.99631 0
M  V30 13584 C 1262.82 3.0188 -6.52887 0
M  V30 13585 C 1264.84 2.85657 -5.17836 0
M  V30 13586 C 1264.2 2.87933 -6.42864 0
M  V30 13587 H 1260.3 0.661013 -0.417835 0
M  V30 13588 H 1262.89 1.23648 -1.50397 0
M  V30 13589 H 1261.06 3.72437 -1.10207 0
M  V30 13590 H 1262.79 3.82243 -1.32937 0
M  V30 13591 H 1259.54 3.39442 -3.30266 0
M  V30 13592 H 1259.97 3.28188 -5.92133 0
M  V30 13593 H 1264.61 2.94052 -3.03798 0
M  V30 13594 H 1262.33 3.03563 -7.48916 0
M  V30 13595 H 1265.91 2.74374 -5.1304 0
M  V30 13596 H 1264.79 2.79259 -7.32792 0
M  V30 13597 N 1262.3 0.988223 1.22768 0
M  V30 13598 C 1263.26 0.539813 2.22752 0
M  V30 13599 C 1264.26 -0.374796 1.56371 0
M  V30 13600 O 1265.45 -0.167402 1.73394 0
M  V30 13601 C 1262.58 -0.215461 3.40218 0
M  V30 13602 H 1263.78 1.42397 2.63938 0
M  V30 13603 H 1261.33 0.774933 1.35737 0
M  V30 13604 H 1262.06 -1.11581 3.045 0
M  V30 13605 H 1261.85 0.441173 3.8961 0
M  V30 13606 H 1263.34 -0.517517 4.14381 0
M  V30 13607 N 1263.78 -1.38018 0.760839 0
M  V30 13608 C 1265 -2.04757 0.330038 0
M  V30 13609 C 1265.43 -1.57009 -1.03585 0
M  V30 13610 O 1264.78 -0.725349 -1.66158 0
M  V30 13611 C 1264.83 -3.58696 0.370082 0
M  V30 13612 O 1263.94 -4.07507 -0.633361 0
M  V30 13613 H 1263.28 -0.648023 0.144782 0
M  V30 13614 H 1265.81 -1.7655 1.03399 0
M  V30 13615 H 1265.82 -4.07387 0.223515 0
M  V30 13616 H 1264.49 -3.92806 1.36661 0
M  V30 13617 H 1263.07 -3.70165 -0.45081 0
M  V30 13618 N 1265.25 -0.510493 -1.49103 0
M  V30 13619 C 1266.19 0.299697 -2.27232 0
M  V30 13620 C 1267.2 0.922102 -1.34168 0
M  V30 13621 O 1268.39 0.803836 -1.59376 0
M  V30 13622 C 1265.49 1.43778 -3.06889 0
M  V30 13623 C 1264.66 0.920927 -4.27595 0
M  V30 13624 C 1263.72 1.93777 -4.89221 0
M  V30 13625 O 1262.75 1.5025 -5.49011 0
M  V30 13626 N 1263.95 3.2688 -4.79718 0
M  V30 13627 H 1266.71 -0.37028 -2.97404 0
M  V30 13628 H 1264.27 -0.343617 -1.58212 0
M  V30 13629 H 1266.27 2.11577 -3.44988 0
M  V30 13630 H 1264.84 2.01175 -2.39264 0
M  V30 13631 H 1264.06 0.0675358 -3.94142 0
M  V30 13632 H 1265.34 0.554168 -5.05773 0
M  V30 13633 H 1264.74 3.64924 -4.32258 0
M  V30 13634 H 1263.3 3.90366 -5.21974 0
M  V30 13635 N 1266.73 1.55688 -0.24474 0
M  V30 13636 C 1267.98 1.98067 0.381081 0
M  V30 13637 C 1268.29 1.13606 1.59227 0
M  V30 13638 O 1269.5 1.45988 2.2891 0
M  V30 13639 C 1267.96 3.52432 0.729385 0
M  V30 13640 C 1267.56 4.45629 -0.460282 0
M  V30 13641 C 1269.31 4.03471 1.31952 0
M  V30 13642 C 1267.21 5.91334 -0.088252 0
M  V30 13643 H 1266.14 0.739699 0.146157 0
M  V30 13644 H 1268.8 1.80235 -0.344615 0
M  V30 13645 H 1267.18 3.65951 1.51315 0
M  V30 13646 H 1268.35 4.43868 -1.23764 0
M  V30 13647 H 1266.67 4.05059 -0.965197 0
M  V30 13648 H 1269.26 5.09849 1.61116 0
M  V30 13649 H 1269.61 3.50691 2.24325 0
M  V30 13650 H 1270.14 3.93269 0.5987 0
M  V30 13651 H 1266.88 6.48147 -0.979069 0
M  V30 13652 H 1266.4 5.96235 0.652947 0
M  V30 13653 H 1268.08 6.46156 0.330324 0
M  V30 13654 N 1268.21 -0.0283989 1.57574 0
M  V30 13655 C 1269.44 -0.729772 1.93282 0
M  V30 13656 C 1269.85 -1.69384 0.842959 0
M  V30 13657 O 1269.19 -1.82722 -0.189286 0
M  V30 13658 C 1269.25 -1.54107 3.24794 0
M  V30 13659 C 1268.92 -0.741709 4.50941 0
M  V30 13660 C 1269.91 -0.0416985 5.19883 0
M  V30 13661 C 1267.6 -0.696053 4.97454 0
M  V30 13662 C 1269.59 0.693261 6.33619 0
M  V30 13663 C 1267.28 0.042651 6.11085 0
M  V30 13664 C 1268.28 0.736067 6.79022 0
M  V30 13665 O 1267.97 1.46278 7.9048 0
M  V30 13666 H 1267.7 -0.210092 0.642524 0
M  V30 13667 H 1270.25 0.0102277 2.05397 0
M  V30 13668 H 1268.48 -2.3249 3.09007 0
M  V30 13669 H 1270.17 -2.12512 3.45823 0
M  V30 13670 H 1270.94 -0.0679975 4.84952 0
M  V30 13671 H 1266.82 -1.22528 4.44419 0
M  V30 13672 H 1270.36 1.23504 6.8658 0
M  V30 13673 H 1266.26 0.0708708 6.45461 0
M  V30 13674 H 1267.02 1.37652 8.06842 0
M  V30 13675 N 1269.69 -1.54705 -0.300681 0
M  V30 13676 C 1271.1 -1.64998 -0.873654 0
M  V30 13677 C 1271.45 -0.558842 -1.88073 0
M  V30 13678 O 1270.57 0.304474 -2.14247 0
M  V30 13679 C 1271.17 -2.99099 -1.59138 0
M  V30 13680 C 1269.73 -3.11512 -2.11276 0
M  V30 13681 C 1268.88 -2.60681 -0.945551 0
M  V30 13682 H 1271.83 -1.5851 -0.0776752 0
M  V30 13683 H 1271.85 -2.9054 -2.45696 0
M  V30 13684 H 1271.36 -3.78493 -0.858172 0
M  V30 13685 H 1269.46 -2.36838 -2.87643 0
M  V30 13686 H 1269.57 -4.17672 -2.34707 0
M  V30 13687 H 1267.94 -2.17143 -1.33121 0
M  V30 13688 H 1268.72 -3.42553 -0.226291 0
M  V30 13689 N 1271.17 0.563888 -1.47167 0
M  V30 13690 C 1272.41 1.31875 -1.53145 0
M  V30 13691 C 1272.74 1.94047 -0.192518 0
M  V30 13692 O 1272.01 1.79577 0.782872 0
M  V30 13693 H 1270.59 0.489694 -0.5641 0
M  V30 13694 H 1273.25 0.658976 -1.83422 0
M  V30 13695 H 1272.34 2.11574 -2.2944 0
M  V30 13696 N 1272.64 1.35187 0.810078 0
M  V30 13697 C 1273.89 1.27602 1.56207 0
M  V30 13698 C 1274.21 -0.148621 1.95035 0
M  V30 13699 O 1275.41 -0.346721 2.69277 0
M  V30 13700 C 1273.87 2.23759 2.81886 0
M  V30 13701 C 1273.48 3.71549 2.5031 0
M  V30 13702 C 1275.22 2.25109 3.59898 0
M  V30 13703 C 1273.13 4.5954 3.7226 0
M  V30 13704 H 1272.06 0.474078 0.586316 0
M  V30 13705 H 1274.71 1.6043 0.890759 0
M  V30 13706 H 1273.09 1.83898 3.5071 0
M  V30 13707 H 1274.26 4.20025 1.89515 0
M  V30 13708 H 1272.58 3.72773 1.85551 0
M  V30 13709 H 1275.18 2.88066 4.50469 0
M  V30 13710 H 1275.52 1.25387 3.96968 0
M  V30 13711 H 1276.05 2.63481 2.98031 0
M  V30 13712 H 1272.79 5.60246 3.403 0
M  V30 13713 H 1272.31 4.15792 4.32293 0
M  V30 13714 H 1273.99 4.74789 4.39528 0
M  V30 13715 N 1274.12 -1.03182 1.19127 0
M  V30 13716 C 1275.07 -2.11394 0.926339 0
M  V30 13717 C 1276.04 -1.65528 -0.137703 0
M  V30 13718 O 1277.22 -1.908 0.00381804 0
M  V30 13719 C 1274.36 -3.41913 0.467894 0
M  V30 13720 C 1273.48 -4.01343 1.59837 0
M  V30 13721 C 1272.61 -5.1986 1.09175 0
M  V30 13722 C 1271.65 -5.71339 2.19632 0
M  V30 13723 N 1270.79 -6.81133 1.703 0
M  V30 13724 H 1275.63 -2.33393 1.85288 0
M  V30 13725 H 1273.17 -1.14473 0.923811 0
M  V30 13726 H 1275.12 -4.16796 0.183513 0
M  V30 13727 H 1273.75 -3.20034 -0.421656 0
M  V30 13728 H 1272.81 -3.23702 1.99803 0
M  V30 13729 H 1274.12 -4.35568 2.43068 0
M  V30 13730 H 1273.27 -6.0189 0.762427 0
M  V30 13731 H 1272.01 -4.87161 0.22914 0
M  V30 13732 H 1271.02 -4.87923 2.53399 0
M  V30 13733 H 1272.24 -6.06078 3.06344 0
M  V30 13734 H 1270.19 -6.50293 0.863415 0
M  V30 13735 H 1270.1 -7.1447 2.47122 0
M  V30 13736 H 1271.37 -7.66766 1.40321 0
M  V30 13737 N 1275.6 -0.99472 -1.22242 0
M  V30 13738 C 1276.85 -0.672596 -1.91322 0
M  V30 13739 C 1277.18 0.793542 -1.77247 0
M  V30 13740 O 1276.45 1.57407 -1.14251 0
M  V30 13741 C 1276.74 -1.08155 -3.43474 0
M  V30 13742 C 1276.59 -2.60638 -3.6659 0
M  V30 13743 C 1277.91 -0.636161 -4.35478 0
M  V30 13744 H 1275.03 -0.24582 -0.694796 0
M  V30 13745 H 1277.67 -1.23857 -1.44082 0
M  V30 13746 H 1275.82 -0.599987 -3.83839 0
M  V30 13747 H 1277.49 -3.16479 -3.35617 0
M  V30 13748 H 1275.74 -3.02624 -3.10808 0
M  V30 13749 H 1276.41 -2.84304 -4.73155 0
M  V30 13750 H 1278.88 -1.04982 -4.02639 0
M  V30 13751 H 1277.76 -0.950584 -5.40606 0
M  V30 13752 H 1278.02 0.4631 -4.39668 0
M  V30 13753 N 1277.08 1.37613 -0.768148 0
M  V30 13754 C 1278.49 1.53202 -0.44737 0
M  V30 13755 C 1278.69 1.72736 1.03752 0
M  V30 13756 O 1277.75 1.74667 1.8234 0
M  V30 13757 C 1279.06 2.7306 -1.25931 0
M  V30 13758 C 1280.61 2.8692 -1.25084 0
M  V30 13759 C 1281.09 4.09757 -2.04605 0
M  V30 13760 N 1282.58 4.16862 -2.0194 0
M  V30 13761 C 1283.31 5.10936 -2.60254 0
M  V30 13762 N 1282.81 6.1059 -3.27341 0
M  V30 13763 N 1284.6 5.03393 -2.50104 0
M  V30 13764 H 1276.75 1.23184 -1.7303 0
M  V30 13765 H 1279.02 0.599541 -0.73434 0
M  V30 13766 H 1278.72 2.65078 -2.31141 0
M  V30 13767 H 1278.6 3.66646 -0.886036 0
M  V30 13768 H 1280.98 2.94375 -0.206736 0
M  V30 13769 H 1281.06 1.94303 -1.66373 0
M  V30 13770 H 1280.71 4.03063 -3.09035 0
M  V30 13771 H 1280.64 5.01481 -1.60701 0
M  V30 13772 H 1283.13 3.455 -1.53096 0
M  V30 13773 H 1283.44 6.78893 -3.6922 0
M  V30 13774 H 1281.79 6.10879 -3.31439 0
M  V30 13775 H 1284.98 4.24483 -1.9731 0
M  V30 13776 H 1285.15 5.76524 -2.95844 0
M  V30 13777 N 1278.56 0.518393 1.4883 0
M  V30 13778 C 1279.49 -0.287642 2.27388 0
M  V30 13779 C 1280.5 -0.914974 1.34655 0
M  V30 13780 O 1281.69 -0.795373 1.598 0
M  V30 13781 C 1278.79 -1.42149 3.07647 0
M  V30 13782 C 1277.96 -0.898238 4.28078 0
M  V30 13783 C 1277.02 -1.91179 4.90242 0
M  V30 13784 O 1276.05 -1.47337 5.498 0
M  V30 13785 N 1277.25 -3.24331 4.81445 0
M  V30 13786 H 1280.02 0.386047 2.97203 0
M  V30 13787 H 1277.58 0.352002 1.58027 0
M  V30 13788 H 1279.57 -2.09745 3.46106 0
M  V30 13789 H 1278.14 -1.99903 2.40328 0
M  V30 13790 H 1277.36 -0.0466326 3.94172 0
M  V30 13791 H 1278.65 -0.527338 5.0606 0
M  V30 13792 H 1278.04 -3.62627 4.34187 0
M  V30 13793 H 1276.6 -3.87593 5.24037 0
M  V30 13794 N 1280.03 -1.55556 0.252993 0
M  V30 13795 C 1280.96 -2.24613 -0.638047 0
M  V30 13796 C 1281.95 -1.22852 -1.1765 0
M  V30 13797 O 1283.13 -1.51519 -1.21472 0
M  V30 13798 C 1280.26 -2.95029 -1.83236 0
M  V30 13799 C 1279.21 -4.03531 -1.42641 0
M  V30 13800 C 1278.54 -4.61404 -2.70204 0
M  V30 13801 C 1279.84 -5.18923 -0.592958 0
M  V30 13802 H 1281.53 -2.99335 -0.0621918 0
M  V30 13803 H 1279.08 -1.43972 -0.0284722 0
M  V30 13804 H 1281.03 -3.42042 -2.46141 0
M  V30 13805 H 1279.76 -2.17805 -2.43369 0
M  V30 13806 H 1278.42 -3.57296 -0.820672 0
M  V30 13807 H 1278.06 -3.80874 -3.28548 0
M  V30 13808 H 1277.76 -5.34652 -2.43764 0
M  V30 13809 H 1279.29 -5.11154 -3.33997 0
M  V30 13810 H 1280.7 -5.62124 -1.12646 0
M  V30 13811 H 1279.1 -5.98598 -0.424358 0
M  V30 13812 H 1280.17 -4.83301 0.393434 0
M  V30 13813 N 1281.51 0.0200419 -1.57587 0
M  V30 13814 C 1282.75 0.713765 -1.91533 0
M  V30 13815 C 1283.12 1.72035 -0.852516 0
M  V30 13816 O 1284.32 2.46299 -1.07658 0
M  V30 13817 C 1282.59 1.35786 -3.30601 0
M  V30 13818 S 1284.15 2.07948 -3.86397 0
M  V30 13819 H 1280.97 0.236249 -0.670602 0
M  V30 13820 H 1283.57 -0.0318313 -1.95474 0
M  V30 13821 H 1282.27 0.612147 -4.05809 0
M  V30 13822 H 1281.8 2.14181 -3.29985 0
M  V30 13823 H 1283.82 3.3521 -3.65853 0
M  V30 13824 N 1282.99 1.54862 0.292472 0
M  V30 13825 C 1283.94 1.86403 1.36098 0
M  V30 13826 C 1284.91 0.713694 1.49985 0
M  V30 13827 O 1286.09 0.963134 1.64707 0
M  V30 13828 C 1283.23 2.1244 2.71962 0
M  V30 13829 C 1282.35 3.40038 2.66454 0
M  V30 13830 C 1281.48 3.55875 3.94368 0
M  V30 13831 C 1280.52 4.77235 3.83293 0
M  V30 13832 N 1279.66 4.89832 5.03 0
M  V30 13833 H 1284.5 2.77546 1.085 0
M  V30 13834 H 1282.03 1.37427 0.524607 0
M  V30 13835 H 1283.99 2.25533 3.50985 0
M  V30 13836 H 1282.62 1.24554 2.97802 0
M  V30 13837 H 1281.67 3.35521 1.79248 0
M  V30 13838 H 1282.99 4.29188 2.54163 0
M  V30 13839 H 1282.14 3.68679 4.8183 0
M  V30 13840 H 1280.88 2.64874 4.09503 0
M  V30 13841 H 1279.88 4.64455 2.94214 0
M  V30 13842 H 1281.11 5.69651 3.69695 0
M  V30 13843 H 1279.05 4.01756 5.18582 0
M  V30 13844 H 1278.97 5.72996 4.93165 0
M  V30 13845 H 1280.24 5.07001 5.92089 0
M  V30 13846 N 1284.47 -0.556076 1.47464 0
M  V30 13847 C 1285.4 -1.67275 1.62915 0
M  V30 13848 C 1286.38 -1.63229 0.478562 0
M  V30 13849 O 1287.56 -1.80833 0.708032 0
M  V30 13850 C 1284.69 -3.05911 1.64426 0
M  V30 13851 C 1283.65 -3.24804 2.78722 0
M  V30 13852 C 1282.97 -4.64238 2.65307 0
M  V30 13853 C 1284.27 -3.10071 4.20302 0
M  V30 13854 H 1285.97 -1.54601 2.56396 0
M  V30 13855 H 1283.51 -0.742337 1.23391 0
M  V30 13856 H 1285.47 -3.83878 1.73826 0
M  V30 13857 H 1284.19 -3.19547 0.675053 0
M  V30 13858 H 1282.85 -2.49246 2.68835 0
M  V30 13859 H 1282.5 -4.74675 1.66412 0
M  V30 13860 H 1282.2 -4.77828 3.41986 0
M  V30 13861 H 1283.72 -5.44339 2.76637 0
M  V30 13862 H 1285.14 -3.77855 4.3116 0
M  V30 13863 H 1283.53 -3.3517 4.97776 0
M  V30 13864 H 1284.6 -2.06803 4.38589 0
M  V30 13865 N 1285.95 -1.35615 -0.802897 0
M  V30 13866 C 1286.88 -1.31506 -1.92947 0
M  V30 13867 C 1287.86 -0.188843 -1.69048 0
M  V30 13868 O 1289.04 -0.384384 -1.90358 0
M  V30 13869 C 1286.17 -1.09001 -3.29752 0
M  V30 13870 C 1285.13 -2.18303 -3.68141 0
M  V30 13871 C 1284.45 -1.80959 -5.03148 0
M  V30 13872 C 1285.75 -3.60296 -3.78132 0
M  V30 13873 H 1287.45 -2.25771 -1.96642 0
M  V30 13874 H 1284.99 -1.08682 -0.944685 0
M  V30 13875 H 1286.95 -1.04766 -4.08169 0
M  V30 13876 H 1285.67 -0.111832 -3.26408 0
M  V30 13877 H 1284.33 -2.21642 -2.92011 0
M  V30 13878 H 1283.98 -0.817495 -4.96312 0
M  V30 13879 H 1283.68 -2.54129 -5.29804 0
M  V30 13880 H 1285.2 -1.78255 -5.84001 0
M  V30 13881 H 1286.62 -3.59259 -4.46773 0
M  V30 13882 H 1285.01 -4.32258 -4.16261 0
M  V30 13883 H 1286.08 -3.9618 -2.79588 0
M  V30 13884 N 1287.43 1.02549 -1.19673 0
M  V30 13885 C 1288.84 1.28271 -0.94967 0
M  V30 13886 C 1289.04 1.97961 0.37599 0
M  V30 13887 O 1288.1 2.26955 1.10668 0
M  V30 13888 C 1289.41 2.12647 -2.12607 0
M  V30 13889 C 1290.96 2.25943 -2.16607 0
M  V30 13890 C 1291.43 3.13693 -3.33708 0
M  V30 13891 N 1292.92 3.21281 -3.33665 0
M  V30 13892 C 1293.66 3.89377 -4.20919 0
M  V30 13893 N 1293.16 4.59675 -5.18334 0
M  V30 13894 N 1294.95 3.85811 -4.08786 0
M  V30 13895 H 1287.1 0.557304 -2.04958 0
M  V30 13896 H 1289.36 0.308531 -0.896389 0
M  V30 13897 H 1289.07 1.68766 -3.08563 0
M  V30 13898 H 1288.94 3.13367 -2.09955 0
M  V30 13899 H 1291.33 2.69053 -1.2122 0
M  V30 13900 H 1291.41 1.24762 -2.23311 0
M  V30 13901 H 1291.05 2.7129 -4.29376 0
M  V30 13902 H 1290.98 4.14941 -3.2424 0
M  V30 13903 H 1293.48 2.71218 -2.63152 0
M  V30 13904 H 1293.79 5.09277 -5.81254 0
M  V30 13905 H 1292.13 4.58529 -5.22279 0
M  V30 13906 H 1295.32 3.30033 -3.31957 0
M  V30 13907 H 1295.5 4.38607 -4.76999 0
M  V30 13908 N 1288.9 1.00119 1.21713 0
M  V30 13909 C 1290.15 0.680377 1.90303 0
M  V30 13910 C 1290.47 -0.790927 1.7824 0
M  V30 13911 O 1289.74 -1.5676 1.17486 0
M  V30 13912 H 1288.32 0.248665 0.704397 0
M  V30 13913 H 1290.98 1.26948 1.47886 0
M  V30 13914 H 1290.08 0.950188 2.97284 0
M  V30 13915 N 1290.38 -1.37203 0.775435 0
M  V30 13916 C 1291.61 -2.03868 0.352927 0
M  V30 13917 C 1292.02 -1.58482 -1.0261 0
M  V30 13918 O 1291.38 -0.767772 -1.65564 0
M  V30 13919 C 1291.43 -3.59378 0.39116 0
M  V30 13920 O 1291.15 -4.03103 1.71579 0
M  V30 13921 C 1292.65 -4.4328 -0.0424808 0
M  V30 13922 H 1289.87 -0.654619 0.14736 0
M  V30 13923 H 1292.42 -1.75463 1.05039 0
M  V30 13924 H 1290.57 -3.86542 -0.257752 0
M  V30 13925 H 1290.99 -4.9764 1.65695 0
M  V30 13926 H 1292.46 -5.51989 0.0354215 0
M  V30 13927 H 1292.94 -4.25374 -1.09333 0
M  V30 13928 H 1293.54 -4.21349 0.578384 0
M  V30 13929 N 1291.86 -0.526279 -1.48553 0
M  V30 13930 C 1292.81 0.238513 -2.29564 0
M  V30 13931 C 1293.78 0.937222 -1.37133 0
M  V30 13932 O 1294.96 0.93897 -1.66096 0
M  V30 13933 C 1292.1 1.28173 -3.20415 0
M  V30 13934 C 1291.21 0.592244 -4.27921 0
M  V30 13935 C 1290.35 1.61808 -5.05956 0
M  V30 13936 C 1289.39 0.911846 -6.0527 0
M  V30 13937 N 1288.53 1.88305 -6.76377 0
M  V30 13938 H 1293.37 -0.458502 -2.94452 0
M  V30 13939 H 1290.9 -0.237948 -1.45163 0
M  V30 13940 H 1292.86 1.89883 -3.71484 0
M  V30 13941 H 1291.49 1.94718 -2.57458 0
M  V30 13942 H 1290.54 -0.138714 -3.80147 0
M  V30 13943 H 1291.85 0.0375427 -4.98786 0
M  V30 13944 H 1291.01 2.30956 -5.61021 0
M  V30 13945 H 1289.75 2.20667 -4.34922 0
M  V30 13946 H 1288.75 0.206273 -5.49413 0
M  V30 13947 H 1289.98 0.329415 -6.78301 0
M  V30 13948 H 1287.92 2.46079 -6.08096 0
M  V30 13949 H 1287.84 1.37969 -7.43304 0
M  V30 13950 H 1289.11 2.56663 -7.36033 0
M  V30 13951 N 1293.34 1.5542 -0.261239 0
M  V30 13952 C 1294.3 2.20683 0.619011 0
M  V30 13953 C 1295.3 1.18042 1.09192 0
M  V30 13954 O 1296.49 1.43035 0.99432 0
M  V30 13955 C 1293.62 2.86179 1.85242 0
M  V30 13956 H 1294.82 2.99859 0.0493924 0
M  V30 13957 H 1292.37 1.56296 -0.0117687 0
M  V30 13958 H 1293.1 2.10978 2.4629 0
M  V30 13959 H 1292.89 3.61381 1.52138 0
M  V30 13960 H 1294.38 3.36081 2.47869 0
M  V30 13961 N 1294.82 -0.0116844 1.57596 0
M  V30 13962 C 1295.75 -1.00599 2.10718 0
M  V30 13963 C 1296.73 -1.36601 1.01362 0
M  V30 13964 O 1297.91 -1.4518 1.28982 0
M  V30 13965 C 1295.04 -2.30155 2.60089 0
M  V30 13966 C 1294 -2.08347 3.73866 0
M  V30 13967 C 1293.32 -3.43814 4.09507 0
M  V30 13968 C 1294.62 -1.45552 5.01609 0
M  V30 13969 H 1296.32 -0.563721 2.94045 0
M  V30 13970 H 1293.86 -0.269714 1.41452 0
M  V30 13971 H 1295.81 -3.00058 2.95877 0
M  V30 13972 H 1294.54 -2.76473 1.73868 0
M  V30 13973 H 1293.2 -1.40872 3.38453 0
M  V30 13974 H 1292.85 -3.87814 3.20326 0
M  V30 13975 H 1292.55 -3.30043 4.86154 0
M  V30 13976 H 1294.07 -4.15052 4.47844 0
M  V30 13977 H 1295.48 -2.05396 5.35243 0
M  V30 13978 H 1293.88 -1.42304 5.82983 0
M  V30 13979 H 1294.95 -0.423331 4.83049 0
M  V30 13980 N 1296.29 -1.55015 -0.284256 0
M  V30 13981 C 1297.52 -1.79102 -1.03586 0
M  V30 13982 C 1297.94 -0.558733 -1.80343 0
M  V30 13983 O 1297.29 0.471925 -1.76293 0
M  V30 13984 C 1297.34 -3.00915 -2.0033 0
M  V30 13985 O 1297.07 -4.19384 -1.26685 0
M  V30 13986 C 1298.57 -3.3752 -2.87394 0
M  V30 13987 H 1295.79 -0.596912 -0.306491 0
M  V30 13988 H 1298.33 -2.02005 -0.31845 0
M  V30 13989 H 1296.49 -2.80171 -2.67549 0
M  V30 13990 H 1296.9 -4.88175 -1.91796 0
M  V30 13991 H 1298.37 -4.25953 -3.51095 0
M  V30 13992 H 1298.85 -2.56418 -3.56576 0
M  V30 13993 H 1299.46 -3.60483 -2.25682 0
M  V30 13994 N 1297.77 0.548248 -1.47757 0
M  V30 13995 C 1298.68 1.68178 -1.63565 0
M  V30 13996 C 1299.7 1.661 -0.518351 0
M  V30 13997 O 1300.87 1.85384 -0.787061 0
M  V30 13998 C 1297.94 3.04673 -1.65454 0
M  V30 13999 C 1297 3.17749 -2.88677 0
M  V30 14000 C 1296.23 4.47733 -2.90466 0
M  V30 14001 O 1296.46 5.33736 -2.01201 0
M  V30 14002 O 1295.39 4.64789 -3.82433 0
M  V30 14003 H 1299.22 1.57781 -2.59497 0
M  V30 14004 H 1296.8 0.719277 -1.30946 0
M  V30 14005 H 1298.68 3.85885 -1.69324 0
M  V30 14006 H 1297.36 3.15433 -0.726912 0
M  V30 14007 H 1296.26 2.359 -2.90348 0
M  V30 14008 H 1297.6 3.11897 -3.80763 0
M  V30 14009 N 1299.25 1.36039 0.795694 0
M  V30 14010 C 1300.5 1.30112 1.5556 0
M  V30 14011 C 1300.83 -0.121197 1.93821 0
M  V30 14012 O 1300.1 -1.07313 1.62216 0
M  V30 14013 C 1300.39 2.21792 2.8369 0
M  V30 14014 C 1300.24 3.72691 2.51836 0
M  V30 14015 C 1301.56 2.12365 3.85472 0
M  V30 14016 H 1298.68 0.473971 0.564376 0
M  V30 14017 H 1301.32 1.66536 0.91465 0
M  V30 14018 H 1299.47 1.9086 3.38386 0
M  V30 14019 H 1301.14 4.14115 2.0324 0
M  V30 14020 H 1299.38 3.92436 1.84869 0
M  V30 14021 H 1300.06 4.32242 3.43323 0
M  V30 14022 H 1302.53 2.3958 3.40207 0
M  V30 14023 H 1301.41 2.78695 4.72885 0
M  V30 14024 H 1301.67 1.10898 4.27965 0
M  V30 14025 N 1300.73 -1.01913 1.20215 0
M  V30 14026 C 1301.98 -1.74878 1.00502 0
M  V30 14027 C 1302.29 -1.90022 -0.463792 0
M  V30 14028 O 1303.5 -2.60055 -0.779982 0
M  V30 14029 C 1301.95 -3.1452 1.74943 0
M  V30 14030 C 1301.56 -3.07397 3.259 0
M  V30 14031 C 1303.3 -3.91713 1.63589 0
M  V30 14032 C 1301.21 -4.42032 3.92889 0
M  V30 14033 H 1300.14 -0.655603 0.372426 0
M  V30 14034 H 1302.79 -1.13978 1.4381 0
M  V30 14035 H 1301.17 -3.75946 1.24421 0
M  V30 14036 H 1302.35 -2.55294 3.83617 0
M  V30 14037 H 1300.66 -2.43698 3.37639 0
M  V30 14038 H 1303.26 -4.91316 2.1098 0
M  V30 14039 H 1303.6 -4.12074 0.591665 0
M  V30 14040 H 1304.14 -3.3691 2.11511 0
M  V30 14041 H 1300.88 -4.26874 4.97453 0
M  V30 14042 H 1300.4 -4.94151 3.39962 0
M  V30 14043 H 1302.07 -5.10884 3.96997 0
M  V30 14044 N 1302.21 -1.00763 -1.2118 0
M  V30 14045 C 1303.62 -0.724746 -1.72059 0
M  V30 14046 C 1303.97 0.757413 -1.80991 0
M  V30 14047 O 1303.09 1.59152 -1.46627 0
M  V30 14048 C 1303.69 -1.30893 -3.12494 0
M  V30 14049 C 1302.25 -1.07511 -3.60719 0
M  V30 14050 C 1301.39 -1.42014 -2.38175 0
M  V30 14051 H 1304.35 -1.17821 -1.0632 0
M  V30 14052 H 1304.37 -0.694919 -3.741 0
M  V30 14053 H 1303.88 -2.38767 -3.05961 0
M  V30 14054 H 1301.98 -0.0136518 -3.72597 0
M  V30 14055 H 1302.09 -1.74885 -4.4604 0
M  V30 14056 H 1300.46 -0.838972 -2.40486 0
M  V30 14057 H 1301.24 -2.50924 -2.34291 0
M  V30 14058 N 1303.68 1.3679 -0.7827 0
M  V30 14059 C 1304.61 2.32721 -0.190604 0
M  V30 14060 C 1305.6 1.56321 0.670663 0
M  V30 14061 O 1306.78 1.84507 0.605871 0
M  V30 14062 C 1303.91 3.40564 0.680717 0
M  V30 14063 C 1302.86 4.27925 -0.080118 0
M  V30 14064 C 1302.19 5.26876 0.911361 0
M  V30 14065 C 1303.49 5.06738 -1.26545 0
M  V30 14066 H 1305.18 2.82488 -0.992023 0
M  V30 14067 H 1302.73 1.35818 -0.478484 0
M  V30 14068 H 1304.68 4.06659 1.10482 0
M  V30 14069 H 1303.41 2.89348 1.51477 0
M  V30 14070 H 1302.07 3.63376 -0.485125 0
M  V30 14071 H 1301.71 4.71936 1.74026 0
M  V30 14072 H 1301.41 5.8619 0.406762 0
M  V30 14073 H 1302.94 5.95846 1.33418 0
M  V30 14074 H 1304.35 5.65911 -0.917448 0
M  V30 14075 H 1302.75 5.75432 -1.70289 0
M  V30 14076 H 1303.82 4.38772 -2.06415 0
M  V30 14077 N 1305.16 0.53415 1.48272 0
M  V30 14078 C 1306.39 0.00574475 2.06899 0
M  V30 14079 C 1306.81 -1.27754 1.39012 0
M  V30 14080 O 1306.16 -1.76102 0.478993 0
M  V30 14081 C 1306.21 -0.217576 3.60845 0
M  V30 14082 O 1305.93 1.01487 4.26183 0
M  V30 14083 C 1307.44 -0.785888 4.36278 0
M  V30 14084 H 1304.66 0.0353967 0.670066 0
M  V30 14085 H 1307.2 0.740984 1.90603 0
M  V30 14086 H 1305.35 -0.902875 3.76732 0
M  V30 14087 H 1305.77 0.7982 5.18391 0
M  V30 14088 H 1307.24 -0.891551 5.44753 0
M  V30 14089 H 1307.72 -1.79178 4.00989 0
M  V30 14090 H 1308.33 -0.137022 4.25079 0
M  V30 14091 N 1306.64 -1.55279 0.269478 0
M  V30 14092 C 1307.55 -2.25965 -0.63065 0
M  V30 14093 C 1308.57 -1.28357 -1.17476 0
M  V30 14094 O 1309.74 -1.61281 -1.20625 0
M  V30 14095 C 1306.81 -2.96263 -1.80081 0
M  V30 14096 C 1305.87 -4.09336 -1.29394 0
M  V30 14097 C 1305.1 -4.76272 -2.40833 0
M  V30 14098 O 1305.32 -4.42389 -3.60066 0
M  V30 14099 O 1304.26 -5.64334 -2.09309 0
M  V30 14100 H 1308.08 -3.03644 -0.0582069 0
M  V30 14101 H 1305.67 -1.49354 0.0370966 0
M  V30 14102 H 1307.55 -3.40461 -2.48322 0
M  V30 14103 H 1306.23 -2.21505 -2.36045 0
M  V30 14104 H 1305.13 -3.69605 -0.578154 0
M  V30 14105 H 1306.47 -4.85978 -0.780117 0
M  V30 14106 N 1308.12 0.00332656 -1.576 0
M  V30 14107 C 1309.03 1.01221 -2.1164 0
M  V30 14108 C 1310.04 1.37918 -1.06088 0
M  V30 14109 O 1311.22 1.46717 -1.37971 0
M  V30 14110 C 1308.29 2.28638 -2.60626 0
M  V30 14111 C 1307.35 1.98284 -3.80765 0
M  V30 14112 C 1306.58 3.19626 -4.27405 0
M  V30 14113 O 1306.8 4.31196 -3.73398 0
M  V30 14114 O 1305.74 3.03819 -5.19594 0
M  V30 14115 H 1309.56 0.582839 -2.98055 0
M  V30 14116 H 1307.15 0.221947 -1.47742 0
M  V30 14117 H 1309.03 3.03498 -2.92347 0
M  V30 14118 H 1307.7 2.70819 -1.7731 0
M  V30 14119 H 1306.61 1.2091 -3.54022 0
M  V30 14120 H 1307.94 1.60942 -4.65144 0
M  V30 14121 N 1309.6 1.55164 0.276031 0
M  V30 14122 C 1310.56 1.87065 1.32436 0
M  V30 14123 C 1311.56 0.745024 1.42499 0
M  V30 14124 O 1312.75 1.01321 1.41702 0
M  V30 14125 C 1309.88 2.07322 2.70611 0
M  V30 14126 H 1311.07 2.80775 1.05382 0
M  V30 14127 H 1308.63 1.47609 0.513947 0
M  V30 14128 H 1309.36 1.15983 3.0285 0
M  V30 14129 H 1309.15 2.89275 2.64693 0
M  V30 14130 H 1310.64 2.33287 3.46362 0
M  V30 14131 N 1311.07 -0.540404 1.48045 0
M  V30 14132 C 1311.98 -1.67308 1.64455 0
M  V30 14133 C 1313 -1.65823 0.527152 0
M  V30 14134 O 1314.18 -1.84964 0.796881 0
M  V30 14135 C 1311.24 -3.03792 1.67068 0
M  V30 14136 C 1310.3 -3.16213 2.90358 0
M  V30 14137 C 1309.54 -4.46187 2.92837 0
M  V30 14138 O 1309.76 -5.32662 2.04029 0
M  V30 14139 O 1308.69 -4.62754 3.84892 0
M  V30 14140 H 1312.52 -1.56403 2.6033 0
M  V30 14141 H 1310.1 -0.712323 1.31325 0
M  V30 14142 H 1311.99 -3.84982 1.71368 0
M  V30 14143 H 1310.66 -3.15043 0.74363 0
M  V30 14144 H 1309.57 -2.34357 2.91595 0
M  V30 14145 H 1310.9 -3.09874 3.82412 0
M  V30 14146 N 1312.55 -1.36459 -0.788468 0
M  V30 14147 C 1313.48 -1.33545 -1.91541 0
M  V30 14148 C 1314.46 -0.206762 -1.68839 0
M  V30 14149 O 1315.65 -0.404553 -1.89939 0
M  V30 14150 C 1312.78 -1.12492 -3.28577 0
M  V30 14151 C 1311.73 -2.22196 -3.65805 0
M  V30 14152 C 1311.06 -1.86285 -5.01201 0
M  V30 14153 C 1312.36 -3.64286 -3.7429 0
M  V30 14154 H 1314.05 -2.27844 -1.94236 0
M  V30 14155 H 1311.6 -1.09677 -0.933105 0
M  V30 14156 H 1313.55 -1.09089 -4.07035 0
M  V30 14157 H 1312.28 -0.146446 -3.26272 0
M  V30 14158 H 1310.93 -2.24727 -2.89644 0
M  V30 14159 H 1310.58 -0.87009 -4.95417 0
M  V30 14160 H 1310.28 -2.59734 -5.27079 0
M  V30 14161 H 1311.81 -1.84439 -5.82078 0
M  V30 14162 H 1313.22 -3.63977 -4.42937 0
M  V30 14163 H 1311.62 -4.36648 -4.11653 0
M  V30 14164 H 1312.69 -3.99123 -2.75371 0
M  V30 14165 N 1314.03 1.01274 -1.20754 0
M  V30 14166 C 1314.94 2.1335 -0.975656 0
M  V30 14167 C 1315.96 1.7386 0.0697364 0
M  V30 14168 O 1317.13 2.01051 -0.118578 0
M  V30 14169 C 1314.2 3.42548 -0.534931 0
M  V30 14170 C 1313.26 3.96257 -1.65163 0
M  V30 14171 C 1312.49 5.19289 -1.23184 0
M  V30 14172 O 1312.71 5.70309 -0.102158 0
M  V30 14173 O 1311.65 5.66248 -2.04076 0
M  V30 14174 H 1315.47 2.35783 -1.91415 0
M  V30 14175 H 1313.06 1.11736 -0.991743 0
M  V30 14176 H 1314.94 4.20341 -0.298568 0
M  V30 14177 H 1313.62 3.21521 0.374937 0
M  V30 14178 H 1312.52 3.19726 -1.94232 0
M  V30 14179 H 1313.86 4.2168 -2.53864 0
M  V30 14180 N 1315.51 1.01404 1.20644 0
M  V30 14181 C 1316.44 0.602465 2.25594 0
M  V30 14182 C 1317.42 -0.381216 1.65773 0
M  V30 14183 O 1318.61 -0.267209 1.92353 0
M  V30 14184 C 1315.74 -0.0626245 3.47244 0
M  V30 14185 C 1314.69 0.841776 4.1964 0
M  V30 14186 C 1314.02 0.0426002 5.34683 0
M  V30 14187 C 1315.32 2.14864 4.76058 0
M  V30 14188 H 1317.01 1.47977 2.60275 0
M  V30 14189 H 1314.56 0.712966 1.25111 0
M  V30 14190 H 1316.51 -0.362095 4.19841 0
M  V30 14191 H 1315.23 -0.974627 3.11719 0
M  V30 14192 H 1313.89 1.12521 3.48905 0
M  V30 14193 H 1313.54 -0.870973 4.95402 0
M  V30 14194 H 1313.24 0.644866 5.84051 0
M  V30 14195 H 1314.76 -0.250476 6.10086 0
M  V30 14196 H 1316.18 1.9117 5.40488 0
M  V30 14197 H 1314.57 2.70153 5.35852 0
M  V30 14198 H 1315.64 2.81336 3.9494 0
M  V30 14199 N 1316.99 -1.36373 0.789944 0
M  V30 14200 C 1317.95 -2.28372 0.194639 0
M  V30 14201 C 1318.95 -1.48849 -0.608332 0
M  V30 14202 O 1320.14 -1.68829 -0.42925 0
M  V30 14203 C 1317.27 -3.3298 -0.730553 0
M  V30 14204 H 1318.47 -2.82529 1.00585 0
M  V30 14205 H 1316.02 -1.45946 0.559406 0
M  V30 14206 H 1316.75 -2.8398 -1.56608 0
M  V30 14207 H 1316.54 -3.91787 -0.156706 0
M  V30 14208 H 1318.03 -4.01684 -1.14192 0
M  V30 14209 N 1318.47 -0.542005 -1.47987 0
M  V30 14210 C 1319.38 0.217677 -2.33588 0
M  V30 14211 C 1320.39 0.927093 -1.47245 0
M  V30 14212 O 1321.57 0.899378 -1.80203 0
M  V30 14213 C 1318.63 1.24376 -3.23622 0
M  V30 14214 C 1317.69 0.543407 -4.25847 0
M  V30 14215 C 1316.93 1.5206 -5.11579 0
M  V30 14216 O 1317.15 2.75425 -4.99497 0
M  V30 14217 O 1316.08 1.05341 -5.9261 0
M  V30 14218 H 1319.91 -0.484089 -2.99817 0
M  V30 14219 H 1317.49 -0.302783 -1.463 0
M  V30 14220 H 1319.38 1.83644 -3.7928 0
M  V30 14221 H 1318.05 1.92772 -2.6004 0
M  V30 14222 H 1316.96 -0.090074 -3.73992 0
M  V30 14223 H 1318.29 -0.0988264 -4.92101 0
M  V30 14224 N 1319.94 1.55134 -0.277709 0
M  V30 14225 C 1320.89 2.24057 0.624594 0
M  V30 14226 C 1321.89 1.23848 1.15577 0
M  V30 14227 O 1323.09 1.41771 1.1091 0
M  V30 14228 H 1319.47 0.719106 0.219977 0
M  V30 14229 H 1321.44 2.98393 0.0204815 0
M  V30 14230 C 1320.19 2.97712 1.79618 0
M  V30 14231 H 1319.51 3.74611 1.39665 0
M  V30 14232 H 1320.95 3.49255 2.4041 0
M  V30 14233 C 1319.41 2.03332 2.68622 0
M  V30 14234 O 1319.94 1.58622 3.69056 0
M  V30 14235 N 1318.14 1.69778 2.35847 0
M  V30 14236 H 1317.69 2.06333 1.54222 0
M  V30 14237 H 1317.65 1.06901 2.95668 0
M  V30 14238 N 1321.42 0.00503138 1.57599 0
M  V30 14239 C 1322.84 -0.351109 1.5569 0
M  V30 14240 C 1323.04 -1.74465 1.00818 0
M  V30 14241 O 1322.09 -2.44144 0.64422 0
M  V30 14242 C 1323.41 -0.221738 2.99881 0
M  V30 14243 C 1324.95 -0.296303 3.11594 0
M  V30 14244 C 1325.43 -0.195998 4.5758 0
M  V30 14245 N 1326.92 -0.253741 4.62504 0
M  V30 14246 C 1327.66 -0.199546 5.73053 0
M  V30 14247 N 1327.15 -0.0956553 6.92734 0
M  V30 14248 N 1328.94 -0.251779 5.61536 0
M  V30 14249 H 1321.1 0.916578 1.91605 0
M  V30 14250 H 1323.36 0.351802 0.880306 0
M  V30 14251 H 1323.06 0.737255 3.43886 0
M  V30 14252 H 1322.94 -1.00178 3.63654 0
M  V30 14253 H 1325.33 -1.24574 2.67517 0
M  V30 14254 H 1325.41 0.513692 2.50589 0
M  V30 14255 H 1325.05 0.749918 5.02333 0
M  V30 14256 H 1324.98 -1.02455 5.16537 0
M  V30 14257 H 1327.47 -0.335163 3.76411 0
M  V30 14258 H 1327.78 -0.0603357 7.72776 0
M  V30 14259 H 1326.13 -0.0612113 6.94973 0
M  V30 14260 H 1329.32 -0.331173 4.66927 0
M  V30 14261 H 1329.49 -0.206078 6.47672 0
M  V30 14262 N 1322.9 -1.55308 -0.267798 0
M  V30 14263 C 1323.81 -1.91649 -1.35307 0
M  V30 14264 C 1324.83 -0.814349 -1.53767 0
M  V30 14265 O 1326 -1.11388 -1.67793 0
M  V30 14266 C 1323.07 -2.18553 -2.69138 0
M  V30 14267 C 1322.13 -3.42083 -2.5938 0
M  V30 14268 C 1321.36 -3.67695 -3.86828 0
M  V30 14269 O 1321.58 -2.95728 -4.87751 0
M  V30 14270 O 1320.52 -4.61229 -3.86718 0
M  V30 14271 H 1324.34 -2.84044 -1.07483 0
M  V30 14272 H 1321.93 -1.41921 -0.466772 0
M  V30 14273 H 1323.81 -2.3726 -3.48261 0
M  V30 14274 H 1322.49 -1.2934 -2.96737 0
M  V30 14275 H 1321.39 -3.28706 -1.78614 0
M  V30 14276 H 1322.73 -4.31532 -2.36729 0
M  V30 14277 N 1324.38 0.532545 -1.4833 0
M  V30 14278 C 1325.63 1.28498 -1.55471 0
M  V30 14279 C 1325.94 1.94214 -0.232412 0
M  V30 14280 O 1327.15 2.70889 -0.182044 0
M  V30 14281 C 1325.6 2.33144 -2.74175 0
M  V30 14282 C 1325.21 1.73508 -4.13036 0
M  V30 14283 C 1326.95 3.09413 -2.90627 0
M  V30 14284 C 1324.86 2.76079 -5.23005 0
M  V30 14285 H 1323.79 0.483253 -0.578777 0
M  V30 14286 H 1326.44 0.562744 -1.74658 0
M  V30 14287 H 1324.82 3.08391 -2.48417 0
M  V30 14288 H 1326 1.04466 -4.48802 0
M  V30 14289 H 1324.31 1.0974 -4.01679 0
M  V30 14290 H 1326.91 3.86056 -3.69953 0
M  V30 14291 H 1327.25 3.65118 -1.99987 0
M  V30 14292 H 1327.79 2.4128 -3.16274 0
M  V30 14293 H 1324.52 2.25197 -6.15602 0
M  V30 14294 H 1324.04 3.43456 -4.9173 0
M  V30 14295 H 1325.72 3.39113 -5.51009 0
M  V30 14296 N 1325.86 1.36875 0.78122 0
M  V30 14297 C 1326.79 1.34559 1.9083 0
M  V30 14298 C 1327.77 0.215713 1.68727 0
M  V30 14299 O 1328.95 0.41462 1.89722 0
M  V30 14300 C 1326.08 1.14233 3.27976 0
M  V30 14301 C 1325.04 2.24132 3.64621 0
M  V30 14302 C 1324.36 1.8894 5.00206 0
M  V30 14303 C 1325.66 3.66266 3.72353 0
M  V30 14304 H 1327.36 2.28871 1.93025 0
M  V30 14305 H 1324.9 1.10171 0.927275 0
M  V30 14306 H 1326.85 1.11246 4.06451 0
M  V30 14307 H 1325.58 0.163747 3.26189 0
M  V30 14308 H 1324.24 2.26259 2.88448 0
M  V30 14309 H 1323.89 0.896351 4.94949 0
M  V30 14310 H 1323.59 2.62525 5.25694 0
M  V30 14311 H 1325.11 1.87523 5.81092 0
M  V30 14312 H 1326.52 3.66321 4.41001 0
M  V30 14313 H 1324.92 4.38825 4.09332 0
M  V30 14314 H 1325.99 4.00578 2.7325 0
M  V30 14315 N 1327.33 -1.00632 1.21289 0
M  V30 14316 C 1328.28 -2.09382 0.97097 0
M  V30 14317 C 1329.25 -1.65783 -0.102561 0
M  V30 14318 O 1330.44 -1.90749 0.0442886 0
M  V30 14319 C 1327.58 -3.40844 0.540314 0
M  V30 14320 C 1326.69 -3.97862 1.68314 0
M  V30 14321 C 1325.82 -5.17427 1.20178 0
M  V30 14322 C 1324.86 -5.66552 2.31702 0
M  V30 14323 N 1324 -6.77368 1.84709 0
M  V30 14324 H 1328.84 -2.29411 1.90196 0
M  V30 14325 H 1326.38 -1.12488 0.947885 0
M  V30 14326 H 1328.33 -4.16313 0.271881 0
M  V30 14327 H 1326.96 -3.20857 -0.353677 0
M  V30 14328 H 1326.02 -3.19391 2.06624 0
M  V30 14329 H 1327.33 -4.30314 2.52252 0
M  V30 14330 H 1326.48 -6.00138 0.889926 0
M  V30 14331 H 1325.22 -4.86566 0.332422 0
M  V30 14332 H 1324.23 -4.82438 2.63691 0
M  V30 14333 H 1325.45 -5.99443 3.19131 0
M  V30 14334 H 1323.4 -6.48315 1.00116 0
M  V30 14335 H 1323.31 -7.09067 2.62221 0
M  V30 14336 H 1324.58 -7.63617 1.56554 0
M  V30 14337 N 1328.81 -1.02043 -1.20104 0
M  V30 14338 C 1329.72 -0.603724 -2.26699 0
M  V30 14339 C 1330.74 0.360558 -1.70223 0
M  V30 14340 O 1331.91 0.220552 -2.00189 0
M  V30 14341 C 1328.98 0.0475988 -3.46667 0
M  V30 14342 C 1328.04 -0.963111 -4.18357 0
M  V30 14343 C 1327.27 -0.342775 -5.32598 0
M  V30 14344 O 1327.5 0.856509 -5.63933 0
M  V30 14345 O 1326.43 -1.06141 -5.92467 0
M  V30 14346 H 1330.26 -1.49125 -2.64566 0
M  V30 14347 H 1327.84 -0.790134 -1.26796 0
M  V30 14348 H 1329.72 0.411177 -4.19389 0
M  V30 14349 H 1328.4 0.909266 -3.10667 0
M  V30 14350 H 1327.3 -1.37813 -3.47791 0
M  V30 14351 H 1328.64 -1.79487 -4.58307 0
M  V30 14352 N 1330.29 1.35952 -0.797165 0
M  V30 14353 C 1331.7 1.81554 -0.435311 0
M  V30 14354 C 1332.05 1.66266 1.04164 0
M  V30 14355 O 1331.18 1.18796 1.80877 0
M  V30 14356 C 1331.77 3.29619 -0.783358 0
M  V30 14357 C 1330.33 3.73401 -0.47423 0
M  V30 14358 C 1329.48 2.58098 -1.01394 0
M  V30 14359 H 1332.43 1.24064 -0.989638 0
M  V30 14360 H 1332.45 3.80421 -0.0773381 0
M  V30 14361 H 1331.96 3.40715 -1.85836 0
M  V30 14362 H 1330.06 3.6786 0.592418 0
M  V30 14363 H 1330.18 4.68542 -1.00026 0
M  V30 14364 H 1328.54 2.50927 -0.436747 0
M  V30 14365 H 1329.32 2.71976 -2.09485 0
M  V30 14366 N 1331.77 0.549846 1.47697 0
M  V30 14367 C 1333.01 0.0230845 2.02787 0
M  V30 14368 C 1333.35 -1.32035 1.42409 0
M  V30 14369 O 1332.62 -1.85745 0.576978 0
M  V30 14370 C 1332.91 -0.0778363 3.60016 0
M  V30 14371 C 1332.76 1.29217 4.3084 0
M  V30 14372 C 1334.08 -0.794909 4.32862 0
M  V30 14373 H 1331.2 0.00986307 0.736934 0
M  V30 14374 H 1333.84 0.710714 1.76207 0
M  V30 14375 H 1331.99 -0.663464 3.82793 0
M  V30 14376 H 1333.66 1.92044 4.19424 0
M  V30 14377 H 1331.9 1.86883 3.91481 0
M  V30 14378 H 1332.57 1.17435 5.39364 0
M  V30 14379 H 1335.05 -0.297743 4.15033 0
M  V30 14380 H 1333.93 -0.834466 5.4252 0
M  V30 14381 H 1334.19 -1.84948 4.01555 0
M  V30 14382 N 1333.25 -1.54984 0.285932 0
M  V30 14383 C 1334.2 -2.19645 -0.611576 0
M  V30 14384 C 1335.18 -1.16453 -1.11029 0
M  V30 14385 O 1336.37 -1.42228 -1.05357 0
M  V30 14386 C 1333.5 -2.9293 -1.79017 0
M  V30 14387 C 1332.59 -4.03421 -1.30813 0
M  V30 14388 N 1332.98 -5.02877 -0.542993 0
M  V30 14389 C 1331.28 -4.16689 -1.59016 0
M  V30 14390 C 1331.98 -5.80986 -0.288176 0
M  V30 14391 N 1330.95 -5.36695 -0.863695 0
M  V30 14392 H 1334.76 -2.93894 -0.0192813 0
M  V30 14393 H 1332.27 -1.6215 0.0899876 0
M  V30 14394 H 1334.27 -3.37709 -2.44454 0
M  V30 14395 H 1332.93 -2.20194 -2.38631 0
M  V30 14396 H 1333.94 -5.17554 -0.189305 0
M  V30 14397 H 1330.61 -3.5515 -2.19488 0
M  V30 14398 H 1332 -6.71112 0.325337 0
M  V30 14399 N 1334.72 -0.0133892 -1.57594 0
M  V30 14400 C 1335.97 0.667313 -1.90765 0
M  V30 14401 C 1336.29 1.73564 -0.888847 0
M  V30 14402 O 1335.56 1.95768 0.0718946 0
M  V30 14403 H 1334.14 0.24947 -0.704112 0
M  V30 14404 H 1336.81 -0.0574789 -1.94815 0
M  V30 14405 H 1335.9 1.13007 -2.90922 0
M  V30 14406 N 1336.2 1.55448 0.259558 0
M  V30 14407 C 1337.45 1.76948 0.990816 0
M  V30 14408 C 1337.78 0.576401 1.85449 0
M  V30 14409 O 1337.06 -0.425693 1.89784 0
M  V30 14410 C 1337.34 3.08221 1.86204 0
M  V30 14411 C 1337.19 4.37909 1.0274 0
M  V30 14412 C 1338.51 3.35627 2.84679 0
M  V30 14413 H 1335.63 0.64377 0.358788 0
M  V30 14414 H 1338.27 1.88182 0.262211 0
M  V30 14415 H 1336.42 2.98775 2.48326 0
M  V30 14416 H 1338.09 4.5933 0.425855 0
M  V30 14417 H 1336.34 4.32533 0.331308 0
M  V30 14418 H 1337.01 5.26116 1.6705 0
M  V30 14419 H 1339.48 3.44954 2.32693 0
M  V30 14420 H 1338.36 4.28719 3.42769 0
M  V30 14421 H 1338.62 2.55921 3.60496 0
M  V30 14422 N 1337.68 -0.524672 1.4861 0
M  V30 14423 C 1338.91 -1.30292 1.60335 0
M  V30 14424 C 1339.32 -1.87338 0.264774 0
M  V30 14425 O 1338.66 -1.67388 -0.756756 0
M  V30 14426 C 1338.72 -2.48809 2.59488 0
M  V30 14427 C 1338.39 -2.12811 4.04426 0
M  V30 14428 C 1339.38 -1.68171 4.9195 0
M  V30 14429 C 1337.07 -2.23171 4.5 0
M  V30 14430 C 1339.06 -1.34363 6.23077 0
M  V30 14431 C 1336.75 -1.88975 5.81147 0
M  V30 14432 C 1337.75 -1.44643 6.67508 0
M  V30 14433 O 1337.44 -1.10898 7.96214 0
M  V30 14434 H 1337.17 -0.402288 0.543268 0
M  V30 14435 H 1339.72 -0.63908 1.95205 0
M  V30 14436 H 1337.95 -3.18192 2.19751 0
M  V30 14437 H 1339.64 -3.10866 2.60992 0
M  V30 14438 H 1340.41 -1.59632 4.57977 0
M  V30 14439 H 1336.29 -2.56632 3.82963 0
M  V30 14440 H 1339.83 -0.996875 6.90441 0
M  V30 14441 H 1335.73 -1.97156 6.14654 0
M  V30 14442 H 1336.5 -1.2425 8.09014 0
M  V30 14443 N 1339.16 -1.37287 -0.77395 0
M  V30 14444 C 1340.39 -1.35366 -1.56075 0
M  V30 14445 C 1340.8 0.0634437 -1.89094 0
M  V30 14446 O 1340.14 1.03503 -1.51766 0
M  V30 14447 C 1340.2 -2.12512 -2.89964 0
M  V30 14448 C 1339.87 -3.61492 -2.79593 0
M  V30 14449 C 1340.86 -4.55421 -2.50774 0
M  V30 14450 C 1338.55 -4.04585 -2.97684 0
M  V30 14451 C 1340.54 -5.90421 -2.4017 0
M  V30 14452 C 1338.23 -5.39672 -2.86701 0
M  V30 14453 C 1339.23 -6.32403 -2.57984 0
M  V30 14454 O 1338.91 -7.65006 -2.47024 0
M  V30 14455 H 1338.65 -0.465447 -0.49024 0
M  V30 14456 H 1341.2 -1.81199 -0.967273 0
M  V30 14457 H 1339.43 -1.61366 -3.51423 0
M  V30 14458 H 1341.12 -2.03253 -3.51345 0
M  V30 14459 H 1341.89 -4.23438 -2.36485 0
M  V30 14460 H 1337.76 -3.32769 -3.19038 0
M  V30 14461 H 1341.31 -6.62769 -2.17676 0
M  V30 14462 H 1337.21 -5.71258 -3.00558 0
M  V30 14463 H 1337.97 -7.75302 -2.6239 0
M  V30 14464 N 1340.64 0.999871 -1.21821 0
M  V30 14465 C 1341.91 1.71135 -0.947213 0
M  V30 14466 C 1342.29 2.04087 0.539601 0
M  V30 14467 O 1341.64 1.71866 1.5058 0
M  V30 14468 C 1341.85 2.96704 -1.8376 0
M  V30 14469 C 1343.2 3.69627 -2.08952 0
M  V30 14470 O 1344.22 3.06697 -1.81151 0
M  V30 14471 O 1343.08 4.82832 -2.55999 0
M  V30 14472 H 1340.18 0.746631 -0.355628 0
M  V30 14473 H 1342.72 1.05684 -1.32774 0
M  V30 14474 H 1341.49 2.68802 -2.84361 0
M  V30 14475 H 1341.12 3.69894 -1.45821 0
M  V30 14476 N 1342.11 1.02678 1.19562 0
M  V30 14477 C 1343.53 0.752027 1.70884 0
M  V30 14478 C 1343.88 -0.728523 1.82173 0
M  V30 14479 O 1343 -1.56799 1.49141 0
M  V30 14480 C 1343.6 1.35848 3.10372 0
M  V30 14481 C 1342.16 1.13236 3.58963 0
M  V30 14482 C 1341.3 1.45785 2.35886 0
M  V30 14483 H 1344.25 1.19497 1.04432 0
M  V30 14484 H 1344.27 0.754347 3.72948 0
M  V30 14485 H 1343.79 2.43604 3.02124 0
M  V30 14486 H 1341.89 0.0729271 3.72529 0
M  V30 14487 H 1342 1.81959 4.43202 0
M  V30 14488 H 1340.36 0.877125 2.3912 0
M  V30 14489 H 1341.15 2.54619 2.30269 0
M  V30 14490 N 1343.59 -1.35528 0.804364 0
M  V30 14491 C 1344.82 -2.03604 0.395013 0
M  V30 14492 C 1345.24 -1.60225 -0.985371 0
M  V30 14493 O 1344.6 -0.777844 -1.63766 0
M  V30 14494 C 1344.65 -3.57337 0.484011 0
M  V30 14495 O 1343.75 -4.09316 -0.503395 0
M  V30 14496 H 1343.09 -0.643089 0.165325 0
M  V30 14497 H 1345.62 -1.73171 1.08963 0
M  V30 14498 H 1345.63 -4.0647 0.353009 0
M  V30 14499 H 1344.31 -3.8826 1.49088 0
M  V30 14500 H 1342.89 -3.71412 -0.332817 0
M  V30 14501 N 1345.07 -0.557671 -1.47404 0
M  V30 14502 C 1346.02 0.189765 -2.30019 0
M  V30 14503 C 1346.99 0.907923 -1.3909 0
M  V30 14504 O 1348.17 0.903528 -1.68051 0
M  V30 14505 C 1345.31 1.21348 -3.23061 0
M  V30 14506 C 1344.43 0.501343 -4.29081 0
M  V30 14507 C 1343.56 1.51039 -5.09275 0
M  V30 14508 C 1342.6 0.783254 -6.07068 0
M  V30 14509 N 1341.74 1.73916 -6.80219 0
M  V30 14510 H 1346.58 -0.520856 -2.93413 0
M  V30 14511 H 1344.11 -0.268686 -1.44625 0
M  V30 14512 H 1346.07 1.81961 -3.75428 0
M  V30 14513 H 1344.7 1.89213 -2.61531 0
M  V30 14514 H 1343.75 -0.219317 -3.79767 0
M  V30 14515 H 1345.07 -0.0682656 -4.98753 0
M  V30 14516 H 1344.22 2.19004 -5.65793 0
M  V30 14517 H 1342.96 2.11392 -4.39505 0
M  V30 14518 H 1341.96 0.0896883 -5.49727 0
M  V30 14519 H 1343.19 0.185464 -6.78847 0
M  V30 14520 H 1341.14 2.33125 -6.13179 0
M  V30 14521 H 1341.05 1.22171 -7.46063 0
M  V30 14522 H 1342.32 2.40993 -7.41311 0
M  V30 14523 N 1346.55 1.54831 -0.294147 0
M  V30 14524 C 1347.83 1.92071 0.369902 0
M  V30 14525 C 1348.21 1.22061 1.72233 0
M  V30 14526 O 1347.55 0.353975 2.25742 0
M  V30 14527 C 1347.76 3.45524 0.49135 0
M  V30 14528 C 1349.11 4.17644 0.765411 0
M  V30 14529 O 1350.14 3.51521 0.575428 0
M  V30 14530 O 1349 5.34692 1.12992 0
M  V30 14531 H 1346.09 0.801033 0.20561 0
M  V30 14532 H 1348.64 1.66224 -0.341702 0
M  V30 14533 H 1347.41 3.88591 -0.459663 0
M  V30 14534 H 1347.03 3.77384 1.25169 0
M  V30 14535 N 1348.03 0.0217466 1.57585 0
M  V30 14536 C 1348.96 -0.961069 2.12804 0
M  V30 14537 C 1349.94 -1.3442 1.04237 0
M  V30 14538 O 1351.12 -1.42412 1.32032 0
M  V30 14539 C 1348.25 -2.24586 2.64912 0
M  V30 14540 C 1347.21 -2.0037 3.78201 0
M  V30 14541 C 1346.53 -3.35051 4.16708 0
M  V30 14542 C 1347.83 -1.34879 5.04584 0
M  V30 14543 H 1349.53 -0.501222 2.95175 0
M  V30 14544 H 1347.07 -0.239649 1.41992 0
M  V30 14545 H 1349.03 -2.93715 3.02175 0
M  V30 14546 H 1347.75 -2.72723 1.79693 0
M  V30 14547 H 1346.41 -1.33662 3.41365 0
M  V30 14548 H 1346.06 -3.80932 3.28481 0
M  V30 14549 H 1345.76 -3.19656 4.93045 0
M  V30 14550 H 1347.28 -4.05459 4.56547 0
M  V30 14551 H 1348.7 -1.93997 5.3948 0
M  V30 14552 H 1347.09 -1.29906 5.85871 0
M  V30 14553 H 1348.16 -0.320774 4.83838 0
M  V30 14554 N 1349.51 -1.55583 -0.251311 0
M  V30 14555 C 1350.75 -1.76411 -0.977859 0
M  V30 14556 C 1351.07 -0.584857 -1.86651 0
M  V30 14557 O 1352.27 -0.676046 -2.62948 0
M  V30 14558 C 1350.73 -3.12302 -1.78872 0
M  V30 14559 C 1350.34 -4.37862 -0.947674 0
M  V30 14560 C 1352.08 -3.42471 -2.50827 0
M  V30 14561 C 1349.99 -5.64786 -1.75417 0
M  V30 14562 H 1348.92 -0.657628 -0.368839 0
M  V30 14563 H 1351.57 -1.82019 -0.232682 0
M  V30 14564 H 1349.95 -3.0079 -2.57569 0
M  V30 14565 H 1351.13 -4.60351 -0.203352 0
M  V30 14566 H 1349.44 -4.14996 -0.341666 0
M  V30 14567 H 1352.04 -4.34514 -3.11612 0
M  V30 14568 H 1352.38 -2.63592 -3.22219 0
M  V30 14569 H 1352.91 -3.55179 -1.79145 0
M  V30 14570 H 1349.65 -6.46474 -1.08407 0
M  V30 14571 H 1349.17 -5.46405 -2.47389 0
M  V30 14572 H 1350.85 -6.03881 -2.32242 0
M  V30 14573 N 1350.98 0.516783 -1.48886 0
M  V30 14574 C 1351.95 1.60226 -1.63891 0
M  V30 14575 C 1352.95 1.52448 -0.511479 0
M  V30 14576 O 1354.14 1.55882 -0.777582 0
M  V30 14577 C 1351.27 2.99867 -1.62151 0
M  V30 14578 H 1352.46 1.48256 -2.60692 0
M  V30 14579 H 1350.01 0.739844 -1.37681 0
M  V30 14580 H 1350.75 3.1733 -0.668764 0
M  V30 14581 H 1350.53 3.0692 -2.44013 0
M  V30 14582 H 1352.02 3.7876 -1.7587 0
M  V30 14583 N 1352.46 1.37696 0.766659 0
M  V30 14584 C 1353.37 1.36075 1.91104 0
M  V30 14585 C 1354.39 0.259617 1.72052 0
M  V30 14586 O 1355.56 0.49586 1.952 0
M  V30 14587 C 1352.63 1.17176 3.26298 0
M  V30 14588 C 1351.69 2.36975 3.57968 0
M  V30 14589 C 1350.92 2.18968 4.86712 0
M  V30 14590 O 1351.15 1.17658 5.58133 0
M  V30 14591 O 1350.08 3.07269 5.17561 0
M  V30 14592 H 1353.91 2.32472 1.95424 0
M  V30 14593 H 1351.49 1.18478 0.910122 0
M  V30 14594 H 1353.37 1.08645 4.07154 0
M  V30 14595 H 1352.05 0.238559 3.2282 0
M  V30 14596 H 1350.95 2.51079 2.77327 0
M  V30 14597 H 1352.29 3.2888 3.66195 0
M  V30 14598 N 1353.94 -0.993397 1.22349 0
M  V30 14599 C 1355.19 -1.72707 1.04189 0
M  V30 14600 C 1355.5 -1.90963 -0.423381 0
M  V30 14601 O 1356.71 -2.61651 -0.724645 0
M  V30 14602 C 1355.16 -3.10739 1.81575 0
M  V30 14603 C 1354.77 -3.00415 3.32347 0
M  V30 14604 C 1356.52 -3.88155 1.71861 0
M  V30 14605 C 1354.42 -4.33598 4.02177 0
M  V30 14606 H 1353.35 -0.647556 0.386248 0
M  V30 14607 H 1356 -1.10902 1.46195 0
M  V30 14608 H 1354.39 -3.73222 1.32367 0
M  V30 14609 H 1355.56 -2.47099 3.88946 0
M  V30 14610 H 1353.87 -2.36482 3.42732 0
M  V30 14611 H 1356.47 -4.8673 2.21354 0
M  V30 14612 H 1356.81 -4.10726 0.678939 0
M  V30 14613 H 1357.35 -3.32347 2.18609 0
M  V30 14614 H 1354.09 -4.16226 5.06395 0
M  V30 14615 H 1353.61 -4.86829 3.50367 0
M  V30 14616 H 1355.29 -5.02348 4.07744 0
M  V30 14617 N 1355.42 -1.03311 -1.19015 0
M  V30 14618 C 1356.35 -0.575655 -2.21853 0
M  V30 14619 C 1357.36 0.350705 -1.58978 0
M  V30 14620 O 1358.55 0.146425 -1.77898 0
M  V30 14621 C 1355.65 0.179949 -3.38422 0
M  V30 14622 C 1354.82 -0.752403 -4.3088 0
M  V30 14623 C 1353.88 -0.0414484 -5.26184 0
M  V30 14624 O 1352.91 -0.669403 -5.6525 0
M  V30 14625 N 1354.11 1.22783 -5.67366 0
M  V30 14626 H 1356.88 -1.46013 -2.61726 0
M  V30 14627 H 1354.44 -0.912655 -1.33724 0
M  V30 14628 H 1356.43 0.66522 -3.99195 0
M  V30 14629 H 1355 0.965879 -2.97304 0
M  V30 14630 H 1354.22 -1.41768 -3.67825 0
M  V30 14631 H 1355.51 -1.38592 -4.89561 0
M  V30 14632 H 1354.91 1.75867 -5.37668 0
M  V30 14633 H 1353.46 1.65752 -6.30372 0
M  V30 14634 N 1356.9 1.35099 -0.81154 0
M  V30 14635 C 1357.84 2.29717 -0.223372 0
M  V30 14636 C 1358.81 1.53049 0.645396 0
M  V30 14637 O 1360 1.81467 0.589436 0
M  V30 14638 C 1357.14 3.3952 0.618057 0
M  V30 14639 C 1356.25 4.31145 -0.271693 0
M  V30 14640 C 1355.39 5.28044 0.578214 0
M  V30 14641 C 1354.42 6.11306 -0.311628 0
M  V30 14642 N 1353.56 7.00328 0.498539 0
M  V30 14643 H 1358.4 2.79426 -1.03563 0
M  V30 14644 H 1355.94 1.37518 -0.522231 0
M  V30 14645 H 1357.9 4.01854 1.12111 0
M  V30 14646 H 1356.53 2.91075 1.39554 0
M  V30 14647 H 1355.58 3.69773 -0.892885 0
M  V30 14648 H 1356.89 4.89545 -0.956392 0
M  V30 14649 H 1356.04 5.95774 1.1462 0
M  V30 14650 H 1354.78 4.70152 1.29646 0
M  V30 14651 H 1353.79 5.42518 -0.891849 0
M  V30 14652 H 1355.01 6.71277 -1.02781 0
M  V30 14653 H 1352.96 6.44919 1.20067 0
M  V30 14654 H 1352.88 7.55892 -0.12801 0
M  V30 14655 H 1354.14 7.72401 1.04965 0
M  V30 14656 N 1358.37 0.56548 1.47106 0
M  V30 14657 C 1359.31 -0.215154 2.28188 0
M  V30 14658 C 1360.32 -0.871671 1.37498 0
M  V30 14659 O 1361.51 -0.744131 1.6225 0
M  V30 14660 C 1358.61 -1.32289 3.12014 0
M  V30 14661 C 1357.78 -0.761594 4.30719 0
M  V30 14662 C 1356.84 -1.75486 4.96076 0
M  V30 14663 O 1355.87 -1.29771 5.5421 0
M  V30 14664 N 1357.07 -3.0885 4.9152 0
M  V30 14665 H 1359.83 0.480405 2.95825 0
M  V30 14666 H 1357.39 0.402099 1.56827 0
M  V30 14667 H 1359.39 -1.98628 3.52603 0
M  V30 14668 H 1357.96 -1.92156 2.46566 0
M  V30 14669 H 1357.18 0.078794 3.94121 0
M  V30 14670 H 1358.46 -0.366072 5.07481 0
M  V30 14671 H 1357.86 -3.4863 4.45504 0
M  V30 14672 H 1356.42 -3.70725 5.36103 0
M  V30 14673 N 1359.85 -1.54672 0.302354 0
M  V30 14674 C 1361.1 -1.99771 -0.305919 0
M  V30 14675 C 1361.42 -1.19225 -1.54306 0
M  V30 14676 O 1360.69 -0.288569 -1.93763 0
M  V30 14677 H 1359.27 -0.737934 -0.116026 0
M  V30 14678 H 1361.93 -1.90452 0.413997 0
M  V30 14679 H 1361.03 -3.06719 -0.577024 0
M  V30 14680 N 1361.33 -0.0301034 -1.57571 0
M  V30 14681 C 1362.28 0.960604 -2.06776 0
M  V30 14682 C 1363.26 1.28488 -0.968483 0
M  V30 14683 O 1364.46 1.27083 -1.23203 0
M  V30 14684 C 1361.59 2.24268 -2.59921 0
M  V30 14685 C 1360.67 1.94673 -3.7678 0
M  V30 14686 N 1361.06 1.3535 -4.87354 0
M  V30 14687 C 1359.36 2.24658 -3.85285 0
M  V30 14688 C 1360.06 1.22909 -5.68567 0
M  V30 14689 N 1359.04 1.72493 -5.15507 0
M  V30 14690 H 1362.84 0.496931 -2.89668 0
M  V30 14691 H 1360.35 0.174886 -1.61456 0
M  V30 14692 H 1362.35 2.96116 -2.93463 0
M  V30 14693 H 1361.01 2.71261 -1.78459 0
M  V30 14694 H 1362.02 1.02839 -5.07587 0
M  V30 14695 H 1358.7 2.74318 -3.14731 0
M  V30 14696 H 1360.09 0.7703 -6.6747 0
M  V30 14697 N 1362.81 1.55714 0.243056 0
M  V30 14698 C 1364.06 1.77375 0.968638 0
M  V30 14699 C 1364.38 0.594781 1.85708 0
M  V30 14700 O 1363.65 -0.38928 1.91993 0
M  V30 14701 H 1362.23 0.654174 0.360646 0
M  V30 14702 H 1364.89 1.93157 0.260079 0
M  V30 14703 H 1363.99 2.68674 1.5881 0
M  V30 14704 N 1364.29 -0.50888 1.49158 0
M  V30 14705 C 1365.22 -1.62778 1.61356 0
M  V30 14706 C 1366.23 -1.55039 0.496653 0
M  V30 14707 O 1367.42 -1.61115 0.768386 0
M  V30 14708 C 1364.52 -3.01534 1.54694 0
M  V30 14709 C 1363.69 -3.34539 2.81785 0
M  V30 14710 C 1362.75 -4.5267 2.68283 0
M  V30 14711 O 1361.78 -4.54844 3.42207 0
M  V30 14712 N 1362.98 -5.52115 1.79303 0
M  V30 14713 H 1365.75 -1.52744 2.57855 0
M  V30 14714 H 1363.31 -0.696597 1.46148 0
M  V30 14715 H 1365.3 -3.7847 1.43327 0
M  V30 14716 H 1363.87 -3.05535 0.660849 0
M  V30 14717 H 1363.09 -2.46576 3.07561 0
M  V30 14718 H 1364.38 -3.53384 3.66057 0
M  V30 14719 H 1363.77 -5.53153 1.18485 0
M  V30 14720 H 1362.33 -6.28184 1.73863 0
M  V30 14721 N 1365.76 -1.381 -0.759346 0
M  V30 14722 C 1367.01 -1.35196 -1.51966 0
M  V30 14723 C 1367.37 0.0595044 -1.92308 0
M  V30 14724 O 1366.66 1.02089 -1.62137 0
M  V30 14725 C 1366.85 -2.23636 -2.78786 0
M  V30 14726 C 1366.68 -3.73241 -2.50841 0
M  V30 14727 C 1365.45 -4.42292 -2.44348 0
M  V30 14728 C 1367.65 -4.6581 -2.18003 0
M  V30 14729 N 1365.63 -5.77366 -2.08617 0
M  V30 14730 C 1367 -5.89354 -1.92516 0
M  V30 14731 C 1369.06 -4.54071 -2.04264 0
M  V30 14732 C 1367.76 -7.02473 -1.54675 0
M  V30 14733 C 1369.79 -5.67088 -1.67825 0
M  V30 14734 C 1369.15 -6.89689 -1.43206 0
M  V30 14735 H 1365.25 -0.550002 -0.555897 0
M  V30 14736 H 1367.83 -1.73436 -0.884769 0
M  V30 14737 H 1366 -1.87594 -3.40093 0
M  V30 14738 H 1367.73 -2.119 -3.44791 0
M  V30 14739 H 1364.49 -3.95439 -2.60624 0
M  V30 14740 H 1364.91 -6.48784 -1.93414 0
M  V30 14741 H 1369.56 -3.59843 -2.21975 0
M  V30 14742 H 1367.27 -7.96624 -1.35704 0
M  V30 14743 H 1370.86 -5.59982 -1.57834 0
M  V30 14744 H 1369.74 -7.75658 -1.15428 0
M  V30 14745 N 1367.24 0.986894 -1.22875 0
M  V30 14746 C 1368.47 1.76266 -1.08342 0
M  V30 14747 C 1368.89 1.85226 0.365602 0
M  V30 14748 O 1368.24 1.32675 1.25314 0
M  V30 14749 C 1368.29 3.19282 -1.69533 0
M  V30 14750 O 1368.01 3.10796 -3.08768 0
M  V30 14751 C 1369.52 4.13281 -1.60355 0
M  V30 14752 H 1366.74 0.553374 -0.379497 0
M  V30 14753 H 1369.28 1.24033 -1.62592 0
M  V30 14754 H 1367.43 3.68563 -1.19332 0
M  V30 14755 H 1367.85 4.0078 -3.38343 0
M  V30 14756 H 1369.32 5.11359 -2.07884 0
M  V30 14757 H 1369.8 4.356 -0.561182 0
M  V30 14758 H 1370.41 3.699 -2.09891 0
M  V30 14759 N 1368.72 1.0394 1.18466 0
M  V30 14760 C 1369.95 0.760909 1.92077 0
M  V30 14761 C 1370.36 -0.685622 1.7634 0
M  V30 14762 O 1369.7 -1.47894 1.08963 0
M  V30 14763 C 1369.76 1.04583 3.43952 0
M  V30 14764 C 1369.43 2.48602 3.83466 0
M  V30 14765 C 1370.42 3.46775 3.87354 0
M  V30 14766 C 1368.11 2.8328 4.14798 0
M  V30 14767 C 1370.1 4.77678 4.22022 0
M  V30 14768 C 1367.79 4.1439 4.49138 0
M  V30 14769 C 1368.79 5.11399 4.52725 0
M  V30 14770 O 1368.48 6.40159 4.86264 0
M  V30 14771 H 1368.21 0.276991 0.616646 0
M  V30 14772 H 1370.76 1.3898 1.5124 0
M  V30 14773 H 1368.99 0.359807 3.85022 0
M  V30 14774 H 1370.68 0.755336 3.9881 0
M  V30 14775 H 1371.45 3.21323 3.63286 0
M  V30 14776 H 1367.33 2.08444 4.11184 0
M  V30 14777 H 1370.87 5.53393 4.24737 0
M  V30 14778 H 1366.77 4.39611 4.72666 0
M  V30 14779 H 1367.54 6.4479 5.04171 0
M  V30 14780 N 1370.2 -1.34667 0.818693 0
M  V30 14781 C 1371.13 -2.28368 0.195126 0
M  V30 14782 C 1372.14 -1.50836 -0.612562 0
M  V30 14783 O 1373.33 -1.72917 -0.442936 0
M  V30 14784 C 1370.43 -3.30601 -0.745411 0
M  V30 14785 C 1369.61 -4.37396 0.0185308 0
M  V30 14786 C 1368.66 -5.19415 -0.842298 0
M  V30 14787 O 1367.69 -5.68467 -0.288821 0
M  V30 14788 N 1368.89 -5.38709 -2.1627 0
M  V30 14789 H 1371.66 -2.8252 1.00013 0
M  V30 14790 H 1369.22 -1.47146 0.675262 0
M  V30 14791 H 1371.21 -3.82367 -1.3258 0
M  V30 14792 H 1369.78 -2.76875 -1.45118 0
M  V30 14793 H 1369 -3.86402 0.780205 0
M  V30 14794 H 1370.29 -5.05877 0.544575 0
M  V30 14795 H 1369.69 -5.00523 -2.63616 0
M  V30 14796 H 1368.24 -5.9361 -2.69204 0
M  V30 14797 N 1371.68 -0.573274 -1.46804 0
M  V30 14798 C 1372.93 -0.0530267 -2.0163 0
M  V30 14799 C 1373.24 1.31124 -1.45141 0
M  V30 14800 O 1374.44 1.92231 -1.91728 0
M  V30 14801 C 1372.9 -0.0442411 -3.59873 0
M  V30 14802 C 1372.51 -1.40625 -4.25357 0
M  V30 14803 C 1374.25 0.422556 -4.22392 0
M  V30 14804 C 1372.16 -1.3557 -5.75652 0
M  V30 14805 H 1371.09 -0.0160537 -0.753829 0
M  V30 14806 H 1373.74 -0.723518 -1.68634 0
M  V30 14807 H 1372.12 0.692225 -3.89903 0
M  V30 14808 H 1373.3 -2.1617 -4.06949 0
M  V30 14809 H 1371.61 -1.81229 -3.74893 0
M  V30 14810 H 1374.21 0.479021 -5.3255 0
M  V30 14811 H 1374.55 1.43806 -3.90673 0
M  V30 14812 H 1375.08 -0.259551 -3.96952 0
M  V30 14813 H 1371.82 -2.34772 -6.12015 0
M  V30 14814 H 1371.34 -0.642309 -5.96351 0
M  V30 14815 H 1373.02 -1.06458 -6.38182 0
M  V30 14816 N 1373.15 1.5451 -0.310553 0
M  V30 14817 C 1374.38 2.04442 0.297807 0
M  V30 14818 C 1374.79 1.18695 1.47337 0
M  V30 14819 O 1374.14 0.207405 1.82525 0
M  V30 14820 C 1374.2 3.50306 0.807851 0
M  V30 14821 C 1373.86 4.5635 -0.24369 0
M  V30 14822 C 1374.86 5.08656 -1.07539 0
M  V30 14823 C 1372.54 5.00798 -0.388138 0
M  V30 14824 C 1374.54 6.03961 -2.03738 0
M  V30 14825 C 1372.22 5.95921 -1.35357 0
M  V30 14826 C 1373.22 6.47387 -2.17667 0
M  V30 14827 O 1372.91 7.40644 -3.12571 0
M  V30 14828 H 1372.64 0.672646 0.0672525 0
M  V30 14829 H 1375.2 2.00389 -0.450948 0
M  V30 14830 H 1373.43 3.51714 1.6073 0
M  V30 14831 H 1375.12 3.83383 1.33314 0
M  V30 14832 H 1375.88 4.75105 -0.97471 0
M  V30 14833 H 1371.76 4.60361 0.242608 0
M  V30 14834 H 1375.3 6.44057 -2.68023 0
M  V30 14835 H 1371.2 6.2889 -1.45493 0
M  V30 14836 H 1371.97 7.58477 -3.0766 0
M  V30 14837 N 1374.63 0.0384594 1.57553 0
M  V30 14838 C 1375.57 -0.969185 2.077 0
M  V30 14839 C 1376.58 -1.2829 1.00227 0
M  V30 14840 O 1377.77 -1.24592 1.27824 0
M  V30 14841 C 1374.87 -2.29414 2.49444 0
M  V30 14842 C 1374.04 -2.16422 3.80106 0
M  V30 14843 C 1373.1 -3.31931 4.08299 0
M  V30 14844 O 1372.13 -3.08401 4.78412 0
M  V30 14845 N 1373.33 -4.56015 3.59208 0
M  V30 14846 H 1376.09 -0.541252 2.94772 0
M  V30 14847 H 1373.65 -0.148084 1.61221 0
M  V30 14848 H 1375.65 -3.05533 2.6539 0
M  V30 14849 H 1374.22 -2.63817 1.67688 0
M  V30 14850 H 1373.44 -1.24973 3.73866 0
M  V30 14851 H 1374.72 -2.04954 4.65694 0
M  V30 14852 H 1374.12 -4.78025 3.02503 0
M  V30 14853 H 1372.68 -5.29271 3.80415 0
M  V30 14854 N 1376.11 -1.55841 -0.234795 0
M  V30 14855 C 1377.02 -1.94476 -1.31211 0
M  V30 14856 C 1378.04 -0.846782 -1.52005 0
M  V30 14857 O 1379.21 -1.14922 -1.65393 0
M  V30 14858 C 1376.28 -2.24213 -2.64442 0
M  V30 14859 C 1375.34 -3.47508 -2.52065 0
M  V30 14860 C 1374.57 -3.75817 -3.78942 0
M  V30 14861 O 1374.8 -3.06007 -4.81369 0
M  V30 14862 O 1373.73 -4.69328 -3.76848 0
M  V30 14863 H 1377.56 -2.8626 -1.01434 0
M  V30 14864 H 1375.14 -1.42879 -0.436563 0
M  V30 14865 H 1377.02 -2.44594 -3.4315 0
M  V30 14866 H 1375.7 -1.35605 -2.93927 0
M  V30 14867 H 1374.6 -3.32421 -1.71602 0
M  V30 14868 H 1375.94 -4.36457 -2.27523 0
M  V30 14869 N 1377.59 0.500963 -1.49426 0
M  V30 14870 C 1379 1.08248 -1.52116 0
M  V30 14871 C 1379.35 1.93777 -0.30738 0
M  V30 14872 O 1378.48 2.08404 0.582805 0
M  V30 14873 C 1379.07 1.96988 -2.75647 0
M  V30 14874 C 1377.63 2.50303 -2.81115 0
M  V30 14875 C 1376.78 1.27924 -2.4603 0
M  V30 14876 H 1379.73 0.284872 -1.56122 0
M  V30 14877 H 1379.75 2.81675 -2.55811 0
M  V30 14878 H 1379.26 1.34711 -3.6397 0
M  V30 14879 H 1377.36 3.16218 -1.97072 0
M  V30 14880 H 1377.48 2.87453 -3.83286 0
M  V30 14881 H 1375.84 1.60447 -1.9781 0
M  V30 14882 H 1376.62 0.673557 -3.36628 0
M  V30 14883 N 1379.07 1.38501 0.752011 0
M  V30 14884 C 1380.31 1.34795 1.51118 0
M  V30 14885 C 1380.64 -0.0615084 1.94403 0
M  V30 14886 O 1379.9 -1.03892 1.65846 0
M  V30 14887 C 1380.2 2.25111 2.77596 0
M  V30 14888 C 1379.86 3.73052 2.53265 0
M  V30 14889 C 1378.52 4.13365 2.46339 0
M  V30 14890 C 1380.88 4.66692 2.32051 0
M  V30 14891 C 1378.2 5.45406 2.16216 0
M  V30 14892 C 1380.56 5.98992 2.03448 0
M  V30 14893 C 1379.22 6.38388 1.94979 0
M  V30 14894 H 1378.49 0.49325 0.552979 0
M  V30 14895 H 1381.14 1.70872 0.864588 0
M  V30 14896 H 1379.44 1.82096 3.46913 0
M  V30 14897 H 1381.14 2.19547 3.3556 0
M  V30 14898 H 1377.73 3.41091 2.59528 0
M  V30 14899 H 1381.91 4.36392 2.3638 0
M  V30 14900 H 1377.17 5.7487 2.08168 0
M  V30 14901 H 1381.34 6.71091 1.86037 0
M  V30 14902 H 1378.97 7.40625 1.71402 0
M  V30 14903 N 1380.55 -0.980364 1.23396 0
M  V30 14904 C 1381.49 -2.07275 1.01516 0
M  V30 14905 C 1382.46 -1.65963 -0.0673729 0
M  V30 14906 O 1383.65 -1.90612 0.0847392 0
M  V30 14907 C 1380.79 -3.39621 0.61249 0
M  V30 14908 C 1379.9 -3.94203 1.76715 0
M  V30 14909 C 1379.04 -5.14761 1.31126 0
M  V30 14910 C 1378.07 -5.61509 2.43667 0
M  V30 14911 N 1377.21 -6.73297 1.99035 0
M  V30 14912 H 1382.05 -2.25325 1.9502 0
M  V30 14913 H 1379.59 -1.10452 0.971532 0
M  V30 14914 H 1381.55 -4.15643 0.360126 0
M  V30 14915 H 1380.18 -3.21535 -0.285539 0
M  V30 14916 H 1379.23 -3.14937 2.13352 0
M  V30 14917 H 1380.54 -4.24867 2.61323 0
M  V30 14918 H 1379.69 -5.98115 1.01702 0
M  V30 14919 H 1378.43 -4.85751 0.435555 0
M  V30 14920 H 1377.44 -4.76737 2.73865 0
M  V30 14921 H 1378.66 -5.92539 3.31774 0
M  V30 14922 H 1376.61 -6.46046 1.13845 0
M  V30 14923 H 1376.53 -7.03345 2.77203 0
M  V30 14924 H 1377.79 -7.60125 1.72716 0
M  V30 14925 N 1382.02 -1.04567 -1.17913 0
M  V30 14926 C 1382.97 -0.634939 -2.23766 0
M  V30 14927 C 1383.97 0.340723 -1.65938 0
M  V30 14928 O 1385.17 0.207467 -1.788 0
M  V30 14929 H 1381.55 -0.187129 -0.728345 0
M  V30 14930 H 1383.52 -1.53798 -2.55712 0
M  V30 14931 C 1382.27 -0.0190662 -3.47695 0
M  V30 14932 H 1381.59 -0.760881 -3.92493 0
M  V30 14933 H 1383.03 0.231035 -4.2337 0
M  V30 14934 C 1381.49 1.23246 -3.13548 0
M  V30 14935 O 1382.02 2.32262 -3.27746 0
M  V30 14936 N 1380.22 1.12768 -2.67828 0
M  V30 14937 H 1379.77 0.240547 -2.56474 0
M  V30 14938 H 1379.73 1.96594 -2.45353 0
M  V30 14939 N 1383.5 1.34231 -0.825823 0
M  V30 14940 C 1384.43 2.31997 -0.264546 0
M  V30 14941 C 1385.41 1.58375 0.620592 0
M  V30 14942 O 1386.6 1.86341 0.546865 0
M  V30 14943 C 1383.73 3.42557 0.572025 0
M  V30 14944 C 1382.68 4.27454 -0.216219 0
M  V30 14945 C 1382.01 5.29509 0.743279 0
M  V30 14946 C 1383.31 5.02456 -1.42603 0
M  V30 14947 H 1385 2.79189 -1.08139 0
M  V30 14948 H 1382.55 1.34227 -0.521451 0
M  V30 14949 H 1384.5 4.09968 0.974889 0
M  V30 14950 H 1383.22 2.94021 1.42195 0
M  V30 14951 H 1381.88 3.61649 -0.600485 0
M  V30 14952 H 1381.53 4.77234 1.58924 0
M  V30 14953 H 1381.23 5.87188 0.220064 0
M  V30 14954 H 1382.76 5.99789 1.14394 0
M  V30 14955 H 1384.17 5.62706 -1.09702 0
M  V30 14956 H 1382.57 5.69723 -1.88509 0
M  V30 14957 H 1383.64 4.31983 -2.2027 0
M  V30 14958 N 1384.98 0.581051 1.46498 0
M  V30 14959 C 1385.93 -0.153147 2.30291 0
M  V30 14960 C 1386.9 -0.885681 1.40517 0
M  V30 14961 O 1388.08 -0.876678 1.69467 0
M  V30 14962 C 1385.22 -1.16193 3.24951 0
M  V30 14963 C 1384.33 -0.433016 4.29824 0
M  V30 14964 C 1383.47 -1.42918 5.11613 0
M  V30 14965 C 1382.51 -0.686576 6.08237 0
M  V30 14966 N 1381.65 -1.63072 6.829 0
M  V30 14967 H 1386.49 0.56747 2.92547 0
M  V30 14968 H 1384.02 0.29166 1.4418 0
M  V30 14969 H 1385.98 -1.75965 3.78275 0
M  V30 14970 H 1384.61 -1.85028 2.64508 0
M  V30 14971 H 1383.66 0.279707 3.7937 0
M  V30 14972 H 1384.97 0.147604 4.98582 0
M  V30 14973 H 1384.13 -2.09975 5.69206 0
M  V30 14974 H 1382.87 -2.04373 4.42813 0
M  V30 14975 H 1381.87 -0.00222013 5.498 0
M  V30 14976 H 1383.1 -0.0774416 6.79056 0
M  V30 14977 H 1381.04 -2.2334 6.1681 0
M  V30 14978 H 1380.96 -1.10286 7.47912 0
M  V30 14979 H 1382.23 -2.29169 7.45052 0
M  V30 14980 N 1386.46 -1.54343 0.318742 0
M  V30 14981 C 1387.69 -2.04894 -0.287378 0
M  V30 14982 C 1388.1 -1.19514 -1.46157 0
M  V30 14983 O 1387.46 -0.224722 -1.81111 0
M  V30 14984 C 1387.51 -3.54124 -0.726505 0
M  V30 14985 O 1387.23 -4.36261 0.400968 0
M  V30 14986 C 1388.73 -4.20748 -1.39594 0
M  V30 14987 H 1385.95 -0.668323 -0.0598724 0
M  V30 14988 H 1388.49 -1.99177 0.463531 0
M  V30 14989 H 1386.65 -3.60145 -1.4274 0
M  V30 14990 H 1387.06 -5.2447 0.0558714 0
M  V30 14991 H 1388.54 -5.26632 -1.65418 0
M  V30 14992 H 1389.01 -3.71566 -2.3417 0
M  V30 14993 H 1389.62 -4.18852 -0.737749 0
M  V30 14994 N 1387.94 -0.0468143 -1.5753 0
M  V30 14995 C 1389.18 0.626699 -1.92138 0
M  V30 14996 C 1389.5 1.7164 -0.925463 0
M  V30 14997 O 1388.77 1.95876 0.0303531 0
M  V30 14998 H 1387.35 0.234479 -0.709245 0
M  V30 14999 H 1390.02 -0.0987892 -1.94649 0
M  V30 15000 H 1389.11 1.06811 -2.93254 0
M  V30 15001 N 1389.41 1.55964 0.226527 0
M  V30 15002 C 1390.36 1.92007 1.28069 0
M  V30 15003 C 1391.33 0.776666 1.46823 0
M  V30 15004 O 1392.52 1.03213 1.60474 0
M  V30 15005 C 1389.66 2.23784 2.62707 0
M  V30 15006 C 1388.77 3.51034 2.51792 0
M  V30 15007 C 1387.9 3.72281 3.7892 0
M  V30 15008 C 1386.94 4.93062 3.62707 0
M  V30 15009 N 1386.08 5.10725 4.81772 0
M  V30 15010 H 1390.92 2.81898 0.96631 0
M  V30 15011 H 1388.46 1.39529 0.465847 0
M  V30 15012 H 1390.42 2.40217 3.41104 0
M  V30 15013 H 1389.05 1.37073 2.92251 0
M  V30 15014 H 1388.1 3.42822 1.64856 0
M  V30 15015 H 1389.41 4.39582 2.35731 0
M  V30 15016 H 1388.56 3.88783 4.6576 0
M  V30 15017 H 1387.3 2.82004 3.97901 0
M  V30 15018 H 1386.31 4.76515 2.7425 0
M  V30 15019 H 1387.53 5.84819 3.45201 0
M  V30 15020 H 1385.48 4.2339 5.01076 0
M  V30 15021 H 1385.4 5.93397 4.68419 0
M  V30 15022 H 1386.66 5.31658 5.70053 0
M  V30 15023 N 1390.89 -0.493031 1.4969 0
M  V30 15024 C 1392.12 -1.26862 1.63063 0
M  V30 15025 C 1392.53 -1.86734 0.304451 0
M  V30 15026 O 1391.87 -1.68956 -0.72108 0
M  V30 15027 C 1391.94 -2.43249 2.64708 0
M  V30 15028 C 1391.6 -2.04185 4.08849 0
M  V30 15029 C 1392.6 -1.57698 4.95406 0
M  V30 15030 C 1390.28 -2.13576 4.54632 0
M  V30 15031 C 1392.28 -1.21116 6.25787 0
M  V30 15032 C 1389.96 -1.76606 5.85024 0
M  V30 15033 C 1390.96 -1.30451 6.70426 0
M  V30 15034 O 1390.65 -0.939844 7.98387 0
M  V30 15035 H 1390.38 -0.390674 0.551679 0
M  V30 15036 H 1392.93 -0.59753 1.96516 0
M  V30 15037 H 1391.16 -3.1346 2.26451 0
M  V30 15038 H 1392.85 -3.0526 2.67528 0
M  V30 15039 H 1393.62 -1.49882 4.6126 0
M  V30 15040 H 1389.5 -2.48451 3.88321 0
M  V30 15041 H 1393.04 -0.850198 6.924 0
M  V30 15042 H 1388.94 -1.84074 6.18698 0
M  V30 15043 H 1389.71 -1.07062 8.11468 0
M  V30 15044 N 1392.37 -1.38898 -0.744656 0
M  V30 15045 C 1393.33 -1.36633 -1.84022 0
M  V30 15046 C 1394.33 -0.265187 -1.58598 0
M  V30 15047 O 1395.52 -0.522569 -1.66177 0
M  V30 15048 C 1392.66 -1.12938 -3.21649 0
M  V30 15049 H 1393.85 -2.34111 -1.87435 0
M  V30 15050 H 1391.4 -1.24322 -0.947302 0
M  V30 15051 H 1392.14 -0.161027 -3.239 0
M  V30 15052 H 1391.92 -1.9267 -3.41498 0
M  V30 15053 H 1393.41 -1.14071 -4.01718 0
M  V30 15054 N 1393.85 0.973806 -1.23914 0
M  V30 15055 C 1395.26 1.24128 -1.00322 0
M  V30 15056 C 1395.46 1.99378 0.29169 0
M  V30 15057 O 1394.52 2.31445 1.00943 0
M  V30 15058 C 1395.83 2.03438 -2.21435 0
M  V30 15059 C 1397.38 2.16553 -2.25995 0
M  V30 15060 C 1397.86 2.99257 -3.46712 0
M  V30 15061 N 1399.35 3.0684 -3.46992 0
M  V30 15062 C 1400.08 3.71174 -4.37055 0
M  V30 15063 N 1399.58 4.37277 -5.37364 0
M  V30 15064 N 1401.37 3.68126 -4.24782 0
M  V30 15065 H 1393.52 0.469872 -2.07138 0
M  V30 15066 H 1395.79 0.270234 -0.908668 0
M  V30 15067 H 1395.49 1.55527 -3.15443 0
M  V30 15068 H 1395.37 3.0418 -2.23057 0
M  V30 15069 H 1397.75 2.6367 -1.32522 0
M  V30 15070 H 1397.83 1.15179 -2.28402 0
M  V30 15071 H 1397.48 2.52835 -4.40496 0
M  V30 15072 H 1397.41 4.00815 -3.41547 0
M  V30 15073 H 1399.9 2.59813 -2.74419 0
M  V30 15074 H 1400.21 4.84166 -6.02331 0
M  V30 15075 H 1398.56 4.35965 -5.41257 0
M  V30 15076 H 1401.75 3.15657 -3.45656 0
M  V30 15077 H 1401.92 4.17981 -4.95173 0
M  V30 15078 N 1395.33 1.05191 1.17357 0
M  V30 15079 C 1396.26 0.597207 2.20247 0
M  V30 15080 C 1397.24 -0.374194 1.58236 0
M  V30 15081 O 1398.42 -0.285815 1.86321 0
M  V30 15082 C 1395.55 -0.126012 3.38466 0
M  V30 15083 C 1394.59 0.800401 4.18922 0
M  V30 15084 S 1395.43 2.28956 4.84086 0
M  V30 15085 C 1396.58 1.57751 6.05694 0
M  V30 15086 H 1396.82 1.46893 2.58476 0
M  V30 15087 H 1394.35 0.863874 1.27971 0
M  V30 15088 H 1396.31 -0.537086 4.06971 0
M  V30 15089 H 1394.97 -0.97377 2.98624 0
M  V30 15090 H 1394.16 0.240754 5.03425 0
M  V30 15091 H 1393.76 1.15084 3.55853 0
M  V30 15092 H 1396.06 0.876839 6.71802 0
M  V30 15093 H 1397 2.40001 6.66187 0
M  V30 15094 H 1397.41 1.06493 5.54364 0
M  V30 15095 N 1396.8 -1.33791 0.83293 0
M  V30 15096 C 1398.22 -1.50893 0.519955 0
M  V30 15097 C 1398.42 -1.7749 -0.953919 0
M  V30 15098 O 1397.48 -1.83168 -1.73798 0
M  V30 15099 C 1398.79 -2.66741 1.38815 0
M  V30 15100 C 1400.34 -2.80625 1.38631 0
M  V30 15101 C 1400.81 -3.99528 2.23922 0
M  V30 15102 N 1402.3 -4.06753 2.21599 0
M  V30 15103 C 1403.04 -4.97937 2.84335 0
M  V30 15104 N 1402.53 -5.94276 3.561 0
M  V30 15105 N 1404.33 -4.90887 2.73837 0
M  V30 15106 H 1396.48 -1.14788 1.7871 0
M  V30 15107 H 1398.74 -0.563822 0.762108 0
M  V30 15108 H 1398.45 -2.53748 2.43525 0
M  V30 15109 H 1398.32 -3.62001 1.05996 0
M  V30 15110 H 1400.71 -2.93053 0.346951 0
M  V30 15111 H 1400.79 -1.86144 1.75454 0
M  V30 15112 H 1400.43 -3.8786 3.27914 0
M  V30 15113 H 1400.36 -4.93242 1.84444 0
M  V30 15114 H 1402.85 -3.37802 1.69406 0
M  V30 15115 H 1403.17 -6.60504 4.01191 0
M  V30 15116 H 1401.51 -5.9437 3.60207 0
M  V30 15117 H 1404.7 -4.14586 2.17338 0
M  V30 15118 H 1404.88 -5.61752 3.23014 0
M  V30 15119 N 1398.28 -0.588812 -1.46187 0
M  V30 15120 C 1399.53 -0.0765765 -2.01955 0
M  V30 15121 C 1399.85 1.29034 -1.46203 0
M  V30 15122 O 1399.12 1.84836 -0.649044 0
M  V30 15123 H 1397.7 -0.025318 -0.746571 0
M  V30 15124 H 1400.36 -0.765971 -1.79217 0
M  V30 15125 H 1399.46 -0.0121702 -3.12098 0
M  V30 15126 N 1399.76 1.54172 -0.326923 0
M  V30 15127 C 1400.72 2.2311 0.524855 0
M  V30 15128 C 1401.72 1.22567 1.04087 0
M  V30 15129 O 1402.91 1.47123 0.932759 0
M  V30 15130 C 1400.05 2.93778 1.72937 0
M  V30 15131 H 1401.24 2.99799 -0.0778327 0
M  V30 15132 H 1398.79 1.56105 -0.0780484 0
M  V30 15133 H 1399.53 2.21234 2.3712 0
M  V30 15134 H 1399.31 3.67509 1.36674 0
M  V30 15135 H 1400.8 3.46292 2.33392 0
M  V30 15136 N 1401.24 0.0551678 1.57503 0
M  V30 15137 C 1402.19 -0.927586 2.08278 0
M  V30 15138 C 1403.17 -1.26931 0.988802 0
M  V30 15139 O 1404.36 -1.25107 1.25209 0
M  V30 15140 C 1401.49 -2.20105 2.63456 0
M  V30 15141 C 1400.58 -1.88654 3.7983 0
M  V30 15142 N 1400.97 -1.2758 4.89446 0
M  V30 15143 C 1399.27 -2.185 3.8881 0
M  V30 15144 C 1399.97 -1.13848 5.7045 0
M  V30 15145 N 1398.95 -1.6427 5.18186 0
M  V30 15146 H 1402.75 -0.450784 2.90422 0
M  V30 15147 H 1400.26 -0.149178 1.61713 0
M  V30 15148 H 1402.26 -2.9141 2.98137 0
M  V30 15149 H 1400.92 -2.68388 1.82752 0
M  V30 15150 H 1401.93 -0.947506 5.09159 0
M  V30 15151 H 1398.61 -2.69276 3.19056 0
M  V30 15152 H 1400 -0.664014 6.68611 0
M  V30 15153 N 1402.72 -1.56081 -0.218252 0
M  V30 15154 C 1403.94 -1.83334 -0.958964 0
M  V30 15155 C 1404.36 -0.63472 -1.77811 0
M  V30 15156 O 1403.72 0.396729 -1.78136 0
M  V30 15157 C 1403.77 -3.09141 -1.87387 0
M  V30 15158 O 1403.49 -4.24379 -1.08783 0
M  V30 15159 C 1404.99 -3.49405 -2.7282 0
M  V30 15160 H 1402.21 -0.609375 -0.280898 0
M  V30 15161 H 1404.75 -2.03174 -0.232486 0
M  V30 15162 H 1402.91 -2.91267 -2.55426 0
M  V30 15163 H 1403.32 -4.9587 -1.70919 0
M  V30 15164 H 1404.8 -4.40461 -3.32713 0
M  V30 15165 H 1405.27 -2.71311 -3.45379 0
M  V30 15166 H 1405.88 -3.6973 -2.1019 0
M  V30 15167 N 1404.2 0.485086 -1.49949 0
M  V30 15168 C 1405.14 1.60559 -1.68296 0
M  V30 15169 C 1406.14 1.60264 -0.548802 0
M  V30 15170 O 1407.34 1.64581 -0.728905 0
M  V30 15171 H 1403.72 0.532529 -0.530958 0
M  V30 15172 H 1405.69 1.42242 -2.62316 0
M  V30 15173 C 1404.44 2.98596 -1.78145 0
M  V30 15174 H 1403.76 2.99536 -2.64799 0
M  V30 15175 H 1405.2 3.76492 -1.95012 0
M  V30 15176 C 1403.66 3.32708 -0.529828 0
M  V30 15177 O 1404.19 4.00281 0.337347 0
M  V30 15178 N 1402.4 2.87998 -0.388012 0
M  V30 15179 H 1401.94 2.33182 -1.0947 0
M  V30 15180 H 1401.9 3.11187 0.448307 0
M  V30 15181 N 1405.67 1.39291 0.737279 0
M  V30 15182 C 1406.95 1.26901 1.48847 0
M  V30 15183 C 1407.33 -0.122417 2.10745 0
M  V30 15184 O 1406.68 -1.13343 1.98408 0
M  V30 15185 C 1406.89 2.3916 2.54172 0
M  V30 15186 C 1408.24 2.78368 3.20619 0
M  V30 15187 O 1409.26 2.38593 2.64484 0
M  V30 15188 O 1408.12 3.47014 4.22189 0
M  V30 15189 H 1405.21 0.497176 0.660867 0
M  V30 15190 H 1407.76 1.51159 0.771299 0
M  V30 15191 H 1406.53 3.3219 2.06797 0
M  V30 15192 H 1406.15 2.16555 3.33451 0
M  V30 15193 N 1407.15 -0.967221 1.24429 0
M  V30 15194 C 1408.4 -1.71279 1.08588 0
M  V30 15195 C 1408.73 -1.90558 -0.374325 0
M  V30 15196 O 1408.01 -1.46742 -1.27659 0
M  V30 15197 C 1408.29 -3.10326 1.82674 0
M  V30 15198 C 1408.14 -2.98535 3.36447 0
M  V30 15199 C 1409.46 -4.09993 1.59981 0
M  V30 15200 H 1406.58 -0.621658 0.395867 0
M  V30 15201 H 1409.22 -1.12514 1.53103 0
M  V30 15202 H 1407.37 -3.60492 1.44836 0
M  V30 15203 H 1409.04 -2.55791 3.83886 0
M  V30 15204 H 1407.29 -2.34736 3.64803 0
M  V30 15205 H 1407.96 -3.97041 3.83487 0
M  V30 15206 H 1410.43 -3.68687 1.92897 0
M  V30 15207 H 1409.31 -5.05349 2.14274 0
M  V30 15208 H 1409.57 -4.38812 0.538173 0
M  V30 15209 N 1408.63 -1.05812 -1.16797 0
M  V30 15210 C 1409.58 -0.664599 -2.21024 0
M  V30 15211 C 1410.55 0.336352 -1.62659 0
M  V30 15212 O 1411.73 0.226346 -1.89453 0
M  V30 15213 C 1408.87 -0.0520739 -3.45061 0
M  V30 15214 C 1407.98 -1.10261 -4.17692 0
M  V30 15215 C 1407.12 -0.456746 -5.29233 0
M  V30 15216 C 1406.16 -1.49116 -5.93659 0
M  V30 15217 N 1405.3 -0.869002 -6.96701 0
M  V30 15218 H 1410.14 -1.55784 -2.54038 0
M  V30 15219 H 1407.67 -0.778993 -1.2478 0
M  V30 15220 H 1409.63 0.320552 -4.15967 0
M  V30 15221 H 1408.26 0.804592 -3.12612 0
M  V30 15222 H 1407.31 -1.593 -3.45438 0
M  V30 15223 H 1408.62 -1.88757 -4.61706 0
M  V30 15224 H 1407.78 -0.0308814 -6.06692 0
M  V30 15225 H 1406.52 0.360131 -4.86369 0
M  V30 15226 H 1405.52 -1.92697 -5.14925 0
M  V30 15227 H 1406.75 -2.31005 -6.38603 0
M  V30 15228 H 1404.69 -0.0727494 -6.5596 0
M  V30 15229 H 1404.61 -1.59141 -7.3906 0
M  V30 15230 H 1405.88 -0.46812 -7.78093 0
M  V30 15231 N 1410.11 1.33347 -0.840014 0
M  V30 15232 C 1411.04 2.28029 -0.231432 0
M  V30 15233 C 1412.05 1.51792 0.588488 0
M  V30 15234 O 1413.24 1.736 0.415371 0
M  V30 15235 C 1410.34 3.31745 0.692721 0
M  V30 15236 C 1409.51 4.37311 -0.0881144 0
M  V30 15237 C 1408.57 5.20689 0.759557 0
M  V30 15238 O 1407.6 5.68854 0.198347 0
M  V30 15239 N 1408.8 5.42082 2.07672 0
M  V30 15240 H 1411.57 2.80893 -1.04495 0
M  V30 15241 H 1409.13 1.46053 -0.698586 0
M  V30 15242 H 1411.12 3.84428 1.2648 0
M  V30 15243 H 1409.69 2.79148 1.40695 0
M  V30 15244 H 1408.91 3.85112 -0.841579 0
M  V30 15245 H 1410.2 5.04947 -0.624986 0
M  V30 15246 H 1409.6 5.04654 2.55619 0
M  V30 15247 H 1408.15 5.97817 2.59726 0
M  V30 15248 N 1411.59 0.596556 1.45873 0
M  V30 15249 C 1412.52 -0.116229 2.33211 0
M  V30 15250 C 1413.5 -0.869868 1.46176 0
M  V30 15251 O 1414.68 -0.842599 1.74968 0
M  V30 15252 C 1411.81 -1.12145 3.28696 0
M  V30 15253 C 1410.77 -0.481749 4.2528 0
M  V30 15254 C 1410.09 -1.59443 5.10374 0
M  V30 15255 C 1411.39 0.589996 5.18957 0
M  V30 15256 H 1413.09 0.613005 2.93057 0
M  V30 15257 H 1410.63 0.296242 1.4092 0
M  V30 15258 H 1412.58 -1.62857 3.88659 0
M  V30 15259 H 1411.31 -1.88114 2.66985 0
M  V30 15260 H 1409.97 0.0044092 3.666 0
M  V30 15261 H 1409.62 -2.34413 4.45039 0
M  V30 15262 H 1409.32 -1.17197 5.75794 0
M  V30 15263 H 1410.84 -2.10404 5.73204 0
M  V30 15264 H 1412.25 0.167395 5.73056 0
M  V30 15265 H 1410.65 0.933565 5.92794 0
M  V30 15266 H 1411.72 1.47093 4.62052 0
M  V30 15267 N 1413.06 -1.53996 0.335095 0
M  V30 15268 C 1414.03 -2.23385 -0.513015 0
M  V30 15269 C 1415.03 -1.23117 -1.03435 0
M  V30 15270 O 1416.22 -1.47616 -0.924944 0
M  V30 15271 C 1413.35 -2.94691 -1.71377 0
M  V30 15272 H 1414.54 -2.99753 0.0937306 0
M  V30 15273 H 1412.09 -1.56061 0.086326 0
M  V30 15274 H 1412.83 -2.22488 -2.35944 0
M  V30 15275 H 1412.61 -3.68228 -1.34723 0
M  V30 15276 H 1414.1 -3.47525 -2.31552 0
M  V30 15277 N 1414.54 -0.0635198 -1.57472 0
M  V30 15278 C 1415.45 0.921531 -2.15743 0
M  V30 15279 C 1416.47 1.33294 -1.11842 0
M  V30 15280 O 1417.64 1.40733 -1.4407 0
M  V30 15281 C 1414.71 2.17378 -2.70088 0
M  V30 15282 C 1413.77 1.81956 -3.88832 0
M  V30 15283 C 1413 3.01211 -4.40577 0
M  V30 15284 O 1413.23 4.14971 -3.9135 0
M  V30 15285 O 1412.16 2.81507 -5.32012 0
M  V30 15286 H 1415.99 0.455899 -3.00259 0
M  V30 15287 H 1413.57 0.159085 -1.48551 0
M  V30 15288 H 1415.45 2.90826 -3.04956 0
M  V30 15289 H 1414.13 2.63055 -1.88637 0
M  V30 15290 H 1413.03 1.05786 -3.58832 0
M  V30 15291 H 1414.37 1.41069 -4.71551 0
M  V30 15292 N 1416.02 1.56195 0.209972 0
M  V30 15293 C 1417.27 1.80011 0.93402 0
M  V30 15294 C 1417.6 0.635109 1.83521 0
M  V30 15295 O 1416.87 -0.365099 1.91043 0
M  V30 15296 C 1417.16 3.13989 1.76304 0
M  V30 15297 C 1417.01 4.40956 0.887567 0
M  V30 15298 C 1418.33 3.44514 2.73857 0
M  V30 15299 H 1415.45 0.654859 0.338125 0
M  V30 15300 H 1418.09 1.88921 0.20221 0
M  V30 15301 H 1416.24 3.06524 2.38695 0
M  V30 15302 H 1417.91 4.60452 0.279507 0
M  V30 15303 H 1416.15 4.33368 0.193533 0
M  V30 15304 H 1416.83 5.31164 1.50228 0
M  V30 15305 H 1419.3 3.52182 2.216 0
M  V30 15306 H 1418.18 4.39407 3.28957 0
M  V30 15307 H 1418.44 2.6726 3.52171 0
M  V30 15308 N 1417.5 -0.477127 1.50204 0
M  V30 15309 C 1418.74 -1.23147 1.6113 0
M  V30 15310 C 1419.08 -1.91743 0.307909 0
M  V30 15311 O 1418.35 -1.81841 -0.690223 0
M  V30 15312 C 1418.63 -2.27985 2.78738 0
M  V30 15313 C 1418.49 -1.63733 4.18941 0
M  V30 15314 C 1419.81 -3.29349 2.9192 0
M  V30 15315 H 1416.93 -0.446358 0.586459 0
M  V30 15316 H 1419.57 -0.52612 1.8257 0
M  V30 15317 H 1417.72 -2.88143 2.60588 0
M  V30 15318 H 1419.39 -1.07218 4.48667 0
M  V30 15319 H 1417.63 -0.940634 4.23479 0
M  V30 15320 H 1418.3 -2.39888 4.9715 0
M  V30 15321 H 1420.78 -2.79208 3.08516 0
M  V30 15322 H 1419.66 -4.0004 3.75845 0
M  V30 15323 H 1419.92 -3.93111 2.02278 0
M  V30 15324 N 1418.98 -1.3968 -0.729882 0
M  V30 15325 C 1419.91 -1.34713 -1.85432 0
M  V30 15326 C 1420.92 -0.254999 -1.60791 0
M  V30 15327 O 1422.11 -0.514324 -1.7093 0
M  V30 15328 C 1419.21 -1.07019 -3.21559 0
M  V30 15329 C 1418.38 -2.27609 -3.73515 0
M  V30 15330 C 1417.44 -1.96292 -4.88217 0
M  V30 15331 O 1416.47 -2.69025 -5.01612 0
M  V30 15332 N 1417.67 -0.932181 -5.72967 0
M  V30 15333 H 1420.44 -2.31616 -1.90195 0
M  V30 15334 H 1418 -1.33849 -0.910834 0
M  V30 15335 H 1419.99 -0.84079 -3.9587 0
M  V30 15336 H 1418.56 -0.188323 -3.12032 0
M  V30 15337 H 1417.78 -2.66468 -2.90497 0
M  V30 15338 H 1419.07 -3.08033 -4.04961 0
M  V30 15339 H 1418.46 -0.329507 -5.6474 0
M  V30 15340 H 1417.02 -0.762684 -6.47322 0
M  V30 15341 N 1420.45 0.960609 -1.2494 0
M  V30 15342 C 1421.4 2.05634 -1.04801 0
M  V30 15343 C 1422.37 1.66049 0.0409611 0
M  V30 15344 O 1423.56 1.90453 -0.115053 0
M  V30 15345 C 1420.7 3.38604 -0.666444 0
M  V30 15346 C 1419.81 3.91341 -1.82964 0
M  V30 15347 C 1418.94 5.1261 -1.39299 0
M  V30 15348 C 1417.98 5.57562 -2.52569 0
M  V30 15349 N 1417.12 6.70046 -2.09722 0
M  V30 15350 H 1421.96 2.22194 -1.9858 0
M  V30 15351 H 1419.5 1.08892 -0.988981 0
M  V30 15352 H 1421.46 4.15017 -0.426205 0
M  V30 15353 H 1420.09 3.21948 0.23435 0
M  V30 15354 H 1419.14 3.11502 -2.18335 0
M  V30 15355 H 1420.45 4.20656 -2.68049 0
M  V30 15356 H 1419.6 5.96421 -1.11205 0
M  V30 15357 H 1418.34 4.84997 -0.512779 0
M  V30 15358 H 1417.35 4.72319 -2.81415 0
M  V30 15359 H 1418.57 5.87186 -3.41159 0
M  V30 15360 H 1416.52 6.44153 -1.24109 0
M  V30 15361 H 1416.44 6.98846 -2.88357 0
M  V30 15362 H 1417.7 7.57281 -1.84787 0
M  V30 15363 N 1421.93 1.0643 1.16234 0
M  V30 15364 C 1423.18 0.77689 1.86138 0
M  V30 15365 C 1423.49 -0.699301 1.82672 0
M  V30 15366 O 1424.7 -1.10113 2.48168 0
M  V30 15367 C 1423.16 1.3396 3.3404 0
M  V30 15368 C 1422.76 2.84613 3.45976 0
M  V30 15369 C 1424.51 1.12979 4.09189 0
M  V30 15370 C 1422.42 3.34122 4.87972 0
M  V30 15371 H 1421.35 0.286936 0.697269 0
M  V30 15372 H 1424 1.28318 1.31174 0
M  V30 15373 H 1422.38 0.761073 3.88618 0
M  V30 15374 H 1423.55 3.48429 3.01552 0
M  V30 15375 H 1421.87 3.04277 2.84262 0
M  V30 15376 H 1424.46 1.47456 5.13966 0
M  V30 15377 H 1424.81 0.0682424 4.16244 0
M  V30 15378 H 1425.34 1.67418 3.60855 0
M  V30 15379 H 1422.08 4.39761 4.86097 0
M  V30 15380 H 1421.6 2.75055 5.33015 0
M  V30 15381 H 1423.28 3.29529 5.56794 0
M  V30 15382 N 1423.41 -1.329 0.847073 0
M  V30 15383 C 1424.64 -2.02244 0.459588 0
M  V30 15384 C 1425.06 -1.63279 -0.933897 0
M  V30 15385 O 1424.42 -0.829551 -1.61208 0
M  V30 15386 C 1424.47 -3.55616 0.59745 0
M  V30 15387 O 1423.57 -4.1071 -0.372919 0
M  V30 15388 H 1422.91 -0.637504 0.1857 0
M  V30 15389 H 1425.44 -1.69617 1.14417 0
M  V30 15390 H 1425.45 -4.05141 0.482145 0
M  V30 15391 H 1424.13 -3.8332 1.61365 0
M  V30 15392 H 1422.7 -3.72283 -0.214487 0
M  V30 15393 N 1424.89 -0.604284 -1.45555 0
M  V30 15394 C 1426.12 -0.104452 -2.06636 0
M  V30 15395 C 1426.53 1.20976 -1.44949 0
M  V30 15396 O 1425.89 1.73616 -0.562468 0
M  V30 15397 C 1425.94 0.0451646 -3.61472 0
M  V30 15398 O 1425.66 -1.21705 -4.20856 0
M  V30 15399 C 1427.16 0.57684 -4.39531 0
M  V30 15400 H 1424.38 -0.067326 -0.667614 0
M  V30 15401 H 1426.93 -0.831079 -1.86851 0
M  V30 15402 H 1425.08 0.722104 -3.80611 0
M  V30 15403 H 1425.49 -1.04462 -5.13992 0
M  V30 15404 H 1426.97 0.630627 -5.48386 0
M  V30 15405 H 1427.45 1.59842 -4.09081 0
M  V30 15406 H 1428.05 -0.0659444 -4.25249 0
M  V30 15407 N 1426.37 1.53816 -0.343257 0
M  V30 15408 C 1427.28 2.28716 0.522121 0
M  V30 15409 C 1428.29 1.33815 1.11218 0
M  V30 15410 O 1429.47 1.66853 1.12793 0
M  V30 15411 C 1426.53 3.04517 1.65741 0
M  V30 15412 C 1425.59 4.15043 1.09716 0
M  V30 15413 C 1424.83 4.8722 2.17835 0
M  V30 15414 O 1425.05 4.59065 3.38549 0
M  V30 15415 O 1423.98 5.73678 1.82145 0
M  V30 15416 H 1427.81 3.03576 -0.086732 0
M  V30 15417 H 1425.4 1.49007 -0.108313 0
M  V30 15418 H 1427.28 3.51921 2.31796 0
M  V30 15419 H 1425.95 2.32514 2.25208 0
M  V30 15420 H 1424.86 3.71943 0.401152 0
M  V30 15421 H 1426.19 4.89147 0.547362 0
M  V30 15422 N 1427.84 0.0718701 1.57436 0
M  V30 15423 C 1429.07 -0.609701 1.98236 0
M  V30 15424 C 1429.49 -1.6235 0.949959 0
M  V30 15425 O 1428.85 -1.81103 -0.0844281 0
M  V30 15426 C 1428.9 -1.2547 3.38068 0
M  V30 15427 O 1428 -2.37055 3.37459 0
M  V30 15428 H 1427.35 -0.15679 0.645223 0
M  V30 15429 H 1429.88 0.146407 2.04076 0
M  V30 15430 H 1429.89 -1.60152 3.75254 0
M  V30 15431 H 1428.56 -0.511842 4.12738 0
M  V30 15432 H 1427.14 -2.04165 3.12043 0
M  V30 15433 N 1429.32 -1.56304 -0.201686 0
M  V30 15434 C 1430.57 -1.79433 -0.921241 0
M  V30 15435 C 1430.88 -0.643943 -1.84696 0
M  V30 15436 O 1432.09 -0.759359 -2.60665 0
M  V30 15437 C 1430.55 -3.17835 -1.68846 0
M  V30 15438 C 1430.15 -4.40655 -0.807892 0
M  V30 15439 C 1431.9 -3.50277 -2.39805 0
M  V30 15440 C 1429.81 -5.7008 -1.5736 0
M  V30 15441 H 1428.74 -0.669029 -0.34773 0
M  V30 15442 H 1431.39 -1.82667 -0.174657 0
M  V30 15443 H 1429.77 -3.08832 -2.47869 0
M  V30 15444 H 1430.94 -4.60765 -0.0567923 0
M  V30 15445 H 1429.26 -4.15873 -0.209465 0
M  V30 15446 H 1431.85 -4.44207 -2.97631 0
M  V30 15447 H 1432.2 -2.7371 -3.1367 0
M  V30 15448 H 1432.73 -3.60698 -1.67754 0
M  V30 15449 H 1429.47 -6.49595 -0.877855 0
M  V30 15450 H 1428.99 -5.53999 -2.2988 0
M  V30 15451 H 1430.67 -6.10964 -2.12912 0
M  V30 15452 N 1430.8 0.469154 -1.50455 0
M  V30 15453 C 1432.05 1.2229 -1.6178 0
M  V30 15454 C 1432.38 1.91577 -0.318073 0
M  V30 15455 O 1431.65 1.82205 0.68057 0
M  V30 15456 C 1431.94 2.26504 -2.79943 0
M  V30 15457 C 1431.79 1.61509 -4.19804 0
M  V30 15458 C 1433.11 3.27796 -2.93662 0
M  V30 15459 H 1430.23 0.443241 -0.588817 0
M  V30 15460 H 1432.87 0.516431 -1.82847 0
M  V30 15461 H 1431.02 2.86757 -2.62112 0
M  V30 15462 H 1432.69 1.04838 -4.49229 0
M  V30 15463 H 1430.94 0.918162 -4.23972 0
M  V30 15464 H 1431.61 2.37248 -4.98415 0
M  V30 15465 H 1434.08 2.77568 -3.09992 0
M  V30 15466 H 1432.96 3.98041 -3.77961 0
M  V30 15467 H 1433.22 3.92033 -2.04359 0
M  V30 15468 N 1432.28 1.40065 0.722464 0
M  V30 15469 C 1433.53 1.37277 1.47776 0
M  V30 15470 C 1433.84 -0.0242852 1.95585 0
M  V30 15471 O 1435.05 -0.174769 2.70937 0
M  V30 15472 C 1433.5 2.41233 2.67085 0
M  V30 15473 C 1433.11 3.86716 2.26174 0
M  V30 15474 C 1434.85 2.47541 3.44853 0
M  V30 15475 C 1432.76 4.82284 3.42281 0
M  V30 15476 H 1431.69 0.510405 0.55498 0
M  V30 15477 H 1434.34 1.6577 0.786928 0
M  V30 15478 H 1432.72 2.0583 3.38305 0
M  V30 15479 H 1433.9 4.31227 1.6242 0
M  V30 15480 H 1432.21 3.83819 1.61468 0
M  V30 15481 H 1434.81 3.16131 4.31237 0
M  V30 15482 H 1435.15 1.50379 3.8819 0
M  V30 15483 H 1435.69 2.81901 2.80672 0
M  V30 15484 H 1432.43 5.80754 3.03982 0
M  V30 15485 H 1431.95 4.42443 4.04975 0
M  V30 15486 H 1433.62 5.0178 4.08443 0
M  V30 15487 N 1433.76 -0.95397 1.25448 0
M  V30 15488 C 1435 -1.70177 1.11407 0
M  V30 15489 C 1435.36 -1.89348 -0.341348 0
M  V30 15490 O 1434.65 -1.45382 -1.24798 0
M  V30 15491 C 1434.85 -3.08613 1.80258 0
M  V30 15492 C 1434.67 -3.02947 3.32345 0
M  V30 15493 C 1433.44 -3.06667 4.01601 0
M  V30 15494 C 1435.64 -2.84063 4.28734 0
M  V30 15495 N 1433.62 -2.91166 5.40459 0
M  V30 15496 C 1435 -2.77 5.54681 0
M  V30 15497 C 1437.05 -2.68748 4.19141 0
M  V30 15498 C 1435.75 -2.56186 6.72132 0
M  V30 15499 C 1437.78 -2.49306 5.36284 0
M  V30 15500 C 1437.14 -2.42963 6.61172 0
M  V30 15501 H 1433.24 -0.630659 0.462378 0
M  V30 15502 H 1435.82 -1.12994 1.58558 0
M  V30 15503 H 1434 -3.6396 1.35601 0
M  V30 15504 H 1435.73 -3.72177 1.58953 0
M  V30 15505 H 1432.48 -3.15885 3.52865 0
M  V30 15506 H 1432.91 -2.86618 6.13334 0
M  V30 15507 H 1437.55 -2.72426 3.23333 0
M  V30 15508 H 1435.27 -2.51251 7.68049 0
M  V30 15509 H 1438.85 -2.3838 5.30722 0
M  V30 15510 H 1437.73 -2.28115 7.50289 0
M  V30 15511 N 1435.24 -1.07045 -1.15668 0
M  V30 15512 C 1436.48 -0.790172 -1.86013 0
M  V30 15513 C 1436.8 0.685663 -1.82548 0
M  V30 15514 O 1436.07 1.49644 -1.26426 0
M  V30 15515 H 1434.65 -0.28931 -0.688701 0
M  V30 15516 H 1437.32 -1.35354 -1.40233 0
M  V30 15517 H 1436.41 -1.1219 -2.91239 0
M  V30 15518 N 1436.71 1.32449 -0.85411 0
M  V30 15519 C 1437.66 2.2889 -0.296341 0
M  V30 15520 C 1438.63 1.55024 0.596378 0
M  V30 15521 O 1439.82 1.8325 0.531406 0
M  V30 15522 C 1436.96 3.41315 0.509729 0
M  V30 15523 C 1436.07 4.30062 -0.40872 0
M  V30 15524 C 1435.2 5.29616 0.409928 0
M  V30 15525 C 1434.24 6.10005 -0.505953 0
M  V30 15526 N 1433.38 7.01559 0.275483 0
M  V30 15527 H 1438.22 2.75989 -1.12401 0
M  V30 15528 H 1435.76 1.35787 -0.565717 0
M  V30 15529 H 1437.71 4.05218 0.992697 0
M  V30 15530 H 1436.34 2.95367 1.30223 0
M  V30 15531 H 1435.4 3.66745 -1.01007 0
M  V30 15532 H 1436.71 4.86255 -1.11165 0
M  V30 15533 H 1435.86 5.99119 0.956083 0
M  V30 15534 H 1434.6 4.74039 1.14623 0
M  V30 15535 H 1433.61 5.39406 -1.064 0
M  V30 15536 H 1434.83 6.67667 -1.24086 0
M  V30 15537 H 1432.78 6.48412 0.994887 0
M  V30 15538 H 1432.69 7.55102 -0.368426 0
M  V30 15539 H 1433.96 7.75349 0.803382 0
M  V30 15540 N 1438.19 0.611994 1.45232 0
M  V30 15541 C 1439.42 0.115409 2.06578 0
M  V30 15542 C 1439.83 -1.20206 1.45588 0
M  V30 15543 O 1439.19 -1.73315 0.571668 0
M  V30 15544 C 1439.24 -0.0259943 3.61491 0
M  V30 15545 O 1438.96 1.23936 4.20204 0
M  V30 15546 C 1440.46 -0.553522 4.39831 0
M  V30 15547 H 1437.68 0.0708656 0.667247 0
M  V30 15548 H 1440.23 0.840977 1.86408 0
M  V30 15549 H 1438.38 -0.701909 3.80988 0
M  V30 15550 H 1438.8 1.07187 5.13431 0
M  V30 15551 H 1440.27 -0.601536 5.48713 0
M  V30 15552 H 1440.75 -1.57671 4.09923 0
M  V30 15553 H 1441.35 0.0884954 4.25208 0
M  V30 15554 N 1439.67 -1.53632 0.351409 0
M  V30 15555 C 1441.08 -1.86241 -0.130834 0
M  V30 15556 C 1441.43 -1.27243 -1.49344 0
M  V30 15557 O 1440.56 -0.589006 -2.0823 0
M  V30 15558 C 1441.15 -3.37919 -0.244179 0
M  V30 15559 C 1439.71 -3.70377 -0.670662 0
M  V30 15560 C 1438.86 -2.76643 0.190813 0
M  V30 15561 H 1441.81 -1.48083 0.570724 0
M  V30 15562 H 1441.83 -3.65137 -1.07029 0
M  V30 15563 H 1441.34 -3.8083 0.747688 0
M  V30 15564 H 1439.44 -3.33015 -1.67127 0
M  V30 15565 H 1439.56 -4.76934 -0.455102 0
M  V30 15566 H 1437.92 -2.52446 -0.338092 0
M  V30 15567 H 1438.7 -3.22385 1.17996 0
M  V30 15568 N 1441.15 -0.0802183 -1.57396 0
M  V30 15569 C 1442.09 0.884041 -2.13198 0
M  V30 15570 C 1443.06 1.28975 -1.04664 0
M  V30 15571 O 1444.25 1.37413 -1.32372 0
M  V30 15572 C 1441.39 2.14323 -2.7048 0
M  V30 15573 C 1440.5 1.7894 -3.93198 0
M  V30 15574 C 1439.64 2.99534 -4.38695 0
M  V30 15575 C 1438.68 2.60207 -5.54039 0
M  V30 15576 N 1437.81 3.73587 -5.94455 0
M  V30 15577 H 1442.65 0.40131 -2.95285 0
M  V30 15578 H 1440.19 0.186429 -1.45914 0
M  V30 15579 H 1442.15 2.88046 -3.01804 0
M  V30 15580 H 1440.78 2.60122 -1.91144 0
M  V30 15581 H 1439.83 0.952465 -3.68283 0
M  V30 15582 H 1441.14 1.46012 -4.76951 0
M  V30 15583 H 1440.3 3.81526 -4.71724 0
M  V30 15584 H 1439.04 3.35661 -3.53812 0
M  V30 15585 H 1438.04 1.76638 -5.20652 0
M  V30 15586 H 1439.27 2.2524 -6.40659 0
M  V30 15587 H 1437.21 4.0946 -5.12521 0
M  V30 15588 H 1437.13 3.44455 -6.72969 0
M  V30 15589 H 1438.4 4.56133 -6.3211 0
M  V30 15590 N 1442.63 1.56409 0.193394 0
M  V30 15591 C 1443.87 1.80724 0.913521 0
M  V30 15592 C 1444.2 0.653718 1.83185 0
M  V30 15593 O 1443.46 -0.360417 1.92353 0
M  V30 15594 C 1443.75 3.11039 1.76039 0
M  V30 15595 C 1443.42 4.39832 0.992892 0
M  V30 15596 C 1442.08 4.7482 0.780991 0
M  V30 15597 C 1444.43 5.19228 0.452985 0
M  V30 15598 C 1441.76 5.86697 0.0177286 0
M  V30 15599 C 1444.11 6.31902 -0.297075 0
M  V30 15600 C 1442.78 6.65472 -0.519977 0
M  V30 15601 H 1442.05 0.661315 0.334281 0
M  V30 15602 H 1444.7 1.90654 0.179786 0
M  V30 15603 H 1443 2.96353 2.56285 0
M  V30 15604 H 1444.7 3.27058 2.32022 0
M  V30 15605 H 1441.29 4.12376 1.16806 0
M  V30 15606 H 1445.47 4.9261 0.604092 0
M  V30 15607 H 1440.73 6.11178 -0.164925 0
M  V30 15608 H 1444.9 6.92639 -0.7228 0
M  V30 15609 H 1442.53 7.52004 -1.11331 0
M  V30 15610 N 1444.1 -0.461169 1.50702 0
M  V30 15611 C 1445.52 -0.795741 1.38348 0
M  V30 15612 C 1445.72 -1.96473 0.447263 0
M  V30 15613 O 1444.78 -2.52276 -0.106445 0
M  V30 15614 C 1446.09 -1.09849 2.79917 0
M  V30 15615 C 1447.64 -1.20435 2.88902 0
M  V30 15616 C 1448.11 -1.54017 4.31327 0
M  V30 15617 N 1449.6 -1.60989 4.34323 0
M  V30 15618 C 1450.34 -1.88498 5.41531 0
M  V30 15619 N 1449.83 -2.13959 6.58933 0
M  V30 15620 N 1451.63 -1.90082 5.28985 0
M  V30 15621 H 1443.78 0.309076 2.10139 0
M  V30 15622 H 1446.04 0.0757918 0.944965 0
M  V30 15623 H 1445.75 -0.312479 3.50309 0
M  V30 15624 H 1445.62 -2.03221 3.17775 0
M  V30 15625 H 1448.01 -1.98102 2.18723 0
M  V30 15626 H 1448.09 -0.250195 2.54573 0
M  V30 15627 H 1447.73 -0.768865 5.02047 0
M  V30 15628 H 1447.66 -2.50599 4.6315 0
M  V30 15629 H 1450.15 -1.43312 3.49672 0
M  V30 15630 H 1450.47 -2.34251 7.36442 0
M  V30 15631 H 1448.81 -2.11331 6.62091 0
M  V30 15632 H 1452 -1.69693 4.36259 0
M  V30 15633 H 1452.18 -2.11184 6.12622 0
M  V30 15634 N 1445.58 -1.40446 -0.715026 0
M  V30 15635 C 1446.51 -1.43511 -1.84193 0
M  V30 15636 C 1447.49 -0.295969 -1.67505 0
M  V30 15637 O 1448.68 -0.504667 -1.87528 0
M  V30 15638 C 1445.81 -1.29751 -3.22152 0
M  V30 15639 C 1444.76 -2.41274 -3.53512 0
M  V30 15640 C 1444.09 -2.12591 -4.90621 0
M  V30 15641 C 1445.39 -3.83614 -3.54454 0
M  V30 15642 H 1447.08 -2.37819 -1.81885 0
M  V30 15643 H 1444.63 -1.14469 -0.873655 0
M  V30 15644 H 1446.58 -1.30511 -4.0068 0
M  V30 15645 H 1445.3 -0.319189 -3.25037 0
M  V30 15646 H 1443.96 -2.39764 -2.77324 0
M  V30 15647 H 1443.61 -1.13148 -4.90109 0
M  V30 15648 H 1443.31 -2.87308 -5.1257 0
M  V30 15649 H 1444.84 -2.15034 -5.71483 0
M  V30 15650 H 1446.25 -3.86945 -4.23021 0
M  V30 15651 H 1444.65 -4.57855 -3.87929 0
M  V30 15652 H 1445.72 -4.13159 -2.53827 0
M  V30 15653 N 1447.06 0.947303 -1.25952 0
M  V30 15654 C 1448.47 1.50755 -1.10136 0
M  V30 15655 C 1448.82 1.93566 0.320437 0
M  V30 15656 O 1447.95 1.79326 1.21125 0
M  V30 15657 C 1448.54 2.7397 -1.99313 0
M  V30 15658 C 1447.1 3.26283 -1.8766 0
M  V30 15659 C 1446.25 1.99088 -1.93027 0
M  V30 15660 H 1449.2 0.763427 -1.39131 0
M  V30 15661 H 1449.22 3.48057 -1.53742 0
M  V30 15662 H 1448.73 2.42781 -3.02785 0
M  V30 15663 H 1446.83 3.62277 -0.870992 0
M  V30 15664 H 1446.95 3.93803 -2.72866 0
M  V30 15665 H 1445.31 2.14714 -1.37003 0
M  V30 15666 H 1446.09 1.70237 -2.98118 0
M  V30 15667 N 1448.54 1.07657 1.15099 0
M  V30 15668 C 1449.79 0.796589 1.85303 0
M  V30 15669 C 1450.1 -0.679887 1.83404 0
M  V30 15670 O 1451.31 -1.07475 2.49322 0
M  V30 15671 C 1449.76 1.37495 3.326 0
M  V30 15672 C 1449.37 2.88267 3.42938 0
M  V30 15673 C 1451.11 1.17313 4.07968 0
M  V30 15674 C 1449.02 3.39278 4.84401 0
M  V30 15675 H 1447.95 0.294316 0.694186 0
M  V30 15676 H 1450.6 1.29702 1.29806 0
M  V30 15677 H 1448.98 0.802248 3.87789 0
M  V30 15678 H 1450.16 3.51608 2.9784 0
M  V30 15679 H 1448.47 3.07275 2.81018 0
M  V30 15680 H 1451.07 1.52899 5.12373 0
M  V30 15681 H 1451.41 0.112387 4.16148 0
M  V30 15682 H 1451.95 1.71236 3.59059 0
M  V30 15683 H 1448.69 4.44892 4.81406 0
M  V30 15684 H 1448.21 2.80692 5.30068 0
M  V30 15685 H 1449.88 3.35416 5.53267 0
M  V30 15686 N 1450.02 -1.31994 0.861122 0
M  V30 15687 C 1450.95 -2.27632 0.267681 0
M  V30 15688 C 1451.96 -1.52709 -0.564265 0
M  V30 15689 O 1453.15 -1.74239 -0.3877 0
M  V30 15690 C 1450.25 -3.32805 -0.639856 0
M  V30 15691 C 1449.42 -4.37116 0.157676 0
M  V30 15692 C 1448.48 -5.21832 -0.676624 0
M  V30 15693 O 1447.51 -5.69098 -0.107822 0
M  V30 15694 N 1448.71 -5.45317 -1.99022 0
M  V30 15695 H 1451.48 -2.79195 1.0895 0
M  V30 15696 H 1449.04 -1.44923 0.721733 0
M  V30 15697 H 1451.03 -3.86391 -1.20348 0
M  V30 15698 H 1449.6 -2.81351 -1.36236 0
M  V30 15699 H 1448.82 -3.83724 0.902741 0
M  V30 15700 H 1450.11 -5.03889 0.70524 0
M  V30 15701 H 1449.5 -5.08656 -2.47558 0
M  V30 15702 H 1448.06 -6.01874 -2.50182 0
M  V30 15703 N 1451.49 -0.619688 -1.44906 0
M  V30 15704 C 1452.44 0.0920359 -2.30616 0
M  V30 15705 C 1453.41 0.848114 -1.42815 0
M  V30 15706 O 1454.6 0.831439 -1.71732 0
M  V30 15707 C 1451.74 1.07537 -3.27917 0
M  V30 15708 C 1450.85 0.318904 -4.30821 0
M  V30 15709 C 1449.98 1.29303 -5.15222 0
M  V30 15710 C 1449.02 0.525071 -6.09844 0
M  V30 15711 N 1448.16 1.44909 -6.86983 0
M  V30 15712 H 1453 -0.644834 -2.9094 0
M  V30 15713 H 1450.54 -0.329785 -1.43356 0
M  V30 15714 H 1452.5 1.65874 -3.82808 0
M  V30 15715 H 1451.13 1.7795 -2.6932 0
M  V30 15716 H 1450.18 -0.380192 -3.78495 0
M  V30 15717 H 1451.49 -0.279742 -4.98015 0
M  V30 15718 H 1450.64 1.94809 -5.74573 0
M  V30 15719 H 1449.38 1.92561 -4.48076 0
M  V30 15720 H 1448.39 -0.14355 -5.49613 0
M  V30 15721 H 1449.61 -0.102625 -6.79022 0
M  V30 15722 H 1447.56 2.06908 -6.22515 0
M  V30 15723 H 1447.48 0.90418 -7.50574 0
M  V30 15724 H 1448.74 2.09335 -7.50866 0
M  V30 15725 N 1452.97 1.53444 -0.359552 0
M  V30 15726 C 1453.88 2.29257 0.497834 0
M  V30 15727 C 1454.9 1.34987 1.09793 0
M  V30 15728 O 1456.07 1.68039 1.11017 0
M  V30 15729 C 1453.14 3.06258 1.62502 0
M  V30 15730 C 1452.2 4.16183 1.05308 0
M  V30 15731 C 1451.43 4.89503 2.12655 0
M  V30 15732 O 1451.66 4.6263 3.33661 0
M  V30 15733 O 1450.59 5.75578 1.76051 0
M  V30 15734 H 1454.42 3.03467 -0.118925 0
M  V30 15735 H 1452 1.48884 -0.124111 0
M  V30 15736 H 1453.88 3.5436 2.2805 0
M  V30 15737 H 1452.56 2.3489 2.22729 0
M  V30 15738 H 1451.47 3.72348 0.361679 0
M  V30 15739 H 1452.8 4.897 0.49545 0
M  V30 15740 N 1454.45 0.0885642 1.57351 0
M  V30 15741 C 1455.68 -0.585238 1.9845 0
M  V30 15742 C 1456.09 -1.62127 0.967483 0
M  V30 15743 O 1455.45 -1.82448 -0.0437565 0
M  V30 15744 C 1455.5 -1.23881 3.39611 0
M  V30 15745 O 1455.22 -0.244223 4.37419 0
M  V30 15746 C 1456.72 -1.99885 3.95678 0
M  V30 15747 H 1453.94 -0.157396 0.652279 0
M  V30 15748 H 1456.49 0.165923 2.03826 0
M  V30 15749 H 1454.64 -1.94094 3.3527 0
M  V30 15750 H 1455.06 -0.715149 5.19602 0
M  V30 15751 H 1456.53 -2.40983 4.9662 0
M  V30 15752 H 1457.01 -2.8621 3.33137 0
M  V30 15753 H 1457.61 -1.34501 4.03472 0
M  V30 15754 N 1455.93 -1.56509 -0.185096 0
M  V30 15755 C 1457.17 -1.82373 -0.900654 0
M  V30 15756 C 1457.53 -0.6671 -1.80465 0
M  V30 15757 O 1456.82 0.337217 -1.88609 0
M  V30 15758 C 1457.02 -3.11968 -1.74387 0
M  V30 15759 C 1456.85 -4.40126 -0.923006 0
M  V30 15760 C 1455.62 -5.01683 -0.603494 0
M  V30 15761 C 1457.81 -5.13585 -0.271006 0
M  V30 15762 N 1455.8 -6.1345 0.234953 0
M  V30 15763 C 1457.17 -6.18513 0.429202 0
M  V30 15764 C 1459.22 -4.97546 -0.187756 0
M  V30 15765 C 1457.92 -7.09139 1.20474 0
M  V30 15766 C 1459.95 -5.88604 0.574416 0
M  V30 15767 C 1459.31 -6.92984 1.26304 0
M  V30 15768 H 1455.41 -0.718517 -0.308639 0
M  V30 15769 H 1458 -1.93968 -0.168629 0
M  V30 15770 H 1456.17 -3.01589 -2.44742 0
M  V30 15771 H 1457.9 -3.2588 -2.39967 0
M  V30 15772 H 1454.65 -4.64373 -0.930306 0
M  V30 15773 H 1455.08 -6.73929 0.64408 0
M  V30 15774 H 1459.72 -4.16867 -0.705794 0
M  V30 15775 H 1457.44 -7.89273 1.73418 0
M  V30 15776 H 1461.02 -5.78266 0.640318 0
M  V30 15777 H 1459.9 -7.62227 1.84335 0
M  V30 15778 N 1457.41 0.45317 -1.50944 0
M  V30 15779 C 1458.32 1.57435 -1.73929 0
M  V30 15780 C 1459.33 1.62467 -0.622935 0
M  V30 15781 O 1460.51 1.80004 -0.903365 0
M  V30 15782 C 1457.57 2.93534 -1.84495 0
M  V30 15783 C 1456.63 2.98747 -3.083 0
M  V30 15784 C 1455.87 4.28354 -3.18352 0
M  V30 15785 O 1456.09 5.1986 -2.34738 0
M  V30 15786 O 1455.02 4.39527 -4.11217 0
M  V30 15787 H 1458.85 1.40959 -2.69006 0
M  V30 15788 H 1456.44 0.634545 -1.35255 0
M  V30 15789 H 1458.32 3.74336 -1.93522 0
M  V30 15790 H 1456.99 3.10171 -0.926044 0
M  V30 15791 H 1455.9 2.16958 -3.04762 0
M  V30 15792 H 1457.23 2.87051 -3.99828 0
M  V30 15793 N 1458.88 1.40823 0.707568 0
M  V30 15794 C 1460.11 1.42866 1.49656 0
M  V30 15795 C 1460.53 0.0305663 1.88775 0
M  V30 15796 O 1459.88 -0.947376 1.55984 0
M  V30 15797 C 1459.94 2.32661 2.76679 0
M  V30 15798 O 1459.66 3.67028 2.39211 0
M  V30 15799 C 1461.16 2.4338 3.70514 0
M  V30 15800 H 1458.38 0.487009 0.461588 0
M  V30 15801 H 1460.92 1.84969 0.872167 0
M  V30 15802 H 1459.08 1.93898 3.35384 0
M  V30 15803 H 1459.49 4.14799 3.21002 0
M  V30 15804 H 1460.96 3.10401 4.56459 0
M  V30 15805 H 1461.44 1.46132 4.14176 0
M  V30 15806 H 1462.05 2.82728 3.17718 0
M  V30 15807 N 1460.36 -0.94061 1.26453 0
M  V30 15808 C 1461.61 -1.68985 1.13206 0
M  V30 15809 C 1461.96 -1.89699 -0.321245 0
M  V30 15810 O 1461.26 -1.46698 -1.23249 0
M  V30 15811 C 1461.45 -3.06683 1.83521 0
M  V30 15812 C 1461.28 -2.99405 3.3554 0
M  V30 15813 C 1460.05 -3.02391 4.04831 0
M  V30 15814 C 1462.25 -2.795 4.31723 0
M  V30 15815 N 1460.23 -2.85417 5.43517 0
M  V30 15816 C 1461.6 -2.71101 5.57588 0
M  V30 15817 C 1463.66 -2.64288 4.21967 0
M  V30 15818 C 1462.36 -2.49043 6.74811 0
M  V30 15819 C 1464.38 -2.43604 5.38898 0
M  V30 15820 C 1463.75 -2.35937 6.63712 0
M  V30 15821 H 1459.85 -0.625719 0.469041 0
M  V30 15822 H 1462.43 -1.11306 1.59747 0
M  V30 15823 H 1460.6 -3.62501 1.39454 0
M  V30 15824 H 1462.33 -3.7047 1.62892 0
M  V30 15825 H 1459.09 -3.12124 3.56196 0
M  V30 15826 H 1459.51 -2.80097 6.1634 0
M  V30 15827 H 1464.15 -2.68981 3.26204 0
M  V30 15828 H 1461.87 -2.4309 7.7067 0
M  V30 15829 H 1465.46 -2.32737 5.33221 0
M  V30 15830 H 1464.34 -2.20145 7.52666 0
M  V30 15831 N 1461.84 -1.08266 -1.14527 0
M  V30 15832 C 1463.09 -0.822513 -1.86028 0
M  V30 15833 C 1463.44 0.644706 -1.81277 0
M  V30 15834 O 1462.73 1.46778 -1.23153 0
M  V30 15835 C 1462.93 -1.27675 -3.33817 0
M  V30 15836 C 1462.76 -2.78659 -3.52958 0
M  V30 15837 C 1461.53 -3.46388 -3.67891 0
M  V30 15838 C 1463.73 -3.76835 -3.49999 0
M  V30 15839 N 1461.71 -4.85918 -3.75176 0
M  V30 15840 C 1463.08 -5.02255 -3.63511 0
M  V30 15841 C 1465.13 -3.6986 -3.33328 0
M  V30 15842 C 1463.84 -6.21527 -3.62073 0
M  V30 15843 C 1465.86 -4.88606 -3.33194 0
M  V30 15844 C 1465.22 -6.12863 -3.47244 0
M  V30 15845 H 1461.32 -0.353671 -0.697453 0
M  V30 15846 H 1463.91 -1.38073 -1.37273 0
M  V30 15847 H 1462.08 -0.746122 -3.81166 0
M  V30 15848 H 1463.81 -0.963174 -3.93071 0
M  V30 15849 H 1460.57 -2.96802 -3.6906 0
M  V30 15850 H 1460.99 -5.58564 -3.82538 0
M  V30 15851 H 1465.63 -2.7473 -3.21377 0
M  V30 15852 H 1463.35 -7.1697 -3.728 0
M  V30 15853 H 1466.94 -4.84895 -3.21509 0
M  V30 15854 H 1465.82 -7.03208 -3.47085 0
M  V30 15855 N 1463.32 1.31536 -0.86811 0
M  V30 15856 C 1464.57 1.97066 -0.478829 0
M  V30 15857 C 1464.9 1.68469 0.966021 0
M  V30 15858 O 1464.17 0.980166 1.67997 0
M  V30 15859 C 1464.46 3.52533 -0.734313 0
M  V30 15860 C 1464.31 3.90711 -2.22856 0
M  V30 15861 C 1465.63 4.39647 -0.199559 0
M  V30 15862 H 1462.75 0.715813 -0.175444 0
M  V30 15863 H 1465.39 1.55694 -1.08901 0
M  V30 15864 H 1463.54 3.87905 -0.214962 0
M  V30 15865 H 1465.21 3.65451 -2.81502 0
M  V30 15866 H 1463.45 3.39385 -2.70185 0
M  V30 15867 H 1464.13 4.99103 -2.35797 0
M  V30 15868 H 1466.6 4.11088 -0.643853 0
M  V30 15869 H 1465.48 5.47383 -0.407783 0
M  V30 15870 H 1465.74 4.32875 0.898414 0
M  V30 15871 N 1464.8 0.627364 1.44575 0
M  V30 15872 C 1465.71 -0.0811184 2.3446 0
M  V30 15873 C 1466.72 -0.839668 1.52399 0
M  V30 15874 O 1467.9 -0.792784 1.8514 0
M  V30 15875 C 1464.96 -1.05296 3.30323 0
M  V30 15876 C 1464.03 -0.294201 4.28291 0
M  V30 15877 C 1463.26 -1.21975 5.19575 0
M  V30 15878 O 1463.48 -2.45834 5.14706 0
M  V30 15879 O 1462.42 -0.70611 5.97744 0
M  V30 15880 H 1466.24 0.658067 2.96485 0
M  V30 15881 H 1463.83 0.387565 1.44285 0
M  V30 15882 H 1465.71 -1.61218 3.89341 0
M  V30 15883 H 1464.38 -1.77283 2.70837 0
M  V30 15884 H 1463.29 0.307969 3.7283 0
M  V30 15885 H 1464.62 0.385567 4.90687 0
M  V30 15886 N 1466.28 -1.53251 0.367684 0
M  V30 15887 C 1467.51 -2.05407 -0.221725 0
M  V30 15888 C 1467.91 -1.24081 -1.4283 0
M  V30 15889 O 1467.26 -0.275005 -1.8163 0
M  V30 15890 C 1467.32 -3.53063 -0.677281 0
M  V30 15891 C 1466.98 -4.55131 0.412894 0
M  V30 15892 C 1467.98 -5.04315 1.26343 0
M  V30 15893 C 1465.66 -4.99013 0.573739 0
M  V30 15894 C 1467.66 -5.95984 2.26014 0
M  V30 15895 C 1465.35 -5.90487 1.57381 0
M  V30 15896 C 1466.34 -6.38863 2.41544 0
M  V30 15897 O 1466.03 -7.28533 3.39845 0
M  V30 15898 H 1465.76 -0.674679 -0.0422413 0
M  V30 15899 H 1468.32 -1.98577 0.52501 0
M  V30 15900 H 1466.55 -3.57437 -1.47565 0
M  V30 15901 H 1468.24 -3.88066 -1.18993 0
M  V30 15902 H 1469 -4.7116 1.15037 0
M  V30 15903 H 1464.88 -4.60944 -0.0715806 0
M  V30 15904 H 1468.43 -6.33666 2.91742 0
M  V30 15905 H 1464.32 -6.23056 1.68734 0
M  V30 15906 H 1465.09 -7.46536 3.35598 0
M  V30 15907 N 1467.75 -0.0969077 -1.57302 0
M  V30 15908 C 1469 0.561074 -1.95508 0
M  V30 15909 C 1469.35 1.6568 -0.97816 0
M  V30 15910 O 1468.65 1.91599 -0.00445428 0
M  V30 15911 C 1468.84 1.15972 -3.38061 0
M  V30 15912 C 1468.67 0.123524 -4.4953 0
M  V30 15913 C 1467.44 -0.30062 -5.04405 0
M  V30 15914 C 1469.64 -0.649001 -5.10189 0
M  V30 15915 N 1467.62 -1.3249 -5.99433 0
M  V30 15916 C 1468.99 -1.52506 -6.00951 0
M  V30 15917 C 1471.05 -0.70232 -4.92922 0
M  V30 15918 C 1469.75 -2.44976 -6.76298 0
M  V30 15919 C 1471.78 -1.61463 -5.68932 0
M  V30 15920 C 1471.14 -2.47831 -6.59363 0
M  V30 15921 H 1467.24 0.175591 -0.762031 0
M  V30 15922 H 1469.82 -0.179896 -1.93867 0
M  V30 15923 H 1467.99 1.87051 -3.40392 0
M  V30 15924 H 1469.72 1.78022 -3.63442 0
M  V30 15925 H 1466.48 0.0874763 -4.73519 0
M  V30 15926 H 1466.9 -1.8353 -6.51648 0
M  V30 15927 H 1471.54 -0.0487412 -4.22772 0
M  V30 15928 H 1469.26 -3.11358 -7.45709 0
M  V30 15929 H 1472.85 -1.66104 -5.57585 0
M  V30 15930 H 1471.73 -3.17278 -7.1715 0
M  V30 15931 N 1469.23 1.56605 0.176793 0
M  V30 15932 C 1470.16 1.9254 1.24342 0
M  V30 15933 C 1471.18 0.81792 1.40762 0
M  V30 15934 O 1472.37 1.09636 1.40862 0
M  V30 15935 C 1469.47 2.15822 2.61293 0
M  V30 15936 C 1468.64 3.47035 2.66243 0
M  V30 15937 C 1467.7 3.5921 3.84519 0
M  V30 15938 O 1466.72 4.31876 3.70771 0
M  V30 15939 N 1467.93 2.93653 5.00748 0
M  V30 15940 H 1470.69 2.84635 0.938246 0
M  V30 15941 H 1468.25 1.57695 0.366597 0
M  V30 15942 H 1470.24 2.21237 3.38875 0
M  V30 15943 H 1468.81 1.30138 2.84223 0
M  V30 15944 H 1468.03 3.53326 1.74798 0
M  V30 15945 H 1469.32 4.33388 2.66557 0
M  V30 15946 H 1468.72 2.34476 5.14818 0
M  V30 15947 H 1467.28 3.04671 5.76211 0
M  V30 15948 N 1470.71 -0.445159 1.51182 0
M  V30 15949 C 1471.67 -1.52224 1.71349 0
M  V30 15950 C 1472.67 -1.49834 0.583632 0
M  V30 15951 O 1473.86 -1.51995 0.85107 0
M  V30 15952 C 1470.99 -2.91789 1.76273 0
M  V30 15953 H 1472.19 -1.35649 2.67468 0
M  V30 15954 H 1469.74 -0.673312 1.41054 0
M  V30 15955 H 1470.48 -3.13777 0.819405 0
M  V30 15956 H 1470.26 -2.94928 2.58379 0
M  V30 15957 H 1471.75 -3.69938 1.93741 0
M  V30 15958 N 1472.19 -1.41197 -0.700089 0
M  V30 15959 C 1473.42 -1.43658 -1.48896 0
M  V30 15960 C 1473.83 -0.0405771 -1.88756 0
M  V30 15961 O 1473.19 0.93909 -1.56484 0
M  V30 15962 C 1473.24 -2.34125 -2.75441 0
M  V30 15963 O 1472.96 -3.68291 -2.37261 0
M  V30 15964 C 1474.46 -2.45342 -3.69218 0
M  V30 15965 H 1471.68 -0.48945 -0.458999 0
M  V30 15966 H 1474.22 -1.85429 -0.862345 0
M  V30 15967 H 1472.38 -1.95674 -3.34351 0
M  V30 15968 H 1472.79 -4.16495 -3.18798 0
M  V30 15969 H 1474.27 -3.12818 -4.54807 0
M  V30 15970 H 1474.74 -1.48327 -4.13395 0
M  V30 15971 H 1475.35 -2.84409 -3.16214 0
M  V30 15972 N 1473.67 0.933891 -1.2695 0
M  V30 15973 C 1474.91 1.68383 -1.141 0
M  V30 15974 C 1475.27 1.89867 0.311181 0
M  V30 15975 O 1474.56 1.47349 1.2247 0
M  V30 15976 C 1474.75 3.05706 -1.85145 0
M  V30 15977 C 1474.58 2.97621 -3.37123 0
M  V30 15978 C 1473.35 3.00239 -4.06429 0
M  V30 15979 C 1475.55 2.77206 -4.33199 0
M  V30 15980 N 1473.53 2.82531 -5.45023 0
M  V30 15981 C 1474.9 2.6814 -5.59018 0
M  V30 15982 C 1476.96 2.62046 -4.23363 0
M  V30 15983 C 1475.66 2.45461 -6.76122 0
M  V30 15984 C 1477.69 2.40742 -5.40182 0
M  V30 15985 C 1477.05 2.32414 -6.64953 0
M  V30 15986 H 1473.15 0.623223 -0.472353 0
M  V30 15987 H 1475.73 1.10457 -1.60335 0
M  V30 15988 H 1473.9 3.61757 -1.41374 0
M  V30 15989 H 1475.64 3.69601 -1.64854 0
M  V30 15990 H 1472.39 3.10231 -3.57846 0
M  V30 15991 H 1472.81 2.76824 -6.17817 0
M  V30 15992 H 1477.46 2.67247 -3.27626 0
M  V30 15993 H 1475.17 2.39 -7.71949 0
M  V30 15994 H 1478.76 2.29906 -5.34448 0
M  V30 15995 H 1477.64 2.1615 -7.53823 0
M  V30 15996 N 1475.14 1.08871 1.13951 0
M  V30 15997 C 1476.39 0.816198 1.84448 0
M  V30 15998 C 1476.71 -0.660396 1.84114 0
M  V30 15999 O 1477.91 -1.04825 2.50448 0
M  V30 16000 C 1476.37 1.41015 3.31123 0
M  V30 16001 C 1475.98 2.91888 3.39861 0
M  V30 16002 C 1477.72 1.21633 4.06701 0
M  V30 16003 C 1475.63 3.44397 4.80775 0
M  V30 16004 H 1474.56 0.301662 0.691025 0
M  V30 16005 H 1477.21 1.31072 1.28423 0
M  V30 16006 H 1475.59 0.843333 3.86916 0
M  V30 16007 H 1476.76 3.54747 2.94094 0
M  V30 16008 H 1475.08 3.10238 2.77743 0
M  V30 16009 H 1477.68 1.58324 5.10723 0
M  V30 16010 H 1478.02 0.156519 4.16006 0
M  V30 16011 H 1478.55 1.75035 3.57222 0
M  V30 16012 H 1475.29 4.49973 4.7666 0
M  V30 16013 H 1474.81 2.86299 5.27061 0
M  V30 16014 H 1476.49 3.41266 5.49679 0
M  V30 16015 N 1476.62 -1.31073 0.875073 0
M  V30 16016 C 1478.03 -1.78707 0.540422 0
M  V30 16017 C 1478.38 -1.72056 -0.942935 0
M  V30 16018 O 1477.51 -1.29139 -1.73643 0
M  V30 16019 C 1478.1 -3.24491 0.974203 0
M  V30 16020 C 1476.66 -3.70001 0.691127 0
M  V30 16021 C 1475.81 -2.51748 1.16269 0
M  V30 16022 H 1478.76 -1.18083 1.06029 0
M  V30 16023 H 1478.78 -3.79323 0.299003 0
M  V30 16024 H 1478.29 -3.29301 2.05384 0
M  V30 16025 H 1476.39 -3.70688 -0.376937 0
M  V30 16026 H 1476.51 -4.61913 1.27173 0
M  V30 16027 H 1474.87 -2.47954 0.582302 0
M  V30 16028 H 1475.65 -2.59299 2.24986 0
M  V30 16029 N 1478.1 -0.635022 -1.4424 0
M  V30 16030 C 1479.01 0.0686832 -2.34499 0
M  V30 16031 C 1480.03 0.831574 -1.52843 0
M  V30 16032 O 1481.2 0.782954 -1.85558 0
M  V30 16033 C 1478.27 1.03543 -3.30877 0
M  V30 16034 C 1477.33 0.271484 -4.28441 0
M  V30 16035 C 1476.56 1.19218 -5.20214 0
M  V30 16036 O 1476.78 2.43101 -5.16002 0
M  V30 16037 O 1475.72 0.6744 -5.9811 0
M  V30 16038 H 1479.54 -0.673781 -2.96132 0
M  V30 16039 H 1477.13 -0.395211 -1.44078 0
M  V30 16040 H 1479.01 1.59151 -3.90191 0
M  V30 16041 H 1477.69 1.75844 -2.71773 0
M  V30 16042 H 1476.59 -0.327736 -3.72662 0
M  V30 16043 H 1477.93 -0.411584 -4.90476 0
M  V30 16044 N 1479.58 1.53054 -0.375806 0
M  V30 16045 C 1480.82 2.02379 0.203516 0
M  V30 16046 C 1481.18 1.25788 1.45586 0
M  V30 16047 O 1480.47 0.345983 1.8845 0
M  V30 16048 C 1480.67 3.53321 0.538419 0
M  V30 16049 C 1480.5 4.4453 -0.679917 0
M  V30 16050 C 1479.27 4.90964 -1.1951 0
M  V30 16051 C 1481.46 4.90444 -1.54821 0
M  V30 16052 N 1479.45 5.66207 -2.37239 0
M  V30 16053 C 1480.82 5.64132 -2.57206 0
M  V30 16054 C 1482.87 4.72503 -1.56989 0
M  V30 16055 C 1481.57 6.21786 -3.61627 0
M  V30 16056 C 1483.6 5.3103 -2.6031 0
M  V30 16057 C 1482.96 6.04613 -3.61417 0
M  V30 16058 H 1479.06 0.781128 0.0369159 0
M  V30 16059 H 1481.65 1.87554 -0.522657 0
M  V30 16060 H 1479.82 3.68287 1.23366 0
M  V30 16061 H 1481.55 3.89359 1.10372 0
M  V30 16062 H 1478.3 4.67492 -0.758156 0
M  V30 16063 H 1478.73 6.08487 -2.96771 0
M  V30 16064 H 1483.37 4.15129 -0.801715 0
M  V30 16065 H 1481.09 6.7825 -4.39321 0
M  V30 16066 H 1484.67 5.19037 -2.62854 0
M  V30 16067 H 1483.55 6.49093 -4.40054 0
M  V30 16068 N 1481.06 0.105248 1.57248 0
M  V30 16069 C 1481.97 -0.864007 2.1811 0
M  V30 16070 C 1482.98 -1.30282 1.15337 0
M  V30 16071 O 1484.16 -1.36864 1.4775 0
M  V30 16072 C 1481.22 -2.1014 2.75757 0
M  V30 16073 C 1480.28 -1.71583 3.9352 0
M  V30 16074 C 1479.52 -2.89424 4.48408 0
M  V30 16075 O 1479.74 -4.04449 4.02215 0
M  V30 16076 O 1478.67 -2.67303 5.39289 0
M  V30 16077 H 1482.5 -0.376131 3.01362 0
M  V30 16078 H 1480.09 -0.119643 1.4892 0
M  V30 16079 H 1481.97 -2.82638 3.1256 0
M  V30 16080 H 1480.64 -2.57961 1.95545 0
M  V30 16081 H 1479.55 -0.962347 3.6151 0
M  V30 16082 H 1480.88 -1.28517 4.75126 0
M  V30 16083 N 1482.53 -1.56697 -0.168486 0
M  V30 16084 C 1483.78 -1.82154 -0.884654 0
M  V30 16085 C 1484.11 -0.682778 -1.82122 0
M  V30 16086 O 1483.36 0.32977 -1.92902 0
M  V30 16087 C 1483.66 -3.138 -1.71068 0
M  V30 16088 C 1483.33 -4.41356 -0.922793 0
M  V30 16089 C 1481.99 -4.76002 -0.705352 0
M  V30 16090 C 1484.34 -5.19883 -0.370323 0
M  V30 16091 C 1481.67 -5.86651 0.0756121 0
M  V30 16092 C 1484.02 -6.31349 0.397568 0
M  V30 16093 C 1482.69 -6.6456 0.625782 0
M  V30 16094 H 1481.96 -0.666549 -0.323718 0
M  V30 16095 H 1484.6 -1.90916 -0.149432 0
M  V30 16096 H 1482.91 -3.00393 -2.51538 0
M  V30 16097 H 1484.61 -3.30708 -2.2679 0
M  V30 16098 H 1481.2 -4.14182 -1.10231 0
M  V30 16099 H 1485.38 -4.93509 -0.525646 0
M  V30 16100 H 1480.64 -6.10838 0.262137 0
M  V30 16101 H 1484.81 -6.91401 0.832902 0
M  V30 16102 H 1482.44 -7.50137 1.23281 0
M  V30 16103 N 1484.01 0.437135 -1.51416 0
M  V30 16104 C 1485.26 1.18831 -1.64338 0
M  V30 16105 C 1485.59 1.9086 -0.358638 0
M  V30 16106 O 1484.87 1.83607 0.641769 0
M  V30 16107 C 1485.15 2.20515 -2.84685 0
M  V30 16108 C 1485 1.52568 -4.23135 0
M  V30 16109 C 1486.32 3.21494 -3.00549 0
M  V30 16110 H 1483.44 0.430652 -0.598087 0
M  V30 16111 H 1486.08 0.47753 -1.83901 0
M  V30 16112 H 1484.23 2.81132 -2.68136 0
M  V30 16113 H 1485.9 0.952851 -4.51352 0
M  V30 16114 H 1484.15 0.828025 -4.25824 0
M  V30 16115 H 1484.82 2.26623 -5.03335 0
M  V30 16116 H 1487.29 2.7093 -3.1581 0
M  V30 16117 H 1486.17 3.89934 -3.86319 0
M  V30 16118 H 1486.43 3.8761 -2.12629 0
M  V30 16119 N 1485.49 1.41566 0.692592 0
M  V30 16120 C 1486.44 1.43857 1.82779 0
M  V30 16121 C 1487.43 0.316262 1.66422 0
M  V30 16122 O 1488.64 0.488433 1.73246 0
M  V30 16123 H 1485.01 0.450174 0.602368 0
M  V30 16124 H 1486.98 2.39524 1.77964 0
M  V30 16125 C 1485.73 1.34054 3.20819 0
M  V30 16126 H 1485.06 2.19701 3.34023 0
M  V30 16127 H 1486.5 1.39717 4.00319 0
M  V30 16128 C 1484.96 0.053218 3.36858 0
M  V30 16129 O 1485.49 -0.900928 3.91467 0
M  V30 16130 N 1483.69 -0.0238376 2.9059 0
M  V30 16131 H 1483.24 0.753374 2.46337 0
M  V30 16132 H 1483.2 -0.884571 3.017 0
M  V30 16133 N 1486.97 -0.927146 1.27443 0
M  V30 16134 C 1488.2 -1.70896 1.16629 0
M  V30 16135 C 1488.61 -1.8676 -0.276811 0
M  V30 16136 O 1487.97 -1.38503 -1.18842 0
M  V30 16137 C 1488.02 -3.1083 1.84573 0
M  V30 16138 O 1487.74 -2.9571 3.23244 0
M  V30 16139 C 1489.24 -4.05159 1.79891 0
M  V30 16140 H 1486.46 -0.534638 0.405467 0
M  V30 16141 H 1489.01 -1.16134 1.68325 0
M  V30 16142 H 1487.16 -3.6245 1.3678 0
M  V30 16143 H 1487.57 -3.84181 3.57079 0
M  V30 16144 H 1489.05 -5.00859 2.32044 0
M  V30 16145 H 1489.53 -4.32426 0.768373 0
M  V30 16146 H 1490.13 -3.59464 2.273 0
M  V30 16147 N 1488.45 -1.09474 -1.13372 0
M  V30 16148 C 1489.86 -0.850378 -1.66209 0
M  V30 16149 C 1490.21 0.621071 -1.86111 0
M  V30 16150 O 1489.33 1.47837 -1.58029 0
M  V30 16151 C 1489.93 -1.53713 -3.01924 0
M  V30 16152 C 1488.49 -1.33972 -3.5175 0
M  V30 16153 C 1487.63 -1.5929 -2.26985 0
M  V30 16154 H 1490.59 -1.25383 -0.972874 0
M  V30 16155 H 1490.61 -0.970503 -3.67915 0
M  V30 16156 H 1490.12 -2.60804 -2.87407 0
M  V30 16157 H 1488.22 -0.289998 -3.7147 0
M  V30 16158 H 1488.33 -2.0749 -4.31839 0
M  V30 16159 H 1486.7 -1.01505 -2.336 0
M  V30 16160 H 1487.48 -2.67611 -2.15033 0
M  V30 16161 N 1489.92 1.30607 -0.882012 0
M  V30 16162 C 1491.34 1.78418 -0.549892 0
M  V30 16163 C 1491.69 1.72553 0.933797 0
M  V30 16164 O 1490.81 1.30058 1.72956 0
M  V30 16165 C 1491.41 3.2397 -0.991398 0
M  V30 16166 C 1489.97 3.69629 -0.710739 0
M  V30 16167 C 1489.11 2.51127 -1.17602 0
M  V30 16168 H 1492.06 1.17519 -1.06653 0
M  V30 16169 H 1492.08 3.79159 -0.319115 0
M  V30 16170 H 1491.6 3.28207 -2.07128 0
M  V30 16171 H 1489.7 3.70883 0.357273 0
M  V30 16172 H 1489.81 4.61232 -1.29621 0
M  V30 16173 H 1488.17 2.47642 -0.595444 0
M  V30 16174 H 1488.96 2.58103 -2.26358 0
M  V30 16175 N 1491.4 0.642663 1.43901 0
M  V30 16176 C 1492.33 -0.0419756 2.33462 0
M  V30 16177 C 1493.31 -0.822923 1.48869 0
M  V30 16178 O 1494.5 -0.786508 1.7756 0
M  V30 16179 C 1491.63 -1.01631 3.32097 0
M  V30 16180 C 1490.58 -0.346206 4.26597 0
M  V30 16181 C 1489.91 -1.43125 5.15189 0
M  V30 16182 C 1491.21 0.754799 5.16817 0
M  V30 16183 H 1492.9 0.705929 2.90959 0
M  V30 16184 H 1490.45 0.340924 1.39906 0
M  V30 16185 H 1492.4 -1.5041 3.93643 0
M  V30 16186 H 1491.13 -1.79525 2.72834 0
M  V30 16187 H 1489.78 0.121038 3.664 0
M  V30 16188 H 1489.43 -2.20135 4.52271 0
M  V30 16189 H 1489.13 -0.988194 5.79231 0
M  V30 16190 H 1490.66 -1.92061 5.79607 0
M  V30 16191 H 1492.07 0.349624 5.72233 0
M  V30 16192 H 1490.47 1.12169 5.89524 0
M  V30 16193 H 1491.54 1.61718 4.57138 0
M  V30 16194 N 1492.88 -1.52852 0.383918 0
M  V30 16195 C 1494.13 -2.01809 -0.200285 0
M  V30 16196 C 1494.46 -1.27009 -1.46909 0
M  V30 16197 O 1493.74 -0.369002 -1.90968 0
M  V30 16198 C 1494.02 -3.56971 -0.473672 0
M  V30 16199 C 1493.87 -4.42446 0.810048 0
M  V30 16200 C 1495.19 -4.21481 -1.26658 0
M  V30 16201 H 1492.31 -0.733541 -0.0713192 0
M  V30 16202 H 1494.95 -1.8296 0.512425 0
M  V30 16203 H 1493.1 -3.73163 -1.08081 0
M  V30 16204 H 1494.77 -4.38016 1.44706 0
M  V30 16205 H 1493.02 -4.09674 1.42652 0
M  V30 16206 H 1493.69 -5.49013 0.573478 0
M  V30 16207 H 1496.16 -4.09233 -0.752806 0
M  V30 16208 H 1495.04 -5.30037 -1.42661 0
M  V30 16209 H 1495.3 -3.78756 -2.28028 0
M  V30 16210 N 1494.36 -0.113586 -1.5719 0
M  V30 16211 C 1495.31 0.83862 -2.15025 0
M  V30 16212 C 1496.28 1.26726 -1.07376 0
M  V30 16213 O 1497.46 1.34574 -1.35257 0
M  V30 16214 C 1494.6 2.08538 -2.74965 0
M  V30 16215 C 1493.71 1.70559 -3.96905 0
M  V30 16216 C 1492.85 2.90161 -4.44949 0
M  V30 16217 C 1491.89 2.48396 -5.59433 0
M  V30 16218 N 1491.03 3.60894 -6.02246 0
M  V30 16219 H 1495.87 0.338585 -2.9607 0
M  V30 16220 H 1493.4 0.155437 -1.46276 0
M  V30 16221 H 1495.36 2.81579 -3.07846 0
M  V30 16222 H 1493.99 2.56009 -1.96619 0
M  V30 16223 H 1493.04 0.874133 -3.7022 0
M  V30 16224 H 1494.35 1.35863 -4.7994 0
M  V30 16225 H 1493.51 3.71434 -4.7971 0
M  V30 16226 H 1492.25 3.28081 -3.60852 0
M  V30 16227 H 1491.25 1.65555 -5.24282 0
M  V30 16228 H 1492.48 2.116 -6.45292 0
M  V30 16229 H 1490.42 3.98497 -5.21091 0
M  V30 16230 H 1490.34 3.30103 -6.80124 0
M  V30 16231 H 1491.61 4.42622 -6.41643 0
M  V30 16232 N 1495.84 1.56784 0.160173 0
M  V30 16233 C 1496.77 2.00298 1.20012 0
M  V30 16234 C 1497.75 0.880356 1.45546 0
M  V30 16235 O 1498.93 1.14724 1.56691 0
M  V30 16236 C 1496.06 2.37238 2.53645 0
M  V30 16237 C 1495.02 3.52563 2.42658 0
M  V30 16238 C 1494.34 3.75278 3.80881 0
M  V30 16239 C 1495.64 4.85657 1.92183 0
M  V30 16240 H 1497.34 2.87423 0.838362 0
M  V30 16241 H 1494.88 1.3828 0.401838 0
M  V30 16242 H 1496.84 2.66278 3.2661 0
M  V30 16243 H 1495.56 1.47035 2.9163 0
M  V30 16244 H 1494.22 3.23669 1.72146 0
M  V30 16245 H 1493.87 2.82347 4.1628 0
M  V30 16246 H 1493.57 4.52882 3.74396 0
M  V30 16247 H 1495.09 4.0673 4.55415 0
M  V30 16248 H 1496.51 5.13501 2.54931 0
M  V30 16249 H 1494.9 5.66975 1.96619 0
M  V30 16250 H 1495.97 4.76908 0.876742 0
M  V30 16251 N 1497.32 -0.429099 1.51646 0
M  V30 16252 C 1498.56 -1.17644 1.65926 0
M  V30 16253 C 1498.92 -1.88715 0.374777 0
M  V30 16254 O 1498.21 -1.80952 -0.629842 0
M  V30 16255 C 1498.4 -2.2131 2.80636 0
M  V30 16256 C 1498.23 -1.60416 4.20115 0
M  V30 16257 C 1497 -1.38551 4.85934 0
M  V30 16258 C 1499.2 -1.07589 5.0292 0
M  V30 16259 N 1497.18 -0.733404 6.09503 0
M  V30 16260 C 1498.55 -0.549542 6.1756 0
M  V30 16261 C 1500.61 -0.968438 4.88391 0
M  V30 16262 C 1499.31 0.07371 7.19262 0
M  V30 16263 C 1501.34 -0.359068 5.90309 0
M  V30 16264 C 1500.7 0.156699 7.04226 0
M  V30 16265 H 1496.8 -0.417871 0.66099 0
M  V30 16266 H 1499.38 -0.471789 1.88897 0
M  V30 16267 H 1497.55 -2.89155 2.59314 0
M  V30 16268 H 1499.29 -2.88263 2.84054 0
M  V30 16269 H 1496.04 -1.64953 4.43945 0
M  V30 16270 H 1496.46 -0.424555 6.75667 0
M  V30 16271 H 1501.11 -1.35305 4.00565 0
M  V30 16272 H 1498.82 0.470433 8.0673 0
M  V30 16273 H 1502.41 -0.277718 5.81137 0
M  V30 16274 H 1501.29 0.62081 7.81739 0
M  V30 16275 N 1498.79 -1.41931 -0.685074 0
M  V30 16276 C 1500.02 -1.45018 -1.4715 0
M  V30 16277 C 1500.43 -0.0569412 -1.89114 0
M  V30 16278 O 1499.77 0.936419 -1.58041 0
M  V30 16279 C 1499.84 -2.30522 -2.75862 0
M  V30 16280 C 1499.5 -3.78542 -2.56037 0
M  V30 16281 C 1500.5 -4.70448 -2.21303 0
M  V30 16282 C 1498.18 -4.22698 -2.71351 0
M  V30 16283 C 1500.18 -6.045 -2.02135 0
M  V30 16284 C 1497.86 -5.56812 -2.518 0
M  V30 16285 C 1498.86 -6.47529 -2.17244 0
M  V30 16286 O 1498.55 -7.79167 -1.97872 0
M  V30 16287 H 1498.28 -0.495682 -0.459647 0
M  V30 16288 H 1500.84 -1.86983 -0.850079 0
M  V30 16289 H 1499.07 -1.83389 -3.40449 0
M  V30 16290 H 1500.75 -2.25186 -3.37707 0
M  V30 16291 H 1501.52 -4.37621 -2.09077 0
M  V30 16292 H 1497.4 -3.52385 -2.9723 0
M  V30 16293 H 1500.94 -6.75271 -1.75086 0
M  V30 16294 H 1496.84 -5.89216 -2.6362 0
M  V30 16295 H 1497.61 -7.9042 -2.12552 0
M  V30 16296 N 1500.27 0.920374 -1.27933 0
M  V30 16297 C 1501.2 2.02644 -1.07089 0
M  V30 16298 C 1502.22 1.62781 -0.024674 0
M  V30 16299 O 1503.41 1.76491 -0.267023 0
M  V30 16300 C 1500.51 3.33476 -0.603919 0
M  V30 16301 C 1499.68 4.01988 -1.72407 0
M  V30 16302 C 1498.74 5.11098 -1.25159 0
M  V30 16303 O 1497.76 5.3466 -1.95261 0
M  V30 16304 N 1498.97 5.80393 -0.111197 0
M  V30 16305 H 1501.73 2.21085 -2.0234 0
M  V30 16306 H 1499.29 1.09124 -1.19597 0
M  V30 16307 H 1501.28 4.03788 -0.271579 0
M  V30 16308 H 1499.85 3.11554 0.255557 0
M  V30 16309 H 1499.07 3.25312 -2.22633 0
M  V30 16310 H 1500.36 4.4451 -2.47566 0
M  V30 16311 H 1499.76 5.63713 0.473746 0
M  V30 16312 H 1498.32 6.51599 0.161912 0
M  V30 16313 N 1501.75 1.10074 1.1279 0
M  V30 16314 C 1502.68 0.768146 2.20503 0
M  V30 16315 C 1503.66 -0.257199 1.68144 0
M  V30 16316 O 1504.85 -0.12379 1.93805 0
M  V30 16317 C 1501.98 0.195125 3.46751 0
M  V30 16318 C 1500.93 1.15074 4.1224 0
M  V30 16319 C 1500.26 0.439098 5.32894 0
M  V30 16320 C 1501.56 2.49584 4.58808 0
M  V30 16321 H 1503.25 1.66876 2.48581 0
M  V30 16322 H 1500.8 0.803806 1.19478 0
M  V30 16323 H 1502.75 -0.0496695 4.21371 0
M  V30 16324 H 1501.47 -0.740717 3.1809 0
M  V30 16325 H 1500.13 1.38092 3.39597 0
M  V30 16326 H 1499.78 -0.501096 5.00498 0
M  V30 16327 H 1499.48 1.07632 5.77658 0
M  V30 16328 H 1501 0.202761 6.10263 0
M  V30 16329 H 1502.42 2.30736 5.24818 0
M  V30 16330 H 1500.81 3.09157 5.14336 0
M  V30 16331 H 1501.88 3.09857 3.72984 0
M  V30 16332 N 1503.23 -1.30138 0.888926 0
M  V30 16333 C 1504.14 -2.31778 0.3628 0
M  V30 16334 C 1505.15 -1.65507 -0.53698 0
M  V30 16335 O 1506.33 -1.96775 -0.429152 0
M  V30 16336 C 1503.39 -3.44259 -0.410673 0
M  V30 16337 C 1502.46 -4.26147 0.519334 0
M  V30 16338 C 1501.69 -5.33257 -0.21732 0
M  V30 16339 O 1501.91 -5.5185 -1.44284 0
M  V30 16340 O 1500.85 -6.00329 0.43461 0
M  V30 16341 H 1504.67 -2.78739 1.20575 0
M  V30 16342 H 1502.26 -1.34379 0.65289 0
M  V30 16343 H 1504.14 -4.1277 -0.848467 0
M  V30 16344 H 1502.81 -2.99426 -1.22986 0
M  V30 16345 H 1501.72 -3.60319 1.00602 0
M  V30 16346 H 1503.05 -4.74595 1.30464 0
M  V30 16347 N 1504.71 -0.650285 -1.43559 0
M  V30 16348 C 1505.65 0.043098 -2.3076 0
M  V30 16349 C 1506.62 0.81763 -1.44582 0
M  V30 16350 O 1507.81 0.794825 -1.73457 0
M  V30 16351 C 1504.95 1.00557 -3.30125 0
M  V30 16352 C 1504.06 0.227448 -4.31401 0
M  V30 16353 C 1503.2 1.18345 -5.17849 0
M  V30 16354 C 1502.23 0.395596 -6.1082 0
M  V30 16355 N 1501.37 1.30304 -6.89902 0
M  V30 16356 H 1506.21 -0.706402 -2.89506 0
M  V30 16357 H 1503.75 -0.360118 -1.42624 0
M  V30 16358 H 1505.71 1.57717 -3.8624 0
M  V30 16359 H 1504.34 1.72198 -2.73034 0
M  V30 16360 H 1503.39 -0.460391 -3.77604 0
M  V30 16361 H 1504.7 -0.385316 -4.9731 0
M  V30 16362 H 1503.85 1.82578 -5.78576 0
M  V30 16363 H 1502.59 1.83013 -4.52059 0
M  V30 16364 H 1501.6 -0.260099 -5.49184 0
M  V30 16365 H 1502.82 -0.246633 -6.78652 0
M  V30 16366 H 1500.77 1.93657 -6.26764 0
M  V30 16367 H 1500.69 0.744768 -7.52323 0
M  V30 16368 H 1501.95 1.93361 -7.55137 0
M  V30 16369 N 1506.18 1.52647 -0.392018 0
M  V30 16370 C 1507.09 2.30261 0.449093 0
M  V30 16371 C 1508.11 1.37286 1.06905 0
M  V30 16372 O 1509.29 1.70357 1.07427 0
M  V30 16373 C 1506.35 3.09636 1.55969 0
M  V30 16374 C 1505.41 4.18324 0.964566 0
M  V30 16375 C 1504.64 4.93904 2.02224 0
M  V30 16376 O 1504.87 4.69603 3.23773 0
M  V30 16377 O 1503.8 5.79183 1.63802 0
M  V30 16378 H 1507.63 3.03147 -0.183269 0
M  V30 16379 H 1505.21 1.48587 -0.155664 0
M  V30 16380 H 1507.09 3.59118 2.20482 0
M  V30 16381 H 1505.77 2.39561 2.17697 0
M  V30 16382 H 1504.68 3.73031 0.282618 0
M  V30 16383 H 1506.01 4.90641 0.391466 0
M  V30 16384 N 1507.66 0.121921 1.57128 0
M  V30 16385 C 1509.07 -0.402991 1.82299 0
M  V30 16386 C 1509.42 -1.66415 1.03925 0
M  V30 16387 O 1508.55 -2.14623 0.27674 0
M  V30 16388 C 1509.14 -0.737913 3.30666 0
M  V30 16389 C 1507.7 -1.20745 3.56508 0
M  V30 16390 C 1506.85 -0.217628 2.76445 0
M  V30 16391 H 1509.8 0.347009 1.5486 0
M  V30 16392 H 1509.82 -1.59505 3.45454 0
M  V30 16393 H 1509.33 0.180162 3.87682 0
M  V30 16394 H 1507.44 -2.14232 3.04853 0
M  V30 16395 H 1507.55 -1.15075 4.65075 0
M  V30 16396 H 1505.91 -0.705253 2.44741 0
M  V30 16397 H 1506.7 0.693596 3.3622 0
M  V30 16398 N 1509.14 -1.56867 -0.151857 0
M  V30 16399 C 1510.39 -1.82273 -0.863689 0
M  V30 16400 C 1510.7 -0.702377 -1.82554 0
M  V30 16401 O 1511.91 -0.841903 -2.58117 0
M  V30 16402 C 1510.36 -3.23046 -1.58649 0
M  V30 16403 C 1509.97 -4.43003 -0.667292 0
M  V30 16404 C 1511.72 -3.57729 -2.28539 0
M  V30 16405 C 1509.62 -5.74798 -1.39144 0
M  V30 16406 H 1508.55 -0.679753 -0.326269 0
M  V30 16407 H 1511.2 -1.8313 -0.116454 0
M  V30 16408 H 1509.59 -3.16561 -2.37918 0
M  V30 16409 H 1510.76 -4.60712 0.0898254 0
M  V30 16410 H 1509.08 -4.16329 -0.0770521 0
M  V30 16411 H 1511.67 -4.53451 -2.83348 0
M  V30 16412 H 1512.02 -2.8355 -3.04803 0
M  V30 16413 H 1512.55 -3.65853 -1.56194 0
M  V30 16414 H 1509.29 -6.52059 -0.670747 0
M  V30 16415 H 1508.81 -5.61032 -2.12139 0
M  V30 16416 H 1510.49 -6.17429 -1.93367 0
M  V30 16417 N 1510.62 0.421051 -1.51871 0
M  V30 16418 C 1511.87 1.16611 -1.64574 0
M  V30 16419 C 1512.18 1.91955 -0.375835 0
M  V30 16420 O 1513.39 2.68792 -0.382481 0
M  V30 16421 C 1511.84 2.12164 -2.90714 0
M  V30 16422 C 1511.45 1.42392 -4.24769 0
M  V30 16423 C 1513.19 2.87002 -3.12778 0
M  V30 16424 C 1511.1 2.36523 -5.42043 0
M  V30 16425 H 1510.03 0.438989 -0.613029 0
M  V30 16426 H 1512.68 0.431636 -1.78351 0
M  V30 16427 H 1511.06 2.89114 -2.70608 0
M  V30 16428 H 1512.24 0.708875 -4.55315 0
M  V30 16429 H 1510.55 0.796421 -4.08713 0
M  V30 16430 H 1513.15 3.5755 -3.9757 0
M  V30 16431 H 1513.49 3.49277 -2.2652 0
M  V30 16432 H 1514.03 2.17154 -3.333 0
M  V30 16433 H 1510.77 1.78913 -6.30611 0
M  V30 16434 H 1510.29 3.06034 -5.15852 0
M  V30 16435 H 1511.96 2.97306 -5.74646 0
M  V30 16436 N 1512.1 1.42293 0.677538 0
M  V30 16437 C 1513.34 1.42334 1.43476 0
M  V30 16438 C 1513.67 0.0397842 1.94959 0
M  V30 16439 O 1512.94 -0.921258 1.72886 0
M  V30 16440 H 1511.52 0.523969 0.532415 0
M  V30 16441 H 1514.18 1.7769 0.800758 0
M  V30 16442 H 1513.27 2.12146 2.28912 0
M  V30 16443 N 1513.57 -0.913576 1.28419 0
M  V30 16444 C 1514.54 -1.99757 1.12382 0
M  V30 16445 C 1515.54 -1.60675 0.063435 0
M  V30 16446 O 1516.73 -1.71433 0.30923 0
M  V30 16447 C 1513.86 -3.33307 0.715506 0
M  V30 16448 H 1515.05 -2.15414 2.08655 0
M  V30 16449 H 1512.61 -1.09626 1.11408 0
M  V30 16450 H 1513.34 -3.23351 -0.247977 0
M  V30 16451 H 1513.13 -3.63034 1.4815 0
M  V30 16452 H 1514.62 -4.12882 0.625953 0
M  V30 16453 N 1515.05 -1.1067 -1.12204 0
M  V30 16454 C 1515.96 -0.770221 -2.21596 0
M  V30 16455 C 1516.98 0.233297 -1.72429 0
M  V30 16456 O 1518.15 0.0714493 -2.01273 0
M  V30 16457 C 1515.22 -0.209682 -3.46065 0
M  V30 16458 C 1514.28 -1.27079 -4.1006 0
M  V30 16459 C 1513.51 -0.736899 -5.28588 0
M  V30 16460 O 1513.74 0.435838 -5.68732 0
M  V30 16461 O 1512.67 -1.49797 -5.82962 0
M  V30 16462 H 1516.5 -1.6834 -2.52776 0
M  V30 16463 H 1514.08 -0.882012 -1.20586 0
M  V30 16464 H 1515.96 0.0989516 -4.21284 0
M  V30 16465 H 1514.64 0.676316 -3.16556 0
M  V30 16466 H 1513.55 -1.63231 -3.3661 0
M  V30 16467 H 1514.88 -2.12989 -4.4373 0
M  V30 16468 N 1516.53 1.29665 -0.895815 0
M  V30 16469 C 1517.76 1.99862 -0.535043 0
M  V30 16470 C 1518.17 1.67077 0.879245 0
M  V30 16471 O 1517.53 0.913717 1.57979 0
M  V30 16472 C 1517.58 3.54396 -0.713132 0
M  V30 16473 O 1517.3 3.86018 -2.07175 0
M  V30 16474 C 1518.8 4.41862 -0.356792 0
M  V30 16475 H 1516.02 0.638693 -0.205699 0
M  V30 16476 H 1518.57 1.65293 -1.20409 0
M  V30 16477 H 1516.72 3.87292 -0.0913116 0
M  V30 16478 H 1517.14 4.80701 -2.09827 0
M  V30 16479 H 1518.61 5.49428 -0.532252 0
M  V30 16480 H 1519.09 4.3349 0.705914 0
M  V30 16481 H 1519.69 4.1443 -0.95539 0
M  V30 16482 N 1518.01 0.657889 1.43212 0
M  V30 16483 C 1519.26 0.173187 2.01758 0
M  V30 16484 C 1519.58 -1.21447 1.51924 0
M  V30 16485 O 1518.84 -1.82568 0.704807 0
M  V30 16486 C 1519.14 0.138025 3.57133 0
M  V30 16487 C 1518.8 1.46806 4.26332 0
M  V30 16488 C 1517.47 1.83227 4.44951 0
M  V30 16489 C 1519.82 2.34476 4.65478 0
M  V30 16490 C 1517.15 3.06975 4.99983 0
M  V30 16491 C 1519.5 3.57521 5.21883 0
M  V30 16492 C 1518.16 3.94132 5.38717 0
M  V30 16493 H 1517.43 0.0633735 0.738285 0
M  V30 16494 H 1520.08 0.849524 1.71626 0
M  V30 16495 H 1518.38 -0.621776 3.86835 0
M  V30 16496 H 1520.08 -0.253948 4.00195 0
M  V30 16497 H 1516.67 1.17469 4.12188 0
M  V30 16498 H 1520.85 2.07628 4.50782 0
M  V30 16499 H 1516.11 3.35383 5.11202 0
M  V30 16500 H 1520.28 4.25669 5.51161 0
M  V30 16501 H 1517.91 4.901 5.81125 0
M  V30 16502 N 1519.49 -1.52437 0.400108 0
M  V30 16503 C 1520.72 -2.05831 -0.178105 0
M  V30 16504 C 1521.12 -1.27083 -1.40166 0
M  V30 16505 O 1520.47 -0.31347 -1.81006 0
M  V30 16506 C 1520.53 -3.5442 -0.602239 0
M  V30 16507 C 1520.19 -4.54153 0.509341 0
M  V30 16508 C 1521.19 -5.01521 1.37012 0
M  V30 16509 C 1518.88 -4.97683 0.679457 0
M  V30 16510 C 1520.87 -5.91056 2.38604 0
M  V30 16511 C 1518.56 -5.87016 1.6987 0
M  V30 16512 C 1519.55 -6.33595 2.55041 0
M  V30 16513 O 1519.24 -7.21161 3.55221 0
M  V30 16514 H 1518.97 -0.675423 -0.0279209 0
M  V30 16515 H 1521.53 -1.97419 0.567013 0
M  V30 16516 H 1519.76 -3.60487 -1.3995 0
M  V30 16517 H 1521.45 -3.90503 -1.10734 0
M  V30 16518 H 1522.21 -4.68614 1.25005 0
M  V30 16519 H 1518.09 -4.60993 0.0262086 0
M  V30 16520 H 1521.64 -6.27335 3.05118 0
M  V30 16521 H 1517.53 -6.19337 1.81912 0
M  V30 16522 H 1518.3 -7.39249 3.51358 0
M  V30 16523 N 1520.96 -0.130252 -1.57061 0
M  V30 16524 C 1522.21 0.525784 -1.95866 0
M  V30 16525 C 1522.54 1.65607 -1.01429 0
M  V30 16526 O 1521.82 1.94426 -0.0535544 0
M  V30 16527 C 1522.1 1.04784 -3.44517 0
M  V30 16528 C 1521.95 -0.0797972 -4.49729 0
M  V30 16529 C 1523.27 1.9351 -3.95275 0
M  V30 16530 H 1520.39 0.189652 -0.71218 0
M  V30 16531 H 1523.03 -0.208091 -1.88857 0
M  V30 16532 H 1521.18 1.67324 -3.50621 0
M  V30 16533 H 1522.86 -0.715535 -4.55717 0
M  V30 16534 H 1521.1 -0.741358 -4.27418 0
M  V30 16535 H 1521.77 0.326915 -5.51031 0
M  V30 16536 H 1524.25 1.40825 -3.91545 0
M  V30 16537 H 1523.12 2.26952 -4.99784 0
M  V30 16538 H 1523.38 2.86583 -3.36634 0
M  V30 16539 N 1522.44 1.56945 0.143535 0
M  V30 16540 C 1523.72 1.74461 0.884454 0
M  V30 16541 C 1524.1 0.699201 1.99184 0
M  V30 16542 O 1523.45 -0.281267 2.26762 0
M  V30 16543 C 1523.66 3.18639 1.42373 0
M  V30 16544 C 1525.01 3.80426 1.88577 0
M  V30 16545 O 1526.03 3.2209 1.52107 0
M  V30 16546 O 1524.89 4.82913 2.55847 0
M  V30 16547 H 1521.98 0.713457 0.41822 0
M  V30 16548 H 1524.53 1.69208 0.12919 0
M  V30 16549 H 1523.3 3.86227 0.628056 0
M  V30 16550 H 1522.92 3.28332 2.2424 0
M  V30 16551 N 1523.92 -0.412991 1.52093 0
M  V30 16552 C 1525.17 -1.15801 1.65634 0
M  V30 16553 C 1525.49 -1.91127 0.386737 0
M  V30 16554 O 1524.76 -1.86541 -0.598262 0
M  V30 16555 H 1523.34 -0.430467 0.610498 0
M  V30 16556 H 1526 -0.471127 1.8912 0
M  V30 16557 H 1525.1 -1.87421 2.49559 0
M  V30 16558 N 1525.4 -1.4265 -0.669982 0
M  V30 16559 C 1526.36 -1.46196 -1.7652 0
M  V30 16560 C 1527.36 -0.348884 -1.5697 0
M  V30 16561 O 1528.55 -0.609921 -1.63174 0
M  V30 16562 C 1525.68 -1.29829 -3.1521 0
M  V30 16563 H 1526.88 -2.43718 -1.74762 0
M  V30 16564 H 1524.43 -1.29168 -0.88007 0
M  V30 16565 H 1525.17 -0.332493 -3.22591 0
M  V30 16566 H 1524.95 -2.10501 -3.30804 0
M  V30 16567 H 1526.44 -1.35205 -3.95107 0
M  V30 16568 N 1526.88 0.906753 -1.28902 0
M  V30 16569 C 1527.84 1.99158 -1.1344 0
M  V30 16570 C 1528.84 1.60639 -0.0719551 0
M  V30 16571 O 1530.03 1.71267 -0.318317 0
M  V30 16572 C 1527.16 3.32923 -0.733172 0
M  V30 16573 H 1528.36 2.14305 -2.09794 0
M  V30 16574 H 1525.91 1.09034 -1.11988 0
M  V30 16575 H 1526.64 3.23477 0.230826 0
M  V30 16576 H 1526.43 3.62244 -1.50073 0
M  V30 16577 H 1527.92 4.12544 -0.64784 0
M  V30 16578 N 1528.36 1.11264 1.11616 0
M  V30 16579 C 1529.3 0.764321 2.19684 0
M  V30 16580 C 1530.3 -0.243396 1.67642 0
M  V30 16581 O 1531.5 -0.102869 1.79706 0
M  V30 16582 H 1527.88 0.229275 0.716196 0
M  V30 16583 H 1529.85 1.68445 2.46311 0
M  V30 16584 C 1528.6 0.22175 3.46992 0
M  V30 16585 H 1527.92 0.988422 3.87389 0
M  V30 16586 H 1529.36 0.0161946 4.23997 0
M  V30 16587 C 1527.82 -1.04755 3.202 0
M  V30 16588 O 1528.35 -2.12758 3.4073 0
M  V30 16589 N 1526.56 -0.969608 2.73947 0
M  V30 16590 H 1526.1 -0.0906063 2.57441 0
M  V30 16591 H 1526.06 -1.81955 2.56397 0
M  V30 16592 N 1529.83 -1.29188 0.902679 0
M  V30 16593 C 1531.25 -1.47924 0.599209 0
M  V30 16594 C 1531.45 -1.82297 -0.858494 0
M  V30 16595 O 1530.51 -1.92123 -1.63845 0
M  V30 16596 C 1531.82 -2.59008 1.52759 0
M  V30 16597 C 1533.37 -2.72882 1.53312 0
M  V30 16598 C 1533.84 -3.87097 2.44785 0
M  V30 16599 N 1535.33 -3.94435 2.42849 0
M  V30 16600 C 1536.07 -4.82165 3.1033 0
M  V30 16601 N 1535.56 -5.74565 3.87101 0
M  V30 16602 N 1537.36 -4.75681 2.99473 0
M  V30 16603 H 1529.51 -1.05154 1.84544 0
M  V30 16604 H 1531.77 -0.522632 0.790924 0
M  V30 16605 H 1531.48 -2.40483 2.56634 0
M  V30 16606 H 1531.35 -3.55873 1.25036 0
M  V30 16607 H 1533.74 -2.90802 0.501804 0
M  V30 16608 H 1533.82 -1.76582 1.85074 0
M  V30 16609 H 1533.46 -3.69932 3.48012 0
M  V30 16610 H 1533.39 -4.82772 2.10331 0
M  V30 16611 H 1535.88 -3.28347 1.87074 0
M  V30 16612 H 1536.2 -6.3831 4.35638 0
M  V30 16613 H 1534.54 -5.74441 3.91207 0
M  V30 16614 H 1537.73 -4.02483 2.39009 0
M  V30 16615 H 1537.91 -5.4384 3.52337 0
M  V30 16616 N 1531.31 -0.665475 -1.42861 0
M  V30 16617 C 1532.22 0.018927 -2.34592 0
M  V30 16618 C 1533.24 0.798967 -1.54572 0
M  V30 16619 O 1534.41 0.743419 -1.87177 0
M  V30 16620 C 1531.48 0.965013 -3.32999 0
M  V30 16621 C 1530.54 0.180544 -4.2892 0
M  V30 16622 C 1529.77 1.08157 -5.22626 0
M  V30 16623 O 1530 2.32101 -5.21043 0
M  V30 16624 O 1528.93 0.54738 -5.99406 0
M  V30 16625 H 1532.76 -0.736444 -2.94636 0
M  V30 16626 H 1530.34 -0.425684 -1.43207 0
M  V30 16627 H 1532.22 1.50839 -3.93479 0
M  V30 16628 H 1530.9 1.7004 -2.75442 0
M  V30 16629 H 1529.8 -0.40671 -3.71883 0
M  V30 16630 H 1531.14 -0.515529 -4.89493 0
M  V30 16631 N 1532.79 1.52222 -0.408187 0
M  V30 16632 C 1534.02 2.06221 0.16743 0
M  V30 16633 C 1534.43 1.27832 1.3894 0
M  V30 16634 O 1533.79 0.329933 1.79493 0
M  V30 16635 C 1533.84 3.57758 0.518804 0
M  V30 16636 O 1533.56 4.33181 -0.654639 0
M  V30 16637 C 1535.06 4.28171 1.14825 0
M  V30 16638 H 1532.28 0.670677 0.0208054 0
M  V30 16639 H 1534.83 1.96136 -0.578868 0
M  V30 16640 H 1532.98 3.67854 1.215 0
M  V30 16641 H 1533.4 5.23252 -0.361558 0
M  V30 16642 H 1534.87 5.3538 1.34433 0
M  V30 16643 H 1535.35 3.84586 2.12108 0
M  V30 16644 H 1535.95 4.22441 0.492291 0
M  V30 16645 N 1534.27 0.138579 1.5699 0
M  V30 16646 C 1535.21 -0.804305 2.16332 0
M  V30 16647 C 1536.18 -1.25002 1.09379 0
M  V30 16648 O 1537.37 -1.32405 1.37381 0
M  V30 16649 C 1534.51 -2.04137 2.78248 0
M  V30 16650 C 1533.62 -1.64223 3.99568 0
M  V30 16651 C 1532.76 -2.83046 4.49509 0
M  V30 16652 C 1531.8 -2.39465 5.63314 0
M  V30 16653 N 1530.93 -3.51267 6.07911 0
M  V30 16654 H 1535.77 -0.29144 2.96571 0
M  V30 16655 H 1533.31 -0.132146 1.46505 0
M  V30 16656 H 1535.27 -2.76646 3.12286 0
M  V30 16657 H 1533.9 -2.52849 2.00667 0
M  V30 16658 H 1532.95 -0.815123 3.71564 0
M  V30 16659 H 1534.26 -1.2821 4.82041 0
M  V30 16660 H 1533.42 -3.63755 4.85559 0
M  V30 16661 H 1532.16 -3.22298 3.66026 0
M  V30 16662 H 1531.16 -1.57193 5.2685 0
M  V30 16663 H 1532.39 -2.01307 6.48577 0
M  V30 16664 H 1530.33 -3.90156 5.27365 0
M  V30 16665 H 1530.25 -3.19241 6.85289 0
M  V30 16666 H 1531.52 -4.32358 6.48604 0
M  V30 16667 N 1535.75 -1.57019 -0.13521 0
M  V30 16668 C 1536.68 -2.02182 -1.16811 0
M  V30 16669 C 1537.66 -0.9034 -1.44127 0
M  V30 16670 O 1538.84 -1.17202 -1.54846 0
M  V30 16671 C 1535.97 -2.41243 -2.49838 0
M  V30 16672 C 1534.93 -3.56379 -2.37018 0
M  V30 16673 C 1534.25 -3.8129 -3.74863 0
M  V30 16674 C 1535.55 -4.88653 -1.84432 0
M  V30 16675 H 1537.25 -2.8872 -0.792529 0
M  V30 16676 H 1534.79 -1.38901 -0.379788 0
M  V30 16677 H 1536.74 -2.7144 -3.22332 0
M  V30 16678 H 1535.47 -1.51656 -2.89254 0
M  V30 16679 H 1534.13 -3.26366 -1.66975 0
M  V30 16680 H 1533.78 -2.88934 -4.11735 0
M  V30 16681 H 1533.48 -4.58781 -3.67143 0
M  V30 16682 H 1535 -4.13924 -4.48887 0
M  V30 16683 H 1536.41 -5.17492 -2.46729 0
M  V30 16684 H 1534.81 -5.70032 -1.87574 0
M  V30 16685 H 1535.88 -4.78242 -0.800759 0
M  V30 16686 N 1537.22 0.404919 -1.52309 0
M  V30 16687 C 1538.47 1.14921 -1.66246 0
M  V30 16688 C 1538.79 1.90919 -0.396868 0
M  V30 16689 O 1538.06 1.86856 0.588361 0
M  V30 16690 H 1536.64 0.427223 -0.612772 0
M  V30 16691 H 1539.31 0.461091 -1.89367 0
M  V30 16692 H 1538.4 1.86095 -2.5055 0
M  V30 16693 N 1538.7 1.43003 0.662408 0
M  V30 16694 C 1539.65 1.47448 1.77561 0
M  V30 16695 C 1540.62 0.325121 1.62887 0
M  V30 16696 O 1541.8 0.530971 1.83263 0
M  V30 16697 C 1538.94 1.3946 3.15666 0
M  V30 16698 C 1538.06 2.64529 3.41539 0
M  V30 16699 C 1537.19 2.48594 4.69441 0
M  V30 16700 C 1536.23 3.68976 4.88388 0
M  V30 16701 N 1535.37 3.51908 6.0754 0
M  V30 16702 H 1540.21 2.42573 1.73097 0
M  V30 16703 H 1537.75 1.2042 0.84484 0
M  V30 16704 H 1539.7 1.32824 3.95492 0
M  V30 16705 H 1538.33 0.479227 3.19223 0
M  V30 16706 H 1537.39 2.81481 2.55877 0
M  V30 16707 H 1538.7 3.53977 3.51429 0
M  V30 16708 H 1537.85 2.39614 5.57378 0
M  V30 16709 H 1536.59 1.56656 4.61855 0
M  V30 16710 H 1535.6 3.78374 3.9889 0
M  V30 16711 H 1536.82 4.61911 4.9781 0
M  V30 16712 H 1534.77 2.62697 6.01104 0
M  V30 16713 H 1534.68 4.34951 6.18347 0
M  V30 16714 H 1535.95 3.46763 6.98123 0
M  V30 16715 N 1540.18 -0.899904 1.29381 0
M  V30 16716 C 1541.14 -1.98554 1.14494 0
M  V30 16717 C 1542.14 -1.60599 0.0804732 0
M  V30 16718 O 1543.33 -1.71096 0.327395 0
M  V30 16719 C 1540.47 -3.32529 0.750818 0
M  V30 16720 H 1541.66 -2.13189 2.10928 0
M  V30 16721 H 1539.21 -1.08438 1.12565 0
M  V30 16722 H 1539.95 -3.23595 -0.213668 0
M  V30 16723 H 1539.73 -3.61443 1.51992 0
M  V30 16724 H 1541.22 -4.12195 0.669709 0
M  V30 16725 N 1541.66 -1.11854 -1.11024 0
M  V30 16726 C 1542.91 -0.868355 -1.82494 0
M  V30 16727 C 1543.23 0.607622 -1.85292 0
M  V30 16728 O 1542.5 1.44147 -1.32659 0
M  V30 16729 H 1541.08 -0.31826 -0.67581 0
M  V30 16730 H 1543.74 -1.4118 -1.34366 0
M  V30 16731 H 1542.84 -1.24441 -2.86218 0
M  V30 16732 N 1543.14 1.28707 -0.909517 0
M  V30 16733 C 1544.37 1.98995 -0.555405 0
M  V30 16734 C 1544.77 1.68183 0.866665 0
M  V30 16735 O 1544.12 0.928626 1.585 0
M  V30 16736 C 1544.18 3.53018 -0.67958 0
M  V30 16737 C 1543.84 4.0741 -2.07042 0
M  V30 16738 C 1544.84 4.21565 -3.04268 0
M  V30 16739 C 1542.53 4.42204 -2.38245 0
M  V30 16740 C 1544.52 4.69762 -4.30816 0
M  V30 16741 C 1542.21 4.90095 -3.65034 0
M  V30 16742 C 1543.2 5.03831 -4.61133 0
M  V30 16743 O 1542.89 5.50679 -5.85668 0
M  V30 16744 H 1542.62 0.64228 -0.210836 0
M  V30 16745 H 1545.18 1.64974 -1.22364 0
M  V30 16746 H 1543.41 3.86673 0.0457104 0
M  V30 16747 H 1545.1 4.0453 -0.33319 0
M  V30 16748 H 1545.86 3.94962 -2.81478 0
M  V30 16749 H 1541.74 4.30766 -1.642 0
M  V30 16750 H 1545.29 4.80398 -5.0583 0
M  V30 16751 H 1541.18 5.16137 -3.8765 0
M  V30 16752 H 1541.95 5.68974 -5.88397 0
M  V30 16753 N 1544.61 0.673042 1.42506 0
M  V30 16754 C 1545.86 0.194864 2.01862 0
M  V30 16755 C 1546.19 -1.19491 1.53087 0
M  V30 16756 O 1545.47 -1.80187 0.732322 0
M  V30 16757 C 1545.75 0.227559 3.5938 0
M  V30 16758 C 1545.6 1.65266 4.18338 0
M  V30 16759 C 1546.92 -0.425197 4.38041 0
M  V30 16760 H 1544.04 0.0722831 0.733447 0
M  V30 16761 H 1546.68 0.857493 1.6955 0
M  V30 16762 H 1544.83 -0.336658 3.87039 0
M  V30 16763 H 1546.51 2.26899 4.0164 0
M  V30 16764 H 1544.75 2.19388 3.74234 0
M  V30 16765 H 1545.42 1.62724 5.2747 0
M  V30 16766 H 1547.9 0.0550709 4.16064 0
M  V30 16767 H 1546.77 -0.371675 5.4764 0
M  V30 16768 H 1547.03 -1.50251 4.15785 0
M  V30 16769 N 1546.09 -1.52004 0.416254 0
M  V30 16770 C 1547.32 -2.06307 -0.156491 0
M  V30 16771 C 1547.74 -1.28567 -1.3826 0
M  V30 16772 O 1547.09 -0.339447 -1.79315 0
M  V30 16773 C 1547.14 -3.58028 -0.499824 0
M  V30 16774 O 1546.86 -4.32828 0.677602 0
M  V30 16775 C 1548.37 -4.28773 -1.12553 0
M  V30 16776 H 1545.59 -0.670778 -0.0172483 0
M  V30 16777 H 1548.13 -1.95826 0.589262 0
M  V30 16778 H 1546.28 -3.68493 -1.19547 0
M  V30 16779 H 1546.7 -5.23053 0.389302 0
M  V30 16780 H 1548.17 -5.36085 -1.31592 0
M  V30 16781 H 1548.65 -3.85706 -2.10066 0
M  V30 16782 H 1549.26 -4.22696 -0.469881 0
M  V30 16783 N 1547.57 -0.146903 -1.56914 0
M  V30 16784 C 1548.85 0.549291 -1.87729 0
M  V30 16785 C 1549.23 1.82971 -1.05284 0
M  V30 16786 O 1548.58 2.28073 -0.139628 0
M  V30 16787 C 1548.79 0.814835 -3.39354 0
M  V30 16788 C 1550.13 1.15565 -4.0857 0
M  V30 16789 O 1551.16 0.904191 -3.44533 0
M  V30 16790 O 1550.02 1.62886 -5.21661 0
M  V30 16791 H 1547.11 0.280196 -0.778087 0
M  V30 16792 H 1549.66 -0.183507 -1.68705 0
M  V30 16793 H 1548.43 -0.0913527 -3.91193 0
M  V30 16794 H 1548.05 1.60182 -3.63906 0
M  V30 16795 N 1549.05 1.57088 0.126881 0
M  V30 16796 C 1550.46 1.52205 0.480175 0
M  V30 16797 C 1550.66 0.858634 1.8229 0
M  V30 16798 O 1549.72 0.437636 2.48679 0
M  V30 16799 C 1551.03 2.96974 0.471931 0
M  V30 16800 C 1552.58 3.08021 0.556037 0
M  V30 16801 C 1553.06 4.54335 0.57826 0
M  V30 16802 N 1554.55 4.58758 0.639922 0
M  V30 16803 C 1555.28 5.69372 0.678434 0
M  V30 16804 N 1554.78 6.89503 0.67507 0
M  V30 16805 N 1556.57 5.57459 0.720845 0
M  V30 16806 H 1548.72 1.98604 -0.753008 0
M  V30 16807 H 1550.99 0.90666 -0.276895 0
M  V30 16808 H 1550.69 3.48849 -0.44687 0
M  V30 16809 H 1550.57 3.53994 1.3026 0
M  V30 16810 H 1552.95 2.56153 1.46526 0
M  V30 16811 H 1553.03 2.54009 -0.302171 0
M  V30 16812 H 1552.68 5.06847 -0.326884 0
M  V30 16813 H 1552.61 5.06151 1.45324 0
M  V30 16814 H 1555.1 3.72285 0.649005 0
M  V30 16815 H 1555.41 7.6956 0.706862 0
M  V30 16816 H 1553.76 6.92023 0.64262 0
M  V30 16817 H 1556.95 4.62517 0.720783 0
M  V30 16818 H 1557.12 6.43675 0.747392 0
M  V30 16819 N 1550.53 -0.396836 1.52522 0
M  V30 16820 C 1551.77 -1.14037 1.66853 0
M  V30 16821 C 1552.1 -1.90706 0.406987 0
M  V30 16822 O 1551.37 -1.87165 -0.578443 0
M  V30 16823 H 1549.95 -0.423967 0.615029 0
M  V30 16824 H 1552.61 -0.451042 1.89609 0
M  V30 16825 H 1551.7 -1.84763 2.51533 0
M  V30 16826 N 1552.01 -1.43353 -0.654814 0
M  V30 16827 C 1553.42 -1.26718 -0.970297 0
M  V30 16828 C 1553.62 -0.185747 -2.00642 0
M  V30 16829 O 1552.68 0.436357 -2.48701 0
M  V30 16830 C 1553.99 -2.63095 -1.45608 0
M  V30 16831 C 1555.54 -2.70613 -1.57281 0
M  V30 16832 C 1556.01 -4.07404 -2.0925 0
M  V30 16833 N 1557.5 -4.09461 -2.16555 0
M  V30 16834 C 1558.24 -5.12135 -2.57885 0
M  V30 16835 N 1557.74 -6.25185 -2.98523 0
M  V30 16836 N 1559.53 -4.9949 -2.57811 0
M  V30 16837 H 1551.68 -2.12378 0.0308331 0
M  V30 16838 H 1553.94 -0.946744 -0.0487843 0
M  V30 16839 H 1553.65 -3.43186 -0.769171 0
M  V30 16840 H 1553.52 -2.88381 -2.43138 0
M  V30 16841 H 1555.91 -1.90855 -2.25074 0
M  V30 16842 H 1555.99 -2.49094 -0.581879 0
M  V30 16843 H 1555.63 -4.87628 -1.4206 0
M  V30 16844 H 1555.56 -4.26287 -3.09172 0
M  V30 16845 H 1558.06 -3.27858 -1.87929 0
M  V30 16846 H 1558.37 -6.99362 -3.28804 0
M  V30 16847 H 1556.71 -6.28659 -2.96332 0
M  V30 16848 H 1559.9 -4.10238 -2.25438 0
M  V30 16849 H 1560.08 -5.79637 -2.89699 0
M  V30 16850 N 1553.48 0.89303 -1.29857 0
M  V30 16851 C 1554.42 2.00327 -1.11364 0
M  V30 16852 C 1555.43 1.62692 -0.0591968 0
M  V30 16853 O 1556.62 1.75885 -0.3044 0
M  V30 16854 C 1553.72 3.3212 -0.674518 0
M  V30 16855 C 1552.89 3.98241 -1.80895 0
M  V30 16856 C 1551.95 5.08329 -1.35972 0
M  V30 16857 O 1550.98 5.30398 -2.06558 0
M  V30 16858 N 1552.18 5.80027 -0.234282 0
M  V30 16859 H 1554.94 2.16743 -2.06984 0
M  V30 16860 H 1552.5 1.06563 -1.21885 0
M  V30 16861 H 1554.5 4.03121 -0.357167 0
M  V30 16862 H 1553.07 3.12026 0.189414 0
M  V30 16863 H 1552.29 3.20517 -2.29483 0
M  V30 16864 H 1553.57 4.39158 -2.56939 0
M  V30 16865 H 1552.97 5.64591 0.354068 0
M  V30 16866 H 1551.53 6.51796 0.0236623 0
M  V30 16867 N 1554.96 1.12442 1.10429 0
M  V30 16868 C 1555.91 0.792332 2.16773 0
M  V30 16869 C 1556.88 -0.240945 1.64343 0
M  V30 16870 O 1558.06 -0.115504 1.9045 0
M  V30 16871 C 1555.2 0.253166 3.4417 0
M  V30 16872 C 1554.32 1.34426 4.10553 0
M  V30 16873 C 1553.45 0.764527 5.2567 0
M  V30 16874 C 1552.49 1.83474 5.83955 0
M  V30 16875 N 1551.63 1.27372 6.9045 0
M  V30 16876 H 1556.47 1.7033 2.44524 0
M  V30 16877 H 1554 0.850418 1.20026 0
M  V30 16878 H 1555.96 -0.0774862 4.17128 0
M  V30 16879 H 1554.59 -0.620962 3.16771 0
M  V30 16880 H 1553.64 1.79169 3.35563 0
M  V30 16881 H 1554.96 2.15354 4.49916 0
M  V30 16882 H 1554.11 0.384548 6.0548 0
M  V30 16883 H 1552.85 -0.0759512 4.87641 0
M  V30 16884 H 1551.85 2.22391 5.02814 0
M  V30 16885 H 1553.08 2.67844 6.24048 0
M  V30 16886 H 1551.03 0.455069 6.5442 0
M  V30 16887 H 1550.94 2.01959 7.28525 0
M  V30 16888 H 1552.21 0.920975 7.7404 0
M  V30 16889 N 1556.44 -1.28223 0.91633 0
M  V30 16890 C 1557.69 -1.95153 0.551639 0
M  V30 16891 C 1558.02 -1.71938 -0.902829 0
M  V30 16892 O 1557.29 -1.04184 -1.64243 0
M  V30 16893 C 1557.58 -3.49565 0.864647 0
M  V30 16894 C 1557.43 -3.82171 2.37203 0
M  V30 16895 C 1558.75 -4.38604 0.362593 0
M  V30 16896 H 1555.87 -0.708808 0.20189 0
M  V30 16897 H 1558.51 -1.51545 1.14604 0
M  V30 16898 H 1556.66 -3.8684 0.358782 0
M  V30 16899 H 1558.33 -3.54751 2.94872 0
M  V30 16900 H 1556.57 -3.29124 2.82595 0
M  V30 16901 H 1557.25 -4.90007 2.54159 0
M  V30 16902 H 1559.72 -4.08416 0.795983 0
M  V30 16903 H 1558.6 -5.45493 0.61066 0
M  V30 16904 H 1558.86 -4.35911 -0.737137 0
M  V30 16905 N 1557.92 -0.68059 -1.42147 0
M  V30 16906 C 1559.16 -0.205567 -2.01755 0
M  V30 16907 C 1559.5 1.18677 -1.53718 0
M  V30 16908 O 1558.77 1.79796 -0.741867 0
M  V30 16909 C 1559.05 -0.246615 -3.59255 0
M  V30 16910 C 1558.91 -1.67483 -4.17456 0
M  V30 16911 C 1560.23 0.40196 -4.38261 0
M  V30 16912 H 1557.35 -0.0761717 -0.733053 0
M  V30 16913 H 1559.99 -0.866473 -1.69092 0
M  V30 16914 H 1558.14 0.316127 -3.87212 0
M  V30 16915 H 1559.81 -2.29026 -4.00431 0
M  V30 16916 H 1558.05 -2.2137 -3.73065 0
M  V30 16917 H 1558.72 -1.65519 -5.266 0
M  V30 16918 H 1561.2 -0.077135 -4.16028 0
M  V30 16919 H 1560.08 0.342627 -5.4783 0
M  V30 16920 H 1560.34 1.48044 -4.16576 0
M  V30 16921 N 1559.4 1.51781 -0.424309 0
M  V30 16922 C 1560.81 1.86653 0.0418266 0
M  V30 16923 C 1561.16 1.34224 1.43103 0
M  V30 16924 O 1560.28 0.687684 2.05183 0
M  V30 16925 C 1560.88 3.38699 0.0826759 0
M  V30 16926 C 1559.44 3.73155 0.493186 0
M  V30 16927 C 1558.58 2.75417 -0.322586 0
M  V30 16928 H 1561.53 1.45191 -0.640726 0
M  V30 16929 H 1561.56 3.69828 0.894864 0
M  V30 16930 H 1561.07 3.76829 -0.928536 0
M  V30 16931 H 1559.17 3.4061 1.51048 0
M  V30 16932 H 1559.28 4.78562 0.227032 0
M  V30 16933 H 1557.65 2.53772 0.217262 0
M  V30 16934 H 1558.43 3.16388 -1.33243 0
M  V30 16935 N 1560.87 0.155222 1.56834 0
M  V30 16936 C 1562.12 -0.493826 1.96386 0
M  V30 16937 C 1562.45 -1.6433 1.04048 0
M  V30 16938 O 1561.7 -1.9557 0.0713123 0
M  V30 16939 C 1562 -1.03346 3.42132 0
M  V30 16940 C 1561.67 -0.00157215 4.509 0
M  V30 16941 C 1560.33 0.282068 4.80373 0
M  V30 16942 C 1562.68 0.699684 5.16482 0
M  V30 16943 C 1560.01 1.27263 5.72731 0
M  V30 16944 C 1562.36 1.67912 6.09908 0
M  V30 16945 C 1561.03 1.97037 6.37756 0
M  V30 16946 H 1560.3 -0.180704 0.718629 0
M  V30 16947 H 1562.94 0.243789 1.89942 0
M  V30 16948 H 1561.25 -1.84857 3.45449 0
M  V30 16949 H 1562.95 -1.54437 3.70068 0
M  V30 16950 H 1559.54 -0.232824 4.27967 0
M  V30 16951 H 1563.72 0.493751 4.93838 0
M  V30 16952 H 1558.98 1.50464 5.92597 0
M  V30 16953 H 1563.15 2.22796 6.59799 0
M  V30 16954 H 1560.78 2.73944 7.09125 0
M  V30 16955 N 1562.35 -1.57153 -0.118549 0
M  V30 16956 C 1563.58 -1.89062 -0.840429 0
M  V30 16957 C 1563.99 -0.746516 -1.73414 0
M  V30 16958 O 1563.35 0.282638 -1.80298 0
M  V30 16959 C 1563.4 -3.20433 -1.67347 0
M  V30 16960 O 1563.12 -4.30439 -0.815739 0
M  V30 16961 C 1564.62 -3.66048 -2.50047 0
M  V30 16962 H 1561.84 -0.626005 -0.241575 0
M  V30 16963 H 1564.39 -2.04241 -0.102804 0
M  V30 16964 H 1562.54 -3.06922 -2.36385 0
M  V30 16965 H 1562.96 -5.05736 -1.39037 0
M  V30 16966 H 1564.43 -4.60729 -3.04028 0
M  V30 16967 H 1564.91 -2.92727 -3.27426 0
M  V30 16968 H 1565.51 -3.82349 -1.86251 0
M  V30 16969 N 1563.83 0.388742 -1.5273 0
M  V30 16970 C 1565.11 1.14799 -1.58368 0
M  V30 16971 C 1565.49 2.07706 -0.377018 0
M  V30 16972 O 1564.83 2.1951 0.634634 0
M  V30 16973 C 1565.04 1.90745 -2.92262 0
M  V30 16974 C 1566.39 2.46098 -3.46007 0
M  V30 16975 O 1567.42 2.00901 -2.94138 0
M  V30 16976 O 1566.28 3.28658 -4.3663 0
M  V30 16977 H 1563.37 0.52529 -0.638748 0
M  V30 16978 H 1565.92 0.393874 -1.65066 0
M  V30 16979 H 1564.69 1.22806 -3.7153 0
M  V30 16980 H 1564.31 2.73118 -2.88951 0
M  V30 16981 N 1565.31 1.43698 0.647203 0
M  V30 16982 C 1566.54 1.49085 1.43462 0
M  V30 16983 C 1566.95 0.110605 1.88476 0
M  V30 16984 O 1566.31 -0.880365 1.59862 0
M  V30 16985 C 1566.36 2.44186 2.66562 0
M  V30 16986 O 1566.08 3.76844 2.23429 0
M  V30 16987 C 1567.58 2.58876 3.59858 0
M  V30 16988 H 1564.8 0.506148 0.440517 0
M  V30 16989 H 1567.34 1.88502 0.792931 0
M  V30 16990 H 1565.5 2.07949 3.26858 0
M  V30 16991 H 1565.91 4.2804 3.0312 0
M  V30 16992 H 1567.39 3.29482 4.42883 0
M  V30 16993 H 1567.86 1.63567 4.07606 0
M  V30 16994 H 1568.47 2.95949 3.05441 0
M  V30 16995 N 1566.79 -0.886131 1.30328 0
M  V30 16996 C 1568.01 -1.67099 1.22007 0
M  V30 16997 C 1568.43 -1.87546 -0.217255 0
M  V30 16998 O 1567.79 -1.42213 -1.14375 0
M  V30 16999 C 1567.84 -3.048 1.94368 0
M  V30 17000 O 1567.56 -2.85277 3.32489 0
M  V30 17001 C 1569.06 -3.99231 1.9269 0
M  V30 17002 H 1566.28 -0.521467 0.422271 0
M  V30 17003 H 1568.82 -1.1072 1.71934 0
M  V30 17004 H 1566.98 -3.57915 1.48242 0
M  V30 17005 H 1567.39 -3.72626 3.69121 0
M  V30 17006 H 1568.87 -4.93223 2.47861 0
M  V30 17007 H 1569.34 -4.29763 0.905558 0
M  V30 17008 H 1569.95 -3.52051 2.38621 0
M  V30 17009 N 1568.26 -1.13026 -1.09832 0
M  V30 17010 C 1569.21 -0.799174 -2.1844 0
M  V30 17011 C 1570.21 0.216695 -1.68008 0
M  V30 17012 O 1571.41 0.0742662 -1.79847 0
M  V30 17013 H 1567.79 -0.24064 -0.712458 0
M  V30 17014 H 1569.76 -1.72342 -2.436 0
M  V30 17015 C 1568.51 -0.276925 -3.46595 0
M  V30 17016 H 1567.83 -1.04993 -3.85768 0
M  V30 17017 H 1569.27 -0.0836468 -4.23917 0
M  V30 17018 C 1567.73 0.996479 -3.21826 0
M  V30 17019 O 1568.26 2.0731 -3.44072 0
M  V30 17020 N 1566.47 0.925903 -2.75455 0
M  V30 17021 H 1566.01 0.0496383 -2.57552 0
M  V30 17022 H 1565.97 1.77853 -2.5926 0
M  V30 17023 N 1569.74 1.27735 -0.923117 0
M  V30 17024 C 1570.67 2.26095 -0.375982 0
M  V30 17025 C 1571.69 1.55227 0.490763 0
M  V30 17026 O 1572.88 1.7589 0.304127 0
M  V30 17027 C 1569.98 3.35479 0.480342 0
M  V30 17028 C 1569.15 4.35866 -0.36605 0
M  V30 17029 C 1568.21 5.24466 0.42688 0
M  V30 17030 O 1567.23 5.68964 -0.163825 0
M  V30 17031 N 1568.44 5.54192 1.72777 0
M  V30 17032 H 1571.2 2.73679 -1.22147 0
M  V30 17033 H 1568.76 1.41314 -0.790056 0
M  V30 17034 H 1570.75 3.91693 1.01776 0
M  V30 17035 H 1569.32 2.87531 1.22657 0
M  V30 17036 H 1568.54 3.7898 -1.08479 0
M  V30 17037 H 1569.83 4.9995 -0.944849 0
M  V30 17038 H 1569.23 5.19888 2.23008 0
M  V30 17039 H 1567.79 6.13125 2.21181 0
M  V30 17040 N 1571.22 0.688118 1.41784 0
M  V30 17041 C 1572.17 0.018099 2.30793 0
M  V30 17042 C 1573.14 -0.779009 1.46699 0
M  V30 17043 O 1574.32 -0.748556 1.75503 0
M  V30 17044 C 1571.46 -0.91769 3.32675 0
M  V30 17045 C 1570.58 -0.11299 4.31852 0
M  V30 17046 C 1569.71 -1.04574 5.20805 0
M  V30 17047 C 1568.75 -0.233509 6.11654 0
M  V30 17048 N 1567.89 -1.11967 6.93115 0
M  V30 17049 H 1572.73 0.782911 2.87532 0
M  V30 17050 H 1570.26 0.397806 1.41619 0
M  V30 17051 H 1572.22 -1.47421 3.90286 0
M  V30 17052 H 1570.85 -1.64898 2.77504 0
M  V30 17053 H 1569.9 0.560344 3.7625 0
M  V30 17054 H 1571.22 0.517033 4.96113 0
M  V30 17055 H 1570.37 -1.67174 5.83213 0
M  V30 17056 H 1569.11 -1.70963 4.56753 0
M  V30 17057 H 1568.11 0.405614 5.48302 0
M  V30 17058 H 1569.34 0.426479 6.7776 0
M  V30 17059 H 1567.28 -1.76972 6.31678 0
M  V30 17060 H 1567.2 -0.545042 7.54033 0
M  V30 17061 H 1568.47 -1.73272 7.59998 0
M  V30 17062 N 1572.7 -1.51554 0.432352 0
M  V30 17063 C 1573.93 -2.06462 -0.1346 0
M  V30 17064 C 1574.34 -1.30027 -1.36889 0
M  V30 17065 O 1573.7 -0.358447 -1.78945 0
M  V30 17066 C 1573.75 -3.58538 -0.461822 0
M  V30 17067 O 1573.47 -4.32085 0.723471 0
M  V30 17068 C 1574.97 -4.29943 -1.07999 0
M  V30 17069 H 1572.19 -0.670923 -0.0101329 0
M  V30 17070 H 1574.74 -1.9519 0.609999 0
M  V30 17071 H 1572.89 -3.6974 -1.15632 0
M  V30 17072 H 1573.3 -5.22611 0.444757 0
M  V30 17073 H 1574.78 -5.37451 -1.25898 0
M  V30 17074 H 1575.26 -3.87912 -2.05963 0
M  V30 17075 H 1575.86 -4.23171 -0.425022 0
M  V30 17076 N 1574.18 -0.163538 -1.56749 0
M  V30 17077 C 1575.09 0.782461 -2.21167 0
M  V30 17078 C 1576.1 1.25911 -1.20093 0
M  V30 17079 O 1577.28 1.31286 -1.52728 0
M  V30 17080 C 1574.34 1.99761 -2.83366 0
M  V30 17081 C 1573.4 1.56859 -3.99617 0
M  V30 17082 C 1572.64 2.72582 -4.58841 0
M  V30 17083 O 1572.86 3.89243 -4.16949 0
M  V30 17084 O 1571.79 2.47104 -5.48838 0
M  V30 17085 H 1575.62 0.264023 -3.0255 0
M  V30 17086 H 1573.21 0.06429 -1.49262 0
M  V30 17087 H 1575.09 2.70843 -3.22835 0
M  V30 17088 H 1573.76 2.50526 -2.04984 0
M  V30 17089 H 1572.67 0.827511 -3.64833 0
M  V30 17090 H 1574 1.10794 -4.79568 0
M  V30 17091 N 1575.65 1.57214 0.110213 0
M  V30 17092 C 1576.58 2.04015 1.13579 0
M  V30 17093 C 1577.57 0.926215 1.42672 0
M  V30 17094 O 1578.75 1.19651 1.52962 0
M  V30 17095 C 1575.88 2.45187 2.45969 0
M  V30 17096 C 1574.83 3.60105 2.31319 0
M  V30 17097 C 1574.16 3.87205 3.68749 0
M  V30 17098 C 1575.46 4.91526 1.76635 0
M  V30 17099 H 1577.15 2.89944 0.746496 0
M  V30 17100 H 1574.7 1.39488 0.357642 0
M  V30 17101 H 1576.65 2.76534 3.17973 0
M  V30 17102 H 1575.38 1.56238 2.86805 0
M  V30 17103 H 1574.04 3.28981 1.61762 0
M  V30 17104 H 1573.68 2.95448 4.07087 0
M  V30 17105 H 1573.38 4.64563 3.59798 0
M  V30 17106 H 1574.91 4.21013 4.42245 0
M  V30 17107 H 1576.32 5.21351 2.38465 0
M  V30 17108 H 1574.72 5.72944 1.78482 0
M  V30 17109 H 1575.79 4.79456 0.724573 0
M  V30 17110 N 1577.13 -0.380637 1.52934 0
M  V30 17111 C 1578.06 -1.48518 1.74571 0
M  V30 17112 C 1579.08 -1.50272 0.626263 0
M  V30 17113 O 1580.27 -1.54023 0.902167 0
M  V30 17114 C 1577.37 -2.87339 1.79693 0
M  V30 17115 C 1576.54 -3.09454 3.09123 0
M  V30 17116 C 1575.6 -4.28305 3.05682 0
M  V30 17117 O 1574.62 -4.24205 3.79524 0
M  V30 17118 N 1575.83 -5.34932 2.2545 0
M  V30 17119 H 1578.59 -1.30341 2.69873 0
M  V30 17120 H 1576.15 -0.57023 1.51526 0
M  V30 17121 H 1578.14 -3.64961 1.74887 0
M  V30 17122 H 1576.71 -2.98835 0.917414 0
M  V30 17123 H 1575.93 -2.19623 3.27352 0
M  V30 17124 H 1577.22 -3.21089 3.94689 0
M  V30 17125 H 1576.62 -5.41121 1.64939 0
M  V30 17126 H 1575.18 -6.11189 2.26476 0
M  V30 17127 N 1578.61 -1.44039 -0.639573 0
M  V30 17128 C 1579.57 -1.49907 -1.7338 0
M  V30 17129 C 1580.57 -0.382101 -1.56194 0
M  V30 17130 O 1581.76 -0.644396 -1.61843 0
M  V30 17131 C 1578.9 -1.36486 -3.12385 0
M  V30 17132 H 1580.09 -2.4737 -1.69553 0
M  V30 17133 H 1577.64 -1.31006 -0.852474 0
M  V30 17134 H 1578.38 -0.400845 -3.21813 0
M  V30 17135 H 1578.16 -2.17471 -3.26265 0
M  V30 17136 H 1579.65 -1.43555 -3.9215 0
M  V30 17137 N 1580.09 0.879207 -1.30796 0
M  V30 17138 C 1581.34 1.62625 -1.19315 0
M  V30 17139 C 1581.65 1.93999 0.249731 0
M  V30 17140 O 1582.86 2.67112 0.486129 0
M  V30 17141 C 1581.31 2.93129 -2.08815 0
M  V30 17142 C 1580.92 2.69272 -3.58045 0
M  V30 17143 C 1582.66 3.71105 -2.0611 0
M  V30 17144 C 1580.57 3.95628 -4.39582 0
M  V30 17145 H 1579.5 0.61015 -0.442981 0
M  V30 17146 H 1582.15 0.972892 -1.55586 0
M  V30 17147 H 1580.53 3.59789 -1.65432 0
M  V30 17148 H 1581.71 2.11078 -4.09613 0
M  V30 17149 H 1580.02 2.04664 -3.62632 0
M  V30 17150 H 1582.62 4.64824 -2.64277 0
M  V30 17151 H 1582.96 4.02946 -1.04597 0
M  V30 17152 H 1583.5 3.11315 -2.47644 0
M  V30 17153 H 1580.24 3.68943 -5.41813 0
M  V30 17154 H 1579.76 4.53307 -3.92775 0
M  V30 17155 H 1581.43 4.63597 -4.51317 0
M  V30 17156 N 1581.57 1.13606 1.09231 0
M  V30 17157 C 1582.52 0.810747 2.18013 0
M  V30 17158 C 1583.51 -0.207782 1.68121 0
M  V30 17159 O 1584.72 -0.0647274 1.79884 0
M  V30 17160 H 1581.09 0.244415 0.711172 0
M  V30 17161 H 1583.06 1.73632 2.42682 0
M  V30 17162 C 1581.81 0.295302 3.46444 0
M  V30 17163 H 1581.13 1.07037 3.85205 0
M  V30 17164 H 1582.57 0.106127 4.23867 0
M  V30 17165 C 1581.03 -0.979398 3.2235 0
M  V30 17166 O 1581.56 -2.05483 3.45166 0
M  V30 17167 N 1579.77 -0.911282 2.75942 0
M  V30 17168 H 1579.32 -0.035979 2.57575 0
M  V30 17169 H 1579.27 -1.76476 2.60199 0
M  V30 17170 N 1583.05 -1.27244 0.929878 0
M  V30 17171 C 1583.98 -2.29161 0.448066 0
M  V30 17172 C 1584.96 -1.62806 -0.492776 0
M  V30 17173 O 1586.14 -1.90098 -0.39706 0
M  V30 17174 C 1583.27 -3.46019 -0.298002 0
M  V30 17175 C 1582.23 -4.24384 0.555211 0
M  V30 17176 C 1581.55 -5.33741 -0.320153 0
M  V30 17177 C 1582.85 -4.89535 1.8208 0
M  V30 17178 H 1584.55 -2.69712 1.29983 0
M  V30 17179 H 1582.09 -1.29659 0.626466 0
M  V30 17180 H 1584.04 -4.16419 -0.646024 0
M  V30 17181 H 1582.77 -3.0439 -1.18381 0
M  V30 17182 H 1581.43 -3.55733 0.885971 0
M  V30 17183 H 1581.08 -4.88354 -1.20498 0
M  V30 17184 H 1580.78 -5.8708 0.247241 0
M  V30 17185 H 1582.3 -6.06982 -0.663697 0
M  V30 17186 H 1583.71 -5.52209 1.54071 0
M  V30 17187 H 1582.11 -5.52941 2.33186 0
M  V30 17188 H 1583.18 -4.13113 2.53901 0
M  V30 17189 N 1584.52 -0.695628 -1.41417 0
M  V30 17190 C 1585.49 -0.0392949 -2.29166 0
M  V30 17191 C 1586.49 0.70789 -1.4438 0
M  V30 17192 O 1587.68 0.542771 -1.65528 0
M  V30 17193 C 1584.81 0.954719 -3.27258 0
M  V30 17194 H 1586 -0.811902 -2.88701 0
M  V30 17195 H 1583.55 -0.459128 -1.49405 0
M  V30 17196 H 1584.29 1.75509 -2.72703 0
M  V30 17197 H 1584.07 0.422079 -3.89822 0
M  V30 17198 H 1585.56 1.41174 -3.93014 0
M  V30 17199 N 1586 1.51322 -0.440383 0
M  V30 17200 C 1586.93 2.30708 0.360013 0
M  V30 17201 C 1587.91 1.36254 1.01828 0
M  V30 17202 O 1589.1 1.65174 1.02134 0
M  V30 17203 C 1586.23 3.15132 1.45977 0
M  V30 17204 C 1585.18 4.17889 0.924825 0
M  V30 17205 C 1584.51 4.90853 2.12056 0
M  V30 17206 C 1585.81 5.22282 -0.0428362 0
M  V30 17207 H 1587.5 2.97868 -0.30248 0
M  V30 17208 H 1585.05 1.43249 -0.146914 0
M  V30 17209 H 1587 3.69449 2.02695 0
M  V30 17210 H 1585.72 2.45798 2.1506 0
M  V30 17211 H 1584.38 3.64627 0.379842 0
M  V30 17212 H 1584.03 4.1802 2.79765 0
M  V30 17213 H 1583.73 5.60339 1.769 0
M  V30 17214 H 1585.26 5.47995 2.69322 0
M  V30 17215 H 1586.67 5.71654 0.434137 0
M  V30 17216 H 1585.07 5.99314 -0.307126 0
M  V30 17217 H 1586.14 4.74923 -0.978557 0
M  V30 17218 N 1587.48 0.171848 1.5666 0
M  V30 17219 C 1588.41 -0.789671 2.15167 0
M  V30 17220 C 1589.42 -1.19335 1.10739 0
M  V30 17221 O 1590.61 -1.13311 1.37924 0
M  V30 17222 C 1587.71 -2.07448 2.6799 0
M  V30 17223 C 1586.89 -1.83429 3.9708 0
M  V30 17224 C 1585.95 -2.96134 4.34961 0
M  V30 17225 O 1584.97 -2.66746 5.02827 0
M  V30 17226 N 1586.17 -4.23932 3.96563 0
M  V30 17227 H 1588.94 -0.289484 2.98299 0
M  V30 17228 H 1586.5 -0.0109154 1.61896 0
M  V30 17229 H 1588.49 -2.81941 2.90329 0
M  V30 17230 H 1587.06 -2.48656 1.89444 0
M  V30 17231 H 1586.28 -0.928376 3.83112 0
M  V30 17232 H 1587.57 -1.64749 4.81389 0
M  V30 17233 H 1586.97 -4.50668 3.41928 0
M  V30 17234 H 1585.52 -4.95126 4.23903 0
M  V30 17235 N 1588.96 -1.5727 -0.101874 0
M  V30 17236 C 1590.23 -1.76745 -0.837888 0
M  V30 17237 C 1590.61 -0.751766 -1.9726 0
M  V30 17238 O 1589.96 0.221046 -2.27428 0
M  V30 17239 C 1590.17 -3.22302 -1.33875 0
M  V30 17240 C 1591.52 -3.85292 -1.78425 0
M  V30 17241 O 1592.54 -3.2601 -1.43514 0
M  V30 17242 O 1591.4 -4.89526 -2.42953 0
M  V30 17243 H 1588.5 -0.724294 -0.399157 0
M  V30 17244 H 1591.04 -1.69491 -0.0842821 0
M  V30 17245 H 1589.82 -3.87756 -0.525434 0
M  V30 17246 H 1589.44 -3.34162 -2.15456 0
M  V30 17247 N 1590.44 0.372521 -1.53134 0
M  V30 17248 C 1591.66 1.14116 -1.73183 0
M  V30 17249 C 1592.09 1.82475 -0.456553 0
M  V30 17250 O 1591.44 1.71468 0.588919 0
M  V30 17251 C 1591.49 2.15241 -2.89316 0
M  V30 17252 O 1590.6 3.22178 -2.57439 0
M  V30 17253 H 1589.94 0.331442 -0.575362 0
M  V30 17254 H 1592.47 0.431769 -1.99992 0
M  V30 17255 H 1592.48 2.58961 -3.15283 0
M  V30 17256 H 1591.15 1.64877 -3.81822 0
M  V30 17257 H 1589.73 2.83481 -2.42267 0
M  V30 17258 N 1591.91 1.44376 0.631925 0
M  V30 17259 C 1593.16 1.46827 1.38875 0
M  V30 17260 C 1593.48 0.101789 1.94734 0
M  V30 17261 O 1592.75 -0.86579 1.7573 0
M  V30 17262 H 1591.33 0.540642 0.515475 0
M  V30 17263 H 1593.99 1.80148 0.743822 0
M  V30 17264 H 1593.09 2.19321 2.22047 0
M  V30 17265 N 1593.39 -0.872258 1.31261 0
M  V30 17266 C 1594.32 -1.99517 1.21306 0
M  V30 17267 C 1595.3 -1.69801 0.100775 0
M  V30 17268 O 1596.49 -1.92098 0.284984 0
M  V30 17269 C 1593.62 -3.34968 0.917249 0
M  V30 17270 C 1592.57 -3.78984 1.98885 0
M  V30 17271 C 1591.9 -5.11869 1.54578 0
M  V30 17272 C 1593.2 -3.96338 3.40167 0
M  V30 17273 H 1594.89 -2.08104 2.15251 0
M  V30 17274 H 1592.44 -0.999865 1.03628 0
M  V30 17275 H 1594.39 -4.1306 0.834217 0
M  V30 17276 H 1593.11 -3.26549 -0.0578721 0
M  V30 17277 H 1591.77 -3.0313 2.06174 0
M  V30 17278 H 1591.42 -4.99889 0.558581 0
M  V30 17279 H 1591.12 -5.4229 2.26265 0
M  V30 17280 H 1592.65 -5.92472 1.47678 0
M  V30 17281 H 1594.06 -4.64831 3.35566 0
M  V30 17282 H 1592.46 -4.38153 4.10051 0
M  V30 17283 H 1593.53 -2.9979 3.81122 0
M  V30 17284 N 1594.87 -1.14184 -1.08627 0
M  V30 17285 C 1595.78 -0.84033 -2.19033 0
M  V30 17286 C 1596.8 0.178322 -1.73084 0
M  V30 17287 O 1597.97 0.00737963 -2.01399 0
M  V30 17288 C 1595.04 -0.319674 -3.45223 0
M  V30 17289 C 1594.1 -1.4006 -4.0581 0
M  V30 17290 C 1593.33 -0.904693 -5.25976 0
M  V30 17291 O 1593.55 0.25468 -5.69831 0
M  V30 17292 O 1592.49 -1.68267 -5.77901 0
M  V30 17293 H 1596.31 -1.76296 -2.47292 0
M  V30 17294 H 1593.9 -0.919929 -1.17719 0
M  V30 17295 H 1595.78 -0.0351268 -4.21385 0
M  V30 17296 H 1594.46 0.575264 -3.18547 0
M  V30 17297 H 1593.36 -1.73858 -3.31247 0
M  V30 17298 H 1594.7 -2.26998 -4.3673 0
M  V30 17299 N 1596.35 1.26749 -0.936613 0
M  V30 17300 C 1597.59 1.94251 -0.582616 0
M  V30 17301 C 1597.93 1.73352 0.875361 0
M  V30 17302 O 1597.2 1.06784 1.62565 0
M  V30 17303 C 1597.49 3.48145 -0.920151 0
M  V30 17304 C 1597.34 3.78349 -2.43253 0
M  V30 17305 C 1598.66 4.37971 -0.432326 0
M  V30 17306 H 1595.78 0.705507 -0.213141 0
M  V30 17307 H 1598.42 1.49703 -1.17001 0
M  V30 17308 H 1596.57 3.8622 -0.420279 0
M  V30 17309 H 1598.24 3.50015 -3.00478 0
M  V30 17310 H 1596.48 3.24586 -2.87795 0
M  V30 17311 H 1597.15 4.85902 -2.61922 0
M  V30 17312 H 1599.63 4.07098 -0.860857 0
M  V30 17313 H 1598.51 5.44452 -0.697366 0
M  V30 17314 H 1598.77 4.37029 0.667694 0
M  V30 17315 N 1597.83 0.703118 1.41046 0
M  V30 17316 C 1598.77 0.0312802 2.32579 0
M  V30 17317 C 1599.77 -0.760463 1.51371 0
M  V30 17318 O 1600.97 -0.665235 1.67256 0
M  V30 17319 H 1597.35 -0.00868655 0.75195 0
M  V30 17320 H 1599.32 0.820195 2.86907 0
M  V30 17321 C 1598.07 -0.885639 3.36232 0
M  V30 17322 H 1597.39 -0.285819 3.98777 0
M  V30 17323 H 1598.83 -1.3239 4.02801 0
M  V30 17324 C 1597.29 -2.00533 2.70718 0
M  V30 17325 O 1597.82 -3.09491 2.56082 0
M  V30 17326 N 1596.03 -1.78528 2.29295 0
M  V30 17327 H 1595.57 -0.899139 2.41399 0
M  V30 17328 H 1595.53 -2.53627 1.85797 0
M  V30 17329 N 1599.3 -1.51086 0.448402 0
M  V30 17330 C 1600.55 -2.01367 -0.115904 0
M  V30 17331 C 1600.87 -1.33658 -1.42811 0
M  V30 17332 O 1602.07 -1.74968 -2.07602 0
M  V30 17333 C 1600.53 -3.58981 -0.257092 0
M  V30 17334 C 1600.14 -4.35634 1.04534 0
M  V30 17335 C 1601.88 -4.17373 -0.774573 0
M  V30 17336 C 1599.79 -5.84978 0.869184 0
M  V30 17337 H 1598.72 -0.752528 -0.0470907 0
M  V30 17338 H 1601.37 -1.74098 0.57985 0
M  V30 17339 H 1599.75 -3.82742 -1.01611 0
M  V30 17340 H 1600.92 -4.23612 1.81354 0
M  V30 17341 H 1599.24 -3.88745 1.49219 0
M  V30 17342 H 1601.84 -5.26673 -0.923032 0
M  V30 17343 H 1602.18 -3.77267 -1.75997 0
M  V30 17344 H 1602.71 -3.97732 -0.0735697 0
M  V30 17345 H 1599.45 -6.29516 1.82729 0
M  V30 17346 H 1598.97 -5.99634 0.140969 0
M  V30 17347 H 1600.65 -6.44852 0.526752 0
M  V30 17348 N 1600.78 -0.180154 -1.56567 0
M  V30 17349 C 1602.03 0.463205 -1.97439 0
M  V30 17350 C 1602.36 1.62296 -1.06647 0
M  V30 17351 O 1601.64 1.94157 -0.115382 0
M  V30 17352 C 1601.92 0.937709 -3.47677 0
M  V30 17353 C 1601.77 -0.222835 -4.49248 0
M  V30 17354 C 1603.09 1.80836 -4.01231 0
M  V30 17355 H 1600.21 0.166899 -0.717854 0
M  V30 17356 H 1602.85 -0.268069 -1.88099 0
M  V30 17357 H 1601 1.56084 -3.55767 0
M  V30 17358 H 1602.67 -0.860155 -4.5321 0
M  V30 17359 H 1600.92 -0.876962 -4.24843 0
M  V30 17360 H 1601.59 0.151444 -5.51792 0
M  V30 17361 H 1604.06 1.28297 -3.95827 0
M  V30 17362 H 1602.94 2.10937 -5.06751 0
M  V30 17363 H 1603.2 2.75728 -3.45581 0
M  V30 17364 N 1602.26 1.57322 0.0935319 0
M  V30 17365 C 1603.49 1.90375 0.810245 0
M  V30 17366 C 1603.9 0.774011 1.72205 0
M  V30 17367 O 1603.26 -0.253918 1.80725 0
M  V30 17368 C 1603.31 3.23054 1.62228 0
M  V30 17369 O 1603.03 4.31682 0.747157 0
M  V30 17370 C 1604.53 3.6998 2.44192 0
M  V30 17371 H 1601.75 0.629769 0.231586 0
M  V30 17372 H 1604.3 2.04379 0.0702984 0
M  V30 17373 H 1602.45 3.10643 2.31472 0
M  V30 17374 H 1602.87 5.07884 1.30974 0
M  V30 17375 H 1604.34 4.65507 2.96659 0
M  V30 17376 H 1604.82 2.97899 3.22727 0
M  V30 17377 H 1605.42 3.85264 1.80144 0
M  V30 17378 N 1603.74 -0.364395 1.53329 0
M  V30 17379 C 1605.02 -1.12265 1.60174 0
M  V30 17380 C 1605.4 -2.0708 0.410015 0
M  V30 17381 O 1604.74 -2.20492 -0.599631 0
M  V30 17382 C 1604.95 -1.86071 2.9526 0
M  V30 17383 C 1606.3 -2.40562 3.49879 0
M  V30 17384 O 1607.33 -1.96196 2.97297 0
M  V30 17385 O 1606.18 -3.2167 4.41804 0
M  V30 17386 H 1603.28 -0.515062 0.647024 0
M  V30 17387 H 1605.82 -0.367563 1.65672 0
M  V30 17388 H 1604.6 -1.1688 3.73436 0
M  V30 17389 H 1604.22 -2.68486 2.93259 0
M  V30 17390 N 1605.22 -1.44709 -0.62426 0
M  V30 17391 C 1606.44 -1.51573 -1.41564 0
M  V30 17392 C 1606.87 -0.143806 -1.87549 0
M  V30 17393 O 1606.22 0.868361 -1.59151 0
M  V30 17394 C 1606.27 -2.49085 -2.60747 0
M  V30 17395 O 1605.38 -1.99712 -3.60817 0
M  V30 17396 H 1604.72 -0.51157 -0.423311 0
M  V30 17397 H 1607.25 -1.89908 -0.761316 0
M  V30 17398 H 1607.26 -2.67346 -3.08205 0
M  V30 17399 H 1605.93 -3.48733 -2.26624 0
M  V30 17400 H 1604.51 -1.9125 -3.20122 0
M  V30 17401 N 1606.69 0.865285 -1.31722 0
M  V30 17402 C 1607.63 1.97919 -1.15588 0
M  V30 17403 C 1608.64 1.6253 -0.0936929 0
M  V30 17404 O 1609.83 1.752 -0.341639 0
M  V30 17405 C 1606.93 3.30614 -0.744814 0
M  V30 17406 C 1606.1 3.94314 -1.89301 0
M  V30 17407 C 1605.16 5.0533 -1.46724 0
M  V30 17408 O 1604.19 5.25898 -2.17762 0
M  V30 17409 N 1605.39 5.794 -0.357262 0
M  V30 17410 H 1608.15 2.12304 -2.11535 0
M  V30 17411 H 1605.71 1.03953 -1.24118 0
M  V30 17412 H 1607.71 4.02273 -0.442594 0
M  V30 17413 H 1606.28 3.12357 0.123186 0
M  V30 17414 H 1605.5 3.15577 -2.3623 0
M  V30 17415 H 1606.78 4.33609 -2.66196 0
M  V30 17416 H 1606.18 5.65215 0.23423 0
M  V30 17417 H 1604.74 6.51699 -0.114599 0
M  V30 17418 N 1608.17 1.14759 1.0802 0
M  V30 17419 C 1609.4 0.940521 1.8395 0
M  V30 17420 C 1609.81 -0.514424 1.82072 0
M  V30 17421 O 1609.15 -1.36835 1.22564 0
M  V30 17422 C 1609.22 1.3689 3.32417 0
M  V30 17423 C 1608.88 2.84019 3.58025 0
M  V30 17424 C 1609.88 3.82117 3.52538 0
M  V30 17425 C 1607.56 3.21526 3.85909 0
M  V30 17426 C 1609.56 5.15728 3.74571 0
M  V30 17427 C 1607.24 4.55312 4.07596 0
M  V30 17428 C 1608.24 5.52222 4.01921 0
M  V30 17429 O 1607.93 6.83592 4.23034 0
M  V30 17430 H 1607.66 0.334505 0.587437 0
M  V30 17431 H 1610.21 1.52763 1.37305 0
M  V30 17432 H 1608.44 0.725149 3.7984 0
M  V30 17433 H 1610.13 1.13202 3.89795 0
M  V30 17434 H 1610.9 3.54486 3.31005 0
M  V30 17435 H 1606.78 2.46686 3.89444 0
M  V30 17436 H 1610.32 5.91357 3.70057 0
M  V30 17437 H 1606.22 4.82661 4.28613 0
M  V30 17438 H 1606.99 6.89909 4.40418 0
M  V30 17439 N 1609.65 -1.26251 0.943322 0
M  V30 17440 C 1610.61 -2.24554 0.459158 0
M  V30 17441 C 1611.61 -1.54918 -0.430926 0
M  V30 17442 O 1612.8 -1.72678 -0.229803 0
M  V30 17443 C 1609.94 -3.39221 -0.337973 0
M  V30 17444 H 1611.13 -2.689 1.32789 0
M  V30 17445 H 1608.68 -1.38442 0.725495 0
M  V30 17446 H 1609.42 -3.00279 -1.22486 0
M  V30 17447 H 1609.2 -3.90947 0.300428 0
M  V30 17448 H 1610.69 -4.12246 -0.666568 0
M  V30 17449 N 1611.13 -0.710588 -1.40671 0
M  V30 17450 C 1612.06 -0.0694601 -2.33397 0
M  V30 17451 C 1613.04 0.750959 -1.52626 0
M  V30 17452 O 1614.23 0.700896 -1.81111 0
M  V30 17453 C 1611.36 0.856704 -3.36568 0
M  V30 17454 C 1610.31 0.142276 -4.27763 0
M  V30 17455 C 1609.64 1.18382 -5.21431 0
M  V30 17456 C 1610.94 -1.00052 -5.12627 0
M  V30 17457 H 1612.63 -0.843945 -2.87259 0
M  V30 17458 H 1610.18 -0.407287 -1.3812 0
M  V30 17459 H 1612.13 1.31457 -4.00371 0
M  V30 17460 H 1610.85 1.66303 -2.81089 0
M  V30 17461 H 1609.51 -0.295714 -3.65405 0
M  V30 17462 H 1609.16 1.98306 -4.62259 0
M  V30 17463 H 1608.86 0.71071 -5.83286 0
M  V30 17464 H 1610.38 1.64189 -5.88111 0
M  V30 17465 H 1611.8 -0.622246 -5.69913 0
M  V30 17466 H 1610.19 -1.40168 -5.83501 0
M  V30 17467 H 1611.26 -1.83345 -4.48902 0
M  V30 17468 N 1612.61 1.50847 -0.456408 0
M  V30 17469 C 1613.86 2.01835 0.103414 0
M  V30 17470 C 1614.18 1.34142 1.4153 0
M  V30 17471 O 1613.45 0.482015 1.89877 0
M  V30 17472 H 1612.03 0.745863 0.0412074 0
M  V30 17473 H 1614.69 1.85322 -0.603477 0
M  V30 17474 H 1613.78 3.10968 0.265562 0
M  V30 17475 N 1614.09 0.188454 1.56469 0
M  V30 17476 C 1615.33 -0.452238 1.96565 0
M  V30 17477 C 1615.65 -1.63219 1.07792 0
M  V30 17478 O 1616.85 -2.34024 1.37641 0
M  V30 17479 C 1615.31 -0.855966 3.49573 0
M  V30 17480 C 1614.92 0.299329 4.46999 0
M  V30 17481 C 1616.66 -1.46411 3.98452 0
M  V30 17482 C 1614.57 -0.124987 5.91268 0
M  V30 17483 H 1613.5 -0.172729 0.733949 0
M  V30 17484 H 1616.15 0.279415 1.8136 0
M  V30 17485 H 1614.53 -1.64409 3.60258 0
M  V30 17486 H 1615.71 1.07681 4.48042 0
M  V30 17487 H 1614.02 0.818542 4.08275 0
M  V30 17488 H 1616.62 -1.79392 5.03709 0
M  V30 17489 H 1616.96 -2.36822 3.42376 0
M  V30 17490 H 1617.49 -0.740088 3.90855 0
M  V30 17491 H 1614.23 0.744769 6.51255 0
M  V30 17492 H 1613.75 -0.86747 5.93494 0
M  V30 17493 H 1615.43 -0.563054 6.44545 0
M  V30 17494 N 1615.56 -1.5737 -0.0851874 0
M  V30 17495 C 1616.81 -1.85772 -0.785604 0
M  V30 17496 C 1617.13 -0.779172 -1.79411 0
M  V30 17497 O 1618.33 -0.950621 -2.54314 0
M  V30 17498 C 1616.79 -3.29484 -1.44805 0
M  V30 17499 C 1616.4 -4.45434 -0.478799 0
M  V30 17500 C 1618.14 -3.671 -2.13161 0
M  V30 17501 C 1616.05 -5.80183 -1.1464 0
M  V30 17502 H 1614.98 -0.69298 -0.297145 0
M  V30 17503 H 1617.63 -1.83459 -0.0386776 0
M  V30 17504 H 1616.01 -3.26367 -2.24278 0
M  V30 17505 H 1617.18 -4.59917 0.285148 0
M  V30 17506 H 1615.5 -4.16281 0.0995964 0
M  V30 17507 H 1618.1 -4.65061 -2.6386 0
M  V30 17508 H 1618.44 -2.96223 -2.92503 0
M  V30 17509 H 1618.97 -3.72148 -1.40536 0
M  V30 17510 H 1615.71 -6.54317 -0.393583 0
M  V30 17511 H 1615.23 -5.69525 -1.88153 0
M  V30 17512 H 1616.91 -6.25074 -1.67006 0
M  V30 17513 N 1617.04 0.356258 -1.53521 0
M  V30 17514 C 1617.97 1.45722 -1.76912 0
M  V30 17515 C 1618.99 1.49257 -0.650091 0
M  V30 17516 O 1620.18 1.52569 -0.926557 0
M  V30 17517 C 1617.28 2.84444 -1.84241 0
M  V30 17518 C 1616.45 3.04497 -3.14007 0
M  V30 17519 C 1615.51 4.23387 -3.12458 0
M  V30 17520 O 1614.53 4.18113 -3.86225 0
M  V30 17521 N 1615.74 5.31278 -2.33931 0
M  V30 17522 H 1618.5 1.26031 -2.71912 0
M  V30 17523 H 1616.06 0.546052 -1.52414 0
M  V30 17524 H 1618.05 3.62133 -1.80671 0
M  V30 17525 H 1616.62 2.97338 -0.96484 0
M  V30 17526 H 1615.84 2.14387 -3.30805 0
M  V30 17527 H 1617.13 3.14769 -3.99747 0
M  V30 17528 H 1616.53 5.38428 -1.73527 0
M  V30 17529 H 1615.09 6.07508 -2.36171 0
M  V30 17530 N 1618.52 1.45038 0.616577 0
M  V30 17531 C 1619.48 1.52647 1.70973 0
M  V30 17532 C 1620.48 0.406902 1.55567 0
M  V30 17533 O 1621.67 0.670062 1.60797 0
M  V30 17534 C 1618.8 1.41438 3.10174 0
M  V30 17535 H 1620 2.50036 1.65596 0
M  V30 17536 H 1617.55 1.32346 0.831524 0
M  V30 17537 H 1618.29 0.451991 3.21135 0
M  V30 17538 H 1618.07 2.22634 3.22764 0
M  V30 17539 H 1619.56 1.49776 3.89817 0
M  V30 17540 N 1620 -0.858287 1.32179 0
M  V30 17541 C 1620.93 -1.97304 1.16636 0
M  V30 17542 C 1621.94 -1.62478 0.102311 0
M  V30 17543 O 1623.13 -1.75016 0.350926 0
M  V30 17544 C 1620.23 -3.30215 0.762337 0
M  V30 17545 C 1619.4 -3.93305 1.9139 0
M  V30 17546 C 1618.46 -5.04545 1.49402 0
M  V30 17547 O 1617.49 -5.24735 2.20548 0
M  V30 17548 N 1618.69 -5.79202 0.387984 0
M  V30 17549 H 1621.46 -2.11179 2.12658 0
M  V30 17550 H 1619.02 -1.03294 1.24668 0
M  V30 17551 H 1621.01 -4.02032 0.463922 0
M  V30 17552 H 1619.58 -3.12418 -0.10662 0
M  V30 17553 H 1618.8 -3.1432 2.37901 0
M  V30 17554 H 1620.09 -4.32192 2.68492 0
M  V30 17555 H 1619.49 -5.65331 -0.204252 0
M  V30 17556 H 1618.04 -6.51629 0.149158 0
M  V30 17557 N 1621.48 -1.1533 -1.07409 0
M  V30 17558 C 1622.89 -0.937287 -1.61468 0
M  V30 17559 C 1623.24 0.521545 -1.89141 0
M  V30 17560 O 1622.36 1.39253 -1.65643 0
M  V30 17561 C 1622.96 -1.69501 -2.93351 0
M  V30 17562 C 1621.52 -1.52429 -3.44154 0
M  V30 17563 C 1620.66 -1.71098 -2.18222 0
M  V30 17564 H 1623.61 -1.30364 -0.905044 0
M  V30 17565 H 1623.64 -1.16416 -3.62253 0
M  V30 17566 H 1623.15 -2.75672 -2.73178 0
M  V30 17567 H 1621.25 -0.486498 -3.6941 0
M  V30 17568 H 1621.36 -2.30089 -4.20233 0
M  V30 17569 H 1619.73 -1.13745 -2.27891 0
M  V30 17570 H 1620.51 -2.78634 -2.00545 0
M  V30 17571 N 1622.95 1.25748 -0.950004 0
M  V30 17572 C 1624.23 1.88566 -0.519839 0
M  V30 17573 C 1624.61 1.85761 1.00279 0
M  V30 17574 O 1623.96 1.31797 1.8666 0
M  V30 17575 C 1624.17 3.31502 -1.09121 0
M  V30 17576 C 1625.52 4.08298 -1.16524 0
M  V30 17577 O 1626.54 3.40605 -1.04243 0
M  V30 17578 O 1625.4 5.29375 -1.35735 0
M  V30 17579 H 1622.49 0.809175 -0.170777 0
M  V30 17580 H 1625.04 1.33853 -1.04314 0
M  V30 17581 H 1623.81 3.2795 -2.13458 0
M  V30 17582 H 1623.43 3.93765 -0.550881 0
M  V30 17583 N 1624.43 0.718038 1.40292 0
M  V30 17584 C 1625.38 0.0670495 2.30703 0
M  V30 17585 C 1626.35 -0.747716 1.48319 0
M  V30 17586 O 1627.53 -0.711161 1.77051 0
M  V30 17587 C 1624.67 -0.846918 3.34546 0
M  V30 17588 C 1623.79 -0.0213622 4.31995 0
M  V30 17589 C 1622.92 -0.935035 5.22906 0
M  V30 17590 C 1621.96 -0.103715 6.12012 0
M  V30 17591 N 1621.1 -0.972397 6.95334 0
M  V30 17592 H 1625.94 0.843724 2.85806 0
M  V30 17593 H 1623.47 0.427756 1.40743 0
M  V30 17594 H 1625.43 -1.39109 3.93325 0
M  V30 17595 H 1624.06 -1.58975 2.80939 0
M  V30 17596 H 1623.11 0.640026 3.74977 0
M  V30 17597 H 1624.43 0.62215 4.94905 0
M  V30 17598 H 1623.58 -1.54766 5.86628 0
M  V30 17599 H 1622.32 -1.61236 4.60276 0
M  V30 17600 H 1621.32 0.521826 5.47318 0
M  V30 17601 H 1622.55 0.570146 6.76702 0
M  V30 17602 H 1620.5 -1.63533 6.3529 0
M  V30 17603 H 1620.41 -0.384977 7.55019 0
M  V30 17604 H 1621.68 -1.57112 7.63503 0
M  V30 17605 N 1625.91 -1.50602 0.464402 0
M  V30 17606 C 1627.14 -2.07191 -0.0930678 0
M  V30 17607 C 1627.56 -1.32675 -1.33338 0
M  V30 17608 O 1626.92 -0.372453 -1.77433 0
M  V30 17609 C 1626.97 -3.5873 -0.366775 0
M  V30 17610 O 1626.07 -3.86125 -1.44849 0
M  V30 17611 H 1625.41 -0.663924 0.0100336 0
M  V30 17612 H 1627.94 -1.93882 0.653522 0
M  V30 17613 H 1627.95 -4.03425 -0.609258 0
M  V30 17614 H 1626.63 -4.12385 0.539608 0
M  V30 17615 H 1625.2 -3.53273 -1.19384 0
M  V30 17616 N 1627.39 -0.19675 -1.56367 0
M  V30 17617 C 1628.3 0.735372 -2.22777 0
M  V30 17618 C 1629.31 1.23336 -1.22737 0
M  V30 17619 O 1630.49 1.28017 -1.55479 0
M  V30 17620 C 1627.56 1.93706 -2.8754 0
M  V30 17621 C 1626.62 1.48348 -4.02854 0
M  V30 17622 C 1625.85 2.62788 -4.64519 0
M  V30 17623 O 1626.07 3.80311 -4.25111 0
M  V30 17624 O 1625.01 2.35406 -5.53956 0
M  V30 17625 H 1628.83 0.199788 -3.03042 0
M  V30 17626 H 1626.42 0.0326149 -1.49364 0
M  V30 17627 H 1628.3 2.63934 -3.28507 0
M  V30 17628 H 1626.97 2.46121 -2.10252 0
M  V30 17629 H 1625.88 0.749939 -3.66506 0
M  V30 17630 H 1627.21 1.00597 -4.8181 0
M  V30 17631 N 1628.87 1.57413 0.0768405 0
M  V30 17632 C 1630.09 1.91607 0.793833 0
M  V30 17633 C 1630.52 0.792708 1.70581 0
M  V30 17634 O 1629.87 -0.25475 1.79501 0
M  V30 17635 C 1629.92 3.24736 1.56776 0
M  V30 17636 O 1629.03 3.13613 2.67807 0
M  V30 17637 H 1628.37 0.627572 0.216908 0
M  V30 17638 H 1630.9 2.04547 0.0465957 0
M  V30 17639 H 1630.91 3.58488 1.94809 0
M  V30 17640 H 1629.58 4.06077 0.898588 0
M  V30 17641 H 1628.16 2.91411 2.32668 0
M  V30 17642 N 1630.34 -0.348112 1.53707 0
M  V30 17643 C 1631.25 -1.45079 1.84361 0
M  V30 17644 C 1632.27 -1.5779 0.733375 0
M  V30 17645 O 1633.45 -1.73353 1.02522 0
M  V30 17646 C 1630.51 -2.80127 2.04278 0
M  V30 17647 C 1629.57 -2.76799 3.28148 0
M  V30 17648 C 1628.81 -4.05406 3.47105 0
M  V30 17649 O 1629.03 -5.02454 2.69992 0
M  V30 17650 O 1627.96 -4.10155 4.40519 0
M  V30 17651 H 1631.79 -1.22093 2.78077 0
M  V30 17652 H 1629.37 -0.539863 1.39305 0
M  V30 17653 H 1631.26 -3.60115 2.18849 0
M  V30 17654 H 1629.93 -3.03055 1.13751 0
M  V30 17655 H 1628.84 -1.95448 3.18984 0
M  V30 17656 H 1630.17 -2.58826 4.18653 0
M  V30 17657 N 1631.82 -1.45363 -0.608876 0
M  V30 17658 C 1632.75 -1.56778 -1.7304 0
M  V30 17659 C 1633.73 -0.419405 -1.64848 0
M  V30 17660 O 1634.92 -0.64238 -1.83268 0
M  V30 17661 C 1632.05 -1.5329 -3.1164 0
M  V30 17662 C 1631 -2.66832 -3.34641 0
M  V30 17663 C 1630.33 -2.48398 -4.735 0
M  V30 17664 C 1631.63 -4.0885 -3.25021 0
M  V30 17665 H 1633.32 -2.50656 -1.63743 0
M  V30 17666 H 1630.87 -1.20635 -0.786338 0
M  V30 17667 H 1632.82 -1.59873 -3.89895 0
M  V30 17668 H 1631.55 -0.559414 -3.21773 0
M  V30 17669 H 1630.2 -2.59675 -2.58775 0
M  V30 17670 H 1629.85 -1.49191 -4.80366 0
M  V30 17671 H 1629.55 -3.24537 -4.89846 0
M  V30 17672 H 1631.08 -2.56833 -5.53958 0
M  V30 17673 H 1632.49 -4.17257 -3.93153 0
M  V30 17674 H 1630.89 -4.85369 -3.52897 0
M  V30 17675 H 1631.96 -4.30849 -2.2248 0
M  V30 17676 N 1633.3 0.851265 -1.32632 0
M  V30 17677 C 1634.55 1.60807 -1.23568 0
M  V30 17678 C 1634.88 1.93155 0.201238 0
M  V30 17679 O 1634.15 1.5764 1.13929 0
M  V30 17680 C 1634.44 2.92619 -2.09872 0
M  V30 17681 C 1634.29 2.67031 -3.61959 0
M  V30 17682 C 1635.61 3.93924 -1.96244 0
M  V30 17683 H 1632.73 0.583492 -0.450229 0
M  V30 17684 H 1635.37 0.98273 -1.62611 0
M  V30 17685 H 1633.52 3.45988 -1.76704 0
M  V30 17686 H 1635.19 2.2019 -4.05357 0
M  V30 17687 H 1633.44 2.00938 -3.84456 0
M  V30 17688 H 1634.11 3.60902 -4.17676 0
M  V30 17689 H 1636.58 3.49823 -2.25307 0
M  V30 17690 H 1635.46 4.84005 -2.58902 0
M  V30 17691 H 1635.72 4.32185 -0.931065 0
M  V30 17692 N 1634.78 1.15898 1.06796 0
M  V30 17693 C 1636 0.961859 1.83747 0
M  V30 17694 C 1636.43 -0.48494 1.81741 0
M  V30 17695 O 1635.79 -1.3461 1.21449 0
M  V30 17696 C 1635.83 1.48764 3.28484 0
M  V30 17697 O 1634.94 0.690576 4.06577 0
M  V30 17698 H 1634.28 0.342664 0.568751 0
M  V30 17699 H 1636.81 1.54015 1.34687 0
M  V30 17700 H 1636.82 1.50291 3.79311 0
M  V30 17701 H 1635.49 2.54089 3.29259 0
M  V30 17702 H 1634.07 0.74539 3.65374 0
M  V30 17703 N 1636.26 -1.25243 0.956659 0
M  V30 17704 C 1637.19 -2.25019 0.435795 0
M  V30 17705 C 1638.2 -1.56473 -0.449435 0
M  V30 17706 O 1639.39 -1.76635 -0.257386 0
M  V30 17707 C 1636.49 -3.36634 -0.391226 0
M  V30 17708 C 1635.66 -4.34742 0.481483 0
M  V30 17709 C 1634.72 -5.25413 -0.287678 0
M  V30 17710 O 1633.75 -5.6833 0.314618 0
M  V30 17711 N 1634.95 -5.58578 -1.58023 0
M  V30 17712 H 1637.72 -2.70344 1.2936 0
M  V30 17713 H 1635.28 -1.3917 0.827245 0
M  V30 17714 H 1637.27 -3.94254 -0.913552 0
M  V30 17715 H 1635.84 -2.90682 -1.14991 0
M  V30 17716 H 1635.06 -3.75971 1.18489 0
M  V30 17717 H 1636.35 -4.97269 1.07707 0
M  V30 17718 H 1635.74 -5.25618 -2.09146 0
M  V30 17719 H 1634.3 -6.18774 -2.04848 0
M  V30 17720 N 1637.73 -0.725468 -1.3991 0
M  V30 17721 C 1638.98 -0.266188 -1.99936 0
M  V30 17722 C 1639.3 1.15022 -1.58207 0
M  V30 17723 O 1640.5 1.70853 -2.11001 0
M  V30 17724 C 1638.96 -0.424978 -3.57382 0
M  V30 17725 C 1638.57 -1.84866 -4.08079 0
M  V30 17726 C 1640.31 -0.0269907 -4.24491 0
M  V30 17727 C 1638.22 -1.95751 -5.58064 0
M  V30 17728 H 1637.15 -0.0957688 -0.747893 0
M  V30 17729 H 1639.8 -0.89798 -1.60027 0
M  V30 17730 H 1638.18 0.275558 -3.9504 0
M  V30 17731 H 1639.35 -2.58037 -3.81776 0
M  V30 17732 H 1637.67 -2.199 -3.536 0
M  V30 17733 H 1640.27 -0.0874638 -5.34628 0
M  V30 17734 H 1640.61 1.01639 -4.03702 0
M  V30 17735 H 1641.14 -0.678332 -3.91974 0
M  V30 17736 H 1637.88 -2.98244 -5.83721 0
M  V30 17737 H 1637.4 -1.27004 -5.862 0
M  V30 17738 H 1639.08 -1.73422 -6.23325 0
M  V30 17739 N 1639.21 1.50354 -0.472382 0
M  V30 17740 C 1640.46 2.01526 0.0838536 0
M  V30 17741 C 1640.77 1.35913 1.40667 0
M  V30 17742 O 1641.98 1.78248 2.04792 0
M  V30 17743 C 1640.44 3.59344 0.199949 0
M  V30 17744 C 1640.04 4.33916 -1.11451 0
M  V30 17745 C 1641.79 4.18553 0.708075 0
M  V30 17746 C 1639.7 5.83521 -0.962138 0
M  V30 17747 H 1638.63 0.753182 0.0351127 0
M  V30 17748 H 1641.28 1.73153 -0.607474 0
M  V30 17749 H 1639.66 3.8431 0.955088 0
M  V30 17750 H 1640.83 4.20673 -1.8807 0
M  V30 17751 H 1639.15 3.86322 -1.55385 0
M  V30 17752 H 1641.74 5.28075 0.839126 0
M  V30 17753 H 1642.09 3.80019 1.69973 0
M  V30 17754 H 1642.62 3.97799 0.0102847 0
M  V30 17755 H 1639.36 6.26529 -1.9272 0
M  V30 17756 H 1638.88 5.99334 -0.236348 0
M  V30 17757 H 1640.56 6.43933 -0.629276 0
M  V30 17758 N 1640.69 0.205039 1.56261 0
M  V30 17759 C 1641.6 -0.723548 2.23164 0
M  V30 17760 C 1642.62 -1.22683 1.23389 0
M  V30 17761 O 1643.79 -1.27191 1.56155 0
M  V30 17762 C 1640.86 -1.92178 2.88563 0
M  V30 17763 C 1639.92 -1.46209 4.03635 0
M  V30 17764 C 1639.15 -2.60321 4.65906 0
M  V30 17765 O 1639.38 -3.78051 4.27122 0
M  V30 17766 O 1638.31 -2.32465 5.55197 0
M  V30 17767 H 1642.14 -0.183715 3.03144 0
M  V30 17768 H 1639.72 -0.0246933 1.4938 0
M  V30 17769 H 1641.6 -2.62188 3.29902 0
M  V30 17770 H 1640.28 -2.45003 2.11555 0
M  V30 17771 H 1639.18 -0.730492 3.66899 0
M  V30 17772 H 1640.52 -0.980402 4.82337 0
M  V30 17773 N 1642.17 -1.57451 -0.0684915 0
M  V30 17774 C 1643.1 -2.00648 -1.10783 0
M  V30 17775 C 1644.11 -0.912944 -1.34793 0
M  V30 17776 O 1645.3 -1.19079 -1.32975 0
M  V30 17777 C 1642.4 -2.33309 -2.45805 0
M  V30 17778 C 1641.58 -3.64551 -2.41704 0
M  V30 17779 C 1640.64 -3.84845 -3.5886 0
M  V30 17780 O 1639.66 -4.56392 -3.40139 0
M  V30 17781 N 1640.86 -3.27451 -4.79329 0
M  V30 17782 H 1643.63 -2.90422 -0.739938 0
M  V30 17783 H 1641.19 -1.59846 -0.257093 0
M  V30 17784 H 1643.18 -2.44056 -3.22829 0
M  V30 17785 H 1641.75 -1.49408 -2.74583 0
M  V30 17786 H 1640.97 -3.64528 -1.50043 0
M  V30 17787 H 1642.26 -4.50721 -2.36068 0
M  V30 17788 H 1641.66 -2.69384 -4.97442 0
M  V30 17789 H 1640.21 -3.43641 -5.53854 0
M  V30 17790 N 1643.65 0.339955 -1.5389 0
M  V30 17791 C 1644.58 1.42316 -1.85117 0
M  V30 17792 C 1645.56 1.5473 -0.706591 0
M  V30 17793 O 1646.74 1.68879 -0.958834 0
M  V30 17794 C 1643.87 2.79317 -2.06396 0
M  V30 17795 C 1642.83 2.81707 -3.22219 0
M  V30 17796 C 1642.15 4.21627 -3.28838 0
M  V30 17797 C 1643.45 2.46921 -4.60247 0
M  V30 17798 H 1645.15 1.16431 -2.75834 0
M  V30 17799 H 1642.69 0.558661 -1.32721 0
M  V30 17800 H 1644.65 3.55145 -2.26826 0
M  V30 17801 H 1643.37 3.06644 -1.12414 0
M  V30 17802 H 1642.03 2.08332 -3.01651 0
M  V30 17803 H 1641.68 4.4607 -2.32444 0
M  V30 17804 H 1641.38 4.24137 -4.06672 0
M  V30 17805 H 1642.9 4.99292 -3.51482 0
M  V30 17806 H 1644.32 3.12462 -4.80667 0
M  V30 17807 H 1642.71 2.60707 -5.40511 0
M  V30 17808 H 1643.78 1.421 -4.63611 0
M  V30 17809 N 1645.13 1.45684 0.601159 0
M  V30 17810 C 1646.37 1.49308 1.3561 0
M  V30 17811 C 1646.69 0.141561 1.95087 0
M  V30 17812 O 1647.89 0.0554805 2.71443 0
M  V30 17813 C 1646.35 2.63001 2.4568 0
M  V30 17814 C 1645.96 4.04493 1.92586 0
M  V30 17815 C 1647.7 2.75877 3.22633 0
M  V30 17816 C 1645.61 5.09557 3.00176 0
M  V30 17817 H 1644.54 0.555604 0.509726 0
M  V30 17818 H 1647.19 1.71843 0.643606 0
M  V30 17819 H 1645.57 2.33761 3.19643 0
M  V30 17820 H 1646.75 4.4344 1.25289 0
M  V30 17821 H 1645.06 3.96123 1.28358 0
M  V30 17822 H 1647.66 3.51541 4.02893 0
M  V30 17823 H 1648 1.82737 3.74049 0
M  V30 17824 H 1648.53 3.04674 2.5577 0
M  V30 17825 H 1645.27 6.04427 2.53669 0
M  V30 17826 H 1644.79 4.75173 3.6602 0
M  V30 17827 H 1646.47 5.34591 3.64447 0
M  V30 17828 N 1646.6 -0.84422 1.33082 0
M  V30 17829 C 1647.55 -1.95363 1.2289 0
M  V30 17830 C 1648.52 -1.65744 0.108705 0
M  V30 17831 O 1649.71 -1.88643 0.286057 0
M  V30 17832 C 1646.85 -3.31228 0.968594 0
M  V30 17833 C 1645.96 -3.73279 2.17455 0
M  V30 17834 C 1645.09 -4.97987 1.84885 0
M  V30 17835 C 1644.13 -5.32558 3.01743 0
M  V30 17836 N 1643.27 -6.48442 2.69197 0
M  V30 17837 H 1648.11 -2.03412 2.17778 0
M  V30 17838 H 1645.65 -0.995461 1.083 0
M  V30 17839 H 1647.6 -4.09494 0.798129 0
M  V30 17840 H 1646.23 -3.22751 0.0564631 0
M  V30 17841 H 1645.29 -2.9058 2.45494 0
M  V30 17842 H 1646.6 -3.94814 3.04834 0
M  V30 17843 H 1645.75 -5.83987 1.64451 0
M  V30 17844 H 1644.49 -4.7841 0.947356 0
M  V30 17845 H 1643.5 -4.45064 3.22797 0
M  V30 17846 H 1644.72 -5.54085 3.9264 0
M  V30 17847 H 1642.67 -6.30363 1.816 0
M  V30 17848 H 1642.58 -6.70046 3.50106 0
M  V30 17849 H 1643.85 -7.37568 2.52217 0
M  V30 17850 N 1648.08 -1.16463 -1.0618 0
M  V30 17851 C 1649.03 -0.87224 -2.13683 0
M  V30 17852 C 1650 0.179784 -1.65124 0
M  V30 17853 O 1651.18 0.0447406 -1.90748 0
M  V30 17854 C 1648.32 -0.380728 -3.42993 0
M  V30 17855 C 1647.44 -1.49571 -4.05281 0
M  V30 17856 C 1646.57 -0.959099 -5.2247 0
M  V30 17857 C 1645.61 -2.05021 -5.76743 0
M  V30 17858 N 1644.75 -1.5291 -6.85247 0
M  V30 17859 H 1649.59 -1.79288 -2.38033 0
M  V30 17860 H 1647.12 -0.894379 -1.16787 0
M  V30 17861 H 1649.08 -0.0773816 -4.17128 0
M  V30 17862 H 1647.71 0.502966 -3.18857 0
M  V30 17863 H 1646.76 -1.915 -3.28682 0
M  V30 17864 H 1648.08 -2.31904 -4.41613 0
M  V30 17865 H 1647.23 -0.609003 -6.03636 0
M  V30 17866 H 1645.97 -0.105086 -4.87587 0
M  V30 17867 H 1644.97 -2.40899 -4.94214 0
M  V30 17868 H 1646.2 -2.90821 -6.13678 0
M  V30 17869 H 1644.15 -0.697639 -6.5228 0
M  V30 17870 H 1644.06 -2.28859 -7.20527 0
M  V30 17871 H 1645.33 -1.20762 -7.70089 0
M  V30 17872 N 1649.56 1.24734 -0.963288 0
M  V30 17873 C 1650.47 2.29268 -0.497316 0
M  V30 17874 C 1651.49 1.68356 0.439572 0
M  V30 17875 O 1652.66 1.98942 0.313697 0
M  V30 17876 C 1649.73 3.46068 0.209261 0
M  V30 17877 C 1648.79 4.22394 -0.766907 0
M  V30 17878 C 1648.02 5.33617 -0.0939542 0
M  V30 17879 O 1648.24 5.59323 1.11864 0
M  V30 17880 O 1647.18 5.96774 -0.78388 0
M  V30 17881 H 1651 2.71235 -1.36622 0
M  V30 17882 H 1648.59 1.30344 -0.730126 0
M  V30 17883 H 1650.47 4.17015 0.606367 0
M  V30 17884 H 1649.15 3.06087 1.0532 0
M  V30 17885 H 1648.05 3.53841 -1.21439 0
M  V30 17886 H 1649.39 4.66181 -1.57912 0
M  V30 17887 N 1651.04 0.732878 1.39523 0
M  V30 17888 C 1651.98 0.0915149 2.30618 0
M  V30 17889 C 1652.95 -0.731943 1.49103 0
M  V30 17890 O 1654.14 -0.692343 1.77796 0
M  V30 17891 C 1651.28 -0.811387 3.35426 0
M  V30 17892 C 1650.39 0.0244578 4.31993 0
M  V30 17893 C 1649.53 -0.879521 5.23868 0
M  V30 17894 C 1648.57 -0.0387974 6.12088 0
M  V30 17895 N 1647.7 -0.898593 6.96326 0
M  V30 17896 H 1652.54 0.87399 2.84895 0
M  V30 17897 H 1650.08 0.442659 1.40282 0
M  V30 17898 H 1652.04 -1.3493 3.94778 0
M  V30 17899 H 1650.67 -1.55986 2.8261 0
M  V30 17900 H 1649.72 0.679762 3.74277 0
M  V30 17901 H 1651.03 0.674606 4.94217 0
M  V30 17902 H 1650.19 -1.48535 5.88237 0
M  V30 17903 H 1648.93 -1.56345 4.6196 0
M  V30 17904 H 1647.93 0.579847 5.46734 0
M  V30 17905 H 1649.16 0.641887 6.7606 0
M  V30 17906 H 1647.1 -1.56786 6.36988 0
M  V30 17907 H 1647.02 -0.304876 7.55385 0
M  V30 17908 H 1648.29 -1.49005 7.65126 0
M  V30 17909 N 1652.52 -1.50101 0.480349 0
M  V30 17910 C 1653.76 -2.02674 -0.0715373 0
M  V30 17911 C 1654.09 -1.36095 -1.38535 0
M  V30 17912 O 1653.37 -0.489703 -1.88234 0
M  V30 17913 C 1653.65 -3.59261 -0.245693 0
M  V30 17914 C 1653.51 -4.36399 1.08979 0
M  V30 17915 C 1654.82 -4.28682 -0.995966 0
M  V30 17916 H 1651.94 -0.736592 -0.0245244 0
M  V30 17917 H 1654.59 -1.7933 0.627743 0
M  V30 17918 H 1652.74 -3.79281 -0.841308 0
M  V30 17919 H 1654.41 -4.27926 1.72269 0
M  V30 17920 H 1652.65 -3.99773 1.68417 0
M  V30 17921 H 1653.32 -5.44254 0.921468 0
M  V30 17922 H 1655.8 -4.13193 -0.491025 0
M  V30 17923 H 1654.67 -5.38037 -1.08663 0
M  V30 17924 H 1654.93 -3.92491 -2.03479 0
M  V30 17925 N 1653.99 -0.213323 -1.5615 0
M  V30 17926 C 1655.22 0.425071 -2.0218 0
M  V30 17927 C 1655.63 1.54471 -1.09249 0
M  V30 17928 O 1654.97 1.83465 -0.0928585 0
M  V30 17929 C 1655.04 1.02533 -3.44568 0
M  V30 17930 C 1654.7 0.0421613 -4.56981 0
M  V30 17931 C 1655.7 -0.755199 -5.14386 0
M  V30 17932 C 1653.38 -0.0742081 -5.02245 0
M  V30 17933 C 1655.38 -1.65571 -6.1552 0
M  V30 17934 C 1653.06 -0.978264 -6.03219 0
M  V30 17935 C 1654.06 -1.76757 -6.59732 0
M  V30 17936 O 1653.75 -2.65644 -7.58741 0
M  V30 17937 H 1653.48 0.109184 -0.667124 0
M  V30 17938 H 1656.04 -0.324754 -2.02816 0
M  V30 17939 H 1654.27 1.82409 -3.40975 0
M  V30 17940 H 1655.95 1.57027 -3.74296 0
M  V30 17941 H 1656.72 -0.6757 -4.8027 0
M  V30 17942 H 1652.6 0.530016 -4.57943 0
M  V30 17943 H 1656.14 -2.27223 -6.59557 0
M  V30 17944 H 1652.04 -1.05881 -6.36757 0
M  V30 17945 H 1652.81 -2.59627 -7.76232 0
M  V30 17946 N 1655.47 1.57485 0.0601405 0
M  V30 17947 C 1656.4 2.07525 1.07031 0
M  V30 17948 C 1657.38 0.971136 1.39653 0
M  V30 17949 O 1658.57 1.24456 1.49078 0
M  V30 17950 C 1655.7 2.52888 2.38044 0
M  V30 17951 C 1654.65 3.67282 2.19745 0
M  V30 17952 C 1653.98 3.98741 3.56244 0
M  V30 17953 C 1655.28 4.96896 1.60908 0
M  V30 17954 H 1656.97 2.92173 0.653875 0
M  V30 17955 H 1654.52 1.40555 0.313083 0
M  V30 17956 H 1656.47 2.8651 3.09014 0
M  V30 17957 H 1655.2 1.65284 2.81689 0
M  V30 17958 H 1653.85 3.33961 1.51213 0
M  V30 17959 H 1653.5 3.08249 3.97481 0
M  V30 17960 H 1653.2 4.75775 3.44836 0
M  V30 17961 H 1654.73 4.34869 4.28627 0
M  V30 17962 H 1656.14 5.28674 2.21758 0
M  V30 17963 H 1654.54 5.78332 1.60164 0
M  V30 17964 H 1655.61 4.81518 0.571671 0
M  V30 17965 N 1656.95 -0.331789 1.54068 0
M  V30 17966 C 1657.91 -1.39094 1.82169 0
M  V30 17967 C 1658.91 -1.45092 0.693168 0
M  V30 17968 O 1660.1 -1.45263 0.961471 0
M  V30 17969 C 1657.24 -2.77909 1.97432 0
M  V30 17970 H 1658.43 -1.15435 2.76794 0
M  V30 17971 H 1655.98 -0.566827 1.4566 0
M  V30 17972 H 1656.72 -3.06835 1.0499 0
M  V30 17973 H 1656.5 -2.7495 2.79544 0
M  V30 17974 H 1657.99 -3.54548 2.20649 0
M  V30 17975 N 1658.43 -1.46001 -0.593424 0
M  V30 17976 C 1659.67 -1.51967 -1.35195 0
M  V30 17977 C 1660.03 -0.164761 -1.91693 0
M  V30 17978 O 1659.32 0.825208 -1.72919 0
M  V30 17979 C 1659.52 -2.54568 -2.50858 0
M  V30 17980 C 1659.35 -3.99903 -2.05688 0
M  V30 17981 C 1658.12 -4.67729 -1.91201 0
M  V30 17982 C 1660.31 -4.88021 -1.62297 0
M  V30 17983 N 1658.3 -5.97726 -1.39989 0
M  V30 17984 C 1659.67 -6.07757 -1.22602 0
M  V30 17985 C 1661.72 -4.74762 -1.50018 0
M  V30 17986 C 1660.42 -7.15702 -0.718508 0
M  V30 17987 C 1662.45 -5.82769 -1.0067 0
M  V30 17988 C 1661.81 -7.01671 -0.619471 0
M  V30 17989 H 1657.91 -0.610973 -0.488094 0
M  V30 17990 H 1660.5 -1.82556 -0.676862 0
M  V30 17991 H 1658.67 -2.25908 -3.15943 0
M  V30 17992 H 1660.4 -2.50595 -3.1778 0
M  V30 17993 H 1657.15 -4.23089 -2.1282 0
M  V30 17994 H 1657.58 -6.66888 -1.16576 0
M  V30 17995 H 1662.22 -3.83236 -1.78577 0
M  V30 17996 H 1659.94 -8.07005 -0.420481 0
M  V30 17997 H 1663.52 -5.74548 -0.915751 0
M  V30 17998 H 1662.4 -7.83822 -0.243508 0
M  V30 17999 N 1659.91 0.83715 -1.33527 0
M  V30 18000 C 1661.15 1.59487 -1.25267 0
M  V30 18001 C 1661.49 1.93357 0.180741 0
M  V30 18002 O 1660.76 1.5884 1.12251 0
M  V30 18003 C 1661.04 2.90376 -2.12964 0
M  V30 18004 C 1660.9 2.63177 -3.64771 0
M  V30 18005 C 1662.22 3.9182 -2.00412 0
M  V30 18006 H 1659.33 0.578684 -0.456392 0
M  V30 18007 H 1661.98 0.965428 -1.63644 0
M  V30 18008 H 1660.13 3.44095 -1.80364 0
M  V30 18009 H 1661.8 2.15878 -4.0767 0
M  V30 18010 H 1660.04 1.96849 -3.86566 0
M  V30 18011 H 1660.71 3.56452 -4.21481 0
M  V30 18012 H 1663.19 3.47413 -2.29005 0
M  V30 18013 H 1662.06 4.81232 -2.64021 0
M  V30 18014 H 1662.33 4.31173 -0.976852 0
M  V30 18015 N 1661.38 1.17024 1.05561 0
M  V30 18016 C 1662.8 0.962856 1.59956 0
M  V30 18017 C 1663.15 -0.491388 1.89947 0
M  V30 18018 O 1662.27 -1.366 1.67838 0
M  V30 18019 C 1662.87 1.74146 2.90617 0
M  V30 18020 C 1661.43 1.57885 3.41686 0
M  V30 18021 C 1660.57 1.74548 2.15472 0
M  V30 18022 H 1663.52 1.31787 0.88419 0
M  V30 18023 H 1663.54 1.22165 3.60355 0
M  V30 18024 H 1663.06 2.79984 2.68758 0
M  V30 18025 H 1661.16 0.545207 3.6859 0
M  V30 18026 H 1661.27 2.36745 4.16519 0
M  V30 18027 H 1659.63 1.17356 2.26052 0
M  V30 18028 H 1660.42 2.81789 1.96087 0
M  V30 18029 N 1662.86 -1.24221 0.969889 0
M  V30 18030 C 1663.83 -2.23529 0.506686 0
M  V30 18031 C 1664.83 -1.55797 -0.397968 0
M  V30 18032 O 1666.02 -1.73126 -0.193124 0
M  V30 18033 C 1663.15 -3.39861 -0.265943 0
M  V30 18034 H 1664.34 -2.66022 1.38463 0
M  V30 18035 H 1661.89 -1.36872 0.754698 0
M  V30 18036 H 1662.63 -3.0281 -1.16089 0
M  V30 18037 H 1662.41 -3.90222 0.383286 0
M  V30 18038 H 1663.9 -4.13567 -0.578975 0
M  V30 18039 N 1664.34 -0.740267 -1.39132 0
M  V30 18040 C 1665.29 -0.0797035 -2.27861 0
M  V30 18041 C 1666.27 0.707146 -1.44528 0
M  V30 18042 O 1667.47 0.575289 -1.6739 0
M  V30 18043 C 1664.6 0.822818 -3.33294 0
M  V30 18044 C 1663.68 0.029836 -4.2409 0
M  V30 18045 N 1664.07 -0.999737 -4.95821 0
M  V30 18046 C 1662.37 0.258692 -4.45249 0
M  V30 18047 C 1663.07 -1.47837 -5.626 0
M  V30 18048 N 1662.05 -0.796028 -5.3774 0
M  V30 18049 H 1665.85 -0.868435 -2.80776 0
M  V30 18050 H 1663.36 -0.575079 -1.51877 0
M  V30 18051 H 1665.36 1.31157 -3.95732 0
M  V30 18052 H 1664.02 1.61065 -2.81936 0
M  V30 18053 H 1665.03 -1.38123 -4.99142 0
M  V30 18054 H 1661.71 1.02091 -4.04825 0
M  V30 18055 H 1663.1 -2.33524 -6.30013 0
M  V30 18056 N 1665.82 1.49844 -0.488302 0
M  V30 18057 C 1666.77 2.28883 0.296859 0
M  V30 18058 C 1667.74 1.34703 0.971818 0
M  V30 18059 O 1668.92 1.63653 0.980937 0
M  V30 18060 C 1666.06 3.17049 1.36286 0
M  V30 18061 C 1665.17 4.26275 0.700956 0
M  V30 18062 C 1664.31 5.01674 1.74632 0
M  V30 18063 C 1663.35 6.02753 1.06559 0
M  V30 18064 N 1662.48 6.71366 2.05457 0
M  V30 18065 H 1667.32 2.95523 -0.383417 0
M  V30 18066 H 1664.86 1.45721 -0.200928 0
M  V30 18067 H 1666.82 3.66531 1.99276 0
M  V30 18068 H 1665.45 2.52419 2.01207 0
M  V30 18069 H 1664.5 3.80377 -0.0419236 0
M  V30 18070 H 1665.81 4.98529 0.164469 0
M  V30 18071 H 1664.97 5.54961 2.45159 0
M  V30 18072 H 1663.71 4.29166 2.31664 0
M  V30 18073 H 1662.71 5.4871 0.346029 0
M  V30 18074 H 1663.94 6.77243 0.501932 0
M  V30 18075 H 1661.88 6.01637 2.61475 0
M  V30 18076 H 1661.8 7.39552 1.56841 0
M  V30 18077 H 1663.07 7.29262 2.75312 0
M  V30 18078 N 1667.3 0.221601 1.56034 0
M  V30 18079 C 1668.54 -0.409277 1.97912 0
M  V30 18080 C 1668.87 -1.60291 1.11049 0
M  V30 18081 O 1668.14 -1.95 0.187529 0
M  V30 18082 H 1666.72 -0.154201 0.730911 0
M  V30 18083 H 1669.38 0.314508 1.92346 0
M  V30 18084 H 1668.47 -0.73557 3.03308 0
M  V30 18085 N 1668.77 -1.57515 -0.0517878 0
M  V30 18086 C 1670.02 -1.87396 -0.746022 0
M  V30 18087 C 1670.34 -0.817053 -1.77718 0
M  V30 18088 O 1671.54 -1.00435 -2.5224 0
M  V30 18089 C 1670 -3.32481 -1.37783 0
M  V30 18090 C 1669.61 -4.46349 -0.384208 0
M  V30 18091 C 1671.35 -3.71539 -2.05327 0
M  V30 18092 C 1669.26 -5.82484 -1.02307 0
M  V30 18093 H 1668.19 -0.699127 -0.282379 0
M  V30 18094 H 1670.84 -1.835 0.000245524 0
M  V30 18095 H 1669.22 -3.31051 -2.17304 0
M  V30 18096 H 1670.39 -4.59209 0.382639 0
M  V30 18097 H 1668.71 -4.15976 0.187873 0
M  V30 18098 H 1671.31 -4.70553 -2.53936 0
M  V30 18099 H 1671.65 -3.02361 -2.86153 0
M  V30 18100 H 1672.18 -3.75046 -1.32611 0
M  V30 18101 H 1668.92 -6.55005 -0.254704 0
M  V30 18102 H 1668.44 -5.73388 -1.7603 0
M  V30 18103 H 1670.12 -6.28476 -1.5371 0
M  V30 18104 N 1670.25 0.323614 -1.54242 0
M  V30 18105 C 1671.5 1.05947 -1.72104 0
M  V30 18106 C 1671.82 1.88547 -0.497512 0
M  V30 18107 O 1671.09 1.89712 0.488485 0
M  V30 18108 H 1669.67 0.394141 -0.634557 0
M  V30 18109 H 1672.33 0.360063 -1.91545 0
M  V30 18110 H 1671.43 1.72552 -2.60062 0
M  V30 18111 N 1671.73 1.46313 0.585673 0
M  V30 18112 C 1672.98 1.51171 1.34134 0
M  V30 18113 C 1673.3 0.163691 1.94312 0
M  V30 18114 O 1672.57 -0.809444 1.78395 0
M  V30 18115 H 1671.15 0.556768 0.498014 0
M  V30 18116 H 1673.81 1.82423 0.686133 0
M  V30 18117 H 1672.91 2.26274 2.14957 0
M  V30 18118 N 1673.21 -0.830057 1.33969 0
M  V30 18119 C 1674.16 -1.96189 1.2495 0
M  V30 18120 C 1675.15 -1.68743 0.149047 0
M  V30 18121 O 1676.36 -1.77248 0.31357 0
M  V30 18122 H 1672.73 -0.644184 0.387983 0
M  V30 18123 H 1674.7 -2.0092 2.20621 0
M  V30 18124 C 1673.45 -3.32569 1.01456 0
M  V30 18125 H 1672.78 -3.54232 1.85363 0
M  V30 18126 H 1674.22 -4.12237 0.991786 0
M  V30 18127 C 1672.67 -3.35715 -0.282331 0
M  V30 18128 O 1673.2 -3.80556 -1.28609 0
M  V30 18129 N 1671.41 -2.8891 -0.312952 0
M  V30 18130 H 1670.96 -2.52613 0.504446 0
M  V30 18131 H 1670.92 -2.91397 -1.18047 0
M  V30 18132 N 1674.69 -1.17582 -1.04939 0
M  V30 18133 C 1675.6 -0.909588 -2.16249 0
M  V30 18134 C 1676.61 0.123166 -1.73564 0
M  V30 18135 O 1677.79 -0.0566976 -2.0132 0
M  V30 18136 C 1674.85 -0.429342 -3.44031 0
M  V30 18137 C 1673.92 -1.529 -4.01149 0
M  V30 18138 C 1673.15 -1.07157 -5.22832 0
M  V30 18139 O 1673.37 0.0732634 -5.70353 0
M  V30 18140 O 1672.31 -1.86567 -5.72255 0
M  V30 18141 H 1676.13 -1.84074 -2.41558 0
M  V30 18142 H 1673.72 -0.956914 -1.14732 0
M  V30 18143 H 1675.6 -0.16917 -4.2106 0
M  V30 18144 H 1674.27 0.473629 -3.20216 0
M  V30 18145 H 1673.18 -1.84308 -3.25548 0
M  V30 18146 H 1674.51 -2.40777 -4.29287 0
M  V30 18147 N 1676.17 1.23705 -0.976463 0
M  V30 18148 C 1677.1 2.24297 -0.471538 0
M  V30 18149 C 1678.11 1.57169 0.424484 0
M  V30 18150 O 1679.3 1.77022 0.229252 0
M  V30 18151 C 1676.4 3.37214 0.337621 0
M  V30 18152 C 1675.57 4.33921 -0.550586 0
M  V30 18153 C 1674.63 5.25804 0.204053 0
M  V30 18154 O 1673.66 5.67757 -0.404995 0
M  V30 18155 N 1674.86 5.61021 1.49116 0
M  V30 18156 H 1677.62 2.68252 -1.33645 0
M  V30 18157 H 1675.19 1.37836 -0.849281 0
M  V30 18158 H 1677.18 3.95658 0.850714 0
M  V30 18159 H 1675.75 2.92474 1.10351 0
M  V30 18160 H 1674.97 3.74038 -1.24455 0
M  V30 18161 H 1676.26 4.95493 -1.15604 0
M  V30 18162 H 1675.65 5.28879 2.00757 0
M  V30 18163 H 1674.21 6.21954 1.94978 0
M  V30 18164 N 1677.64 0.747635 1.38738 0
M  V30 18165 C 1678.89 0.301593 2.00545 0
M  V30 18166 C 1679.22 -1.11208 1.59205 0
M  V30 18167 O 1678.5 -1.76052 0.826806 0
M  V30 18168 C 1678.78 0.417739 3.57669 0
M  V30 18169 C 1678.63 1.87209 4.0899 0
M  V30 18170 C 1679.95 -0.192403 4.39679 0
M  V30 18171 H 1677.07 0.11106 0.728584 0
M  V30 18172 H 1679.71 0.946162 1.64766 0
M  V30 18173 H 1677.86 -0.131024 3.88279 0
M  V30 18174 H 1679.54 2.4787 3.89048 0
M  V30 18175 H 1677.78 2.38917 3.62079 0
M  V30 18176 H 1678.45 1.90455 5.18103 0
M  V30 18177 H 1680.93 0.27554 4.15187 0
M  V30 18178 H 1679.8 -0.0808605 5.4884 0
M  V30 18179 H 1680.06 -1.28 4.23165 0
M  V30 18180 N 1679.12 -1.49583 0.496242 0
M  V30 18181 C 1680.4 -1.95275 -0.112751 0
M  V30 18182 C 1680.78 -1.43758 -1.54586 0
M  V30 18183 O 1680.13 -0.649285 -2.19081 0
M  V30 18184 C 1680.34 -3.48987 -0.0302774 0
M  V30 18185 C 1681.68 -4.24097 -0.206595 0
M  V30 18186 O 1682.71 -3.56043 -0.105689 0
M  V30 18187 O 1681.57 -5.44936 -0.413172 0
M  V30 18188 H 1678.66 -0.821183 -0.0979145 0
M  V30 18189 H 1681.21 -1.60248 0.558441 0
M  V30 18190 H 1679.98 -3.79104 0.969322 0
M  V30 18191 H 1679.6 -3.90618 -0.741825 0
M  V30 18192 N 1680.6 -0.229873 -1.55915 0
M  V30 18193 C 1681.55 0.676809 -2.20653 0
M  V30 18194 C 1682.52 1.18412 -1.16481 0
M  V30 18195 O 1683.7 1.2417 -1.44867 0
M  V30 18196 C 1680.84 1.87567 -2.89677 0
M  V30 18197 C 1679.95 1.40648 -4.08463 0
M  V30 18198 C 1679.09 2.56356 -4.65247 0
M  V30 18199 C 1678.13 2.06215 -5.76318 0
M  V30 18200 N 1677.27 3.15226 -6.27357 0
M  V30 18201 H 1682.11 0.118035 -2.97766 0
M  V30 18202 H 1679.64 0.0465042 -1.47026 0
M  V30 18203 H 1681.6 2.57968 -3.27884 0
M  V30 18204 H 1680.23 2.40719 -2.15067 0
M  V30 18205 H 1679.28 0.597104 -3.75684 0
M  V30 18206 H 1680.59 0.998877 -4.88696 0
M  V30 18207 H 1679.75 3.34827 -5.05941 0
M  V30 18208 H 1678.49 3.0041 -3.84194 0
M  V30 18209 H 1677.49 1.26209 -5.35118 0
M  V30 18210 H 1678.72 1.63151 -6.59211 0
M  V30 18211 H 1676.66 3.58746 -5.49215 0
M  V30 18212 H 1676.58 2.78744 -7.02736 0
M  V30 18213 H 1677.85 3.93807 -6.72708 0
M  V30 18214 N 1682.08 1.5754 0.0434337 0
M  V30 18215 C 1683.01 2.08648 1.04824 0
M  V30 18216 C 1683.99 0.985894 1.38615 0
M  V30 18217 O 1685.17 1.2603 1.4775 0
M  V30 18218 C 1682.3 2.55399 2.35348 0
M  V30 18219 C 1681.26 3.69592 2.15837 0
M  V30 18220 C 1680.58 4.02497 3.51995 0
M  V30 18221 C 1681.88 4.98575 1.55629 0
M  V30 18222 H 1683.58 2.9285 0.622849 0
M  V30 18223 H 1681.12 1.40879 0.298158 0
M  V30 18224 H 1683.08 2.89771 3.05958 0
M  V30 18225 H 1681.8 1.68262 2.7992 0
M  V30 18226 H 1680.46 3.35546 1.47663 0
M  V30 18227 H 1680.11 3.12448 3.94189 0
M  V30 18228 H 1679.81 4.79406 3.39771 0
M  V30 18229 H 1681.33 4.39391 4.23991 0
M  V30 18230 H 1682.75 5.30996 2.16138 0
M  V30 18231 H 1681.14 5.79998 1.54021 0
M  V30 18232 H 1682.21 4.82098 0.520567 0
M  V30 18233 N 1683.56 -0.31543 1.54411 0
M  V30 18234 C 1684.8 -1.05396 1.73261 0
M  V30 18235 C 1685.13 -1.87406 0.509171 0
M  V30 18236 O 1684.41 -1.88126 -0.493836 0
M  V30 18237 C 1684.69 -1.97195 3.01308 0
M  V30 18238 C 1684.55 -1.18461 4.33921 0
M  V30 18239 C 1685.86 -2.96594 3.25146 0
M  V30 18240 H 1682.98 -0.381763 0.630417 0
M  V30 18241 H 1685.63 -0.329882 1.87114 0
M  V30 18242 H 1683.78 -2.58936 2.89628 0
M  V30 18243 H 1685.45 -0.591171 4.57496 0
M  V30 18244 H 1683.69 -0.487025 4.31057 0
M  V30 18245 H 1684.36 -1.85909 5.19752 0
M  V30 18246 H 1686.84 -2.44977 3.36341 0
M  V30 18247 H 1685.71 -3.58002 4.16084 0
M  V30 18248 H 1685.97 -3.69487 2.42758 0
M  V30 18249 N 1685.03 -1.46622 -0.577906 0
M  V30 18250 C 1686.26 -1.56 -1.36671 0
M  V30 18251 C 1686.68 -0.2034 -1.86997 0
M  V30 18252 O 1686.04 0.817288 -1.61834 0
M  V30 18253 C 1686.09 -2.57254 -2.52691 0
M  V30 18254 O 1685.19 -2.1109 -3.54281 0
M  V30 18255 H 1684.54 -0.524779 -0.406821 0
M  V30 18256 H 1687.07 -1.92234 -0.700512 0
M  V30 18257 H 1687.08 -2.77016 -2.99543 0
M  V30 18258 H 1685.75 -3.55766 -2.15415 0
M  V30 18259 H 1684.33 -2.01337 -3.13875 0
M  V30 18260 N 1686.51 0.822941 -1.34408 0
M  V30 18261 C 1687.44 1.94142 -1.21826 0
M  V30 18262 C 1688.46 1.6215 -0.145353 0
M  V30 18263 O 1689.65 1.74025 -0.397205 0
M  V30 18264 C 1686.75 3.28077 -0.849619 0
M  V30 18265 C 1685.92 3.88092 -2.0175 0
M  V30 18266 C 1684.98 5.00406 -1.62726 0
M  V30 18267 O 1684 5.18703 -2.34383 0
M  V30 18268 N 1685.21 5.7797 -0.541413 0
M  V30 18269 H 1687.97 2.05467 -2.18182 0
M  V30 18270 H 1685.53 0.999521 -1.27362 0
M  V30 18271 H 1687.52 4.00661 -0.57035 0
M  V30 18272 H 1686.09 3.12591 0.0237499 0
M  V30 18273 H 1685.31 3.07902 -2.46151 0
M  V30 18274 H 1686.6 4.24921 -2.79856 0
M  V30 18275 H 1686 5.65674 0.0542929 0
M  V30 18276 H 1684.56 6.51005 -0.321874 0
M  V30 18277 N 1687.99 1.18137 1.04314 0
M  V30 18278 C 1689.24 0.973277 1.77121 0
M  V30 18279 C 1689.56 -0.498558 1.88519 0
M  V30 18280 O 1688.83 -1.36168 1.40837 0
M  V30 18281 H 1687.41 0.35712 0.656105 0
M  V30 18282 H 1690.07 1.48774 1.25906 0
M  V30 18283 H 1689.17 1.40917 2.78476 0
M  V30 18284 N 1689.47 -1.23186 0.98301 0
M  V30 18285 C 1690.72 -1.90979 0.648851 0
M  V30 18286 C 1691.03 -1.77508 -0.82159 0
M  V30 18287 O 1692.24 -2.40128 -1.26692 0
M  V30 18288 C 1690.69 -3.42357 1.10995 0
M  V30 18289 C 1690.3 -3.64483 2.60492 0
M  V30 18290 C 1692.04 -4.1591 0.849653 0
M  V30 18291 C 1689.95 -5.09511 3.00255 0
M  V30 18292 H 1688.88 -0.715125 0.238983 0
M  V30 18293 H 1691.53 -1.39575 1.19126 0
M  V30 18294 H 1689.91 -3.92885 0.495735 0
M  V30 18295 H 1691.09 -3.24491 3.27173 0
M  V30 18296 H 1689.4 -3.04245 2.84296 0
M  V30 18297 H 1692 -5.22784 1.12256 0
M  V30 18298 H 1692.34 -4.15748 -0.214237 0
M  V30 18299 H 1692.88 -3.71379 1.42557 0
M  V30 18300 H 1689.62 -5.14805 4.05778 0
M  V30 18301 H 1689.14 -5.50443 2.38269 0
M  V30 18302 H 1690.81 -5.77862 2.91005 0
M  V30 18303 N 1690.95 -0.754982 -1.38339 0
M  V30 18304 C 1692.36 -0.43273 -1.53622 0
M  V30 18305 C 1692.56 1.05395 -1.71739 0
M  V30 18306 O 1691.62 1.83998 -1.72919 0
M  V30 18307 C 1692.93 -1.23319 -2.7425 0
M  V30 18308 C 1694.48 -1.22341 -2.881 0
M  V30 18309 C 1694.95 -2.00686 -4.11691 0
M  V30 18310 N 1696.45 -1.97953 -4.1877 0
M  V30 18311 C 1697.18 -2.55367 -5.13396 0
M  V30 18312 N 1696.68 -3.215 -6.13685 0
M  V30 18313 N 1698.47 -2.45289 -5.05757 0
M  V30 18314 H 1690.62 -1.71847 -1.2483 0
M  V30 18315 H 1692.88 -0.728585 -0.606521 0
M  V30 18316 H 1692.59 -2.28602 -2.67272 0
M  V30 18317 H 1692.46 -0.851009 -3.67475 0
M  V30 18318 H 1694.85 -0.178637 -2.94559 0
M  V30 18319 H 1694.93 -1.64511 -1.95882 0
M  V30 18320 H 1694.58 -3.05175 -4.05994 0
M  V30 18321 H 1694.51 -1.55908 -5.02991 0
M  V30 18322 H 1697 -1.49792 -3.46945 0
M  V30 18323 H 1697.31 -3.62725 -6.82386 0
M  V30 18324 H 1695.65 -3.25595 -6.14014 0
M  V30 18325 H 1698.85 -1.93251 -4.26347 0
M  V30 18326 H 1699.02 -2.9033 -5.79321 0
M  V30 18327 N 1692.42 1.49318 -0.504168 0
M  V30 18328 C 1693.37 2.29185 0.272566 0
M  V30 18329 C 1694.34 1.35726 0.957476 0
M  V30 18330 O 1695.53 1.64684 0.963524 0
M  V30 18331 C 1692.67 3.18477 1.32916 0
M  V30 18332 C 1691.78 4.26995 0.655704 0
M  V30 18333 C 1690.91 5.03498 1.69301 0
M  V30 18334 C 1689.95 6.0385 1.0016 0
M  V30 18335 N 1689.09 6.73507 1.98325 0
M  V30 18336 H 1693.93 2.951 -0.41474 0
M  V30 18337 H 1691.47 1.455 -0.216372 0
M  V30 18338 H 1693.43 3.68624 1.95377 0
M  V30 18339 H 1692.06 2.54539 1.98519 0
M  V30 18340 H 1691.11 3.80311 -0.0822653 0
M  V30 18341 H 1692.42 4.98675 0.111584 0
M  V30 18342 H 1691.57 5.5753 2.39259 0
M  V30 18343 H 1690.31 4.31599 2.27099 0
M  V30 18344 H 1689.32 5.49046 0.287811 0
M  V30 18345 H 1690.54 6.77737 0.430073 0
M  V30 18346 H 1688.49 6.04376 2.55079 0
M  V30 18347 H 1688.41 7.41174 1.48988 0
M  V30 18348 H 1689.67 7.32141 2.67561 0
M  V30 18349 N 1693.9 0.238138 1.5579 0
M  V30 18350 C 1695.15 -0.389608 1.99022 0
M  V30 18351 C 1695.48 -1.58226 1.12597 0
M  V30 18352 O 1694.76 -1.93595 0.187363 0
M  V30 18353 C 1695.04 -0.808025 3.50917 0
M  V30 18354 C 1694.89 0.389417 4.48111 0
M  V30 18355 C 1696.21 -1.6582 4.07666 0
M  V30 18356 H 1693.33 -0.140141 0.723553 0
M  V30 18357 H 1695.97 0.337696 1.86975 0
M  V30 18358 H 1694.12 -1.42772 3.61315 0
M  V30 18359 H 1695.79 1.02777 4.49705 0
M  V30 18360 H 1694.04 1.03404 4.21296 0
M  V30 18361 H 1694.71 0.0534549 5.51974 0
M  V30 18362 H 1697.18 -1.13518 4.00316 0
M  V30 18363 H 1696.06 -1.91984 5.14231 0
M  V30 18364 H 1696.32 -2.62712 3.55577 0
M  V30 18365 N 1695.38 -1.57561 -0.0350783 0
M  V30 18366 C 1696.31 -2.09201 -1.03716 0
M  V30 18367 C 1697.29 -0.993231 -1.3809 0
M  V30 18368 O 1698.48 -1.26812 -1.47079 0
M  V30 18369 C 1695.61 -2.56643 -2.3399 0
M  V30 18370 C 1694.56 -3.70731 -2.13874 0
M  V30 18371 C 1693.89 -4.04358 -3.49855 0
M  V30 18372 C 1695.19 -4.99393 -1.52982 0
M  V30 18373 H 1696.88 -2.93176 -0.60731 0
M  V30 18374 H 1694.43 -1.41036 -0.290683 0
M  V30 18375 H 1696.38 -2.9139 -3.04417 0
M  V30 18376 H 1695.1 -1.69744 -2.79024 0
M  V30 18377 H 1693.76 -3.36325 -1.45881 0
M  V30 18378 H 1693.41 -3.14534 -3.92527 0
M  V30 18379 H 1693.11 -4.81201 -3.37223 0
M  V30 18380 H 1694.63 -4.41633 -4.21654 0
M  V30 18381 H 1696.05 -5.32135 -2.13319 0
M  V30 18382 H 1694.45 -5.80807 -1.50943 0
M  V30 18383 H 1695.52 -4.82367 -0.494993 0
M  V30 18384 N 1696.86 0.307236 -1.54576 0
M  V30 18385 C 1698.11 1.04321 -1.73561 0
M  V30 18386 C 1698.43 1.87475 -0.51803 0
M  V30 18387 O 1697.69 1.89202 0.500093 0
M  V30 18388 C 1697.99 1.9831 -2.97335 0
M  V30 18389 C 1697.65 1.31182 -4.31395 0
M  V30 18390 C 1696.32 1.12607 -4.67839 0
M  V30 18391 C 1698.67 0.831413 -5.14526 0
M  V30 18392 C 1696 0.446652 -5.84997 0
M  V30 18393 C 1698.35 0.165743 -6.32383 0
M  V30 18394 C 1697.01 -0.0320176 -6.67492 0
M  V30 18395 H 1696.28 0.381739 -0.635103 0
M  V30 18396 H 1698.93 0.318705 -1.88829 0
M  V30 18397 H 1697.23 2.77267 -2.76821 0
M  V30 18398 H 1698.93 2.55314 -3.09218 0
M  V30 18399 H 1695.52 1.46645 -4.02732 0
M  V30 18400 H 1699.7 0.962653 -4.86874 0
M  V30 18401 H 1694.96 0.282387 -6.10748 0
M  V30 18402 H 1699.13 -0.214434 -6.9607 0
M  V30 18403 H 1696.76 -0.560493 -7.58131 0
M  V30 18404 N 1698.34 1.46926 0.570122 0
M  V30 18405 C 1699.27 1.61311 1.68822 0
M  V30 18406 C 1700.25 0.462964 1.63678 0
M  V30 18407 O 1701.43 0.690745 1.815 0
M  V30 18408 C 1698.56 1.61499 3.07466 0
M  V30 18409 C 1697.52 2.7561 3.27449 0
M  V30 18410 C 1696.84 2.60865 4.66748 0
M  V30 18411 C 1698.14 4.17324 3.14067 0
M  V30 18412 H 1699.84 2.54909 1.5704 0
M  V30 18413 H 1697.38 1.22677 0.754077 0
M  V30 18414 H 1699.34 1.70155 3.8552 0
M  V30 18415 H 1698.06 0.64453 3.20177 0
M  V30 18416 H 1696.72 2.66444 2.51799 0
M  V30 18417 H 1696.37 1.61875 4.76241 0
M  V30 18418 H 1696.07 3.37411 4.81069 0
M  V30 18419 H 1697.59 2.7143 5.46954 0
M  V30 18420 H 1699 4.27534 3.81952 0
M  V30 18421 H 1697.4 4.94555 3.39905 0
M  V30 18422 H 1698.47 4.36596 2.10979 0
M  V30 18423 N 1699.82 -0.815801 1.34842 0
M  V30 18424 C 1701.09 -1.55867 1.18173 0
M  V30 18425 C 1701.47 -2.09698 -0.242848 0
M  V30 18426 O 1700.82 -1.91594 -1.24514 0
M  V30 18427 C 1701.03 -2.67445 2.24219 0
M  V30 18428 C 1702.38 -3.36027 2.59559 0
M  V30 18429 O 1703.4 -2.77708 2.23062 0
M  V30 18430 O 1702.26 -4.4136 3.22279 0
M  V30 18431 H 1699.36 -0.688242 0.458533 0
M  V30 18432 H 1701.9 -0.856558 1.46496 0
M  V30 18433 H 1700.67 -2.25473 3.19809 0
M  V30 18434 H 1700.3 -3.453 1.97113 0
M  V30 18435 N 1701.29 -1.18689 -1.03686 0
M  V30 18436 C 1702.54 -0.982656 -1.76602 0
M  V30 18437 C 1702.86 0.488553 -1.88781 0
M  V30 18438 O 1702.13 1.35419 -1.41558 0
M  V30 18439 H 1700.71 -0.360595 -0.654202 0
M  V30 18440 H 1703.37 -1.49439 -1.25115 0
M  V30 18441 H 1702.47 -1.42392 -2.77725 0
M  V30 18442 N 1702.77 1.22662 -0.989529 0
M  V30 18443 C 1704.02 1.90632 -0.65897 0
M  V30 18444 C 1704.33 1.77942 0.812165 0
M  V30 18445 O 1705.54 2.40796 1.25417 0
M  V30 18446 C 1704 3.41763 -1.12809 0
M  V30 18447 C 1703.6 3.63097 -2.62421 0
M  V30 18448 C 1705.35 4.15454 -0.871698 0
M  V30 18449 C 1703.25 5.07911 -3.02953 0
M  V30 18450 H 1702.18 0.713847 -0.242772 0
M  V30 18451 H 1704.84 1.38942 -1.19864 0
M  V30 18452 H 1703.22 3.92616 -0.516564 0
M  V30 18453 H 1704.39 3.22751 -3.2889 0
M  V30 18454 H 1702.71 3.02733 -2.85905 0
M  V30 18455 H 1705.3 5.22181 -1.15027 0
M  V30 18456 H 1705.65 4.15856 0.192186 0
M  V30 18457 H 1706.18 3.70618 -1.44525 0
M  V30 18458 H 1702.92 5.12646 -4.08503 0
M  V30 18459 H 1702.44 5.49172 -2.41185 0
M  V30 18460 H 1704.12 5.76311 -2.94066 0
M  V30 18461 N 1704.25 0.762308 1.37937 0
M  V30 18462 C 1705.53 0.247502 1.94028 0
M  V30 18463 C 1705.91 -1.25581 1.69684 0
M  V30 18464 O 1705.25 -2.03446 1.04028 0
M  V30 18465 C 1705.46 0.610643 3.43616 0
M  V30 18466 C 1706.81 0.57515 4.20687 0
M  V30 18467 O 1707.84 0.549461 3.51937 0
M  V30 18468 O 1706.7 0.593825 5.43264 0
M  V30 18469 H 1703.79 0.0544389 0.825206 0
M  V30 18470 H 1706.34 0.843021 1.47279 0
M  V30 18471 H 1705.11 1.64853 3.54879 0
M  V30 18472 H 1704.73 -0.0124265 3.97598 0
M  V30 18473 N 1705.73 -1.49049 0.51208 0
M  V30 18474 C 1706.67 -2.29326 -0.260408 0
M  V30 18475 C 1707.64 -1.36232 -0.950265 0
M  V30 18476 O 1708.83 -1.65193 -0.954777 0
M  V30 18477 C 1705.97 -3.19177 -1.31225 0
M  V30 18478 C 1705.08 -4.27336 -0.63305 0
M  V30 18479 C 1704.22 -5.04389 -1.66628 0
M  V30 18480 C 1703.26 -6.04372 -0.969561 0
M  V30 18481 N 1702.39 -6.74549 -1.94751 0
M  V30 18482 H 1707.23 -2.94876 0.430384 0
M  V30 18483 H 1704.77 -1.45383 0.224086 0
M  V30 18484 H 1706.73 -3.69655 -1.9342 0
M  V30 18485 H 1705.36 -2.55588 -1.97166 0
M  V30 18486 H 1704.41 -3.80262 0.102433 0
M  V30 18487 H 1705.72 -4.98727 -0.0851363 0
M  V30 18488 H 1704.88 -5.58791 -2.36299 0
M  V30 18489 H 1703.62 -4.32797 -2.24807 0
M  V30 18490 H 1702.62 -5.49191 -0.25869 0
M  V30 18491 H 1703.85 -6.77955 -0.394125 0
M  V30 18492 H 1701.79 -6.0572 -2.5187 0
M  V30 18493 H 1701.71 -7.41954 -1.45055 0
M  V30 18494 H 1702.98 -7.3355 -2.63675 0
M  V30 18495 N 1707.21 -0.246397 -1.55662 0
M  V30 18496 C 1708.17 0.640041 -2.20082 0
M  V30 18497 C 1709.17 1.10313 -1.16994 0
M  V30 18498 O 1710.36 1.00792 -1.42079 0
M  V30 18499 C 1707.49 1.87964 -2.84398 0
M  V30 18500 H 1708.68 0.0780034 -2.99799 0
M  V30 18501 H 1706.24 0.00314588 -1.563 0
M  V30 18502 H 1706.97 2.48292 -2.08618 0
M  V30 18503 H 1706.76 1.5558 -3.59913 0
M  V30 18504 H 1708.25 2.51065 -3.33701 0
M  V30 18505 N 1708.68 1.57577 0.026722 0
M  V30 18506 C 1709.62 2.03515 1.05424 0
M  V30 18507 C 1710.63 0.948362 1.32325 0
M  V30 18508 O 1711.82 1.22563 1.29771 0
M  V30 18509 C 1708.92 2.39744 2.39533 0
M  V30 18510 C 1708.09 3.70832 2.31954 0
M  V30 18511 C 1707.15 3.94224 3.48531 0
M  V30 18512 O 1706.18 4.6525 3.27919 0
M  V30 18513 N 1707.38 3.40044 4.70479 0
M  V30 18514 H 1710.14 2.92282 0.662678 0
M  V30 18515 H 1707.7 1.60471 0.214623 0
M  V30 18516 H 1709.7 2.52529 3.16245 0
M  V30 18517 H 1708.27 1.56636 2.70525 0
M  V30 18518 H 1707.49 3.68378 1.40325 0
M  V30 18519 H 1708.77 4.56821 2.24035 0
M  V30 18520 H 1708.17 2.82478 4.90125 0
M  V30 18521 H 1706.73 3.58205 5.44548 0
M  V30 18522 N 1710.16 -0.299034 1.54737 0
M  V30 18523 C 1711.07 -1.39141 1.88884 0
M  V30 18524 C 1712.09 -1.55377 0.783203 0
M  V30 18525 O 1713.26 -1.70003 1.07985 0
M  V30 18526 C 1710.33 -2.73487 2.13087 0
M  V30 18527 C 1709.39 -2.66219 3.36788 0
M  V30 18528 C 1708.62 -3.94158 3.59827 0
M  V30 18529 O 1708.85 -4.9361 2.85841 0
M  V30 18530 O 1707.78 -3.95933 4.53344 0
M  V30 18531 H 1711.61 -1.13184 2.81821 0
M  V30 18532 H 1709.19 -0.495271 1.40952 0
M  V30 18533 H 1711.07 -3.5297 2.30195 0
M  V30 18534 H 1709.75 -2.99283 1.23335 0
M  V30 18535 H 1708.65 -1.85201 3.25041 0
M  V30 18536 H 1709.99 -2.45376 4.26675 0
M  V30 18537 N 1711.64 -1.47227 -0.562322 0
M  V30 18538 C 1712.55 -1.61953 -1.69731 0
M  V30 18539 C 1713.57 -0.502478 -1.66587 0
M  V30 18540 O 1714.74 -0.769335 -1.86127 0
M  V30 18541 C 1711.81 -1.62539 -3.06238 0
M  V30 18542 C 1710.87 -2.85632 -3.20489 0
M  V30 18543 C 1710.1 -2.86181 -4.50485 0
M  V30 18544 O 1710.32 -1.96099 -5.35632 0
M  V30 18545 O 1709.26 -3.7798 -4.68417 0
M  V30 18546 H 1713.08 -2.5798 -1.6025 0
M  V30 18547 H 1710.67 -1.30253 -0.73174 0
M  V30 18548 H 1712.55 -1.65634 -3.87483 0
M  V30 18549 H 1711.23 -0.696779 -3.16112 0
M  V30 18550 H 1710.13 -2.88084 -2.3866 0
M  V30 18551 H 1711.47 -3.7777 -3.15517 0
M  V30 18552 N 1713.12 0.808639 -1.35273 0
M  V30 18553 C 1714.07 1.90962 -1.24569 0
M  V30 18554 C 1715.05 1.60277 -0.141424 0
M  V30 18555 O 1716.24 1.73037 -0.372451 0
M  V30 18556 C 1713.37 3.27864 -1.01783 0
M  V30 18557 C 1712.46 3.64622 -2.16592 0
M  V30 18558 N 1712.85 3.72831 -3.41805 0
M  V30 18559 C 1711.15 3.94563 -2.07932 0
M  V30 18560 C 1711.85 4.05271 -4.1729 0
M  V30 18561 N 1710.82 4.19246 -3.46025 0
M  V30 18562 H 1714.63 1.95508 -2.1944 0
M  V30 18563 H 1712.14 1.00311 -1.27716 0
M  V30 18564 H 1714.14 4.06576 -0.922037 0
M  V30 18565 H 1712.8 3.24606 -0.0779494 0
M  V30 18566 H 1713.81 3.55961 -3.76181 0
M  V30 18567 H 1710.49 3.99342 -1.21787 0
M  V30 18568 H 1711.88 4.18707 -5.25485 0
M  V30 18569 N 1714.6 1.19237 1.03055 0
M  V30 18570 C 1715.51 0.943876 2.14775 0
M  V30 18571 C 1716.52 -0.0955384 1.73738 0
M  V30 18572 O 1717.7 0.0887187 2.01204 0
M  V30 18573 C 1714.76 0.48402 3.43305 0
M  V30 18574 C 1713.82 1.59262 3.98665 0
M  V30 18575 C 1713.06 1.15461 5.21061 0
M  V30 18576 O 1713.28 0.0174841 5.70397 0
M  V30 18577 O 1712.21 1.95648 5.69215 0
M  V30 18578 H 1716.04 1.87894 2.38599 0
M  V30 18579 H 1713.63 0.975046 1.13195 0
M  V30 18580 H 1715.51 0.236135 4.20738 0
M  V30 18581 H 1714.18 -0.422626 3.20929 0
M  V30 18582 H 1713.09 1.89464 3.22574 0
M  V30 18583 H 1714.42 2.47576 4.25402 0
M  V30 18584 N 1716.07 -1.22136 0.99602 0
M  V30 18585 C 1717.02 -2.24178 0.54889 0
M  V30 18586 C 1717.99 -1.60692 -0.420391 0
M  V30 18587 O 1719.18 -1.88021 -0.324452 0
M  V30 18588 C 1716.32 -3.44865 -0.127239 0
M  V30 18589 C 1715.43 -4.22855 0.884153 0
M  V30 18590 C 1714.56 -5.30891 0.181219 0
M  V30 18591 C 1713.6 -6.00603 1.18077 0
M  V30 18592 N 1712.74 -7.00275 0.505927 0
M  V30 18593 H 1717.58 -2.61788 1.42377 0
M  V30 18594 H 1715.12 -1.28658 0.713124 0
M  V30 18595 H 1717.08 -4.1374 -0.536194 0
M  V30 18596 H 1715.71 -3.0801 -0.965892 0
M  V30 18597 H 1714.76 -3.53247 1.41141 0
M  V30 18598 H 1716.07 -4.70888 1.64518 0
M  V30 18599 H 1715.22 -6.06033 -0.284307 0
M  V30 18600 H 1713.96 -4.83841 -0.612289 0
M  V30 18601 H 1712.97 -5.2424 1.65689 0
M  V30 18602 H 1714.19 -6.4974 1.9752 0
M  V30 18603 H 1712.14 -6.55452 -0.268088 0
M  V30 18604 H 1712.06 -7.46329 1.20535 0
M  V30 18605 H 1713.32 -7.79474 0.0633069 0
M  V30 18606 N 1717.55 -0.769612 -1.37531 0
M  V30 18607 C 1718.78 -0.343783 -2.0372 0
M  V30 18608 C 1719.19 1.03816 -1.58173 0
M  V30 18609 O 1718.53 1.6736 -0.75739 0
M  V30 18610 C 1718.6 -0.305844 -3.58197 0
M  V30 18611 C 1718.26 -1.63202 -4.26866 0
M  V30 18612 C 1719.26 -2.58408 -4.51133 0
M  V30 18613 C 1716.94 -1.90587 -4.64739 0
M  V30 18614 C 1718.94 -3.79208 -5.12328 0
M  V30 18615 C 1716.62 -3.11657 -5.25655 0
M  V30 18616 C 1717.62 -4.05788 -5.49386 0
M  V30 18617 O 1717.31 -5.24727 -6.09029 0
M  V30 18618 H 1717.04 -0.142358 -0.66084 0
M  V30 18619 H 1719.59 -1.04399 -1.7689 0
M  V30 18620 H 1717.82 0.450724 -3.84064 0
M  V30 18621 H 1719.51 0.0926269 -4.05794 0
M  V30 18622 H 1720.28 -2.38532 -4.22288 0
M  V30 18623 H 1716.16 -1.18148 -4.45603 0
M  V30 18624 H 1719.7 -4.52694 -5.30767 0
M  V30 18625 H 1715.6 -3.3142 -5.53924 0
M  V30 18626 H 1716.37 -5.25523 -6.27509 0
M  V30 18627 N 1719.03 1.48775 -0.519977 0
M  V30 18628 C 1719.98 2.26421 0.267886 0
M  V30 18629 C 1720.96 1.32087 0.918795 0
M  V30 18630 O 1722.16 1.56689 0.823256 0
M  V30 18631 C 1719.29 3.16896 1.3203 0
M  V30 18632 C 1718.37 4.18699 0.674688 0
M  V30 18633 N 1718.76 5.05259 -0.233769 0
M  V30 18634 C 1717.06 4.3613 0.933071 0
M  V30 18635 C 1717.76 5.78543 -0.605233 0
M  V30 18636 N 1716.74 5.43591 0.0313426 0
M  V30 18637 H 1720.54 2.9072 -0.43116 0
M  V30 18638 H 1718.05 1.58858 -0.337322 0
M  V30 18639 H 1720.05 3.71171 1.89836 0
M  V30 18640 H 1718.71 2.5415 2.02083 0
M  V30 18641 H 1719.72 5.14345 -0.605766 0
M  V30 18642 H 1716.4 3.84581 1.62492 0
M  V30 18643 H 1717.79 6.58207 -1.34957 0
M  V30 18644 N 1720.51 0.254649 1.55529 0
M  V30 18645 C 1721.46 -0.657787 2.23105 0
M  V30 18646 C 1722.45 -1.17402 1.22119 0
M  V30 18647 O 1723.66 -1.13002 1.40109 0
M  V30 18648 H 1720.03 -0.230628 0.715762 0
M  V30 18649 H 1722 -0.0647759 2.9833 0
M  V30 18650 C 1720.75 -1.84018 2.95013 0
M  V30 18651 H 1720.07 -1.45211 3.72497 0
M  V30 18652 H 1721.51 -2.45568 3.45648 0
M  V30 18653 C 1719.97 -2.7161 1.99322 0
M  V30 18654 O 1720.5 -3.7137 1.53125 0
M  V30 18655 N 1718.71 -2.38342 1.66258 0
M  V30 18656 H 1718.26 -1.57268 2.04021 0
M  V30 18657 H 1718.21 -2.97222 1.025 0
M  V30 18658 N 1721.99 -1.57589 -0.0183649 0
M  V30 18659 C 1722.93 -2.08354 -1.03398 0
M  V30 18660 C 1723.93 -0.999575 -1.36766 0
M  V30 18661 O 1725.13 -1.18438 -1.35545 0
M  V30 18662 H 1721.51 -0.665046 -0.351023 0
M  V30 18663 H 1723.48 -2.92707 -0.580111 0
M  V30 18664 C 1722.23 -2.58713 -2.32299 0
M  V30 18665 H 1721.55 -3.41744 -2.07487 0
M  V30 18666 H 1722.99 -2.97932 -3.01683 0
M  V30 18667 C 1721.45 -1.49307 -3.02008 0
M  V30 18668 O 1721.98 -0.865426 -3.92267 0
M  V30 18669 N 1720.19 -1.225 -2.63519 0
M  V30 18670 H 1719.73 -1.73724 -1.90205 0
M  V30 18671 H 1719.69 -0.495132 -3.10477 0
M  V30 18672 N 1723.46 0.290824 -1.54893 0
M  V30 18673 C 1724.71 1.02228 -1.75844 0
M  V30 18674 C 1725.07 1.84574 -0.543161 0
M  V30 18675 O 1724.36 1.85888 0.464367 0
M  V30 18676 C 1724.55 1.95145 -2.99422 0
M  V30 18677 C 1724.38 1.2194 -4.32852 0
M  V30 18678 C 1723.15 0.942376 -4.96435 0
M  V30 18679 C 1725.35 0.618727 -5.10565 0
M  V30 18680 N 1723.33 0.181668 -6.13631 0
M  V30 18681 C 1724.7 -0.00869983 -6.19999 0
M  V30 18682 C 1726.76 0.52479 -4.95127 0
M  V30 18683 C 1725.46 -0.720987 -7.15677 0
M  V30 18684 C 1727.49 -0.173865 -5.91144 0
M  V30 18685 C 1726.85 -0.790102 -6.99955 0
M  V30 18686 H 1722.95 0.356662 -0.695928 0
M  V30 18687 H 1725.53 0.299802 -1.92378 0
M  V30 18688 H 1723.7 2.64634 -2.84295 0
M  V30 18689 H 1725.43 2.61518 -3.08854 0
M  V30 18690 H 1722.19 1.24313 -4.56994 0
M  V30 18691 H 1722.61 -0.185496 -6.76746 0
M  V30 18692 H 1727.26 0.986914 -4.1112 0
M  V30 18693 H 1724.97 -1.19485 -7.99218 0
M  V30 18694 H 1728.56 -0.246628 -5.81277 0
M  V30 18695 H 1727.44 -1.32212 -7.72975 0
M  V30 18696 N 1724.94 1.47523 0.554506 0
M  V30 18697 C 1726.36 1.33101 0.880699 0
M  V30 18698 C 1726.56 0.323524 1.98886 0
M  V30 18699 O 1725.61 -0.263996 2.51116 0
M  V30 18700 C 1726.93 2.725 1.27138 0
M  V30 18701 C 1728.48 2.80805 1.38266 0
M  V30 18702 C 1728.95 4.20851 1.80688 0
M  V30 18703 N 1730.44 4.23406 1.87834 0
M  V30 18704 C 1731.18 5.28684 2.21993 0
M  V30 18705 N 1730.67 6.44264 2.54746 0
M  V30 18706 N 1732.47 5.16063 2.2279 0
M  V30 18707 H 1724.62 2.11661 -0.177062 0
M  V30 18708 H 1726.88 0.947856 -0.0165508 0
M  V30 18709 H 1726.59 3.47669 0.53093 0
M  V30 18710 H 1726.46 3.04445 2.22695 0
M  V30 18711 H 1728.85 2.05907 2.11391 0
M  V30 18712 H 1728.93 2.52511 0.408901 0
M  V30 18713 H 1728.57 4.96256 1.08131 0
M  V30 18714 H 1728.5 4.46572 2.79071 0
M  V30 18715 H 1730.99 3.40025 1.64897 0
M  V30 18716 H 1731.31 7.20351 2.79846 0
M  V30 18717 H 1729.65 6.4758 2.52321 0
M  V30 18718 H 1732.84 4.24793 1.96642 0
M  V30 18719 H 1733.01 5.98216 2.49081 0
M  V30 18720 N 1726.42 -0.801453 1.357 0
M  V30 18721 C 1727.38 -1.89514 1.28907 0
M  V30 18722 C 1728.38 -1.59559 0.19938 0
M  V30 18723 O 1729.57 -1.68196 0.453408 0
M  V30 18724 C 1726.71 -3.26044 0.995411 0
M  V30 18725 H 1727.9 -1.96956 2.2616 0
M  V30 18726 H 1725.45 -0.997899 1.20298 0
M  V30 18727 H 1726.19 -3.24289 0.0269561 0
M  V30 18728 H 1725.97 -3.49172 1.78385 0
M  V30 18729 H 1727.46 -4.06092 0.97362 0
M  V30 18730 N 1727.9 -1.19782 -1.02421 0
M  V30 18731 C 1728.83 -0.883119 -2.10419 0
M  V30 18732 C 1729.81 0.161733 -1.61794 0
M  V30 18733 O 1730.99 0.037003 -1.88464 0
M  V30 18734 C 1728.12 -0.322524 -3.37161 0
M  V30 18735 C 1727.17 -1.34717 -4.04665 0
M  V30 18736 S 1728 -2.9094 -4.49571 0
M  V30 18737 C 1729.16 -2.36436 -5.79525 0
M  V30 18738 H 1729.39 -1.79772 -2.36789 0
M  V30 18739 H 1726.92 -1.02546 -1.15428 0
M  V30 18740 H 1728.88 -0.00561772 -4.105 0
M  V30 18741 H 1727.54 0.570462 -3.08876 0
M  V30 18742 H 1726.73 -0.904136 -4.95824 0
M  V30 18743 H 1726.34 -1.61116 -3.37517 0
M  V30 18744 H 1728.63 -1.75722 -6.54315 0
M  V30 18745 H 1729.57 -3.25961 -6.28614 0
M  V30 18746 H 1729.98 -1.78841 -5.35421 0
M  V30 18747 N 1729.38 1.21606 -1.00248 0
M  V30 18748 C 1730.34 2.22107 -0.565772 0
M  V30 18749 C 1731.34 1.56798 0.356521 0
M  V30 18750 O 1732.53 1.73577 0.147154 0
M  V30 18751 C 1729.66 3.40447 0.175742 0
M  V30 18752 H 1730.86 2.62258 -1.45468 0
M  V30 18753 H 1728.41 1.34823 -0.790721 0
M  V30 18754 H 1729.14 3.05781 1.0802 0
M  V30 18755 H 1728.93 3.89069 -0.486612 0
M  V30 18756 H 1730.42 4.14957 0.469122 0
M  V30 18757 N 1730.86 0.776895 1.37121 0
M  V30 18758 C 1732.08 0.353911 2.04358 0
M  V30 18759 C 1732.51 -1.01745 1.58207 0
M  V30 18760 O 1731.86 -1.653 0.744691 0
M  V30 18761 C 1731.91 0.411918 3.5824 0
M  V30 18762 O 1731.02 -0.58576 4.08219 0
M  V30 18763 H 1730.36 0.152335 0.64629 0
M  V30 18764 H 1732.89 1.05452 1.75331 0
M  V30 18765 H 1732.9 0.271043 4.07099 0
M  V30 18766 H 1731.57 1.41236 3.91185 0
M  V30 18767 H 1730.15 -0.40758 3.70666 0
M  V30 18768 N 1732.33 -1.48497 0.527859 0
M  V30 18769 C 1733.61 -1.9547 -0.0713049 0
M  V30 18770 C 1733.99 -1.47005 -1.51502 0
M  V30 18771 O 1733.34 -0.695609 -2.17655 0
M  V30 18772 C 1733.55 -3.48973 0.0437547 0
M  V30 18773 C 1734.9 -4.2444 -0.116591 0
M  V30 18774 O 1735.92 -3.56187 -0.0301431 0
M  V30 18775 O 1734.78 -5.4569 -0.297491 0
M  V30 18776 H 1731.87 -0.823075 -0.080474 0
M  V30 18777 H 1734.42 -1.59028 0.592307 0
M  V30 18778 H 1733.19 -3.76963 1.04952 0
M  V30 18779 H 1732.81 -3.92104 -0.658803 0
M  V30 18780 N 1733.81 -0.262893 -1.55392 0
M  V30 18781 C 1735.06 0.357366 -1.99322 0
M  V30 18782 C 1735.39 1.56772 -1.15121 0
M  V30 18783 O 1734.64 1.94614 -0.205867 0
M  V30 18784 C 1734.94 0.795313 -3.48439 0
M  V30 18785 C 1734.61 -0.309047 -4.4984 0
M  V30 18786 C 1733.27 -0.612317 -4.77288 0
M  V30 18787 C 1735.62 -1.05382 -5.10435 0
M  V30 18788 C 1732.95 -1.66415 -5.62604 0
M  V30 18789 C 1735.3 -2.09528 -5.96892 0
M  V30 18790 C 1733.96 -2.40503 -6.22667 0
M  V30 18791 H 1733.23 0.13077 -0.72937 0
M  V30 18792 H 1735.88 -0.374057 -1.87811 0
M  V30 18793 H 1734.19 1.60621 -3.57363 0
M  V30 18794 H 1735.88 1.28577 -3.79828 0
M  V30 18795 H 1732.47 -0.0625469 -4.28554 0
M  V30 18796 H 1736.66 -0.832773 -4.89263 0
M  V30 18797 H 1731.91 -1.90929 -5.80824 0
M  V30 18798 H 1736.09 -2.67719 -6.42884 0
M  V30 18799 H 1733.71 -3.22143 -6.88569 0
M  V30 18800 N 1735.29 1.57597 0.0100073 0
M  V30 18801 C 1736.24 2.089 1.02292 0
M  V30 18802 C 1737.23 1.00681 1.36234 0
M  V30 18803 O 1738.44 1.19155 1.34915 0
M  V30 18804 H 1734.81 0.666899 0.347491 0
M  V30 18805 H 1736.78 2.9301 0.56458 0
M  V30 18806 C 1735.53 2.59942 2.30923 0
M  V30 18807 H 1734.86 3.4284 2.05672 0
M  V30 18808 H 1736.3 2.99528 3.00098 0
M  V30 18809 C 1734.75 1.50907 3.01212 0
M  V30 18810 O 1735.28 0.886216 3.91802 0
M  V30 18811 N 1733.49 1.23895 2.62866 0
M  V30 18812 H 1733.04 1.7473 1.89281 0
M  V30 18813 H 1733 0.511591 3.1021 0
M  V30 18814 N 1736.77 -0.282606 1.55045 0
M  V30 18815 C 1737.7 -1.35347 1.90272 0
M  V30 18816 C 1738.68 -1.52001 0.763532 0
M  V30 18817 O 1739.86 -1.65204 1.02085 0
M  V30 18818 C 1736.99 -2.71464 2.16621 0
M  V30 18819 C 1735.95 -2.69554 3.32453 0
M  V30 18820 C 1735.27 -4.09132 3.4426 0
M  V30 18821 C 1736.57 -2.29669 4.69094 0
M  V30 18822 H 1738.27 -1.06113 2.79965 0
M  V30 18823 H 1735.81 -0.509018 1.34703 0
M  V30 18824 H 1737.77 -3.46482 2.39851 0
M  V30 18825 H 1736.49 -3.02261 1.23717 0
M  V30 18826 H 1735.15 -1.96993 3.09175 0
M  V30 18827 H 1734.8 -4.37136 2.4884 0
M  V30 18828 H 1734.5 -4.08751 4.22133 0
M  V30 18829 H 1736.02 -4.85903 3.69771 0
M  V30 18830 H 1737.44 -2.94407 4.91932 0
M  V30 18831 H 1735.83 -2.40467 5.49814 0
M  V30 18832 H 1736.9 -1.24796 4.68566 0
M  V30 18833 N 1738.25 -1.47815 -0.546675 0
M  V30 18834 C 1739.66 -1.48715 -1.12875 0
M  V30 18835 C 1740.01 -0.247647 -1.94631 0
M  V30 18836 O 1739.13 0.646615 -2.06514 0
M  V30 18837 C 1739.73 -2.69459 -2.05371 0
M  V30 18838 C 1738.29 -2.73285 -2.58829 0
M  V30 18839 C 1737.43 -2.4198 -1.35429 0
M  V30 18840 H 1740.38 -1.55172 -0.332746 0
M  V30 18841 H 1740.41 -2.47028 -2.89408 0
M  V30 18842 H 1739.92 -3.59656 -1.4584 0
M  V30 18843 H 1738.02 -1.87254 -3.22128 0
M  V30 18844 H 1738.13 -3.74265 -2.99103 0
M  V30 18845 H 1736.5 -1.92783 -1.66454 0
M  V30 18846 H 1737.28 -3.34397 -0.776753 0
M  V30 18847 N 1739.72 0.794246 -1.36123 0
M  V30 18848 C 1741.13 1.36909 -1.26936 0
M  V30 18849 C 1741.49 1.9598 0.0929337 0
M  V30 18850 O 1740.61 1.92206 0.994266 0
M  V30 18851 C 1741.21 2.48906 -2.2985 0
M  V30 18852 C 1739.76 3.0222 -2.24366 0
M  V30 18853 C 1738.91 1.75264 -2.1489 0
M  V30 18854 H 1741.86 0.596278 -1.47072 0
M  V30 18855 H 1741.88 3.27794 -1.93213 0
M  V30 18856 H 1741.4 2.05884 -3.28988 0
M  V30 18857 H 1739.5 3.49675 -1.28679 0
M  V30 18858 H 1739.61 3.59363 -3.16852 0
M  V30 18859 H 1737.97 1.97306 -1.61066 0
M  V30 18860 H 1738.76 1.34377 -3.15908 0
M  V30 18861 N 1741.2 1.20323 1.01785 0
M  V30 18862 C 1742.45 1.01413 1.75623 0
M  V30 18863 C 1742.78 -0.452801 1.88847 0
M  V30 18864 O 1742.06 -1.33618 1.41338 0
M  V30 18865 C 1742.34 1.69686 3.17614 0
M  V30 18866 C 1742.19 3.23815 3.12192 0
M  V30 18867 C 1743.51 1.42891 4.16257 0
M  V30 18868 H 1740.63 0.369822 0.637495 0
M  V30 18869 H 1743.27 1.4832 1.18749 0
M  V30 18870 H 1741.42 1.29806 3.66173 0
M  V30 18871 H 1743.09 3.72981 2.71446 0
M  V30 18872 H 1741.34 3.54785 2.4962 0
M  V30 18873 H 1742.01 3.66741 4.12559 0
M  V30 18874 H 1744.48 1.77486 3.76348 0
M  V30 18875 H 1743.36 1.93195 5.13777 0
M  V30 18876 H 1743.62 0.356263 4.40662 0
M  V30 18877 N 1742.68 -1.21073 1.00892 0
M  V30 18878 C 1743.93 -1.90524 0.694879 0
M  V30 18879 C 1744.26 -1.78161 -0.772802 0
M  V30 18880 O 1743.53 -1.1608 -1.56063 0
M  V30 18881 C 1743.82 -3.42188 1.12156 0
M  V30 18882 C 1743.67 -3.63523 2.64898 0
M  V30 18883 C 1744.99 -4.34706 0.68694 0
M  V30 18884 H 1742.11 -0.69188 0.253912 0
M  V30 18885 H 1744.75 -1.42626 1.2553 0
M  V30 18886 H 1742.9 -3.83113 0.644742 0
M  V30 18887 H 1744.57 -3.31901 3.20374 0
M  V30 18888 H 1742.81 -3.07255 3.0623 0
M  V30 18889 H 1743.49 -4.69805 2.89806 0
M  V30 18890 H 1745.96 -4.01386 1.09674 0
M  V30 18891 H 1744.84 -5.3946 1.01361 0
M  V30 18892 H 1745.1 -4.40178 -0.411757 0
M  V30 18893 N 1744.16 -0.784156 -1.36707 0
M  V30 18894 C 1745.12 -0.184957 -2.28453 0
M  V30 18895 C 1746.12 0.614637 -1.4859 0
M  V30 18896 O 1747.31 0.436403 -1.68645 0
M  V30 18897 C 1744.44 0.744662 -3.32667 0
M  V30 18898 H 1745.64 -0.993861 -2.82953 0
M  V30 18899 H 1743.19 -0.553214 -1.46182 0
M  V30 18900 H 1743.92 1.57811 -2.83313 0
M  V30 18901 H 1743.71 0.173313 -3.91717 0
M  V30 18902 H 1745.2 1.15894 -4.01196 0
M  V30 18903 N 1745.64 1.48215 -0.535727 0
M  V30 18904 C 1746.58 2.29711 0.223891 0
M  V30 18905 C 1747.55 1.37727 0.928471 0
M  V30 18906 O 1748.74 1.66691 0.928375 0
M  V30 18907 C 1745.88 3.21224 1.26131 0
M  V30 18908 C 1744.99 4.2829 0.564985 0
M  V30 18909 C 1744.13 5.06976 1.58583 0
M  V30 18910 C 1743.17 6.05838 0.873288 0
M  V30 18911 N 1742.3 6.77562 1.83994 0
M  V30 18912 H 1747.14 2.94154 -0.477242 0
M  V30 18913 H 1744.68 1.45008 -0.247186 0
M  V30 18914 H 1746.64 3.72685 1.87514 0
M  V30 18915 H 1745.27 2.58693 1.93075 0
M  V30 18916 H 1744.32 3.80051 -0.162916 0
M  V30 18917 H 1745.63 4.988 0.00578231 0
M  V30 18918 H 1744.79 5.6248 2.27379 0
M  V30 18919 H 1743.52 4.36319 2.17893 0
M  V30 18920 H 1742.53 5.49533 0.171286 0
M  V30 18921 H 1743.75 6.78497 0.286219 0
M  V30 18922 H 1741.7 6.09651 2.42202 0
M  V30 18923 H 1741.62 7.44167 1.33233 0
M  V30 18924 H 1742.89 7.37652 2.51971 0
M  V30 18925 N 1747.11 0.27113 1.5525 0
M  V30 18926 C 1748.02 -0.628245 2.26031 0
M  V30 18927 C 1749.04 -1.17339 1.28481 0
M  V30 18928 O 1750.22 -1.20453 1.61409 0
M  V30 18929 C 1747.28 -1.79766 2.96454 0
M  V30 18930 C 1746.34 -1.28958 4.09473 0
M  V30 18931 C 1745.58 -2.40326 4.76528 0
M  V30 18932 O 1745.8 -3.59595 4.42772 0
M  V30 18933 O 1744.73 -2.08708 5.64557 0
M  V30 18934 H 1748.56 -0.0549756 3.0365 0
M  V30 18935 H 1746.14 0.0386859 1.4935 0
M  V30 18936 H 1748.03 -2.4796 3.40725 0
M  V30 18937 H 1746.7 -2.35809 2.21756 0
M  V30 18938 H 1745.61 -0.57422 3.69667 0
M  V30 18939 H 1746.94 -0.774945 4.86061 0
M  V30 18940 N 1748.59 -1.576 -0.00164943 0
M  V30 18941 C 1749.84 -1.89675 -0.686026 0
M  V30 18942 C 1750.15 -0.873179 -1.75028 0
M  V30 18943 O 1751.36 -1.08409 -2.48917 0
M  V30 18944 C 1749.82 -3.36696 -1.27136 0
M  V30 18945 C 1749.42 -4.47346 -0.242011 0
M  V30 18946 C 1751.17 -3.77883 -1.93402 0
M  V30 18947 C 1749.08 -5.85444 -0.837241 0
M  V30 18948 H 1748.01 -0.707756 -0.259994 0
M  V30 18949 H 1750.66 -1.83406 0.0586245 0
M  V30 18950 H 1749.04 -3.37797 -2.06662 0
M  V30 18951 H 1750.21 -4.57759 0.528539 0
M  V30 18952 H 1748.53 -4.15168 0.320118 0
M  V30 18953 H 1751.12 -4.78394 -2.38838 0
M  V30 18954 H 1751.47 -3.11311 -2.76389 0
M  V30 18955 H 1752 -3.79075 -1.20612 0
M  V30 18956 H 1748.74 -6.55484 -0.04619 0
M  V30 18957 H 1748.26 -5.78698 -1.57699 0
M  V30 18958 H 1749.94 -6.33048 -1.33637 0
M  V30 18959 N 1750.07 0.274379 -1.55193 0
M  V30 18960 C 1751.32 1.00766 -1.75995 0
M  V30 18961 C 1751.65 1.8599 -0.558679 0
M  V30 18962 O 1750.92 1.8937 0.443784 0
M  V30 18963 C 1751.21 1.89137 -3.0643 0
M  V30 18964 C 1751.06 1.06914 -4.36909 0
M  V30 18965 C 1752.38 2.87869 -3.32896 0
M  V30 18966 H 1749.5 0.364915 -0.640317 0
M  V30 18967 H 1752.14 0.280156 -1.87923 0
M  V30 18968 H 1750.29 2.51166 -2.96391 0
M  V30 18969 H 1751.96 0.469666 -4.58903 0
M  V30 18970 H 1750.21 0.372566 -4.32197 0
M  V30 18971 H 1750.88 1.72063 -5.24498 0
M  V30 18972 H 1753.35 2.35974 -3.42718 0
M  V30 18973 H 1752.23 3.46845 -4.25429 0
M  V30 18974 H 1752.49 3.62921 -2.52469 0
M  V30 18975 N 1751.55 1.48103 0.538828 0
M  V30 18976 C 1752.51 1.61495 1.62641 0
M  V30 18977 C 1753.51 0.488792 1.53191 0
M  V30 18978 O 1754.7 0.754355 1.57019 0
M  V30 18979 C 1751.83 1.57681 3.02241 0
M  V30 18980 H 1753.03 2.58462 1.5211 0
M  V30 18981 H 1750.58 1.36567 0.760201 0
M  V30 18982 H 1751.31 0.621583 3.18287 0
M  V30 18983 H 1751.1 2.3943 3.10509 0
M  V30 18984 H 1752.59 1.70228 3.81329 0
M  V30 18985 N 1753.03 -0.787016 1.36542 0
M  V30 18986 C 1754.25 -1.58103 1.34231 0
M  V30 18987 C 1754.68 -1.87956 -0.0734932 0
M  V30 18988 O 1754.03 -1.48073 -1.04615 0
M  V30 18989 C 1754.08 -2.87739 2.17345 0
M  V30 18990 O 1753.19 -3.81445 1.56759 0
M  V30 18991 H 1752.53 -0.479495 0.459326 0
M  V30 18992 H 1755.06 -0.975294 1.79859 0
M  V30 18993 H 1755.07 -3.36986 2.3001 0
M  V30 18994 H 1753.74 -2.65338 3.20264 0
M  V30 18995 H 1752.32 -3.40046 1.53047 0
M  V30 18996 N 1754.5 -1.20861 -1.01145 0
M  V30 18997 C 1755.74 -1.03327 -1.7636 0
M  V30 18998 C 1756.11 0.426539 -1.87202 0
M  V30 18999 O 1757.31 0.722219 -2.58916 0
M  V30 19000 C 1755.58 -1.70397 -3.14165 0
M  V30 19001 S 1757.14 -1.68033 -4.05352 0
M  V30 19002 H 1753.96 -0.370402 -0.606896 0
M  V30 19003 H 1756.56 -1.53501 -1.21069 0
M  V30 19004 H 1755.26 -2.7581 -3.03903 0
M  V30 19005 H 1754.79 -1.20375 -3.74531 0
M  V30 19006 H 1756.81 -0.716849 -4.90995 0
M  V30 19007 N 1755.98 1.20536 -1.01532 0
M  V30 19008 C 1757.26 1.85545 -0.619063 0
M  V30 19009 C 1757.64 1.90816 0.902916 0
M  V30 19010 O 1756.99 1.41506 1.79411 0
M  V30 19011 C 1757.2 3.25252 -1.26539 0
M  V30 19012 C 1758.55 4.01547 -1.38003 0
M  V30 19013 O 1759.57 3.34601 -1.22151 0
M  V30 19014 O 1758.43 5.21436 -1.63605 0
M  V30 19015 H 1755.52 0.798985 -0.21343 0
M  V30 19016 H 1758.07 1.28136 -1.11262 0
M  V30 19017 H 1756.84 3.16174 -2.30542 0
M  V30 19018 H 1756.46 3.90292 -0.758833 0
M  V30 19019 N 1757.46 0.791395 1.36289 0
M  V30 19020 C 1758.41 0.189246 2.30023 0
M  V30 19021 C 1759.38 -0.668045 1.52074 0
M  V30 19022 O 1760.56 -0.61631 1.80572 0
M  V30 19023 C 1757.7 -0.668391 3.38565 0
M  V30 19024 C 1756.82 0.207659 4.31501 0
M  V30 19025 C 1755.95 -0.656539 5.27127 0
M  V30 19026 C 1754.99 0.220845 6.11701 0
M  V30 19027 N 1754.13 -0.602449 6.99511 0
M  V30 19028 H 1758.97 0.994038 2.80932 0
M  V30 19029 H 1756.5 0.501759 1.38278 0
M  V30 19030 H 1758.46 -1.18064 4.00146 0
M  V30 19031 H 1757.09 -1.43859 2.88971 0
M  V30 19032 H 1756.14 0.837894 3.71057 0
M  V30 19033 H 1757.46 0.883613 4.90911 0
M  V30 19034 H 1756.61 -1.23452 5.94007 0
M  V30 19035 H 1755.35 -1.36611 4.68176 0
M  V30 19036 H 1754.35 0.811214 5.43782 0
M  V30 19037 H 1755.58 0.928049 6.72729 0
M  V30 19038 H 1753.52 -1.29628 6.43065 0
M  V30 19039 H 1753.44 0.015783 7.55998 0
M  V30 19040 H 1754.71 -1.16419 7.70757 0
M  V30 19041 N 1758.94 -1.47929 0.54358 0
M  V30 19042 C 1760.18 -2.04393 0.0166462 0
M  V30 19043 C 1760.54 -1.41025 -1.30291 0
M  V30 19044 O 1761.74 -1.88456 -1.91671 0
M  V30 19045 C 1760.02 -3.5729 -0.0888261 0
M  V30 19046 S 1761.57 -4.35162 -0.563857 0
M  V30 19047 H 1758.39 -0.710757 0.0185863 0
M  V30 19048 H 1760.99 -1.81471 0.727226 0
M  V30 19049 H 1759.7 -4.00938 0.876155 0
M  V30 19050 H 1759.23 -3.84687 -0.823374 0
M  V30 19051 H 1761.24 -4.6138 -1.82601 0
M  V30 19052 N 1760.42 -0.27936 -1.55104 0
M  V30 19053 C 1761.35 0.639572 -2.20096 0
M  V30 19054 C 1762.36 1.11423 -1.18696 0
M  V30 19055 O 1763.55 1.0354 -1.45402 0
M  V30 19056 C 1760.65 1.88494 -2.81644 0
M  V30 19057 C 1759.82 1.55639 -4.08773 0
M  V30 19058 C 1758.88 2.65466 -4.54328 0
M  V30 19059 O 1757.91 2.31473 -5.20008 0
M  V30 19060 N 1759.11 3.95606 -4.24825 0
M  V30 19061 H 1761.88 0.0833048 -2.99584 0
M  V30 19062 H 1759.44 -0.100637 -1.61587 0
M  V30 19063 H 1761.43 2.61272 -3.09062 0
M  V30 19064 H 1760 2.35015 -2.06123 0
M  V30 19065 H 1759.22 0.662253 -3.88597 0
M  V30 19066 H 1760.51 1.31196 -4.91594 0
M  V30 19067 H 1759.91 4.26043 -3.72161 0
M  V30 19068 H 1758.46 4.64748 -4.57004 0
M  V30 19069 N 1761.9 1.57599 -0.0067085 0
M  V30 19070 C 1762.83 2.11878 0.981331 0
M  V30 19071 C 1763.81 1.02949 1.35408 0
M  V30 19072 O 1764.99 1.30667 1.43665 0
M  V30 19073 C 1762.12 2.62757 2.27104 0
M  V30 19074 C 1761.08 3.76272 2.0397 0
M  V30 19075 C 1760.4 4.13491 3.39012 0
M  V30 19076 C 1761.7 5.03274 1.39688 0
M  V30 19077 H 1763.4 2.94683 0.529366 0
M  V30 19078 H 1760.94 1.41757 0.253187 0
M  V30 19079 H 1762.89 2.99359 2.96585 0
M  V30 19080 H 1761.62 1.77082 2.74426 0
M  V30 19081 H 1760.28 3.40074 1.36913 0
M  V30 19082 H 1759.93 3.24831 3.8405 0
M  V30 19083 H 1759.63 4.89972 3.24347 0
M  V30 19084 H 1761.15 4.52657 4.09797 0
M  V30 19085 H 1762.56 5.37604 1.99136 0
M  V30 19086 H 1760.96 5.84604 1.3549 0
M  V30 19087 H 1762.03 4.8351 0.366928 0
M  V30 19088 N 1763.37 -0.266145 1.55336 0
M  V30 19089 C 1764.32 -1.32914 1.88686 0
M  V30 19090 C 1765.29 -1.48752 0.739048 0
M  V30 19091 O 1766.48 -1.63048 0.990951 0
M  V30 19092 C 1763.62 -2.68317 2.17026 0
M  V30 19093 C 1762.73 -2.60644 3.44512 0
M  V30 19094 C 1761.86 -3.88271 3.62517 0
M  V30 19095 C 1760.9 -3.75137 4.83672 0
M  V30 19096 N 1760.04 -4.94614 4.98299 0
M  V30 19097 H 1764.88 -1.03774 2.79347 0
M  V30 19098 H 1762.42 -0.501205 1.38298 0
M  V30 19099 H 1764.37 -3.47107 2.31458 0
M  V30 19100 H 1763 -2.95645 1.29591 0
M  V30 19101 H 1762.06 -1.73527 3.38515 0
M  V30 19102 H 1763.37 -2.46842 4.3344 0
M  V30 19103 H 1762.52 -4.75503 3.76804 0
M  V30 19104 H 1761.26 -4.04949 2.71787 0
M  V30 19105 H 1760.27 -2.86289 4.69381 0
M  V30 19106 H 1761.49 -3.59973 5.75844 0
M  V30 19107 H 1759.44 -5.11689 4.10501 0
M  V30 19108 H 1759.35 -4.83369 5.81284 0
M  V30 19109 H 1760.62 -5.83399 5.16978 0
M  V30 19110 N 1764.85 -1.48386 -0.530967 0
M  V30 19111 C 1766.1 -1.56045 -1.28431 0
M  V30 19112 C 1766.42 -0.235695 -1.9357 0
M  V30 19113 O 1765.69 0.742677 -1.81276 0
M  V30 19114 H 1764.27 -0.574868 -0.477007 0
M  V30 19115 H 1766.93 -1.84844 -0.617955 0
M  V30 19116 H 1766.03 -2.34096 -2.0641 0
M  V30 19117 N 1766.33 0.779763 -1.36958 0
M  V30 19118 C 1767.24 1.92394 -1.34245 0
M  V30 19119 C 1768.26 1.72292 -0.243187 0
M  V30 19120 O 1769.43 1.95665 -0.477211 0
M  V30 19121 C 1766.5 3.27402 -1.14057 0
M  V30 19122 C 1765.56 3.60213 -2.33548 0
M  V30 19123 C 1764.79 4.88779 -2.14314 0
M  V30 19124 O 1765.01 5.59231 -1.12327 0
M  V30 19125 O 1763.95 5.20469 -3.02316 0
M  V30 19126 H 1767.77 1.97633 -2.30596 0
M  V30 19127 H 1765.36 0.921386 -1.17605 0
M  V30 19128 H 1767.24 4.08172 -1.04755 0
M  V30 19129 H 1765.92 3.23033 -0.207744 0
M  V30 19130 H 1764.82 2.7971 -2.48421 0
M  V30 19131 H 1766.16 3.69317 -3.25371 0
M  V30 19132 N 1767.81 1.21396 1.00503 0
M  V30 19133 C 1768.77 0.974756 2.07439 0
M  V30 19134 C 1769.77 -0.0542142 1.60709 0
M  V30 19135 O 1770.96 0.183056 1.73236 0
M  V30 19136 C 1768.09 0.46989 3.37646 0
M  V30 19137 H 1769.29 1.92346 2.30094 0
M  V30 19138 H 1766.84 1.03095 1.17479 0
M  V30 19139 H 1767.57 -0.483735 3.20672 0
M  V30 19140 H 1767.36 1.2121 3.72895 0
M  V30 19141 H 1768.85 0.322393 4.16354 0
M  V30 19142 N 1769.29 -1.19996 1.0217 0
M  V30 19143 C 1770.22 -2.21695 0.540962 0
M  V30 19144 C 1771.2 -1.57232 -0.414343 0
M  V30 19145 O 1772.38 -1.85533 -0.33314 0
M  V30 19146 C 1769.51 -3.38035 -0.212109 0
M  V30 19147 C 1768.55 -4.20824 0.693529 0
M  V30 19148 S 1769.39 -4.89756 2.16562 0
M  V30 19149 C 1770.54 -6.09513 1.42286 0
M  V30 19150 H 1770.78 -2.62131 1.40267 0
M  V30 19151 H 1768.31 -1.30128 0.831026 0
M  V30 19152 H 1770.27 -4.05473 -0.640484 0
M  V30 19153 H 1768.93 -2.96049 -1.04945 0
M  V30 19154 H 1768.12 -5.03874 0.112557 0
M  V30 19155 H 1767.72 -3.58667 1.05991 0
M  V30 19156 H 1770.01 -6.73816 0.705585 0
M  V30 19157 H 1770.96 -6.72079 2.22969 0
M  V30 19158 H 1771.37 -5.56895 0.923499 0
M  V30 19159 N 1770.76 -0.798611 -1.35867 0
M  V30 19160 C 1771.71 -0.176275 -2.27318 0
M  V30 19161 C 1772.7 0.64521 -1.47397 0
M  V30 19162 O 1773.89 0.503776 -1.69679 0
M  V30 19163 C 1771.02 0.680716 -3.36483 0
M  V30 19164 C 1770.1 -0.150062 -4.23834 0
M  V30 19165 N 1770.5 -1.20913 -4.91135 0
M  V30 19166 C 1768.79 0.0696135 -4.45946 0
M  V30 19167 C 1769.49 -1.71566 -5.55824 0
M  V30 19168 N 1768.47 -1.02339 -5.3388 0
M  V30 19169 H 1772.27 -0.986741 -2.7684 0
M  V30 19170 H 1769.79 -0.638977 -1.49301 0
M  V30 19171 H 1771.78 1.14254 -4.00938 0
M  V30 19172 H 1770.44 1.48962 -2.88514 0
M  V30 19173 H 1771.45 -1.59169 -4.92834 0
M  V30 19174 H 1768.13 0.848295 -4.08791 0
M  V30 19175 H 1769.52 -2.60035 -6.19541 0
M  V30 19176 N 1772.24 1.47639 -0.551417 0
M  V30 19177 C 1773.49 2.02084 -0.0251553 0
M  V30 19178 C 1773.81 1.42872 1.32713 0
M  V30 19179 O 1773.08 0.601794 1.86428 0
M  V30 19180 H 1771.66 0.746973 -0.00631005 0
M  V30 19181 H 1774.32 1.81109 -0.720113 0
M  V30 19182 H 1773.42 3.12028 0.0672608 0
M  V30 19183 N 1773.72 0.287581 1.54954 0
M  V30 19184 C 1774.65 -0.62789 2.20432 0
M  V30 19185 C 1775.67 -1.10792 1.19286 0
M  V30 19186 O 1776.85 -1.02768 1.45949 0
M  V30 19187 C 1773.95 -1.86998 2.82639 0
M  V30 19188 C 1773.13 -1.53469 4.09592 0
M  V30 19189 C 1772.19 -2.63053 4.5573 0
M  V30 19190 O 1771.21 -2.28712 5.21229 0
M  V30 19191 N 1772.41 -3.93348 4.26917 0
M  V30 19192 H 1775.18 -0.067416 2.99624 0
M  V30 19193 H 1772.74 0.109205 1.61531 0
M  V30 19194 H 1774.73 -2.59629 3.10443 0
M  V30 19195 H 1773.3 -2.33919 2.07366 0
M  V30 19196 H 1772.52 -0.641635 3.88943 0
M  V30 19197 H 1773.81 -1.28587 4.92283 0
M  V30 19198 H 1773.21 -4.24063 3.74415 0
M  V30 19199 H 1771.77 -4.62318 4.59462 0
M  V30 19200 N 1775.2 -1.57593 0.0150662 0
M  V30 19201 C 1776.44 -1.91497 -0.667587 0
M  V30 19202 C 1776.78 -0.890493 -1.7258 0
M  V30 19203 O 1776.05 0.0887462 -1.94297 0
M  V30 19204 C 1776.34 -3.35934 -1.29694 0
M  V30 19205 C 1776.19 -4.49109 -0.249242 0
M  V30 19206 C 1777.51 -3.80068 -2.21893 0
M  V30 19207 H 1774.63 -0.696408 -0.241217 0
M  V30 19208 H 1777.27 -1.89873 0.0694484 0
M  V30 19209 H 1775.42 -3.37448 -1.92512 0
M  V30 19210 H 1777.09 -4.59729 0.380417 0
M  V30 19211 H 1775.33 -4.31695 0.426861 0
M  V30 19212 H 1776 -5.47166 -0.728934 0
M  V30 19213 H 1778.48 -3.80201 -1.69076 0
M  V30 19214 H 1777.36 -4.81852 -2.62887 0
M  V30 19215 H 1777.62 -3.1478 -3.10429 0
M  V30 19216 N 1776.68 0.257904 -1.55475 0
M  V30 19217 C 1777.95 1.00965 -1.67528 0
M  V30 19218 C 1778.33 2.03763 -0.551694 0
M  V30 19219 O 1777.68 2.24099 0.446314 0
M  V30 19220 C 1777.89 1.65289 -3.07377 0
M  V30 19221 C 1779.24 2.15888 -3.65619 0
M  V30 19222 O 1780.26 1.7525 -3.10106 0
M  V30 19223 O 1779.12 2.90471 -4.62913 0
M  V30 19224 H 1776.22 0.469266 -0.680969 0
M  V30 19225 H 1778.76 0.252562 -1.6781 0
M  V30 19226 H 1777.53 0.908769 -3.80601 0
M  V30 19227 H 1777.16 2.47646 -3.11058 0
M  V30 19228 N 1778.15 1.48666 0.52309 0
M  V30 19229 C 1779.39 1.58636 1.28895 0
M  V30 19230 C 1779.76 0.257403 1.90267 0
M  V30 19231 O 1780.96 0.232139 2.67796 0
M  V30 19232 C 1779.23 2.69794 2.34406 0
M  V30 19233 S 1780.79 2.99574 3.20625 0
M  V30 19234 H 1777.61 0.559793 0.438353 0
M  V30 19235 H 1780.21 1.86221 0.595137 0
M  V30 19236 H 1778.91 3.64904 1.87811 0
M  V30 19237 H 1778.44 2.44132 3.08485 0
M  V30 19238 H 1780.46 2.394 4.34629 0
M  V30 19239 N 1779.63 -0.772489 1.37369 0
M  V30 19240 C 1780.86 -1.56671 1.35901 0
M  V30 19241 C 1781.28 -1.88024 -0.0535538 0
M  V30 19242 O 1780.64 -1.49174 -1.03038 0
M  V30 19243 C 1780.69 -2.85417 2.20384 0
M  V30 19244 O 1779.79 -3.79761 1.60796 0
M  V30 19245 H 1779.13 -0.474596 0.464386 0
M  V30 19246 H 1781.66 -0.956162 1.80883 0
M  V30 19247 H 1781.67 -3.34527 2.33571 0
M  V30 19248 H 1780.35 -2.61926 3.2306 0
M  V30 19249 H 1778.93 -3.38403 1.56645 0
M  V30 19250 N 1781.11 -1.21927 -0.998575 0
M  V30 19251 C 1782.52 -1.03808 -1.5518 0
M  V30 19252 C 1782.87 0.400202 -1.92075 0
M  V30 19253 O 1782 1.28436 -1.74164 0
M  V30 19254 C 1782.59 -1.87814 -2.81978 0
M  V30 19255 C 1781.15 -1.74008 -3.33764 0
M  V30 19256 C 1780.3 -1.8463 -2.06899 0
M  V30 19257 H 1783.25 -1.35855 -0.820305 0
M  V30 19258 H 1783.27 -1.39219 -3.54116 0
M  V30 19259 H 1782.78 -2.92487 -2.55094 0
M  V30 19260 H 1780.88 -0.720445 -3.65569 0
M  V30 19261 H 1781 -2.56348 -4.0475 0
M  V30 19262 H 1779.36 -1.28007 -2.20196 0
M  V30 19263 H 1780.14 -2.90824 -1.82419 0
M  V30 19264 N 1782.59 1.19452 -1.02805 0
M  V30 19265 C 1783.84 1.8874 -0.722599 0
M  V30 19266 C 1784.16 1.79957 0.751028 0
M  V30 19267 O 1783.43 1.20949 1.54104 0
M  V30 19268 H 1782.01 0.698683 -0.264294 0
M  V30 19269 H 1784.67 1.45021 -1.30211 0
M  V30 19270 H 1783.77 2.95094 -1.01617 0
M  V30 19271 N 1784.07 0.805805 1.35442 0
M  V30 19272 C 1785.32 0.382303 1.98044 0
M  V30 19273 C 1785.63 -1.05602 1.64644 0
M  V30 19274 O 1786.83 -1.5826 2.20604 0
M  V30 19275 C 1785.29 0.632619 3.54296 0
M  V30 19276 C 1784.9 2.08344 3.96607 0
M  V30 19277 C 1786.64 0.274435 4.23612 0
M  V30 19278 C 1784.55 2.27954 5.45702 0
M  V30 19279 H 1783.48 0.13921 0.741037 0
M  V30 19280 H 1786.13 0.989752 1.54519 0
M  V30 19281 H 1784.51 -0.0447699 3.95975 0
M  V30 19282 H 1785.69 2.79857 3.66083 0
M  V30 19283 H 1784 2.40142 3.40178 0
M  V30 19284 H 1786.6 0.399019 5.33209 0
M  V30 19285 H 1786.94 -0.779292 4.08941 0
M  V30 19286 H 1787.47 0.90571 3.87352 0
M  V30 19287 H 1784.21 3.3177 5.6534 0
M  V30 19288 H 1783.73 1.60965 5.77798 0
M  V30 19289 H 1785.41 2.09469 6.12153 0
M  V30 19290 N 1785.54 -1.47344 0.559239 0
M  V30 19291 C 1786.79 -2.03352 0.0442371 0
M  V30 19292 C 1787.15 -1.42567 -1.29199 0
M  V30 19293 O 1786.44 -0.572705 -1.8284 0
M  V30 19294 C 1786.63 -3.57247 -0.104523 0
M  V30 19295 C 1786.46 -4.32955 1.21574 0
M  V30 19296 C 1785.23 -4.72775 1.78359 0
M  V30 19297 C 1787.43 -4.67962 2.13345 0
M  V30 19298 N 1785.41 -5.33135 3.04369 0
M  V30 19299 C 1786.78 -5.28646 3.23934 0
M  V30 19300 C 1788.84 -4.49891 2.13314 0
M  V30 19301 C 1787.54 -5.73167 4.34595 0
M  V30 19302 C 1789.57 -4.95412 3.22988 0
M  V30 19303 C 1788.93 -5.56146 4.32297 0
M  V30 19304 H 1785.03 -0.779816 0.0584005 0
M  V30 19305 H 1787.61 -1.79801 0.746976 0
M  V30 19306 H 1785.78 -3.80561 -0.776387 0
M  V30 19307 H 1787.51 -3.99895 -0.621775 0
M  V30 19308 H 1784.27 -4.54794 1.32133 0
M  V30 19309 H 1784.69 -5.67857 3.68602 0
M  V30 19310 H 1789.34 -4.0229 1.30086 0
M  V30 19311 H 1787.05 -6.19757 5.18581 0
M  V30 19312 H 1790.64 -4.83198 3.24054 0
M  V30 19313 H 1789.52 -5.90728 5.15762 0
M  V30 19314 N 1787.02 -0.295795 -1.54799 0
M  V30 19315 C 1787.95 0.616191 -2.20762 0
M  V30 19316 C 1788.97 1.10157 -1.19872 0
M  V30 19317 O 1790.16 1.01992 -1.46492 0
M  V30 19318 C 1787.26 1.85497 -2.83627 0
M  V30 19319 C 1786.43 1.51295 -4.10401 0
M  V30 19320 C 1785.49 2.60633 -4.57118 0
M  V30 19321 O 1784.51 2.25945 -5.22434 0
M  V30 19322 N 1785.72 3.91078 -4.28997 0
M  V30 19323 H 1788.48 0.0515252 -2.99656 0
M  V30 19324 H 1786.04 -0.11777 -1.61471 0
M  V30 19325 H 1788.03 2.57979 -3.11816 0
M  V30 19326 H 1786.6 2.32816 -2.08604 0
M  V30 19327 H 1785.82 0.621 -3.89278 0
M  V30 19328 H 1787.11 1.25974 -4.92958 0
M  V30 19329 H 1786.51 4.22072 -3.76659 0
M  V30 19330 H 1785.07 4.59875 -4.61907 0
M  V30 19331 N 1788.5 1.57583 -0.0234236 0
M  V30 19332 C 1789.43 2.12907 0.958804 0
M  V30 19333 C 1790.41 1.0438 1.34309 0
M  V30 19334 O 1791.6 1.32184 1.42271 0
M  V30 19335 C 1788.73 2.65151 2.24304 0
M  V30 19336 C 1787.68 3.78414 1.99967 0
M  V30 19337 C 1787.01 4.17064 3.34607 0
M  V30 19338 C 1788.31 5.04727 1.34342 0
M  V30 19339 H 1790 2.95228 0.498081 0
M  V30 19340 H 1787.55 1.42017 0.238138 0
M  V30 19341 H 1789.5 3.02487 2.93393 0
M  V30 19342 H 1788.22 1.79983 2.72532 0
M  V30 19343 H 1786.88 3.41507 1.33298 0
M  V30 19344 H 1786.53 3.28886 3.80583 0
M  V30 19345 H 1786.23 4.93385 3.19132 0
M  V30 19346 H 1787.76 4.56978 4.04973 0
M  V30 19347 H 1789.17 5.39686 1.93422 0
M  V30 19348 H 1787.57 5.86009 1.29282 0
M  V30 19349 H 1788.64 4.83872 0.315625 0
M  V30 19350 N 1789.98 -0.249655 1.5561 0
M  V30 19351 C 1791.26 -1.00075 1.68061 0
M  V30 19352 C 1791.64 -2.03468 0.562492 0
M  V30 19353 O 1790.98 -2.24332 -0.434424 0
M  V30 19354 C 1791.19 -1.63657 3.08249 0
M  V30 19355 C 1792.54 -2.13946 3.66759 0
M  V30 19356 O 1793.57 -1.73603 3.11031 0
M  V30 19357 O 1792.43 -2.88012 4.64447 0
M  V30 19358 H 1789.52 -0.465648 0.683448 0
M  V30 19359 H 1792.07 -0.243659 1.67942 0
M  V30 19360 H 1790.84 -0.888572 3.81078 0
M  V30 19361 H 1790.46 -2.45993 3.12367 0
M  V30 19362 N 1791.46 -1.48941 -0.515198 0
M  V30 19363 C 1792.7 -1.59318 -1.28052 0
M  V30 19364 C 1793.06 -0.26749 -1.90128 0
M  V30 19365 O 1794.26 -0.246338 -2.67669 0
M  V30 19366 C 1792.53 -2.71033 -2.32972 0
M  V30 19367 S 1794.09 -3.01271 -3.19032 0
M  V30 19368 H 1790.91 -0.56211 -0.435378 0
M  V30 19369 H 1793.51 -1.86534 -0.585253 0
M  V30 19370 H 1792.22 -3.65895 -1.85873 0
M  V30 19371 H 1791.75 -2.45765 -3.07186 0
M  V30 19372 H 1793.76 -2.41702 -4.33353 0
M  V30 19373 N 1792.94 0.765193 -1.37777 0
M  V30 19374 C 1794.16 1.55436 -1.36556 0
M  V30 19375 C 1794.58 1.8874 0.0475187 0
M  V30 19376 O 1793.94 1.51933 1.01107 0
M  V30 19377 C 1793.99 2.86063 -2.21021 0
M  V30 19378 O 1793.71 2.54183 -3.56823 0
M  V30 19379 C 1795.21 3.80261 -2.27851 0
M  V30 19380 H 1792.43 0.481331 -0.467506 0
M  V30 19381 H 1794.97 0.947906 -1.81204 0
M  V30 19382 H 1793.13 3.43114 -1.79864 0
M  V30 19383 H 1793.54 3.37879 -4.01171 0
M  V30 19384 H 1795.02 4.68904 -2.91261 0
M  V30 19385 H 1795.49 4.19865 -1.28881 0
M  V30 19386 H 1796.1 3.29137 -2.69349 0
M  V30 19387 N 1794.41 1.22455 0.992094 0
M  V30 19388 C 1795.36 0.962645 2.06681 0
M  V30 19389 C 1796.35 -0.0870288 1.60664 0
M  V30 19390 O 1797.54 0.123596 1.76568 0
M  V30 19391 C 1794.67 0.54316 3.38976 0
M  V30 19392 C 1793.75 1.62761 3.91625 0
M  V30 19393 N 1794.15 2.85548 4.17488 0
M  V30 19394 C 1792.44 1.49948 4.20038 0
M  V30 19395 C 1793.14 3.55677 4.60292 0
M  V30 19396 N 1792.12 2.83152 4.64032 0
M  V30 19397 H 1795.92 1.89534 2.24619 0
M  V30 19398 H 1793.44 1.1222 1.1739 0
M  V30 19399 H 1795.43 0.336841 4.15537 0
M  V30 19400 H 1794.09 -0.382629 3.22438 0
M  V30 19401 H 1795.1 3.21968 4.05657 0
M  V30 19402 H 1791.78 0.639937 4.12566 0
M  V30 19403 H 1793.17 4.60878 4.88918 0
M  V30 19404 N 1795.89 -1.18905 1.03437 0
M  V30 19405 C 1796.82 -2.24539 0.640669 0
M  V30 19406 C 1797.8 -1.66396 -0.353024 0
M  V30 19407 O 1798.99 -1.92779 -0.234522 0
M  V30 19408 C 1796.12 -3.473 -0.00367731 0
M  V30 19409 C 1795.07 -4.18151 0.912881 0
M  V30 19410 C 1794.4 -5.34534 0.133347 0
M  V30 19411 C 1795.7 -4.72342 2.22913 0
M  V30 19412 H 1797.39 -2.57726 1.52374 0
M  V30 19413 H 1794.94 -1.23883 0.734098 0
M  V30 19414 H 1796.89 -4.20396 -0.290783 0
M  V30 19415 H 1795.61 -3.13328 -0.921578 0
M  V30 19416 H 1794.27 -3.46945 1.18427 0
M  V30 19417 H 1793.92 -4.96809 -0.786762 0
M  V30 19418 H 1793.62 -5.82872 0.743905 0
M  V30 19419 H 1795.15 -6.10423 -0.146889 0
M  V30 19420 H 1796.56 -5.37165 2.00317 0
M  V30 19421 H 1794.96 -5.31189 2.79209 0
M  V30 19422 H 1796.03 -3.90108 2.87999 0
M  V30 19423 N 1797.37 -0.812977 -1.35013 0
M  V30 19424 C 1798.28 -0.229534 -2.33474 0
M  V30 19425 C 1799.3 0.630837 -1.62162 0
M  V30 19426 O 1800.47 0.541083 -1.93995 0
M  V30 19427 C 1797.54 0.607055 -3.41344 0
M  V30 19428 C 1796.6 -0.274554 -4.28421 0
M  V30 19429 C 1795.83 0.522202 -5.31139 0
M  V30 19430 O 1796.05 1.75636 -5.42686 0
M  V30 19431 O 1794.99 -0.0902666 -6.01832 0
M  V30 19432 H 1798.81 -1.04423 -2.85183 0
M  V30 19433 H 1796.4 -0.5749 -1.37896 0
M  V30 19434 H 1798.28 1.08335 -4.07236 0
M  V30 19435 H 1796.96 1.39924 -2.91895 0
M  V30 19436 H 1795.86 -0.798124 -3.65487 0
M  V30 19437 H 1797.2 -1.03084 -4.81284 0
M  V30 19438 N 1798.85 1.47045 -0.567045 0
M  V30 19439 C 1800.1 2.02046 -0.0465877 0
M  V30 19440 C 1800.42 1.44271 1.3119 0
M  V30 19441 O 1799.69 0.621533 1.85779 0
M  V30 19442 H 1798.27 0.746864 -0.0142323 0
M  V30 19443 H 1800.93 1.80335 -0.739281 0
M  V30 19444 H 1800.02 3.12081 0.0341623 0
M  V30 19445 N 1800.33 0.304 1.5464 0
M  V30 19446 C 1801.27 -0.570762 2.23631 0
M  V30 19447 C 1802.24 -1.1272 1.21998 0
M  V30 19448 O 1803.43 -1.17117 1.50626 0
M  V30 19449 C 1800.57 -1.73533 2.98296 0
M  V30 19450 C 1799.68 -1.21 4.14708 0
M  V30 19451 C 1798.82 -2.33867 4.76948 0
M  V30 19452 C 1797.85 -1.78483 5.855 0
M  V30 19453 N 1796.99 -2.84935 6.41682 0
M  V30 19454 H 1801.83 0.024168 2.9799 0
M  V30 19455 H 1799.37 0.023697 1.47081 0
M  V30 19456 H 1801.33 -2.42031 3.39819 0
M  V30 19457 H 1799.96 -2.30184 2.26308 0
M  V30 19458 H 1799.01 -0.41718 3.78105 0
M  V30 19459 H 1800.32 -0.764576 4.92905 0
M  V30 19460 H 1799.47 -3.10306 5.21339 0
M  V30 19461 H 1798.21 -2.81737 3.9809 0
M  V30 19462 H 1797.22 -1.00534 5.4053 0
M  V30 19463 H 1798.44 -1.31513 6.66244 0
M  V30 19464 H 1796.39 -3.32133 5.65706 0
M  V30 19465 H 1796.31 -2.44898 7.15235 0
M  V30 19466 H 1797.57 -3.61263 6.90731 0
M  V30 19467 N 1801.8 -1.57568 0.0317802 0
M  V30 19468 C 1803.05 -1.92194 -0.647238 0
M  V30 19469 C 1803.38 -0.908747 -1.71626 0
M  V30 19470 O 1802.66 0.0681334 -1.94381 0
M  V30 19471 C 1802.94 -3.3729 -1.26124 0
M  V30 19472 C 1802.79 -4.49348 -0.201594 0
M  V30 19473 C 1804.11 -3.824 -2.17849 0
M  V30 19474 H 1801.23 -0.698927 -0.233817 0
M  V30 19475 H 1803.87 -1.89789 0.0895831 0
M  V30 19476 H 1802.02 -3.39471 -1.88922 0
M  V30 19477 H 1803.7 -4.59299 0.429155 0
M  V30 19478 H 1801.94 -4.31218 0.472624 0
M  V30 19479 H 1802.61 -5.47908 -0.670859 0
M  V30 19480 H 1805.09 -3.81972 -1.65034 0
M  V30 19481 H 1803.96 -4.84614 -2.57761 0
M  V30 19482 H 1804.22 -3.18054 -3.07073 0
M  V30 19483 N 1803.28 0.241399 -1.5574 0
M  V30 19484 C 1804.53 0.966607 -1.7703 0
M  V30 19485 C 1804.84 1.86275 -0.59673 0
M  V30 19486 O 1806.05 2.62513 -0.692775 0
M  V30 19487 C 1804.51 1.7688 -3.13435 0
M  V30 19488 C 1804.11 0.919775 -4.38457 0
M  V30 19489 C 1805.86 2.48641 -3.44061 0
M  V30 19490 C 1803.77 1.71817 -5.65891 0
M  V30 19491 H 1802.7 0.364644 -0.659963 0
M  V30 19492 H 1805.35 0.221088 -1.82163 0
M  V30 19493 H 1803.73 2.55648 -3.02424 0
M  V30 19494 H 1804.9 0.174036 -4.60471 0
M  V30 19495 H 1803.22 0.315234 -4.15205 0
M  V30 19496 H 1805.81 3.08839 -4.36489 0
M  V30 19497 H 1806.16 3.20534 -2.65638 0
M  V30 19498 H 1806.69 1.7688 -3.56312 0
M  V30 19499 H 1803.43 1.04289 -6.47151 0
M  V30 19500 H 1802.95 2.43905 -5.47969 0
M  V30 19501 H 1804.63 2.28392 -6.05348 0
M  V30 19502 N 1804.76 1.49212 0.507292 0
M  V30 19503 C 1805.69 1.68326 1.61829 0
M  V30 19504 C 1806.67 0.531969 1.61568 0
M  V30 19505 O 1807.86 0.767104 1.78407 0
M  V30 19506 C 1804.99 1.74394 3.0034 0
M  V30 19507 C 1803.94 2.89251 3.15465 0
M  V30 19508 C 1803.27 2.80426 4.55264 0
M  V30 19509 C 1804.57 4.30269 2.96085 0
M  V30 19510 H 1806.26 2.6134 1.46087 0
M  V30 19511 H 1803.81 1.25765 0.701367 0
M  V30 19512 H 1805.76 1.86353 3.77956 0
M  V30 19513 H 1804.48 0.779748 3.17155 0
M  V30 19514 H 1803.14 2.76884 2.40272 0
M  V30 19515 H 1802.79 1.81928 4.68947 0
M  V30 19516 H 1802.49 3.57511 4.66326 0
M  V30 19517 H 1804.01 2.94384 5.34949 0
M  V30 19518 H 1805.43 4.4335 3.63475 0
M  V30 19519 H 1803.83 5.08527 3.18623 0
M  V30 19520 H 1804.9 4.45151 1.92272 0
M  V30 19521 N 1806.24 -0.757876 1.38181 0
M  V30 19522 C 1807.48 -1.51912 1.34352 0
M  V30 19523 C 1807.82 -1.94082 -0.0677003 0
M  V30 19524 O 1807.09 -1.65114 -1.02799 0
M  V30 19525 C 1807.38 -2.77466 2.29531 0
M  V30 19526 C 1807.23 -2.41462 3.79495 0
M  V30 19527 C 1808.55 -3.79469 2.22915 0
M  V30 19528 H 1805.67 -0.551091 0.489355 0
M  V30 19529 H 1808.31 -0.868376 1.68995 0
M  V30 19530 H 1806.46 -3.32994 2.00119 0
M  V30 19531 H 1808.13 -1.91742 4.19562 0
M  V30 19532 H 1806.37 -1.73976 3.97385 0
M  V30 19533 H 1807.04 -3.31272 4.41546 0
M  V30 19534 H 1809.52 -3.33471 2.48871 0
M  V30 19535 H 1808.4 -4.6502 2.91629 0
M  V30 19536 H 1808.66 -4.24744 1.22658 0
M  V30 19537 N 1807.72 -1.22979 -0.985586 0
M  V30 19538 C 1808.68 -1.00763 -2.05862 0
M  V30 19539 C 1809.68 0.02864 -1.60774 0
M  V30 19540 O 1810.87 -0.210593 -1.72922 0
M  V30 19541 C 1808 -0.523547 -3.36856 0
M  V30 19542 H 1809.19 -1.95982 -2.27004 0
M  V30 19543 H 1806.75 -1.0495 -1.15824 0
M  V30 19544 H 1807.48 0.432658 -3.21401 0
M  V30 19545 H 1807.27 -1.27127 -3.70919 0
M  V30 19546 H 1808.76 -0.388591 -4.15788 0
M  V30 19547 N 1809.19 1.18355 -1.04066 0
M  V30 19548 C 1810.44 1.88614 -0.745148 0
M  V30 19549 C 1810.77 1.80147 0.725294 0
M  V30 19550 O 1810.05 1.20177 1.5293 0
M  V30 19551 C 1810.33 3.39095 -1.2119 0
M  V30 19552 C 1810.18 3.56372 -2.74444 0
M  V30 19553 C 1811.5 4.32732 -0.801953 0
M  V30 19554 H 1808.62 0.684905 -0.272166 0
M  V30 19555 H 1811.26 1.39248 -1.29267 0
M  V30 19556 H 1809.41 3.81269 -0.746091 0
M  V30 19557 H 1811.09 3.2329 -3.29061 0
M  V30 19558 H 1809.33 2.99028 -3.14269 0
M  V30 19559 H 1810 4.61956 -3.0216 0
M  V30 19560 H 1812.48 3.98337 -1.20278 0
M  V30 19561 H 1811.35 5.36583 -1.15628 0
M  V30 19562 H 1811.61 4.41115 0.294907 0
M  V30 19563 N 1810.67 0.820125 1.3458 0
M  V30 19564 C 1811.62 0.212417 2.27008 0
M  V30 19565 C 1812.61 -0.621679 1.48405 0
M  V30 19566 O 1813.8 -0.476717 1.70459 0
M  V30 19567 C 1810.93 -0.627099 3.37524 0
M  V30 19568 C 1810.01 0.217471 4.23542 0
M  V30 19569 N 1810.4 1.28711 4.89149 0
M  V30 19570 C 1808.7 0.00134142 4.46 0
M  V30 19571 C 1809.4 1.80387 5.53024 0
M  V30 19572 N 1808.38 1.10819 5.32184 0
M  V30 19573 H 1812.18 1.03066 2.75236 0
M  V30 19574 H 1809.7 0.662649 1.48266 0
M  V30 19575 H 1811.69 -1.07861 4.02705 0
M  V30 19576 H 1810.35 -1.44353 2.90847 0
M  V30 19577 H 1811.36 1.66989 4.9024 0
M  V30 19578 H 1808.04 -0.783152 4.10089 0
M  V30 19579 H 1809.43 2.69858 6.15326 0
M  V30 19580 N 1812.15 -1.46743 0.574835 0
M  V30 19581 C 1813.4 -2.02718 0.0575005 0
M  V30 19582 C 1813.73 -1.4463 -1.29599 0
M  V30 19583 O 1813 -0.608422 -1.84739 0
M  V30 19584 C 1813.29 -3.60096 -0.016719 0
M  V30 19585 C 1813.14 -4.28584 1.36511 0
M  V30 19586 C 1814.46 -4.34149 -0.721324 0
M  V30 19587 H 1811.58 -0.73666 0.0223697 0
M  V30 19588 H 1814.22 -1.74975 0.74052 0
M  V30 19589 H 1812.37 -3.83864 -0.598396 0
M  V30 19590 H 1814.04 -4.16104 1.99135 0
M  V30 19591 H 1812.29 -3.88253 1.935 0
M  V30 19592 H 1812.96 -5.37293 1.26573 0
M  V30 19593 H 1815.43 -4.15479 -0.227256 0
M  V30 19594 H 1814.31 -5.43858 -0.742263 0
M  V30 19595 H 1814.57 -4.04637 -1.78106 0
M  V30 19596 N 1813.63 -0.312197 -1.54477 0
M  V30 19597 C 1814.59 0.54612 -2.22599 0
M  V30 19598 C 1815.59 1.05252 -1.21568 0
M  V30 19599 O 1816.78 0.946756 -1.46226 0
M  V30 19600 C 1813.91 1.75733 -2.92114 0
M  V30 19601 H 1815.11 -0.0492216 -2.9986 0
M  V30 19602 H 1812.66 -0.063149 -1.56172 0
M  V30 19603 H 1813.39 2.39221 -2.18961 0
M  V30 19604 H 1813.18 1.40175 -3.66188 0
M  V30 19605 H 1814.67 2.36685 -3.44049 0
M  V30 19606 N 1815.11 1.57549 -0.040136 0
M  V30 19607 C 1816.33 1.96967 0.649517 0
M  V30 19608 C 1816.76 0.917056 1.64231 0
M  V30 19609 O 1816.11 -0.120899 1.80896 0
M  V30 19610 C 1816.16 3.35471 1.32256 0
M  V30 19611 O 1815.27 3.32615 2.43806 0
M  V30 19612 H 1814.61 0.641933 0.169758 0
M  V30 19613 H 1817.14 2.04329 -0.105261 0
M  V30 19614 H 1817.15 3.71951 1.6768 0
M  V30 19615 H 1815.82 4.11623 0.594895 0
M  V30 19616 H 1814.4 3.07867 2.10411 0
M  V30 19617 N 1816.58 -0.233136 1.55866 0
M  V30 19618 C 1817.83 -0.957324 1.77988 0
M  V30 19619 C 1818.15 -1.85325 0.606593 0
M  V30 19620 O 1817.42 -1.92237 -0.377047 0
M  V30 19621 H 1816 -0.356474 0.656457 0
M  V30 19622 H 1818.67 -0.247774 1.93319 0
M  V30 19623 H 1817.76 -1.57096 2.6968 0
M  V30 19624 N 1818.06 -1.49479 -0.499372 0
M  V30 19625 C 1819.29 -1.62524 -1.27552 0
M  V30 19626 C 1819.7 -0.296533 -1.86862 0
M  V30 19627 O 1819.04 0.728236 -1.68649 0
M  V30 19628 C 1819.11 -2.63674 -2.44369 0
M  V30 19629 C 1818.77 -4.0798 -2.05916 0
M  V30 19630 C 1819.77 -4.94733 -1.59797 0
M  V30 19631 C 1817.45 -4.53723 -2.15501 0
M  V30 19632 C 1819.45 -6.25268 -1.23768 0
M  V30 19633 C 1817.13 -5.84271 -1.79084 0
M  V30 19634 C 1818.13 -6.69867 -1.33292 0
M  V30 19635 O 1817.82 -7.97982 -0.97368 0
M  V30 19636 H 1817.55 -0.550018 -0.393009 0
M  V30 19637 H 1820.11 -1.96261 -0.605856 0
M  V30 19638 H 1818.34 -2.2512 -3.14417 0
M  V30 19639 H 1820.02 -2.66231 -3.06392 0
M  V30 19640 H 1820.79 -4.6062 -1.51836 0
M  V30 19641 H 1816.67 -3.87264 -2.50095 0
M  V30 19642 H 1820.21 -6.92033 -0.879542 0
M  V30 19643 H 1816.11 -6.17912 -1.86695 0
M  V30 19644 H 1816.88 -8.11007 -1.10501 0
M  V30 19645 N 1819.54 0.750537 -1.38581 0
M  V30 19646 C 1820.79 1.50512 -1.34272 0
M  V30 19647 C 1821.1 1.95496 0.0636858 0
M  V30 19648 O 1822.31 2.7053 0.22932 0
M  V30 19649 C 1820.77 2.71891 -2.35803 0
M  V30 19650 C 1820.37 2.3392 -3.8208 0
M  V30 19651 C 1822.12 3.4977 -2.40543 0
M  V30 19652 C 1820.02 3.51928 -4.7529 0
M  V30 19653 H 1818.95 0.56515 -0.49912 0
M  V30 19654 H 1821.61 0.820167 -1.64151 0
M  V30 19655 H 1819.99 3.42383 -1.98972 0
M  V30 19656 H 1821.16 1.71075 -4.27867 0
M  V30 19657 H 1819.48 1.69168 -3.80488 0
M  V30 19658 H 1822.07 4.37519 -3.07379 0
M  V30 19659 H 1822.42 3.91141 -1.42527 0
M  V30 19660 H 1822.95 2.86294 -2.76189 0
M  V30 19661 H 1819.69 3.15621 -5.74512 0
M  V30 19662 H 1819.21 4.13807 -4.34194 0
M  V30 19663 H 1820.89 4.1847 -4.93449 0
M  V30 19664 N 1821.02 1.235 0.979051 0
M  V30 19665 C 1821.93 1.03412 2.10578 0
M  V30 19666 C 1822.95 -0.0217644 1.73986 0
M  V30 19667 O 1824.12 0.173977 2.00647 0
M  V30 19668 C 1821.19 0.629192 3.40943 0
M  V30 19669 C 1820.25 1.76028 3.91552 0
M  V30 19670 C 1819.48 1.37457 5.15695 0
M  V30 19671 O 1819.7 0.259393 5.6981 0
M  V30 19672 O 1818.64 2.19614 5.60404 0
M  V30 19673 H 1822.46 1.97845 2.30415 0
M  V30 19674 H 1820.05 1.02218 1.08958 0
M  V30 19675 H 1821.93 0.414372 4.19358 0
M  V30 19676 H 1820.61 -0.286128 3.22433 0
M  V30 19677 H 1819.51 2.02975 3.14248 0
M  V30 19678 H 1820.85 2.65396 4.14519 0
M  V30 19679 N 1822.5 -1.17802 1.04693 0
M  V30 19680 C 1823.46 -2.19854 0.647816 0
M  V30 19681 C 1824.46 -1.58013 -0.298081 0
M  V30 19682 O 1825.65 -1.74004 -0.0826309 0
M  V30 19683 C 1822.78 -3.40864 -0.0492661 0
M  V30 19684 H 1823.98 -2.56678 1.55101 0
M  V30 19685 H 1821.53 -1.31796 0.840215 0
M  V30 19686 H 1822.26 -3.0958 -0.965967 0
M  V30 19687 H 1822.05 -3.86995 0.630677 0
M  V30 19688 H 1823.54 -4.16412 -0.31479 0
M  V30 19689 N 1823.98 -0.827251 -1.34143 0
M  V30 19690 C 1824.89 -0.254285 -2.33218 0
M  V30 19691 C 1825.9 0.613602 -1.62822 0
M  V30 19692 O 1827.08 0.520477 -1.94558 0
M  V30 19693 C 1824.14 0.570817 -3.41969 0
M  V30 19694 C 1823.2 -0.319978 -4.28106 0
M  V30 19695 C 1822.44 0.465839 -5.31663 0
M  V30 19696 O 1822.66 1.6987 -5.44518 0
M  V30 19697 O 1821.59 -0.154094 -6.01703 0
M  V30 19698 H 1825.42 -1.07441 -2.8406 0
M  V30 19699 H 1823 -0.589493 -1.37278 0
M  V30 19700 H 1824.89 1.04009 -4.08363 0
M  V30 19701 H 1823.56 1.3682 -2.93363 0
M  V30 19702 H 1822.47 -0.836843 -3.6462 0
M  V30 19703 H 1823.8 -1.08183 -4.80164 0
M  V30 19704 N 1825.45 1.46436 -0.582609 0
M  V30 19705 C 1826.7 2.02685 -0.0682503 0
M  V30 19706 C 1827.03 1.45315 1.2883 0
M  V30 19707 O 1826.31 0.61821 1.84414 0
M  V30 19708 C 1826.59 3.601 -0.00237797 0
M  V30 19709 C 1826.44 4.27855 -1.38782 0
M  V30 19710 C 1827.76 4.34525 0.69829 0
M  V30 19711 H 1824.88 0.736531 -0.0262761 0
M  V30 19712 H 1827.52 1.7458 -0.749789 0
M  V30 19713 H 1825.67 3.84176 0.57803 0
M  V30 19714 H 1827.35 4.15043 -2.01339 0
M  V30 19715 H 1825.59 3.87221 -1.95557 0
M  V30 19716 H 1826.26 5.36614 -1.2942 0
M  V30 19717 H 1828.74 4.15594 0.205219 0
M  V30 19718 H 1827.61 5.44244 0.71341 0
M  V30 19719 H 1827.87 4.05575 1.75957 0
M  V30 19720 N 1826.93 0.320385 1.54309 0
M  V30 19721 C 1828.18 -0.284021 1.9969 0
M  V30 19722 C 1828.49 -1.53496 1.21237 0
M  V30 19723 O 1829.7 -2.21517 1.5698 0
M  V30 19724 C 1828.16 -0.556621 3.5557 0
M  V30 19725 C 1827.76 0.677086 4.42854 0
M  V30 19726 C 1829.51 -1.12116 4.09427 0
M  V30 19727 C 1827.41 0.376566 5.902 0
M  V30 19728 H 1826.34 -0.109905 0.745947 0
M  V30 19729 H 1829 0.432113 1.7834 0
M  V30 19730 H 1827.38 -1.33286 3.72895 0
M  V30 19731 H 1828.55 1.45266 4.37304 0
M  V30 19732 H 1826.87 1.16161 3.99869 0
M  V30 19733 H 1829.46 -1.36057 5.171 0
M  V30 19734 H 1829.81 -2.06954 3.61215 0
M  V30 19735 H 1830.34 -0.406174 3.95721 0
M  V30 19736 H 1827.08 1.29403 6.426 0
M  V30 19737 H 1826.6 -0.36136 5.9871 0
M  V30 19738 H 1828.28 -0.014773 6.46998 0
M  V30 19739 N 1828.41 -1.57525 0.0484906 0
M  V30 19740 C 1829.82 -1.80221 -0.487592 0
M  V30 19741 C 1830.17 -0.96049 -1.71082 0
M  V30 19742 O 1829.3 -0.17632 -2.1568 0
M  V30 19743 C 1829.89 -3.26864 -0.89136 0
M  V30 19744 C 1828.45 -3.50487 -1.37244 0
M  V30 19745 C 1827.6 -2.75129 -0.346348 0
M  V30 19746 H 1830.55 -1.5631 0.274392 0
M  V30 19747 H 1830.57 -3.37637 -1.75446 0
M  V30 19748 H 1830.08 -3.881 -0.000880924 0
M  V30 19749 H 1828.18 -2.94528 -2.2822 0
M  V30 19750 H 1828.3 -4.592 -1.36645 0
M  V30 19751 H 1826.66 -2.41185 -0.818653 0
M  V30 19752 H 1827.44 -3.3909 0.536 0
M  V30 19753 N 1829.89 0.224867 -1.55988 0
M  V30 19754 C 1830.85 1.26214 -1.91318 0
M  V30 19755 C 1831.85 1.39973 -0.791472 0
M  V30 19756 O 1833.04 1.38295 -1.05926 0
M  V30 19757 C 1830.17 2.63648 -2.16107 0
M  V30 19758 H 1831.37 0.960933 -2.84088 0
M  V30 19759 H 1828.92 0.465138 -1.49218 0
M  V30 19760 H 1829.65 2.98873 -1.25878 0
M  V30 19761 H 1829.44 2.5504 -2.97821 0
M  V30 19762 H 1830.93 3.38505 -2.44548 0
M  V30 19763 N 1831.37 1.49742 0.491438 0
M  V30 19764 C 1832.28 1.69866 1.6181 0
M  V30 19765 C 1833.29 0.581386 1.64 0
M  V30 19766 O 1834.47 0.857263 1.82244 0
M  V30 19767 C 1831.53 1.76965 2.98135 0
M  V30 19768 C 1830.59 3.00597 3.06496 0
M  V30 19769 C 1829.83 3.07348 4.36317 0
M  V30 19770 O 1830.05 2.21432 5.25665 0
M  V30 19771 O 1828.98 3.99898 4.4985 0
M  V30 19772 H 1832.81 2.65332 1.47759 0
M  V30 19773 H 1830.39 1.33596 0.668761 0
M  V30 19774 H 1832.28 1.83932 3.7914 0
M  V30 19775 H 1830.95 0.846807 3.12427 0
M  V30 19776 H 1829.86 2.99142 2.24643 0
M  V30 19777 H 1831.19 3.92393 2.97133 0
M  V30 19778 N 1832.84 -0.743177 1.38977 0
M  V30 19779 C 1834.07 -1.53243 1.39011 0
M  V30 19780 C 1834.49 -1.88792 -0.0174858 0
M  V30 19781 O 1833.84 -1.53523 -0.986766 0
M  V30 19782 C 1833.9 -2.8251 2.25544 0
M  V30 19783 O 1833.62 -2.48474 3.60821 0
M  V30 19784 C 1835.12 -3.76588 2.33872 0
M  V30 19785 H 1832.34 -0.473832 0.475104 0
M  V30 19786 H 1834.88 -0.918958 1.82689 0
M  V30 19787 H 1833.04 -3.4021 1.853 0
M  V30 19788 H 1833.45 -3.31454 4.06495 0
M  V30 19789 H 1834.92 -4.64211 2.98684 0
M  V30 19790 H 1835.4 -4.17761 1.35544 0
M  V30 19791 H 1836.01 -3.24811 2.74551 0
M  V30 19792 N 1834.32 -1.24018 -0.972487 0
M  V30 19793 C 1835.57 -1.07489 -1.71145 0
M  V30 19794 C 1835.89 0.387798 -1.91105 0
M  V30 19795 O 1835.16 1.27725 -1.48537 0
M  V30 19796 H 1833.74 -0.394765 -0.634168 0
M  V30 19797 H 1836.4 -1.55861 -1.17018 0
M  V30 19798 H 1835.5 -1.56913 -2.69786 0
M  V30 19799 N 1835.8 1.17245 -1.05316 0
M  V30 19800 C 1836.73 2.20844 -0.613228 0
M  V30 19801 C 1837.75 1.5955 0.323671 0
M  V30 19802 O 1838.93 1.78121 0.116209 0
M  V30 19803 C 1836.03 3.38679 0.122482 0
M  V30 19804 C 1835.21 4.29541 -0.825429 0
M  V30 19805 C 1834.27 5.26038 -0.130752 0
M  V30 19806 O 1833.29 5.64032 -0.765248 0
M  V30 19807 N 1834.49 5.69369 1.13136 0
M  V30 19808 H 1837.26 2.5921 -1.50434 0
M  V30 19809 H 1834.82 1.32156 -0.935221 0
M  V30 19810 H 1836.81 4.00267 0.597368 0
M  V30 19811 H 1835.38 2.989 0.915278 0
M  V30 19812 H 1834.6 3.65366 -1.47991 0
M  V30 19813 H 1835.89 4.87138 -1.46882 0
M  V30 19814 H 1835.29 5.40576 1.66716 0
M  V30 19815 H 1833.85 6.33095 1.55029 0
M  V30 19816 N 1837.28 0.834353 1.33702 0
M  V30 19817 C 1838.19 0.266649 2.3308 0
M  V30 19818 C 1839.2 -0.604958 1.63145 0
M  V30 19819 O 1840.38 -0.510151 1.94832 0
M  V30 19820 C 1837.45 -0.552673 3.42267 0
M  V30 19821 C 1836.51 0.342677 4.2793 0
M  V30 19822 C 1835.74 -0.437637 5.31903 0
M  V30 19823 O 1835.96 -1.6698 5.45412 0
M  V30 19824 O 1834.9 0.186001 6.01613 0
M  V30 19825 H 1838.72 1.08946 2.83486 0
M  V30 19826 H 1836.31 0.596765 1.36964 0
M  V30 19827 H 1838.19 -1.01842 4.08908 0
M  V30 19828 H 1836.86 -1.35263 2.94085 0
M  V30 19829 H 1835.77 0.856168 3.64171 0
M  V30 19830 H 1837.1 1.10728 4.79583 0
M  V30 19831 N 1838.76 -1.46125 0.590367 0
M  V30 19832 C 1839.98 -2.06726 0.0847301 0
M  V30 19833 C 1840.4 -1.43788 -1.22354 0
M  V30 19834 O 1839.76 -0.545876 -1.74145 0
M  V30 19835 C 1839.81 -3.61412 -0.079655 0
M  V30 19836 O 1839.53 -4.21998 1.17684 0
M  V30 19837 C 1841.03 -4.38961 -0.618754 0
M  V30 19838 H 1838.25 -0.668226 0.0609525 0
M  V30 19839 H 1840.79 -1.87636 0.813212 0
M  V30 19840 H 1838.95 -3.79904 -0.758389 0
M  V30 19841 H 1839.36 -5.14966 0.995528 0
M  V30 19842 H 1840.84 -5.47759 -0.682926 0
M  V30 19843 H 1841.31 -4.07537 -1.63739 0
M  V30 19844 H 1841.92 -4.25292 0.0253632 0
M  V30 19845 N 1840.23 -0.328564 -1.54137 0
M  V30 19846 C 1841.2 0.52248 -2.23165 0
M  V30 19847 C 1842.2 1.03956 -1.22677 0
M  V30 19848 O 1843.39 0.931193 -1.47222 0
M  V30 19849 C 1840.52 1.72624 -2.93962 0
M  V30 19850 H 1841.71 -0.081023 -2.99791 0
M  V30 19851 H 1839.27 -0.0797096 -1.56097 0
M  V30 19852 H 1840 2.36885 -2.21486 0
M  V30 19853 H 1839.79 1.36283 -3.67654 0
M  V30 19854 H 1841.28 2.33023 -3.4654 0
M  V30 19855 N 1841.71 1.57497 -0.0568439 0
M  V30 19856 C 1842.94 1.96945 0.624196 0
M  V30 19857 C 1843.35 0.933312 1.64578 0
M  V30 19858 O 1842.69 -0.0902107 1.83478 0
M  V30 19859 C 1842.76 3.32652 1.3632 0
M  V30 19860 C 1842.42 4.54292 0.496798 0
M  V30 19861 C 1843.42 5.19348 -0.239466 0
M  V30 19862 C 1841.1 5.0049 0.426059 0
M  V30 19863 C 1843.1 6.28943 -1.03485 0
M  V30 19864 C 1840.78 6.09961 -0.373005 0
M  V30 19865 C 1841.78 6.74049 -1.10214 0
M  V30 19866 O 1841.47 7.81414 -1.88805 0
M  V30 19867 H 1841.2 0.652944 0.175043 0
M  V30 19868 H 1843.75 2.05042 -0.121272 0
M  V30 19869 H 1841.98 3.21126 2.15442 0
M  V30 19870 H 1843.67 3.56808 1.93502 0
M  V30 19871 H 1844.44 4.84611 -0.194318 0
M  V30 19872 H 1840.32 4.50394 0.983188 0
M  V30 19873 H 1843.86 6.78898 -1.60447 0
M  V30 19874 H 1839.76 6.44134 -0.419771 0
M  V30 19875 H 1840.53 7.98219 -1.81077 0
M  V30 19876 N 1843.19 -0.216591 1.56105 0
M  V30 19877 C 1844.44 -0.940249 1.79348 0
M  V30 19878 C 1844.77 -1.84135 0.626451 0
M  V30 19879 O 1844.02 -1.91796 -0.388932 0
M  V30 19880 C 1844.32 -1.80637 3.08391 0
M  V30 19881 C 1843.99 -1.05808 4.3831 0
M  V30 19882 C 1842.65 -0.851392 4.73608 0
M  V30 19883 C 1845 -0.530015 5.18498 0
M  V30 19884 C 1842.33 -0.104822 5.86606 0
M  V30 19885 C 1844.68 0.203236 6.32273 0
M  V30 19886 C 1843.34 0.42113 6.6617 0
M  V30 19887 H 1842.61 -0.344062 0.656279 0
M  V30 19888 H 1845.26 -0.208069 1.90366 0
M  V30 19889 H 1843.57 -2.60656 2.92516 0
M  V30 19890 H 1845.26 -2.36852 3.23577 0
M  V30 19891 H 1841.85 -1.22915 4.10597 0
M  V30 19892 H 1846.04 -0.677154 4.91659 0
M  V30 19893 H 1841.29 0.074177 6.11355 0
M  V30 19894 H 1845.47 0.619898 6.93636 0
M  V30 19895 H 1843.09 1.00155 7.53573 0
M  V30 19896 N 1844.67 -1.5 -0.48349 0
M  V30 19897 C 1845.92 -1.59612 -1.23317 0
M  V30 19898 C 1846.23 -0.29614 -1.93345 0
M  V30 19899 O 1847.44 -0.271008 -2.70144 0
M  V30 19900 C 1845.89 -2.81692 -2.24003 0
M  V30 19901 C 1845.5 -4.18518 -1.59834 0
M  V30 19902 C 1847.24 -3.00643 -2.9969 0
M  V30 19903 C 1845.15 -5.31799 -2.58735 0
M  V30 19904 H 1844.08 -0.594352 -0.463963 0
M  V30 19905 H 1846.73 -1.76414 -0.505016 0
M  V30 19906 H 1845.11 -2.58422 -3.00057 0
M  V30 19907 H 1846.29 -4.51994 -0.896542 0
M  V30 19908 H 1844.6 -4.0507 -0.964743 0
M  V30 19909 H 1847.2 -3.82445 -3.73684 0
M  V30 19910 H 1847.54 -2.11883 -3.58345 0
M  V30 19911 H 1848.08 -3.24035 -2.30751 0
M  V30 19912 H 1844.82 -6.22674 -2.04836 0
M  V30 19913 H 1844.34 -5.02756 -3.27103 0
M  V30 19914 H 1846.01 -5.61861 -3.20814 0
M  V30 19915 N 1846.15 0.735796 -1.39369 0
M  V30 19916 C 1847.08 1.86303 -1.4076 0
M  V30 19917 C 1848.06 1.67926 -0.27107 0
M  V30 19918 O 1849.24 1.88257 -0.476773 0
M  V30 19919 C 1846.37 3.24043 -1.24955 0
M  V30 19920 C 1845.33 3.57055 -2.35999 0
M  V30 19921 C 1844.65 4.93723 -2.05284 0
M  V30 19922 C 1845.95 3.60109 -3.7831 0
M  V30 19923 H 1847.65 1.85396 -2.35093 0
M  V30 19924 H 1845.19 0.890552 -1.1316 0
M  V30 19925 H 1847.15 4.02574 -1.24549 0
M  V30 19926 H 1845.87 3.25475 -0.270902 0
M  V30 19927 H 1844.53 2.80853 -2.35621 0
M  V30 19928 H 1844.18 4.91734 -1.05859 0
M  V30 19929 H 1843.88 5.16779 -2.79667 0
M  V30 19930 H 1845.4 5.74612 -2.06527 0
M  V30 19931 H 1846.81 4.28718 -3.80622 0
M  V30 19932 H 1845.21 3.94683 -4.52046 0
M  V30 19933 H 1846.28 2.59932 -4.09345 0
M  V30 19934 N 1847.63 1.24532 0.965897 0
M  V30 19935 C 1848.57 1.03929 2.06076 0
M  V30 19936 C 1849.54 -0.0479997 1.66031 0
M  V30 19937 O 1850.73 0.106979 1.905 0
M  V30 19938 C 1847.87 0.652084 3.38883 0
M  V30 19939 C 1846.98 1.81304 3.92113 0
M  V30 19940 C 1846.12 1.37125 5.13196 0
M  V30 19941 C 1845.15 2.50204 5.58627 0
M  V30 19942 N 1844.29 2.0688 6.70929 0
M  V30 19943 H 1849.13 1.97636 2.23033 0
M  V30 19944 H 1846.67 0.984356 1.09311 0
M  V30 19945 H 1848.63 0.408608 4.15194 0
M  V30 19946 H 1847.26 -0.247995 3.21846 0
M  V30 19947 H 1846.31 2.17013 3.12425 0
M  V30 19948 H 1847.62 2.66264 4.21788 0
M  V30 19949 H 1846.77 1.08676 5.96887 0
M  V30 19950 H 1845.51 0.492215 4.8521 0
M  V30 19951 H 1844.52 2.7941 4.73508 0
M  V30 19952 H 1845.74 3.38667 5.88627 0
M  V30 19953 H 1843.69 1.21377 6.44673 0
M  V30 19954 H 1843.61 2.85392 7.00062 0
M  V30 19955 H 1844.87 1.81575 7.58057 0
M  V30 19956 N 1849.1 -1.16685 1.05936 0
M  V30 19957 C 1850.03 -2.23129 0.688153 0
M  V30 19958 C 1851.01 -1.67108 -0.31765 0
M  V30 19959 O 1852.2 -1.93233 -0.193578 0
M  V30 19960 C 1849.33 -3.47229 0.069991 0
M  V30 19961 C 1848.28 -4.16121 1.00137 0
M  V30 19962 C 1847.61 -5.34131 0.246699 0
M  V30 19963 C 1848.91 -4.67508 2.32882 0
M  V30 19964 H 1850.6 -2.54436 1.57806 0
M  V30 19965 H 1848.15 -1.22298 0.76021 0
M  V30 19966 H 1850.1 -4.20918 -0.201545 0
M  V30 19967 H 1848.83 -3.15212 -0.854909 0
M  V30 19968 H 1847.49 -3.44355 1.25759 0
M  V30 19969 H 1847.13 -4.98366 -0.681204 0
M  V30 19970 H 1846.83 -5.81163 0.867373 0
M  V30 19971 H 1848.36 -6.10598 -0.0173762 0
M  V30 19972 H 1849.77 -5.32795 2.11666 0
M  V30 19973 H 1848.17 -5.25147 2.90414 0
M  V30 19974 H 1849.24 -3.83912 2.96209 0
M  V30 19975 N 1850.58 -0.841432 -1.33258 0
M  V30 19976 C 1851.54 -0.281685 -2.27462 0
M  V30 19977 C 1852.54 0.551062 -1.51063 0
M  V30 19978 O 1853.73 0.364482 -1.70344 0
M  V30 19979 C 1850.87 0.602896 -3.35526 0
M  V30 19980 H 1852.06 -1.11298 -2.78483 0
M  V30 19981 H 1849.61 -0.614717 -1.43704 0
M  V30 19982 H 1850.35 1.45652 -2.89751 0
M  V30 19983 H 1850.13 0.00701634 -3.92099 0
M  V30 19984 H 1851.62 0.987735 -4.05751 0
M  V30 19985 N 1852.06 1.4581 -0.598108 0
M  V30 19986 C 1853.31 2.01902 -0.0894342 0
M  V30 19987 C 1853.63 1.47021 1.281 0
M  V30 19988 O 1852.9 0.6608 1.84419 0
M  V30 19989 H 1851.48 0.746394 -0.0300712 0
M  V30 19990 H 1854.14 1.78726 -0.777367 0
M  V30 19991 H 1853.24 3.12084 -0.0320424 0
M  V30 19992 N 1853.54 0.336733 1.53961 0
M  V30 19993 C 1854.95 -0.0154439 1.59593 0
M  V30 19994 C 1855.15 -1.49328 1.35291 0
M  V30 19995 O 1854.21 -2.25107 1.14381 0
M  V30 19996 C 1855.52 0.414613 2.97828 0
M  V30 19997 C 1857.07 0.36638 3.10848 0
M  V30 19998 C 1857.55 0.7718 4.5145 0
M  V30 19999 N 1859.04 0.725719 4.5748 0
M  V30 20000 C 1859.77 1.01145 5.64409 0
M  V30 20001 N 1859.27 1.36499 6.7922 0
M  V30 20002 N 1861.06 0.936141 5.5425 0
M  V30 20003 H 1853.21 1.29944 1.68012 0
M  V30 20004 H 1855.47 0.529259 0.786504 0
M  V30 20005 H 1855.18 1.44476 3.20655 0
M  V30 20006 H 1855.05 -0.21367 3.76594 0
M  V30 20007 H 1857.44 -0.65458 2.87749 0
M  V30 20008 H 1857.52 1.02978 2.34157 0
M  V30 20009 H 1857.17 1.79074 4.75284 0
M  V30 20010 H 1857.1 0.0859543 5.2653 0
M  V30 20011 H 1859.59 0.464858 3.7503 0
M  V30 20012 H 1859.9 1.56805 7.56725 0
M  V30 20013 H 1858.25 1.40338 6.80684 0
M  V30 20014 H 1861.44 0.659334 4.63433 0
M  V30 20015 H 1861.61 1.16217 6.37493 0
M  V30 20016 N 1855.02 -1.57465 0.0651956 0
M  V30 20017 C 1856.26 -1.94338 -0.600351 0
M  V30 20018 C 1856.62 -0.944581 -1.67617 0
M  V30 20019 O 1855.91 0.0341492 -1.9157 0
M  V30 20020 C 1856.1 -3.35656 -1.2276 0
M  V30 20021 C 1855.93 -4.4919 -0.214068 0
M  V30 20022 C 1854.7 -5.04908 0.198933 0
M  V30 20023 C 1856.9 -5.11393 0.546079 0
M  V30 20024 N 1854.88 -6.0198 1.20386 0
M  V30 20025 C 1856.25 -6.03901 1.40368 0
M  V30 20026 C 1858.31 -4.94237 0.602866 0
M  V30 20027 C 1857.01 -6.81097 2.313 0
M  V30 20028 C 1859.04 -5.7207 1.49967 0
M  V30 20029 C 1858.4 -6.64222 2.34496 0
M  V30 20030 H 1854.5 -0.758339 -0.190908 0
M  V30 20031 H 1857.08 -1.9419 0.1408 0
M  V30 20032 H 1855.25 -3.36554 -1.93871 0
M  V30 20033 H 1856.99 -3.59782 -1.85308 0
M  V30 20034 H 1853.74 -4.73247 -0.182861 0
M  V30 20035 H 1854.16 -6.55214 1.70364 0
M  V30 20036 H 1858.81 -4.22784 -0.0364468 0
M  V30 20037 H 1856.52 -7.51831 2.9627 0
M  V30 20038 H 1860.11 -5.60818 1.54836 0
M  V30 20039 H 1858.99 -7.23397 3.02765 0
M  V30 20040 N 1856.49 0.20831 -1.56217 0
M  V30 20041 C 1857.9 0.774162 -1.69893 0
M  V30 20042 C 1858.26 1.84424 -0.669506 0
M  V30 20043 O 1857.38 2.15677 0.176748 0
M  V30 20044 C 1857.98 1.41102 -3.08019 0
M  V30 20045 C 1856.53 1.9241 -3.23505 0
M  V30 20046 C 1855.68 0.789129 -2.65835 0
M  V30 20047 H 1858.63 -0.0165614 -1.58691 0
M  V30 20048 H 1858.65 2.28015 -3.04614 0
M  V30 20049 H 1858.17 0.631966 -3.8292 0
M  V30 20050 H 1856.27 2.73076 -2.53496 0
M  V30 20051 H 1856.38 2.09497 -4.30868 0
M  V30 20052 H 1854.74 1.19995 -2.24663 0
M  V30 20053 H 1855.53 0.0225345 -3.43293 0
M  V30 20054 N 1857.97 1.50255 0.475528 0
M  V30 20055 C 1859.22 1.61261 1.22975 0
M  V30 20056 C 1859.55 0.309949 1.91711 0
M  V30 20057 O 1858.83 -0.688288 1.81914 0
M  V30 20058 C 1859.11 2.7898 2.27688 0
M  V30 20059 C 1858.96 4.19115 1.63287 0
M  V30 20060 C 1860.28 2.9227 3.29038 0
M  V30 20061 H 1857.4 0.586933 0.445734 0
M  V30 20062 H 1860.04 1.82626 0.524177 0
M  V30 20063 H 1858.19 2.60894 2.87865 0
M  V30 20064 H 1859.86 4.48781 1.06741 0
M  V30 20065 H 1858.11 4.23579 0.936127 0
M  V30 20066 H 1858.78 4.97405 2.39359 0
M  V30 20067 H 1861.25 3.08813 2.78879 0
M  V30 20068 H 1860.13 3.7627 3.9964 0
M  V30 20069 H 1860.39 2.02696 3.92895 0
M  V30 20070 N 1859.45 -0.728395 1.39758 0
M  V30 20071 C 1860.4 -1.84245 1.39005 0
M  V30 20072 C 1861.37 -1.64226 0.248783 0
M  V30 20073 O 1862.55 -1.8554 0.444904 0
M  V30 20074 C 1859.69 -3.21828 1.24583 0
M  V30 20075 C 1858.8 -3.53507 2.48308 0
M  V30 20076 C 1857.94 -4.80526 2.26425 0
M  V30 20077 C 1856.98 -5.05069 3.45792 0
M  V30 20078 N 1856.12 -6.23295 3.23184 0
M  V30 20079 H 1860.96 -1.84224 2.34234 0
M  V30 20080 H 1858.49 -0.900094 1.16347 0
M  V30 20081 H 1860.45 -4.01257 1.14231 0
M  V30 20082 H 1859.08 -3.21111 0.329793 0
M  V30 20083 H 1858.13 -2.68729 2.69238 0
M  V30 20084 H 1859.44 -3.67558 3.37198 0
M  V30 20085 H 1858.6 -5.67949 2.13353 0
M  V30 20086 H 1857.34 -4.6866 1.3494 0
M  V30 20087 H 1856.34 -4.16106 3.59355 0
M  V30 20088 H 1857.57 -5.18815 4.38186 0
M  V30 20089 H 1855.51 -6.12704 2.3437 0
M  V30 20090 H 1855.43 -6.37964 4.05633 0
M  V30 20091 H 1856.7 -7.13539 3.13819 0
M  V30 20092 N 1860.93 -1.25042 -0.959279 0
M  V30 20093 C 1862.18 -1.08912 -1.69768 0
M  V30 20094 C 1862.49 0.370558 -1.92058 0
M  V30 20095 O 1863.7 0.652214 -2.6355 0
M  V30 20096 C 1862.15 -1.90075 -3.05613 0
M  V30 20097 C 1861.76 -3.40506 -2.91136 0
M  V30 20098 C 1863.5 -1.825 -3.83268 0
M  V30 20099 C 1861.41 -4.13982 -4.22343 0
M  V30 20100 H 1860.34 -0.403959 -0.636658 0
M  V30 20101 H 1862.99 -1.49198 -1.06828 0
M  V30 20102 H 1861.37 -1.42609 -3.6943 0
M  V30 20103 H 1862.55 -3.95612 -2.36279 0
M  V30 20104 H 1860.86 -3.49123 -2.2694 0
M  V30 20105 H 1863.46 -2.34693 -4.80441 0
M  V30 20106 H 1863.8 -0.791947 -4.08698 0
M  V30 20107 H 1864.34 -2.27691 -3.26192 0
M  V30 20108 H 1861.07 -5.17681 -4.02103 0
M  V30 20109 H 1860.59 -3.6366 -4.76982 0
M  V30 20110 H 1862.27 -4.21443 -4.90913 0
M  V30 20111 N 1862.41 1.16121 -1.06553 0
M  V30 20112 C 1863.65 1.86991 -0.784989 0
M  V30 20113 C 1863.99 1.81645 0.686919 0
M  V30 20114 O 1863.26 1.23394 1.50347 0
M  V30 20115 C 1863.54 3.36448 -1.28355 0
M  V30 20116 C 1863.4 3.5047 -2.81941 0
M  V30 20117 C 1864.72 4.30933 -0.893561 0
M  V30 20118 H 1861.83 0.678978 -0.286633 0
M  V30 20119 H 1864.48 1.36475 -1.32192 0
M  V30 20120 H 1862.63 3.796 -0.826796 0
M  V30 20121 H 1864.3 3.16237 -3.35845 0
M  V30 20122 H 1862.54 2.92294 -3.20541 0
M  V30 20123 H 1863.21 4.55443 -3.11891 0
M  V30 20124 H 1865.69 3.95696 -1.287 0
M  V30 20125 H 1864.56 5.3401 -1.26984 0
M  V30 20126 H 1864.83 4.41642 0.201274 0
M  V30 20127 N 1863.88 0.848487 1.3281 0
M  V30 20128 C 1864.83 0.260521 2.26507 0
M  V30 20129 C 1865.82 -0.59006 1.4969 0
M  V30 20130 O 1867.01 -0.440453 1.71432 0
M  V30 20131 C 1864.14 -0.555364 3.38778 0
M  V30 20132 C 1863.23 0.307262 4.22985 0
M  V30 20133 N 1863.62 1.39058 4.86309 0
M  V30 20134 C 1861.91 0.0959443 4.45897 0
M  V30 20135 C 1862.62 1.92076 5.49073 0
M  V30 20136 N 1861.59 1.22083 5.29714 0
M  V30 20137 H 1865.39 1.08881 2.72988 0
M  V30 20138 H 1862.91 0.693949 1.46827 0
M  V30 20139 H 1864.9 -0.992951 4.04903 0
M  V30 20140 H 1863.56 -1.38152 2.93844 0
M  V30 20141 H 1864.58 1.7735 4.86587 0
M  V30 20142 H 1861.25 -0.69599 4.11658 0
M  V30 20143 H 1862.64 2.82849 6.09464 0
M  V30 20144 N 1865.36 -1.4549 0.605832 0
M  V30 20145 C 1866.59 -2.06625 0.106651 0
M  V30 20146 C 1867.01 -1.45077 -1.20822 0
M  V30 20147 O 1866.36 -0.564316 -1.73556 0
M  V30 20148 C 1866.41 -3.61476 -0.0413179 0
M  V30 20149 O 1866.13 -4.20726 1.22153 0
M  V30 20150 C 1867.64 -4.39592 -0.572162 0
M  V30 20151 H 1864.86 -0.667542 0.0680365 0
M  V30 20152 H 1867.4 -1.86763 0.833067 0
M  V30 20153 H 1865.55 -3.80687 -0.718053 0
M  V30 20154 H 1865.97 -5.13881 1.05009 0
M  V30 20155 H 1867.44 -5.48453 -0.624791 0
M  V30 20156 H 1867.92 -4.09251 -1.59407 0
M  V30 20157 H 1868.53 -4.25242 0.0704697 0
M  V30 20158 N 1866.84 -0.344893 -1.5378 0
M  V30 20159 C 1868.12 0.306554 -1.93183 0
M  V30 20160 C 1868.5 1.68127 -1.27658 0
M  V30 20161 O 1867.85 2.24456 -0.428003 0
M  V30 20162 C 1868.06 0.377484 -3.46953 0
M  V30 20163 C 1869.4 0.627685 -4.19935 0
M  V30 20164 O 1870.43 0.459544 -3.53223 0
M  V30 20165 O 1869.29 0.953511 -5.38117 0
M  V30 20166 H 1866.38 0.179163 -0.80736 0
M  V30 20167 H 1868.93 -0.396168 -1.65011 0
M  V30 20168 H 1867.7 -0.587175 -3.86869 0
M  V30 20169 H 1867.32 1.12694 -3.81295 0
M  V30 20170 N 1868.32 1.57428 -0.0735454 0
M  V30 20171 C 1869.27 2.14028 0.910749 0
M  V30 20172 C 1870.26 1.07761 1.30705 0
M  V30 20173 O 1871.47 1.26139 1.28409 0
M  V30 20174 H 1867.84 0.684381 0.311652 0
M  V30 20175 H 1869.81 2.95591 0.408468 0
M  V30 20176 C 1868.56 2.71817 2.1682 0
M  V30 20177 H 1867.88 3.5326 1.87209 0
M  V30 20178 H 1869.32 3.15014 2.83799 0
M  V30 20179 C 1867.78 1.66661 2.92789 0
M  V30 20180 O 1868.31 1.09266 3.86554 0
M  V30 20181 N 1866.52 1.37655 2.55929 0
M  V30 20182 H 1866.07 1.84518 1.79752 0
M  V30 20183 H 1866.02 0.675307 3.07062 0
M  V30 20184 N 1869.8 -0.200022 1.56326 0
M  V30 20185 C 1871.04 -0.919355 1.79979 0
M  V30 20186 C 1871.37 -1.83997 0.645767 0
M  V30 20187 O 1870.64 -1.92994 -0.336186 0
M  V30 20188 H 1869.22 -0.342469 0.66387 0
M  V30 20189 H 1871.88 -0.206713 1.93801 0
M  V30 20190 H 1870.97 -1.51341 2.72951 0
M  V30 20191 N 1871.27 -1.50505 -0.467553 0
M  V30 20192 C 1872.5 -1.65708 -1.24722 0
M  V30 20193 C 1872.92 -0.34155 -1.84973 0
M  V30 20194 O 1872.28 0.694993 -1.6745 0
M  V30 20195 C 1872.33 -2.75289 -2.32912 0
M  V30 20196 O 1871.43 -2.36788 -3.37646 0
M  V30 20197 H 1870.78 -0.55351 -0.366774 0
M  V30 20198 H 1873.31 -1.96901 -0.555988 0
M  V30 20199 H 1873.32 -2.98472 -2.7817 0
M  V30 20200 H 1871.99 -3.70765 -1.88431 0
M  V30 20201 H 1870.57 -2.24065 -2.98076 0
M  V30 20202 N 1872.75 0.720973 -1.40142 0
M  V30 20203 C 1873.7 1.8564 -1.40145 0
M  V30 20204 C 1874.69 1.67025 -0.282667 0
M  V30 20205 O 1875.9 1.74195 -0.453429 0
M  V30 20206 H 1872.28 0.611316 -0.437947 0
M  V30 20207 H 1874.25 1.82753 -2.35889 0
M  V30 20208 C 1873 3.23455 -1.27563 0
M  V30 20209 H 1872.32 3.38382 -2.12926 0
M  V30 20210 H 1873.76 4.03052 -1.31623 0
M  V30 20211 C 1872.22 3.36897 0.0146614 0
M  V30 20212 O 1872.75 3.89572 0.979616 0
M  V30 20213 N 1870.95 2.90483 0.0823795 0
M  V30 20214 H 1870.5 2.47805 -0.70359 0
M  V30 20215 H 1870.46 2.99856 0.945177 0
M  V30 20216 N 1874.23 1.25549 0.952634 0
M  V30 20217 C 1875.48 1.10416 1.69748 0
M  V30 20218 C 1875.81 -0.354517 1.91242 0
M  V30 20219 O 1875.06 -1.27756 1.48246 0
M  V30 20220 C 1875.36 1.80586 3.08421 0
M  V30 20221 C 1875.03 3.30504 3.06721 0
M  V30 20222 C 1873.69 3.71402 3.05965 0
M  V30 20223 C 1876.04 4.26275 2.99898 0
M  V30 20224 C 1873.37 5.06478 2.96137 0
M  V30 20225 C 1875.72 5.61378 2.91612 0
M  V30 20226 C 1874.38 6.01601 2.89192 0
M  V30 20227 H 1873.65 0.404041 0.621154 0
M  V30 20228 H 1876.3 1.55848 1.11283 0
M  V30 20229 H 1874.61 1.27592 3.70442 0
M  V30 20230 H 1876.3 1.66328 3.64878 0
M  V30 20231 H 1872.89 2.97965 3.08083 0
M  V30 20232 H 1877.08 3.95669 2.996 0
M  V30 20233 H 1872.33 5.3682 2.92633 0
M  V30 20234 H 1876.51 6.3528 2.85294 0
M  V30 20235 H 1874.13 7.06227 2.81333 0
M  V30 20236 N 1875.71 -1.15554 1.07168 0
M  V30 20237 C 1876.94 -1.90182 0.81477 0
M  V30 20238 C 1877.35 -1.77914 -0.631829 0
M  V30 20239 O 1876.71 -1.1298 -1.43324 0
M  V30 20240 C 1876.76 -3.40593 1.21155 0
M  V30 20241 O 1876.48 -3.52504 2.60139 0
M  V30 20242 C 1877.98 -4.32248 0.983675 0
M  V30 20243 H 1875.2 -0.602804 0.294735 0
M  V30 20244 H 1877.75 -1.46419 1.42764 0
M  V30 20245 H 1875.9 -3.82026 0.643041 0
M  V30 20246 H 1876.31 -4.45839 2.76275 0
M  V30 20247 H 1877.79 -5.3621 1.31084 0
M  V30 20248 H 1878.27 -4.39127 -0.0801022 0
M  V30 20249 H 1878.87 -3.96556 1.537 0
M  V30 20250 N 1877.19 -0.855519 -1.32358 0
M  V30 20251 C 1878.41 -0.472456 -2.01947 0
M  V30 20252 C 1878.84 0.923482 -1.6387 0
M  V30 20253 O 1878.2 1.60677 -0.839799 0
M  V30 20254 C 1878.24 -0.620081 -3.55229 0
M  V30 20255 O 1877.35 0.34676 -4.1094 0
M  V30 20256 H 1876.69 -0.189756 -0.636309 0
M  V30 20257 H 1879.22 -1.15495 -1.68885 0
M  V30 20258 H 1879.23 -0.507933 -4.04826 0
M  V30 20259 H 1877.9 -1.63802 -3.82285 0
M  V30 20260 H 1876.48 0.190778 -3.72412 0
M  V30 20261 N 1878.67 1.45167 -0.61354 0
M  V30 20262 C 1879.63 2.29016 0.0919454 0
M  V30 20263 C 1880.63 1.40091 0.789373 0
M  V30 20264 O 1881.82 1.6215 0.636631 0
M  V30 20265 C 1878.95 3.21257 1.14048 0
M  V30 20266 H 1880.14 2.92875 -0.645317 0
M  V30 20267 H 1877.7 1.51788 -0.372855 0
M  V30 20268 H 1878.43 2.6221 1.90831 0
M  V30 20269 H 1878.22 3.86766 0.644523 0
M  V30 20270 H 1879.71 3.84288 1.63439 0
M  V30 20271 N 1880.14 0.353044 1.53595 0
M  V30 20272 C 1881.11 -0.48691 2.23968 0
M  V30 20273 C 1882.11 -1.01991 1.24316 0
M  V30 20274 O 1883.3 -0.907654 1.48685 0
M  V30 20275 C 1880.43 -1.67926 2.96671 0
M  V30 20276 H 1881.62 0.128707 2.99624 0
M  V30 20277 H 1879.17 0.104533 1.5595 0
M  V30 20278 H 1879.91 -2.33331 2.25227 0
M  V30 20279 H 1879.69 -1.30417 3.69776 0
M  V30 20280 H 1881.18 -2.2748 3.50203 0
M  V30 20281 N 1881.62 -1.57387 0.0818932 0
M  V30 20282 C 1882.87 -1.94156 -0.585765 0
M  V30 20283 C 1883.2 -0.962889 -1.68648 0
M  V30 20284 O 1882.48 0.00625819 -1.94499 0
M  V30 20285 C 1882.76 -3.41132 -1.15329 0
M  V30 20286 C 1882.61 -4.49762 -0.0585349 0
M  V30 20287 C 1883.93 -3.89137 -2.05573 0
M  V30 20288 H 1881.05 -0.706012 -0.211463 0
M  V30 20289 H 1883.69 -1.89408 0.149918 0
M  V30 20290 H 1881.84 -3.4531 -1.78026 0
M  V30 20291 H 1883.51 -4.57702 0.575061 0
M  V30 20292 H 1881.76 -4.29496 0.609574 0
M  V30 20293 H 1882.43 -5.49765 -0.496206 0
M  V30 20294 H 1884.9 -3.87029 -1.52798 0
M  V30 20295 H 1883.78 -4.92569 -2.42213 0
M  V30 20296 H 1884.04 -3.27663 -2.96799 0
M  V30 20297 N 1883.1 0.191729 -1.56429 0
M  V30 20298 C 1884.05 1.23761 -1.94813 0
M  V30 20299 C 1885.02 1.45057 -0.809178 0
M  V30 20300 O 1886.2 1.58135 -1.06762 0
M  V30 20301 C 1883.34 2.57656 -2.2958 0
M  V30 20302 C 1882.45 2.4391 -3.56555 0
M  V30 20303 C 1881.59 3.70533 -3.8063 0
M  V30 20304 C 1880.63 3.51634 -5.01019 0
M  V30 20305 N 1879.77 4.70276 -5.2133 0
M  V30 20306 H 1884.61 0.903277 -2.8398 0
M  V30 20307 H 1882.14 0.434651 -1.40532 0
M  V30 20308 H 1884.1 3.35668 -2.47755 0
M  V30 20309 H 1882.73 2.89125 -1.43549 0
M  V30 20310 H 1881.78 1.57179 -3.46409 0
M  V30 20311 H 1883.09 2.25881 -4.44724 0
M  V30 20312 H 1882.25 4.56984 -3.99062 0
M  V30 20313 H 1880.99 3.9152 -2.90798 0
M  V30 20314 H 1879.99 2.63568 -4.82506 0
M  V30 20315 H 1881.22 3.32089 -5.92363 0
M  V30 20316 H 1879.16 4.9152 -4.34446 0
M  V30 20317 H 1879.08 4.55084 -6.03684 0
M  V30 20318 H 1880.35 5.58069 -5.44224 0
M  V30 20319 N 1884.58 1.50751 0.459565 0
M  V30 20320 C 1885.54 1.69889 1.53852 0
M  V30 20321 C 1886.54 0.569308 1.50385 0
M  V30 20322 O 1887.73 0.836527 1.528 0
M  V30 20323 C 1884.86 1.73481 2.93457 0
M  V30 20324 H 1886.06 2.66162 1.38195 0
M  V30 20325 H 1883.61 1.40405 0.686741 0
M  V30 20326 H 1884.34 0.789426 3.14545 0
M  V30 20327 H 1884.13 2.55553 2.97381 0
M  V30 20328 H 1885.62 1.90202 3.7177 0
M  V30 20329 N 1886.06 -0.713531 1.40522 0
M  V30 20330 C 1887.02 -1.80932 1.40699 0
M  V30 20331 C 1888.02 -1.57968 0.30045 0
M  V30 20332 O 1889.21 -1.64972 0.559456 0
M  V30 20333 C 1886.34 -3.19053 1.20075 0
M  V30 20334 H 1887.53 -1.82174 2.38228 0
M  V30 20335 H 1885.09 -0.919374 1.26401 0
M  V30 20336 H 1885.82 -3.23461 0.233137 0
M  V30 20337 H 1885.61 -3.37121 2.00229 0
M  V30 20338 H 1887.1 -3.99078 1.22991 0
M  V30 20339 N 1887.53 -1.26053 -0.945962 0
M  V30 20340 C 1888.77 -1.1253 -1.70635 0
M  V30 20341 C 1889.14 0.326708 -1.892 0
M  V30 20342 O 1890.34 0.583957 -2.6238 0
M  V30 20343 C 1888.61 -1.86811 -3.04691 0
M  V30 20344 S 1890.17 -1.89284 -3.95875 0
M  V30 20345 H 1886.99 -0.402052 -0.586409 0
M  V30 20346 H 1889.59 -1.59703 -1.12762 0
M  V30 20347 H 1888.29 -2.91531 -2.88856 0
M  V30 20348 H 1887.82 -1.40059 -3.67623 0
M  V30 20349 H 1889.84 -0.976107 -4.86504 0
M  V30 20350 N 1889.01 1.14984 -1.07779 0
M  V30 20351 C 1890.26 1.86375 -0.81462 0
M  V30 20352 C 1890.61 1.81002 0.652385 0
M  V30 20353 O 1889.91 1.2253 1.47299 0
M  V30 20354 C 1890.1 3.34355 -1.26259 0
M  V30 20355 C 1889.93 3.54136 -2.7716 0
M  V30 20356 C 1888.7 3.69356 -3.44825 0
M  V30 20357 C 1890.9 3.51594 -3.75348 0
M  V30 20358 N 1888.88 3.77232 -4.84323 0
M  V30 20359 C 1890.25 3.65637 -5.00709 0
M  V30 20360 C 1892.3 3.34893 -3.68444 0
M  V30 20361 C 1891.01 3.64705 -6.19986 0
M  V30 20362 C 1893.03 3.35262 -4.87189 0
M  V30 20363 C 1892.4 3.49839 -6.11386 0
M  V30 20364 H 1888.49 0.698946 -0.350711 0
M  V30 20365 H 1891.08 1.37857 -1.3749 0
M  V30 20366 H 1889.25 3.81479 -0.729958 0
M  V30 20367 H 1890.98 3.93476 -0.946503 0
M  V30 20368 H 1887.74 3.70315 -2.95235 0
M  V30 20369 H 1888.16 3.84903 -5.56937 0
M  V30 20370 H 1892.8 3.22539 -2.73365 0
M  V30 20371 H 1890.52 3.75836 -7.15383 0
M  V30 20372 H 1894.11 3.23561 -4.83528 0
M  V30 20373 H 1892.99 3.50063 -7.01731 0
M  V30 20374 N 1890.49 0.862526 1.31902 0
M  V30 20375 C 1891.74 0.479773 1.97661 0
M  V30 20376 C 1892.09 -0.955796 1.6698 0
M  V30 20377 O 1891.38 -1.66282 0.951884 0
M  V30 20378 C 1891.58 0.664872 3.51161 0
M  V30 20379 C 1891.41 2.11688 3.9676 0
M  V30 20380 C 1890.18 2.75698 4.2346 0
M  V30 20381 C 1892.37 3.08835 4.11249 0
M  V30 20382 N 1890.36 4.11728 4.5536 0
M  V30 20383 C 1891.73 4.29874 4.46776 0
M  V30 20384 C 1893.78 3.04925 3.93606 0
M  V30 20385 C 1892.49 5.47512 4.66501 0
M  V30 20386 C 1894.51 4.21814 4.1452 0
M  V30 20387 C 1893.87 5.41614 4.50371 0
M  V30 20388 H 1889.97 0.224454 0.749096 0
M  V30 20389 H 1892.56 1.11557 1.59572 0
M  V30 20390 H 1890.73 0.0587253 3.88356 0
M  V30 20391 H 1892.46 0.25124 4.03919 0
M  V30 20392 H 1889.21 2.2669 4.15823 0
M  V30 20393 H 1889.64 4.81918 4.75483 0
M  V30 20394 H 1894.28 2.13419 3.64983 0
M  V30 20395 H 1892 6.39542 4.93975 0
M  V30 20396 H 1895.58 4.20233 4.02362 0
M  V30 20397 H 1894.46 6.30557 4.66227 0
M  V30 20398 N 1891.97 -1.4484 0.62123 0
M  V30 20399 C 1892.93 -2.29061 -0.0797989 0
M  V30 20400 C 1893.93 -1.40508 -0.781932 0
M  V30 20401 O 1895.12 -1.62485 -0.628023 0
M  V30 20402 C 1892.25 -3.21857 -1.12342 0
M  V30 20403 H 1893.45 -2.92528 0.66084 0
M  V30 20404 H 1891 -1.51588 0.3809 0
M  V30 20405 H 1891.73 -2.63218 -1.89437 0
M  V30 20406 H 1891.52 -3.87103 -0.624003 0
M  V30 20407 H 1893.01 -3.8515 -1.61398 0
M  V30 20408 N 1893.45 -0.361184 -1.53405 0
M  V30 20409 C 1894.69 0.229427 -2.00794 0
M  V30 20410 C 1895.02 1.49642 -1.25029 0
M  V30 20411 O 1894.29 1.9252 -0.362333 0
M  V30 20412 H 1892.87 0.0877687 -0.741826 0
M  V30 20413 H 1895.53 -0.486406 -1.88733 0
M  V30 20414 H 1894.62 0.459504 -3.08699 0
M  V30 20415 N 1894.92 1.57341 -0.0902386 0
M  V30 20416 C 1896.17 1.93352 0.574273 0
M  V30 20417 C 1896.49 0.97374 1.6964 0
M  V30 20418 O 1897.69 1.22737 2.42173 0
M  V30 20419 C 1896.15 3.43536 1.07289 0
M  V30 20420 C 1895.76 4.47996 -0.0192163 0
M  V30 20421 C 1897.5 3.88516 1.71042 0
M  V30 20422 C 1895.41 5.89329 0.494487 0
M  V30 20423 H 1894.34 0.721711 0.218287 0
M  V30 20424 H 1896.99 1.82753 -0.165456 0
M  V30 20425 H 1895.37 3.49271 1.86616 0
M  V30 20426 H 1896.54 4.53899 -0.794527 0
M  V30 20427 H 1894.86 4.12595 -0.561628 0
M  V30 20428 H 1897.46 4.91505 2.1054 0
M  V30 20429 H 1897.8 3.26896 2.57769 0
M  V30 20430 H 1898.33 3.85462 0.983058 0
M  V30 20431 H 1895.07 6.54638 -0.336054 0
M  V30 20432 H 1894.59 5.86908 1.23691 0
M  V30 20433 H 1896.27 6.39763 0.965014 0
M  V30 20434 N 1896.4 -0.183431 1.56529 0
M  V30 20435 C 1897.35 -1.22726 1.95466 0
M  V30 20436 C 1898.32 -1.44626 0.81686 0
M  V30 20437 O 1899.5 -1.57566 1.07599 0
M  V30 20438 C 1896.64 -2.56435 2.30944 0
M  V30 20439 C 1895.76 -2.42016 3.57844 0
M  V30 20440 C 1894.89 -3.68509 3.82589 0
M  V30 20441 C 1893.93 -3.48972 5.02877 0
M  V30 20442 N 1893.07 -4.67505 5.23817 0
M  V30 20443 H 1897.91 -0.888204 2.84456 0
M  V30 20444 H 1895.45 -0.427192 1.4076 0
M  V30 20445 H 1897.4 -3.3435 2.49532 0
M  V30 20446 H 1896.03 -2.8836 1.4508 0
M  V30 20447 H 1895.09 -1.55339 3.47237 0
M  V30 20448 H 1896.4 -2.23519 4.45915 0
M  V30 20449 H 1895.55 -4.54861 4.0148 0
M  V30 20450 H 1894.29 -3.89972 2.9287 0
M  V30 20451 H 1893.3 -2.61005 4.83897 0
M  V30 20452 H 1894.52 -3.28942 5.94116 0
M  V30 20453 H 1892.47 -4.8921 4.37047 0
M  V30 20454 H 1892.38 -4.51876 6.06089 0
M  V30 20455 H 1893.65 -5.55175 5.47176 0
M  V30 20456 N 1897.88 -1.50992 -0.451564 0
M  V30 20457 C 1898.81 -1.67453 -1.56499 0
M  V30 20458 C 1899.83 -0.555481 -1.5303 0
M  V30 20459 O 1901.01 -0.829335 -1.58064 0
M  V30 20460 C 1898.11 -1.66093 -2.95409 0
M  V30 20461 C 1897.29 -2.94351 -3.23537 0
M  V30 20462 C 1896.35 -2.8537 -4.42098 0
M  V30 20463 O 1895.37 -3.59323 -4.41447 0
M  V30 20464 N 1896.57 -2.0025 -5.44867 0
M  V30 20465 H 1899.34 -2.63499 -1.42788 0
M  V30 20466 H 1896.9 -1.48701 -0.640293 0
M  V30 20467 H 1898.89 -1.57672 -3.72722 0
M  V30 20468 H 1897.46 -0.777014 -3.02789 0
M  V30 20469 H 1896.68 -3.16751 -2.34654 0
M  V30 20470 H 1897.97 -3.79281 -3.39151 0
M  V30 20471 H 1897.37 -1.39517 -5.48226 0
M  V30 20472 H 1895.93 -1.97719 -6.21088 0
M  V30 20473 N 1899.36 0.706069 -1.40899 0
M  V30 20474 C 1900.27 1.85007 -1.44255 0
M  V30 20475 C 1901.28 1.70761 -0.334174 0
M  V30 20476 O 1902.46 1.9286 -0.580258 0
M  V30 20477 C 1899.53 3.20896 -1.31251 0
M  V30 20478 C 1898.59 3.47327 -2.52314 0
M  V30 20479 C 1897.82 4.76732 -2.39922 0
M  V30 20480 O 1898.04 5.5249 -1.41813 0
M  V30 20481 O 1896.98 5.03713 -3.2948 0
M  V30 20482 H 1900.8 1.85132 -2.40748 0
M  V30 20483 H 1898.39 0.857751 -1.22323 0
M  V30 20484 H 1900.27 4.02045 -1.26244 0
M  V30 20485 H 1898.94 3.21477 -0.378684 0
M  V30 20486 H 1897.85 2.66149 -2.62899 0
M  V30 20487 H 1899.18 3.5155 -3.4449 0
M  V30 20488 N 1900.84 1.26553 0.939264 0
M  V30 20489 C 1902.08 1.1221 1.68568 0
M  V30 20490 C 1902.41 -0.334213 1.91607 0
M  V30 20491 O 1901.67 -1.26177 1.49593 0
M  V30 20492 C 1901.97 1.83848 3.06488 0
M  V30 20493 C 1901.63 3.33739 3.03198 0
M  V30 20494 C 1900.29 3.74626 3.02008 0
M  V30 20495 C 1902.65 4.29432 2.9536 0
M  V30 20496 C 1899.97 5.0959 2.90748 0
M  V30 20497 C 1902.33 5.64439 2.85641 0
M  V30 20498 C 1900.99 6.04635 2.82795 0
M  V30 20499 H 1900.26 0.410606 0.616833 0
M  V30 20500 H 1902.91 1.57019 1.09623 0
M  V30 20501 H 1901.21 1.31514 3.69068 0
M  V30 20502 H 1902.91 1.70189 3.63093 0
M  V30 20503 H 1899.5 3.01216 3.04905 0
M  V30 20504 H 1903.68 3.98824 2.95386 0
M  V30 20505 H 1898.94 5.39894 2.86923 0
M  V30 20506 H 1903.11 6.3827 2.7854 0
M  V30 20507 H 1900.74 7.09171 2.73826 0
M  V30 20508 N 1902.31 -1.14411 1.08387 0
M  V30 20509 C 1903.56 -1.85078 0.811826 0
M  V30 20510 C 1903.88 -1.83335 -0.664312 0
M  V30 20511 O 1903.15 -1.28164 -1.48158 0
M  V30 20512 H 1901.73 -0.685278 0.297328 0
M  V30 20513 H 1904.4 -1.38644 1.36981 0
M  V30 20514 H 1903.49 -2.89909 1.15581 0
M  V30 20515 N 1903.79 -0.869509 -1.31443 0
M  V30 20516 C 1905.04 -0.476357 -1.95994 0
M  V30 20517 C 1905.35 0.976268 -1.69494 0
M  V30 20518 O 1906.56 1.47555 -2.27903 0
M  V30 20519 C 1905.02 -0.800938 -3.50875 0
M  V30 20520 C 1904.62 -2.27029 -3.86215 0
M  V30 20521 C 1906.37 -0.476234 -4.2182 0
M  V30 20522 C 1904.28 -2.53731 -5.34205 0
M  V30 20523 H 1903.21 -0.174407 -0.733552 0
M  V30 20524 H 1905.86 -1.06235 -1.49621 0
M  V30 20525 H 1904.24 -0.144206 -3.95737 0
M  V30 20526 H 1905.41 -2.97005 -3.52313 0
M  V30 20527 H 1903.73 -2.56098 -3.28333 0
M  V30 20528 H 1906.32 -0.652965 -5.30698 0
M  V30 20529 H 1906.67 0.583294 -4.12193 0
M  V30 20530 H 1907.2 -1.08949 -3.8259 0
M  V30 20531 H 1903.94 -3.58365 -5.48867 0
M  V30 20532 H 1903.46 -1.88349 -5.6946 0
M  V30 20533 H 1905.14 -2.38437 -6.01462 0
M  V30 20534 N 1905.27 1.44508 -0.628902 0
M  V30 20535 C 1906.68 1.85457 -0.215122 0
M  V30 20536 C 1907.03 1.52619 1.23296 0
M  V30 20537 O 1906.16 0.963178 1.93783 0
M  V30 20538 C 1906.75 3.36621 -0.383645 0
M  V30 20539 C 1905.31 3.76392 -0.0243904 0
M  V30 20540 C 1904.46 2.68369 -0.698081 0
M  V30 20541 H 1907.41 1.35006 -0.834208 0
M  V30 20542 H 1907.43 3.78617 0.378049 0
M  V30 20543 H 1906.94 3.6049 -1.43767 0
M  V30 20544 H 1905.04 3.58139 1.02798 0
M  V30 20545 H 1905.16 4.7714 -0.432898 0
M  V30 20546 H 1903.52 2.54349 -0.133605 0
M  V30 20547 H 1904.3 2.95071 -1.75465 0
M  V30 20548 N 1906.75 0.369315 1.53212 0
M  V30 20549 C 1907.98 -0.219539 2.0543 0
M  V30 20550 C 1908.39 -1.42698 1.24233 0
M  V30 20551 O 1907.73 -1.81601 0.276938 0
M  V30 20552 C 1907.79 -0.673523 3.53134 0
M  V30 20553 C 1907.46 0.417737 4.55087 0
M  V30 20554 C 1908.45 1.2688 5.0418 0
M  V30 20555 C 1906.14 0.579049 4.98951 0
M  V30 20556 C 1908.13 2.26648 5.95743 0
M  V30 20557 C 1905.82 1.58009 5.90319 0
M  V30 20558 C 1906.82 2.42224 6.38605 0
M  V30 20559 O 1906.51 3.4062 7.28171 0
M  V30 20560 H 1906.24 -0.0415233 0.674724 0
M  V30 20561 H 1908.79 0.527123 1.98521 0
M  V30 20562 H 1907.02 -1.47185 3.57594 0
M  V30 20563 H 1908.71 -1.1858 3.88193 0
M  V30 20564 H 1909.48 1.15538 4.71037 0
M  V30 20565 H 1905.36 -0.0666753 4.60952 0
M  V30 20566 H 1908.9 2.92416 6.33355 0
M  V30 20567 H 1904.8 1.69397 6.22876 0
M  V30 20568 H 1905.56 3.36393 7.46178 0
M  V30 20569 N 1908.23 -1.57291 0.0985816 0
M  V30 20570 C 1909.18 -2.1545 -0.876584 0
M  V30 20571 C 1910.17 -1.09827 -1.28974 0
M  V30 20572 O 1911.38 -1.28166 -1.26386 0
M  V30 20573 H 1907.75 -0.689252 -0.300725 0
M  V30 20574 H 1909.72 -2.96204 -0.36139 0
M  V30 20575 C 1908.47 -2.75232 -2.12468 0
M  V30 20576 H 1907.79 -3.56194 -1.81565 0
M  V30 20577 H 1909.23 -3.19489 -2.78752 0
M  V30 20578 C 1907.69 -1.71298 -2.90101 0
M  V30 20579 O 1908.22 -1.15402 -3.84767 0
M  V30 20580 N 1906.43 -1.41709 -2.53706 0
M  V30 20581 H 1905.98 -1.87354 -1.76794 0
M  V30 20582 H 1905.93 -0.724072 -3.05949 0
M  V30 20583 N 1909.71 0.175127 -1.56624 0
M  V30 20584 C 1911.12 0.737951 -1.71497 0
M  V30 20585 C 1911.47 1.82962 -0.708475 0
M  V30 20586 O 1910.59 2.16003 0.13096 0
M  V30 20587 C 1911.19 1.34536 -3.10943 0
M  V30 20588 C 1909.75 1.85505 -3.27513 0
M  V30 20589 C 1908.89 0.732564 -2.67449 0
M  V30 20590 H 1911.84 -0.0502185 -1.58621 0
M  V30 20591 H 1911.87 2.21502 -3.09382 0
M  V30 20592 H 1911.38 0.5506 -3.84174 0
M  V30 20593 H 1909.48 2.67637 -2.59232 0
M  V30 20594 H 1909.59 2.00311 -4.35215 0
M  V30 20595 H 1907.96 1.15203 -2.27157 0
M  V30 20596 H 1908.74 -0.050288 -3.43263 0
M  V30 20597 N 1911.18 1.5123 0.44355 0
M  V30 20598 C 1912.12 1.68281 1.55609 0
M  V30 20599 C 1913.13 0.563589 1.52733 0
M  V30 20600 O 1914.32 0.837706 1.57622 0
M  V30 20601 C 1911.42 1.67657 2.94524 0
M  V30 20602 C 1910.59 2.96063 3.21971 0
M  V30 20603 C 1909.65 2.8771 4.40578 0
M  V30 20604 O 1908.68 3.61659 4.39536 0
M  V30 20605 N 1909.88 2.03137 5.43797 0
M  V30 20606 H 1912.64 2.64252 1.41389 0
M  V30 20607 H 1910.2 1.49038 0.632398 0
M  V30 20608 H 1912.2 1.59646 3.71881 0
M  V30 20609 H 1910.77 0.79306 3.02373 0
M  V30 20610 H 1909.99 3.17991 2.32971 0
M  V30 20611 H 1911.27 3.81074 3.37135 0
M  V30 20612 H 1910.67 1.42422 5.47478 0
M  V30 20613 H 1909.23 2.0101 6.20031 0
M  V30 20614 N 1912.66 -0.698586 1.41271 0
M  V30 20615 C 1913.89 -1.49247 1.44014 0
M  V30 20616 C 1914.31 -1.88043 0.0461888 0
M  V30 20617 O 1913.67 -1.54426 -0.94986 0
M  V30 20618 C 1913.72 -2.73334 2.35204 0
M  V30 20619 O 1912.82 -3.70704 1.807 0
M  V30 20620 H 1912.16 -0.449313 0.488891 0
M  V30 20621 H 1914.69 -0.858936 1.85697 0
M  V30 20622 H 1914.7 -3.21676 2.50975 0
M  V30 20623 H 1913.38 -2.44433 3.3649 0
M  V30 20624 H 1911.95 -3.29624 1.74363 0
M  V30 20625 N 1914.14 -1.27049 -0.93254 0
M  V30 20626 C 1915.07 -1.05151 -2.03656 0
M  V30 20627 C 1916.08 -0.00913996 -1.62797 0
M  V30 20628 O 1917.27 -0.25017 -1.76738 0
M  V30 20629 C 1914.37 -0.572071 -3.34037 0
M  V30 20630 C 1913.55 -1.68563 -4.03615 0
M  V30 20631 C 1912.61 -1.20276 -5.12269 0
M  V30 20632 O 1911.63 -1.9015 -5.36499 0
M  V30 20633 N 1912.83 -0.0558099 -5.80473 0
M  V30 20634 H 1915.6 -2.00221 -2.23006 0
M  V30 20635 H 1913.16 -1.18551 -1.1026 0
M  V30 20636 H 1915.15 -0.233036 -4.04029 0
M  V30 20637 H 1913.72 0.285274 -3.11296 0
M  V30 20638 H 1912.94 -2.19519 -3.27422 0
M  V30 20639 H 1914.23 -2.43313 -4.46852 0
M  V30 20640 H 1913.63 0.527516 -5.63235 0
M  V30 20641 H 1912.18 0.224082 -6.51415 0
M  V30 20642 N 1915.62 1.13835 -1.08993 0
M  V30 20643 C 1916.87 1.84645 -0.82163 0
M  V30 20644 C 1917.19 1.83685 0.65458 0
M  V30 20645 O 1916.46 1.28948 1.47477 0
M  V30 20646 H 1915.04 0.683691 -0.300958 0
M  V30 20647 H 1917.7 1.37915 -1.37715 0
M  V30 20648 H 1916.79 2.89292 -1.17117 0
M  V30 20649 N 1917.1 0.876467 1.3098 0
M  V30 20650 C 1918.34 0.491367 1.96757 0
M  V30 20651 C 1918.67 -0.955274 1.6908 0
M  V30 20652 O 1917.95 -1.6737 0.990843 0
M  V30 20653 C 1918.23 0.756745 3.52059 0
M  V30 20654 C 1918.09 2.25339 3.89284 0
M  V30 20655 C 1919.4 0.227549 4.39511 0
M  V30 20656 H 1916.52 0.179998 0.714681 0
M  V30 20657 H 1919.17 1.0989 1.54997 0
M  V30 20658 H 1917.32 0.239657 3.8776 0
M  V30 20659 H 1918.99 2.83824 3.63651 0
M  V30 20660 H 1917.23 2.72341 3.37658 0
M  V30 20661 H 1917.9 2.38971 4.97591 0
M  V30 20662 H 1920.38 0.670016 4.1067 0
M  V30 20663 H 1919.25 0.442629 5.47112 0
M  V30 20664 H 1919.51 -0.870833 4.33438 0
M  V30 20665 N 1918.57 -1.44173 0.636557 0
M  V30 20666 C 1919.82 -2.02292 0.143429 0
M  V30 20667 C 1920.15 -1.49996 -1.23348 0
M  V30 20668 O 1919.43 -0.686228 -1.81992 0
M  V30 20669 C 1919.71 -3.59843 0.136025 0
M  V30 20670 C 1919.56 -4.22409 1.54566 0
M  V30 20671 C 1920.88 -4.36817 -0.536538 0
M  V30 20672 H 1918 -0.735049 0.0535939 0
M  V30 20673 H 1920.64 -1.71677 0.814066 0
M  V30 20674 H 1918.79 -3.86056 -0.435048 0
M  V30 20675 H 1920.47 -4.07284 2.16604 0
M  V30 20676 H 1918.71 -3.79696 2.09793 0
M  V30 20677 H 1919.38 -5.31441 1.49247 0
M  V30 20678 H 1921.86 -4.16069 -0.0508327 0
M  V30 20679 H 1920.73 -5.46517 -0.510926 0
M  V30 20680 H 1920.99 -4.11827 -1.60783 0
M  V30 20681 N 1920.05 -0.377435 -1.53014 0
M  V30 20682 C 1920.96 0.471045 -2.29822 0
M  V30 20683 C 1921.98 1.0821 -1.36259 0
M  V30 20684 O 1923.15 1.09048 -1.69324 0
M  V30 20685 C 1920.22 1.58917 -3.08134 0
M  V30 20686 C 1919.28 1.00444 -4.17384 0
M  V30 20687 C 1918.51 2.06928 -4.91952 0
M  V30 20688 O 1918.74 3.2824 -4.66492 0
M  V30 20689 O 1917.67 1.69321 -5.77593 0
M  V30 20690 H 1921.5 -0.154333 -3.03308 0
M  V30 20691 H 1919.08 -0.141478 -1.48729 0
M  V30 20692 H 1920.96 2.23899 -3.56997 0
M  V30 20693 H 1919.64 2.19973 -2.37473 0
M  V30 20694 H 1918.54 0.3182 -3.72744 0
M  V30 20695 H 1919.88 0.438266 -4.90245 0
M  V30 20696 N 1921.53 1.57237 -0.106922 0
M  V30 20697 C 1922.76 1.99545 0.565392 0
M  V30 20698 C 1923.18 0.985887 1.60193 0
M  V30 20699 O 1922.54 -0.0440657 1.81246 0
M  V30 20700 C 1922.59 3.40779 1.17908 0
M  V30 20701 O 1921.69 3.42656 2.29479 0
M  V30 20702 H 1921.03 0.648556 0.142379 0
M  V30 20703 H 1923.56 2.03699 -0.191829 0
M  V30 20704 H 1923.57 3.78728 1.51754 0
M  V30 20705 H 1922.25 4.13776 0.419776 0
M  V30 20706 H 1920.82 3.16514 1.97164 0
M  V30 20707 N 1923.01 -0.166818 1.56715 0
M  V30 20708 C 1923.94 -1.23537 1.91869 0
M  V30 20709 C 1924.92 -1.42558 0.78204 0
M  V30 20710 O 1926.1 -1.57492 1.03578 0
M  V30 20711 C 1923.23 -2.5976 2.17353 0
M  V30 20712 C 1922.28 -2.57449 3.40033 0
M  V30 20713 S 1923.11 -2.06088 4.94255 0
M  V30 20714 C 1924.27 -3.4408 5.22838 0
M  V30 20715 H 1924.5 -0.935341 2.82203 0
M  V30 20716 H 1922.03 -0.371582 1.49862 0
M  V30 20717 H 1923.99 -3.38162 2.32716 0
M  V30 20718 H 1922.65 -2.86961 1.27719 0
M  V30 20719 H 1921.84 -3.5768 3.55079 0
M  V30 20720 H 1921.45 -1.87145 3.2381 0
M  V30 20721 H 1923.74 -4.40099 5.15092 0
M  V30 20722 H 1924.68 -3.33905 6.2443 0
M  V30 20723 H 1925.09 -3.403 4.50396 0
M  V30 20724 N 1924.49 -1.51463 -0.435524 0
M  V30 20725 C 1925.43 -1.73484 -1.54939 0
M  V30 20726 C 1926.43 -0.601197 -1.58373 0
M  V30 20727 O 1927.63 -0.782622 -1.62096 0
M  V30 20728 H 1924.01 -0.54818 -0.514784 0
M  V30 20729 H 1925.98 -2.66851 -1.3354 0
M  V30 20730 C 1924.73 -1.87866 -2.92578 0
M  V30 20731 H 1924.05 -2.74503 -2.90668 0
M  V30 20732 H 1925.49 -2.07285 -3.69877 0
M  V30 20733 C 1923.95 -0.638928 -3.30786 0
M  V30 20734 O 1924.48 0.205561 -4.01174 0
M  V30 20735 N 1922.69 -0.48249 -2.86567 0
M  V30 20736 H 1922.23 -1.17078 -2.29457 0
M  V30 20737 H 1922.19 0.345753 -3.12493 0
M  V30 20738 N 1925.96 0.691085 -1.4164 0
M  V30 20739 C 1926.91 1.80495 -1.43841 0
M  V30 20740 C 1927.88 1.63509 -0.292237 0
M  V30 20741 O 1929.07 1.84296 -0.493941 0
M  V30 20742 C 1926.21 3.18412 -1.33072 0
M  V30 20743 C 1925.32 3.46799 -2.57594 0
M  V30 20744 C 1924.45 4.74354 -2.39085 0
M  V30 20745 C 1923.49 4.95723 -3.59061 0
M  V30 20746 N 1922.63 6.14507 -3.39596 0
M  V30 20747 H 1927.47 1.77949 -2.39036 0
M  V30 20748 H 1925.01 0.86893 -1.18693 0
M  V30 20749 H 1926.97 3.98087 -1.24829 0
M  V30 20750 H 1925.6 3.20124 -0.414814 0
M  V30 20751 H 1924.65 2.61496 -2.76268 0
M  V30 20752 H 1925.96 3.58489 -3.46824 0
M  V30 20753 H 1925.11 5.62092 -2.28336 0
M  V30 20754 H 1923.85 4.64918 -1.47319 0
M  V30 20755 H 1922.86 4.06432 -3.70261 0
M  V30 20756 H 1924.08 5.07015 -4.51788 0
M  V30 20757 H 1922.03 6.06275 -2.50532 0
M  V30 20758 H 1921.95 6.26985 -4.22405 0
M  V30 20759 H 1923.21 7.04968 -3.32627 0
M  V30 20760 N 1927.44 1.27542 0.925789 0
M  V30 20761 C 1928.35 1.1225 2.06002 0
M  V30 20762 C 1929.37 0.0520487 1.73922 0
M  V30 20763 O 1930.54 0.258921 1.99729 0
M  V30 20764 C 1927.61 0.773231 3.37967 0
M  V30 20765 C 1926.67 1.92476 3.83733 0
M  V30 20766 C 1925.9 1.59206 5.09401 0
M  V30 20767 O 1926.13 0.500836 5.68197 0
M  V30 20768 O 1925.06 2.43185 5.50586 0
M  V30 20769 H 1928.89 2.07439 2.21817 0
M  V30 20770 H 1926.47 1.06747 1.04525 0
M  V30 20771 H 1928.35 0.591863 4.17223 0
M  V30 20772 H 1927.03 -0.149116 3.23356 0
M  V30 20773 H 1925.94 2.1612 3.05357 0
M  V30 20774 H 1927.27 2.82738 4.02889 0
M  V30 20775 N 1928.92 -1.13255 1.09595 0
M  V30 20776 C 1929.85 -2.20827 0.758791 0
M  V30 20777 C 1930.83 -1.68034 -0.264325 0
M  V30 20778 O 1932.02 -1.93751 -0.132005 0
M  V30 20779 C 1929.15 -3.46831 0.180424 0
M  V30 20780 C 1928.1 -4.12724 1.13325 0
M  V30 20781 C 1927.43 -5.33075 0.416504 0
M  V30 20782 C 1928.73 -4.59862 2.47637 0
M  V30 20783 H 1930.42 -2.49287 1.65821 0
M  V30 20784 H 1927.97 -1.19818 0.798734 0
M  V30 20785 H 1929.92 -4.21346 -0.0675313 0
M  V30 20786 H 1928.64 -3.17773 -0.754194 0
M  V30 20787 H 1927.3 -3.40179 1.36651 0
M  V30 20788 H 1926.95 -5.00281 -0.522308 0
M  V30 20789 H 1926.65 -5.78109 1.05183 0
M  V30 20790 H 1928.17 -6.10344 0.17689 0
M  V30 20791 H 1929.59 -5.25791 2.28509 0
M  V30 20792 H 1927.99 -5.15642 3.06974 0
M  V30 20793 H 1929.06 -3.74294 3.08273 0
M  V30 20794 N 1930.4 -0.883401 -1.30514 0
M  V30 20795 C 1931.35 -0.347254 -2.28173 0
M  V30 20796 C 1932.32 0.561698 -1.56314 0
M  V30 20797 O 1933.5 0.490454 -1.84389 0
M  V30 20798 C 1930.64 0.433573 -3.42366 0
M  V30 20799 C 1929.75 -0.504417 -4.29045 0
M  V30 20800 C 1928.89 0.291853 -5.30398 0
M  V30 20801 C 1927.93 -0.641708 -6.08727 0
M  V30 20802 N 1927.06 0.119139 -7.01999 0
M  V30 20803 H 1931.9 -1.1852 -2.73417 0
M  V30 20804 H 1929.44 -0.595824 -1.34493 0
M  V30 20805 H 1931.4 0.902186 -4.07328 0
M  V30 20806 H 1930.03 1.23611 -2.98195 0
M  V30 20807 H 1929.08 -1.09152 -3.64404 0
M  V30 20808 H 1930.39 -1.21969 -4.83658 0
M  V30 20809 H 1929.55 0.822389 -6.011 0
M  V30 20810 H 1928.29 1.04035 -4.76475 0
M  V30 20811 H 1927.29 -1.18389 -5.36902 0
M  V30 20812 H 1928.52 -1.38927 -6.64738 0
M  V30 20813 H 1926.46 0.850204 -6.50467 0
M  V30 20814 H 1926.38 -0.536537 -7.54094 0
M  V30 20815 H 1927.65 0.63047 -7.76946 0
M  V30 20816 N 1931.88 1.43833 -0.644194 0
M  V30 20817 C 1932.82 2.30739 0.0528797 0
M  V30 20818 C 1933.79 1.44234 0.823751 0
M  V30 20819 O 1934.98 1.73118 0.802171 0
M  V30 20820 C 1932.12 3.29695 1.01956 0
M  V30 20821 C 1931.23 4.31301 0.245734 0
M  V30 20822 C 1930.37 5.17343 1.2054 0
M  V30 20823 C 1929.41 6.10647 0.421486 0
M  V30 20824 N 1928.54 6.89344 1.33228 0
M  V30 20825 H 1933.38 2.89803 -0.694123 0
M  V30 20826 H 1930.92 1.42775 -0.354069 0
M  V30 20827 H 1932.88 3.85568 1.59353 0
M  V30 20828 H 1931.51 2.72302 1.73354 0
M  V30 20829 H 1930.56 3.77795 -0.44438 0
M  V30 20830 H 1931.87 4.97468 -0.364231 0
M  V30 20831 H 1931.03 5.77797 1.85029 0
M  V30 20832 H 1929.76 4.51279 1.84928 0
M  V30 20833 H 1928.77 5.4929 -0.236816 0
M  V30 20834 H 1929.99 6.7875 -0.217862 0
M  V30 20835 H 1927.94 6.25937 1.96312 0
M  V30 20836 H 1927.86 7.52 0.776653 0
M  V30 20837 H 1929.13 7.54311 1.9656 0
M  V30 20838 N 1933.35 0.385544 1.52811 0
M  V30 20839 C 1934.6 -0.19907 2.00715 0
M  V30 20840 C 1934.92 -1.48216 1.27638 0
M  V30 20841 O 1936.12 -2.14659 1.66234 0
M  V30 20842 C 1934.58 -0.405311 3.5761 0
M  V30 20843 C 1934.19 0.864306 4.39584 0
M  V30 20844 C 1935.93 -0.946495 4.13814 0
M  V30 20845 C 1933.84 0.626551 5.88072 0
M  V30 20846 H 1932.77 -0.0781676 0.749937 0
M  V30 20847 H 1935.42 0.507365 1.76346 0
M  V30 20848 H 1933.8 -1.1735 3.78213 0
M  V30 20849 H 1934.97 1.63683 4.30749 0
M  V30 20850 H 1933.29 1.33017 3.94583 0
M  V30 20851 H 1935.89 -1.14002 5.22406 0
M  V30 20852 H 1936.23 -1.91447 3.69667 0
M  V30 20853 H 1936.76 -0.23797 3.97088 0
M  V30 20854 H 1933.5 1.56542 6.36534 0
M  V30 20855 H 1933.02 -0.107102 5.99704 0
M  V30 20856 H 1934.7 0.259654 6.46479 0
M  V30 20857 N 1934.83 -1.57178 0.115259 0
M  V30 20858 C 1936.08 -1.94241 -0.54344 0
M  V30 20859 C 1936.39 -1.0006 -1.68069 0
M  V30 20860 O 1937.6 -1.26574 -2.4019 0
M  V30 20861 C 1936.06 -3.45199 -1.0181 0
M  V30 20862 C 1935.66 -4.47909 0.0904861 0
M  V30 20863 C 1937.41 -3.91188 -1.64839 0
M  V30 20864 C 1935.32 -5.90041 -0.400667 0
M  V30 20865 H 1934.25 -0.725092 -0.206778 0
M  V30 20866 H 1936.9 -1.82466 0.194509 0
M  V30 20867 H 1935.28 -3.52196 -1.81036 0
M  V30 20868 H 1936.45 -4.52577 0.866638 0
M  V30 20869 H 1934.77 -4.11649 0.627197 0
M  V30 20870 H 1937.36 -4.94792 -2.02694 0
M  V30 20871 H 1937.71 -3.30955 -2.52536 0
M  V30 20872 H 1938.24 -3.86977 -0.92161 0
M  V30 20873 H 1934.98 -6.54021 0.440159 0
M  V30 20874 H 1934.5 -5.88801 -1.14338 0
M  V30 20875 H 1936.18 -6.41217 -0.863111 0
M  V30 20876 N 1936.31 0.158505 -1.56801 0
M  V30 20877 C 1937.56 0.871313 -1.82353 0
M  V30 20878 C 1937.88 1.8222 -0.694324 0
M  V30 20879 O 1937.15 1.93817 0.284899 0
M  V30 20880 H 1935.73 0.324747 -0.672717 0
M  V30 20881 H 1938.39 0.155257 -1.94281 0
M  V30 20882 H 1937.49 1.44051 -2.76868 0
M  V30 20883 N 1937.79 1.51692 0.427485 0
M  V30 20884 C 1938.72 1.69922 1.53816 0
M  V30 20885 C 1939.73 0.579757 1.52127 0
M  V30 20886 O 1940.92 0.854377 1.56725 0
M  V30 20887 C 1938.02 1.70772 2.92729 0
M  V30 20888 C 1937.2 2.99461 3.18813 0
M  V30 20889 C 1936.26 2.92367 4.37502 0
M  V30 20890 O 1935.28 3.663 4.35675 0
M  V30 20891 N 1936.48 2.08893 5.41612 0
M  V30 20892 H 1939.25 2.65737 1.38578 0
M  V30 20893 H 1936.81 1.497 0.616555 0
M  V30 20894 H 1938.8 1.63581 3.70167 0
M  V30 20895 H 1937.37 0.825087 3.01515 0
M  V30 20896 H 1936.59 3.20444 2.29585 0
M  V30 20897 H 1937.88 3.84629 3.33074 0
M  V30 20898 H 1937.28 1.48221 5.45937 0
M  V30 20899 H 1935.83 2.07575 6.17864 0
M  V30 20900 N 1939.27 -0.683564 1.42004 0
M  V30 20901 C 1940.51 -1.44577 1.42216 0
M  V30 20902 C 1940.85 -1.94168 0.0352735 0
M  V30 20903 O 1940.12 -1.70331 -0.939023 0
M  V30 20904 C 1940.4 -2.64909 2.43916 0
M  V30 20905 C 1940.26 -2.21006 3.9176 0
M  V30 20906 C 1941.58 -3.6712 2.42716 0
M  V30 20907 H 1938.7 -0.524376 0.517879 0
M  V30 20908 H 1941.34 -0.777575 1.7336 0
M  V30 20909 H 1939.49 -3.21918 2.17489 0
M  V30 20910 H 1941.16 -1.69233 4.29136 0
M  V30 20911 H 1939.4 -1.52667 4.06048 0
M  V30 20912 H 1940.07 -3.07401 4.58485 0
M  V30 20913 H 1942.55 -3.1981 2.66197 0
M  V30 20914 H 1941.43 -4.48907 3.15869 0
M  V30 20915 H 1941.69 -4.17645 1.45 0
M  V30 20916 N 1940.75 -1.28031 -0.919012 0
M  V30 20917 C 1942.16 -1.05624 -1.19649 0
M  V30 20918 C 1942.36 0.204731 -2.00457 0
M  V30 20919 O 1941.42 0.907849 -2.35615 0
M  V30 20920 C 1942.73 -2.3007 -1.93619 0
M  V30 20921 C 1944.28 -2.35196 -2.06523 0
M  V30 20922 C 1944.75 -3.59395 -2.839 0
M  V30 20923 N 1946.24 -3.60004 -2.91464 0
M  V30 20924 C 1946.98 -4.52779 -3.51822 0
M  V30 20925 N 1946.48 -5.55868 -4.13501 0
M  V30 20926 N 1948.27 -4.40385 -3.4931 0
M  V30 20927 H 1940.42 -2.08985 -0.379372 0
M  V30 20928 H 1942.68 -0.919558 -0.230473 0
M  V30 20929 H 1942.39 -3.21907 -1.41665 0
M  V30 20930 H 1942.26 -2.36071 -2.94195 0
M  V30 20931 H 1944.65 -1.4386 -2.57659 0
M  V30 20932 H 1944.73 -2.33194 -1.0514 0
M  V30 20933 H 1944.37 -4.51072 -2.33445 0
M  V30 20934 H 1944.3 -3.58651 -3.85587 0
M  V30 20935 H 1946.8 -2.85455 -2.47637 0
M  V30 20936 H 1947.11 -6.22812 -4.57521 0
M  V30 20937 H 1945.45 -5.597 -4.12021 0
M  V30 20938 H 1948.64 -3.59053 -3.0033 0
M  V30 20939 H 1948.82 -5.12877 -3.96057 0
M  V30 20940 N 1942.22 1.12672 -1.10194 0
M  V30 20941 C 1943.5 1.80442 -0.75499 0
M  V30 20942 C 1943.88 1.96988 0.758887 0
M  V30 20943 O 1943.23 1.54424 1.6842 0
M  V30 20944 C 1943.44 3.14969 -1.50317 0
M  V30 20945 C 1944.79 3.90205 -1.67409 0
M  V30 20946 O 1945.81 3.24618 -1.46634 0
M  V30 20947 O 1944.67 5.07864 -2.01833 0
M  V30 20948 H 1941.76 0.780952 -0.272109 0
M  V30 20949 H 1944.31 1.1953 -1.20461 0
M  V30 20950 H 1943.08 2.98202 -2.5336 0
M  V30 20951 H 1942.7 3.83587 -1.04625 0
M  V30 20952 N 1943.7 0.89031 1.30043 0
M  V30 20953 C 1944.63 0.31832 2.26979 0
M  V30 20954 C 1945.65 -0.530108 1.53928 0
M  V30 20955 O 1946.84 -0.348791 1.75059 0
M  V30 20956 C 1943.94 -0.565563 3.34148 0
M  V30 20957 C 1943.11 0.255006 4.36656 0
M  V30 20958 C 1942.17 -0.560216 5.23209 0
M  V30 20959 O 1941.19 0.0189739 5.69197 0
M  V30 20960 N 1942.4 -1.86825 5.49615 0
M  V30 20961 H 1945.16 1.15143 2.76699 0
M  V30 20962 H 1942.72 0.753836 1.43279 0
M  V30 20963 H 1944.71 -1.11711 3.88976 0
M  V30 20964 H 1943.28 -1.29935 2.84316 0
M  V30 20965 H 1942.5 0.987993 3.81618 0
M  V30 20966 H 1943.79 0.817308 5.02193 0
M  V30 20967 H 1943.19 -2.36167 5.14045 0
M  V30 20968 H 1941.75 -2.36713 6.07297 0
M  V30 20969 N 1945.18 -1.43489 0.651812 0
M  V30 20970 C 1946.14 -2.29179 -0.0311937 0
M  V30 20971 C 1947.14 -1.42135 -0.751953 0
M  V30 20972 O 1948.33 -1.63781 -0.593416 0
M  V30 20973 C 1945.46 -3.24168 -1.0549 0
M  V30 20974 H 1946.66 -2.91061 0.722741 0
M  V30 20975 H 1944.21 -1.50746 0.412968 0
M  V30 20976 H 1944.95 -2.67177 -1.83812 0
M  V30 20977 H 1944.73 -3.88339 -0.541752 0
M  V30 20978 H 1946.22 -3.88487 -1.53193 0
M  V30 20979 N 1946.66 -0.393643 -1.52605 0
M  V30 20980 C 1947.57 0.446642 -2.30309 0
M  V30 20981 C 1948.58 1.06758 -1.374 0
M  V30 20982 O 1949.76 1.07246 -1.70471 0
M  V30 20983 C 1946.82 1.5564 -3.09802 0
M  V30 20984 C 1945.89 0.960113 -4.18426 0
M  V30 20985 C 1945.12 2.01698 -4.94119 0
M  V30 20986 O 1945.34 3.23273 -4.69947 0
M  V30 20987 O 1944.28 1.63186 -5.79357 0
M  V30 20988 H 1948.1 -0.186494 -3.03127 0
M  V30 20989 H 1945.69 -0.157245 -1.4857 0
M  V30 20990 H 1947.57 2.201 -3.59352 0
M  V30 20991 H 1946.24 2.17442 -2.39793 0
M  V30 20992 H 1945.15 0.278648 -3.73061 0
M  V30 20993 H 1946.48 0.386245 -4.90682 0
M  V30 20994 N 1948.14 1.57115 -0.123593 0
M  V30 20995 C 1949.09 2.12114 0.836157 0
M  V30 20996 C 1950.07 1.04305 1.22512 0
M  V30 20997 O 1951.26 1.3053 1.19545 0
M  V30 20998 C 1948.39 2.72776 2.08442 0
M  V30 20999 C 1947.48 3.87673 1.71962 0
M  V30 21000 N 1947.87 4.9453 1.0618 0
M  V30 21001 C 1946.17 3.97942 2.0139 0
M  V30 21002 C 1946.87 5.74861 0.889393 0
M  V30 21003 N 1945.84 5.24838 1.41586 0
M  V30 21004 H 1949.64 2.92108 0.324092 0
M  V30 21005 H 1947.16 1.62209 0.0787292 0
M  V30 21006 H 1949.16 3.10525 2.78172 0
M  V30 21007 H 1947.82 1.94247 2.60188 0
M  V30 21008 H 1948.83 5.12797 0.725245 0
M  V30 21009 H 1945.5 3.30461 2.5515 0
M  V30 21010 H 1946.89 6.70866 0.372697 0
M  V30 21011 N 1949.61 -0.150187 1.56883 0
M  V30 21012 C 1950.54 -1.18735 2.01058 0
M  V30 21013 C 1951.52 -1.44983 0.889606 0
M  V30 21014 O 1952.71 -1.55958 1.15719 0
M  V30 21015 C 1949.84 -2.52129 2.38848 0
M  V30 21016 C 1948.79 -2.40408 3.54101 0
M  V30 21017 C 1948.12 -3.78484 3.77695 0
M  V30 21018 C 1949.42 -1.89087 4.86871 0
M  V30 21019 H 1951.11 -0.820044 2.87951 0
M  V30 21020 H 1948.66 -0.393025 1.38533 0
M  V30 21021 H 1950.61 -3.24908 2.68352 0
M  V30 21022 H 1949.34 -2.90688 1.48889 0
M  V30 21023 H 1948 -1.70082 3.24758 0
M  V30 21024 H 1947.64 -4.14474 2.84992 0
M  V30 21025 H 1947.34 -3.71504 4.55256 0
M  V30 21026 H 1948.87 -4.52816 4.09621 0
M  V30 21027 H 1950.28 -2.51656 5.15114 0
M  V30 21028 H 1948.68 -1.93005 5.68216 0
M  V30 21029 H 1949.75 -0.846357 4.77457 0
M  V30 21030 N 1951.09 -1.51916 -0.419434 0
M  V30 21031 C 1952.04 -1.7452 -1.51035 0
M  V30 21032 C 1953.01 -0.587321 -1.5537 0
M  V30 21033 O 1954.19 -0.823744 -1.72102 0
M  V30 21034 C 1951.33 -1.89242 -2.88585 0
M  V30 21035 C 1950.45 -3.16859 -2.9364 0
M  V30 21036 C 1949.58 -3.22072 -4.22426 0
M  V30 21037 C 1948.62 -4.43931 -4.21416 0
M  V30 21038 N 1947.76 -4.46594 -5.41755 0
M  V30 21039 H 1952.6 -2.67631 -1.31063 0
M  V30 21040 H 1950.14 -1.32623 -0.636368 0
M  V30 21041 H 1952.09 -1.9576 -3.68421 0
M  V30 21042 H 1950.72 -0.995211 -3.07076 0
M  V30 21043 H 1949.78 -3.19562 -2.06359 0
M  V30 21044 H 1951.09 -4.06719 -2.88758 0
M  V30 21045 H 1950.24 -3.27605 -5.10647 0
M  V30 21046 H 1948.98 -2.30131 -4.29989 0
M  V30 21047 H 1947.99 -4.38555 -3.31586 0
M  V30 21048 H 1949.21 -5.37155 -4.15501 0
M  V30 21049 H 1947.16 -3.57532 -5.50006 0
M  V30 21050 H 1947.07 -5.30286 -5.38825 0
M  V30 21051 H 1948.34 -4.56343 -6.31958 0
M  V30 21052 N 1952.57 0.676023 -1.42365 0
M  V30 21053 C 1953.8 1.46436 -1.46164 0
M  V30 21054 C 1954.21 1.8866 -0.0726092 0
M  V30 21055 O 1953.57 1.58056 0.912395 0
M  V30 21056 C 1953.62 2.71428 -2.38766 0
M  V30 21057 O 1953.34 2.30976 -3.72266 0
M  V30 21058 C 1954.84 3.65001 -2.51573 0
M  V30 21059 H 1952.06 0.450625 -0.49717 0
M  V30 21060 H 1954.61 0.830748 -1.86866 0
M  V30 21061 H 1952.76 3.30981 -2.01321 0
M  V30 21062 H 1953.18 3.11682 -4.21846 0
M  V30 21063 H 1954.65 4.49432 -3.20492 0
M  V30 21064 H 1955.13 4.10818 -1.55322 0
M  V30 21065 H 1955.73 3.11342 -2.89735 0
M  V30 21066 N 1954.05 1.28517 0.912209 0
M  V30 21067 C 1955.01 1.12594 1.99637 0
M  V30 21068 C 1956.01 0.0651449 1.60668 0
M  V30 21069 O 1957.2 0.311054 1.714 0
M  V30 21070 C 1954.33 0.719053 3.3323 0
M  V30 21071 H 1955.53 2.08884 2.15192 0
M  V30 21072 H 1953.08 1.11525 1.09508 0
M  V30 21073 H 1953.81 -0.244536 3.23377 0
M  V30 21074 H 1953.6 1.48536 3.62876 0
M  V30 21075 H 1955.09 0.630346 4.12815 0
M  V30 21076 N 1955.53 -1.12086 1.1079 0
M  V30 21077 C 1956.77 -1.83949 0.853848 0
M  V30 21078 C 1957.11 -1.8407 -0.619029 0
M  V30 21079 O 1956.38 -1.28889 -1.45664 0
M  V30 21080 C 1956.66 -3.31452 1.40754 0
M  V30 21081 C 1956.52 -3.39765 2.94754 0
M  V30 21082 C 1957.84 -4.2732 1.05288 0
M  V30 21083 H 1954.95 -0.667872 0.311635 0
M  V30 21084 H 1957.6 -1.31475 1.37166 0
M  V30 21085 H 1955.75 -3.7627 0.967112 0
M  V30 21086 H 1957.42 -3.03555 3.4735 0
M  V30 21087 H 1955.66 -2.80196 3.31168 0
M  V30 21088 H 1956.33 -4.43553 3.2858 0
M  V30 21089 H 1958.81 -3.90647 1.43297 0
M  V30 21090 H 1957.68 -5.28929 1.46716 0
M  V30 21091 H 1957.95 -4.42084 -0.0372227 0
M  V30 21092 N 1957 -0.897194 -1.29569 0
M  V30 21093 C 1957.94 -0.330353 -2.26807 0
M  V30 21094 C 1958.95 0.521937 -1.54207 0
M  V30 21095 O 1960.14 0.339502 -1.75242 0
M  V30 21096 C 1957.24 0.547835 -3.34443 0
M  V30 21097 C 1956.41 -0.278159 -4.36515 0
M  V30 21098 C 1955.47 0.532461 -5.23499 0
M  V30 21099 O 1954.5 -0.0491596 -5.69179 0
M  V30 21100 N 1955.7 1.83908 -5.50598 0
M  V30 21101 H 1958.46 -1.16608 -2.76084 0
M  V30 21102 H 1956.02 -0.761424 -1.42877 0
M  V30 21103 H 1958.02 1.09647 -3.89563 0
M  V30 21104 H 1956.59 1.28425 -2.85001 0
M  V30 21105 H 1955.81 -1.00822 -3.81089 0
M  V30 21106 H 1957.09 -0.843929 -5.01752 0
M  V30 21107 H 1956.49 2.33437 -5.1529 0
M  V30 21108 H 1955.05 2.33489 -6.08544 0
M  V30 21109 N 1958.48 1.43142 -0.659413 0
M  V30 21110 C 1959.42 2.28066 0.0782731 0
M  V30 21111 C 1960.39 1.40185 0.82383 0
M  V30 21112 O 1961.58 1.69627 0.822128 0
M  V30 21113 C 1958.7 3.19726 1.11772 0
M  V30 21114 C 1957.75 4.23908 0.469506 0
M  V30 21115 S 1958.58 5.30058 -0.761531 0
M  V30 21116 C 1959.74 6.25286 0.277227 0
M  V30 21117 H 1959.97 2.90283 -0.642102 0
M  V30 21118 H 1957.51 1.47744 -0.448449 0
M  V30 21119 H 1959.46 3.73078 1.7124 0
M  V30 21120 H 1958.12 2.56674 1.81045 0
M  V30 21121 H 1957.32 4.88168 1.2533 0
M  V30 21122 H 1956.92 3.73965 -0.0512104 0
M  V30 21123 H 1959.21 6.67813 1.14158 0
M  V30 21124 H 1960.15 7.07328 -0.330513 0
M  V30 21125 H 1960.56 5.61131 0.61581 0
M  V30 21126 N 1959.96 0.40173 1.52394 0
M  V30 21127 C 1960.92 -0.41541 2.25404 0
M  V30 21128 C 1961.92 -0.979848 1.27498 0
M  V30 21129 O 1963.11 -0.859891 1.51498 0
M  V30 21130 C 1960.25 -1.58403 3.01863 0
M  V30 21131 H 1961.44 0.223965 2.99063 0
M  V30 21132 H 1958.99 0.154095 1.55539 0
M  V30 21133 H 1959.73 -2.26048 2.32536 0
M  V30 21134 H 1959.51 -1.18586 3.73737 0
M  V30 21135 H 1961 -2.16224 3.57263 0
M  V30 21136 N 1961.44 -1.57047 0.131923 0
M  V30 21137 C 1962.68 -1.95921 -0.5237 0
M  V30 21138 C 1963.02 -1.01606 -1.65499 0
M  V30 21139 O 1962.29 -0.0556233 -1.9442 0
M  V30 21140 C 1962.58 -3.44629 -1.04418 0
M  V30 21141 C 1962.43 -4.4972 0.084583 0
M  V30 21142 C 1963.75 -3.9548 -1.93089 0
M  V30 21143 H 1960.87 -0.712382 -0.188894 0
M  V30 21144 H 1963.51 -1.88835 0.2101 0
M  V30 21145 H 1961.66 -3.50799 -1.6695 0
M  V30 21146 H 1963.33 -4.5564 0.720384 0
M  V30 21147 H 1961.57 -4.27339 0.745906 0
M  V30 21148 H 1962.24 -5.51066 -0.321051 0
M  V30 21149 H 1964.72 -3.91695 -1.40408 0
M  V30 21150 H 1963.6 -5.00025 -2.2642 0
M  V30 21151 H 1963.86 -3.36939 -2.86224 0
M  V30 21152 N 1962.92 0.141865 -1.5696 0
M  V30 21153 C 1964.16 0.853609 -1.83629 0
M  V30 21154 C 1964.49 1.80937 -0.713591 0
M  V30 21155 O 1963.75 1.93433 0.296981 0
M  V30 21156 C 1964.05 1.65717 -3.16658 0
M  V30 21157 C 1963.71 0.847748 -4.42859 0
M  V30 21158 C 1962.37 0.624458 -4.77131 0
M  V30 21159 C 1964.73 0.282029 -5.20436 0
M  V30 21160 C 1962.05 -0.175174 -5.86438 0
M  V30 21161 C 1964.41 -0.50467 -6.30584 0
M  V30 21162 C 1963.07 -0.738489 -6.63402 0
M  V30 21163 H 1962.34 0.312358 -0.671948 0
M  V30 21164 H 1964.99 0.117006 -1.91142 0
M  V30 21165 H 1963.29 2.46403 -3.04619 0
M  V30 21166 H 1964.99 2.21144 -3.34509 0
M  V30 21167 H 1961.58 1.03185 -4.15994 0
M  V30 21168 H 1965.76 0.441806 -4.9433 0
M  V30 21169 H 1961.02 -0.365778 -6.10305 0
M  V30 21170 H 1965.19 -0.950134 -6.89888 0
M  V30 21171 H 1962.82 -1.35995 -7.47937 0
M  V30 21172 N 1964.39 1.52136 0.411372 0
M  V30 21173 C 1965.64 1.65314 1.15561 0
M  V30 21174 C 1965.96 0.38805 1.91712 0
M  V30 21175 O 1967.16 0.399588 2.68543 0
M  V30 21176 C 1965.62 2.92059 2.10308 0
M  V30 21177 C 1965.23 4.25667 1.39684 0
M  V30 21178 C 1966.97 3.14599 2.85005 0
M  V30 21179 C 1964.88 5.43538 2.33067 0
M  V30 21180 H 1963.81 0.615812 0.435077 0
M  V30 21181 H 1966.46 1.78622 0.420271 0
M  V30 21182 H 1964.84 2.72444 2.87385 0
M  V30 21183 H 1966.01 4.55757 0.679869 0
M  V30 21184 H 1964.33 4.09212 0.77038 0
M  V30 21185 H 1966.93 3.99839 3.55011 0
M  V30 21186 H 1967.27 2.28739 3.47828 0
M  V30 21187 H 1967.8 3.34676 2.15028 0
M  V30 21188 H 1964.54 6.31738 1.74894 0
M  V30 21189 H 1964.06 5.1779 3.02744 0
M  V30 21190 H 1965.74 5.76527 2.93641 0
M  V30 21191 N 1965.87 -0.668464 1.42721 0
M  V30 21192 C 1966.82 -1.77463 1.43147 0
M  V30 21193 C 1967.81 -1.58042 0.301932 0
M  V30 21194 O 1969 -1.68413 0.544623 0
M  V30 21195 C 1966.13 -3.15963 1.34247 0
M  V30 21196 C 1965.21 -3.40985 2.52171 0
M  V30 21197 N 1965.61 -3.36558 3.77575 0
M  V30 21198 C 1963.9 -3.71646 2.46568 0
M  V30 21199 C 1964.6 -3.61239 4.5594 0
M  V30 21200 N 1963.58 -3.82312 3.86443 0
M  V30 21201 H 1967.38 -1.72442 2.37993 0
M  V30 21202 H 1964.9 -0.86955 1.37159 0
M  V30 21203 H 1966.89 -3.95239 1.32634 0
M  V30 21204 H 1965.55 -3.22176 0.404081 0
M  V30 21205 H 1966.56 -3.16315 4.1008 0
M  V30 21206 H 1963.24 -3.85066 1.6134 0
M  V30 21207 H 1964.63 -3.63724 5.64938 0
M  V30 21208 N 1967.35 -1.28999 -0.905381 0
M  V30 21209 C 1968.3 -1.13515 -2.0302 0
M  V30 21210 C 1969.29 -0.0522132 -1.6932 0
M  V30 21211 O 1970.5 -0.211599 -1.78752 0
M  V30 21212 H 1966.87 -0.350474 -0.665336 0
M  V30 21213 H 1968.85 -2.08758 -2.13219 0
M  V30 21214 C 1967.59 -0.822531 -3.37831 0
M  V30 21215 H 1966.92 -1.64783 -3.64262 0
M  V30 21216 H 1968.36 -0.754193 -4.17238 0
M  V30 21217 C 1966.82 0.474033 -3.33548 0
M  V30 21218 O 1967.35 1.50182 -3.7257 0
M  V30 21219 N 1965.55 0.477812 -2.86645 0
M  V30 21220 H 1965.1 -0.359023 -2.55086 0
M  V30 21221 H 1965.06 1.34533 -2.84162 0
M  V30 21222 N 1968.83 1.11497 -1.11383 0
M  V30 21223 C 1970.08 1.83222 -0.862314 0
M  V30 21224 C 1970.4 1.84619 0.612047 0
M  V30 21225 O 1969.66 1.29435 1.46782 0
M  V30 21226 C 1969.96 3.30169 -1.36832 0
M  V30 21227 C 1969.62 3.48933 -2.85581 0
M  V30 21228 C 1968.29 3.53762 -3.26199 0
M  V30 21229 C 1970.64 3.55237 -3.81387 0
M  V30 21230 C 1967.97 3.6245 -4.61353 0
M  V30 21231 C 1970.32 3.65455 -5.16358 0
M  V30 21232 C 1968.98 3.68544 -5.56535 0
M  V30 21233 H 1968.25 0.670458 -0.315543 0
M  V30 21234 H 1970.9 1.31499 -1.39213 0
M  V30 21235 H 1969.2 3.84383 -0.75873 0
M  V30 21236 H 1970.9 3.84154 -1.15006 0
M  V30 21237 H 1967.49 3.45844 -2.53159 0
M  V30 21238 H 1971.68 3.50767 -3.51107 0
M  V30 21239 H 1966.93 3.63118 -4.9189 0
M  V30 21240 H 1971.11 3.69276 -5.9043 0
M  V30 21241 H 1968.73 3.75029 -6.61255 0
M  V30 21242 N 1970.31 0.904053 1.29092 0
M  V30 21243 C 1971.25 0.38351 2.27591 0
M  V30 21244 C 1972.22 -0.536758 1.57188 0
M  V30 21245 O 1973.41 -0.461057 1.85146 0
M  V30 21246 C 1970.55 -0.379051 3.43012 0
M  V30 21247 C 1969.66 0.572611 4.28188 0
M  V30 21248 C 1968.8 -0.207434 5.30795 0
M  V30 21249 C 1967.84 0.73847 6.07629 0
M  V30 21250 N 1966.97 -0.00744238 7.021 0
M  V30 21251 H 1971.81 1.22855 2.71497 0
M  V30 21252 H 1969.35 0.617145 1.33528 0
M  V30 21253 H 1971.31 -0.83727 4.08712 0
M  V30 21254 H 1969.94 -1.18851 3.00124 0
M  V30 21255 H 1968.99 1.14935 3.62621 0
M  V30 21256 H 1970.3 1.29648 4.81656 0
M  V30 21257 H 1969.46 -0.726655 6.02333 0
M  V30 21258 H 1968.2 -0.964417 4.78069 0
M  V30 21259 H 1967.2 1.26915 5.34951 0
M  V30 21260 H 1968.43 1.49485 6.62443 0
M  V30 21261 H 1966.37 -0.746612 6.51737 0
M  V30 21262 H 1966.29 0.656439 7.53145 0
M  V30 21263 H 1967.56 -0.506785 7.77851 0
M  V30 21264 N 1971.79 -1.4279 0.666995 0
M  V30 21265 C 1973.2 -1.56027 0.335817 0
M  V30 21266 C 1973.4 -1.64812 -1.15928 0
M  V30 21267 O 1972.46 -1.61074 -1.94451 0
M  V30 21268 C 1973.77 -2.81425 1.05928 0
M  V30 21269 C 1975.32 -2.95187 1.04085 0
M  V30 21270 C 1975.79 -4.23435 1.74548 0
M  V30 21271 N 1977.28 -4.3033 1.71379 0
M  V30 21272 C 1978.02 -5.2836 2.22762 0
M  V30 21273 N 1977.52 -6.32589 2.82494 0
M  V30 21274 N 1979.31 -5.20106 2.13182 0
M  V30 21275 H 1971.46 -1.35332 1.63704 0
M  V30 21276 H 1973.72 -0.650895 0.689231 0
M  V30 21277 H 1973.43 -2.81044 2.1144 0
M  V30 21278 H 1973.3 -3.72077 0.619546 0
M  V30 21279 H 1975.69 -2.95099 -0.00591289 0
M  V30 21280 H 1975.77 -2.05786 1.5194 0
M  V30 21281 H 1975.41 -4.24283 2.79189 0
M  V30 21282 H 1975.34 -5.11756 1.24149 0
M  V30 21283 H 1977.84 -3.55633 1.27803 0
M  V30 21284 H 1978.15 -7.03733 3.19343 0
M  V30 21285 H 1976.49 -6.33173 2.86561 0
M  V30 21286 H 1979.68 -4.37597 1.66211 0
M  V30 21287 H 1979.86 -5.96343 2.53534 0
M  V30 21288 N 1973.26 -0.409806 -1.52179 0
M  V30 21289 C 1974.21 0.415351 -2.27032 0
M  V30 21290 C 1975.18 1.04048 -1.29473 0
M  V30 21291 O 1976.37 1.06462 -1.58336 0
M  V30 21292 C 1973.51 1.52571 -3.09542 0
M  V30 21293 C 1972.62 0.921439 -4.22059 0
M  V30 21294 C 1971.75 2.00455 -4.91926 0
M  V30 21295 C 1970.79 1.37725 -5.96404 0
M  V30 21296 N 1969.93 2.40054 -6.59787 0
M  V30 21297 H 1974.77 -0.22939 -2.97116 0
M  V30 21298 H 1972.31 -0.124962 -1.46568 0
M  V30 21299 H 1974.26 2.18046 -3.55685 0
M  V30 21300 H 1972.89 2.14047 -2.41627 0
M  V30 21301 H 1971.95 0.15572 -3.80081 0
M  V30 21302 H 1973.26 0.423208 -4.97001 0
M  V30 21303 H 1972.41 2.73655 -5.41477 0
M  V30 21304 H 1971.15 2.53644 -4.16552 0
M  V30 21305 H 1970.16 0.63059 -5.46172 0
M  V30 21306 H 1971.38 0.853049 -6.73721 0
M  V30 21307 H 1969.33 2.92374 -5.87242 0
M  V30 21308 H 1969.24 1.95045 -7.30406 0
M  V30 21309 H 1970.51 3.12822 -7.13977 0
M  V30 21310 N 1974.74 1.56975 -0.14025 0
M  V30 21311 C 1975.99 1.95519 0.51153 0
M  V30 21312 C 1976.31 1.02572 1.65843 0
M  V30 21313 O 1975.58 0.0859828 1.95711 0
M  V30 21314 H 1974.16 0.721914 0.191961 0
M  V30 21315 H 1976.82 1.9372 -0.214169 0
M  V30 21316 H 1975.92 2.99078 0.892131 0
M  V30 21317 N 1976.22 -0.133539 1.57033 0
M  V30 21318 C 1977.47 -0.842192 1.83716 0
M  V30 21319 C 1977.79 -1.81092 0.723225 0
M  V30 21320 O 1977.06 -1.94246 -0.254028 0
M  V30 21321 H 1975.64 -0.314004 0.677798 0
M  V30 21322 H 1978.3 -0.124329 1.94503 0
M  V30 21323 H 1977.4 -1.39628 2.79125 0
M  V30 21324 N 1977.7 -1.52352 -0.403298 0
M  V30 21325 C 1978.95 -1.65924 -1.14683 0
M  V30 21326 C 1979.26 -0.398212 -1.91504 0
M  V30 21327 O 1980.47 -0.413824 -2.68328 0
M  V30 21328 C 1978.92 -2.9317 -2.08757 0
M  V30 21329 C 1978.53 -4.26402 -1.37425 0
M  V30 21330 C 1980.27 -3.16106 -2.83332 0
M  V30 21331 C 1978.18 -5.44766 -2.30181 0
M  V30 21332 H 1977.11 -0.61811 -0.431805 0
M  V30 21333 H 1979.76 -1.78843 -0.410792 0
M  V30 21334 H 1978.14 -2.73964 -2.85937 0
M  V30 21335 H 1979.32 -4.56111 -0.65569 0
M  V30 21336 H 1977.63 -4.09614 -0.748668 0
M  V30 21337 H 1980.23 -4.01716 -3.52886 0
M  V30 21338 H 1980.57 -2.30581 -3.4661 0
M  V30 21339 H 1981.11 -3.35811 -2.1325 0
M  V30 21340 H 1977.84 -6.32656 -1.71541 0
M  V30 21341 H 1977.36 -5.19388 -2.99993 0
M  V30 21342 H 1979.04 -5.78077 -2.9058 0
M  V30 21343 N 1979.18 0.660885 -1.43074 0
M  V30 21344 C 1980.42 1.41805 -1.43999 0
M  V30 21345 C 1980.74 1.949 -0.0625341 0
M  V30 21346 O 1980.01 1.7395 0.901019 0
M  V30 21347 H 1978.59 0.526263 -0.530147 0
M  V30 21348 H 1981.26 0.779967 -1.78613 0
M  V30 21349 H 1980.35 2.2642 -2.14803 0
M  V30 21350 N 1980.65 1.29477 0.898527 0
M  V30 21351 C 1981.9 1.17284 1.64587 0
M  V30 21352 C 1982.22 -0.275718 1.93041 0
M  V30 21353 O 1981.49 -1.18847 1.55731 0
M  V30 21354 H 1980.07 0.431068 0.610073 0
M  V30 21355 H 1982.74 1.62419 1.07732 0
M  V30 21356 H 1981.83 1.72375 2.60179 0
M  V30 21357 N 1982.13 -1.10905 1.11972 0
M  V30 21358 C 1983.36 -1.86284 0.893402 0
M  V30 21359 C 1983.77 -1.80704 -0.560594 0
M  V30 21360 O 1983.11 -1.19041 -1.3991 0
M  V30 21361 C 1983.18 -3.35793 1.28386 0
M  V30 21362 C 1982.84 -3.65137 2.74816 0
M  V30 21363 C 1983.84 -3.62148 3.73021 0
M  V30 21364 C 1981.52 -3.93967 3.11601 0
M  V30 21365 C 1983.52 -3.87575 5.06028 0
M  V30 21366 C 1981.2 -4.19051 4.44791 0
M  V30 21367 C 1982.2 -4.15844 5.41814 0
M  V30 21368 O 1981.89 -4.40294 6.72604 0
M  V30 21369 H 1981.62 -0.59576 0.319447 0
M  V30 21370 H 1984.17 -1.41148 1.49219 0
M  V30 21371 H 1982.4 -3.81563 0.628247 0
M  V30 21372 H 1984.09 -3.9255 1.03245 0
M  V30 21373 H 1984.86 -3.3992 3.45948 0
M  V30 21374 H 1980.74 -3.95596 2.36695 0
M  V30 21375 H 1984.28 -3.84987 5.81748 0
M  V30 21376 H 1980.18 -4.40757 4.71596 0
M  V30 21377 H 1980.95 -4.57833 6.78477 0
M  V30 21378 N 1983.61 -0.910886 -1.2861 0
M  V30 21379 C 1984.84 -0.557684 -1.99761 0
M  V30 21380 C 1985.26 0.853148 -1.67639 0
M  V30 21381 O 1984.62 1.5697 -0.907192 0
M  V30 21382 C 1984.67 -0.770188 -3.52279 0
M  V30 21383 O 1983.77 0.172155 -4.12041 0
M  V30 21384 H 1983.11 -0.216573 -0.627688 0
M  V30 21385 H 1985.64 -1.22554 -1.63834 0
M  V30 21386 H 1985.65 -0.679176 -4.02307 0
M  V30 21387 H 1984.33 -1.79869 -3.74993 0
M  V30 21388 H 1982.9 0.0326535 -3.72886 0
M  V30 21389 N 1985.09 1.42434 -0.674558 0
M  V30 21390 C 1986.05 2.29199 -0.00527063 0
M  V30 21391 C 1987.05 1.43313 0.729245 0
M  V30 21392 O 1988.24 1.64704 0.567284 0
M  V30 21393 C 1985.37 3.25805 1.0032 0
M  V30 21394 H 1986.57 2.89874 -0.768954 0
M  V30 21395 H 1984.12 1.5007 -0.436898 0
M  V30 21396 H 1984.85 2.70068 1.79538 0
M  V30 21397 H 1984.64 3.89152 0.479902 0
M  V30 21398 H 1986.13 3.90875 1.46993 0
M  V30 21399 N 1986.57 0.417871 1.51959 0
M  V30 21400 C 1987.81 -0.154746 2.01507 0
M  V30 21401 C 1988.14 -1.44898 1.30497 0
M  V30 21402 O 1987.41 -1.91043 0.433536 0
M  V30 21403 H 1985.99 -0.0601759 0.744572 0
M  V30 21404 H 1988.65 0.556118 1.86798 0
M  V30 21405 H 1987.74 -0.344616 3.10192 0
M  V30 21406 N 1988.04 -1.56898 0.148573 0
M  V30 21407 C 1988.95 -2.2041 -0.80353 0
M  V30 21408 C 1989.97 -1.18886 -1.27052 0
M  V30 21409 O 1991.15 -1.51468 -1.32738 0
M  V30 21410 C 1988.21 -2.81447 -2.02456 0
M  V30 21411 C 1987.27 -3.98102 -1.60665 0
M  V30 21412 C 1986.51 -4.56219 -2.76948 0
M  V30 21413 O 1986.73 -4.13215 -3.93204 0
M  V30 21414 O 1985.66 -5.46455 -2.52329 0
M  V30 21415 H 1989.49 -3.02284 -0.292881 0
M  V30 21416 H 1987.07 -1.49193 -0.0785299 0
M  V30 21417 H 1988.96 -3.20235 -2.73911 0
M  V30 21418 H 1987.63 -2.02585 -2.5247 0
M  V30 21419 H 1986.54 -3.64027 -0.862287 0
M  V30 21420 H 1987.87 -4.78489 -1.15365 0
M  V30 21421 N 1989.52 0.125209 -1.57102 0
M  V30 21422 C 1990.94 0.478555 -1.52256 0
M  V30 21423 C 1991.14 1.82199 -0.860573 0
M  V30 21424 O 1990.19 2.48632 -0.440282 0
M  V30 21425 C 1991.51 0.46877 -2.97024 0
M  V30 21426 C 1993.06 0.552759 -3.0808 0
M  V30 21427 C 1993.53 0.573425 -4.54396 0
M  V30 21428 N 1995.02 0.635039 -4.58826 0
M  V30 21429 C 1995.76 0.672375 -5.69444 0
M  V30 21430 N 1995.25 0.667732 -6.89575 0
M  V30 21431 N 1997.05 0.714913 -5.57535 0
M  V30 21432 H 1989.2 -0.755121 -1.98524 0
M  V30 21433 H 1991.46 -0.27786 -0.906365 0
M  V30 21434 H 1991.17 -0.450582 -3.48802 0
M  V30 21435 H 1991.04 1.29884 -3.54133 0
M  V30 21436 H 1993.43 1.46253 -2.56308 0
M  V30 21437 H 1993.51 -0.304874 -2.53977 0
M  V30 21438 H 1993.15 -0.332277 -5.06812 0
M  V30 21439 H 1993.08 1.44786 -5.06305 0
M  V30 21440 H 1995.57 0.645043 -3.72354 0
M  V30 21441 H 1995.89 0.698672 -7.69635 0
M  V30 21442 H 1994.23 0.635256 -6.92091 0
M  V30 21443 H 1997.42 0.715861 -4.62594 0
M  V30 21444 H 1997.59 0.740542 -6.43755 0
M  V30 21445 N 1991 1.52564 0.395213 0
M  V30 21446 C 1992.25 1.6653 1.13801 0
M  V30 21447 C 1992.56 0.408362 1.9129 0
M  V30 21448 O 1993.77 0.428049 2.68104 0
M  V30 21449 C 1992.22 2.94273 2.07199 0
M  V30 21450 C 1991.83 4.27125 1.35162 0
M  V30 21451 C 1993.58 3.17604 2.81652 0
M  V30 21452 C 1991.48 5.4598 2.27289 0
M  V30 21453 H 1990.41 0.620392 0.428521 0
M  V30 21454 H 1993.06 1.79058 0.401302 0
M  V30 21455 H 1991.45 2.75477 2.8448 0
M  V30 21456 H 1992.62 4.56452 0.631492 0
M  V30 21457 H 1990.94 4.10006 0.726934 0
M  V30 21458 H 1993.53 4.03582 3.5075 0
M  V30 21459 H 1993.88 2.32415 3.45382 0
M  V30 21460 H 1994.41 3.36938 2.11466 0
M  V30 21461 H 1991.15 6.33557 1.68184 0
M  V30 21462 H 1990.67 5.20972 2.97235 0
M  V30 21463 H 1992.35 5.79609 2.8751 0
M  V30 21464 N 1992.48 -0.653289 1.43422 0
M  V30 21465 C 1993.73 -1.40905 1.44322 0
M  V30 21466 C 1994.04 -1.95471 0.0711388 0
M  V30 21467 O 1995.25 -2.71467 -0.0424133 0
M  V30 21468 C 1993.7 -2.55001 2.53973 0
M  V30 21469 C 1993.31 -2.07043 3.97287 0
M  V30 21470 C 1995.05 -3.32369 2.64067 0
M  V30 21471 C 1992.96 -3.18351 4.98404 0
M  V30 21472 H 1991.89 -0.529424 0.536867 0
M  V30 21473 H 1994.54 -0.705139 1.69411 0
M  V30 21474 H 1992.92 -3.27863 2.22085 0
M  V30 21475 H 1994.1 -1.41193 4.38635 0
M  V30 21476 H 1992.41 -1.42555 3.91238 0
M  V30 21477 H 1995.01 -4.15305 3.36788 0
M  V30 21478 H 1995.35 -3.80394 1.69134 0
M  V30 21479 H 1995.89 -2.66588 2.95255 0
M  V30 21480 H 1992.63 -2.75294 5.94889 0
M  V30 21481 H 1992.15 -3.82913 4.61669 0
M  V30 21482 H 1993.82 -3.83483 5.21104 0
M  V30 21483 N 1993.96 -1.29952 -0.891648 0
M  V30 21484 C 1995.23 -1.09057 -1.62376 0
M  V30 21485 C 1995.61 0.362482 -2.07965 0
M  V30 21486 O 1994.96 1.35277 -1.84153 0
M  V30 21487 C 1995.17 -2.08543 -2.79841 0
M  V30 21488 C 1996.52 -2.39899 -3.50333 0
M  V30 21489 O 1997.54 -2.06801 -2.90021 0
M  V30 21490 O 1996.4 -2.96487 -4.59083 0
M  V30 21491 H 1993.5 -0.418386 -0.71336 0
M  V30 21492 H 1996.04 -1.41353 -0.939009 0
M  V30 21493 H 1994.81 -3.06378 -2.43409 0
M  V30 21494 H 1994.44 -1.77024 -3.56017 0
M  V30 21495 N 1995.44 1.1031 -1.12559 0
M  V30 21496 C 1996.68 1.81665 -0.876399 0
M  V30 21497 C 1997 1.86186 0.599506 0
M  V30 21498 O 1998.2 2.53759 0.965337 0
M  V30 21499 C 1996.66 3.26308 -1.51826 0
M  V30 21500 C 1996.27 3.30081 -3.02904 0
M  V30 21501 C 1998.01 4.02482 -1.34939 0
M  V30 21502 C 1995.92 4.69192 -3.60018 0
M  V30 21503 H 1994.85 0.680734 -0.324218 0
M  V30 21504 H 1997.5 1.24044 -1.35223 0
M  V30 21505 H 1995.88 3.83934 -0.970087 0
M  V30 21506 H 1997.06 2.82272 -3.64224 0
M  V30 21507 H 1995.37 2.67393 -3.19202 0
M  V30 21508 H 1997.97 5.05241 -1.7503 0
M  V30 21509 H 1998.31 4.15266 -0.293208 0
M  V30 21510 H 1998.84 3.51274 -1.86685 0
M  V30 21511 H 1995.58 4.61608 -4.65401 0
M  V30 21512 H 1995.1 5.17363 -3.03473 0
M  V30 21513 H 1996.78 5.38161 -3.59153 0
M  V30 21514 N 1996.91 0.917694 1.28125 0
M  V30 21515 C 1998.16 0.548771 1.94091 0
M  V30 21516 C 1998.48 -0.912688 1.73001 0
M  V30 21517 O 1999.68 -1.38994 2.33223 0
M  V30 21518 C 1998.14 0.930611 3.4766 0
M  V30 21519 C 1997.75 2.41207 3.77523 0
M  V30 21520 C 1999.49 0.632461 4.19762 0
M  V30 21521 C 1997.4 2.73383 5.24419 0
M  V30 21522 H 1996.33 0.201513 0.726573 0
M  V30 21523 H 1998.98 1.11715 1.45575 0
M  V30 21524 H 1997.36 0.290982 3.94929 0
M  V30 21525 H 1998.53 3.09876 3.41048 0
M  V30 21526 H 1996.85 2.68108 3.18602 0
M  V30 21527 H 1999.45 0.849481 5.27909 0
M  V30 21528 H 1999.79 -0.429909 4.14074 0
M  V30 21529 H 2000.32 1.23073 3.78283 0
M  V30 21530 H 1997.06 3.78489 5.35188 0
M  V30 21531 H 1996.58 2.09354 5.62077 0
M  V30 21532 H 1998.26 2.60595 5.92198 0
M  V30 21533 N 1998.39 -1.42074 0.682102 0
M  V30 21534 C 1999.35 -2.29193 0.0174256 0
M  V30 21535 C 2000.35 -1.43698 -0.721635 0
M  V30 21536 O 2001.54 -1.65003 -0.558542 0
M  V30 21537 C 1998.68 -3.26332 -0.985903 0
M  V30 21538 H 1999.87 -2.89462 0.784316 0
M  V30 21539 H 1997.42 -1.49836 0.44485 0
M  V30 21540 H 1998.16 -2.71016 -1.78103 0
M  V30 21541 H 1997.94 -3.89401 -0.459258 0
M  V30 21542 H 1999.43 -3.91649 -1.44918 0
M  V30 21543 N 1999.87 -0.425924 -1.51735 0
M  V30 21544 C 2001.1 0.143351 -2.06403 0
M  V30 21545 C 2001.51 1.37439 -1.29445 0
M  V30 21546 O 2000.87 1.79096 -0.350858 0
M  V30 21547 C 2000.92 0.477017 -3.58339 0
M  V30 21548 O 2000.64 -0.705148 -4.32388 0
M  V30 21549 C 2002.14 1.09821 -4.29481 0
M  V30 21550 H 1999.36 0.0129769 -0.670875 0
M  V30 21551 H 2001.91 -0.601719 -1.95447 0
M  V30 21552 H 2000.06 1.17198 -3.69247 0
M  V30 21553 H 2000.48 -0.422599 -5.22795 0
M  V30 21554 H 2001.95 1.28175 -5.36913 0
M  V30 21555 H 2002.43 2.07605 -3.87036 0
M  V30 21556 H 2003.03 0.442957 -4.22987 0
M  V30 21557 N 2001.35 1.56817 -0.156891 0
M  V30 21558 C 2002.62 1.88075 0.537326 0
M  V30 21559 C 2003 1.06447 1.82297 0
M  V30 21560 O 2002.35 0.154147 2.27979 0
M  V30 21561 C 2002.56 3.39866 0.79321 0
M  V30 21562 C 2003.91 4.09298 1.12961 0
M  V30 21563 O 2004.93 3.45102 0.882235 0
M  V30 21564 O 2003.79 5.22688 1.59561 0
M  V30 21565 H 2000.89 0.779855 0.275236 0
M  V30 21566 H 2003.43 1.68585 -0.194246 0
M  V30 21567 H 2002.21 3.91127 -0.11626 0
M  V30 21568 H 2001.83 3.64919 1.57861 0
M  V30 21569 N 2002.83 -0.116876 1.57166 0
M  V30 21570 C 2004.07 -0.822873 1.84151 0
M  V30 21571 C 2004.39 -1.80944 0.742867 0
M  V30 21572 O 2005.59 -2.56177 0.89919 0
M  V30 21573 C 2004.05 -1.51414 3.26499 0
M  V30 21574 C 2003.66 -0.568446 4.44379 0
M  V30 21575 C 2005.4 -2.20514 3.62731 0
M  V30 21576 C 2003.31 -1.26306 5.77755 0
M  V30 21577 H 2002.24 -0.311047 0.686852 0
M  V30 21578 H 2004.89 -0.0756323 1.83344 0
M  V30 21579 H 2003.27 -2.30807 3.21782 0
M  V30 21580 H 2004.45 0.192429 4.60398 0
M  V30 21581 H 2002.76 0.0157058 4.16397 0
M  V30 21582 H 2005.36 -2.73177 4.5965 0
M  V30 21583 H 2005.7 -2.98411 2.90269 0
M  V30 21584 H 2006.23 -1.48006 3.69241 0
M  V30 21585 H 2002.97 -0.525332 6.53392 0
M  V30 21586 H 2002.49 -1.99589 5.65618 0
M  V30 21587 H 2004.17 -1.79566 6.21583 0
M  V30 21588 N 2004.3 -1.52772 -0.387116 0
M  V30 21589 C 2005.24 -1.7394 -1.49256 0
M  V30 21590 C 2006.25 -0.619887 -1.50537 0
M  V30 21591 O 2007.44 -0.89563 -1.54404 0
M  V30 21592 C 2004.54 -1.78473 -2.88098 0
M  V30 21593 C 2003.71 -3.07809 -3.10761 0
M  V30 21594 C 2002.77 -3.03864 -4.29597 0
M  V30 21595 O 2001.8 -3.77723 -4.2581 0
M  V30 21596 N 2003 -2.2318 -5.35883 0
M  V30 21597 H 2005.76 -2.69318 -1.31484 0
M  V30 21598 H 2003.32 -1.51282 -0.576648 0
M  V30 21599 H 2005.32 -1.73338 -3.65699 0
M  V30 21600 H 2003.89 -0.904738 -2.99221 0
M  V30 21601 H 2003.11 -3.26418 -2.21009 0
M  V30 21602 H 2004.39 -3.93324 -3.22759 0
M  V30 21603 H 2003.79 -1.62644 -5.41815 0
M  V30 21604 H 2002.35 -2.23883 -6.12143 0
M  V30 21605 N 2005.78 0.645673 -1.43767 0
M  V30 21606 C 2007.01 1.43303 -1.49237 0
M  V30 21607 C 2007.42 1.88464 -0.11261 0
M  V30 21608 O 2006.78 1.59955 0.878664 0
M  V30 21609 C 2006.83 2.66302 -2.4447 0
M  V30 21610 O 2006.55 2.23028 -3.77081 0
M  V30 21611 C 2008.05 3.59583 -2.59259 0
M  V30 21612 H 2005.27 0.439978 -0.506617 0
M  V30 21613 H 2007.82 0.790924 -1.88586 0
M  V30 21614 H 2005.97 3.26636 -2.08296 0
M  V30 21615 H 2006.39 3.02664 -4.28363 0
M  V30 21616 H 2007.86 4.42532 -3.29953 0
M  V30 21617 H 2008.34 4.07431 -1.64001 0
M  V30 21618 H 2008.94 3.05126 -2.96274 0
M  V30 21619 N 2007.26 1.30423 0.884744 0
M  V30 21620 C 2008.21 1.16824 1.9905 0
M  V30 21621 C 2009.18 0.0576868 1.66 0
M  V30 21622 O 2010.36 0.227913 1.89434 0
M  V30 21623 C 2007.5 0.866281 3.3405 0
M  V30 21624 C 2006.61 2.05874 3.79789 0
M  V30 21625 C 2005.75 1.69484 5.03437 0
M  V30 21626 C 2004.79 2.85224 5.41585 0
M  V30 21627 N 2003.93 2.49129 6.56414 0
M  V30 21628 H 2008.77 2.1142 2.10013 0
M  V30 21629 H 2006.3 1.05188 1.02829 0
M  V30 21630 H 2008.26 0.671829 4.11755 0
M  V30 21631 H 2006.89 -0.0428113 3.22772 0
M  V30 21632 H 2005.94 2.36443 2.97992 0
M  V30 21633 H 2007.25 2.92549 4.04001 0
M  V30 21634 H 2006.41 1.46416 5.88768 0
M  V30 21635 H 2005.15 0.799794 4.81097 0
M  V30 21636 H 2004.15 3.08958 4.5478 0
M  V30 21637 H 2005.38 3.75416 5.65897 0
M  V30 21638 H 2003.32 1.6213 6.35649 0
M  V30 21639 H 2003.24 3.29336 6.80495 0
M  V30 21640 H 2004.51 2.29417 7.44975 0
M  V30 21641 N 2008.74 -1.09711 1.13142 0
M  V30 21642 C 2009.65 -2.19825 0.819391 0
M  V30 21643 C 2010.66 -1.72906 -0.19483 0
M  V30 21644 O 2011.84 -2.01382 -0.0265972 0
M  V30 21645 C 2008.9 -3.45512 0.286717 0
M  V30 21646 C 2007.97 -4.07128 1.36181 0
M  V30 21647 C 2007.2 -5.26816 0.854462 0
M  V30 21648 O 2007.42 -5.69562 -0.309043 0
M  V30 21649 O 2006.36 -5.79481 1.62745 0
M  V30 21650 H 2010.18 -2.48963 1.73928 0
M  V30 21651 H 2007.77 -1.18591 0.908654 0
M  V30 21652 H 2009.65 -4.214 -0.00508436 0
M  V30 21653 H 2008.32 -3.17984 -0.605634 0
M  V30 21654 H 2007.23 -3.32891 1.70689 0
M  V30 21655 H 2008.56 -4.38876 2.2282 0
M  V30 21656 N 2010.22 -0.924476 -1.27637 0
M  V30 21657 C 2011.15 -0.438348 -2.29349 0
M  V30 21658 C 2012.13 0.499673 -1.62595 0
M  V30 21659 O 2013.31 0.405114 -1.89928 0
M  V30 21660 C 2010.44 0.312668 -3.4589 0
M  V30 21661 C 2009.4 -0.537216 -4.24615 0
M  V30 21662 C 2008.72 0.342776 -5.336 0
M  V30 21663 C 2010.02 -1.80003 -4.90302 0
M  V30 21664 H 2011.72 -1.28838 -2.70261 0
M  V30 21665 H 2009.26 -0.620964 -1.29923 0
M  V30 21666 H 2011.22 0.66367 -4.16141 0
M  V30 21667 H 2009.94 1.1967 -3.03886 0
M  V30 21668 H 2008.6 -0.870883 -3.56106 0
M  V30 21669 H 2008.25 1.22567 -4.87838 0
M  V30 21670 H 2007.95 -0.222352 -5.87179 0
M  V30 21671 H 2009.47 0.689422 -6.06695 0
M  V30 21672 H 2010.88 -1.51729 -5.52857 0
M  V30 21673 H 2009.28 -2.3084 -5.53925 0
M  V30 21674 H 2010.35 -2.52148 -4.14186 0
M  V30 21675 N 2011.69 1.41711 -0.689627 0
M  V30 21676 C 2012.63 2.29192 0.018551 0
M  V30 21677 C 2013.64 1.44471 0.750468 0
M  V30 21678 O 2014.83 1.68037 0.602159 0
M  V30 21679 C 2011.93 3.22215 1.05027 0
M  V30 21680 C 2011.1 4.35665 0.389181 0
M  V30 21681 C 2010.16 5.09304 1.3227 0
M  V30 21682 O 2009.19 5.63301 0.817347 0
M  V30 21683 N 2010.39 5.16209 2.65533 0
M  V30 21684 H 2013.15 2.90611 -0.732482 0
M  V30 21685 H 2010.71 1.52798 -0.535191 0
M  V30 21686 H 2012.71 3.68347 1.67638 0
M  V30 21687 H 2011.28 2.62145 1.7029 0
M  V30 21688 H 2010.5 3.91991 -0.416702 0
M  V30 21689 H 2011.78 5.08751 -0.070752 0
M  V30 21690 H 2011.18 4.73777 3.09115 0
M  V30 21691 H 2009.74 5.65938 3.23354 0
M  V30 21692 N 2013.17 0.433965 1.51507 0
M  V30 21693 C 2014.12 -0.37918 2.27664 0
M  V30 21694 C 2015.09 -1.01975 1.31112 0
M  V30 21695 O 2016.27 -1.0393 1.6001 0
M  V30 21696 C 2013.41 -1.47628 3.1193 0
M  V30 21697 C 2012.53 -0.854176 4.23471 0
M  V30 21698 C 2011.66 -1.92604 4.95053 0
M  V30 21699 C 2010.7 -1.28219 5.9852 0
M  V30 21700 N 2009.84 -2.29527 6.63522 0
M  V30 21701 H 2014.68 0.276629 2.96713 0
M  V30 21702 H 2012.22 0.148264 1.46351 0
M  V30 21703 H 2014.17 -2.1236 3.59109 0
M  V30 21704 H 2012.8 -2.10176 2.45002 0
M  V30 21705 H 2011.86 -0.0952329 3.80281 0
M  V30 21706 H 2013.17 -0.344086 4.97612 0
M  V30 21707 H 2012.32 -2.65006 5.45762 0
M  V30 21708 H 2011.06 -2.46985 4.20535 0
M  V30 21709 H 2010.07 -0.543619 5.47106 0
M  V30 21710 H 2011.29 -0.745758 6.74993 0
M  V30 21711 H 2009.24 -2.82995 5.91819 0
M  V30 21712 H 2009.15 -1.834 7.33417 0
M  V30 21713 H 2010.42 -3.01423 7.18863 0
M  V30 21714 N 2014.65 -1.56732 0.165206 0
M  V30 21715 C 2015.58 -2.1483 -0.798785 0
M  V30 21716 C 2016.6 -1.10232 -1.19803 0
M  V30 21717 O 2017.78 -1.37442 -1.13894 0
M  V30 21718 C 2014.88 -2.67108 -2.08583 0
M  V30 21719 C 2014.06 -3.96299 -1.8511 0
M  V30 21720 C 2013.12 -4.33702 -2.97975 0
M  V30 21721 O 2012.14 -5.01692 -2.68875 0
M  V30 21722 N 2013.34 -3.94762 -4.25609 0
M  V30 21723 H 2016.11 -2.98173 -0.302127 0
M  V30 21724 H 2013.67 -1.6189 -0.0177783 0
M  V30 21725 H 2015.66 -2.89132 -2.8317 0
M  V30 21726 H 2014.23 -1.88388 -2.49457 0
M  V30 21727 H 2013.45 -3.82715 -0.944608 0
M  V30 21728 H 2014.74 -4.80686 -1.66788 0
M  V30 21729 H 2014.14 -3.40014 -4.52114 0
M  V30 21730 H 2012.7 -4.218 -4.96919 0
M  V30 21731 N 2016.13 0.10854 -1.57226 0
M  V30 21732 C 2017.38 0.813095 -1.84585 0
M  V30 21733 C 2017.69 1.80548 -0.752453 0
M  V30 21734 O 2018.9 2.55697 -0.912763 0
M  V30 21735 C 2017.35 1.4968 -3.27298 0
M  V30 21736 C 2016.96 0.544871 -4.44674 0
M  V30 21737 C 2018.7 2.18587 -3.63895 0
M  V30 21738 C 2016.61 1.2324 -5.78417 0
M  V30 21739 H 2015.54 0.3074 -0.688492 0
M  V30 21740 H 2018.19 0.065908 -1.83382 0
M  V30 21741 H 2016.57 2.29098 -3.23002 0
M  V30 21742 H 2017.75 -0.216842 -4.6029 0
M  V30 21743 H 2016.06 -0.0377882 -4.16383 0
M  V30 21744 H 2018.66 2.70735 -4.61093 0
M  V30 21745 H 2019 2.96868 -2.91848 0
M  V30 21746 H 2019.54 1.46046 -3.70021 0
M  V30 21747 H 2016.28 0.490673 -6.53661 0
M  V30 21748 H 2015.8 1.96587 -5.66669 0
M  V30 21749 H 2017.47 1.76267 -6.22526 0
M  V30 21750 N 2017.61 1.52975 0.379009 0
M  V30 21751 C 2018.83 1.72396 1.144 0
M  V30 21752 C 2019.25 0.446816 1.83437 0
M  V30 21753 O 2018.61 -0.579403 1.73058 0
M  V30 21754 C 2018.66 2.88032 2.18449 0
M  V30 21755 O 2018.38 4.10803 1.52225 0
M  V30 21756 C 2019.88 3.19215 3.07599 0
M  V30 21757 H 2017.1 0.576943 0.342605 0
M  V30 21758 H 2019.64 1.99666 0.442025 0
M  V30 21759 H 2017.8 2.63195 2.84266 0
M  V30 21760 H 2018.21 4.75461 2.21443 0
M  V30 21761 H 2019.69 4.03565 3.76615 0
M  V30 21762 H 2020.16 2.34014 3.71664 0
M  V30 21763 H 2020.77 3.45928 2.47415 0
M  V30 21764 N 2019.08 -0.63804 1.44107 0
M  V30 21765 C 2020.03 -1.75032 1.5044 0
M  V30 21766 C 2021 -1.62312 0.352721 0
M  V30 21767 O 2022.19 -1.82335 0.562 0
M  V30 21768 C 2019.33 -3.13253 1.44798 0
M  V30 21769 C 2018.44 -3.37 2.70287 0
M  V30 21770 C 2017.57 -4.65154 2.56526 0
M  V30 21771 C 2016.61 -4.82055 3.77212 0
M  V30 21772 N 2015.75 -6.0148 3.62169 0
M  V30 21773 H 2020.59 -1.68954 2.45476 0
M  V30 21774 H 2018.13 -0.82428 1.21836 0
M  V30 21775 H 2020.09 -3.9318 1.39518 0
M  V30 21776 H 2018.72 -3.18364 0.53334 0
M  V30 21777 H 2017.77 -2.51062 2.85783 0
M  V30 21778 H 2019.08 -3.4537 3.5989 0
M  V30 21779 H 2018.23 -5.5323 2.4904 0
M  V30 21780 H 2016.97 -4.5913 1.64472 0
M  V30 21781 H 2015.98 -3.9241 3.8509 0
M  V30 21782 H 2017.2 -4.89898 4.70294 0
M  V30 21783 H 2015.15 -5.96559 2.72861 0
M  V30 21784 H 2015.07 -6.10876 4.45384 0
M  V30 21785 H 2016.33 -6.92137 3.58562 0
M  V30 21786 N 2020.56 -1.3089 -0.877815 0
M  V30 21787 C 2021.81 -1.19488 -1.62498 0
M  V30 21788 C 2022.12 0.247666 -1.94026 0
M  V30 21789 O 2023.33 0.483286 -2.67164 0
M  V30 21790 C 2021.79 -2.09126 -2.92906 0
M  V30 21791 C 2021.39 -3.58331 -2.68891 0
M  V30 21792 C 2023.14 -2.06505 -3.70885 0
M  V30 21793 C 2021.05 -4.40003 -3.9516 0
M  V30 21794 H 2019.98 -0.44363 -0.609679 0
M  V30 21795 H 2022.63 -1.5569 -0.971235 0
M  V30 21796 H 2021.01 -1.65815 -3.59613 0
M  V30 21797 H 2022.18 -4.09838 -2.10642 0
M  V30 21798 H 2020.5 -3.62849 -2.04278 0
M  V30 21799 H 2023.09 -2.64772 -4.64543 0
M  V30 21800 H 2023.44 -1.05026 -4.02834 0
M  V30 21801 H 2023.97 -2.47975 -3.11052 0
M  V30 21802 H 2020.71 -5.42205 -3.68366 0
M  V30 21803 H 2020.23 -3.93258 -4.52889 0
M  V30 21804 H 2021.91 -4.5181 -4.63117 0
M  V30 21805 N 2022.04 1.0911 -1.13723 0
M  V30 21806 C 2022.97 2.15687 -0.775355 0
M  V30 21807 C 2023.99 1.61511 0.204429 0
M  V30 21808 O 2025.17 1.78493 -0.0162374 0
M  V30 21809 C 2022.27 3.38654 -0.129079 0
M  V30 21810 C 2021.45 4.22235 -1.14178 0
M  V30 21811 C 2020.51 5.23618 -0.520594 0
M  V30 21812 O 2019.53 5.56802 -1.18152 0
M  V30 21813 N 2020.73 5.76192 0.705897 0
M  V30 21814 H 2023.5 2.47337 -1.69247 0
M  V30 21815 H 2021.06 1.24855 -1.03067 0
M  V30 21816 H 2023.05 4.03595 0.298814 0
M  V30 21817 H 2021.62 3.04866 0.69104 0
M  V30 21818 H 2020.84 3.53382 -1.74685 0
M  V30 21819 H 2022.13 4.749 -1.82612 0
M  V30 21820 H 2021.53 5.51453 1.26158 0
M  V30 21821 H 2020.09 6.42851 1.0764 0
M  V30 21822 N 2023.52 0.931232 1.27145 0
M  V30 21823 C 2024.47 0.423636 2.2871 0
M  V30 21824 C 2025.46 -0.493886 1.62041 0
M  V30 21825 O 2026.67 -0.373198 1.76089 0
M  V30 21826 H 2023.04 0.118436 0.742615 0
M  V30 21827 H 2025.01 1.29297 2.68933 0
M  V30 21828 C 2023.76 -0.305051 3.46359 0
M  V30 21829 H 2023.08 0.391786 3.97876 0
M  V30 21830 H 2024.52 -0.62459 4.19374 0
M  V30 21831 C 2022.98 -1.5193 3.00697 0
M  V30 21832 O 2023.51 -2.61795 3.04674 0
M  V30 21833 N 2021.72 -1.37237 2.56153 0
M  V30 21834 H 2021.27 -0.478522 2.53116 0
M  V30 21835 H 2021.22 -2.18605 2.25963 0
M  V30 21836 N 2025 -1.41343 0.697132 0
M  V30 21837 C 2026.24 -2.01204 0.22876 0
M  V30 21838 C 2026.57 -1.55215 -1.17211 0
M  V30 21839 O 2025.83 -0.754886 -1.80555 0
M  V30 21840 C 2026.13 -3.56617 0.236459 0
M  V30 21841 C 2025.79 -4.22121 1.58507 0
M  V30 21842 C 2024.45 -4.39729 1.95427 0
M  V30 21843 C 2026.81 -4.58835 2.47224 0
M  V30 21844 C 2024.13 -4.91328 3.20646 0
M  V30 21845 C 2026.49 -5.11825 3.71777 0
M  V30 21846 C 2025.15 -5.27643 4.08838 0
M  V30 21847 H 2024.42 -0.736257 0.0837091 0
M  V30 21848 H 2027.07 -1.69218 0.89653 0
M  V30 21849 H 2025.37 -3.88402 -0.514862 0
M  V30 21850 H 2027.07 -4.00743 -0.14349 0
M  V30 21851 H 2023.66 -4.08792 1.28791 0
M  V30 21852 H 2027.84 -4.44885 2.1998 0
M  V30 21853 H 2023.1 -5.01759 3.49353 0
M  V30 21854 H 2027.27 -5.39213 4.40706 0
M  V30 21855 H 2024.9 -5.67388 5.05939 0
M  V30 21856 N 2026.48 -0.441993 -1.51275 0
M  V30 21857 C 2027.89 -0.0945327 -1.5932 0
M  V30 21858 C 2028.09 1.39653 -1.45256 0
M  V30 21859 O 2027.15 2.16693 -1.29616 0
M  V30 21860 C 2028.46 -0.618795 -2.94264 0
M  V30 21861 C 2030.01 -0.579646 -3.07586 0
M  V30 21862 C 2030.48 -1.08096 -4.45061 0
M  V30 21863 N 2031.97 -1.03914 -4.51393 0
M  V30 21864 C 2032.71 -1.39786 -5.561 0
M  V30 21865 N 2032.21 -1.82965 -6.68203 0
M  V30 21866 N 2034 -1.31573 -5.46484 0
M  V30 21867 H 2026.15 -1.4121 -1.58662 0
M  V30 21868 H 2028.41 -0.582182 -0.748176 0
M  V30 21869 H 2028.12 -1.66222 -3.09941 0
M  V30 21870 H 2027.99 -0.0462651 -3.77172 0
M  V30 21871 H 2030.38 0.454801 -2.91574 0
M  V30 21872 H 2030.46 -1.18863 -2.26506 0
M  V30 21873 H 2030.1 -2.1139 -4.61819 0
M  V30 21874 H 2030.03 -0.448465 -5.24687 0
M  V30 21875 H 2032.53 -0.722104 -3.70937 0
M  V30 21876 H 2032.84 -2.08561 -7.44125 0
M  V30 21877 H 2031.18 -1.86895 -6.69399 0
M  V30 21878 H 2034.37 -0.977017 -4.5779 0
M  V30 21879 H 2034.55 -1.59857 -6.27973 0
M  V30 21880 N 2027.95 1.56642 -0.173515 0
M  V30 21881 C 2029.2 1.97241 0.47157 0
M  V30 21882 C 2029.53 1.05958 1.62747 0
M  V30 21883 O 2028.81 0.107151 1.94205 0
M  V30 21884 C 2029.09 3.47276 0.952439 0
M  V30 21885 C 2028.94 4.49338 -0.203789 0
M  V30 21886 C 2030.26 4.00461 1.82535 0
M  V30 21887 H 2027.38 0.71714 0.169941 0
M  V30 21888 H 2030.02 1.88211 -0.260093 0
M  V30 21889 H 2028.17 3.55102 1.57591 0
M  V30 21890 H 2029.85 4.5357 -0.840936 0
M  V30 21891 H 2028.09 4.25211 -0.858945 0
M  V30 21892 H 2028.76 5.51723 0.174833 0
M  V30 21893 H 2031.24 3.9528 1.29974 0
M  V30 21894 H 2030.11 5.05853 2.13083 0
M  V30 21895 H 2030.37 3.44409 2.7719 0
M  V30 21896 N 2029.43 -0.1002 1.57281 0
M  V30 21897 C 2030.66 -0.817121 1.89754 0
M  V30 21898 C 2031.07 -1.7305 0.764869 0
M  V30 21899 O 2030.41 -1.81669 -0.272384 0
M  V30 21900 C 2030.47 -1.68753 3.17432 0
M  V30 21901 C 2030.14 -0.9465 4.47091 0
M  V30 21902 C 2031.14 -0.278645 5.19153 0
M  V30 21903 C 2028.82 -0.922095 4.93764 0
M  V30 21904 C 2030.81 0.403703 6.3612 0
M  V30 21905 C 2028.5 -0.235958 6.10644 0
M  V30 21906 C 2029.5 0.425768 6.81672 0
M  V30 21907 O 2029.19 1.10091 7.96326 0
M  V30 21908 H 2028.92 -0.239163 0.632279 0
M  V30 21909 H 2031.47 -0.0834139 2.05231 0
M  V30 21910 H 2029.7 -2.46334 2.98088 0
M  V30 21911 H 2031.39 -2.28055 3.35776 0
M  V30 21912 H 2032.16 -0.288994 4.84138 0
M  V30 21913 H 2028.04 -1.4266 4.38371 0
M  V30 21914 H 2031.58 0.920777 6.91497 0
M  V30 21915 H 2027.48 -0.223438 6.45113 0
M  V30 21916 H 2028.25 1.00729 8.12278 0
M  V30 21917 N 2030.91 -1.53174 -0.370891 0
M  V30 21918 C 2032.14 -1.72749 -1.13319 0
M  V30 21919 C 2032.55 -0.453832 -1.83676 0
M  V30 21920 O 2031.89 0.582685 -1.74214 0
M  V30 21921 C 2031.95 -2.83436 -2.21143 0
M  V30 21922 C 2031.62 -4.23963 -1.70599 0
M  V30 21923 C 2032.61 -5.06496 -1.17293 0
M  V30 21924 C 2030.3 -4.70354 -1.76273 0
M  V30 21925 C 2032.29 -6.33508 -0.703308 0
M  V30 21926 C 2029.98 -5.97346 -1.28923 0
M  V30 21927 C 2030.98 -6.78754 -0.760411 0
M  V30 21928 O 2030.67 -8.03363 -0.293883 0
M  V30 21929 H 2030.4 -0.581347 -0.344981 0
M  V30 21930 H 2032.95 -2.0069 -0.437343 0
M  V30 21931 H 2031.18 -2.50957 -2.94206 0
M  V30 21932 H 2032.87 -2.9124 -2.82726 0
M  V30 21933 H 2033.64 -4.71831 -1.12252 0
M  V30 21934 H 2029.52 -4.07066 -2.16375 0
M  V30 21935 H 2033.06 -6.96997 -0.289876 0
M  V30 21936 H 2028.96 -6.31511 -1.33655 0
M  V30 21937 H 2029.72 -8.17454 -0.413701 0
M  V30 21938 N 2032.39 0.630389 -1.44443 0
M  V30 21939 C 2033.8 0.948649 -1.28346 0
M  V30 21940 C 2034 2.00298 -0.219776 0
M  V30 21941 O 2033.06 2.49406 0.394082 0
M  V30 21942 C 2034.37 1.41121 -2.65528 0
M  V30 21943 C 2035.92 1.52665 -2.73244 0
M  V30 21944 C 2036.4 2.02305 -4.10897 0
M  V30 21945 N 2037.89 2.09574 -4.13077 0
M  V30 21946 C 2038.62 2.49156 -5.16439 0
M  V30 21947 N 2038.12 2.87869 -6.30161 0
M  V30 21948 N 2039.91 2.49296 -5.03794 0
M  V30 21949 H 2032.06 -0.0668759 -2.12295 0
M  V30 21950 H 2034.32 0.032708 -0.947436 0
M  V30 21951 H 2034.03 0.710811 -3.44442 0
M  V30 21952 H 2033.9 2.38208 -2.92466 0
M  V30 21953 H 2036.29 2.21802 -1.94648 0
M  V30 21954 H 2036.37 0.539516 -2.50046 0
M  V30 21955 H 2036.02 1.33763 -4.89969 0
M  V30 21956 H 2035.95 3.01892 -4.31473 0
M  V30 21957 H 2038.44 1.82338 -3.31001 0
M  V30 21958 H 2038.75 3.16887 -7.04842 0
M  V30 21959 H 2037.1 2.85619 -6.33598 0
M  V30 21960 H 2040.29 2.18443 -4.14005 0
M  V30 21961 H 2040.46 2.79819 -5.8447 0
M  V30 21962 N 2033.87 1.31354 0.870861 0
M  V30 21963 C 2035.14 1.11627 1.6062 0
M  V30 21964 C 2035.52 -0.329351 2.08515 0
M  V30 21965 O 2034.87 -1.3233 1.86282 0
M  V30 21966 C 2035.08 2.12968 2.76488 0
M  V30 21967 C 2036.43 2.45442 3.46473 0
M  V30 21968 O 2037.45 2.11388 2.86694 0
M  V30 21969 O 2036.31 3.03753 4.54309 0
M  V30 21970 H 2033.41 0.429682 0.706614 0
M  V30 21971 H 2035.95 1.42829 0.916402 0
M  V30 21972 H 2034.72 3.10212 2.38504 0
M  V30 21973 H 2034.35 1.82666 3.53156 0
M  V30 21974 N 2035.34 -1.08505 1.143 0
M  V30 21975 C 2036.57 -1.85155 0.934475 0
M  V30 21976 C 2036.99 -1.81002 -0.511866 0
M  V30 21977 O 2036.35 -1.19437 -1.36398 0
M  V30 21978 C 2036.4 -3.30656 1.43871 0
M  V30 21979 O 2035.5 -4.07557 0.630143 0
M  V30 21980 H 2034.84 -0.573775 0.334183 0
M  V30 21981 H 2037.37 -1.36959 1.51998 0
M  V30 21982 H 2037.38 -3.815 1.44644 0
M  V30 21983 H 2036.06 -3.32995 2.49173 0
M  V30 21984 H 2034.64 -3.66441 0.691067 0
M  V30 21985 N 2036.82 -0.937962 -1.26649 0
M  V30 21986 C 2038.24 -0.639774 -1.46216 0
M  V30 21987 C 2038.44 0.807896 -1.84595 0
M  V30 21988 O 2037.49 1.58484 -1.96568 0
M  V30 21989 C 2038.81 -1.59844 -2.54697 0
M  V30 21990 C 2040.35 -1.60779 -2.6855 0
M  V30 21991 C 2040.83 -2.55367 -3.80199 0
M  V30 21992 N 2042.32 -2.53634 -3.87587 0
M  V30 21993 C 2043.06 -3.23509 -4.73423 0
M  V30 21994 N 2042.55 -4.02798 -5.63671 0
M  V30 21995 N 2044.34 -3.12477 -4.67242 0
M  V30 21996 H 2036.5 -1.87374 -1.00025 0
M  V30 21997 H 2038.76 -0.805036 -0.500621 0
M  V30 21998 H 2038.46 -2.63168 -2.33314 0
M  V30 21999 H 2038.34 -1.34802 -3.5229 0
M  V30 22000 H 2040.73 -0.581808 -2.89308 0
M  V30 22001 H 2040.81 -1.89873 -1.71411 0
M  V30 22002 H 2040.45 -3.58081 -3.60195 0
M  V30 22003 H 2040.38 -2.23564 -4.76788 0
M  V30 22004 H 2042.87 -1.96058 -3.23063 0
M  V30 22005 H 2043.18 -4.53075 -6.26053 0
M  V30 22006 H 2041.53 -4.069 -5.63434 0
M  V30 22007 H 2044.72 -2.50018 -3.95738 0
M  V30 22008 H 2044.89 -3.67201 -5.33917 0
M  V30 22009 N 2038.3 1.40971 -0.704618 0
M  V30 22010 C 2039.58 1.94885 -0.167059 0
M  V30 22011 C 2039.96 1.64346 1.3249 0
M  V30 22012 O 2039.3 0.955268 2.07574 0
M  V30 22013 C 2039.51 3.45847 -0.468035 0
M  V30 22014 C 2040.86 4.22705 -0.400704 0
M  V30 22015 O 2041.89 3.53908 -0.403464 0
M  V30 22016 O 2040.75 5.45255 -0.368676 0
M  V30 22017 H 2037.84 0.826752 -0.0202699 0
M  V30 22018 H 2040.39 1.50639 -0.7814 0
M  V30 22019 H 2039.16 3.61392 -1.50038 0
M  V30 22020 H 2038.78 3.97207 0.176823 0
M  V30 22021 N 2039.78 0.45001 1.51039 0
M  V30 22022 C 2041.19 -0.0101397 1.86697 0
M  V30 22023 C 2041.54 -1.40804 1.36633 0
M  V30 22024 O 2040.67 -2.03986 0.722411 0
M  V30 22025 C 2041.26 -0.0251761 3.38791 0
M  V30 22026 C 2039.82 -0.429779 3.73938 0
M  V30 22027 C 2038.97 0.369286 2.7483 0
M  V30 22028 H 2041.92 0.665278 1.44082 0
M  V30 22029 H 2041.94 -0.831964 3.71293 0
M  V30 22030 H 2041.45 0.992361 3.75198 0
M  V30 22031 H 2039.55 -1.45245 3.43125 0
M  V30 22032 H 2039.66 -0.145773 4.78878 0
M  V30 22033 H 2038.03 -0.174158 2.54104 0
M  V30 22034 H 2038.81 1.38594 3.14081 0
M  V30 22035 N 2041.26 -1.56548 0.18182 0
M  V30 22036 C 2042.51 -1.96371 -0.460566 0
M  V30 22037 C 2042.82 -1.07099 -1.63674 0
M  V30 22038 O 2044.02 -1.36648 -2.34605 0
M  V30 22039 C 2042.48 -3.49207 -0.870777 0
M  V30 22040 C 2042.09 -4.47122 0.280378 0
M  V30 22041 C 2043.83 -3.97828 -1.48099 0
M  V30 22042 C 2041.74 -5.9121 -0.15005 0
M  V30 22043 H 2040.67 -0.73321 -0.175838 0
M  V30 22044 H 2043.32 -1.81477 0.271724 0
M  V30 22045 H 2041.7 -3.59557 -1.65935 0
M  V30 22046 H 2042.88 -4.48494 1.05781 0
M  V30 22047 H 2041.19 -4.08619 0.801227 0
M  V30 22048 H 2043.79 -5.02944 -1.81525 0
M  V30 22049 H 2044.13 -3.41369 -2.38271 0
M  V30 22050 H 2044.66 -3.90538 -0.75665 0
M  V30 22051 H 2041.4 -6.51565 0.717155 0
M  V30 22052 H 2040.92 -5.93121 -0.892621 0
M  V30 22053 H 2042.6 -6.44301 -0.590372 0
M  V30 22054 N 2042.73 0.0918577 -1.57332 0
M  V30 22055 C 2043.98 0.7908 -1.87398 0
M  V30 22056 C 2044.34 1.76186 -0.773057 0
M  V30 22057 O 2043.63 1.90278 0.224654 0
M  V30 22058 C 2043.82 1.55559 -3.2177 0
M  V30 22059 C 2043.65 0.660097 -4.44829 0
M  V30 22060 C 2042.42 0.304604 -5.04381 0
M  V30 22061 C 2044.62 -0.0343634 -5.14289 0
M  V30 22062 N 2042.6 -0.598714 -6.10974 0
M  V30 22063 C 2043.97 -0.795626 -6.14874 0
M  V30 22064 C 2046.03 -0.107944 -4.97783 0
M  V30 22065 C 2044.73 -1.6236 -7.00737 0
M  V30 22066 C 2046.76 -0.922829 -5.84156 0
M  V30 22067 C 2046.12 -1.6722 -6.84264 0
M  V30 22068 H 2042.22 0.26544 -0.735572 0
M  V30 22069 H 2044.8 0.0531823 -1.94627 0
M  V30 22070 H 2042.97 2.26406 -3.15586 0
M  V30 22071 H 2044.7 2.20198 -3.39551 0
M  V30 22072 H 2041.46 0.652989 -4.69077 0
M  V30 22073 H 2041.88 -1.04302 -6.68917 0
M  V30 22074 H 2046.53 0.457075 -4.20322 0
M  V30 22075 H 2044.24 -2.19967 -7.77586 0
M  V30 22076 H 2047.83 -0.982477 -5.73445 0
M  V30 22077 H 2046.71 -2.2926 -7.4994 0
M  V30 22078 N 2044.21 1.53368 0.362763 0
M  V30 22079 C 2045.16 1.80005 1.44454 0
M  V30 22080 C 2046.13 0.644581 1.53083 0
M  V30 22081 O 2047.31 0.887051 1.68926 0
M  V30 22082 C 2044.45 1.99822 2.81363 0
M  V30 22083 C 2043.57 3.27539 2.81678 0
M  V30 22084 C 2042.7 3.37528 4.10181 0
M  V30 22085 C 2041.74 4.59266 4.04649 0
M  V30 22086 N 2040.88 4.66393 5.24806 0
M  V30 22087 H 2045.72 2.72311 1.2104 0
M  V30 22088 H 2043.26 1.34893 0.586708 0
M  V30 22089 H 2045.21 2.09299 3.60901 0
M  V30 22090 H 2043.84 1.10849 3.0317 0
M  V30 22091 H 2042.9 3.27001 1.94356 0
M  V30 22092 H 2044.21 4.17156 2.73464 0
M  V30 22093 H 2043.36 3.46331 4.98136 0
M  V30 22094 H 2042.1 2.45932 4.21152 0
M  V30 22095 H 2041.11 4.5056 3.15081 0
M  V30 22096 H 2042.33 5.52206 3.95278 0
M  V30 22097 H 2040.28 3.77699 5.36358 0
M  V30 22098 H 2040.19 5.49919 5.18773 0
M  V30 22099 H 2041.46 4.79484 6.14586 0
M  V30 22100 N 2045.69 -0.62272 1.44776 0
M  V30 22101 C 2046.94 -1.37937 1.47708 0
M  V30 22102 C 2047.26 -1.94665 0.114186 0
M  V30 22103 O 2046.53 -1.76277 -0.854583 0
M  V30 22104 H 2045.11 -0.512023 0.543914 0
M  V30 22105 H 2047.77 -0.732336 1.80618 0
M  V30 22106 H 2046.87 -2.20646 2.2073 0
M  V30 22107 N 2047.17 -1.31814 -0.863883 0
M  V30 22108 C 2048.58 -1.19653 -1.43318 0
M  V30 22109 C 2048.93 0.19461 -1.95232 0
M  V30 22110 O 2048.06 1.09277 -1.86782 0
M  V30 22111 C 2048.65 -2.1661 -2.6051 0
M  V30 22112 C 2047.21 -2.08364 -3.13466 0
M  V30 22113 C 2046.36 -2.05496 -1.8619 0
M  V30 22114 H 2049.31 -1.43776 -0.67187 0
M  V30 22115 H 2049.33 -1.75925 -3.37388 0
M  V30 22116 H 2048.84 -3.1785 -2.22695 0
M  V30 22117 H 2046.94 -1.10341 -3.55887 0
M  V30 22118 H 2047.05 -2.97757 -3.75336 0
M  V30 22119 H 2045.42 -1.50599 -2.05407 0
M  V30 22120 H 2046.2 -3.08501 -1.50605 0
M  V30 22121 N 2048.65 1.07897 -1.14873 0
M  V30 22122 C 2049.61 2.13129 -0.843128 0
M  V30 22123 C 2050.61 1.60055 0.154606 0
M  V30 22124 O 2051.8 1.74041 -0.0743665 0
M  V30 22125 C 2048.93 3.39924 -0.257826 0
M  V30 22126 H 2050.12 2.41671 -1.77581 0
M  V30 22127 H 2047.68 1.23696 -0.955463 0
M  V30 22128 H 2048.41 3.17019 0.683318 0
M  V30 22129 H 2048.2 3.79745 -0.97654 0
M  V30 22130 H 2049.69 4.17555 -0.0613986 0
M  V30 22131 N 2050.12 0.944665 1.2615 0
M  V30 22132 C 2051.07 0.455723 2.26256 0
M  V30 22133 C 2052.04 -0.486478 1.58816 0
M  V30 22134 O 2053.23 -0.401921 1.86519 0
M  V30 22135 C 2050.37 -0.269732 3.44044 0
M  V30 22136 C 2049.48 0.708546 4.2615 0
M  V30 22137 C 2048.61 -0.0384607 5.31186 0
M  V30 22138 C 2047.65 0.931409 6.04972 0
M  V30 22139 N 2046.79 0.215929 7.01768 0
M  V30 22140 H 2051.63 1.31431 2.67451 0
M  V30 22141 H 2049.17 0.659314 1.31497 0
M  V30 22142 H 2051.13 -0.706817 4.11169 0
M  V30 22143 H 2049.76 -1.09243 3.03753 0
M  V30 22144 H 2048.81 1.26414 3.58781 0
M  V30 22145 H 2050.12 1.44906 4.77288 0
M  V30 22146 H 2049.27 -0.53466 6.0434 0
M  V30 22147 H 2048.01 -0.811835 4.80896 0
M  V30 22148 H 2047.02 1.4387 5.30642 0
M  V30 22149 H 2048.24 1.70485 6.57352 0
M  V30 22150 H 2046.19 -0.538889 6.53783 0
M  V30 22151 H 2046.11 0.895714 7.50675 0
M  V30 22152 H 2047.37 -0.259061 7.79069 0
M  V30 22153 N 2051.6 -1.40596 0.712085 0
M  V30 22154 C 2052.53 -2.33389 0.0719438 0
M  V30 22155 C 2053.51 -1.52706 -0.749334 0
M  V30 22156 O 2054.7 -1.81185 -0.698968 0
M  V30 22157 C 2051.83 -3.36659 -0.853122 0
M  V30 22158 C 2050.78 -4.27778 -0.137724 0
M  V30 22159 C 2050.11 -5.21556 -1.17827 0
M  V30 22160 C 2051.41 -5.12521 1.00597 0
M  V30 22161 H 2053.1 -2.87169 0.847002 0
M  V30 22162 H 2050.65 -1.38077 0.408756 0
M  V30 22163 H 2052.6 -4.00511 -1.31031 0
M  V30 22164 H 2051.33 -2.81266 -1.66004 0
M  V30 22165 H 2049.98 -3.65374 0.299603 0
M  V30 22166 H 2049.63 -4.6247 -1.97814 0
M  V30 22167 H 2049.33 -5.83361 -0.704503 0
M  V30 22168 H 2050.86 -5.88285 -1.63563 0
M  V30 22169 H 2052.27 -5.69847 0.62831 0
M  V30 22170 H 2050.67 -5.83351 1.40789 0
M  V30 22171 H 2051.74 -4.48706 1.83822 0
M  V30 22172 N 2053.08 -0.458013 -1.50798 0
M  V30 22173 C 2054.01 0.333063 -2.31112 0
M  V30 22174 C 2054.99 1.00231 -1.37433 0
M  V30 22175 O 2056.18 1.00199 -1.66354 0
M  V30 22176 C 2053.31 1.4229 -3.16814 0
M  V30 22177 C 2052.26 0.875993 -4.1894 0
M  V30 22178 C 2051.59 2.06313 -4.93294 0
M  V30 22179 C 2052.89 -0.103786 -5.22197 0
M  V30 22180 H 2054.58 -0.337222 -2.97495 0
M  V30 22181 H 2052.13 -0.163622 -1.43067 0
M  V30 22182 H 2054.08 1.98369 -3.7179 0
M  V30 22183 H 2052.8 2.12177 -2.48291 0
M  V30 22184 H 2051.46 0.337263 -3.65045 0
M  V30 22185 H 2051.11 2.74868 -4.21256 0
M  V30 22186 H 2050.81 1.70348 -5.62366 0
M  V30 22187 H 2052.33 2.62908 -5.511 0
M  V30 22188 H 2053.75 0.367392 -5.72122 0
M  V30 22189 H 2052.15 -0.377048 -5.98914 0
M  V30 22190 H 2053.22 -1.03392 -4.73749 0
M  V30 22191 N 2054.56 1.56449 -0.190119 0
M  V30 22192 C 2055.81 1.98494 0.444021 0
M  V30 22193 C 2056.16 1.07479 1.59581 0
M  V30 22194 O 2055.45 0.11819 1.91235 0
M  V30 22195 C 2055.65 3.44349 0.956988 0
M  V30 22196 C 2055.48 4.49471 -0.143558 0
M  V30 22197 C 2054.25 5.01731 -0.59953 0
M  V30 22198 C 2056.44 5.05436 -0.950731 0
M  V30 22199 N 2054.43 5.9051 -1.67842 0
M  V30 22200 C 2055.8 5.90837 -1.87913 0
M  V30 22201 C 2057.85 4.87883 -0.993705 0
M  V30 22202 C 2056.56 6.60563 -2.84692 0
M  V30 22203 C 2058.58 5.58343 -1.94953 0
M  V30 22204 C 2057.94 6.43487 -2.86537 0
M  V30 22205 H 2054.04 0.771111 0.130043 0
M  V30 22206 H 2056.63 1.92457 -0.294668 0
M  V30 22207 H 2054.8 3.50896 1.66513 0
M  V30 22208 H 2056.53 3.7337 1.56132 0
M  V30 22209 H 2053.28 4.73203 -0.193784 0
M  V30 22210 H 2053.71 6.39604 -2.21892 0
M  V30 22211 H 2058.35 4.21737 -0.299635 0
M  V30 22212 H 2056.07 7.2591 -3.55078 0
M  V30 22213 H 2059.65 5.4674 -1.98912 0
M  V30 22214 H 2058.53 6.9705 -3.59292 0
M  V30 22215 N 2056.04 -0.0835127 1.57379 0
M  V30 22216 C 2056.98 -1.10046 2.02875 0
M  V30 22217 C 2057.95 -1.39138 0.907183 0
M  V30 22218 O 2059.14 -1.50405 1.17401 0
M  V30 22219 C 2056.28 -2.41229 2.46784 0
M  V30 22220 C 2055.39 -2.18769 3.72511 0
M  V30 22221 C 2054.53 -3.43432 4.05251 0
M  V30 22222 C 2053.57 -3.16284 5.24052 0
M  V30 22223 N 2052.7 -4.33246 5.52488 0
M  V30 22224 H 2057.54 -0.705503 2.89528 0
M  V30 22225 H 2055.08 -0.336809 1.43192 0
M  V30 22226 H 2057.04 -3.17803 2.7029 0
M  V30 22227 H 2055.67 -2.7855 1.63125 0
M  V30 22228 H 2054.72 -1.32942 3.56414 0
M  V30 22229 H 2056.03 -1.94708 4.59228 0
M  V30 22230 H 2055.19 -4.28408 4.29595 0
M  V30 22231 H 2053.93 -3.70558 3.17078 0
M  V30 22232 H 2052.93 -2.29703 4.99516 0
M  V30 22233 H 2054.16 -2.90493 6.13833 0
M  V30 22234 H 2052.1 -4.60425 4.67274 0
M  V30 22235 H 2052.02 -4.12417 6.336 0
M  V30 22236 H 2053.29 -5.19253 5.81375 0
M  V30 22237 N 2057.52 -1.53558 -0.354624 0
M  V30 22238 C 2058.76 -1.69934 -1.09393 0
M  V30 22239 C 2059.08 -0.459423 -1.89511 0
M  V30 22240 O 2058.35 0.526608 -1.88689 0
M  V30 22241 H 2056.93 -0.626487 -0.406845 0
M  V30 22242 H 2059.6 -1.90781 -0.398582 0
M  V30 22243 H 2058.69 -2.56533 -1.77757 0
M  V30 22244 N 2058.99 0.615033 -1.45104 0
M  V30 22245 C 2059.9 1.75459 -1.55728 0
M  V30 22246 C 2060.92 1.6829 -0.442095 0
M  V30 22247 O 2062.1 1.88779 -0.701735 0
M  V30 22248 C 2059.16 3.11899 -1.51394 0
M  V30 22249 C 2058.22 3.30578 -2.73892 0
M  V30 22250 C 2057.45 4.60509 -2.69754 0
M  V30 22251 O 2057.68 5.42353 -1.76662 0
M  V30 22252 O 2056.61 4.81739 -3.60848 0
M  V30 22253 H 2060.44 1.69447 -2.52035 0
M  V30 22254 H 2058.02 0.778221 -1.27531 0
M  V30 22255 H 2059.9 3.93203 -1.51557 0
M  V30 22256 H 2058.58 3.18418 -0.582365 0
M  V30 22257 H 2057.49 2.48891 -2.79292 0
M  V30 22258 H 2058.82 3.2893 -3.6615 0
M  V30 22259 N 2060.47 1.3227 0.85688 0
M  V30 22260 C 2061.72 1.22461 1.60772 0
M  V30 22261 C 2062.04 -0.214164 1.9382 0
M  V30 22262 O 2061.31 -1.13833 1.59433 0
M  V30 22263 H 2059.89 0.450259 0.596051 0
M  V30 22264 H 2062.55 1.65764 1.0251 0
M  V30 22265 H 2061.65 1.80566 2.54563 0
M  V30 22266 N 2061.95 -1.07287 1.15444 0
M  V30 22267 C 2062.91 -2.12679 0.854419 0
M  V30 22268 C 2063.91 -1.60135 -0.146116 0
M  V30 22269 O 2065.1 -1.73999 0.0835953 0
M  V30 22270 C 2062.23 -3.39782 0.275849 0
M  V30 22271 H 2063.43 -2.40726 1.7886 0
M  V30 22272 H 2060.98 -1.23187 0.96201 0
M  V30 22273 H 2061.72 -3.17377 -0.666496 0
M  V30 22274 H 2061.5 -3.79222 0.996665 0
M  V30 22275 H 2062.99 -4.17516 0.0835417 0
M  V30 22276 N 2063.43 -0.951342 -1.25647 0
M  V30 22277 C 2064.67 -0.605246 -1.93558 0
M  V30 22278 C 2065.01 0.85507 -1.74362 0
M  V30 22279 O 2064.28 1.61308 -1.08674 0
M  V30 22280 C 2064.56 -0.960718 -3.47048 0
M  V30 22281 C 2064.42 -2.47652 -3.75484 0
M  V30 22282 C 2065.74 -0.483409 -4.37437 0
M  V30 22283 H 2062.86 -0.22136 -0.702971 0
M  V30 22284 H 2065.5 -1.1874 -1.48327 0
M  V30 22285 H 2063.65 -0.465324 -3.85703 0
M  V30 22286 H 2065.32 -3.04543 -3.46484 0
M  V30 22287 H 2063.56 -2.91564 -3.21205 0
M  V30 22288 H 2064.23 -2.67575 -4.82812 0
M  V30 22289 H 2066.71 -0.908309 -4.06065 0
M  V30 22290 H 2065.59 -0.760858 -5.43601 0
M  V30 22291 H 2065.85 0.616645 -4.37778 0
M  V30 22292 N 2064.91 1.40216 -0.719531 0
M  V30 22293 C 2066.15 2.01112 -0.261127 0
M  V30 22294 C 2066.48 1.56933 1.14393 0
M  V30 22295 O 2065.76 0.791168 1.77682 0
M  V30 22296 C 2066.04 3.58438 -0.345592 0
M  V30 22297 C 2065.9 4.12679 -1.78931 0
M  V30 22298 C 2067.21 4.39202 0.280948 0
M  V30 22299 H 2064.33 0.730674 -0.0963582 0
M  V30 22300 H 2066.98 1.66639 -0.912774 0
M  V30 22301 H 2065.13 3.87936 0.209226 0
M  V30 22302 H 2066.8 3.93963 -2.39982 0
M  V30 22303 H 2065.04 3.66819 -2.31574 0
M  V30 22304 H 2065.71 5.21835 -1.79978 0
M  V30 22305 H 2068.19 4.15658 -0.191834 0
M  V30 22306 H 2067.06 5.48566 0.191422 0
M  V30 22307 H 2067.32 4.205 1.36499 0
M  V30 22308 N 2066.38 0.466004 1.50553 0
M  V30 22309 C 2067.63 -0.0923956 2.01488 0
M  V30 22310 C 2067.95 -1.41242 1.35315 0
M  V30 22311 O 2069.15 -2.05546 1.77379 0
M  V30 22312 C 2067.61 -0.21518 3.59256 0
M  V30 22313 C 2067.22 1.09611 4.34384 0
M  V30 22314 C 2068.96 -0.725811 4.18249 0
M  V30 22315 C 2066.87 0.937394 5.83924 0
M  V30 22316 H 2065.8 -0.0383052 0.753026 0
M  V30 22317 H 2068.45 0.600129 1.73409 0
M  V30 22318 H 2066.83 -0.97137 3.83902 0
M  V30 22319 H 2068 1.86285 4.21467 0
M  V30 22320 H 2066.32 1.53746 3.86977 0
M  V30 22321 H 2068.92 -0.861504 5.27714 0
M  V30 22322 H 2069.26 -1.71583 3.79296 0
M  V30 22323 H 2069.79 -0.0271476 3.97791 0
M  V30 22324 H 2066.53 1.90063 6.27341 0
M  V30 22325 H 2066.05 0.210939 5.99429 0
M  V30 22326 H 2067.73 0.601974 6.44194 0
M  V30 22327 N 2067.86 -1.56346 0.198413 0
M  V30 22328 C 2068.79 -2.16476 -0.753037 0
M  V30 22329 C 2069.81 -1.12748 -1.17438 0
M  V30 22330 O 2071 -1.39827 -1.10953 0
M  V30 22331 C 2068.1 -2.71472 -2.0287 0
M  V30 22332 C 2067.27 -4.00136 -1.76663 0
M  V30 22333 C 2066.33 -4.39925 -2.88708 0
M  V30 22334 O 2065.35 -5.07283 -2.58173 0
M  V30 22335 N 2066.56 -4.03701 -4.1714 0
M  V30 22336 H 2069.32 -2.98747 -0.238812 0
M  V30 22337 H 2066.88 -1.61892 0.0165651 0
M  V30 22338 H 2068.87 -2.95073 -2.76973 0
M  V30 22339 H 2067.44 -1.93637 -2.45405 0
M  V30 22340 H 2066.66 -3.84633 -0.863216 0
M  V30 22341 H 2067.95 -4.84116 -1.56555 0
M  V30 22342 H 2067.35 -3.49528 -4.448 0
M  V30 22343 H 2065.91 -4.32245 -4.8786 0
M  V30 22344 N 2069.34 0.0751653 -1.57421 0
M  V30 22345 C 2070.62 0.807768 -1.78142 0
M  V30 22346 C 2071 1.95956 -0.785139 0
M  V30 22347 O 2070.35 2.27771 0.182413 0
M  V30 22348 C 2070.56 1.28385 -3.24528 0
M  V30 22349 C 2071.9 1.71859 -3.88265 0
M  V30 22350 O 2072.93 1.3796 -3.28398 0
M  V30 22351 O 2071.79 2.3461 -4.93579 0
M  V30 22352 H 2068.88 0.386806 -0.730965 0
M  V30 22353 H 2071.43 0.0555021 -1.69609 0
M  V30 22354 H 2070.2 0.459543 -3.88592 0
M  V30 22355 H 2069.82 2.09753 -3.37771 0
M  V30 22356 N 2070.82 1.53744 0.346476 0
M  V30 22357 C 2071.77 1.82222 1.44561 0
M  V30 22358 C 2072.76 0.69251 1.54598 0
M  V30 22359 O 2073.97 0.875797 1.57257 0
M  V30 22360 H 2070.34 0.577261 0.481948 0
M  V30 22361 H 2072.31 2.74183 1.17755 0
M  V30 22362 C 2071.06 2.04604 2.81127 0
M  V30 22363 H 2070.38 2.90983 2.74169 0
M  V30 22364 H 2071.82 2.28497 3.57162 0
M  V30 22365 C 2070.28 0.830699 3.26498 0
M  V30 22366 O 2070.81 0.0286844 4.0169 0
M  V30 22367 N 2069.02 0.648746 2.83266 0
M  V30 22368 H 2068.57 1.30257 2.22241 0
M  V30 22369 H 2068.52 -0.162972 3.13977 0
M  V30 22370 N 2072.3 -0.607329 1.45428 0
M  V30 22371 C 2073.52 -1.39786 1.53214 0
M  V30 22372 C 2073.95 -1.87369 0.165684 0
M  V30 22373 O 2073.3 -1.60154 -0.849728 0
M  V30 22374 C 2073.35 -2.57823 2.52111 0
M  V30 22375 O 2072.46 -3.58462 2.03909 0
M  V30 22376 H 2071.8 -0.417312 0.516476 0
M  V30 22377 H 2074.33 -0.739101 1.90784 0
M  V30 22378 H 2074.34 -3.05064 2.70925 0
M  V30 22379 H 2073.01 -2.22539 3.51354 0
M  V30 22380 H 2071.59 -3.17868 1.94973 0
M  V30 22381 N 2073.77 -1.32722 -0.849853 0
M  V30 22382 C 2075.05 -1.14168 -1.58824 0
M  V30 22383 C 2075.43 0.296136 -2.09013 0
M  V30 22384 O 2074.78 1.2935 -1.88364 0
M  V30 22385 C 2074.99 -2.1734 -2.73065 0
M  V30 22386 C 2076.34 -2.50923 -3.42524 0
M  V30 22387 O 2077.36 -2.15923 -2.83295 0
M  V30 22388 O 2076.22 -3.10942 -4.49419 0
M  V30 22389 H 2073.31 -0.440869 -0.699688 0
M  V30 22390 H 2075.86 -1.44269 -0.893563 0
M  V30 22391 H 2074.63 -3.13967 -2.33539 0
M  V30 22392 H 2074.26 -1.88261 -3.50205 0
M  V30 22393 N 2075.25 1.06673 -1.16011 0
M  V30 22394 C 2076.5 1.78785 -0.933751 0
M  V30 22395 C 2076.81 1.87999 0.539969 0
M  V30 22396 O 2078.02 2.56701 0.884117 0
M  V30 22397 C 2076.48 3.21313 -1.6213 0
M  V30 22398 C 2076.08 3.20277 -3.13252 0
M  V30 22399 C 2077.83 3.97985 -1.47675 0
M  V30 22400 C 2075.74 4.57501 -3.74762 0
M  V30 22401 H 2074.67 0.670074 -0.345711 0
M  V30 22402 H 2077.32 1.19679 -1.39101 0
M  V30 22403 H 2075.7 3.80653 -1.09174 0
M  V30 22404 H 2076.87 2.70541 -3.7302 0
M  V30 22405 H 2075.19 2.57103 -3.27547 0
M  V30 22406 H 2077.78 4.99417 -1.91016 0
M  V30 22407 H 2078.13 4.14123 -0.425173 0
M  V30 22408 H 2078.66 3.45157 -1.97766 0
M  V30 22409 H 2075.4 4.46568 -4.79851 0
M  V30 22410 H 2074.92 5.07446 -3.19778 0
M  V30 22411 H 2076.6 5.26463 -3.76093 0
M  V30 22412 N 2076.73 0.957992 1.25141 0
M  V30 22413 C 2077.68 0.479695 2.2576 0
M  V30 22414 C 2078.65 -0.469606 1.59323 0
M  V30 22415 O 2079.83 -0.382116 1.86935 0
M  V30 22416 C 2076.97 -0.233227 3.44311 0
M  V30 22417 C 2076.09 0.753705 4.25374 0
M  V30 22418 C 2075.22 0.0178808 5.31197 0
M  V30 22419 C 2074.26 0.995522 6.0395 0
M  V30 22420 N 2073.4 0.290349 7.01499 0
M  V30 22421 H 2078.24 1.3426 2.66042 0
M  V30 22422 H 2075.77 0.673224 1.3079 0
M  V30 22423 H 2077.73 -0.663168 4.11896 0
M  V30 22424 H 2076.36 -1.06015 3.04894 0
M  V30 22425 H 2075.41 1.30212 3.5742 0
M  V30 22426 H 2076.73 1.4996 4.75724 0
M  V30 22427 H 2075.88 -0.470532 6.04873 0
M  V30 22428 H 2074.62 -0.760784 4.8173 0
M  V30 22429 H 2073.62 1.4949 5.29087 0
M  V30 22430 H 2074.85 1.77447 6.55507 0
M  V30 22431 H 2072.79 -0.469516 6.54318 0
M  V30 22432 H 2072.71 0.975282 7.49683 0
M  V30 22433 H 2073.98 -0.176416 7.793 0
M  V30 22434 N 2078.21 -1.39832 0.726957 0
M  V30 22435 C 2079.45 -2.00971 0.271788 0
M  V30 22436 C 2079.79 -1.57537 -1.13559 0
M  V30 22437 O 2079.06 -0.800579 -1.7726 0
M  V30 22438 C 2079.35 -3.5825 0.364596 0
M  V30 22439 C 2079.2 -4.11724 1.81117 0
M  V30 22440 C 2080.52 -4.39345 -0.257652 0
M  V30 22441 H 2077.64 -0.730152 0.100232 0
M  V30 22442 H 2080.28 -1.66152 0.921599 0
M  V30 22443 H 2078.43 -3.88042 -0.18865 0
M  V30 22444 H 2080.1 -3.92684 2.42068 0
M  V30 22445 H 2078.34 -3.65585 2.33516 0
M  V30 22446 H 2079.01 -5.20873 1.82743 0
M  V30 22447 H 2081.49 -4.1555 0.213875 0
M  V30 22448 H 2080.37 -5.4866 -0.162327 0
M  V30 22449 H 2080.63 -4.21218 -1.34267 0
M  V30 22450 N 2079.69 -0.473982 -1.50304 0
M  V30 22451 C 2080.93 0.0801282 -2.02642 0
M  V30 22452 C 2081.27 1.3911 -1.35506 0
M  V30 22453 O 2080.54 1.8844 -0.481719 0
M  V30 22454 C 2080.82 0.26092 -3.59153 0
M  V30 22455 C 2080.68 -1.07128 -4.36857 0
M  V30 22456 C 2082 1.01413 -4.28256 0
M  V30 22457 H 2079.11 0.0276467 -0.736481 0
M  V30 22458 H 2081.76 -0.620135 -1.79595 0
M  V30 22459 H 2079.91 0.857378 -3.78921 0
M  V30 22460 H 2081.58 -1.70454 -4.28653 0
M  V30 22461 H 2079.82 -1.66721 -4.00483 0
M  V30 22462 H 2080.49 -0.898389 -5.4464 0
M  V30 22463 H 2082.97 0.508536 -4.12981 0
M  V30 22464 H 2081.84 1.10943 -5.37571 0
M  V30 22465 H 2082.11 2.05141 -3.91624 0
M  V30 22466 N 2081.16 1.56239 -0.206702 0
M  V30 22467 C 2082.58 1.84211 0.303832 0
M  V30 22468 C 2082.93 1.12771 1.60552 0
M  V30 22469 O 2082.05 0.392383 2.12813 0
M  V30 22470 C 2082.65 3.34173 0.558041 0
M  V30 22471 C 2081.21 3.62515 1.01292 0
M  V30 22472 C 2080.35 2.77217 0.0678344 0
M  V30 22473 H 2083.3 1.52757 -0.430235 0
M  V30 22474 H 2083.32 3.53573 1.40593 0
M  V30 22475 H 2082.84 3.8614 -0.38952 0
M  V30 22476 H 2080.94 3.15991 1.97435 0
M  V30 22477 H 2081.05 4.70617 0.8976 0
M  V30 22478 H 2079.41 2.48197 0.571888 0
M  V30 22479 H 2080.2 3.31978 -0.874377 0
M  V30 22480 N 2082.64 -0.0668159 1.57458 0
M  V30 22481 C 2084.06 -0.421716 1.53928 0
M  V30 22482 C 2084.26 -1.78879 0.927602 0
M  V30 22483 O 2083.31 -2.46826 0.532256 0
M  V30 22484 C 2084.63 -0.358209 2.98559 0
M  V30 22485 C 2086.18 -0.438036 3.0992 0
M  V30 22486 C 2086.65 -0.404384 4.56211 0
M  V30 22487 N 2088.14 -0.464311 4.60867 0
M  V30 22488 C 2088.88 -0.460566 5.71547 0
M  V30 22489 N 2088.37 -0.41134 6.91578 0
M  V30 22490 N 2090.17 -0.507495 5.59804 0
M  V30 22491 H 2082.32 0.828281 1.95584 0
M  V30 22492 H 2084.58 0.311307 0.895428 0
M  V30 22493 H 2084.29 0.579727 3.46889 0
M  V30 22494 H 2084.16 -1.16651 3.58709 0
M  V30 22495 H 2086.55 -1.3664 2.6156 0
M  V30 22496 H 2086.63 0.398926 2.5267 0
M  V30 22497 H 2086.27 0.520148 5.0523 0
M  V30 22498 H 2086.2 -1.25895 5.1133 0
M  V30 22499 H 2088.69 -0.506402 3.74492 0
M  V30 22500 H 2089.01 -0.412545 7.71698 0
M  V30 22501 H 2087.35 -0.377953 6.93972 0
M  V30 22502 H 2090.54 -0.543679 4.64932 0
M  V30 22503 H 2090.71 -0.501107 6.4606 0
M  V30 22504 N 2084.12 -1.53926 -0.338317 0
M  V30 22505 C 2085.54 -1.44306 -0.681751 0
M  V30 22506 C 2085.74 -0.604022 -1.92234 0
M  V30 22507 O 2084.79 -0.0970474 -2.52313 0
M  V30 22508 C 2086.11 -2.87854 -0.869513 0
M  V30 22509 C 2087.65 -2.97662 -0.967798 0
M  V30 22510 C 2088.13 -4.42328 -1.18784 0
M  V30 22511 N 2089.62 -4.45877 -1.25492 0
M  V30 22512 C 2090.36 -5.54952 -1.44278 0
M  V30 22513 N 2089.85 -6.74023 -1.60203 0
M  V30 22514 N 2091.64 -5.42574 -1.46868 0
M  V30 22515 H 2083.8 -2.06968 0.477289 0
M  V30 22516 H 2086.06 -0.935793 0.15164 0
M  V30 22517 H 2085.76 -3.51688 -0.0293745 0
M  V30 22518 H 2085.64 -3.33108 -1.76971 0
M  V30 22519 H 2088.03 -2.33965 -1.79845 0
M  V30 22520 H 2088.11 -2.55761 -0.0443848 0
M  V30 22521 H 2087.75 -5.06608 -0.362091 0
M  V30 22522 H 2087.68 -4.81825 -2.1249 0
M  V30 22523 H 2090.17 -3.60076 -1.14688 0
M  V30 22524 H 2090.48 -7.52913 -1.74188 0
M  V30 22525 H 2088.83 -6.76958 -1.57329 0
M  V30 22526 H 2092.02 -4.48507 -1.34012 0
M  V30 22527 H 2092.19 -6.27638 -1.61167 0
M  V30 22528 N 2085.6 0.599608 -1.45748 0
M  V30 22529 C 2086.55 1.70982 -1.55028 0
M  V30 22530 C 2087.52 1.61319 -0.395631 0
M  V30 22531 O 2088.7 1.80781 -0.610146 0
M  V30 22532 C 2085.84 3.09304 -1.53052 0
M  V30 22533 C 2084.95 3.29715 -2.79127 0
M  V30 22534 C 2084.09 4.58189 -2.68769 0
M  V30 22535 C 2083.13 4.71885 -3.89861 0
M  V30 22536 N 2082.27 5.91666 -3.77989 0
M  V30 22537 H 2087.11 1.62387 -2.49869 0
M  V30 22538 H 2084.64 0.791687 -1.23979 0
M  V30 22539 H 2086.6 3.89343 -1.49893 0
M  V30 22540 H 2085.23 3.16838 -0.617561 0
M  V30 22541 H 2084.28 2.43397 -2.92339 0
M  V30 22542 H 2085.59 3.35707 -3.68921 0
M  V30 22543 H 2084.75 5.46433 -2.63621 0
M  V30 22544 H 2083.49 4.54608 -1.76587 0
M  V30 22545 H 2082.49 3.82062 -3.95359 0
M  V30 22546 H 2083.72 4.77257 -4.83118 0
M  V30 22547 H 2081.66 5.89115 -2.88582 0
M  V30 22548 H 2081.58 5.98853 -4.61423 0
M  V30 22549 H 2082.85 6.82387 -3.76787 0
M  V30 22550 N 2087.08 1.33171 0.842803 0
M  V30 22551 C 2088.32 1.24589 1.60017 0
M  V30 22552 C 2088.66 -0.188935 1.93279 0
M  V30 22553 O 2087.93 -1.12923 1.58362 0
M  V30 22554 C 2088.21 2.11731 2.91277 0
M  V30 22555 C 2088.07 3.63652 2.64721 0
M  V30 22556 C 2089.39 1.98749 3.92666 0
M  V30 22557 H 2086.51 0.453935 0.580613 0
M  V30 22558 H 2089.15 1.63234 0.972356 0
M  V30 22559 H 2087.3 1.78904 3.44856 0
M  V30 22560 H 2088.97 4.06751 2.17604 0
M  V30 22561 H 2087.21 3.85728 1.98486 0
M  V30 22562 H 2087.88 4.19966 3.58236 0
M  V30 22563 H 2090.36 2.2753 3.48381 0
M  V30 22564 H 2089.24 2.61979 4.82347 0
M  V30 22565 H 2089.5 0.958565 4.31583 0
M  V30 22566 N 2088.56 -1.06056 1.16576 0
M  V30 22567 C 2089.5 -2.13591 0.874513 0
M  V30 22568 C 2090.47 -1.65143 -0.178027 0
M  V30 22569 O 2091.66 -1.90752 -0.0427107 0
M  V30 22570 C 2088.8 -3.42953 0.384377 0
M  V30 22571 C 2087.91 -4.05121 1.50002 0
M  V30 22572 C 2087.05 -5.22367 0.964658 0
M  V30 22573 C 2086.08 -5.76525 2.05635 0
M  V30 22574 N 2085.22 -6.85084 1.53639 0
M  V30 22575 H 2090.06 -2.37842 1.79541 0
M  V30 22576 H 2087.6 -1.16692 0.895622 0
M  V30 22577 H 2089.56 -4.1712 0.0818205 0
M  V30 22578 H 2088.19 -3.18911 -0.499573 0
M  V30 22579 H 2087.24 -3.28478 1.91849 0
M  V30 22580 H 2088.55 -4.41366 2.32374 0
M  V30 22581 H 2087.7 -6.03571 0.615426 0
M  V30 22582 H 2086.44 -4.87575 0.110275 0
M  V30 22583 H 2085.45 -4.93957 2.41425 0
M  V30 22584 H 2086.67 -6.13368 2.91474 0
M  V30 22585 H 2084.62 -6.52205 0.70458 0
M  V30 22586 H 2084.54 -7.20283 2.29626 0
M  V30 22587 H 2085.8 -7.6996 1.21581 0
M  V30 22588 N 2090.03 -0.964615 -1.24631 0
M  V30 22589 C 2091.28 -0.620429 -1.91921 0
M  V30 22590 C 2091.6 0.847851 -1.76269 0
M  V30 22591 O 2092.8 1.30243 -2.38221 0
M  V30 22592 C 2091.26 -1.059 -3.43967 0
M  V30 22593 C 2090.87 -2.55052 -3.6831 0
M  V30 22594 C 2092.61 -0.787818 -4.17126 0
M  V30 22595 C 2090.52 -2.92658 -5.13912 0
M  V30 22596 H 2089.45 -0.22834 -0.718594 0
M  V30 22597 H 2092.1 -1.17041 -1.41328 0
M  V30 22598 H 2090.48 -0.437357 -3.93577 0
M  V30 22599 H 2091.65 -3.2232 -3.29312 0
M  V30 22600 H 2089.97 -2.79748 -3.08432 0
M  V30 22601 H 2092.57 -1.04483 -5.24392 0
M  V30 22602 H 2092.91 0.275932 -4.15385 0
M  V30 22603 H 2093.44 -1.37028 -3.73454 0
M  V30 22604 H 2090.18 -3.98091 -5.20772 0
M  V30 22605 H 2089.7 -2.30071 -5.5392 0
M  V30 22606 H 2091.38 -2.82395 -5.82119 0
M  V30 22607 N 2091.51 1.39445 -0.734362 0
M  V30 22608 C 2092.76 1.99762 -0.278913 0
M  V30 22609 C 2093.07 1.58936 1.14012 0
M  V30 22610 O 2094.28 2.12085 1.69506 0
M  V30 22611 C 2092.74 3.57104 -0.447725 0
M  V30 22612 C 2092.34 4.06894 -1.87461 0
M  V30 22613 C 2094.09 4.24466 -0.0540192 0
M  V30 22614 C 2091.99 5.56806 -1.993 0
M  V30 22615 H 2090.92 0.747268 -0.100529 0
M  V30 22616 H 2093.58 1.59452 -0.908151 0
M  V30 22617 H 2091.96 3.95208 0.250399 0
M  V30 22618 H 2093.13 3.80126 -2.60463 0
M  V30 22619 H 2091.45 3.52193 -2.22147 0
M  V30 22620 H 2094.04 5.34562 -0.121504 0
M  V30 22621 H 2094.39 4.04341 0.990665 0
M  V30 22622 H 2094.92 3.91534 -0.703277 0
M  V30 22623 H 2091.66 5.8181 -3.01955 0
M  V30 22624 H 2091.18 5.85379 -1.30734 0
M  V30 22625 H 2092.86 6.22208 -1.77387 0
M  V30 22626 N 2092.99 0.481946 1.5005 0
M  V30 22627 C 2094.41 0.13674 1.59013 0
M  V30 22628 C 2094.61 -1.35753 1.48908 0
M  V30 22629 O 2093.66 -2.1318 1.35316 0
M  V30 22630 C 2094.97 0.696597 2.9252 0
M  V30 22631 C 2096.52 0.660993 3.05941 0
M  V30 22632 C 2097 1.19858 4.42038 0
M  V30 22633 N 2098.49 1.15846 4.4848 0
M  V30 22634 C 2099.22 1.54481 5.52199 0
M  V30 22635 N 2098.72 2.00617 6.63117 0
M  V30 22636 N 2100.51 1.46016 5.42804 0
M  V30 22637 H 2092.66 1.45367 1.54862 0
M  V30 22638 H 2094.93 0.601814 0.732478 0
M  V30 22639 H 2094.63 1.74381 3.05425 0
M  V30 22640 H 2094.51 0.146249 3.76916 0
M  V30 22641 H 2096.89 -0.377335 2.92678 0
M  V30 22642 H 2096.97 1.24827 2.23275 0
M  V30 22643 H 2096.62 2.2356 4.56052 0
M  V30 22644 H 2096.55 0.587419 5.23313 0
M  V30 22645 H 2099.04 0.820197 3.68892 0
M  V30 22646 H 2099.35 2.28217 7.38334 0
M  V30 22647 H 2097.7 2.04578 6.64209 0
M  V30 22648 H 2100.89 1.09805 4.55039 0
M  V30 22649 H 2101.06 1.7645 6.23514 0
M  V30 22650 N 2094.47 -1.56127 0.214985 0
M  V30 22651 C 2095.74 -1.8994 -0.467153 0
M  V30 22652 C 2096.12 -1.13139 -1.78221 0
M  V30 22653 O 2095.47 -0.238654 -2.2725 0
M  V30 22654 C 2095.68 -3.42576 -0.666524 0
M  V30 22655 C 2097.03 -4.13209 -0.976927 0
M  V30 22656 O 2098.05 -3.48138 -0.753545 0
M  V30 22657 O 2096.91 -5.2825 -1.40052 0
M  V30 22658 H 2094.01 -0.789533 -0.246102 0
M  V30 22659 H 2096.55 -1.67748 0.256681 0
M  V30 22660 H 2095.33 -3.90426 0.261344 0
M  V30 22661 H 2094.95 -3.70526 -1.44209 0
M  V30 22662 N 2095.95 0.0584645 -1.57492 0
M  V30 22663 C 2097.18 0.766524 -1.91854 0
M  V30 22664 C 2097.58 1.70962 -0.810481 0
M  V30 22665 O 2096.93 1.82328 0.224122 0
M  V30 22666 C 2096.99 1.60277 -3.21794 0
M  V30 22667 C 2096.65 0.827629 -4.49443 0
M  V30 22668 C 2097.65 0.140903 -5.19709 0
M  V30 22669 C 2095.33 0.790858 -4.96035 0
M  V30 22670 C 2097.33 -0.572217 -6.34826 0
M  V30 22671 C 2095.02 0.0739737 -6.11055 0
M  V30 22672 C 2096.01 -0.606351 -6.80303 0
M  V30 22673 O 2095.7 -1.31166 -7.93127 0
M  V30 22674 H 2095.43 0.222315 -0.638398 0
M  V30 22675 H 2097.99 0.0289713 -2.0538 0
M  V30 22676 H 2096.22 2.38344 -3.04514 0
M  V30 22677 H 2097.91 2.19073 -3.41705 0
M  V30 22678 H 2098.67 0.160531 -4.84734 0
M  V30 22679 H 2094.55 1.30987 -4.41999 0
M  V30 22680 H 2098.1 -1.10379 -6.88812 0
M  V30 22681 H 2093.99 0.0523191 -6.45479 0
M  V30 22682 H 2094.76 -1.2223 -8.09322 0
M  V30 22683 N 2097.42 1.54103 0.330149 0
M  V30 22684 C 2098.67 1.71653 1.06675 0
M  V30 22685 C 2098.99 0.489514 1.88756 0
M  V30 22686 O 2098.26 -0.496523 1.89503 0
M  V30 22687 H 2096.84 0.63288 0.396827 0
M  V30 22688 H 2099.5 1.91391 0.36818 0
M  V30 22689 H 2098.6 2.59328 1.73653 0
M  V30 22690 N 2098.9 -0.59187 1.46064 0
M  V30 22691 C 2099.85 -1.70158 1.55933 0
M  V30 22692 C 2100.82 -1.61107 0.404181 0
M  V30 22693 O 2102 -1.80455 0.619725 0
M  V30 22694 C 2099.14 -3.08488 1.5469 0
M  V30 22695 C 2098.26 -3.2823 2.80872 0
M  V30 22696 C 2097.39 -4.56757 2.71195 0
M  V30 22697 C 2096.43 -4.6981 3.92358 0
M  V30 22698 N 2095.57 -5.89653 3.81121 0
M  V30 22699 H 2100.41 -1.61059 2.50727 0
M  V30 22700 H 2097.95 -0.785101 1.24397 0
M  V30 22701 H 2099.9 -3.88542 1.51956 0
M  V30 22702 H 2098.53 -3.16506 0.634355 0
M  V30 22703 H 2097.59 -2.41843 2.93626 0
M  V30 22704 H 2098.9 -3.33745 3.70696 0
M  V30 22705 H 2098.05 -5.45027 2.66515 0
M  V30 22706 H 2096.79 -4.53665 1.78996 0
M  V30 22707 H 2095.8 -3.7996 3.9738 0
M  V30 22708 H 2097.02 -4.74688 4.85642 0
M  V30 22709 H 2094.97 -5.87576 2.91702 0
M  V30 22710 H 2094.88 -5.96397 4.64593 0
M  V30 22711 H 2096.15 -6.80379 3.80401 0
M  V30 22712 N 2100.38 -1.33616 -0.835729 0
M  V30 22713 C 2101.31 -1.19968 -1.95296 0
M  V30 22714 C 2102.33 -0.129874 -1.62281 0
M  V30 22715 O 2103.51 -0.380581 -1.74396 0
M  V30 22716 C 2100.61 -0.818275 -3.28873 0
M  V30 22717 C 2099.79 -1.98038 -3.9 0
M  V30 22718 C 2098.85 -1.57944 -5.01936 0
M  V30 22719 O 2097.87 -2.29423 -5.20916 0
M  V30 22720 N 2099.07 -0.486237 -5.7846 0
M  V30 22721 H 2101.84 -2.16212 -2.0754 0
M  V30 22722 H 2099.4 -1.26403 -1.01163 0
M  V30 22723 H 2101.39 -0.532092 -4.01187 0
M  V30 22724 H 2099.96 0.053577 -3.12554 0
M  V30 22725 H 2099.18 -2.43201 -3.10237 0
M  V30 22726 H 2100.47 -2.75789 -4.27572 0
M  V30 22727 H 2099.87 0.108268 -5.65596 0
M  V30 22728 H 2098.43 -0.259739 -6.51282 0
M  V30 22729 N 2101.86 1.05436 -1.17136 0
M  V30 22730 C 2102.79 2.12599 -0.829282 0
M  V30 22731 C 2103.77 1.6133 0.202856 0
M  V30 22732 O 2104.95 1.88308 0.0849539 0
M  V30 22733 C 2102.08 3.37873 -0.236614 0
M  V30 22734 C 2101.13 4.07962 -1.24374 0
M  V30 22735 S 2101.96 4.5683 -2.79404 0
M  V30 22736 C 2103.12 5.85354 -2.21611 0
M  V30 22737 H 2103.35 2.41288 -1.73688 0
M  V30 22738 H 2100.88 1.18 -0.995754 0
M  V30 22739 H 2102.84 4.10381 0.0988539 0
M  V30 22740 H 2101.5 3.07324 0.648884 0
M  V30 22741 H 2100.69 4.97964 -0.777659 0
M  V30 22742 H 2100.3 3.41508 -1.52474 0
M  V30 22743 H 2102.59 6.58575 -1.59013 0
M  V30 22744 H 2103.53 6.36706 -3.09857 0
M  V30 22745 H 2103.94 5.39799 -1.65157 0
M  V30 22746 N 2103.34 0.971211 1.24118 0
M  V30 22747 C 2104.3 0.509064 2.23475 0
M  V30 22748 C 2105.3 -0.39631 1.5584 0
M  V30 22749 O 2106.49 -0.191281 1.73147 0
M  V30 22750 C 2103.62 -0.262327 3.39889 0
M  V30 22751 H 2104.81 1.38746 2.65875 0
M  V30 22752 H 2102.37 0.756154 1.36792 0
M  V30 22753 H 2103.1 -1.15767 3.02933 0
M  V30 22754 H 2102.89 0.387439 3.90181 0
M  V30 22755 H 2104.38 -0.574574 4.13628 0
M  V30 22756 N 2104.81 -1.39054 0.741747 0
M  V30 22757 C 2106.06 -1.99978 0.292077 0
M  V30 22758 C 2106.38 -1.59162 -1.12662 0
M  V30 22759 O 2105.65 -0.842958 -1.76836 0
M  V30 22760 H 2104.23 -0.739584 0.105 0
M  V30 22761 H 2106.9 -1.7 0.953207 0
M  V30 22762 H 2105.99 -3.10178 0.34581 0
M  V30 22763 N 2106.29 -0.489897 -1.49792 0
M  V30 22764 C 2107.57 0.121028 -1.95225 0
M  V30 22765 C 2107.95 1.55194 -1.43101 0
M  V30 22766 O 2107.3 2.19354 -0.639992 0
M  V30 22767 C 2107.51 0.045071 -3.48971 0
M  V30 22768 C 2108.86 0.224571 -4.24006 0
M  V30 22769 O 2109.88 0.120781 -3.55995 0
M  V30 22770 O 2108.74 0.436269 -5.44756 0
M  V30 22771 H 2105.83 0.101395 -0.820761 0
M  V30 22772 H 2108.38 -0.551643 -1.60484 0
M  V30 22773 H 2107.15 -0.953242 -3.79512 0
M  V30 22774 H 2106.77 0.758377 -3.903 0
M  V30 22775 N 2107.77 1.56011 -0.223262 0
M  V30 22776 C 2109.05 1.90185 0.457074 0
M  V30 22777 C 2109.43 1.14083 1.77618 0
M  V30 22778 O 2108.78 0.250703 2.27121 0
M  V30 22779 C 2108.99 3.42925 0.648347 0
M  V30 22780 C 2110.33 4.13721 0.955 0
M  V30 22781 O 2111.36 3.48533 0.735072 0
M  V30 22782 O 2110.22 5.28985 1.37248 0
M  V30 22783 H 2107.31 0.790827 0.241912 0
M  V30 22784 H 2109.86 1.67609 -0.265573 0
M  V30 22785 H 2108.63 3.90282 -0.282045 0
M  V30 22786 H 2108.25 3.71286 1.42242 0
M  V30 22787 N 2109.25 -0.0501116 1.5752 0
M  V30 22788 C 2110.49 -0.750186 1.90136 0
M  V30 22789 C 2110.85 -1.73631 0.819531 0
M  V30 22790 O 2112.05 -2.48308 1.02939 0
M  V30 22791 C 2110.32 -1.4207 3.27949 0
M  V30 22792 S 2111.88 -2.15284 3.82359 0
M  V30 22793 H 2108.7 -0.249004 0.665972 0
M  V30 22794 H 2111.3 -0.00547796 1.95499 0
M  V30 22795 H 2110.01 -0.689478 4.04567 0
M  V30 22796 H 2109.54 -2.2044 3.25837 0
M  V30 22797 H 2111.55 -3.42131 3.59389 0
M  V30 22798 N 2110.73 -1.54276 -0.321972 0
M  V30 22799 C 2111.97 -1.72813 -1.0613 0
M  V30 22800 C 2112.31 -0.501222 -1.8762 0
M  V30 22801 O 2111.58 0.501806 -1.87915 0
M  V30 22802 C 2111.86 -3.00469 -1.9847 0
M  V30 22803 C 2111.72 -4.33415 -1.20299 0
M  V30 22804 C 2113.04 -3.23886 -2.97969 0
M  V30 22805 H 2110.15 -0.628793 -0.384432 0
M  V30 22806 H 2112.8 -1.86973 -0.337811 0
M  V30 22807 H 2110.95 -2.88528 -2.60161 0
M  V30 22808 H 2112.62 -4.57242 -0.610559 0
M  V30 22809 H 2110.86 -4.30847 -0.505293 0
M  V30 22810 H 2111.53 -5.18959 -1.8811 0
M  V30 22811 H 2114.01 -3.353 -2.46401 0
M  V30 22812 H 2112.88 -4.14562 -3.59763 0
M  V30 22813 H 2113.15 -2.4119 -3.70513 0
M  V30 22814 N 2112.2 0.584116 -1.46376 0
M  V30 22815 C 2113.17 1.6753 -1.56417 0
M  V30 22816 C 2114.17 1.54622 -0.441454 0
M  V30 22817 O 2115.36 1.59265 -0.705714 0
M  V30 22818 C 2112.49 3.06947 -1.48313 0
M  V30 22819 H 2113.68 1.59986 -2.53662 0
M  V30 22820 H 2111.24 0.801837 -1.34165 0
M  V30 22821 H 2111.97 3.20048 -0.523413 0
M  V30 22822 H 2111.76 3.17724 -2.29768 0
M  V30 22823 H 2113.25 3.86384 -1.58422 0
M  V30 22824 N 2113.68 1.34058 0.828631 0
M  V30 22825 C 2114.91 1.29306 1.62156 0
M  V30 22826 C 2115.33 -0.131256 1.87641 0
M  V30 22827 O 2114.69 -1.09118 1.44786 0
M  V30 22828 C 2114.74 2.08394 2.94286 0
M  V30 22829 O 2113.84 1.44955 3.86085 0
M  V30 22830 H 2113.18 0.444364 0.493393 0
M  V30 22831 H 2115.71 1.76775 1.03014 0
M  V30 22832 H 2115.72 2.19539 3.43899 0
M  V30 22833 H 2114.4 3.11953 2.7506 0
M  V30 22834 H 2112.98 1.42518 3.44591 0
M  V30 22835 N 2115.16 -1.04814 1.17694 0
M  V30 22836 C 2116.58 -1.3006 0.925018 0
M  V30 22837 C 2116.78 -1.97207 -0.4137 0
M  V30 22838 O 2115.83 -2.24802 -1.14979 0
M  V30 22839 C 2117.15 -2.16666 2.0851 0
M  V30 22840 C 2118.69 -2.30036 2.12256 0
M  V30 22841 C 2119.17 -3.20004 3.27661 0
M  V30 22842 N 2120.66 -3.2759 3.27473 0
M  V30 22843 C 2121.4 -3.97339 4.13412 0
M  V30 22844 N 2120.89 -4.69483 5.09468 0
M  V30 22845 N 2122.68 -3.93542 4.01349 0
M  V30 22846 H 2114.84 -0.596316 2.03857 0
M  V30 22847 H 2117.1 -0.325581 0.890338 0
M  V30 22848 H 2116.8 -1.74624 3.05286 0
M  V30 22849 H 2116.68 -3.17317 2.03936 0
M  V30 22850 H 2119.07 -2.71318 1.16063 0
M  V30 22851 H 2119.15 -1.29001 2.2089 0
M  V30 22852 H 2118.79 -2.79435 4.24121 0
M  V30 22853 H 2118.72 -4.21053 3.16263 0
M  V30 22854 H 2121.21 -2.76191 2.57928 0
M  V30 22855 H 2121.52 -5.20277 5.7143 0
M  V30 22856 H 2119.87 -4.68413 5.13434 0
M  V30 22857 H 2123.06 -3.36308 3.25599 0
M  V30 22858 H 2123.23 -4.4763 4.68542 0
M  V30 22859 N 2116.64 -0.977779 -1.23601 0
M  V30 22860 C 2117.57 -0.473925 -2.24247 0
M  V30 22861 C 2118.58 0.422811 -1.57214 0
M  V30 22862 O 2119.77 0.227368 -1.77046 0
M  V30 22863 C 2116.87 0.334033 -3.3725 0
M  V30 22864 C 2116.05 -0.555203 -4.33862 0
M  V30 22865 C 2115.11 0.198457 -5.25826 0
M  V30 22866 O 2114.13 -0.411037 -5.67714 0
M  V30 22867 N 2115.33 1.48519 -5.61179 0
M  V30 22868 H 2118.1 -1.3393 -2.6811 0
M  V30 22869 H 2115.66 -0.850748 -1.37746 0
M  V30 22870 H 2117.65 0.846503 -3.95748 0
M  V30 22871 H 2116.22 1.1004 -2.92592 0
M  V30 22872 H 2115.44 -1.24853 -3.73905 0
M  V30 22873 H 2116.73 -1.16132 -4.95369 0
M  V30 22874 H 2116.13 2.00194 -5.29092 0
M  V30 22875 H 2114.68 1.94316 -6.22161 0
M  V30 22876 N 2118.12 1.38658 -0.749111 0
M  V30 22877 C 2119.39 1.94255 -0.228976 0
M  V30 22878 C 2119.77 1.68478 1.27194 0
M  V30 22879 O 2119.12 1.02082 2.0443 0
M  V30 22880 C 2119.33 3.44183 -0.577827 0
M  V30 22881 C 2120.68 4.21216 -0.534981 0
M  V30 22882 O 2121.7 3.52445 -0.515853 0
M  V30 22883 O 2120.56 5.43806 -0.541959 0
M  V30 22884 H 2117.66 0.825688 -0.0465621 0
M  V30 22885 H 2120.2 1.48077 -0.828929 0
M  V30 22886 H 2118.98 3.56436 -1.6146 0
M  V30 22887 H 2118.6 3.97568 0.0503656 0
M  V30 22888 N 2119.6 0.497834 1.49531 0
M  V30 22889 C 2120.51 -0.286926 2.32839 0
M  V30 22890 C 2121.52 -0.970397 1.44427 0
M  V30 22891 O 2122.7 -0.952478 1.77454 0
M  V30 22892 C 2119.76 -1.33928 3.19788 0
M  V30 22893 C 2118.82 -0.669588 4.24046 0
M  V30 22894 C 2118.06 -1.67181 5.0684 0
M  V30 22895 O 2118.28 -2.90132 4.91101 0
M  V30 22896 O 2117.21 -1.22887 5.89222 0
M  V30 22897 H 2121.04 0.394869 3.01122 0
M  V30 22898 H 2118.62 0.259218 1.47134 0
M  V30 22899 H 2120.51 -1.94822 3.73661 0
M  V30 22900 H 2119.18 -2.00407 2.54202 0
M  V30 22901 H 2118.09 -0.0209922 3.74094 0
M  V30 22902 H 2119.42 -0.0473067 4.92177 0
M  V30 22903 N 2121.07 -1.5589 0.231532 0
M  V30 22904 C 2122.35 -1.90424 -0.446981 0
M  V30 22905 C 2122.73 -1.15023 -1.77011 0
M  V30 22906 O 2122.08 -0.262744 -2.26984 0
M  V30 22907 C 2122.29 -3.43264 -0.630152 0
M  V30 22908 C 2123.64 -4.14221 -0.933046 0
M  V30 22909 O 2124.66 -3.48918 -0.716578 0
M  V30 22910 O 2123.52 -5.29705 -1.34441 0
M  V30 22911 H 2120.61 -0.792099 -0.237715 0
M  V30 22912 H 2123.16 -1.67466 0.274458 0
M  V30 22913 H 2121.93 -3.90127 0.302739 0
M  V30 22914 H 2121.55 -3.72035 -1.40271 0
M  V30 22915 O 2122.59 -0.0956186 -1.61217 0
M  V30 22916 H 2123.28 0.506867 -1.86951 0
M  V30 END ATOM
M  V30 BEGIN BOND
M  V30 END BOND
M  V30 END CTAB
M  END
$$$$
