drugbank_target|P12676 Cholesterol oxidase (DB02332; DB03147)
 OpenBabel12092119563D

  0  0  0     0  0            999 V3000
M  V30 BEGIN CTAB
M  V30 COUNTS 8240 8330 0 0 0
M  V30 BEGIN ATOM
M  V30 1 H -0.908 1.98254 -0.117106 0
M  V30 2 N 0 1.576 0 0
M  V30 3 C 0.933 2.03868 1.02534 0
M  V30 4 C 1.911 0.928543 1.3348 0
M  V30 5 O 3.095 1.19667 1.45644 0
M  V30 6 C 0.222 2.43627 2.35294 0
M  V30 7 C -0.732 3.65373 2.2001 0
M  V30 8 S 0.101 5.13292 1.52614 0
M  V30 9 C 1.257 5.56322 2.86805 0
M  V30 10 H 1.49 2.90518 0.631377 0
M  V30 11 H -0.977 1.52953 0.210867 0
M  V30 12 H 0.981 2.67203 3.11629 0
M  V30 13 H -0.358 1.57376 2.7183 0
M  V30 14 H -1.165 3.90944 3.18086 0
M  V30 15 H -1.563 3.418 1.51819 0
M  V30 16 H 0.729 5.58782 3.83104 0
M  V30 17 H 1.672 6.56266 2.65933 0
M  V30 18 H 2.08 4.83886 2.90714 0
M  V30 19 N 1.4781 -0.272755 1.55222 0
M  V30 20 C 2.7061 -1.02255 1.79865 0
M  V30 21 C 3.1211 -1.79924 0.572088 0
M  V30 22 O 2.4781 -1.76638 -0.458842 0
M  V30 23 C 2.5291 -1.98094 3.02392 0
M  V30 24 O 2.2501 -1.23572 4.20311 0
M  V30 25 C 3.7511 -2.84884 3.39641 0
M  V30 26 H 0.9711 -0.302057 0.599168 0
M  V30 27 H 3.5151 -0.303465 2.02236 0
M  V30 28 H 1.6701 -2.65465 2.82147 0
M  V30 29 H 2.0841 -1.88172 4.89583 0
M  V30 30 H 3.5581 -3.47927 4.28545 0
M  V30 31 H 4.0351 -3.54665 2.59055 0
M  V30 32 H 4.6411 -2.23003 3.62146 0
M  V30 33 N 2.9562 -1.48159 -0.537278 0
M  V30 34 C 3.9192 -1.61665 -1.62472 0
M  V30 35 C 4.9192 -0.490395 -1.5314 0
M  V30 36 O 6.1092 -0.755998 -1.5694 0
M  V30 37 C 3.2412 -1.57997 -3.02076 0
M  V30 38 H 4.4342 -2.58621 -1.51839 0
M  V30 39 H 1.9872 -1.36647 -0.758771 0
M  V30 40 H 2.7222 -0.624913 -3.18222 0
M  V30 41 H 2.5072 -2.39755 -3.10258 0
M  V30 42 H 3.9972 -1.70627 -3.81151 0
M  V30 43 N 4.4343 0.785586 -1.36625 0
M  V30 44 C 5.3663 1.90711 -1.2713 0
M  V30 45 C 6.3793 1.61688 -0.189986 0
M  V30 46 O 7.5683 1.72864 -0.445014 0
M  V30 47 C 4.6683 3.25611 -0.939713 0
M  V30 48 C 3.8413 3.82385 -2.12369 0
M  V30 49 C 2.9003 4.95732 -1.76456 0
M  V30 50 O 1.9263 5.12047 -2.48589 0
M  V30 51 N 3.1283 5.76258 -0.700492 0
M  V30 52 H 5.8933 1.99376 -2.23762 0
M  V30 53 H 3.4543 0.964041 -1.30069 0
M  V30 54 H 5.4463 3.98937 -0.680554 0
M  V30 55 H 4.0163 3.12538 -0.0624074 0
M  V30 56 H 3.2363 3.01001 -2.54543 0
M  V30 57 H 4.5243 4.17047 -2.9146 0
M  V30 58 H 3.9223 5.65609 -0.101624 0
M  V30 59 H 2.4793 6.4987 -0.501165 0
M  V30 60 N 5.9124 1.20967 1.01018 0
M  V30 61 C 6.8444 0.922059 2.09835 0
M  V30 62 C 7.8574 -0.0927106 1.62536 0
M  V30 63 O 9.0464 0.139127 1.77957 0
M  V30 64 C 6.1464 0.362004 3.36961 0
M  V30 65 C 5.3194 1.42986 4.13369 0
M  V30 66 C 4.3784 0.879976 5.1879 0
M  V30 67 O 3.4044 1.56219 5.47343 0
M  V30 68 N 4.6064 -0.307396 5.79686 0
M  V30 69 H 7.3714 1.8588 2.35093 0
M  V30 70 H 4.9324 1.11422 1.1746 0
M  V30 71 H 6.9244 -0.0201474 4.04695 0
M  V30 72 H 5.4944 -0.479437 3.08902 0
M  V30 73 H 4.7144 1.98608 3.40512 0
M  V30 74 H 6.0024 2.14885 4.61196 0
M  V30 75 H 5.4004 -0.878796 5.58832 0
M  V30 76 H 3.9574 -0.631115 6.48737 0
M  V30 77 N 7.3905 -1.2043 1.01659 0
M  V30 78 C 8.3405 -2.21076 0.557623 0
M  V30 79 C 9.3245 -1.56176 -0.387029 0
M  V30 80 O 10.5165 -1.7575 -0.209996 0
M  V30 81 C 7.6455 -3.43146 -0.102707 0
M  V30 82 C 6.7315 -4.15213 0.863652 0
M  V30 83 N 7.1225 -4.63662 2.02117 0
M  V30 84 C 5.4205 -4.40716 0.684472 0
M  V30 85 C 6.1215 -5.18868 2.62966 0
M  V30 86 N 5.0975 -5.0893 1.91027 0
M  V30 87 H 8.8995 -2.56201 1.44008 0
M  V30 88 H 6.4135 -1.36366 0.881931 0
M  V30 89 H 8.4105 -4.14475 -0.449054 0
M  V30 90 H 7.0705 -3.09526 -0.981003 0
M  V30 91 H 8.0815 -4.58877 2.40109 0
M  V30 92 H 4.7585 -4.17245 -0.14577 0
M  V30 93 H 6.1485 -5.6673 3.60924 0
M  V30 94 N 8.8686 -0.792821 -1.36206 0
M  V30 95 C 9.7986 -0.207853 -2.32573 0
M  V30 96 C 10.7796 0.659055 -1.56813 0
M  V30 97 O 11.9646 0.592176 -1.84951 0
M  V30 98 C 9.0946 0.655449 -3.41059 0
M  V30 99 C 8.0486 -0.111842 -4.27854 0
M  V30 100 C 7.3746 0.872274 -5.27537 0
M  V30 101 C 8.6746 -1.30299 -5.05786 0
M  V30 102 H 10.3686 -1.01294 -2.81744 0
M  V30 103 H 7.9146 -0.48854 -1.3546 0
M  V30 104 H 9.8676 1.07464 -4.07467 0
M  V30 105 H 8.5916 1.49328 -2.90463 0
M  V30 106 H 7.2506 -0.512053 -3.63006 0
M  V30 107 H 6.8986 1.70523 -4.73214 0
M  V30 108 H 6.5986 0.363291 -5.86476 0
M  V30 109 H 8.1226 1.28996 -5.96818 0
M  V30 110 H 9.5366 -0.959379 -5.65216 0
M  V30 111 H 7.9336 -1.7455 -5.74154 0
M  V30 112 H 9.0036 -2.09663 -4.37229 0
M  V30 113 N 10.3467 1.47872 -0.545128 0
M  V30 114 C 11.5717 2.07391 -0.0190611 0
M  V30 115 C 11.9967 1.39688 1.25971 0
M  V30 116 O 11.3547 0.467816 1.7516 0
M  V30 117 C 11.4027 3.60188 0.172335 0
M  V30 118 O 10.5067 3.9339 1.23766 0
M  V30 119 H 9.8477 0.662411 -0.0459059 0
M  V30 120 H 12.3777 1.90066 -0.757365 0
M  V30 121 H 12.3877 4.06129 0.390305 0
M  V30 122 H 11.0627 4.08865 -0.761725 0
M  V30 123 H 9.6397 3.5921 1.00114 0
M  V30 124 N 11.8248 0.280983 1.55075 0
M  V30 125 C 13.2408 -0.0729964 1.59433 0
M  V30 126 C 13.4408 -1.5411 1.29817 0
M  V30 127 O 12.4968 -2.29086 1.06187 0
M  V30 128 C 13.8098 0.306921 2.9913 0
M  V30 129 C 15.3578 0.254023 3.11968 0
M  V30 130 C 15.8328 0.608467 4.5394 0
M  V30 131 N 17.3238 0.560241 4.59799 0
M  V30 132 C 18.0588 0.80722 5.6769 0
M  V30 133 N 17.5548 1.11912 6.83701 0
M  V30 134 N 19.3478 0.735623 5.57266 0
M  V30 135 H 11.4988 1.238 1.7259 0
M  V30 136 H 13.7618 0.500547 0.805082 0
M  V30 137 H 13.4678 1.32816 3.25657 0
M  V30 138 H 13.3418 -0.349363 3.75579 0
M  V30 139 H 15.7288 -0.75794 2.852 0
M  V30 140 H 15.8098 0.944649 2.37718 0
M  V30 141 H 15.4538 1.61814 4.81434 0
M  V30 142 H 15.3838 -0.104013 5.26497 0
M  V30 143 H 17.8748 0.329288 3.76463 0
M  V30 144 H 18.1878 1.29409 7.61888 0
M  V30 145 H 16.5328 1.15695 6.85303 0
M  V30 146 H 19.7238 0.491752 4.6551 0
M  V30 147 H 19.8968 0.931482 6.4127 0
M  V30 148 N 13.3029 -1.57598 0.00835791 0
M  V30 149 C 14.7189 -1.55764 -0.347822 0
M  V30 150 C 14.9189 -1.01186 -1.74252 0
M  V30 151 O 13.9749 -0.649371 -2.44007 0
M  V30 152 C 15.2879 -2.99927 -0.215407 0
M  V30 153 C 16.8359 -3.11656 -0.289725 0
M  V30 154 C 17.3109 -4.57621 -0.18634 0
M  V30 155 N 18.8019 -4.62557 -0.243978 0
M  V30 156 C 19.5369 -5.73094 -0.18745 0
M  V30 157 N 19.0329 -6.92753 -0.0810331 0
M  V30 158 N 20.8259 -5.61588 -0.239925 0
M  V30 159 H 12.9769 -1.91411 0.92062 0
M  V30 160 H 15.2399 -0.879562 0.353659 0
M  V30 161 H 14.9459 -3.43729 0.744512 0
M  V30 162 H 14.8199 -3.63865 -0.994097 0
M  V30 163 H 17.2069 -2.67779 -1.24009 0
M  V30 164 H 17.2879 -2.5048 0.51898 0
M  V30 165 H 16.9319 -5.02174 0.760519 0
M  V30 166 H 16.8619 -5.16752 -1.01364 0
M  V30 167 H 19.3529 -3.76481 -0.327217 0
M  V30 168 H 19.6659 -7.72787 -0.0440241 0
M  V30 169 H 18.0109 -6.94984 -0.0465419 0
M  V30 170 H 21.2019 -4.66996 -0.321317 0
M  V30 171 H 21.3749 -6.47714 -0.192407 0
M  V30 172 N 14.781 0.264519 -1.55364 0
M  V30 173 C 16.197 0.61215 -1.47394 0
M  V30 174 C 16.397 1.89134 -0.695018 0
M  V30 175 O 15.453 2.51563 -0.217275 0
M  V30 176 C 16.766 0.731235 -2.91674 0
M  V30 177 C 18.314 0.82473 -3.01939 0
M  V30 178 C 18.789 0.975522 -4.4749 0
M  V30 179 N 20.28 1.04083 -4.51354 0
M  V30 180 C 21.015 1.17646 -5.61201 0
M  V30 181 N 20.511 1.27874 -6.80896 0
M  V30 182 N 22.304 1.20823 -5.48961 0
M  V30 183 H 14.455 -0.575456 -2.04456 0
M  V30 184 H 16.718 -0.196099 -0.927496 0
M  V30 185 H 16.424 -0.138392 -3.51428 0
M  V30 186 H 16.298 1.60883 -3.41169 0
M  V30 187 H 18.685 1.68482 -2.42276 0
M  V30 188 H 18.766 -0.0776479 -2.55682 0
M  V30 189 H 18.41 0.120058 -5.07758 0
M  V30 190 H 18.34 1.89268 -4.91412 0
M  V30 191 H 20.831 0.973846 -3.65136 0
M  V30 192 H 21.144 1.38081 -7.60364 0
M  V30 193 H 19.489 1.24863 -6.83692 0
M  V30 194 H 22.68 1.12469 -4.54388 0
M  V30 195 H 22.853 1.31049 -6.3461 0
M  V30 196 N 16.2591 1.48442 0.529413 0
M  V30 197 C 17.1921 1.57577 1.65059 0
M  V30 198 C 18.1701 0.426198 1.56915 0
M  V30 199 O 19.3541 0.637877 1.77379 0
M  V30 200 C 16.4811 1.5043 3.03461 0
M  V30 201 C 15.5271 2.70235 3.29962 0
M  V30 202 S 16.3601 4.32198 3.16172 0
M  V30 203 C 17.5161 4.2765 4.57019 0
M  V30 204 H 17.7491 2.52427 1.5706 0
M  V30 205 H 15.2821 1.36982 0.712417 0
M  V30 206 H 17.2401 1.46992 3.8328 0
M  V30 207 H 15.9011 0.569167 3.089 0
M  V30 208 H 15.0941 2.61374 4.30929 0
M  V30 209 H 14.6961 2.70938 2.57815 0
M  V30 210 H 16.9881 3.97618 5.48549 0
M  V30 211 H 17.9311 5.28797 4.70934 0
M  V30 212 H 18.3391 3.5811 4.36368 0
M  V30 213 N 17.7372 -0.778329 1.37039 0
M  V30 214 C 18.6672 -1.90546 1.34962 0
M  V30 215 C 19.6482 -1.68681 0.219274 0
M  V30 216 O 20.8332 -1.89634 0.418624 0
M  V30 217 C 17.9632 -3.27734 1.14925 0
M  V30 218 C 16.9172 -3.64147 2.24902 0
M  V30 219 C 16.2432 -4.99806 1.89996 0
M  V30 220 C 17.5432 -3.71579 3.67051 0
M  V30 221 H 19.2372 -1.92541 2.29277 0
M  V30 222 H 16.7832 -0.924948 1.10366 0
M  V30 223 H 18.7362 -4.06215 1.12104 0
M  V30 224 H 17.4602 -3.26154 0.170631 0
M  V30 225 H 16.1192 -2.8797 2.26868 0
M  V30 226 H 15.7672 -4.94759 0.906796 0
M  V30 227 H 15.4672 -5.25139 2.63634 0
M  V30 228 H 16.9912 -5.80694 1.88749 0
M  V30 229 H 18.4052 -4.40227 3.67251 0
M  V30 230 H 16.8022 -4.08405 4.39688 0
M  V30 231 H 17.8722 -2.72404 4.01154 0
M  V30 232 N 19.2153 -1.21501 -1.00376 0
M  V30 233 C 20.4633 -1.03095 -1.73827 0
M  V30 234 C 20.7843 0.436341 -1.90055 0
M  V30 235 O 20.0543 1.31466 -1.45236 0
M  V30 236 H 18.6343 -0.378487 -0.644016 0
M  V30 237 H 21.2963 -1.52831 -1.20949 0
M  V30 238 H 20.3923 -1.49991 -2.73695 0
M  V30 239 N 20.6934 1.19889 -1.02296 0
M  V30 240 C 21.6264 2.21639 -0.543282 0
M  V30 241 C 22.6044 1.57275 0.412698 0
M  V30 242 O 23.7884 1.85568 0.331198 0
M  V30 243 C 20.9154 3.38057 0.208571 0
M  V30 244 C 19.9614 4.20751 -0.697933 0
M  V30 245 S 20.7944 4.89529 -2.17075 0
M  V30 246 C 21.9504 6.09363 -1.42923 0
M  V30 247 H 22.1834 2.61984 -1.40541 0
M  V30 248 H 19.7164 1.30041 -0.832387 0
M  V30 249 H 21.6744 4.05539 0.63624 0
M  V30 250 H 20.3354 2.96159 1.04635 0
M  V30 251 H 19.5284 5.03862 -0.117831 0
M  V30 252 H 19.1304 3.58556 -1.06366 0
M  V30 253 H 21.4224 6.73742 -0.712637 0
M  V30 254 H 22.3654 6.71845 -2.23673 0
M  V30 255 H 22.7734 5.56798 -0.929327 0
M  V30 256 N 22.1715 0.800033 1.35784 0
M  V30 257 C 23.1345 0.211565 2.28221 0
M  V30 258 C 24.1345 -0.59728 1.49296 0
M  V30 259 O 25.3245 -0.416721 1.69142 0
M  V30 260 C 22.4565 -0.705846 3.33513 0
M  V30 261 H 23.6495 1.02677 2.81776 0
M  V30 262 H 21.2025 0.570211 1.45528 0
M  V30 263 H 21.9375 -1.54498 2.85133 0
M  V30 264 H 21.7225 -0.127655 3.91892 0
M  V30 265 H 23.2125 -1.11211 4.02519 0
M  V30 266 N 23.6496 -1.47581 0.552962 0
M  V30 267 C 24.6126 -2.28439 -0.186605 0
M  V30 268 C 25.6126 -1.36706 -0.84665 0
M  V30 269 O 26.8026 -1.59378 -0.703164 0
M  V30 270 C 23.9346 -3.16264 -1.2724 0
M  V30 271 H 25.1276 -2.95294 0.523609 0
M  V30 272 H 22.6806 -1.532 0.309745 0
M  V30 273 H 23.4156 -2.54091 -2.01514 0
M  V30 274 H 23.2006 -3.83769 -0.803968 0
M  V30 275 H 24.6906 -3.77198 -1.79196 0
M  V30 276 N 25.1277 -0.289203 -1.54924 0
M  V30 277 C 26.3747 0.323519 -1.99899 0
M  V30 278 C 26.7027 1.54797 -1.17762 0
M  V30 279 O 25.9577 1.94237 -0.238835 0
M  V30 280 C 26.2567 0.736119 -3.49737 0
M  V30 281 C 25.9227 -0.385276 -4.49251 0
M  V30 282 C 24.5847 -0.693156 -4.76181 0
M  V30 283 C 26.9367 -1.14021 -5.08575 0
M  V30 284 C 24.2647 -1.7593 -5.59701 0
M  V30 285 C 26.6167 -2.19619 -5.93254 0
M  V30 286 C 25.2807 -2.51026 -6.185 0
M  V30 287 H 24.5507 0.118384 -0.731482 0
M  V30 288 H 27.1977 -0.405847 -1.8715 0
M  V30 289 H 25.5027 1.54539 -3.60035 0
M  V30 290 H 27.1997 1.22118 -3.81953 0
M  V30 291 H 23.7897 -0.135202 -4.28387 0
M  V30 292 H 27.9737 -0.915611 -4.87781 0
M  V30 293 H 23.2297 -2.0075 -5.77503 0
M  V30 294 H 27.4037 -2.78581 -6.38252 0
M  V30 295 H 25.0307 -3.33772 -6.83008 0
M  V30 296 N 26.6058 1.57591 -0.0167156 0
M  V30 297 C 27.8538 1.90906 0.663285 0
M  V30 298 C 28.1748 0.892509 1.73376 0
M  V30 299 O 27.4448 -0.0677623 1.95783 0
M  V30 300 H 26.0248 0.704637 0.247983 0
M  V30 301 H 28.6868 1.94803 -0.0615909 0
M  V30 302 H 27.7828 2.9116 1.12393 0
M  V30 303 N 28.0839 -0.256276 1.55502 0
M  V30 304 C 29.0469 -1.30047 1.88734 0
M  V30 305 C 30.0469 -1.4154 0.763086 0
M  V30 306 O 31.2369 -1.40403 1.03115 0
M  V30 307 C 28.3689 -2.67953 2.10747 0
M  V30 308 H 29.5619 -1.01802 2.82093 0
M  V30 309 H 27.1149 -0.495134 1.4825 0
M  V30 310 H 27.8499 -3.01351 1.19825 0
M  V30 311 H 27.6349 -2.60993 2.92617 0
M  V30 312 H 29.1249 -3.43368 2.37673 0
M  V30 313 N 29.562 -1.4872 -0.521534 0
M  V30 314 C 30.525 -1.63379 -1.60748 0
M  V30 315 C 31.525 -0.50661 -1.52611 0
M  V30 316 O 32.715 -0.772601 -1.5613 0
M  V30 317 C 29.847 -1.61192 -3.00383 0
M  V30 318 H 31.04 -2.60217 -1.49087 0
M  V30 319 H 28.593 -1.37444 -0.744235 0
M  V30 320 H 29.328 -0.65863 -3.17541 0
M  V30 321 H 29.113 -2.43032 -3.07698 0
M  V30 322 H 30.603 -1.7466 -3.7932 0
M  V30 323 N 31.0401 0.771051 -1.3745 0
M  V30 324 C 32.0031 1.86598 -1.33093 0
M  V30 325 C 33.0031 1.59076 -0.234845 0
M  V30 326 O 34.1931 1.67145 -0.490732 0
M  V30 327 C 31.3251 3.23747 -1.06773 0
M  V30 328 H 32.5181 1.91873 -2.30488 0
M  V30 329 H 30.0711 0.970876 -1.2249 0
M  V30 330 H 30.8061 3.24148 -0.099129 0
M  V30 331 H 30.5911 3.45115 -1.86112 0
M  V30 332 H 32.0811 4.03824 -1.06377 0
M  V30 333 N 32.5182 1.22032 0.997298 0
M  V30 334 C 33.4482 1.01065 2.10495 0
M  V30 335 C 34.4292 -0.0669542 1.69968 0
M  V30 336 O 35.6142 0.0943987 1.9397 0
M  V30 337 C 32.7442 0.582874 3.42374 0
M  V30 338 C 31.6982 1.60592 3.96729 0
M  V30 339 C 31.0242 1.03412 5.24605 0
M  V30 340 C 32.3242 2.99478 4.27914 0
M  V30 341 H 34.0182 1.93708 2.28292 0
M  V30 342 H 31.5642 0.932761 1.09707 0
M  V30 343 H 33.5172 0.423332 4.19268 0
M  V30 344 H 32.2412 -0.379213 3.24391 0
M  V30 345 H 30.9002 1.75316 3.21963 0
M  V30 346 H 30.5482 0.063518 5.0296 0
M  V30 347 H 30.2482 1.71754 5.61938 0
M  V30 348 H 31.7722 0.886066 6.04137 0
M  V30 349 H 33.1862 2.88153 4.95622 0
M  V30 350 H 31.5832 3.64903 4.76409 0
M  V30 351 H 32.6532 3.49742 3.3587 0
M  V30 352 N 33.9963 -1.19345 1.0293 0
M  V30 353 C 34.9593 -2.20793 0.615069 0
M  V30 354 C 35.9593 -1.57553 -0.321533 0
M  V30 355 O 37.1493 -1.73862 -0.108483 0
M  V30 356 C 34.2813 -3.40754 -0.0999222 0
M  V30 357 H 35.4743 -2.58955 1.51269 0
M  V30 358 H 33.0273 -1.3303 0.820534 0
M  V30 359 H 33.7623 -3.0811 -1.01187 0
M  V30 360 H 33.5473 -3.87889 0.57309 0
M  V30 361 H 35.0373 -4.15898 -0.376645 0
M  V30 362 N 35.4744 -0.807222 -1.35358 0
M  V30 363 C 36.7224 -0.387122 -1.98358 0
M  V30 364 C 37.0434 1.04942 -1.64354 0
M  V30 365 O 36.3134 1.72615 -0.926339 0
M  V30 366 H 34.8934 -0.140154 -0.733734 0
M  V30 367 H 37.5554 -1.0332 -1.6526 0
M  V30 368 H 36.6514 -0.493352 -3.08176 0
M  V30 369 N 36.9525 1.47285 -0.560781 0
M  V30 370 C 38.2005 2.02064 -0.0379868 0
M  V30 371 C 38.5215 1.43711 1.31803 0
M  V30 372 O 37.7915 0.61362 1.86042 0
M  V30 373 H 36.3715 0.746918 -0.0110531 0
M  V30 374 H 39.0335 1.80648 -0.731598 0
M  V30 375 H 38.1295 3.12064 0.0474463 0
M  V30 376 N 38.4306 0.297415 1.54768 0
M  V30 377 C 39.6586 -0.315623 2.04478 0
M  V30 378 C 40.0736 -1.47792 1.17486 0
M  V30 379 O 39.4306 -1.81404 0.19971 0
M  V30 380 C 39.4816 -0.7753 3.53088 0
M  V30 381 O 39.2026 0.340732 4.36773 0
M  V30 382 C 40.7036 -1.45386 4.18781 0
M  V30 383 H 37.9236 -0.0690887 0.667434 0
M  V30 384 H 40.4676 0.436003 1.99798 0
M  V30 385 H 38.6226 -1.47696 3.58141 0
M  V30 386 H 39.0366 -0.0165035 5.24497 0
M  V30 387 H 40.5106 -1.72669 5.24299 0
M  V30 388 H 40.9876 -2.39275 3.68299 0
M  V30 389 H 41.5936 -0.795475 4.17795 0
M  V30 390 N 39.9087 -1.5758 0.0250728 0
M  V30 391 C 41.1367 -1.9593 -0.664747 0
M  V30 392 C 41.5517 -0.901352 -1.65895 0
M  V30 393 O 40.9087 0.117255 -1.82123 0
M  V30 394 C 40.9597 -3.34342 -1.37468 0
M  V30 395 O 40.6807 -4.36079 -0.420324 0
M  V30 396 C 42.1817 -3.873 -2.1567 0
M  V30 397 H 39.4017 -0.645405 -0.183557 0
M  V30 398 H 41.9457 -2.04329 0.0836372 0
M  V30 399 H 40.1007 -3.27175 -2.0745 0
M  V30 400 H 40.5147 -5.16297 -0.923991 0
M  V30 401 H 41.9887 -4.86504 -2.60803 0
M  V30 402 H 42.4657 -3.21331 -2.99405 0
M  V30 403 H 43.0717 -3.97723 -1.50654 0
M  V30 404 N 41.3868 0.248026 -1.55636 0
M  V30 405 C 42.6358 0.974134 -1.76617 0
M  V30 406 C 42.9488 1.86528 -0.588796 0
M  V30 407 O 44.1548 2.62805 -0.681594 0
M  V30 408 C 42.6108 1.78213 -3.12679 0
M  V30 409 C 42.2188 0.93843 -4.38061 0
M  V30 410 C 43.9628 2.50104 -3.42999 0
M  V30 411 C 41.8698 1.74225 -5.65155 0
M  V30 412 H 40.7998 0.36745 -0.658405 0
M  V30 413 H 43.4508 0.22884 -1.82067 0
M  V30 414 H 41.8328 2.56933 -3.01333 0
M  V30 415 H 43.0068 0.193635 -4.60393 0
M  V30 416 H 41.3218 0.332905 -4.15067 0
M  V30 417 H 43.9188 3.10694 -4.3517 0
M  V30 418 H 44.2618 3.21662 -2.64271 0
M  V30 419 H 44.7948 1.78395 -3.55556 0
M  V30 420 H 41.5338 1.07043 -6.46701 0
M  V30 421 H 41.0538 2.46235 -5.46926 0
M  V30 422 H 42.7328 2.30967 -6.0437 0
M  V30 423 N 42.8649 1.48995 0.513639 0
M  V30 424 C 43.8279 1.64229 1.59879 0
M  V30 425 C 44.8279 0.514696 1.5234 0
M  V30 426 O 46.0179 0.78087 1.55718 0
M  V30 427 C 43.1499 1.62783 2.99524 0
M  V30 428 H 44.3429 2.61004 1.47705 0
M  V30 429 H 41.8959 1.37837 0.736936 0
M  V30 430 H 42.6309 0.675461 3.17188 0
M  V30 431 H 42.4159 2.4466 3.06404 0
M  V30 432 H 43.9059 1.76669 3.78388 0
M  V30 433 N 44.343 -0.763751 1.37857 0
M  V30 434 C 45.306 -1.85889 1.34081 0
M  V30 435 C 46.306 -1.58949 0.243277 0
M  V30 436 O 47.496 -1.66882 0.499589 0
M  V30 437 C 44.628 -3.23176 1.08489 0
M  V30 438 H 45.821 -1.90648 2.31502 0
M  V30 439 H 43.374 -0.964367 1.23003 0
M  V30 440 H 44.109 -3.24091 0.116318 0
M  V30 441 H 43.894 -3.44124 1.8794 0
M  V30 442 H 45.384 -4.03254 1.08517 0
M  V30 443 N 45.8211 -1.22559 -0.990812 0
M  V30 444 C 47.2321 -1.04791 -1.54518 0
M  V30 445 C 47.5831 0.387998 -1.92325 0
M  V30 446 O 46.7081 1.27328 -1.74976 0
M  V30 447 C 47.3031 -1.896 -2.80779 0
M  V30 448 C 45.8621 -1.76124 -3.32652 0
M  V30 449 C 45.0091 -1.8594 -2.05722 0
M  V30 450 H 47.9601 -1.36374 -0.811662 0
M  V30 451 H 47.9811 -1.41464 -3.53225 0
M  V30 452 H 47.4931 -2.94101 -2.53231 0
M  V30 453 H 45.5941 -0.743643 -3.65104 0
M  V30 454 H 45.7071 -2.58913 -4.03114 0
M  V30 455 H 44.0711 -1.29403 -2.19379 0
M  V30 456 H 44.8541 -2.91976 -1.80568 0
M  V30 457 N 47.2992 1.18797 -1.03562 0
M  V30 458 C 48.7152 1.40671 -0.753917 0
M  V30 459 C 48.9152 1.9043 0.658686 0
M  V30 460 O 47.9712 2.08538 1.42366 0
M  V30 461 C 49.2842 2.41192 -1.79574 0
M  V30 462 C 50.8322 2.54928 -1.81606 0
M  V30 463 C 51.3072 3.58709 -2.84766 0
M  V30 464 N 52.7982 3.66212 -2.83625 0
M  V30 465 C 53.5332 4.46225 -3.60098 0
M  V30 466 N 53.0292 5.29888 -4.46308 0
M  V30 467 N 54.8222 4.40939 -3.4861 0
M  V30 468 H 46.9732 0.848221 -1.94728 0
M  V30 469 H 49.2362 0.435081 -0.842264 0
M  V30 470 H 48.9422 2.11669 -2.80872 0
M  V30 471 H 48.8162 3.40467 -1.62365 0
M  V30 472 H 51.2032 2.83771 -0.809817 0
M  V30 473 H 51.2842 1.55784 -2.02891 0
M  V30 474 H 50.9282 3.30607 -3.85566 0
M  V30 475 H 50.8582 4.57519 -2.60737 0
M  V30 476 H 53.3492 3.06466 -2.21105 0
M  V30 477 H 53.6622 5.88078 -5.01382 0
M  V30 478 H 52.0072 5.29326 -4.50377 0
M  V30 479 H 55.1982 3.74624 -2.80668 0
M  V30 480 H 55.3712 5.03056 -4.08459 0
M  V30 481 N 48.7773 0.814389 1.34928 0
M  V30 482 C 49.7403 0.235759 2.27984 0
M  V30 483 C 50.7403 -0.581412 1.49921 0
M  V30 484 O 51.9303 -0.398758 1.69575 0
M  V30 485 C 49.0623 -0.670433 3.34242 0
M  V30 486 H 50.2553 1.05659 2.80671 0
M  V30 487 H 47.8083 0.585614 1.44915 0
M  V30 488 H 48.5433 -1.51466 2.86755 0
M  V30 489 H 48.3283 -0.0860822 3.92005 0
M  V30 490 H 49.8183 -1.06935 4.03676 0
M  V30 491 N 50.2554 -1.46986 0.568584 0
M  V30 492 C 51.2184 -2.28624 -0.162366 0
M  V30 493 C 52.2184 -1.37596 -0.832103 0
M  V30 494 O 53.4084 -1.60115 -0.68622 0
M  V30 495 C 50.5404 -3.17596 -1.23878 0
M  V30 496 H 51.7334 -2.94722 0.554899 0
M  V30 497 H 49.2864 -1.52863 0.325976 0
M  V30 498 H 50.0214 -2.56214 -1.98808 0
M  V30 499 H 49.8064 -3.846 -0.763219 0
M  V30 500 H 51.2964 -3.79078 -1.75185 0
M  V30 501 N 51.7335 -0.305618 -1.54608 0
M  V30 502 C 52.6965 0.555591 -2.22364 0
M  V30 503 C 53.6965 1.05768 -1.21119 0
M  V30 504 O 54.8865 0.952972 -1.45822 0
M  V30 505 C 52.0185 1.76974 -2.91364 0
M  V30 506 H 53.2115 -0.0364572 -2.99878 0
M  V30 507 H 50.7645 -0.0565007 -1.56198 0
M  V30 508 H 51.4995 2.40151 -2.17941 0
M  V30 509 H 51.2845 1.41732 -3.65588 0
M  V30 510 H 52.7745 2.38148 -3.43038 0
M  V30 511 N 53.2116 1.57565 -0.0334293 0
M  V30 512 C 54.1746 2.09393 0.932048 0
M  V30 513 C 55.1746 1.00986 1.25134 0
M  V30 514 O 56.3646 1.27129 1.19096 0
M  V30 515 C 53.4966 2.56338 2.2473 0
M  V30 516 H 54.6896 2.95984 0.483085 0
M  V30 517 H 52.2426 1.54819 0.21468 0
M  V30 518 H 52.9776 1.7309 2.74245 0
M  V30 519 H 52.7626 3.35542 2.02865 0
M  V30 520 H 54.2526 2.96646 2.93923 0
M  V30 521 N 54.6897 -0.239769 1.55765 0
M  V30 522 C 55.6527 -1.28038 1.90103 0
M  V30 523 C 56.6527 -1.40723 0.778055 0
M  V30 524 O 57.8427 -1.39301 1.04599 0
M  V30 525 C 54.9747 -2.65702 2.13577 0
M  V30 526 H 56.1677 -0.988048 2.83157 0
M  V30 527 H 53.7207 -0.479382 1.48767 0
M  V30 528 H 54.4557 -3.00063 1.23015 0
M  V30 529 H 54.2407 -2.57875 2.95369 0
M  V30 530 H 55.7307 -3.40828 2.41301 0
M  V30 531 N 56.1678 -1.49265 -0.50573 0
M  V30 532 C 57.1148 -1.65585 -1.6078 0
M  V30 533 C 58.0848 -0.497396 -1.58478 0
M  V30 534 O 59.2698 -0.72385 -1.76536 0
M  V30 535 C 56.4098 -1.72408 -2.98948 0
M  V30 536 C 55.5228 -2.99525 -3.11301 0
M  V30 537 C 54.6578 -2.97356 -4.40174 0
M  V30 538 C 53.6968 -4.19074 -4.46143 0
M  V30 539 N 52.8338 -4.14841 -5.66437 0
M  V30 540 H 57.6738 -2.59688 -1.46172 0
M  V30 541 H 55.2108 -1.28761 -0.711261 0
M  V30 542 H 57.1688 -1.74344 -3.79025 0
M  V30 543 H 55.7988 -0.817753 -3.1227 0
M  V30 544 H 54.8508 -3.07222 -2.24318 0
M  V30 545 H 56.1628 -3.89518 -3.11572 0
M  V30 546 H 55.3168 -2.97829 -5.28567 0
M  V30 547 H 54.0558 -2.05133 -4.42461 0
M  V30 548 H 53.0608 -4.1885 -3.56153 0
M  V30 549 H 54.2858 -5.12483 -4.45575 0
M  V30 550 H 52.2318 -3.25453 -5.69575 0
M  V30 551 H 52.1488 -4.98564 -5.68304 0
M  V30 552 H 53.4168 -4.1941 -6.57051 0
M  V30 553 N 57.6459 0.756429 -1.3826 0
M  V30 554 C 58.8709 1.55077 -1.37717 0
M  V30 555 C 59.2959 1.88073 0.03164 0
M  V30 556 O 58.6539 1.50364 1.01293 0
M  V30 557 C 58.7019 2.8283 -2.23695 0
M  V30 558 O 57.8059 3.77862 -1.6521 0
M  V30 559 H 57.1469 0.469152 -0.469885 0
M  V30 560 H 59.6769 0.935019 -1.81985 0
M  V30 561 H 59.6869 3.31783 -2.37453 0
M  V30 562 H 58.3619 2.58144 -3.2609 0
M  V30 563 H 56.9389 3.36555 -1.60578 0
M  V30 564 N 59.124 1.23083 0.984299 0
M  V30 565 C 60.087 1.00979 2.05757 0
M  V30 566 C 61.087 -0.0269573 1.60777 0
M  V30 567 O 62.277 0.212403 1.729 0
M  V30 568 C 59.409 0.527072 3.36801 0
M  V30 569 H 60.602 1.9622 2.26799 0
M  V30 570 H 58.155 1.05072 1.15714 0
M  V30 571 H 58.89 -0.429294 3.21446 0
M  V30 572 H 58.675 1.27515 3.70786 0
M  V30 573 H 60.165 0.392942 4.15747 0
M  V30 574 N 60.6021 -1.18246 1.0419 0
M  V30 575 C 61.5651 -2.20128 0.638452 0
M  V30 576 C 62.5651 -1.57885 -0.304805 0
M  V30 577 O 63.7551 -1.73967 -0.0900369 0
M  V30 578 C 60.8871 -3.4084 -0.0637751 0
M  V30 579 H 62.0801 -2.57336 1.54007 0
M  V30 580 H 59.6331 -1.32152 0.834598 0
M  V30 581 H 60.3681 -3.09166 -0.979136 0
M  V30 582 H 60.1531 -3.8726 0.614198 0
M  V30 583 H 61.6431 -4.16274 -0.332512 0
M  V30 584 N 62.0802 -0.821533 -1.34494 0
M  V30 585 C 63.3572 -0.33159 -1.92769 0
M  V30 586 C 63.7372 1.18088 -1.74981 0
M  V30 587 O 63.0852 1.98733 -1.12772 0
M  V30 588 C 63.2952 -0.759398 -3.40638 0
M  V30 589 C 64.6432 -0.757433 -4.1779 0
M  V30 590 O 65.6672 -0.70189 -3.49216 0
M  V30 591 O 64.5262 -0.829361 -5.4017 0
M  V30 592 H 61.6202 -0.0902502 -0.822061 0
M  V30 593 H 64.1662 -0.906231 -1.43477 0
M  V30 594 H 62.9382 -1.8012 -3.47379 0
M  V30 595 H 62.5612 -0.160378 -3.97276 0
M  V30 596 N 63.5583 1.46682 -0.576371 0
M  V30 597 C 64.5063 2.31953 0.17335 0
M  V30 598 C 65.5003 1.44098 0.89062 0
M  V30 599 O 66.7063 1.60759 0.809728 0
M  V30 600 H 63.0813 0.748273 0.0747727 0
M  V30 601 H 65.0523 2.93007 -0.564738 0
M  V30 602 C 63.8013 3.27142 1.17786 0
M  V30 603 H 63.1243 3.94719 0.635361 0
M  V30 604 H 64.5643 3.896 1.67296 0
M  V30 605 C 63.0233 2.52036 2.23561 0
M  V30 606 O 63.5533 2.27877 3.3081 0
M  V30 607 N 61.7593 2.12709 1.97998 0
M  V30 608 H 61.3063 2.32557 1.10792 0
M  V30 609 H 61.2643 1.62776 2.68982 0
M  V30 610 N 65.0364 0.313813 1.54444 0
M  V30 611 C 66.2844 -0.291099 1.99993 0
M  V30 612 C 66.6054 -1.53418 1.20366 0
M  V30 613 O 65.8754 -1.93544 0.302927 0
M  V30 614 H 64.4554 -0.110552 0.738774 0
M  V30 615 H 67.1174 0.428106 1.9014 0
M  V30 616 H 66.2134 -0.554268 3.07139 0
M  V30 617 N 66.5145 -1.57545 0.0417849 0
M  V30 618 C 67.7625 -1.91937 -0.632829 0
M  V30 619 C 68.0835 -0.919978 -1.71934 0
M  V30 620 O 67.3535 0.0366064 -1.95866 0
M  V30 621 H 65.9335 -0.708493 -0.236742 0
M  V30 622 H 68.5955 -1.9468 0.0925745 0
M  V30 623 H 67.6915 -2.92912 -1.07746 0
M  V30 624 N 67.9926 0.231505 -1.5589 0
M  V30 625 C 69.2226 0.973092 -1.82248 0
M  V30 626 C 69.6306 1.78845 -0.617328 0
M  V30 627 O 68.9736 1.78752 0.423499 0
M  V30 628 C 69.0356 1.94732 -3.02192 0
M  V30 629 C 68.6996 1.31743 -4.37599 0
M  V30 630 C 69.6966 0.712238 -5.14998 0
M  V30 631 C 67.3816 1.33218 -4.84312 0
M  V30 632 C 69.3756 0.130195 -6.37267 0
M  V30 633 C 67.0626 0.746286 -6.06526 0
M  V30 634 C 68.0606 0.146337 -6.82843 0
M  V30 635 O 67.7486 -0.430465 -8.02747 0
M  V30 636 H 67.4806 0.29125 -0.61004 0
M  V30 637 H 70.0346 0.254915 -2.03812 0
M  V30 638 H 68.2646 2.70422 -2.76422 0
M  V30 639 H 69.9536 2.55362 -3.15508 0
M  V30 640 H 70.7196 0.69324 -4.8002 0
M  V30 641 H 66.5986 1.78854 -4.24891 0
M  V30 642 H 70.1426 -0.33871 -6.96777 0
M  V30 643 H 66.0396 0.762663 -6.40979 0
M  V30 644 H 66.8076 -0.323818 -8.17859 0
M  V30 645 N 69.4707 1.49531 0.497807 0
M  V30 646 C 70.7167 1.59415 1.25358 0
M  V30 647 C 71.0497 0.281422 1.9215 0
M  V30 648 O 70.3247 -0.715249 1.80871 0
M  V30 649 C 70.6077 2.75566 2.3181 0
M  V30 650 C 70.4607 4.16642 1.69498 0
M  V30 651 C 71.7797 2.87347 3.33346 0
M  V30 652 H 68.8987 0.580244 0.454408 0
M  V30 653 H 71.5407 1.81827 0.551262 0
M  V30 654 H 69.6907 2.56587 2.91711 0
M  V30 655 H 71.3627 4.47145 1.13399 0
M  V30 656 H 69.6057 4.22141 0.998978 0
M  V30 657 H 70.2767 4.93792 2.46725 0
M  V30 658 H 72.7527 3.04634 2.83438 0
M  V30 659 H 71.6287 3.70289 4.05188 0
M  V30 660 H 71.8897 1.96834 3.95865 0
M  V30 661 N 70.9488 -0.749086 1.3866 0
M  V30 662 C 72.3598 -1.32664 1.31366 0
M  V30 663 C 72.7108 -1.96179 -0.028484 0
M  V30 664 O 71.8358 -1.9537 -0.93057 0
M  V30 665 C 72.4308 -2.41219 2.37905 0
M  V30 666 C 70.9898 -2.94684 2.34176 0
M  V30 667 C 70.1368 -1.68108 2.20533 0
M  V30 668 H 73.0878 -0.547628 1.48952 0
M  V30 669 H 73.1088 -3.21268 2.0388 0
M  V30 670 H 72.6208 -1.94962 3.35576 0
M  V30 671 H 70.7218 -3.45258 1.401 0
M  V30 672 H 70.8348 -3.48757 3.2849 0
M  V30 673 H 69.1988 -1.91907 1.67463 0
M  V30 674 H 69.9818 -1.23923 3.20153 0
M  V30 675 N 72.4269 -1.23603 -0.977757 0
M  V30 676 C 73.3899 -1.02069 -2.05218 0
M  V30 677 C 74.3899 0.0184305 -1.60789 0
M  V30 678 O 75.5799 -0.221569 -1.72785 0
M  V30 679 C 72.7119 -0.544926 -3.36517 0
M  V30 680 H 73.9049 -1.9742 -2.25755 0
M  V30 681 H 71.4579 -1.05684 -1.15155 0
M  V30 682 H 72.1929 0.412241 -3.21669 0
M  V30 683 H 71.9779 -1.2948 -3.70105 0
M  V30 684 H 73.4679 -0.414985 -4.15533 0
M  V30 685 N 73.905 1.17692 -1.04816 0
M  V30 686 C 75.151 1.88137 -0.75711 0
M  V30 687 C 75.484 1.80604 0.713841 0
M  V30 688 O 74.759 1.21146 1.52164 0
M  V30 689 C 75.042 3.38318 -1.2334 0
M  V30 690 C 74.895 3.54622 -2.76701 0
M  V30 691 C 76.214 4.32214 -0.829415 0
M  V30 692 H 73.333 0.683163 -0.27651 0
M  V30 693 H 75.975 1.38424 -1.30149 0
M  V30 694 H 74.125 3.80787 -0.770286 0
M  V30 695 H 75.797 3.21194 -3.31107 0
M  V30 696 H 74.04 2.97026 -3.16161 0
M  V30 697 H 74.711 4.60028 -3.05088 0
M  V30 698 H 77.187 3.97565 -1.22805 0
M  V30 699 H 76.063 5.35838 -1.19033 0
M  V30 700 H 76.324 4.41294 0.266891 0
M  V30 701 N 75.3831 0.828654 1.34056 0
M  V30 702 C 76.6291 0.42008 1.98402 0
M  V30 703 C 76.9621 -1.01564 1.65525 0
M  V30 704 O 76.2371 -1.70834 0.929831 0
M  V30 705 C 76.5201 0.62927 3.54559 0
M  V30 706 C 76.3731 2.11152 3.97159 0
M  V30 707 C 77.6921 0.0688756 4.40046 0
M  V30 708 H 74.8111 0.154104 0.720709 0
M  V30 709 H 77.4531 1.04228 1.5886 0
M  V30 710 H 75.6031 0.0996418 3.88372 0
M  V30 711 H 77.2751 2.70522 3.73651 0
M  V30 712 H 75.5181 2.59985 3.47261 0
M  V30 713 H 76.1891 2.20868 5.05887 0
M  V30 714 H 78.6651 0.521458 4.1282 0
M  V30 715 H 77.5411 0.245006 5.48353 0
M  V30 716 H 77.8021 -1.0266 4.30015 0
M  V30 717 N 76.8612 -1.46375 0.584142 0
M  V30 718 C 78.1102 -2.01585 0.0679741 0
M  V30 719 C 78.4232 -1.46109 -1.30045 0
M  V30 720 O 79.6292 -1.93148 -1.90804 0
M  V30 721 C 78.0852 -3.5983 0.0709207 0
M  V30 722 C 77.6932 -4.24303 1.43775 0
M  V30 723 C 79.4372 -4.22693 -0.391228 0
M  V30 724 C 77.3442 -5.74631 1.39834 0
M  V30 725 H 76.2742 -0.753689 0.0216421 0
M  V30 726 H 78.9252 -1.68093 0.736001 0
M  V30 727 H 77.3072 -3.90405 -0.663299 0
M  V30 728 H 78.4812 -4.05335 2.19181 0
M  V30 729 H 76.7962 -3.73539 1.84004 0
M  V30 730 H 79.3932 -5.3289 -0.439524 0
M  V30 731 H 79.7362 -3.91728 -1.40906 0
M  V30 732 H 80.2692 -3.96749 0.288974 0
M  V30 733 H 77.0082 -6.10258 2.39303 0
M  V30 734 H 76.5282 -5.95858 0.686505 0
M  V30 735 H 78.2072 -6.37375 1.11187 0
M  V30 736 N 78.3393 -0.321999 -1.54275 0
M  V30 737 C 79.5873 0.280489 -2.00144 0
M  V30 738 C 79.9083 1.52777 -1.21178 0
M  V30 739 O 79.1783 1.9338 -0.313187 0
M  V30 740 H 77.7583 0.106632 -0.73935 0
M  V30 741 H 80.4203 -0.438184 -1.8991 0
M  V30 742 H 79.5163 0.537972 -3.07428 0
M  V30 743 N 79.8174 1.5752 -0.0501392 0
M  V30 744 C 81.0454 1.96963 0.633492 0
M  V30 745 C 81.4604 0.927631 1.6444 0
M  V30 746 O 80.8174 -0.0882665 1.82286 0
M  V30 747 C 80.8684 3.36487 1.32132 0
M  V30 748 O 80.5894 4.36693 0.350894 0
M  V30 749 C 82.0904 3.90682 2.09481 0
M  V30 750 H 79.3104 0.648244 0.173266 0
M  V30 751 H 81.8544 2.0417 -0.116134 0
M  V30 752 H 80.0094 3.30434 2.02218 0
M  V30 753 H 80.4234 5.17702 0.841735 0
M  V30 754 H 81.8974 4.90591 2.5303 0
M  V30 755 H 82.3744 3.26053 2.94255 0
M  V30 756 H 82.9804 4.00069 1.44307 0
M  V30 757 N 81.2955 -0.223234 1.56011 0
M  V30 758 C 82.5435 -0.946003 1.78592 0
M  V30 759 C 82.8645 -1.84936 0.618349 0
M  V30 760 O 82.1345 -1.92473 -0.364833 0
M  V30 761 H 80.7145 -0.352298 0.658707 0
M  V30 762 H 83.3765 -0.235494 1.93472 0
M  V30 763 H 82.4725 -1.55381 2.70672 0
M  V30 764 N 82.7736 -1.49793 -0.48987 0
M  V30 765 C 84.0036 -1.6333 -1.26518 0
M  V30 766 C 84.4116 -0.308392 -1.8667 0
M  V30 767 O 83.7546 0.717512 -1.69108 0
M  V30 768 C 83.8166 -2.6522 -2.4269 0
M  V30 769 C 83.4806 -4.09279 -2.03321 0
M  V30 770 C 84.4776 -4.95738 -1.56652 0
M  V30 771 C 82.1626 -4.55082 -2.12616 0
M  V30 772 C 84.1566 -6.26041 -1.19795 0
M  V30 773 C 81.8436 -5.85396 -1.75371 0
M  V30 774 C 82.8416 -6.707 -1.29036 0
M  V30 775 O 82.5296 -7.98584 -0.92299 0
M  V30 776 H 82.2616 -0.552502 -0.389509 0
M  V30 777 H 84.8156 -1.96642 -0.593381 0
M  V30 778 H 83.0456 -2.27112 -3.12981 0
M  V30 779 H 84.7346 -2.68171 -3.04695 0
M  V30 780 H 85.5006 -4.61575 -1.48908 0
M  V30 781 H 81.3796 -3.88844 -2.47631 0
M  V30 782 H 84.9236 -6.92578 -0.835582 0
M  V30 783 H 80.8206 -6.19085 -1.82768 0
M  V30 784 H 81.5886 -8.11692 -1.05349 0
M  V30 785 N 84.2517 0.741722 -1.39055 0
M  V30 786 C 85.4997 1.49818 -1.35643 0
M  V30 787 C 85.8207 1.94938 0.0491642 0
M  V30 788 O 85.0907 1.68505 0.999141 0
M  V30 789 H 83.6707 0.555755 -0.499144 0
M  V30 790 H 86.3327 0.880957 -1.73854 0
M  V30 791 H 85.4287 2.38348 -2.01486 0
M  V30 792 N 85.7298 1.2412 0.971189 0
M  V30 793 C 86.6928 1.03156 2.04674 0
M  V30 794 C 87.6928 -0.00990322 1.60797 0
M  V30 795 O 88.8828 0.230729 1.72665 0
M  V30 796 C 86.0148 0.562765 3.36223 0
M  V30 797 H 87.2078 1.98614 2.24705 0
M  V30 798 H 84.7608 1.06293 1.14593 0
M  V30 799 H 85.4958 -0.395176 3.21883 0
M  V30 800 H 85.2808 1.31441 3.69413 0
M  V30 801 H 86.7708 0.437015 4.15307 0
M  V30 802 N 87.2079 -1.17134 1.05439 0
M  V30 803 C 88.1709 -2.19439 0.661764 0
M  V30 804 C 89.1709 -1.58199 -0.288042 0
M  V30 805 O 90.3609 -1.74053 -0.0715803 0
M  V30 806 C 87.4929 -3.40889 -0.0276209 0
M  V30 807 H 88.6859 -2.55688 1.56728 0
M  V30 808 H 86.2389 -1.31259 0.848567 0
M  V30 809 H 86.9739 -3.10187 -0.94629 0
M  V30 810 H 86.7589 -3.86586 0.655238 0
M  V30 811 H 88.2489 -4.16603 -0.288342 0
M  V30 812 N 88.686 -0.835752 -1.33615 0
M  V30 813 C 89.932 -0.430596 -1.98176 0
M  V30 814 C 90.265 1.00684 -1.66061 0
M  V30 815 O 89.54 1.70339 -0.938877 0
M  V30 816 C 89.823 -0.648065 -3.5422 0
M  V30 817 C 89.676 -2.13255 -3.96033 0
M  V30 818 C 90.995 -0.0922113 -4.40003 0
M  V30 819 H 88.114 -0.157924 -0.719881 0
M  V30 820 H 90.756 -1.05069 -1.58305 0
M  V30 821 H 88.906 -0.120237 -3.88314 0
M  V30 822 H 90.578 -2.725 -3.72211 0
M  V30 823 H 88.821 -2.61823 -3.45878 0
M  V30 824 H 89.492 -2.23547 -5.04708 0
M  V30 825 H 91.968 -0.543343 -4.12537 0
M  V30 826 H 90.844 -0.274083 -5.48215 0
M  V30 827 H 91.105 1.00378 -4.30554 0
M  V30 828 N 90.1641 1.46063 -0.591896 0
M  V30 829 C 91.3891 2.07226 -0.0850314 0
M  V30 830 C 91.8141 1.43625 1.21463 0
M  V30 831 O 91.1721 0.523305 1.73583 0
M  V30 832 C 91.2201 3.60554 0.0576567 0
M  V30 833 O 90.3241 3.97128 1.11188 0
M  V30 834 H 89.6651 0.660615 -0.0669568 0
M  V30 835 H 92.1951 1.8756 -0.81745 0
M  V30 836 H 92.2051 4.07165 0.2609 0
M  V30 837 H 90.8801 4.06235 -0.891416 0
M  V30 838 H 89.4571 3.62213 0.886356 0
M  V30 839 N 91.6422 0.330177 1.54103 0
M  V30 840 C 92.6052 -0.520144 2.2322 0
M  V30 841 C 93.6052 -1.03828 1.22786 0
M  V30 842 O 94.7952 -0.929652 1.4732 0
M  V30 843 C 91.9272 -1.72317 2.94142 0
M  V30 844 H 93.1202 0.0841605 2.99782 0
M  V30 845 H 90.6732 0.0813433 1.56088 0
M  V30 846 H 91.4082 -2.36653 2.21734 0
M  V30 847 H 91.1932 -1.35898 3.67796 0
M  V30 848 H 92.6832 -2.3266 3.46784 0
M  V30 849 N 93.1203 -1.57491 0.0584922 0
M  V30 850 C 94.0503 -2.14988 -0.911178 0
M  V30 851 C 95.0313 -1.07343 -1.31952 0
M  V30 852 O 96.2163 -1.35318 -1.39294 0
M  V30 853 C 93.3463 -2.70078 -2.18347 0
M  V30 854 C 92.3003 -3.82771 -1.91495 0
M  V30 855 C 91.6263 -4.24408 -3.25241 0
M  V30 856 C 92.9263 -5.07592 -1.23075 0
M  V30 857 H 94.6203 -2.96263 -0.432246 0
M  V30 858 H 92.1663 -1.42512 -0.206469 0
M  V30 859 H 94.1193 -3.08943 -2.86587 0
M  V30 860 H 92.8433 -1.86005 -2.68458 0
M  V30 861 H 91.5023 -3.44389 -1.25664 0
M  V30 862 H 91.1503 -3.37275 -3.73168 0
M  V30 863 H 90.8503 -5.00366 -3.08071 0
M  V30 864 H 92.3743 -4.65879 -3.94701 0
M  V30 865 H 93.7883 -5.43857 -1.81362 0
M  V30 866 H 92.1853 -5.88741 -1.16207 0
M  V30 867 H 93.2553 -4.84454 -0.207847 0
M  V30 868 N 94.5984 0.214957 -1.56127 0
M  V30 869 C 96.0144 0.564948 -1.49267 0
M  V30 870 C 96.2144 1.86827 -0.754838 0
M  V30 871 O 95.2704 2.50745 -0.297198 0
M  V30 872 C 96.5834 0.638071 -2.93852 0
M  V30 873 C 98.1314 0.728253 -3.0441 0
M  V30 874 C 98.6064 0.832663 -4.50367 0
M  V30 875 N 100.097 0.896712 -4.54437 0
M  V30 876 C 100.832 0.997324 -5.6466 0
M  V30 877 N 100.328 1.06147 -6.8462 0
M  V30 878 N 102.121 1.03297 -5.52527 0
M  V30 879 H 94.2724 -0.640211 -2.02522 0
M  V30 880 H 96.5354 -0.225507 -0.920788 0
M  V30 881 H 96.2414 -0.250126 -3.50809 0
M  V30 882 H 96.1154 1.49947 -3.46115 0
M  V30 883 H 98.5024 1.60689 -2.47514 0
M  V30 884 H 98.5834 -0.158952 -2.55306 0
M  V30 885 H 98.2274 -0.0415417 -5.07883 0
M  V30 886 H 98.1574 1.73538 -4.97184 0
M  V30 887 H 100.648 0.857188 -3.6805 0
M  V30 888 H 100.961 1.1382 -7.64372 0
M  V30 889 H 99.3064 1.03049 -6.87318 0
M  V30 890 H 102.497 0.979558 -4.57736 0
M  V30 891 H 102.67 1.10793 -6.38458 0
M  V30 892 N 96.0765 1.50051 0.48192 0
M  V30 893 C 97.0065 1.71046 1.58951 0
M  V30 894 C 97.9875 0.559288 1.60642 0
M  V30 895 O 99.1725 0.797243 1.77081 0
M  V30 896 C 96.3025 1.79462 2.97339 0
M  V30 897 C 95.2565 2.94558 3.10515 0
M  V30 898 C 94.5825 2.88105 4.50444 0
M  V30 899 C 95.8825 4.35227 2.88747 0
M  V30 900 H 97.5765 2.6378 1.41635 0
M  V30 901 H 95.1225 1.26936 0.679942 0
M  V30 902 H 97.0755 1.92734 3.74742 0
M  V30 903 H 95.7995 0.833412 3.15788 0
M  V30 904 H 94.4585 2.80918 2.35543 0
M  V30 905 H 94.1065 1.89853 4.65795 0
M  V30 906 H 93.8065 3.65366 4.60197 0
M  V30 907 H 95.3305 3.03412 5.29881 0
M  V30 908 H 96.7445 4.49449 3.55905 0
M  V30 909 H 95.1415 5.13856 3.09955 0
M  V30 910 H 96.2115 4.48347 1.84696 0
M  V30 911 N 97.5546 -0.734337 1.39446 0
M  V30 912 C 98.8026 -1.49096 1.36436 0
M  V30 913 C 99.1236 -1.94961 -0.0388255 0
M  V30 914 O 98.3936 -1.69033 -0.990191 0
M  V30 915 H 96.9736 -0.5531 0.502085 0
M  V30 916 H 99.6356 -0.871725 1.74319 0
M  V30 917 H 98.7316 -2.37276 2.02747 0
M  V30 918 N 99.0327 -1.24633 -0.964593 0
M  V30 919 C 99.9427 -1.05859 -2.09359 0
M  V30 920 C 100.959 0.00148855 -1.74 0
M  V30 921 O 102.135 -0.197346 -2.00431 0
M  V30 922 C 99.1997 -0.668879 -3.40187 0
M  V30 923 C 98.2607 -1.80578 -3.89474 0
M  V30 924 C 97.4937 -1.43457 -5.14058 0
M  V30 925 O 97.7167 -0.325775 -5.69469 0
M  V30 926 O 96.6507 -2.2613 -5.57807 0
M  V30 927 H 100.477 -2.00516 -2.28094 0
M  V30 928 H 98.0617 -1.03481 -1.0776 0
M  V30 929 H 99.9437 -0.463211 -4.18846 0
M  V30 930 H 98.6187 0.248536 -3.22744 0
M  V30 931 H 97.5257 -2.06623 -3.11862 0
M  V30 932 H 98.8587 -2.70208 -4.11398 0
M  V30 933 N 100.511 1.16574 -1.06058 0
M  V30 934 C 101.474 2.19085 -0.673392 0
M  V30 935 C 102.474 1.5835 0.279648 0
M  V30 936 O 103.664 1.74088 0.0623488 0
M  V30 937 C 100.796 3.40899 0.00954234 0
M  V30 938 H 101.989 2.54853 -1.58081 0
M  V30 939 H 99.5418 1.30808 -0.855516 0
M  V30 940 H 100.277 3.10684 0.929826 0
M  V30 941 H 100.062 3.86233 -0.67573 0
M  V30 942 H 101.552 4.1675 0.266245 0
M  V30 943 N 101.989 0.842826 1.3317 0
M  V30 944 C 103.237 0.439577 1.97262 0
M  V30 945 C 103.558 -1.00548 1.67078 0
M  V30 946 O 102.828 -1.70098 0.971779 0
M  V30 947 H 101.408 0.159558 0.72976 0
M  V30 948 H 104.07 1.07665 1.62463 0
M  V30 949 H 103.166 0.574886 3.0676 0
M  V30 950 N 103.467 -1.45747 0.599634 0
M  V30 951 C 104.713 -2.02592 0.0918643 0
M  V30 952 C 105.046 -1.46806 -1.27128 0
M  V30 953 O 104.321 -0.639658 -1.83681 0
M  V30 954 C 104.604 -3.60073 0.0443398 0
M  V30 955 C 104.457 -4.26208 1.43759 0
M  V30 956 C 105.776 -4.35309 -0.647608 0
M  V30 957 H 102.895 -0.736175 0.034857 0
M  V30 958 H 105.537 -1.73694 0.770081 0
M  V30 959 H 103.687 -3.84823 -0.533224 0
M  V30 960 H 105.359 -4.12668 2.06162 0
M  V30 961 H 103.602 -3.84916 2.00056 0
M  V30 962 H 104.273 -5.35069 1.35665 0
M  V30 963 H 106.749 -4.15805 -0.156776 0
M  V30 964 H 105.625 -5.45038 -0.649942 0
M  V30 965 H 105.886 -4.07598 -1.71219 0
M  V30 966 N 104.945 -0.338344 -1.53925 0
M  V30 967 C 105.877 0.555117 -2.22376 0
M  V30 968 C 106.89 1.06812 -1.22862 0
M  V30 969 O 108.079 0.979163 -1.49247 0
M  V30 970 C 105.179 1.77609 -2.88631 0
M  V30 971 C 104.352 1.39927 -4.14414 0
M  V30 972 C 103.411 2.47936 -4.64127 0
M  V30 973 O 102.437 2.11461 -5.28463 0
M  V30 974 N 103.639 3.79107 -4.39612 0
M  V30 975 H 106.404 -0.0310778 -2.99684 0
M  V30 976 H 103.965 -0.162226 -1.61085 0
M  V30 977 H 105.957 2.49287 -3.18807 0
M  V30 978 H 104.527 2.26978 -2.14941 0
M  V30 979 H 103.747 0.513481 -3.90841 0
M  V30 980 H 105.035 1.12341 -4.96243 0
M  V30 981 H 104.433 4.11531 -3.88148 0
M  V30 982 H 102.99 4.4697 -4.74406 0
M  V30 983 N 106.423 1.57458 -0.0668435 0
M  V30 984 C 107.651 1.97624 0.612565 0
M  V30 985 C 108.066 0.94502 1.63447 0
M  V30 986 O 107.423 -0.0689276 1.8237 0
M  V30 987 C 107.474 3.37869 1.28555 0
M  V30 988 O 107.195 4.3704 0.304557 0
M  V30 989 C 108.696 3.92882 2.05325 0
M  V30 990 H 105.916 0.650045 0.166381 0
M  V30 991 H 108.46 2.04035 -0.137782 0
M  V30 992 H 106.615 3.3256 1.98702 0
M  V30 993 H 107.029 5.18565 0.786779 0
M  V30 994 H 108.503 4.93247 2.47812 0
M  V30 995 H 108.98 3.29156 2.9078 0
M  V30 996 H 109.586 4.01577 1.40056 0
M  V30 997 N 107.901 -0.206675 1.56239 0
M  V30 998 C 108.831 -1.25909 1.96645 0
M  V30 999 C 109.812 -1.48097 0.836734 0
M  V30 1000 O 110.997 -1.6003 1.10019 0
M  V30 1001 C 108.127 -2.6058 2.29599 0
M  V30 1002 C 107.081 -2.53024 3.452 0
M  V30 1003 C 106.407 -3.91861 3.63798 0
M  V30 1004 C 107.707 -2.06524 4.79734 0
M  V30 1005 H 109.401 -0.923369 2.84806 0
M  V30 1006 H 106.947 -0.442735 1.37025 0
M  V30 1007 H 108.9 -3.34375 2.56459 0
M  V30 1008 H 107.624 -2.95869 1.38307 0
M  V30 1009 H 106.283 -1.81684 3.18412 0
M  V30 1010 H 105.931 -4.24483 2.69857 0
M  V30 1011 H 105.631 -3.87683 4.4156 0
M  V30 1012 H 107.155 -4.67296 3.93022 0
M  V30 1013 H 108.569 -2.70072 5.05702 0
M  V30 1014 H 106.966 -2.13374 5.60885 0
M  V30 1015 H 108.036 -1.01802 4.74093 0
M  V30 1016 N 109.379 -1.50304 -0.473955 0
M  V30 1017 C 110.312 -1.63595 -1.59097 0
M  V30 1018 C 111.29 -0.484142 -1.55225 0
M  V30 1019 O 112.474 -0.703271 -1.7489 0
M  V30 1020 C 109.601 -1.61589 -2.97669 0
M  V30 1021 C 108.647 -2.82295 -3.19705 0
M  V30 1022 S 109.48 -4.43635 -2.99913 0
M  V30 1023 C 110.636 -4.44317 -4.40832 0
M  V30 1024 H 110.869 -2.58082 -1.47583 0
M  V30 1025 H 108.402 -1.39531 -0.661087 0
M  V30 1026 H 110.36 -1.61116 -3.7756 0
M  V30 1027 H 109.021 -0.683421 -3.06575 0
M  V30 1028 H 108.214 -2.77188 -4.20931 0
M  V30 1029 H 107.816 -2.8032 -2.47582 0
M  V30 1030 H 110.108 -4.17703 -5.33414 0
M  V30 1031 H 111.051 -5.45911 -4.50984 0
M  V30 1032 H 111.459 -3.74059 -4.22777 0
M  V30 1033 N 110.857 0.726932 -1.39834 0
M  V30 1034 C 111.787 1.85405 -1.41941 0
M  V30 1035 C 112.768 1.67751 -0.281728 0
M  V30 1036 O 113.953 1.8795 -0.488717 0
M  V30 1037 C 111.083 3.23243 -1.2701 0
M  V30 1038 C 110.037 3.55549 -2.38262 0
M  V30 1039 C 109.363 4.9241 -2.08415 0
M  V30 1040 C 110.663 3.577 -3.80589 0
M  V30 1041 H 112.357 1.83899 -2.36266 0
M  V30 1042 H 109.903 0.883349 -1.13723 0
M  V30 1043 H 111.856 4.01775 -1.27103 0
M  V30 1044 H 110.58 3.25296 -0.291564 0
M  V30 1045 H 109.239 2.79351 -2.37399 0
M  V30 1046 H 108.887 4.91052 -1.0898 0
M  V30 1047 H 108.587 5.14992 -2.82943 0
M  V30 1048 H 110.111 5.73289 -2.10171 0
M  V30 1049 H 111.525 4.26293 -3.83337 0
M  V30 1050 H 109.922 3.91804 -4.54543 0
M  V30 1051 H 110.992 2.57328 -4.10987 0
M  V30 1052 N 112.336 1.25143 0.95797 0
M  V30 1053 C 113.246 1.06968 2.08794 0
M  V30 1054 C 114.262 0.00773911 1.73998 0
M  V30 1055 O 115.438 0.207972 2.00323 0
M  V30 1056 C 112.503 0.68691 3.39827 0
M  V30 1057 C 111.564 1.82641 3.88511 0
M  V30 1058 C 110.797 1.46181 5.1329 0
M  V30 1059 O 111.02 0.355971 5.69288 0
M  V30 1060 O 109.954 2.29085 5.566 0
M  V30 1061 H 113.78 2.01723 2.27027 0
M  V30 1062 H 111.365 1.04051 1.07209 0
M  V30 1063 H 113.247 0.485417 4.18595 0
M  V30 1064 H 111.922 -0.231417 3.22872 0
M  V30 1065 H 110.829 2.08274 3.10762 0
M  V30 1066 H 112.162 2.72386 4.09959 0
M  V30 1067 N 113.814 -1.1601 1.06675 0
M  V30 1068 C 114.747 -2.1947 0.625168 0
M  V30 1069 C 115.725 -1.58699 -0.354041 0
M  V30 1070 O 116.909 -1.86669 -0.262098 0
M  V30 1071 C 114.036 -3.38598 -0.0829593 0
M  V30 1072 C 113.082 -4.1787 0.853611 0
M  V30 1073 S 113.915 -4.81135 2.35094 0
M  V30 1074 C 115.071 -6.03639 1.65441 0
M  V30 1075 H 115.304 -2.56587 1.50168 0
M  V30 1076 H 112.837 -1.26862 0.880078 0
M  V30 1077 H 114.795 -4.07621 -0.485288 0
M  V30 1078 H 113.456 -2.99839 -0.935716 0
M  V30 1079 H 112.649 -5.03078 0.304755 0
M  V30 1080 H 112.251 -3.54361 1.196 0
M  V30 1081 H 114.543 -6.70632 0.962201 0
M  V30 1082 H 115.486 -6.63081 2.48454 0
M  V30 1083 H 115.894 -5.52965 1.13534 0
M  V30 1084 N 115.292 -0.849877 -1.32721 0
M  V30 1085 C 116.54 -0.450032 -1.97026 0
M  V30 1086 C 116.861 0.996604 -1.67609 0
M  V30 1087 O 116.131 1.6958 -0.980786 0
M  V30 1088 H 114.711 -0.163426 -0.728904 0
M  V30 1089 H 117.373 -1.08526 -1.6189 0
M  V30 1090 H 116.469 -0.591146 -3.0645 0
M  V30 1091 N 116.77 1.45427 -0.607355 0
M  V30 1092 C 117.702 2.2871 0.149752 0
M  V30 1093 C 118.715 1.39937 0.831958 0
M  V30 1094 O 119.904 1.64313 0.697385 0
M  V30 1095 C 117.004 3.15673 1.23304 0
M  V30 1096 C 116.177 4.32722 0.637996 0
M  V30 1097 C 115.236 5.00895 1.61215 0
M  V30 1098 O 114.262 5.57697 1.13854 0
M  V30 1099 N 115.464 5.00159 2.94655 0
M  V30 1100 H 118.229 2.94328 -0.564882 0
M  V30 1101 H 115.79 1.55612 -0.446823 0
M  V30 1102 H 117.782 3.58144 1.88454 0
M  V30 1103 H 116.352 2.51965 1.8502 0
M  V30 1104 H 115.572 3.93734 -0.191572 0
M  V30 1105 H 116.86 5.08321 0.220665 0
M  V30 1106 H 116.258 4.553 3.35735 0
M  V30 1107 H 114.815 5.46495 3.55228 0
M  V30 1108 N 118.248 0.346503 1.53744 0
M  V30 1109 C 119.178 -0.501193 2.28058 0
M  V30 1110 C 120.159 -1.10014 1.29734 0
M  V30 1111 O 121.344 -1.12097 1.58581 0
M  V30 1112 C 118.474 -1.65078 3.05559 0
M  V30 1113 C 117.428 -1.18003 4.11411 0
M  V30 1114 C 116.754 -2.41837 4.76884 0
M  V30 1115 C 118.054 -0.278394 5.21558 0
M  V30 1116 H 119.748 0.11875 2.99164 0
M  V30 1117 H 117.294 0.0585531 1.43881 0
M  V30 1118 H 119.247 -2.25028 3.56287 0
M  V30 1119 H 117.971 -2.29767 2.32109 0
M  V30 1120 H 116.63 -0.603331 3.61601 0
M  V30 1121 H 116.278 -3.0494 4.00026 0
M  V30 1122 H 115.978 -2.1102 5.48402 0
M  V30 1123 H 117.502 -3.02508 5.30397 0
M  V30 1124 H 118.916 -0.784823 5.67903 0
M  V30 1125 H 117.313 -0.0619707 6.00068 0
M  V30 1126 H 118.383 0.684677 4.80042 0
M  V30 1127 N 119.726 -1.57421 0.075193 0
M  V30 1128 C 120.972 -1.94716 -0.587998 0
M  V30 1129 C 121.327 -0.955205 -1.67014 0
M  V30 1130 O 120.62 0.0219842 -1.91587 0
M  V30 1131 C 120.814 -3.36428 -1.20626 0
M  V30 1132 C 120.643 -4.49317 -0.185541 0
M  V30 1133 C 119.413 -5.04772 0.23099 0
M  V30 1134 C 121.611 -5.11036 0.57854 0
M  V30 1135 N 119.593 -6.01204 1.24206 0
M  V30 1136 C 120.964 -6.02998 1.44199 0
M  V30 1137 C 123.019 -4.93844 0.634237 0
M  V30 1138 C 121.722 -6.79614 2.3562 0
M  V30 1139 C 123.748 -5.71106 1.53597 0
M  V30 1140 C 123.11 -6.6272 2.38709 0
M  V30 1141 H 119.209 -0.759536 -0.186089 0
M  V30 1142 H 121.793 -1.94097 0.153128 0
M  V30 1143 H 119.964 -3.37778 -1.9173 0
M  V30 1144 H 121.696 -3.60951 -1.8302 0
M  V30 1145 H 118.451 -4.73353 -0.152807 0
M  V30 1146 H 118.875 -6.54119 1.74521 0
M  V30 1147 H 123.517 -4.22799 -0.00960004 0
M  V30 1148 H 121.235 -7.49934 3.01038 0
M  V30 1149 H 124.821 -5.59824 1.58394 0
M  V30 1150 H 123.701 -7.2146 3.07352 0
M  V30 1151 N 121.204 0.198386 -1.56346 0
M  V30 1152 C 122.152 1.26538 -1.95169 0
M  V30 1153 C 123.146 1.47295 -0.836685 0
M  V30 1154 O 124.352 1.48195 -1.02167 0
M  V30 1155 H 120.727 0.424744 -0.620561 0
M  V30 1156 H 122.698 0.910904 -2.84157 0
M  V30 1157 C 121.447 2.6035 -2.30463 0
M  V30 1158 H 120.77 2.45192 -3.15786 0
M  V30 1159 H 122.21 3.33762 -2.61494 0
M  V30 1160 C 120.669 3.17096 -1.13806 0
M  V30 1161 O 121.199 3.99588 -0.41135 0
M  V30 1162 N 119.405 2.75795 -0.915736 0
M  V30 1163 H 118.952 2.08816 -1.50843 0
M  V30 1164 H 118.91 3.14101 -0.136979 0
M  V30 1165 N 122.682 1.50554 0.465978 0
M  V30 1166 C 123.614 1.65949 1.58093 0
M  V30 1167 C 124.627 0.540827 1.53554 0
M  V30 1168 O 125.816 0.814187 1.5885 0
M  V30 1169 C 122.916 1.63261 2.96983 0
M  V30 1170 C 122.089 2.91245 3.26336 0
M  V30 1171 C 121.148 2.8113 4.44806 0
M  V30 1172 O 120.174 3.55086 4.44862 0
M  V30 1173 N 121.376 1.95032 5.46756 0
M  V30 1174 H 124.141 2.62122 1.45301 0
M  V30 1175 H 121.702 1.48082 0.65448 0
M  V30 1176 H 123.694 1.54101 3.74212 0
M  V30 1177 H 122.264 0.748032 3.03518 0
M  V30 1178 H 121.484 3.14493 2.37672 0
M  V30 1179 H 122.772 3.76022 3.42761 0
M  V30 1180 H 122.17 1.3427 5.49534 0
M  V30 1181 H 120.727 1.91772 6.2295 0
M  V30 1182 N 124.16 -0.719506 1.40217 0
M  V30 1183 C 125.571 -1.29848 1.34151 0
M  V30 1184 C 125.922 -1.96196 0.0131349 0
M  V30 1185 O 125.047 -1.973 -0.88892 0
M  V30 1186 C 125.642 -2.36118 2.42968 0
M  V30 1187 C 124.201 -2.8965 2.40374 0
M  V30 1188 C 123.348 -1.63393 2.24049 0
M  V30 1189 H 126.299 -0.51591 1.5008 0
M  V30 1190 H 126.32 -3.16871 2.10649 0
M  V30 1191 H 125.832 -1.878 3.39636 0
M  V30 1192 H 123.933 -3.42208 1.47392 0
M  V30 1193 H 124.046 -3.4171 3.35814 0
M  V30 1194 H 122.41 -1.88312 1.71495 0
M  V30 1195 H 123.193 -1.17104 3.2271 0
M  V30 1196 N 125.638 -1.25649 -0.95132 0
M  V30 1197 C 126.886 -1.10375 -1.69298 0
M  V30 1198 C 127.207 0.355339 -1.91735 0
M  V30 1199 O 126.477 1.25188 -1.50681 0
M  V30 1200 H 125.057 -0.405461 -0.627384 0
M  V30 1201 H 127.719 -1.57823 -1.14358 0
M  V30 1202 H 126.815 -1.61465 -2.67087 0
M  V30 1203 N 127.117 1.15442 -1.07289 0
M  V30 1204 C 128.528 1.67803 -0.818475 0
M  V30 1205 C 128.879 1.8489 0.656507 0
M  V30 1206 O 128.004 1.55176 1.50829 0
M  V30 1207 C 128.599 3.04805 -1.47917 0
M  V30 1208 C 127.158 3.54245 -1.27229 0
M  V30 1209 C 126.305 2.29986 -1.54925 0
M  V30 1210 H 129.256 0.996646 -1.23502 0
M  V30 1211 H 129.277 3.69702 -0.90005 0
M  V30 1212 H 128.789 2.92336 -2.55267 0
M  V30 1213 H 126.89 3.71956 -0.21899 0
M  V30 1214 H 127.003 4.35723 -1.99203 0
M  V30 1215 H 125.367 2.35496 -0.970242 0
M  V30 1216 H 126.15 2.20105 -2.63455 0
M  V30 1217 N 128.595 0.856903 1.32268 0
M  V30 1218 C 129.872 0.382583 1.91822 0
M  V30 1219 C 130.252 -1.13407 1.78051 0
M  V30 1220 O 129.6 -1.95673 1.18001 0
M  V30 1221 C 129.81 0.849446 3.38505 0
M  V30 1222 C 131.158 0.867936 4.15634 0
M  V30 1223 O 132.182 0.794232 3.47232 0
M  V30 1224 O 131.041 0.972286 5.37781 0
M  V30 1225 H 128.135 0.112014 0.819379 0
M  V30 1226 H 130.681 0.943952 1.41024 0
M  V30 1227 H 129.453 1.89267 3.42482 0
M  V30 1228 H 129.076 0.265652 3.96712 0
M  V30 1229 N 130.073 -1.45103 0.615059 0
M  V30 1230 C 131.321 -2.01784 0.112955 0
M  V30 1231 C 131.642 -1.48504 -1.26378 0
M  V30 1232 O 130.912 -0.682245 -1.83636 0
M  V30 1233 H 129.492 -0.745993 0.0387668 0
M  V30 1234 H 132.154 -1.77808 0.798141 0
M  V30 1235 H 131.25 -3.12025 0.0684069 0
M  V30 1236 N 131.551 -0.354651 -1.53558 0
M  V30 1237 C 132.499 0.512195 -2.26891 0
M  V30 1238 C 133.493 1.09263 -1.29452 0
M  V30 1239 O 134.699 1.03709 -1.47121 0
M  V30 1240 H 131.074 0.183878 -0.729173 0
M  V30 1241 H 133.045 -0.128202 -2.98124 0
M  V30 1242 C 131.794 1.64563 -3.06291 0
M  V30 1243 H 131.117 1.20829 -3.81104 0
M  V30 1244 H 132.557 2.22711 -3.60799 0
M  V30 1245 C 131.016 2.58158 -2.16462 0
M  V30 1246 O 131.546 3.60695 -1.76811 0
M  V30 1247 N 129.752 2.27096 -1.81317 0
M  V30 1248 H 129.299 1.43751 -2.1376 0
M  V30 1249 H 129.257 2.89975 -1.21498 0
M  V30 1250 N 133.029 1.57378 -0.0835403 0
M  V30 1251 C 134.278 1.93106 0.582498 0
M  V30 1252 C 134.591 0.96651 1.70053 0
M  V30 1253 O 135.797 1.21705 2.42693 0
M  V30 1254 C 134.253 3.43076 1.08751 0
M  V30 1255 C 133.861 4.48 -0.000146404 0
M  V30 1256 C 135.605 3.87785 1.72694 0
M  V30 1257 C 133.512 5.89113 0.519568 0
M  V30 1258 H 132.442 0.720775 0.221358 0
M  V30 1259 H 135.093 1.82821 -0.157675 0
M  V30 1260 H 133.475 3.48474 1.88101 0
M  V30 1261 H 134.649 4.54233 -0.775199 0
M  V30 1262 H 132.964 4.1283 -0.54406 0
M  V30 1263 H 135.561 4.90604 2.1263 0
M  V30 1264 H 135.904 3.25796 2.59158 0
M  V30 1265 H 136.437 3.8504 0.999457 0
M  V30 1266 H 133.176 6.54775 -0.308186 0
M  V30 1267 H 132.696 5.86376 1.26188 0
M  V30 1268 H 134.375 6.39346 0.992237 0
M  V30 1269 N 134.507 -0.190092 1.56449 0
M  V30 1270 C 135.754 -0.909705 1.80916 0
M  V30 1271 C 136.082 -1.83047 0.657583 0
M  V30 1272 O 135.337 -1.92428 -0.356356 0
M  V30 1273 C 135.636 -1.75382 3.1141 0
M  V30 1274 C 135.302 -0.983606 4.40041 0
M  V30 1275 C 133.964 -0.770967 4.74984 0
M  V30 1276 C 136.316 -0.442024 5.19322 0
M  V30 1277 C 133.644 -0.0053448 5.867 0
M  V30 1278 C 135.996 0.310412 6.31838 0
M  V30 1279 C 134.66 0.534023 6.6536 0
M  V30 1280 H 133.93 -0.332885 0.662019 0
M  V30 1281 H 136.577 -0.175762 1.90692 0
M  V30 1282 H 134.882 -2.55659 2.96893 0
M  V30 1283 H 136.579 -2.31331 3.27547 0
M  V30 1284 H 133.169 -1.15936 4.12622 0
M  V30 1285 H 137.353 -0.593693 4.92736 0
M  V30 1286 H 132.609 0.177825 6.11141 0
M  V30 1287 H 136.783 0.737419 6.92485 0
M  V30 1288 H 134.41 1.12918 7.51767 0
M  V30 1289 N 135.985 -1.50799 -0.457987 0
M  V30 1290 C 137.225 -1.64088 -1.21879 0
M  V30 1291 C 137.589 -0.339848 -1.88968 0
M  V30 1292 O 138.79 -0.348301 -2.66534 0
M  V30 1293 C 137.061 -2.79726 -2.2246 0
M  V30 1294 S 138.62 -3.13225 -3.07303 0
M  V30 1295 H 135.438 -0.578314 -0.41361 0
M  V30 1296 H 138.04 -1.88632 -0.513645 0
M  V30 1297 H 136.744 -3.72722 -1.71775 0
M  V30 1298 H 136.275 -2.57308 -2.97584 0
M  V30 1299 H 138.29 -2.58062 -4.23814 0
M  V30 1300 N 137.463 0.71206 -1.40597 0
M  V30 1301 C 138.711 1.46907 -1.38791 0
M  V30 1302 C 139.032 1.94998 0.00780391 0
M  V30 1303 O 138.302 1.70587 0.963174 0
M  V30 1304 H 136.882 0.545043 -0.51082 0
M  V30 1305 H 139.544 0.843882 -1.75683 0
M  V30 1306 H 138.64 2.34021 -2.06496 0
M  V30 1307 N 138.941 1.26152 0.944643 0
M  V30 1308 C 139.874 1.01729 2.04271 0
M  V30 1309 C 140.852 -0.0568101 1.62501 0
M  V30 1310 O 142.036 0.0848987 1.88309 0
M  V30 1311 C 139.163 0.539792 3.34371 0
M  V30 1312 C 138.209 1.60593 3.9511 0
M  V30 1313 S 139.042 3.19392 4.29825 0
M  V30 1314 C 140.198 2.73402 5.63029 0
M  V30 1315 H 140.431 1.94703 2.24673 0
M  V30 1316 H 137.964 1.09793 1.08558 0
M  V30 1317 H 139.922 0.270956 4.09605 0
M  V30 1318 H 138.583 -0.369609 3.11918 0
M  V30 1319 H 137.776 1.22275 4.88943 0
M  V30 1320 H 137.378 1.82596 3.26397 0
M  V30 1321 H 139.67 2.1765 6.41588 0
M  V30 1322 H 140.613 3.65913 6.06229 0
M  V30 1323 H 141.021 2.13077 5.22741 0
M  V30 1324 N 140.419 -1.14872 1.07899 0
M  V30 1325 C 141.349 -2.2193 0.725887 0
M  V30 1326 C 142.33 -1.67622 -0.28927 0
M  V30 1327 O 143.515 -1.93533 -0.160787 0
M  V30 1328 C 140.645 -3.47061 0.128856 0
M  V30 1329 C 139.599 -4.14363 1.07178 0
M  V30 1330 C 138.925 -5.33636 0.337229 0
M  V30 1331 C 140.225 -4.63492 2.40775 0
M  V30 1332 H 141.919 -2.51724 1.62097 0
M  V30 1333 H 139.465 -1.20991 0.780838 0
M  V30 1334 H 141.418 -4.21199 -0.130147 0
M  V30 1335 H 140.142 -3.16617 -0.80134 0
M  V30 1336 H 138.801 -3.42173 1.3158 0
M  V30 1337 H 138.449 -4.99449 -0.596606 0
M  V30 1338 H 138.149 -5.79609 0.965788 0
M  V30 1339 H 139.673 -6.10539 0.0861567 0
M  V30 1340 H 141.087 -5.2913 2.20669 0
M  V30 1341 H 139.484 -5.20148 2.99276 0
M  V30 1342 H 140.554 -3.78834 3.02676 0
M  V30 1343 N 141.898 -0.863906 -1.31812 0
M  V30 1344 C 142.846 -0.30422 -2.30602 0
M  V30 1345 C 143.84 0.577419 -1.59255 0
M  V30 1346 O 145.046 0.464194 -1.73912 0
M  V30 1347 H 141.421 -0.0796877 -0.747766 0
M  V30 1348 H 143.392 -1.15148 -2.75288 0
M  V30 1349 C 142.141 0.484617 -3.44306 0
M  V30 1350 H 141.464 -0.18451 -3.99374 0
M  V30 1351 H 142.904 0.841664 -4.15562 0
M  V30 1352 C 141.363 1.6735 -2.92396 0
M  V30 1353 O 141.893 2.77273 -2.90659 0
M  V30 1354 N 140.099 1.50362 -2.48676 0
M  V30 1355 H 139.646 0.609402 -2.50288 0
M  V30 1356 H 139.604 2.30051 -2.14299 0
M  V30 1357 N 143.376 1.44774 -0.622745 0
M  V30 1358 C 144.787 1.85546 -0.207226 0
M  V30 1359 C 145.138 1.52093 1.23944 0
M  V30 1360 O 144.263 0.95492 1.94191 0
M  V30 1361 C 144.858 3.36781 -0.369313 0
M  V30 1362 C 143.417 3.76399 -0.00836847 0
M  V30 1363 C 142.564 2.68664 -0.686651 0
M  V30 1364 H 145.515 1.3536 -0.828454 0
M  V30 1365 H 145.536 3.78453 0.394162 0
M  V30 1366 H 145.048 3.61098 -1.42231 0
M  V30 1367 H 143.149 3.57698 1.04322 0
M  V30 1368 H 143.262 4.7732 -0.412584 0
M  V30 1369 H 141.626 2.54404 -0.122777 0
M  V30 1370 H 142.409 2.95815 -1.74208 0
M  V30 1371 N 144.854 0.36279 1.53368 0
M  V30 1372 C 146.131 -0.284021 1.93527 0
M  V30 1373 C 146.511 -1.66628 1.29608 0
M  V30 1374 O 145.859 -2.23942 0.45413 0
M  V30 1375 C 146.069 -0.337028 3.47369 0
M  V30 1376 C 147.417 -0.578708 4.20638 0
M  V30 1377 O 148.441 -0.418352 3.53735 0
M  V30 1378 O 147.3 -0.89074 5.39192 0
M  V30 1379 H 144.394 -0.169743 0.809393 0
M  V30 1380 H 146.94 0.41537 1.64538 0
M  V30 1381 H 145.712 0.632217 3.86159 0
M  V30 1382 H 145.335 -1.08243 3.82582 0
M  V30 1383 N 146.332 -1.57332 0.0918853 0
M  V30 1384 C 147.279 -2.13847 -0.868211 0
M  V30 1385 C 148.249 -1.05618 -1.28196 0
M  V30 1386 O 149.434 -1.33387 -1.36427 0
M  V30 1387 C 146.574 -2.72062 -2.12312 0
M  V30 1388 C 145.687 -3.94514 -1.7602 0
M  V30 1389 C 144.822 -4.40903 -2.96273 0
M  V30 1390 C 143.861 -5.55953 -2.56092 0
M  V30 1391 N 142.998 -5.97209 -3.69169 0
M  V30 1392 H 147.838 -2.95575 -0.379406 0
M  V30 1393 H 145.375 -1.46048 -0.175606 0
M  V30 1394 H 147.333 -3.03931 -2.858 0
M  V30 1395 H 145.963 -1.93068 -2.58698 0
M  V30 1396 H 145.015 -3.68979 -0.925135 0
M  V30 1397 H 146.327 -4.7802 -1.42472 0
M  V30 1398 H 145.481 -4.74539 -3.78018 0
M  V30 1399 H 144.22 -3.56291 -3.33029 0
M  V30 1400 H 143.225 -5.21948 -1.72773 0
M  V30 1401 H 144.45 -6.42311 -2.20484 0
M  V30 1402 H 142.396 -5.15543 -4.05649 0
M  V30 1403 H 142.313 -6.75504 -3.39456 0
M  V30 1404 H 143.581 -6.35475 -4.51434 0
M  V30 1405 N 147.81 0.181792 -1.56548 0
M  V30 1406 C 149.226 0.53316 -1.50431 0
M  V30 1407 C 149.426 1.85184 -0.794297 0
M  V30 1408 O 148.482 2.50058 -0.350318 0
M  V30 1409 C 149.795 0.575597 -2.9514 0
M  V30 1410 C 151.343 0.663519 -3.05886 0
M  V30 1411 C 151.818 0.736946 -4.52032 0
M  V30 1412 N 153.309 0.800118 -4.56237 0
M  V30 1413 C 154.044 0.877327 -5.66649 0
M  V30 1414 N 153.54 0.916016 -6.86718 0
M  V30 1415 N 155.333 0.915542 -5.54594 0
M  V30 1416 H 147.484 -0.683025 -2.01118 0
M  V30 1417 H 149.747 -0.244988 -0.915797 0
M  V30 1418 H 149.453 -0.324482 -3.502 0
M  V30 1419 H 149.327 1.42572 -3.49218 0
M  V30 1420 H 151.714 1.55403 -2.50867 0
M  V30 1421 H 151.795 -0.21307 -2.54911 0
M  V30 1422 H 151.439 -0.149262 -5.07681 0
M  V30 1423 H 151.369 1.62953 -5.00753 0
M  V30 1424 H 153.86 0.778926 -3.69785 0
M  V30 1425 H 154.173 0.975813 -7.66614 0
M  V30 1426 H 152.518 0.884469 -6.89349 0
M  V30 1427 H 155.709 0.882245 -4.59711 0
M  V30 1428 H 155.882 0.972253 -6.40665 0
M  V30 1429 N 149.288 1.51039 0.449983 0
M  V30 1430 C 150.513 1.6715 1.22783 0
M  V30 1431 C 150.938 0.363081 1.84563 0
M  V30 1432 O 150.296 -0.675433 1.68249 0
M  V30 1433 C 150.344 2.77985 2.29689 0
M  V30 1434 O 149.448 2.40707 3.34864 0
M  V30 1435 H 148.789 0.557746 0.360299 0
M  V30 1436 H 151.319 1.97535 0.533005 0
M  V30 1437 H 151.329 3.01693 2.74673 0
M  V30 1438 H 150.004 3.72935 1.84098 0
M  V30 1439 H 148.581 2.27523 2.95445 0
M  V30 1440 N 150.766 -0.704594 1.40972 0
M  V30 1441 C 151.991 -1.49858 1.43378 0
M  V30 1442 C 152.416 -1.88061 0.038184 0
M  V30 1443 O 151.774 -1.5402 -0.956425 0
M  V30 1444 C 151.822 -2.74333 2.34038 0
M  V30 1445 O 150.926 -3.7147 1.7912 0
M  V30 1446 H 150.267 -0.45139 0.486974 0
M  V30 1447 H 152.797 -0.866832 1.8533 0
M  V30 1448 H 152.807 -3.22741 2.49604 0
M  V30 1449 H 151.482 -2.45863 3.35446 0
M  V30 1450 H 150.059 -3.30363 1.72958 0
M  V30 1451 N 152.244 -1.26651 -0.937939 0
M  V30 1452 C 153.49 -1.13562 -1.68746 0
M  V30 1453 C 153.845 0.317241 -1.89767 0
M  V30 1454 O 153.138 1.22939 -1.46957 0
M  V30 1455 C 153.332 -1.84168 -3.06295 0
M  V30 1456 C 153.161 -3.36171 -2.98696 0
M  V30 1457 C 151.931 -4.05468 -3.01535 0
M  V30 1458 C 154.129 -4.32312 -2.78588 0
M  V30 1459 N 152.111 -5.44118 -2.84269 0
M  V30 1460 C 153.482 -5.58159 -2.69924 0
M  V30 1461 C 155.537 -4.22524 -2.63396 0
M  V30 1462 C 154.24 -6.75335 -2.47618 0
M  V30 1463 C 156.266 -5.39411 -2.42466 0
M  V30 1464 C 155.628 -6.64208 -2.34536 0
M  V30 1465 H 151.727 -0.470361 -0.624728 0
M  V30 1466 H 154.311 -1.59982 -1.10968 0
M  V30 1467 H 152.482 -1.40219 -3.62206 0
M  V30 1468 H 154.214 -1.63674 -3.70126 0
M  V30 1469 H 150.969 -3.56854 -3.11372 0
M  V30 1470 H 151.393 -6.1693 -2.78795 0
M  V30 1471 H 156.035 -3.26771 -2.68292 0
M  V30 1472 H 153.753 -7.71182 -2.41463 0
M  V30 1473 H 157.339 -5.33711 -2.31611 0
M  V30 1474 H 156.219 -7.53129 -2.18555 0
M  V30 1475 N 153.722 1.14298 -1.08507 0
M  V30 1476 C 154.969 1.85359 -0.815373 0
M  V30 1477 C 155.297 1.83001 0.658865 0
M  V30 1478 O 154.552 1.25655 1.50031 0
M  V30 1479 C 154.851 3.33547 -1.28379 0
M  V30 1480 C 154.517 3.56093 -2.76602 0
M  V30 1481 C 153.179 3.61955 -3.17084 0
M  V30 1482 C 155.531 3.64834 -3.72217 0
M  V30 1483 C 152.859 3.74082 -4.51973 0
M  V30 1484 C 155.211 3.78487 -5.06883 0
M  V30 1485 C 153.875 3.82598 -5.46969 0
M  V30 1486 H 153.145 0.678276 -0.298366 0
M  V30 1487 H 155.792 1.35002 -1.35819 0
M  V30 1488 H 154.097 3.86191 -0.660593 0
M  V30 1489 H 155.794 3.86959 -1.05186 0
M  V30 1490 H 152.384 3.52179 -2.4427 0
M  V30 1491 H 156.568 3.59595 -3.42061 0
M  V30 1492 H 151.824 3.75527 -4.82483 0
M  V30 1493 H 155.998 3.84193 -5.80834 0
M  V30 1494 H 153.625 3.91747 -6.51489 0
M  V30 1495 N 155.201 0.870884 1.31352 0
M  V30 1496 C 156.148 0.325425 2.28494 0
M  V30 1497 C 157.118 -0.576615 1.5577 0
M  V30 1498 O 158.303 -0.508059 1.83911 0
M  V30 1499 C 155.443 -0.466283 3.41935 0
M  V30 1500 C 154.556 0.463378 4.29508 0
M  V30 1501 C 153.691 -0.342544 5.30094 0
M  V30 1502 C 152.73 0.583486 6.09313 0
M  V30 1503 N 151.867 -0.186244 7.01853 0
M  V30 1504 H 156.707 1.15901 2.74538 0
M  V30 1505 H 154.244 0.58294 1.35056 0
M  V30 1506 H 156.202 -0.941085 4.06447 0
M  V30 1507 H 154.832 -1.26456 2.97 0
M  V30 1508 H 153.884 1.05663 3.65431 0
M  V30 1509 H 155.196 1.1734 4.84802 0
M  V30 1510 H 154.35 -0.879816 6.00287 0
M  V30 1511 H 153.089 -1.08585 4.75458 0
M  V30 1512 H 152.094 1.13251 5.3801 0
M  V30 1513 H 153.319 1.32566 6.66035 0
M  V30 1514 H 151.265 -0.912348 6.49625 0
M  V30 1515 H 151.182 0.464422 7.54572 0
M  V30 1516 H 152.45 -0.704716 7.76308 0
M  V30 1517 N 156.679 -1.44442 0.630414 0
M  V30 1518 C 157.627 -2.32437 -0.0871428 0
M  V30 1519 C 158.621 -1.47304 -0.836525 0
M  V30 1520 O 159.827 -1.63653 -0.749506 0
M  V30 1521 H 156.202 -0.750533 -0.0469495 0
M  V30 1522 H 158.173 -2.90709 0.673096 0
M  V30 1523 C 156.922 -3.31288 -1.05563 0
M  V30 1524 H 156.245 -3.96805 -0.488426 0
M  V30 1525 H 157.685 -3.9554 -1.52721 0
M  V30 1526 C 156.144 -2.6016 -2.14052 0
M  V30 1527 O 156.674 -2.39997 -3.22124 0
M  V30 1528 N 154.88 -2.19911 -1.89967 0
M  V30 1529 H 154.427 -2.36509 -1.02085 0
M  V30 1530 H 154.385 -1.72646 -2.62756 0
M  V30 1531 N 158.157 -0.370918 -1.53173 0
M  V30 1532 C 159.573 -0.0200818 -1.59587 0
M  V30 1533 C 159.773 1.46279 -1.38581 0
M  V30 1534 O 158.829 2.22506 -1.19363 0
M  V30 1535 C 160.142 -0.4808 -2.96831 0
M  V30 1536 C 161.69 -0.435477 -3.09956 0
M  V30 1537 C 162.165 -0.872092 -4.4962 0
M  V30 1538 N 163.656 -0.827364 -4.55751 0
M  V30 1539 C 164.391 -1.13683 -5.62018 0
M  V30 1540 N 163.887 -1.51584 -6.76014 0
M  V30 1541 N 165.68 -1.05927 -5.52029 0
M  V30 1542 H 157.831 -1.33652 -1.65079 0
M  V30 1543 H 160.094 -0.546634 -0.774529 0
M  V30 1544 H 159.8 -1.51577 -3.1736 0
M  V30 1545 H 159.674 0.129796 -3.76977 0
M  V30 1546 H 162.061 0.590371 -2.89134 0
M  V30 1547 H 162.142 -1.08164 -2.31806 0
M  V30 1548 H 161.786 -1.89608 -4.71181 0
M  V30 1549 H 161.716 -0.203127 -5.26208 0
M  V30 1550 H 164.207 -0.548216 -3.73902 0
M  V30 1551 H 164.52 -1.73609 -7.53047 0
M  V30 1552 H 162.865 -1.55454 -6.77391 0
M  V30 1553 H 166.056 -0.762321 -4.61851 0
M  V30 1554 H 166.229 -1.30378 -6.34749 0
M  V30 1555 N 159.635 1.57281 -0.100228 0
M  V30 1556 C 160.863 1.98879 0.570509 0
M  V30 1557 C 161.278 0.979476 1.61405 0
M  V30 1558 O 160.635 -0.0302288 1.82475 0
M  V30 1559 C 160.686 3.4052 1.2136 0
M  V30 1560 O 160.407 4.37588 0.211786 0
M  V30 1561 C 161.908 3.97149 1.96945 0
M  V30 1562 H 159.128 0.653428 0.152555 0
M  V30 1563 H 161.672 2.03697 -0.18103 0
M  V30 1564 H 159.827 3.367 1.91603 0
M  V30 1565 H 160.241 5.20118 0.676607 0
M  V30 1566 H 161.715 4.98393 2.37294 0
M  V30 1567 H 162.192 3.3525 2.83733 0
M  V30 1568 H 162.798 4.04458 1.31506 0
M  V30 1569 N 161.113 -0.173488 1.56642 0
M  V30 1570 C 162.023 -1.23482 1.99473 0
M  V30 1571 C 163.039 -1.48567 0.905752 0
M  V30 1572 O 164.215 -1.60758 1.21321 0
M  V30 1573 C 161.28 -2.55444 2.34413 0
M  V30 1574 C 160.341 -2.38241 3.57127 0
M  V30 1575 C 159.574 -3.63909 3.90392 0
M  V30 1576 O 159.797 -4.68996 3.24653 0
M  V30 1577 O 158.731 -3.58149 4.83749 0
M  V30 1578 H 162.557 -0.901279 2.90018 0
M  V30 1579 H 160.142 -0.380185 1.44482 0
M  V30 1580 H 162.024 -3.33292 2.57865 0
M  V30 1581 H 160.699 -2.88382 1.4703 0
M  V30 1582 H 159.606 -1.58431 3.38896 0
M  V30 1583 H 160.939 -2.10228 4.45045 0
M  V30 1584 N 162.591 -1.51276 -0.441967 0
M  V30 1585 C 163.554 -1.7167 -1.51862 0
M  V30 1586 C 164.554 -0.586793 -1.49711 0
M  V30 1587 O 165.744 -0.854276 -1.51815 0
M  V30 1588 C 162.876 -1.76889 -2.91416 0
M  V30 1589 H 164.069 -2.67754 -1.35084 0
M  V30 1590 H 161.622 -1.41196 -0.670333 0
M  V30 1591 H 162.357 -0.826026 -3.13604 0
M  V30 1592 H 162.142 -2.59001 -2.94382 0
M  V30 1593 H 163.632 -1.94522 -3.69528 0
M  V30 1594 N 164.069 0.697108 -1.41344 0
M  V30 1595 C 165.48 1.27697 -1.36199 0
M  V30 1596 C 165.831 1.9615 -0.0443463 0
M  V30 1597 O 164.956 1.98689 0.857419 0
M  V30 1598 C 165.551 2.32223 -2.46694 0
M  V30 1599 C 164.11 2.8579 -2.44952 0
M  V30 1600 C 163.257 1.59807 -2.26621 0
M  V30 1601 H 166.208 0.491968 -1.50882 0
M  V30 1602 H 166.229 3.1348 -2.15664 0
M  V30 1603 H 165.741 1.82373 -3.42581 0
M  V30 1604 H 163.842 3.3982 -1.52817 0
M  V30 1605 H 163.955 3.36325 -3.41207 0
M  V30 1606 H 162.319 1.8556 -1.7447 0
M  V30 1607 H 163.102 1.11956 -3.24532 0
M  V30 1608 N 165.547 1.27147 0.931209 0
M  V30 1609 C 166.477 1.12081 2.04842 0
M  V30 1610 C 167.458 0.0232364 1.70084 0
M  V30 1611 O 168.643 0.197085 1.93197 0
M  V30 1612 C 165.773 0.76354 3.38803 0
M  V30 1613 C 164.727 1.81396 3.87659 0
M  V30 1614 C 164.053 1.31075 5.18385 0
M  V30 1615 C 165.353 3.21739 4.11438 0
M  V30 1616 H 167.047 2.05537 2.17703 0
M  V30 1617 H 164.593 0.989603 1.04608 0
M  V30 1618 H 166.546 0.644982 4.16435 0
M  V30 1619 H 165.27 -0.206727 3.25945 0
M  V30 1620 H 163.929 1.92136 3.12217 0
M  V30 1621 H 163.577 0.330037 5.01916 0
M  V30 1622 H 163.277 2.013 5.52044 0
M  V30 1623 H 164.801 1.20506 5.98591 0
M  V30 1624 H 166.215 3.14019 4.79651 0
M  V30 1625 H 164.612 3.89644 4.56397 0
M  V30 1626 H 165.682 3.67054 3.16859 0
M  V30 1627 N 167.025 -1.13721 1.09112 0
M  V30 1628 C 168.273 -1.84559 0.823562 0
M  V30 1629 C 168.594 -1.83754 -0.652658 0
M  V30 1630 O 167.864 -1.29102 -1.47342 0
M  V30 1631 H 166.444 -0.683376 0.301673 0
M  V30 1632 H 169.106 -1.37771 1.37859 0
M  V30 1633 H 168.202 -2.8917 1.17419 0
M  V30 1634 N 168.503 -0.877838 -1.30888 0
M  V30 1635 C 169.728 -0.506629 -2.01117 0
M  V30 1636 C 170.153 0.895564 -1.65412 0
M  V30 1637 O 169.511 1.5923 -0.866922 0
M  V30 1638 C 169.559 -0.680223 -3.54126 0
M  V30 1639 O 168.663 0.277033 -4.11468 0
M  V30 1640 H 168.004 -0.200518 -0.633 0
M  V30 1641 H 170.534 -1.18342 -1.66902 0
M  V30 1642 H 170.544 -0.5765 -4.03907 0
M  V30 1643 H 169.219 -1.70261 -3.79452 0
M  V30 1644 H 167.796 0.127606 -3.72682 0
M  V30 1645 N 169.982 1.44106 -0.638065 0
M  V30 1646 C 171.229 2.01978 -0.14533 0
M  V30 1647 C 171.557 1.50234 1.23532 0
M  V30 1648 O 170.812 0.679548 1.83523 0
M  V30 1649 C 171.111 3.5729 -0.0887327 0
M  V30 1650 C 170.777 4.28317 -1.40909 0
M  V30 1651 C 169.439 4.47437 -1.77069 0
M  V30 1652 C 171.791 4.6867 -2.28031 0
M  V30 1653 C 169.119 5.04171 -3.00047 0
M  V30 1654 C 171.471 5.26766 -3.50286 0
M  V30 1655 C 170.135 5.44104 -3.86661 0
M  V30 1656 H 169.405 0.739089 -0.0531801 0
M  V30 1657 H 172.052 1.72781 -0.825761 0
M  V30 1658 H 170.357 3.8594 0.675095 0
M  V30 1659 H 172.054 3.99807 0.309145 0
M  V30 1660 H 168.644 4.1377 -1.1177 0
M  V30 1661 H 172.828 4.53604 -2.01388 0
M  V30 1662 H 168.084 5.15782 -3.28298 0
M  V30 1663 H 172.258 5.56983 -4.18023 0
M  V30 1664 H 169.885 5.87832 -4.82034 0
M  V30 1665 N 171.46 0.379036 1.52974 0
M  V30 1666 C 172.39 -0.452706 2.29069 0
M  V30 1667 C 173.371 -1.07237 1.32039 0
M  V30 1668 O 174.556 -1.08708 1.60923 0
M  V30 1669 C 171.686 -1.5856 3.08992 0
M  V30 1670 C 170.64 -1.0925 4.13822 0
M  V30 1671 C 169.966 -2.31668 4.81907 0
M  V30 1672 C 171.266 -0.167702 5.22031 0
M  V30 1673 H 172.96 0.182181 2.98845 0
M  V30 1674 H 170.506 0.0890592 1.43724 0
M  V30 1675 H 172.459 -2.1742 3.6098 0
M  V30 1676 H 171.183 -2.24792 2.36931 0
M  V30 1677 H 169.842 -0.526494 3.628 0
M  V30 1678 H 169.49 -2.96386 4.06404 0
M  V30 1679 H 169.19 -1.9934 5.52754 0
M  V30 1680 H 170.714 -2.91189 5.36695 0
M  V30 1681 H 172.128 -0.664186 5.6944 0
M  V30 1682 H 170.525 0.0653265 6.00064 0
M  V30 1683 H 171.595 0.786347 4.78482 0
M  V30 1684 N 172.938 -1.57226 0.108567 0
M  V30 1685 C 174.184 -1.95919 -0.546564 0
M  V30 1686 C 174.539 -0.990417 -1.6495 0
M  V30 1687 O 173.832 -0.0186593 -1.91591 0
M  V30 1688 C 174.026 -3.38911 -1.13463 0
M  V30 1689 C 173.855 -4.4961 -0.0901926 0
M  V30 1690 C 172.625 -5.04168 0.338008 0
M  V30 1691 C 174.823 -5.09693 0.686808 0
M  V30 1692 N 172.805 -5.98434 1.36931 0
M  V30 1693 C 174.176 -5.99804 1.56958 0
M  V30 1694 C 176.231 -4.92388 0.738846 0
M  V30 1695 C 174.934 -6.74463 2.49983 0
M  V30 1696 C 176.96 -5.67719 1.65676 0
M  V30 1697 C 176.322 -6.57507 2.52713 0
M  V30 1698 H 172.421 -0.763312 -0.169936 0
M  V30 1699 H 175.005 -1.93728 0.194264 0
M  V30 1700 H 173.176 -3.41769 -1.84522 0
M  V30 1701 H 174.908 -3.64752 -1.75322 0
M  V30 1702 H 171.663 -4.73571 -0.0523673 0
M  V30 1703 H 172.087 -6.5027 1.88356 0
M  V30 1704 H 176.729 -4.22724 0.080084 0
M  V30 1705 H 174.447 -7.4338 3.16878 0
M  V30 1706 H 178.033 -5.56338 1.70233 0
M  V30 1707 H 176.913 -7.14778 3.22586 0
M  V30 1708 N 174.416 0.165178 -1.56732 0
M  V30 1709 C 175.346 1.20651 -1.99914 0
M  V30 1710 C 176.327 1.45827 -0.875705 0
M  V30 1711 O 177.512 1.57057 -1.14223 0
M  V30 1712 C 174.642 2.54401 -2.36427 0
M  V30 1713 C 173.596 2.43782 -3.51787 0
M  V30 1714 C 172.922 3.82078 -3.7406 0
M  V30 1715 C 174.222 1.93732 -4.85041 0
M  V30 1716 H 175.916 0.847534 -2.87154 0
M  V30 1717 H 173.462 0.40625 -1.38151 0
M  V30 1718 H 175.415 3.27458 -2.65234 0
M  V30 1719 H 174.139 2.92098 -1.46103 0
M  V30 1720 H 172.798 1.73178 -3.23117 0
M  V30 1721 H 172.446 4.17179 -2.81017 0
M  V30 1722 H 172.146 3.7584 -4.51684 0
M  V30 1723 H 173.67 4.56712 -4.05274 0
M  V30 1724 H 175.084 2.56569 -5.12684 0
M  V30 1725 H 173.481 1.98428 -5.66345 0
M  V30 1726 H 174.551 0.891962 -4.76626 0
M  V30 1727 N 175.894 1.51508 0.433938 0
M  V30 1728 C 177.171 1.54888 1.19453 0
M  V30 1729 C 177.551 0.315154 2.08734 0
M  V30 1730 O 176.899 -0.699558 2.17528 0
M  V30 1731 C 177.109 2.86467 1.99342 0
M  V30 1732 C 178.457 3.38545 2.56267 0
M  V30 1733 O 179.481 2.88041 2.0955 0
M  V30 1734 O 178.34 4.26675 3.41483 0
M  V30 1735 H 175.434 0.622863 0.544032 0
M  V30 1736 H 177.98 1.63823 0.442732 0
M  V30 1737 H 176.752 3.67718 1.33788 0
M  V30 1738 H 176.375 2.8071 2.8158 0
M  V30 1739 N 177.372 -0.689602 1.41712 0
M  V30 1740 C 178.618 -1.45181 1.41599 0
M  V30 1741 C 178.951 -1.94181 0.0270081 0
M  V30 1742 O 178.226 -1.6993 -0.946265 0
M  V30 1743 C 178.509 -2.65945 2.42787 0
M  V30 1744 C 178.362 -2.22672 3.90816 0
M  V30 1745 C 179.681 -3.68149 2.41151 0
M  V30 1746 H 176.8 -0.526576 0.515642 0
M  V30 1747 H 179.442 -0.784947 1.73028 0
M  V30 1748 H 177.592 -3.2284 2.16116 0
M  V30 1749 H 179.264 -1.71058 4.28412 0
M  V30 1750 H 177.507 -1.54394 4.05395 0
M  V30 1751 H 178.178 -3.0935 4.57172 0
M  V30 1752 H 180.654 -3.2094 2.64834 0
M  V30 1753 H 179.53 -4.50248 3.13955 0
M  V30 1754 H 179.791 -4.18259 1.43221 0
M  V30 1755 N 178.85 -1.27639 -0.924453 0
M  V30 1756 C 180.096 -1.14336 -1.67497 0
M  V30 1757 C 180.429 0.309465 -1.91718 0
M  V30 1758 O 179.704 1.22608 -1.50989 0
M  V30 1759 C 179.987 -1.93096 -3.0395 0
M  V30 1760 C 179.84 -3.46381 -2.8695 0
M  V30 1761 C 181.159 -1.73798 -4.0433 0
M  V30 1762 H 178.278 -0.416728 -0.607871 0
M  V30 1763 H 180.92 -1.56832 -1.07256 0
M  V30 1764 H 179.07 -1.56982 -3.55372 0
M  V30 1765 H 180.742 -3.92343 -2.42621 0
M  V30 1766 H 178.985 -3.72557 -2.22225 0
M  V30 1767 H 179.656 -3.96735 -3.83804 0
M  V30 1768 H 182.132 -2.05293 -3.61931 0
M  V30 1769 H 181.008 -2.31294 -4.97789 0
M  V30 1770 H 181.269 -0.686725 -4.36734 0
M  V30 1771 N 180.328 1.1314 -1.09713 0
M  V30 1772 C 181.276 2.20717 -0.733934 0
M  V30 1773 C 182.27 1.6729 0.266506 0
M  V30 1774 O 183.476 1.79547 0.127656 0
M  V30 1775 H 179.851 0.719292 -0.21937 0
M  V30 1776 H 181.822 2.48611 -1.6503 0
M  V30 1777 C 180.571 3.47265 -0.173849 0
M  V30 1778 H 179.894 3.88716 -0.934873 0
M  V30 1779 H 181.334 4.23979 0.0423126 0
M  V30 1780 C 179.793 3.18724 1.09164 0
M  V30 1781 O 180.323 3.37762 2.17439 0
M  V30 1782 N 178.529 2.72583 1.00732 0
M  V30 1783 H 178.076 2.57291 0.126121 0
M  V30 1784 H 178.034 2.53862 1.85476 0
M  V30 1785 N 181.806 0.884767 1.30421 0
M  V30 1786 C 183.222 0.57874 1.48737 0
M  V30 1787 C 183.422 -0.883567 1.81095 0
M  V30 1788 O 182.478 -1.6648 1.89844 0
M  V30 1789 C 183.791 1.49171 2.61091 0
M  V30 1790 C 185.339 1.49532 2.74971 0
M  V30 1791 C 185.814 2.39421 3.90438 0
M  V30 1792 N 187.305 2.37383 3.97748 0
M  V30 1793 C 188.04 3.03647 4.86401 0
M  V30 1794 N 187.536 3.79136 5.79852 0
M  V30 1795 N 189.329 2.9288 4.79768 0
M  V30 1796 H 181.48 1.83075 1.0769 0
M  V30 1797 H 183.743 0.783637 0.533495 0
M  V30 1798 H 183.449 2.53291 2.44001 0
M  V30 1799 H 183.323 1.20113 3.57565 0
M  V30 1800 H 185.71 0.46163 2.91467 0
M  V30 1801 H 185.791 1.8262 1.79119 0
M  V30 1802 H 185.435 3.42874 3.74699 0
M  V30 1803 H 185.365 2.03649 4.85628 0
M  V30 1804 H 187.856 1.82525 3.30897 0
M  V30 1805 H 188.169 4.26789 6.4426 0
M  V30 1806 H 186.514 3.83243 5.79784 0
M  V30 1807 H 189.705 2.33433 4.05742 0
M  V30 1808 H 189.878 3.448 5.4865 0
M  V30 1809 N 183.284 -1.43765 0.645699 0
M  V30 1810 C 184.232 -2.32516 -0.0624849 0
M  V30 1811 C 185.226 -1.48183 -0.820855 0
M  V30 1812 O 186.432 -1.64439 -0.732106 0
M  V30 1813 H 182.807 -0.750989 -0.0389864 0
M  V30 1814 H 184.778 -2.89979 0.703892 0
M  V30 1815 C 183.527 -3.32389 -1.02044 0
M  V30 1816 H 182.85 -3.97301 -0.446312 0
M  V30 1817 H 184.29 -3.97138 -1.48517 0
M  V30 1818 C 182.749 -2.62416 -2.11281 0
M  V30 1819 O 183.279 -2.434 -3.19561 0
M  V30 1820 N 181.485 -2.21913 -1.87624 0
M  V30 1821 H 181.032 -2.37578 -0.995703 0
M  V30 1822 H 180.99 -1.75424 -2.6091 0
M  V30 1823 N 184.763 -0.387143 -1.52771 0
M  V30 1824 C 186.012 0.19697 -2.00736 0
M  V30 1825 C 186.325 1.48082 -1.27793 0
M  V30 1826 O 187.531 2.14485 -1.66458 0
M  V30 1827 C 185.987 0.401568 -3.57653 0
M  V30 1828 C 185.595 -0.868907 -4.39493 0
M  V30 1829 C 187.339 0.942164 -4.13912 0
M  V30 1830 C 185.246 -0.632705 -5.88006 0
M  V30 1831 H 184.176 0.0773827 -0.750019 0
M  V30 1832 H 186.827 -0.50921 -1.76293 0
M  V30 1833 H 185.209 1.16954 -3.78335 0
M  V30 1834 H 186.383 -1.64133 -4.30577 0
M  V30 1835 H 184.698 -1.33429 -3.94443 0
M  V30 1836 H 187.295 1.13455 -5.22525 0
M  V30 1837 H 187.638 1.9106 -3.69867 0
M  V30 1838 H 188.171 0.233814 -3.97112 0
M  V30 1839 H 184.91 -1.57208 -6.36369 0
M  V30 1840 H 184.43 0.100825 -5.99715 0
M  V30 1841 H 186.109 -0.26642 -6.46451 0
M  V30 1842 N 186.241 1.57166 -0.116904 0
M  V30 1843 C 187.518 1.86645 0.585049 0
M  V30 1844 C 187.898 1.0177 1.84949 0
M  V30 1845 O 187.246 0.0960379 2.28298 0
M  V30 1846 C 187.456 3.37736 0.879507 0
M  V30 1847 C 188.804 4.06289 1.23348 0
M  V30 1848 O 189.828 3.42743 0.969836 0
M  V30 1849 O 188.687 5.18455 1.7282 0
M  V30 1850 H 185.781 0.772593 0.295007 0
M  V30 1851 H 188.327 1.69025 -0.151249 0
M  V30 1852 H 187.099 3.91296 -0.0166136 0
M  V30 1853 H 186.722 3.6078 1.67103 0
M  V30 1854 N 187.719 -0.156864 1.56817 0
M  V30 1855 C 189.13 -0.717916 1.72345 0
M  V30 1856 C 189.481 -1.82124 0.729747 0
M  V30 1857 O 188.606 -2.16141 -0.105781 0
M  V30 1858 C 189.201 -1.30904 3.12489 0
M  V30 1859 C 187.76 -1.81676 3.29653 0
M  V30 1860 C 186.907 -0.701349 2.68284 0
M  V30 1861 H 189.858 0.0686989 1.58551 0
M  V30 1862 H 189.879 -2.17882 3.11942 0
M  V30 1863 H 189.391 -0.505796 3.8479 0
M  V30 1864 H 187.492 -2.64598 2.62333 0
M  V30 1865 H 187.605 -1.95226 4.3752 0
M  V30 1866 H 185.969 -1.12548 2.28484 0
M  V30 1867 H 186.752 0.0902846 3.43181 0
M  V30 1868 N 189.197 -1.51736 -0.425897 0
M  V30 1869 C 190.427 -1.68549 -1.19476 0
M  V30 1870 C 190.835 -0.387288 -1.85194 0
M  V30 1871 O 190.178 0.645142 -1.71999 0
M  V30 1872 C 190.24 -2.75275 -2.31223 0
M  V30 1873 C 189.904 -4.17534 -1.8578 0
M  V30 1874 C 190.901 -5.01936 -1.35485 0
M  V30 1875 C 188.586 -4.6369 -1.93123 0
M  V30 1876 C 190.58 -6.30559 -0.931347 0
M  V30 1877 C 188.267 -5.92307 -1.50384 0
M  V30 1878 C 189.265 -6.75569 -1.00473 0
M  V30 1879 O 188.953 -8.0178 -0.583452 0
M  V30 1880 H 188.685 -0.568525 -0.365725 0
M  V30 1881 H 191.239 -1.98982 -0.509444 0
M  V30 1882 H 189.469 -2.40182 -3.03067 0
M  V30 1883 H 191.158 -2.80853 -2.93047 0
M  V30 1884 H 191.924 -4.67475 -1.29197 0
M  V30 1885 H 187.803 -3.98997 -2.30916 0
M  V30 1886 H 191.347 -6.95498 -0.541084 0
M  V30 1887 H 187.244 -6.2628 -1.56346 0
M  V30 1888 H 188.012 -8.1543 -0.708275 0
M  V30 1889 N 190.675 0.682077 -1.42076 0
M  V30 1890 C 191.638 1.77756 -1.44691 0
M  V30 1891 C 192.638 1.5726 -0.335535 0
M  V30 1892 O 193.828 1.63686 -0.596037 0
M  V30 1893 C 190.96 3.16301 -1.27146 0
M  V30 1894 H 192.153 1.76826 -2.42224 0
M  V30 1895 H 189.706 0.891012 -1.28416 0
M  V30 1896 H 190.441 3.22862 -0.305075 0
M  V30 1897 H 190.226 3.32581 -2.07683 0
M  V30 1898 H 191.716 3.96241 -1.31843 0
M  V30 1899 N 192.153 1.28127 0.917671 0
M  V30 1900 C 193.401 1.14825 1.66312 0
M  V30 1901 C 193.722 -0.304379 1.9261 0
M  V30 1902 O 192.992 -1.21149 1.53947 0
M  V30 1903 H 191.572 0.421953 0.616413 0
M  V30 1904 H 194.234 1.608 1.10134 0
M  V30 1905 H 193.33 1.68489 2.62712 0
M  V30 1906 N 193.631 -1.12557 1.10312 0
M  V30 1907 C 194.877 -1.84311 0.846011 0
M  V30 1908 C 195.21 -1.83805 -0.626859 0
M  V30 1909 O 194.485 -1.28268 -1.46211 0
M  V30 1910 C 194.768 -3.32048 1.39341 0
M  V30 1911 C 194.621 -3.41016 2.93305 0
M  V30 1912 C 195.94 -4.27764 1.03468 0
M  V30 1913 H 193.059 -0.669192 0.30879 0
M  V30 1914 H 195.701 -1.32057 1.36605 0
M  V30 1915 H 193.851 -3.76678 0.951087 0
M  V30 1916 H 195.523 -3.05031 3.46055 0
M  V30 1917 H 193.766 -2.81603 3.29973 0
M  V30 1918 H 194.437 -4.44948 3.26689 0
M  V30 1919 H 196.913 -3.91253 1.41633 0
M  V30 1920 H 195.789 -5.29549 1.44463 0
M  V30 1921 H 196.05 -4.42064 -0.0560404 0
M  V30 1922 N 195.109 -0.891671 -1.2995 0
M  V30 1923 C 196.039 -0.379797 -2.30391 0
M  V30 1924 C 197.02 0.540919 -1.6127 0
M  V30 1925 O 198.205 0.453352 -1.88834 0
M  V30 1926 C 195.335 0.400654 -3.44981 0
M  V30 1927 C 194.289 -0.428905 -4.25846 0
M  V30 1928 C 193.615 0.478557 -5.32554 0
M  V30 1929 C 194.915 -1.67458 -4.94727 0
M  V30 1930 H 196.609 -1.21914 -2.73454 0
M  V30 1931 H 194.155 -0.587675 -1.31462 0
M  V30 1932 H 196.108 0.769434 -4.14316 0
M  V30 1933 H 194.832 1.27371 -3.0074 0
M  V30 1934 H 193.491 -0.779911 -3.58208 0
M  V30 1935 H 193.139 1.34951 -4.84559 0
M  V30 1936 H 192.839 -0.0727433 -5.87555 0
M  V30 1937 H 194.363 0.843705 -6.04743 0
M  V30 1938 H 195.777 -1.376 -5.56542 0
M  V30 1939 H 194.174 -2.16659 -5.59624 0
M  V30 1940 H 195.244 -2.41518 -4.20473 0
M  V30 1941 N 196.587 1.43421 -0.653314 0
M  V30 1942 C 197.864 1.95361 -0.0966581 0
M  V30 1943 C 198.244 1.59461 1.38331 0
M  V30 1944 O 197.592 0.879777 2.10884 0
M  V30 1945 C 197.802 3.47311 -0.342988 0
M  V30 1946 C 199.15 4.23875 -0.24798 0
M  V30 1947 O 200.174 3.55133 -0.275553 0
M  V30 1948 O 199.033 5.4623 -0.171771 0
M  V30 1949 H 196.127 0.826945 0.00956291 0
M  V30 1950 H 198.673 1.5336 -0.726558 0
M  V30 1951 H 197.445 3.66569 -1.36906 0
M  V30 1952 H 197.068 3.9631 0.319975 0
M  V30 1953 N 198.065 0.39524 1.52563 0
M  V30 1954 C 199.481 0.0454682 1.59535 0
M  V30 1955 C 199.681 -1.44056 1.4089 0
M  V30 1956 O 198.737 -2.20579 1.22888 0
M  V30 1957 C 200.05 0.527963 2.96029 0
M  V30 1958 C 201.598 0.484733 3.09224 0
M  V30 1959 C 202.073 0.943512 4.48176 0
M  V30 1960 N 203.564 0.899765 4.54377 0
M  V30 1961 C 204.299 1.22609 5.60138 0
M  V30 1962 N 203.795 1.62319 6.73516 0
M  V30 1963 N 205.588 1.14696 5.50274 0
M  V30 1964 H 197.739 1.36261 1.62931 0
M  V30 1965 H 200.002 0.558887 0.765735 0
M  V30 1966 H 199.708 1.56607 3.14908 0
M  V30 1967 H 199.582 -0.0698056 3.77135 0
M  V30 1968 H 201.969 -0.544298 2.90037 0
M  V30 1969 H 202.05 1.11838 2.30056 0
M  V30 1970 H 201.694 1.9708 4.68104 0
M  V30 1971 H 201.624 0.286817 5.25818 0
M  V30 1972 H 204.115 0.607632 3.72983 0
M  V30 1973 H 204.428 1.85567 7.5019 0
M  V30 1974 H 202.773 1.66211 6.74833 0
M  V30 1975 H 205.964 0.835701 4.6058 0
M  V30 1976 H 206.137 1.40459 6.32594 0
M  V30 1977 N 199.544 -1.57102 0.125237 0
M  V30 1978 C 200.79 -1.95697 -0.532035 0
M  V30 1979 C 201.123 -1.009 -1.6593 0
M  V30 1980 O 200.398 -0.047347 -1.94442 0
M  V30 1981 C 200.681 -3.44181 -1.05884 0
M  V30 1982 C 200.534 -4.49752 0.0654392 0
M  V30 1983 C 201.853 -3.94655 -1.9477 0
M  V30 1984 H 198.972 -0.711571 -0.191925 0
M  V30 1985 H 201.614 -1.88923 0.20206 0
M  V30 1986 H 199.764 -3.50085 -1.68442 0
M  V30 1987 H 201.436 -4.55943 0.700982 0
M  V30 1988 H 199.679 -4.27653 0.727709 0
M  V30 1989 H 200.35 -5.50924 -0.344505 0
M  V30 1990 H 202.826 -3.91094 -1.42074 0
M  V30 1991 H 201.702 -4.99057 -2.28546 0
M  V30 1992 H 201.963 -3.35718 -2.87656 0
M  V30 1993 N 201.022 0.148545 -1.56898 0
M  V30 1994 C 201.97 1.20265 -1.99096 0
M  V30 1995 C 202.964 1.44559 -0.883123 0
M  V30 1996 O 204.17 1.4487 -1.0683 0
M  V30 1997 H 200.545 0.404786 -0.63376 0
M  V30 1998 H 202.516 0.82004 -2.86911 0
M  V30 1999 C 201.265 2.52886 -2.3863 0
M  V30 2000 H 200.588 2.35021 -3.23427 0
M  V30 2001 H 202.028 3.25274 -2.7198 0
M  V30 2002 C 200.487 3.13315 -1.23837 0
M  V30 2003 O 201.017 3.98077 -0.538268 0
M  V30 2004 N 199.223 2.72742 -1.00301 0
M  V30 2005 H 198.77 2.03912 -1.5741 0
M  V30 2006 H 198.728 3.13507 -0.236838 0
M  V30 2007 N 202.5 1.5196 0.417844 0
M  V30 2008 C 203.73 1.69181 1.18581 0
M  V30 2009 C 204.138 0.397104 1.84986 0
M  V30 2010 O 203.481 -0.636011 1.72339 0
M  V30 2011 C 203.543 2.76497 2.29759 0
M  V30 2012 C 203.207 4.18514 1.83563 0
M  V30 2013 C 204.204 5.02648 1.32821 0
M  V30 2014 C 201.889 4.64708 1.90661 0
M  V30 2015 C 203.883 6.31044 0.897894 0
M  V30 2016 C 201.57 5.93096 1.47241 0
M  V30 2017 C 202.568 6.76093 0.968891 0
M  V30 2018 O 202.256 8.02078 0.540924 0
M  V30 2019 H 201.988 0.570457 0.362705 0
M  V30 2020 H 204.542 1.99249 0.498885 0
M  V30 2021 H 202.772 2.41786 3.01789 0
M  V30 2022 H 204.461 2.82403 2.91553 0
M  V30 2023 H 205.227 4.68154 1.26716 0
M  V30 2024 H 201.106 4.00216 2.28797 0
M  V30 2025 H 204.65 6.95776 0.504192 0
M  V30 2026 H 200.547 6.271 1.53022 0
M  V30 2027 H 201.315 8.15794 0.66502 0
M  V30 2028 N 203.978 -0.674533 1.42435 0
M  V30 2029 C 205.255 -1.4305 1.33402 0
M  V30 2030 C 205.635 -2.11081 -0.0284674 0
M  V30 2031 O 204.983 -2.03257 -1.04397 0
M  V30 2032 C 205.193 -2.43272 2.50239 0
M  V30 2033 C 206.541 -3.07907 2.92367 0
M  V30 2034 O 207.565 -2.53599 2.50132 0
M  V30 2035 O 206.424 -4.0632 3.65467 0
M  V30 2036 H 203.518 -0.638076 0.526106 0
M  V30 2037 H 206.064 -0.703235 1.54443 0
M  V30 2038 H 204.836 -1.91803 3.41068 0
M  V30 2039 H 204.459 -3.23479 2.31186 0
M  V30 2040 N 205.456 -1.28612 -0.910864 0
M  V30 2041 C 206.388 -1.08589 -2.01844 0
M  V30 2042 C 207.401 -0.0367419 -1.62759 0
M  V30 2043 O 208.59 -0.280101 -1.76289 0
M  V30 2044 C 205.69 -0.628626 -3.33019 0
M  V30 2045 C 204.863 -1.75382 -4.00699 0
M  V30 2046 C 203.922 -1.28945 -5.10156 0
M  V30 2047 O 202.948 -1.9922 -5.33198 0
M  V30 2048 N 204.15 -0.154224 -5.80295 0
M  V30 2049 H 206.915 -2.03973 -2.19579 0
M  V30 2050 H 204.476 -1.20403 -1.08234 0
M  V30 2051 H 206.468 -0.301508 -4.03575 0
M  V30 2052 H 205.038 0.232451 -3.11735 0
M  V30 2053 H 204.258 -2.25039 -3.23653 0
M  V30 2054 H 205.546 -2.50854 -4.42662 0
M  V30 2055 H 204.944 0.43194 -5.64049 0
M  V30 2056 H 203.501 0.113599 -6.51701 0
M  V30 2057 N 206.934 1.1197 -1.10907 0
M  V30 2058 C 207.867 2.16998 -0.706192 0
M  V30 2059 C 208.845 1.59903 0.294897 0
M  V30 2060 O 210.029 1.87513 0.192636 0
M  V30 2061 C 207.156 3.38673 -0.0427664 0
M  V30 2062 C 206.202 4.14414 -1.00811 0
M  V30 2063 S 207.035 4.72079 -2.52789 0
M  V30 2064 C 208.191 5.97083 -1.87731 0
M  V30 2065 H 208.424 2.50837 -1.59587 0
M  V30 2066 H 205.957 1.23508 -0.926555 0
M  V30 2067 H 207.915 4.09142 0.333668 0
M  V30 2068 H 206.576 3.03105 0.823788 0
M  V30 2069 H 205.769 5.016 -0.491259 0
M  V30 2070 H 205.371 3.49678 -1.3267 0
M  V30 2071 H 207.663 6.66599 -1.21044 0
M  V30 2072 H 208.606 6.53403 -2.72892 0
M  V30 2073 H 209.014 5.4837 -1.33979 0
M  V30 2074 N 208.412 0.89855 1.29475 0
M  V30 2075 C 209.637 0.538561 2.00285 0
M  V30 2076 C 210.062 -0.869135 1.66816 0
M  V30 2077 O 209.42 -1.57831 0.892145 0
M  V30 2078 C 209.468 0.736475 3.52999 0
M  V30 2079 O 208.572 -0.211537 4.11857 0
M  V30 2080 H 207.913 0.210563 0.62973 0
M  V30 2081 H 210.443 1.20982 1.64998 0
M  V30 2082 H 210.453 0.640685 4.02938 0
M  V30 2083 H 209.128 1.76276 3.76696 0
M  V30 2084 H 207.705 -0.0682991 3.72837 0
M  V30 2085 N 209.89 -1.43072 0.660911 0
M  V30 2086 C 211.136 -2.0202 0.177708 0
M  V30 2087 C 211.469 -1.52066 -1.20787 0
M  V30 2088 O 210.744 -0.716987 -1.80802 0
M  V30 2089 C 211.027 -3.59561 0.197019 0
M  V30 2090 C 210.88 -4.19727 1.61706 0
M  V30 2091 C 212.199 -4.37664 -0.462396 0
M  V30 2092 H 209.318 -0.734034 0.0660494 0
M  V30 2093 H 211.96 -1.70272 0.843058 0
M  V30 2094 H 210.11 -3.86739 -0.369527 0
M  V30 2095 H 211.782 -4.03553 2.23479 0
M  V30 2096 H 210.025 -3.76084 2.16201 0
M  V30 2097 H 210.696 -5.28834 1.58237 0
M  V30 2098 H 213.172 -4.16095 0.0197215 0
M  V30 2099 H 212.048 -5.47305 -0.418188 0
M  V30 2100 H 212.309 -4.14493 -1.53778 0
M  V30 2101 N 211.368 -0.403325 -1.52352 0
M  V30 2102 C 212.598 0.17376 -2.05868 0
M  V30 2103 C 213.006 1.39898 -1.27378 0
M  V30 2104 O 212.349 1.80939 -0.31729 0
M  V30 2105 C 212.411 0.594756 -3.54546 0
M  V30 2106 C 212.075 -0.518926 -4.54044 0
M  V30 2107 C 213.072 -1.3807 -5.01231 0
M  V30 2108 C 210.757 -0.689961 -4.97539 0
M  V30 2109 C 212.751 -2.39852 -5.90551 0
M  V30 2110 C 210.438 -1.71109 -5.86656 0
M  V30 2111 C 211.436 -2.56378 -6.33056 0
M  V30 2112 O 211.124 -3.56743 -7.20409 0
M  V30 2113 H 210.856 0.0264951 -0.675481 0
M  V30 2114 H 213.41 -0.571179 -1.97299 0
M  V30 2115 H 211.64 1.39189 -3.60782 0
M  V30 2116 H 213.329 1.0991 -3.90736 0
M  V30 2117 H 214.095 -1.25994 -4.68349 0
M  V30 2118 H 209.974 -0.035939 -4.60986 0
M  V30 2119 H 213.518 -3.06441 -6.26689 0
M  V30 2120 H 209.415 -1.83218 -6.18952 0
M  V30 2121 H 210.183 -3.52918 -7.38506 0
M  V30 2122 N 212.846 1.57033 -0.133567 0
M  V30 2123 C 214.092 1.95976 0.521649 0
M  V30 2124 C 214.425 1.01779 1.65393 0
M  V30 2125 O 213.7 0.0576581 1.94415 0
M  V30 2126 C 213.983 3.44738 1.04057 0
M  V30 2127 C 213.836 4.49711 -0.0892897 0
M  V30 2128 C 215.155 3.95682 1.92675 0
M  V30 2129 H 212.274 0.712579 0.188149 0
M  V30 2130 H 214.916 1.88813 -0.212076 0
M  V30 2131 H 213.066 3.50973 1.66583 0
M  V30 2132 H 214.738 4.55565 -0.725152 0
M  V30 2133 H 212.981 4.27261 -0.750378 0
M  V30 2134 H 213.652 5.51099 0.315284 0
M  V30 2135 H 216.128 3.91841 1.39998 0
M  V30 2136 H 215.004 5.00262 2.25897 0
M  V30 2137 H 215.265 3.37239 2.85872 0
M  V30 2138 N 214.325 -0.140222 1.56975 0
M  V30 2139 C 215.573 -0.850005 1.83356 0
M  V30 2140 C 215.894 -1.81399 0.71551 0
M  V30 2141 O 215.164 -1.94136 -0.262294 0
M  V30 2142 H 213.744 -0.316886 0.676456 0
M  V30 2143 H 216.406 -0.132608 1.94448 0
M  V30 2144 H 215.502 -1.40814 2.78528 0
M  V30 2145 N 215.803 -1.52179 -0.40978 0
M  V30 2146 C 217.219 -1.40968 -0.74835 0
M  V30 2147 C 217.419 -0.513657 -1.94843 0
M  V30 2148 O 216.475 0.0208026 -2.52491 0
M  V30 2149 C 217.788 -2.83483 -1.0029 0
M  V30 2150 C 219.336 -2.92821 -1.10565 0
M  V30 2151 C 219.811 -4.36303 -1.39296 0
M  V30 2152 N 221.302 -4.39535 -1.46162 0
M  V30 2153 C 222.037 -5.47614 -1.70018 0
M  V30 2154 N 221.533 -6.65812 -1.91483 0
M  V30 2155 N 223.326 -5.35129 -1.72027 0
M  V30 2156 H 215.477 -2.0897 0.380186 0
M  V30 2157 H 217.74 -0.94185 0.107805 0
M  V30 2158 H 217.446 -3.51168 -0.193461 0
M  V30 2159 H 217.32 -3.24487 -1.92323 0
M  V30 2160 H 219.707 -2.25318 -1.90568 0
M  V30 2161 H 219.788 -2.55276 -0.16369 0
M  V30 2162 H 219.432 -5.04366 -0.598109 0
M  V30 2163 H 219.362 -4.71385 -2.34743 0
M  V30 2164 H 221.853 -3.54332 -1.31367 0
M  V30 2165 H 222.166 -7.43964 -2.09134 0
M  V30 2166 H 220.511 -6.68879 -1.88749 0
M  V30 2167 H 223.702 -4.41764 -1.54796 0
M  V30 2168 H 223.875 -6.19433 -1.9028 0
M  V30 2169 N 217.281 0.66697 -1.42791 0
M  V30 2170 C 218.529 1.42417 -1.43394 0
M  V30 2171 C 218.85 1.94925 -0.0542373 0
M  V30 2172 O 218.12 1.73564 0.908415 0
M  V30 2173 H 216.7 0.528515 -0.527902 0
M  V30 2174 H 219.362 0.787562 -1.78279 0
M  V30 2175 H 218.458 2.27333 -2.13837 0
M  V30 2176 N 218.759 1.29093 0.90403 0
M  V30 2177 C 220.005 1.16986 1.65656 0
M  V30 2178 C 220.338 -0.278925 1.92186 0
M  V30 2179 O 219.613 -1.2019 1.5292 0
M  V30 2180 C 219.896 1.97908 3.0084 0
M  V30 2181 C 219.749 3.50903 2.81403 0
M  V30 2182 C 221.068 1.80208 4.01513 0
M  V30 2183 H 218.187 0.426346 0.601164 0
M  V30 2184 H 220.829 1.58518 1.04747 0
M  V30 2185 H 218.979 1.62616 3.52829 0
M  V30 2186 H 220.651 3.96153 2.36348 0
M  V30 2187 H 218.894 3.76045 2.1627 0
M  V30 2188 H 219.565 4.02791 3.77443 0
M  V30 2189 H 222.041 2.11025 3.58619 0
M  V30 2190 H 220.917 2.39184 4.94047 0
M  V30 2191 H 221.178 0.756119 4.35586 0
M  V30 2192 N 220.237 -1.11381 1.11499 0
M  V30 2193 C 221.485 -1.8277 0.862524 0
M  V30 2194 C 221.806 -1.85097 -0.613534 0
M  V30 2195 O 221.076 -1.32198 -1.4457 0
M  V30 2196 H 219.656 -0.676823 0.316101 0
M  V30 2197 H 222.318 -1.34816 1.4075 0
M  V30 2198 H 221.414 -2.86614 1.23527 0
M  V30 2199 N 221.715 -0.905404 -1.28997 0
M  V30 2200 C 222.963 -0.533192 -1.9494 0
M  V30 2201 C 223.284 0.924618 -1.71685 0
M  V30 2202 O 222.554 1.65268 -1.05183 0
M  V30 2203 H 221.134 -0.194194 -0.721317 0
M  V30 2204 H 223.796 -1.15294 -1.57141 0
M  V30 2205 H 222.892 -0.72059 -3.03667 0
M  V30 2206 N 223.193 1.4272 -0.668489 0
M  V30 2207 C 224.441 2.01226 -0.187769 0
M  V30 2208 C 224.762 1.53092 1.2078 0
M  V30 2209 O 224.032 0.74993 1.80977 0
M  V30 2210 H 222.612 0.744041 -0.0664272 0
M  V30 2211 H 225.274 1.74723 -0.863583 0
M  V30 2212 H 224.37 3.11556 -0.184166 0
M  V30 2213 N 224.671 0.411399 1.52136 0
M  V30 2214 C 225.896 -0.165538 2.06738 0
M  V30 2215 C 226.321 -1.379 1.27926 0
M  V30 2216 O 225.679 -1.78628 0.310114 0
M  V30 2217 C 225.727 -0.492124 3.57226 0
M  V30 2218 O 224.831 -1.58276 3.80818 0
M  V30 2219 H 224.172 -0.0132132 0.663869 0
M  V30 2220 H 226.702 0.585253 1.96051 0
M  V30 2221 H 226.712 -0.750104 4.01045 0
M  V30 2222 H 225.387 0.394922 4.14021 0
M  V30 2223 H 223.964 -1.31677 3.48877 0
M  V30 2224 N 226.149 -1.5696 0.141893 0
M  V30 2225 C 227.079 -2.19516 -0.795936 0
M  V30 2226 C 228.06 -1.14187 -1.26077 0
M  V30 2227 O 229.245 -1.42511 -1.31925 0
M  V30 2228 C 226.375 -2.81272 -2.03723 0
M  V30 2229 C 225.329 -3.92384 -1.70936 0
M  V30 2230 C 224.655 -4.41052 -3.02287 0
M  V30 2231 C 225.955 -5.13403 -0.959954 0
M  V30 2232 H 227.649 -2.98138 -0.274596 0
M  V30 2233 H 225.195 -1.43406 -0.130636 0
M  V30 2234 H 227.148 -3.237 -2.69808 0
M  V30 2235 H 225.872 -1.99973 -2.58221 0
M  V30 2236 H 224.531 -3.50566 -1.07232 0
M  V30 2237 H 224.179 -3.56582 -3.54765 0
M  V30 2238 H 223.879 -5.15993 -2.81114 0
M  V30 2239 H 225.403 -4.86146 -3.69451 0
M  V30 2240 H 226.817 -5.52706 -1.52279 0
M  V30 2241 H 225.214 -5.94073 -0.848357 0
M  V30 2242 H 226.284 -4.84875 0.0492434 0
M  V30 2243 N 227.627 0.131896 -1.57047 0
M  V30 2244 C 228.873 0.843179 -1.84441 0
M  V30 2245 C 229.206 1.80129 -0.725749 0
M  V30 2246 O 228.481 1.92624 0.269469 0
M  V30 2247 C 228.764 1.60442 -3.22382 0
M  V30 2248 C 228.617 0.666782 -4.4483 0
M  V30 2249 C 229.936 2.56354 -3.5773 0
M  V30 2250 H 227.055 0.305081 -0.670891 0
M  V30 2251 H 229.697 0.107839 -1.89694 0
M  V30 2252 H 227.847 2.23128 -3.18035 0
M  V30 2253 H 229.519 0.0497646 -4.61273 0
M  V30 2254 H 227.762 -0.022609 -4.33794 0
M  V30 2255 H 228.433 1.23579 -5.37989 0
M  V30 2256 H 230.909 2.0378 -3.62785 0
M  V30 2257 H 229.785 3.06657 -4.5525 0
M  V30 2258 H 230.046 3.38419 -2.84473 0
M  V30 2259 N 229.106 1.52395 0.401703 0
M  V30 2260 C 230.054 1.7689 1.51039 0
M  V30 2261 C 231.048 0.636298 1.56996 0
M  V30 2262 O 232.254 0.818507 1.60314 0
M  V30 2263 H 228.629 0.559502 0.502456 0
M  V30 2264 H 230.6 2.69757 1.27568 0
M  V30 2265 C 229.349 1.94331 2.88324 0
M  V30 2266 H 228.672 2.80905 2.84486 0
M  V30 2267 H 230.112 2.15466 3.65172 0
M  V30 2268 C 228.571 0.712396 3.29282 0
M  V30 2269 O 229.101 -0.116218 4.01532 0
M  V30 2270 N 227.307 0.546154 2.85422 0
M  V30 2271 H 226.854 1.22156 2.26794 0
M  V30 2272 H 226.812 -0.276113 3.13185 0
M  V30 2273 N 230.584 -0.659388 1.43143 0
M  V30 2274 C 231.832 -1.41654 1.44147 0
M  V30 2275 C 232.153 -1.94893 0.0645739 0
M  V30 2276 O 231.423 -1.74044 -0.899198 0
M  V30 2277 H 230.003 -0.525708 0.530697 0
M  V30 2278 H 232.665 -0.778097 1.78694 0
M  V30 2279 H 231.761 -2.26195 2.1504 0
M  V30 2280 N 232.062 -1.29571 -0.897171 0
M  V30 2281 C 233.31 -1.17456 -1.64464 0
M  V30 2282 C 233.631 0.273698 -1.9307 0
M  V30 2283 O 232.901 1.18684 -1.55855 0
M  V30 2284 H 231.481 -0.431706 -0.609622 0
M  V30 2285 H 234.143 -1.62531 -1.07562 0
M  V30 2286 H 233.239 -1.72648 -2.59998 0
M  V30 2287 N 233.54 1.10788 -1.12088 0
M  V30 2288 C 234.473 2.16237 -0.729168 0
M  V30 2289 C 235.451 1.60207 0.277921 0
M  V30 2290 O 236.635 1.87707 0.172737 0
M  V30 2291 C 233.762 3.38609 -0.0786848 0
M  V30 2292 C 232.808 4.13322 -1.05201 0
M  V30 2293 S 233.641 4.69371 -2.57781 0
M  V30 2294 C 234.797 5.95058 -1.94053 0
M  V30 2295 H 235.03 2.4913 -1.62239 0
M  V30 2296 H 232.563 1.22519 -0.939603 0
M  V30 2297 H 234.521 4.09473 0.290254 0
M  V30 2298 H 233.182 3.03962 0.791593 0
M  V30 2299 H 232.375 5.01051 -0.544433 0
M  V30 2300 H 231.977 3.48251 -1.36371 0
M  V30 2301 H 234.269 6.65278 -1.28107 0
M  V30 2302 H 235.212 6.50472 -2.79807 0
M  V30 2303 H 235.62 5.46918 -1.39787 0
M  V30 2304 N 235.018 0.912232 1.28515 0
M  V30 2305 C 235.981 0.404223 2.25607 0
M  V30 2306 C 236.981 -0.468602 1.53821 0
M  V30 2307 O 238.171 -0.271873 1.72065 0
M  V30 2308 C 235.303 -0.420653 3.38295 0
M  V30 2309 H 236.496 1.26188 2.7206 0
M  V30 2310 H 234.049 0.691495 1.40171 0
M  V30 2311 H 234.784 -1.29777 2.97201 0
M  V30 2312 H 234.569 0.204935 3.91564 0
M  V30 2313 H 236.059 -0.766971 4.10496 0
M  V30 2314 N 236.496 -1.42363 0.676048 0
M  V30 2315 C 237.742 -2.0182 0.199125 0
M  V30 2316 C 238.075 -1.53339 -1.19168 0
M  V30 2317 O 237.35 -0.736124 -1.80032 0
M  V30 2318 C 237.633 -3.59331 0.235144 0
M  V30 2319 C 237.486 -4.17989 1.66149 0
M  V30 2320 C 238.805 -4.3813 -0.41595 0
M  V30 2321 H 235.924 -0.733293 0.0738311 0
M  V30 2322 H 238.566 -1.69368 0.86107 0
M  V30 2323 H 236.716 -3.87109 -0.328487 0
M  V30 2324 H 238.388 -4.0116 2.27747 0
M  V30 2325 H 236.631 -3.7377 2.20178 0
M  V30 2326 H 237.302 -5.27126 1.63837 0
M  V30 2327 H 239.778 -4.16051 0.0638529 0
M  V30 2328 H 238.654 -5.47717 -0.360115 0
M  V30 2329 H 238.915 -4.16101 -1.49373 0
M  V30 2330 N 237.974 -0.419461 -1.51915 0
M  V30 2331 C 238.884 0.407528 -2.31033 0
M  V30 2332 C 239.9 1.04413 -1.3919 0
M  V30 2333 O 241.076 1.0434 -1.72265 0
M  V30 2334 C 238.141 1.50365 -3.12396 0
M  V30 2335 C 237.202 0.889029 -4.19994 0
M  V30 2336 C 236.435 1.93291 -4.97468 0
M  V30 2337 O 236.658 3.15259 -4.75361 0
M  V30 2338 O 235.592 1.53339 -5.8204 0
M  V30 2339 H 239.418 -0.237865 -3.02767 0
M  V30 2340 H 237.003 -0.182413 -1.48282 0
M  V30 2341 H 238.885 2.13975 -3.63032 0
M  V30 2342 H 237.56 2.13345 -2.43445 0
M  V30 2343 H 236.467 0.215353 -3.7348 0
M  V30 2344 H 237.8 0.302991 -4.91267 0
M  V30 2345 N 239.452 1.56882 -0.150215 0
M  V30 2346 C 240.863 1.82995 0.370076 0
M  V30 2347 C 241.214 1.06907 1.64515 0
M  V30 2348 O 240.339 0.315369 2.1409 0
M  V30 2349 C 240.934 3.31942 0.678208 0
M  V30 2350 C 239.493 3.58625 1.14301 0
M  V30 2351 C 238.64 2.76792 0.167778 0
M  V30 2352 H 241.591 1.54209 -0.374858 0
M  V30 2353 H 241.612 3.48272 1.53254 0
M  V30 2354 H 241.124 3.87294 -0.249991 0
M  V30 2355 H 239.225 3.08664 2.08704 0
M  V30 2356 H 239.338 4.67073 1.06676 0
M  V30 2357 H 237.702 2.45972 0.661037 0
M  V30 2358 H 238.485 3.34916 -0.754069 0
M  V30 2359 N 240.93 -0.123565 1.57115 0
M  V30 2360 C 241.877 -1.15177 2.00007 0
M  V30 2361 C 242.847 -1.41403 0.871454 0
M  V30 2362 O 244.032 -1.53346 1.13533 0
M  V30 2363 C 241.172 -2.47436 2.40561 0
M  V30 2364 C 240.285 -2.28184 3.66819 0
M  V30 2365 C 239.42 -3.53641 3.96373 0
M  V30 2366 C 238.459 -3.29528 5.15827 0
M  V30 2367 N 237.596 -4.47175 5.41275 0
M  V30 2368 H 242.436 -0.779008 2.87638 0
M  V30 2369 H 239.973 -0.373166 1.42288 0
M  V30 2370 H 241.931 -3.24584 2.62109 0
M  V30 2371 H 240.561 -2.82614 1.55978 0
M  V30 2372 H 239.613 -1.41976 3.52912 0
M  V30 2373 H 240.925 -2.0634 4.5412 0
M  V30 2374 H 240.079 -4.39209 4.18545 0
M  V30 2375 H 238.818 -3.78512 3.07538 0
M  V30 2376 H 237.823 -2.42349 4.93505 0
M  V30 2377 H 239.048 -3.06031 6.06236 0
M  V30 2378 H 236.994 -4.72175 4.55397 0
M  V30 2379 H 236.911 -4.28419 6.22891 0
M  V30 2380 H 238.179 -5.3389 5.67963 0
M  V30 2381 N 242.408 -1.52605 -0.393616 0
M  V30 2382 C 243.824 -1.41753 -0.733357 0
M  V30 2383 C 244.024 -0.534293 -1.94287 0
M  V30 2384 O 243.08 -0.0059787 -2.52499 0
M  V30 2385 C 244.393 -2.84531 -0.972772 0
M  V30 2386 C 245.941 -2.93978 -1.07453 0
M  V30 2387 C 246.416 -4.37756 -1.3466 0
M  V30 2388 N 247.907 -4.4106 -1.41492 0
M  V30 2389 C 248.642 -5.49387 -1.642 0
M  V30 2390 N 248.138 -6.67806 -1.8441 0
M  V30 2391 N 249.931 -5.36923 -1.66342 0
M  V30 2392 H 242.082 -2.08555 0.402328 0
M  V30 2393 H 244.345 -0.940654 0.117789 0
M  V30 2394 H 244.051 -3.51353 -0.156204 0
M  V30 2395 H 243.925 -3.26508 -1.88871 0
M  V30 2396 H 246.312 -2.27326 -1.88167 0
M  V30 2397 H 246.393 -2.55435 -0.136605 0
M  V30 2398 H 246.037 -5.04972 -0.544581 0
M  V30 2399 H 245.967 -4.73848 -2.2973 0
M  V30 2400 H 248.458 -3.55705 -1.27601 0
M  V30 2401 H 248.771 -7.46141 -2.01231 0
M  V30 2402 H 247.116 -6.70843 -1.81644 0
M  V30 2403 H 250.307 -4.43381 -1.50102 0
M  V30 2404 H 250.48 -6.21416 -1.837 0
M  V30 2405 N 243.887 0.651787 -1.4349 0
M  V30 2406 C 245.112 1.44434 -1.48841 0
M  V30 2407 C 245.537 1.8779 -0.107955 0
M  V30 2408 O 244.895 1.57464 0.898602 0
M  V30 2409 C 244.943 2.65458 -2.44059 0
M  V30 2410 O 244.047 3.64566 -1.92784 0
M  V30 2411 H 243.388 0.433005 -0.503391 0
M  V30 2412 H 245.918 0.797451 -1.88419 0
M  V30 2413 H 245.928 3.13255 -2.6141 0
M  V30 2414 H 244.603 2.33244 -3.4434 0
M  V30 2415 H 243.18 3.23716 -1.851 0
M  V30 2416 N 245.365 1.30045 0.890287 0
M  V30 2417 C 246.595 1.21296 1.67245 0
M  V30 2418 C 247.003 -0.227471 1.87828 0
M  V30 2419 O 246.346 -1.16296 1.422 0
M  V30 2420 C 246.408 1.86519 3.07329 0
M  V30 2421 C 246.072 3.35837 3.09939 0
M  V30 2422 C 247.069 4.31915 2.89389 0
M  V30 2423 C 244.754 3.77196 3.31706 0
M  V30 2424 C 246.748 5.67325 2.90552 0
M  V30 2425 C 244.435 5.12725 3.32499 0
M  V30 2426 C 245.433 6.076 3.11947 0
M  V30 2427 O 245.121 7.40655 3.12547 0
M  V30 2428 H 244.853 0.4211 0.528821 0
M  V30 2429 H 247.407 1.72111 1.12103 0
M  V30 2430 H 245.637 1.30228 3.64112 0
M  V30 2431 H 247.326 1.71963 3.67673 0
M  V30 2432 H 248.092 4.01294 2.72375 0
M  V30 2433 H 243.971 3.03796 3.4674 0
M  V30 2434 H 247.515 6.41354 2.74429 0
M  V30 2435 H 243.412 5.42988 3.49047 0
M  V30 2436 H 244.18 7.49577 3.28749 0
M  V30 2437 N 246.843 -1.10192 1.12674 0
M  V30 2438 C 248.09 -1.82205 0.883606 0
M  V30 2439 C 248.418 -1.8532 -0.590492 0
M  V30 2440 O 247.673 -1.31137 -1.45264 0
M  V30 2441 C 247.972 -3.28552 1.4067 0
M  V30 2442 C 247.638 -3.45582 2.89627 0
M  V30 2443 C 246.3 -3.49937 3.30299 0
M  V30 2444 C 248.652 -3.50768 3.85501 0
M  V30 2445 C 245.98 -3.57049 4.65546 0
M  V30 2446 C 248.332 -3.59414 5.20581 0
M  V30 2447 C 246.996 -3.62034 5.60792 0
M  V30 2448 H 246.266 -0.666735 0.323334 0
M  V30 2449 H 248.913 -1.29868 1.40736 0
M  V30 2450 H 247.218 -3.83473 0.80347 0
M  V30 2451 H 248.915 -3.82788 1.19475 0
M  V30 2452 H 245.505 -3.42871 2.57172 0
M  V30 2453 H 249.689 -3.46651 3.55171 0
M  V30 2454 H 244.945 -3.57361 4.96088 0
M  V30 2455 H 249.119 -3.62371 5.94693 0
M  V30 2456 H 246.746 -3.67298 6.6558 0
M  V30 2457 N 248.321 -0.919034 -1.28029 0
M  V30 2458 C 249.231 -0.416756 -2.30869 0
M  V30 2459 C 250.247 0.498235 -1.66714 0
M  V30 2460 O 251.423 0.383144 -1.97722 0
M  V30 2461 C 248.488 0.330274 -3.45123 0
M  V30 2462 C 247.549 -0.618578 -4.2482 0
M  V30 2463 C 246.782 0.0928959 -5.33619 0
M  V30 2464 O 247.005 1.31375 -5.55065 0
M  V30 2465 O 245.939 -0.574499 -5.99152 0
M  V30 2466 H 249.765 -1.27043 -2.75851 0
M  V30 2467 H 247.35 -0.684052 -1.3282 0
M  V30 2468 H 249.232 0.751972 -4.14636 0
M  V30 2469 H 247.907 1.1597 -3.02213 0
M  V30 2470 H 246.814 -1.08978 -3.57875 0
M  V30 2471 H 248.147 -1.41497 -4.71423 0
M  V30 2472 N 249.799 1.42003 -0.683588 0
M  V30 2473 C 250.709 2.34597 -0.0109075 0
M  V30 2474 C 251.725 1.55576 0.779245 0
M  V30 2475 O 252.901 1.88107 0.719555 0
M  V30 2476 C 249.966 3.34199 0.922588 0
M  V30 2477 C 249.027 4.29115 0.125984 0
M  V30 2478 C 248.26 5.23959 1.01502 0
M  V30 2479 O 248.483 5.23952 2.25456 0
M  V30 2480 O 247.417 6.00053 0.47111 0
M  V30 2481 H 251.243 2.93675 -0.773853 0
M  V30 2482 H 248.828 1.42654 -0.443861 0
M  V30 2483 H 250.71 3.95365 1.45823 0
M  V30 2484 H 249.385 2.77582 1.66523 0
M  V30 2485 H 248.292 3.71335 -0.453969 0
M  V30 2486 H 249.625 4.88798 -0.577736 0
M  V30 2487 N 251.277 0.427512 1.51691 0
M  V30 2488 C 252.526 -0.143679 2.01188 0
M  V30 2489 C 252.839 -1.44642 1.31674 0
M  V30 2490 O 254.045 -2.09997 1.72086 0
M  V30 2491 C 252.501 -0.306602 3.58592 0
M  V30 2492 C 252.109 0.985125 4.37035 0
M  V30 2493 C 253.853 -0.832091 4.16265 0
M  V30 2494 C 251.76 0.788382 5.86122 0
M  V30 2495 H 250.69 -0.0574701 0.751807 0
M  V30 2496 H 253.341 0.555772 1.74881 0
M  V30 2497 H 251.723 -1.06882 3.81303 0
M  V30 2498 H 252.897 1.75492 4.26074 0
M  V30 2499 H 251.212 1.4384 3.90767 0
M  V30 2500 H 253.809 -0.995617 5.25349 0
M  V30 2501 H 254.152 -1.81186 3.74803 0
M  V30 2502 H 254.685 -0.128444 3.97593 0
M  V30 2503 H 251.424 1.74025 6.31978 0
M  V30 2504 H 250.944 0.0582143 5.99772 0
M  V30 2505 H 252.623 0.437722 6.45518 0
M  V30 2506 N 252.755 -1.56801 0.158532 0
M  V30 2507 C 253.685 -2.20347 -0.772609 0
M  V30 2508 C 254.666 -1.15518 -1.24859 0
M  V30 2509 O 255.851 -1.43902 -1.30406 0
M  V30 2510 C 252.981 -2.83417 -2.00729 0
M  V30 2511 C 251.935 -3.94174 -1.66765 0
M  V30 2512 C 251.261 -4.44233 -2.97592 0
M  V30 2513 C 252.561 -5.14392 -0.905447 0
M  V30 2514 H 254.255 -2.98413 -0.242959 0
M  V30 2515 H 251.801 -1.43537 -0.115419 0
M  V30 2516 H 253.754 -3.26543 -2.6636 0
M  V30 2517 H 252.478 -2.02701 -2.56086 0
M  V30 2518 H 251.137 -3.51684 -1.03508 0
M  V30 2519 H 250.785 -3.60325 -3.50963 0
M  V30 2520 H 250.485 -5.18945 -2.75626 0
M  V30 2521 H 252.009 -4.90037 -3.64274 0
M  V30 2522 H 253.423 -5.5429 -1.46408 0
M  V30 2523 H 251.82 -5.9494 -0.7853 0
M  V30 2524 H 252.89 -4.84795 0.100668 0
M  V30 2525 N 254.233 0.115231 -1.57178 0
M  V30 2526 C 255.644 0.67197 -1.74188 0
M  V30 2527 C 255.995 1.80125 -0.777777 0
M  V30 2528 O 255.12 2.16346 0.0484376 0
M  V30 2529 C 255.715 1.22573 -3.1585 0
M  V30 2530 C 254.274 1.72872 -3.34353 0
M  V30 2531 C 253.421 0.629972 -2.70049 0
M  V30 2532 H 256.372 -0.110712 -1.58313 0
M  V30 2533 H 256.393 2.09535 -3.17609 0
M  V30 2534 H 255.905 0.403598 -3.85996 0
M  V30 2535 H 254.006 2.5755 -2.69256 0
M  V30 2536 H 254.119 1.83557 -4.42542 0
M  V30 2537 H 252.483 1.0645 -2.31388 0
M  V30 2538 H 253.266 -0.181241 -3.42821 0
M  V30 2539 N 255.711 1.52812 0.385517 0
M  V30 2540 C 257.127 1.4214 0.725829 0
M  V30 2541 C 257.327 0.544589 1.94001 0
M  V30 2542 O 256.383 0.0193693 2.52493 0
M  V30 2543 C 257.696 2.85042 0.957668 0
M  V30 2544 C 259.244 2.94543 1.05892 0
M  V30 2545 C 259.719 4.38464 1.32337 0
M  V30 2546 N 261.21 4.41804 1.39151 0
M  V30 2547 C 261.945 5.5025 1.61285 0
M  V30 2548 N 261.441 6.68775 1.80866 0
M  V30 2549 N 263.234 5.37798 1.63492 0
M  V30 2550 H 255.385 2.08338 -0.413383 0
M  V30 2551 H 257.648 0.940016 -0.122775 0
M  V30 2552 H 257.354 3.51431 0.137568 0
M  V30 2553 H 257.228 3.27505 1.87137 0
M  V30 2554 H 259.615 2.28321 1.86959 0
M  V30 2555 H 259.696 2.55504 0.123057 0
M  V30 2556 H 259.34 5.05254 0.517793 0
M  V30 2557 H 259.27 4.75059 2.27214 0
M  V30 2558 H 261.761 3.56377 1.25713 0
M  V30 2559 H 262.074 7.47197 1.97271 0
M  V30 2560 H 260.419 6.71797 1.78083 0
M  V30 2561 H 263.61 4.44171 1.47749 0
M  V30 2562 H 263.783 6.22382 1.80402 0
M  V30 2563 N 257.189 -0.644168 1.43834 0
M  V30 2564 C 258.435 -1.40603 1.46146 0
M  V30 2565 C 258.768 -1.93997 0.0887717 0
M  V30 2566 O 258.043 -1.72854 -0.891724 0
M  V30 2567 C 258.326 -2.58086 2.51124 0
M  V30 2568 C 258.179 -2.10126 3.97702 0
M  V30 2569 C 259.498 -3.60291 2.52742 0
M  V30 2570 H 256.617 -0.509905 0.532134 0
M  V30 2571 H 259.259 -0.729502 1.75437 0
M  V30 2572 H 257.409 -3.15801 2.26278 0
M  V30 2573 H 259.081 -1.57342 4.33637 0
M  V30 2574 H 257.324 -1.41419 4.10101 0
M  V30 2575 H 257.995 -2.94649 4.66783 0
M  V30 2576 H 260.471 -3.12352 2.7491 0
M  V30 2577 H 259.347 -4.40032 3.28121 0
M  V30 2578 H 259.608 -4.1349 1.56455 0
M  V30 2579 N 258.668 -1.30515 -0.883378 0
M  V30 2580 C 259.945 -1.10086 -1.6168 0
M  V30 2581 C 260.325 0.349269 -2.08191 0
M  V30 2582 O 259.673 1.34105 -1.85008 0
M  V30 2583 C 259.883 -2.10315 -2.78511 0
M  V30 2584 C 261.231 -2.42119 -3.48803 0
M  V30 2585 O 262.255 -2.08638 -2.88702 0
M  V30 2586 O 261.114 -2.99396 -4.57192 0
M  V30 2587 H 258.208 -0.422907 -0.710689 0
M  V30 2588 H 260.754 -1.41947 -0.930015 0
M  V30 2589 H 259.526 -3.07917 -2.41459 0
M  V30 2590 H 259.149 -1.79282 -3.54886 0
M  V30 2591 N 260.146 1.09593 -1.13257 0
M  V30 2592 C 261.371 1.8604 -0.916732 0
M  V30 2593 C 261.796 1.80504 0.529146 0
M  V30 2594 O 261.154 1.18127 1.37534 0
M  V30 2595 C 261.202 3.32017 -1.40703 0
M  V30 2596 O 260.306 4.08141 -0.591153 0
M  V30 2597 H 259.647 0.576943 -0.328683 0
M  V30 2598 H 262.177 1.38405 -1.50682 0
M  V30 2599 H 262.187 3.82865 -1.4099 0
M  V30 2600 H 260.862 3.35361 -2.45979 0
M  V30 2601 H 259.439 3.67084 -0.656005 0
M  V30 2602 N 261.624 0.925811 1.2754 0
M  V30 2603 C 262.849 0.580924 1.99098 0
M  V30 2604 C 263.274 -0.833555 1.68622 0
M  V30 2605 O 262.632 -1.55903 0.925422 0
M  V30 2606 C 262.68 0.811186 3.51358 0
M  V30 2607 O 261.784 -0.124129 4.12213 0
M  V30 2608 H 261.125 0.223873 0.625122 0
M  V30 2609 H 263.655 1.24455 1.62395 0
M  V30 2610 H 263.665 0.72601 4.01489 0
M  V30 2611 H 262.34 1.84227 3.72872 0
M  V30 2612 H 260.917 0.0108006 3.72898 0
M  V30 2613 N 263.102 -1.41638 0.69111 0
M  V30 2614 C 264.012 -2.34588 0.0233487 0
M  V30 2615 C 265.028 -1.55987 -0.770984 0
M  V30 2616 O 266.204 -1.88486 -0.709569 0
M  V30 2617 C 263.269 -3.34684 -0.904851 0
M  V30 2618 C 262.33 -4.29176 -0.103225 0
M  V30 2619 C 261.563 -5.2449 -0.987216 0
M  V30 2620 O 261.786 -5.2514 -2.22674 0
M  V30 2621 O 260.72 -6.00295 -0.439281 0
M  V30 2622 H 264.546 -2.93261 0.789416 0
M  V30 2623 H 262.131 -1.42417 0.45142 0
M  V30 2624 H 264.013 -3.96133 -1.43724 0
M  V30 2625 H 262.688 -2.78461 -1.65049 0
M  V30 2626 H 261.595 -3.71089 0.473655 0
M  V30 2627 H 262.928 -4.88484 0.60365 0
M  V30 2628 N 264.58 -0.43555 -1.51462 0
M  V30 2629 C 265.513 0.421989 -2.24264 0
M  V30 2630 C 266.491 1.02619 -1.26127 0
M  V30 2631 O 267.675 1.069 -1.55257 0
M  V30 2632 C 264.802 1.588 -2.99166 0
M  V30 2633 C 263.848 1.10465 -4.11946 0
M  V30 2634 S 264.681 0.048146 -5.35478 0
M  V30 2635 C 265.837 1.21887 -6.13917 0
M  V30 2636 H 266.07 -0.196102 -2.96653 0
M  V30 2637 H 263.603 -0.220054 -1.52824 0
M  V30 2638 H 265.561 2.25647 -3.42919 0
M  V30 2639 H 264.222 2.1775 -2.26371 0
M  V30 2640 H 263.415 1.97654 -4.63626 0
M  V30 2641 H 263.017 0.51445 -3.70445 0
M  V30 2642 H 265.309 2.13756 -6.42895 0
M  V30 2643 H 266.252 0.742076 -7.04201 0
M  V30 2644 H 266.66 1.45663 -5.45383 0
M  V30 2645 N 266.058 1.56714 -0.166846 0
M  V30 2646 C 267.288 2.00828 0.48494 0
M  V30 2647 C 267.696 1.04612 1.57648 0
M  V30 2648 O 267.039 0.0383201 1.8366 0
M  V30 2649 C 267.101 3.4137 1.12723 0
M  V30 2650 C 266.765 4.56654 0.177886 0
M  V30 2651 C 267.762 5.16402 -0.60207 0
M  V30 2652 C 265.447 5.02244 0.0750139 0
M  V30 2653 C 267.441 6.20167 -1.47215 0
M  V30 2654 C 265.128 6.05859 -0.798649 0
M  V30 2655 C 266.126 6.64691 -1.57082 0
M  V30 2656 O 265.814 7.66297 -2.42989 0
M  V30 2657 H 265.546 0.663587 0.128953 0
M  V30 2658 H 268.1 2.03692 -0.264365 0
M  V30 2659 H 266.33 3.35406 1.92457 0
M  V30 2660 H 268.019 3.69466 1.68076 0
M  V30 2661 H 268.785 4.82065 -0.53274 0
M  V30 2662 H 264.664 4.56167 0.665812 0
M  V30 2663 H 268.208 6.66016 -2.07531 0
M  V30 2664 H 264.105 6.39621 -0.869199 0
M  V30 2665 H 264.873 7.83601 -2.36455 0
M  V30 2666 N 267.536 -0.106894 1.57237 0
M  V30 2667 C 268.813 -0.843526 1.76477 0
M  V30 2668 C 269.193 -1.97499 0.745464 0
M  V30 2669 O 268.541 -2.27357 -0.228306 0
M  V30 2670 C 268.751 -1.34903 3.21873 0
M  V30 2671 C 270.099 -1.79654 3.8472 0
M  V30 2672 O 271.123 -1.44554 3.2555 0
M  V30 2673 O 269.982 -2.44515 4.88748 0
M  V30 2674 H 267.076 -0.401468 0.723016 0
M  V30 2675 H 269.622 -0.0896927 1.69463 0
M  V30 2676 H 268.394 -0.53781 3.87586 0
M  V30 2677 H 268.017 -2.16522 3.33473 0
M  V30 2678 N 269.014 -1.53014 -0.377408 0
M  V30 2679 C 270.43 -1.42523 -0.718281 0
M  V30 2680 C 270.63 -0.55487 -1.9371 0
M  V30 2681 O 269.686 -0.0327593 -2.52479 0
M  V30 2682 C 270.999 -2.85546 -0.942539 0
M  V30 2683 C 272.547 -2.95101 -1.04329 0
M  V30 2684 C 273.022 -4.3916 -1.3001 0
M  V30 2685 N 274.513 -4.42536 -1.36806 0
M  V30 2686 C 275.248 -5.51097 -1.58364 0
M  V30 2687 N 274.744 -6.69724 -1.77317 0
M  V30 2688 N 276.537 -5.38657 -1.60638 0
M  V30 2689 H 268.688 -2.08116 0.424426 0
M  V30 2690 H 270.951 -0.939352 0.127759 0
M  V30 2691 H 270.657 -3.51499 -0.118929 0
M  V30 2692 H 270.531 -3.28493 -1.85397 0
M  V30 2693 H 272.918 -2.29309 -1.85745 0
M  V30 2694 H 272.999 -2.55566 -0.109505 0
M  V30 2695 H 272.643 -5.05521 -0.490991 0
M  V30 2696 H 272.573 -4.76258 -2.24691 0
M  V30 2697 H 275.064 -3.57039 -1.23821 0
M  V30 2698 H 275.377 -7.48233 -1.93306 0
M  V30 2699 H 273.722 -6.72732 -1.74518 0
M  V30 2700 H 276.913 -4.44948 -1.45391 0
M  V30 2701 H 277.086 -6.2333 -1.77098 0
M  V30 2702 N 270.492 0.636531 -1.44174 0
M  V30 2703 C 271.722 1.42146 -1.49927 0
M  V30 2704 C 272.13 1.88812 -0.121063 0
M  V30 2705 O 271.473 1.61126 0.882267 0
M  V30 2706 C 271.535 2.67883 -2.39748 0
M  V30 2707 C 271.199 2.43048 -3.8701 0
M  V30 2708 C 272.196 2.05216 -4.77684 0
M  V30 2709 C 269.881 2.56856 -4.3166 0
M  V30 2710 C 271.875 1.81512 -6.11009 0
M  V30 2711 C 269.562 2.32766 -5.65034 0
M  V30 2712 C 270.56 1.95152 -6.54526 0
M  V30 2713 O 270.248 1.71326 -7.85431 0
M  V30 2714 H 269.98 0.442567 -0.51099 0
M  V30 2715 H 272.534 0.786158 -1.8976 0
M  V30 2716 H 270.764 3.34032 -1.94832 0
M  V30 2717 H 272.453 3.29874 -2.36513 0
M  V30 2718 H 273.219 1.94111 -4.44462 0
M  V30 2719 H 269.098 2.85104 -3.62266 0
M  V30 2720 H 272.642 1.52077 -6.80822 0
M  V30 2721 H 268.539 2.43479 -5.97819 0
M  V30 2722 H 269.307 1.85616 -7.97176 0
M  V30 2723 N 271.97 1.30982 0.876444 0
M  V30 2724 C 273.217 1.20296 1.62896 0
M  V30 2725 C 273.545 -0.240395 1.93009 0
M  V30 2726 O 272.8 -1.18733 1.55567 0
M  V30 2727 C 273.099 1.98572 2.9716 0
M  V30 2728 C 272.765 3.48125 2.86566 0
M  V30 2729 C 271.427 3.88905 2.83383 0
M  V30 2730 C 273.779 4.43322 2.74071 0
M  V30 2731 C 271.107 5.2316 2.65556 0
M  V30 2732 C 273.459 5.77695 2.57781 0
M  V30 2733 C 272.123 6.17704 2.52979 0
M  V30 2734 H 271.393 0.440193 0.59608 0
M  V30 2735 H 274.04 1.62177 1.01837 0
M  V30 2736 H 272.345 1.49352 3.62217 0
M  V30 2737 H 274.042 1.8769 3.54364 0
M  V30 2738 H 270.632 3.15723 2.89856 0
M  V30 2739 H 274.816 4.12752 2.75589 0
M  V30 2740 H 270.072 5.53241 2.60259 0
M  V30 2741 H 274.246 6.51091 2.47089 0
M  V30 2742 H 271.873 7.21678 2.38924 0
M  V30 2743 N 273.449 -1.08991 1.13837 0
M  V30 2744 C 274.86 -1.62746 0.914917 0
M  V30 2745 C 275.211 -1.88403 -0.547594 0
M  V30 2746 O 274.336 -1.63706 -1.41525 0
M  V30 2747 C 274.931 -2.95662 1.65437 0
M  V30 2748 C 273.49 -3.46225 1.47666 0
M  V30 2749 C 272.637 -2.20562 1.6807 0
M  V30 2750 H 275.588 -0.922946 1.29102 0
M  V30 2751 H 275.609 -3.63825 1.11407 0
M  V30 2752 H 275.121 -2.76956 2.71877 0
M  V30 2753 H 273.222 -3.70046 0.435478 0
M  V30 2754 H 273.335 -4.23368 2.24268 0
M  V30 2755 H 271.699 -2.29439 1.10589 0
M  V30 2756 H 272.482 -2.0437 2.7584 0
M  V30 2757 N 274.927 -0.932562 -1.27047 0
M  V30 2758 C 276.343 -0.633544 -1.46487 0
M  V30 2759 C 276.543 0.815746 -1.84249 0
M  V30 2760 O 275.599 1.59319 -1.95892 0
M  V30 2761 C 276.912 -1.58758 -2.55375 0
M  V30 2762 C 278.46 -1.59634 -2.69232 0
M  V30 2763 C 278.935 -2.53747 -3.81283 0
M  V30 2764 N 280.426 -2.51982 -3.88664 0
M  V30 2765 C 281.161 -3.21491 -4.74796 0
M  V30 2766 N 280.657 -4.00395 -5.65381 0
M  V30 2767 N 282.45 -3.10485 -4.68568 0
M  V30 2768 H 274.601 -1.86946 -1.00821 0
M  V30 2769 H 276.864 -0.802897 -0.504044 0
M  V30 2770 H 276.57 -2.62172 -2.34432 0
M  V30 2771 H 276.444 -1.33301 -3.52861 0
M  V30 2772 H 278.831 -0.569488 -2.89553 0
M  V30 2773 H 278.912 -1.89142 -1.72218 0
M  V30 2774 H 278.556 -3.56545 -3.61715 0
M  V30 2775 H 278.486 -2.21532 -4.77735 0
M  V30 2776 H 280.977 -1.94681 -3.23895 0
M  V30 2777 H 281.29 -4.50406 -6.27976 0
M  V30 2778 H 279.635 -4.04498 -5.65161 0
M  V30 2779 H 282.826 -2.48331 -3.96799 0
M  V30 2780 H 282.999 -3.64925 -5.35475 0
M  V30 2781 N 276.405 1.4127 -0.698611 0
M  V30 2782 C 277.368 2.29158 -0.044132 0
M  V30 2783 C 278.368 1.44529 0.704841 0
M  V30 2784 O 279.558 1.65643 0.539276 0
M  V30 2785 C 276.69 3.27459 0.947809 0
M  V30 2786 H 277.883 2.88529 -0.817994 0
M  V30 2787 H 275.436 1.49307 -0.46228 0
M  V30 2788 H 276.171 2.73073 1.74933 0
M  V30 2789 H 275.956 3.8991 0.41385 0
M  V30 2790 H 277.446 3.93311 1.40344 0
M  V30 2791 N 277.883 0.443576 1.51229 0
M  V30 2792 C 278.831 -0.37904 2.29491 0
M  V30 2793 C 279.825 -1.0153 1.35603 0
M  V30 2794 O 281.031 -0.94955 1.52917 0
M  V30 2795 H 277.406 -0.141053 0.738653 0
M  V30 2796 H 279.377 0.301799 2.9687 0
M  V30 2797 C 278.126 -1.46426 3.15364 0
M  V30 2798 H 277.449 -0.984037 3.87501 0
M  V30 2799 H 278.889 -2.01297 3.7317 0
M  V30 2800 C 277.348 -2.45099 2.31146 0
M  V30 2801 O 277.878 -3.49773 1.9754 0
M  V30 2802 N 276.084 -2.16139 1.94249 0
M  V30 2803 H 275.631 -1.31044 2.21777 0
M  V30 2804 H 275.589 -2.82398 1.38198 0
M  V30 2805 N 279.361 -1.56624 0.175154 0
M  V30 2806 C 280.586 -2.01813 -0.478137 0
M  V30 2807 C 281.011 -1.05457 -1.55757 0
M  V30 2808 O 280.369 -0.0347439 -1.81267 0
M  V30 2809 C 280.417 -3.45581 -1.02987 0
M  V30 2810 O 279.521 -3.52305 -2.14371 0
M  V30 2811 H 278.862 -0.65413 -0.114059 0
M  V30 2812 H 281.392 -2.02673 0.280173 0
M  V30 2813 H 281.402 -3.84965 -1.35151 0
M  V30 2814 H 280.077 -4.1521 -0.239556 0
M  V30 2815 H 278.654 -3.24783 -1.83222 0
M  V30 2816 N 280.839 0.0985539 -1.57292 0
M  V30 2817 C 281.772 1.15082 -1.97057 0
M  V30 2818 C 282.75 1.39025 -0.843255 0
M  V30 2819 O 283.934 1.52842 -1.10325 0
M  V30 2820 C 281.061 2.50069 -2.28437 0
M  V30 2821 C 280.107 2.42428 -3.509 0
M  V30 2822 S 280.94 1.84414 -5.02744 0
M  V30 2823 C 282.096 3.21032 -5.37298 0
M  V30 2824 H 282.329 0.811815 -2.86002 0
M  V30 2825 H 279.862 0.306102 -1.51335 0
M  V30 2826 H 281.82 3.27729 -2.47192 0
M  V30 2827 H 280.481 2.8114 -1.40069 0
M  V30 2828 H 279.674 3.41911 -3.70288 0
M  V30 2829 H 279.276 1.72896 -3.31637 0
M  V30 2830 H 281.568 4.17297 -5.33731 0
M  V30 2831 H 282.511 3.06452 -6.38352 0
M  V30 2832 H 282.919 3.20404 -4.64759 0
M  V30 2833 N 282.317 1.53212 0.369288 0
M  V30 2834 C 283.247 1.82365 1.45826 0
M  V30 2835 C 284.228 0.676907 1.56051 0
M  V30 2836 O 285.413 0.926401 1.70679 0
M  V30 2837 C 282.543 2.01023 2.83208 0
M  V30 2838 C 281.497 3.1678 2.8781 0
M  V30 2839 C 280.823 3.20724 4.27832 0
M  V30 2840 C 282.123 4.55447 2.55667 0
M  V30 2841 H 283.817 2.73559 1.21678 0
M  V30 2842 H 281.363 1.3163 0.583911 0
M  V30 2843 H 283.316 2.20001 3.59413 0
M  V30 2844 H 282.04 1.06536 3.08736 0
M  V30 2845 H 280.699 2.97616 2.14056 0
M  V30 2846 H 280.347 2.23882 4.50429 0
M  V30 2847 H 280.047 3.98496 4.31827 0
M  V30 2848 H 281.571 3.41881 5.05915 0
M  V30 2849 H 282.985 4.74611 3.21586 0
M  V30 2850 H 281.382 5.35432 2.70984 0
M  V30 2851 H 282.452 4.60812 1.5093 0
M  V30 2852 N 283.795 -0.628877 1.44509 0
M  V30 2853 C 285.211 -0.947305 1.28446 0
M  V30 2854 C 285.411 -2.00275 0.221872 0
M  V30 2855 O 284.467 -2.49447 -0.391471 0
M  V30 2856 C 285.78 -1.40843 2.65676 0
M  V30 2857 C 287.328 -1.52379 2.73404 0
M  V30 2858 C 287.803 -2.01875 4.11109 0
M  V30 2859 N 289.294 -2.09142 4.13296 0
M  V30 2860 C 290.029 -2.48615 5.16699 0
M  V30 2861 N 289.525 -2.87209 6.30462 0
M  V30 2862 N 291.318 -2.48768 5.04054 0
M  V30 2863 H 283.469 0.0690977 2.12288 0
M  V30 2864 H 285.732 -0.0317164 0.947469 0
M  V30 2865 H 285.438 -0.707206 3.44516 0
M  V30 2866 H 285.312 -2.37902 2.92716 0
M  V30 2867 H 287.699 -2.21598 1.9488 0
M  V30 2868 H 287.78 -0.536898 2.50102 0
M  V30 2869 H 287.424 -1.3325 4.90109 0
M  V30 2870 H 287.354 -3.0144 4.31789 0
M  V30 2871 H 289.845 -1.81991 3.31191 0
M  V30 2872 H 290.158 -3.16149 7.05174 0
M  V30 2873 H 288.503 -2.84955 6.33897 0
M  V30 2874 H 291.694 -2.18009 4.14234 0
M  V30 2875 H 291.867 -2.79207 5.84763 0
M  V30 2876 N 285.273 -1.31445 -0.869486 0
M  V30 2877 C 286.519 -1.21337 -1.62496 0
M  V30 2878 C 286.852 0.227872 -1.92858 0
M  V30 2879 O 286.127 1.16094 -1.56053 0
M  V30 2880 C 286.41 -2.05814 -2.95487 0
M  V30 2881 C 286.263 -3.5824 -2.72 0
M  V30 2882 C 287.582 -1.9079 -3.96594 0
M  V30 2883 H 284.701 -0.442135 -0.589649 0
M  V30 2884 H 287.343 -1.6124 -1.00507 0
M  V30 2885 H 285.493 -1.71913 -3.48394 0
M  V30 2886 H 287.165 -4.0228 -2.25762 0
M  V30 2887 H 285.408 -3.81647 -2.06224 0
M  V30 2888 H 286.079 -4.12657 -3.66631 0
M  V30 2889 H 288.555 -2.20459 -3.52898 0
M  V30 2890 H 287.431 -2.52199 -4.87531 0
M  V30 2891 H 287.692 -0.871341 -4.33428 0
M  V30 2892 N 286.751 1.08385 -1.14413 0
M  V30 2893 C 287.699 2.17406 -0.826888 0
M  V30 2894 C 288.693 1.6827 0.195312 0
M  V30 2895 O 289.899 1.79927 0.0513892 0
M  V30 2896 H 286.274 0.70934 -0.249681 0
M  V30 2897 H 288.245 2.41388 -1.75426 0
M  V30 2898 C 286.994 3.46215 -0.320979 0
M  V30 2899 H 286.317 3.84401 -1.0989 0
M  V30 2900 H 287.757 4.23777 -0.137549 0
M  V30 2901 C 286.216 3.23067 0.955472 0
M  V30 2902 O 286.746 3.4668 2.02918 0
M  V30 2903 N 284.952 2.7661 0.890798 0
M  V30 2904 H 284.499 2.57594 0.0168815 0
M  V30 2905 H 284.457 2.61501 1.74542 0
M  V30 2906 N 288.23 0.939286 1.26551 0
M  V30 2907 C 289.18 0.418284 2.2413 0
M  V30 2908 C 290.164 -0.483935 1.5345 0
M  V30 2909 O 291.356 -0.319489 1.74093 0
M  V30 2910 C 288.485 -0.31709 3.41832 0
M  V30 2911 C 287.571 0.602311 4.19801 0
M  V30 2912 N 287.962 1.72726 4.75394 0
M  V30 2913 C 286.26 0.407534 4.44134 0
M  V30 2914 C 286.961 2.30004 5.34297 0
M  V30 2915 N 285.937 1.58828 5.1988 0
M  V30 2916 H 289.739 1.27705 2.64705 0
M  V30 2917 H 287.253 0.794929 1.41614 0
M  V30 2918 H 289.25 -0.707364 4.10855 0
M  V30 2919 H 287.91 -1.17264 3.02786 0
M  V30 2920 H 288.921 2.10944 4.72994 0
M  V30 2921 H 285.598 -0.406406 4.15517 0
M  V30 2922 H 286.988 3.24778 5.88191 0
M  V30 2923 N 289.708 -1.40897 0.706093 0
M  V30 2924 C 290.957 -2.00284 0.238574 0
M  V30 2925 C 291.27 -1.56604 -1.17194 0
M  V30 2926 O 292.476 -2.08624 -1.73748 0
M  V30 2927 C 290.932 -3.57934 0.375623 0
M  V30 2928 C 290.54 -4.10591 1.79217 0
M  V30 2929 C 292.284 -4.24488 -0.0315857 0
M  V30 2930 C 290.191 -5.60712 1.88032 0
M  V30 2931 H 289.121 -0.749144 0.0854398 0
M  V30 2932 H 291.772 -1.61251 0.875813 0
M  V30 2933 H 290.154 -3.94622 -0.330042 0
M  V30 2934 H 291.328 -3.85301 2.52745 0
M  V30 2935 H 289.643 -3.56601 2.15 0
M  V30 2936 H 292.24 -5.34698 0.0136842 0
M  V30 2937 H 292.583 -4.02261 -1.072 0
M  V30 2938 H 293.116 -3.92873 0.624181 0
M  V30 2939 H 289.855 -5.87781 2.90161 0
M  V30 2940 H 289.375 -5.87896 1.18903 0
M  V30 2941 H 291.054 -6.25658 1.64805 0
M  V30 2942 N 291.186 -0.45159 -1.50991 0
M  V30 2943 C 292.463 0.170707 -1.94854 0
M  V30 2944 C 292.843 1.58788 -1.39103 0
M  V30 2945 O 292.191 2.20913 -0.583921 0
M  V30 2946 C 292.401 0.133929 -3.48743 0
M  V30 2947 C 293.749 0.33248 -4.23296 0
M  V30 2948 O 294.773 0.211403 -3.55572 0
M  V30 2949 O 293.632 0.57486 -5.43468 0
M  V30 2950 H 290.726 0.122264 -0.817912 0
M  V30 2951 H 293.272 -0.510594 -1.61836 0
M  V30 2952 H 292.044 -0.856283 -3.81816 0
M  V30 2953 H 291.667 0.857529 -3.88242 0
M  V30 2954 N 292.664 1.56529 -0.183458 0
M  V30 2955 C 293.892 2.01623 0.464285 0
M  V30 2956 C 294.307 1.06366 1.55986 0
M  V30 2957 O 293.664 0.0665398 1.82379 0
M  V30 2958 C 293.715 3.46475 1.03139 0
M  V30 2959 O 293.436 4.38095 -0.0204675 0
M  V30 2960 C 294.937 4.0703 1.75617 0
M  V30 2961 H 292.157 0.660596 0.117704 0
M  V30 2962 H 294.701 2.02451 -0.288751 0
M  V30 2963 H 292.856 3.46383 1.73486 0
M  V30 2964 H 293.27 5.22973 0.399952 0
M  V30 2965 H 294.744 5.10271 2.10542 0
M  V30 2966 H 295.221 3.49819 2.65563 0
M  V30 2967 H 295.827 4.1086 1.09882 0
M  V30 2968 N 294.142 -0.090211 1.57342 0
M  V30 2969 C 295.089 -1.10909 2.02405 0
M  V30 2970 C 296.059 -1.39523 0.901252 0
M  V30 2971 O 297.244 -1.50903 1.1676 0
M  V30 2972 C 294.384 -2.42277 2.45755 0
M  V30 2973 C 293.497 -2.20352 3.71576 0
M  V30 2974 C 292.632 -3.45154 4.03785 0
M  V30 2975 C 291.671 -3.18512 5.22701 0
M  V30 2976 N 290.808 -4.35593 5.50639 0
M  V30 2977 H 295.648 -0.71782 2.89225 0
M  V30 2978 H 293.185 -0.342901 1.43048 0
M  V30 2979 H 295.143 -3.18951 2.68935 0
M  V30 2980 H 293.773 -2.79242 1.61938 0
M  V30 2981 H 292.825 -1.34458 3.55844 0
M  V30 2982 H 294.137 -1.96661 4.58395 0
M  V30 2983 H 293.291 -4.30233 4.27767 0
M  V30 2984 H 292.03 -3.71904 3.15498 0
M  V30 2985 H 291.035 -2.31827 4.98534 0
M  V30 2986 H 292.26 -2.93103 6.12591 0
M  V30 2987 H 290.206 -4.6241 4.6531 0
M  V30 2988 H 290.123 -4.1511 6.31838 0
M  V30 2989 H 291.391 -5.21723 5.7916 0
M  V30 2990 N 295.62 -1.53406 -0.361157 0
M  V30 2991 C 296.866 -1.70999 -1.1014 0
M  V30 2992 C 297.221 -0.458425 -1.86859 0
M  V30 2993 O 296.514 0.548654 -1.83577 0
M  V30 2994 C 296.708 -2.90211 -2.08596 0
M  V30 2995 C 296.537 -4.26841 -1.41553 0
M  V30 2996 C 295.307 -4.91621 -1.16778 0
M  V30 2997 C 297.505 -5.07212 -0.850915 0
M  V30 2998 N 295.487 -6.12164 -0.461312 0
M  V30 2999 C 296.858 -6.19394 -0.274046 0
M  V30 3000 C 298.913 -4.92218 -0.750036 0
M  V30 3001 C 297.616 -7.18221 0.393868 0
M  V30 3002 C 299.642 -5.91322 -0.095894 0
M  V30 3003 C 299.004 -7.0283 0.470081 0
M  V30 3004 H 295.103 -0.678939 -0.388028 0
M  V30 3005 H 297.687 -1.90811 -0.38722 0
M  V30 3006 H 295.858 -2.71931 -2.77323 0
M  V30 3007 H 297.59 -2.96606 -2.7533 0
M  V30 3008 H 294.345 -4.50849 -1.45024 0
M  V30 3009 H 294.769 -6.76888 -0.123312 0
M  V30 3010 H 299.411 -4.06192 -1.17337 0
M  V30 3011 H 297.129 -8.03835 0.82914 0
M  V30 3012 H 300.715 -5.81797 -0.0187075 0
M  V30 3013 H 299.595 -7.782 0.968241 0
M  V30 3014 N 297.098 0.621204 -1.44841 0
M  V30 3015 C 298.345 1.38055 -1.48145 0
M  V30 3016 C 298.673 1.94143 -0.117867 0
M  V30 3017 O 297.928 1.74713 0.881694 0
M  V30 3018 C 298.227 2.55675 -2.4973 0
M  V30 3019 C 297.893 2.17817 -3.94799 0
M  V30 3020 C 296.555 2.07205 -4.34303 0
M  V30 3021 C 298.907 1.88065 -4.86087 0
M  V30 3022 C 296.235 1.65045 -5.63007 0
M  V30 3023 C 298.587 1.47394 -6.15189 0
M  V30 3024 C 297.251 1.35331 -6.53637 0
M  V30 3025 H 296.521 0.505181 -0.542101 0
M  V30 3026 H 299.168 0.703477 -1.78111 0
M  V30 3027 H 297.473 3.2866 -2.13284 0
M  V30 3028 H 299.17 3.13904 -2.4953 0
M  V30 3029 H 295.76 2.26998 -3.63552 0
M  V30 3030 H 299.944 1.95168 -4.56315 0
M  V30 3031 H 295.2 1.54317 -5.91605 0
M  V30 3032 H 299.374 1.23415 -6.85377 0
M  V30 3033 H 297.001 1.02435 -7.53267 0
M  V30 3034 N 298.576 1.31904 0.862503 0
M  V30 3035 C 299.486 1.22161 2.00285 0
M  V30 3036 C 300.502 0.136785 1.73462 0
M  V30 3037 O 301.678 0.355994 1.98229 0
M  V30 3038 C 298.743 0.937093 3.33796 0
M  V30 3039 C 297.804 2.10957 3.73893 0
M  V30 3040 C 297.037 1.83853 5.01033 0
M  V30 3041 O 297.26 0.777274 5.65079 0
M  V30 3042 O 296.194 2.69741 5.38074 0
M  V30 3043 H 300.02 2.18008 2.11439 0
M  V30 3044 H 297.605 1.11716 0.991957 0
M  V30 3045 H 299.487 0.794583 4.13841 0
M  V30 3046 H 298.162 0.00871894 3.23699 0
M  V30 3047 H 297.069 2.30752 2.94456 0
M  V30 3048 H 298.402 3.02046 3.88625 0
M  V30 3049 N 300.054 -1.07777 1.14986 0
M  V30 3050 C 301.331 -1.7699 0.832695 0
M  V30 3051 C 301.711 -2.001 -0.672561 0
M  V30 3052 O 301.059 -1.61598 -1.6155 0
M  V30 3053 C 301.269 -3.08139 1.63863 0
M  V30 3054 C 302.617 -3.8256 1.84208 0
M  V30 3055 O 303.641 -3.17939 1.60603 0
M  V30 3056 O 302.5 -4.98612 2.23714 0
M  V30 3057 H 299.594 -0.768389 0.305791 0
M  V30 3058 H 302.14 -1.14182 1.25541 0
M  V30 3059 H 300.912 -2.86909 2.6608 0
M  V30 3060 H 300.535 -3.78678 1.21197 0
M  V30 3061 N 301.532 -0.945985 -1.26051 0
M  V30 3062 C 302.76 -0.613025 -1.9761 0
M  V30 3063 C 303.175 0.813035 -1.70397 0
M  V30 3064 O 302.532 1.54274 -0.974979 0
M  V30 3065 C 302.583 -0.85159 -3.51326 0
M  V30 3066 O 302.304 -2.22157 -3.77595 0
M  V30 3067 C 303.805 -0.529831 -4.40122 0
M  V30 3068 H 301.025 -0.230593 -0.630133 0
M  V30 3069 H 303.569 -1.268 -1.60443 0
M  V30 3070 H 301.724 -0.243151 -3.86636 0
M  V30 3071 H 302.138 -2.2852 -4.721 0
M  V30 3072 H 303.612 -0.747348 -5.46917 0
M  V30 3073 H 304.089 0.535341 -4.35925 0
M  V30 3074 H 304.695 -1.11721 -4.10364 0
M  V30 3075 N 303.011 1.40521 -0.713556 0
M  V30 3076 C 303.921 2.34522 -0.0606667 0
M  V30 3077 C 304.937 1.57193 0.74607 0
M  V30 3078 O 306.113 1.89591 0.679493 0
M  V30 3079 C 303.178 3.36081 0.851491 0
M  V30 3080 C 302.239 4.29286 0.0349339 0
M  V30 3081 C 301.472 5.25994 0.903649 0
M  V30 3082 O 301.695 5.28616 2.14292 0
M  V30 3083 O 300.629 6.00918 0.343723 0
M  V30 3084 H 304.455 2.91968 -0.835972 0
M  V30 3085 H 302.04 1.41681 -0.47402 0
M  V30 3086 H 303.922 3.98369 1.37404 0
M  V30 3087 H 302.597 2.81052 1.60598 0
M  V30 3088 H 301.504 3.70289 -0.532633 0
M  V30 3089 H 302.837 4.87462 -0.681287 0
M  V30 3090 N 304.489 0.459591 1.5075 0
M  V30 3091 C 305.735 -0.091664 2.03193 0
M  V30 3092 C 306.09 -1.38432 1.3362 0
M  V30 3093 O 305.383 -1.86257 0.449322 0
M  V30 3094 C 305.577 -0.342866 3.55752 0
M  V30 3095 C 305.406 0.923888 4.40107 0
M  V30 3096 C 304.176 1.46388 4.83631 0
M  V30 3097 C 306.374 1.81617 4.81165 0
M  V30 3098 N 304.356 2.68086 5.52271 0
M  V30 3099 C 305.727 2.87907 5.49099 0
M  V30 3100 C 307.782 1.82793 4.63132 0
M  V30 3101 C 306.485 3.95347 6.0091 0
M  V30 3102 C 308.511 2.89182 5.15876 0
M  V30 3103 C 307.873 3.94191 5.83774 0
M  V30 3104 H 303.972 0.00619247 0.781975 0
M  V30 3105 H 306.556 0.625233 1.84388 0
M  V30 3106 H 304.727 -1.0288 3.74527 0
M  V30 3107 H 306.459 -0.887445 3.9485 0
M  V30 3108 H 303.214 1.01466 4.62603 0
M  V30 3109 H 303.638 3.29857 5.91205 0
M  V30 3110 H 308.28 1.0293 4.1008 0
M  V30 3111 H 305.998 4.76035 6.53006 0
M  V30 3112 H 309.584 2.91061 5.0376 0
M  V30 3113 H 308.464 4.75161 6.23853 0
M  V30 3114 N 305.967 -1.56429 0.191757 0
M  V30 3115 C 307.197 -2.01574 -0.452928 0
M  V30 3116 C 307.605 -1.07107 -1.55964 0
M  V30 3117 O 306.948 -0.067534 -1.83576 0
M  V30 3118 C 307.01 -3.43121 -1.07278 0
M  V30 3119 C 306.674 -4.56879 -0.105214 0
M  V30 3120 C 307.671 -5.15379 0.684149 0
M  V30 3121 C 305.356 -5.023 0.00489824 0
M  V30 3122 C 307.35 -6.17746 1.57062 0
M  V30 3123 C 305.037 -6.04511 0.894935 0
M  V30 3124 C 306.035 -6.62108 1.67637 0
M  V30 3125 O 305.723 -7.62335 2.55149 0
M  V30 3126 H 305.455 -0.665554 -0.118379 0
M  V30 3127 H 308.009 -2.03245 0.296737 0
M  V30 3128 H 306.239 -3.38425 -1.87097 0
M  V30 3129 H 307.928 -3.72093 -1.62177 0
M  V30 3130 H 308.694 -4.81157 0.609365 0
M  V30 3131 H 304.573 -4.57168 -0.593156 0
M  V30 3132 H 308.117 -6.6263 2.181 0
M  V30 3133 H 304.014 -6.38157 0.970847 0
M  V30 3134 H 304.782 -7.79741 2.48892 0
M  V30 3135 N 307.445 0.0818655 -1.57387 0
M  V30 3136 C 308.392 1.09834 -2.0299 0
M  V30 3137 C 309.362 1.39043 -0.908639 0
M  V30 3138 O 310.547 1.50282 -1.17559 0
M  V30 3139 C 307.687 2.40971 -2.47037 0
M  V30 3140 C 306.8 2.18379 -3.7274 0
M  V30 3141 C 305.935 3.43008 -4.0561 0
M  V30 3142 C 304.974 3.15736 -5.24383 0
M  V30 3143 N 304.111 4.32667 -5.52941 0
M  V30 3144 H 308.951 0.702472 -2.89602 0
M  V30 3145 H 306.488 0.33531 -1.43227 0
M  V30 3146 H 308.446 3.1752 -2.70623 0
M  V30 3147 H 307.076 2.78379 -1.63417 0
M  V30 3148 H 306.128 1.32569 -3.56552 0
M  V30 3149 H 307.44 1.94227 -4.59431 0
M  V30 3150 H 306.594 4.27958 -4.30043 0
M  V30 3151 H 305.333 3.70225 -3.17466 0
M  V30 3152 H 304.338 2.2918 -4.99757 0
M  V30 3153 H 305.563 2.8985 -6.14136 0
M  V30 3154 H 303.509 4.59935 -4.67756 0
M  V30 3155 H 303.426 4.11753 -6.34031 0
M  V30 3156 H 304.694 5.18644 -5.81918 0
M  V30 3157 N 308.923 1.53595 0.353017 0
M  V30 3158 C 310.17 1.70385 1.09431 0
M  V30 3159 C 310.498 0.462113 1.88931 0
M  V30 3160 O 309.753 -0.556074 1.87633 0
M  V30 3161 C 310.052 2.91313 2.07054 0
M  V30 3162 C 309.718 4.27308 1.43939 0
M  V30 3163 C 308.38 4.64287 1.26454 0
M  V30 3164 C 310.732 5.11829 0.983883 0
M  V30 3165 C 308.06 5.83412 0.620226 0
M  V30 3166 C 310.412 6.31611 0.353516 0
M  V30 3167 C 309.076 6.67293 0.166272 0
M  V30 3168 H 308.346 0.623484 0.400436 0
M  V30 3169 H 310.993 1.87799 0.374655 0
M  V30 3170 H 309.298 2.68463 2.85368 0
M  V30 3171 H 310.995 3.01497 2.64387 0
M  V30 3172 H 307.585 3.98198 1.58543 0
M  V30 3173 H 311.769 4.838 1.10685 0
M  V30 3174 H 307.025 6.09639 0.463681 0
M  V30 3175 H 311.199 6.964 -0.00757555 0
M  V30 3176 H 308.826 7.59461 -0.335047 0
M  V30 3177 N 310.401 -0.613514 1.45168 0
M  V30 3178 C 311.364 -1.7065 1.53007 0
M  V30 3179 C 312.364 -1.5548 0.410184 0
M  V30 3180 O 313.554 -1.60656 0.673455 0
M  V30 3181 C 310.686 -3.09875 1.42093 0
M  V30 3182 H 311.879 -1.65068 2.50385 0
M  V30 3183 H 309.432 -0.828728 1.32521 0
M  V30 3184 H 310.167 -3.21039 0.458769 0
M  V30 3185 H 309.952 -3.22293 2.23315 0
M  V30 3186 H 311.442 -3.895 1.50598 0
M  V30 3187 N 311.879 -1.3236 -0.855495 0
M  V30 3188 C 313.295 -1.11332 -1.14356 0
M  V30 3189 C 313.495 0.106751 -2.01217 0
M  V30 3190 O 312.551 0.791891 -2.39761 0
M  V30 3191 C 313.864 -2.39237 -1.82171 0
M  V30 3192 C 315.412 -2.44986 -1.9481 0
M  V30 3193 C 315.887 -3.7281 -2.66039 0
M  V30 3194 N 317.378 -3.73787 -2.73565 0
M  V30 3195 C 318.113 -4.69394 -3.29327 0
M  V30 3196 N 317.609 -5.75367 -3.85907 0
M  V30 3197 N 319.402 -4.56893 -3.27423 0
M  V30 3198 H 311.553 -2.10586 -0.277027 0
M  V30 3199 H 313.816 -0.929701 -0.185364 0
M  V30 3200 H 313.522 -3.28431 -1.25802 0
M  V30 3201 H 313.396 -2.50134 -2.82335 0
M  V30 3202 H 315.783 -1.56252 -2.50338 0
M  V30 3203 H 315.864 -2.38043 -0.936448 0
M  V30 3204 H 315.508 -4.61918 -2.11174 0
M  V30 3205 H 315.438 -3.77024 -3.67642 0
M  V30 3206 H 317.929 -2.97189 -2.33424 0
M  V30 3207 H 318.242 -6.44378 -4.26611 0
M  V30 3208 H 316.587 -5.79123 -3.84242 0
M  V30 3209 H 319.778 -3.73269 -2.82467 0
M  V30 3210 H 319.951 -5.31577 -3.7058 0
M  V30 3211 N 313.357 1.07166 -1.15556 0
M  V30 3212 C 314.603 1.80065 -0.932984 0
M  V30 3213 C 314.936 1.86586 0.53845 0
M  V30 3214 O 314.211 1.35098 1.39924 0
M  V30 3215 C 314.494 3.25022 -1.55025 0
M  V30 3216 C 314.347 3.26634 -3.09242 0
M  V30 3217 C 315.666 4.22341 -1.2376 0
M  V30 3218 H 312.785 0.653697 -0.340366 0
M  V30 3219 H 315.427 1.25389 -1.4275 0
M  V30 3220 H 313.577 3.71712 -1.12972 0
M  V30 3221 H 315.249 2.88173 -3.60214 0
M  V30 3222 H 313.492 2.65539 -3.43033 0
M  V30 3223 H 314.163 4.28854 -3.47546 0
M  V30 3224 H 316.639 3.8405 -1.60139 0
M  V30 3225 H 315.515 5.22053 -1.69564 0
M  V30 3226 H 315.776 4.41828 -0.154938 0
M  V30 3227 N 314.835 0.952656 1.25548 0
M  V30 3228 C 316.06 0.623025 1.97821 0
M  V30 3229 C 316.485 -0.7976 1.70352 0
M  V30 3230 O 315.843 -1.53905 0.958283 0
M  V30 3231 C 315.891 0.885532 3.49558 0
M  V30 3232 O 314.995 -0.0366641 4.12384 0
M  V30 3233 H 314.336 0.237082 0.620232 0
M  V30 3234 H 316.866 1.27871 1.59719 0
M  V30 3235 H 316.876 0.811009 3.99858 0
M  V30 3236 H 315.551 1.92094 3.6888 0
M  V30 3237 H 314.128 0.0898954 3.72792 0
M  V30 3238 N 316.313 -1.40141 0.720998 0
M  V30 3239 C 317.729 -1.54632 0.395113 0
M  V30 3240 C 317.929 -1.69115 -1.09555 0
M  V30 3241 O 316.985 -1.68377 -1.88163 0
M  V30 3242 C 318.298 -2.77177 1.1659 0
M  V30 3243 C 319.846 -2.91 1.15274 0
M  V30 3244 C 320.321 -4.16465 1.90579 0
M  V30 3245 N 321.812 -4.23476 1.87675 0
M  V30 3246 C 322.547 -5.19475 2.42762 0
M  V30 3247 N 322.043 -6.21348 3.06428 0
M  V30 3248 N 323.836 -5.11592 2.32874 0
M  V30 3249 H 315.987 -1.28986 1.68749 0
M  V30 3250 H 318.25 -0.62412 0.713567 0
M  V30 3251 H 317.956 -2.72771 2.22011 0
M  V30 3252 H 317.83 -3.69442 0.76108 0
M  V30 3253 H 320.217 -2.94907 0.106702 0
M  V30 3254 H 320.298 -1.99838 1.59682 0
M  V30 3255 H 319.942 -4.1332 2.95176 0
M  V30 3256 H 319.872 -5.06646 1.43587 0
M  V30 3257 H 322.363 -3.50497 1.41281 0
M  V30 3258 H 322.676 -6.91034 3.45965 0
M  V30 3259 H 321.021 -6.21777 3.10514 0
M  V30 3260 H 324.212 -4.30936 1.82789 0
M  V30 3261 H 324.385 -5.86233 2.76106 0
M  V30 3262 N 317.792 -0.46758 -1.50504 0
M  V30 3263 C 318.702 0.33382 -2.32213 0
M  V30 3264 C 319.718 0.999323 -1.42441 0
M  V30 3265 O 320.894 0.988068 -1.75497 0
M  V30 3266 C 317.959 1.4035 -3.17022 0
M  V30 3267 C 317.02 0.754961 -4.2261 0
M  V30 3268 C 316.253 1.77367 -5.03365 0
M  V30 3269 O 316.476 2.99976 -4.8515 0
M  V30 3270 O 315.41 1.34744 -5.86624 0
M  V30 3271 H 319.236 -0.334067 -3.01857 0
M  V30 3272 H 316.821 -0.229496 -1.47627 0
M  V30 3273 H 318.703 2.02318 -3.69656 0
M  V30 3274 H 317.378 2.05492 -2.5011 0
M  V30 3275 H 316.285 0.0964244 -3.73976 0
M  V30 3276 H 317.618 0.146545 -4.91982 0
M  V30 3277 N 319.27 1.56325 -0.20005 0
M  V30 3278 C 320.202 2.16555 0.750771 0
M  V30 3279 C 321.215 1.12871 1.1732 0
M  V30 3280 O 322.404 1.39943 1.10807 0
M  V30 3281 C 319.504 2.71684 2.02586 0
M  V30 3282 C 318.677 4.00321 1.76244 0
M  V30 3283 C 317.736 4.40227 2.88248 0
M  V30 3284 O 316.762 5.07552 2.57642 0
M  V30 3285 N 317.964 4.04138 4.16717 0
M  V30 3286 H 320.729 2.98772 0.235685 0
M  V30 3287 H 318.29 1.6189 -0.0182594 0
M  V30 3288 H 320.282 2.95363 2.76664 0
M  V30 3289 H 318.852 1.93893 2.45202 0
M  V30 3290 H 318.072 3.84723 0.85919 0
M  V30 3291 H 319.36 4.84279 1.56048 0
M  V30 3292 H 318.758 3.49993 4.44434 0
M  V30 3293 H 317.315 4.32756 4.87407 0
M  V30 3294 N 320.748 -0.0735177 1.57428 0
M  V30 3295 C 321.711 -1.07192 2.02589 0
M  V30 3296 C 322.711 -1.31695 0.922661 0
M  V30 3297 O 323.901 -1.27445 1.18758 0
M  V30 3298 C 321.033 -2.41599 2.40506 0
M  V30 3299 H 322.226 -0.682727 2.92025 0
M  V30 3300 H 319.779 -0.319193 1.53006 0
M  V30 3301 H 320.514 -2.85354 1.5409 0
M  V30 3302 H 320.299 -2.25156 3.21009 0
M  V30 3303 H 321.789 -3.13367 2.76027 0
M  V30 3304 N 322.226 -1.5378 -0.344866 0
M  V30 3305 C 323.474 -1.70625 -1.08311 0
M  V30 3306 C 323.795 -0.471447 -1.89215 0
M  V30 3307 O 323.065 0.514616 -1.8902 0
M  V30 3308 H 321.645 -0.629058 -0.402859 0
M  V30 3309 H 324.307 -1.9103 -0.386459 0
M  V30 3310 H 323.403 -2.57656 -1.76124 0
M  V30 3311 N 323.704 0.605807 -1.45491 0
M  V30 3312 C 324.651 1.7164 -1.54299 0
M  V30 3313 C 325.621 1.61486 -0.388761 0
M  V30 3314 O 326.806 1.81039 -0.602445 0
M  V30 3315 C 323.946 3.09953 -1.51734 0
M  V30 3316 C 323.059 3.309 -2.77721 0
M  V30 3317 C 322.194 4.59329 -2.66816 0
M  V30 3318 C 321.233 4.7354 -3.87848 0
M  V30 3319 N 320.37 5.9327 -3.75467 0
M  V30 3320 H 325.21 1.63449 -2.49176 0
M  V30 3321 H 322.747 0.796957 -1.23641 0
M  V30 3322 H 324.705 3.89977 -1.48235 0
M  V30 3323 H 323.335 3.17098 -0.604068 0
M  V30 3324 H 322.387 2.44639 -2.913 0
M  V30 3325 H 323.699 3.37274 -3.67488 0
M  V30 3326 H 322.853 5.4755 -2.61292 0
M  V30 3327 H 321.592 4.55355 -1.74651 0
M  V30 3328 H 320.597 3.83741 -3.93729 0
M  V30 3329 H 321.822 4.79309 -4.81082 0
M  V30 3330 H 319.768 5.90338 -2.86072 0
M  V30 3331 H 319.685 6.00811 -4.5887 0
M  V30 3332 H 320.953 6.83984 -3.73879 0
M  V30 3333 N 325.182 1.32811 0.848464 0
M  V30 3334 C 326.145 1.22194 1.9391 0
M  V30 3335 C 327.145 0.143404 1.60159 0
M  V30 3336 O 328.335 0.394253 1.6968 0
M  V30 3337 C 325.467 0.88067 3.29328 0
M  V30 3338 H 326.66 2.19127 2.04752 0
M  V30 3339 H 324.213 1.16731 1.0394 0
M  V30 3340 H 324.948 -0.0865776 3.24184 0
M  V30 3341 H 324.733 1.66052 3.55203 0
M  V30 3342 H 326.223 0.830871 4.09251 0
M  V30 3343 N 326.66 -1.06551 1.16123 0
M  V30 3344 C 327.908 -1.78947 0.939267 0
M  V30 3345 C 328.229 -1.87532 -0.534476 0
M  V30 3346 O 327.499 -1.38211 -1.38833 0
M  V30 3347 H 326.079 -0.662807 0.344523 0
M  V30 3348 H 328.741 -1.28725 1.46342 0
M  V30 3349 H 327.837 -2.81117 1.35572 0
M  V30 3350 N 328.138 -0.959301 -1.25041 0
M  V30 3351 C 329.068 -0.501388 -2.28053 0
M  V30 3352 C 330.049 0.454673 -1.63911 0
M  V30 3353 O 331.234 0.352618 -1.90972 0
M  V30 3354 C 328.364 0.217224 -3.4662 0
M  V30 3355 C 327.318 -0.654034 -4.22973 0
M  V30 3356 C 326.644 0.195589 -5.34342 0
M  V30 3357 C 327.944 -1.93447 -4.85155 0
M  V30 3358 H 329.638 -1.36238 -2.66608 0
M  V30 3359 H 327.184 -0.656534 -1.28163 0
M  V30 3360 H 329.137 0.548732 -4.17812 0
M  V30 3361 H 327.861 1.1125 -3.07068 0
M  V30 3362 H 326.52 -0.968693 -3.5357 0
M  V30 3363 H 326.168 1.09076 -4.91031 0
M  V30 3364 H 325.868 -0.384091 -5.86343 0
M  V30 3365 H 327.392 0.521958 -6.08365 0
M  V30 3366 H 328.806 -1.66908 -5.48466 0
M  V30 3367 H 327.203 -2.46018 -5.47353 0
M  V30 3368 H 328.273 -2.63466 -4.07079 0
M  V30 3369 N 329.616 1.39756 -0.72842 0
M  V30 3370 C 330.864 2.00248 -0.272946 0
M  V30 3371 C 331.185 1.58077 1.14178 0
M  V30 3372 O 330.455 0.826014 1.77634 0
M  V30 3373 H 329.035 0.740554 -0.0979247 0
M  V30 3374 H 331.697 1.70903 -0.936912 0
M  V30 3375 H 330.793 3.10495 -0.316142 0
M  V30 3376 N 331.094 0.475555 1.50254 0
M  V30 3377 C 332.322 -0.0754493 2.06762 0
M  V30 3378 C 332.737 -1.33111 1.33891 0
M  V30 3379 O 332.094 -1.77846 0.40952 0
M  V30 3380 C 332.145 -0.359008 3.59713 0
M  V30 3381 O 331.866 0.846851 4.29837 0
M  V30 3382 C 333.367 -0.956484 4.32858 0
M  V30 3383 H 330.587 0.00907525 0.670939 0
M  V30 3384 H 333.131 0.665618 1.93364 0
M  V30 3385 H 331.286 -1.05001 3.72899 0
M  V30 3386 H 331.7 0.594162 5.21124 0
M  V30 3387 H 333.174 -1.10463 5.40834 0
M  V30 3388 H 333.651 -1.94775 3.93649 0
M  V30 3389 H 334.257 -0.303723 4.24214 0
M  V30 3390 N 332.573 -1.56217 0.208337 0
M  V30 3391 C 333.819 -1.98242 -0.427552 0
M  V30 3392 C 334.152 -1.09554 -1.60348 0
M  V30 3393 O 333.427 -0.15035 -1.93918 0
M  V30 3394 C 333.71 -3.4931 -0.874907 0
M  V30 3395 C 333.563 -4.48773 0.303751 0
M  V30 3396 C 334.882 -4.04424 -1.73577 0
M  V30 3397 H 332.001 -0.720744 -0.153936 0
M  V30 3398 H 334.643 -1.87586 0.30192 0
M  V30 3399 H 332.793 -3.58522 -1.49648 0
M  V30 3400 H 334.465 -4.51586 0.941682 0
M  V30 3401 H 332.708 -4.23194 0.953375 0
M  V30 3402 H 333.379 -5.51976 -0.0519883 0
M  V30 3403 H 335.855 -3.98075 -1.21143 0
M  V30 3404 H 334.731 -5.1047 -2.01771 0
M  V30 3405 H 334.992 -3.50494 -2.69456 0
M  V30 3406 N 334.051 0.0651679 -1.57465 0
M  V30 3407 C 335.298 0.763063 -1.87573 0
M  V30 3408 C 335.626 1.77242 -0.800961 0
M  V30 3409 O 334.881 1.94651 0.202316 0
M  V30 3410 C 335.18 1.50081 -3.24362 0
M  V30 3411 C 334.846 0.630816 -4.46466 0
M  V30 3412 C 333.508 0.391082 -4.79608 0
M  V30 3413 C 335.86 0.0279465 -5.21193 0
M  V30 3414 C 333.188 -0.460894 -5.84887 0
M  V30 3415 C 335.54 -0.811522 -6.27373 0
M  V30 3416 C 334.204 -1.06106 -6.59013 0
M  V30 3417 H 333.474 0.279224 -0.686378 0
M  V30 3418 H 336.121 0.0236726 -1.91485 0
M  V30 3419 H 334.426 2.31258 -3.16271 0
M  V30 3420 H 336.123 2.04571 -3.44894 0
M  V30 3421 H 332.713 0.8278 -4.2053 0
M  V30 3422 H 336.897 0.200262 -4.95896 0
M  V30 3423 H 332.153 -0.662907 -6.07796 0
M  V30 3424 H 336.327 -1.28537 -6.84435 0
M  V30 3425 H 333.954 -1.723 -7.40417 0
M  V30 3426 N 335.529 1.53961 0.336706 0
M  V30 3427 C 336.775 1.7179 1.07777 0
M  V30 3428 C 337.108 0.483263 1.88091 0
M  V30 3429 O 336.383 -0.519747 1.87427 0
M  V30 3430 C 336.666 2.98558 2.01334 0
M  V30 3431 C 336.519 4.32245 1.24437 0
M  V30 3432 C 337.838 3.21023 3.01052 0
M  V30 3433 H 334.957 0.625089 0.390426 0
M  V30 3434 H 337.599 1.86641 0.35567 0
M  V30 3435 H 335.749 2.86028 2.62908 0
M  V30 3436 H 337.421 4.56637 0.654243 0
M  V30 3437 H 335.664 4.30344 0.546458 0
M  V30 3438 H 336.335 5.17137 1.93063 0
M  V30 3439 H 338.811 3.32929 2.49595 0
M  V30 3440 H 337.687 4.11104 3.6371 0
M  V30 3441 H 337.948 2.37637 3.72802 0
M  V30 3442 N 337.007 -0.598083 1.45811 0
M  V30 3443 C 338.418 -1.18011 1.44673 0
M  V30 3444 C 338.769 -1.95378 0.179364 0
M  V30 3445 O 337.894 -2.04124 -0.718509 0
M  V30 3446 C 338.489 -2.14677 2.62105 0
M  V30 3447 C 337.048 -2.68236 2.64057 0
M  V30 3448 C 336.195 -1.43816 2.37091 0
M  V30 3449 H 339.146 -0.38686 1.53913 0
M  V30 3450 H 339.167 -2.97878 2.36746 0
M  V30 3451 H 338.679 -1.5834 3.5433 0
M  V30 3452 H 336.78 -3.28486 1.75864 0
M  V30 3453 H 336.893 -3.12021 3.63566 0
M  V30 3454 H 335.257 -1.731 1.86838 0
M  V30 3455 H 336.04 -0.893333 3.31473 0
M  V30 3456 N 338.485 -1.33259 -0.841409 0
M  V30 3457 C 339.433 -1.23279 -1.97244 0
M  V30 3458 C 340.427 -0.134706 -1.68864 0
M  V30 3459 O 341.633 -0.298501 -1.77508 0
M  V30 3460 H 338.008 -0.382497 -0.647457 0
M  V30 3461 H 339.979 -2.18906 -2.02787 0
M  V30 3462 C 338.728 -0.986268 -3.33419 0
M  V30 3463 H 338.051 -1.82347 -3.55794 0
M  V30 3464 H 339.491 -0.956728 -4.13065 0
M  V30 3465 C 337.95 0.310842 -3.35463 0
M  V30 3466 O 338.48 1.31838 -3.79449 0
M  V30 3467 N 336.686 0.337485 -2.88634 0
M  V30 3468 H 336.233 -0.482967 -2.53032 0
M  V30 3469 H 336.191 1.20518 -2.90384 0
M  V30 3470 N 339.963 1.05934 -1.16686 0
M  V30 3471 C 341.209 1.79065 -0.95203 0
M  V30 3472 C 341.542 1.87147 0.518629 0
M  V30 3473 O 340.817 1.36574 1.38484 0
M  V30 3474 C 341.1 3.23359 -1.58464 0
M  V30 3475 C 340.953 3.23336 -3.12689 0
M  V30 3476 C 342.272 4.21004 -1.28232 0
M  V30 3477 H 339.391 0.65005 -0.34728 0
M  V30 3478 H 342.033 1.23868 -1.44072 0
M  V30 3479 H 340.183 3.70493 -1.16908 0
M  V30 3480 H 341.855 2.84336 -3.6325 0
M  V30 3481 H 340.098 2.61886 -3.4583 0
M  V30 3482 H 340.769 4.25144 -3.52075 0
M  V30 3483 H 343.245 3.8233 -1.64203 0
M  V30 3484 H 342.121 5.20225 -1.75092 0
M  V30 3485 H 342.382 4.41639 -0.201791 0
M  V30 3486 N 341.441 0.965919 1.2453 0
M  V30 3487 C 342.671 0.643451 1.96324 0
M  V30 3488 C 343.079 -0.790927 1.71875 0
M  V30 3489 O 342.422 -1.54208 0.998273 0
M  V30 3490 C 342.484 0.836078 3.49643 0
M  V30 3491 C 342.148 2.24975 3.97788 0
M  V30 3492 C 343.145 3.22735 4.07601 0
M  V30 3493 C 340.83 2.57697 4.31158 0
M  V30 3494 C 342.824 4.51303 4.50116 0
M  V30 3495 C 340.511 3.86492 4.73357 0
M  V30 3496 C 341.509 4.83107 4.828 0
M  V30 3497 O 341.197 6.09605 5.24058 0
M  V30 3498 H 340.929 0.239223 0.632257 0
M  V30 3499 H 343.483 1.29587 1.59362 0
M  V30 3500 H 341.713 0.12649 3.86493 0
M  V30 3501 H 343.402 0.512965 4.02646 0
M  V30 3502 H 344.168 2.98783 3.82039 0
M  V30 3503 H 340.047 1.83216 4.23028 0
M  V30 3504 H 343.591 5.26716 4.57401 0
M  V30 3505 H 339.488 4.10245 4.98366 0
M  V30 3506 H 340.256 6.13146 5.42213 0
M  V30 3507 N 342.919 -1.39368 0.735821 0
M  V30 3508 C 344.196 -1.94465 0.210395 0
M  V30 3509 C 344.576 -1.67254 -1.28799 0
M  V30 3510 O 343.924 -1.00123 -2.05396 0
M  V30 3511 C 344.134 -3.4472 0.544897 0
M  V30 3512 C 345.482 -4.21708 0.494689 0
M  V30 3513 O 346.506 -3.52922 0.482136 0
M  V30 3514 O 345.365 -5.44299 0.489947 0
M  V30 3515 H 342.459 -0.826096 0.0386666 0
M  V30 3516 H 345.005 -1.48863 0.814735 0
M  V30 3517 H 343.777 -3.57963 1.58045 0
M  V30 3518 H 343.4 -3.97502 -0.08837 0
M  V30 3519 N 344.397 -0.483516 -1.5 0
M  V30 3520 C 345.644 0.0671597 -2.02389 0
M  V30 3521 C 345.972 1.38597 -1.36459 0
M  V30 3522 O 345.227 1.89634 -0.483458 0
M  V30 3523 C 345.526 0.286226 -3.56252 0
M  V30 3524 C 345.192 -0.952416 -4.40726 0
M  V30 3525 C 343.854 -1.29199 -4.63531 0
M  V30 3526 C 346.206 -1.77655 -4.89988 0
M  V30 3527 C 343.534 -2.45553 -5.32842 0
M  V30 3528 C 345.886 -2.93147 -5.60578 0
M  V30 3529 C 344.55 -3.27505 -5.81633 0
M  V30 3530 H 343.82 0.0245755 -0.740592 0
M  V30 3531 H 346.467 -0.640124 -1.80485 0
M  V30 3532 H 344.772 1.07587 -3.76739 0
M  V30 3533 H 346.469 0.726473 -3.94365 0
M  V30 3534 H 343.059 -0.677881 -4.23205 0
M  V30 3535 H 347.243 -1.52737 -4.72213 0
M  V30 3536 H 342.499 -2.72431 -5.47349 0
M  V30 3537 H 346.673 -3.57344 -5.97727 0
M  V30 3538 H 344.3 -4.1777 -6.35116 0
M  V30 3539 N 345.875 1.56104 -0.216619 0
M  V30 3540 C 347.123 1.97781 0.415593 0
M  V30 3541 C 347.444 1.10536 1.60645 0
M  V30 3542 O 346.714 0.181303 1.95059 0
M  V30 3543 H 345.294 0.730415 0.156534 0
M  V30 3544 H 347.956 1.92445 -0.308366 0
M  V30 3545 H 347.052 3.03072 0.74525 0
M  V30 3546 N 347.353 -0.0568162 1.57498 0
M  V30 3547 C 348.583 -0.764515 1.91934 0
M  V30 3548 C 348.991 -1.70877 0.81227 0
M  V30 3549 O 348.334 -1.82351 -0.222213 0
M  V30 3550 C 348.396 -1.5994 3.21962 0
M  V30 3551 C 348.06 -0.822925 4.4953 0
M  V30 3552 C 349.057 -0.135464 5.19723 0
M  V30 3553 C 346.742 -0.785666 4.96117 0
M  V30 3554 C 348.736 0.578861 6.34766 0
M  V30 3555 C 346.423 -0.0675784 6.11063 0
M  V30 3556 C 347.421 0.613471 6.80239 0
M  V30 3557 O 347.109 1.31996 7.92989 0
M  V30 3558 H 346.841 -0.221647 0.63863 0
M  V30 3559 H 349.395 -0.0268218 2.05382 0
M  V30 3560 H 347.625 -2.38026 3.04763 0
M  V30 3561 H 349.314 -2.18715 3.41934 0
M  V30 3562 H 350.08 -0.155458 4.84751 0
M  V30 3563 H 345.959 -1.30524 4.42136 0
M  V30 3564 H 349.503 1.111 6.88696 0
M  V30 3565 H 345.4 -0.0455636 6.45484 0
M  V30 3566 H 346.168 1.23077 8.09194 0
M  V30 3567 N 348.832 -1.54138 -0.328536 0
M  V30 3568 C 349.765 -1.78014 -1.4278 0
M  V30 3569 C 350.743 -0.629889 -1.49904 0
M  V30 3570 O 351.927 -0.866763 -1.6739 0
M  V30 3571 C 349.054 -1.89225 -2.80912 0
M  V30 3572 C 348.1 -3.11483 -2.91343 0
M  V30 3573 S 348.933 -4.70201 -2.56263 0
M  V30 3574 C 350.089 -4.84312 -3.96476 0
M  V30 3575 H 350.322 -2.70974 -1.22313 0
M  V30 3576 H 347.855 -1.45197 -0.525084 0
M  V30 3577 H 349.813 -1.9637 -3.60485 0
M  V30 3578 H 348.474 -0.972518 -2.98665 0
M  V30 3579 H 347.667 -3.16046 -3.92595 0
M  V30 3580 H 347.269 -3.02642 -2.19736 0
M  V30 3581 H 349.561 -4.66643 -4.91173 0
M  V30 3582 H 350.504 -5.86411 -3.96898 0
M  V30 3583 H 350.912 -4.12652 -3.85199 0
M  V30 3584 N 350.31 0.590341 -1.46126 0
M  V30 3585 C 351.242 1.71427 -1.52136 0
M  V30 3586 C 352.255 1.57542 -0.41042 0
M  V30 3587 O 353.444 1.65106 -0.678389 0
M  V30 3588 C 350.544 3.09605 -1.37834 0
M  V30 3589 C 349.717 3.49566 -2.62912 0
M  V30 3590 C 348.776 4.66773 -2.42918 0
M  V30 3591 O 347.802 4.73019 -3.1661 0
M  V30 3592 N 349.004 5.61161 -1.4859 0
M  V30 3593 H 351.769 1.66728 -2.49042 0
M  V30 3594 H 349.33 0.776113 -1.42085 0
M  V30 3595 H 351.322 3.85796 -1.22243 0
M  V30 3596 H 349.892 3.08714 -0.491393 0
M  V30 3597 H 349.112 2.63158 -2.93499 0
M  V30 3598 H 350.4 3.73028 -3.46017 0
M  V30 3599 H 349.798 5.58844 -0.87808 0
M  V30 3600 H 348.355 6.36814 -1.38965 0
M  V30 3601 N 351.788 1.33704 0.83433 0
M  V30 3602 C 353.204 1.13137 1.12571 0
M  V30 3603 C 353.404 -0.0747261 2.01361 0
M  V30 3604 O 352.46 -0.753647 2.4099 0
M  V30 3605 C 353.773 2.42105 1.78342 0
M  V30 3606 C 355.321 2.48054 1.90888 0
M  V30 3607 C 355.796 3.76995 2.60075 0
M  V30 3608 N 357.287 3.78092 2.67584 0
M  V30 3609 C 358.022 4.74574 3.21818 0
M  V30 3610 N 357.518 5.81434 3.76705 0
M  V30 3611 N 359.311 4.62044 3.20112 0
M  V30 3612 H 351.462 2.11 0.243489 0
M  V30 3613 H 353.725 0.932532 0.17055 0
M  V30 3614 H 353.431 3.30391 1.20561 0
M  V30 3615 H 353.305 2.54594 2.7832 0
M  V30 3616 H 355.692 1.60215 2.47821 0
M  V30 3617 H 355.773 2.39502 0.898459 0
M  V30 3618 H 355.417 4.65219 2.03799 0
M  V30 3619 H 355.347 3.82825 3.61597 0
M  V30 3620 H 357.838 3.00865 2.28667 0
M  V30 3621 H 358.151 6.51084 4.16305 0
M  V30 3622 H 356.496 5.85163 3.7498 0
M  V30 3623 H 359.687 3.77716 2.76493 0
M  V30 3624 H 359.86 5.37406 3.62076 0
M  V30 3625 N 353.266 -1.05314 1.17247 0
M  V30 3626 C 354.176 -2.16538 0.90268 0
M  V30 3627 C 355.192 -1.73523 -0.128707 0
M  V30 3628 O 356.368 -2.01337 0.0502701 0
M  V30 3629 C 353.433 -3.44167 0.418356 0
M  V30 3630 C 352.494 -4.01635 1.51618 0
M  V30 3631 C 351.727 -5.23171 1.05487 0
M  V30 3632 O 351.95 -5.70327 -0.0914715 0
M  V30 3633 O 350.884 -5.72848 1.8474 0
M  V30 3634 H 354.71 -2.42145 1.83302 0
M  V30 3635 H 352.295 -1.15037 0.953246 0
M  V30 3636 H 354.177 -4.21112 0.155726 0
M  V30 3637 H 352.852 -3.20063 -0.48385 0
M  V30 3638 H 351.759 -3.26135 1.83268 0
M  V30 3639 H 353.092 -4.30053 2.39405 0
M  V30 3640 N 354.744 -0.972509 -1.24016 0
M  V30 3641 C 355.707 -0.511403 -2.23422 0
M  V30 3642 C 356.707 0.394679 -1.55881 0
M  V30 3643 O 357.897 0.189469 -1.73167 0
M  V30 3644 C 355.029 0.258769 -3.39916 0
M  V30 3645 H 356.222 -1.39024 -2.6573 0
M  V30 3646 H 353.775 -0.757585 -1.36713 0
M  V30 3647 H 354.51 1.1545 -3.03054 0
M  V30 3648 H 354.295 -0.391522 -3.9014 0
M  V30 3649 H 355.785 0.570244 -4.13688 0
M  V30 3650 N 356.222 1.38976 -0.743202 0
M  V30 3651 C 357.185 2.28901 -0.117014 0
M  V30 3652 C 358.185 1.46698 0.658503 0
M  V30 3653 O 359.375 1.67274 0.486305 0
M  V30 3654 C 356.507 3.30309 0.84315 0
M  V30 3655 H 357.7 2.8578 -0.909373 0
M  V30 3656 H 355.253 1.47761 -0.509547 0
M  V30 3657 H 355.988 2.785 1.66157 0
M  V30 3658 H 355.773 3.91029 0.289594 0
M  V30 3659 H 357.263 3.97577 1.2776 0
M  V30 3660 N 357.7 0.491464 1.49741 0
M  V30 3661 C 358.948 -0.0563141 2.02022 0
M  V30 3662 C 359.269 -1.38363 1.37407 0
M  V30 3663 O 358.539 -1.88702 0.526166 0
M  V30 3664 H 357.119 -0.0238014 0.746621 0
M  V30 3665 H 359.781 0.646533 1.83864 0
M  V30 3666 H 358.877 -0.192967 3.11503 0
M  V30 3667 N 359.178 -1.55987 0.224894 0
M  V30 3668 C 360.088 -2.24066 -0.69511 0
M  V30 3669 C 361.104 -1.24939 -1.21104 0
M  V30 3670 O 362.28 -1.5776 -1.25195 0
M  V30 3671 C 359.345 -2.90983 -1.88493 0
M  V30 3672 C 358.406 -4.05462 -1.41064 0
M  V30 3673 C 357.639 -4.69179 -2.54375 0
M  V30 3674 O 357.862 -4.31895 -3.72589 0
M  V30 3675 O 356.796 -5.58108 -2.25386 0
M  V30 3676 H 360.622 -3.03353 -0.145149 0
M  V30 3677 H 358.207 -1.49399 -0.00569476 0
M  V30 3678 H 360.089 -3.33209 -2.57972 0
M  V30 3679 H 358.764 -2.14653 -2.42293 0
M  V30 3680 H 357.671 -3.67798 -0.683774 0
M  V30 3681 H 359.004 -4.83545 -0.918985 0
M  V30 3682 N 360.656 0.0484629 -1.57525 0
M  V30 3683 C 361.902 0.744226 -1.88651 0
M  V30 3684 C 362.235 1.76029 -0.820212 0
M  V30 3685 O 361.51 1.93782 0.166985 0
M  V30 3686 C 361.793 1.43128 -3.30434 0
M  V30 3687 C 361.646 0.43005 -4.47739 0
M  V30 3688 C 362.965 2.37031 -3.70816 0
M  V30 3689 H 360.084 0.269089 -0.68612 0
M  V30 3690 H 362.726 0.00713532 -1.89999 0
M  V30 3691 H 360.876 2.05956 -3.29415 0
M  V30 3692 H 362.548 -0.194816 -4.60888 0
M  V30 3693 H 360.791 -0.252522 -4.33064 0
M  V30 3694 H 361.462 0.948874 -5.43783 0
M  V30 3695 H 363.938 1.84263 -3.73077 0
M  V30 3696 H 362.814 2.82094 -4.70865 0
M  V30 3697 H 363.075 3.22864 -3.02012 0
M  V30 3698 N 362.134 1.5431 0.320358 0
M  V30 3699 C 363.545 1.63872 0.894594 0
M  V30 3700 C 363.896 0.534847 1.88769 0
M  V30 3701 O 363.021 -0.331732 2.13842 0
M  V30 3702 C 363.616 2.97049 1.62934 0
M  V30 3703 C 362.175 3.08796 2.15226 0
M  V30 3704 C 361.322 2.59456 0.978671 0
M  V30 3705 H 364.273 1.58398 0.0978544 0
M  V30 3706 H 364.294 2.87388 2.49376 0
M  V30 3707 H 363.806 3.7737 0.906302 0
M  V30 3708 H 361.907 2.33156 2.90636 0
M  V30 3709 H 362.02 4.14649 2.40006 0
M  V30 3710 H 360.384 2.1543 1.35875 0
M  V30 3711 H 361.167 3.42237 0.269895 0
M  V30 3712 N 363.613 -0.582584 1.46437 0
M  V30 3713 C 364.56 -1.69164 1.5701 0
M  V30 3714 C 365.53 -1.60847 0.414403 0
M  V30 3715 O 366.715 -1.80058 0.631171 0
M  V30 3716 C 363.855 -3.075 1.56646 0
M  V30 3717 C 362.968 -3.2644 2.82951 0
M  V30 3718 C 362.103 -4.55026 2.7409 0
M  V30 3719 C 361.142 -4.6731 3.95333 0
M  V30 3720 N 360.279 -5.87221 3.84858 0
M  V30 3721 H 365.119 -1.59464 2.51744 0
M  V30 3722 H 362.656 -0.777186 1.24893 0
M  V30 3723 H 364.614 -3.8757 1.5442 0
M  V30 3724 H 363.244 -3.16096 0.654439 0
M  V30 3725 H 362.296 -2.39974 2.95155 0
M  V30 3726 H 363.608 -3.31385 3.72808 0
M  V30 3727 H 362.762 -5.43324 2.6997 0
M  V30 3728 H 361.501 -4.52519 1.81873 0
M  V30 3729 H 360.506 -3.77429 3.99784 0
M  V30 3730 H 361.731 -4.71595 4.88646 0
M  V30 3731 H 359.677 -5.85712 2.95427 0
M  V30 3732 H 359.594 -5.93435 4.6837 0
M  V30 3733 H 360.862 -6.7795 3.84713 0
M  V30 3734 N 365.091 -1.34144 -0.827227 0
M  V30 3735 C 366.316 -1.29476 -1.62021 0
M  V30 3736 C 366.741 0.129292 -1.87655 0
M  V30 3737 O 366.099 1.08967 -1.449 0
M  V30 3738 C 366.147 -2.08702 -2.94068 0
M  V30 3739 O 365.251 -1.45359 -3.85933 0
M  V30 3740 H 364.592 -0.444881 -0.492927 0
M  V30 3741 H 367.122 -1.76882 -1.02829 0
M  V30 3742 H 367.132 -2.19898 -3.43669 0
M  V30 3743 H 365.807 -3.12241 -2.74734 0
M  V30 3744 H 364.384 -1.42879 -3.44442 0
M  V30 3745 N 366.569 1.04691 -1.17803 0
M  V30 3746 C 367.532 2.10724 -0.901545 0
M  V30 3747 C 368.532 1.6042 0.110437 0
M  V30 3748 O 369.722 1.7377 -0.122303 0
M  V30 3749 C 366.854 3.39084 -0.351409 0
M  V30 3750 H 368.047 2.36686 -1.84174 0
M  V30 3751 H 365.6 1.21015 -0.98919 0
M  V30 3752 H 366.335 3.18782 0.59569 0
M  V30 3753 H 366.12 3.76909 -1.08083 0
M  V30 3754 H 367.61 4.17227 -0.176451 0
M  V30 3755 N 368.047 0.979072 1.23499 0
M  V30 3756 C 368.977 0.537606 2.27227 0
M  V30 3757 C 369.958 -0.428539 1.64613 0
M  V30 3758 O 371.143 -0.322191 1.91509 0
M  V30 3759 C 368.273 -0.162052 3.46922 0
M  V30 3760 C 367.227 0.721242 4.21879 0
M  V30 3761 C 366.553 -0.110555 5.34586 0
M  V30 3762 C 367.853 2.01141 4.82016 0
M  V30 3763 H 369.547 1.40462 2.64406 0
M  V30 3764 H 367.093 0.67684 1.27102 0
M  V30 3765 H 369.046 -0.482192 4.18632 0
M  V30 3766 H 367.77 -1.06351 3.08799 0
M  V30 3767 H 366.429 1.02482 3.51984 0
M  V30 3768 H 366.077 -1.0125 4.92704 0
M  V30 3769 H 365.777 0.477325 5.85658 0
M  V30 3770 H 367.301 -0.425107 6.09118 0
M  V30 3771 H 368.715 1.75612 5.45741 0
M  V30 3772 H 367.112 2.54695 5.43369 0
M  V30 3773 H 368.182 2.69909 4.02836 0
M  V30 3774 N 369.525 -1.3858 0.750561 0
M  V30 3775 C 370.488 -2.28836 0.129152 0
M  V30 3776 C 371.488 -1.47045 -0.650714 0
M  V30 3777 O 372.678 -1.6753 -0.477428 0
M  V30 3778 C 369.81 -3.30751 -0.825622 0
M  V30 3779 H 371.003 -2.85294 0.924516 0
M  V30 3780 H 368.556 -1.47489 0.517376 0
M  V30 3781 H 369.291 -2.79378 -1.64677 0
M  V30 3782 H 369.076 -3.91177 -0.268852 0
M  V30 3783 H 370.566 -3.98249 -1.2565 0
M  V30 3784 N 371.003 -0.499398 -1.49478 0
M  V30 3785 C 372.231 0.0425456 -2.06856 0
M  V30 3786 C 372.646 1.30964 -1.35992 0
M  V30 3787 O 372.003 1.77172 -0.437762 0
M  V30 3788 C 372.054 0.301735 -3.60239 0
M  V30 3789 O 371.775 -0.915127 -4.28436 0
M  V30 3790 C 373.276 0.887499 -4.34325 0
M  V30 3791 H 370.496 -0.0197482 -0.670709 0
M  V30 3792 H 373.04 -0.696297 -1.92281 0
M  V30 3793 H 371.195 0.990556 -3.74522 0
M  V30 3794 H 371.609 -0.676993 -5.20113 0
M  V30 3795 H 373.083 1.01845 -5.42523 0
M  V30 3796 H 373.56 1.88488 -3.96698 0
M  V30 3797 H 374.166 0.236196 -4.24644 0
M  V30 3798 N 372.481 1.55866 -0.233164 0
M  V30 3799 C 373.391 2.24431 0.683217 0
M  V30 3800 C 374.407 1.2558 1.2044 0
M  V30 3801 O 375.583 1.58422 1.24356 0
M  V30 3802 C 372.648 2.91979 1.86947 0
M  V30 3803 C 371.709 4.06204 1.38912 0
M  V30 3804 C 370.942 4.70522 2.51883 0
M  V30 3805 O 371.165 4.33865 3.70293 0
M  V30 3806 O 370.099 5.59296 2.22423 0
M  V30 3807 H 373.925 3.03426 0.129059 0
M  V30 3808 H 371.51 1.494 -0.0022283 0
M  V30 3809 H 373.392 3.34573 2.56201 0
M  V30 3810 H 372.067 2.15935 2.41151 0
M  V30 3811 H 370.974 3.68155 0.664259 0
M  V30 3812 H 372.307 4.84025 0.893328 0
M  V30 3813 N 373.959 -0.0401083 1.57549 0
M  V30 3814 C 375.205 -0.734211 1.89043 0
M  V30 3815 C 375.538 -1.75591 0.829535 0
M  V30 3816 O 374.813 -1.93868 -0.156706 0
M  V30 3817 C 375.096 -1.41374 3.31188 0
M  V30 3818 C 374.949 -0.406299 4.47961 0
M  V30 3819 C 376.268 -2.35061 3.72068 0
M  V30 3820 H 373.387 -0.265447 0.687537 0
M  V30 3821 H 376.029 0.00294087 1.9 0
M  V30 3822 H 374.179 -2.04206 3.30503 0
M  V30 3823 H 375.851 0.219255 4.60779 0
M  V30 3824 H 374.094 0.275485 4.32924 0
M  V30 3825 H 374.765 -0.920022 5.44279 0
M  V30 3826 H 377.241 -1.82282 3.74049 0
M  V30 3827 H 376.117 -2.79593 4.72355 0
M  V30 3828 H 376.378 -3.21258 3.0372 0
M  V30 3829 N 375.437 -1.54477 -0.31217 0
M  V30 3830 C 376.686 -1.72438 -1.04633 0
M  V30 3831 C 376.999 -0.511163 -1.88803 0
M  V30 3832 O 378.205 -0.572341 -2.65399 0
M  V30 3833 C 376.661 -3.05043 -1.9099 0
M  V30 3834 C 376.269 -4.33806 -1.11877 0
M  V30 3835 C 378.013 -3.32364 -2.64073 0
M  V30 3836 C 375.92 -5.57467 -1.97445 0
M  V30 3837 H 374.85 -0.642647 -0.394361 0
M  V30 3838 H 377.501 -1.80966 -0.303929 0
M  V30 3839 H 375.883 -2.90451 -2.69173 0
M  V30 3840 H 377.057 -4.59199 -0.383843 0
M  V30 3841 H 375.372 -4.13336 -0.504252 0
M  V30 3842 H 377.969 -4.21951 -3.28423 0
M  V30 3843 H 378.312 -2.50745 -3.32314 0
M  V30 3844 H 378.845 -3.47875 -1.92944 0
M  V30 3845 H 375.584 -6.41722 -1.33692 0
M  V30 3846 H 375.104 -5.36277 -2.6864 0
M  V30 3847 H 376.783 -5.94303 -2.5576 0
M  V30 3848 N 376.915 0.57481 -1.46744 0
M  V30 3849 C 378.145 1.35659 -1.55821 0
M  V30 3850 C 378.553 1.88129 -0.201036 0
M  V30 3851 O 377.896 1.64723 0.813134 0
M  V30 3852 C 377.958 2.57473 -2.50894 0
M  V30 3853 C 377.622 2.26415 -3.9697 0
M  V30 3854 C 378.619 1.84771 -4.85958 0
M  V30 3855 C 376.304 2.38316 -4.42166 0
M  V30 3856 C 378.298 1.55434 -6.18158 0
M  V30 3857 C 375.985 2.08591 -5.74398 0
M  V30 3858 C 376.983 1.67216 -6.62214 0
M  V30 3859 O 376.671 1.37859 -7.91991 0
M  V30 3860 H 376.403 0.420496 -0.529301 0
M  V30 3861 H 378.957 0.704967 -1.92923 0
M  V30 3862 H 377.187 3.25468 -2.08824 0
M  V30 3863 H 378.876 3.19546 -2.50291 0
M  V30 3864 H 379.642 1.75085 -4.52295 0
M  V30 3865 H 375.521 2.69483 -3.74032 0
M  V30 3866 H 379.065 1.23065 -6.86659 0
M  V30 3867 H 374.962 2.17905 -6.07608 0
M  V30 3868 H 375.73 1.51638 -8.04331 0
M  V30 3869 N 378.394 1.34581 0.820102 0
M  V30 3870 C 379.642 1.26845 1.57336 0
M  V30 3871 C 379.963 -0.160667 1.94337 0
M  V30 3872 O 379.233 -1.09396 1.6251 0
M  V30 3873 H 377.813 0.466514 0.583415 0
M  V30 3874 H 380.475 1.68526 0.979027 0
M  V30 3875 H 379.571 1.87513 2.4949 0
M  V30 3876 N 379.872 -1.04064 1.18357 0
M  V30 3877 C 380.82 -2.14187 0.907007 0
M  V30 3878 C 381.814 -1.68879 -0.132725 0
M  V30 3879 O 383.02 -1.79993 0.0154248 0
M  V30 3880 H 379.395 -0.699585 0.275835 0
M  V30 3881 H 381.366 -2.34711 1.84264 0
M  V30 3882 C 380.115 -3.44785 0.449254 0
M  V30 3883 H 379.438 -3.80058 1.24081 0
M  V30 3884 H 380.878 -4.22974 0.294737 0
M  V30 3885 C 379.337 -3.26391 -0.834909 0
M  V30 3886 O 379.867 -3.53973 -1.89911 0
M  V30 3887 N 378.073 -2.79726 -0.787523 0
M  V30 3888 H 377.62 -2.5748 0.0787347 0
M  V30 3889 H 377.578 -2.67798 -1.64716 0
M  V30 3890 N 381.35 -0.985608 -1.22978 0
M  V30 3891 C 382.298 -0.522631 -2.26652 0
M  V30 3892 C 383.292 0.422998 -1.64034 0
M  V30 3893 O 384.498 0.296319 -1.77544 0
M  V30 3894 H 380.873 -0.150597 -0.736766 0
M  V30 3895 H 382.844 -1.40863 -2.63059 0
M  V30 3896 C 381.593 0.154238 -3.47358 0
M  V30 3897 H 380.916 -0.564329 -3.95797 0
M  V30 3898 H 382.356 0.441744 -4.21693 0
M  V30 3899 C 380.815 1.38719 -3.07016 0
M  V30 3900 O 381.345 2.48307 -3.15764 0
M  V30 3901 N 379.551 1.25975 -2.61875 0
M  V30 3902 H 379.098 0.368068 -2.54957 0
M  V30 3903 H 379.056 2.08578 -2.3525 0
M  V30 3904 N 382.828 1.3818 -0.7579 0
M  V30 3905 C 383.778 2.27741 -0.108674 0
M  V30 3906 C 384.762 1.45415 0.688709 0
M  V30 3907 O 385.954 1.68108 0.553956 0
M  V30 3908 C 383.083 3.34313 0.780367 0
M  V30 3909 C 382.169 4.24093 -0.0240977 0
M  V30 3910 N 382.56 4.9451 -1.06271 0
M  V30 3911 C 380.858 4.45542 0.202049 0
M  V30 3912 C 381.559 5.60675 -1.54979 0
M  V30 3913 N 380.535 5.36684 -0.864348 0
M  V30 3914 H 384.337 2.79649 -0.904071 0
M  V30 3915 H 381.851 1.51133 -0.594346 0
M  V30 3916 H 383.848 3.97368 1.26114 0
M  V30 3917 H 382.508 2.83962 1.57467 0
M  V30 3918 H 383.519 4.97345 -1.44459 0
M  V30 3919 H 380.196 4.06091 0.96935 0
M  V30 3920 H 381.586 6.26992 -2.41517 0
M  V30 3921 N 384.306 0.507319 1.49211 0
M  V30 3922 C 385.554 -0.0348839 2.0207 0
M  V30 3923 C 385.875 -1.36898 1.38866 0
M  V30 3924 O 385.145 -1.88133 0.546151 0
M  V30 3925 H 383.725 -0.0158812 0.746831 0
M  V30 3926 H 386.387 0.665998 1.83168 0
M  V30 3927 H 385.483 -0.159917 3.1169 0
M  V30 3928 N 385.784 -1.5574 0.241426 0
M  V30 3929 C 386.731 -2.21149 -0.660432 0
M  V30 3930 C 387.701 -1.17356 -1.17545 0
M  V30 3931 O 388.886 -1.45784 -1.23093 0
M  V30 3932 C 386.026 -2.91059 -1.85414 0
M  V30 3933 C 385.139 -4.09495 -1.37616 0
M  V30 3934 C 384.274 -4.67135 -2.529 0
M  V30 3935 C 383.313 -5.77831 -2.01936 0
M  V30 3936 N 382.45 -6.29677 -3.10566 0
M  V30 3937 H 387.29 -2.97845 -0.095955 0
M  V30 3938 H 384.827 -1.47057 -0.0356024 0
M  V30 3939 H 386.785 -3.29788 -2.5553 0
M  V30 3940 H 385.415 -2.16846 -2.39118 0
M  V30 3941 H 384.467 -3.76117 -0.569235 0
M  V30 3942 H 385.779 -4.89423 -0.962618 0
M  V30 3943 H 384.933 -5.08409 -3.31067 0
M  V30 3944 H 383.672 -3.86411 -2.97553 0
M  V30 3945 H 382.677 -5.36039 -1.22238 0
M  V30 3946 H 383.902 -6.60402 -1.58259 0
M  V30 3947 H 381.848 -5.5186 -3.54664 0
M  V30 3948 H 381.765 -7.04783 -2.73526 0
M  V30 3949 H 383.033 -6.75609 -3.88809 0
M  V30 3950 N 387.262 0.0317525 -1.57568 0
M  V30 3951 C 388.194 1.06073 -2.03178 0
M  V30 3952 C 389.207 1.32627 -0.944132 0
M  V30 3953 O 390.396 1.30162 -1.22148 0
M  V30 3954 C 387.496 2.40297 -2.38978 0
M  V30 3955 C 386.669 2.33137 -3.70089 0
M  V30 3956 C 385.728 3.49787 -3.9311 0
M  V30 3957 O 384.754 3.29403 -4.64201 0
M  V30 3958 N 385.956 4.71562 -3.38541 0
M  V30 3959 H 388.721 0.672006 -2.92069 0
M  V30 3960 H 386.282 0.219745 -1.60402 0
M  V30 3961 H 388.274 3.1705 -2.51518 0
M  V30 3962 H 386.844 2.71024 -1.55771 0
M  V30 3963 H 386.064 1.415 -3.67928 0
M  V30 3964 H 387.352 2.25493 -4.56104 0
M  V30 3965 H 386.75 4.91024 -2.80912 0
M  V30 3966 H 385.307 5.45689 -3.56464 0
M  V30 3967 N 388.74 1.54641 0.303973 0
M  V30 3968 C 389.965 1.78092 1.06292 0
M  V30 3969 C 390.39 0.537342 1.80262 0
M  V30 3970 O 389.748 -0.511993 1.7392 0
M  V30 3971 C 389.796 2.98612 2.02147 0
M  V30 3972 O 388.9 2.71528 3.10397 0
M  V30 3973 H 388.241 0.589548 0.305497 0
M  V30 3974 H 390.771 2.01716 0.3423 0
M  V30 3975 H 390.781 3.265 2.44667 0
M  V30 3976 H 389.456 3.88785 1.47714 0
M  V30 3977 H 388.033 2.54648 2.72413 0
M  V30 3978 N 390.218 -0.567019 1.47046 0
M  V30 3979 C 391.148 -1.68482 1.61667 0
M  V30 3980 C 392.129 -1.6358 0.466418 0
M  V30 3981 O 393.314 -1.81354 0.694574 0
M  V30 3982 C 390.444 -3.07124 1.62148 0
M  V30 3983 C 389.398 -3.26867 2.76301 0
M  V30 3984 C 388.724 -4.66196 2.61849 0
M  V30 3985 C 390.024 -3.13186 4.17986 0
M  V30 3986 H 391.718 -1.56502 2.5524 0
M  V30 3987 H 389.264 -0.751486 1.22836 0
M  V30 3988 H 391.217 -3.8516 1.70968 0
M  V30 3989 H 389.941 -3.2004 0.651287 0
M  V30 3990 H 388.6 -2.51237 2.66975 0
M  V30 3991 H 388.248 -4.75898 1.62879 0
M  V30 3992 H 387.948 -4.80356 3.38425 0
M  V30 3993 H 389.472 -5.46379 2.72584 0
M  V30 3994 H 390.886 -3.81049 4.2834 0
M  V30 3995 H 389.283 -3.3886 4.95272 0
M  V30 3996 H 390.353 -2.10057 4.3704 0
M  V30 3997 N 391.696 -1.35014 -0.812953 0
M  V30 3998 C 392.973 -1.18502 -1.55617 0
M  V30 3999 C 393.353 0.238421 -2.09749 0
M  V30 4000 O 392.701 1.2411 -1.91857 0
M  V30 4001 C 392.911 -2.24783 -2.66971 0
M  V30 4002 C 394.259 -2.60268 -3.35478 0
M  V30 4003 O 395.283 -2.23648 -2.77236 0
M  V30 4004 O 394.142 -3.2321 -4.40678 0
M  V30 4005 H 391.236 -0.459984 -0.687272 0
M  V30 4006 H 393.782 -1.46677 -0.853464 0
M  V30 4007 H 392.554 -3.20284 -2.24798 0
M  V30 4008 H 392.177 -1.97841 -3.44884 0
M  V30 4009 N 393.175 1.03435 -1.18907 0
M  V30 4010 C 394.122 2.11591 -0.921837 0
M  V30 4011 C 395.092 1.65499 0.141226 0
M  V30 4012 O 396.277 1.908 0.000242829 0
M  V30 4013 C 393.417 3.42012 -0.460616 0
M  V30 4014 C 392.53 4.01682 -1.58982 0
M  V30 4015 C 391.665 5.20091 -1.08069 0
M  V30 4016 C 390.704 5.71805 -2.18416 0
M  V30 4017 N 389.841 6.81494 -1.68849 0
M  V30 4018 H 394.681 2.33787 -1.8479 0
M  V30 4019 H 392.218 1.1467 -0.921373 0
M  V30 4020 H 394.176 4.16834 -0.174642 0
M  V30 4021 H 392.806 3.19944 0.428467 0
M  V30 4022 H 391.858 3.24127 -1.99113 0
M  V30 4023 H 393.17 4.36084 -2.4214 0
M  V30 4024 H 392.324 6.02051 -0.749615 0
M  V30 4025 H 391.063 4.87209 -0.218771 0
M  V30 4026 H 390.068 4.88461 -2.5236 0
M  V30 4027 H 391.293 6.06728 -3.05054 0
M  V30 4028 H 389.239 6.50475 -0.849572 0
M  V30 4029 H 389.156 7.14994 -2.45601 0
M  V30 4030 H 390.424 7.67063 -1.38689 0
M  V30 4031 N 394.653 0.992116 1.22453 0
M  V30 4032 C 395.881 0.685944 1.95198 0
M  V30 4033 C 396.296 -0.749233 1.73297 0
M  V30 4034 O 395.653 -1.50549 1.03156 0
M  V30 4035 C 395.704 0.981395 3.47924 0
M  V30 4036 O 395.425 2.36018 3.6909 0
M  V30 4037 C 396.926 0.692815 4.37853 0
M  V30 4038 H 394.146 0.253821 0.621141 0
M  V30 4039 H 396.69 1.32668 1.55626 0
M  V30 4040 H 394.845 0.386481 3.85467 0
M  V30 4041 H 395.259 2.45884 4.63294 0
M  V30 4042 H 396.733 0.949818 5.43767 0
M  V30 4043 H 397.21 -0.373181 4.37612 0
M  V30 4044 H 397.816 1.26874 4.05935 0
M  V30 4045 N 396.131 -1.37776 0.765217 0
M  V30 4046 C 397.361 -2.03828 0.337277 0
M  V30 4047 C 397.769 -1.57841 -1.04321 0
M  V30 4048 O 397.112 -0.752043 -1.67601 0
M  V30 4049 C 397.174 -3.58292 0.294407 0
M  V30 4050 C 396.838 -4.27384 1.61838 0
M  V30 4051 C 397.835 -4.51956 2.56967 0
M  V30 4052 C 395.52 -4.65345 1.89102 0
M  V30 4053 C 397.514 -5.13536 3.77571 0
M  V30 4054 C 395.201 -5.26647 3.09978 0
M  V30 4055 C 396.199 -5.50679 4.04032 0
M  V30 4056 O 395.887 -6.10702 5.2278 0
M  V30 4057 H 395.619 -0.661292 0.140248 0
M  V30 4058 H 398.173 -1.77222 1.03834 0
M  V30 4059 H 396.403 -3.83918 -0.462983 0
M  V30 4060 H 398.092 -4.05763 -0.105581 0
M  V30 4061 H 398.858 -4.23048 2.37183 0
M  V30 4062 H 394.737 -4.45978 1.16725 0
M  V30 4063 H 398.281 -5.3221 4.50997 0
M  V30 4064 H 394.178 -5.54979 3.29649 0
M  V30 4065 H 394.946 -6.29183 5.23517 0
M  V30 4066 N 397.609 -0.515225 -1.4894 0
M  V30 4067 C 398.539 0.244628 -2.32215 0
M  V30 4068 C 399.52 0.949136 -1.41157 0
M  V30 4069 O 400.705 0.937783 -1.70057 0
M  V30 4070 C 397.835 1.30096 -3.22013 0
M  V30 4071 C 396.789 0.715486 -4.21977 0
M  V30 4072 C 396.115 1.87339 -5.00808 0
M  V30 4073 C 397.415 -0.302982 -5.2142 0
M  V30 4074 H 399.109 -0.450501 -2.95991 0
M  V30 4075 H 396.655 -0.218098 -1.42339 0
M  V30 4076 H 398.608 1.84037 -3.79089 0
M  V30 4077 H 397.332 2.02547 -2.56207 0
M  V30 4078 H 395.991 0.197715 -3.66066 0
M  V30 4079 H 395.639 2.58592 -4.31438 0
M  V30 4080 H 395.339 1.48764 -5.68457 0
M  V30 4081 H 396.863 2.41686 -5.60732 0
M  V30 4082 H 398.277 0.148802 -5.73107 0
M  V30 4083 H 396.674 -0.60532 -5.97039 0
M  V30 4084 H 397.744 -1.21395 -4.69459 0
M  V30 4085 N 399.087 1.5561 -0.249682 0
M  V30 4086 C 400.05 2.20217 0.635394 0
M  V30 4087 C 401.05 1.17227 1.10066 0
M  V30 4088 O 402.24 1.42292 1.00492 0
M  V30 4089 C 399.372 2.84794 1.87363 0
M  V30 4090 H 400.565 2.99814 0.0716752 0
M  V30 4091 H 398.118 1.563 -0.000153234 0
M  V30 4092 H 398.853 2.09142 2.47851 0
M  V30 4093 H 398.638 3.60241 1.5482 0
M  V30 4094 H 400.128 3.3423 2.5036 0
M  V30 4095 N 400.565 -0.0233959 1.57583 0
M  V30 4096 C 401.528 -1.00693 2.05897 0
M  V30 4097 C 402.528 -1.28693 0.964092 0
M  V30 4098 O 403.718 -1.23602 1.22753 0
M  V30 4099 C 400.85 -2.33825 2.4807 0
M  V30 4100 H 402.043 -0.589476 2.9405 0
M  V30 4101 H 399.596 -0.270354 1.53944 0
M  V30 4102 H 400.331 -2.80307 1.6309 0
M  V30 4103 H 400.116 -2.1483 3.2801 0
M  V30 4104 H 401.606 -3.04426 2.85857 0
M  V30 4105 N 402.043 -1.548 -0.295768 0
M  V30 4106 C 403.006 -1.85363 -1.34808 0
M  V30 4107 C 404.006 -0.726817 -1.43436 0
M  V30 4108 O 405.196 -0.995088 -1.42981 0
M  V30 4109 C 402.328 -2.03859 -2.73229 0
M  V30 4110 H 403.521 -2.7941 -1.08949 0
M  V30 4111 H 401.074 -1.46942 -0.532702 0
M  V30 4112 H 401.809 -1.12117 -3.04303 0
M  V30 4113 H 401.594 -2.8588 -2.68356 0
M  V30 4114 H 403.084 -2.28857 -3.49305 0
M  V30 4115 N 403.521 0.559213 -1.47345 0
M  V30 4116 C 404.451 1.67622 -1.62558 0
M  V30 4117 C 405.432 1.63331 -0.475087 0
M  V30 4118 O 406.617 1.80983 -0.704182 0
M  V30 4119 C 403.747 3.0626 -1.63774 0
M  V30 4120 C 402.701 3.25397 -2.7803 0
M  V30 4121 C 402.027 4.64801 -2.64318 0
M  V30 4122 C 403.327 3.10965 -4.19641 0
M  V30 4123 H 405.021 1.55146 -2.56067 0
M  V30 4124 H 402.567 0.744961 -1.23233 0
M  V30 4125 H 404.52 3.84247 -1.73008 0
M  V30 4126 H 403.244 3.1969 -0.66825 0
M  V30 4127 H 401.903 2.49817 -2.68304 0
M  V30 4128 H 401.551 4.75028 -1.65401 0
M  V30 4129 H 401.251 4.78555 -3.40968 0
M  V30 4130 H 402.775 5.44926 -2.75478 0
M  V30 4131 H 404.189 3.78772 -4.30354 0
M  V30 4132 H 402.586 3.36229 -4.97062 0
M  V30 4133 H 403.656 2.07736 -4.38148 0
M  V30 4134 N 404.999 1.35443 0.805782 0
M  V30 4135 C 406.247 1.28507 1.55982 0
M  V30 4136 C 406.568 -0.140046 1.94496 0
M  V30 4137 O 405.838 -1.07666 1.63661 0
M  V30 4138 H 404.418 0.472676 0.578434 0
M  V30 4139 H 407.08 1.69555 0.961098 0
M  V30 4140 H 406.176 1.90148 2.47488 0
M  V30 4141 N 406.477 -1.02803 1.19454 0
M  V30 4142 C 407.705 -1.79841 1.02297 0
M  V30 4143 C 408.12 -1.83879 -0.428259 0
M  V30 4144 O 407.477 -1.28345 -1.29745 0
M  V30 4145 C 407.528 -3.24852 1.58598 0
M  V30 4146 O 407.249 -3.21097 2.98041 0
M  V30 4147 C 408.75 -4.18485 1.46236 0
M  V30 4148 H 405.97 -0.565936 0.360496 0
M  V30 4149 H 408.514 -1.2948 1.58288 0
M  V30 4150 H 406.669 -3.72401 1.06753 0
M  V30 4151 H 407.083 -4.12033 3.24545 0
M  V30 4152 H 408.557 -5.18121 1.90407 0
M  V30 4153 H 409.034 -4.37254 0.41301 0
M  V30 4154 H 409.64 -3.76811 1.97215 0
M  V30 4155 N 407.956 -0.998596 -1.21925 0
M  V30 4156 C 409.204 -0.676325 -1.90448 0
M  V30 4157 C 409.525 0.794719 -1.78071 0
M  V30 4158 O 408.795 1.5701 -1.17152 0
M  V30 4159 H 407.375 -0.247165 -0.704925 0
M  V30 4160 H 410.037 -1.26633 -1.48156 0
M  V30 4161 H 409.133 -0.943858 -2.97486 0
M  V30 4162 N 409.434 1.37368 -0.772513 0
M  V30 4163 C 410.381 2.30262 -0.157488 0
M  V30 4164 C 411.351 1.51137 0.688965 0
M  V30 4165 O 412.536 1.79704 0.641168 0
M  V30 4166 C 409.676 3.37611 0.715045 0
M  V30 4167 C 408.789 4.31746 -0.148098 0
M  V30 4168 C 407.924 5.26171 0.729213 0
M  V30 4169 C 406.963 6.11948 -0.136418 0
M  V30 4170 N 406.1 6.98613 0.698914 0
M  V30 4171 H 410.94 2.82277 -0.955179 0
M  V30 4172 H 408.477 1.38957 -0.482631 0
M  V30 4173 H 410.435 3.98479 1.23575 0
M  V30 4174 H 409.065 2.86959 1.47833 0
M  V30 4175 H 408.117 3.72178 -0.786613 0
M  V30 4176 H 409.429 4.92084 -0.81579 0
M  V30 4177 H 408.583 5.92247 1.31637 0
M  V30 4178 H 407.322 4.66246 1.43059 0
M  V30 4179 H 406.327 5.4485 -0.736102 0
M  V30 4180 H 407.552 6.73945 -0.835134 0
M  V30 4181 H 405.498 6.41215 1.38489 0
M  V30 4182 H 405.415 7.55948 0.0885358 0
M  V30 4183 H 406.683 7.69077 1.27044 0
M  V30 4184 N 410.912 0.523116 1.48665 0
M  V30 4185 C 412.158 -0.0134963 2.02796 0
M  V30 4186 C 412.491 -1.34582 1.40004 0
M  V30 4187 O 411.766 -1.86756 0.543381 0
M  V30 4188 C 412.049 -0.14276 3.59817 0
M  V30 4189 C 411.902 1.21425 4.331 0
M  V30 4190 C 413.221 -0.872856 4.31357 0
M  V30 4191 H 410.34 -0.00343074 0.736992 0
M  V30 4192 H 412.982 0.678816 1.7746 0
M  V30 4193 H 411.132 -0.732401 3.81534 0
M  V30 4194 H 412.804 1.84447 4.2282 0
M  V30 4195 H 411.047 1.79791 3.94788 0
M  V30 4196 H 411.718 1.07687 5.41394 0
M  V30 4197 H 414.194 -0.372555 4.14429 0
M  V30 4198 H 413.07 -0.932185 5.40927 0
M  V30 4199 H 413.331 -1.92161 3.98154 0
M  V30 4200 N 412.39 -1.55475 0.257931 0
M  V30 4201 C 413.618 -2.03609 -0.367559 0
M  V30 4202 C 414.033 -1.13687 -1.50734 0
M  V30 4203 O 413.39 -0.153479 -1.81853 0
M  V30 4204 C 413.441 -3.51001 -0.864908 0
M  V30 4205 O 413.162 -4.37499 0.229465 0
M  V30 4206 C 414.663 -4.14946 -1.55997 0
M  V30 4207 H 411.883 -0.665459 -0.0860521 0
M  V30 4208 H 414.427 -2.00843 0.385014 0
M  V30 4209 H 412.582 -3.54266 -1.56762 0
M  V30 4210 H 412.996 -5.24286 -0.14998 0
M  V30 4211 H 414.47 -5.19735 -1.85956 0
M  V30 4212 H 414.947 -3.6209 -2.4857 0
M  V30 4213 H 415.553 -4.15635 -0.901543 0
M  V30 4214 N 413.868 0.0150385 -1.57593 0
M  V30 4215 C 415.117 0.702115 -1.89085 0
M  V30 4216 C 415.43 1.75764 -0.858277 0
M  V30 4217 O 416.636 2.49829 -1.0629 0
M  V30 4218 C 415.092 1.29992 -3.35604 0
M  V30 4219 C 414.7 0.280007 -4.47124 0
M  V30 4220 C 416.444 1.96606 -3.76227 0
M  V30 4221 C 414.351 0.886949 -5.84711 0
M  V30 4222 H 413.281 0.265997 -0.705522 0
M  V30 4223 H 415.932 -0.0430408 -1.8345 0
M  V30 4224 H 414.314 2.09525 -3.36029 0
M  V30 4225 H 415.488 -0.489631 -4.58191 0
M  V30 4226 H 413.803 -0.284835 -4.15425 0
M  V30 4227 H 416.4 2.42893 -4.76347 0
M  V30 4228 H 416.743 2.79024 -3.08952 0
M  V30 4229 H 417.276 1.23828 -3.78036 0
M  V30 4230 H 414.015 0.101876 -6.55421 0
M  V30 4231 H 413.535 1.6261 -5.77337 0
M  V30 4232 H 415.214 1.39011 -6.3189 0
M  V30 4233 N 415.346 1.54954 0.287554 0
M  V30 4234 C 416.278 1.83224 1.37701 0
M  V30 4235 C 417.291 0.715898 1.46215 0
M  V30 4236 O 418.48 0.993565 1.48292 0
M  V30 4237 C 415.58 1.96723 2.75959 0
M  V30 4238 C 414.753 3.27253 2.90215 0
M  V30 4239 C 413.812 3.30998 4.09056 0
M  V30 4240 O 412.838 4.04457 4.00503 0
M  V30 4241 N 414.04 2.57353 5.20336 0
M  V30 4242 H 416.805 2.77254 1.138 0
M  V30 4243 H 414.366 1.54694 0.477652 0
M  V30 4244 H 416.358 1.96615 3.5373 0
M  V30 4245 H 414.928 1.09626 2.92747 0
M  V30 4246 H 414.148 3.40022 1.99447 0
M  V30 4247 H 415.436 4.13365 2.96659 0
M  V30 4248 H 414.834 1.97327 5.30169 0
M  V30 4249 H 413.391 2.62984 5.96391 0
M  V30 4250 N 416.824 -0.551391 1.4764 0
M  V30 4251 C 418.052 -1.33357 1.58189 0
M  V30 4252 C 418.467 -1.87342 0.234199 0
M  V30 4253 O 417.824 -1.65301 -0.77343 0
M  V30 4254 C 417.875 -2.49942 2.61173 0
M  V30 4255 O 417.596 -1.98187 3.90709 0
M  V30 4256 C 419.097 -3.42072 2.8196 0
M  V30 4257 H 416.317 -0.40631 0.533998 0
M  V30 4258 H 418.861 -0.667367 1.93304 0
M  V30 4259 H 417.016 -3.12489 2.28975 0
M  V30 4260 H 417.43 -2.74342 4.47031 0
M  V30 4261 H 418.904 -4.20278 3.57869 0
M  V30 4262 H 419.381 -3.95978 1.89995 0
M  V30 4263 H 419.987 -2.85336 3.15378 0
M  V30 4264 N 418.302 -1.35869 -0.798587 0
M  V30 4265 C 419.232 -1.32118 -1.92528 0
M  V30 4266 C 420.213 -0.194209 -1.68988 0
M  V30 4267 O 421.398 -0.390426 -1.90235 0
M  V30 4268 C 418.528 -1.10047 -3.29404 0
M  V30 4269 C 417.482 -2.19471 -3.67446 0
M  V30 4270 C 416.808 -1.82555 -5.02571 0
M  V30 4271 C 418.108 -3.61495 -3.76987 0
M  V30 4272 H 419.802 -2.26394 -1.95924 0
M  V30 4273 H 417.348 -1.08981 -0.94123 0
M  V30 4274 H 419.301 -1.06061 -4.07835 0
M  V30 4275 H 418.025 -0.122195 -3.26371 0
M  V30 4276 H 416.684 -2.22568 -2.91306 0
M  V30 4277 H 416.332 -0.833249 -4.9605 0
M  V30 4278 H 416.032 -2.5581 -5.28995 0
M  V30 4279 H 417.556 -1.80108 -5.83432 0
M  V30 4280 H 418.97 -3.60676 -4.4563 0
M  V30 4281 H 417.367 -4.33577 -4.14887 0
M  V30 4282 H 418.437 -3.97065 -2.78329 0
M  V30 4283 N 419.78 1.02168 -1.19998 0
M  V30 4284 C 420.73 2.08969 -0.911921 0
M  V30 4285 C 421.714 1.60404 0.12621 0
M  V30 4286 O 422.906 1.76817 -0.0804706 0
M  V30 4287 C 420.035 3.402 -0.460277 0
M  V30 4288 C 419.121 3.9548 -1.53155 0
M  V30 4289 N 419.512 4.24332 -2.75275 0
M  V30 4290 C 417.81 4.23572 -1.39653 0
M  V30 4291 C 418.511 4.68834 -3.44339 0
M  V30 4292 N 417.487 4.70804 -2.71744 0
M  V30 4293 H 421.289 2.29178 -1.83997 0
M  V30 4294 H 418.803 1.20094 -1.09322 0
M  V30 4295 H 420.8 4.16235 -0.235337 0
M  V30 4296 H 419.46 3.21408 0.4612 0
M  V30 4297 H 420.471 4.13393 -3.11973 0
M  V30 4298 H 417.148 4.14005 -0.539067 0
M  V30 4299 H 418.538 5.00019 -4.4881 0
M  V30 4300 N 421.258 1.00505 1.21394 0
M  V30 4301 C 422.19 0.52372 2.23136 0
M  V30 4302 C 423.203 -0.387714 1.58116 0
M  V30 4303 O 424.392 -0.187905 1.77508 0
M  V30 4304 C 421.492 -0.258885 3.3791 0
M  V30 4305 C 420.665 0.651634 4.32519 0
M  V30 4306 C 419.724 -0.0813705 5.26137 0
M  V30 4307 O 418.75 0.537295 5.66658 0
M  V30 4308 N 419.952 -1.35992 5.64346 0
M  V30 4309 H 422.717 1.39865 2.65062 0
M  V30 4310 H 420.278 0.881196 1.35818 0
M  V30 4311 H 422.27 -0.758208 3.97534 0
M  V30 4312 H 420.84 -1.035 2.94968 0
M  V30 4313 H 420.06 1.33145 3.71034 0
M  V30 4314 H 421.348 1.27129 4.92662 0
M  V30 4315 H 420.746 -1.88368 5.33417 0
M  V30 4316 H 419.303 -1.8042 6.26332 0
M  V30 4317 N 422.737 -1.36956 0.779787 0
M  V30 4318 C 423.983 -1.99787 0.348281 0
M  V30 4319 C 424.316 -1.61756 -1.07465 0
M  V30 4320 O 423.591 -0.867639 -1.74075 0
M  V30 4321 C 423.874 -3.56597 0.50104 0
M  V30 4322 C 423.727 -4.04513 1.96697 0
M  V30 4323 C 425.046 -4.40008 -0.0898097 0
M  V30 4324 H 422.165 -0.725796 0.128022 0
M  V30 4325 H 424.807 -1.62514 0.984331 0
M  V30 4326 H 422.957 -3.88479 -0.0404347 0
M  V30 4327 H 424.629 -3.83161 2.56876 0
M  V30 4328 H 422.872 -3.56408 2.47297 0
M  V30 4329 H 423.543 -5.1352 2.02486 0
M  V30 4330 H 426.019 -4.14431 0.372293 0
M  V30 4331 H 424.895 -5.4888 0.0471605 0
M  V30 4332 H 425.156 -4.26035 -1.18096 0
M  V30 4333 N 424.215 -0.530993 -1.48385 0
M  V30 4334 C 425.162 0.231223 -2.29639 0
M  V30 4335 C 426.132 0.932864 -1.37429 0
M  V30 4336 O 427.317 0.933692 -1.66394 0
M  V30 4337 C 424.457 1.27155 -3.2082 0
M  V30 4338 C 423.57 0.578655 -4.28107 0
M  V30 4339 C 422.705 1.602 -5.06467 0
M  V30 4340 C 421.744 0.892625 -6.05556 0
M  V30 4341 N 420.881 1.86157 -6.76971 0
M  V30 4342 H 425.721 -0.467848 -2.94305 0
M  V30 4343 H 423.258 -0.242556 -1.45086 0
M  V30 4344 H 425.216 1.88703 -3.72085 0
M  V30 4345 H 423.846 1.939 -2.58075 0
M  V30 4346 H 422.898 -0.150782 -3.80101 0
M  V30 4347 H 424.21 0.0217065 -4.98795 0
M  V30 4348 H 423.364 2.29173 -5.61751 0
M  V30 4349 H 422.103 2.19285 -4.35621 0
M  V30 4350 H 421.108 0.188829 -5.49476 0
M  V30 4351 H 422.333 0.307878 -6.78402 0
M  V30 4352 H 420.279 2.44147 -6.08875 0
M  V30 4353 H 420.196 1.35608 -7.43738 0
M  V30 4354 H 421.464 2.54325 -7.36844 0
M  V30 4355 N 425.693 1.55336 -0.266172 0
M  V30 4356 C 426.921 2.03801 0.356756 0
M  V30 4357 C 427.336 1.14485 1.50129 0
M  V30 4358 O 426.693 0.163121 1.8177 0
M  V30 4359 C 426.744 3.51455 0.846281 0
M  V30 4360 O 426.465 4.37371 -0.252663 0
M  V30 4361 C 427.966 4.15767 1.53794 0
M  V30 4362 H 425.186 0.665906 0.0825218 0
M  V30 4363 H 427.73 2.00636 -0.39566 0
M  V30 4364 H 425.885 3.55092 1.54881 0
M  V30 4365 H 426.299 5.24358 0.122173 0
M  V30 4366 H 427.773 5.20714 1.83198 0
M  V30 4367 H 428.25 3.63404 2.46646 0
M  V30 4368 H 428.856 4.16107 0.879488 0
M  V30 4369 N 427.171 -0.0066808 1.57599 0
M  V30 4370 C 428.42 -0.692078 1.89455 0
M  V30 4371 C 428.733 -1.75306 0.867586 0
M  V30 4372 O 429.939 -2.49262 1.07614 0
M  V30 4373 C 428.395 -1.2821 3.36289 0
M  V30 4374 C 428.003 -0.256291 4.47266 0
M  V30 4375 C 429.747 -1.94608 3.77264 0
M  V30 4376 C 427.654 -0.855927 5.85173 0
M  V30 4377 H 426.584 -0.262252 0.706923 0
M  V30 4378 H 429.235 0.052769 1.83424 0
M  V30 4379 H 427.617 -2.0774 3.37135 0
M  V30 4380 H 428.791 0.513923 4.57925 0
M  V30 4381 H 427.106 0.306862 4.15268 0
M  V30 4382 H 429.703 -2.40364 4.77629 0
M  V30 4383 H 430.046 -2.77382 3.10427 0
M  V30 4384 H 430.579 -1.21822 3.78688 0
M  V30 4385 H 427.318 -0.0671161 6.55466 0
M  V30 4386 H 426.838 -1.59546 5.78191 0
M  V30 4387 H 428.517 -1.35658 6.32618 0
M  V30 4388 N 428.649 -1.55105 -0.279332 0
M  V30 4389 C 430.065 -1.46803 -0.626187 0
M  V30 4390 C 430.265 -0.676939 -1.89789 0
M  V30 4391 O 429.321 -0.19326 -2.51759 0
M  V30 4392 C 430.634 -2.90962 -0.759034 0
M  V30 4393 C 432.182 -3.01138 -0.853504 0
M  V30 4394 C 432.657 -4.46539 -1.01818 0
M  V30 4395 N 434.148 -4.50341 -1.08386 0
M  V30 4396 C 434.883 -5.60053 -1.22996 0
M  V30 4397 N 434.379 -6.79645 -1.34366 0
M  V30 4398 N 436.172 -5.47783 -1.26056 0
M  V30 4399 H 428.323 -2.04996 0.555921 0
M  V30 4400 H 430.586 -0.929325 0.187239 0
M  V30 4401 H 430.292 -3.51544 0.104852 0
M  V30 4402 H 430.166 -3.39619 -1.64131 0
M  V30 4403 H 432.553 -2.40658 -1.70786 0
M  V30 4404 H 432.634 -2.55745 0.0532466 0
M  V30 4405 H 432.278 -5.0762 -0.168504 0
M  V30 4406 H 432.208 -4.89583 -1.93948 0
M  V30 4407 H 434.699 -3.64191 -1.00864 0
M  V30 4408 H 435.012 -7.59012 -1.4533 0
M  V30 4409 H 433.357 -6.82469 -1.31382 0
M  V30 4410 H 436.548 -4.53294 -1.168 0
M  V30 4411 H 436.721 -6.33331 -1.37098 0
M  V30 4412 N 430.127 0.543554 -1.4793 0
M  V30 4413 C 431.059 1.665 -1.57513 0
M  V30 4414 C 432.072 1.56156 -0.460333 0
M  V30 4415 O 433.261 1.62865 -0.730573 0
M  V30 4416 C 430.361 3.05063 -1.47614 0
M  V30 4417 C 429.534 3.41024 -2.739 0
M  V30 4418 C 428.593 4.58809 -2.57645 0
M  V30 4419 O 427.619 4.62707 -3.31498 0
M  V30 4420 N 428.821 5.56149 -1.66368 0
M  V30 4421 H 431.586 1.5872 -2.5422 0
M  V30 4422 H 429.147 0.730517 -1.44482 0
M  V30 4423 H 431.139 3.81712 -1.34455 0
M  V30 4424 H 429.709 3.06994 -0.589359 0
M  V30 4425 H 428.929 2.53687 -3.01723 0
M  V30 4426 H 430.217 3.61831 -3.57709 0
M  V30 4427 H 429.615 5.55767 -1.05543 0
M  V30 4428 H 428.172 6.32071 -1.59154 0
M  V30 4429 N 431.605 1.3629 0.791371 0
M  V30 4430 C 432.833 1.33562 1.58016 0
M  V30 4431 C 433.248 -0.0835616 1.88615 0
M  V30 4432 O 432.605 -1.0399 1.49974 0
M  V30 4433 C 432.656 2.15517 2.90232 0
M  V30 4434 O 432.377 3.51902 2.60953 0
M  V30 4435 C 433.878 2.20546 3.84544 0
M  V30 4436 H 431.098 0.458226 0.490173 0
M  V30 4437 H 433.642 1.79361 0.982345 0
M  V30 4438 H 431.797 1.73278 3.46487 0
M  V30 4439 H 432.211 3.94644 3.4548 0
M  V30 4440 H 433.685 2.82252 4.74382 0
M  V30 4441 H 434.162 1.20838 4.2225 0
M  V30 4442 H 434.768 2.63013 3.34222 0
M  V30 4443 N 433.083 -1.0153 1.20538 0
M  V30 4444 C 434.03 -2.10098 0.955383 0
M  V30 4445 C 435 -1.65702 -0.114878 0
M  V30 4446 O 436.185 -1.90776 0.0301118 0
M  V30 4447 C 433.325 -3.41236 0.514969 0
M  V30 4448 C 432.438 -3.99102 1.65353 0
M  V30 4449 C 431.573 -5.18306 1.16329 0
M  V30 4450 C 430.612 -5.68258 2.27485 0
M  V30 4451 N 429.749 -6.78722 1.7967 0
M  V30 4452 H 434.589 -2.30818 1.88486 0
M  V30 4453 H 432.126 -1.13189 0.939499 0
M  V30 4454 H 434.084 -4.16504 0.240935 0
M  V30 4455 H 432.714 -3.20585 -0.377512 0
M  V30 4456 H 431.766 -3.20918 2.04245 0
M  V30 4457 H 433.078 -4.32177 2.49047 0
M  V30 4458 H 432.232 -6.00782 0.845302 0
M  V30 4459 H 430.971 -4.86799 0.296254 0
M  V30 4460 H 429.976 -4.84385 2.60099 0
M  V30 4461 H 431.201 -6.01798 3.14667 0
M  V30 4462 H 429.147 -6.49042 0.95295 0
M  V30 4463 H 429.064 -7.10996 2.56944 0
M  V30 4464 H 430.332 -7.64759 1.50875 0
M  V30 4465 N 434.561 -1.01147 -1.20859 0
M  V30 4466 C 435.838 -0.613136 -1.85742 0
M  V30 4467 C 436.218 0.909004 -1.90526 0
M  V30 4468 O 435.566 1.79862 -1.40932 0
M  V30 4469 C 435.776 -1.255 -3.25654 0
M  V30 4470 C 437.124 -1.3672 -4.01986 0
M  V30 4471 O 438.148 -1.21082 -3.34989 0
M  V30 4472 O 437.007 -1.6194 -5.21956 0
M  V30 4473 H 434.101 -0.210878 -0.799662 0
M  V30 4474 H 436.647 -1.10853 -1.2849 0
M  V30 4475 H 435.419 -2.29532 -3.16908 0
M  V30 4476 H 435.042 -0.746369 -3.90532 0
M  V30 4477 N 436.039 1.36541 -0.78704 0
M  V30 4478 C 437.287 1.98911 -0.357633 0
M  V30 4479 C 437.608 1.62778 1.07371 0
M  V30 4480 O 436.878 0.900612 1.73971 0
M  V30 4481 H 435.458 0.735734 -0.129246 0
M  V30 4482 H 438.12 1.66776 -1.00855 0
M  V30 4483 H 437.216 3.08874 -0.447549 0
M  V30 4484 N 437.518 0.538854 1.48102 0
M  V30 4485 C 438.766 0.00798599 2.02098 0
M  V30 4486 C 439.087 -1.33922 1.41739 0
M  V30 4487 O 438.357 -1.86932 0.585934 0
M  V30 4488 H 436.937 -3.62179e-05 0.747 0
M  V30 4489 H 439.599 0.7047 1.81714 0
M  V30 4490 H 438.695 -0.0937672 3.11959 0
M  V30 4491 N 438.996 -1.55193 0.274407 0
M  V30 4492 C 440.226 -2.03692 -0.345442 0
M  V30 4493 C 440.634 -1.15224 -1.50067 0
M  V30 4494 O 439.977 -0.164749 -1.8296 0
M  V30 4495 C 440.039 -3.48325 -0.88939 0
M  V30 4496 C 439.703 -4.56794 0.137115 0
M  V30 4497 C 440.7 -5.11028 0.956378 0
M  V30 4498 C 438.385 -5.01568 0.27115 0
M  V30 4499 C 440.379 -6.08552 1.89587 0
M  V30 4500 C 438.066 -5.98918 1.21412 0
M  V30 4501 C 439.064 -6.52291 2.02498 0
M  V30 4502 O 438.752 -7.47738 2.952 0
M  V30 4503 H 438.484 -0.670893 -0.0829332 0
M  V30 4504 H 441.038 -2.01387 0.404056 0
M  V30 4505 H 439.268 -3.47867 -1.68895 0
M  V30 4506 H 440.957 -3.80167 -1.42225 0
M  V30 4507 H 441.723 -4.7725 0.863559 0
M  V30 4508 H 437.602 -4.5967 -0.349987 0
M  V30 4509 H 441.146 -6.50137 2.52918 0
M  V30 4510 H 437.043 -6.32114 1.30776 0
M  V30 4511 H 437.811 -7.65451 2.89874 0
M  V30 4512 N 440.474 -0.00167713 -1.576 0
M  V30 4513 C 441.437 0.974046 -2.07473 0
M  V30 4514 C 442.437 1.27143 -0.984444 0
M  V30 4515 O 443.627 1.21633 -1.24703 0
M  V30 4516 C 440.759 2.29849 -2.51759 0
M  V30 4517 H 441.952 0.54262 -2.9495 0
M  V30 4518 H 439.505 0.245829 -1.54355 0
M  V30 4519 H 440.24 2.77677 -1.67529 0
M  V30 4520 H 440.025 2.09584 -3.31386 0
M  V30 4521 H 441.515 2.9984 -2.90664 0
M  V30 4522 N 441.952 1.55251 0.271103 0
M  V30 4523 C 442.882 1.9127 1.33933 0
M  V30 4524 C 443.863 0.77478 1.5143 0
M  V30 4525 O 445.048 1.03307 1.64442 0
M  V30 4526 C 442.178 2.18627 2.69851 0
M  V30 4527 C 441.132 3.34442 2.67081 0
M  V30 4528 C 440.458 3.47284 4.06569 0
M  V30 4529 C 441.758 4.70784 2.26185 0
M  V30 4530 H 443.452 2.80744 1.04035 0
M  V30 4531 H 440.998 1.35077 0.499017 0
M  V30 4532 H 442.951 2.42413 3.44694 0
M  V30 4533 H 441.675 1.25955 3.01335 0
M  V30 4534 H 440.334 3.10627 1.94695 0
M  V30 4535 H 439.982 2.52074 4.35279 0
M  V30 4536 H 439.682 4.25152 4.0561 0
M  V30 4537 H 441.206 3.73363 4.83148 0
M  V30 4538 H 442.62 4.94102 2.90751 0
M  V30 4539 H 441.017 5.51582 2.36384 0
M  V30 4540 H 442.087 4.69478 1.21319 0
M  V30 4541 N 443.43 -0.535701 1.48216 0
M  V30 4542 C 444.658 -1.31671 1.59594 0
M  V30 4543 C 445.073 -1.87083 0.254056 0
M  V30 4544 O 444.43 -1.66112 -0.755854 0
M  V30 4545 C 444.481 -2.47158 2.63809 0
M  V30 4546 O 444.202 -1.94032 3.92789 0
M  V30 4547 C 445.703 -3.39062 2.85573 0
M  V30 4548 H 442.923 -0.400623 0.538277 0
M  V30 4549 H 445.467 -0.646827 1.94001 0
M  V30 4550 H 443.622 -3.10043 2.32276 0
M  V30 4551 H 444.036 -2.69585 4.49916 0
M  V30 4552 H 445.51 -4.16459 3.62306 0
M  V30 4553 H 445.987 -3.93941 1.94184 0
M  V30 4554 H 446.593 -2.81975 3.18387 0
M  V30 4555 N 444.908 -1.36708 -0.784132 0
M  V30 4556 C 446.154 -1.31426 -1.54451 0
M  V30 4557 C 446.487 0.10476 -1.93917 0
M  V30 4558 O 445.762 1.05934 -1.6312 0
M  V30 4559 C 446.045 -2.24189 -2.818 0
M  V30 4560 C 445.898 -3.74813 -2.48667 0
M  V30 4561 C 447.217 -2.15626 -3.83658 0
M  V30 4562 H 444.336 -0.478739 -0.560337 0
M  V30 4563 H 446.978 -1.67305 -0.900498 0
M  V30 4564 H 445.128 -1.93722 -3.36755 0
M  V30 4565 H 446.8 -4.15823 -1.99722 0
M  V30 4566 H 445.043 -3.93989 -1.81535 0
M  V30 4567 H 445.714 -4.35138 -3.39646 0
M  V30 4568 H 448.19 -2.42456 -3.38163 0
M  V30 4569 H 447.066 -2.82694 -4.70506 0
M  V30 4570 H 447.327 -1.14522 -4.27009 0
M  V30 4571 N 446.386 1.0089 -1.21074 0
M  V30 4572 C 447.296 2.13039 -0.982425 0
M  V30 4573 C 448.312 1.73881 0.0642161 0
M  V30 4574 O 449.488 2.01012 -0.12496 0
M  V30 4575 C 446.553 3.42377 -0.545803 0
M  V30 4576 C 445.614 3.95731 -1.6642 0
M  V30 4577 C 444.847 5.18896 -1.24832 0
M  V30 4578 O 445.07 5.70273 -0.120265 0
M  V30 4579 O 444.004 5.65597 -2.05873 0
M  V30 4580 H 447.83 2.35175 -1.92163 0
M  V30 4581 H 445.415 1.1142 -0.995285 0
M  V30 4582 H 447.297 4.20244 -0.311912 0
M  V30 4583 H 445.972 3.21639 0.364727 0
M  V30 4584 H 444.879 3.19108 -1.95246 0
M  V30 4585 H 446.212 4.20872 -2.55201 0
M  V30 4586 N 447.864 1.01787 1.20321 0
M  V30 4587 C 448.796 0.547357 2.22568 0
M  V30 4588 C 449.809 -0.370922 1.58518 0
M  V30 4589 O 450.998 -0.169067 1.77698 0
M  V30 4590 C 448.098 -0.223031 3.38165 0
M  V30 4591 C 447.271 0.697472 4.31803 0
M  V30 4592 C 446.33 -0.025562 5.26194 0
M  V30 4593 O 445.356 0.597367 5.66057 0
M  V30 4594 N 446.558 -1.29999 5.65757 0
M  V30 4595 H 449.323 1.42668 2.63564 0
M  V30 4596 H 446.884 0.895552 1.34876 0
M  V30 4597 H 448.876 -0.716002 3.98316 0
M  V30 4598 H 447.446 -1.00366 2.9605 0
M  V30 4599 H 446.666 1.37073 3.69601 0
M  V30 4600 H 447.954 1.32347 4.91286 0
M  V30 4601 H 447.352 -1.827 5.35385 0
M  V30 4602 H 445.909 -1.73766 6.28211 0
M  V30 4603 N 449.342 -1.36122 0.79427 0
M  V30 4604 C 450.289 -2.29982 0.194101 0
M  V30 4605 C 451.259 -1.52214 -0.664833 0
M  V30 4606 O 452.444 -1.80702 -0.612498 0
M  V30 4607 C 449.584 -3.38706 -0.661244 0
M  V30 4608 C 448.697 -4.31456 0.216766 0
M  V30 4609 C 447.832 -5.27265 -0.645411 0
M  V30 4610 C 446.871 -6.11653 0.233756 0
M  V30 4611 N 446.008 -6.99636 -0.587682 0
M  V30 4612 H 450.848 -2.80722 0.999965 0
M  V30 4613 H 448.385 -1.38172 0.504677 0
M  V30 4614 H 450.343 -4.00394 -1.17219 0
M  V30 4615 H 448.973 -2.89274 -1.43249 0
M  V30 4616 H 448.025 -3.7088 0.845724 0
M  V30 4617 H 449.337 -4.90724 0.893973 0
M  V30 4618 H 448.491 -5.94266 -1.22198 0
M  V30 4619 H 447.23 -4.68463 -1.35623 0
M  V30 4620 H 446.235 -5.4361 0.82269 0
M  V30 4621 H 447.46 -6.72531 0.942247 0
M  V30 4622 H 445.406 -6.43337 -1.2827 0
M  V30 4623 H 445.323 -7.55993 0.0317402 0
M  V30 4624 H 446.591 -7.71001 -1.14792 0
M  V30 4625 N 450.82 -0.546701 -1.47814 0
M  V30 4626 C 452.097 0.0464413 -1.95545 0
M  V30 4627 C 452.477 1.4962 -1.48919 0
M  V30 4628 O 451.825 2.16752 -0.723232 0
M  V30 4629 C 452.035 -0.0881298 -3.48889 0
M  V30 4630 C 453.383 0.0626059 -4.24554 0
M  V30 4631 O 454.407 -0.0151555 -3.56197 0
M  V30 4632 O 453.266 0.228071 -5.46024 0
M  V30 4633 H 450.36 0.0700004 -0.824032 0
M  V30 4634 H 452.906 -0.612482 -1.58262 0
M  V30 4635 H 451.678 -1.09737 -3.75597 0
M  V30 4636 H 451.301 0.608886 -3.9291 0
M  V30 4637 N 452.299 1.55045 -0.282633 0
M  V30 4638 C 453.527 2.04168 0.33512 0
M  V30 4639 C 453.942 1.16071 1.48906 0
M  V30 4640 O 453.299 0.182391 1.81586 0
M  V30 4641 C 453.35 3.52332 0.808957 0
M  V30 4642 O 453.071 4.37078 -0.299038 0
M  V30 4643 C 454.572 4.17375 1.49375 0
M  V30 4644 H 451.792 0.666744 0.0754543 0
M  V30 4645 H 454.336 2.00205 -0.416918 0
M  V30 4646 H 452.491 3.56715 1.51106 0
M  V30 4647 H 452.905 5.24458 0.0665514 0
M  V30 4648 H 454.379 5.22627 1.77664 0
M  V30 4649 H 454.856 3.65999 2.42778 0
M  V30 4650 H 455.462 4.17016 0.835305 0
M  V30 4651 N 453.777 0.010035 1.57597 0
M  V30 4652 C 455.054 -0.710296 1.82248 0
M  V30 4653 C 455.434 -1.91426 0.889911 0
M  V30 4654 O 454.782 -2.28424 -0.0590292 0
M  V30 4655 C 454.992 -1.10655 3.30993 0
M  V30 4656 C 456.34 -1.50621 3.96987 0
M  V30 4657 O 457.364 -1.20007 3.35375 0
M  V30 4658 O 456.223 -2.07587 5.05539 0
M  V30 4659 H 453.317 -0.34673 0.750804 0
M  V30 4660 H 455.863 0.0362578 1.69661 0
M  V30 4661 H 454.635 -0.248826 3.90508 0
M  V30 4662 H 454.258 -1.91189 3.48615 0
M  V30 4663 N 455.255 -1.55392 -0.262866 0
M  V30 4664 C 456.503 -1.76127 -0.991147 0
M  V30 4665 C 456.824 -0.571083 -1.8645 0
M  V30 4666 O 456.094 0.413698 -1.91482 0
M  V30 4667 H 454.674 -0.649528 -0.368948 0
M  V30 4668 H 457.336 -1.9281 -0.284655 0
M  V30 4669 H 456.432 -2.6663 -1.62219 0
M  V30 4670 N 456.733 0.527833 -1.48498 0
M  V30 4671 C 457.68 1.6322 -1.6318 0
M  V30 4672 C 458.65 1.59199 -0.473815 0
M  V30 4673 O 459.835 1.77591 -0.697563 0
M  V30 4674 C 456.975 3.01474 -1.67951 0
M  V30 4675 C 456.088 3.15713 -2.94871 0
M  V30 4676 C 455.223 4.44539 -2.90789 0
M  V30 4677 C 454.262 4.52315 -4.12404 0
M  V30 4678 N 453.399 5.72533 -4.06387 0
M  V30 4679 H 458.239 1.50011 -2.57489 0
M  V30 4680 H 455.776 0.730298 -1.27691 0
M  V30 4681 H 457.734 3.81572 -1.68698 0
M  V30 4682 H 456.364 3.1345 -0.771306 0
M  V30 4683 H 455.416 2.28854 -3.03859 0
M  V30 4684 H 456.728 3.1732 -3.8485 0
M  V30 4685 H 455.882 5.3293 -2.89949 0
M  V30 4686 H 454.621 4.45457 -1.98542 0
M  V30 4687 H 453.626 3.62331 -4.13517 0
M  V30 4688 H 454.851 4.53134 -5.05812 0
M  V30 4689 H 452.797 5.74344 -3.16962 0
M  V30 4690 H 452.714 5.75643 -4.90073 0
M  V30 4691 H 453.982 6.63204 -4.0961 0
M  V30 4692 N 458.211 1.37122 0.776871 0
M  V30 4693 C 459.141 1.35164 1.90402 0
M  V30 4694 C 460.122 0.221069 1.68657 0
M  V30 4695 O 461.307 0.420642 1.8959 0
M  V30 4696 C 458.437 1.15274 3.27611 0
M  V30 4697 C 457.391 2.25289 3.63908 0
M  V30 4698 C 456.717 1.90527 4.99603 0
M  V30 4699 C 458.017 3.67446 3.71188 0
M  V30 4700 H 459.711 2.29482 1.92297 0
M  V30 4701 H 457.257 1.10465 0.923773 0
M  V30 4702 H 459.21 1.12536 4.06096 0
M  V30 4703 H 457.934 0.174102 3.26136 0
M  V30 4704 H 456.593 2.27174 2.87728 0
M  V30 4705 H 456.241 0.91206 4.94662 0
M  V30 4706 H 455.941 2.64193 5.24858 0
M  V30 4707 H 457.465 1.89367 5.80493 0
M  V30 4708 H 458.879 3.67719 4.39836 0
M  V30 4709 H 457.276 4.40123 4.07936 0
M  V30 4710 H 458.346 4.01443 2.71977 0
M  V30 4711 N 459.689 -1.00246 1.21608 0
M  V30 4712 C 460.619 -2.10921 1.00172 0
M  V30 4713 C 461.6 -1.69938 -0.0741587 0
M  V30 4714 O 462.785 -1.94009 0.0861753 0
M  V30 4715 C 459.915 -3.42618 0.568355 0
M  V30 4716 C 458.869 -3.97407 1.58909 0
M  V30 4717 C 458.195 -5.25038 1.01187 0
M  V30 4718 C 459.495 -4.2918 2.97661 0
M  V30 4719 H 461.189 -2.29112 1.92739 0
M  V30 4720 H 458.735 -1.10101 0.928102 0
M  V30 4721 H 460.688 -4.19444 0.405555 0
M  V30 4722 H 459.412 -3.24227 -0.392961 0
M  V30 4723 H 458.071 -3.22703 1.73949 0
M  V30 4724 H 457.719 -5.02982 0.0421965 0
M  V30 4725 H 457.419 -5.62661 1.6937 0
M  V30 4726 H 458.943 -6.04507 0.860448 0
M  V30 4727 H 460.357 -4.96839 2.86049 0
M  V30 4728 H 458.754 -4.77952 3.6288 0
M  V30 4729 H 459.824 -3.3735 3.48315 0
M  V30 4730 N 461.167 -1.02423 -1.1978 0
M  V30 4731 C 462.13 -0.605703 -2.21052 0
M  V30 4732 C 463.13 0.328209 -1.57415 0
M  V30 4733 O 464.32 0.115853 -1.73814 0
M  V30 4734 C 461.452 0.114366 -3.40708 0
M  V30 4735 H 462.645 -1.5017 -2.59594 0
M  V30 4736 H 460.198 -0.814888 -1.33376 0
M  V30 4737 H 460.933 1.02492 -3.07678 0
M  V30 4738 H 460.718 -0.556641 -3.88129 0
M  V30 4739 H 462.208 0.394272 -4.15735 0
M  V30 4740 N 462.645 1.35699 -0.801477 0
M  V30 4741 C 463.873 2.03157 -0.391768 0
M  V30 4742 C 464.288 1.60412 0.995668 0
M  V30 4743 O 463.645 0.799228 1.64069 0
M  V30 4744 C 463.696 3.58566 -0.459671 0
M  V30 4745 O 463.417 3.99756 -1.7924 0
M  V30 4746 C 464.918 4.4328 -0.0421205 0
M  V30 4747 H 462.138 0.651688 -0.159825 0
M  V30 4748 H 464.682 1.73426 -1.08368 0
M  V30 4749 H 462.837 3.86963 0.183939 0
M  V30 4750 H 463.251 4.94387 -1.75162 0
M  V30 4751 H 464.725 5.51821 -0.140754 0
M  V30 4752 H 465.202 4.27383 1.01196 0
M  V30 4753 H 465.808 4.20168 -0.658687 0
M  V30 4754 N 464.123 0.554532 1.47522 0
M  V30 4755 C 465.07 -0.19466 2.29978 0
M  V30 4756 C 466.04 -0.910882 1.38896 0
M  V30 4757 O 467.225 -0.907102 1.67858 0
M  V30 4758 C 464.365 -1.22035 3.22802 0
M  V30 4759 C 463.478 -0.510474 4.28973 0
M  V30 4760 C 462.613 -1.52123 5.08952 0
M  V30 4761 C 461.652 -0.796173 6.069 0
M  V30 4762 N 460.789 -1.75363 6.79847 0
M  V30 4763 H 465.629 0.51461 2.93523 0
M  V30 4764 H 463.166 0.265607 1.44682 0
M  V30 4765 H 465.124 -1.8276 3.7504 0
M  V30 4766 H 463.754 -1.89769 2.61127 0
M  V30 4767 H 462.806 0.211234 3.79813 0
M  V30 4768 H 464.118 0.0576503 4.98767 0
M  V30 4769 H 463.272 -2.20207 5.65326 0
M  V30 4770 H 462.011 -2.12327 4.39054 0
M  V30 4771 H 461.016 -0.101388 5.49707 0
M  V30 4772 H 462.241 -0.199911 6.78806 0
M  V30 4773 H 460.187 -2.3443 6.12682 0
M  V30 4774 H 460.104 -1.23759 7.45801 0
M  V30 4775 H 461.372 -2.4257 7.40797 0
M  V30 4776 N 465.601 -1.54893 0.290851 0
M  V30 4777 C 466.511 -2.26812 -0.59945 0
M  V30 4778 C 467.527 -1.29963 -1.15696 0
M  V30 4779 O 468.703 -1.62928 -1.18391 0
M  V30 4780 C 465.768 -2.98716 -1.75982 0
M  V30 4781 C 464.829 -4.1108 -1.2374 0
M  V30 4782 C 464.062 -4.79546 -2.34246 0
M  V30 4783 O 464.285 -4.47309 -3.53936 0
M  V30 4784 O 463.219 -5.67165 -2.01512 0
M  V30 4785 H 467.045 -3.03696 -0.0163561 0
M  V30 4786 H 464.63 -1.49289 0.0576755 0
M  V30 4787 H 466.512 -3.43851 -2.43607 0
M  V30 4788 H 465.187 -2.24737 -2.3297 0
M  V30 4789 H 464.094 -3.70367 -0.527163 0
M  V30 4790 H 465.427 -4.87007 -0.71307 0
M  V30 4791 N 467.08 -0.0183926 -1.57589 0
M  V30 4792 C 468.329 0.66185 -1.90532 0
M  V30 4793 C 468.642 1.73904 -0.895366 0
M  V30 4794 O 469.848 2.47518 -1.11566 0
M  V30 4795 C 468.304 1.22844 -3.38286 0
M  V30 4796 C 467.912 0.185103 -4.47617 0
M  V30 4797 C 469.656 1.88581 -3.80312 0
M  V30 4798 C 467.563 0.762723 -5.86461 0
M  V30 4799 H 466.493 0.250972 -0.711006 0
M  V30 4800 H 469.144 -0.0819435 -1.83317 0
M  V30 4801 H 467.526 2.0235 -3.40398 0
M  V30 4802 H 468.7 -0.58671 -4.5705 0
M  V30 4803 H 467.015 -0.372889 -4.14727 0
M  V30 4804 H 469.612 2.32735 -4.81392 0
M  V30 4805 H 469.955 2.72408 -3.14801 0
M  V30 4806 H 470.488 1.15782 -3.80578 0
M  V30 4807 H 467.227 -0.0371713 -6.55489 0
M  V30 4808 H 466.747 1.50327 -5.80656 0
M  V30 4809 H 468.426 1.25576 -6.34697 0
M  V30 4810 N 468.558 1.5553 0.254621 0
M  V30 4811 C 469.783 1.81383 1.00573 0
M  V30 4812 C 470.208 0.594419 1.78461 0
M  V30 4813 O 469.566 -0.456403 1.75461 0
M  V30 4814 C 469.614 3.04892 1.92545 0
M  V30 4815 O 468.718 2.81266 3.01601 0
M  V30 4816 H 468.059 0.598969 0.286587 0
M  V30 4817 H 470.589 2.02703 0.277952 0
M  V30 4818 H 470.599 3.34119 2.34155 0
M  V30 4819 H 469.274 3.93287 1.3527 0
M  V30 4820 H 467.851 2.63185 2.64174 0
M  V30 4821 N 470.036 -0.519951 1.48776 0
M  V30 4822 C 471.276 -1.2856 1.58908 0
M  V30 4823 C 471.64 -1.90212 0.261418 0
M  V30 4824 O 472.841 -2.67746 0.237791 0
M  V30 4825 C 471.112 -2.33836 2.70288 0
M  V30 4826 S 472.671 -3.19992 3.0025 0
M  V30 4827 H 469.489 -0.43717 0.560717 0
M  V30 4828 H 472.091 -0.591205 1.86346 0
M  V30 4829 H 470.795 -1.87041 3.653 0
M  V30 4830 H 470.326 -3.07969 2.44783 0
M  V30 4831 H 472.341 -4.34122 2.40317 0
M  V30 4832 N 471.514 -1.37532 -0.769588 0
M  V30 4833 C 472.93 -1.18379 -1.07045 0
M  V30 4834 C 473.13 -0.0214312 -2.01489 0
M  V30 4835 O 472.186 0.637809 -2.44312 0
M  V30 4836 C 473.499 -2.50338 -1.66588 0
M  V30 4837 C 475.047 -2.56879 -1.78835 0
M  V30 4838 C 475.522 -3.88974 -2.41792 0
M  V30 4839 N 477.013 -3.90428 -2.4924 0
M  V30 4840 C 477.748 -4.89388 -2.98809 0
M  V30 4841 N 477.244 -5.98745 -3.48535 0
M  V30 4842 N 479.037 -4.76791 -2.97703 0
M  V30 4843 H 471.188 -2.11921 -0.142541 0
M  V30 4844 H 473.451 -0.939608 -0.125863 0
M  V30 4845 H 473.157 -3.35767 -1.0466 0
M  V30 4846 H 473.031 -2.67583 -2.65856 0
M  V30 4847 H 475.418 -1.71856 -2.39895 0
M  V30 4848 H 475.499 -2.43516 -0.783166 0
M  V30 4849 H 475.143 -4.74412 -1.81371 0
M  V30 4850 H 475.073 -3.99641 -3.4292 0
M  V30 4851 H 477.564 -3.11433 -2.14052 0
M  V30 4852 H 477.877 -6.70205 -3.84767 0
M  V30 4853 H 476.222 -6.02387 -3.46634 0
M  V30 4854 H 479.413 -3.90478 -2.58157 0
M  V30 4855 H 479.586 -5.54069 -3.36024 0
M  V30 4856 N 472.992 0.995999 -1.22138 0
M  V30 4857 C 474.222 1.76809 -1.06874 0
M  V30 4858 C 474.63 1.85265 0.383866 0
M  V30 4859 O 473.973 1.31969 1.27789 0
M  V30 4860 C 474.035 3.2186 -1.60144 0
M  V30 4861 C 473.699 3.36958 -3.0872 0
M  V30 4862 C 474.696 3.2452 -4.0618 0
M  V30 4863 C 472.381 3.62109 -3.48112 0
M  V30 4864 C 474.375 3.37013 -5.41019 0
M  V30 4865 C 472.062 3.74243 -4.831 0
M  V30 4866 C 473.06 3.61702 -5.79362 0
M  V30 4867 O 472.748 3.73436 -7.119 0
M  V30 4868 H 472.48 0.562207 -0.375365 0
M  V30 4869 H 475.034 1.26113 -1.62125 0
M  V30 4870 H 473.264 3.73734 -0.992981 0
M  V30 4871 H 474.953 3.80775 -1.40589 0
M  V30 4872 H 475.719 3.05004 -3.77091 0
M  V30 4873 H 471.598 3.70949 -2.73712 0
M  V30 4874 H 475.142 3.27141 -6.16137 0
M  V30 4875 H 471.039 3.93266 -5.11872 0
M  V30 4876 H 471.807 3.90328 -7.19435 0
M  V30 4877 N 474.47 1.03057 1.19235 0
M  V30 4878 C 475.4 0.633497 2.24742 0
M  V30 4879 C 476.381 -0.358335 1.66283 0
M  V30 4880 O 477.566 -0.240676 1.92703 0
M  V30 4881 C 474.696 -0.0147648 3.47297 0
M  V30 4882 C 473.65 0.899527 4.18441 0
M  V30 4883 C 472.976 0.116281 5.34574 0
M  V30 4884 C 474.276 2.21404 4.73051 0
M  V30 4885 H 475.97 1.5155 2.58211 0
M  V30 4886 H 473.516 0.73014 1.24117 0
M  V30 4887 H 475.469 -0.304202 4.20301 0
M  V30 4888 H 474.193 -0.931577 3.13032 0
M  V30 4889 H 472.852 1.17319 3.47321 0
M  V30 4890 H 472.5 -0.802619 4.96555 0
M  V30 4891 H 472.2 0.725293 5.83107 0
M  V30 4892 H 473.724 -0.166376 6.10373 0
M  V30 4893 H 475.138 1.98601 5.37802 0
M  V30 4894 H 473.535 2.77512 5.32078 0
M  V30 4895 H 474.605 2.86752 3.91026 0
M  V30 4896 N 475.948 -1.35272 0.808662 0
M  V30 4897 C 477.195 -1.98709 0.390003 0
M  V30 4898 C 477.523 -1.64148 -1.04335 0
M  V30 4899 O 476.778 -0.897797 -1.73891 0
M  V30 4900 C 477.077 -3.53556 0.522798 0
M  V30 4901 C 476.743 -4.0799 1.91977 0
M  V30 4902 C 475.405 -4.22568 2.30195 0
M  V30 4903 C 477.757 -4.37442 2.83361 0
M  V30 4904 C 475.085 -4.63918 3.59162 0
M  V30 4905 C 477.437 -4.80232 4.11776 0
M  V30 4906 C 476.101 -4.93016 4.49991 0
M  V30 4907 H 475.371 -0.727127 0.142712 0
M  V30 4908 H 478.018 -1.6145 1.02985 0
M  V30 4909 H 476.323 -3.91287 -0.200494 0
M  V30 4910 H 478.02 -4.00598 0.179608 0
M  V30 4911 H 474.61 -3.97096 1.61284 0
M  V30 4912 H 478.794 -4.25731 2.55083 0
M  V30 4913 H 474.05 -4.72005 3.88615 0
M  V30 4914 H 478.224 -5.01982 4.82687 0
M  V30 4915 H 475.851 -5.24814 5.49976 0
M  V30 4916 N 477.426 -0.562348 -1.47226 0
M  V30 4917 C 478.356 0.170627 -2.32876 0
M  V30 4918 C 479.337 0.903748 -1.44106 0
M  V30 4919 O 480.522 0.883206 -1.72954 0
M  V30 4920 C 477.652 1.19786 -3.25989 0
M  V30 4921 C 476.606 0.580875 -4.2404 0
M  V30 4922 C 475.932 1.71311 -5.06514 0
M  V30 4923 C 477.232 -0.468714 -5.20193 0
M  V30 4924 H 478.926 -0.544441 -2.94408 0
M  V30 4925 H 476.472 -0.263271 -1.41573 0
M  V30 4926 H 478.425 1.71884 -3.84752 0
M  V30 4927 H 477.149 1.94294 -2.62521 0
M  V30 4928 H 475.808 0.0811538 -3.6651 0
M  V30 4929 H 475.456 2.44736 -4.39447 0
M  V30 4930 H 475.156 1.30604 -5.72902 0
M  V30 4931 H 476.68 2.23725 -5.68137 0
M  V30 4932 H 478.094 -0.0336028 -5.7329 0
M  V30 4933 H 476.491 -0.794957 -5.94811 0
M  V30 4934 H 477.561 -1.36269 -4.65359 0
M  V30 4935 N 478.904 1.54736 -0.299062 0
M  V30 4936 C 480.152 1.99706 0.31017 0
M  V30 4937 C 480.473 1.18896 1.54559 0
M  V30 4938 O 479.743 0.284445 1.93824 0
M  V30 4939 H 478.323 0.737686 0.117596 0
M  V30 4940 H 480.985 1.9054 -0.409943 0
M  V30 4941 H 480.081 3.06596 0.58355 0
M  V30 4942 N 480.382 0.0267497 1.57577 0
M  V30 4943 C 481.345 -0.940916 2.08996 0
M  V30 4944 C 482.345 -1.25561 1.00455 0
M  V30 4945 O 483.535 -1.19634 1.26623 0
M  V30 4946 C 480.667 -2.25814 2.55384 0
M  V30 4947 H 481.86 -0.495628 2.95776 0
M  V30 4948 H 479.413 -0.221241 1.54726 0
M  V30 4949 H 480.148 -2.74976 1.71926 0
M  V30 4950 H 479.933 -2.04285 3.34679 0
M  V30 4951 H 481.423 -2.95178 2.95398 0
M  V30 4952 N 481.861 -1.55662 -0.24637 0
M  V30 4953 C 483.109 -1.77168 -0.972411 0
M  V30 4954 C 483.43 -0.590827 -1.85834 0
M  V30 4955 O 482.7 0.393365 -1.9191 0
M  V30 4956 H 481.28 -0.653405 -0.362038 0
M  V30 4957 H 483.942 -1.93101 -0.264189 0
M  V30 4958 H 483.038 -2.68335 -1.59382 0
M  V30 4959 N 483.339 0.512053 -1.4905 0
M  V30 4960 C 484.564 1.2959 -1.6193 0
M  V30 4961 C 484.989 1.85906 -0.286454 0
M  V30 4962 O 484.347 1.65312 0.744426 0
M  V30 4963 C 484.395 2.40987 -2.68249 0
M  V30 4964 O 483.499 3.44531 -2.26654 0
M  V30 4965 H 482.84 0.383053 -0.542371 0
M  V30 4966 H 485.37 0.614231 -1.95162 0
M  V30 4967 H 485.38 2.86913 -2.90078 0
M  V30 4968 H 484.055 1.99361 -3.65004 0
M  V30 4969 H 482.632 3.046 -2.15112 0
M  V30 4970 N 484.817 1.37938 0.762283 0
M  V30 4971 C 485.747 1.37176 1.88958 0
M  V30 4972 C 486.728 0.238945 1.68413 0
M  V30 4973 O 487.913 0.440726 1.89133 0
M  V30 4974 C 485.043 1.18742 3.2637 0
M  V30 4975 C 483.997 2.29136 3.61498 0
M  V30 4976 C 483.323 1.95816 4.97554 0
M  V30 4977 C 484.623 3.71363 3.6727 0
M  V30 4978 H 486.317 2.31509 1.89853 0
M  V30 4979 H 483.863 1.11438 0.912005 0
M  V30 4980 H 485.816 1.16837 4.04879 0
M  V30 4981 H 484.54 0.208683 3.25933 0
M  V30 4982 H 483.199 2.30213 2.85303 0
M  V30 4983 H 482.847 0.964475 4.93667 0
M  V30 4984 H 482.547 2.69745 5.22026 0
M  V30 4985 H 484.071 1.95513 5.78452 0
M  V30 4986 H 485.485 3.72364 4.35911 0
M  V30 4987 H 483.882 4.44425 4.03245 0
M  V30 4988 H 484.952 4.04305 2.67704 0
M  V30 4989 N 486.295 -0.989507 1.22664 0
M  V30 4990 C 487.543 -1.72612 1.05117 0
M  V30 4991 C 487.864 -1.90552 -0.414131 0
M  V30 4992 O 487.134 -1.4676 -1.29762 0
M  V30 4993 H 485.714 -0.639555 0.385977 0
M  V30 4994 H 488.376 -1.19158 1.54232 0
M  V30 4995 H 487.472 -2.71926 1.53175 0
M  V30 4996 N 487.773 -1.03688 -1.18687 0
M  V30 4997 C 488.998 -0.757819 -1.93059 0
M  V30 4998 C 489.423 0.678353 -1.75442 0
M  V30 4999 O 488.781 1.46938 -1.06203 0
M  V30 5000 C 488.829 -1.12423 -3.42627 0
M  V30 5001 O 487.933 -0.247505 -4.11657 0
M  V30 5002 H 487.274 -0.279245 -0.602427 0
M  V30 5003 H 489.804 -1.3857 -1.5053 0
M  V30 5004 H 489.814 -1.08454 -3.93322 0
M  V30 5005 H 488.489 -2.17049 -3.54771 0
M  V30 5006 H 487.066 -0.34649 -3.71287 0
M  V30 5007 N 489.251 1.34841 -0.815825 0
M  V30 5008 C 490.479 2.0273 -0.413294 0
M  V30 5009 C 490.894 1.61459 0.978599 0
M  V30 5010 O 490.251 0.816584 1.63212 0
M  V30 5011 C 490.302 3.58058 -0.497676 0
M  V30 5012 O 490.023 3.97832 -1.8347 0
M  V30 5013 C 491.524 4.4321 -0.0891339 0
M  V30 5014 H 488.744 0.649956 -0.166728 0
M  V30 5015 H 491.288 1.72267 -1.10201 0
M  V30 5016 H 489.443 3.87136 0.142886 0
M  V30 5017 H 489.857 4.92501 -1.80396 0
M  V30 5018 H 491.331 5.5164 -0.199274 0
M  V30 5019 H 491.808 4.28432 0.966571 0
M  V30 5020 H 492.414 4.19446 -0.703214 0
M  V30 5021 N 490.729 0.570148 1.46925 0
M  V30 5022 C 491.639 -0.173061 2.33961 0
M  V30 5023 C 492.655 -0.898825 1.48987 0
M  V30 5024 O 493.831 -0.864825 1.81887 0
M  V30 5025 C 490.896 -1.18177 3.25937 0
M  V30 5026 C 489.957 -0.462041 4.26806 0
M  V30 5027 C 489.19 -1.4227 5.14388 0
M  V30 5028 O 489.413 -2.65842 5.04662 0
M  V30 5029 O 488.347 -0.940127 5.94513 0
M  V30 5030 H 492.173 0.541216 2.98839 0
M  V30 5031 H 489.758 0.330647 1.45695 0
M  V30 5032 H 491.64 -1.76372 3.82715 0
M  V30 5033 H 490.315 -1.87774 2.63671 0
M  V30 5034 H 489.222 0.161429 3.73752 0
M  V30 5035 H 490.555 0.192719 4.91823 0
M  V30 5036 N 492.207 -1.54576 0.307264 0
M  V30 5037 C 493.137 -2.26708 -0.55907 0
M  V30 5038 C 494.118 -1.26893 -1.1328 0
M  V30 5039 O 495.303 -1.55677 -1.16097 0
M  V30 5040 C 492.433 -3.01259 -1.72801 0
M  V30 5041 C 491.387 -4.08275 -1.28435 0
M  V30 5042 C 490.713 -4.70575 -2.53895 0
M  V30 5043 C 492.013 -5.2068 -0.411038 0
M  V30 5044 H 493.707 -2.9937 0.042576 0
M  V30 5045 H 491.253 -1.43983 0.0219173 0
M  V30 5046 H 493.206 -3.50444 -2.34023 0
M  V30 5047 H 491.93 -2.26187 -2.356 0
M  V30 5048 H 490.589 -3.59949 -0.695161 0
M  V30 5049 H 490.237 -3.92136 -3.15021 0
M  V30 5050 H 489.937 -5.42854 -2.24908 0
M  V30 5051 H 491.461 -5.22527 -3.15908 0
M  V30 5052 H 492.875 -5.65721 -0.929097 0
M  V30 5053 H 491.272 -5.99716 -0.214664 0
M  V30 5054 H 492.342 -4.81629 0.562287 0
M  V30 5055 N 493.685 -0.035106 -1.57561 0
M  V30 5056 C 494.615 0.942993 -2.13612 0
M  V30 5057 C 495.596 1.33531 -1.05373 0
M  V30 5058 O 496.781 1.41287 -1.33235 0
M  V30 5059 C 493.911 2.22332 -2.66807 0
M  V30 5060 C 492.865 1.97156 -3.79886 0
M  V30 5061 C 492.191 3.31506 -4.19533 0
M  V30 5062 C 493.491 1.30596 -5.05709 0
M  V30 5063 H 495.185 0.476179 -2.95589 0
M  V30 5064 H 492.731 0.227602 -1.4219 0
M  V30 5065 H 494.684 2.91142 -3.04654 0
M  V30 5066 H 493.408 2.7119 -1.81999 0
M  V30 5067 H 492.067 1.30763 -3.42486 0
M  V30 5068 H 491.715 3.78134 -3.31698 0
M  V30 5069 H 491.415 3.15465 -4.95738 0
M  V30 5070 H 492.939 4.01574 -4.59968 0
M  V30 5071 H 494.353 1.89416 -5.41105 0
M  V30 5072 H 492.75 1.24934 -5.86951 0
M  V30 5073 H 493.82 0.279742 -4.84092 0
M  V30 5074 N 495.163 1.55791 0.238111 0
M  V30 5075 C 496.409 1.78297 0.966337 0
M  V30 5076 C 496.742 0.601903 1.84637 0
M  V30 5077 O 496.017 -0.399499 1.90353 0
M  V30 5078 C 496.3 3.10758 1.81939 0
M  V30 5079 C 496.153 4.39283 0.966958 0
M  V30 5080 C 497.472 3.39519 2.80027 0
M  V30 5081 H 494.591 0.648654 0.349882 0
M  V30 5082 H 497.233 1.88525 0.236253 0
M  V30 5083 H 495.383 3.02168 2.44185 0
M  V30 5084 H 497.055 4.59873 0.362514 0
M  V30 5085 H 495.298 4.32948 0.271669 0
M  V30 5086 H 495.969 5.28368 1.59784 0
M  V30 5087 H 498.445 3.48128 2.27917 0
M  V30 5088 H 497.321 4.33402 3.36829 0
M  V30 5089 H 497.582 2.60864 3.56934 0
M  V30 5090 N 496.642 -0.504142 1.49319 0
M  V30 5091 C 498.058 -0.835039 1.36012 0
M  V30 5092 C 498.258 -1.97674 0.390808 0
M  V30 5093 O 497.314 -2.51867 -0.178655 0
M  V30 5094 C 498.627 -1.17821 2.76656 0
M  V30 5095 C 500.175 -1.2866 2.85334 0
M  V30 5096 C 500.65 -1.66307 4.26739 0
M  V30 5097 N 502.141 -1.73362 4.29534 0
M  V30 5098 C 502.876 -2.0393 5.35911 0
M  V30 5099 N 502.372 -2.32744 6.52535 0
M  V30 5100 N 504.165 -2.05155 5.23324 0
M  V30 5101 H 496.316 0.248764 2.10938 0
M  V30 5102 H 498.579 0.0486962 0.946748 0
M  V30 5103 H 498.285 -0.412682 3.4927 0
M  V30 5104 H 498.159 -2.12239 3.11825 0
M  V30 5105 H 500.546 -2.04285 2.1296 0
M  V30 5106 H 500.627 -0.323004 2.53752 0
M  V30 5107 H 500.271 -0.91234 4.99639 0
M  V30 5108 H 500.201 -2.63761 4.55782 0
M  V30 5109 H 502.692 -1.53268 3.45424 0
M  V30 5110 H 503.005 -2.55248 7.2943 0
M  V30 5111 H 501.35 -2.30207 6.55767 0
M  V30 5112 H 504.541 -1.82119 4.3122 0
M  V30 5113 H 504.714 -2.28644 6.06322 0
M  V30 5114 N 498.12 -1.38341 -0.754957 0
M  V30 5115 C 499.083 -1.35262 -1.85032 0
M  V30 5116 C 500.083 -0.253393 -1.58791 0
M  V30 5117 O 501.273 -0.510205 -1.66561 0
M  V30 5118 C 498.405 -1.10544 -3.22479 0
M  V30 5119 H 499.598 -2.32712 -1.8917 0
M  V30 5120 H 497.151 -1.23614 -0.956515 0
M  V30 5121 H 497.886 -0.136952 -3.24011 0
M  V30 5122 H 497.671 -1.90127 -3.4292 0
M  V30 5123 H 499.161 -1.11082 -4.02555 0
M  V30 5124 N 499.598 0.982988 -1.23187 0
M  V30 5125 C 501.014 1.2487 -0.993967 0
M  V30 5126 C 501.214 1.99155 0.306498 0
M  V30 5127 O 500.27 2.30688 1.0266 0
M  V30 5128 C 501.583 2.05078 -2.19917 0
M  V30 5129 C 503.131 2.18227 -2.2438 0
M  V30 5130 C 503.606 3.01825 -3.44479 0
M  V30 5131 N 505.097 3.09411 -3.44702 0
M  V30 5132 C 505.832 3.74412 -4.34285 0
M  V30 5133 N 505.328 4.41259 -5.341 0
M  V30 5134 N 507.121 3.71273 -4.22035 0
M  V30 5135 H 499.272 0.485253 -2.06783 0
M  V30 5136 H 501.535 0.276979 -0.906635 0
M  V30 5137 H 501.241 1.57867 -3.14279 0
M  V30 5138 H 501.115 3.05829 -2.2079 0
M  V30 5139 H 503.502 2.64648 -1.30559 0
M  V30 5140 H 503.583 1.16873 -2.2754 0
M  V30 5141 H 503.227 2.56102 -4.38605 0
M  V30 5142 H 503.157 4.03342 -3.38559 0
M  V30 5143 H 505.648 2.61845 -2.7248 0
M  V30 5144 H 505.961 4.88629 -5.98717 0
M  V30 5145 H 504.306 4.39975 -5.38002 0
M  V30 5146 H 507.497 3.18217 -3.43301 0
M  V30 5147 H 507.67 4.21649 -4.92053 0
M  V30 5148 N 501.076 1.04316 1.18135 0
M  V30 5149 C 502.353 0.662166 1.84051 0
M  V30 5150 C 502.733 -0.858169 1.9287 0
M  V30 5151 O 502.081 -1.76062 1.45652 0
M  V30 5152 C 502.291 1.3409 3.22212 0
M  V30 5153 C 503.639 1.4733 3.9822 0
M  V30 5154 O 504.663 1.29921 3.31661 0
M  V30 5155 O 503.522 1.75722 5.17479 0
M  V30 5156 H 500.616 0.232005 0.79379 0
M  V30 5157 H 503.162 1.1422 1.25506 0
M  V30 5158 H 501.934 2.37853 3.10711 0
M  V30 5159 H 501.557 0.849649 3.88416 0
M  V30 5160 N 502.554 -1.34406 0.822964 0
M  V30 5161 C 503.782 -2.02508 0.424039 0
M  V30 5162 C 504.197 -1.61975 -0.970022 0
M  V30 5163 O 503.554 -0.825228 -1.62777 0
M  V30 5164 C 503.605 -3.57789 0.516657 0
M  V30 5165 O 503.326 -3.96853 1.85577 0
M  V30 5166 C 504.827 -4.43157 0.112637 0
M  V30 5167 H 502.047 -0.649063 0.170173 0
M  V30 5168 H 504.591 -1.7168 1.11113 0
M  V30 5169 H 502.746 -3.87207 -0.122353 0
M  V30 5170 H 503.16 -4.91538 1.83005 0
M  V30 5171 H 504.634 -5.51527 0.228526 0
M  V30 5172 H 505.111 -4.28939 -0.943837 0
M  V30 5173 H 505.717 -4.19067 0.725449 0
M  V30 5174 N 504.032 -0.577932 -1.46621 0
M  V30 5175 C 505.28 -0.061566 -2.02006 0
M  V30 5176 C 505.601 1.30117 -1.4524 0
M  V30 5177 O 504.871 1.85313 -0.63529 0
M  V30 5178 H 503.451 -0.0197692 -0.746738 0
M  V30 5179 H 506.113 -0.752631 -1.79782 0
M  V30 5180 H 505.209 0.0110238 -3.12098 0
M  V30 5181 N 505.51 1.54411 -0.315457 0
M  V30 5182 C 506.738 2.04833 0.291738 0
M  V30 5183 C 507.153 1.19203 1.46411 0
M  V30 5184 O 506.51 0.220867 1.81159 0
M  V30 5185 C 506.561 3.53969 0.73404 0
M  V30 5186 O 506.282 4.36346 -0.391682 0
M  V30 5187 C 507.783 4.2045 1.40489 0
M  V30 5188 H 505.003 0.668195 0.0612947 0
M  V30 5189 H 507.547 1.99276 -0.45929 0
M  V30 5190 H 505.702 3.5984 1.43506 0
M  V30 5191 H 506.116 5.24481 -0.0447088 0
M  V30 5192 H 507.59 5.26278 1.66539 0
M  V30 5193 H 508.067 3.71067 2.3496 0
M  V30 5194 H 508.673 4.18694 0.746662 0
M  V30 5195 N 506.988 0.0434614 1.5754 0
M  V30 5196 C 507.918 -0.931651 2.14109 0
M  V30 5197 C 508.899 -1.32971 1.06079 0
M  V30 5198 O 510.084 -1.40579 1.33982 0
M  V30 5199 C 507.214 -2.20914 2.67982 0
M  V30 5200 C 506.168 -1.95139 3.80926 0
M  V30 5201 C 505.494 -3.29276 4.21285 0
M  V30 5202 C 506.794 -1.27913 5.06395 0
M  V30 5203 H 508.488 -0.460497 2.95837 0
M  V30 5204 H 506.034 -0.220058 1.42309 0
M  V30 5205 H 507.987 -2.89522 3.06194 0
M  V30 5206 H 506.711 -2.70221 1.83434 0
M  V30 5207 H 505.37 -1.28945 3.43175 0
M  V30 5208 H 505.018 -3.76369 3.33699 0
M  V30 5209 H 504.718 -3.12831 4.97404 0
M  V30 5210 H 506.242 -3.99129 4.62091 0
M  V30 5211 H 507.656 -1.86544 5.42102 0
M  V30 5212 H 506.053 -1.2182 5.87605 0
M  V30 5213 H 507.123 -0.254066 4.84234 0
M  V30 5214 N 508.466 -1.55915 -0.229846 0
M  V30 5215 C 509.877 -1.68809 -0.797531 0
M  V30 5216 C 510.228 -0.643995 -1.8533 0
M  V30 5217 O 509.353 0.206492 -2.15413 0
M  V30 5218 C 509.948 -3.06043 -1.45338 0
M  V30 5219 C 508.507 -3.20819 -1.96856 0
M  V30 5220 C 507.654 -2.6472 -0.825736 0
M  V30 5221 H 510.605 -1.58699 -0.00533733 0
M  V30 5222 H 510.626 -3.01438 -2.32196 0
M  V30 5223 H 510.138 -3.82012 -0.684743 0
M  V30 5224 H 508.239 -2.49704 -2.76548 0
M  V30 5225 H 508.352 -4.27937 -2.15423 0
M  V30 5226 H 506.716 -2.22985 -1.23084 0
M  V30 5227 H 507.499 -3.43229 -0.0699019 0
M  V30 5228 N 509.944 0.496216 -1.49584 0
M  V30 5229 C 510.892 1.61805 -1.67098 0
M  V30 5230 C 511.886 1.60667 -0.536877 0
M  V30 5231 O 513.092 1.65118 -0.716654 0
M  V30 5232 H 509.467 0.53646 -0.526986 0
M  V30 5233 H 511.438 1.44187 -2.61252 0
M  V30 5234 C 510.187 2.99912 -1.75921 0
M  V30 5235 H 509.51 3.01496 -2.62565 0
M  V30 5236 H 510.95 3.77931 -1.92209 0
M  V30 5237 C 509.409 3.33092 -0.505088 0
M  V30 5238 O 509.939 4.00019 0.367085 0
M  V30 5239 N 508.145 2.88278 -0.366599 0
M  V30 5240 H 507.692 2.33989 -1.07735 0
M  V30 5241 H 507.65 3.10846 0.47142 0
M  V30 5242 N 511.423 1.38739 0.74761 0
M  V30 5243 C 512.353 1.39173 1.87492 0
M  V30 5244 C 513.334 0.256794 1.6815 0
M  V30 5245 O 514.519 0.460762 1.88655 0
M  V30 5246 C 511.649 1.22197 3.25093 0
M  V30 5247 C 510.603 2.32957 3.59047 0
M  V30 5248 C 509.929 2.01082 4.95449 0
M  V30 5249 C 511.229 3.75237 3.6331 0
M  V30 5250 H 512.923 2.3351 1.87386 0
M  V30 5251 H 510.469 1.12399 0.900134 0
M  V30 5252 H 512.422 1.21124 4.03617 0
M  V30 5253 H 511.146 0.243241 3.25693 0
M  V30 5254 H 509.805 2.33226 2.82845 0
M  V30 5255 H 509.453 1.01678 4.92616 0
M  V30 5256 H 509.153 2.75267 5.19136 0
M  V30 5257 H 510.677 2.01638 5.76346 0
M  V30 5258 H 512.091 3.76966 4.31937 0
M  V30 5259 H 510.488 4.48677 3.98509 0
M  V30 5260 H 511.558 4.07122 2.634 0
M  V30 5261 N 512.901 -0.976442 1.23707 0
M  V30 5262 C 513.849 -2.09078 1.01927 0
M  V30 5263 C 514.843 -1.69345 -0.0430193 0
M  V30 5264 O 516.049 -1.79659 0.110814 0
M  V30 5265 H 512.424 -0.68398 0.312531 0
M  V30 5266 H 514.395 -2.24614 1.96447 0
M  V30 5267 C 513.144 -3.41919 0.631385 0
M  V30 5268 H 512.467 -3.72946 1.44053 0
M  V30 5269 H 513.907 -4.20817 0.518532 0
M  V30 5270 C 512.366 -3.30357 -0.660723 0
M  V30 5271 O 512.896 -3.63542 -1.70881 0
M  V30 5272 N 511.102 -2.83507 -0.638139 0
M  V30 5273 H 510.649 -2.567 0.215108 0
M  V30 5274 H 510.607 -2.76153 -1.50289 0
M  V30 5275 N 514.379 -1.04941 -1.1758 0
M  V30 5276 C 515.604 -0.778253 -1.92245 0
M  V30 5277 C 516.029 0.659707 -1.76152 0
M  V30 5278 O 515.387 1.45803 -1.07755 0
M  V30 5279 C 515.435 -1.16051 -3.41416 0
M  V30 5280 O 514.539 -0.291153 -4.11371 0
M  V30 5281 H 513.88 -0.285619 -0.599431 0
M  V30 5282 H 516.41 -1.40159 -1.49052 0
M  V30 5283 H 516.42 -1.12619 -3.92149 0
M  V30 5284 H 515.095 -2.208 -3.52449 0
M  V30 5285 H 513.672 -0.385851 -3.70898 0
M  V30 5286 N 515.857 1.33968 -0.830081 0
M  V30 5287 C 516.767 2.33164 -0.259207 0
M  V30 5288 C 517.783 1.62951 0.610164 0
M  V30 5289 O 518.959 1.94668 0.516369 0
M  V30 5290 C 516.024 3.42088 0.563598 0
M  V30 5291 C 515.085 4.28037 -0.329014 0
M  V30 5292 C 514.318 5.3176 0.454616 0
M  V30 5293 O 514.541 5.44876 1.6872 0
M  V30 5294 O 513.475 6.01669 -0.166794 0
M  V30 5295 H 517.301 2.83832 -1.08041 0
M  V30 5296 H 514.886 1.37154 -0.59239 0
M  V30 5297 H 516.768 4.08581 1.03147 0
M  V30 5298 H 515.443 2.93651 1.36201 0
M  V30 5299 H 514.35 3.64443 -0.844538 0
M  V30 5300 H 515.683 4.79934 -1.09196 0
M  V30 5301 N 517.335 0.585699 1.46312 0
M  V30 5302 C 518.581 0.0725284 2.0267 0
M  V30 5303 C 518.914 -1.28523 1.45586 0
M  V30 5304 O 518.189 -1.84283 0.622101 0
M  V30 5305 C 518.472 0.0099788 3.60099 0
M  V30 5306 C 518.325 1.39685 4.27561 0
M  V30 5307 C 519.644 -0.689117 4.34671 0
M  V30 5308 H 516.763 0.0278307 0.736474 0
M  V30 5309 H 519.405 0.753472 1.74421 0
M  V30 5310 H 517.555 -0.56992 3.84297 0
M  V30 5311 H 519.227 2.02215 4.14617 0
M  V30 5312 H 517.47 1.96374 3.86807 0
M  V30 5313 H 518.141 1.30553 5.36339 0
M  V30 5314 H 520.617 -0.196446 4.15636 0
M  V30 5315 H 519.493 -0.701921 5.44393 0
M  V30 5316 H 519.754 -1.75101 4.05946 0
M  V30 5317 N 518.813 -1.54241 0.323641 0
M  V30 5318 C 520.061 -2.00174 -0.278359 0
M  V30 5319 C 520.382 -1.2134 -1.52648 0
M  V30 5320 O 519.652 -0.315244 -1.93347 0
M  V30 5321 H 518.232 -0.739463 -0.105845 0
M  V30 5322 H 520.894 -1.89864 0.440204 0
M  V30 5323 H 519.99 -3.07486 -0.5347 0
M  V30 5324 N 520.291 -0.0518155 -1.57515 0
M  V30 5325 C 521.254 0.907547 -2.10467 0
M  V30 5326 C 522.254 1.23947 -1.02439 0
M  V30 5327 O 523.444 1.17604 -1.2851 0
M  V30 5328 C 520.576 2.21723 -2.58944 0
M  V30 5329 H 521.769 0.44851 -2.96527 0
M  V30 5330 H 519.322 0.196598 -1.55059 0
M  V30 5331 H 520.057 2.72206 -1.76279 0
M  V30 5332 H 519.842 1.98935 -3.37886 0
M  V30 5333 H 521.332 2.90441 -3.00056 0
M  V30 5334 N 521.769 1.56035 0.221574 0
M  V30 5335 C 523.017 1.78693 0.944102 0
M  V30 5336 C 523.338 0.620317 1.8487 0
M  V30 5337 O 522.608 -0.362784 1.92512 0
M  V30 5338 H 521.188 0.659082 0.351597 0
M  V30 5339 H 523.85 1.93497 0.233435 0
M  V30 5340 H 522.946 2.70837 1.55093 0
M  V30 5341 N 523.247 -0.488276 1.49845 0
M  V30 5342 C 524.493 -1.24065 1.61182 0
M  V30 5343 C 524.848 -1.9004 0.300435 0
M  V30 5344 O 524.141 -1.78341 -0.700365 0
M  V30 5345 C 524.335 -2.32152 2.71735 0
M  V30 5346 C 524.164 -1.76778 4.13497 0
M  V30 5347 C 522.934 -1.57513 4.80123 0
M  V30 5348 C 525.132 -1.27242 4.98311 0
M  V30 5349 N 523.114 -0.972015 6.06156 0
M  V30 5350 C 524.485 -0.791457 6.14928 0
M  V30 5351 C 526.54 -1.15934 4.84214 0
M  V30 5352 C 525.243 -0.208593 7.18997 0
M  V30 5353 C 527.269 -0.590436 5.88445 0
M  V30 5354 C 526.631 -0.119767 7.04298 0
M  V30 5355 H 522.73 -0.443487 0.644083 0
M  V30 5356 H 525.314 -0.545551 1.86901 0
M  V30 5357 H 523.485 -2.99108 2.47768 0
M  V30 5358 H 525.217 -2.99187 2.72523 0
M  V30 5359 H 521.972 -1.82247 4.37131 0
M  V30 5360 H 522.396 -0.689367 6.73481 0
M  V30 5361 H 527.038 -1.5092 3.94947 0
M  V30 5362 H 524.756 0.153501 8.07954 0
M  V30 5363 H 528.342 -0.505548 5.79599 0
M  V30 5364 H 527.222 0.313568 7.83573 0
M  V30 5365 N 524.725 -1.39134 -0.740242 0
M  V30 5366 C 525.973 -1.35803 -1.49673 0
M  V30 5367 C 526.294 0.0470897 -1.94943 0
M  V30 5368 O 525.564 0.997347 -1.68611 0
M  V30 5369 H 524.144 -0.499736 -0.555224 0
M  V30 5370 H 526.806 -1.73947 -0.879107 0
M  V30 5371 H 525.902 -2.0174 -2.38133 0
M  V30 5372 N 526.204 0.969867 -1.24223 0
M  V30 5373 C 527.615 1.52717 -1.07399 0
M  V30 5374 C 527.966 1.92956 0.355298 0
M  V30 5375 O 527.091 1.77112 1.2434 0
M  V30 5376 C 527.686 2.77521 -1.94339 0
M  V30 5377 C 526.245 3.29615 -1.81744 0
M  V30 5378 C 525.392 2.02537 -1.89405 0
M  V30 5379 H 528.343 0.788399 -1.37732 0
M  V30 5380 H 528.364 3.50773 -1.47439 0
M  V30 5381 H 527.876 2.48203 -2.98357 0
M  V30 5382 H 525.977 3.63789 -0.805505 0
M  V30 5383 H 526.09 3.98661 -2.65718 0
M  V30 5384 H 524.454 2.17151 -1.33108 0
M  V30 5385 H 525.237 1.75587 -2.94999 0
M  V30 5386 N 527.682 1.05563 1.17022 0
M  V30 5387 C 528.63 0.653887 2.2322 0
M  V30 5388 C 529.624 -0.326642 1.66221 0
M  V30 5389 O 530.83 -0.192301 1.7897 0
M  V30 5390 H 527.205 0.193297 0.726733 0
M  V30 5391 H 529.176 1.5596 2.54399 0
M  V30 5392 C 527.925 0.0485434 3.47666 0
M  V30 5393 H 527.248 0.79413 3.91834 0
M  V30 5394 H 528.688 -0.195133 4.23551 0
M  V30 5395 C 527.147 -1.20583 3.14581 0
M  V30 5396 O 527.677 -2.29475 3.29703 0
M  V30 5397 N 525.883 -1.10493 2.68774 0
M  V30 5398 H 525.43 -0.218795 2.56669 0
M  V30 5399 H 525.388 -1.94507 2.47011 0
M  V30 5400 N 529.16 -1.33526 0.837174 0
M  V30 5401 C 530.408 -1.97446 0.431211 0
M  V30 5402 C 530.729 -1.6665 -1.01255 0
M  V30 5403 O 529.999 -0.964559 -1.70508 0
M  V30 5404 H 528.579 -0.73043 0.156463 0
M  V30 5405 H 531.241 -1.62918 1.06976 0
M  V30 5406 H 530.337 -3.07001 0.561877 0
M  V30 5407 N 530.638 -0.59345 -1.46 0
M  V30 5408 C 531.586 0.146268 -2.3214 0
M  V30 5409 C 532.58 0.873743 -1.45128 0
M  V30 5410 O 533.786 0.790912 -1.61693 0
M  V30 5411 H 530.161 0.0660349 -0.749095 0
M  V30 5412 H 532.132 -0.598895 -2.92328 0
M  V30 5413 C 530.881 1.1396 -3.28494 0
M  V30 5414 H 530.204 0.589252 -3.95434 0
M  V30 5415 H 531.644 1.62738 -3.91526 0
M  V30 5416 C 530.103 2.20604 -2.54628 0
M  V30 5417 O 530.633 3.28128 -2.31722 0
M  V30 5418 N 528.839 1.95502 -2.15005 0
M  V30 5419 H 528.386 1.0807 -2.33834 0
M  V30 5420 H 528.344 2.67064 -1.65904 0
M  V30 5421 N 532.116 1.54067 -0.331816 0
M  V30 5422 C 533.365 1.99895 0.269209 0
M  V30 5423 C 533.678 1.22371 1.52593 0
M  V30 5424 O 534.884 1.58618 2.20347 0
M  V30 5425 C 533.34 3.55972 0.530244 0
M  V30 5426 C 532.948 4.4234 -0.709901 0
M  V30 5427 C 534.692 4.10247 1.09077 0
M  V30 5428 C 532.599 5.89905 -0.420312 0
M  V30 5429 H 531.529 0.746741 0.104371 0
M  V30 5430 H 534.18 1.78014 -0.445324 0
M  V30 5431 H 532.562 3.73873 1.30518 0
M  V30 5432 H 533.736 4.36215 -1.48504 0
M  V30 5433 H 532.051 3.98997 -1.19123 0
M  V30 5434 H 534.648 5.18095 1.32219 0
M  V30 5435 H 534.991 3.62739 2.0427 0
M  V30 5436 H 535.524 3.96011 0.376824 0
M  V30 5437 H 532.263 6.41623 -1.34164 0
M  V30 5438 H 531.783 5.98962 0.316962 0
M  V30 5439 H 533.462 6.46991 -0.0331956 0
M  V30 5440 N 533.594 0.0601682 1.57485 0
M  V30 5441 C 534.527 -0.94676 2.07634 0
M  V30 5442 C 535.505 -1.29837 0.978826 0
M  V30 5443 O 536.689 -1.40969 1.2514 0
M  V30 5444 C 533.816 -2.25822 2.52433 0
M  V30 5445 C 532.862 -2.05901 3.73507 0
M  V30 5446 S 533.695 -1.32907 5.18745 0
M  V30 5447 C 534.851 -2.65356 5.66866 0
M  V30 5448 H 535.084 -0.520003 2.92717 0
M  V30 5449 H 532.617 -0.152319 1.53647 0
M  V30 5450 H 534.575 -3.01201 2.78905 0
M  V30 5451 H 533.236 -2.65624 1.67639 0
M  V30 5452 H 532.429 -3.02929 4.02803 0
M  V30 5453 H 532.031 -1.38659 3.47347 0
M  V30 5454 H 534.323 -3.61492 5.73001 0
M  V30 5455 H 535.266 -2.40685 6.6594 0
M  V30 5456 H 535.674 -2.72028 4.94632 0
M  V30 5457 N 535.072 -1.5615 -0.213296 0
M  V30 5458 C 536.3 -1.83638 -0.953139 0
M  V30 5459 C 536.715 -0.640362 -1.77609 0
M  V30 5460 O 536.072 0.391071 -1.78261 0
M  V30 5461 C 536.123 -3.09735 -1.86405 0
M  V30 5462 O 535.844 -4.24723 -1.07435 0
M  V30 5463 C 537.345 -3.5027 -2.71709 0
M  V30 5464 H 534.565 -0.610263 -0.278962 0
M  V30 5465 H 537.109 -2.03247 -0.226035 0
M  V30 5466 H 535.264 -2.92077 -2.545 0
M  V30 5467 H 535.678 -4.9641 -1.69343 0
M  V30 5468 H 537.152 -4.41515 -3.31313 0
M  V30 5469 H 537.629 -2.72406 -3.44516 0
M  V30 5470 H 538.235 -3.70396 -2.09015 0
M  V30 5471 N 536.55 0.480323 -1.50102 0
M  V30 5472 C 537.513 1.56181 -1.6775 0
M  V30 5473 C 538.513 1.51156 -0.548503 0
M  V30 5474 O 539.703 1.5394 -0.815363 0
M  V30 5475 C 536.835 2.95823 -1.69415 0
M  V30 5476 H 538.028 1.41855 -2.6423 0
M  V30 5477 H 535.581 0.70605 -1.39444 0
M  V30 5478 H 536.316 3.15604 -0.745948 0
M  V30 5479 H 536.101 3.00878 -2.51425 0
M  V30 5480 H 537.591 3.74359 -1.85054 0
M  V30 5481 N 538.028 1.39524 0.732853 0
M  V30 5482 C 539.444 1.21176 1.03868 0
M  V30 5483 C 539.644 0.0748448 2.01361 0
M  V30 5484 O 538.7 -0.57281 2.45917 0
M  V30 5485 C 540.013 2.54667 1.59892 0
M  V30 5486 C 541.561 2.6153 1.71962 0
M  V30 5487 C 542.036 3.95248 2.31394 0
M  V30 5488 N 543.527 3.96899 2.38801 0
M  V30 5489 C 544.262 4.97138 2.85729 0
M  V30 5490 N 543.758 6.07775 3.32537 0
M  V30 5491 N 545.551 4.84516 2.84957 0
M  V30 5492 H 537.702 2.12225 0.086304 0
M  V30 5493 H 539.965 0.942614 0.100907 0
M  V30 5494 H 539.671 3.38423 0.95721 0
M  V30 5495 H 539.545 2.74538 2.58668 0
M  V30 5496 H 541.932 1.78156 2.35254 0
M  V30 5497 H 542.013 2.45507 0.718327 0
M  V30 5498 H 541.657 4.79054 1.68729 0
M  V30 5499 H 541.587 4.08593 3.32204 0
M  V30 5500 H 544.078 3.16998 2.05719 0
M  V30 5501 H 544.391 6.8017 3.66862 0
M  V30 5502 H 542.736 6.11366 3.30541 0
M  V30 5503 H 545.927 3.97185 2.47713 0
M  V30 5504 H 546.1 5.62783 3.21215 0
M  V30 5505 N 539.506 -0.963266 1.24736 0
M  V30 5506 C 540.469 -2.04013 1.04457 0
M  V30 5507 C 541.469 -1.608 0.000335555 0
M  V30 5508 O 542.659 -1.72515 0.241719 0
M  V30 5509 C 539.791 -3.35858 0.584162 0
M  V30 5510 H 540.984 -2.23436 2.00041 0
M  V30 5511 H 538.537 -1.13914 1.07021 0
M  V30 5512 H 539.272 -3.22128 -0.374673 0
M  V30 5513 H 539.057 -3.68568 1.3379 0
M  V30 5514 H 540.547 -4.1502 0.463451 0
M  V30 5515 N 540.985 -1.06182 -1.16461 0
M  V30 5516 C 541.933 -0.665716 -2.2287 0
M  V30 5517 C 542.927 0.317822 -1.66392 0
M  V30 5518 O 544.133 0.182807 -1.79069 0
M  V30 5519 H 540.508 -0.197148 -0.725697 0
M  V30 5520 H 542.479 -1.57307 -2.53569 0
M  V30 5521 C 541.228 -0.0669803 -3.47635 0
M  V30 5522 H 540.551 -0.814899 -3.91407 0
M  V30 5523 H 541.991 0.172669 -4.23648 0
M  V30 5524 C 540.45 1.18913 -3.15216 0
M  V30 5525 O 540.98 2.27723 -3.30916 0
M  V30 5526 N 539.186 1.09066 -2.69357 0
M  V30 5527 H 538.733 0.20518 -2.56782 0
M  V30 5528 H 538.691 1.93195 -2.48039 0
M  V30 5529 N 542.463 1.3308 -0.844243 0
M  V30 5530 C 543.413 2.26589 -0.253289 0
M  V30 5531 C 544.397 1.49501 0.594836 0
M  V30 5532 O 545.589 1.71291 0.445924 0
M  V30 5533 C 542.718 3.38599 0.566176 0
M  V30 5534 C 541.804 4.23081 -0.293756 0
M  V30 5535 N 542.195 4.86751 -1.37505 0
M  V30 5536 C 540.493 4.45925 -0.0817086 0
M  V30 5537 C 541.194 5.49684 -1.90323 0
M  V30 5538 N 540.17 5.30101 -1.20391 0
M  V30 5539 H 543.972 2.73334 -1.08009 0
M  V30 5540 H 541.486 1.47048 -0.689258 0
M  V30 5541 H 543.483 4.04584 1.00587 0
M  V30 5542 H 542.143 2.93401 1.39089 0
M  V30 5543 H 543.154 4.87151 -1.75796 0
M  V30 5544 H 539.831 4.11434 0.709129 0
M  V30 5545 H 541.221 6.10363 -2.80902 0
M  V30 5546 N 543.941 0.601185 1.45683 0
M  V30 5547 C 544.874 -0.17013 2.27565 0
M  V30 5548 C 545.852 -0.879661 1.36751 0
M  V30 5549 O 547.036 -0.889827 1.66176 0
M  V30 5550 C 544.163 -1.24568 3.14961 0
M  V30 5551 C 543.209 -0.639978 4.21671 0
M  V30 5552 S 544.042 0.547275 5.32696 0
M  V30 5553 C 545.198 -0.529019 6.2366 0
M  V30 5554 H 545.431 0.524583 2.92635 0
M  V30 5555 H 542.964 0.388537 1.49431 0
M  V30 5556 H 544.922 -1.86138 3.65873 0
M  V30 5557 H 543.583 -1.91243 2.49169 0
M  V30 5558 H 542.776 -1.44903 4.8272 0
M  V30 5559 H 542.378 -0.0995558 3.73867 0
M  V30 5560 H 544.67 -1.40981 6.62669 0
M  V30 5561 H 545.613 0.0451599 7.08086 0
M  V30 5562 H 546.021 -0.84147 5.58193 0
M  V30 5563 N 545.419 -1.53889 0.339982 0
M  V30 5564 C 546.665 -2.01849 -0.250694 0
M  V30 5565 C 547.02 -1.22356 -1.48482 0
M  V30 5566 O 546.313 -0.301906 -1.89206 0
M  V30 5567 C 546.507 -3.51968 -0.620735 0
M  V30 5568 C 546.336 -4.45996 0.575981 0
M  V30 5569 C 545.106 -4.93619 1.08019 0
M  V30 5570 C 547.304 -4.93923 1.43332 0
M  V30 5571 N 545.286 -5.7159 2.2396 0
M  V30 5572 C 546.657 -5.69982 2.43969 0
M  V30 5573 C 548.712 -4.76038 1.45918 0
M  V30 5574 C 547.415 -6.30057 3.47016 0
M  V30 5575 C 549.441 -5.36961 2.47845 0
M  V30 5576 C 548.803 -6.12884 3.47208 0
M  V30 5577 H 544.902 -0.780054 -0.0551368 0
M  V30 5578 H 547.486 -1.88722 0.478741 0
M  V30 5579 H 545.657 -3.65308 -1.31928 0
M  V30 5580 H 547.389 -3.86677 -1.19429 0
M  V30 5581 H 544.144 -4.69134 0.64884 0
M  V30 5582 H 544.568 -6.15247 2.82489 0
M  V30 5583 H 549.21 -4.16887 0.704608 0
M  V30 5584 H 546.928 -6.88319 4.23371 0
M  V30 5585 H 550.514 -5.2503 2.50668 0
M  V30 5586 H 549.394 -6.59187 4.24785 0
M  V30 5587 N 546.897 -0.0685191 -1.57451 0
M  V30 5588 C 547.845 0.917577 -2.13736 0
M  V30 5589 C 548.839 1.31049 -1.07344 0
M  V30 5590 O 550.045 1.28811 -1.25728 0
M  V30 5591 H 546.42 0.313835 -0.683382 0
M  V30 5592 H 548.391 0.417903 -2.95459 0
M  V30 5593 C 547.14 2.17686 -2.71123 0
M  V30 5594 H 546.463 1.88336 -3.52661 0
M  V30 5595 H 547.903 2.84803 -3.14107 0
M  V30 5596 C 546.362 2.9332 -1.65726 0
M  V30 5597 O 546.892 3.86901 -1.08031 0
M  V30 5598 N 545.098 2.56367 -1.36837 0
M  V30 5599 H 544.645 1.80341 -1.83943 0
M  V30 5600 H 544.603 3.07276 -0.665501 0
M  V30 5601 N 548.375 1.56261 0.205012 0
M  V30 5602 C 549.786 1.70056 0.770574 0
M  V30 5603 C 550.137 0.673398 1.84282 0
M  V30 5604 O 549.262 -0.172196 2.15714 0
M  V30 5605 C 549.857 3.08316 1.40451 0
M  V30 5606 C 548.416 3.2391 1.91727 0
M  V30 5607 C 547.563 2.66001 0.783516 0
M  V30 5608 H 550.514 1.58688 -0.019911 0
M  V30 5609 H 550.535 3.05094 2.27371 0
M  V30 5610 H 550.047 3.83053 0.623882 0
M  V30 5611 H 548.148 2.54072 2.7254 0
M  V30 5612 H 548.261 4.3131 2.08588 0
M  V30 5613 H 546.625 2.24915 1.19521 0
M  V30 5614 H 547.408 3.43297 0.0152883 0
M  V30 5615 N 549.853 -0.472356 1.50355 0
M  V30 5616 C 551.081 -1.24784 1.65035 0
M  V30 5617 C 551.496 -1.85837 0.333176 0
M  V30 5618 O 550.853 -1.69168 -0.68472 0
M  V30 5619 C 550.904 -2.35747 2.74054 0
M  V30 5620 O 550.625 -1.77197 4.00665 0
M  V30 5621 C 552.126 -3.26645 2.99696 0
M  V30 5622 H 549.346 -0.377432 0.554785 0
M  V30 5623 H 551.89 -0.563962 1.9657 0
M  V30 5624 H 550.045 -2.99912 2.45217 0
M  V30 5625 H 550.459 -2.5026 4.60945 0
M  V30 5626 H 551.933 -4.00718 3.79644 0
M  V30 5627 H 552.41 -3.8535 2.10718 0
M  V30 5628 H 553.016 -2.68218 3.3006 0
M  V30 5629 N 551.331 -1.39911 -0.725443 0
M  V30 5630 C 552.579 -1.37382 -1.48224 0
M  V30 5631 C 552.9 0.0264107 -1.94982 0
M  V30 5632 O 552.17 0.979408 -1.6966 0
M  V30 5633 H 550.75 -0.505596 -0.549892 0
M  V30 5634 H 553.412 -1.7487 -0.860608 0
M  V30 5635 H 552.508 -2.04254 -2.3598 0
M  V30 5636 N 552.809 0.956637 -1.25245 0
M  V30 5637 C 553.772 2.03457 -1.05537 0
M  V30 5638 C 554.772 1.60798 -0.00886317 0
M  V30 5639 O 555.962 1.72384 -0.250865 0
M  V30 5640 C 553.094 3.35543 -0.601965 0
M  V30 5641 H 554.287 2.22372 -2.01223 0
M  V30 5642 H 551.84 1.13344 -1.07623 0
M  V30 5643 H 552.575 3.22323 0.357584 0
M  V30 5644 H 552.36 3.67854 -1.35743 0
M  V30 5645 H 553.85 4.14769 -0.485454 0
M  V30 5646 N 554.287 1.06798 1.15896 0
M  V30 5647 C 555.237 0.653213 2.18443 0
M  V30 5648 C 556.221 -0.318763 1.57711 0
M  V30 5649 O 557.413 -0.133388 1.76497 0
M  V30 5650 C 554.542 0.0465785 3.43268 0
M  V30 5651 C 553.628 1.04336 4.11066 0
M  V30 5652 N 554.019 2.22084 4.54436 0
M  V30 5653 C 552.317 0.875433 4.37324 0
M  V30 5654 C 553.018 2.85276 5.06944 0
M  V30 5655 N 551.994 2.12973 5.00143 0
M  V30 5656 H 555.796 1.55011 2.49698 0
M  V30 5657 H 553.31 0.940384 1.32403 0
M  V30 5658 H 555.307 -0.26843 4.16035 0
M  V30 5659 H 553.967 -0.845504 3.13499 0
M  V30 5660 H 554.978 2.59833 4.48004 0
M  V30 5661 H 551.655 0.0357721 4.17485 0
M  V30 5662 H 553.045 3.85223 5.50503 0
M  V30 5663 N 555.766 -1.3263 0.851289 0
M  V30 5664 C 556.698 -2.27824 0.250757 0
M  V30 5665 C 557.711 -1.52285 -0.575598 0
M  V30 5666 O 558.9 -1.73946 -0.400638 0
M  V30 5667 C 556 -3.3232 -0.664571 0
M  V30 5668 C 555.173 -4.37221 0.125187 0
M  V30 5669 C 554.232 -5.21314 -0.715385 0
M  V30 5670 O 553.258 -5.69002 -0.150111 0
M  V30 5671 N 554.46 -5.43823 -2.03069 0
M  V30 5672 H 557.225 -2.79997 1.06873 0
M  V30 5673 H 554.786 -1.45455 0.710943 0
M  V30 5674 H 556.778 -3.85486 -1.23216 0
M  V30 5675 H 555.348 -2.80331 -1.38323 0
M  V30 5676 H 554.568 -3.84384 0.874199 0
M  V30 5677 H 555.856 -5.04399 0.667774 0
M  V30 5678 H 555.254 -5.06803 -2.51332 0
M  V30 5679 H 553.811 -5.99998 -2.54648 0
M  V30 5680 N 557.244 -0.608902 -1.45362 0
M  V30 5681 C 558.469 -0.10921 -2.07112 0
M  V30 5682 C 558.894 1.19779 -1.45033 0
M  V30 5683 O 558.252 1.72961 -0.543527 0
M  V30 5684 C 558.3 0.0155745 -3.60597 0
M  V30 5685 O 557.404 1.06546 -3.98399 0
M  V30 5686 H 556.745 -0.0746619 -0.659789 0
M  V30 5687 H 559.275 -0.839283 -1.86594 0
M  V30 5688 H 559.285 0.213364 -4.07442 0
M  V30 5689 H 557.96 -0.938765 -4.05167 0
M  V30 5690 H 556.537 0.844024 -3.63223 0
M  V30 5691 N 558.722 1.53707 -0.348139 0
M  V30 5692 C 559.947 2.05877 0.250883 0
M  V30 5693 C 560.372 1.22115 1.43072 0
M  V30 5694 O 559.73 0.235986 1.79758 0
M  V30 5695 C 559.778 3.54886 0.639416 0
M  V30 5696 O 558.882 3.73948 1.73888 0
M  V30 5697 H 558.223 0.662754 0.040653 0
M  V30 5698 H 560.753 1.98303 -0.503685 0
M  V30 5699 H 560.763 3.97601 0.915295 0
M  V30 5700 H 559.438 4.153 -0.223386 0
M  V30 5701 H 558.015 3.43134 1.45991 0
M  V30 5702 N 560.2 0.0768682 1.57412 0
M  V30 5703 C 561.449 -0.590679 1.92857 0
M  V30 5704 C 561.762 -1.70461 0.959293 0
M  V30 5705 O 562.968 -2.43207 1.20675 0
M  V30 5706 C 561.424 -1.10204 3.42612 0
M  V30 5707 C 561.032 -0.0188447 4.47996 0
M  V30 5708 C 562.776 -1.74336 3.87049 0
M  V30 5709 C 560.683 -0.544536 5.88888 0
M  V30 5710 H 559.613 -0.224411 0.71983 0
M  V30 5711 H 562.264 0.149924 1.82887 0
M  V30 5712 H 560.646 -1.89577 3.47673 0
M  V30 5713 H 561.82 0.755936 4.54557 0
M  V30 5714 H 560.135 0.526555 4.13057 0
M  V30 5715 H 562.732 -2.14708 4.89699 0
M  V30 5716 H 563.075 -2.60537 3.24694 0
M  V30 5717 H 563.608 -1.01577 3.84613 0
M  V30 5718 H 560.347 0.280426 6.549 0
M  V30 5719 H 559.867 -1.28673 5.85836 0
M  V30 5720 H 561.546 -1.01933 6.3892 0
M  V30 5721 N 561.678 -1.56367 -0.196722 0
M  V30 5722 C 563.089 -1.70462 -0.761545 0
M  V30 5723 C 563.44 -0.683161 -1.83922 0
M  V30 5724 O 562.565 0.160753 -2.15802 0
M  V30 5725 C 563.16 -3.09057 -1.38814 0
M  V30 5726 C 561.719 -3.24922 -1.90007 0
M  V30 5727 C 560.866 -2.66412 -0.769399 0
M  V30 5728 H 563.817 -1.58675 0.0283263 0
M  V30 5729 H 563.838 -3.06296 -2.2575 0
M  V30 5730 H 563.35 -3.83378 -0.603559 0
M  V30 5731 H 561.451 -2.55514 -2.71189 0
M  V30 5732 H 561.564 -4.3241 -2.06297 0
M  V30 5733 H 559.928 -2.25546 -1.18326 0
M  V30 5734 H 560.711 -3.433 0.00291773 0
M  V30 5735 N 563.156 0.464375 -1.50603 0
M  V30 5736 C 564.119 1.54393 -1.69397 0
M  V30 5737 C 565.119 1.50566 -0.564504 0
M  V30 5738 O 566.309 1.53066 -0.831645 0
M  V30 5739 C 563.441 2.9401 -1.72543 0
M  V30 5740 H 564.634 1.39044 -2.65719 0
M  V30 5741 H 562.187 0.69122 -1.40185 0
M  V30 5742 H 562.922 3.14795 -0.77938 0
M  V30 5743 H 562.707 2.98195 -2.54602 0
M  V30 5744 H 564.197 3.72375 -1.89015 0
M  V30 5745 N 564.634 1.40294 0.718013 0
M  V30 5746 C 565.564 1.43118 1.84498 0
M  V30 5747 C 566.545 0.292403 1.67568 0
M  V30 5748 O 567.73 0.500675 1.87635 0
M  V30 5749 C 564.86 1.29065 3.22427 0
M  V30 5750 C 563.814 2.40521 3.54025 0
M  V30 5751 C 563.14 2.11546 4.91073 0
M  V30 5752 C 564.44 3.82859 3.55269 0
M  V30 5753 H 566.134 2.37432 1.82391 0
M  V30 5754 H 563.68 1.14283 0.87609 0
M  V30 5755 H 565.633 1.29658 4.00957 0
M  V30 5756 H 564.357 0.312271 3.25104 0
M  V30 5757 H 563.016 2.39173 2.77834 0
M  V30 5758 H 562.664 1.12104 4.90348 0
M  V30 5759 H 562.364 2.86216 5.1318 0
M  V30 5760 H 563.888 2.13817 5.71939 0
M  V30 5761 H 565.302 3.86044 4.23843 0
M  V30 5762 H 563.699 4.57029 3.88902 0
M  V30 5763 H 564.769 4.12617 2.54706 0
M  V30 5764 N 566.112 -0.949982 1.2575 0
M  V30 5765 C 567.36 -1.6918 1.10555 0
M  V30 5766 C 567.681 -1.91773 -0.353298 0
M  V30 5767 O 566.951 -1.50814 -1.25027 0
M  V30 5768 H 565.531 -0.626952 0.406129 0
M  V30 5769 H 568.193 -1.1419 1.57945 0
M  V30 5770 H 567.289 -2.66915 1.61749 0
M  V30 5771 N 567.59 -1.07411 -1.15328 0
M  V30 5772 C 568.839 -0.792643 -1.85473 0
M  V30 5773 C 569.152 0.683789 -1.83259 0
M  V30 5774 O 570.358 1.08005 -2.49093 0
M  V30 5775 C 568.814 -1.36787 -3.32892 0
M  V30 5776 C 568.422 -2.87536 -3.43551 0
M  V30 5777 C 570.166 -1.16444 -4.08217 0
M  V30 5778 C 568.073 -3.38247 -4.85122 0
M  V30 5779 H 567.003 -0.292838 -0.694811 0
M  V30 5780 H 569.654 -1.29426 -1.30082 0
M  V30 5781 H 568.036 -0.793993 -3.87958 0
M  V30 5782 H 569.21 -3.50973 -2.98588 0
M  V30 5783 H 567.525 -3.06676 -2.81672 0
M  V30 5784 H 570.122 -1.51808 -5.12697 0
M  V30 5785 H 570.465 -0.10353 -4.16171 0
M  V30 5786 H 570.998 -1.70472 -3.59422 0
M  V30 5787 H 567.737 -4.43866 -4.82351 0
M  V30 5788 H 567.257 -2.79564 -5.30664 0
M  V30 5789 H 568.936 -3.34238 -5.5398 0
M  V30 5790 N 569.068 1.32177 -0.85831 0
M  V30 5791 C 570.345 1.91781 -0.384624 0
M  V30 5792 C 570.725 1.78171 1.13217 0
M  V30 5793 O 570.073 1.18209 1.95548 0
M  V30 5794 C 570.283 3.38414 -0.853047 0
M  V30 5795 C 571.631 4.15542 -0.872359 0
M  V30 5796 O 572.655 3.47148 -0.797926 0
M  V30 5797 O 571.514 5.37678 -0.978009 0
M  V30 5798 H 568.608 0.819259 -0.112886 0
M  V30 5799 H 571.154 1.40923 -0.945453 0
M  V30 5800 H 569.926 3.4228 -1.89632 0
M  V30 5801 H 569.549 3.96683 -0.269874 0
M  V30 5802 N 570.547 0.616602 1.45037 0
M  V30 5803 C 571.51 -0.0871112 2.29034 0
M  V30 5804 C 572.51 -0.786414 1.40258 0
M  V30 5805 O 573.7 -0.633207 1.62284 0
M  V30 5806 C 570.832 -1.13369 3.21497 0
M  V30 5807 H 572.025 0.651497 2.92738 0
M  V30 5808 H 569.578 0.376058 1.51709 0
M  V30 5809 H 570.313 -1.90277 2.62612 0
M  V30 5810 H 570.098 -0.636358 3.86902 0
M  V30 5811 H 571.588 -1.62627 3.84633 0
M  V30 5812 N 572.025 -1.5352 0.356285 0
M  V30 5813 C 573.271 -2.02104 -0.229271 0
M  V30 5814 C 573.626 -1.23923 -1.47176 0
M  V30 5815 O 572.919 -0.321957 -1.88876 0
M  V30 5816 C 573.113 -3.52607 -0.583369 0
M  V30 5817 C 572.942 -4.4536 0.623253 0
M  V30 5818 C 571.712 -4.92446 1.13248 0
M  V30 5819 C 573.91 -4.92375 1.48563 0
M  V30 5820 N 571.892 -5.69183 2.3001 0
M  V30 5821 C 573.263 -5.67362 2.50001 0
M  V30 5822 C 575.318 -4.74464 1.50959 0
M  V30 5823 C 574.021 -6.26341 3.5368 0
M  V30 5824 C 576.047 -5.34302 2.53526 0
M  V30 5825 C 575.409 -6.09166 3.53688 0
M  V30 5826 H 571.508 -0.780595 -0.0468602 0
M  V30 5827 H 574.092 -1.88204 0.49873 0
M  V30 5828 H 572.263 -3.66686 -1.28046 0
M  V30 5829 H 573.995 -3.87922 -1.15321 0
M  V30 5830 H 570.75 -4.6842 0.698562 0
M  V30 5831 H 571.174 -6.12216 2.88998 0
M  V30 5832 H 575.816 -4.16117 0.748785 0
M  V30 5833 H 573.534 -6.8379 4.30648 0
M  V30 5834 H 577.12 -5.22342 2.56223 0
M  V30 5835 H 576 -6.54644 4.31753 0
M  V30 5836 N 573.503 -0.0852151 -1.57369 0
M  V30 5837 C 574.78 0.622534 -1.85429 0
M  V30 5838 C 575.16 1.86962 -0.980229 0
M  V30 5839 O 574.508 2.28445 -0.0500219 0
M  V30 5840 C 574.718 0.947374 -3.35896 0
M  V30 5841 C 576.066 1.31509 -4.03721 0
M  V30 5842 O 577.09 1.03869 -3.40719 0
M  V30 5843 O 575.949 1.83231 -5.14868 0
M  V30 5844 H 573.043 0.310513 -0.766492 0
M  V30 5845 H 575.589 -0.117164 -1.69295 0
M  V30 5846 H 574.361 0.0622264 -3.91251 0
M  V30 5847 H 573.984 1.74338 -3.5734 0
M  V30 5848 N 574.981 1.5647 0.188427 0
M  V30 5849 C 575.929 1.95971 1.25293 0
M  V30 5850 C 576.923 0.846047 1.4676 0
M  V30 5851 O 578.129 1.03109 1.47542 0
M  V30 5852 H 574.504 0.623253 0.420784 0
M  V30 5853 H 576.475 2.84731 0.892792 0
M  V30 5854 C 575.224 2.32116 2.58877 0
M  V30 5855 H 574.547 3.17341 2.43176 0
M  V30 5856 H 575.987 2.63613 3.3209 0
M  V30 5857 C 574.446 1.15823 3.16365 0
M  V30 5858 O 574.976 0.436785 3.99318 0
M  V30 5859 N 573.182 0.933278 2.75206 0
M  V30 5860 H 572.729 1.52169 2.07852 0
M  V30 5861 H 572.687 0.156976 3.14008 0
M  V30 5862 N 576.459 -0.456382 1.50847 0
M  V30 5863 C 577.684 -1.2349 1.66628 0
M  V30 5864 C 578.109 -1.84715 0.355254 0
M  V30 5865 O 577.467 -1.67961 -0.682559 0
M  V30 5866 C 577.515 -2.30865 2.77009 0
M  V30 5867 O 576.619 -3.35882 2.39285 0
M  V30 5868 H 575.96 -0.36266 0.556214 0
M  V30 5869 H 578.49 -0.541374 1.97308 0
M  V30 5870 H 578.5 -2.75949 3.00526 0
M  V30 5871 H 577.175 -1.85677 3.72152 0
M  V30 5872 H 575.752 -2.96406 2.26269 0
M  V30 5873 N 577.937 -1.40673 -0.710563 0
M  V30 5874 C 579.214 -1.29718 -1.46398 0
M  V30 5875 C 579.594 0.082177 -2.1094 0
M  V30 5876 O 578.942 1.09536 -2.00534 0
M  V30 5877 C 579.152 -2.43967 -2.49562 0
M  V30 5878 C 580.5 -2.84436 -3.15248 0
M  V30 5879 O 581.524 -2.43597 -2.59883 0
M  V30 5880 O 580.383 -3.55008 -4.1549 0
M  V30 5881 H 577.477 -0.509697 -0.651258 0
M  V30 5882 H 580.023 -1.52603 -0.742312 0
M  V30 5883 H 578.795 -3.36076 -2.0042 0
M  V30 5884 H 578.418 -2.22879 -3.29258 0
M  V30 5885 N 579.415 0.9433 -1.26252 0
M  V30 5886 C 580.64 1.72898 -1.14547 0
M  V30 5887 C 581.065 1.85761 0.295743 0
M  V30 5888 O 580.423 1.3463 1.21427 0
M  V30 5889 C 580.471 3.11471 -1.8171 0
M  V30 5890 O 579.575 3.97336 -1.10445 0
M  V30 5891 H 578.916 0.530555 -0.399259 0
M  V30 5892 H 581.446 1.18159 -1.67032 0
M  V30 5893 H 581.456 3.61872 -1.88449 0
M  V30 5894 H 580.131 3.01425 -2.86558 0
M  V30 5895 H 578.708 3.55788 -1.11666 0
M  V30 5896 N 580.893 1.08022 1.14757 0
M  V30 5897 C 582.118 0.82895 1.90114 0
M  V30 5898 C 582.543 -0.612772 1.77839 0
M  V30 5899 O 581.901 -1.42895 1.11583 0
M  V30 5900 C 581.949 1.25062 3.38219 0
M  V30 5901 O 581.053 0.400119 4.10454 0
M  V30 5902 H 580.394 0.301412 0.591648 0
M  V30 5903 H 582.924 1.44062 1.45284 0
M  V30 5904 H 582.934 1.22977 3.89025 0
M  V30 5905 H 581.609 2.30067 3.46471 0
M  V30 5906 H 580.186 0.484052 3.69745 0
M  V30 5907 N 582.371 -1.3172 0.865308 0
M  V30 5908 C 583.617 -1.97168 0.474633 0
M  V30 5909 C 583.95 -1.68263 -0.969604 0
M  V30 5910 O 583.225 -0.976588 -1.68205 0
M  V30 5911 C 583.508 -3.52689 0.726808 0
M  V30 5912 C 583.361 -3.91185 2.22024 0
M  V30 5913 C 584.68 -4.39689 0.190201 0
M  V30 5914 H 581.799 -0.716185 0.17392 0
M  V30 5915 H 584.441 -1.55925 1.08569 0
M  V30 5916 H 582.591 -3.8795 0.206705 0
M  V30 5917 H 584.263 -3.66049 2.80724 0
M  V30 5918 H 582.506 -3.3996 2.69462 0
M  V30 5919 H 583.177 -4.99604 2.34735 0
M  V30 5920 H 585.653 -4.11225 0.635103 0
M  V30 5921 H 584.529 -5.47469 0.396132 0
M  V30 5922 H 584.79 -4.32683 -0.907625 0
M  V30 5923 N 583.85 -0.624285 -1.44708 0
M  V30 5924 C 585.096 -0.126051 -2.02107 0
M  V30 5925 C 585.425 1.2496 -1.49048 0
M  V30 5926 O 584.68 1.84163 -0.662005 0
M  V30 5927 C 584.979 -0.0546353 -3.57358 0
M  V30 5928 C 584.644 -1.36815 -4.29642 0
M  V30 5929 C 583.307 -1.72792 -4.49106 0
M  V30 5930 C 585.659 -2.23549 -4.70824 0
M  V30 5931 C 582.986 -2.95222 -5.07012 0
M  V30 5932 C 585.339 -3.45243 -5.30085 0
M  V30 5933 C 584.003 -3.81452 -5.47769 0
M  V30 5934 H 583.273 -0.0461252 -0.739563 0
M  V30 5935 H 585.92 -0.809236 -1.73562 0
M  V30 5936 H 584.225 0.711891 -3.85278 0
M  V30 5937 H 585.922 0.347282 -3.99493 0
M  V30 5938 H 582.512 -1.07817 -4.14817 0
M  V30 5939 H 586.696 -1.9705 -4.55505 0
M  V30 5940 H 581.952 -3.23361 -5.18891 0
M  V30 5941 H 586.125 -4.12689 -5.60946 0
M  V30 5942 H 583.753 -4.76403 -5.92405 0
M  V30 5943 N 585.328 1.53329 -0.364422 0
M  V30 5944 C 586.291 2.24323 0.470292 0
M  V30 5945 C 587.291 1.25068 1.01067 0
M  V30 5946 O 588.481 1.49354 0.896605 0
M  V30 5947 C 585.613 2.97908 1.65722 0
M  V30 5948 H 586.806 2.9952 -0.150917 0
M  V30 5949 H 584.359 1.55868 -0.116092 0
M  V30 5950 H 585.094 2.2695 2.31655 0
M  V30 5951 H 584.879 3.70732 1.27671 0
M  V30 5952 H 586.369 3.5188 2.24878 0
M  V30 5953 N 586.806 0.0935595 1.57322 0
M  V30 5954 C 587.716 -0.880192 2.17462 0
M  V30 5955 C 588.732 -1.31135 1.14366 0
M  V30 5956 O 589.908 -1.37958 1.46729 0
M  V30 5957 C 586.973 -2.12184 2.74188 0
M  V30 5958 C 586.034 -1.74503 3.92234 0
M  V30 5959 C 585.267 -2.92748 4.46245 0
M  V30 5960 O 585.49 -4.07427 3.99198 0
M  V30 5961 O 584.424 -2.71303 5.37288 0
M  V30 5962 H 588.25 -0.398516 3.01074 0
M  V30 5963 H 585.835 -0.130707 1.48827 0
M  V30 5964 H 587.717 -2.84953 3.10451 0
M  V30 5965 H 586.392 -2.59407 1.93623 0
M  V30 5966 H 585.299 -0.989186 3.60785 0
M  V30 5967 H 586.632 -1.32044 4.74157 0
M  V30 5968 N 588.284 -1.56567 -0.180126 0
M  V30 5969 C 589.533 -1.80685 -0.896426 0
M  V30 5970 C 589.846 -0.669335 -1.83791 0
M  V30 5971 O 591.052 -0.795209 -2.59593 0
M  V30 5972 C 589.508 -3.20132 -1.6445 0
M  V30 5973 C 589.116 -4.41727 -0.747088 0
M  V30 5974 C 590.86 -3.53549 -2.34955 0
M  V30 5975 C 588.767 -5.72195 -1.49489 0
M  V30 5976 H 587.697 -0.673758 -0.338477 0
M  V30 5977 H 590.348 -1.8289 -0.149467 0
M  V30 5978 H 588.73 -3.12218 -2.43589 0
M  V30 5979 H 589.904 -4.608 0.00671129 0
M  V30 5980 H 588.219 -4.16122 -0.152134 0
M  V30 5981 H 590.816 -4.48267 -2.91481 0
M  V30 5982 H 591.159 -2.78006 -3.09868 0
M  V30 5983 H 591.692 -3.62976 -1.62768 0
M  V30 5984 H 588.431 -6.50743 -0.788251 0
M  V30 5985 H 587.951 -5.57115 -2.22224 0
M  V30 5986 H 589.63 -6.1384 -2.04472 0
M  V30 5987 N 589.762 0.448376 -1.51087 0
M  V30 5988 C 590.725 1.52588 -1.71025 0
M  V30 5989 C 591.725 1.49958 -0.580442 0
M  V30 5990 O 592.915 1.52176 -0.847833 0
M  V30 5991 C 590.047 2.92163 -1.75652 0
M  V30 5992 H 591.24 1.36218 -2.67179 0
M  V30 5993 H 588.793 0.676313 -1.4091 0
M  V30 5994 H 589.528 3.13951 -0.812724 0
M  V30 5995 H 589.313 2.95478 -2.57751 0
M  V30 5996 H 590.803 3.70349 -1.92953 0
M  V30 5997 N 591.24 1.41047 0.703093 0
M  V30 5998 C 592.651 1.35657 1.28274 0
M  V30 5999 C 593.002 0.0360309 1.96167 0
M  V30 6000 O 592.127 -0.865833 1.98324 0
M  V30 6001 C 592.722 2.45707 2.33267 0
M  V30 6002 C 591.281 2.43738 2.86825 0
M  V30 6003 C 590.428 2.25941 1.60767 0
M  V30 6004 H 593.379 1.50672 0.49836 0
M  V30 6005 H 593.4 2.14333 3.14391 0
M  V30 6006 H 592.912 3.41805 1.83824 0
M  V30 6007 H 591.013 1.51375 3.40465 0
M  V30 6008 H 591.126 3.39779 3.37768 0
M  V30 6009 H 589.49 1.73681 1.86298 0
M  V30 6010 H 590.273 3.24054 1.1333 0
M  V30 6011 N 592.718 -0.936591 1.26751 0
M  V30 6012 C 593.651 -2.03619 1.03027 0
M  V30 6013 C 594.629 -1.62534 -0.0464619 0
M  V30 6014 O 595.813 -1.88251 0.0968873 0
M  V30 6015 C 592.94 -3.3402 0.561072 0
M  V30 6016 C 591.986 -3.9408 1.63105 0
M  V30 6017 S 592.819 -4.27782 3.22122 0
M  V30 6018 C 593.975 -5.61277 2.76982 0
M  V30 6019 H 594.208 -2.23429 1.96129 0
M  V30 6020 H 591.741 -1.07857 1.10482 0
M  V30 6021 H 593.699 -4.09424 0.297031 0
M  V30 6022 H 592.36 -3.12147 -0.349741 0
M  V30 6023 H 591.553 -4.88154 1.25386 0
M  V30 6024 H 591.155 -3.25227 1.84671 0
M  V30 6025 H 593.447 -6.40189 2.21731 0
M  V30 6026 H 594.39 -6.03887 3.69766 0
M  V30 6027 H 594.798 -5.21374 2.16402 0
M  V30 6028 N 594.196 -1.08629 -1.14182 0
M  V30 6029 C 595.607 -0.838003 -1.66836 0
M  V30 6030 C 595.958 0.634885 -1.85644 0
M  V30 6031 O 595.083 1.49008 -1.56926 0
M  V30 6032 C 595.678 -1.51465 -3.03058 0
M  V30 6033 C 594.237 -1.31355 -3.52736 0
M  V30 6034 C 593.384 -1.57599 -2.28162 0
M  V30 6035 H 596.335 -1.24656 -0.982165 0
M  V30 6036 H 596.356 -0.943134 -3.68626 0
M  V30 6037 H 595.868 -2.58661 -2.89337 0
M  V30 6038 H 593.969 -0.262384 -3.71675 0
M  V30 6039 H 594.082 -2.04275 -4.33369 0
M  V30 6040 H 592.446 -0.997659 -2.34348 0
M  V30 6041 H 593.229 -2.66006 -2.17015 0
M  V30 6042 N 595.674 1.31259 -0.872281 0
M  V30 6043 C 596.637 2.26744 -0.334656 0
M  V30 6044 C 597.637 1.52307 0.515681 0
M  V30 6045 O 598.827 1.71148 0.324656 0
M  V30 6046 C 595.959 3.36841 0.524482 0
M  V30 6047 H 597.152 2.75812 -1.17762 0
M  V30 6048 H 594.705 1.42232 -0.648064 0
M  V30 6049 H 595.44 2.93069 1.38855 0
M  V30 6050 H 595.225 3.92009 -0.0844299 0
M  V30 6051 H 596.715 4.07944 0.892838 0
M  V30 6052 N 597.152 0.631951 1.44375 0
M  V30 6053 C 598.4 0.136497 2.01639 0
M  V30 6054 C 598.721 -1.24637 1.49969 0
M  V30 6055 O 597.991 -1.82827 0.70363 0
M  V30 6056 H 596.571 0.0474703 0.74549 0
M  V30 6057 H 599.233 0.818837 1.76865 0
M  V30 6058 H 598.329 0.104817 3.11924 0
M  V30 6059 N 598.631 -1.53133 0.372548 0
M  V30 6060 C 599.561 -2.28876 -0.462412 0
M  V30 6061 C 600.542 -1.31583 -1.07796 0
M  V30 6062 O 601.727 -1.60461 -1.09389 0
M  V30 6063 C 598.857 -3.08317 -1.59868 0
M  V30 6064 C 597.811 -4.13355 -1.11003 0
M  V30 6065 C 597.137 -4.8092 -2.33708 0
M  V30 6066 C 598.437 -5.21955 -0.18983 0
M  V30 6067 H 600.131 -2.9892 0.169511 0
M  V30 6068 H 597.677 -1.43761 0.0829658 0
M  V30 6069 H 599.63 -3.60055 -2.18949 0
M  V30 6070 H 598.354 -2.35976 -2.25794 0
M  V30 6071 H 597.013 -3.62573 -0.541869 0
M  V30 6072 H 596.661 -4.05144 -2.98106 0
M  V30 6073 H 596.361 -5.51904 -2.01682 0
M  V30 6074 H 597.885 -5.35455 -2.93462 0
M  V30 6075 H 599.299 -5.69153 -0.688319 0
M  V30 6076 H 597.696 -6.00087 0.0398887 0
M  V30 6077 H 598.766 -4.78811 0.766057 0
M  V30 6078 N 600.109 -0.101901 -1.5727 0
M  V30 6079 C 601.019 0.868647 -2.17926 0
M  V30 6080 C 602.035 1.30527 -1.1506 0
M  V30 6081 O 603.211 1.37178 -1.47459 0
M  V30 6082 C 600.276 2.10727 -2.75309 0
M  V30 6083 C 599.337 1.7242 -3.93154 0
M  V30 6084 C 598.57 2.90377 -4.47791 0
M  V30 6085 O 598.793 4.05305 -4.01353 0
M  V30 6086 O 597.727 2.6845 -5.38719 0
M  V30 6087 H 601.553 0.382544 -3.01281 0
M  V30 6088 H 599.138 0.122812 -1.48894 0
M  V30 6089 H 601.02 2.83303 -3.11958 0
M  V30 6090 H 599.695 2.58376 -1.94996 0
M  V30 6091 H 598.602 0.970039 -3.61305 0
M  V30 6092 H 599.935 1.29528 -4.74851 0
M  V30 6093 N 601.587 1.56661 0.17182 0
M  V30 6094 C 602.815 1.861 0.904115 0
M  V30 6095 C 603.23 0.687227 1.75848 0
M  V30 6096 O 602.587 -0.343671 1.79235 0
M  V30 6097 C 602.638 3.14568 1.78127 0
M  V30 6098 O 602.359 4.27422 0.961366 0
M  V30 6099 C 603.86 3.5735 2.62327 0
M  V30 6100 H 601.08 0.617445 0.262684 0
M  V30 6101 H 603.624 2.03775 0.172068 0
M  V30 6102 H 601.779 2.98721 2.46666 0
M  V30 6103 H 602.193 5.00725 1.56123 0
M  V30 6104 H 603.667 4.50144 3.1949 0
M  V30 6105 H 604.144 2.81445 3.37173 0
M  V30 6106 H 604.75 3.75807 1.99121 0
M  V30 6107 N 603.065 -0.440357 1.51323 0
M  V30 6108 C 604.311 -1.18874 1.65047 0
M  V30 6109 C 604.666 -1.88988 0.360742 0
M  V30 6110 O 603.959 -1.80479 -0.643272 0
M  V30 6111 C 604.153 -2.2339 2.78984 0
M  V30 6112 C 603.982 -1.63534 4.18911 0
M  V30 6113 C 602.752 -1.42158 4.84891 0
M  V30 6114 C 604.95 -1.11324 5.02107 0
M  V30 6115 N 602.932 -0.778679 6.08942 0
M  V30 6116 C 604.303 -0.595421 6.17134 0
M  V30 6117 C 606.358 -1.00471 4.87658 0
M  V30 6118 C 605.061 0.0202557 7.19297 0
M  V30 6119 C 607.087 -0.402928 5.90026 0
M  V30 6120 C 606.449 0.10436 7.04323 0
M  V30 6121 H 602.548 -0.422771 0.657866 0
M  V30 6122 H 605.132 -0.485814 1.88542 0
M  V30 6123 H 603.303 -2.91074 2.57158 0
M  V30 6124 H 605.035 -2.90366 2.81904 0
M  V30 6125 H 601.79 -1.68247 4.42707 0
M  V30 6126 H 602.214 -0.474755 6.75333 0
M  V30 6127 H 606.856 -1.38278 3.99548 0
M  V30 6128 H 604.574 0.410468 8.07057 0
M  V30 6129 H 608.16 -0.320897 5.80914 0
M  V30 6130 H 607.04 0.562697 7.82179 0
M  V30 6131 N 604.543 -1.41418 -0.695603 0
M  V30 6132 C 605.789 -1.40982 -1.4578 0
M  V30 6133 C 606.122 -0.0187763 -1.94191 0
M  V30 6134 O 605.397 0.95346 -1.69527 0
M  V30 6135 C 605.68 -2.41657 -2.66972 0
M  V30 6136 C 605.533 -3.89869 -2.24327 0
M  V30 6137 C 606.852 -2.39589 -3.69168 0
M  V30 6138 H 603.971 -0.513405 -0.528757 0
M  V30 6139 H 606.613 -1.72693 -0.792275 0
M  V30 6140 H 604.763 -2.14746 -3.23754 0
M  V30 6141 H 606.435 -4.27683 -1.72872 0
M  V30 6142 H 604.678 -4.04737 -1.56111 0
M  V30 6143 H 605.349 -4.55857 -3.11285 0
M  V30 6144 H 607.825 -2.63471 -3.2206 0
M  V30 6145 H 606.701 -3.12044 -4.51575 0
M  V30 6146 H 606.962 -1.41447 -4.18862 0
M  V30 6147 N 606.021 0.929856 -1.27246 0
M  V30 6148 C 607.246 1.71674 -1.16374 0
M  V30 6149 C 607.671 1.86064 0.276024 0
M  V30 6150 O 607.029 1.3591 1.19992 0
M  V30 6151 C 607.077 3.09526 -1.85003 0
M  V30 6152 O 606.181 3.96142 -1.14653 0
M  V30 6153 H 605.522 0.52629 -0.404863 0
M  V30 6154 H 608.052 1.16381 -1.68276 0
M  V30 6155 H 608.062 3.59852 -1.92276 0
M  V30 6156 H 606.737 2.98369 -2.89739 0
M  V30 6157 H 605.314 3.54584 -1.15433 0
M  V30 6158 N 607.499 1.09233 1.13605 0
M  V30 6159 C 608.429 0.751738 2.21068 0
M  V30 6160 C 609.41 -0.269688 1.67948 0
M  V30 6161 O 610.595 -0.13819 1.93708 0
M  V30 6162 C 607.725 0.16935 3.46887 0
M  V30 6163 C 606.679 1.12007 4.13084 0
M  V30 6164 C 606.005 0.399483 5.33206 0
M  V30 6165 C 607.305 2.46168 4.6065 0
M  V30 6166 H 608.999 1.65024 2.49815 0
M  V30 6167 H 606.545 0.794905 1.20072 0
M  V30 6168 H 608.498 -0.0809824 4.21322 0
M  V30 6169 H 607.222 -0.764335 3.1753 0
M  V30 6170 H 605.881 1.35564 3.40614 0
M  V30 6171 H 605.529 -0.538277 5.00112 0
M  V30 6172 H 605.229 1.03337 5.78442 0
M  V30 6173 H 606.753 0.157403 6.10397 0
M  V30 6174 H 608.167 2.26829 5.26518 0
M  V30 6175 H 606.564 3.05326 5.1662 0
M  V30 6176 H 607.634 3.07076 3.75276 0
M  V30 6177 N 608.977 -1.30795 0.87923 0
M  V30 6178 C 610.207 -2.00237 0.50881 0
M  V30 6179 C 610.615 -1.66115 -0.905682 0
M  V30 6180 O 609.958 -0.89138 -1.60624 0
M  V30 6181 C 610.02 -3.54508 0.597003 0
M  V30 6182 C 609.684 -4.12131 1.97477 0
M  V30 6183 C 610.681 -4.28552 2.94346 0
M  V30 6184 C 608.366 -4.47644 2.2786 0
M  V30 6185 C 610.36 -4.79689 4.19735 0
M  V30 6186 C 608.047 -4.98481 3.53496 0
M  V30 6187 C 609.045 -5.14456 4.49248 0
M  V30 6188 O 608.733 -5.64199 5.72656 0
M  V30 6189 H 608.465 -0.647026 0.195788 0
M  V30 6190 H 611.019 -1.67785 1.1848 0
M  V30 6191 H 609.249 -3.86461 -0.135945 0
M  V30 6192 H 610.938 -4.05198 0.238684 0
M  V30 6193 H 611.704 -4.01424 2.72183 0
M  V30 6194 H 607.583 -4.34481 1.54102 0
M  V30 6195 H 611.127 -4.92073 4.9448 0
M  V30 6196 H 607.024 -5.25044 3.75498 0
M  V30 6197 H 607.792 -5.82551 5.74957 0
M  V30 6198 N 610.455 -0.639598 -1.44038 0
M  V30 6199 C 611.385 0.0469443 -2.33453 0
M  V30 6200 C 612.366 0.82609 -1.48694 0
M  V30 6201 O 613.551 0.790285 -1.77393 0
M  V30 6202 C 610.681 1.02338 -3.3188 0
M  V30 6203 C 609.635 0.355284 -4.26523 0
M  V30 6204 C 608.961 1.44221 -5.14883 0
M  V30 6205 C 610.261 -0.743798 -5.16977 0
M  V30 6206 H 611.955 -0.699735 -2.91108 0
M  V30 6207 H 609.501 -0.337946 -1.39978 0
M  V30 6208 H 611.454 1.51247 -3.93322 0
M  V30 6209 H 610.178 1.80105 -2.72451 0
M  V30 6210 H 608.837 -0.113239 -3.66425 0
M  V30 6211 H 608.485 2.21097 -4.51802 0
M  V30 6212 H 608.185 1.00052 -5.79019 0
M  V30 6213 H 609.709 1.93295 -5.79197 0
M  V30 6214 H 611.123 -0.337444 -5.72306 0
M  V30 6215 H 609.52 -1.10914 -5.89761 0
M  V30 6216 H 610.59 -1.60745 -4.57481 0
M  V30 6217 N 611.933 1.52934 -0.380664 0
M  V30 6218 C 612.896 2.24809 0.446473 0
M  V30 6219 C 613.896 1.26133 0.997347 0
M  V30 6220 O 615.086 1.50297 0.880714 0
M  V30 6221 C 612.218 2.99649 1.62553 0
M  V30 6222 H 613.411 2.99343 -0.182677 0
M  V30 6223 H 610.964 1.55736 -0.132618 0
M  V30 6224 H 611.699 2.29395 2.29235 0
M  V30 6225 H 611.484 3.72066 1.23732 0
M  V30 6226 H 612.974 3.54246 2.21133 0
M  V30 6227 N 613.412 0.11024 1.57214 0
M  V30 6228 C 614.661 -0.549638 1.94067 0
M  V30 6229 C 614.974 -1.68388 0.995234 0
M  V30 6230 O 616.18 -2.40593 1.25807 0
M  V30 6231 C 614.636 -1.02912 3.44873 0
M  V30 6232 C 614.244 0.0761861 4.47935 0
M  V30 6233 C 615.988 -1.66087 3.9066 0
M  V30 6234 C 613.895 -0.419502 5.8991 0
M  V30 6235 H 612.825 -0.209092 0.724428 0
M  V30 6236 H 615.476 0.188683 1.82527 0
M  V30 6237 H 613.858 -1.82159 3.51616 0
M  V30 6238 H 615.032 0.852185 4.52851 0
M  V30 6239 H 613.347 0.614052 4.11847 0
M  V30 6240 H 615.944 -2.04272 4.94143 0
M  V30 6241 H 616.287 -2.53591 3.30148 0
M  V30 6242 H 616.82 -0.933959 3.86681 0
M  V30 6243 H 613.559 0.419277 6.54158 0
M  V30 6244 H 613.079 -1.16217 5.88433 0
M  V30 6245 H 614.758 -0.883577 6.40938 0
M  V30 6246 N 614.89 -1.56749 -0.16351 0
M  V30 6247 C 616.118 -1.86577 -0.894233 0
M  V30 6248 C 616.533 -0.696543 -1.75481 0
M  V30 6249 O 615.89 0.334161 -1.79415 0
M  V30 6250 C 615.941 -3.15508 -1.76456 0
M  V30 6251 O 615.662 -4.27926 -0.938685 0
M  V30 6252 C 617.163 -3.58737 -2.60428 0
M  V30 6253 H 614.383 -0.618829 -0.259405 0
M  V30 6254 H 616.927 -2.03863 -0.161259 0
M  V30 6255 H 615.082 -3.00025 -2.45079 0
M  V30 6256 H 615.496 -5.01546 -1.53465 0
M  V30 6257 H 616.97 -4.51832 -3.17099 0
M  V30 6258 H 617.447 -2.83229 -3.35675 0
M  V30 6259 H 618.053 -3.76858 -1.97125 0
M  V30 6260 N 616.368 0.432326 -1.51554 0
M  V30 6261 C 617.315 1.52512 -1.7323 0
M  V30 6262 C 618.285 1.55863 -0.5741 0
M  V30 6263 O 619.47 1.72796 -0.809093 0
M  V30 6264 C 616.61 2.90183 -1.86783 0
M  V30 6265 C 615.723 2.96322 -3.14352 0
M  V30 6266 C 614.858 4.25147 -3.18471 0
M  V30 6267 C 613.897 4.25172 -4.40335 0
M  V30 6268 N 613.034 5.45529 -4.41975 0
M  V30 6269 H 617.874 1.33332 -2.66508 0
M  V30 6270 H 615.411 0.647613 -1.32077 0
M  V30 6271 H 617.369 3.70071 -1.92623 0
M  V30 6272 H 615.999 3.0791 -0.969087 0
M  V30 6273 H 615.051 2.09066 -3.17798 0
M  V30 6274 H 616.363 2.92203 -4.04251 0
M  V30 6275 H 615.517 5.13411 -3.23255 0
M  V30 6276 H 614.256 4.31929 -2.2647 0
M  V30 6277 H 613.261 3.353 -4.35723 0
M  V30 6278 H 614.486 4.20049 -5.33606 0
M  V30 6279 H 612.432 5.53024 -3.52847 0
M  V30 6280 H 612.349 5.43311 -5.25689 0
M  V30 6281 H 613.617 6.35812 -4.50958 0
M  V30 6282 N 617.846 1.41785 0.688094 0
M  V30 6283 C 618.794 1.44436 1.82321 0
M  V30 6284 C 619.788 0.321544 1.6632 0
M  V30 6285 O 620.994 0.493931 1.73091 0
M  V30 6286 H 617.369 0.452084 0.600936 0
M  V30 6287 H 619.34 2.40087 1.77202 0
M  V30 6288 C 618.089 1.35071 3.20392 0
M  V30 6289 H 617.412 2.2076 3.33324 0
M  V30 6290 H 618.852 1.40988 3.99873 0
M  V30 6291 C 617.311 0.0639127 3.36839 0
M  V30 6292 O 617.841 -0.888495 3.91751 0
M  V30 6293 N 616.047 -0.0146114 2.90596 0
M  V30 6294 H 615.594 0.761191 2.46097 0
M  V30 6295 H 615.552 -0.874988 3.01979 0
M  V30 6296 N 619.324 -0.923095 1.27737 0
M  V30 6297 C 620.735 -1.48626 1.12993 0
M  V30 6298 C 621.086 -1.94142 -0.283439 0
M  V30 6299 O 620.211 -1.81605 -1.17681 0
M  V30 6300 C 620.806 -2.70117 2.04505 0
M  V30 6301 C 619.365 -3.22642 1.93853 0
M  V30 6302 C 618.512 -1.95368 1.96791 0
M  V30 6303 H 621.463 -0.736737 1.40563 0
M  V30 6304 H 621.484 -3.4506 1.60356 0
M  V30 6305 H 620.996 -2.36959 3.07363 0
M  V30 6306 H 619.097 -3.60549 0.939968 0
M  V30 6307 H 619.21 -3.88525 2.80331 0
M  V30 6308 H 617.574 -2.12061 1.41076 0
M  V30 6309 H 618.357 -1.64517 3.01312 0
M  V30 6310 N 620.802 -1.09834 -1.13024 0
M  V30 6311 C 621.734 -0.699379 -2.18269 0
M  V30 6312 C 622.747 0.260841 -1.60697 0
M  V30 6313 O 623.936 0.0462538 -1.7844 0
M  V30 6314 C 621.036 -0.0104537 -3.38898 0
M  V30 6315 C 620.209 -0.993275 -4.25973 0
M  V30 6316 C 619.268 -0.336982 -5.2512 0
M  V30 6317 O 618.294 -0.985892 -5.60597 0
M  V30 6318 N 619.496 0.90716 -5.73368 0
M  V30 6319 H 622.261 -1.60486 -2.5311 0
M  V30 6320 H 619.822 -0.986337 -1.28386 0
M  V30 6321 H 621.814 0.43991 -4.02302 0
M  V30 6322 H 620.384 0.797335 -3.0226 0
M  V30 6323 H 619.604 -1.62208 -3.5928 0
M  V30 6324 H 620.892 -1.65876 -4.81002 0
M  V30 6325 H 620.29 1.45384 -5.46699 0
M  V30 6326 H 618.847 1.30077 -6.38689 0
M  V30 6327 N 622.28 1.30327 -0.886154 0
M  V30 6328 C 623.696 1.48676 -0.580323 0
M  V30 6329 C 623.896 1.81189 0.881639 0
M  V30 6330 O 622.952 1.90021 1.66278 0
M  V30 6331 C 624.265 2.60932 -1.49449 0
M  V30 6332 C 625.813 2.74812 -1.49824 0
M  V30 6333 C 626.288 3.90183 -2.39836 0
M  V30 6334 N 627.779 3.97495 -2.37806 0
M  V30 6335 C 628.514 4.86078 -3.04165 0
M  V30 6336 N 628.01 5.79448 -3.79753 0
M  V30 6337 N 629.803 4.79456 -2.93391 0
M  V30 6338 H 621.954 1.07495 -1.8319 0
M  V30 6339 H 624.217 0.532661 -0.784204 0
M  V30 6340 H 623.923 2.43731 -2.5355 0
M  V30 6341 H 623.797 3.57437 -1.20494 0
M  V30 6342 H 626.184 2.91418 -0.464731 0
M  V30 6343 H 626.265 1.78924 -1.82811 0
M  V30 6344 H 625.909 3.74334 -3.43273 0
M  V30 6345 H 625.839 4.85411 -2.04166 0
M  V30 6346 H 628.33 3.30703 -1.82877 0
M  V30 6347 H 628.643 6.43805 -4.27475 0
M  V30 6348 H 626.988 5.79376 -3.8386 0
M  V30 6349 H 630.179 4.05494 -2.33864 0
M  V30 6350 H 630.352 5.48283 -3.45383 0
M  V30 6351 N 623.758 0.647228 1.43697 0
M  V30 6352 C 625.006 0.157876 2.01482 0
M  V30 6353 C 625.327 -1.23039 1.51282 0
M  V30 6354 O 624.597 -1.82071 0.722982 0
M  V30 6355 H 623.177 0.0553745 0.744945 0
M  V30 6356 H 625.839 0.83755 1.75986 0
M  V30 6357 H 624.935 0.137895 3.11795 0
M  V30 6358 N 625.236 -1.5273 0.388769 0
M  V30 6359 C 626.464 -2.05992 -0.193677 0
M  V30 6360 C 626.879 -1.26053 -1.40557 0
M  V30 6361 O 626.236 -0.307049 -1.79898 0
M  V30 6362 C 626.287 -3.57068 -0.564321 0
M  V30 6363 O 626.008 -4.3398 0.599422 0
M  V30 6364 C 627.509 -4.26674 -1.20269 0
M  V30 6365 H 624.729 -0.670358 -0.0293445 0
M  V30 6366 H 627.273 -1.96857 0.553844 0
M  V30 6367 H 625.428 -3.66277 -1.26174 0
M  V30 6368 H 625.842 -5.2367 0.294895 0
M  V30 6369 H 627.316 -5.33625 -1.4124 0
M  V30 6370 H 627.793 -3.81854 -2.16989 0
M  V30 6371 H 628.399 -4.2178 -0.546047 0
M  V30 6372 N 626.714 -0.118576 -1.57153 0
M  V30 6373 C 627.961 0.539526 -1.9518 0
M  V30 6374 C 628.289 1.66714 -1.00184 0
M  V30 6375 O 627.544 1.95683 -0.0256482 0
M  V30 6376 C 627.843 1.11303 -3.39627 0
M  V30 6377 C 627.509 0.106809 -4.50773 0
M  V30 6378 C 626.171 -0.169876 -4.809 0
M  V30 6379 C 628.523 -0.57895 -5.17975 0
M  V30 6380 C 625.851 -1.13861 -5.75545 0
M  V30 6381 C 628.203 -1.53631 -6.13661 0
M  V30 6382 C 626.867 -1.82099 -6.42181 0
M  V30 6383 H 626.137 0.197427 -0.714215 0
M  V30 6384 H 628.784 -0.199391 -1.90459 0
M  V30 6385 H 627.089 1.92869 -3.4104 0
M  V30 6386 H 628.786 1.63032 -3.66363 0
M  V30 6387 H 625.376 0.332645 -4.27307 0
M  V30 6388 H 629.56 -0.378359 -4.94856 0
M  V30 6389 H 624.816 -1.36592 -5.95947 0
M  V30 6390 H 628.99 -2.07337 -6.64819 0
M  V30 6391 H 626.617 -2.57319 -7.15326 0
M  V30 6392 N 628.193 1.56834 0.155195 0
M  V30 6393 C 629.439 1.83169 0.870467 0
M  V30 6394 C 629.772 0.698929 1.81187 0
M  V30 6395 O 629.047 -0.298035 1.92203 0
M  V30 6396 C 629.33 3.19965 1.65211 0
M  V30 6397 C 629.183 4.43792 0.732744 0
M  V30 6398 C 630.502 3.53885 2.61636 0
M  V30 6399 H 627.621 0.666288 0.315006 0
M  V30 6400 H 630.263 1.89513 0.135988 0
M  V30 6401 H 628.413 3.14687 2.27825 0
M  V30 6402 H 630.085 4.61148 0.118236 0
M  V30 6403 H 628.328 4.3378 0.0417906 0
M  V30 6404 H 628.999 5.36095 1.31552 0
M  V30 6405 H 631.475 3.5972 2.09143 0
M  V30 6406 H 630.351 4.50648 3.13381 0
M  V30 6407 H 630.612 2.79418 3.42605 0
M  V30 6408 N 629.671 -0.424282 1.51781 0
M  V30 6409 C 630.901 -1.19297 1.68677 0
M  V30 6410 C 631.309 -1.85152 0.389258 0
M  V30 6411 O 630.652 -1.72067 -0.643311 0
M  V30 6412 C 630.714 -2.30929 2.75521 0
M  V30 6413 C 630.378 -1.85335 4.17732 0
M  V30 6414 C 631.375 -1.34951 5.0208 0
M  V30 6415 C 629.06 -1.92629 4.63896 0
M  V30 6416 C 631.054 -0.924636 6.30658 0
M  V30 6417 C 628.741 -1.49754 5.92467 0
M  V30 6418 C 629.739 -0.997543 6.75676 0
M  V30 6419 O 629.427 -0.57492 8.01842 0
M  V30 6420 H 629.159 -0.36512 0.568914 0
M  V30 6421 H 631.713 -0.507327 1.99036 0
M  V30 6422 H 629.943 -3.02811 2.40505 0
M  V30 6423 H 631.632 -2.92748 2.81165 0
M  V30 6424 H 632.398 -1.287 4.67612 0
M  V30 6425 H 628.277 -2.30491 3.99243 0
M  V30 6426 H 631.821 -0.533682 6.95556 0
M  V30 6427 H 627.718 -1.55679 6.26446 0
M  V30 6428 H 628.486 -0.699597 8.15505 0
M  V30 6429 N 631.149 -1.42148 -0.680565 0
M  V30 6430 C 632.426 -1.32795 -1.43614 0
M  V30 6431 C 632.806 0.037415 -2.11067 0
M  V30 6432 O 632.154 1.05258 -2.02813 0
M  V30 6433 C 632.364 -2.49206 -2.44331 0
M  V30 6434 C 633.712 -2.91059 -3.09144 0
M  V30 6435 O 634.736 -2.49054 -2.54657 0
M  V30 6436 O 633.595 -3.63741 -4.07866 0
M  V30 6437 H 630.689 -0.523397 -0.640301 0
M  V30 6438 H 633.235 -1.54144 -0.709775 0
M  V30 6439 H 632.007 -3.40252 -1.93247 0
M  V30 6440 H 631.63 -2.29813 -3.24456 0
M  V30 6441 N 632.627 0.916307 -1.28225 0
M  V30 6442 C 633.59 1.99996 -1.11957 0
M  V30 6443 C 634.59 1.60688 -0.0600152 0
M  V30 6444 O 635.78 1.71499 -0.30558 0
M  V30 6445 C 632.912 3.33458 -0.708411 0
M  V30 6446 H 634.105 2.15858 -2.08196 0
M  V30 6447 H 631.658 1.09863 -1.11175 0
M  V30 6448 H 632.393 3.23297 0.254859 0
M  V30 6449 H 632.178 3.63349 -1.47377 0
M  V30 6450 H 633.668 4.13014 -0.617164 0
M  V30 6451 N 634.105 1.10431 1.1244 0
M  V30 6452 C 635.068 0.756542 2.16354 0
M  V30 6453 C 636.068 -0.21899 1.59302 0
M  V30 6454 O 637.258 0.00415969 1.742 0
M  V30 6455 C 634.39 0.120612 3.40687 0
M  V30 6456 H 635.583 1.67696 2.48632 0
M  V30 6457 H 633.136 0.904832 1.27446 0
M  V30 6458 H 633.871 -0.810536 3.14008 0
M  V30 6459 H 633.656 0.822693 3.83372 0
M  V30 6460 H 635.146 -0.106945 4.17463 0
M  V30 6461 N 635.583 -1.29855 0.893053 0
M  V30 6462 C 636.811 -1.99976 0.530788 0
M  V30 6463 C 637.226 -1.66889 -0.882799 0
M  V30 6464 O 636.583 -0.910352 -1.58173 0
M  V30 6465 C 636.634 -3.54547 0.705587 0
M  V30 6466 O 636.355 -3.86458 2.06353 0
M  V30 6467 C 637.856 -4.41937 0.347387 0
M  V30 6468 H 635.076 -0.639129 0.204339 0
M  V30 6469 H 637.62 -1.65549 1.20057 0
M  V30 6470 H 635.775 -3.87311 0.0830685 0
M  V30 6471 H 636.189 -4.81146 2.08803 0
M  V30 6472 H 637.663 -5.4954 0.520557 0
M  V30 6473 H 638.14 -4.33339 -0.715139 0
M  V30 6474 H 638.746 -4.14633 0.946567 0
M  V30 6475 N 637.061 -0.65484 -1.43351 0
M  V30 6476 C 638.338 -0.0987371 -1.95351 0
M  V30 6477 C 638.718 1.38161 -1.59608 0
M  V30 6478 O 638.066 2.10791 -0.882021 0
M  V30 6479 C 638.276 -0.346684 -3.47274 0
M  V30 6480 C 639.624 -0.25249 -4.23849 0
M  V30 6481 O 640.648 -0.279332 -3.55103 0
M  V30 6482 O 639.507 -0.177584 -5.46211 0
M  V30 6483 H 636.601 0.0086829 -0.826954 0
M  V30 6484 H 639.147 -0.728189 -1.53282 0
M  V30 6485 H 637.919 -1.37296 -3.66423 0
M  V30 6486 H 637.542 0.315757 -3.96344 0
M  V30 6487 N 638.539 1.52521 -0.396863 0
M  V30 6488 C 639.955 1.5953 -0.0471659 0
M  V30 6489 C 640.155 1.41044 1.43906 0
M  V30 6490 O 639.211 1.23122 2.20448 0
M  V30 6491 C 640.524 2.95972 -0.531113 0
M  V30 6492 C 642.072 3.09172 -0.488024 0
M  V30 6493 C 642.547 4.48075 -0.948281 0
M  V30 6494 N 644.038 4.54281 -0.9046 0
M  V30 6495 C 644.773 5.60007 -1.23205 0
M  V30 6496 N 644.269 6.73343 -1.63036 0
M  V30 6497 N 646.062 5.50151 -1.15282 0
M  V30 6498 H 638.213 1.62786 -1.36435 0
M  V30 6499 H 640.476 0.76514 -0.559701 0
M  V30 6500 H 640.182 3.14741 -1.56942 0
M  V30 6501 H 640.056 3.77143 0.0657922 0
M  V30 6502 H 642.443 2.90095 0.541211 0
M  V30 6503 H 642.524 2.29937 -1.12083 0
M  V30 6504 H 642.168 4.67894 -1.97578 0
M  V30 6505 H 642.098 5.25788 -0.292412 0
M  V30 6506 H 644.589 3.72918 -0.6116 0
M  V30 6507 H 644.902 7.49992 -1.86365 0
M  V30 6508 H 643.247 6.74655 -1.66929 0
M  V30 6509 H 646.438 4.6049 -0.840602 0
M  V30 6510 H 646.611 6.32444 -1.41133 0
M  V30 6511 N 640.017 0.126909 1.57088 0
M  V30 6512 C 640.98 -0.806097 2.14557 0
M  V30 6513 C 641.98 -1.18918 1.08236 0
M  V30 6514 O 643.17 -1.11339 1.33975 0
M  V30 6515 C 640.302 -2.09116 2.69227 0
M  V30 6516 H 641.495 -0.306522 2.98329 0
M  V30 6517 H 639.048 -0.122393 1.5582 0
M  V30 6518 H 639.783 -2.63486 1.89065 0
M  V30 6519 H 639.568 -1.82588 3.46993 0
M  V30 6520 H 641.058 -2.75794 3.13572 0
M  V30 6521 N 641.495 -1.56914 -0.146875 0
M  V30 6522 C 642.442 -1.98275 -1.18134 0
M  V30 6523 C 643.412 -0.850367 -1.42681 0
M  V30 6524 O 644.597 -1.11244 -1.55014 0
M  V30 6525 C 641.737 -2.36861 -2.5098 0
M  V30 6526 C 640.85 -3.63391 -2.33605 0
M  V30 6527 C 639.985 -3.91079 -3.59486 0
M  V30 6528 C 639.024 -5.10879 -3.37149 0
M  V30 6529 N 638.161 -5.34577 -4.55161 0
M  V30 6530 H 643.001 -2.8645 -0.821622 0
M  V30 6531 H 640.538 -1.41718 -0.394248 0
M  V30 6532 H 642.496 -2.57262 -3.28439 0
M  V30 6533 H 641.126 -1.51766 -2.84898 0
M  V30 6534 H 640.178 -3.50766 -1.47199 0
M  V30 6535 H 641.49 -4.51007 -2.13059 0
M  V30 6536 H 640.644 -4.11979 -4.45374 0
M  V30 6537 H 639.383 -3.01885 -3.83036 0
M  V30 6538 H 638.388 -4.89853 -2.49649 0
M  V30 6539 H 639.613 -6.01626 -3.14997 0
M  V30 6540 H 637.559 -4.48337 -4.78884 0
M  V30 6541 H 637.476 -6.16463 -4.37618 0
M  V30 6542 H 638.744 -5.59975 -5.42263 0
M  V30 6543 N 642.974 0.416227 -1.52004 0
M  V30 6544 C 643.904 1.51365 -1.77795 0
M  V30 6545 C 644.885 1.58059 -0.628601 0
M  V30 6546 O 646.07 1.73447 -0.873478 0
M  V30 6547 C 643.2 2.89256 -1.92219 0
M  V30 6548 C 642.154 2.97415 -3.0778 0
M  V30 6549 C 641.48 4.37492 -3.07417 0
M  V30 6550 C 642.78 2.69551 -4.47369 0
M  V30 6551 H 644.474 1.30033 -2.69688 0
M  V30 6552 H 642.02 0.624112 -1.29772 0
M  V30 6553 H 643.973 3.66008 -2.08845 0
M  V30 6554 H 642.697 3.11866 -0.969917 0
M  V30 6555 H 641.356 2.23107 -2.90893 0
M  V30 6556 H 641.004 4.571 -2.09925 0
M  V30 6557 H 640.704 4.43877 -3.85029 0
M  V30 6558 H 642.228 5.16188 -3.26162 0
M  V30 6559 H 643.642 3.36028 -4.64497 0
M  V30 6560 H 642.039 2.87321 -5.26846 0
M  V30 6561 H 643.109 1.65029 -4.55953 0
M  V30 6562 N 644.452 1.42507 0.673017 0
M  V30 6563 C 645.4 1.46362 1.80779 0
M  V30 6564 C 646.394 0.339166 1.6597 0
M  V30 6565 O 647.6 0.512262 1.72557 0
M  V30 6566 H 643.975 0.458433 0.596107 0
M  V30 6567 H 645.946 2.41953 1.74646 0
M  V30 6568 C 644.695 1.38462 3.18941 0
M  V30 6569 H 644.018 2.24283 3.30964 0
M  V30 6570 H 645.458 1.45221 3.98355 0
M  V30 6571 C 643.917 0.0996354 3.36753 0
M  V30 6572 O 644.447 -0.846894 3.92671 0
M  V30 6573 N 642.653 0.016211 2.90595 0
M  V30 6574 H 642.2 0.78725 2.45276 0
M  V30 6575 H 642.158 -0.84291 3.0289 0
M  V30 6576 N 645.93 -0.909495 1.28709 0
M  V30 6577 C 647.176 -1.66175 1.17293 0
M  V30 6578 C 647.531 -1.90426 -0.274891 0
M  V30 6579 O 646.824 -1.49659 -1.19635 0
M  V30 6580 C 647.018 -3.02117 1.90945 0
M  V30 6581 C 646.847 -2.91134 3.42741 0
M  V30 6582 C 645.617 -2.92429 4.12085 0
M  V30 6583 C 647.815 -2.68889 4.3841 0
M  V30 6584 N 645.797 -2.72078 5.50315 0
M  V30 6585 C 647.168 -2.57423 5.64033 0
M  V30 6586 C 649.223 -2.53919 4.28287 0
M  V30 6587 C 647.926 -2.32513 6.80683 0
M  V30 6588 C 649.952 -2.3039 5.44678 0
M  V30 6589 C 649.314 -2.19682 6.69268 0
M  V30 6590 H 645.413 -0.614095 0.48416 0
M  V30 6591 H 647.997 -1.07377 1.62414 0
M  V30 6592 H 646.168 -3.58993 1.48252 0
M  V30 6593 H 647.9 -3.66388 1.71878 0
M  V30 6594 H 644.655 -3.03345 3.63701 0
M  V30 6595 H 645.079 -2.64983 6.22987 0
M  V30 6596 H 649.721 -2.60946 3.32666 0
M  V30 6597 H 647.439 -2.24225 7.76369 0
M  V30 6598 H 651.025 -2.19665 5.38738 0
M  V30 6599 H 649.905 -2.01725 7.5781 0
M  V30 6600 N 647.408 -1.11026 -1.11852 0
M  V30 6601 C 648.636 -0.878818 -1.87308 0
M  V30 6602 C 649.051 0.57111 -1.79955 0
M  V30 6603 O 648.408 1.39409 -1.17777 0
M  V30 6604 C 648.459 -1.3264 -3.36287 0
M  V30 6605 O 648.18 -2.71948 -3.43476 0
M  V30 6606 C 649.681 -1.12974 -4.28663 0
M  V30 6607 H 646.901 -0.315015 -0.592458 0
M  V30 6608 H 649.445 -1.47649 -1.41492 0
M  V30 6609 H 647.6 -0.772269 -3.79625 0
M  V30 6610 H 648.014 -2.91241 -4.3621 0
M  V30 6611 H 649.488 -1.49198 -5.31454 0
M  V30 6612 H 649.965 -0.0689127 -4.39146 0
M  V30 6613 H 650.571 -1.67064 -3.91113 0
M  V30 6614 N 648.886 1.2938 -0.899927 0
M  V30 6615 C 650.302 1.48052 -0.596059 0
M  V30 6616 C 650.502 1.82114 0.862372 0
M  V30 6617 O 649.558 1.91774 1.64253 0
M  V30 6618 C 650.871 2.59332 -1.52208 0
M  V30 6619 C 652.419 2.73208 -1.5273 0
M  V30 6620 C 652.894 3.87617 -2.43961 0
M  V30 6621 N 654.385 3.9495 -2.42009 0
M  V30 6622 C 655.12 4.82824 -3.09303 0
M  V30 6623 N 654.616 5.75387 -3.85877 0
M  V30 6624 N 656.409 4.76317 -2.98459 0
M  V30 6625 H 648.56 1.05546 -1.8432 0
M  V30 6626 H 650.823 0.524314 -0.78981 0
M  V30 6627 H 650.529 2.41029 -2.56121 0
M  V30 6628 H 650.403 3.56139 -1.24278 0
M  V30 6629 H 652.79 2.90908 -0.495614 0
M  V30 6630 H 652.871 1.76975 -1.84698 0
M  V30 6631 H 652.515 3.70672 -3.47224 0
M  V30 6632 H 652.445 4.83218 -2.09303 0
M  V30 6633 H 654.936 3.28744 -1.86375 0
M  V30 6634 H 655.249 6.39235 -4.34279 0
M  V30 6635 H 653.594 5.75272 -3.89984 0
M  V30 6636 H 656.785 4.0299 -2.38152 0
M  V30 6637 H 656.958 5.44589 -3.51179 0
M  V30 6638 N 650.364 0.662433 1.43002 0
M  V30 6639 C 651.641 0.109096 1.95296 0
M  V30 6640 C 652.021 -1.37313 1.60338 0
M  V30 6641 O 651.369 -2.1032 0.893187 0
M  V30 6642 C 651.579 0.365096 3.47085 0
M  V30 6643 C 652.927 0.274964 4.23709 0
M  V30 6644 O 653.951 0.29816 3.5495 0
M  V30 6645 O 652.81 0.206549 5.4611 0
M  V30 6646 H 649.904 -0.00429724 0.826989 0
M  V30 6647 H 652.45 0.736308 1.52894 0
M  V30 6648 H 651.222 1.39237 3.65689 0
M  V30 6649 H 650.845 -0.294733 3.96506 0
M  V30 6650 N 651.842 -1.52309 0.404946 0
M  V30 6651 C 652.774 -2.24579 -0.45791 0
M  V30 6652 C 653.787 -1.2739 -1.01369 0
M  V30 6653 O 654.976 -1.53363 -0.91335 0
M  V30 6654 C 652.076 -2.9608 -1.64893 0
M  V30 6655 C 651.249 -4.20106 -1.21777 0
M  V30 6656 C 650.308 -4.74468 -2.27523 0
M  V30 6657 O 649.334 -5.37157 -1.88285 0
M  V30 6658 N 650.536 -4.55678 -3.59635 0
M  V30 6659 H 653.301 -2.99265 0.161341 0
M  V30 6660 H 650.862 -1.60228 0.232107 0
M  V30 6661 H 652.854 -3.29344 -2.35191 0
M  V30 6662 H 651.424 -2.24606 -2.17419 0
M  V30 6663 H 650.644 -3.92704 -0.343071 0
M  V30 6664 H 651.932 -5.00658 -0.906596 0
M  V30 6665 H 651.33 -4.05673 -3.94266 0
M  V30 6666 H 649.887 -4.9339 -4.25922 0
M  V30 6667 N 653.32 -0.135238 -1.57019 0
M  V30 6668 C 654.268 0.826099 -2.17436 0
M  V30 6669 C 655.262 1.26378 -1.12805 0
M  V30 6670 O 656.468 1.23363 -1.31079 0
M  V30 6671 H 652.843 0.284568 -0.696078 0
M  V30 6672 H 654.814 0.292212 -2.96966 0
M  V30 6673 C 653.563 2.05991 -2.80112 0
M  V30 6674 H 652.886 1.73209 -3.60331 0
M  V30 6675 H 654.326 2.71225 -3.25903 0
M  V30 6676 C 652.785 2.86027 -1.78017 0
M  V30 6677 O 653.315 3.81971 -1.24344 0
M  V30 6678 N 651.521 2.50332 -1.47588 0
M  V30 6679 H 651.068 1.72377 -1.91426 0
M  V30 6680 H 651.026 3.04177 -0.795228 0
M  V30 6681 N 654.798 1.5699 0.138552 0
M  V30 6682 C 655.761 1.97984 1.15478 0
M  V30 6683 C 656.761 0.867416 1.35398 0
M  V30 6684 O 657.951 1.13387 1.32246 0
M  V30 6685 C 655.083 2.3031 2.51337 0
M  V30 6686 H 656.276 2.88953 0.802896 0
M  V30 6687 H 653.829 1.51555 0.382189 0
M  V30 6688 H 654.564 1.42159 2.91481 0
M  V30 6689 H 654.349 3.11425 2.38237 0
M  V30 6690 H 655.839 2.62834 3.24512 0
M  V30 6691 N 656.276 -0.40816 1.52223 0
M  V30 6692 C 657.687 -0.986929 1.58482 0
M  V30 6693 C 658.038 -1.91521 0.425917 0
M  V30 6694 O 657.163 -2.11593 -0.453593 0
M  V30 6695 C 657.758 -1.7967 2.87235 0
M  V30 6696 C 656.317 -2.32549 2.9597 0
M  V30 6697 C 655.464 -1.12558 2.53428 0
M  V30 6698 H 658.415 -0.188362 1.57578 0
M  V30 6699 H 658.436 -2.65417 2.72642 0
M  V30 6700 H 657.948 -1.12082 3.71563 0
M  V30 6701 H 656.049 -3.03505 2.16137 0
M  V30 6702 H 656.162 -2.63348 4.00231 0
M  V30 6703 H 654.526 -1.47984 2.07299 0
M  V30 6704 H 655.309 -0.465351 3.40131 0
M  V30 6705 N 657.755 -1.42862 -0.66545 0
M  V30 6706 C 658.718 -1.46756 -1.76055 0
M  V30 6707 C 659.718 -0.353866 -1.56858 0
M  V30 6708 O 660.908 -0.615099 -1.62979 0
M  V30 6709 C 658.04 -1.30829 -3.14796 0
M  V30 6710 H 659.233 -2.44271 -1.73987 0
M  V30 6711 H 656.786 -1.29447 -0.875965 0
M  V30 6712 H 657.521 -0.342733 -3.22484 0
M  V30 6713 H 657.306 -2.11551 -3.30134 0
M  V30 6714 H 658.796 -1.36458 -3.94676 0
M  V30 6715 N 659.233 0.902656 -1.29189 0
M  V30 6716 C 660.479 1.65532 -1.17163 0
M  V30 6717 C 660.812 1.92216 0.276879 0
M  V30 6718 O 660.087 1.53048 1.20027 0
M  V30 6719 C 660.37 3.00629 -1.98228 0
M  V30 6720 C 660.223 2.81029 -3.51202 0
M  V30 6721 C 661.542 4.01321 -1.80635 0
M  V30 6722 H 658.661 0.60071 -0.426985 0
M  V30 6723 H 661.303 1.04578 -1.5863 0
M  V30 6724 H 659.453 3.52656 -1.62991 0
M  V30 6725 H 661.125 2.35927 -3.96404 0
M  V30 6726 H 659.368 2.1587 -3.76275 0
M  V30 6727 H 660.039 3.77014 -4.03192 0
M  V30 6728 H 662.515 3.58394 -2.11406 0
M  V30 6729 H 661.391 4.93792 -2.3971 0
M  V30 6730 H 661.652 4.35505 -0.760754 0
M  V30 6731 N 660.711 1.11618 1.11262 0
M  V30 6732 C 661.659 0.771291 2.1944 0
M  V30 6733 C 662.653 -0.238073 1.67719 0
M  V30 6734 O 663.859 -0.0971628 1.79738 0
M  V30 6735 H 660.234 0.231548 0.715465 0
M  V30 6736 H 662.205 1.69226 2.45775 0
M  V30 6737 C 660.954 0.232765 3.4692 0
M  V30 6738 H 660.277 1.00072 3.87073 0
M  V30 6739 H 661.717 0.0296561 4.2399 0
M  V30 6740 C 660.176 -1.03738 3.20531 0
M  V30 6741 O 660.706 -2.11675 3.41404 0
M  V30 6742 N 658.912 -0.960906 2.74253 0
M  V30 6743 H 658.459 -0.0824323 2.57468 0
M  V30 6744 H 658.417 -1.8114 2.56974 0
M  V30 6745 N 662.189 -1.289 0.906776 0
M  V30 6746 C 663.152 -2.25777 0.394656 0
M  V30 6747 C 664.152 -1.53621 -0.475119 0
M  V30 6748 O 665.342 -1.71949 -0.279165 0
M  V30 6749 C 662.474 -3.38113 -0.43499 0
M  V30 6750 H 663.667 -2.72592 1.25033 0
M  V30 6751 H 661.22 -1.40463 0.685547 0
M  V30 6752 H 661.955 -2.96648 -1.31036 0
M  V30 6753 H 661.74 -3.91647 0.188334 0
M  V30 6754 H 663.23 -4.10168 -0.784365 0
M  V30 6755 N 663.667 -0.670007 -1.42649 0
M  V30 6756 C 664.63 0.00204659 -2.292 0
M  V30 6757 C 665.63 0.733817 -1.4308 0
M  V30 6758 O 666.82 0.57254 -1.64522 0
M  V30 6759 C 663.952 1.01359 -3.25483 0
M  V30 6760 H 665.145 -0.759696 -2.90118 0
M  V30 6761 H 662.698 -0.432105 -1.50208 0
M  V30 6762 H 663.433 1.80399 -2.69493 0
M  V30 6763 H 663.218 0.492323 -3.88997 0
M  V30 6764 H 664.708 1.4824 -3.90403 0
M  V30 6765 N 665.145 1.52092 -0.413018 0
M  V30 6766 C 666.092 2.27119 0.410558 0
M  V30 6767 C 667.062 1.29692 1.03774 0
M  V30 6768 O 668.247 1.58561 1.06128 0
M  V30 6769 C 665.387 3.09863 1.51918 0
M  V30 6770 C 664.5 4.22252 0.912528 0
M  V30 6771 C 663.635 4.92348 1.99417 0
M  V30 6772 C 662.674 5.96694 1.36466 0
M  V30 6773 N 661.811 6.60292 2.38661 0
M  V30 6774 H 666.651 2.97067 -0.235661 0
M  V30 6775 H 664.188 1.46542 -0.128055 0
M  V30 6776 H 666.146 3.56144 2.17295 0
M  V30 6777 H 664.776 2.42078 2.13537 0
M  V30 6778 H 663.828 3.80113 0.147697 0
M  V30 6779 H 665.14 4.9709 0.412717 0
M  V30 6780 H 664.294 5.42054 2.72512 0
M  V30 6781 H 663.033 4.17087 2.52764 0
M  V30 6782 H 662.038 5.46304 0.61906 0
M  V30 6783 H 663.263 6.73899 0.838827 0
M  V30 6784 H 661.209 5.87858 2.91134 0
M  V30 6785 H 661.126 7.30816 1.93503 0
M  V30 6786 H 662.394 7.14635 3.11314 0
M  V30 6787 N 666.623 0.143563 1.56945 0
M  V30 6788 C 667.586 -0.783295 2.154 0
M  V30 6789 C 668.586 -1.17763 1.09492 0
M  V30 6790 O 669.776 -1.09912 1.35148 0
M  V30 6791 C 666.908 -2.06248 2.7143 0
M  V30 6792 H 668.101 -0.274863 2.98638 0
M  V30 6793 H 665.654 -0.105859 1.55941 0
M  V30 6794 H 666.389 -2.61466 1.91849 0
M  V30 6795 H 666.174 -1.78897 3.4891 0
M  V30 6796 H 667.664 -2.72453 3.16479 0
M  V30 6797 N 668.101 -1.57061 -0.130224 0
M  V30 6798 C 669.031 -2.02552 -1.16168 0
M  V30 6799 C 670.012 -0.907971 -1.4384 0
M  V30 6800 O 671.197 -1.17693 -1.54473 0
M  V30 6801 C 668.327 -2.42035 -2.49071 0
M  V30 6802 C 667.281 -3.5713 -2.35886 0
M  V30 6803 C 666.607 -3.82478 -3.7365 0
M  V30 6804 C 667.907 -4.89236 -1.8288 0
M  V30 6805 H 669.601 -2.8897 -0.783359 0
M  V30 6806 H 667.147 -1.39021 -0.375376 0
M  V30 6807 H 669.1 -2.72462 -3.21469 0
M  V30 6808 H 667.824 -1.52573 -2.88771 0
M  V30 6809 H 666.483 -3.26895 -1.65938 0
M  V30 6810 H 666.131 -2.9024 -4.10816 0
M  V30 6811 H 665.831 -4.59944 -3.65685 0
M  V30 6812 H 667.355 -4.15347 -4.47571 0
M  V30 6813 H 668.769 -5.18272 -2.45085 0
M  V30 6814 H 667.166 -5.70624 -1.85763 0
M  V30 6815 H 668.236 -4.78494 -0.785571 0
M  V30 6816 N 669.579 0.400081 -1.52437 0
M  V30 6817 C 670.826 1.14619 -1.6694 0
M  V30 6818 C 671.154 1.90262 -0.403797 0
M  V30 6819 O 670.409 1.85835 0.61351 0
M  V30 6820 C 670.708 2.15914 -2.84808 0
M  V30 6821 C 670.374 1.57011 -4.2268 0
M  V30 6822 C 669.036 1.40672 -4.60179 0
M  V30 6823 C 671.388 1.14081 -5.08562 0
M  V30 6824 C 668.716 0.799335 -5.81229 0
M  V30 6825 C 671.068 0.547573 -6.30226 0
M  V30 6826 C 669.732 0.371389 -6.66466 0
M  V30 6827 H 669.002 0.419419 -0.610875 0
M  V30 6828 H 671.649 0.432227 -1.86558 0
M  V30 6829 H 669.954 2.93488 -2.59561 0
M  V30 6830 H 671.651 2.73533 -2.93225 0
M  V30 6831 H 668.241 1.70713 -3.93135 0
M  V30 6832 H 672.425 1.2551 -4.80168 0
M  V30 6833 H 667.681 0.65093 -6.07925 0
M  V30 6834 H 671.855 0.206575 -6.96094 0
M  V30 6835 H 669.482 -0.10135 -7.60132 0
M  V30 6836 N 671.057 1.43213 0.657864 0
M  V30 6837 C 672.334 1.35063 1.41483 0
M  V30 6838 C 672.714 -0.0038314 2.111 0
M  V30 6839 O 672.062 -1.02018 2.04462 0
M  V30 6840 C 672.272 2.53061 2.40335 0
M  V30 6841 C 673.62 2.9594 3.04474 0
M  V30 6842 O 674.644 2.53074 2.50663 0
M  V30 6843 O 673.503 3.70184 4.02027 0
M  V30 6844 H 670.597 0.533517 0.631893 0
M  V30 6845 H 673.143 1.55253 0.685162 0
M  V30 6846 H 671.915 3.43283 1.87809 0
M  V30 6847 H 671.538 2.34945 3.20759 0
M  V30 6848 N 672.536 -0.895792 1.29666 0
M  V30 6849 C 673.952 -1.17726 1.07763 0
M  V30 6850 C 674.152 -2.00794 -0.168576 0
M  V30 6851 O 673.208 -2.37213 -0.865244 0
M  V30 6852 C 674.521 -1.89441 2.33522 0
M  V30 6853 C 676.069 -2.02251 2.3888 0
M  V30 6854 C 676.544 -2.77378 3.64452 0
M  V30 6855 N 678.035 -2.8493 3.65198 0
M  V30 6856 C 678.77 -3.43606 4.59045 0
M  V30 6857 N 678.266 -4.03417 5.63228 0
M  V30 6858 N 680.059 -3.41317 4.46608 0
M  V30 6859 H 672.21 -0.341652 2.09634 0
M  V30 6860 H 674.473 -0.213865 0.923561 0
M  V30 6861 H 674.179 -1.35842 3.24407 0
M  V30 6862 H 674.053 -2.89893 2.41334 0
M  V30 6863 H 676.44 -2.55025 1.4848 0
M  V30 6864 H 676.521 -1.0092 2.3505 0
M  V30 6865 H 676.165 -2.25279 4.55205 0
M  V30 6866 H 676.095 -3.79062 3.65541 0
M  V30 6867 H 678.586 -2.42453 2.89871 0
M  V30 6868 H 678.899 -4.46224 6.30955 0
M  V30 6869 H 677.244 -4.01868 5.67033 0
M  V30 6870 H 680.435 -2.93812 3.64407 0
M  V30 6871 H 680.608 -3.86751 5.1993 0
M  V30 6872 N 674.014 -1.12206 -1.10668 0
M  V30 6873 C 675.263 -0.870595 -1.81944 0
M  V30 6874 C 675.576 0.605447 -1.85994 0
M  V30 6875 O 676.782 0.973433 -2.53449 0
M  V30 6876 C 675.238 -1.50783 -3.26791 0
M  V30 6877 C 674.846 -3.01849 -3.31046 0
M  V30 6878 C 676.59 -1.33653 -4.02911 0
M  V30 6879 C 674.497 -3.58518 -4.70339 0
M  V30 6880 H 673.427 -0.322043 -0.681765 0
M  V30 6881 H 676.078 -1.34827 -1.24475 0
M  V30 6882 H 674.46 -0.957825 -3.84242 0
M  V30 6883 H 675.634 -3.63321 -2.83433 0
M  V30 6884 H 673.949 -3.18346 -2.68411 0
M  V30 6885 H 676.546 -1.73416 -5.05797 0
M  V30 6886 H 676.889 -0.279949 -4.15358 0
M  V30 6887 H 677.422 -1.85562 -3.51868 0
M  V30 6888 H 674.161 -4.63925 -4.63091 0
M  V30 6889 H 673.681 -3.01819 -5.18329 0
M  V30 6890 H 675.36 -3.57434 -5.39305 0
M  V30 6891 N 675.492 1.28418 -0.913599 0
M  V30 6892 C 676.44 2.29272 -0.392037 0
M  V30 6893 C 677.434 1.61344 0.516198 0
M  V30 6894 O 678.64 1.75557 0.39746 0
M  V30 6895 H 675.015 0.744178 -0.108178 0
M  V30 6896 H 676.986 2.70691 -1.25574 0
M  V30 6897 C 675.735 3.45905 0.352815 0
M  V30 6898 H 675.058 3.98378 -0.336848 0
M  V30 6899 H 676.498 4.18473 0.682398 0
M  V30 6900 C 674.957 2.98572 1.56065 0
M  V30 6901 O 675.487 3.01033 2.65974 0
M  V30 6902 N 673.693 2.54235 1.40759 0
M  V30 6903 H 673.24 2.52432 0.513403 0
M  V30 6904 H 673.198 2.22925 2.21702 0
M  V30 6905 N 676.97 0.677563 1.42291 0
M  V30 6906 C 677.917 0.000947061 2.308 0
M  V30 6907 C 678.887 -0.789889 1.46116 0
M  V30 6908 O 680.072 -0.761578 1.74942 0
M  V30 6909 C 677.212 -0.942387 3.31984 0
M  V30 6910 C 676.325 -0.14508 4.31756 0
M  V30 6911 C 675.46 -1.08442 5.20013 0
M  V30 6912 C 674.499 -0.278958 6.11464 0
M  V30 6913 N 673.636 -1.17115 6.92263 0
M  V30 6914 H 678.476 0.761521 2.88106 0
M  V30 6915 H 676.013 0.38727 1.41911 0
M  V30 6916 H 677.971 -1.50317 3.89179 0
M  V30 6917 H 676.601 -1.66956 2.76271 0
M  V30 6918 H 675.653 0.532368 3.76656 0
M  V30 6919 H 676.965 0.48015 4.96484 0
M  V30 6920 H 676.119 -1.71504 5.81955 0
M  V30 6921 H 674.858 -1.74353 4.55469 0
M  V30 6922 H 673.863 0.364856 5.48588 0
M  V30 6923 H 675.088 0.376099 6.78058 0
M  V30 6924 H 673.034 -1.81661 6.30345 0
M  V30 6925 H 672.951 -0.601063 7.53607 0
M  V30 6926 H 674.219 -1.78915 7.58689 0
M  V30 6927 N 678.448 -1.51871 0.421078 0
M  V30 6928 C 679.411 -2.25914 -0.386712 0
M  V30 6929 C 680.411 -1.28733 -0.963555 0
M  V30 6930 O 681.601 -1.52579 -0.840556 0
M  V30 6931 C 678.733 -3.03853 -1.54551 0
M  V30 6932 H 679.926 -2.98754 0.261978 0
M  V30 6933 H 677.479 -1.5533 0.173862 0
M  V30 6934 H 678.214 -2.35392 -2.23072 0
M  V30 6935 H 677.999 -3.75215 -1.13824 0
M  V30 6936 H 679.489 -3.59984 -2.11663 0
M  V30 6937 N 679.926 -0.151884 -1.56866 0
M  V30 6938 C 680.874 0.80299 -2.183 0
M  V30 6939 C 681.868 1.25174 -1.14139 0
M  V30 6940 O 683.074 1.21966 -1.3238 0
M  V30 6941 H 679.449 0.277169 -0.699057 0
M  V30 6942 H 681.42 0.260699 -2.97259 0
M  V30 6943 C 680.169 2.03009 -2.82281 0
M  V30 6944 H 679.492 1.69377 -3.62148 0
M  V30 6945 H 680.932 2.67753 -3.28762 0
M  V30 6946 C 679.391 2.84123 -1.81041 0
M  V30 6947 O 679.921 3.8063 -1.28388 0
M  V30 6948 N 678.127 2.48753 -1.50234 0
M  V30 6949 H 677.674 1.70337 -1.93244 0
M  V30 6950 H 677.632 3.03316 -0.827445 0
M  V30 6951 N 681.404 1.57128 0.121893 0
M  V30 6952 C 682.652 1.84335 0.828548 0
M  V30 6953 C 682.973 0.736632 1.80551 0
M  V30 6954 O 682.243 -0.23962 1.94429 0
M  V30 6955 H 680.823 0.680108 0.30897 0
M  V30 6956 H 683.485 1.9459 0.109906 0
M  V30 6957 H 682.581 2.80152 1.37554 0
M  V30 6958 N 682.882 -0.391992 1.52647 0
M  V30 6959 C 684.11 -1.1586 1.71418 0
M  V30 6960 C 684.525 -1.8381 0.431216 0
M  V30 6961 O 683.882 -1.7256 -0.594085 0
M  V30 6962 C 683.933 -2.20888 2.86165 0
M  V30 6963 O 683.654 -1.5571 4.09495 0
M  V30 6964 C 685.155 -3.103 3.1659 0
M  V30 6965 H 682.375 -0.347494 0.574011 0
M  V30 6966 H 684.919 -0.458972 1.99283 0
M  V30 6967 H 683.074 -2.86492 2.6077 0
M  V30 6968 H 683.488 -2.25474 4.73563 0
M  V30 6969 H 684.962 -3.8003 4.00351 0
M  V30 6970 H 685.439 -3.73639 2.30848 0
M  V30 6971 H 686.045 -2.50345 3.43813 0
M  V30 6972 N 684.36 -1.4356 -0.65026 0
M  V30 6973 C 685.609 -1.44619 -1.406 0
M  V30 6974 C 685.922 -0.0752645 -1.95455 0
M  V30 6975 O 687.128 0.0366832 -2.71475 0
M  V30 6976 C 685.584 -2.54511 -2.54465 0
M  V30 6977 C 685.192 -3.97723 -2.06204 0
M  V30 6978 C 686.936 -2.64768 -3.31811 0
M  V30 6979 C 684.843 -4.99075 -3.17298 0
M  V30 6980 H 683.773 -0.537983 -0.52829 0
M  V30 6981 H 686.424 -1.69559 -0.701561 0
M  V30 6982 H 684.806 -2.22777 -3.27393 0
M  V30 6983 H 685.98 -4.38932 -1.40267 0
M  V30 6984 H 684.295 -3.91538 -1.41729 0
M  V30 6985 H 686.892 -3.37664 -4.14593 0
M  V30 6986 H 687.235 -1.69936 -3.80036 0
M  V30 6987 H 687.768 -2.95817 -2.65964 0
M  V30 6988 H 684.507 -5.95469 -2.74038 0
M  V30 6989 H 684.027 -4.62476 -3.81937 0
M  V30 6990 H 685.706 -5.21913 -3.82382 0
M  V30 6991 N 685.838 0.888903 -1.30139 0
M  V30 6992 C 687.068 1.67115 -1.21474 0
M  V30 6993 C 687.476 1.87852 0.225472 0
M  V30 6994 O 686.819 1.42324 1.16145 0
M  V30 6995 C 686.881 3.0713 -1.86846 0
M  V30 6996 C 686.545 3.09582 -3.36167 0
M  V30 6997 C 687.542 2.88929 -4.32222 0
M  V30 6998 C 685.227 3.31304 -3.77549 0
M  V30 6999 C 687.221 2.89949 -5.67634 0
M  V30 7000 C 684.908 3.31954 -5.13079 0
M  V30 7001 C 685.906 3.113 -6.07932 0
M  V30 7002 O 685.594 3.11758 -7.40987 0
M  V30 7003 H 685.326 0.528372 -0.421662 0
M  V30 7004 H 687.88 1.11919 -1.7223 0
M  V30 7005 H 686.11 3.63973 -1.30615 0
M  V30 7006 H 687.799 3.6749 -1.72354 0
M  V30 7007 H 688.565 2.71948 -4.01584 0
M  V30 7008 H 684.444 3.46417 -3.04165 0
M  V30 7009 H 687.988 2.73746 -6.41645 0
M  V30 7010 H 683.885 3.48469 -5.43359 0
M  V30 7011 H 684.653 3.27951 -7.49927 0
M  V30 7012 N 687.317 1.12792 1.10072 0
M  V30 7013 C 688.733 0.864745 1.34143 0
M  V30 7014 C 688.933 -0.503201 1.95116 0
M  V30 7015 O 687.989 -1.25111 2.19325 0
M  V30 7016 C 689.302 1.98413 2.25949 0
M  V30 7017 C 690.85 2.01545 2.39476 0
M  V30 7018 C 691.325 3.12727 3.34613 0
M  V30 7019 N 692.816 3.12194 3.42183 0
M  V30 7020 C 693.551 3.94862 4.15779 0
M  V30 7021 N 693.047 4.87528 4.92228 0
M  V30 7022 N 694.84 3.82985 4.11435 0
M  V30 7023 H 686.991 2.00926 0.68866 0
M  V30 7024 H 689.254 0.874564 0.365844 0
M  V30 7025 H 688.96 2.97005 1.88364 0
M  V30 7026 H 688.834 1.89254 3.26287 0
M  V30 7027 H 691.221 1.0357 2.76328 0
M  V30 7028 H 691.302 2.14777 1.3894 0
M  V30 7029 H 690.946 4.10936 2.98486 0
M  V30 7030 H 690.876 2.96732 4.35037 0
M  V30 7031 H 693.367 2.45065 2.87666 0
M  V30 7032 H 693.68 5.47109 5.45794 0
M  V30 7033 H 692.025 4.91539 4.9134 0
M  V30 7034 H 695.216 3.09923 3.50807 0
M  V30 7035 H 695.389 4.47641 4.68531 0
M  V30 7036 N 688.795 -1.27931 0.920396 0
M  V30 7037 C 690.025 -1.98516 0.572256 0
M  V30 7038 C 690.433 -1.68912 -0.852375 0
M  V30 7039 O 689.776 -0.94203 -1.57707 0
M  V30 7040 C 689.838 -3.5243 0.709485 0
M  V30 7041 C 689.502 -4.0564 2.10489 0
M  V30 7042 C 690.499 -4.1897 3.07831 0
M  V30 7043 C 688.184 -4.40168 2.41986 0
M  V30 7044 C 690.178 -4.66093 4.34783 0
M  V30 7045 C 687.865 -4.86983 3.69176 0
M  V30 7046 C 688.863 -4.99903 4.65388 0
M  V30 7047 O 688.551 -5.45694 5.90316 0
M  V30 7048 H 688.283 -0.64047 0.216274 0
M  V30 7049 H 690.837 -1.6393 1.23758 0
M  V30 7050 H 689.067 -3.86698 -0.0129263 0
M  V30 7051 H 690.756 -4.04233 0.367474 0
M  V30 7052 H 691.522 -3.92562 2.84816 0
M  V30 7053 H 687.401 -4.29358 1.67846 0
M  V30 7054 H 690.945 -4.76092 5.09884 0
M  V30 7055 H 686.842 -5.12832 3.92012 0
M  V30 7056 H 687.61 -5.63965 5.932 0
M  V30 7057 N 690.273 -0.685099 -1.4193 0
M  V30 7058 C 691.55 -0.140152 -1.95097 0
M  V30 7059 C 691.93 1.34745 -1.62502 0
M  V30 7060 O 691.278 2.08872 -0.926534 0
M  V30 7061 C 691.488 -0.420268 -3.4646 0
M  V30 7062 C 692.836 -0.342338 -4.23218 0
M  V30 7063 O 693.86 -0.354592 -3.54431 0
M  V30 7064 O 692.719 -0.293404 -5.45712 0
M  V30 7065 H 689.813 -0.00885998 -0.826953 0
M  V30 7066 H 692.359 -0.760539 -1.51703 0
M  V30 7067 H 691.131 -1.45037 -3.63428 0
M  V30 7068 H 690.754 0.231616 -3.96925 0
M  V30 7069 N 691.751 1.51645 -0.429126 0
M  V30 7070 C 692.681 2.30434 0.377148 0
M  V30 7071 C 693.662 1.35493 1.02838 0
M  V30 7072 O 694.847 1.6441 1.03359 0
M  V30 7073 C 691.977 3.14038 1.48315 0
M  V30 7074 C 690.931 4.1719 0.955855 0
M  V30 7075 C 690.257 4.89263 2.15698 0
M  V30 7076 C 691.557 5.223 -0.00402136 0
M  V30 7077 H 693.251 2.98085 -0.280336 0
M  V30 7078 H 690.797 1.43354 -0.136265 0
M  V30 7079 H 692.75 3.67933 2.05435 0
M  V30 7080 H 691.474 2.44193 2.16881 0
M  V30 7081 H 690.133 3.64335 0.406929 0
M  V30 7082 H 689.781 4.15929 2.82864 0
M  V30 7083 H 689.481 5.59009 1.81059 0
M  V30 7084 H 691.005 5.45978 2.73387 0
M  V30 7085 H 692.419 5.71315 0.476607 0
M  V30 7086 H 690.816 5.99525 -0.26258 0
M  V30 7087 H 691.886 4.75638 -0.943236 0
M  V30 7088 N 693.229 0.160201 1.56784 0
M  V30 7089 C 694.476 -0.487588 1.96542 0
M  V30 7090 C 694.804 -1.63999 1.04569 0
M  V30 7091 O 694.059 -1.95546 0.0775211 0
M  V30 7092 C 694.358 -1.02259 3.42459 0
M  V30 7093 C 694.024 0.0127436 4.50898 0
M  V30 7094 C 692.686 0.297318 4.80281 0
M  V30 7095 C 695.038 0.716078 5.16257 0
M  V30 7096 C 692.366 1.29081 5.72324 0
M  V30 7097 C 694.718 1.69847 6.09372 0
M  V30 7098 C 693.382 1.99061 6.37127 0
M  V30 7099 H 692.652 -0.178421 0.719199 0
M  V30 7100 H 695.299 0.249818 1.89864 0
M  V30 7101 H 693.604 -1.8376 3.46034 0
M  V30 7102 H 695.301 -1.53261 3.70556 0
M  V30 7103 H 691.891 -0.219235 4.28039 0
M  V30 7104 H 696.075 0.509428 4.93679 0
M  V30 7105 H 691.331 1.52344 5.92116 0
M  V30 7106 H 695.505 2.2489 6.59088 0
M  V30 7107 H 693.132 2.76194 7.08252 0
M  V30 7108 N 694.707 -1.5719 -0.113559 0
M  V30 7109 C 695.955 -1.84772 -0.818761 0
M  V30 7110 C 696.276 -0.746196 -1.80158 0
M  V30 7111 O 695.546 0.229305 -1.94553 0
M  V30 7112 H 694.126 -0.681737 -0.305359 0
M  V30 7113 H 696.788 -1.94645 -0.0995845 0
M  V30 7114 H 695.884 -2.80878 -1.36067 0
M  V30 7115 N 696.185 0.383891 -1.52853 0
M  V30 7116 C 697.413 1.1495 -1.7203 0
M  V30 7117 C 697.828 1.83578 -0.440957 0
M  V30 7118 O 697.185 1.72872 0.584925 0
M  V30 7119 C 697.236 2.19368 -2.87333 0
M  V30 7120 O 696.957 1.53536 -4.10315 0
M  V30 7121 C 698.458 3.08616 -3.18231 0
M  V30 7122 H 695.678 0.344445 -0.575846 0
M  V30 7123 H 698.222 0.448397 -1.99524 0
M  V30 7124 H 696.377 2.85105 -2.62286 0
M  V30 7125 H 696.791 2.2296 -4.74752 0
M  V30 7126 H 698.265 3.77902 -4.02361 0
M  V30 7127 H 698.742 3.72409 -2.32826 0
M  V30 7128 H 699.348 2.48518 -3.45136 0
M  V30 7129 N 697.663 1.43903 0.642637 0
M  V30 7130 C 698.595 1.45857 1.768 0
M  V30 7131 C 699.608 0.353358 1.58919 0
M  V30 7132 O 700.797 0.618426 1.67445 0
M  V30 7133 C 697.897 1.26583 3.14372 0
M  V30 7134 C 697.07 2.50139 3.58817 0
M  V30 7135 C 696.129 2.25933 4.75227 0
M  V30 7136 O 695.155 2.99351 4.84125 0
M  V30 7137 N 696.357 1.28263 5.66153 0
M  V30 7138 H 699.122 2.42869 1.75598 0
M  V30 7139 H 696.683 1.39194 0.826832 0
M  V30 7140 H 698.675 1.08255 3.89953 0
M  V30 7141 H 697.245 0.37978 3.10284 0
M  V30 7142 H 696.465 2.83821 2.73568 0
M  V30 7143 H 697.753 3.32344 3.8526 0
M  V30 7144 H 697.151 0.676041 5.61646 0
M  V30 7145 H 695.708 1.15916 6.4141 0
M  V30 7146 N 699.141 -0.881989 1.30609 0
M  V30 7147 C 700.071 -2.00413 1.1982 0
M  V30 7148 C 701.052 -1.69871 0.0881538 0
M  V30 7149 O 702.237 -1.92304 0.2707 0
M  V30 7150 C 699.367 -3.35641 0.89233 0
M  V30 7151 C 698.321 -3.80451 1.96064 0
M  V30 7152 C 697.647 -5.13003 1.5077 0
M  V30 7153 C 698.947 -3.98855 3.37213 0
M  V30 7154 H 700.641 -2.09698 2.13699 0
M  V30 7155 H 698.187 -1.00754 1.02882 0
M  V30 7156 H 700.14 -4.13669 0.803497 0
M  V30 7157 H 698.864 -3.26497 -0.0821381 0
M  V30 7158 H 697.523 -3.04654 2.03916 0
M  V30 7159 H 697.171 -5.0029 0.521417 0
M  V30 7160 H 696.871 -5.43956 2.22229 0
M  V30 7161 H 698.395 -5.93554 1.43271 0
M  V30 7162 H 699.809 -4.67312 3.32103 0
M  V30 7163 H 698.206 -4.41188 4.06784 0
M  V30 7164 H 699.276 -3.02614 3.78883 0
M  V30 7165 N 700.619 -1.13374 -1.09472 0
M  V30 7166 C 701.566 -0.810682 -2.16094 0
M  V30 7167 C 702.536 0.227003 -1.64541 0
M  V30 7168 O 703.721 0.0993538 -1.90541 0
M  V30 7169 C 700.861 -0.282336 -3.43943 0
M  V30 7170 C 699.974 -1.37902 -4.09398 0
M  V30 7171 C 699.109 -0.809066 -5.25002 0
M  V30 7172 C 698.148 -1.88419 -5.82379 0
M  V30 7173 N 697.285 -1.33221 -6.89345 0
M  V30 7174 H 702.125 -1.72397 -2.43071 0
M  V30 7175 H 699.662 -0.860564 -1.19301 0
M  V30 7176 H 701.62 0.0421189 -4.17179 0
M  V30 7177 H 700.25 0.594083 -3.17286 0
M  V30 7178 H 699.302 -1.82008 -3.34032 0
M  V30 7179 H 700.614 -2.19161 -4.48074 0
M  V30 7180 H 699.768 -0.435867 -6.05132 0
M  V30 7181 H 698.507 0.0346058 -4.87688 0
M  V30 7182 H 697.512 -2.26646 -5.00911 0
M  V30 7183 H 698.737 -2.73125 -6.21755 0
M  V30 7184 H 696.683 -0.510535 -6.5401 0
M  V30 7185 H 696.6 -2.08129 -7.26786 0
M  V30 7186 H 697.868 -0.986565 -7.73232 0
M  V30 7187 N 702.098 1.27442 -0.927168 0
M  V30 7188 C 703.061 2.2512 -0.430525 0
M  V30 7189 C 704.061 1.54357 0.450619 0
M  V30 7190 O 705.251 1.72371 0.251774 0
M  V30 7191 C 702.383 3.38763 0.381144 0
M  V30 7192 H 703.576 2.70569 -1.29354 0
M  V30 7193 H 701.129 1.39355 -0.707806 0
M  V30 7194 H 701.864 2.98695 1.263 0
M  V30 7195 H 701.649 3.91298 -0.250618 0
M  V30 7196 H 703.139 4.11364 0.719012 0
M  V30 7197 N 703.576 0.692616 1.41565 0
M  V30 7198 C 704.823 0.222335 2.01276 0
M  V30 7199 C 705.151 -1.17706 1.5484 0
M  V30 7200 O 704.406 -1.80795 0.749118 0
M  V30 7201 C 704.705 0.225073 3.56691 0
M  V30 7202 C 704.371 1.57158 4.22625 0
M  V30 7203 C 703.033 1.94022 4.40351 0
M  V30 7204 C 705.385 2.45758 4.59622 0
M  V30 7205 C 702.713 3.19076 4.92349 0
M  V30 7206 C 705.065 3.70141 5.13009 0
M  V30 7207 C 703.729 4.07152 5.28946 0
M  V30 7208 H 702.999 0.0813581 0.73652 0
M  V30 7209 H 705.646 0.891123 1.69503 0
M  V30 7210 H 703.951 -0.527259 3.88236 0
M  V30 7211 H 705.648 -0.156283 4.00695 0
M  V30 7212 H 702.238 1.27486 4.09201 0
M  V30 7213 H 706.422 2.18558 4.45585 0
M  V30 7214 H 701.678 3.4775 5.02872 0
M  V30 7215 H 705.852 4.38983 5.40617 0
M  V30 7216 H 703.479 5.04125 5.69001 0
M  V30 7217 N 705.054 -1.51416 0.437162 0
M  V30 7218 C 706.017 -2.26312 -0.362729 0
M  V30 7219 C 707.017 -1.29748 -0.949847 0
M  V30 7220 O 708.207 -1.53462 -0.824325 0
M  V30 7221 C 705.339 -3.05475 -1.5132 0
M  V30 7222 H 706.532 -2.98459 0.29365 0
M  V30 7223 H 704.085 -1.55137 0.190327 0
M  V30 7224 H 704.82 -2.37744 -2.20563 0
M  V30 7225 H 704.605 -3.76401 -1.09838 0
M  V30 7226 H 706.095 -3.62209 -2.07833 0
M  V30 7227 N 706.532 -0.168513 -1.56696 0
M  V30 7228 C 707.809 0.523367 -1.88468 0
M  V30 7229 C 708.189 1.81503 -1.07796 0
M  V30 7230 O 707.537 2.27859 -0.171045 0
M  V30 7231 C 707.747 0.767991 -3.40445 0
M  V30 7232 C 709.095 1.09924 -4.10124 0
M  V30 7233 O 710.119 0.856625 -3.45746 0
M  V30 7234 O 708.978 1.55681 -5.23856 0
M  V30 7235 H 706.072 0.269447 -0.781874 0
M  V30 7236 H 708.618 -0.206739 -1.68436 0
M  V30 7237 H 707.39 -0.145254 -3.9103 0
M  V30 7238 H 707.013 1.55151 -3.66079 0
M  V30 7239 N 708.01 1.57248 0.105221 0
M  V30 7240 C 709.287 1.76566 0.841647 0
M  V30 7241 C 709.667 0.747566 1.9742 0
M  V30 7242 O 709.015 -0.225886 2.27381 0
M  V30 7243 C 709.225 3.22016 1.3456 0
M  V30 7244 C 710.573 3.84911 1.79244 0
M  V30 7245 O 711.597 3.25703 1.44207 0
M  V30 7246 O 710.456 4.89008 2.43995 0
M  V30 7247 H 707.55 0.723443 0.400698 0
M  V30 7248 H 710.096 1.69472 0.0878893 0
M  V30 7249 H 708.868 3.87644 0.533685 0
M  V30 7250 H 708.491 3.33703 2.16167 0
M  V30 7251 N 709.488 -0.375779 1.53054 0
M  V30 7252 C 710.735 -1.11948 1.68742 0
M  V30 7253 C 711.063 -1.89596 0.434015 0
M  V30 7254 O 710.318 -1.86787 -0.583867 0
M  V30 7255 C 710.617 -2.11356 2.88207 0
M  V30 7256 C 710.283 -1.50266 4.25124 0
M  V30 7257 C 708.945 -1.33333 4.62359 0
M  V30 7258 C 711.297 -1.05976 5.10312 0
M  V30 7259 C 708.625 -0.706765 5.82427 0
M  V30 7260 C 710.977 -0.447241 6.31017 0
M  V30 7261 C 709.641 -0.265314 6.66973 0
M  V30 7262 H 708.911 -0.409648 0.61747 0
M  V30 7263 H 711.558 -0.402492 1.87222 0
M  V30 7264 H 709.863 -2.89322 2.64197 0
M  V30 7265 H 711.56 -2.68833 2.97539 0
M  V30 7266 H 708.15 -1.64437 3.95801 0
M  V30 7267 H 712.334 -1.17855 4.82104 0
M  V30 7268 H 707.59 -0.554132 6.08884 0
M  V30 7269 H 711.764 -0.0958064 6.96334 0
M  V30 7270 H 709.391 0.222267 7.59875 0
M  V30 7271 N 710.966 -1.44241 -0.634997 0
M  V30 7272 C 712.206 -1.48339 -1.40623 0
M  V30 7273 C 712.57 -0.111479 -1.91676 0
M  V30 7274 O 713.771 -0.0271345 -2.68786 0
M  V30 7275 C 712.042 -2.51122 -2.54308 0
M  V30 7276 S 713.601 -2.74237 -3.42548 0
M  V30 7277 H 710.419 -0.524715 -0.479787 0
M  V30 7278 H 713.021 -1.81138 -0.735489 0
M  V30 7279 H 711.725 -3.49511 -2.15106 0
M  V30 7280 H 711.256 -2.19883 -3.26213 0
M  V30 7281 H 713.271 -2.0554 -4.51628 0
M  V30 7282 N 712.444 0.87505 -1.31075 0
M  V30 7283 C 713.674 1.65818 -1.2324 0
M  V30 7284 C 714.082 1.8808 0.205536 0
M  V30 7285 O 713.425 1.43548 1.14628 0
M  V30 7286 C 713.487 3.05131 -1.90093 0
M  V30 7287 C 713.151 3.05999 -3.39432 0
M  V30 7288 C 714.148 2.84328 -4.35263 0
M  V30 7289 C 711.833 3.27281 -3.81041 0
M  V30 7290 C 713.827 2.83912 -5.70678 0
M  V30 7291 C 711.514 3.26493 -5.16571 0
M  V30 7292 C 712.512 3.04834 -6.112 0
M  V30 7293 O 712.2 3.03882 -7.44252 0
M  V30 7294 H 711.932 0.52387 -0.427242 0
M  V30 7295 H 714.486 1.10086 -1.73408 0
M  V30 7296 H 712.716 3.62568 -1.34468 0
M  V30 7297 H 714.405 3.65641 -1.76242 0
M  V30 7298 H 715.171 2.67673 -4.04445 0
M  V30 7299 H 711.05 3.43171 -3.07822 0
M  V30 7300 H 714.594 2.66925 -6.44513 0
M  V30 7301 H 710.491 3.42687 -5.47025 0
M  V30 7302 H 711.259 3.19979 -7.53363 0
M  V30 7303 N 713.922 1.13953 1.08869 0
M  V30 7304 C 714.872 0.790812 2.13846 0
M  V30 7305 C 715.856 -0.217819 1.59419 0
M  V30 7306 O 717.048 -0.0208723 1.76988 0
M  V30 7307 C 714.177 0.26479 3.42277 0
M  V30 7308 C 713.263 1.30267 4.03598 0
M  V30 7309 N 713.654 2.50535 4.39393 0
M  V30 7310 C 711.952 1.15178 4.30871 0
M  V30 7311 C 712.653 3.16938 4.87776 0
M  V30 7312 N 711.629 2.44349 4.85587 0
M  V30 7313 H 715.431 1.70577 2.39334 0
M  V30 7314 H 712.945 1.02268 1.26154 0
M  V30 7315 H 714.942 -0.00330398 4.169 0
M  V30 7316 H 713.602 -0.644419 3.18241 0
M  V30 7317 H 714.613 2.87798 4.30572 0
M  V30 7318 H 711.29 0.301204 4.16412 0
M  V30 7319 H 712.68 4.19453 5.2489 0
M  V30 7320 N 715.4 -1.26948 0.933913 0
M  V30 7321 C 716.811 -1.76058 0.621324 0
M  V30 7322 C 717.162 -1.76175 -0.863522 0
M  V30 7323 O 716.287 -1.36921 -1.67576 0
M  V30 7324 C 716.882 -3.19713 1.12111 0
M  V30 7325 C 715.441 -3.66465 0.859074 0
M  V30 7326 C 714.588 -2.46186 1.27624 0
M  V30 7327 H 717.539 -1.13127 1.11301 0
M  V30 7328 H 717.56 -3.77566 0.471608 0
M  V30 7329 H 717.072 -3.19596 2.20182 0
M  V30 7330 H 715.173 -3.72021 -0.207566 0
M  V30 7331 H 715.286 -4.55636 1.48098 0
M  V30 7332 H 713.65 -2.45042 0.694727 0
M  V30 7333 H 714.433 -2.48774 2.36572 0
M  V30 7334 N 716.879 -0.700114 -1.41195 0
M  V30 7335 C 717.809 -0.0521132 -2.33442 0
M  V30 7336 C 718.79 0.76228 -1.52063 0
M  V30 7337 O 719.975 0.714336 -1.80585 0
M  V30 7338 C 717.105 0.881693 -3.35922 0
M  V30 7339 C 716.059 0.174062 -4.27646 0
M  V30 7340 C 715.385 1.22254 -5.20536 0
M  V30 7341 C 716.685 -0.962396 -5.13357 0
M  V30 7342 H 718.379 -0.822574 -2.87879 0
M  V30 7343 H 715.925 -0.397011 -1.38419 0
M  V30 7344 H 717.878 1.34429 -3.99383 0
M  V30 7345 H 716.602 1.68387 -2.79845 0
M  V30 7346 H 715.261 -0.268551 -3.65615 0
M  V30 7347 H 714.909 2.01736 -4.60773 0
M  V30 7348 H 714.609 0.754038 -5.82742 0
M  V30 7349 H 716.133 1.68555 -5.86874 0
M  V30 7350 H 717.547 -0.579875 -5.7036 0
M  V30 7351 H 715.944 -1.35828 -5.84526 0
M  V30 7352 H 717.014 -1.80003 -4.50252 0
M  V30 7353 N 718.357 1.51182 -0.445186 0
M  V30 7354 C 719.605 2.01753 0.11841 0
M  V30 7355 C 719.926 1.33087 1.42523 0
M  V30 7356 O 719.196 0.467891 1.9023 0
M  V30 7357 H 717.776 0.745536 0.0467492 0
M  V30 7358 H 720.438 1.85765 -0.589688 0
M  V30 7359 H 719.534 3.10762 0.288665 0
M  V30 7360 N 719.835 0.176821 1.56605 0
M  V30 7361 C 721.083 -0.465793 1.96659 0
M  V30 7362 C 721.404 -1.63406 1.06412 0
M  V30 7363 O 720.674 -1.95457 0.131603 0
M  V30 7364 H 719.254 -0.175072 0.726195 0
M  V30 7365 H 721.916 0.25929 1.93168 0
M  V30 7366 H 721.012 -0.822138 3.01077 0
M  V30 7367 N 721.313 -1.57302 -0.09688 0
M  V30 7368 C 722.553 -1.87823 -0.806334 0
M  V30 7369 C 722.917 -0.767593 -1.75989 0
M  V30 7370 O 724.118 -0.955173 -2.51257 0
M  V30 7371 C 722.389 -3.23585 -1.51749 0
M  V30 7372 S 723.948 -3.75795 -2.26547 0
M  V30 7373 H 720.766 -0.658281 -0.268676 0
M  V30 7374 H 723.368 -1.95397 -0.0635476 0
M  V30 7375 H 722.072 -4.0234 -0.809348 0
M  V30 7376 H 721.603 -3.19145 -2.30021 0
M  V30 7377 H 723.618 -3.49068 -3.52656 0
M  V30 7378 N 722.791 0.367657 -1.53252 0
M  V30 7379 C 724.037 1.11216 -1.69584 0
M  V30 7380 C 724.37 1.89026 -0.445269 0
M  V30 7381 O 723.645 1.86342 0.557404 0
M  V30 7382 C 723.928 2.07308 -2.94441 0
M  V30 7383 C 723.781 1.3312 -4.2965 0
M  V30 7384 C 725.1 3.07459 -3.14892 0
M  V30 7385 H 722.219 0.40294 -0.617096 0
M  V30 7386 H 724.861 0.393201 -1.85887 0
M  V30 7387 H 723.011 2.68617 -2.80673 0
M  V30 7388 H 724.683 0.746111 -4.55226 0
M  V30 7389 H 722.926 0.633051 -4.29156 0
M  V30 7390 H 723.597 2.03443 -5.13142 0
M  V30 7391 H 726.073 2.56252 -3.27832 0
M  V30 7392 H 724.949 3.71919 -4.03693 0
M  V30 7393 H 725.21 3.77514 -2.30077 0
M  V30 7394 N 724.269 1.44576 0.627338 0
M  V30 7395 C 725.199 1.54562 1.75022 0
M  V30 7396 C 726.18 0.398378 1.65369 0
M  V30 7397 O 727.365 0.61899 1.84071 0
M  V30 7398 C 724.495 1.49309 3.13567 0
M  V30 7399 C 723.449 2.62549 3.38012 0
M  V30 7400 C 722.775 2.42348 4.76625 0
M  V30 7401 C 724.075 4.04678 3.30202 0
M  V30 7402 H 725.769 2.4855 1.66922 0
M  V30 7403 H 723.315 1.19624 0.801636 0
M  V30 7404 H 725.268 1.54895 3.919 0
M  V30 7405 H 723.992 0.518392 3.2246 0
M  V30 7406 H 722.651 2.56358 2.62061 0
M  V30 7407 H 722.299 1.43062 4.82226 0
M  V30 7408 H 721.999 3.18273 4.93939 0
M  V30 7409 H 723.523 2.49758 5.57183 0
M  V30 7410 H 724.937 4.12217 3.98435 0
M  V30 7411 H 723.334 4.80836 3.5905 0
M  V30 7412 H 724.404 4.2798 2.27949 0
M  V30 7413 N 725.747 -0.868086 1.31537 0
M  V30 7414 C 726.995 -1.61807 1.21091 0
M  V30 7415 C 727.316 -1.93631 -0.230623 0
M  V30 7416 O 726.586 -1.5846 -1.15183 0
M  V30 7417 H 725.166 -0.599854 0.445178 0
M  V30 7418 H 727.828 -1.03915 1.64887 0
M  V30 7419 H 726.924 -2.56088 1.78396 0
M  V30 7420 N 727.225 -1.14528 -1.08264 0
M  V30 7421 C 728.172 -0.833556 -2.15222 0
M  V30 7422 C 729.142 0.209539 -1.64773 0
M  V30 7423 O 730.327 0.0791388 -1.90636 0
M  V30 7424 C 727.467 -0.318799 -3.43624 0
M  V30 7425 C 726.58 -1.42237 -4.07913 0
M  V30 7426 C 725.715 -0.864704 -5.24115 0
M  V30 7427 C 724.754 -1.94585 -5.80347 0
M  V30 7428 N 723.891 -1.40525 -6.87893 0
M  V30 7429 H 728.731 -1.74965 -2.41228 0
M  V30 7430 H 726.268 -0.873169 -1.18381 0
M  V30 7431 H 728.226 -0.00213088 -4.172 0
M  V30 7432 H 726.856 0.560397 -3.17898 0
M  V30 7433 H 725.908 -1.8554 -3.32083 0
M  V30 7434 H 727.22 -2.23901 -4.45724 0
M  V30 7435 H 726.374 -0.500025 -6.04636 0
M  V30 7436 H 725.113 -0.0171219 -4.87697 0
M  V30 7437 H 724.118 -2.31946 -4.98479 0
M  V30 7438 H 725.343 -2.79704 -6.18823 0
M  V30 7439 H 723.289 -0.579873 -6.53432 0
M  V30 7440 H 723.206 -2.15825 -7.24538 0
M  V30 7441 H 724.474 -1.06852 -7.72142 0
M  V30 7442 N 728.703 1.26451 -0.940633 0
M  V30 7443 C 729.666 2.24651 -0.454378 0
M  V30 7444 C 730.666 1.54826 0.434222 0
M  V30 7445 O 731.856 1.72628 0.233477 0
M  V30 7446 C 728.988 3.39148 0.345192 0
M  V30 7447 H 730.181 2.69182 -1.32217 0
M  V30 7448 H 727.734 1.38596 -0.722547 0
M  V30 7449 H 728.469 3.00018 1.23125 0
M  V30 7450 H 728.254 3.9101 -0.292107 0
M  V30 7451 H 729.744 4.12103 0.675341 0
M  V30 7452 N 730.181 0.707592 1.40822 0
M  V30 7453 C 731.409 0.253073 2.05346 0
M  V30 7454 C 731.824 -1.10218 1.53289 0
M  V30 7455 O 731.181 -1.69112 0.686105 0
M  V30 7456 C 731.232 0.215411 3.60858 0
M  V30 7457 O 730.953 1.51714 4.10992 0
M  V30 7458 C 732.454 -0.258636 4.42545 0
M  V30 7459 H 729.674 0.115256 0.661027 0
M  V30 7460 H 732.218 0.963555 1.80377 0
M  V30 7461 H 730.373 -0.445978 3.84824 0
M  V30 7462 H 730.787 1.41226 5.05129 0
M  V30 7463 H 732.261 -0.233849 5.51504 0
M  V30 7464 H 732.738 -1.2995 4.19535 0
M  V30 7465 H 733.344 0.372186 4.23668 0
M  V30 7466 N 731.66 -1.50943 0.453197 0
M  V30 7467 C 732.937 -1.94872 -0.168633 0
M  V30 7468 C 733.317 -1.39272 -1.5864 0
M  V30 7469 O 732.665 -0.586272 -2.20851 0
M  V30 7470 C 732.875 -3.48757 -0.130217 0
M  V30 7471 C 734.223 -4.23331 -0.327975 0
M  V30 7472 O 735.247 -3.55594 -0.207619 0
M  V30 7473 O 734.106 -5.43529 -0.569077 0
M  V30 7474 H 731.2 -0.818042 -0.121394 0
M  V30 7475 H 733.746 -1.61782 0.512316 0
M  V30 7476 H 732.518 -3.81725 0.860346 0
M  V30 7477 H 732.141 -3.88333 -0.853397 0
M  V30 7478 N 733.138 -0.185124 -1.56509 0
M  V30 7479 C 734.415 0.503348 -1.89013 0
M  V30 7480 C 734.795 1.80349 -1.09715 0
M  V30 7481 O 734.143 2.27665 -0.195203 0
M  V30 7482 C 734.353 0.731839 -3.41241 0
M  V30 7483 C 735.701 1.05568 -4.11267 0
M  V30 7484 O 736.725 0.819906 -3.46635 0
M  V30 7485 O 735.584 1.50116 -5.25478 0
M  V30 7486 H 732.678 0.261139 -0.784688 0
M  V30 7487 H 735.224 -0.224592 -1.68207 0
M  V30 7488 H 733.996 -0.18672 -3.90854 0
M  V30 7489 H 733.619 1.5126 -3.67704 0
M  V30 7490 N 734.616 1.57351 0.0885366 0
M  V30 7491 C 735.846 1.90355 0.80303 0
M  V30 7492 C 736.254 0.777678 1.72478 0
M  V30 7493 O 735.597 -0.258908 1.81866 0
M  V30 7494 C 735.659 3.18674 1.66395 0
M  V30 7495 C 735.323 4.4778 0.913327 0
M  V30 7496 C 736.32 5.19345 0.240148 0
M  V30 7497 C 734.005 4.94434 0.885462 0
M  V30 7498 C 735.999 6.35803 -0.450854 0
M  V30 7499 C 733.686 6.10802 0.190679 0
M  V30 7500 C 734.684 6.81337 -0.476295 0
M  V30 7501 O 734.372 7.95488 -1.15992 0
M  V30 7502 H 734.104 0.634035 0.234469 0
M  V30 7503 H 736.658 2.05287 0.0681959 0
M  V30 7504 H 734.888 2.99906 2.44117 0
M  V30 7505 H 736.577 3.37458 2.2556 0
M  V30 7506 H 737.343 4.84339 0.253092 0
M  V30 7507 H 733.222 4.39417 1.39406 0
M  V30 7508 H 736.766 6.90795 -0.972019 0
M  V30 7509 H 732.663 6.45261 0.175603 0
M  V30 7510 H 733.431 8.11509 -1.06749 0
M  V30 7511 N 736.094 -0.359525 1.53444 0
M  V30 7512 C 737.342 -1.09935 1.69584 0
M  V30 7513 C 737.663 -1.89656 0.453371 0
M  V30 7514 O 736.933 -1.8852 -0.53263 0
M  V30 7515 H 735.513 -0.408843 0.625185 0
M  V30 7516 H 738.175 -0.40467 1.90653 0
M  V30 7517 H 737.271 -1.78575 2.55964 0
M  V30 7518 N 737.572 -1.44907 -0.619662 0
M  V30 7519 C 738.988 -1.29046 -0.939107 0
M  V30 7520 C 739.188 -0.23462 -2.00129 0
M  V30 7521 O 738.244 0.37558 -2.49691 0
M  V30 7522 C 739.557 -2.66567 -1.39149 0
M  V30 7523 C 741.105 -2.74368 -1.50635 0
M  V30 7524 C 741.58 -4.12386 -1.99253 0
M  V30 7525 N 743.071 -4.1462 -2.06506 0
M  V30 7526 C 743.806 -5.18272 -2.4532 0
M  V30 7527 N 743.302 -6.32278 -2.83189 0
M  V30 7528 N 745.095 -5.05628 -2.45554 0
M  V30 7529 H 737.246 -2.12239 0.0826135 0
M  V30 7530 H 739.509 -0.947652 -0.0256829 0
M  V30 7531 H 739.215 -3.4496 -0.685254 0
M  V30 7532 H 739.089 -2.94224 -2.36034 0
M  V30 7533 H 741.476 -1.96287 -2.20353 0
M  V30 7534 H 741.557 -2.50439 -0.520963 0
M  V30 7535 H 741.201 -4.90947 -1.30127 0
M  V30 7536 H 741.131 -4.33699 -2.98684 0
M  V30 7537 H 743.622 -3.32343 -1.79878 0
M  V30 7538 H 743.935 -7.07172 -3.11652 0
M  V30 7539 H 742.28 -6.35699 -2.80913 0
M  V30 7540 H 745.471 -4.15613 -2.15367 0
M  V30 7541 H 745.644 -5.86529 -2.75478 0
M  V30 7542 N 739.05 0.861098 -1.31996 0
M  V30 7543 C 740.296 1.61721 -1.22369 0
M  V30 7544 C 740.629 1.93 0.215587 0
M  V30 7545 O 739.904 1.56789 1.15098 0
M  V30 7546 C 740.187 2.9417 -2.07691 0
M  V30 7547 C 740.04 2.69714 -3.59965 0
M  V30 7548 C 741.359 3.95372 -1.93312 0
M  V30 7549 H 738.478 0.586822 -0.44588 0
M  V30 7550 H 741.12 0.994788 -1.61876 0
M  V30 7551 H 739.27 3.47292 -1.74128 0
M  V30 7552 H 740.942 2.23196 -4.03709 0
M  V30 7553 H 739.185 2.03789 -3.82952 0
M  V30 7554 H 739.856 3.63996 -4.14983 0
M  V30 7555 H 742.332 3.51487 -2.22701 0
M  V30 7556 H 741.208 4.85916 -2.55298 0
M  V30 7557 H 741.469 4.32865 -0.898922 0
M  V30 7558 N 740.528 1.15101 1.07655 0
M  V30 7559 C 741.491 0.847625 2.12951 0
M  V30 7560 C 742.491 -0.151227 1.60087 0
M  V30 7561 O 743.681 0.0780399 1.74025 0
M  V30 7562 C 740.813 0.265 3.39868 0
M  V30 7563 H 742.006 1.7809 2.41296 0
M  V30 7564 H 739.559 0.958072 1.23494 0
M  V30 7565 H 740.294 -0.676625 3.17163 0
M  V30 7566 H 740.079 0.984554 3.79538 0
M  V30 7567 H 741.569 0.0702121 4.17541 0
M  V30 7568 N 742.006 -1.2595 0.947325 0
M  V30 7569 C 743.254 -1.93081 0.596996 0
M  V30 7570 C 743.575 -1.74632 -0.867672 0
M  V30 7571 O 742.845 -1.1056 -1.6172 0
M  V30 7572 H 741.425 -0.714542 0.217805 0
M  V30 7573 H 744.087 -1.53265 1.20398 0
M  V30 7574 H 743.183 -3.01134 0.82004 0
M  V30 7575 N 743.484 -0.715051 -1.40445 0
M  V30 7576 C 744.714 -0.263576 -2.04912 0
M  V30 7577 C 745.122 1.09943 -1.53978 0
M  V30 7578 O 744.465 1.70203 -0.691133 0
M  V30 7579 C 744.527 -0.165048 -3.59121 0
M  V30 7580 C 744.191 -1.46325 -4.32941 0
M  V30 7581 C 745.188 -2.40506 -4.60926 0
M  V30 7582 C 742.873 -1.72203 -4.7186 0
M  V30 7583 C 744.867 -3.58812 -5.26814 0
M  V30 7584 C 742.554 -2.9079 -5.3748 0
M  V30 7585 C 743.552 -3.83917 -5.64887 0
M  V30 7586 O 743.24 -5.00424 -6.29151 0
M  V30 7587 H 742.972 -0.116317 -0.665918 0
M  V30 7588 H 745.526 -0.973774 -1.8085 0
M  V30 7589 H 743.756 0.601088 -3.82 0
M  V30 7590 H 745.445 0.251794 -4.05118 0
M  V30 7591 H 746.211 -2.21778 -4.31323 0
M  V30 7592 H 742.09 -1.00571 -4.49896 0
M  V30 7593 H 745.634 -4.31517 -5.48123 0
M  V30 7594 H 741.531 -3.09428 -5.66502 0
M  V30 7595 H 742.299 -5.00494 -6.47648 0
M  V30 7596 N 744.962 1.50701 -0.461195 0
M  V30 7597 C 745.909 2.2831 0.338094 0
M  V30 7598 C 746.879 1.32928 0.995957 0
M  V30 7599 O 748.064 1.61857 1.0103 0
M  V30 7600 C 745.204 3.14539 1.41983 0
M  V30 7601 C 744.317 4.24942 0.77773 0
M  V30 7602 C 743.452 4.98443 1.83652 0
M  V30 7603 C 742.491 6.00733 1.17413 0
M  V30 7604 N 741.628 6.6755 2.17533 0
M  V30 7605 H 746.468 2.96167 -0.330051 0
M  V30 7606 H 744.005 1.4606 -0.174611 0
M  V30 7607 H 745.963 3.62877 2.05855 0
M  V30 7608 H 744.593 2.48749 2.05727 0
M  V30 7609 H 743.645 3.80391 0.0266924 0
M  V30 7610 H 744.957 4.98151 0.254362 0
M  V30 7611 H 744.111 5.50449 2.55129 0
M  V30 7612 H 742.85 4.24917 2.39367 0
M  V30 7613 H 741.855 5.47997 0.444944 0
M  V30 7614 H 743.08 6.76227 0.624006 0
M  V30 7615 H 741.026 5.96823 2.72284 0
M  V30 7616 H 740.943 7.36603 1.70154 0
M  V30 7617 H 742.211 7.24178 2.88421 0
M  V30 7618 N 746.441 0.193421 1.56409 0
M  V30 7619 C 747.389 -0.744829 2.20352 0
M  V30 7620 C 748.383 -1.22104 1.17418 0
M  V30 7621 O 749.589 -1.18413 1.35567 0
M  V30 7622 H 745.964 -0.258538 0.70616 0
M  V30 7623 H 747.935 -0.181794 2.97846 0
M  V30 7624 C 746.684 -1.95453 2.87565 0
M  V30 7625 H 746.007 -1.59716 3.66512 0
M  V30 7626 H 747.447 -2.58942 3.35745 0
M  V30 7627 C 745.906 -2.79223 1.8851 0
M  V30 7628 O 746.436 -3.77093 1.38434 0
M  V30 7629 N 744.642 -2.44682 1.56777 0
M  V30 7630 H 744.189 -1.65153 1.97692 0
M  V30 7631 H 744.147 -3.01016 0.907573 0
M  V30 7632 N 747.919 -1.57396 -0.0801906 0
M  V30 7633 C 748.849 -2.06145 -1.09665 0
M  V30 7634 C 749.83 -0.953273 -1.40878 0
M  V30 7635 O 751.015 -1.22548 -1.50651 0
M  V30 7636 C 748.145 -2.49836 -2.41245 0
M  V30 7637 C 747.099 -3.64454 -2.24405 0
M  V30 7638 C 746.425 -3.94172 -3.61293 0
M  V30 7639 C 747.725 -4.94807 -1.67223 0
M  V30 7640 H 749.419 -2.91316 -0.691028 0
M  V30 7641 H 746.965 -1.40145 -0.330957 0
M  V30 7642 H 748.918 -2.82552 -3.12638 0
M  V30 7643 H 747.642 -1.61683 -2.83771 0
M  V30 7644 H 746.301 -3.32008 -1.55454 0
M  V30 7645 H 745.949 -3.03163 -4.01374 0
M  V30 7646 H 745.649 -4.71345 -3.50867 0
M  V30 7647 H 747.173 -4.29376 -4.3413 0
M  V30 7648 H 748.587 -5.25807 -2.28472 0
M  V30 7649 H 746.984 -5.76245 -1.67515 0
M  V30 7650 H 748.054 -4.80751 -0.632944 0
M  V30 7651 N 749.397 0.351382 -1.53633 0
M  V30 7652 C 750.627 1.11113 -1.74176 0
M  V30 7653 C 751.035 1.83084 -0.477154 0
M  V30 7654 O 750.378 1.74941 0.560483 0
M  V30 7655 C 750.44 2.17521 -2.86225 0
M  V30 7656 C 750.104 1.65193 -4.26099 0
M  V30 7657 C 751.101 1.10842 -5.07947 0
M  V30 7658 C 748.786 1.70277 -4.72558 0
M  V30 7659 C 750.78 0.622689 -6.34351 0
M  V30 7660 C 748.467 1.21316 -5.98937 0
M  V30 7661 C 749.465 0.674033 -6.79666 0
M  V30 7662 O 749.153 0.191696 -8.03671 0
M  V30 7663 H 748.885 0.33756 -0.585687 0
M  V30 7664 H 751.439 0.411786 -2.0123 0
M  V30 7665 H 749.669 2.90991 -2.54678 0
M  V30 7666 H 751.358 2.78999 -2.94812 0
M  V30 7667 H 752.124 1.06243 -4.7322 0
M  V30 7668 H 748.003 2.11181 -4.09785 0
M  V30 7669 H 751.547 0.201216 -6.9731 0
M  V30 7670 H 747.444 1.25613 -6.3316 0
M  V30 7671 H 748.212 0.309712 -8.17914 0
M  V30 7672 N 750.875 1.45233 0.611969 0
M  V30 7673 C 752.121 1.49242 1.37312 0
M  V30 7674 C 752.454 0.131963 1.93751 0
M  V30 7675 O 751.729 -0.852999 1.74798 0
M  V30 7676 C 752.012 2.56811 2.52428 0
M  V30 7677 C 751.865 4.02284 2.01215 0
M  V30 7678 C 753.184 2.60705 3.54572 0
M  V30 7679 H 750.303 0.54336 0.497925 0
M  V30 7680 H 752.945 1.77019 0.690242 0
M  V30 7681 H 751.095 2.33256 3.10683 0
M  V30 7682 H 752.767 4.37035 1.47643 0
M  V30 7683 H 751.01 4.1315 1.32248 0
M  V30 7684 H 751.681 4.7323 2.84178 0
M  V30 7685 H 754.157 2.81799 3.06151 0
M  V30 7686 H 753.033 3.37841 4.32614 0
M  V30 7687 H 753.294 1.65627 4.09903 0
M  V30 7688 N 752.353 -0.854086 1.3245 0
M  V30 7689 C 753.581 -1.64074 1.26045 0
M  V30 7690 C 753.996 -1.8802 -0.171456 0
M  V30 7691 O 753.353 -1.4496 -1.10873 0
M  V30 7692 C 753.404 -2.9997 2.01743 0
M  V30 7693 O 753.125 -2.77084 3.39346 0
M  V30 7694 C 754.626 -3.94414 2.02368 0
M  V30 7695 H 751.846 -0.511015 0.434862 0
M  V30 7696 H 754.39 -1.06494 1.74583 0
M  V30 7697 H 752.545 -3.54193 1.56926 0
M  V30 7698 H 752.959 -3.63514 3.78098 0
M  V30 7699 H 754.433 -4.87032 2.59815 0
M  V30 7700 H 754.91 -4.27427 1.01009 0
M  V30 7701 H 755.516 -3.46127 2.47135 0
M  V30 7702 N 753.831 -1.1567 -1.07043 0
M  V30 7703 C 755.108 -0.843948 -1.76456 0
M  V30 7704 C 755.488 0.659806 -2.00524 0
M  V30 7705 O 754.836 1.60518 -1.62623 0
M  V30 7706 C 755.046 -1.65822 -3.0709 0
M  V30 7707 C 756.394 -1.8664 -3.8138 0
M  V30 7708 O 757.418 -1.62624 -3.1691 0
M  V30 7709 O 756.277 -2.26884 -4.97178 0
M  V30 7710 H 753.371 -0.310677 -0.766426 0
M  V30 7711 H 755.917 -1.26266 -1.1338 0
M  V30 7712 H 754.689 -2.67902 -2.85209 0
M  V30 7713 H 754.312 -1.23605 -3.77899 0
M  V30 7714 N 755.309 1.25446 -0.953992 0
M  V30 7715 C 756.557 1.92762 -0.607227 0
M  V30 7716 C 756.878 1.7509 0.858399 0
M  V30 7717 O 756.148 1.11416 1.61132 0
M  V30 7718 H 754.728 0.713377 -0.221591 0
M  V30 7719 H 757.39 1.52625 -1.21209 0
M  V30 7720 H 756.486 3.00695 -0.835998 0
M  V30 7721 N 756.787 0.722489 1.40064 0
M  V30 7722 C 758.012 0.273446 2.05589 0
M  V30 7723 C 758.437 -1.07875 1.54093 0
M  V30 7724 O 757.795 -1.68095 0.679252 0
M  V30 7725 C 757.843 0.271023 3.5958 0
M  V30 7726 O 756.947 -0.745499 4.05606 0
M  V30 7727 H 756.288 0.126856 0.65177 0
M  V30 7728 H 758.818 0.984906 1.79334 0
M  V30 7729 H 758.828 0.111084 4.07849 0
M  V30 7730 H 757.503 1.25776 3.96425 0
M  V30 7731 H 756.08 -0.552719 3.68781 0
M  V30 7732 N 758.265 -1.50454 0.469181 0
M  V30 7733 C 759.195 -2.31353 -0.31592 0
M  V30 7734 C 760.176 -1.38172 -0.992094 0
M  V30 7735 O 761.361 -1.67093 -0.989633 0
M  V30 7736 C 758.491 -3.1786 -1.39937 0
M  V30 7737 C 757.445 -4.19578 -0.844909 0
M  V30 7738 C 756.771 -4.9481 -2.0265 0
M  V30 7739 C 758.071 -5.22106 0.142499 0
M  V30 7740 H 759.765 -2.97237 0.359269 0
M  V30 7741 H 757.311 -1.42942 0.174224 0
M  V30 7742 H 759.264 -3.7325 -1.95607 0
M  V30 7743 H 757.988 -2.49858 -2.1033 0
M  V30 7744 H 756.647 -3.65285 -0.310189 0
M  V30 7745 H 756.295 -4.23282 -2.71737 0
M  V30 7746 H 755.995 -5.63613 -1.66174 0
M  V30 7747 H 757.519 -5.53035 -2.58815 0
M  V30 7748 H 758.933 -5.72378 -0.324966 0
M  V30 7749 H 757.33 -5.98618 0.421441 0
M  V30 7750 H 758.4 -4.7297 1.06901 0
M  V30 7751 N 759.743 -0.201713 -1.56304 0
M  V30 7752 C 760.992 0.435557 -1.96941 0
M  V30 7753 C 761.305 1.62299 -1.09172 0
M  V30 7754 O 762.511 2.32849 -1.3962 0
M  V30 7755 C 760.967 0.826298 -3.50286 0
M  V30 7756 C 760.575 -0.337216 -4.46729 0
M  V30 7757 C 762.319 1.43028 -3.99679 0
M  V30 7758 C 760.226 0.0748539 -5.91353 0
M  V30 7759 H 759.156 0.1665 -0.735387 0
M  V30 7760 H 761.807 -0.294781 -1.81117 0
M  V30 7761 H 760.189 1.61349 -3.61639 0
M  V30 7762 H 761.363 -1.11476 -4.47113 0
M  V30 7763 H 759.678 -0.853126 -4.07567 0
M  V30 7764 H 762.275 1.75115 -5.05212 0
M  V30 7765 H 762.618 2.33911 -3.44371 0
M  V30 7766 H 763.151 0.706924 -3.91468 0
M  V30 7767 H 759.89 -0.799957 -6.506 0
M  V30 7768 H 759.41 0.817122 -5.94208 0
M  V30 7769 H 761.089 0.508389 -6.45 0
M  V30 7770 N 761.222 1.57436 0.0718424 0
M  V30 7771 C 762.633 1.75975 0.623678 0
M  V30 7772 C 762.984 0.827155 1.77912 0
M  V30 7773 O 762.109 0.0112425 2.16397 0
M  V30 7774 C 762.704 3.1911 1.13816 0
M  V30 7775 C 761.263 3.38994 1.63586 0
M  V30 7776 C 760.41 2.71684 0.555261 0
M  V30 7777 H 763.361 1.57948 -0.154328 0
M  V30 7778 H 763.382 3.23267 2.00696 0
M  V30 7779 H 762.894 3.86962 0.296998 0
M  V30 7780 H 760.995 2.76256 2.50027 0
M  V30 7781 H 761.108 4.47436 1.71283 0
M  V30 7782 H 759.472 2.34236 1.00029 0
M  V30 7783 H 760.255 3.42191 -0.275712 0
M  V30 7784 N 762.7 -0.34323 1.53817 0
M  V30 7785 C 763.948 -1.0813 1.70741 0
M  V30 7786 C 764.269 -1.89165 0.473461 0
M  V30 7787 O 763.539 -1.89075 -0.512605 0
M  V30 7788 H 762.119 -0.40219 0.629486 0
M  V30 7789 H 764.781 -0.384426 1.91071 0
M  V30 7790 H 763.877 -1.7585 2.57843 0
M  V30 7791 N 764.178 -1.45556 -0.604258 0
M  V30 7792 C 765.403 -1.53509 -1.39462 0
M  V30 7793 C 765.828 -0.169638 -1.87333 0
M  V30 7794 O 765.186 0.846346 -1.60333 0
M  V30 7795 C 765.234 -2.52654 -2.5729 0
M  V30 7796 O 764.338 -2.04666 -3.5803 0
M  V30 7797 H 763.679 -0.517355 -0.416221 0
M  V30 7798 H 766.209 -1.90939 -0.735072 0
M  V30 7799 H 766.219 -2.71568 -3.04491 0
M  V30 7800 H 764.894 -3.51823 -2.21797 0
M  V30 7801 H 763.471 -1.95643 -3.17456 0
M  V30 7802 N 765.656 0.84705 -1.32902 0
M  V30 7803 C 766.902 1.60414 -1.24078 0
M  V30 7804 C 767.235 1.93217 0.195105 0
M  V30 7805 O 766.51 1.58001 1.13428 0
M  V30 7806 C 766.793 2.91951 -2.108 0
M  V30 7807 C 766.646 2.6588 -3.62805 0
M  V30 7808 C 767.965 3.93299 -1.97494 0
M  V30 7809 H 765.084 0.58206 -0.452079 0
M  V30 7810 H 767.726 0.977562 -1.62922 0
M  V30 7811 H 765.876 3.45425 -1.77802 0
M  V30 7812 H 767.548 2.18902 -4.06054 0
M  V30 7813 H 765.791 1.99716 -3.85092 0
M  V30 7814 H 766.462 3.59574 -4.1882 0
M  V30 7815 H 768.938 3.49105 -2.26417 0
M  V30 7816 H 767.814 4.8318 -2.60438 0
M  V30 7817 H 768.075 4.31887 -0.944782 0
M  V30 7818 N 767.134 1.16236 1.06428 0
M  V30 7819 C 768.382 0.941171 1.78847 0
M  V30 7820 C 768.703 -0.53248 1.87589 0
M  V30 7821 O 767.973 -1.38686 1.38358 0
M  V30 7822 H 766.553 0.345228 0.66244 0
M  V30 7823 H 769.215 1.46479 1.28569 0
M  V30 7824 H 768.311 1.35871 2.80972 0
M  V30 7825 N 768.612 -1.24939 0.960631 0
M  V30 7826 C 769.858 -1.93104 0.61958 0
M  V30 7827 C 770.191 -1.74991 -0.84212 0
M  V30 7828 O 769.466 -1.09867 -1.60498 0
M  V30 7829 C 769.749 -3.46326 0.986422 0
M  V30 7830 C 769.602 -3.73638 2.50429 0
M  V30 7831 C 770.921 -4.37067 0.515827 0
M  V30 7832 H 768.04 -0.701311 0.226566 0
M  V30 7833 H 770.682 -1.47442 1.19836 0
M  V30 7834 H 768.832 -3.85348 0.493907 0
M  V30 7835 H 770.504 -3.44217 3.07103 0
M  V30 7836 H 768.747 -3.19035 2.93937 0
M  V30 7837 H 769.418 -4.80815 2.71147 0
M  V30 7838 H 771.894 -4.05381 0.938389 0
M  V30 7839 H 770.77 -5.43022 0.80114 0
M  V30 7840 H 771.031 -4.38224 -0.584171 0
M  V30 7841 N 770.09 -0.729906 -1.39679 0
M  V30 7842 C 771.038 -0.0756589 -2.32477 0
M  V30 7843 C 772.032 0.731438 -1.52795 0
M  V30 7844 O 773.238 0.633195 -1.68495 0
M  V30 7845 H 769.613 -0.00566492 -0.751979 0
M  V30 7846 H 771.584 -0.874797 -2.85289 0
M  V30 7847 C 770.333 0.821313 -3.37861 0
M  V30 7848 H 769.656 0.209666 -3.9925 0
M  V30 7849 H 771.096 1.24679 -4.05254 0
M  V30 7850 C 769.555 1.9533 -2.74495 0
M  V30 7851 O 770.085 3.04548 -2.61942 0
M  V30 7852 N 768.291 1.74119 -2.3266 0
M  V30 7853 H 767.838 0.852908 -2.4307 0
M  V30 7854 H 767.796 2.50036 -1.90603 0
M  V30 7855 N 771.568 1.50203 -0.477153 0
M  V30 7856 C 772.979 1.86685 -0.0235041 0
M  V30 7857 C 773.33 1.39148 1.38319 0
M  V30 7858 O 772.455 0.759051 2.02651 0
M  V30 7859 C 773.05 3.38781 -0.0358767 0
M  V30 7860 C 771.609 3.74652 0.362327 0
M  V30 7861 C 770.756 2.7412 -0.41875 0
M  V30 7862 H 773.707 1.4286 -0.691133 0
M  V30 7863 H 773.728 3.72732 0.764924 0
M  V30 7864 H 773.24 3.73349 -1.05981 0
M  V30 7865 H 771.341 3.45686 1.39039 0
M  V30 7866 H 771.454 4.79063 0.059457 0
M  V30 7867 H 769.818 2.54376 0.128341 0
M  V30 7868 H 770.601 3.11532 -1.44231 0
M  V30 7869 N 773.046 0.209999 1.56195 0
M  V30 7870 C 774.293 -0.424813 1.97994 0
M  V30 7871 C 774.621 -1.60589 1.09733 0
M  V30 7872 O 773.876 -1.95201 0.139693 0
M  V30 7873 C 774.175 -0.91312 3.45539 0
M  V30 7874 C 773.841 0.156187 4.50629 0
M  V30 7875 C 772.503 0.449966 4.79092 0
M  V30 7876 C 774.855 0.879959 5.13718 0
M  V30 7877 C 772.183 1.47223 5.67928 0
M  V30 7878 C 774.535 1.89148 6.0366 0
M  V30 7879 C 773.199 2.1923 6.30472 0
M  V30 7880 H 772.469 -0.15545 0.724511 0
M  V30 7881 H 775.116 0.310095 1.88973 0
M  V30 7882 H 773.421 -1.72658 3.51705 0
M  V30 7883 H 775.118 -1.41395 3.75245 0
M  V30 7884 H 771.708 -0.0829466 4.2852 0
M  V30 7885 H 775.892 0.66623 4.91808 0
M  V30 7886 H 771.148 1.71105 5.86969 0
M  V30 7887 H 775.322 2.45745 6.516 0
M  V30 7888 H 772.949 2.98587 6.99107 0
M  V30 7889 N 774.524 -1.57472 -0.0634922 0
M  V30 7890 C 775.77 -1.87932 -0.762194 0
M  V30 7891 C 776.103 -0.803377 -1.76804 0
M  V30 7892 O 775.378 0.185468 -1.93614 0
M  V30 7893 C 775.661 -3.29053 -1.46275 0
M  V30 7894 C 775.514 -4.47309 -0.472755 0
M  V30 7895 C 776.833 -3.68537 -2.40558 0
M  V30 7896 H 773.952 -0.683521 -0.275624 0
M  V30 7897 H 776.594 -1.89983 -0.0252651 0
M  V30 7898 H 774.744 -3.27435 -2.0909 0
M  V30 7899 H 776.416 -4.61053 0.150828 0
M  V30 7900 H 774.659 -4.33286 0.211187 0
M  V30 7901 H 775.33 -5.42853 -1.00072 0
M  V30 7902 H 777.806 -3.71302 -1.87814 0
M  V30 7903 H 776.682 -4.68152 -2.86574 0
M  V30 7904 H 776.943 -2.98917 -3.25731 0
M  V30 7905 N 776.003 0.335068 -1.53997 0
M  V30 7906 C 777.231 1.09418 -1.756 0
M  V30 7907 C 777.646 1.82083 -0.499138 0
M  V30 7908 O 777.003 1.74646 0.529631 0
M  V30 7909 C 777.054 2.10115 -2.94166 0
M  V30 7910 O 776.775 1.40404 -4.14992 0
M  V30 7911 C 778.276 2.98336 -3.27888 0
M  V30 7912 H 775.496 0.32595 -0.586513 0
M  V30 7913 H 778.04 0.384693 -2.00849 0
M  V30 7914 H 776.195 2.76616 -2.71224 0
M  V30 7915 H 776.609 2.07743 -4.81605 0
M  V30 7916 H 778.083 3.6491 -4.1418 0
M  V30 7917 H 778.56 3.64814 -2.44556 0
M  V30 7918 H 779.166 2.37412 -3.52868 0
M  V30 7919 N 777.481 1.45874 0.596531 0
M  V30 7920 C 778.73 1.49737 1.35135 0
M  V30 7921 C 779.043 0.147755 1.95041 0
M  V30 7922 O 780.249 0.0640984 2.71424 0
M  V30 7923 C 778.705 2.6378 2.44843 0
M  V30 7924 C 778.313 4.05102 1.91301 0
M  V30 7925 C 780.057 2.769 3.21755 0
M  V30 7926 C 777.964 5.10508 2.98557 0
M  V30 7927 H 776.894 0.557219 0.507959 0
M  V30 7928 H 779.545 1.72046 0.638147 0
M  V30 7929 H 777.927 2.34774 3.189 0
M  V30 7930 H 779.101 4.43836 1.2388 0
M  V30 7931 H 777.416 3.96528 1.271 0
M  V30 7932 H 780.013 3.52819 4.01775 0
M  V30 7933 H 780.356 1.83924 3.73467 0
M  V30 7934 H 780.889 3.05485 2.54802 0
M  V30 7935 H 777.628 6.0523 2.51749 0
M  V30 7936 H 777.148 4.76332 3.6451 0
M  V30 7937 H 778.827 5.35745 3.62748 0
M  V30 7938 N 778.959 -0.83999 1.33349 0
M  V30 7939 C 780.187 -1.62728 1.27778 0
M  V30 7940 C 780.602 -1.88191 -0.151505 0
M  V30 7941 O 779.959 -1.46128 -1.09329 0
M  V30 7942 C 780.01 -2.97813 2.04913 0
M  V30 7943 O 779.731 -2.73469 3.42266 0
M  V30 7944 C 781.232 -3.92245 2.0654 0
M  V30 7945 H 778.452 -0.506374 0.440257 0
M  V30 7946 H 780.996 -1.04637 1.75703 0
M  V30 7947 H 779.151 -3.52509 1.60674 0
M  V30 7948 H 779.565 -3.59483 3.81932 0
M  V30 7949 H 781.039 -4.84249 2.64966 0
M  V30 7950 H 781.516 -4.26332 1.05537 0
M  V30 7951 H 782.122 -3.43487 2.50793 0
M  V30 7952 N 780.437 -1.16799 -1.0581 0
M  V30 7953 C 781.4 -0.881396 -2.11575 0
M  V30 7954 C 782.4 0.12574 -1.60308 0
M  V30 7955 O 783.59 -0.105716 -1.73879 0
M  V30 7956 C 780.722 -0.319037 -3.39404 0
M  V30 7957 H 781.915 -1.81907 -2.38432 0
M  V30 7958 H 779.468 -0.977597 -1.21954 0
M  V30 7959 H 780.203 0.626082 -3.18199 0
M  V30 7960 H 779.988 -1.04481 -3.77923 0
M  V30 7961 H 781.478 -0.13663 -4.17376 0
M  V30 7962 N 781.915 1.24427 -0.967243 0
M  V30 7963 C 782.845 2.2773 -0.515899 0
M  V30 7964 C 783.826 1.64197 0.444227 0
M  V30 7965 O 785.011 1.91193 0.340451 0
M  V30 7966 C 782.141 3.46751 0.195149 0
M  V30 7967 C 781.095 4.22548 -0.680953 0
M  V30 7968 C 780.421 5.34456 0.161561 0
M  V30 7969 C 781.721 4.83914 -1.96532 0
M  V30 7970 H 783.415 2.65735 -1.37933 0
M  V30 7971 H 780.961 1.27742 -0.664681 0
M  V30 7972 H 782.914 4.18153 0.522117 0
M  V30 7973 H 781.638 3.07771 1.09292 0
M  V30 7974 H 780.297 3.52946 -0.991186 0
M  V30 7975 H 779.945 4.91716 1.05947 0
M  V30 7976 H 779.645 5.86087 -0.421418 0
M  V30 7977 H 781.169 6.08685 0.483211 0
M  V30 7978 H 782.583 5.47392 -1.70396 0
M  V30 7979 H 780.98 5.45775 -2.49499 0
M  V30 7980 H 782.05 4.05393 -2.66053 0
M  V30 7981 N 783.393 0.737304 1.3929 0
M  V30 7982 C 784.356 0.10731 2.28949 0
M  V30 7983 C 785.356 -0.664716 1.46418 0
M  V30 7984 O 786.546 -0.493392 1.67067 0
M  V30 7985 C 783.678 -0.857145 3.29948 0
M  V30 7986 H 784.871 0.89725 2.86163 0
M  V30 7987 H 782.424 0.503279 1.47976 0
M  V30 7988 H 783.159 -1.67336 2.77794 0
M  V30 7989 H 782.944 -0.306167 3.90903 0
M  V30 7990 H 784.434 -1.29444 3.97031 0
M  V30 7991 N 784.871 -1.49948 0.485112 0
M  V30 7992 C 785.781 -2.32587 -0.306697 0
M  V30 7993 C 786.797 -1.43598 -0.982632 0
M  V30 7994 O 787.973 -1.76638 -0.967519 0
M  V30 7995 C 785.038 -3.18638 -1.3664 0
M  V30 7996 C 784.099 -4.23462 -0.705589 0
M  V30 7997 C 783.332 -5.05401 -1.7148 0
M  V30 7998 O 783.555 -4.88618 -2.94293 0
M  V30 7999 O 782.489 -5.88157 -1.27889 0
M  V30 8000 H 786.315 -3.01447 0.369272 0
M  V30 8001 H 783.9 -1.47349 0.246709 0
M  V30 8002 H 785.782 -3.71992 -1.9799 0
M  V30 8003 H 784.457 -2.52491 -2.02559 0
M  V30 8004 H 783.364 -3.74063 -0.0527733 0
M  V30 8005 H 784.697 -4.92119 -0.0891187 0
M  V30 8006 N 786.349 -0.21828 -1.56081 0
M  V30 8007 C 787.765 0.137168 -1.59009 0
M  V30 8008 C 787.965 1.59215 -1.23503 0
M  V30 8009 O 787.021 2.33178 -0.968716 0
M  V30 8010 C 788.334 -0.186162 -3.00123 0
M  V30 8011 C 789.882 -0.128135 -3.12738 0
M  V30 8012 C 790.357 -0.425094 -4.56023 0
M  V30 8013 N 791.848 -0.374547 -4.61683 0
M  V30 8014 C 792.583 -0.57786 -5.70481 0
M  V30 8015 N 792.079 -0.842771 -6.87655 0
M  V30 8016 N 793.872 -0.510521 -5.59777 0
M  V30 8017 H 786.023 -1.16746 -1.77437 0
M  V30 8018 H 788.286 -0.467706 -0.824594 0
M  V30 8019 H 787.992 -1.19589 -3.30744 0
M  V30 8020 H 787.866 0.500388 -3.73866 0
M  V30 8021 H 790.253 0.872224 -2.81915 0
M  V30 8022 H 790.334 -0.848112 -2.41331 0
M  V30 8023 H 789.978 -1.42288 -4.87562 0
M  V30 8024 H 789.908 0.316038 -5.25651 0
M  V30 8025 H 792.399 -0.177356 -3.77484 0
M  V30 8026 H 792.712 -0.986095 -7.66483 0
M  V30 8027 H 791.057 -0.879929 -6.89407 0
M  V30 8028 H 794.248 -0.303813 -4.67113 0
M  V30 8029 H 794.421 -0.672378 -6.44502 0
M  V30 8030 N 787.827 1.57504 0.0551401 0
M  V30 8031 C 788.775 2.05884 1.08233 0
M  V30 8032 C 789.769 0.967383 1.39061 0
M  V30 8033 O 790.975 1.15242 1.38273 0
M  V30 8034 H 787.35 0.656673 0.366449 0
M  V30 8035 H 789.321 2.91273 0.648269 0
M  V30 8036 C 788.07 2.53221 2.38273 0
M  V30 8037 H 787.393 3.36809 2.15406 0
M  V30 8038 H 788.833 2.9081 3.08554 0
M  V30 8039 C 787.292 1.42218 3.05411 0
M  V30 8040 O 787.822 0.773638 3.9418 0
M  V30 8041 N 786.028 1.16316 2.66306 0
M  V30 8042 H 785.575 1.69237 1.94207 0
M  V30 8043 H 785.533 0.422534 3.11548 0
M  V30 8044 N 789.305 -0.326896 1.54172 0
M  V30 8045 C 790.551 -1.06681 1.72473 0
M  V30 8046 C 790.884 -1.87779 0.49523 0
M  V30 8047 O 790.159 -1.87754 -0.507803 0
M  V30 8048 C 790.442 -1.99429 2.99834 0
M  V30 8049 C 790.295 -1.21682 4.33028 0
M  V30 8050 C 791.614 -2.99002 3.22933 0
M  V30 8051 H 788.733 -0.386438 0.627563 0
M  V30 8052 H 791.375 -0.343779 1.86864 0
M  V30 8053 H 789.525 -2.61081 2.87696 0
M  V30 8054 H 791.197 -0.625153 4.57044 0
M  V30 8055 H 789.44 -0.519045 4.30684 0
M  V30 8056 H 790.111 -1.89766 5.18356 0
M  V30 8057 H 792.587 -2.4747 3.34511 0
M  V30 8058 H 791.463 -3.61085 4.13412 0
M  V30 8059 H 791.724 -3.71281 2.40006 0
M  V30 8060 N 790.784 -1.46188 -0.588786 0
M  V30 8061 C 791.694 -1.58865 -1.72624 0
M  V30 8062 C 792.71 -0.472348 -1.67466 0
M  V30 8063 O 793.886 -0.735638 -1.87484 0
M  V30 8064 C 790.951 -1.56989 -3.0912 0
M  V30 8065 C 790.012 -2.79804 -3.25589 0
M  V30 8066 C 789.245 -2.78009 -4.55573 0
M  V30 8067 O 789.468 -1.86406 -5.39082 0
M  V30 8068 O 788.402 -3.6947 -4.75159 0
M  V30 8069 H 792.228 -2.55047 -1.64878 0
M  V30 8070 H 789.813 -1.28912 -0.755115 0
M  V30 8071 H 791.695 -1.58618 -3.90408 0
M  V30 8072 H 790.37 -0.639648 -3.17317 0
M  V30 8073 H 789.277 -2.83732 -2.43818 0
M  V30 8074 H 790.61 -3.72017 -3.22279 0
M  V30 8075 N 792.262 0.832906 -1.33792 0
M  V30 8076 C 793.678 1.1245 -1.13257 0
M  V30 8077 C 793.878 2.01369 0.0725832 0
M  V30 8078 O 792.934 2.41071 0.751082 0
M  V30 8079 C 794.247 1.78084 -2.42294 0
M  V30 8080 C 795.795 1.90624 -2.48257 0
M  V30 8081 C 796.27 2.59673 -3.77271 0
M  V30 8082 N 797.761 2.67181 -3.78376 0
M  V30 8083 C 798.496 3.21313 -4.74916 0
M  V30 8084 N 797.992 3.76086 -5.81835 0
M  V30 8085 N 799.785 3.19621 -4.62384 0
M  V30 8086 H 791.936 0.241244 -2.11026 0
M  V30 8087 H 794.199 0.169557 -0.932713 0
M  V30 8088 H 793.905 1.20209 -3.30519 0
M  V30 8089 H 793.779 2.78049 -2.5489 0
M  V30 8090 H 796.166 2.4765 -1.60478 0
M  V30 8091 H 796.247 0.89591 -2.39598 0
M  V30 8092 H 795.891 2.03304 -4.65435 0
M  V30 8093 H 795.821 3.61189 -3.8321 0
M  V30 8094 H 798.312 2.28346 -3.01108 0
M  V30 8095 H 798.625 4.15612 -6.51526 0
M  V30 8096 H 796.97 3.74357 -5.85561 0
M  V30 8097 H 800.161 2.76091 -3.7801 0
M  V30 8098 H 800.334 3.61504 -5.37791 0
M  V30 8099 N 793.74 1.17359 1.05189 0
M  V30 8100 C 794.989 0.956412 1.77583 0
M  V30 8101 C 795.302 -0.516018 1.88671 0
M  V30 8102 O 796.508 -0.851401 2.57805 0
M  V30 8103 C 794.964 1.66203 3.19225 0
M  V30 8104 C 794.572 3.17299 3.16267 0
M  V30 8105 C 796.316 1.52725 3.96075 0
M  V30 8106 C 794.223 3.8055 4.52698 0
M  V30 8107 H 793.153 0.354204 0.665624 0
M  V30 8108 H 795.804 1.40612 1.17901 0
M  V30 8109 H 794.186 1.14006 3.79234 0
M  V30 8110 H 795.36 3.76431 2.65776 0
M  V30 8111 H 793.675 3.3079 2.52917 0
M  V30 8112 H 796.272 1.97351 4.96947 0
M  V30 8113 H 796.615 0.477803 4.13549 0
M  V30 8114 H 797.148 2.02139 3.42614 0
M  V30 8115 H 793.887 4.85492 4.4043 0
M  V30 8116 H 793.407 3.26206 5.03339 0
M  V30 8117 H 795.086 3.82757 5.21638 0
M  V30 8118 N 795.218 -1.23913 0.973828 0
M  V30 8119 C 796.467 -1.91455 0.63464 0
M  V30 8120 C 796.78 -1.76893 -0.834759 0
M  V30 8121 O 797.986 -2.3918 -1.28473 0
M  V30 8122 C 796.442 -3.43172 1.08447 0
M  V30 8123 C 796.05 -3.66409 2.57776 0
M  V30 8124 C 797.794 -4.1653 0.818721 0
M  V30 8125 C 795.701 -5.11728 2.9646 0
M  V30 8126 H 794.631 -0.716881 0.233661 0
M  V30 8127 H 797.282 -1.40457 1.18085 0
M  V30 8128 H 795.664 -3.93242 0.466524 0
M  V30 8129 H 796.838 -3.26913 3.24753 0
M  V30 8130 H 795.153 -3.06349 2.82027 0
M  V30 8131 H 797.75 -5.23603 1.08367 0
M  V30 8132 H 798.093 -4.15578 -0.245128 0
M  V30 8133 H 798.626 -3.72428 1.39793 0
M  V30 8134 H 795.365 -5.17806 4.01941 0
M  V30 8135 H 794.885 -5.52199 2.34172 0
M  V30 8136 H 796.564 -5.80009 2.86703 0
M  V30 8137 N 796.696 -0.74468 -1.38897 0
M  V30 8138 C 797.643 -0.111064 -2.30533 0
M  V30 8139 C 798.613 0.719276 -1.49719 0
M  V30 8140 O 799.798 0.677244 -1.78376 0
M  V30 8141 C 796.938 0.78292 -3.36102 0
M  V30 8142 C 796.051 -0.0610817 -4.31957 0
M  V30 8143 C 795.186 0.835075 -5.24595 0
M  V30 8144 C 794.225 -0.0130974 -6.12099 0
M  V30 8145 N 793.362 0.839525 -6.97063 0
M  V30 8146 H 798.202 -0.898113 -2.84144 0
M  V30 8147 H 795.739 -0.454537 -1.39901 0
M  V30 8148 H 797.697 1.31578 -3.95908 0
M  V30 8149 H 796.327 1.53585 -2.83922 0
M  V30 8150 H 795.379 -0.711469 -3.73687 0
M  V30 8151 H 796.691 -0.716482 -4.93627 0
M  V30 8152 H 795.845 1.43542 -5.89475 0
M  V30 8153 H 794.584 1.52423 -4.63269 0
M  V30 8154 H 793.589 -0.626179 -5.46223 0
M  V30 8155 H 794.814 -0.699181 -6.75491 0
M  V30 8156 H 792.76 1.5138 -6.38295 0
M  V30 8157 H 792.677 0.240823 -7.55616 0
M  V30 8158 H 793.945 1.42513 -7.66362 0
M  V30 8159 N 798.174 1.49689 -0.493057 0
M  V30 8160 C 799.106 2.26867 0.326195 0
M  V30 8161 C 800.119 1.33083 0.937697 0
M  V30 8162 O 801.308 1.58427 0.822382 0
M  V30 8163 C 798.408 3.0519 1.4735 0
M  V30 8164 C 797.581 4.26491 0.970767 0
M  V30 8165 C 796.64 4.86926 1.99473 0
M  V30 8166 O 795.666 5.47221 1.56647 0
M  V30 8167 N 796.868 4.75871 3.32456 0
M  V30 8168 H 799.633 2.97816 -0.335547 0
M  V30 8169 H 797.194 1.58602 -0.325129 0
M  V30 8170 H 799.186 3.42496 2.15589 0
M  V30 8171 H 797.756 2.369 2.03954 0
M  V30 8172 H 796.976 3.94036 0.113529 0
M  V30 8173 H 798.264 5.05092 0.613156 0
M  V30 8174 H 797.662 4.2797 3.69944 0
M  V30 8175 H 796.219 5.17383 3.96431 0
M  V30 8176 N 799.652 0.226554 1.55963 0
M  V30 8177 C 800.929 -0.453058 1.90281 0
M  V30 8178 C 801.309 -1.77377 1.14458 0
M  V30 8179 O 800.657 -2.27067 0.255496 0
M  V30 8180 C 800.867 -0.641108 3.43061 0
M  V30 8181 C 802.215 -0.946265 4.13921 0
M  V30 8182 O 803.239 -0.727713 3.48687 0
M  V30 8183 O 802.098 -1.36131 5.29274 0
M  V30 8184 H 799.192 -0.240242 0.791336 0
M  V30 8185 H 801.738 0.26911 1.67553 0
M  V30 8186 H 800.51 0.290283 3.90222 0
M  V30 8187 H 800.133 -1.41458 3.71585 0
M  V30 8188 N 801.13 -1.57531 -0.0467866 0
M  V30 8189 C 802.376 -1.8873 -0.742218 0
M  V30 8190 C 802.709 -0.822084 -1.75941 0
M  V30 8191 O 801.984 0.164922 -1.938 0
M  V30 8192 C 802.267 -3.30586 -1.42776 0
M  V30 8193 C 802.12 -4.47785 -0.425285 0
M  V30 8194 C 803.439 -3.71068 -2.36636 0
M  V30 8195 H 800.558 -0.686406 -0.268359 0
M  V30 8196 H 803.2 -1.89999 -0.00511341 0
M  V30 8197 H 801.35 -3.29634 -2.05605 0
M  V30 8198 H 803.022 -4.60867 0.199721 0
M  V30 8199 H 801.265 -4.33037 0.25713 0
M  V30 8200 H 801.936 -5.43884 -0.943086 0
M  V30 8201 H 804.412 -3.73273 -1.83866 0
M  V30 8202 H 803.288 -4.71165 -2.81593 0
M  V30 8203 H 803.549 -3.02355 -3.22542 0
M  V30 8204 N 802.608 0.318715 -1.54344 0
M  V30 8205 C 803.836 1.0755 -1.7675 0
M  V30 8206 C 804.251 1.81543 -0.518422 0
M  V30 8207 O 803.608 1.75198 0.511078 0
M  V30 8208 C 803.659 2.06983 -2.96378 0
M  V30 8209 O 803.38 1.35995 -4.16458 0
M  V30 8210 C 804.881 2.94841 -3.31034 0
M  V30 8211 H 802.101 0.319711 -0.589937 0
M  V30 8212 H 804.645 0.363369 -2.01246 0
M  V30 8213 H 802.8 2.73724 -2.74142 0
M  V30 8214 H 803.214 2.02623 -4.83781 0
M  V30 8215 H 804.688 3.60496 -4.18027 0
M  V30 8216 H 805.165 3.62199 -2.48412 0
M  V30 8217 H 805.771 2.33656 -3.55366 0
M  V30 8218 N 804.086 1.46499 0.581025 0
M  V30 8219 C 805.049 1.5677 1.672 0
M  V30 8220 C 806.049 0.444716 1.54528 0
M  V30 8221 O 807.239 0.709074 1.59116 0
M  V30 8222 C 804.371 1.4896 3.06633 0
M  V30 8223 H 805.564 2.54 1.5945 0
M  V30 8224 H 803.117 1.34334 0.799003 0
M  V30 8225 H 803.852 0.530168 3.19937 0
M  V30 8226 H 803.637 2.30439 3.17239 0
M  V30 8227 H 805.127 1.59237 3.86048 0
M  V30 8228 N 805.565 -0.825799 1.34232 0
M  V30 8229 C 806.79 -1.61883 1.29648 0
M  V30 8230 C 807.215 -1.87669 -0.127295 0
M  V30 8231 O 806.573 -1.45016 -1.08813 0
M  V30 8232 C 806.621 -2.93846 2.09014 0
M  V30 8233 O 805.725 -3.85778 1.4577 0
M  V30 8234 H 805.066 -0.492454 0.445405 0
M  V30 8235 H 807.596 -1.02641 1.76992 0
M  V30 8236 H 807.606 -3.43435 2.20264 0
M  V30 8237 H 806.281 -2.74401 3.12533 0
M  V30 8238 H 804.858 -3.4429 1.43245 0
M  V30 8239 O 807.082 -1.29565 -0.964116 0
M  V30 8240 H 807.773 -1.10499 -1.5909 0
M  V30 END ATOM
M  V30 BEGIN BOND
M  V30 END BOND
M  V30 END CTAB
M  END
$$$$
