drugbank_target|P12724 Eosinophil cationic protein (DB01411; DB02098; DB04272)
 OpenBabel12092119433D

  0  0  0     0  0            999 V3000
M  V30 BEGIN CTAB
M  V30 COUNTS 2582 2615 0 0 0
M  V30 BEGIN ATOM
M  V30 1 H -0.908 1.98254 -0.117106 0
M  V30 2 N 0 1.576 0 0
M  V30 3 C 0.933 2.03868 1.02534 0
M  V30 4 C 1.911 0.928543 1.3348 0
M  V30 5 O 3.095 1.19667 1.45644 0
M  V30 6 C 0.222 2.43627 2.35294 0
M  V30 7 C -0.732 3.65373 2.2001 0
M  V30 8 S 0.101 5.13292 1.52614 0
M  V30 9 C 1.257 5.56322 2.86805 0
M  V30 10 H 1.49 2.90518 0.631377 0
M  V30 11 H -0.977 1.52953 0.210867 0
M  V30 12 H 0.981 2.67203 3.11629 0
M  V30 13 H -0.358 1.57376 2.7183 0
M  V30 14 H -1.165 3.90944 3.18086 0
M  V30 15 H -1.563 3.418 1.51819 0
M  V30 16 H 0.729 5.58782 3.83104 0
M  V30 17 H 1.672 6.56266 2.65933 0
M  V30 18 H 2.08 4.83886 2.90714 0
M  V30 19 N 1.4781 -0.272755 1.55222 0
M  V30 20 C 2.7241 -1.00581 1.761 0
M  V30 21 C 3.0571 -1.85932 0.560625 0
M  V30 22 O 2.3321 -1.89416 -0.441801 0
M  V30 23 C 2.6151 -1.88816 3.06628 0
M  V30 24 C 2.4681 -1.06457 4.37021 0
M  V30 25 C 3.7871 -2.8752 3.33197 0
M  V30 26 H 0.9061 -0.364244 0.640699 0
M  V30 27 H 3.5481 -0.278189 1.87952 0
M  V30 28 H 1.6981 -2.50856 2.96654 0
M  V30 29 H 3.3701 -0.464863 4.58952 0
M  V30 30 H 1.6131 -0.368043 4.32236 0
M  V30 31 H 2.2841 -1.71514 5.24678 0
M  V30 32 H 4.7601 -2.35615 3.42965 0
M  V30 33 H 3.6361 -3.46399 4.25792 0
M  V30 34 H 3.8971 -3.62657 2.52849 0
M  V30 35 N 2.9562 -1.48159 -0.537278 0
M  V30 36 C 4.3672 -1.49429 -1.11928 0
M  V30 37 C 4.7182 -0.26 -1.9447 0
M  V30 38 O 3.8432 0.633489 -2.0692 0
M  V30 39 C 4.4382 -2.70758 -2.03656 0
M  V30 40 C 2.9972 -2.74923 -2.57088 0
M  V30 41 C 2.1442 -2.42835 -1.3389 0
M  V30 42 H 5.0952 -1.55381 -0.322886 0
M  V30 43 H 5.1162 -2.48861 -2.87834 0
M  V30 44 H 4.6282 -3.60575 -1.43553 0
M  V30 45 H 2.7292 -1.89296 -3.20933 0
M  V30 46 H 2.8422 -3.76157 -2.9672 0
M  V30 47 H 1.2062 -1.93836 -1.65226 0
M  V30 48 H 1.9892 -3.34884 -0.755504 0
M  V30 49 N 4.4343 0.785586 -1.36625 0
M  V30 50 C 5.3813 1.89838 -1.31264 0
M  V30 51 C 6.3513 1.65115 -0.180633 0
M  V30 52 O 7.5363 1.87222 -0.36777 0
M  V30 53 C 4.6763 3.26706 -1.11163 0
M  V30 54 C 3.7893 3.63476 -2.33472 0
M  V30 55 C 2.9243 4.89481 -2.06353 0
M  V30 56 C 1.9633 5.18941 -3.24602 0
M  V30 57 N 1.1003 6.36131 -2.97123 0
M  V30 58 H 5.9403 1.93756 -2.26413 0
M  V30 59 H 3.4773 0.947454 -1.12524 0
M  V30 60 H 5.4353 4.05639 -0.975337 0
M  V30 61 H 4.0653 3.222 -0.196674 0
M  V30 62 H 3.1173 2.79636 -2.57891 0
M  V30 63 H 4.4293 3.81193 -3.21704 0
M  V30 64 H 3.5833 5.76288 -1.89675 0
M  V30 65 H 2.3223 4.73841 -1.15437 0
M  V30 66 H 1.3273 4.30615 -3.41834 0
M  V30 67 H 2.5523 5.36498 -4.16349 0
M  V30 68 H 0.4983 6.21875 -2.08823 0
M  V30 69 H 0.4153 6.54198 -3.78894 0
M  V30 70 H 1.6833 7.2591 -2.84033 0
M  V30 71 N 5.9124 1.20967 1.01018 0
M  V30 72 C 6.8424 0.988272 2.11555 0
M  V30 73 C 7.8234 -0.0849778 1.69888 0
M  V30 74 O 9.0084 0.0738202 1.9406 0
M  V30 75 C 6.1384 0.546528 3.42973 0
M  V30 76 C 5.0924 1.56375 3.9841 0
M  V30 77 C 4.4184 0.97842 5.25672 0
M  V30 78 C 5.7184 2.94922 4.31066 0
M  V30 79 H 7.4124 1.91276 2.30334 0
M  V30 80 H 4.9584 0.921073 1.1069 0
M  V30 81 H 6.9114 0.378839 4.19694 0
M  V30 82 H 5.6354 -0.413598 3.23971 0
M  V30 83 H 4.2944 1.71891 3.23804 0
M  V30 84 H 3.9424 0.0101688 5.02999 0
M  V30 85 H 3.6424 1.65784 5.63728 0
M  V30 86 H 5.1664 0.821939 6.05043 0
M  V30 87 H 6.5804 2.8288 4.9865 0
M  V30 88 H 4.9774 3.5983 4.80253 0
M  V30 89 H 6.0474 3.4616 3.39561 0
M  V30 90 N 7.3905 -1.2043 1.01659 0
M  V30 91 C 8.6375 -1.89797 0.705917 0
M  V30 92 C 8.9655 -1.78848 -0.764439 0
M  V30 93 O 8.2205 -1.16694 -1.57102 0
M  V30 94 C 8.5195 -3.40464 1.08714 0
M  V30 95 C 8.1855 -3.71614 2.5537 0
M  V30 96 C 6.8475 -3.79826 2.95441 0
M  V30 97 C 9.1995 -3.85915 3.50313 0
M  V30 98 C 6.5275 -3.99797 4.29394 0
M  V30 99 C 8.8795 -4.07396 4.83954 0
M  V30 100 C 7.5435 -4.13837 5.23732 0
M  V30 101 H 6.8135 -0.694518 0.258313 0
M  V30 102 H 9.4605 -1.42691 1.27717 0
M  V30 103 H 7.7655 -3.89385 0.434309 0
M  V30 104 H 9.4625 -3.92433 0.824461 0
M  V30 105 H 6.0525 -3.65822 2.23321 0
M  V30 106 H 10.2365 -3.78926 3.20513 0
M  V30 107 H 5.4925 -4.03018 4.59768 0
M  V30 108 H 9.6665 -4.17404 5.57447 0
M  V30 109 H 7.2935 -4.29064 6.27541 0
M  V30 110 N 8.8686 -0.792821 -1.36206 0
M  V30 111 C 10.0966 -0.378825 -2.03402 0
M  V30 112 C 10.5116 1.00586 -1.59774 0
M  V30 113 O 9.8686 1.64574 -0.788764 0
M  V30 114 C 9.9196 -0.43683 -3.58851 0
M  V30 115 O 9.6406 -1.76691 -4.00889 0
M  V30 116 C 11.1416 -0.0138943 -4.43298 0
M  V30 117 H 8.3616 -0.155673 -0.652692 0
M  V30 118 H 10.9056 -1.07261 -1.74113 0
M  V30 119 H 9.0606 0.208575 -3.86838 0
M  V30 120 H 9.4746 -1.72011 -4.95492 0
M  V30 121 H 10.9486 -0.105615 -5.51899 0
M  V30 122 H 11.4256 1.03915 -4.2673 0
M  V30 123 H 12.0316 -0.63192 -4.20579 0
M  V30 124 N 10.3467 1.47872 -0.545128 0
M  V30 125 C 11.5717 2.07391 -0.0190611 0
M  V30 126 C 11.9967 1.39688 1.25971 0
M  V30 127 O 11.3547 0.467816 1.7516 0
M  V30 128 C 11.4027 3.60188 0.172335 0
M  V30 129 O 10.5067 3.9339 1.23766 0
M  V30 130 H 9.8477 0.662411 -0.0459059 0
M  V30 131 H 12.3777 1.90066 -0.757365 0
M  V30 132 H 12.3877 4.06129 0.390305 0
M  V30 133 H 11.0627 4.08865 -0.761725 0
M  V30 134 H 9.6397 3.5921 1.00114 0
M  V30 135 N 11.8248 0.280983 1.55075 0
M  V30 136 C 12.7568 -0.637268 2.20163 0
M  V30 137 C 13.7698 -1.11298 1.18813 0
M  V30 138 O 14.9588 -1.03388 1.4551 0
M  V30 139 C 12.0588 -1.88199 2.81841 0
M  V30 140 C 11.2318 -1.55211 4.08936 0
M  V30 141 C 10.2908 -2.64991 4.54606 0
M  V30 142 O 9.3168 -2.30929 5.2025 0
M  V30 143 N 10.5188 -3.95161 4.25238 0
M  V30 144 H 13.2838 -0.0801694 2.99593 0
M  V30 145 H 10.8448 0.102329 1.61576 0
M  V30 146 H 12.8368 -2.60948 3.09335 0
M  V30 147 H 11.4068 -2.34799 2.06369 0
M  V30 148 H 10.6268 -0.658185 3.88666 0
M  V30 149 H 11.9148 -1.30681 4.91732 0
M  V30 150 H 11.3128 -4.25653 3.72607 0
M  V30 151 H 9.8698 -4.6427 4.5749 0
M  V30 152 N 13.3029 -1.57598 0.00835791 0
M  V30 153 C 14.5519 -1.90107 -0.673968 0
M  V30 154 C 14.8649 -0.884275 -1.7447 0
M  V30 155 O 16.0709 -1.09987 -2.48224 0
M  V30 156 C 14.5269 -3.37497 -1.24995 0
M  V30 157 C 14.1349 -4.47491 -0.2136 0
M  V30 158 C 15.8789 -3.79104 -1.90999 0
M  V30 159 C 13.7859 -5.85963 -0.80005 0
M  V30 160 H 12.7159 -0.709393 -0.255495 0
M  V30 161 H 15.3669 -1.83365 0.0702693 0
M  V30 162 H 13.7489 -3.39102 -2.04513 0
M  V30 163 H 14.9229 -4.57414 0.557596 0
M  V30 164 H 13.2379 -4.14956 0.346474 0
M  V30 165 H 15.8349 -4.79901 -2.35795 0
M  V30 166 H 16.1779 -3.1306 -2.74407 0
M  V30 167 H 16.7109 -3.79833 -1.18203 0
M  V30 168 H 13.4499 -6.555 -0.00456708 0
M  V30 169 H 12.9699 -5.79687 -1.54021 0
M  V30 170 H 14.6489 -6.33884 -1.29615 0
M  V30 171 N 14.781 0.264519 -1.55364 0
M  V30 172 C 16.021 1.00254 -1.78125 0
M  V30 173 C 16.385 1.83187 -0.575017 0
M  V30 174 O 17.586 2.60029 -0.681042 0
M  V30 175 C 15.857 1.85478 -3.05504 0
M  V30 176 S 17.416 2.6543 -3.49417 0
M  V30 177 H 14.234 0.337522 -0.625779 0
M  V30 178 H 16.836 0.272111 -1.93597 0
M  V30 179 H 15.54 1.23491 -3.9138 0
M  V30 180 H 15.071 2.62827 -2.92721 0
M  V30 181 H 17.086 3.87958 -3.09359 0
M  V30 182 N 16.2591 1.48442 0.529413 0
M  V30 183 C 17.1891 1.65902 1.64313 0
M  V30 184 C 18.1701 0.507897 1.6234 0
M  V30 185 O 19.3551 0.740503 1.79528 0
M  V30 186 C 16.4851 1.69911 3.02898 0
M  V30 187 C 15.4391 2.8453 3.19729 0
M  V30 188 C 14.7651 2.73629 4.59381 0
M  V30 189 C 16.0651 4.25821 3.02447 0
M  V30 190 H 17.7591 2.5914 1.49955 0
M  V30 191 H 15.3051 1.24709 0.719982 0
M  V30 192 H 17.2581 1.80715 3.80684 0
M  V30 193 H 15.9821 0.732524 3.18279 0
M  V30 194 H 14.6411 2.73283 2.44361 0
M  V30 195 H 14.2891 1.74938 4.71599 0
M  V30 196 H 13.9891 3.50541 4.71588 0
M  V30 197 H 15.5131 2.86401 5.39265 0
M  V30 198 H 16.9271 4.37898 3.70024 0
M  V30 199 H 15.3241 5.03735 3.26146 0
M  V30 200 H 16.3941 4.42244 1.98867 0
M  V30 201 N 17.7372 -0.778329 1.37039 0
M  V30 202 C 18.6672 -1.90546 1.34962 0
M  V30 203 C 19.6482 -1.68681 0.219274 0
M  V30 204 O 20.8332 -1.89634 0.418624 0
M  V30 205 C 17.9632 -3.27734 1.14925 0
M  V30 206 C 16.9172 -3.64147 2.24902 0
M  V30 207 C 16.2432 -4.99806 1.89996 0
M  V30 208 C 17.5432 -3.71579 3.67051 0
M  V30 209 H 19.2372 -1.92541 2.29277 0
M  V30 210 H 16.7832 -0.924948 1.10366 0
M  V30 211 H 18.7362 -4.06215 1.12104 0
M  V30 212 H 17.4602 -3.26154 0.170631 0
M  V30 213 H 16.1192 -2.8797 2.26868 0
M  V30 214 H 15.7672 -4.94759 0.906796 0
M  V30 215 H 15.4672 -5.25139 2.63634 0
M  V30 216 H 16.9912 -5.80694 1.88749 0
M  V30 217 H 18.4052 -4.40227 3.67251 0
M  V30 218 H 16.8022 -4.08405 4.39688 0
M  V30 219 H 17.8722 -2.72404 4.01154 0
M  V30 220 N 19.2153 -1.21501 -1.00376 0
M  V30 221 C 20.1453 -0.999478 -2.11028 0
M  V30 222 C 21.1263 0.0759671 -1.6993 0
M  V30 223 O 22.3113 -0.0841106 -1.94018 0
M  V30 224 C 19.4413 -0.564709 -3.42678 0
M  V30 225 C 18.3953 -1.58486 -3.97576 0
M  V30 226 C 17.7213 -1.00628 -5.25146 0
M  V30 227 C 19.0213 -2.97204 -4.29496 0
M  V30 228 H 20.7153 -1.92495 -2.29317 0
M  V30 229 H 18.2613 -0.92693 -1.102 0
M  V30 230 H 20.2143 -0.401091 -4.19487 0
M  V30 231 H 18.9383 0.396411 -3.24185 0
M  V30 232 H 17.5973 -1.73606 -3.22888 0
M  V30 233 H 17.2453 -0.0368439 -5.02987 0
M  V30 234 H 16.9453 -1.68771 -5.62841 0
M  V30 235 H 18.4693 -0.854015 -6.04598 0
M  V30 236 H 19.8833 -2.8552 -4.97143 0
M  V30 237 H 18.2803 -3.62372 -4.78338 0
M  V30 238 H 19.3503 -3.47956 -3.3772 0
M  V30 239 N 20.6934 1.19889 -1.02296 0
M  V30 240 C 21.6234 2.25141 -0.619174 0
M  V30 241 C 22.6044 1.66051 0.368915 0
M  V30 242 O 23.7894 1.92546 0.252941 0
M  V30 243 C 20.9194 3.4728 0.0368783 0
M  V30 244 C 19.8734 4.19005 -0.872865 0
M  V30 245 C 19.1994 5.34637 -0.0822402 0
M  V30 246 C 20.4994 4.74452 -2.18387 0
M  V30 247 H 22.1934 2.59171 -1.49903 0
M  V30 248 H 19.7394 1.24579 -0.722222 0
M  V30 249 H 21.6924 4.20098 0.330958 0
M  V30 250 H 20.4164 3.12433 0.95149 0
M  V30 251 H 19.0754 3.48061 -1.15105 0
M  V30 252 H 18.7234 4.96034 0.83422 0
M  V30 253 H 18.4234 5.83557 -0.688149 0
M  V30 254 H 19.9474 6.10255 0.205238 0
M  V30 255 H 21.3614 5.39055 -1.95172 0
M  V30 256 H 19.7584 5.33834 -2.74119 0
M  V30 257 H 20.8284 3.92844 -2.84257 0
M  V30 258 N 22.1715 0.800033 1.35784 0
M  V30 259 C 23.1015 0.220184 2.3246 0
M  V30 260 C 24.0825 -0.65073 1.57161 0
M  V30 261 O 25.2675 -0.582359 1.85263 0
M  V30 262 C 22.3975 -0.637353 3.41402 0
M  V30 263 C 21.3515 0.134531 4.27789 0
M  V30 264 C 20.6775 -0.844285 5.27992 0
M  V30 265 C 21.9775 1.32979 5.05088 0
M  V30 266 H 23.6715 1.02787 2.81203 0
M  V30 267 H 21.2175 0.495717 1.35199 0
M  V30 268 H 23.1705 -1.05302 4.08031 0
M  V30 269 H 21.8945 -1.47785 2.91251 0
M  V30 270 H 20.5535 0.531296 3.6273 0
M  V30 271 H 20.2015 -1.68011 4.74111 0
M  V30 272 H 19.9015 -0.332184 5.8666 0
M  V30 273 H 21.4255 -1.2583 5.97494 0
M  V30 274 H 22.8395 0.98934 5.64699 0
M  V30 275 H 21.2365 1.77593 5.7322 0
M  V30 276 H 22.3065 2.11978 4.36111 0
M  V30 277 N 23.6496 -1.47581 0.552962 0
M  V30 278 C 24.8976 -2.02082 0.0272703 0
M  V30 279 C 25.2186 -1.4301 -1.32563 0
M  V30 280 O 24.4886 -0.603745 -1.86365 0
M  V30 281 H 23.0686 -0.746966 0.00709182 0
M  V30 282 H 25.7306 -1.81033 0.722008 0
M  V30 283 H 24.8266 -3.12034 -0.0639951 0
M  V30 284 N 25.1277 -0.289203 -1.54924 0
M  V30 285 C 26.0577 0.58549 -2.2604 0
M  V30 286 C 27.0387 1.14753 -1.25562 0
M  V30 287 O 28.2237 1.17906 -1.54311 0
M  V30 288 C 25.3537 1.76305 -2.99222 0
M  V30 289 C 24.3077 1.33191 -4.06748 0
M  V30 290 C 23.6337 2.5937 -4.6758 0
M  V30 291 C 24.9337 0.471775 -5.20165 0
M  V30 292 H 26.6277 -0.00763532 -2.99399 0
M  V30 293 H 24.1737 -0.00511229 -1.43999 0
M  V30 294 H 26.1267 2.38097 -3.47689 0
M  V30 295 H 24.8507 2.38223 -2.23422 0
M  V30 296 H 23.5097 0.737121 -3.59113 0
M  V30 297 H 23.1577 3.19576 -3.88433 0
M  V30 298 H 22.8577 2.31228 -5.40192 0
M  V30 299 H 24.3817 3.21985 -5.18804 0
M  V30 300 H 25.7957 0.995056 -5.64599 0
M  V30 301 H 24.1927 0.284639 -5.99425 0
M  V30 302 H 25.2627 -0.506041 -4.82252 0
M  V30 303 N 26.6058 1.57591 -0.0167156 0
M  V30 304 C 27.5388 2.04944 1.00366 0
M  V30 305 C 28.5168 0.942648 1.32487 0
M  V30 306 O 29.7008 1.21205 1.44367 0
M  V30 307 C 26.8278 2.46109 2.32697 0
M  V30 308 C 25.8738 3.67686 2.16123 0
M  V30 309 S 26.7068 5.14882 1.47161 0
M  V30 310 C 27.8628 5.59332 2.80888 0
M  V30 311 H 28.0958 2.91172 0.600528 0
M  V30 312 H 25.6288 1.53168 0.194632 0
M  V30 313 H 27.5868 2.70493 3.08778 0
M  V30 314 H 26.2478 1.6025 2.70146 0
M  V30 315 H 25.4408 3.94296 3.13922 0
M  V30 316 H 25.0428 3.43391 1.48185 0
M  V30 317 H 27.3348 5.62814 3.77156 0
M  V30 318 H 28.2778 6.5905 2.58958 0
M  V30 319 H 28.6858 4.86942 2.85565 0
M  V30 320 N 28.0839 -0.256276 1.55502 0
M  V30 321 C 29.3319 -0.983672 1.76545 0
M  V30 322 C 29.6529 -1.86206 0.578982 0
M  V30 323 O 28.9229 -1.91656 -0.405577 0
M  V30 324 H 27.5029 -0.366191 0.651086 0
M  V30 325 H 30.1649 -0.276479 1.92929 0
M  V30 326 H 29.2609 -1.61087 2.67315 0
M  V30 327 N 29.562 -1.4872 -0.521534 0
M  V30 328 C 30.808 -1.574 -1.27879 0
M  V30 329 C 31.141 -0.250817 -1.92573 0
M  V30 330 O 30.416 0.743934 -1.79711 0
M  V30 331 C 30.699 -2.71843 -2.36164 0
M  V30 332 C 30.552 -4.13893 -1.76105 0
M  V30 333 C 31.871 -2.82008 -3.37875 0
M  V30 334 H 28.99 -0.572941 -0.463581 0
M  V30 335 H 31.632 -1.80927 -0.580119 0
M  V30 336 H 29.782 -2.51914 -2.95756 0
M  V30 337 H 31.454 -4.45284 -1.20499 0
M  V30 338 H 29.697 -4.20498 -1.06601 0
M  V30 339 H 30.368 -4.89804 -2.5455 0
M  V30 340 H 32.844 -3.00086 -2.88249 0
M  V30 341 H 31.72 -3.63796 -4.11028 0
M  V30 342 H 31.981 -1.90511 -3.98946 0
M  V30 343 N 31.0401 0.771051 -1.3745 0
M  V30 344 C 31.9501 1.91538 -1.35464 0
M  V30 345 C 32.9661 1.72134 -0.254123 0
M  V30 346 O 34.1421 1.95358 -0.489626 0
M  V30 347 C 31.2071 3.26671 -1.16134 0
M  V30 348 C 30.2681 3.58723 -2.35831 0
M  V30 349 C 29.5011 4.87409 -2.17413 0
M  V30 350 O 29.7241 5.58506 -1.15876 0
M  V30 351 O 28.6581 5.18539 -3.05615 0
M  V30 352 H 32.4841 1.96165 -2.31847 0
M  V30 353 H 30.0691 0.9139 -1.18187 0
M  V30 354 H 31.9511 4.07499 -1.07345 0
M  V30 355 H 30.6261 3.22894 -0.228251 0
M  V30 356 H 29.5331 2.78127 -2.50192 0
M  V30 357 H 30.8661 3.67243 -3.27709 0
M  V30 358 N 32.5182 1.22032 0.997298 0
M  V30 359 C 33.7662 1.04016 1.73278 0
M  V30 360 C 34.0872 -0.426255 1.90284 0
M  V30 361 O 33.3572 -1.30694 1.45931 0
M  V30 362 H 31.9372 0.381897 0.642 0
M  V30 363 H 34.5992 1.5347 1.20137 0
M  V30 364 H 33.6952 1.51441 2.72896 0
M  V30 365 N 33.9963 -1.19345 1.0293 0
M  V30 366 C 35.2213 -1.93538 0.745511 0
M  V30 367 C 35.6463 -1.75007 -0.689511 0
M  V30 368 O 35.0043 -1.05265 -1.47611 0
M  V30 369 C 35.0523 -3.43336 1.10239 0
M  V30 370 O 34.1563 -4.11806 0.221289 0
M  V30 371 H 33.4973 -0.604193 0.275404 0
M  V30 372 H 36.0273 -1.5141 1.37609 0
M  V30 373 H 36.0373 -3.94004 1.05947 0
M  V30 374 H 34.7123 -3.56146 2.14786 0
M  V30 375 H 33.2893 -3.715 0.322842 0
M  V30 376 N 35.4744 -0.807222 -1.35358 0
M  V30 377 C 36.4044 -0.232509 -2.3234 0
M  V30 378 C 37.3854 0.642386 -1.57504 0
M  V30 379 O 38.5704 0.572526 -1.85569 0
M  V30 380 C 35.7004 0.619238 -3.41735 0
M  V30 381 C 34.6544 -0.157215 -4.27711 0
M  V30 382 C 33.9804 0.816273 -5.28433 0
M  V30 383 C 35.2804 -1.35656 -5.04376 0
M  V30 384 H 36.9744 -1.04276 -2.80654 0
M  V30 385 H 34.5204 -0.50288 -1.34934 0
M  V30 386 H 36.4734 1.03137 -4.08584 0
M  V30 387 H 35.1974 1.46239 -2.92031 0
M  V30 388 H 33.8564 -0.550525 -3.62443 0
M  V30 389 H 33.5044 1.65494 -4.74996 0
M  V30 390 H 33.2044 0.301067 -5.86828 0
M  V30 391 H 34.7284 1.22659 -5.98153 0
M  V30 392 H 36.1424 -1.01927 -5.64166 0
M  V30 393 H 34.5394 -1.8063 -5.7227 0
M  V30 394 H 35.6094 -2.14288 -4.34981 0
M  V30 395 N 36.9525 1.47285 -0.560781 0
M  V30 396 C 37.9025 2.27073 0.205384 0
M  V30 397 C 38.8865 1.34569 0.882044 0
M  V30 398 O 40.0785 1.58899 0.77976 0
M  V30 399 C 37.2075 3.20414 1.23247 0
M  V30 400 C 36.2935 4.20399 0.559041 0
M  V30 401 N 36.6845 5.04423 -0.372927 0
M  V30 402 C 34.9825 4.38536 0.812522 0
M  V30 403 C 35.6835 5.76655 -0.764446 0
M  V30 404 N 34.6595 5.43471 -0.11848 0
M  V30 405 H 38.4615 2.89422 -0.511117 0
M  V30 406 H 35.9755 1.57868 -0.380975 0
M  V30 407 H 37.9725 3.76262 1.79534 0
M  V30 408 H 36.6325 2.59623 1.95002 0
M  V30 409 H 37.6435 5.1248 -0.747287 0
M  V30 410 H 34.3205 3.88913 1.51832 0
M  V30 411 H 35.7105 6.54238 -1.53045 0
M  V30 412 N 38.4306 0.297415 1.54768 0
M  V30 413 C 39.3936 -0.567375 2.22066 0
M  V30 414 C 40.3936 -1.06409 1.20556 0
M  V30 415 O 41.5836 -0.960691 1.45315 0
M  V30 416 C 38.7156 -1.78517 2.90421 0
M  V30 417 H 39.9086 0.0205534 2.99893 0
M  V30 418 H 37.4616 0.0482163 1.56226 0
M  V30 419 H 38.1966 -2.41303 2.16664 0
M  V30 420 H 37.9816 -1.43669 3.64831 0
M  V30 421 H 39.4716 -2.39964 3.41771 0
M  V30 422 N 39.9087 -1.5758 0.0250728 0
M  V30 423 C 41.3247 -1.56124 -0.331282 0
M  V30 424 C 41.5247 -1.03029 -1.73169 0
M  V30 425 O 40.5807 -0.675215 -2.43305 0
M  V30 426 C 41.8937 -3.00139 -0.183584 0
M  V30 427 C 43.4417 -3.11946 -0.256654 0
M  V30 428 C 43.9167 -4.57793 -0.137792 0
M  V30 429 N 45.4077 -4.6279 -0.194904 0
M  V30 430 C 46.1427 -5.7326 -0.126655 0
M  V30 431 N 45.6387 -6.928 -0.00755288 0
M  V30 432 N 47.4317 -5.61811 -0.180348 0
M  V30 433 H 39.5827 -1.90424 0.94087 0
M  V30 434 H 41.8457 -0.875761 0.362968 0
M  V30 435 H 41.5517 -3.4292 0.780927 0
M  V30 436 H 41.4257 -3.64899 -0.955448 0
M  V30 437 H 43.8127 -2.69079 -1.21162 0
M  V30 438 H 43.8937 -2.49915 0.545517 0
M  V30 439 H 43.5377 -5.01339 0.813739 0
M  V30 440 H 43.4677 -5.17798 -0.958775 0
M  V30 441 H 45.9587 -3.76807 -0.287267 0
M  V30 442 H 46.2717 -7.72791 0.0379428 0
M  V30 443 H 44.6167 -6.94995 0.0271731 0
M  V30 444 H 47.8077 -4.6731 -0.271767 0
M  V30 445 H 47.9807 -6.47882 -0.123697 0
M  V30 446 N 41.3868 0.248026 -1.55636 0
M  V30 447 C 42.7978 0.817177 -1.67866 0
M  V30 448 C 43.1488 1.86069 -0.622322 0
M  V30 449 O 42.2738 2.15157 0.231618 0
M  V30 450 C 42.8688 1.489 -3.04326 0
M  V30 451 C 41.4278 2.00587 -3.185 0
M  V30 452 C 40.5748 0.856573 -2.63739 0
M  V30 453 H 43.5258 0.0238579 -1.58682 0
M  V30 454 H 43.5468 2.35698 -2.98708 0
M  V30 455 H 43.0588 0.729279 -3.81186 0
M  V30 456 H 41.1598 2.79443 -2.4646 0
M  V30 457 H 41.2728 2.20402 -4.25393 0
M  V30 458 H 39.6368 1.25678 -2.21534 0
M  V30 459 H 40.4198 0.109953 -3.43124 0
M  V30 460 N 42.8649 1.48995 0.513639 0
M  V30 461 C 44.2759 1.5119 1.09537 0
M  V30 462 C 44.6269 0.290906 1.94031 0
M  V30 463 O 43.7519 -0.60049 2.07902 0
M  V30 464 C 44.3469 2.73964 1.99322 0
M  V30 465 C 42.9059 2.78978 2.52682 0
M  V30 466 C 42.0529 2.44934 1.30009 0
M  V30 467 H 45.0039 1.55875 0.298125 0
M  V30 468 H 45.0249 2.53409 2.83838 0
M  V30 469 H 44.5369 3.62813 1.37799 0
M  V30 470 H 42.6379 1.94378 3.1788 0
M  V30 471 H 42.7509 3.8083 2.90698 0
M  V30 472 H 41.1149 1.9644 1.62122 0
M  V30 473 H 41.8979 3.36043 0.702131 0
M  V30 474 N 44.343 -0.763751 1.37857 0
M  V30 475 C 45.275 -1.88664 1.30148 0
M  V30 476 C 46.288 -1.61365 0.215685 0
M  V30 477 O 47.477 -1.72134 0.472459 0
M  V30 478 C 44.577 -3.24075 0.991396 0
M  V30 479 C 43.75 -3.78958 2.18426 0
M  V30 480 C 42.809 -4.92862 1.8432 0
M  V30 481 O 41.835 -5.08027 2.56704 0
M  V30 482 N 43.037 -5.75071 0.792081 0
M  V30 483 H 45.802 -1.95791 2.26905 0
M  V30 484 H 43.363 -0.943226 1.31586 0
M  V30 485 H 45.355 -3.97804 0.743935 0
M  V30 486 H 43.925 -3.12399 0.112122 0
M  V30 487 H 43.145 -2.96913 2.59299 0
M  V30 488 H 44.433 -4.12357 2.98058 0
M  V30 489 H 43.831 -5.65375 0.191595 0
M  V30 490 H 42.388 -6.48991 0.60449 0
M  V30 491 N 45.8211 -1.22559 -0.990812 0
M  V30 492 C 47.0681 -1.05141 -1.73065 0
M  V30 493 C 47.3961 0.413191 -1.9006 0
M  V30 494 O 46.6511 1.32257 -1.44245 0
M  V30 495 C 46.9501 -1.71011 -3.13831 0
M  V30 496 C 46.6161 -3.20911 -3.16745 0
M  V30 497 C 45.2781 -3.61812 -3.17247 0
M  V30 498 C 47.6301 -4.16846 -3.12872 0
M  V30 499 C 44.9581 -4.97127 -3.1158 0
M  V30 500 C 47.3101 -5.5214 -3.08746 0
M  V30 501 C 45.9741 -5.92419 -3.07565 0
M  V30 502 H 45.2441 -0.384738 -0.633291 0
M  V30 503 H 47.8911 -1.5235 -1.16025 0
M  V30 504 H 46.1961 -1.16133 -3.74193 0
M  V30 505 H 47.8931 -1.55023 -3.69823 0
M  V30 506 H 44.4831 -2.88344 -3.17105 0
M  V30 507 H 48.6671 -3.86263 -3.11632 0
M  V30 508 H 43.9231 -5.27562 -3.09012 0
M  V30 509 H 48.0971 -6.26201 -3.04705 0
M  V30 510 H 45.7241 -6.97236 -3.02929 0
M  V30 511 N 47.2992 1.18797 -1.03562 0
M  V30 512 C 48.5272 1.92599 -0.755869 0
M  V30 513 C 48.9422 1.75886 0.686271 0
M  V30 514 O 48.2992 1.08517 1.46732 0
M  V30 515 C 48.3502 3.44159 -1.10619 0
M  V30 516 O 48.0712 3.60341 -2.4917 0
M  V30 517 C 49.5722 4.3507 -0.850214 0
M  V30 518 H 46.7922 0.611587 -0.276048 0
M  V30 519 H 49.3362 1.50742 -1.38192 0
M  V30 520 H 47.4912 3.83823 -0.525194 0
M  V30 521 H 47.9052 4.54128 -2.62427 0
M  V30 522 H 49.3792 5.39989 -1.14523 0
M  V30 523 H 49.8562 4.38673 0.215176 0
M  V30 524 H 50.4622 4.01097 -1.41426 0
M  V30 525 N 48.7773 0.814389 1.34928 0
M  V30 526 C 50.1933 0.499084 1.51596 0
M  V30 527 C 50.3933 -0.978319 1.76157 0
M  V30 528 O 49.4493 -1.76309 1.80752 0
M  V30 529 C 50.7623 1.35121 2.68631 0
M  V30 530 C 52.3103 1.34746 2.82511 0
M  V30 531 C 52.7853 2.18388 4.0258 0
M  V30 532 N 54.2763 2.15966 4.09772 0
M  V30 533 C 55.0113 2.77437 5.01813 0
M  V30 534 N 54.5073 3.47866 5.99134 0
M  V30 535 N 56.3003 2.67037 4.94619 0
M  V30 536 H 48.4513 1.7711 1.17243 0
M  V30 537 H 50.7143 0.754256 0.574284 0
M  V30 538 H 50.4203 2.40001 2.57085 0
M  V30 539 H 50.2943 1.00991 3.63429 0
M  V30 540 H 52.6813 0.30648 2.93504 0
M  V30 541 H 52.7623 1.72869 1.88547 0
M  V30 542 H 52.4063 3.2253 3.92347 0
M  V30 543 H 52.3363 1.77621 4.9574 0
M  V30 544 H 54.8273 1.64729 3.40107 0
M  V30 545 H 55.1403 3.92038 6.65977 0
M  V30 546 H 53.4853 3.51972 5.99284 0
M  V30 547 H 56.6763 2.11597 4.17546 0
M  V30 548 H 56.8493 3.15232 5.66156 0
M  V30 549 N 50.2554 -1.46986 0.568584 0
M  V30 550 C 51.2184 -2.28624 -0.162366 0
M  V30 551 C 52.2184 -1.37596 -0.832103 0
M  V30 552 O 53.4084 -1.60115 -0.68622 0
M  V30 553 C 50.5404 -3.17596 -1.23878 0
M  V30 554 H 51.7334 -2.94722 0.554899 0
M  V30 555 H 49.2864 -1.52863 0.325976 0
M  V30 556 H 50.0214 -2.56214 -1.98808 0
M  V30 557 H 49.8064 -3.846 -0.763219 0
M  V30 558 H 51.2964 -3.79078 -1.75185 0
M  V30 559 N 51.7335 -0.305618 -1.54608 0
M  V30 560 C 52.6655 0.602161 -2.21149 0
M  V30 561 C 53.6785 1.09394 -1.20569 0
M  V30 562 O 54.8675 1.0106 -1.47136 0
M  V30 563 C 51.9675 1.83692 -2.84799 0
M  V30 564 C 51.1405 1.48686 -4.11353 0
M  V30 565 C 50.1995 2.57725 -4.58764 0
M  V30 566 O 49.2255 2.22623 -5.23858 0
M  V30 567 N 50.4275 3.88346 -4.31471 0
M  V30 568 H 53.1925 0.0324966 -2.99682 0
M  V30 569 H 50.7535 -0.128021 -1.61393 0
M  V30 570 H 52.7455 2.55994 -3.13448 0
M  V30 571 H 51.3155 2.31486 -2.10078 0
M  V30 572 H 50.5355 0.596269 -3.89664 0
M  V30 573 H 51.8235 1.22842 -4.93748 0
M  V30 574 H 51.2215 4.19671 -3.79331 0
M  V30 575 H 49.7785 4.56932 -4.64818 0
M  V30 576 N 53.2116 1.57565 -0.0334293 0
M  V30 577 C 54.4576 1.93088 0.639417 0
M  V30 578 C 54.8126 0.910589 1.69488 0
M  V30 579 O 54.1056 -0.0727725 1.91462 0
M  V30 580 C 54.2996 3.33112 1.29504 0
M  V30 581 C 54.1286 4.48667 0.304604 0
M  V30 582 C 52.8986 5.05207 -0.0970777 0
M  V30 583 C 55.0966 5.1239 -0.442845 0
M  V30 584 N 53.0786 6.04286 -1.08223 0
M  V30 585 C 54.4496 6.06609 -1.28161 0
M  V30 586 C 56.5046 4.95352 -0.50308 0
M  V30 587 C 55.2076 6.85622 -2.17519 0
M  V30 588 C 57.2336 5.74978 -1.38401 0
M  V30 589 C 56.5956 6.68816 -2.21054 0
M  V30 590 H 52.6946 0.754335 0.206161 0
M  V30 591 H 55.2786 1.94435 -0.101613 0
M  V30 592 H 53.4496 3.32576 2.00618 0
M  V30 593 H 55.1816 3.55972 1.92525 0
M  V30 594 H 51.9366 4.72782 0.278255 0
M  V30 595 H 52.3606 6.58516 -1.57117 0
M  V30 596 H 57.0026 4.22625 0.121694 0
M  V30 597 H 54.7206 7.57652 -2.81049 0
M  V30 598 H 58.3066 5.63826 -1.43496 0
M  V30 599 H 57.1866 7.29355 -2.88116 0
M  V30 600 N 54.6897 -0.239769 1.55765 0
M  V30 601 C 55.9367 -0.966801 1.7793 0
M  V30 602 C 56.2647 -1.85046 0.599015 0
M  V30 603 O 55.5197 -1.91197 -0.417395 0
M  V30 604 C 55.8187 -1.852 3.05672 0
M  V30 605 C 55.4847 -1.1231 4.36689 0
M  V30 606 C 54.1467 -0.921689 4.72291 0
M  V30 607 C 56.4987 -0.607019 5.17653 0
M  V30 608 C 53.8267 -0.191996 5.86386 0
M  V30 609 C 56.1787 0.109241 6.32506 0
M  V30 610 C 54.8427 0.322073 6.66723 0
M  V30 611 H 54.1127 -0.353778 0.651093 0
M  V30 612 H 56.7597 -0.23634 1.90036 0
M  V30 613 H 55.0647 -2.64975 2.8861 0
M  V30 614 H 56.7617 -2.41635 3.20021 0
M  V30 615 H 53.3517 -1.29004 4.08725 0
M  V30 616 H 57.5357 -0.750153 4.90598 0
M  V30 617 H 52.7917 -0.0166949 6.11398 0
M  V30 618 H 56.9657 0.516737 6.9448 0
M  V30 619 H 54.5927 0.88944 7.54979 0
M  V30 620 N 56.1678 -1.49265 -0.50573 0
M  V30 621 C 57.1308 -1.65075 -1.59006 0
M  V30 622 C 58.1308 -0.522768 -1.52065 0
M  V30 623 O 59.3208 -0.789117 -1.55302 0
M  V30 624 C 56.4528 -1.64369 -2.98656 0
M  V30 625 H 57.6458 -2.61784 -1.46319 0
M  V30 626 H 55.1988 -1.38226 -0.729616 0
M  V30 627 H 55.9338 -0.692272 -3.16825 0
M  V30 628 H 55.7188 -2.46282 -3.05103 0
M  V30 629 H 57.2088 -1.78674 -3.77446 0
M  V30 630 N 57.6459 0.756429 -1.3826 0
M  V30 631 C 58.8949 1.51082 -1.3363 0
M  V30 632 C 59.2079 1.95467 0.0720068 0
M  V30 633 O 60.4139 2.7043 0.240834 0
M  V30 634 C 58.8699 2.72893 -2.34644 0
M  V30 635 C 58.4779 2.35544 -3.81081 0
M  V30 636 C 60.2219 3.50791 -2.39052 0
M  V30 637 C 58.1289 3.53948 -4.73787 0
M  V30 638 H 57.0589 0.56727 -0.49671 0
M  V30 639 H 59.7099 0.827147 -1.638 0
M  V30 640 H 58.0919 3.43227 -1.97513 0
M  V30 641 H 59.2659 1.72894 -4.27135 0
M  V30 642 H 57.5809 1.70786 -3.79764 0
M  V30 643 H 60.1779 4.38823 -3.05513 0
M  V30 644 H 60.5209 3.91745 -1.40861 0
M  V30 645 H 61.0539 2.87467 -2.74968 0
M  V30 646 H 57.7929 3.18064 -5.73163 0
M  V30 647 H 57.3129 4.15651 -4.32428 0
M  V30 648 H 58.9919 4.20566 -4.91663 0
M  V30 649 N 59.124 1.23083 0.984299 0
M  V30 650 C 60.056 0.96636 2.07832 0
M  V30 651 C 61.069 -0.0582135 1.62696 0
M  V30 652 O 62.258 0.176843 1.77622 0
M  V30 653 C 59.358 0.433397 3.36117 0
M  V30 654 C 58.531 1.51722 4.10243 0
M  V30 655 C 57.59 0.989821 5.16807 0
M  V30 656 O 56.616 1.67794 5.43906 0
M  V30 657 N 57.818 -0.184367 5.80207 0
M  V30 658 H 60.583 1.90824 2.31098 0
M  V30 659 H 58.144 1.13888 1.1507 0
M  V30 660 H 60.136 0.065699 4.04647 0
M  V30 661 H 58.706 -0.413806 3.09849 0
M  V30 662 H 57.926 2.05786 3.36223 0
M  V30 663 H 59.214 2.24619 4.56534 0
M  V30 664 H 58.612 -0.760062 5.60571 0
M  V30 665 H 57.169 -0.493366 6.4993 0
M  V30 666 N 60.6021 -1.18246 1.0419 0
M  V30 667 C 61.5521 -2.19843 0.604392 0
M  V30 668 C 62.5361 -1.56962 -0.353814 0
M  V30 669 O 63.7281 -1.76156 -0.17267 0
M  V30 670 C 60.8571 -3.43287 -0.0298975 0
M  V30 671 C 59.9431 -4.13288 0.951531 0
M  V30 672 N 60.3341 -4.59271 2.11906 0
M  V30 673 C 58.6321 -4.39165 0.7778 0
M  V30 674 C 59.3331 -5.13173 2.73912 0
M  V30 675 N 58.3091 -5.04763 2.01779 0
M  V30 676 H 62.1111 -2.53089 1.4941 0
M  V30 677 H 59.6251 -1.34465 0.910658 0
M  V30 678 H 61.6221 -4.15334 -0.361037 0
M  V30 679 H 60.2821 -3.11537 -0.915127 0
M  V30 680 H 61.2931 -4.5368 2.49789 0
M  V30 681 H 57.9701 -4.17461 -0.0572331 0
M  V30 682 H 59.3601 -5.58947 3.72864 0
M  V30 683 N 62.0802 -0.821533 -1.34494 0
M  V30 684 C 63.3292 -0.405355 -1.97585 0
M  V30 685 C 63.6422 1.03677 -1.65863 0
M  V30 686 O 64.8482 1.55679 -2.22433 0
M  V30 687 C 63.3042 -0.673861 -3.53535 0
M  V30 688 C 62.9122 -2.12951 -3.94152 0
M  V30 689 C 64.6562 -0.32378 -4.23263 0
M  V30 690 C 62.5632 -2.34298 -5.43009 0
M  V30 691 H 61.4932 -0.147836 -0.739365 0
M  V30 692 H 64.1442 -1.00769 -1.53355 0
M  V30 693 H 62.5262 -0.00137554 -3.96 0
M  V30 694 H 63.7002 -2.84104 -3.62797 0
M  V30 695 H 62.0152 -2.44089 -3.37356 0
M  V30 696 H 64.6122 -0.461126 -5.32708 0
M  V30 697 H 64.9552 0.731586 -4.09821 0
M  V30 698 H 65.4882 -0.950786 -3.8627 0
M  V30 699 H 62.2272 -3.38335 -5.61435 0
M  V30 700 H 61.7472 -1.67687 -5.75883 0
M  V30 701 H 63.4262 -2.16588 -6.09671 0
M  V30 702 N 63.5583 1.46682 -0.576371 0
M  V30 703 C 64.7833 2.07304 -0.0630475 0
M  V30 704 C 65.2083 1.42329 1.2298 0
M  V30 705 O 64.5663 0.504865 1.74129 0
M  V30 706 C 64.6143 3.60472 0.095895 0
M  V30 707 O 63.7183 3.95927 1.15394 0
M  V30 708 H 63.0593 0.661288 -0.0599463 0
M  V30 709 H 65.5893 1.88417 -0.797511 0
M  V30 710 H 65.5993 4.06865 0.304071 0
M  V30 711 H 64.2743 4.07157 -0.84828 0
M  V30 712 H 62.8513 3.61252 0.924724 0
M  V30 713 N 65.0364 0.313813 1.54444 0
M  V30 714 C 65.9664 -0.549454 2.26943 0
M  V30 715 C 66.9474 -1.12741 1.27372 0
M  V30 716 O 68.1324 -1.15436 1.56167 0
M  V30 717 C 65.2624 -1.71523 3.01989 0
M  V30 718 C 64.2164 -1.26703 4.08816 0
M  V30 719 C 63.5424 -2.51898 4.71647 0
M  V30 720 C 64.8424 -0.388962 5.2085 0
M  V30 721 H 66.5364 0.0552661 2.99349 0
M  V30 722 H 64.0824 0.0280207 1.43973 0
M  V30 723 H 66.0354 -2.32535 3.51433 0
M  V30 724 H 64.7594 -2.34639 2.27183 0
M  V30 725 H 63.4184 -0.679896 3.6024 0
M  V30 726 H 63.0664 -3.13356 3.93468 0
M  V30 727 H 62.7664 -2.22605 5.43802 0
M  V30 728 H 64.2904 -3.1369 5.23861 0
M  V30 729 H 65.7044 -0.905107 5.6611 0
M  V30 730 H 64.1014 -0.18924 5.99802 0
M  V30 731 H 65.1714 0.582699 4.81386 0
M  V30 732 N 66.5145 -1.57545 0.0417849 0
M  V30 733 C 67.4625 -2.12148 -0.953723 0
M  V30 734 C 68.4565 -1.05104 -1.32852 0
M  V30 735 O 69.6625 -1.23524 -1.30927 0
M  V30 736 H 66.0375 -0.677957 -0.325389 0
M  V30 737 H 68.0085 -2.94707 -0.467991 0
M  V30 738 C 66.7575 -2.6739 -2.22257 0
M  V30 739 H 66.0805 -3.49413 -1.94295 0
M  V30 740 H 67.5205 -3.09227 -2.90094 0
M  V30 741 C 65.9795 -1.60723 -2.96091 0
M  V30 742 O 66.5095 -1.01449 -3.88679 0
M  V30 743 N 64.7155 -1.32466 -2.58652 0
M  V30 744 H 64.2625 -1.80856 -1.83437 0
M  V30 745 H 64.2205 -0.61325 -3.08361 0
M  V30 746 N 67.9926 0.231505 -1.5589 0
M  V30 747 C 69.4036 0.799327 -1.68724 0
M  V30 748 C 69.7546 1.85398 -0.642022 0
M  V30 749 O 68.8796 2.1539 0.208784 0
M  V30 750 C 69.4746 1.45664 -3.05888 0
M  V30 751 C 68.0336 1.97197 -3.20609 0
M  V30 752 C 67.1806 0.828552 -2.64632 0
M  V30 753 H 70.1316 0.00702616 -1.58698 0
M  V30 754 H 70.1526 2.32517 -3.01191 0
M  V30 755 H 69.6646 0.688808 -3.81939 0
M  V30 756 H 67.7656 2.76813 -2.4941 0
M  V30 757 H 67.8786 2.15878 -4.27707 0
M  V30 758 H 66.2426 1.23321 -2.22854 0
M  V30 759 H 67.0256 0.0735544 -3.43221 0
M  V30 760 N 69.4707 1.49531 0.497807 0
M  V30 761 C 70.8817 1.52344 1.07927 0
M  V30 762 C 71.2327 0.311469 1.93712 0
M  V30 763 O 70.3577 -0.578405 2.08527 0
M  V30 764 C 70.9527 2.76062 1.96405 0
M  V30 765 C 69.5117 2.81643 2.49709 0
M  V30 766 C 68.6587 2.46299 1.27404 0
M  V30 767 H 71.6097 1.56182 0.281576 0
M  V30 768 H 71.6307 2.56405 2.81135 0
M  V30 769 H 71.1427 3.64254 1.33943 0
M  V30 770 H 69.2437 1.97739 3.15801 0
M  V30 771 H 69.3567 3.83891 2.86643 0
M  V30 772 H 67.7207 1.98148 1.60029 0
M  V30 773 H 68.5037 3.36769 0.66645 0
M  V30 774 N 70.9488 -0.749086 1.3866 0
M  V30 775 C 72.3648 -1.05276 1.19955 0
M  V30 776 C 72.5648 -2.01435 0.05134 0
M  V30 777 O 71.6208 -2.45232 -0.60147 0
M  V30 778 C 72.9338 -1.62853 2.52783 0
M  V30 779 C 74.4818 -1.75002 2.59506 0
M  V30 780 C 74.9568 -2.35991 3.92521 0
M  V30 781 N 76.4478 -2.43416 3.94085 0
M  V30 782 C 77.1828 -2.91511 4.9377 0
M  V30 783 N 76.6788 -3.39608 6.03853 0
M  V30 784 N 78.4718 -2.90592 4.81157 0
M  V30 785 H 70.6228 -0.111066 2.12109 0
M  V30 786 H 72.8858 -0.111901 0.941373 0
M  V30 787 H 72.5918 -0.99664 3.37283 0
M  V30 788 H 72.4658 -2.61854 2.715 0
M  V30 789 H 74.8528 -2.37317 1.75398 0
M  V30 790 H 74.9338 -0.74693 2.44652 0
M  V30 791 H 74.5778 -1.74308 4.77053 0
M  V30 792 H 74.5078 -3.3695 4.04688 0
M  V30 793 H 76.9988 -2.09405 3.14576 0
M  V30 794 H 77.3118 -3.74775 6.75843 0
M  V30 795 H 75.6568 -3.37653 6.07466 0
M  V30 796 H 78.8478 -2.52332 3.94267 0
M  V30 797 H 79.0208 -3.27762 5.58996 0
M  V30 798 N 72.4269 -1.23603 -0.977757 0
M  V30 799 C 73.6669 -1.08148 -1.73446 0
M  V30 800 C 74.0309 0.374785 -1.88307 0
M  V30 801 O 75.2319 0.650588 -2.60808 0
M  V30 802 C 73.5029 -1.78991 -3.0935 0
M  V30 803 S 75.0619 -1.79141 -4.00567 0
M  V30 804 H 71.8799 -0.386987 -0.596458 0
M  V30 805 H 74.4819 -1.5678 -1.16792 0
M  V30 806 H 73.1859 -2.8408 -2.96187 0
M  V30 807 H 72.7169 -1.30651 -3.71071 0
M  V30 808 H 74.7319 -0.851892 -4.88833 0
M  V30 809 N 73.905 1.17692 -1.04816 0
M  V30 810 C 75.133 1.91786 -0.776254 0
M  V30 811 C 75.548 1.76604 0.667577 0
M  V30 812 O 74.905 1.10067 1.45573 0
M  V30 813 C 74.956 3.42967 -1.14263 0
M  V30 814 O 74.677 3.57678 -2.52978 0
M  V30 815 C 76.178 4.34144 -0.896311 0
M  V30 816 H 73.398 0.608624 -0.282519 0
M  V30 817 H 75.942 1.49268 -1.39783 0
M  V30 818 H 74.097 3.83245 -0.565874 0
M  V30 819 H 74.511 4.51319 -2.67229 0
M  V30 820 H 75.985 5.38744 -1.20244 0
M  V30 821 H 76.462 4.38876 0.168636 0
M  V30 822 H 77.068 3.99574 -1.45672 0
M  V30 823 N 75.3831 0.828654 1.34056 0
M  V30 824 C 76.6321 0.415828 1.97367 0
M  V30 825 C 76.9451 -1.02796 1.6641 0
M  V30 826 O 78.1511 -1.54497 2.23255 0
M  V30 827 C 76.6071 0.692601 3.53173 0
M  V30 828 C 76.2151 2.15038 3.93017 0
M  V30 829 C 77.9591 0.346222 4.23086 0
M  V30 830 C 75.8661 2.37174 5.41758 0
M  V30 831 H 74.7961 0.151755 0.738571 0
M  V30 832 H 77.4471 1.01581 1.52819 0
M  V30 833 H 75.8291 0.0223764 3.95994 0
M  V30 834 H 77.0031 2.86024 3.61285 0
M  V30 835 H 75.3181 2.45875 3.36057 0
M  V30 836 H 77.9151 0.48937 5.32456 0
M  V30 837 H 78.2581 -0.709842 4.10204 0
M  V30 838 H 78.7911 0.971258 3.85761 0
M  V30 839 H 75.5301 3.41308 5.59633 0
M  V30 840 H 75.0501 1.70738 5.74986 0
M  V30 841 H 76.7291 2.19818 6.08514 0
M  V30 842 N 76.8612 -1.46375 0.584142 0
M  V30 843 C 77.8242 -2.28784 -0.138108 0
M  V30 844 C 78.8242 -1.38471 -0.817462 0
M  V30 845 O 80.0142 -1.60833 -0.669199 0
M  V30 846 C 77.1462 -3.18892 -1.20503 0
M  V30 847 H 78.3392 -2.94117 0.586127 0
M  V30 848 H 75.8922 -1.52509 0.342171 0
M  V30 849 H 76.6272 -2.58309 -1.96079 0
M  V30 850 H 76.4122 -3.85388 -0.722384 0
M  V30 851 H 77.9022 -3.80914 -1.71155 0
M  V30 852 N 78.3393 -0.321999 -1.54275 0
M  V30 853 C 79.2723 0.58718 -2.20516 0
M  V30 854 C 80.2503 1.11693 -1.18167 0
M  V30 855 O 81.4343 1.18122 -1.46899 0
M  V30 856 C 78.5613 1.80554 -2.86562 0
M  V30 857 C 77.6073 1.40718 -4.02617 0
M  V30 858 S 78.4403 0.445218 -5.33646 0
M  V30 859 C 79.5963 1.6709 -6.03185 0
M  V30 860 H 79.8293 0.0244875 -2.9729 0
M  V30 861 H 77.3623 -0.106087 -1.54035 0
M  V30 862 H 79.3203 2.50462 -3.25237 0
M  V30 863 H 77.9813 2.33942 -2.09595 0
M  V30 864 H 77.1743 2.31501 -4.47687 0
M  V30 865 H 76.7763 0.78782 -3.65608 0
M  V30 866 H 79.0683 2.60856 -6.25268 0
M  V30 867 H 80.0113 1.26239 -6.96756 0
M  V30 868 H 80.4193 1.85716 -5.33076 0
M  V30 869 N 79.8174 1.5752 -0.0501392 0
M  V30 870 C 81.2334 1.56631 0.306402 0
M  V30 871 C 81.4334 1.0577 1.71508 0
M  V30 872 O 80.4894 0.713837 2.422 0
M  V30 873 C 81.8024 3.00393 0.135811 0
M  V30 874 C 83.3504 3.12315 0.206993 0
M  V30 875 C 83.8254 4.57954 0.064944 0
M  V30 876 N 85.3164 4.63041 0.121254 0
M  V30 877 C 86.0514 5.73389 0.0354381 0
M  V30 878 N 85.5474 6.92724 -0.102666 0
M  V30 879 N 87.3404 5.62026 0.090946 0
M  V30 880 H 79.4914 1.88903 -0.971046 0
M  V30 881 H 81.7544 0.869876 -0.376855 0
M  V30 882 H 81.4604 3.41635 -0.835384 0
M  V30 883 H 81.3344 3.66373 0.897275 0
M  V30 884 H 83.7214 2.70973 1.16866 0
M  V30 885 H 83.8024 2.49016 -0.585208 0
M  V30 886 H 83.4464 4.99981 -0.893394 0
M  V30 887 H 83.3764 5.19258 0.876277 0
M  V30 888 H 85.8674 3.77216 0.227284 0
M  V30 889 H 86.1804 7.72633 -0.160882 0
M  V30 890 H 84.5254 6.94864 -0.137737 0
M  V30 891 H 87.7164 4.67684 0.197388 0
M  V30 892 H 87.8894 6.47997 0.0206089 0
M  V30 893 N 81.2955 -0.223234 1.56011 0
M  V30 894 C 82.2585 -1.26014 1.9145 0
M  V30 895 C 83.2585 -1.3989 0.792937 0
M  V30 896 O 84.4485 -1.38184 1.0607 0
M  V30 897 C 81.5805 -2.63422 2.16383 0
M  V30 898 H 82.7735 -0.95796 2.84189 0
M  V30 899 H 80.3265 -0.463576 1.49267 0
M  V30 900 H 81.0615 -2.98741 1.2619 0
M  V30 901 H 80.8465 -2.54728 2.98088 0
M  V30 902 H 82.3365 -3.38249 2.44903 0
M  V30 903 N 82.7736 -1.49793 -0.48987 0
M  V30 904 C 84.0226 -1.59085 -1.23995 0
M  V30 905 C 84.3356 -0.287907 -1.9347 0
M  V30 906 O 85.5416 -0.259506 -2.70257 0
M  V30 907 C 83.9976 -2.80736 -2.252 0
M  V30 908 C 83.6056 -4.17833 -1.61614 0
M  V30 909 C 85.3496 -2.99364 -3.00967 0
M  V30 910 C 83.2566 -5.30693 -2.60996 0
M  V30 911 H 82.1866 -0.592372 -0.466488 0
M  V30 912 H 84.8376 -1.76197 -0.51252 0
M  V30 913 H 83.2196 -2.57142 -3.01154 0
M  V30 914 H 84.3936 -4.51608 -0.915774 0
M  V30 915 H 82.7086 -4.04656 -0.981977 0
M  V30 916 H 85.3056 -3.80851 -3.75308 0
M  V30 917 H 85.6486 -2.10356 -3.59244 0
M  V30 918 H 86.1816 -3.2305 -2.32128 0
M  V30 919 H 82.9206 -6.21796 -2.07485 0
M  V30 920 H 82.4406 -5.01359 -3.2924 0
M  V30 921 H 84.1196 -5.6049 -3.23202 0
M  V30 922 N 84.2517 0.741722 -1.39055 0
M  V30 923 C 85.1997 1.87702 -1.3737 0
M  V30 924 C 86.1937 1.67427 -0.257812 0
M  V30 925 O 87.3997 1.7485 -0.427489 0
M  V30 926 H 83.7747 0.617757 -0.428812 0
M  V30 927 H 85.7457 1.86239 -2.33147 0
M  V30 928 C 84.4947 3.25315 -1.22741 0
M  V30 929 H 83.8177 3.41509 -2.07873 0
M  V30 930 H 85.2577 4.04964 -1.25618 0
M  V30 931 C 83.7167 3.36838 0.0647316 0
M  V30 932 O 84.2467 3.88073 1.03741 0
M  V30 933 N 82.4527 2.90329 0.125544 0
M  V30 934 H 81.9997 2.48823 -0.666682 0
M  V30 935 H 81.9577 2.98418 0.989639 0
M  V30 936 N 85.7298 1.2412 0.971189 0
M  V30 937 C 86.6778 1.02812 2.08644 0
M  V30 938 C 87.6718 -0.0358403 1.69362 0
M  V30 939 O 88.8778 0.118429 1.7961 0
M  V30 940 H 85.2528 0.315428 0.682649 0
M  V30 941 H 87.2238 1.97397 2.23779 0
M  V30 942 C 85.9728 0.645874 3.41649 0
M  V30 943 H 85.2958 1.45632 3.72332 0
M  V30 944 H 86.7358 0.536366 4.20594 0
M  V30 945 C 85.1948 -0.646713 3.30635 0
M  V30 946 O 85.7248 -1.69338 3.64263 0
M  V30 947 N 83.9308 -0.626115 2.83775 0
M  V30 948 H 83.4778 0.225988 2.56607 0
M  V30 949 H 83.4358 -1.49117 2.76788 0
M  V30 950 N 87.2079 -1.17134 1.05439 0
M  V30 951 C 88.4379 -1.91094 0.785274 0
M  V30 952 C 88.8459 -1.77198 -0.663142 0
M  V30 953 O 88.1889 -1.10835 -1.46497 0
M  V30 954 C 88.2509 -3.42594 1.08949 0
M  V30 955 C 87.9149 -3.80274 2.53458 0
M  V30 956 C 88.9119 -3.82912 3.51673 0
M  V30 957 C 86.5969 -4.11162 2.88532 0
M  V30 958 C 88.5909 -4.15913 4.83006 0
M  V30 959 C 86.2779 -4.43831 4.20068 0
M  V30 960 C 87.2759 -4.46185 5.17115 0
M  V30 961 O 86.9639 -4.78083 6.46291 0
M  V30 962 H 86.6959 -0.613073 0.284811 0
M  V30 963 H 89.2499 -1.49461 1.40893 0
M  V30 964 H 87.4799 -3.84534 0.408741 0
M  V30 965 H 89.1689 -3.97817 0.805991 0
M  V30 966 H 89.9349 -3.5917 3.25917 0
M  V30 967 H 85.8139 -4.085 2.13656 0
M  V30 968 H 89.3579 -4.17665 5.5875 0
M  V30 969 H 85.2549 -4.67037 4.45586 0
M  V30 970 H 86.0229 -4.9593 6.51149 0
M  V30 971 N 88.686 -0.835752 -1.33615 0
M  V30 972 C 90.102 -0.523139 -1.50783 0
M  V30 973 C 90.302 0.950171 -1.77691 0
M  V30 974 O 89.358 1.73411 -1.83534 0
M  V30 975 C 90.671 -1.39378 -2.66448 0
M  V30 976 C 92.219 -1.39223 -2.80332 0
M  V30 977 C 92.694 -2.24765 -3.99055 0
M  V30 978 N 94.185 -2.22458 -4.06284 0
M  V30 979 C 94.92 -2.85386 -4.97336 0
M  V30 980 N 94.416 -3.57354 -5.93523 0
M  V30 981 N 96.209 -2.74872 -4.90308 0
M  V30 982 H 88.36 -1.78952 -1.14411 0
M  V30 983 H 90.623 -0.763297 -0.562212 0
M  V30 984 H 90.329 -2.44061 -2.53234 0
M  V30 985 H 90.203 -1.0676 -3.61776 0
M  V30 986 H 92.59 -0.353136 -2.92979 0
M  V30 987 H 92.671 -1.75846 -1.85773 0
M  V30 988 H 92.315 -3.28732 -3.87167 0
M  V30 989 H 92.245 -1.85485 -4.92852 0
M  V30 990 H 94.736 -1.70119 -3.37443 0
M  V30 991 H 95.049 -4.02584 -6.59656 0
M  V30 992 H 93.394 -3.61461 -5.93608 0
M  V30 993 H 96.585 -2.18213 -4.14126 0
M  V30 994 H 96.758 -3.24199 -5.61069 0
M  V30 995 N 90.1641 1.46063 -0.591896 0
M  V30 996 C 91.4101 2.03203 -0.0894879 0
M  V30 997 C 91.7651 1.45407 1.25994 0
M  V30 998 O 91.0581 0.61326 1.8152 0
M  V30 999 C 91.2521 3.57391 0.0249813 0
M  V30 1000 C 91.0811 4.30142 -1.3118 0
M  V30 1001 C 89.8511 4.68688 -1.88838 0
M  V30 1002 C 92.0491 4.63098 -2.23708 0
M  V30 1003 N 90.0311 5.26228 -3.1616 0
M  V30 1004 C 91.4021 5.21305 -3.3562 0
M  V30 1005 C 93.4571 4.45031 -2.23274 0
M  V30 1006 C 92.1601 5.63351 -4.47245 0
M  V30 1007 C 94.1861 4.881 -3.33935 0
M  V30 1008 C 93.5481 5.46386 -4.44569 0
M  V30 1009 H 89.6471 0.778323 -0.0757431 0
M  V30 1010 H 92.2311 1.78094 -0.78681 0
M  V30 1011 H 90.4021 3.82195 0.69149 0
M  V30 1012 H 92.1341 4.0118 0.532613 0
M  V30 1013 H 88.8891 4.5174 -1.42223 0
M  V30 1014 H 89.3131 5.59512 -3.8115 0
M  V30 1015 H 93.9551 3.99295 -1.39008 0
M  V30 1016 H 91.6731 6.08061 -5.32247 0
M  V30 1017 H 95.2591 4.75866 -3.34728 0
M  V30 1018 H 94.1391 5.79102 -5.28782 0
M  V30 1019 N 91.6422 0.330177 1.54103 0
M  V30 1020 C 93.0582 -0.0222371 1.59585 0
M  V30 1021 C 93.2582 -1.49902 1.34654 0
M  V30 1022 O 92.3142 -2.25592 1.13421 0
M  V30 1023 C 93.6272 0.401932 2.98002 0
M  V30 1024 C 95.1752 0.353145 3.11001 0
M  V30 1025 C 95.6502 0.752576 4.51775 0
M  V30 1026 N 97.1412 0.706239 4.57784 0
M  V30 1027 C 97.8762 0.987417 5.64834 0
M  V30 1028 N 97.3722 1.33607 6.79795 0
M  V30 1029 N 99.1652 0.91254 5.54643 0
M  V30 1030 H 91.3162 1.29228 1.68564 0
M  V30 1031 H 93.5792 0.525906 0.78875 0
M  V30 1032 H 93.2852 1.4311 3.21267 0
M  V30 1033 H 93.1592 -0.229699 3.765 0
M  V30 1034 H 95.5462 -0.666822 2.87467 0
M  V30 1035 H 95.6272 1.0198 2.34593 0
M  V30 1036 H 95.2712 1.77049 4.76042 0
M  V30 1037 H 95.2012 0.0635409 5.26562 0
M  V30 1038 H 97.6922 0.44889 3.75224 0
M  V30 1039 H 98.0052 1.53582 7.57385 0
M  V30 1040 H 96.3502 1.37439 6.81275 0
M  V30 1041 H 99.5412 0.639601 4.6371 0
M  V30 1042 H 99.7142 1.13503 6.37982 0
M  V30 1043 N 93.1203 -1.57491 0.0584922 0
M  V30 1044 C 94.3603 -1.94851 -0.617458 0
M  V30 1045 C 94.7243 -0.937165 -1.67575 0
M  V30 1046 O 95.9253 -1.19795 -2.40629 0
M  V30 1047 C 94.1963 -3.36955 -1.19147 0
M  V30 1048 S 95.7553 -3.96277 -1.8844 0
M  V30 1049 H 92.5733 -0.681539 -0.202547 0
M  V30 1050 H 95.1753 -1.95073 0.129176 0
M  V30 1051 H 93.8793 -4.08355 -0.409215 0
M  V30 1052 H 93.4103 -3.40245 -1.97476 0
M  V30 1053 H 95.4253 -3.82099 -3.16568 0
M  V30 1054 N 94.5984 0.214957 -1.56127 0
M  V30 1055 C 95.5454 1.26642 -1.92952 0
M  V30 1056 C 96.5154 1.46244 -0.78753 0
M  V30 1057 O 97.7004 1.59704 -1.04399 0
M  V30 1058 C 94.8404 2.6104 -2.25726 0
M  V30 1059 C 93.9534 2.49183 -3.52891 0
M  V30 1060 C 93.0884 3.76149 -3.7508 0
M  V30 1061 C 92.1274 3.59041 -4.95738 0
M  V30 1062 N 91.2644 4.77972 -5.14283 0
M  V30 1063 H 96.1044 0.945384 -2.82607 0
M  V30 1064 H 93.6414 0.455489 -1.3987 0
M  V30 1065 H 95.5994 3.39313 -2.42739 0
M  V30 1066 H 94.2294 2.91227 -1.39236 0
M  V30 1067 H 93.2814 1.6231 -3.44034 0
M  V30 1068 H 94.5934 2.32466 -4.41318 0
M  V30 1069 H 93.7474 4.62865 -3.92226 0
M  V30 1070 H 92.4864 3.95799 -2.84947 0
M  V30 1071 H 91.4914 2.7071 -4.78535 0
M  V30 1072 H 92.7164 3.40856 -5.87362 0
M  V30 1073 H 90.6624 4.97923 -4.27093 0
M  V30 1074 H 90.5794 4.64006 -5.96853 0
M  V30 1075 H 91.8474 5.66096 -5.35869 0
M  V30 1076 N 96.0765 1.50051 0.48192 0
M  V30 1077 C 97.0245 1.68635 1.60203 0
M  V30 1078 C 98.0185 0.552184 1.60148 0
M  V30 1079 O 99.2245 0.732377 1.64427 0
M  V30 1080 H 95.5995 0.532081 0.531407 0
M  V30 1081 H 97.5705 2.62616 1.41688 0
M  V30 1082 C 96.3195 1.78775 2.9822 0
M  V30 1083 H 95.6425 2.6543 2.98976 0
M  V30 1084 H 97.0825 1.95806 3.7608 0
M  V30 1085 C 95.5415 0.536849 3.32595 0
M  V30 1086 O 96.0715 -0.328897 4.00351 0
M  V30 1087 N 94.2775 0.394091 2.87915 0
M  V30 1088 H 93.8245 1.09962 2.32951 0
M  V30 1089 H 93.7825 -0.441737 3.11281 0
M  V30 1090 N 97.5546 -0.734337 1.39446 0
M  V30 1091 C 98.4866 -1.85861 1.34121 0
M  V30 1092 C 99.4996 -1.60871 0.249864 0
M  V30 1093 O 100.689 -1.71093 0.508865 0
M  V30 1094 C 97.7886 -3.21899 1.05991 0
M  V30 1095 C 96.9616 -3.74239 2.26415 0
M  V30 1096 C 96.0206 -4.88841 1.94733 0
M  V30 1097 O 95.0466 -5.02468 2.67422 0
M  V30 1098 N 96.2486 -5.73261 0.913884 0
M  V30 1099 H 99.0136 -1.90934 2.31007 0
M  V30 1100 H 96.5746 -0.915102 1.33557 0
M  V30 1101 H 98.5666 -3.96136 0.828147 0
M  V30 1102 H 97.1366 -3.12091 0.178361 0
M  V30 1103 H 96.3566 -2.91347 2.65539 0
M  V30 1104 H 97.6446 -4.05942 3.06738 0
M  V30 1105 H 97.0426 -5.64842 0.311476 0
M  V30 1106 H 95.5996 -6.47563 0.742015 0
M  V30 1107 N 99.0327 -1.24633 -0.964593 0
M  V30 1108 C 99.9807 -1.03917 -2.08096 0
M  V30 1109 C 100.975 0.0268581 -1.69379 0
M  V30 1110 O 102.181 -0.127952 -1.79545 0
M  V30 1111 H 98.5557 -0.319044 -0.680966 0
M  V30 1112 H 100.527 -1.98581 -2.22729 0
M  V30 1113 C 99.2757 -0.663983 -3.41301 0
M  V30 1114 H 98.5987 -1.47605 -3.71555 0
M  V30 1115 H 100.039 -0.558663 -4.20303 0
M  V30 1116 C 98.4977 0.629169 -3.30973 0
M  V30 1117 O 99.0277 1.67404 -3.65156 0
M  V30 1118 N 97.2337 0.611057 -2.84103 0
M  V30 1119 H 96.7807 -0.239593 -2.56483 0
M  V30 1120 H 96.7387 1.47647 -2.77575 0
M  V30 1121 N 100.511 1.16574 -1.06058 0
M  V30 1122 C 101.739 1.90952 -0.796552 0
M  V30 1123 C 102.154 1.77302 0.648808 0
M  V30 1124 O 101.511 1.11605 1.44397 0
M  V30 1125 C 101.562 3.41736 -1.17894 0
M  V30 1126 O 101.283 3.54975 -2.56758 0
M  V30 1127 C 102.784 4.33169 -0.942308 0
M  V30 1128 H 100.004 0.605594 -0.288959 0
M  V30 1129 H 102.548 1.47777 -1.41358 0
M  V30 1130 H 100.703 3.82623 -0.606491 0
M  V30 1131 H 101.117 4.4846 -2.72 0
M  V30 1132 H 102.591 5.37439 -1.25952 0
M  V30 1133 H 103.068 4.3903 0.122078 0
M  V30 1134 H 103.674 3.98007 -1.49902 0
M  V30 1135 N 101.989 0.842826 1.3317 0
M  V30 1136 C 103.236 0.440447 1.97652 0
M  V30 1137 C 103.564 -1.00123 1.6675 0
M  V30 1138 O 102.819 -1.7155 0.941761 0
M  V30 1139 C 103.118 0.612607 3.52111 0
M  V30 1140 C 102.784 2.02297 4.02972 0
M  V30 1141 C 101.446 2.40874 4.16573 0
M  V30 1142 C 103.798 2.94402 4.30089 0
M  V30 1143 C 101.126 3.70852 4.54627 0
M  V30 1144 C 103.478 4.23865 4.69597 0
M  V30 1145 C 102.142 4.62392 4.81404 0
M  V30 1146 H 101.412 0.161171 0.72326 0
M  V30 1147 H 104.059 1.07061 1.58777 0
M  V30 1148 H 102.364 -0.100849 3.9167 0
M  V30 1149 H 104.061 0.2815 4.00011 0
M  V30 1150 H 100.651 1.71338 3.92863 0
M  V30 1151 H 104.835 2.65835 4.19101 0
M  V30 1152 H 100.091 4.00501 4.61962 0
M  V30 1153 H 104.265 4.95306 4.89536 0
M  V30 1154 H 101.892 5.63154 5.10648 0
M  V30 1155 N 103.467 -1.45747 0.599634 0
M  V30 1156 C 104.397 -2.33235 -0.111306 0
M  V30 1157 C 105.378 -1.46359 -0.866781 0
M  V30 1158 O 106.563 -1.75146 -0.838904 0
M  V30 1159 C 103.693 -3.28932 -1.11451 0
M  V30 1160 C 102.647 -4.25381 -0.472772 0
M  V30 1161 C 101.973 -5.1071 -1.58365 0
M  V30 1162 C 103.273 -5.18831 0.600948 0
M  V30 1163 H 104.967 -2.92927 0.61919 0
M  V30 1164 H 102.513 -1.40857 0.299215 0
M  V30 1165 H 104.466 -3.89002 -1.62036 0
M  V30 1166 H 103.19 -2.67381 -1.8755 0
M  V30 1167 H 101.849 -3.66598 0.0121472 0
M  V30 1168 H 101.497 -4.45533 -2.33473 0
M  V30 1169 H 101.197 -5.7604 -1.15982 0
M  V30 1170 H 102.721 -5.73647 -2.09194 0
M  V30 1171 H 104.135 -5.73019 0.179491 0
M  V30 1172 H 102.532 -5.92595 0.946076 0
M  V30 1173 H 103.602 -4.6174 1.48068 0
M  V30 1174 N 104.945 -0.338344 -1.53925 0
M  V30 1175 C 106.361 0.0137736 -1.59594 0
M  V30 1176 C 106.561 1.49186 -1.35447 0
M  V30 1177 O 105.617 2.24987 -1.14616 0
M  V30 1178 C 106.93 -0.41773 -2.97784 0
M  V30 1179 C 108.478 -0.369633 -3.1081 0
M  V30 1180 C 108.953 -0.776524 -4.51369 0
M  V30 1181 N 110.444 -0.730506 -4.57403 0
M  V30 1182 C 111.179 -1.01736 -5.64303 0
M  V30 1183 N 110.675 -1.3721 -6.79077 0
M  V30 1184 N 112.468 -0.941942 -5.54151 0
M  V30 1185 H 104.619 -1.3012 -1.67876 0
M  V30 1186 H 106.882 -0.530082 -0.78595 0
M  V30 1187 H 106.588 -1.44811 -3.20504 0
M  V30 1188 H 106.462 0.209729 -3.76616 0
M  V30 1189 H 108.849 0.651568 -2.87817 0
M  V30 1190 H 108.93 -1.03223 -2.34049 0
M  V30 1191 H 108.574 -1.79571 -4.75096 0
M  V30 1192 H 108.504 -0.0914649 -5.26521 0
M  V30 1193 H 110.995 -0.468783 -3.74981 0
M  V30 1194 H 111.308 -1.57597 -7.5656 0
M  V30 1195 H 109.653 -1.4105 -6.80536 0
M  V30 1196 H 112.844 -0.664184 -4.63364 0
M  V30 1197 H 113.017 -1.16884 -6.37371 0
M  V30 1198 N 106.423 1.57458 -0.0668435 0
M  V30 1199 C 107.651 1.97624 0.612565 0
M  V30 1200 C 108.066 0.94502 1.63447 0
M  V30 1201 O 107.423 -0.0689276 1.8237 0
M  V30 1202 C 107.474 3.37869 1.28555 0
M  V30 1203 O 107.195 4.3704 0.304557 0
M  V30 1204 C 108.696 3.92882 2.05325 0
M  V30 1205 H 105.916 0.650045 0.166381 0
M  V30 1206 H 108.46 2.04035 -0.137782 0
M  V30 1207 H 106.615 3.3256 1.98702 0
M  V30 1208 H 107.029 5.18565 0.786779 0
M  V30 1209 H 108.503 4.93247 2.47812 0
M  V30 1210 H 108.98 3.29156 2.9078 0
M  V30 1211 H 109.586 4.01577 1.40056 0
M  V30 1212 N 107.901 -0.206675 1.56239 0
M  V30 1213 C 109.129 -0.945345 1.8404 0
M  V30 1214 C 109.544 -1.77336 0.647885 0
M  V30 1215 O 108.901 -1.78425 -0.383511 0
M  V30 1216 C 108.952 -1.8509 3.10522 0
M  V30 1217 O 108.673 -1.05634 4.25174 0
M  V30 1218 C 110.174 -2.70222 3.51418 0
M  V30 1219 H 107.394 -0.276372 0.61144 0
M  V30 1220 H 109.938 -0.217417 2.03341 0
M  V30 1221 H 108.093 -2.53259 2.93153 0
M  V30 1222 H 108.507 -1.67238 4.97124 0
M  V30 1223 H 109.981 -3.29438 4.42916 0
M  V30 1224 H 110.458 -3.43358 2.73864 0
M  V30 1225 H 111.064 -2.07443 3.71278 0
M  V30 1226 N 109.379 -1.50304 -0.473955 0
M  V30 1227 C 110.626 -1.6115 -1.22625 0
M  V30 1228 C 110.954 -0.310517 -1.92005 0
M  V30 1229 O 110.209 0.703419 -1.82621 0
M  V30 1230 C 110.508 -2.73938 -2.29549 0
M  V30 1231 C 110.174 -4.14519 -1.7744 0
M  V30 1232 C 108.836 -4.5277 -1.62949 0
M  V30 1233 C 111.188 -5.02392 -1.3875 0
M  V30 1234 C 108.516 -5.76639 -1.08187 0
M  V30 1235 C 110.868 -6.26805 -0.854309 0
M  V30 1236 C 109.532 -6.63861 -0.696011 0
M  V30 1237 H 108.802 -0.589691 -0.448715 0
M  V30 1238 H 111.449 -1.84228 -0.522705 0
M  V30 1239 H 109.754 -2.44937 -3.05799 0
M  V30 1240 H 111.451 -2.79534 -2.87509 0
M  V30 1241 H 108.041 -3.8434 -1.89685 0
M  V30 1242 H 112.225 -4.73474 -1.4878 0
M  V30 1243 H 107.481 -6.04027 -0.946666 0
M  V30 1244 H 111.655 -6.94258 -0.545843 0
M  V30 1245 H 109.282 -7.59722 -0.26952 0
M  V30 1246 N 110.857 0.726932 -1.39834 0
M  V30 1247 C 111.82 1.82269 -1.38962 0
M  V30 1248 C 112.82 1.58248 -0.285334 0
M  V30 1249 O 114.01 1.65499 -0.54366 0
M  V30 1250 C 111.142 3.20186 -1.17019 0
M  V30 1251 H 112.335 1.84443 -2.36476 0
M  V30 1252 H 109.888 0.931416 -1.25516 0
M  V30 1253 H 110.623 3.23669 -0.202204 0
M  V30 1254 H 110.408 3.3902 -1.96998 0
M  V30 1255 H 111.898 4.00235 -1.1917 0
M  V30 1256 N 112.336 1.25143 0.95797 0
M  V30 1257 C 113.284 1.05019 2.07542 0
M  V30 1258 C 114.278 -0.0178751 1.69391 0
M  V30 1259 O 115.484 0.137472 1.79474 0
M  V30 1260 H 111.859 0.32265 0.679265 0
M  V30 1261 H 113.83 1.99759 2.21673 0
M  V30 1262 C 112.579 0.682074 3.40944 0
M  V30 1263 H 111.902 1.49573 3.70767 0
M  V30 1264 H 113.342 0.580945 4.20001 0
M  V30 1265 C 111.801 -0.611608 3.31302 0
M  V30 1266 O 112.331 -1.65465 3.66038 0
M  V30 1267 N 110.537 -0.595982 2.84423 0
M  V30 1268 H 110.084 0.253192 2.56353 0
M  V30 1269 H 110.042 -1.46173 2.78354 0
M  V30 1270 N 113.814 -1.1601 1.06675 0
M  V30 1271 C 115.06 -1.86909 0.786945 0
M  V30 1272 C 115.393 -1.81717 -0.685018 0
M  V30 1273 O 114.668 -1.23551 -1.50218 0
M  V30 1274 C 114.951 -3.36313 1.28707 0
M  V30 1275 C 114.804 -3.50175 2.82308 0
M  V30 1276 C 116.123 -4.3084 0.898071 0
M  V30 1277 H 113.242 -0.678677 0.287343 0
M  V30 1278 H 115.884 -1.36336 1.32334 0
M  V30 1279 H 114.034 -3.79513 0.830768 0
M  V30 1280 H 115.706 -3.15886 3.36175 0
M  V30 1281 H 113.949 -2.91959 3.20847 0
M  V30 1282 H 114.62 -4.55116 3.12368 0
M  V30 1283 H 117.096 -3.95561 1.29114 0
M  V30 1284 H 115.972 -5.33876 1.27543 0
M  V30 1285 H 116.233 -4.41662 -0.196651 0
M  V30 1286 N 115.292 -0.849877 -1.32721 0
M  V30 1287 C 116.538 -0.451591 -1.97708 0
M  V30 1288 C 116.871 0.989175 -1.6712 0
M  V30 1289 O 116.146 1.69334 -0.956891 0
M  V30 1290 C 116.429 -0.685598 -3.53513 0
M  V30 1291 C 116.282 -2.17444 -3.93749 0
M  V30 1292 C 117.601 -0.138874 -4.39881 0
M  V30 1293 H 114.72 -0.16555 -0.718166 0
M  V30 1294 H 117.362 -1.06742 -1.57182 0
M  V30 1295 H 115.512 -0.161416 -3.88165 0
M  V30 1296 H 117.184 -2.76433 -3.693 0
M  V30 1297 H 115.427 -2.65476 -3.43081 0
M  V30 1298 H 116.098 -2.28888 -5.02309 0
M  V30 1299 H 118.574 -0.587068 -4.11938 0
M  V30 1300 H 117.45 -0.332213 -5.47894 0
M  V30 1301 H 117.711 0.95806 -4.31594 0
M  V30 1302 N 116.77 1.45427 -0.607355 0
M  V30 1303 C 117.718 2.32269 0.12411 0
M  V30 1304 C 118.712 1.45955 0.859854 0
M  V30 1305 O 119.918 1.6244 0.775447 0
M  V30 1306 H 116.293 0.749691 0.0588839 0
M  V30 1307 H 118.264 2.91743 -0.626762 0
M  V30 1308 C 117.013 3.29567 1.1082 0
M  V30 1309 H 116.336 3.95978 0.551492 0
M  V30 1310 H 117.776 3.93061 1.58995 0
M  V30 1311 C 116.235 2.56722 2.18164 0
M  V30 1312 O 116.765 2.34842 3.25902 0
M  V30 1313 N 114.971 2.16861 1.93442 0
M  V30 1314 H 114.518 2.34855 1.05834 0
M  V30 1315 H 114.476 1.68444 2.65469 0
M  V30 1316 N 118.248 0.346503 1.53744 0
M  V30 1317 C 119.494 -0.249473 2.0126 0
M  V30 1318 C 119.827 -1.49965 1.23386 0
M  V30 1319 O 119.102 -1.91811 0.32229 0
M  V30 1320 C 119.385 -0.560643 3.55709 0
M  V30 1321 C 119.238 0.701836 4.44291 0
M  V30 1322 C 120.557 -1.36905 4.18264 0
M  V30 1323 H 117.676 -0.0891987 0.731582 0
M  V30 1324 H 120.318 0.467624 1.84156 0
M  V30 1325 H 118.468 -1.17156 3.70414 0
M  V30 1326 H 120.14 1.33974 4.41417 0
M  V30 1327 H 118.383 1.32612 4.13033 0
M  V30 1328 H 119.054 0.43933 5.50249 0
M  V30 1329 H 121.53 -0.852448 4.07275 0
M  V30 1330 H 120.406 -1.55553 5.26398 0
M  V30 1331 H 120.667 -2.37203 3.73078 0
M  V30 1332 N 119.726 -1.57421 0.075193 0
M  V30 1333 C 120.966 -1.95495 -0.596757 0
M  V30 1334 C 121.33 -0.954886 -1.66571 0
M  V30 1335 O 122.531 -1.22341 -2.39345 0
M  V30 1336 C 120.802 -3.382 -1.15566 0
M  V30 1337 S 122.361 -3.98254 -1.84226 0
M  V30 1338 H 119.179 -0.683649 -0.195307 0
M  V30 1339 H 121.781 -1.94925 0.149859 0
M  V30 1340 H 120.485 -4.08766 -0.36588 0
M  V30 1341 H 120.016 -3.42321 -1.93856 0
M  V30 1342 H 122.031 -3.85435 -3.12497 0
M  V30 1343 N 121.204 0.198386 -1.56346 0
M  V30 1344 C 122.452 0.91747 -1.80075 0
M  V30 1345 C 122.773 1.83929 -0.647692 0
M  V30 1346 O 122.043 1.93029 0.334166 0
M  V30 1347 H 120.623 0.341774 -0.664228 0
M  V30 1348 H 123.285 0.204684 -1.93822 0
M  V30 1349 H 122.381 1.51055 -2.7311 0
M  V30 1350 N 122.682 1.50554 0.465978 0
M  V30 1351 C 123.63 1.70324 1.58406 0
M  V30 1352 C 124.624 0.569139 1.59553 0
M  V30 1353 O 125.83 0.749776 1.63641 0
M  V30 1354 H 122.205 0.537688 0.525734 0
M  V30 1355 H 124.176 2.64104 1.38894 0
M  V30 1356 C 122.925 1.81928 2.96307 0
M  V30 1357 H 122.248 2.68586 2.96144 0
M  V30 1358 H 123.688 1.99784 3.73982 0
M  V30 1359 C 122.147 0.572095 3.32007 0
M  V30 1360 O 122.677 -0.286416 4.00678 0
M  V30 1361 N 120.883 0.424606 2.87481 0
M  V30 1362 H 120.43 1.12427 2.31771 0
M  V30 1363 H 120.388 -0.408697 3.11732 0
M  V30 1364 N 124.16 -0.719506 1.40217 0
M  V30 1365 C 125.092 -1.84428 1.36084 0
M  V30 1366 C 126.105 -1.60597 0.266913 0
M  V30 1367 O 127.294 -1.70544 0.526983 0
M  V30 1368 C 124.394 -3.20757 1.094 0
M  V30 1369 C 123.567 -3.71817 2.30372 0
M  V30 1370 C 122.626 -4.86748 1.99907 0
M  V30 1371 O 121.652 -4.99603 2.72737 0
M  V30 1372 N 122.854 -5.7226 0.974635 0
M  V30 1373 H 125.619 -1.88473 2.33019 0
M  V30 1374 H 123.18 -0.900885 1.3452 0
M  V30 1375 H 125.172 -3.95235 0.870116 0
M  V30 1376 H 123.742 -3.11884 0.211452 0
M  V30 1377 H 122.962 -2.88514 2.68614 0
M  V30 1378 H 124.25 -4.02666 3.11026 0
M  V30 1379 H 123.648 -5.6448 0.371368 0
M  V30 1380 H 122.205 -6.46739 0.810656 0
M  V30 1381 N 125.638 -1.25649 -0.95132 0
M  V30 1382 C 126.863 -1.13443 -1.73624 0
M  V30 1383 C 127.288 0.307565 -1.85568 0
M  V30 1384 O 126.646 1.22282 -1.33854 0
M  V30 1385 C 126.694 -1.79723 -3.12621 0
M  V30 1386 O 125.798 -1.07912 -3.98031 0
M  V30 1387 H 125.139 -0.395872 -0.533086 0
M  V30 1388 H 127.669 -1.66276 -1.1922 0
M  V30 1389 H 127.679 -1.86141 -3.63064 0
M  V30 1390 H 126.354 -2.84633 -3.03244 0
M  V30 1391 H 124.931 -1.09398 -3.56492 0
M  V30 1392 N 127.117 1.15442 -1.07289 0
M  V30 1393 C 128.366 1.85557 -0.790669 0
M  V30 1394 C 128.679 1.83186 0.685739 0
M  V30 1395 O 129.885 2.48977 1.0827 0
M  V30 1396 C 128.341 3.33038 -1.36433 0
M  V30 1397 C 127.949 3.43856 -2.8717 0
M  V30 1398 C 129.693 4.0834 -1.1601 0
M  V30 1399 C 127.6 4.85482 -3.3773 0
M  V30 1400 H 126.53 0.695122 -0.292098 0
M  V30 1401 H 129.181 1.30219 -1.29287 0
M  V30 1402 H 127.563 3.88043 -0.789864 0
M  V30 1403 H 128.737 2.98961 -3.50655 0
M  V30 1404 H 127.052 2.81998 -3.06376 0
M  V30 1405 H 129.649 5.12859 -1.51262 0
M  V30 1406 H 129.992 4.16182 -0.0991007 0
M  V30 1407 H 130.525 3.59603 -1.70089 0
M  V30 1408 H 127.264 4.82823 -4.43353 0
M  V30 1409 H 126.784 5.30961 -2.78999 0
M  V30 1410 H 128.463 5.54335 -3.33648 0
M  V30 1411 N 128.595 0.856903 1.32268 0
M  V30 1412 C 130.011 0.547061 1.49931 0
M  V30 1413 C 130.211 -0.921781 1.7918 0
M  V30 1414 O 129.267 -1.70469 1.8627 0
M  V30 1415 C 130.58 1.43599 2.64196 0
M  V30 1416 C 132.128 1.43665 2.78081 0
M  V30 1417 C 132.603 2.31085 3.95428 0
M  V30 1418 N 134.094 2.28893 4.02694 0
M  V30 1419 C 134.829 2.93262 4.92732 0
M  V30 1420 N 134.325 3.66751 5.87763 0
M  V30 1421 N 136.118 2.82638 4.85873 0
M  V30 1422 H 128.269 1.8075 1.11549 0
M  V30 1423 H 130.532 0.772144 0.549997 0
M  V30 1424 H 130.238 2.48058 2.49319 0
M  V30 1425 H 130.112 1.12502 3.60032 0
M  V30 1426 H 132.499 0.399701 2.92381 0
M  V30 1427 H 132.58 1.7878 1.82952 0
M  V30 1428 H 132.224 3.34849 3.81888 0
M  V30 1429 H 132.154 1.93302 4.89839 0
M  V30 1430 H 134.645 1.75466 3.34694 0
M  V30 1431 H 134.958 4.13027 6.53168 0
M  V30 1432 H 133.303 3.70859 5.87783 0
M  V30 1433 H 136.494 2.24774 4.10602 0
M  V30 1434 H 136.667 3.33084 5.55841 0
M  V30 1435 N 130.073 -1.45103 0.615059 0
M  V30 1436 C 131.313 -2.04069 0.116282 0
M  V30 1437 C 131.677 -1.4721 -1.2326 0
M  V30 1438 O 132.878 -1.97577 -1.82255 0
M  V30 1439 C 131.149 -3.57298 0.085482 0
M  V30 1440 S 132.708 -4.37394 -0.351015 0
M  V30 1441 H 129.526 -0.709006 0.0532183 0
M  V30 1442 H 132.128 -1.77709 0.81484 0
M  V30 1443 H 130.832 -3.9619 1.0706 0
M  V30 1444 H 130.363 -3.88244 -0.634835 0
M  V30 1445 H 132.378 -4.69734 -1.59889 0
M  V30 1446 N 131.551 -0.354651 -1.53558 0
M  V30 1447 C 132.962 0.126902 -1.86268 0
M  V30 1448 C 133.313 1.49075 -1.27558 0
M  V30 1449 O 132.438 2.08105 -0.5934 0
M  V30 1450 C 133.033 0.237046 -3.3797 0
M  V30 1451 C 131.592 0.662842 -3.70518 0
M  V30 1452 C 130.739 -0.196652 -2.76602 0
M  V30 1453 H 133.69 -0.573849 -1.47962 0
M  V30 1454 H 133.711 1.06259 -3.65362 0
M  V30 1455 H 133.223 -0.755725 -3.80671 0
M  V30 1456 H 131.324 1.66424 -3.33367 0
M  V30 1457 H 131.437 0.445034 -4.77029 0
M  V30 1458 H 129.801 0.332763 -2.52517 0
M  V30 1459 H 130.584 -1.18676 -3.22135 0
M  V30 1460 N 133.029 1.57378 -0.0835403 0
M  V30 1461 C 133.979 2.09916 0.889905 0
M  V30 1462 C 134.963 1.01151 1.25129 0
M  V30 1463 O 136.155 1.27443 1.2283 0
M  V30 1464 C 133.284 2.67379 2.15322 0
M  V30 1465 C 132.37 3.83167 1.81779 0
M  V30 1466 N 132.761 4.91665 1.18739 0
M  V30 1467 C 131.059 3.92685 2.11459 0
M  V30 1468 C 131.76 5.72409 1.0355 0
M  V30 1469 N 130.736 5.21062 1.54906 0
M  V30 1470 H 134.538 2.91188 0.398378 0
M  V30 1471 H 132.052 1.61956 0.120013 0
M  V30 1472 H 134.049 3.0334 2.8599 0
M  V30 1473 H 132.709 1.87558 2.65051 0
M  V30 1474 H 133.72 5.10784 0.855604 0
M  V30 1475 H 130.397 3.23856 2.63483 0
M  V30 1476 H 131.787 6.69699 0.543425 0
M  V30 1477 N 134.507 -0.190092 1.56449 0
M  V30 1478 C 135.455 -1.25501 1.95837 0
M  V30 1479 C 136.449 -1.4685 0.844485 0
M  V30 1480 O 137.655 -1.47651 1.02952 0
M  V30 1481 H 134.03 -0.421447 0.622805 0
M  V30 1482 H 136.001 -0.895821 2.84636 0
M  V30 1483 C 134.75 -2.59124 2.31841 0
M  V30 1484 H 134.073 -2.43514 3.17082 0
M  V30 1485 H 135.513 -3.32371 2.6326 0
M  V30 1486 C 133.972 -3.16488 1.15486 0
M  V30 1487 O 134.502 -3.99365 0.432535 0
M  V30 1488 N 132.708 -2.75305 0.930349 0
M  V30 1489 H 132.255 -2.08013 1.51948 0
M  V30 1490 H 132.213 -3.14024 0.153634 0
M  V30 1491 N 135.985 -1.50799 -0.457987 0
M  V30 1492 C 137.401 -1.38515 -0.792819 0
M  V30 1493 C 137.601 -0.451409 -1.96379 0
M  V30 1494 O 136.657 0.10112 -2.52297 0
M  V30 1495 C 137.97 -2.80149 -1.09258 0
M  V30 1496 C 139.518 -2.89156 -1.19825 0
M  V30 1497 C 139.993 -4.31651 -1.53106 0
M  V30 1498 N 141.484 -4.34662 -1.60072 0
M  V30 1499 C 142.219 -5.41928 -1.87354 0
M  V30 1500 N 141.715 -6.59384 -2.12568 0
M  V30 1501 N 143.508 -5.29385 -1.88965 0
M  V30 1502 H 135.659 -2.10073 0.313511 0
M  V30 1503 H 137.922 -0.944803 0.0777862 0
M  V30 1504 H 137.628 -3.50374 -0.305084 0
M  V30 1505 H 137.502 -3.18204 -2.02549 0
M  V30 1506 H 139.889 -2.19141 -1.97639 0
M  V30 1507 H 139.97 -2.54626 -0.244821 0
M  V30 1508 H 139.614 -5.02208 -0.758266 0
M  V30 1509 H 139.544 -4.63678 -2.49621 0
M  V30 1510 H 142.035 -3.49973 -1.42573 0
M  V30 1511 H 142.348 -7.36934 -2.32696 0
M  V30 1512 H 140.693 -6.62535 -2.09933 0
M  V30 1513 H 143.884 -4.36616 -1.68772 0
M  V30 1514 H 144.057 -6.13066 -2.09891 0
M  V30 1515 N 137.463 0.71206 -1.40597 0
M  V30 1516 C 138.691 1.50111 -1.42388 0
M  V30 1517 C 139.106 1.88784 -0.0245395 0
M  V30 1518 O 138.463 1.55681 0.952351 0
M  V30 1519 C 138.514 2.7742 -2.31776 0
M  V30 1520 O 138.235 2.40382 -3.66262 0
M  V30 1521 C 139.736 3.7129 -2.42196 0
M  V30 1522 H 136.956 0.46314 -0.485533 0
M  V30 1523 H 139.5 0.878068 -1.8469 0
M  V30 1524 H 137.655 3.36001 -1.92827 0
M  V30 1525 H 138.069 3.22324 -4.13772 0
M  V30 1526 H 139.543 4.57448 -3.08943 0
M  V30 1527 H 140.02 4.14641 -1.44809 0
M  V30 1528 H 140.626 3.18619 -2.81712 0
M  V30 1529 N 138.941 1.26152 0.944643 0
M  V30 1530 C 139.871 1.09902 2.06019 0
M  V30 1531 C 140.852 0.00519538 1.70099 0
M  V30 1532 O 142.037 0.176583 1.93396 0
M  V30 1533 C 139.167 0.727562 3.39594 0
M  V30 1534 C 138.121 1.77274 3.89561 0
M  V30 1535 C 137.447 1.25569 5.19747 0
M  V30 1536 C 138.747 3.17357 4.14827 0
M  V30 1537 H 140.441 2.03217 2.19871 0
M  V30 1538 H 137.987 0.978452 1.05652 0
M  V30 1539 H 139.94 0.600777 4.17095 0
M  V30 1540 H 138.664 -0.241287 3.25707 0
M  V30 1541 H 137.323 1.88814 3.14237 0
M  V30 1542 H 136.971 0.276783 5.02238 0
M  V30 1543 H 136.671 1.95433 5.54148 0
M  V30 1544 H 138.195 1.1415 5.99835 0
M  V30 1545 H 139.609 3.08914 4.82954 0
M  V30 1546 H 138.006 3.84781 4.60504 0
M  V30 1547 H 139.076 3.63673 3.20734 0
M  V30 1548 N 140.419 -1.14872 1.07899 0
M  V30 1549 C 141.367 -2.21857 0.698727 0
M  V30 1550 C 142.361 -1.66845 -0.293086 0
M  V30 1551 O 143.567 -1.79321 -0.156204 0
M  V30 1552 H 139.942 -0.722691 0.207899 0
M  V30 1553 H 141.913 -2.51205 1.61054 0
M  V30 1554 C 140.662 -3.47498 0.11858 0
M  V30 1555 H 139.985 -3.90154 0.872914 0
M  V30 1556 H 141.425 -4.23858 -0.109759 0
M  V30 1557 C 139.884 -3.16947 -1.1422 0
M  V30 1558 O 140.414 -3.3426 -2.22785 0
M  V30 1559 N 138.62 -2.70946 -1.05055 0
M  V30 1560 H 138.167 -2.57058 -0.167038 0
M  V30 1561 H 138.125 -2.50879 -1.89491 0
M  V30 1562 N 141.898 -0.863906 -1.31812 0
M  V30 1563 C 142.846 -0.30422 -2.30602 0
M  V30 1564 C 143.84 0.577419 -1.59255 0
M  V30 1565 O 145.046 0.464194 -1.73912 0
M  V30 1566 H 141.421 -0.0796877 -0.747766 0
M  V30 1567 H 143.392 -1.15148 -2.75288 0
M  V30 1568 C 142.141 0.484617 -3.44306 0
M  V30 1569 H 141.464 -0.18451 -3.99374 0
M  V30 1570 H 142.904 0.841664 -4.15562 0
M  V30 1571 C 141.363 1.6735 -2.92396 0
M  V30 1572 O 141.893 2.77273 -2.90659 0
M  V30 1573 N 140.099 1.50362 -2.48676 0
M  V30 1574 H 139.646 0.609402 -2.50288 0
M  V30 1575 H 139.604 2.30051 -2.14299 0
M  V30 1576 N 143.376 1.44774 -0.622745 0
M  V30 1577 C 144.616 2.04004 -0.127102 0
M  V30 1578 C 144.98 1.47862 1.22478 0
M  V30 1579 O 146.181 1.98541 1.81204 0
M  V30 1580 C 144.452 3.57247 -0.104429 0
M  V30 1581 S 146.011 4.37574 0.327814 0
M  V30 1582 H 142.829 0.708713 -0.0569776 0
M  V30 1583 H 145.431 1.77275 -0.824253 0
M  V30 1584 H 144.135 3.95616 -1.09159 0
M  V30 1585 H 143.666 3.88575 0.614236 0
M  V30 1586 H 145.681 4.70575 1.57395 0
M  V30 1587 N 144.854 0.36279 1.53368 0
M  V30 1588 C 145.804 -0.501391 2.22419 0
M  V30 1589 C 146.788 -1.0509 1.2184 0
M  V30 1590 O 147.98 -0.981404 1.47301 0
M  V30 1591 C 145.109 -1.64201 3.01484 0
M  V30 1592 C 144.195 -1.10552 4.09438 0
M  V30 1593 N 144.586 -0.291788 5.04958 0
M  V30 1594 C 142.884 -1.3806 4.24094 0
M  V30 1595 C 143.585 0.00162655 5.817 0
M  V30 1596 N 142.561 -0.595244 5.40331 0
M  V30 1597 H 146.363 0.127159 2.93625 0
M  V30 1598 H 143.877 0.170658 1.61501 0
M  V30 1599 H 145.874 -2.27326 3.49469 0
M  V30 1600 H 144.534 -2.27365 2.31809 0
M  V30 1601 H 145.545 0.0687731 5.17854 0
M  V30 1602 H 142.222 -2.01522 3.65644 0
M  V30 1603 H 143.612 0.659278 6.68658 0
M  V30 1604 N 146.332 -1.57332 0.0918853 0
M  V30 1605 C 147.748 -1.57389 -0.264766 0
M  V30 1606 C 147.948 -1.10281 -1.68643 0
M  V30 1607 O 147.004 -0.777801 -2.40222 0
M  V30 1608 C 148.317 -3.00648 -0.0561195 0
M  V30 1609 C 149.865 -3.12754 -0.124116 0
M  V30 1610 C 150.34 -4.57965 0.0564972 0
M  V30 1611 N 151.831 -4.632 0.00155611 0
M  V30 1612 C 152.566 -5.73281 0.116598 0
M  V30 1613 N 152.062 -6.92208 0.286294 0
M  V30 1614 N 153.855 -5.6207 0.0580973 0
M  V30 1615 H 146.006 -1.86262 1.02079 0
M  V30 1616 H 148.269 -0.859579 0.399786 0
M  V30 1617 H 147.975 -3.393 0.925669 0
M  V30 1618 H 147.849 -3.68623 -0.799823 0
M  V30 1619 H 150.236 -2.73976 -1.09641 0
M  V30 1620 H 150.317 -2.47377 0.651024 0
M  V30 1621 H 149.961 -4.97436 1.02564 0
M  V30 1622 H 149.891 -5.21399 -0.738297 0
M  V30 1623 H 152.382 -3.77686 -0.127192 0
M  V30 1624 H 152.695 -7.71934 0.365676 0
M  V30 1625 H 151.04 -6.94254 0.32192 0
M  V30 1626 H 154.231 -4.68043 -0.0733204 0
M  V30 1627 H 154.404 -6.47824 0.151203 0
M  V30 1628 N 147.81 0.181792 -1.56548 0
M  V30 1629 C 149.035 0.920019 -1.85877 0
M  V30 1630 C 149.46 1.75494 -0.677021 0
M  V30 1631 O 148.818 1.77399 0.374056 0
M  V30 1632 C 148.866 1.78112 -3.13542 0
M  V30 1633 O 147.97 2.88152 -2.95029 0
M  V30 1634 H 147.311 0.258334 -0.611686 0
M  V30 1635 H 149.841 0.183092 -2.03779 0
M  V30 1636 H 149.851 2.18314 -3.44678 0
M  V30 1637 H 148.526 1.16777 -3.99169 0
M  V30 1638 H 147.103 2.51609 -2.75222 0
M  V30 1639 N 149.288 1.51039 0.449983 0
M  V30 1640 C 150.704 1.38934 0.785462 0
M  V30 1641 C 150.904 0.461817 1.96136 0
M  V30 1642 O 149.96 -0.0877389 2.52348 0
M  V30 1643 C 151.273 2.80724 1.0777 0
M  V30 1644 C 152.821 2.89787 1.1829 0
M  V30 1645 C 153.296 4.32457 1.50815 0
M  V30 1646 N 154.787 4.35505 1.57764 0
M  V30 1647 C 155.522 5.42914 1.84477 0
M  V30 1648 N 155.018 6.60502 2.09068 0
M  V30 1649 N 156.811 5.3038 1.86155 0
M  V30 1650 H 148.962 2.09904 -0.324647 0
M  V30 1651 H 151.225 0.944378 -0.0827957 0
M  V30 1652 H 150.931 3.50531 0.286498 0
M  V30 1653 H 150.805 3.19273 2.00859 0
M  V30 1654 H 153.192 2.20186 1.96474 0
M  V30 1655 H 153.273 2.54752 0.231314 0
M  V30 1656 H 152.917 5.02603 0.731622 0
M  V30 1657 H 152.847 4.64995 2.47158 0
M  V30 1658 H 155.338 3.50724 1.40715 0
M  V30 1659 H 155.651 7.38158 2.28785 0
M  V30 1660 H 153.996 6.63639 2.06416 0
M  V30 1661 H 157.187 4.37505 1.66454 0
M  V30 1662 H 157.36 6.1417 2.06637 0
M  V30 1663 N 150.766 -0.704594 1.40972 0
M  V30 1664 C 152.013 -1.46458 1.39844 0
M  V30 1665 C 152.341 -1.94499 0.00447594 0
M  V30 1666 O 151.596 -1.69275 -0.982057 0
M  V30 1667 C 151.895 -2.698 2.34399 0
M  V30 1668 C 151.561 -2.40464 3.81429 0
M  V30 1669 C 150.223 -2.32174 4.21484 0
M  V30 1670 C 152.575 -2.16086 4.74296 0
M  V30 1671 C 149.903 -1.97589 5.52427 0
M  V30 1672 C 152.255 -1.83011 6.05549 0
M  V30 1673 C 150.919 -1.7321 6.44635 0
M  V30 1674 H 150.189 -0.535927 0.511725 0
M  V30 1675 H 152.836 -0.806124 1.73706 0
M  V30 1676 H 151.141 -3.40536 1.93759 0
M  V30 1677 H 152.838 -3.27919 2.30804 0
M  V30 1678 H 149.428 -2.47808 3.49699 0
M  V30 1679 H 153.612 -2.2144 4.4416 0
M  V30 1680 H 148.868 -1.88547 5.81601 0
M  V30 1681 H 153.042 -1.63164 6.77016 0
M  V30 1682 H 150.669 -1.46179 7.46013 0
M  V30 1683 N 152.244 -1.26651 -0.937939 0
M  V30 1684 C 153.66 -1.03834 -1.21205 0
M  V30 1685 C 153.86 0.234502 -2.00131 0
M  V30 1686 O 152.916 0.942767 -2.3424 0
M  V30 1687 C 154.229 -2.27167 -1.97017 0
M  V30 1688 C 155.777 -2.32101 -2.09996 0
M  V30 1689 C 156.252 -3.55136 -2.8921 0
M  V30 1690 N 157.743 -3.55632 -2.96783 0
M  V30 1691 C 158.478 -4.475 -3.58512 0
M  V30 1692 N 157.974 -5.4966 -4.21717 0
M  V30 1693 N 159.767 -4.35145 -3.55816 0
M  V30 1694 H 151.918 -2.08398 -0.410391 0
M  V30 1695 H 154.181 -0.916031 -0.244114 0
M  V30 1696 H 153.887 -3.19765 -1.46434 0
M  V30 1697 H 153.761 -2.31672 -2.97671 0
M  V30 1698 H 156.148 -1.40015 -2.59769 0
M  V30 1699 H 156.229 -2.31605 -1.08594 0
M  V30 1700 H 155.873 -4.47553 -2.40123 0
M  V30 1701 H 155.803 -3.5288 -3.90875 0
M  V30 1702 H 158.294 -2.81743 -2.51852 0
M  V30 1703 H 158.607 -6.15943 -4.66727 0
M  V30 1704 H 156.952 -5.53514 -4.20294 0
M  V30 1705 H 160.143 -3.5455 -3.05634 0
M  V30 1706 H 160.316 -5.06934 -4.03636 0
M  V30 1707 N 153.722 1.14298 -1.08507 0
M  V30 1708 C 154.968 1.85633 -0.816581 0
M  V30 1709 C 155.301 1.82784 0.656021 0
M  V30 1710 O 154.576 1.25926 1.48233 0
M  V30 1711 C 154.859 3.34223 -1.34041 0
M  V30 1712 C 154.712 3.45639 -2.87843 0
M  V30 1713 C 156.031 4.29356 -0.9665 0
M  V30 1714 H 153.15 0.67402 -0.298104 0
M  V30 1715 H 155.792 1.34214 -1.34487 0
M  V30 1716 H 153.942 3.78144 -0.89104 0
M  V30 1717 H 155.614 3.10498 -3.41158 0
M  V30 1718 H 153.857 2.86817 -3.25451 0
M  V30 1719 H 154.528 4.50089 -3.19569 0
M  V30 1720 H 157.004 3.93457 -1.35391 0
M  V30 1721 H 155.88 5.3178 -1.3602 0
M  V30 1722 H 156.141 4.41919 0.126362 0
M  V30 1723 N 155.201 0.870884 1.31352 0
M  V30 1724 C 156.612 0.534714 1.78879 0
M  V30 1725 C 156.963 -0.948423 1.71754 0
M  V30 1726 O 156.088 -1.74055 1.28584 0
M  V30 1727 C 156.683 0.963839 3.24801 0
M  V30 1728 C 155.242 0.679311 3.70219 0
M  V30 1729 C 154.389 1.15465 2.52117 0
M  V30 1730 H 157.34 1.05651 1.18421 0
M  V30 1731 H 157.361 0.286892 3.79417 0
M  V30 1732 H 156.873 2.04332 3.29955 0
M  V30 1733 H 154.974 -0.388769 3.70566 0
M  V30 1734 H 155.087 1.25698 4.62317 0
M  V30 1735 H 153.451 0.574383 2.48139 0
M  V30 1736 H 154.234 2.24157 2.60016 0
M  V30 1737 N 156.679 -1.44442 0.630414 0
M  V30 1738 C 157.609 -2.33418 -0.0618083 0
M  V30 1739 C 158.59 -1.48165 -0.835541 0
M  V30 1740 O 159.775 -1.76886 -0.801564 0
M  V30 1741 C 156.905 -3.31222 -1.04449 0
M  V30 1742 C 155.859 -4.26288 -0.382436 0
M  V30 1743 C 155.185 -5.13954 -1.47497 0
M  V30 1744 C 156.485 -5.1744 0.710865 0
M  V30 1745 H 158.179 -2.91548 0.681184 0
M  V30 1746 H 155.725 -1.40191 0.329026 0
M  V30 1747 H 157.678 -3.92351 -1.53748 0
M  V30 1748 H 156.402 -2.71299 -1.81836 0
M  V30 1749 H 155.061 -3.6649 0.0899054 0
M  V30 1750 H 154.709 -4.50385 -2.2397 0
M  V30 1751 H 154.409 -5.7837 -1.03737 0
M  V30 1752 H 155.933 -5.77955 -1.96979 0
M  V30 1753 H 157.347 -5.72509 0.300996 0
M  V30 1754 H 155.744 -5.90455 1.07156 0
M  V30 1755 H 156.814 -4.58496 1.57829 0
M  V30 1756 N 158.157 -0.370918 -1.53173 0
M  V30 1757 C 159.087 0.464847 -2.28826 0
M  V30 1758 C 160.068 1.07936 -1.31468 0
M  V30 1759 O 161.253 1.0956 -1.60344 0
M  V30 1760 C 158.383 1.60196 -3.08147 0
M  V30 1761 C 157.337 1.11443 -4.13237 0
M  V30 1762 C 156.663 2.3422 -4.80672 0
M  V30 1763 C 157.963 0.195384 -5.21934 0
M  V30 1764 H 159.657 -0.166329 -2.98938 0
M  V30 1765 H 157.203 -0.0814359 -1.4377 0
M  V30 1766 H 159.156 2.19332 -3.59822 0
M  V30 1767 H 157.88 2.26045 -2.35735 0
M  V30 1768 H 156.539 0.545727 -3.62515 0
M  V30 1769 H 156.187 2.98537 -4.04827 0
M  V30 1770 H 155.887 2.02269 -5.51689 0
M  V30 1771 H 157.411 2.94032 -5.35143 0
M  V30 1772 H 158.825 0.694375 -5.69079 0
M  V30 1773 H 157.222 -0.0335027 -6.00091 0
M  V30 1774 H 158.292 -0.760961 -4.78892 0
M  V30 1775 N 159.635 1.57281 -0.100228 0
M  V30 1776 C 160.585 2.10848 0.86759 0
M  V30 1777 C 161.569 1.02473 1.24049 0
M  V30 1778 O 162.761 1.28739 1.21471 0
M  V30 1779 C 159.89 2.69648 2.12474 0
M  V30 1780 C 158.976 3.85074 1.77704 0
M  V30 1781 N 159.367 4.92897 1.13518 0
M  V30 1782 C 157.665 3.94905 2.07282 0
M  V30 1783 C 158.366 5.73475 0.974735 0
M  V30 1784 N 157.342 5.22675 1.4937 0
M  V30 1785 H 161.144 2.91594 0.367471 0
M  V30 1786 H 158.658 1.62074 0.102829 0
M  V30 1787 H 160.655 3.06356 2.82757 0
M  V30 1788 H 159.315 1.90359 2.63047 0
M  V30 1789 H 160.326 5.11662 0.801381 0
M  V30 1790 H 157.003 3.26633 2.60033 0
M  V30 1791 H 158.393 6.70238 0.472364 0
M  V30 1792 N 161.113 -0.173488 1.56642 0
M  V30 1793 C 162.353 -0.896984 1.83667 0
M  V30 1794 C 162.717 -1.79523 0.680842 0
M  V30 1795 O 163.918 -2.55616 0.831488 0
M  V30 1796 C 162.189 -1.67351 3.15798 0
M  V30 1797 S 163.748 -2.44607 3.64298 0
M  V30 1798 H 160.566 -0.300464 0.644393 0
M  V30 1799 H 163.168 -0.158775 1.94854 0
M  V30 1800 H 161.872 -1.00462 3.97914 0
M  V30 1801 H 161.403 -2.45313 3.07546 0
M  V30 1802 H 163.418 -3.69261 3.31452 0
M  V30 1803 N 162.591 -1.51276 -0.441967 0
M  V30 1804 C 163.868 -1.54252 -1.20273 0
M  V30 1805 C 164.248 -0.30408 -2.08898 0
M  V30 1806 O 163.596 0.711084 -2.17154 0
M  V30 1807 C 163.806 -2.85406 -2.00859 0
M  V30 1808 C 165.154 -3.37181 -2.58059 0
M  V30 1809 O 166.178 -2.86925 -2.11074 0
M  V30 1810 O 165.037 -4.24858 -3.43741 0
M  V30 1811 H 162.131 -0.619969 -0.547328 0
M  V30 1812 H 164.677 -1.63586 -0.451413 0
M  V30 1813 H 163.449 -3.67003 -1.35736 0
M  V30 1814 H 163.072 -2.79213 -2.83065 0
M  V30 1815 N 164.069 0.697108 -1.41344 0
M  V30 1816 C 164.999 1.82353 -1.45841 0
M  V30 1817 C 165.98 1.67115 -0.317247 0
M  V30 1818 O 167.165 1.86871 -0.528474 0
M  V30 1819 C 164.295 3.20476 -1.33838 0
M  V30 1820 C 163.249 3.50415 -2.4575 0
M  V30 1821 C 162.575 4.87878 -2.18813 0
M  V30 1822 C 163.875 3.49546 -3.88091 0
M  V30 1823 H 165.569 1.78846 -2.40113 0
M  V30 1824 H 163.115 0.859028 -1.15571 0
M  V30 1825 H 165.068 3.98988 -1.35596 0
M  V30 1826 H 163.792 3.24604 -0.360498 0
M  V30 1827 H 162.451 2.74253 -2.43271 0
M  V30 1828 H 162.099 4.8863 -1.19371 0
M  V30 1829 H 161.799 5.08875 -2.93803 0
M  V30 1830 H 163.323 5.68702 -2.22284 0
M  V30 1831 H 164.737 4.18066 -3.92293 0
M  V30 1832 H 163.134 3.82075 -4.62751 0
M  V30 1833 H 164.204 2.48552 -4.16353 0
M  V30 1834 N 165.547 1.27147 0.931209 0
M  V30 1835 C 166.796 1.12664 1.67302 0
M  V30 1836 C 167.109 -0.327718 1.92835 0
M  V30 1837 O 168.315 -0.593392 2.64936 0
M  V30 1838 C 166.771 1.9683 3.01307 0
M  V30 1839 C 166.379 3.46901 2.83485 0
M  V30 1840 C 168.123 1.90985 3.79111 0
M  V30 1841 C 166.03 4.23279 4.13024 0
M  V30 1842 H 164.96 0.41803 0.627509 0
M  V30 1843 H 167.611 1.51539 1.03481 0
M  V30 1844 H 165.993 1.50797 3.66164 0
M  V30 1845 H 167.167 4.00773 2.27415 0
M  V30 1846 H 165.482 3.54088 2.19113 0
M  V30 1847 H 168.079 2.45328 4.75098 0
M  V30 1848 H 168.422 0.882718 4.06834 0
M  V30 1849 H 168.955 2.34895 3.21044 0
M  V30 1850 H 165.694 5.26503 3.90481 0
M  V30 1851 H 165.214 3.74186 4.6877 0
M  V30 1852 H 166.893 4.32265 4.81411 0
M  V30 1853 N 167.025 -1.13721 1.09112 0
M  V30 1854 C 167.973 -2.21103 0.722219 0
M  V30 1855 C 168.967 -1.67147 -0.275374 0
M  V30 1856 O 170.173 -1.79477 -0.137176 0
M  V30 1857 H 166.548 -0.720445 0.215553 0
M  V30 1858 H 168.519 -2.49483 1.63709 0
M  V30 1859 C 167.268 -3.47352 0.15543 0
M  V30 1860 H 166.591 -3.89206 0.914246 0
M  V30 1861 H 168.031 -4.2395 -0.0647967 0
M  V30 1862 C 166.49 -3.1814 -1.10852 0
M  V30 1863 O 167.02 -3.36604 -2.19227 0
M  V30 1864 N 165.226 -2.72045 -1.02176 0
M  V30 1865 H 164.773 -2.57221 -0.139764 0
M  V30 1866 H 164.731 -2.52875 -1.8682 0
M  V30 1867 N 168.503 -0.877838 -1.30888 0
M  V30 1868 C 169.914 -0.544193 -1.78593 0
M  V30 1869 C 170.265 0.939301 -1.72254 0
M  V30 1870 O 169.39 1.7337 -1.29505 0
M  V30 1871 C 169.985 -0.98105 -3.24285 0
M  V30 1872 C 168.544 -0.698935 -3.69854 0
M  V30 1873 C 167.691 -1.168 -2.51502 0
M  V30 1874 H 170.642 -1.06278 -1.17859 0
M  V30 1875 H 170.663 -0.307009 -3.79259 0
M  V30 1876 H 170.175 -2.06079 -3.28866 0
M  V30 1877 H 168.276 0.369112 -3.70767 0
M  V30 1878 H 168.389 -1.28148 -4.61644 0
M  V30 1879 H 166.753 -0.587535 -2.47831 0
M  V30 1880 H 167.536 -2.25533 -2.58824 0
M  V30 1881 N 169.982 1.44106 -0.638065 0
M  V30 1882 C 171.23 2.01579 -0.145043 0
M  V30 1883 C 171.551 1.50496 1.24 0
M  V30 1884 O 170.821 0.711374 1.82527 0
M  V30 1885 H 169.401 0.745282 -0.05063 0
M  V30 1886 H 172.063 1.76516 -0.826327 0
M  V30 1887 H 171.159 3.11877 -0.118039 0
M  V30 1888 N 171.46 0.379036 1.52974 0
M  V30 1889 C 172.423 -0.448865 2.24762 0
M  V30 1890 C 173.423 -0.998689 1.26027 0
M  V30 1891 O 174.613 -0.882313 1.50203 0
M  V30 1892 C 171.745 -1.62872 2.99476 0
M  V30 1893 H 172.938 0.179491 2.99362 0
M  V30 1894 H 170.491 0.13096 1.5575 0
M  V30 1895 H 171.226 -2.29479 2.29151 0
M  V30 1896 H 171.011 -1.24128 3.71934 0
M  V30 1897 H 172.501 -2.2151 3.5401 0
M  V30 1898 N 172.938 -1.57226 0.108567 0
M  V30 1899 C 173.87 -2.11809 -0.875752 0
M  V30 1900 C 174.883 -1.05839 -1.23701 0
M  V30 1901 O 176.072 -1.33245 -1.18778 0
M  V30 1902 C 173.172 -2.59411 -2.18081 0
M  V30 1903 C 172.345 -3.89364 -1.99284 0
M  V30 1904 C 171.404 -4.22672 -3.13424 0
M  V30 1905 O 170.43 -4.91668 -2.86795 0
M  V30 1906 N 171.632 -3.79154 -4.3957 0
M  V30 1907 H 174.397 -2.9689 -0.409477 0
M  V30 1908 H 171.958 -1.61721 -0.076158 0
M  V30 1909 H 173.95 -2.7873 -2.93414 0
M  V30 1910 H 172.52 -1.79268 -2.5609 0
M  V30 1911 H 171.74 -3.79059 -1.08203 0
M  V30 1912 H 173.028 -4.74358 -1.84017 0
M  V30 1913 H 172.426 -3.23486 -4.64083 0
M  V30 1914 H 170.983 -4.03602 -5.11809 0
M  V30 1915 N 174.416 0.165178 -1.56732 0
M  V30 1916 C 175.364 1.22369 -1.97809 0
M  V30 1917 C 176.358 1.45488 -0.867741 0
M  V30 1918 O 177.564 1.45995 -1.05288 0
M  V30 1919 H 173.939 0.411486 -0.629431 0
M  V30 1920 H 175.91 0.850425 -2.86025 0
M  V30 1921 C 174.659 2.55403 -2.35934 0
M  V30 1922 H 173.982 2.38438 -3.20916 0
M  V30 1923 H 175.422 3.2814 -2.68514 0
M  V30 1924 C 173.881 3.14611 -1.20506 0
M  V30 1925 O 174.411 3.98626 -0.496016 0
M  V30 1926 N 172.617 2.7379 -0.97403 0
M  V30 1927 H 172.164 2.0557 -1.55238 0
M  V30 1928 H 172.122 3.1374 -0.203573 0
M  V30 1929 N 175.894 1.51508 0.433938 0
M  V30 1930 C 177.143 1.63578 1.18005 0
M  V30 1931 C 177.456 0.359514 1.92268 0
M  V30 1932 O 178.662 0.359632 2.69108 0
M  V30 1933 C 177.118 2.88901 2.14626 0
M  V30 1934 C 176.726 4.23544 1.45995 0
M  V30 1935 C 178.47 3.10328 2.89649 0
M  V30 1936 C 176.377 5.40014 2.4112 0
M  V30 1937 H 175.307 0.609277 0.444182 0
M  V30 1938 H 177.958 1.77978 0.446773 0
M  V30 1939 H 176.34 2.68142 2.91403 0
M  V30 1940 H 177.514 4.54696 0.747532 0
M  V30 1941 H 175.829 4.08021 0.831115 0
M  V30 1942 H 178.426 3.94518 3.60915 0
M  V30 1943 H 178.769 2.23544 3.51189 0
M  V30 1944 H 179.302 3.31443 2.19978 0
M  V30 1945 H 176.041 6.29068 1.84264 0
M  V30 1946 H 175.561 5.13233 3.10406 0
M  V30 1947 H 177.24 5.72099 3.02177 0
M  V30 1948 N 177.372 -0.689602 1.41712 0
M  V30 1949 C 178.597 -1.48329 1.44959 0
M  V30 1950 C 179.022 -1.8801 0.0581283 0
M  V30 1951 O 178.38 -1.55026 -0.940035 0
M  V30 1952 C 178.428 -2.71835 2.36935 0
M  V30 1953 O 177.532 -3.69549 1.8305 0
M  V30 1954 H 176.873 -0.446199 0.491734 0
M  V30 1955 H 179.403 -0.847127 1.86239 0
M  V30 1956 H 179.413 -3.20076 2.53013 0
M  V30 1957 H 178.088 -2.42291 3.38035 0
M  V30 1958 H 176.665 -3.2851 1.76452 0
M  V30 1959 N 178.85 -1.27639 -0.924453 0
M  V30 1960 C 179.798 -1.10485 -2.04685 0
M  V30 1961 C 180.792 -0.0270421 -1.69378 0
M  V30 1962 O 181.998 -0.185008 -1.79047 0
M  V30 1963 H 178.373 -0.340546 -0.670472 0
M  V30 1964 H 180.344 -2.05566 -2.16298 0
M  V30 1965 C 179.093 -0.772229 -3.39016 0
M  V30 1966 H 178.416 -1.59351 -3.66671 0
M  V30 1967 H 179.856 -0.692097 -4.18313 0
M  V30 1968 C 178.315 0.523554 -3.32807 0
M  V30 1969 O 178.845 1.55702 -3.70297 0
M  V30 1970 N 177.051 0.520363 -2.85903 0
M  V30 1971 H 176.598 -0.32107 -2.55591 0
M  V30 1972 H 176.556 1.38742 -2.82131 0
M  V30 1973 N 180.328 1.1314 -1.09713 0
M  V30 1974 C 181.568 1.8613 -0.844683 0
M  V30 1975 C 181.932 1.81765 0.618491 0
M  V30 1976 O 183.133 2.50024 0.98699 0
M  V30 1977 C 181.404 3.30151 -1.36877 0
M  V30 1978 S 182.963 4.206 -1.25064 0
M  V30 1979 H 179.781 0.642056 -0.305427 0
M  V30 1980 H 182.383 1.36343 -1.4011 0
M  V30 1981 H 181.087 3.30883 -2.42786 0
M  V30 1982 H 180.618 3.85 -0.808614 0
M  V30 1983 H 182.633 4.95783 -0.203486 0
M  V30 1984 N 181.806 0.884767 1.30421 0
M  V30 1985 C 183.034 0.518044 2.0031 0
M  V30 1986 C 183.449 -0.893408 1.66324 0
M  V30 1987 O 182.806 -1.5875 0.900262 0
M  V30 1988 C 182.857 0.682997 3.54989 0
M  V30 1989 O 182.578 2.03888 3.87764 0
M  V30 1990 C 184.079 0.31924 4.42149 0
M  V30 1991 H 181.299 0.200265 0.640418 0
M  V30 1992 H 183.843 1.19001 1.6631 0
M  V30 1993 H 181.998 0.0584052 3.87356 0
M  V30 1994 H 182.412 2.05735 4.82466 0
M  V30 1995 H 183.886 0.485555 5.4986 0
M  V30 1996 H 184.363 -0.742717 4.32875 0
M  V30 1997 H 184.969 0.920147 4.15227 0
M  V30 1998 N 183.284 -1.43765 0.645699 0
M  V30 1999 C 184.514 -2.05953 0.163318 0
M  V30 2000 C 184.922 -1.48432 -1.17322 0
M  V30 2001 O 184.265 -0.607295 -1.73371 0
M  V30 2002 C 184.327 -3.59499 -0.0103065 0
M  V30 2003 C 183.991 -4.39563 1.25035 0
M  V30 2004 C 184.988 -4.72108 2.17739 0
M  V30 2005 C 182.673 -4.79697 1.48983 0
M  V30 2006 C 184.667 -5.43688 3.3269 0
M  V30 2007 C 182.354 -5.51023 2.64229 0
M  V30 2008 C 183.352 -5.8294 3.55908 0
M  V30 2009 O 183.04 -6.5281 4.69142 0
M  V30 2010 H 182.772 -0.670798 0.0836986 0
M  V30 2011 H 185.326 -1.85384 0.884407 0
M  V30 2012 H 183.556 -3.78613 -0.78669 0
M  V30 2013 H 185.245 -4.03408 -0.449087 0
M  V30 2014 H 186.011 -4.41627 2.00476 0
M  V30 2015 H 181.89 -4.54266 0.785078 0
M  V30 2016 H 185.434 -5.68517 4.04269 0
M  V30 2017 H 181.331 -5.8092 2.81429 0
M  V30 2018 H 182.099 -6.71288 4.6831 0
M  V30 2019 N 184.763 -0.387143 -1.52771 0
M  V30 2020 C 185.726 0.436939 -2.24997 0
M  V30 2021 C 186.726 0.991991 -1.26555 0
M  V30 2022 O 187.916 0.874335 -1.50669 0
M  V30 2023 C 185.048 1.61281 -3.00335 0
M  V30 2024 H 186.241 -0.195365 -2.99263 0
M  V30 2025 H 183.794 -0.139218 -1.55679 0
M  V30 2026 H 184.529 2.2826 -2.30364 0
M  V30 2027 H 184.314 1.22154 -3.72587 0
M  V30 2028 H 185.804 2.19629 -3.5518 0
M  V30 2029 N 186.241 1.57166 -0.116904 0
M  V30 2030 C 187.518 1.86645 0.585049 0
M  V30 2031 C 187.898 1.0177 1.84949 0
M  V30 2032 O 187.246 0.0960379 2.28298 0
M  V30 2033 C 187.456 3.37736 0.879507 0
M  V30 2034 C 188.804 4.06289 1.23348 0
M  V30 2035 O 189.828 3.42743 0.969836 0
M  V30 2036 O 188.687 5.18455 1.7282 0
M  V30 2037 H 185.781 0.772593 0.295007 0
M  V30 2038 H 188.327 1.69025 -0.151249 0
M  V30 2039 H 187.099 3.91296 -0.0166136 0
M  V30 2040 H 186.722 3.6078 1.67103 0
M  V30 2041 N 187.719 -0.156864 1.56817 0
M  V30 2042 C 189.135 -0.50916 1.5126 0
M  V30 2043 C 189.335 -1.83897 0.823658 0
M  V30 2044 O 188.391 -2.49469 0.390055 0
M  V30 2045 C 189.704 -0.52857 2.96018 0
M  V30 2046 C 191.252 -0.614771 3.06903 0
M  V30 2047 C 191.727 -0.664938 4.53147 0
M  V30 2048 N 193.218 -0.727433 4.57452 0
M  V30 2049 C 193.953 -0.787067 5.67973 0
M  V30 2050 N 193.449 -0.806649 6.88088 0
M  V30 2051 N 195.242 -0.827195 5.5598 0
M  V30 2052 H 187.393 0.714935 2.00006 0
M  V30 2053 H 189.656 0.259526 0.911784 0
M  V30 2054 H 189.362 0.380154 3.49639 0
M  V30 2055 H 189.236 -1.36998 3.51442 0
M  V30 2056 H 191.623 -1.51392 2.53307 0
M  V30 2057 H 191.704 0.253597 2.5454 0
M  V30 2058 H 191.348 0.230011 5.07379 0
M  V30 2059 H 191.278 -1.54966 5.03282 0
M  V30 2060 H 193.769 -0.719998 3.70978 0
M  V30 2061 H 194.082 -0.853727 7.6807 0
M  V30 2062 H 192.427 -0.774687 6.90669 0
M  V30 2063 H 195.618 -0.808998 4.61056 0
M  V30 2064 H 195.791 -0.870206 6.4213 0
M  V30 2065 N 189.197 -1.51736 -0.425897 0
M  V30 2066 C 190.608 -1.5732 -1.00536 0
M  V30 2067 C 190.959 -0.403537 -1.92005 0
M  V30 2068 O 190.084 0.478256 -2.11049 0
M  V30 2069 C 190.679 -2.85119 -1.8301 0
M  V30 2070 C 189.238 -2.93236 -2.35987 0
M  V30 2071 C 188.385 -2.52098 -1.15508 0
M  V30 2072 H 191.336 -1.57348 -0.206739 0
M  V30 2073 H 191.357 -2.69526 -2.68581 0
M  V30 2074 H 190.869 -3.7023 -1.16411 0
M  V30 2075 H 188.97 -2.12581 -3.06007 0
M  V30 2076 H 189.083 -3.9713 -2.68001 0
M  V30 2077 H 187.447 -2.05558 -1.50393 0
M  V30 2078 H 188.23 -3.39565 -0.505014 0
M  V30 2079 N 190.675 0.682077 -1.42076 0
M  V30 2080 C 191.923 1.4393 -1.41876 0
M  V30 2081 C 192.244 1.94971 -0.0335599 0
M  V30 2082 O 191.514 1.72591 0.926773 0
M  V30 2083 H 190.094 0.534085 -0.522267 0
M  V30 2084 H 192.756 0.806427 -1.77434 0
M  V30 2085 H 191.852 2.29588 -2.11414 0
M  V30 2086 N 192.153 1.28127 0.917671 0
M  V30 2087 C 193.569 1.05749 1.19538 0
M  V30 2088 C 193.769 -0.202633 2.00479 0
M  V30 2089 O 192.825 -0.905382 2.3571 0
M  V30 2090 C 194.138 2.30273 1.93378 0
M  V30 2091 C 195.686 2.35412 2.06277 0
M  V30 2092 C 196.161 3.59692 2.83524 0
M  V30 2093 N 197.652 3.60309 2.91087 0
M  V30 2094 C 198.387 4.53147 3.51348 0
M  V30 2095 N 197.883 5.563 4.12919 0
M  V30 2096 N 199.676 4.40751 3.48849 0
M  V30 2097 H 191.827 2.09024 0.377184 0
M  V30 2098 H 194.09 0.919798 0.22951 0
M  V30 2099 H 193.796 3.22055 1.41328 0
M  V30 2100 H 193.67 2.36378 2.93947 0
M  V30 2101 H 196.057 1.4413 2.57508 0
M  V30 2102 H 196.138 2.33304 1.04895 0
M  V30 2103 H 195.782 4.51316 2.32973 0
M  V30 2104 H 195.712 3.59054 3.85211 0
M  V30 2105 H 198.203 2.85714 2.47338 0
M  V30 2106 H 198.516 6.2329 4.56869 0
M  V30 2107 H 196.861 5.60131 4.11435 0
M  V30 2108 H 200.052 3.59367 2.99955 0
M  V30 2109 H 200.225 5.13291 3.9552 0
M  V30 2110 N 193.631 -1.12557 1.10312 0
M  V30 2111 C 195.047 -1.36036 0.834649 0
M  V30 2112 C 195.247 -1.93946 -0.546539 0
M  V30 2113 O 194.303 -2.16484 -1.29966 0
M  V30 2114 C 195.616 -2.30312 1.9333 0
M  V30 2115 C 197.164 -2.43906 1.9616 0
M  V30 2116 C 197.639 -3.41496 3.05195 0
M  V30 2117 N 199.13 -3.49053 3.04494 0
M  V30 2118 C 199.865 -4.24471 3.85502 0
M  V30 2119 N 199.361 -5.02966 4.76442 0
M  V30 2120 N 201.154 -4.19864 3.73725 0
M  V30 2121 H 193.305 -0.733246 1.99342 0
M  V30 2122 H 195.568 -0.385234 0.866198 0
M  V30 2123 H 195.274 -1.94933 2.92735 0
M  V30 2124 H 195.148 -3.30421 1.81939 0
M  V30 2125 H 197.535 -2.78567 0.973886 0
M  V30 2126 H 197.616 -1.4369 2.11629 0
M  V30 2127 H 197.26 -3.07565 4.04186 0
M  V30 2128 H 197.19 -4.41539 2.86968 0
M  V30 2129 H 199.681 -2.93053 2.38596 0
M  V30 2130 H 199.994 -5.57846 5.34815 0
M  V30 2131 H 198.339 -5.02167 4.80472 0
M  V30 2132 H 201.53 -3.57623 3.02032 0
M  V30 2133 H 201.703 -4.78386 4.37093 0
M  V30 2134 N 195.109 -0.891671 -1.2995 0
M  V30 2135 C 196.356 -0.513501 -1.95881 0
M  V30 2136 C 196.684 0.938655 -1.70351 0
M  V30 2137 O 195.939 1.67936 -1.00478 0
M  V30 2138 C 196.238 -0.742868 -3.49594 0
M  V30 2139 C 195.904 -2.17114 -3.95186 0
M  V30 2140 C 194.566 -2.56169 -4.07346 0
M  V30 2141 C 196.918 -3.10162 -4.18866 0
M  V30 2142 C 194.246 -3.87469 -4.4055 0
M  V30 2143 C 196.598 -4.41001 -4.53542 0
M  V30 2144 C 195.262 -4.79941 -4.63911 0
M  V30 2145 H 194.532 -0.187903 -0.71678 0
M  V30 2146 H 197.179 -1.1288 -1.54694 0
M  V30 2147 H 195.484 -0.044586 -3.91775 0
M  V30 2148 H 197.181 -0.429767 -3.9869 0
M  V30 2149 H 193.771 -1.85801 -3.86233 0
M  V30 2150 H 197.955 -2.81206 -4.08946 0
M  V30 2151 H 193.211 -4.17371 -4.46779 0
M  V30 2152 H 197.385 -5.13133 -4.70815 0
M  V30 2153 H 195.012 -5.81719 -4.89395 0
M  V30 2154 N 196.587 1.43421 -0.653314 0
M  V30 2155 C 197.817 2.05864 -0.174238 0
M  V30 2156 C 198.225 1.49052 1.16534 0
M  V30 2157 O 197.568 0.616481 1.73047 0
M  V30 2158 C 197.63 3.59499 -0.00875873 0
M  V30 2159 C 197.294 4.38893 -1.27364 0
M  V30 2160 C 198.291 4.70947 -2.20239 0
M  V30 2161 C 195.976 4.789 -1.51525 0
M  V30 2162 C 197.97 5.41916 -3.35568 0
M  V30 2163 C 195.657 5.49614 -2.67147 0
M  V30 2164 C 196.655 5.81044 -3.58994 0
M  V30 2165 O 196.343 6.50313 -4.72597 0
M  V30 2166 H 196.075 0.670345 -0.0872549 0
M  V30 2167 H 198.629 1.84913 -0.894226 0
M  V30 2168 H 196.859 3.79025 0.7666 0
M  V30 2169 H 198.548 4.0364 0.427687 0
M  V30 2170 H 199.314 4.40558 -2.02815 0
M  V30 2171 H 195.193 4.53843 -0.809158 0
M  V30 2172 H 198.737 5.66365 -4.07279 0
M  V30 2173 H 194.634 5.79419 -2.84505 0
M  V30 2174 H 195.402 6.68795 -4.71864 0
M  V30 2175 N 198.065 0.39524 1.52563 0
M  V30 2176 C 199.311 -0.185318 2.01952 0
M  V30 2177 C 199.644 -1.45964 1.28095 0
M  V30 2178 O 198.919 -1.90689 0.38315 0
M  V30 2179 C 199.202 -0.447193 3.57312 0
M  V30 2180 C 199.055 0.842828 4.41833 0
M  V30 2181 C 200.374 -1.23529 4.22408 0
M  V30 2182 H 197.493 -0.0658788 0.73405 0
M  V30 2183 H 200.135 0.525975 1.82575 0
M  V30 2184 H 198.285 -1.05312 3.73954 0
M  V30 2185 H 199.957 1.4795 4.36931 0
M  V30 2186 H 198.2 1.45686 4.08605 0
M  V30 2187 H 198.871 0.614165 5.48573 0
M  V30 2188 H 201.347 -0.722445 4.0978 0
M  V30 2189 H 200.223 -1.38727 5.3108 0
M  V30 2190 H 200.484 -2.25213 3.80436 0
M  V30 2191 N 199.544 -1.57102 0.125237 0
M  V30 2192 C 200.79 -1.95697 -0.532035 0
M  V30 2193 C 201.123 -1.009 -1.6593 0
M  V30 2194 O 200.398 -0.047347 -1.94442 0
M  V30 2195 C 200.681 -3.44181 -1.05884 0
M  V30 2196 C 200.534 -4.49752 0.0654392 0
M  V30 2197 C 201.853 -3.94655 -1.9477 0
M  V30 2198 H 198.972 -0.711571 -0.191925 0
M  V30 2199 H 201.614 -1.88923 0.20206 0
M  V30 2200 H 199.764 -3.50085 -1.68442 0
M  V30 2201 H 201.436 -4.55943 0.700982 0
M  V30 2202 H 199.679 -4.27653 0.727709 0
M  V30 2203 H 200.35 -5.50924 -0.344505 0
M  V30 2204 H 202.826 -3.91094 -1.42074 0
M  V30 2205 H 201.702 -4.99057 -2.28546 0
M  V30 2206 H 201.963 -3.35718 -2.87656 0
M  V30 2207 N 201.022 0.148545 -1.56898 0
M  V30 2208 C 201.985 1.16736 -1.97244 0
M  V30 2209 C 202.985 1.35947 -0.858777 0
M  V30 2210 O 204.175 1.32966 -1.12542 0
M  V30 2211 C 201.307 2.52798 -2.28705 0
M  V30 2212 H 202.5 0.821279 -2.88435 0
M  V30 2213 H 200.053 0.391831 -1.51309 0
M  V30 2214 H 200.788 2.92381 -1.403 0
M  V30 2215 H 200.573 2.40216 -3.09901 0
M  V30 2216 H 202.063 3.26179 -2.60762 0
M  V30 2217 N 202.5 1.5196 0.417844 0
M  V30 2218 C 203.74 1.67262 1.17486 0
M  V30 2219 C 204.104 0.38983 1.88001 0
M  V30 2220 O 205.305 0.418845 2.65517 0
M  V30 2221 C 203.576 2.85526 2.14965 0
M  V30 2222 S 205.135 3.21263 2.98891 0
M  V30 2223 H 201.953 0.589077 0.398132 0
M  V30 2224 H 204.555 1.89927 0.463452 0
M  V30 2225 H 203.259 3.77145 1.61833 0
M  V30 2226 H 202.79 2.65107 2.90657 0
M  V30 2227 H 204.805 2.69208 4.16823 0
M  V30 2228 N 203.978 -0.674533 1.42435 0
M  V30 2229 C 205.255 -1.4305 1.33402 0
M  V30 2230 C 205.635 -2.11081 -0.0284674 0
M  V30 2231 O 204.983 -2.03257 -1.04397 0
M  V30 2232 C 205.193 -2.43272 2.50239 0
M  V30 2233 C 206.541 -3.07907 2.92367 0
M  V30 2234 O 207.565 -2.53599 2.50132 0
M  V30 2235 O 206.424 -4.0632 3.65467 0
M  V30 2236 H 203.518 -0.638076 0.526106 0
M  V30 2237 H 206.064 -0.703235 1.54443 0
M  V30 2238 H 204.836 -1.91803 3.41068 0
M  V30 2239 H 204.459 -3.23479 2.31186 0
M  V30 2240 N 205.456 -1.28612 -0.910864 0
M  V30 2241 C 206.404 -1.1265 -2.03501 0
M  V30 2242 C 207.398 -0.0450054 -1.6934 0
M  V30 2243 O 208.604 -0.203988 -1.7884 0
M  V30 2244 H 204.979 -0.347639 -0.666822 0
M  V30 2245 H 206.95 -2.07849 -2.14106 0
M  V30 2246 C 205.699 -0.808143 -3.38178 0
M  V30 2247 H 205.022 -1.63231 -3.6496 0
M  V30 2248 H 206.462 -0.736426 -4.17556 0
M  V30 2249 C 204.921 0.488226 -3.33344 0
M  V30 2250 O 205.451 1.51766 -3.71927 0
M  V30 2251 N 203.657 0.490009 -2.86439 0
M  V30 2252 H 203.204 -0.348161 -2.55236 0
M  V30 2253 H 203.162 1.35741 -2.83587 0
M  V30 2254 N 206.934 1.1197 -1.10907 0
M  V30 2255 C 208.35 1.35591 -0.841852 0
M  V30 2256 C 208.55 1.94233 0.536246 0
M  V30 2257 O 207.606 2.1717 1.28816 0
M  V30 2258 C 208.919 2.29284 -1.94549 0
M  V30 2259 C 210.467 2.42862 -1.97451 0
M  V30 2260 C 210.942 3.39873 -3.07002 0
M  V30 2261 N 212.433 3.47433 -3.06341 0
M  V30 2262 C 213.168 4.22421 -3.87748 0
M  V30 2263 N 212.664 5.00432 -4.79103 0
M  V30 2264 N 214.457 4.17876 -3.75946 0
M  V30 2265 H 206.608 0.722664 -1.99728 0
M  V30 2266 H 208.871 0.380635 -0.868229 0
M  V30 2267 H 208.577 1.93378 -2.93765 0
M  V30 2268 H 208.451 3.29452 -1.83688 0
M  V30 2269 H 210.838 2.78046 -0.988645 0
M  V30 2270 H 210.919 1.42566 -2.12388 0
M  V30 2271 H 210.563 3.05417 -4.05811 0
M  V30 2272 H 210.493 4.40011 -2.89306 0
M  V30 2273 H 212.984 2.91784 -2.40147 0
M  V30 2274 H 213.297 5.55002 -5.37766 0
M  V30 2275 H 211.642 4.99612 -4.83128 0
M  V30 2276 H 214.833 3.56016 -3.03924 0
M  V30 2277 H 215.006 4.76061 -4.39624 0
M  V30 2278 N 208.412 0.89855 1.29475 0
M  V30 2279 C 209.689 0.443416 1.90508 0
M  V30 2280 C 210.069 -1.07685 1.81569 0
M  V30 2281 O 209.417 -1.9182 1.24166 0
M  V30 2282 C 209.627 0.956708 3.35631 0
M  V30 2283 C 210.975 0.999728 4.12663 0
M  V30 2284 O 211.999 0.904299 3.4453 0
M  V30 2285 O 210.858 1.14289 5.34416 0
M  V30 2286 H 207.952 0.138025 0.815401 0
M  V30 2287 H 210.498 0.98834 1.37949 0
M  V30 2288 H 209.27 2.00067 3.36287 0
M  V30 2289 H 208.893 0.391728 3.95666 0
M  V30 2290 N 209.89 -1.43072 0.660911 0
M  V30 2291 C 211.301 -1.84932 0.256348 0
M  V30 2292 C 211.652 -1.55325 -1.19868 0
M  V30 2293 O 210.777 -1.00607 -1.91591 0
M  V30 2294 C 211.372 -3.35684 0.458475 0
M  V30 2295 C 209.931 -3.76245 0.108161 0
M  V30 2296 C 209.078 -2.66749 0.757641 0
M  V30 2297 H 212.029 -1.33116 0.864051 0
M  V30 2298 H 212.05 -3.79365 -0.293683 0
M  V30 2299 H 211.562 -3.572 1.51755 0
M  V30 2300 H 209.663 -3.60338 -0.948014 0
M  V30 2301 H 209.776 -4.76058 0.538992 0
M  V30 2302 H 208.14 -2.53989 0.190185 0
M  V30 2303 H 208.923 -2.91092 1.81989 0
M  V30 2304 N 211.368 -0.403325 -1.52352 0
M  V30 2305 C 212.784 -0.0539281 -1.59509 0
M  V30 2306 C 212.984 1.43307 -1.41652 0
M  V30 2307 O 212.04 2.19924 -1.24056 0
M  V30 2308 C 213.353 -0.543654 -2.95745 0
M  V30 2309 C 214.901 -0.501125 -3.08962 0
M  V30 2310 C 215.376 -0.967267 -4.47669 0
M  V30 2311 N 216.867 -0.923849 -4.53893 0
M  V30 2312 C 217.602 -1.25578 -5.5948 0
M  V30 2313 N 217.098 -1.65889 -6.72646 0
M  V30 2314 N 218.891 -1.17613 -5.49658 0
M  V30 2315 H 211.042 -1.37123 -1.62206 0
M  V30 2316 H 213.305 -0.56294 -0.76276 0
M  V30 2317 H 213.011 -1.58275 -3.14073 0
M  V30 2318 H 212.885 0.0498042 -3.77167 0
M  V30 2319 H 215.272 0.528909 -2.90321 0
M  V30 2320 H 215.353 -1.13056 -2.2946 0
M  V30 2321 H 214.997 -1.9956 -4.67053 0
M  V30 2322 H 214.927 -0.314698 -5.25659 0
M  V30 2323 H 217.418 -0.627403 -3.72655 0
M  V30 2324 H 217.731 -1.89543 -7.49195 0
M  V30 2325 H 216.076 -1.69787 -6.73942 0
M  V30 2326 H 219.267 -0.860115 -4.6013 0
M  V30 2327 H 219.44 -1.43812 -6.3184 0
M  V30 2328 N 212.846 1.57033 -0.133567 0
M  V30 2329 C 214.123 1.87256 0.56522 0
M  V30 2330 C 214.503 1.03726 1.83859 0
M  V30 2331 O 213.851 0.120247 2.28183 0
M  V30 2332 C 214.061 3.3865 0.843636 0
M  V30 2333 C 215.409 4.07574 1.19032 0
M  V30 2334 O 216.433 3.43752 0.933429 0
M  V30 2335 O 215.292 5.20259 1.67312 0
M  V30 2336 H 212.386 0.775678 0.286796 0
M  V30 2337 H 214.932 1.68855 -0.169168 0
M  V30 2338 H 213.704 3.91257 -0.0581149 0
M  V30 2339 H 213.327 3.62532 1.63268 0
M  V30 2340 N 214.325 -0.140222 1.56975 0
M  V30 2341 C 215.55 -0.870414 1.88251 0
M  V30 2342 C 215.975 -1.73637 0.723312 0
M  V30 2343 O 215.333 -1.78329 -0.32689 0
M  V30 2344 C 215.381 -1.69737 3.18154 0
M  V30 2345 O 214.485 -2.80229 3.02565 0
M  V30 2346 H 213.826 -0.242025 0.61832 0
M  V30 2347 H 216.356 -0.128999 2.04193 0
M  V30 2348 H 216.366 -2.09099 3.50345 0
M  V30 2349 H 215.041 -1.06152 4.02125 0
M  V30 2350 H 213.618 -2.44224 2.81796 0
M  V30 2351 N 215.803 -1.52179 -0.40978 0
M  V30 2352 C 217.214 -1.58377 -0.988615 0
M  V30 2353 C 217.565 -0.423879 -1.91566 0
M  V30 2354 O 216.69 0.455844 -2.11544 0
M  V30 2355 C 217.285 -2.87044 -1.79976 0
M  V30 2356 C 215.844 -2.95722 -2.32863 0
M  V30 2357 C 214.991 -2.53309 -1.12828 0
M  V30 2358 H 217.942 -1.57558 -0.190039 0
M  V30 2359 H 217.963 -2.7236 -2.65707 0
M  V30 2360 H 217.475 -3.71444 -1.12478 0
M  V30 2361 H 215.576 -2.15814 -3.03735 0
M  V30 2362 H 215.689 -3.99951 -2.63773 0
M  V30 2363 H 214.053 -2.07142 -1.48204 0
M  V30 2364 H 214.836 -3.40082 -0.46897 0
M  V30 2365 N 217.281 0.66697 -1.42791 0
M  V30 2366 C 218.697 0.981027 -1.25889 0
M  V30 2367 C 218.897 2.00793 -0.168695 0
M  V30 2368 O 217.953 2.48321 0.45747 0
M  V30 2369 C 219.266 1.47838 -2.61848 0
M  V30 2370 C 220.814 1.59575 -2.69267 0
M  V30 2371 C 221.289 2.12704 -4.05612 0
M  V30 2372 N 222.78 2.20026 -4.07606 0
M  V30 2373 C 223.515 2.62227 -5.09926 0
M  V30 2374 N 223.011 3.03824 -6.22626 0
M  V30 2375 N 224.804 2.62045 -4.97281 0
M  V30 2376 H 216.955 -0.0127891 -2.12396 0
M  V30 2377 H 219.218 0.0568258 -0.946295 0
M  V30 2378 H 218.924 0.798299 -3.4252 0
M  V30 2379 H 218.798 2.45579 -2.86305 0
M  V30 2380 H 221.185 2.26687 -1.88936 0
M  V30 2381 H 221.266 0.60302 -2.48591 0
M  V30 2382 H 220.91 1.46198 -4.86404 0
M  V30 2383 H 220.84 3.12782 -4.23645 0
M  V30 2384 H 223.331 1.90708 -3.2625 0
M  V30 2385 H 223.644 3.34734 -6.96544 0
M  V30 2386 H 221.989 3.01662 -6.26119 0
M  V30 2387 H 225.18 2.28916 -4.08308 0
M  V30 2388 H 225.353 2.94613 -5.77154 0
M  V30 2389 N 218.759 1.29093 0.90403 0
M  V30 2390 C 219.989 1.19516 1.68522 0
M  V30 2391 C 220.397 -0.24738 1.87576 0
M  V30 2392 O 219.74 -1.17798 1.40959 0
M  V30 2393 C 219.802 1.83249 3.0929 0
M  V30 2394 C 219.466 3.32531 3.13484 0
M  V30 2395 C 220.463 4.28821 2.93953 0
M  V30 2396 C 218.148 3.73656 3.35688 0
M  V30 2397 C 220.142 5.64212 2.96553 0
M  V30 2398 C 217.829 5.0917 3.37919 0
M  V30 2399 C 218.827 6.04258 3.18373 0
M  V30 2400 O 218.515 7.37298 3.20385 0
M  V30 2401 H 218.247 0.415467 0.533257 0
M  V30 2402 H 220.801 1.70912 1.13922 0
M  V30 2403 H 219.031 1.26358 3.65473 0
M  V30 2404 H 220.72 1.68054 3.69476 0
M  V30 2405 H 221.486 3.98382 2.76616 0
M  V30 2406 H 217.365 3.00101 3.49943 0
M  V30 2407 H 220.909 6.38407 2.81216 0
M  V30 2408 H 216.806 5.39256 3.54787 0
M  V30 2409 H 217.574 7.46048 3.36681 0
M  V30 2410 N 220.237 -1.11381 1.11499 0
M  V30 2411 C 221.648 -1.6465 0.880191 0
M  V30 2412 C 221.999 -1.87199 -0.587434 0
M  V30 2413 O 221.124 -1.60667 -1.44966 0
M  V30 2414 C 221.719 -2.99105 1.59128 0
M  V30 2415 C 220.278 -3.49279 1.40289 0
M  V30 2416 C 219.425 -2.24077 1.63354 0
M  V30 2417 H 222.376 -0.950123 1.27116 0
M  V30 2418 H 222.397 -3.66107 1.03664 0
M  V30 2419 H 221.909 -2.82661 2.65941 0
M  V30 2420 H 220.01 -3.70887 0.356888 0
M  V30 2421 H 220.123 -4.2803 2.15238 0
M  V30 2422 H 218.487 -2.31733 1.05698 0
M  V30 2423 H 219.27 -2.10175 2.71443 0
M  V30 2424 N 221.715 -0.905404 -1.28997 0
M  V30 2425 C 222.961 -0.535039 -1.95615 0
M  V30 2426 C 223.294 0.917404 -1.71165 0
M  V30 2427 O 222.569 1.65123 -1.02785 0
M  V30 2428 C 222.852 -0.834918 -3.50287 0
M  V30 2429 C 222.705 -2.33948 -3.84172 0
M  V30 2430 C 224.024 -0.325318 -4.38896 0
M  V30 2431 H 221.143 -0.195861 -0.710498 0
M  V30 2432 H 223.785 -1.13313 -1.52513 0
M  V30 2433 H 221.935 -0.325904 -3.87131 0
M  V30 2434 H 223.607 -2.91847 -3.57243 0
M  V30 2435 H 221.85 -2.79789 -3.31513 0
M  V30 2436 H 222.521 -2.49987 -4.92149 0
M  V30 2437 H 224.997 -0.761256 -4.09077 0
M  V30 2438 H 223.873 -0.564295 -5.45992 0
M  V30 2439 H 224.134 0.774144 -4.35269 0
M  V30 2440 N 223.193 1.4272 -0.668489 0
M  V30 2441 C 224.439 2.01923 -0.188419 0
M  V30 2442 C 224.772 1.52704 1.19979 0
M  V30 2443 O 224.047 0.726566 1.8042 0
M  V30 2444 C 224.33 3.59451 -0.216085 0
M  V30 2445 C 224.183 4.18864 -1.6393 0
M  V30 2446 C 225.502 4.37903 0.439179 0
M  V30 2447 H 222.621 0.733674 -0.0699412 0
M  V30 2448 H 225.263 1.69822 -0.852076 0
M  V30 2449 H 223.413 3.86929 0.349012 0
M  V30 2450 H 225.085 4.02362 -2.25616 0
M  V30 2451 H 223.328 3.74933 -2.18193 0
M  V30 2452 H 223.999 5.27987 -1.61039 0
M  V30 2453 H 226.475 4.16079 -0.0417878 0
M  V30 2454 H 225.351 5.47519 0.389157 0
M  V30 2455 H 225.612 4.15303 1.51577 0
M  V30 2456 N 224.671 0.411399 1.52136 0
M  V30 2457 C 226.082 -0.0576826 1.86611 0
M  V30 2458 C 226.433 -1.44238 1.33003 0
M  V30 2459 O 225.558 -2.05759 0.670228 0
M  V30 2460 C 226.153 -0.111448 3.38617 0
M  V30 2461 C 224.712 -0.52487 3.72723 0
M  V30 2462 C 223.859 0.299176 2.75681 0
M  V30 2463 H 226.81 0.628368 1.4573 0
M  V30 2464 H 226.831 -0.926252 3.69054 0
M  V30 2465 H 226.343 0.896488 3.77604 0
M  V30 2466 H 224.444 -1.53936 3.39315 0
M  V30 2467 H 224.557 -0.267681 4.78352 0
M  V30 2468 H 222.921 -0.238814 2.53578 0
M  V30 2469 H 223.704 1.3055 3.17508 0
M  V30 2470 N 226.149 -1.5696 0.141893 0
M  V30 2471 C 227.395 -1.9625 -0.511248 0
M  V30 2472 C 227.728 -1.02654 -1.64851 0
M  V30 2473 O 227.003 -0.0679676 -1.94381 0
M  V30 2474 C 227.286 -3.45285 -1.02227 0
M  V30 2475 C 227.139 -4.49658 0.113138 0
M  V30 2476 C 228.458 -3.96698 -1.90574 0
M  V30 2477 H 225.577 -0.713567 -0.184367 0
M  V30 2478 H 228.219 -1.88698 0.222087 0
M  V30 2479 H 226.369 -3.51852 -1.64719 0
M  V30 2480 H 228.041 -4.55174 0.749302 0
M  V30 2481 H 226.284 -4.26857 0.773026 0
M  V30 2482 H 226.955 -5.51258 -0.286053 0
M  V30 2483 H 229.431 -3.92578 -1.37918 0
M  V30 2484 H 228.307 -5.01453 -2.2324 0
M  V30 2485 H 228.568 -3.3875 -2.84079 0
M  V30 2486 N 227.627 0.131896 -1.57047 0
M  V30 2487 C 228.577 1.1679 -1.95816 0
M  V30 2488 C 229.561 1.37756 -0.831393 0
M  V30 2489 O 230.753 1.39065 -1.09499 0
M  V30 2490 C 227.882 2.49778 -2.35512 0
M  V30 2491 C 226.968 2.32342 -3.54793 0
M  V30 2492 N 227.359 1.8469 -4.70875 0
M  V30 2493 C 225.657 2.63043 -3.60173 0
M  V30 2494 C 226.358 1.80656 -5.52936 0
M  V30 2495 N 225.334 2.24528 -4.95064 0
M  V30 2496 H 229.136 0.791818 -2.83033 0
M  V30 2497 H 226.65 0.339791 -1.58805 0
M  V30 2498 H 228.647 3.24692 -2.61498 0
M  V30 2499 H 227.307 2.88156 -1.49654 0
M  V30 2500 H 228.318 1.54429 -4.9434 0
M  V30 2501 H 224.995 3.05193 -2.84892 0
M  V30 2502 H 226.385 1.45178 -6.56028 0
M  V30 2503 N 229.106 1.52395 0.401703 0
M  V30 2504 C 230.036 1.79231 1.49661 0
M  V30 2505 C 231.017 0.643654 1.57452 0
M  V30 2506 O 232.202 0.889989 1.72606 0
M  V30 2507 C 229.332 1.94971 2.87409 0
M  V30 2508 C 228.286 3.10604 2.94465 0
M  V30 2509 C 227.612 3.11577 4.34538 0
M  V30 2510 C 228.912 4.49921 2.6527 0
M  V30 2511 H 230.606 2.70917 1.27454 0
M  V30 2512 H 228.152 1.30362 0.6117 0
M  V30 2513 H 230.105 2.12328 3.63999 0
M  V30 2514 H 228.829 0.999632 3.10926 0
M  V30 2515 H 227.488 2.93009 2.20321 0
M  V30 2516 H 227.136 2.14277 4.55076 0
M  V30 2517 H 226.836 3.89247 4.40183 0
M  V30 2518 H 228.36 3.31073 5.13053 0
M  V30 2519 H 229.774 4.67683 3.31581 0
M  V30 2520 H 228.171 5.29564 2.82281 0
M  V30 2521 H 229.241 4.57507 1.60671 0
M  V30 2522 N 230.584 -0.659388 1.43143 0
M  V30 2523 C 231.861 -1.41627 1.34912 0
M  V30 2524 C 232.241 -2.11099 -0.00607785 0
M  V30 2525 O 231.589 -2.04353 -1.02236 0
M  V30 2526 C 231.799 -2.40604 2.52805 0
M  V30 2527 C 233.147 -3.04789 2.95616 0
M  V30 2528 O 234.171 -2.50932 2.52807 0
M  V30 2529 O 233.03 -4.02421 3.69756 0
M  V30 2530 H 230.124 -0.63246 0.532844 0
M  V30 2531 H 232.67 -0.686814 1.5518 0
M  V30 2532 H 231.442 -1.88174 3.43083 0
M  V30 2533 H 231.065 -3.21009 2.34604 0
M  V30 2534 N 232.062 -1.29571 -0.897171 0
M  V30 2535 C 233.29 -1.20583 -1.68129 0
M  V30 2536 C 233.705 0.233181 -1.87354 0
M  V30 2537 O 233.062 1.15579 -1.41236 0
M  V30 2538 C 233.113 -1.91772 -3.06441 0
M  V30 2539 O 232.834 -3.30053 -2.88091 0
M  V30 2540 C 234.335 -1.89291 -4.00854 0
M  V30 2541 H 231.555 -0.417826 -0.525036 0
M  V30 2542 H 234.099 -1.70987 -1.12177 0
M  V30 2543 H 232.254 -1.45196 -3.59161 0
M  V30 2544 H 232.668 -3.65942 -3.75748 0
M  V30 2545 H 234.142 -2.43662 -4.95311 0
M  V30 2546 H 234.619 -0.869014 -4.30517 0
M  V30 2547 H 235.225 -2.35622 -3.54066 0
M  V30 2548 N 233.54 1.10788 -1.12088 0
M  V30 2549 C 234.768 1.86461 -0.896651 0
M  V30 2550 C 235.183 1.80492 0.553912 0
M  V30 2551 O 234.54 1.19102 1.38278 0
M  V30 2552 C 234.591 3.35006 -1.35843 0
M  V30 2553 O 234.312 3.40866 -2.75213 0
M  V30 2554 C 235.813 4.27565 -1.1706 0
M  V30 2555 H 233.033 0.589425 -0.320654 0
M  V30 2556 H 235.577 1.40076 -1.48993 0
M  V30 2557 H 233.732 3.7887 -0.808458 0
M  V30 2558 H 234.146 4.33411 -2.9539 0
M  V30 2559 H 235.62 5.30007 -1.54263 0
M  V30 2560 H 236.097 4.3906 -0.110814 0
M  V30 2561 H 236.703 3.89501 -1.70789 0
M  V30 2562 N 235.018 0.912232 1.28515 0
M  V30 2563 C 236.267 0.540504 1.94323 0
M  V30 2564 C 236.58 -0.920044 1.72611 0
M  V30 2565 O 237.786 -1.39986 2.32629 0
M  V30 2566 C 236.242 0.915803 3.48053 0
M  V30 2567 C 235.85 2.39598 3.78546 0
M  V30 2568 C 237.594 0.614588 4.20027 0
M  V30 2569 C 235.501 2.71148 5.25578 0
M  V30 2570 H 234.431 0.198418 0.727424 0
M  V30 2571 H 237.082 1.11094 1.46049 0
M  V30 2572 H 235.464 0.274168 3.9505 0
M  V30 2573 H 236.638 3.08422 3.42364 0
M  V30 2574 H 234.953 2.66749 3.1974 0
M  V30 2575 H 237.55 0.827002 5.28266 0
M  V30 2576 H 237.893 -0.447531 4.13887 0
M  V30 2577 H 238.426 1.21462 3.78803 0
M  V30 2578 H 235.165 3.76207 5.36794 0
M  V30 2579 H 234.685 2.0696 5.62963 0
M  V30 2580 H 236.364 2.58072 5.93302 0
M  V30 2581 O 236.535 -1.39418 0.815163 0
M  V30 2582 H 237.226 -1.89641 0.394473 0
M  V30 END ATOM
M  V30 BEGIN BOND
M  V30 END BOND
M  V30 END CTAB
M  END
$$$$
