drugbank_target|P12851 Xylose isomerase (DB11195)
 OpenBabel12092119503D

  0  0  0     0  0            999 V3000
M  V30 BEGIN CTAB
M  V30 COUNTS 6063 6135 0 0 0
M  V30 BEGIN ATOM
M  V30 1 H -0.908 1.98254 -0.117106 0
M  V30 2 N 0 1.576 0 0
M  V30 3 C 0.933 2.03868 1.02534 0
M  V30 4 C 1.911 0.928543 1.3348 0
M  V30 5 O 3.095 1.19667 1.45644 0
M  V30 6 C 0.222 2.43627 2.35294 0
M  V30 7 C -0.732 3.65373 2.2001 0
M  V30 8 S 0.101 5.13292 1.52614 0
M  V30 9 C 1.257 5.56322 2.86805 0
M  V30 10 H 1.49 2.90518 0.631377 0
M  V30 11 H -0.977 1.52953 0.210867 0
M  V30 12 H 0.981 2.67203 3.11629 0
M  V30 13 H -0.358 1.57376 2.7183 0
M  V30 14 H -1.165 3.90944 3.18086 0
M  V30 15 H -1.563 3.418 1.51819 0
M  V30 16 H 0.729 5.58782 3.83104 0
M  V30 17 H 1.672 6.56266 2.65933 0
M  V30 18 H 2.08 4.83886 2.90714 0
M  V30 19 N 1.4781 -0.272755 1.55222 0
M  V30 20 C 2.7031 -1.02683 1.80197 0
M  V30 21 C 3.1281 -1.79142 0.573551 0
M  V30 22 O 2.4861 -1.74917 -0.476849 0
M  V30 23 C 2.5341 -1.9609 3.02624 0
M  V30 24 O 1.6381 -3.04863 2.77727 0
M  V30 25 H 0.9791 -0.293557 0.595584 0
M  V30 26 H 3.5091 -0.30159 2.02365 0
M  V30 27 H 3.5191 -2.38039 3.31363 0
M  V30 28 H 2.1941 -1.39851 3.91682 0
M  V30 29 H 0.7711 -2.67228 2.60084 0
M  V30 30 N 2.9562 -1.48159 -0.537278 0
M  V30 31 C 4.2022 -1.56035 -1.29541 0
M  V30 32 C 4.5352 -0.230377 -1.92829 0
M  V30 33 O 3.8102 0.762952 -1.78911 0
M  V30 34 C 4.0932 -2.69323 -2.39034 0
M  V30 35 C 3.9462 -4.12002 -1.80485 0
M  V30 36 C 5.2652 -2.78408 -3.40847 0
M  V30 37 H 2.3842 -0.567992 -0.469632 0
M  V30 38 H 5.0262 -1.80302 -0.599277 0
M  V30 39 H 3.1762 -2.48763 -2.98412 0
M  V30 40 H 4.8482 -4.43981 -1.25215 0
M  V30 41 H 3.0912 -4.19344 -1.11055 0
M  V30 42 H 3.7622 -4.87077 -2.59731 0
M  V30 43 H 6.2382 -2.97012 -2.91416 0
M  V30 44 H 5.1142 -3.59416 -4.14863 0
M  V30 45 H 5.3752 -1.86269 -4.00944 0
M  V30 46 N 4.4343 0.785586 -1.36625 0
M  V30 47 C 5.3663 1.90711 -1.2713 0
M  V30 48 C 6.3793 1.61688 -0.189986 0
M  V30 49 O 7.5683 1.72864 -0.445014 0
M  V30 50 C 4.6683 3.25611 -0.939713 0
M  V30 51 C 3.8413 3.82385 -2.12369 0
M  V30 52 C 2.9003 4.95732 -1.76456 0
M  V30 53 O 1.9263 5.12047 -2.48589 0
M  V30 54 N 3.1283 5.76258 -0.700492 0
M  V30 55 H 5.8933 1.99376 -2.23762 0
M  V30 56 H 3.4543 0.964041 -1.30069 0
M  V30 57 H 5.4463 3.98937 -0.680554 0
M  V30 58 H 4.0163 3.12538 -0.0624074 0
M  V30 59 H 3.2363 3.01001 -2.54543 0
M  V30 60 H 4.5243 4.17047 -2.9146 0
M  V30 61 H 3.9223 5.65609 -0.101624 0
M  V30 62 H 2.4793 6.4987 -0.501165 0
M  V30 63 N 5.9124 1.20967 1.01018 0
M  V30 64 C 6.8754 0.965918 2.07853 0
M  V30 65 C 7.8754 -0.0610545 1.60684 0
M  V30 66 O 9.0654 0.175681 1.73312 0
M  V30 67 C 6.1974 0.455513 3.37843 0
M  V30 68 H 7.3904 1.91365 2.3091 0
M  V30 69 H 4.9434 1.02594 1.17916 0
M  V30 70 H 5.6784 -0.497381 3.20463 0
M  V30 71 H 5.4634 1.19622 3.73407 0
M  V30 72 H 6.9534 0.304667 4.16487 0
M  V30 73 N 7.3905 -1.2043 1.01659 0
M  V30 74 C 8.6185 -1.93777 0.725132 0
M  V30 75 C 9.0335 -1.74772 -0.714166 0
M  V30 76 O 8.3905 -1.06169 -1.4844 0
M  V30 77 C 8.4415 -3.45876 1.05129 0
M  V30 78 O 8.1625 -3.6426 2.43406 0
M  V30 79 C 9.6635 -4.36368 0.780891 0
M  V30 80 H 6.8835 -0.615901 0.266284 0
M  V30 81 H 9.4275 -1.52922 1.35776 0
M  V30 82 H 7.5825 -3.8461 0.464065 0
M  V30 83 H 7.9965 -4.58246 2.55169 0
M  V30 84 H 9.4705 -5.41743 1.05918 0
M  V30 85 H 9.9475 -4.38275 -0.284937 0
M  V30 86 H 10.5535 -4.03296 1.35027 0
M  V30 87 N 8.8686 -0.792821 -1.36206 0
M  V30 88 C 10.2846 -0.474903 -1.52371 0
M  V30 89 C 10.4846 1.00622 -1.74578 0
M  V30 90 O 9.5406 1.79162 -1.77924 0
M  V30 91 C 10.8536 -1.3083 -2.70747 0
M  V30 92 C 12.4016 -1.30234 -2.84619 0
M  V30 93 C 12.8766 -2.11956 -4.06004 0
M  V30 94 N 14.3676 -2.09419 -4.13156 0
M  V30 95 C 15.1026 -2.69419 -5.06163 0
M  V30 96 N 14.5986 -3.3829 -6.04592 0
M  V30 97 N 16.3916 -2.59134 -4.98804 0
M  V30 98 H 8.5426 -1.75222 -1.20046 0
M  V30 99 H 10.8056 -0.745024 -0.586211 0
M  V30 100 H 10.5116 -2.35881 -2.6087 0
M  V30 101 H 10.3856 -0.95196 -3.6499 0
M  V30 102 H 12.7726 -0.259748 -2.93955 0
M  V30 103 H 12.8536 -1.69847 -1.91274 0
M  V30 104 H 12.4976 -3.16248 -3.97429 0
M  V30 105 H 12.4276 -1.69711 -4.98503 0
M  V30 106 H 14.9186 -1.59297 -3.42685 0
M  V30 107 H 15.2316 -3.81394 -6.7213 0
M  V30 108 H 13.5766 -3.42393 -6.04807 0
M  V30 109 H 16.7676 -2.04927 -4.20859 0
M  V30 110 H 16.9406 -3.06185 -5.711 0
M  V30 111 N 10.3467 1.47872 -0.545128 0
M  V30 112 C 11.2567 2.33633 0.212746 0
M  V30 113 C 12.2727 1.4744 0.923983 0
M  V30 114 O 13.4487 1.80393 0.895572 0
M  V30 115 C 10.5137 3.23884 1.23693 0
M  V30 116 C 9.5747 4.25961 0.534417 0
M  V30 117 C 8.8077 5.11899 1.5098 0
M  V30 118 O 9.0307 5.00077 2.7437 0
M  V30 119 O 7.9647 5.92831 1.0409 0
M  V30 120 H 11.7907 2.99714 -0.490416 0
M  V30 121 H 9.3757 1.46235 -0.305871 0
M  V30 122 H 11.2577 3.79666 1.82843 0
M  V30 123 H 9.9327 2.60446 1.92222 0
M  V30 124 H 8.8397 3.73972 -0.0979679 0
M  V30 125 H 10.1727 4.92079 -0.109213 0
M  V30 126 N 11.8248 0.280983 1.55075 0
M  V30 127 C 13.1018 -0.386207 1.91749 0
M  V30 128 C 13.4818 -1.73264 1.20594 0
M  V30 129 O 12.8298 -2.26034 0.334784 0
M  V30 130 C 13.0398 -0.520687 3.45094 0
M  V30 131 C 14.3878 -0.800865 4.16979 0
M  V30 132 O 15.4118 -0.605271 3.5102 0
M  V30 133 O 14.2708 -1.1753 5.33712 0
M  V30 134 H 11.3648 -0.212408 0.799257 0
M  V30 135 H 13.9108 0.327568 1.66509 0
M  V30 136 H 12.6828 0.426633 3.88967 0
M  V30 137 H 12.3058 -1.2837 3.76307 0
M  V30 138 N 13.3029 -1.57598 0.00835791 0
M  V30 139 C 14.2499 -2.08945 -0.980346 0
M  V30 140 C 15.2199 -0.986738 -1.33614 0
M  V30 141 O 16.4049 -1.25968 -1.43306 0
M  V30 142 C 13.5449 -2.60425 -2.26435 0
M  V30 143 C 12.6579 -3.84628 -1.96685 0
M  V30 144 C 11.7929 -4.24579 -3.19228 0
M  V30 145 C 10.8319 -5.41596 -2.85202 0
M  V30 146 N 9.9689 -5.768 -4.00307 0
M  V30 147 H 14.8089 -2.93148 -0.535551 0
M  V30 148 H 12.3459 -1.44912 -0.252776 0
M  V30 149 H 14.3039 -2.88354 -3.01509 0
M  V30 150 H 12.9339 -1.79083 -2.68568 0
M  V30 151 H 11.9859 -3.63556 -1.11942 0
M  V30 152 H 13.2979 -4.69796 -1.67611 0
M  V30 153 H 12.4519 -4.53834 -4.02641 0
M  V30 154 H 11.1909 -3.38137 -3.51447 0
M  V30 155 H 10.1959 -5.12056 -2.00198 0
M  V30 156 H 11.4209 -6.29721 -2.54222 0
M  V30 157 H 9.3669 -4.93316 -4.32407 0
M  V30 158 H 9.2839 -6.5656 -3.74786 0
M  V30 159 H 10.5519 -6.10652 -4.84484 0
M  V30 160 N 14.781 0.264519 -1.55364 0
M  V30 161 C 16.028 0.994986 -1.7637 0
M  V30 162 C 16.356 1.85976 -0.5695 0
M  V30 163 O 15.611 1.90509 0.44776 0
M  V30 164 C 15.91 1.9004 -3.02687 0
M  V30 165 C 15.576 1.19243 -4.34847 0
M  V30 166 C 14.238 0.996709 -4.70764 0
M  V30 167 C 16.59 0.689296 -5.16622 0
M  V30 168 C 13.918 0.285261 -5.86006 0
M  V30 169 C 16.27 -0.00860079 -6.32599 0
M  V30 170 C 14.934 -0.215963 -6.67151 0
M  V30 171 H 14.204 0.364091 -0.645383 0
M  V30 172 H 16.851 0.266543 -1.89636 0
M  V30 173 H 15.156 2.69533 -2.84357 0
M  V30 174 H 16.853 2.46695 -3.16137 0
M  V30 175 H 13.443 1.3549 -4.06621 0
M  V30 176 H 17.627 0.828108 -4.89342 0
M  V30 177 H 12.883 0.113961 -6.11294 0
M  V30 178 H 17.057 -0.406186 -6.95214 0
M  V30 179 H 14.684 -0.769217 -7.56298 0
M  V30 180 N 16.2591 1.48442 0.529413 0
M  V30 181 C 17.4841 1.60406 1.31471 0
M  V30 182 C 17.9091 0.264738 1.86228 0
M  V30 183 O 17.2671 -0.763668 1.64432 0
M  V30 184 C 17.3151 2.65419 2.44101 0
M  V30 185 O 16.4191 2.22618 3.47153 0
M  V30 186 H 15.7601 0.537863 0.389357 0
M  V30 187 H 18.2901 1.94432 0.636965 0
M  V30 188 H 18.3001 2.86709 2.90279 0
M  V30 189 H 16.9751 3.62652 2.03608 0
M  V30 190 H 15.5521 2.11543 3.0709 0
M  V30 191 N 17.7372 -0.778329 1.37039 0
M  V30 192 C 18.9842 -1.53665 1.31884 0
M  V30 193 C 19.3122 -1.9425 -0.0986303 0
M  V30 194 O 18.5672 -1.63832 -1.07041 0
M  V30 195 C 18.8662 -2.81845 2.19768 0
M  V30 196 C 18.5322 -2.60345 3.68146 0
M  V30 197 C 17.1942 -2.5419 4.08584 0
M  V30 198 C 19.5462 -2.40923 4.62175 0
M  V30 199 C 16.8742 -2.26594 5.41177 0
M  V30 200 C 19.2262 -2.14852 5.94997 0
M  V30 201 C 17.8902 -2.07137 6.34547 0
M  V30 202 H 17.1602 -0.562299 0.482598 0
M  V30 203 H 19.8072 -0.897069 1.69189 0
M  V30 204 H 18.1122 -3.50328 1.75436 0
M  V30 205 H 19.8092 -3.39692 2.13097 0
M  V30 206 H 16.3992 -2.65996 3.36072 0
M  V30 207 H 20.5832 -2.44673 4.31797 0
M  V30 208 H 15.8392 -2.19111 5.70789 0
M  V30 209 H 20.0132 -1.98822 6.67415 0
M  V30 210 H 17.6402 -1.85518 7.37216 0
M  V30 211 N 19.2153 -1.21501 -1.00376 0
M  V30 212 C 20.4633 -1.03095 -1.73827 0
M  V30 213 C 20.7843 0.436341 -1.90055 0
M  V30 214 O 20.0543 1.31466 -1.45236 0
M  V30 215 H 18.6343 -0.378487 -0.644016 0
M  V30 216 H 21.2963 -1.52831 -1.20949 0
M  V30 217 H 20.3923 -1.49991 -2.73695 0
M  V30 218 N 20.6934 1.19889 -1.02296 0
M  V30 219 C 21.6234 2.25141 -0.619174 0
M  V30 220 C 22.6044 1.66051 0.368915 0
M  V30 221 O 23.7894 1.92546 0.252941 0
M  V30 222 C 20.9194 3.4728 0.0368783 0
M  V30 223 C 19.8734 4.19005 -0.872865 0
M  V30 224 C 19.1994 5.34637 -0.0822402 0
M  V30 225 C 20.4994 4.74452 -2.18387 0
M  V30 226 H 22.1934 2.59171 -1.49903 0
M  V30 227 H 19.7394 1.24579 -0.722222 0
M  V30 228 H 21.6924 4.20098 0.330958 0
M  V30 229 H 20.4164 3.12433 0.95149 0
M  V30 230 H 19.0754 3.48061 -1.15105 0
M  V30 231 H 18.7234 4.96034 0.83422 0
M  V30 232 H 18.4234 5.83557 -0.688149 0
M  V30 233 H 19.9474 6.10255 0.205238 0
M  V30 234 H 21.3614 5.39055 -1.95172 0
M  V30 235 H 19.7584 5.33834 -2.74119 0
M  V30 236 H 20.8284 3.92844 -2.84257 0
M  V30 237 N 22.1715 0.800033 1.35784 0
M  V30 238 C 23.4175 0.38701 1.99684 0
M  V30 239 C 23.7725 -1.03268 1.62338 0
M  V30 240 O 23.0655 -1.70543 0.87325 0
M  V30 241 C 23.2595 0.500276 3.53881 0
M  V30 242 C 23.0885 1.92942 4.06206 0
M  V30 243 C 21.8585 2.55637 4.35865 0
M  V30 244 C 24.0565 2.89307 4.25213 0
M  V30 245 N 22.0385 3.9003 4.74078 0
M  V30 246 C 23.4095 4.08556 4.66349 0
M  V30 247 C 25.4645 2.86225 4.07406 0
M  V30 248 C 24.1675 5.25146 4.91543 0
M  V30 249 C 26.1935 4.02011 4.33752 0
M  V30 250 C 25.5555 5.20007 4.75155 0
M  V30 251 H 21.6545 0.189252 0.758754 0
M  V30 252 H 24.2385 1.03988 1.64604 0
M  V30 253 H 22.4095 -0.122568 3.88207 0
M  V30 254 H 24.1415 0.0624733 4.04652 0
M  V30 255 H 20.8965 2.07039 4.25948 0
M  V30 256 H 21.3205 4.59205 4.97454 0
M  V30 257 H 25.9625 1.96154 3.74544 0
M  V30 258 H 23.6805 6.15794 5.23281 0
M  V30 259 H 27.2665 4.00999 4.21534 0
M  V30 260 H 26.1465 6.08113 4.95145 0
M  V30 261 N 23.6496 -1.47581 0.552962 0
M  V30 262 C 24.8776 -2.06875 0.0320556 0
M  V30 263 C 25.2926 -1.40625 -1.25976 0
M  V30 264 O 24.6496 -0.501349 -1.75479 0
M  V30 265 C 24.7006 -3.61092 -0.17167 0
M  V30 266 O 24.4216 -4.24858 1.06899 0
M  V30 267 C 25.9226 -4.37242 -0.730344 0
M  V30 268 H 23.1426 -0.669561 0.043915 0
M  V30 269 H 25.6866 -1.89646 0.765163 0
M  V30 270 H 23.8416 -3.7785 -0.854894 0
M  V30 271 H 24.2556 -5.17334 0.864059 0
M  V30 272 H 25.7296 -5.45842 -0.822203 0
M  V30 273 H 26.2066 -4.03235 -1.74064 0
M  V30 274 H 26.8126 -4.25219 -0.0829543 0
M  V30 275 N 25.1277 -0.289203 -1.54924 0
M  V30 276 C 26.3737 0.323998 -2.00195 0
M  V30 277 C 26.7067 1.54441 -1.17735 0
M  V30 278 O 25.9817 1.92875 -0.250878 0
M  V30 279 C 26.2647 0.692276 -3.53383 0
M  V30 280 C 26.1177 -0.536457 -4.46589 0
M  V30 281 C 27.4367 1.52335 -4.12895 0
M  V30 282 H 24.5557 0.116289 -0.727768 0
M  V30 283 H 27.1977 -0.398954 -1.85764 0
M  V30 284 H 25.3477 1.30822 -3.65811 0
M  V30 285 H 27.0197 -1.17499 -4.46085 0
M  V30 286 H 25.2627 -1.17192 -4.1767 0
M  V30 287 H 25.9337 -0.234806 -5.515 0
M  V30 288 H 28.4097 1.00302 -4.0383 0
M  V30 289 H 27.2857 1.74982 -5.20262 0
M  V30 290 H 27.5467 2.50886 -3.64018 0
M  V30 291 N 26.6058 1.57591 -0.0167156 0
M  V30 292 C 27.8538 1.90906 0.663285 0
M  V30 293 C 28.1748 0.892509 1.73376 0
M  V30 294 O 27.4448 -0.0677623 1.95783 0
M  V30 295 H 26.0248 0.704637 0.247983 0
M  V30 296 H 28.6868 1.94803 -0.0615909 0
M  V30 297 H 27.7828 2.9116 1.12393 0
M  V30 298 N 28.0839 -0.256276 1.55502 0
M  V30 299 C 29.3299 -0.982884 1.78076 0
M  V30 300 C 29.6849 -1.83319 0.584109 0
M  V30 301 O 28.9779 -1.86875 -0.422877 0
M  V30 302 C 29.1719 -1.88432 3.03691 0
M  V30 303 C 29.0009 -1.12276 4.35459 0
M  V30 304 C 27.7709 -0.831647 4.98409 0
M  V30 305 C 29.9689 -0.504933 5.11815 0
M  V30 306 N 27.9509 -0.0450423 6.13883 0
M  V30 307 C 29.3219 0.146696 6.19826 0
M  V30 308 C 31.3769 -0.414455 4.96172 0
M  V30 309 C 30.0799 0.880103 7.13895 0
M  V30 310 C 32.1059 0.305398 5.90611 0
M  V30 311 C 31.4679 0.945701 6.98023 0
M  V30 312 H 27.5669 -0.341084 0.703694 0
M  V30 313 H 30.1509 -0.256909 1.92998 0
M  V30 314 H 28.3219 -2.58241 2.90114 0
M  V30 315 H 30.0539 -2.54579 3.14598 0
M  V30 316 H 26.8089 -1.14111 4.59647 0
M  V30 317 H 27.2329 0.336079 6.76165 0
M  V30 318 H 31.8749 -0.895163 4.13215 0
M  V30 319 H 29.5929 1.37244 7.9636 0
M  V30 320 H 33.1789 0.375946 5.80584 0
M  V30 321 H 32.0589 1.49383 7.6984 0
M  V30 322 N 29.562 -1.4872 -0.521534 0
M  V30 323 C 30.494 -1.59968 -1.64143 0
M  V30 324 C 31.507 -0.483463 -1.55456 0
M  V30 325 O 32.696 -0.75467 -1.61762 0
M  V30 326 C 29.796 -1.52127 -3.02838 0
M  V30 327 C 28.969 -2.78932 -3.36921 0
M  V30 328 C 28.028 -2.64428 -4.54933 0
M  V30 329 O 27.054 -3.38331 -4.57735 0
M  V30 330 N 28.256 -1.74606 -5.53618 0
M  V30 331 H 31.021 -2.56548 -1.54929 0
M  V30 332 H 28.582 -1.45551 -0.708988 0
M  V30 333 H 30.574 -1.40106 -3.79674 0
M  V30 334 H 29.144 -0.634868 -3.06085 0
M  V30 335 H 28.364 -3.05455 -2.4918 0
M  V30 336 H 29.652 -3.63041 -3.56481 0
M  V30 337 H 29.05 -1.13782 -5.54139 0
M  V30 338 H 27.607 -1.6852 -6.29638 0
M  V30 339 N 31.0401 0.771051 -1.3745 0
M  V30 340 C 32.0031 1.86598 -1.33093 0
M  V30 341 C 33.0031 1.59076 -0.234845 0
M  V30 342 O 34.1931 1.67145 -0.490732 0
M  V30 343 C 31.3251 3.23747 -1.06773 0
M  V30 344 H 32.5181 1.91873 -2.30488 0
M  V30 345 H 30.0711 0.970876 -1.2249 0
M  V30 346 H 30.8061 3.24148 -0.099129 0
M  V30 347 H 30.5911 3.45115 -1.86112 0
M  V30 348 H 32.0811 4.03824 -1.06377 0
M  V30 349 N 32.5182 1.22032 0.997298 0
M  V30 350 C 33.9342 0.979326 1.26021 0
M  V30 351 C 34.1342 -0.32972 1.98784 0
M  V30 352 O 33.1902 -1.05345 2.29475 0
M  V30 353 C 34.5032 2.17509 2.07631 0
M  V30 354 C 36.0512 2.21817 2.2083 0
M  V30 355 C 36.5262 3.40933 3.05825 0
M  V30 356 N 38.0172 3.41067 3.13412 0
M  V30 357 C 38.7522 4.29885 3.79455 0
M  V30 358 N 38.2482 5.28914 4.47462 0
M  V30 359 N 40.0412 4.17673 3.76173 0
M  V30 360 H 32.1922 2.06202 0.509352 0
M  V30 361 H 34.4552 0.90334 0.287541 0
M  V30 362 H 34.1612 3.12415 1.61524 0
M  V30 363 H 34.0352 2.17206 3.08385 0
M  V30 364 H 36.4222 1.27462 2.66153 0
M  V30 365 H 36.5032 2.2616 1.1952 0
M  V30 366 H 36.1472 4.35586 2.61203 0
M  V30 367 H 36.0772 3.33829 4.07266 0
M  V30 368 H 38.5682 2.69406 2.65007 0
M  V30 369 H 38.8812 5.92973 4.95583 0
M  V30 370 H 37.2262 5.32831 4.46224 0
M  V30 371 H 40.4172 3.39564 3.22202 0
M  V30 372 H 40.5902 4.87098 4.27363 0
M  V30 373 N 33.9963 -1.19345 1.0293 0
M  V30 374 C 35.2733 -1.84811 0.640642 0
M  V30 375 C 35.6533 -1.91855 -0.88062 0
M  V30 376 O 35.0013 -1.43587 -1.7775 0
M  V30 377 C 35.2113 -3.23755 1.30321 0
M  V30 378 C 36.5593 -3.99912 1.42673 0
M  V30 379 O 37.5833 -3.33155 1.26041 0
M  V30 380 O 36.4423 -5.19494 1.6967 0
M  V30 381 H 33.5363 -0.796443 0.222726 0
M  V30 382 H 36.0823 -1.26831 1.12748 0
M  V30 383 H 34.8543 -3.13466 2.34211 0
M  V30 384 H 34.4773 -3.89381 0.804261 0
M  V30 385 N 35.4744 -0.807222 -1.35358 0
M  V30 386 C 36.4374 -0.223665 -2.28106 0
M  V30 387 C 37.4374 0.589354 -1.4961 0
M  V30 388 O 38.6274 0.407745 -1.69361 0
M  V30 389 C 35.7594 0.688149 -3.33882 0
M  V30 390 H 36.9524 -1.04169 -2.81227 0
M  V30 391 H 34.5054 -0.577921 -1.45223 0
M  V30 392 H 35.2404 1.52984 -2.85948 0
M  V30 393 H 35.0254 0.10687 -3.91954 0
M  V30 394 H 36.5154 1.09075 -4.03104 0
M  V30 395 N 36.9525 1.47285 -0.560781 0
M  V30 396 C 38.1995 2.02464 -0.038062 0
M  V30 397 C 38.5275 1.43474 1.31322 0
M  V30 398 O 37.7825 0.581311 1.86867 0
M  V30 399 C 38.0815 3.57258 0.100784 0
M  V30 400 C 37.7475 4.35184 -1.18007 0
M  V30 401 C 36.4095 4.56194 -1.53103 0
M  V30 402 C 38.7615 4.80098 -2.02867 0
M  V30 403 C 36.0895 5.19367 -2.729 0
M  V30 404 C 38.4415 5.44593 -3.21871 0
M  V30 405 C 37.1055 5.63835 -3.57276 0
M  V30 406 H 36.3755 0.740869 -0.0139279 0
M  V30 407 H 39.0225 1.76916 -0.733012 0
M  V30 408 H 37.3275 3.81819 0.878724 0
M  V30 409 H 39.0245 3.97606 0.520639 0
M  V30 410 H 35.6145 4.19113 -0.8968 0
M  V30 411 H 39.7985 4.63642 -1.7706 0
M  V30 412 H 35.0545 5.32459 -3.00496 0
M  V30 413 H 39.2285 5.78358 -3.87911 0
M  V30 414 H 36.8555 6.12557 -4.50197 0
M  V30 415 N 38.4306 0.297415 1.54768 0
M  V30 416 C 39.6786 -0.312295 1.99673 0
M  V30 417 C 39.9996 -1.54686 1.18732 0
M  V30 418 O 39.2696 -1.93854 0.282382 0
M  V30 419 H 37.8496 -0.118381 0.73756 0
M  V30 420 H 40.5116 0.407915 1.90583 0
M  V30 421 H 39.6076 -0.586813 3.06534 0
M  V30 422 N 39.9087 -1.5758 0.0250728 0
M  V30 423 C 41.1857 -1.82917 -0.692873 0
M  V30 424 C 41.5657 -0.908137 -1.90568 0
M  V30 425 O 40.9137 0.0372298 -2.2847 0
M  V30 426 C 41.1237 -3.32034 -1.07492 0
M  V30 427 C 42.4717 -3.98406 -1.46826 0
M  V30 428 O 43.4957 -3.36505 -1.16801 0
M  V30 429 O 42.3547 -5.07497 -2.02754 0
M  V30 430 H 39.4487 -0.754079 -0.33955 0
M  V30 431 H 41.9947 -1.69619 0.0524456 0
M  V30 432 H 40.7667 -3.90728 -0.211552 0
M  V30 433 H 40.3897 -3.50424 -1.87854 0
M  V30 434 N 41.3868 0.248026 -1.55636 0
M  V30 435 C 42.3498 1.29044 -1.89421 0
M  V30 436 C 43.3498 1.41134 -0.770581 0
M  V30 437 O 44.5398 1.39854 -1.03858 0
M  V30 438 C 41.6718 2.66831 -2.12165 0
M  V30 439 H 42.8648 1.00305 -2.82629 0
M  V30 440 H 40.4178 0.487265 -1.48511 0
M  V30 441 H 41.1528 3.00711 -1.21422 0
M  V30 442 H 40.9378 2.59438 -2.93997 0
M  V30 443 H 42.4278 3.42103 -2.3949 0
M  V30 444 N 42.8649 1.48995 0.513639 0
M  V30 445 C 44.0929 1.61531 1.29288 0
M  V30 446 C 44.5079 0.281801 1.86685 0
M  V30 447 O 43.8649 -0.731111 1.67215 0
M  V30 448 C 43.9159 2.67449 2.43215 0
M  V30 449 O 43.6369 3.95626 1.88179 0
M  V30 450 C 45.1379 2.90575 3.34785 0
M  V30 451 H 42.3579 0.544165 0.392588 0
M  V30 452 H 44.9019 1.9494 0.617956 0
M  V30 453 H 43.0569 2.36853 3.0656 0
M  V30 454 H 43.4709 4.53868 2.62876 0
M  V30 455 H 44.9449 3.68449 4.11035 0
M  V30 456 H 45.4219 2.00011 3.91015 0
M  V30 457 H 46.0279 3.22538 2.77218 0
M  V30 458 N 44.343 -0.763751 1.37857 0
M  V30 459 C 45.759 -1.06542 1.18832 0
M  V30 460 C 45.959 -2.01478 0.0299722 0
M  V30 461 O 45.015 -2.4458 -0.627447 0
M  V30 462 C 46.328 -1.65525 2.51042 0
M  V30 463 C 47.876 -1.77745 2.57635 0
M  V30 464 C 48.351 -2.4014 3.89996 0
M  V30 465 N 49.842 -2.47582 3.91481 0
M  V30 466 C 50.577 -2.96732 4.9065 0
M  V30 467 N 50.073 -3.45993 6.00217 0
M  V30 468 N 51.866 -2.95679 4.78048 0
M  V30 469 H 44.017 -0.133556 2.1198 0
M  V30 470 H 46.28 -0.121879 0.940133 0
M  V30 471 H 45.986 -1.03236 3.36207 0
M  V30 472 H 45.86 -2.64719 2.68707 0
M  V30 473 H 48.247 -2.39164 1.72872 0
M  V30 474 H 48.328 -0.772836 2.43846 0
M  V30 475 H 47.972 -1.79358 4.75177 0
M  V30 476 H 47.902 -3.41223 4.01092 0
M  V30 477 H 50.393 -2.1273 3.12337 0
M  V30 478 H 50.706 -3.81922 6.7183 0
M  V30 479 H 49.051 -3.44077 6.03851 0
M  V30 480 H 52.242 -2.56499 3.91568 0
M  V30 481 H 52.415 -3.33672 5.55488 0
M  V30 482 N 45.8211 -1.22559 -0.990812 0
M  V30 483 C 47.0491 -1.07779 -1.76611 0
M  V30 484 C 47.4641 0.371513 -1.85109 0
M  V30 485 O 46.8211 1.25737 -1.32274 0
M  V30 486 C 46.8721 -1.68512 -3.19822 0
M  V30 487 O 46.5931 -3.07774 -3.1178 0
M  V30 488 C 48.0941 -1.59035 -4.13791 0
M  V30 489 H 45.3141 -0.377729 -0.554583 0
M  V30 490 H 47.8581 -1.62195 -1.24551 0
M  V30 491 H 46.0131 -1.18154 -3.68942 0
M  V30 492 H 46.4271 -3.37062 -4.01858 0
M  V30 493 H 47.9011 -2.0625 -5.1202 0
M  V30 494 H 48.3781 -0.547273 -4.35777 0
M  V30 495 H 48.9841 -2.08709 -3.70568 0
M  V30 496 N 47.2992 1.18797 -1.03562 0
M  V30 497 C 48.2622 2.20464 -0.626769 0
M  V30 498 C 49.2622 1.57721 0.313173 0
M  V30 499 O 50.4522 1.73917 0.0992615 0
M  V30 500 C 47.5842 3.40802 0.0818498 0
M  V30 501 H 48.7772 2.58149 -1.5264 0
M  V30 502 H 46.3302 1.32593 -0.827578 0
M  V30 503 H 47.0652 3.08642 0.995518 0
M  V30 504 H 46.8502 3.8758 -0.593652 0
M  V30 505 H 48.3402 4.16092 0.354584 0
M  V30 506 N 48.7773 0.814389 1.34928 0
M  V30 507 C 49.7073 0.244827 2.32213 0
M  V30 508 C 50.6883 -0.634024 1.57842 0
M  V30 509 O 51.8733 -0.562676 1.8587 0
M  V30 510 C 49.0033 -0.601106 3.42058 0
M  V30 511 C 47.9573 0.179896 4.27622 0
M  V30 512 C 47.2833 -0.788237 5.28858 0
M  V30 513 C 48.5833 1.38329 5.03649 0
M  V30 514 H 50.2773 1.05763 2.80097 0
M  V30 515 H 47.8233 0.510029 1.34665 0
M  V30 516 H 49.7763 -1.00968 4.09125 0
M  V30 517 H 48.5003 -1.44688 2.92802 0
M  V30 518 H 47.1593 0.569739 3.62146 0
M  V30 519 H 46.8073 -1.62973 4.75866 0
M  V30 520 H 46.5073 -0.269942 5.8698 0
M  V30 521 H 48.0313 -1.19485 5.98795 0
M  V30 522 H 49.4453 1.04918 5.63618 0
M  V30 523 H 47.8423 1.83662 5.71304 0
M  V30 524 H 48.9123 2.16592 4.33839 0
M  V30 525 N 50.2554 -1.46986 0.568584 0
M  V30 526 C 51.5324 -1.95592 -0.0174074 0
M  V30 527 C 51.9124 -1.51124 -1.47393 0
M  V30 528 O 51.2604 -0.755329 -2.15655 0
M  V30 529 C 51.4704 -3.48719 0.139913 0
M  V30 530 C 52.8184 -4.246 0.000426376 0
M  V30 531 O 53.8424 -3.56135 0.0680316 0
M  V30 532 O 52.7014 -5.46302 -0.146988 0
M  V30 533 H 49.7954 -0.82498 -0.0577599 0
M  V30 534 H 52.3414 -1.57335 0.635909 0
M  V30 535 H 51.1134 -3.73927 1.15301 0
M  V30 536 H 50.7364 -3.93771 -0.550491 0
M  V30 537 N 51.7335 -0.305618 -1.54608 0
M  V30 538 C 53.1445 0.186098 -1.8577 0
M  V30 539 C 53.4955 1.53058 -1.22751 0
M  V30 540 O 52.6205 2.09888 -0.526893 0
M  V30 541 C 53.2155 0.344449 -3.37044 0
M  V30 542 C 51.7745 0.780384 -3.68221 0
M  V30 543 C 50.9215 -0.108554 -2.77087 0
M  V30 544 H 53.8725 -0.526485 -1.49712 0
M  V30 545 H 53.8935 1.17828 -3.61796 0
M  V30 546 H 53.4055 -0.634235 -3.82883 0
M  V30 547 H 51.5065 1.76945 -3.27904 0
M  V30 548 H 51.6195 0.596572 -4.75371 0
M  V30 549 H 49.9835 0.412931 -2.5133 0
M  V30 550 H 50.7665 -1.08368 -3.25747 0
M  V30 551 N 53.2116 1.57565 -0.0334293 0
M  V30 552 C 54.4576 1.92262 0.645226 0
M  V30 553 C 54.7906 0.910543 1.71531 0
M  V30 554 O 54.0656 -0.066099 1.94388 0
M  V30 555 C 54.3486 3.37422 1.2577 0
M  V30 556 C 54.2016 4.49369 0.196891 0
M  V30 557 C 55.5206 3.82628 2.17449 0
M  V30 558 H 52.6396 0.699171 0.233085 0
M  V30 559 H 55.2816 1.89779 -0.0915694 0
M  V30 560 H 53.4316 3.39669 1.88566 0
M  V30 561 H 55.1036 4.59254 -0.433962 0
M  V30 562 H 53.3466 4.31168 -0.477137 0
M  V30 563 H 54.0176 5.47978 0.665124 0
M  V30 564 H 56.4936 3.82145 1.64634 0
M  V30 565 H 55.3696 4.84883 2.57254 0
M  V30 566 H 55.6306 3.18376 3.0674 0
M  V30 567 N 54.6897 -0.239769 1.55765 0
M  V30 568 C 55.5997 -1.31831 1.94056 0
M  V30 569 C 56.6157 -1.52275 0.841925 0
M  V30 570 O 57.7917 -1.65759 1.14394 0
M  V30 571 C 54.8567 -2.65156 2.23368 0
M  V30 572 C 53.9177 -2.53173 3.46701 0
M  V30 573 C 53.1507 -3.8014 3.74606 0
M  V30 574 O 53.3737 -4.82343 3.04469 0
M  V30 575 O 52.3077 -3.78344 4.68123 0
M  V30 576 H 56.1337 -1.02347 2.85935 0
M  V30 577 H 53.7187 -0.441123 1.42739 0
M  V30 578 H 55.6007 -3.43929 2.43497 0
M  V30 579 H 54.2757 -2.94358 1.34666 0
M  V30 580 H 53.1827 -1.72662 3.31871 0
M  V30 581 H 54.5157 -2.28915 4.35728 0
M  V30 582 N 56.1678 -1.49265 -0.50573 0
M  V30 583 C 57.1308 -1.65075 -1.59006 0
M  V30 584 C 58.1308 -0.522768 -1.52065 0
M  V30 585 O 59.3208 -0.789117 -1.55302 0
M  V30 586 C 56.4528 -1.64369 -2.98656 0
M  V30 587 H 57.6458 -2.61784 -1.46319 0
M  V30 588 H 55.1988 -1.38226 -0.729616 0
M  V30 589 H 55.9338 -0.692272 -3.16825 0
M  V30 590 H 55.7188 -2.46282 -3.05103 0
M  V30 591 H 57.2088 -1.78674 -3.77446 0
M  V30 592 N 57.6459 0.756429 -1.3826 0
M  V30 593 C 58.8919 1.51772 -1.34511 0
M  V30 594 C 59.2249 1.94089 0.0656691 0
M  V30 595 O 58.4999 1.65221 1.02626 0
M  V30 596 C 58.7829 2.77226 -2.29821 0
M  V30 597 C 58.6359 2.41065 -3.79747 0
M  V30 598 C 59.9549 3.79236 -2.23312 0
M  V30 599 H 57.0739 0.550578 -0.489931 0
M  V30 600 H 59.7159 0.866607 -1.69086 0
M  V30 601 H 57.8659 3.32784 -2.00467 0
M  V30 602 H 59.5379 1.91303 -4.19763 0
M  V30 603 H 57.7809 1.7356 -3.97567 0
M  V30 604 H 58.4519 3.3081 -4.41892 0
M  V30 605 H 60.9279 3.3321 -2.49219 0
M  V30 606 H 59.8039 4.64714 -2.92116 0
M  V30 607 H 60.0649 4.24615 -1.23102 0
M  V30 608 N 59.124 1.23083 0.984299 0
M  V30 609 C 60.074 0.975749 2.06066 0
M  V30 610 C 61.058 -0.0768251 1.60716 0
M  V30 611 O 62.25 0.134805 1.76486 0
M  V30 612 C 59.379 0.564673 3.38624 0
M  V30 613 C 58.465 1.65244 3.90583 0
M  V30 614 N 58.856 2.88193 4.15666 0
M  V30 615 C 57.154 1.52612 4.19077 0
M  V30 616 C 57.855 3.58593 4.58024 0
M  V30 617 N 56.831 2.86093 4.62225 0
M  V30 618 H 60.633 1.90957 2.23411 0
M  V30 619 H 58.147 1.12963 1.16675 0
M  V30 620 H 60.144 0.36322 4.15315 0
M  V30 621 H 58.804 -0.362147 3.22674 0
M  V30 622 H 59.815 3.24537 4.03604 0
M  V30 623 H 56.492 0.666121 4.12152 0
M  V30 624 H 57.882 4.63974 4.85982 0
M  V30 625 N 60.6021 -1.18246 1.0419 0
M  V30 626 C 61.5491 -2.2192 0.634037 0
M  V30 627 C 62.5191 -1.62179 -0.358765 0
M  V30 628 O 63.7041 -1.89122 -0.252466 0
M  V30 629 C 60.8441 -3.451 0.00445535 0
M  V30 630 C 59.9571 -4.19174 1.04487 0
M  V30 631 C 59.0921 -5.29813 0.383676 0
M  V30 632 C 58.1311 -5.9566 1.4091 0
M  V30 633 N 57.2681 -6.97834 0.772784 0
M  V30 634 H 62.1081 -2.56164 1.52263 0
M  V30 635 H 59.6451 -1.25843 0.761701 0
M  V30 636 H 61.6031 -4.15485 -0.377919 0
M  V30 637 H 60.2331 -3.11472 -0.847652 0
M  V30 638 H 59.2851 -3.47604 1.54518 0
M  V30 639 H 60.5971 -4.64267 1.82368 0
M  V30 640 H 59.7511 -6.06677 -0.0528366 0
M  V30 641 H 58.4901 -4.85825 -0.427208 0
M  V30 642 H 57.4951 -5.17535 1.85574 0
M  V30 643 H 58.7201 -6.4173 2.22171 0
M  V30 644 H 56.6661 -6.55998 -0.0177708 0
M  V30 645 H 56.5831 -7.41186 1.48928 0
M  V30 646 H 57.8511 -7.78665 0.36071 0
M  V30 647 N 62.0802 -0.821533 -1.34494 0
M  V30 648 C 63.0102 -0.257138 -2.3208 0
M  V30 649 C 63.9912 0.625645 -1.58176 0
M  V30 650 O 65.1762 0.552811 -1.86166 0
M  V30 651 C 62.3062 0.582958 -3.42372 0
M  V30 652 C 61.2602 -0.202571 -4.2752 0
M  V30 653 C 60.5862 0.760179 -5.29269 0
M  V30 654 C 61.8862 -1.40998 -5.02908 0
M  V30 655 H 63.5802 -1.07247 -2.79532 0
M  V30 656 H 61.1262 -0.517163 -1.34393 0
M  V30 657 H 63.0792 0.987972 -4.09655 0
M  V30 658 H 61.8032 1.43133 -2.93565 0
M  V30 659 H 60.4622 -0.588936 -3.61838 0
M  V30 660 H 60.1102 1.60447 -4.76724 0
M  V30 661 H 59.8102 0.238809 -5.87115 0
M  V30 662 H 61.3342 1.16308 -5.9942 0
M  V30 663 H 62.7482 -1.07905 -5.63054 0
M  V30 664 H 61.1452 -1.86689 -5.70322 0
M  V30 665 H 62.2152 -2.1889 -4.32684 0
M  V30 666 N 63.5583 1.46682 -0.576371 0
M  V30 667 C 64.5213 2.28707 0.150239 0
M  V30 668 C 65.5213 1.38035 0.824794 0
M  V30 669 O 66.7113 1.60476 0.677719 0
M  V30 670 C 63.8433 3.18248 1.22192 0
M  V30 671 H 65.0363 2.94423 -0.570521 0
M  V30 672 H 62.5893 1.52688 -0.334078 0
M  V30 673 H 63.3243 2.57265 1.97447 0
M  V30 674 H 63.1093 3.85 0.742812 0
M  V30 675 H 64.5993 3.80001 1.73172 0
M  V30 676 N 65.0364 0.313813 1.54444 0
M  V30 677 C 65.9464 -0.565714 2.27677 0
M  V30 678 C 66.9624 -1.13754 1.31666 0
M  V30 679 O 68.1384 -1.15959 1.64668 0
M  V30 680 C 65.2034 -1.71528 3.01296 0
M  V30 681 C 64.2644 -1.17624 4.12872 0
M  V30 682 C 63.4974 -2.27102 4.8297 0
M  V30 683 O 63.7204 -3.47256 4.52514 0
M  V30 684 O 62.6544 -1.9307 5.70094 0
M  V30 685 H 66.4804 0.0287296 3.03686 0
M  V30 686 H 64.0654 0.0798312 1.49187 0
M  V30 687 H 65.9474 -2.38476 3.4743 0
M  V30 688 H 64.6224 -2.29608 2.2817 0
M  V30 689 H 63.5294 -0.472124 3.71109 0
M  V30 690 H 64.8624 -0.640695 4.88012 0
M  V30 691 N 66.5145 -1.57545 0.0417849 0
M  V30 692 C 67.7635 -1.91494 -0.633492 0
M  V30 693 C 68.0765 -0.921084 -1.72556 0
M  V30 694 O 69.2825 -1.15228 -2.45835 0
M  V30 695 C 67.7385 -3.40072 -1.17808 0
M  V30 696 C 67.3465 -4.47843 -0.118633 0
M  V30 697 C 69.0905 -3.8307 -1.82915 0
M  V30 698 C 66.9975 -5.87529 -0.675578 0
M  V30 699 H 65.9275 -0.714653 -0.24039 0
M  V30 700 H 68.5785 -1.83175 0.109148 0
M  V30 701 H 66.9605 -3.43364 -1.97274 0
M  V30 702 H 68.1345 -4.56128 0.654494 0
M  V30 703 H 66.4495 -4.14128 0.434414 0
M  V30 704 H 69.0465 -4.84794 -2.25563 0
M  V30 705 H 69.3895 -3.1881 -2.67705 0
M  V30 706 H 69.9225 -3.82255 -1.10119 0
M  V30 707 H 66.6615 -6.55362 0.134475 0
M  V30 708 H 66.1815 -5.82824 -1.4169 0
M  V30 709 H 67.8605 -6.36491 -1.1614 0
M  V30 710 N 67.9926 0.231505 -1.5589 0
M  V30 711 C 69.2406 0.955461 -1.78088 0
M  V30 712 C 69.5616 1.85262 -0.608533 0
M  V30 713 O 68.8316 1.92277 0.375035 0
M  V30 714 H 67.4116 0.355787 -0.656829 0
M  V30 715 H 70.0736 0.245751 -1.93344 0
M  V30 716 H 69.1696 1.56814 -2.69844 0
M  V30 717 N 69.4707 1.49531 0.497807 0
M  V30 718 C 70.4337 1.65916 1.58128 0
M  V30 719 C 71.4337 0.530825 1.51786 0
M  V30 720 O 72.6237 0.797342 1.54881 0
M  V30 721 C 69.7557 1.65951 2.9778 0
M  V30 722 H 70.9487 2.62556 1.44929 0
M  V30 723 H 68.5017 1.38611 0.722275 0
M  V30 724 H 69.2367 0.709065 3.16453 0
M  V30 725 H 69.0217 2.47897 3.03792 0
M  V30 726 H 70.5117 1.80673 3.76493 0
M  V30 727 N 70.9488 -0.749086 1.3866 0
M  V30 728 C 72.1788 -1.53611 1.38157 0
M  V30 729 C 72.5868 -1.89177 -0.0293595 0
M  V30 730 O 71.9298 -1.53606 -1.00752 0
M  V30 731 C 71.9918 -2.86087 2.17702 0
M  V30 732 C 71.6558 -2.73034 3.66472 0
M  V30 733 C 72.6528 -2.42526 4.59866 0
M  V30 734 C 70.3378 -2.90345 4.09884 0
M  V30 735 C 72.3318 -2.29492 5.94653 0
M  V30 736 C 70.0188 -2.7693 5.4475 0
M  V30 737 C 71.0168 -2.46547 6.36949 0
M  V30 738 O 70.7048 -2.33199 7.69333 0
M  V30 739 H 70.4368 -0.481773 0.474205 0
M  V30 740 H 72.9908 -0.934465 1.82912 0
M  V30 741 H 71.2208 -3.48458 1.67672 0
M  V30 742 H 72.9098 -3.47625 2.09551 0
M  V30 743 H 73.6758 -2.28816 4.27631 0
M  V30 744 H 69.5548 -3.1299 3.38464 0
M  V30 745 H 73.0988 -2.05698 6.66584 0
M  V30 746 H 68.9958 -2.90215 5.76581 0
M  V30 747 H 69.7638 -2.48376 7.79905 0
M  V30 748 N 72.4269 -1.23603 -0.977757 0
M  V30 749 C 73.6749 -1.06759 -1.71601 0
M  V30 750 C 73.9959 0.395929 -1.90938 0
M  V30 751 O 73.2659 1.28356 -1.47992 0
M  V30 752 H 71.8459 -0.392062 -0.635843 0
M  V30 753 H 74.5079 -1.55362 -1.1768 0
M  V30 754 H 73.6039 -1.55763 -2.70452 0
M  V30 755 N 73.905 1.17692 -1.04816 0
M  V30 756 C 75.154 1.87192 -0.751132 0
M  V30 757 C 75.467 1.8169 0.724441 0
M  V30 758 O 76.673 2.46625 1.13527 0
M  V30 759 C 75.129 3.35857 -1.29338 0
M  V30 760 C 74.737 3.4987 -2.79812 0
M  V30 761 C 76.481 4.10709 -1.07322 0
M  V30 762 C 74.388 4.92536 -3.27356 0
M  V30 763 H 73.318 0.701162 -0.277288 0
M  V30 764 H 75.969 1.32932 -1.26496 0
M  V30 765 H 74.351 3.89631 -0.707376 0
M  V30 766 H 75.525 3.06332 -3.44235 0
M  V30 767 H 73.84 2.88433 -3.00325 0
M  V30 768 H 76.437 5.15952 -1.4035 0
M  V30 769 H 76.78 4.16299 -0.0108001 0
M  V30 770 H 77.313 3.6313 -1.62423 0
M  V30 771 H 74.052 4.92119 -4.33012 0
M  V30 772 H 73.572 5.3676 -2.67673 0
M  V30 773 H 75.251 5.61288 -3.21815 0
M  V30 774 N 75.3831 0.828654 1.34056 0
M  V30 775 C 76.6111 0.43262 2.02326 0
M  V30 776 C 77.0261 -0.963147 1.62385 0
M  V30 777 O 76.3831 -1.62425 0.832121 0
M  V30 778 C 76.4341 0.53182 3.57567 0
M  V30 779 O 76.1551 1.87258 3.96063 0
M  V30 780 C 77.6561 0.131422 4.43105 0
M  V30 781 H 74.8761 0.172923 0.648335 0
M  V30 782 H 77.4201 1.1184 1.71208 0
M  V30 783 H 75.5751 -0.105938 3.87255 0
M  V30 784 H 75.9891 1.85087 4.90758 0
M  V30 785 H 77.4631 0.251904 5.51425 0
M  V30 786 H 77.9401 -0.925645 4.29335 0
M  V30 787 H 78.5461 0.743207 4.18756 0
M  V30 788 N 76.8612 -1.46375 0.584142 0
M  V30 789 C 78.1082 -2.02378 0.0702675 0
M  V30 790 C 78.4362 -1.45545 -1.29023 0
M  V30 791 O 77.6912 -0.610967 -1.85918 0
M  V30 792 C 77.9902 -3.57373 -0.0439342 0
M  V30 793 C 77.6562 -4.33252 1.24915 0
M  V30 794 C 76.3182 -4.53701 1.60341 0
M  V30 795 C 78.6702 -4.7681 2.1048 0
M  V30 796 C 75.9982 -5.1496 2.81128 0
M  V30 797 C 78.3502 -5.39404 3.30494 0
M  V30 798 C 77.0142 -5.5808 3.66201 0
M  V30 799 H 76.2842 -0.740554 0.0257127 0
M  V30 800 H 78.9312 -1.75727 0.761065 0
M  V30 801 H 77.2362 -3.83169 -0.817869 0
M  V30 802 H 78.9332 -3.98384 -0.457318 0
M  V30 803 H 75.5232 -4.17633 0.963364 0
M  V30 804 H 79.7072 -4.60766 1.84414 0
M  V30 805 H 74.9632 -5.27611 3.08928 0
M  V30 806 H 79.1372 -5.72114 3.97063 0
M  V30 807 H 76.7642 -6.05318 4.59885 0
M  V30 808 N 78.3393 -0.321999 -1.54275 0
M  V30 809 C 79.2893 0.560185 -2.21011 0
M  V30 810 C 80.2733 1.08283 -1.19011 0
M  V30 811 O 81.4653 1.02011 -1.44647 0
M  V30 812 C 78.5943 1.72137 -2.97025 0
M  V30 813 C 77.6803 1.21369 -4.06363 0
M  V30 814 N 78.0713 0.425566 -5.04007 0
M  V30 815 C 76.3693 1.49255 -4.20284 0
M  V30 816 C 77.0703 0.152601 -5.815 0
M  V30 817 N 76.0463 0.738294 -5.38563 0
M  V30 818 H 79.8483 -0.049265 -2.93859 0
M  V30 819 H 77.3623 -0.127779 -1.61897 0
M  V30 820 H 79.3593 2.36512 -3.43319 0
M  V30 821 H 78.0193 2.33431 -2.25699 0
M  V30 822 H 79.0303 0.068551 -5.17855 0
M  V30 823 H 75.7073 2.11145 -3.60172 0
M  V30 824 H 77.0973 -0.481764 -6.70171 0
M  V30 825 N 79.8174 1.5752 -0.0501392 0
M  V30 826 C 81.0944 1.83996 0.663685 0
M  V30 827 C 81.4744 0.938339 1.89099 0
M  V30 828 O 80.8224 -0.00087759 2.285 0
M  V30 829 C 81.0324 3.33702 1.02196 0
M  V30 830 C 82.3804 4.00691 1.40469 0
M  V30 831 O 83.4044 3.38321 1.11433 0
M  V30 832 O 82.2634 5.10658 1.94654 0
M  V30 833 H 79.3574 0.759385 0.32751 0
M  V30 834 H 81.9034 1.69514 -0.0794238 0
M  V30 835 H 80.6754 3.91015 0.149364 0
M  V30 836 H 80.2984 3.53368 1.82255 0
M  V30 837 N 81.2955 -0.223234 1.56011 0
M  V30 838 C 82.5725 -0.972108 1.69733 0
M  V30 839 C 82.9525 -2.02485 0.59691 0
M  V30 840 O 82.3005 -2.25037 -0.396324 0
M  V30 841 C 82.5105 -1.58407 3.10979 0
M  V30 842 C 83.8585 -2.07696 3.70334 0
M  V30 843 O 84.8825 -1.68304 3.1393 0
M  V30 844 O 83.7415 -2.80096 4.69264 0
M  V30 845 H 80.8355 -0.453993 0.691245 0
M  V30 846 H 83.3815 -0.215149 1.68331 0
M  V30 847 H 82.1535 -0.823831 3.82529 0
M  V30 848 H 81.7765 -2.40661 3.16493 0
M  V30 849 N 82.7736 -1.49793 -0.48987 0
M  V30 850 C 84.0506 -1.50348 -1.25119 0
M  V30 851 C 84.4306 -0.237466 -2.0976 0
M  V30 852 O 83.7786 0.77981 -2.14782 0
M  V30 853 C 83.9886 -2.78872 -2.09837 0
M  V30 854 C 85.3366 -3.288 -2.68655 0
M  V30 855 O 86.3606 -2.80065 -2.20096 0
M  V30 856 O 85.2196 -4.13707 -3.57083 0
M  V30 857 H 82.3136 -0.602242 -0.566775 0
M  V30 858 H 84.8596 -1.62067 -0.503229 0
M  V30 859 H 83.6316 -3.62499 -1.47343 0
M  V30 860 H 83.2546 -2.70066 -2.91805 0
M  V30 861 N 84.2517 0.741722 -1.39055 0
M  V30 862 C 85.1817 1.869 -1.39966 0
M  V30 863 C 86.1627 1.6804 -0.26392 0
M  V30 864 O 87.3477 1.88458 -0.468755 0
M  V30 865 C 84.4777 3.24572 -1.23574 0
M  V30 866 C 83.4317 3.58056 -2.34477 0
M  V30 867 C 82.7577 4.94593 -2.0318 0
M  V30 868 C 84.0577 3.61716 -3.76774 0
M  V30 869 H 85.7517 1.86395 -2.34302 0
M  V30 870 H 83.2977 0.895361 -1.1278 0
M  V30 871 H 85.2507 4.031 -1.22834 0
M  V30 872 H 83.9747 3.25587 -0.257045 0
M  V30 873 H 82.6337 2.81854 -2.34423 0
M  V30 874 H 82.2817 4.92181 -1.03765 0
M  V30 875 H 81.9817 5.17964 -2.77465 0
M  V30 876 H 83.5057 5.75486 -2.04079 0
M  V30 877 H 84.9197 4.30335 -3.78794 0
M  V30 878 H 83.3167 3.96603 -4.50362 0
M  V30 879 H 84.3867 2.61672 -4.08235 0
M  V30 880 N 85.7298 1.2412 0.971189 0
M  V30 881 C 86.9758 1.08041 1.71625 0
M  V30 882 C 87.3088 -0.380407 1.90438 0
M  V30 883 O 86.5838 -1.28127 1.46334 0
M  V30 884 C 86.8668 1.81682 3.10908 0
M  V30 885 C 86.7198 3.35493 2.99608 0
M  V30 886 C 88.0388 1.58671 4.10501 0
M  V30 887 H 85.1578 0.39388 0.622919 0
M  V30 888 H 87.7998 1.52743 1.13003 0
M  V30 889 H 85.9498 1.43684 3.60953 0
M  V30 890 H 87.6218 3.83068 2.57015 0
M  V30 891 H 85.8648 3.64052 2.35899 0
M  V30 892 H 86.5358 3.82217 3.98264 0
M  V30 893 H 89.0118 1.91719 3.69301 0
M  V30 894 H 87.8878 2.1266 5.06031 0
M  V30 895 H 88.1488 0.524161 4.38982 0
M  V30 896 N 87.2079 -1.17134 1.05439 0
M  V30 897 C 88.6189 -1.69084 0.791676 0
M  V30 898 C 88.9699 -1.83822 -0.685839 0
M  V30 899 O 88.0949 -1.52757 -1.53278 0
M  V30 900 C 88.6899 -3.07119 1.4305 0
M  V30 901 C 87.2489 -3.56225 1.21577 0
M  V30 902 C 86.3959 -2.32421 1.51247 0
M  V30 903 H 89.3469 -1.01617 1.219 0
M  V30 904 H 89.3679 -3.71087 0.84112 0
M  V30 905 H 88.8799 -2.9636 2.50584 0
M  V30 906 H 86.9809 -3.72257 0.159787 0
M  V30 907 H 87.0939 -4.38837 1.92246 0
M  V30 908 H 85.4579 -2.3701 0.932653 0
M  V30 909 H 86.2409 -2.24268 2.5992 0
M  V30 910 N 88.686 -0.835752 -1.33615 0
M  V30 911 C 89.933 -0.429959 -1.97883 0
M  V30 912 C 90.261 1.01006 -1.66217 0
M  V30 913 O 89.516 1.72047 -0.93265 0
M  V30 914 C 89.815 -0.593925 -3.52431 0
M  V30 915 C 89.481 -2.00158 -4.04039 0
M  V30 916 C 88.143 -2.38662 -4.17844 0
M  V30 917 C 90.495 -2.92117 -4.31644 0
M  V30 918 C 87.823 -3.68435 -4.56588 0
M  V30 919 C 90.175 -4.21368 -4.71838 0
M  V30 920 C 88.839 -4.59833 -4.83849 0
M  V30 921 H 88.109 -0.157333 -0.724104 0
M  V30 922 H 90.756 -1.06217 -1.59343 0
M  V30 923 H 89.061 0.121619 -3.91611 0
M  V30 924 H 90.758 -0.260282 -4.00154 0
M  V30 925 H 87.348 -1.69252 -3.93766 0
M  V30 926 H 91.532 -2.63608 -4.20505 0
M  V30 927 H 86.788 -3.98046 -4.64079 0
M  V30 928 H 90.962 -4.92703 -4.92155 0
M  V30 929 H 88.589 -5.60438 -5.13627 0
M  V30 930 N 90.1641 1.46063 -0.591896 0
M  V30 931 C 91.4121 2.01938 -0.0808391 0
M  V30 932 C 91.7331 1.46475 1.28725 0
M  V30 933 O 91.0031 0.652944 1.84698 0
M  V30 934 H 89.5831 0.746516 -0.0268938 0
M  V30 935 H 92.2451 1.79055 -0.769752 0
M  V30 936 H 91.3411 3.12094 -0.0187578 0
M  V30 937 N 91.6422 0.330177 1.54103 0
M  V30 938 C 92.8672 -0.274893 2.0557 0
M  V30 939 C 93.2922 -1.44487 1.20437 0
M  V30 940 O 92.6502 -1.80021 0.214991 0
M  V30 941 C 92.6982 -0.68079 3.54115 0
M  V30 942 O 91.8022 -1.7824 3.71893 0
M  V30 943 H 91.1432 -0.0483849 0.662235 0
M  V30 944 H 93.6732 0.480508 1.98878 0
M  V30 945 H 93.6832 -0.961635 3.96505 0
M  V30 946 H 92.3582 0.174903 4.15532 0
M  V30 947 H 90.9352 -1.49985 3.41407 0
M  V30 948 N 93.1203 -1.57491 0.0584922 0
M  V30 949 C 94.3973 -1.84346 -0.653918 0
M  V30 950 C 94.7773 -0.948355 -1.88599 0
M  V30 951 O 94.1253 -0.0112403 -2.28497 0
M  V30 952 C 94.3353 -3.34239 -1.00425 0
M  V30 953 C 95.6833 -4.01431 -1.38342 0
M  V30 954 O 96.7073 -3.38907 -1.09637 0
M  V30 955 O 95.5663 -5.11683 -1.91943 0
M  V30 956 H 92.6603 -0.761112 -0.323478 0
M  V30 957 H 95.2063 -1.6947 0.0884125 0
M  V30 958 H 93.9783 -3.91089 -0.128625 0
M  V30 959 H 93.6013 -3.54329 -1.80378 0
M  V30 960 N 94.5984 0.214957 -1.56127 0
M  V30 961 C 95.5614 1.24997 -1.92116 0
M  V30 962 C 96.5614 1.39467 -0.800344 0
M  V30 963 O 97.7514 1.37619 -1.06802 0
M  V30 964 C 94.8834 2.62271 -2.17777 0
M  V30 965 H 96.0764 0.942875 -2.84693 0
M  V30 966 H 93.6294 0.455654 -1.49511 0
M  V30 967 H 94.3644 2.98068 -1.27773 0
M  V30 968 H 94.1494 2.53143 -2.99434 0
M  V30 969 H 95.6394 3.36946 -2.46693 0
M  V30 970 N 96.0765 1.50051 0.48192 0
M  V30 971 C 97.0085 1.64263 1.59844 0
M  V30 972 C 98.0215 0.52451 1.54119 0
M  V30 973 O 99.2105 0.797293 1.59704 0
M  V30 974 C 96.3105 1.60102 2.98698 0
M  V30 975 C 95.4835 2.87767 3.29407 0
M  V30 976 C 94.5425 2.76397 4.47762 0
M  V30 977 O 93.5685 3.50348 4.48603 0
M  V30 978 N 94.7705 1.89222 5.48794 0
M  V30 979 H 97.5355 2.60566 1.48073 0
M  V30 980 H 95.0965 1.47379 0.670149 0
M  V30 981 H 97.0885 1.50123 3.75826 0
M  V30 982 H 95.6585 0.715798 3.04294 0
M  V30 983 H 94.8785 3.11954 2.40994 0
M  V30 984 H 96.1665 3.72365 3.4673 0
M  V30 985 H 95.5645 1.28434 5.50928 0
M  V30 986 H 94.1215 1.85154 6.24949 0
M  V30 987 N 97.5546 -0.734337 1.39446 0
M  V30 988 C 98.7826 -1.52358 1.39981 0
M  V30 989 C 99.1976 -1.88799 -0.0054975 0
M  V30 990 O 98.5546 -1.54146 -0.976998 0
M  V30 991 C 98.6056 -2.81072 2.27333 0
M  V30 992 O 98.3266 -2.46178 3.62392 0
M  V30 993 C 99.8276 -3.75096 2.36259 0
M  V30 994 H 97.0476 -0.470806 0.478103 0
M  V30 995 H 99.5916 -0.907339 1.83269 0
M  V30 996 H 97.7466 -3.39026 1.87457 0
M  V30 997 H 98.1606 -3.28866 4.08592 0
M  V30 998 H 99.6346 -4.62305 3.01626 0
M  V30 999 H 100.112 -4.16892 1.38194 0
M  V30 1000 H 100.718 -3.23061 2.76608 0
M  V30 1001 N 99.0327 -1.24633 -0.964593 0
M  V30 1002 C 100.449 -1.01239 -1.2338 0
M  V30 1003 C 100.649 0.2769 -1.99588 0
M  V30 1004 O 99.7047 0.992241 -2.32187 0
M  V30 1005 C 101.018 -2.22937 -2.01791 0
M  V30 1006 C 102.566 -2.27594 -2.14872 0
M  V30 1007 C 103.041 -3.48921 -2.96678 0
M  V30 1008 N 104.532 -3.49257 -3.04259 0
M  V30 1009 C 105.267 -4.39795 -3.67924 0
M  V30 1010 N 104.763 -5.40591 -4.33281 0
M  V30 1011 N 106.556 -4.275 -3.64966 0
M  V30 1012 H 98.7067 -2.0748 -0.454502 0
M  V30 1013 H 100.97 -0.910647 -0.26349 0
M  V30 1014 H 100.676 -3.16587 -1.53184 0
M  V30 1015 H 100.55 -2.25306 -3.02518 0
M  V30 1016 H 102.937 -1.34473 -2.6268 0
M  V30 1017 H 103.018 -2.2925 -1.13482 0
M  V30 1018 H 102.662 -4.42359 -2.49562 0
M  V30 1019 H 102.592 -3.4451 -3.98272 0
M  V30 1020 H 105.083 -2.76337 -2.57771 0
M  V30 1021 H 105.396 -6.05904 -4.79687 0
M  V30 1022 H 103.741 -5.44475 -4.3194 0
M  V30 1023 H 106.932 -3.47987 -3.13086 0
M  V30 1024 H 107.105 -4.98258 -4.14298 0
M  V30 1025 N 100.511 1.16574 -1.06058 0
M  V30 1026 C 101.788 1.83048 -0.689416 0
M  V30 1027 C 102.168 1.94122 0.829443 0
M  V30 1028 O 101.516 1.48249 1.7388 0
M  V30 1029 C 101.726 3.20186 -1.38859 0
M  V30 1030 C 103.074 3.95989 -1.53226 0
M  V30 1031 O 104.098 3.29696 -1.3483 0
M  V30 1032 O 102.957 5.14813 -1.83384 0
M  V30 1033 H 100.051 0.790258 -0.243764 0
M  V30 1034 H 102.597 1.23797 -1.16071 0
M  V30 1035 H 101.369 3.07146 -2.4244 0
M  V30 1036 H 100.992 3.87112 -0.907216 0
M  V30 1037 N 101.989 0.842826 1.3317 0
M  V30 1038 C 103.237 0.439577 1.97262 0
M  V30 1039 C 103.558 -1.00548 1.67078 0
M  V30 1040 O 102.828 -1.70098 0.971779 0
M  V30 1041 H 101.408 0.159558 0.72976 0
M  V30 1042 H 104.07 1.07665 1.62463 0
M  V30 1043 H 103.166 0.574886 3.0676 0
M  V30 1044 N 103.467 -1.45747 0.599634 0
M  V30 1045 C 104.716 -2.01502 0.0893511 0
M  V30 1046 C 105.029 -1.4748 -1.28488 0
M  V30 1047 O 106.235 -1.95161 -1.88745 0
M  V30 1048 C 104.691 -3.59735 0.109082 0
M  V30 1049 C 104.299 -4.22754 1.48267 0
M  V30 1050 C 106.043 -4.23085 -0.346374 0
M  V30 1051 C 103.95 -5.73115 1.45921 0
M  V30 1052 H 102.88 -0.753417 0.0296347 0
M  V30 1053 H 105.531 -1.67303 0.753788 0
M  V30 1054 H 103.913 -3.91087 -0.621854 0
M  V30 1055 H 105.087 -4.02987 2.23468 0
M  V30 1056 H 103.402 -3.71567 1.87955 0
M  V30 1057 H 105.999 -5.33327 -0.38298 0
M  V30 1058 H 106.342 -3.93201 -1.36743 0
M  V30 1059 H 106.875 -3.9642 0.331038 0
M  V30 1060 H 103.614 -6.07685 2.45762 0
M  V30 1061 H 103.134 -5.95097 0.749665 0
M  V30 1062 H 104.813 -6.3616 1.17941 0
M  V30 1063 N 104.945 -0.338344 -1.53925 0
M  V30 1064 C 106.194 0.260732 -2.00008 0
M  V30 1065 C 106.507 1.52073 -1.23017 0
M  V30 1066 O 107.713 2.19672 -1.5955 0
M  V30 1067 C 106.169 0.51515 -3.56194 0
M  V30 1068 C 105.777 -0.728645 -4.42035 0
M  V30 1069 C 107.521 1.07337 -4.10706 0
M  V30 1070 C 105.428 -0.445315 -5.89721 0
M  V30 1071 H 104.358 0.101205 -0.747177 0
M  V30 1072 H 107.009 -0.452866 -1.77824 0
M  V30 1073 H 105.391 1.28932 -3.74423 0
M  V30 1074 H 106.565 -1.50352 -4.35581 0
M  V30 1075 H 104.88 -1.20813 -3.98489 0
M  V30 1076 H 107.477 1.30022 -5.18651 0
M  V30 1077 H 107.82 2.0273 -3.63602 0
M  V30 1078 H 108.353 0.360034 -3.96167 0
M  V30 1079 H 105.092 -1.36883 -6.41049 0
M  V30 1080 H 104.612 0.291569 -5.99091 0
M  V30 1081 H 106.291 -0.0606218 -6.46972 0
M  V30 1082 N 106.423 1.57458 -0.0668435 0
M  V30 1083 C 107.386 2.11323 0.887422 0
M  V30 1084 C 108.386 1.03618 1.22964 0
M  V30 1085 O 109.576 1.29626 1.16373 0
M  V30 1086 C 106.708 2.61048 2.19242 0
M  V30 1087 H 107.901 2.96942 0.420194 0
M  V30 1088 H 105.454 1.55239 0.181793 0
M  V30 1089 H 106.189 1.78868 2.70512 0
M  V30 1090 H 105.974 3.39769 1.95702 0
M  V30 1091 H 107.464 3.02814 2.87565 0
M  V30 1092 N 107.901 -0.206675 1.56239 0
M  V30 1093 C 109.149 -0.927007 1.79586 0
M  V30 1094 C 109.47 -1.8427 0.637929 0
M  V30 1095 O 108.74 -1.92849 -0.344398 0
M  V30 1096 H 107.32 -0.345292 0.662407 0
M  V30 1097 H 109.982 -0.21496 1.93711 0
M  V30 1098 H 109.078 -1.52501 2.72305 0
M  V30 1099 N 109.379 -1.50304 -0.473955 0
M  V30 1100 C 110.626 -1.6115 -1.22625 0
M  V30 1101 C 110.954 -0.310517 -1.92005 0
M  V30 1102 O 110.209 0.703419 -1.82621 0
M  V30 1103 C 110.508 -2.73938 -2.29549 0
M  V30 1104 C 110.174 -4.14519 -1.7744 0
M  V30 1105 C 108.836 -4.5277 -1.62949 0
M  V30 1106 C 111.188 -5.02392 -1.3875 0
M  V30 1107 C 108.516 -5.76639 -1.08187 0
M  V30 1108 C 110.868 -6.26805 -0.854309 0
M  V30 1109 C 109.532 -6.63861 -0.696011 0
M  V30 1110 H 108.802 -0.589691 -0.448715 0
M  V30 1111 H 111.449 -1.84228 -0.522705 0
M  V30 1112 H 109.754 -2.44937 -3.05799 0
M  V30 1113 H 111.451 -2.79534 -2.87509 0
M  V30 1114 H 108.041 -3.8434 -1.89685 0
M  V30 1115 H 112.225 -4.73474 -1.4878 0
M  V30 1116 H 107.481 -6.04027 -0.946666 0
M  V30 1117 H 111.655 -6.94258 -0.545843 0
M  V30 1118 H 109.282 -7.59722 -0.26952 0
M  V30 1119 N 110.857 0.726932 -1.39834 0
M  V30 1120 C 111.804 1.841 -1.39197 0
M  V30 1121 C 112.774 1.642 -0.250502 0
M  V30 1122 O 113.959 1.85494 -0.446846 0
M  V30 1123 C 111.099 3.21697 -1.24919 0
M  V30 1124 C 110.212 3.53247 -2.48678 0
M  V30 1125 C 109.347 4.80289 -2.26928 0
M  V30 1126 C 108.386 5.04707 -3.4632 0
M  V30 1127 N 107.523 6.22956 -3.23836 0
M  V30 1128 H 112.363 1.83979 -2.34427 0
M  V30 1129 H 109.9 0.898876 -1.16442 0
M  V30 1130 H 111.858 4.01137 -1.1465 0
M  V30 1131 H 110.488 3.21076 -0.333153 0
M  V30 1132 H 109.54 2.68447 -2.69519 0
M  V30 1133 H 110.852 3.67205 -3.37582 0
M  V30 1134 H 110.006 5.67725 -2.13947 0
M  V30 1135 H 108.745 4.68519 -1.35431 0
M  V30 1136 H 107.75 4.1573 -3.5979 0
M  V30 1137 H 108.975 5.18357 -4.38729 0
M  V30 1138 H 106.921 6.12459 -2.35011 0
M  V30 1139 H 106.838 6.37539 -4.063 0
M  V30 1140 H 108.106 7.1321 -3.14566 0
M  V30 1141 N 112.336 1.25143 0.95797 0
M  V30 1142 C 113.283 1.05235 2.05412 0
M  V30 1143 C 114.253 -0.0374561 1.66058 0
M  V30 1144 O 115.438 0.119073 1.90428 0
M  V30 1145 C 112.578 0.673589 3.38462 0
M  V30 1146 C 111.691 1.8379 3.90954 0
M  V30 1147 C 110.826 1.40381 5.12315 0
M  V30 1148 C 109.865 2.53746 5.57027 0
M  V30 1149 N 109.002 2.11136 6.69601 0
M  V30 1150 H 113.842 1.99048 2.21774 0
M  V30 1151 H 111.379 0.991277 1.08683 0
M  V30 1152 H 113.337 0.434964 4.14926 0
M  V30 1153 H 111.967 -0.227554 3.21997 0
M  V30 1154 H 111.019 2.18992 3.11041 0
M  V30 1155 H 112.331 2.68937 4.20089 0
M  V30 1156 H 111.485 1.12464 5.96185 0
M  V30 1157 H 110.224 0.523015 4.84887 0
M  V30 1158 H 109.229 2.82412 4.71724 0
M  V30 1159 H 110.454 3.42398 5.86464 0
M  V30 1160 H 108.4 1.25468 6.4389 0
M  V30 1161 H 108.317 2.89832 6.98236 0
M  V30 1162 H 109.585 1.86385 7.56889 0
M  V30 1163 N 113.814 -1.1601 1.06675 0
M  V30 1164 C 114.777 -2.18724 0.685001 0
M  V30 1165 C 115.777 -1.58496 -0.271246 0
M  V30 1166 O 116.967 -1.74119 -0.0531156 0
M  V30 1167 C 114.099 -3.40899 0.00853648 0
M  V30 1168 H 115.292 -2.54011 1.59431 0
M  V30 1169 H 112.845 -1.30352 0.862441 0
M  V30 1170 H 113.58 -3.11173 -0.913337 0
M  V30 1171 H 113.365 -3.8587 0.696204 0
M  V30 1172 H 114.855 -4.16886 -0.24414 0
M  V30 1173 N 115.292 -0.849877 -1.32721 0
M  V30 1174 C 116.222 -0.306308 -2.31482 0
M  V30 1175 C 117.203 0.591952 -1.59468 0
M  V30 1176 O 118.388 0.513199 -1.87296 0
M  V30 1177 C 115.518 0.510204 -3.43532 0
M  V30 1178 C 114.472 -0.293209 -4.26994 0
M  V30 1179 C 113.798 0.647743 -5.30762 0
M  V30 1180 C 115.098 -1.51634 -4.99804 0
M  V30 1181 H 116.792 -1.13153 -2.77195 0
M  V30 1182 H 114.338 -0.545553 -1.33266 0
M  V30 1183 H 116.291 0.900856 -4.11658 0
M  V30 1184 H 115.015 1.36874 -2.96535 0
M  V30 1185 H 113.674 -0.665555 -3.60508 0
M  V30 1186 H 113.322 1.50299 -4.8002 0
M  V30 1187 H 113.022 0.11422 -5.87489 0
M  V30 1188 H 114.546 1.03567 -6.01753 0
M  V30 1189 H 115.96 -1.19824 -5.60638 0
M  V30 1190 H 114.357 -1.98745 -5.66234 0
M  V30 1191 H 115.427 -2.28018 -4.27943 0
M  V30 1192 N 116.77 1.45427 -0.607355 0
M  V30 1193 C 118.047 1.9557 -0.0344566 0
M  V30 1194 C 118.427 1.54979 1.43334 0
M  V30 1195 O 117.775 0.812241 2.13576 0
M  V30 1196 C 117.985 3.48226 -0.232321 0
M  V30 1197 C 119.333 4.2445 -0.113001 0
M  V30 1198 O 120.357 3.55829 -0.162431 0
M  V30 1199 O 119.216 5.465 0.00209442 0
M  V30 1200 H 116.31 0.826222 0.0358667 0
M  V30 1201 H 118.856 1.55594 -0.6774 0
M  V30 1202 H 117.628 3.70739 -1.25174 0
M  V30 1203 H 117.251 3.95092 0.445896 0
M  V30 1204 N 118.248 0.346503 1.53744 0
M  V30 1205 C 119.158 -0.517293 2.28826 0
M  V30 1206 C 120.174 -1.10935 1.3405 0
M  V30 1207 O 121.35 -1.1244 1.6709 0
M  V30 1208 C 118.415 -1.65098 3.04866 0
M  V30 1209 C 117.476 -1.0884 4.15274 0
M  V30 1210 C 116.709 -2.16806 4.87679 0
M  V30 1211 O 116.932 -3.3758 4.59778 0
M  V30 1212 O 115.866 -1.80934 5.74061 0
M  V30 1213 H 119.692 0.0931396 3.03557 0
M  V30 1214 H 117.277 0.111458 1.48984 0
M  V30 1215 H 119.159 -2.31053 3.5241 0
M  V30 1216 H 117.834 -2.24717 2.32989 0
M  V30 1217 H 116.741 -0.3933 3.72027 0
M  V30 1218 H 118.074 -0.537036 4.89261 0
M  V30 1219 N 119.726 -1.57421 0.075193 0
M  V30 1220 C 120.954 -1.97946 -0.602076 0
M  V30 1221 C 121.369 -0.953674 -1.62943 0
M  V30 1222 O 120.726 0.0592551 -1.82404 0
M  V30 1223 C 120.777 -3.38546 -1.26762 0
M  V30 1224 O 120.498 -4.37195 -0.281376 0
M  V30 1225 C 121.999 -3.93966 -2.03239 0
M  V30 1226 H 119.219 -0.650918 -0.162931 0
M  V30 1227 H 121.763 -2.03959 0.148601 0
M  V30 1228 H 119.918 -3.33609 -1.96936 0
M  V30 1229 H 120.332 -5.18975 -0.759267 0
M  V30 1230 H 121.806 -4.94555 -2.45193 0
M  V30 1231 H 122.283 -3.30693 -2.8903 0
M  V30 1232 H 122.889 -4.02315 -1.37924 0
M  V30 1233 N 121.204 0.198386 -1.56346 0
M  V30 1234 C 122.452 0.91747 -1.80075 0
M  V30 1235 C 122.773 1.83929 -0.647692 0
M  V30 1236 O 122.043 1.93029 0.334166 0
M  V30 1237 H 120.623 0.341774 -0.664228 0
M  V30 1238 H 123.285 0.204684 -1.93822 0
M  V30 1239 H 122.381 1.51055 -2.7311 0
M  V30 1240 N 122.682 1.50554 0.465978 0
M  V30 1241 C 123.612 1.72722 1.57128 0
M  V30 1242 C 124.593 0.576294 1.6004 0
M  V30 1243 O 125.778 0.81598 1.76225 0
M  V30 1244 C 122.908 1.82605 2.95419 0
M  V30 1245 C 121.862 2.97835 3.07373 0
M  V30 1246 C 121.188 2.92867 4.47363 0
M  V30 1247 C 122.488 4.38265 2.84114 0
M  V30 1248 H 124.182 2.65267 1.38829 0
M  V30 1249 H 121.728 1.2765 0.666441 0
M  V30 1250 H 123.681 1.96698 3.72677 0
M  V30 1251 H 122.405 0.866858 3.14886 0
M  V30 1252 H 121.064 2.83401 2.3255 0
M  V30 1253 H 120.712 1.94783 4.63755 0
M  V30 1254 H 120.412 3.70227 4.56296 0
M  V30 1255 H 121.936 3.09015 5.26633 0
M  V30 1256 H 123.35 4.53198 3.51118 0
M  V30 1257 H 121.747 5.17115 3.04487 0
M  V30 1258 H 122.817 4.50281 1.7993 0
M  V30 1259 N 124.16 -0.719506 1.40217 0
M  V30 1260 C 125.409 -1.47486 1.37589 0
M  V30 1261 C 125.722 -1.9559 -0.0201568 0
M  V30 1262 O 126.928 -2.70973 -0.169049 0
M  V30 1263 C 125.384 -2.66575 2.41796 0
M  V30 1264 C 124.992 -2.25358 3.87192 0
M  V30 1265 C 126.736 -3.4433 2.48269 0
M  V30 1266 C 124.643 -3.41262 4.83005 0
M  V30 1267 H 123.573 -0.553901 0.511576 0
M  V30 1268 H 126.224 -0.783427 1.65936 0
M  V30 1269 H 124.606 -3.3787 2.06543 0
M  V30 1270 H 125.78 -1.61509 4.31569 0
M  V30 1271 H 124.095 -1.60657 3.84159 0
M  V30 1272 H 126.692 -4.30569 3.17041 0
M  V30 1273 H 127.035 -3.87872 1.51198 0
M  V30 1274 H 127.568 -2.80076 2.82493 0
M  V30 1275 H 124.307 -3.02755 5.81394 0
M  V30 1276 H 123.827 -4.0404 4.43297 0
M  V30 1277 H 125.506 -4.07383 5.02641 0
M  V30 1278 N 125.638 -1.25649 -0.95132 0
M  V30 1279 C 126.884 -1.10757 -1.69884 0
M  V30 1280 C 127.217 0.350061 -1.91019 0
M  V30 1281 O 126.492 1.25783 -1.48354 0
M  V30 1282 C 126.775 -1.86606 -3.07978 0
M  V30 1283 C 126.628 -3.40217 -2.94232 0
M  V30 1284 C 127.947 -1.65182 -4.07925 0
M  V30 1285 H 125.066 -0.40374 -0.616574 0
M  V30 1286 H 127.708 -1.54521 -1.10558 0
M  V30 1287 H 125.858 -1.49409 -3.58621 0
M  V30 1288 H 127.53 -3.87108 -2.50889 0
M  V30 1289 H 125.773 -3.67759 -2.30078 0
M  V30 1290 H 126.444 -3.88505 -3.92133 0
M  V30 1291 H 128.92 -1.9757 -3.66204 0
M  V30 1292 H 127.796 -2.20683 -5.02583 0
M  V30 1293 H 128.057 -0.593933 -4.38092 0
M  V30 1294 N 127.117 1.15442 -1.07289 0
M  V30 1295 C 128.528 1.67803 -0.818475 0
M  V30 1296 C 128.879 1.8489 0.656507 0
M  V30 1297 O 128.004 1.55176 1.50829 0
M  V30 1298 C 128.599 3.04805 -1.47917 0
M  V30 1299 C 127.158 3.54245 -1.27229 0
M  V30 1300 C 126.305 2.29986 -1.54925 0
M  V30 1301 H 129.256 0.996646 -1.23502 0
M  V30 1302 H 129.277 3.69702 -0.90005 0
M  V30 1303 H 128.789 2.92336 -2.55267 0
M  V30 1304 H 126.89 3.71956 -0.21899 0
M  V30 1305 H 127.003 4.35723 -1.99203 0
M  V30 1306 H 125.367 2.35496 -0.970242 0
M  V30 1307 H 126.15 2.20105 -2.63455 0
M  V30 1308 N 128.595 0.856903 1.32268 0
M  V30 1309 C 129.528 0.247937 2.26849 0
M  V30 1310 C 130.506 -0.615382 1.50505 0
M  V30 1311 O 131.69 -0.571689 1.79622 0
M  V30 1312 C 128.817 -0.650093 3.32403 0
M  V30 1313 C 127.863 0.140138 4.2627 0
M  V30 1314 S 128.696 1.51004 5.13769 0
M  V30 1315 C 129.852 0.61778 6.22844 0
M  V30 1316 H 130.085 1.04971 2.78152 0
M  V30 1317 H 127.618 0.654665 1.39834 0
M  V30 1318 H 129.576 -1.16256 3.93694 0
M  V30 1319 H 128.237 -1.4257 2.7988 0
M  V30 1320 H 127.43 -0.543945 5.01056 0
M  V30 1321 H 127.032 0.584267 3.69408 0
M  V30 1322 H 129.324 -0.177053 6.77269 0
M  V30 1323 H 130.267 1.33636 6.95375 0
M  V30 1324 H 130.675 0.191124 5.64176 0
M  V30 1325 N 130.073 -1.45103 0.615059 0
M  V30 1326 C 131.319 -2.02483 0.113347 0
M  V30 1327 C 131.652 -1.48146 -1.25564 0
M  V30 1328 O 130.927 -0.659104 -1.82992 0
M  V30 1329 C 131.21 -3.60005 0.0825278 0
M  V30 1330 C 131.063 -4.2466 1.48271 0
M  V30 1331 C 132.382 -4.35972 -0.601401 0
M  V30 1332 H 129.501 -0.735764 0.0426632 0
M  V30 1333 H 132.143 -1.72868 0.788461 0
M  V30 1334 H 130.293 -3.85367 -0.492378 0
M  V30 1335 H 131.965 -4.10458 2.10527 0
M  V30 1336 H 130.208 -3.82772 2.04127 0
M  V30 1337 H 130.879 -5.336 1.41332 0
M  V30 1338 H 133.355 -4.15947 -0.112666 0
M  V30 1339 H 132.231 -5.45697 -0.592097 0
M  V30 1340 H 132.492 -4.09391 -1.66887 0
M  V30 1341 N 131.551 -0.354651 -1.53558 0
M  V30 1342 C 132.779 0.239515 -2.05509 0
M  V30 1343 C 133.194 1.4333 -1.2289 0
M  V30 1344 O 132.551 1.80538 -0.266899 0
M  V30 1345 C 132.602 0.643719 -3.55723 0
M  V30 1346 O 132.323 -0.502602 -4.35207 0
M  V30 1347 C 133.824 1.29743 -4.23889 0
M  V30 1348 H 131.044 0.0442697 -0.669538 0
M  V30 1349 H 133.588 -0.509856 -1.98042 0
M  V30 1350 H 131.743 1.34302 -3.63376 0
M  V30 1351 H 132.157 -0.178172 -5.24197 0
M  V30 1352 H 133.631 1.53091 -5.30346 0
M  V30 1353 H 134.108 2.25441 -3.76926 0
M  V30 1354 H 134.714 0.639865 -4.20459 0
M  V30 1355 N 133.029 1.57378 -0.0835403 0
M  V30 1356 C 134.257 1.98263 0.59157 0
M  V30 1357 C 134.672 0.962302 1.62435 0
M  V30 1358 O 134.029 -0.049581 1.82433 0
M  V30 1359 C 134.08 3.39214 1.24965 0
M  V30 1360 O 133.801 4.37339 0.258186 0
M  V30 1361 C 135.302 3.95038 2.01147 0
M  V30 1362 H 132.522 0.651773 0.159477 0
M  V30 1363 H 135.066 2.03878 -0.159415 0
M  V30 1364 H 133.221 3.34649 1.95164 0
M  V30 1365 H 133.635 5.19371 0.731734 0
M  V30 1366 H 135.109 4.95848 2.42567 0
M  V30 1367 H 135.586 3.32222 2.87272 0
M  V30 1368 H 136.192 4.0304 1.35789 0
M  V30 1369 N 134.507 -0.190092 1.56449 0
M  V30 1370 C 135.455 -1.25501 1.95837 0
M  V30 1371 C 136.449 -1.4685 0.844485 0
M  V30 1372 O 137.655 -1.47651 1.02952 0
M  V30 1373 H 134.03 -0.421447 0.622805 0
M  V30 1374 H 136.001 -0.895821 2.84636 0
M  V30 1375 C 134.75 -2.59124 2.31841 0
M  V30 1376 H 134.073 -2.43514 3.17082 0
M  V30 1377 H 135.513 -3.32371 2.6326 0
M  V30 1378 C 133.972 -3.16488 1.15486 0
M  V30 1379 O 134.502 -3.99365 0.432535 0
M  V30 1380 N 132.708 -2.75305 0.930349 0
M  V30 1381 H 132.255 -2.08013 1.51948 0
M  V30 1382 H 132.213 -3.14024 0.153634 0
M  V30 1383 N 135.985 -1.50799 -0.457987 0
M  V30 1384 C 136.915 -1.73553 -1.5621 0
M  V30 1385 C 137.896 -0.584774 -1.59732 0
M  V30 1386 O 139.081 -0.825314 -1.7579 0
M  V30 1387 C 136.211 -1.84169 -2.94447 0
M  V30 1388 C 135.165 -2.99461 -3.0579 0
M  V30 1389 C 134.491 -2.95235 -4.45803 0
M  V30 1390 C 135.791 -4.39766 -2.81786 0
M  V30 1391 H 137.485 -2.66 -1.37421 0
M  V30 1392 H 135.031 -1.28002 -0.659662 0
M  V30 1393 H 136.984 -1.98672 -3.71628 0
M  V30 1394 H 135.708 -0.883545 -3.14422 0
M  V30 1395 H 134.367 -2.8463 -2.31044 0
M  V30 1396 H 134.015 -1.97239 -4.62715 0
M  V30 1397 H 133.715 -3.72642 -4.54326 0
M  V30 1398 H 135.239 -3.11803 -5.24987 0
M  V30 1399 H 136.653 -4.55054 -3.4871 0
M  V30 1400 H 135.05 -5.18722 -3.0174 0
M  V30 1401 H 136.12 -4.51229 -1.7754 0
M  V30 1402 N 137.463 0.71206 -1.40597 0
M  V30 1403 C 138.71 1.47197 -1.39065 0
M  V30 1404 C 139.038 1.94499 0.00583891 0
M  V30 1405 O 138.293 1.68752 0.99102 0
M  V30 1406 C 138.592 2.71039 -2.32965 0
M  V30 1407 C 138.258 2.42484 -3.80148 0
M  V30 1408 C 136.92 2.34406 -4.20247 0
M  V30 1409 C 139.272 2.18598 -4.73143 0
M  V30 1410 C 136.6 2.00516 -5.51371 0
M  V30 1411 C 138.952 1.8622 -6.0457 0
M  V30 1412 C 137.616 1.76626 -6.43708 0
M  V30 1413 H 136.886 0.538634 -0.508876 0
M  V30 1414 H 139.533 0.815325 -1.73276 0
M  V30 1415 H 137.838 3.41558 -1.91951 0
M  V30 1416 H 139.535 3.29138 -2.29061 0
M  V30 1417 H 136.125 2.49659 -3.4838 0
M  V30 1418 H 140.309 2.23793 -4.42979 0
M  V30 1419 H 135.565 1.91628 -5.80593 0
M  V30 1420 H 139.739 1.66752 -6.76141 0
M  V30 1421 H 137.366 1.50133 -7.45228 0
M  V30 1422 N 138.941 1.26152 0.944643 0
M  V30 1423 C 140.169 1.14259 1.72489 0
M  V30 1424 C 140.584 -0.302555 1.8636 0
M  V30 1425 O 139.941 -1.20741 1.36849 0
M  V30 1426 C 139.992 1.80266 3.13347 0
M  V30 1427 O 139.713 3.19133 3.00143 0
M  V30 1428 C 141.214 1.74283 4.07603 0
M  V30 1429 H 138.434 0.398051 0.540181 0
M  V30 1430 H 140.978 1.66706 1.18446 0
M  V30 1431 H 139.133 1.31766 3.64303 0
M  V30 1432 H 139.547 3.51744 3.89071 0
M  V30 1433 H 141.021 2.25111 5.04013 0
M  V30 1434 H 141.498 0.708631 4.33446 0
M  V30 1435 H 142.104 2.22319 3.62567 0
M  V30 1436 N 140.419 -1.14872 1.07899 0
M  V30 1437 C 141.369 -2.17809 0.674027 0
M  V30 1438 C 142.353 -1.58008 -0.303699 0
M  V30 1439 O 143.545 -1.76616 -0.11654 0
M  V30 1440 C 140.674 -3.43208 0.0793318 0
M  V30 1441 C 139.76 -4.10051 1.08253 0
M  V30 1442 N 140.151 -4.52296 2.2641 0
M  V30 1443 C 138.449 -4.36469 0.917124 0
M  V30 1444 C 139.15 -5.04199 2.901 0
M  V30 1445 N 138.126 -4.98088 2.17736 0
M  V30 1446 H 141.928 -2.48207 1.57386 0
M  V30 1447 H 139.442 -1.315 0.952976 0
M  V30 1448 H 141.439 -4.16272 -0.228719 0
M  V30 1449 H 140.099 -3.14291 -0.815551 0
M  V30 1450 H 141.11 -4.45504 2.64096 0
M  V30 1451 H 137.787 -4.17432 0.0756078 0
M  V30 1452 H 139.177 -5.46802 3.90458 0
M  V30 1453 N 141.898 -0.863906 -1.31812 0
M  V30 1454 C 143.309 -0.52522 -1.7916 0
M  V30 1455 C 143.66 0.957518 -1.71248 0
M  V30 1456 O 142.785 1.74734 -1.27659 0
M  V30 1457 C 143.38 -0.9466 -3.25307 0
M  V30 1458 C 141.939 -0.659668 -3.70574 0
M  V30 1459 C 141.086 -1.14126 -2.52726 0
M  V30 1460 H 144.037 -1.05022 -1.1898 0
M  V30 1461 H 144.058 -0.266766 -3.79564 0
M  V30 1462 H 143.57 -2.02579 -3.31034 0
M  V30 1463 H 141.671 0.408416 -3.70355 0
M  V30 1464 H 141.784 -1.23245 -4.62977 0
M  V30 1465 H 140.148 -0.561216 -2.4844 0
M  V30 1466 H 140.931 -2.22775 -2.61201 0
M  V30 1467 N 143.376 1.44774 -0.622745 0
M  V30 1468 C 144.622 2.0242 -0.124083 0
M  V30 1469 C 144.955 1.4881 1.24777 0
M  V30 1470 O 144.23 0.668799 1.8264 0
M  V30 1471 C 144.513 3.59957 -0.101619 0
M  V30 1472 C 144.366 4.23867 -1.50521 0
M  V30 1473 C 145.685 4.36284 0.578272 0
M  V30 1474 H 142.804 0.735528 -0.0465645 0
M  V30 1475 H 145.446 1.72447 -0.797617 0
M  V30 1476 H 143.596 3.85623 0.471934 0
M  V30 1477 H 145.268 4.09336 -2.12701 0
M  V30 1478 H 143.511 3.81684 -2.06154 0
M  V30 1479 H 144.182 5.32843 -1.4416 0
M  V30 1480 H 146.658 4.16001 0.0906057 0
M  V30 1481 H 145.534 5.46004 0.563149 0
M  V30 1482 H 145.795 4.10271 1.64713 0
M  V30 1483 N 144.854 0.36279 1.53368 0
M  V30 1484 C 146.101 -0.227776 2.01215 0
M  V30 1485 C 146.429 -1.49003 1.25014 0
M  V30 1486 O 145.684 -1.92876 0.331236 0
M  V30 1487 C 145.983 -0.568417 3.52851 0
M  V30 1488 C 145.649 0.59918 4.46901 0
M  V30 1489 C 144.311 0.919559 4.72332 0
M  V30 1490 C 146.663 1.38156 5.02556 0
M  V30 1491 C 143.991 2.02434 5.5067 0
M  V30 1492 C 146.343 2.47674 5.821 0
M  V30 1493 C 145.007 2.8025 6.05819 0
M  V30 1494 H 144.277 -0.083349 0.736297 0
M  V30 1495 H 146.924 0.494677 1.85001 0
M  V30 1496 H 145.229 -1.37185 3.66998 0
M  V30 1497 H 146.926 -1.03756 3.87344 0
M  V30 1498 H 143.516 0.339437 4.27254 0
M  V30 1499 H 147.7 1.14729 4.82857 0
M  V30 1500 H 142.956 2.28075 5.67267 0
M  V30 1501 H 147.13 3.08716 6.24234 0
M  V30 1502 H 144.757 3.65979 6.66306 0
M  V30 1503 N 146.332 -1.57332 0.0918853 0
M  V30 1504 C 147.279 -2.13847 -0.868211 0
M  V30 1505 C 148.249 -1.05618 -1.28196 0
M  V30 1506 O 149.434 -1.33387 -1.36427 0
M  V30 1507 C 146.574 -2.72062 -2.12312 0
M  V30 1508 C 145.687 -3.94514 -1.7602 0
M  V30 1509 C 144.822 -4.40903 -2.96273 0
M  V30 1510 C 143.861 -5.55953 -2.56092 0
M  V30 1511 N 142.998 -5.97209 -3.69169 0
M  V30 1512 H 147.838 -2.95575 -0.379406 0
M  V30 1513 H 145.375 -1.46048 -0.175606 0
M  V30 1514 H 147.333 -3.03931 -2.858 0
M  V30 1515 H 145.963 -1.93068 -2.58698 0
M  V30 1516 H 145.015 -3.68979 -0.925135 0
M  V30 1517 H 146.327 -4.7802 -1.42472 0
M  V30 1518 H 145.481 -4.74539 -3.78018 0
M  V30 1519 H 144.22 -3.56291 -3.33029 0
M  V30 1520 H 143.225 -5.21948 -1.72773 0
M  V30 1521 H 144.45 -6.42311 -2.20484 0
M  V30 1522 H 142.396 -5.15543 -4.05649 0
M  V30 1523 H 142.313 -6.75504 -3.39456 0
M  V30 1524 H 143.581 -6.35475 -4.51434 0
M  V30 1525 N 147.81 0.181792 -1.56548 0
M  V30 1526 C 149.087 0.926765 -1.72251 0
M  V30 1527 C 149.467 2.00831 -0.650386 0
M  V30 1528 O 148.815 2.26008 0.336521 0
M  V30 1529 C 149.025 1.50106 -3.1507 0
M  V30 1530 C 150.373 1.97805 -3.75711 0
M  V30 1531 O 151.397 1.59922 -3.18282 0
M  V30 1532 O 150.256 2.67555 -4.76525 0
M  V30 1533 H 147.35 0.435506 -0.703039 0
M  V30 1534 H 149.896 0.170443 -1.68842 0
M  V30 1535 H 148.668 0.72212 -3.84579 0
M  V30 1536 H 148.291 2.32186 -3.22763 0
M  V30 1537 N 149.288 1.51039 0.449983 0
M  V30 1538 C 150.536 1.62759 1.19808 0
M  V30 1539 C 150.857 0.339981 1.92013 0
M  V30 1540 O 150.127 -0.643606 1.85026 0
M  V30 1541 H 148.707 0.599811 0.445237 0
M  V30 1542 H 151.369 1.87914 0.517138 0
M  V30 1543 H 150.465 2.44911 1.93455 0
M  V30 1544 N 150.766 -0.704594 1.40972 0
M  V30 1545 C 152.014 -1.46169 1.39568 0
M  V30 1546 C 152.335 -1.95 0.00253745 0
M  V30 1547 O 151.605 -1.71095 -0.954114 0
M  V30 1548 H 150.185 -0.542326 0.513704 0
M  V30 1549 H 152.847 -0.834553 1.76128 0
M  V30 1550 H 151.943 -2.32922 2.07735 0
M  V30 1551 N 152.244 -1.26651 -0.937939 0
M  V30 1552 C 153.491 -1.12387 -1.6845 0
M  V30 1553 C 153.819 0.332208 -1.91642 0
M  V30 1554 O 153.074 1.2602 -1.49725 0
M  V30 1555 C 153.373 -1.84168 -3.06295 0
M  V30 1556 C 153.039 -3.34056 -3.02849 0
M  V30 1557 C 151.701 -3.74942 -3.01616 0
M  V30 1558 C 154.053 -4.29741 -2.9491 0
M  V30 1559 C 151.381 -5.09894 -2.90215 0
M  V30 1560 C 153.733 -5.64738 -2.8505 0
M  V30 1561 C 152.397 -6.0493 -2.82162 0
M  V30 1562 H 151.667 -0.411252 -0.616403 0
M  V30 1563 H 154.314 -1.57134 -1.09459 0
M  V30 1564 H 152.619 -1.319 -3.6893 0
M  V30 1565 H 154.316 -1.70569 -3.62915 0
M  V30 1566 H 150.906 -3.01534 -3.0459 0
M  V30 1567 H 155.09 -3.99133 -2.94969 0
M  V30 1568 H 150.346 -5.40194 -2.86358 0
M  V30 1569 H 154.52 -6.38561 -2.77872 0
M  V30 1570 H 152.147 -7.09457 -2.73084 0
M  V30 1571 N 153.722 1.14298 -1.08507 0
M  V30 1572 C 154.95 1.89219 -0.836876 0
M  V30 1573 C 155.365 1.78638 0.611054 0
M  V30 1574 O 154.722 1.14643 1.41998 0
M  V30 1575 C 154.773 3.39158 -1.25116 0
M  V30 1576 O 154.494 3.49449 -2.64229 0
M  V30 1577 C 155.995 4.31073 -1.03398 0
M  V30 1578 H 153.215 0.599328 -0.301739 0
M  V30 1579 H 155.759 1.44746 -1.44461 0
M  V30 1580 H 153.914 3.81251 -0.687514 0
M  V30 1581 H 154.328 4.42589 -2.81452 0
M  V30 1582 H 155.802 5.34646 -1.37323 0
M  V30 1583 H 156.279 4.3919 0.0289259 0
M  V30 1584 H 156.885 3.94738 -1.58311 0
M  V30 1585 N 155.201 0.870884 1.31352 0
M  V30 1586 C 156.426 0.495957 2.01383 0
M  V30 1587 C 156.851 -0.904324 1.64935 0
M  V30 1588 O 156.209 -1.59687 0.858466 0
M  V30 1589 C 156.257 0.661433 3.54482 0
M  V30 1590 O 155.361 -0.298851 4.11316 0
M  V30 1591 H 154.702 0.197158 0.634054 0
M  V30 1592 H 157.232 1.17455 1.67527 0
M  V30 1593 H 157.242 0.555072 4.04207 0
M  V30 1594 H 155.917 1.68246 3.8035 0
M  V30 1595 H 154.494 -0.147368 3.72609 0
M  V30 1596 N 156.679 -1.44442 0.630414 0
M  V30 1597 C 157.627 -2.32437 -0.0871428 0
M  V30 1598 C 158.621 -1.47304 -0.836525 0
M  V30 1599 O 159.827 -1.63653 -0.749506 0
M  V30 1600 H 156.202 -0.750533 -0.0469495 0
M  V30 1601 H 158.173 -2.90709 0.673096 0
M  V30 1602 C 156.922 -3.31288 -1.05563 0
M  V30 1603 H 156.245 -3.96805 -0.488426 0
M  V30 1604 H 157.685 -3.9554 -1.52721 0
M  V30 1605 C 156.144 -2.6016 -2.14052 0
M  V30 1606 O 156.674 -2.39997 -3.22124 0
M  V30 1607 N 154.88 -2.19911 -1.89967 0
M  V30 1608 H 154.427 -2.36509 -1.02085 0
M  V30 1609 H 154.385 -1.72646 -2.62756 0
M  V30 1610 N 158.157 -0.370918 -1.53173 0
M  V30 1611 C 159.434 0.273754 -1.93675 0
M  V30 1612 C 159.814 1.65938 -1.3049 0
M  V30 1613 O 159.162 2.23698 -0.465999 0
M  V30 1614 C 159.372 0.318602 -3.47543 0
M  V30 1615 C 160.72 0.556392 -4.20939 0
M  V30 1616 O 161.744 0.399587 -3.53952 0
M  V30 1617 O 160.603 0.862133 -5.39657 0
M  V30 1618 H 157.697 0.165448 -0.810281 0
M  V30 1619 H 160.243 -0.42409 -1.64315 0
M  V30 1620 H 159.015 -0.652687 -3.85818 0
M  V30 1621 H 158.638 1.06212 -3.83151 0
M  V30 1622 N 159.635 1.57281 -0.100228 0
M  V30 1623 C 161.051 1.57527 0.256416 0
M  V30 1624 C 161.251 1.11173 1.68056 0
M  V30 1625 O 160.307 0.79053 2.39806 0
M  V30 1626 C 161.62 3.00673 0.0401747 0
M  V30 1627 C 163.168 3.12815 0.107528 0
M  V30 1628 C 163.643 4.57929 -0.0807834 0
M  V30 1629 N 165.134 4.63193 -0.0261207 0
M  V30 1630 C 165.869 5.73212 -0.146999 0
M  V30 1631 N 165.365 6.92047 -0.322999 0
M  V30 1632 N 167.158 5.62031 -0.0879044 0
M  V30 1633 H 159.309 1.85718 -1.03065 0
M  V30 1634 H 161.572 0.857446 -0.404339 0
M  V30 1635 H 161.278 3.38804 -0.943649 0
M  V30 1636 H 161.152 3.69042 0.780262 0
M  V30 1637 H 163.539 2.74554 1.08186 0
M  V30 1638 H 163.62 2.47028 -0.664134 0
M  V30 1639 H 163.264 4.96886 -1.05201 0
M  V30 1640 H 163.194 5.21783 0.710635 0
M  V30 1641 H 165.685 3.77748 0.107161 0
M  V30 1642 H 165.998 7.7173 -0.406608 0
M  V30 1643 H 164.343 6.94074 -0.358733 0
M  V30 1644 H 167.534 4.68075 0.048498 0
M  V30 1645 H 167.707 6.47734 -0.185557 0
M  V30 1646 N 161.113 -0.173488 1.56642 0
M  V30 1647 C 162.338 -0.910149 1.86363 0
M  V30 1648 C 162.763 -1.75132 0.686318 0
M  V30 1649 O 162.121 -1.77595 -0.364643 0
M  V30 1650 C 162.169 -1.76447 3.14482 0
M  V30 1651 O 161.273 -2.86584 2.96553 0
M  V30 1652 H 160.614 -0.255086 0.613047 0
M  V30 1653 H 163.144 -0.172283 2.03873 0
M  V30 1654 H 163.154 -2.16483 3.45831 0
M  V30 1655 H 161.829 -1.14658 3.99783 0
M  V30 1656 H 160.406 -2.50146 2.76553 0
M  V30 1657 N 162.591 -1.51276 -0.441967 0
M  V30 1658 C 163.837 -1.63958 -1.19355 0
M  V30 1659 C 164.17 -0.352543 -1.90973 0
M  V30 1660 O 163.445 0.647627 -1.83401 0
M  V30 1661 C 163.728 -2.83979 -2.21422 0
M  V30 1662 C 163.581 -4.22646 -1.53918 0
M  V30 1663 C 164.9 -2.99521 -3.22451 0
M  V30 1664 H 162.019 -0.596709 -0.432559 0
M  V30 1665 H 164.661 -1.83748 -0.483398 0
M  V30 1666 H 162.811 -2.67237 -2.81987 0
M  V30 1667 H 164.483 -4.51045 -0.967256 0
M  V30 1668 H 162.726 -4.25558 -0.841615 0
M  V30 1669 H 163.397 -5.02609 -2.28229 0
M  V30 1670 H 165.873 -3.14944 -2.71937 0
M  V30 1671 H 164.749 -3.85072 -3.91166 0
M  V30 1672 H 165.01 -2.11391 -3.88287 0
M  V30 1673 N 164.069 0.697108 -1.41344 0
M  V30 1674 C 165.485 1.00751 -1.2378 0
M  V30 1675 C 165.685 2.01105 -0.126066 0
M  V30 1676 O 164.741 2.47295 0.51004 0
M  V30 1677 C 166.054 1.53359 -2.58653 0
M  V30 1678 C 167.602 1.6525 -2.65822 0
M  V30 1679 C 168.077 2.2126 -4.01009 0
M  V30 1680 N 169.568 2.28622 -4.02847 0
M  V30 1681 C 170.303 2.72984 -5.04249 0
M  V30 1682 N 169.799 3.16962 -6.16041 0
M  V30 1683 N 171.592 2.72534 -4.91611 0
M  V30 1684 H 163.743 0.0322662 -2.12375 0
M  V30 1685 H 166.006 0.0768853 -0.944877 0
M  V30 1686 H 165.712 0.870773 -3.4075 0
M  V30 1687 H 165.586 2.51597 -2.81032 0
M  V30 1688 H 167.973 2.30644 -1.84086 0
M  V30 1689 H 168.054 0.655614 -2.47256 0
M  V30 1690 H 167.698 1.56482 -4.83193 0
M  V30 1691 H 167.628 3.21698 -4.16915 0
M  V30 1692 H 170.119 1.97585 -3.22131 0
M  V30 1693 H 170.432 3.49434 -6.89287 0
M  V30 1694 H 168.777 3.14875 -6.1958 0
M  V30 1695 H 171.968 2.37525 -4.0336 0
M  V30 1696 H 172.141 3.06789 -5.70775 0
M  V30 1697 N 165.547 1.27147 0.931209 0
M  V30 1698 C 166.963 1.04475 1.20653 0
M  V30 1699 C 167.163 -0.223885 2.00252 0
M  V30 1700 O 166.219 -0.930332 2.34736 0
M  V30 1701 C 167.532 2.28209 1.95809 0
M  V30 1702 C 169.08 2.33211 2.08762 0
M  V30 1703 C 169.555 3.56665 2.87323 0
M  V30 1704 N 171.046 3.57201 2.94892 0
M  V30 1705 C 171.781 4.49395 3.56134 0
M  V30 1706 N 171.277 5.51889 4.18796 0
M  V30 1707 N 173.07 4.37026 3.53504 0
M  V30 1708 H 165.221 2.08612 0.399333 0
M  V30 1709 H 167.484 0.917312 0.239253 0
M  V30 1710 H 167.19 3.20538 1.44736 0
M  V30 1711 H 167.064 2.33247 2.96438 0
M  V30 1712 H 169.451 1.41391 2.59023 0
M  V30 1713 H 169.532 2.32178 1.07364 0
M  V30 1714 H 169.176 4.4882 2.37746 0
M  V30 1715 H 169.106 3.54948 3.88998 0
M  V30 1716 H 171.597 2.83074 2.50354 0
M  V30 1717 H 171.91 6.18409 4.63454 0
M  V30 1718 H 170.255 5.55735 4.17353 0
M  V30 1719 H 173.446 3.56166 3.03749 0
M  V30 1720 H 173.619 5.09067 4.00942 0
M  V30 1721 N 167.025 -1.13721 1.09112 0
M  V30 1722 C 168.255 -1.88499 0.845671 0
M  V30 1723 C 168.663 -1.79218 -0.606432 0
M  V30 1724 O 168.006 -1.1544 -1.42896 0
M  V30 1725 C 168.068 -3.38954 1.19793 0
M  V30 1726 C 167.732 -3.72018 2.65428 0
M  V30 1727 C 168.729 -3.7153 3.63677 0
M  V30 1728 C 166.414 -4.01775 3.01467 0
M  V30 1729 C 168.408 -4.00336 4.95994 0
M  V30 1730 C 166.095 -4.30243 4.33975 0
M  V30 1731 C 167.093 -4.29508 5.31048 0
M  V30 1732 O 166.781 -4.5728 6.61173 0
M  V30 1733 H 166.513 -0.603702 0.304171 0
M  V30 1734 H 169.067 -1.44903 1.45576 0
M  V30 1735 H 167.297 -3.83039 0.530871 0
M  V30 1736 H 168.986 -3.95052 0.932146 0
M  V30 1737 H 169.752 -3.4862 3.37179 0
M  V30 1738 H 165.631 -4.01496 2.26544 0
M  V30 1739 H 169.175 -3.99678 5.71755 0
M  V30 1740 H 165.072 -4.52625 4.60219 0
M  V30 1741 H 165.84 -4.74964 6.66597 0
M  V30 1742 N 168.503 -0.877838 -1.30888 0
M  V30 1743 C 169.466 -0.344265 -2.266 0
M  V30 1744 C 170.466 0.50922 -1.52524 0
M  V30 1745 O 171.656 0.317398 -1.71284 0
M  V30 1746 C 168.788 0.510198 -3.37061 0
M  V30 1747 H 169.981 -1.1893 -2.7531 0
M  V30 1748 H 167.534 -0.654088 -1.41956 0
M  V30 1749 H 168.269 1.37612 -2.93655 0
M  V30 1750 H 168.054 -0.101047 -3.9197 0
M  V30 1751 H 169.544 0.875537 -4.08319 0
M  V30 1752 N 169.982 1.44106 -0.638065 0
M  V30 1753 C 171.231 2.01194 -0.142744 0
M  V30 1754 C 171.544 1.50835 1.24532 0
M  V30 1755 O 172.75 2.00096 1.83504 0
M  V30 1756 C 171.206 3.59319 -0.20442 0
M  V30 1757 C 170.814 4.18674 -1.59423 0
M  V30 1758 C 172.558 4.23854 0.234079 0
M  V30 1759 C 170.465 5.69045 -1.61065 0
M  V30 1760 H 169.395 0.752367 -0.0495998 0
M  V30 1761 H 172.046 1.65246 -0.797881 0
M  V30 1762 H 170.428 3.92598 0.517946 0
M  V30 1763 H 171.602 3.96921 -2.34074 0
M  V30 1764 H 169.917 3.66453 -1.97741 0
M  V30 1765 H 172.514 5.34155 0.241443 0
M  V30 1766 H 172.857 3.96688 1.2627 0
M  V30 1767 H 173.39 3.95403 -0.436025 0
M  V30 1768 H 170.129 6.00956 -2.61787 0
M  V30 1769 H 169.649 5.929 -0.90718 0
M  V30 1770 H 171.328 6.32809 -1.34766 0
M  V30 1771 N 171.46 0.379036 1.52974 0
M  V30 1772 C 172.876 0.0285448 1.59574 0
M  V30 1773 C 173.076 -1.45542 1.39355 0
M  V30 1774 O 172.132 -2.2187 1.20541 0
M  V30 1775 C 173.445 0.496535 2.96572 0
M  V30 1776 C 174.993 0.451909 3.0972 0
M  V30 1777 C 175.468 0.895924 4.49152 0
M  V30 1778 N 176.959 0.851522 4.55306 0
M  V30 1779 C 177.694 1.16661 5.61407 0
M  V30 1780 N 177.19 1.55166 6.752 0
M  V30 1781 N 178.983 1.08853 5.51459 0
M  V30 1782 H 171.134 1.34525 1.64367 0
M  V30 1783 H 173.397 0.550733 0.771619 0
M  V30 1784 H 173.103 1.53258 3.16552 0
M  V30 1785 H 172.977 -0.109802 3.7704 0
M  V30 1786 H 175.364 -0.575029 2.89443 0
M  V30 1787 H 175.445 1.09392 2.3123 0
M  V30 1788 H 175.089 1.92104 4.70168 0
M  V30 1789 H 175.019 0.23103 5.26093 0
M  V30 1790 H 177.51 0.568038 3.73606 0
M  V30 1791 H 177.823 1.776 7.52116 0
M  V30 1792 H 176.168 1.59044 6.76557 0
M  V30 1793 H 179.359 0.786803 4.6144 0
M  V30 1794 H 179.532 1.33742 6.34048 0
M  V30 1795 N 172.938 -1.57226 0.108567 0
M  V30 1796 C 173.885 -2.14756 -0.845481 0
M  V30 1797 C 174.855 -1.06971 -1.27068 0
M  V30 1798 O 176.04 -1.34827 -1.35005 0
M  V30 1799 C 173.18 -2.74298 -2.09415 0
M  V30 1800 C 172.293 -3.96358 -1.71826 0
M  V30 1801 C 171.428 -4.44021 -2.9158 0
M  V30 1802 C 170.467 -5.58637 -2.50181 0
M  V30 1803 N 169.604 -6.01091 -3.62814 0
M  V30 1804 H 174.444 -2.95961 -0.348035 0
M  V30 1805 H 171.981 -1.46226 -0.160106 0
M  V30 1806 H 173.939 -3.06945 -2.82561 0
M  V30 1807 H 172.569 -1.95801 -2.56636 0
M  V30 1808 H 171.621 -3.69939 -0.885947 0
M  V30 1809 H 172.933 -4.79504 -1.37394 0
M  V30 1810 H 172.087 -4.78522 -3.72963 0
M  V30 1811 H 170.826 -3.59803 -3.29231 0
M  V30 1812 H 169.831 -5.23751 -1.67228 0
M  V30 1813 H 171.056 -6.44613 -2.13659 0
M  V30 1814 H 169.002 -5.19817 -4.00158 0
M  V30 1815 H 168.919 -6.79066 -3.32273 0
M  V30 1816 H 170.187 -6.40227 -4.44668 0
M  V30 1817 N 174.416 0.165178 -1.56732 0
M  V30 1818 C 175.662 0.882112 -1.82611 0
M  V30 1819 C 175.995 1.81628 -0.687378 0
M  V30 1820 O 175.27 1.92009 0.310267 0
M  V30 1821 C 175.553 1.67245 -3.18906 0
M  V30 1822 C 175.406 0.760987 -4.43316 0
M  V30 1823 C 176.725 2.63884 -3.52212 0
M  V30 1824 H 173.844 0.319242 -0.664269 0
M  V30 1825 H 176.486 0.148052 -1.89422 0
M  V30 1826 H 174.636 2.29824 -3.1323 0
M  V30 1827 H 176.308 0.147596 -4.61064 0
M  V30 1828 H 174.551 0.0694102 -4.33744 0
M  V30 1829 H 175.222 1.34962 -5.35247 0
M  V30 1830 H 177.698 2.11429 -3.58381 0
M  V30 1831 H 176.574 3.16245 -4.48643 0
M  V30 1832 H 176.835 3.44377 -2.77231 0
M  V30 1833 N 175.894 1.51508 0.433938 0
M  V30 1834 C 176.824 1.76016 1.53429 0
M  V30 1835 C 177.805 0.610112 1.58782 0
M  V30 1836 O 178.99 0.853177 1.74455 0
M  V30 1837 C 176.12 1.88831 2.9148 0
M  V30 1838 C 175.074 3.04288 3.00987 0
M  V30 1839 C 174.4 3.0229 4.4105 0
M  V30 1840 C 175.7 4.44193 2.74754 0
M  V30 1841 H 177.394 2.68152 1.33171 0
M  V30 1842 H 174.94 1.29035 0.639214 0
M  V30 1843 H 176.893 2.04559 3.6842 0
M  V30 1844 H 175.617 0.933455 3.12976 0
M  V30 1845 H 174.276 2.8827 2.26486 0
M  V30 1846 H 173.924 2.04576 4.59519 0
M  V30 1847 H 173.624 3.79822 4.4834 0
M  V30 1848 H 175.148 3.20116 5.1996 0
M  V30 1849 H 176.562 4.60544 3.41426 0
M  V30 1850 H 174.959 5.23457 2.9345 0
M  V30 1851 H 176.029 4.53996 1.70339 0
M  V30 1852 N 177.372 -0.689602 1.41712 0
M  V30 1853 C 178.788 -1.00093 1.24312 0
M  V30 1854 C 178.988 -2.01036 0.136729 0
M  V30 1855 O 178.044 -2.47562 -0.496918 0
M  V30 1856 C 179.357 -1.51985 2.59463 0
M  V30 1857 C 180.905 -1.63838 2.66695 0
M  V30 1858 C 181.38 -2.1913 4.02177 0
M  V30 1859 N 182.871 -2.26483 4.04054 0
M  V30 1860 C 183.606 -2.70306 5.0569 0
M  V30 1861 N 183.102 -3.13691 6.17713 0
M  V30 1862 N 184.895 -2.69923 4.9305 0
M  V30 1863 H 177.046 -0.0210029 2.1239 0
M  V30 1864 H 179.309 -0.0718733 0.945272 0
M  V30 1865 H 179.015 -0.85269 3.41207 0
M  V30 1866 H 178.889 -2.50103 2.82362 0
M  V30 1867 H 181.276 -2.29664 1.85306 0
M  V30 1868 H 181.357 -0.642492 2.476 0
M  V30 1869 H 181.001 -1.53918 4.84016 0
M  V30 1870 H 180.931 -3.19482 4.18615 0
M  V30 1871 H 183.422 -1.95874 3.23174 0
M  V30 1872 H 183.735 -3.45773 6.9113 0
M  V30 1873 H 182.08 -3.11585 6.21241 0
M  V30 1874 H 185.271 -2.35382 4.04614 0
M  V30 1875 H 185.444 -3.03758 5.72394 0
M  V30 1876 N 178.85 -1.27639 -0.924453 0
M  V30 1877 C 179.782 -1.06442 -2.02985 0
M  V30 1878 C 180.795 -0.0194771 -1.62788 0
M  V30 1879 O 181.984 -0.261388 -1.76576 0
M  V30 1880 C 179.084 -0.59327 -3.33667 0
M  V30 1881 C 178.257 -1.71123 -4.02537 0
M  V30 1882 C 177.316 -1.23527 -5.11495 0
M  V30 1883 O 176.342 -1.93553 -5.35281 0
M  V30 1884 N 177.544 -0.0926678 -5.80426 0
M  V30 1885 H 180.309 -2.01633 -2.2173 0
M  V30 1886 H 177.87 -1.19248 -1.09505 0
M  V30 1887 H 179.862 -0.258686 -4.03872 0
M  V30 1888 H 178.432 0.265502 -3.1147 0
M  V30 1889 H 177.652 -2.21593 -3.26022 0
M  V30 1890 H 178.94 -2.46145 -4.45298 0
M  V30 1891 H 178.338 0.491741 -5.63559 0
M  V30 1892 H 176.895 0.182714 -6.51544 0
M  V30 1893 N 180.328 1.1314 -1.09713 0
M  V30 1894 C 181.261 2.17735 -0.683137 0
M  V30 1895 C 182.239 1.59582 0.311841 0
M  V30 1896 O 183.423 1.87298 0.212514 0
M  V30 1897 C 180.55 3.38699 -0.00684324 0
M  V30 1898 C 179.596 4.1546 -0.964102 0
M  V30 1899 S 180.429 4.74733 -2.47767 0
M  V30 1900 C 181.585 5.9904 -1.81387 0
M  V30 1901 H 181.818 2.52515 -1.56918 0
M  V30 1902 H 179.351 1.24484 -0.913404 0
M  V30 1903 H 181.309 4.08765 0.377044 0
M  V30 1904 H 179.97 3.02214 0.85589 0
M  V30 1905 H 179.163 5.02093 -0.43803 0
M  V30 1906 H 178.765 3.51066 -1.28953 0
M  V30 1907 H 181.057 6.67846 -1.13967 0
M  V30 1908 H 182 6.56261 -2.65947 0
M  V30 1909 H 182.408 5.4976 -1.28155 0
M  V30 1910 N 181.806 0.884767 1.30421 0
M  V30 1911 C 183.083 0.423185 1.90967 0
M  V30 1912 C 183.463 -1.09605 1.80416 0
M  V30 1913 O 182.811 -1.93126 1.22125 0
M  V30 1914 C 183.021 0.921056 3.36627 0
M  V30 1915 C 184.369 0.955903 4.137 0
M  V30 1916 O 185.393 0.867706 3.4547 0
M  V30 1917 O 184.252 1.08614 5.35598 0
M  V30 1918 H 181.346 0.129369 0.816819 0
M  V30 1919 H 183.892 0.973653 1.3899 0
M  V30 1920 H 182.664 1.96489 3.3839 0
M  V30 1921 H 182.287 0.349741 3.96059 0
M  V30 1922 N 183.284 -1.43765 0.645699 0
M  V30 1923 C 184.214 -2.33471 -0.0370477 0
M  V30 1924 C 185.195 -1.49042 -0.819779 0
M  V30 1925 O 186.38 -1.77726 -0.782758 0
M  V30 1926 C 183.51 -3.32311 -1.0093 0
M  V30 1927 C 182.464 -4.2667 -0.337201 0
M  V30 1928 C 181.79 -5.1549 -1.42037 0
M  V30 1929 C 183.09 -5.16657 0.765706 0
M  V30 1930 H 184.784 -2.90809 0.712069 0
M  V30 1931 H 182.33 -1.39834 0.343876 0
M  V30 1932 H 184.283 -3.9396 -1.49578 0
M  V30 1933 H 183.007 -2.73213 -1.78948 0
M  V30 1934 H 181.666 -3.66374 0.128771 0
M  V30 1935 H 181.314 -4.52735 -2.1918 0
M  V30 1936 H 181.014 -5.79438 -0.975966 0
M  V30 1937 H 182.538 -5.80012 -1.90838 0
M  V30 1938 H 183.952 -5.72158 0.361702 0
M  V30 1939 H 182.349 -5.89286 1.13413 0
M  V30 1940 H 183.419 -4.56796 1.62683 0
M  V30 1941 N 184.763 -0.387143 -1.52771 0
M  V30 1942 C 186.011 0.195349 -2.01154 0
M  V30 1943 C 186.332 1.475 -1.27549 0
M  V30 1944 O 185.602 1.91878 -0.394924 0
M  V30 1945 H 184.182 0.075178 -0.743207 0
M  V30 1946 H 186.844 -0.518337 -1.87881 0
M  V30 1947 H 185.94 0.407096 -3.09434 0
M  V30 1948 N 186.241 1.57166 -0.116904 0
M  V30 1949 C 187.204 2.14039 0.819742 0
M  V30 1950 C 188.204 1.07477 1.19605 0
M  V30 1951 O 189.394 1.33263 1.1219 0
M  V30 1952 C 186.526 2.67891 2.10826 0
M  V30 1953 H 187.719 2.98128 0.325511 0
M  V30 1954 H 185.272 1.55739 0.132312 0
M  V30 1955 H 186.007 1.87384 2.64685 0
M  V30 1956 H 185.792 3.45823 1.84793 0
M  V30 1957 H 187.282 3.11809 2.77785 0
M  V30 1958 N 187.719 -0.156864 1.56817 0
M  V30 1959 C 188.629 -1.2136 2.00771 0
M  V30 1960 C 189.645 -1.47598 0.921459 0
M  V30 1961 O 190.821 -1.59462 1.2302 0
M  V30 1962 C 187.886 -2.52943 2.37109 0
M  V30 1963 C 186.947 -2.34439 3.59634 0
M  V30 1964 C 186.18 -3.59748 3.94229 0
M  V30 1965 O 186.403 -4.65526 3.29609 0
M  V30 1966 O 185.337 -3.52998 4.8752 0
M  V30 1967 H 189.163 -0.870468 2.90958 0
M  V30 1968 H 186.748 -0.36484 1.44877 0
M  V30 1969 H 188.63 -3.30538 2.61386 0
M  V30 1970 H 187.305 -2.86806 1.5008 0
M  V30 1971 H 186.212 -1.54828 3.40557 0
M  V30 1972 H 187.545 -2.05496 4.4725 0
M  V30 1973 N 189.197 -1.51736 -0.425897 0
M  V30 1974 C 190.127 -1.76827 -1.52494 0
M  V30 1975 C 191.108 -0.618524 -1.58456 0
M  V30 1976 O 192.293 -0.862416 -1.74 0
M  V30 1977 C 189.423 -1.90374 -2.90474 0
M  V30 1978 C 188.377 -3.0588 -2.99369 0
M  V30 1979 C 187.703 -3.04625 -4.3944 0
M  V30 1980 C 189.003 -4.45644 -2.72394 0
M  V30 1981 H 190.697 -2.68855 -1.31748 0
M  V30 1982 H 188.243 -1.29372 -0.632362 0
M  V30 1983 H 190.196 -2.0651 -3.6733 0
M  V30 1984 H 188.92 -0.95004 -3.12477 0
M  V30 1985 H 187.579 -2.89467 -2.24954 0
M  V30 1986 H 187.227 -2.0701 -4.58428 0
M  V30 1987 H 186.927 -3.82195 -4.46319 0
M  V30 1988 H 188.451 -3.22869 -5.18255 0
M  V30 1989 H 189.865 -4.62348 -3.38979 0
M  V30 1990 H 188.262 -5.25006 -2.9067 0
M  V30 1991 H 189.332 -4.54893 -1.67929 0
M  V30 1992 N 190.675 0.682077 -1.42076 0
M  V30 1993 C 191.923 1.4393 -1.41876 0
M  V30 1994 C 192.244 1.94971 -0.0335599 0
M  V30 1995 O 191.514 1.72591 0.926773 0
M  V30 1996 H 190.094 0.534085 -0.522267 0
M  V30 1997 H 192.756 0.806427 -1.77434 0
M  V30 1998 H 191.852 2.29588 -2.11414 0
M  V30 1999 N 192.153 1.28127 0.917671 0
M  V30 2000 C 193.116 1.11744 2.00115 0
M  V30 2001 C 194.116 0.0583052 1.60694 0
M  V30 2002 O 195.306 0.303755 1.71531 0
M  V30 2003 C 192.438 0.704862 3.33533 0
M  V30 2004 H 193.631 2.07966 2.16079 0
M  V30 2005 H 191.184 1.11058 1.09981 0
M  V30 2006 H 191.919 -0.258299 3.2327 0
M  V30 2007 H 191.704 1.4699 3.63505 0
M  V30 2008 H 193.194 0.612768 4.1308 0
M  V30 2009 N 193.631 -1.12557 1.10312 0
M  V30 2010 C 194.578 -2.18247 0.750781 0
M  V30 2011 C 195.548 -1.63853 -0.272293 0
M  V30 2012 O 196.733 -1.90195 -0.151862 0
M  V30 2013 C 193.873 -3.44591 0.187379 0
M  V30 2014 C 192.986 -4.13046 1.2656 0
M  V30 2015 C 192.121 -5.27034 0.663978 0
M  V30 2016 C 191.16 -5.87353 1.72287 0
M  V30 2017 N 190.297 -6.92757 1.1416 0
M  V30 2018 H 195.137 -2.47732 1.65628 0
M  V30 2019 H 192.674 -1.21629 0.827337 0
M  V30 2020 H 194.632 -4.16904 -0.157148 0
M  V30 2021 H 193.262 -3.15527 -0.681355 0
M  V30 2022 H 192.314 -3.38924 1.72727 0
M  V30 2023 H 193.626 -4.53947 2.06721 0
M  V30 2024 H 192.78 -6.06104 0.268824 0
M  V30 2025 H 191.519 -4.87407 -0.169082 0
M  V30 2026 H 190.524 -5.06971 2.12746 0
M  V30 2027 H 191.749 -6.29051 2.55875 0
M  V30 2028 H 189.695 -6.5517 0.329984 0
M  V30 2029 H 189.612 -7.3225 1.88007 0
M  V30 2030 H 190.88 -7.75658 0.772956 0
M  V30 2031 N 195.109 -0.891671 -1.2995 0
M  V30 2032 C 196.337 -0.52866 -2.00032 0
M  V30 2033 C 196.752 0.884574 -1.66795 0
M  V30 2034 O 196.109 1.5827 -0.908669 0
M  V30 2035 C 196.16 -0.701814 -3.54622 0
M  V30 2036 O 195.881 -2.05942 -3.86678 0
M  V30 2037 C 197.382 -0.342683 -4.41973 0
M  V30 2038 H 194.602 -0.203659 -0.639347 0
M  V30 2039 H 197.146 -1.19881 -1.65677 0
M  V30 2040 H 195.301 -0.0789468 -3.8732 0
M  V30 2041 H 195.715 -2.08291 -4.81368 0
M  V30 2042 H 197.189 -0.514709 -5.49595 0
M  V30 2043 H 197.666 0.71975 -4.33262 0
M  V30 2044 H 198.272 -0.942154 -4.14733 0
M  V30 2045 N 196.587 1.43421 -0.653314 0
M  V30 2046 C 197.517 2.33487 0.0246656 0
M  V30 2047 C 198.498 1.49475 0.811863 0
M  V30 2048 O 199.683 1.78139 0.773322 0
M  V30 2049 C 196.813 3.32841 0.99166 0
M  V30 2050 C 195.767 4.26842 0.314568 0
M  V30 2051 C 195.093 5.16236 1.39302 0
M  V30 2052 C 196.393 5.16243 -0.793095 0
M  V30 2053 H 198.087 2.90427 -0.727481 0
M  V30 2054 H 195.633 1.39649 -0.351287 0
M  V30 2055 H 197.586 3.94747 1.47487 0
M  V30 2056 H 196.31 2.74158 1.77497 0
M  V30 2057 H 194.969 3.663 -0.148199 0
M  V30 2058 H 194.617 4.53891 2.16776 0
M  V30 2059 H 194.317 5.79948 0.945223 0
M  V30 2060 H 195.841 5.81015 1.87759 0
M  V30 2061 H 197.255 5.71958 -0.392039 0
M  V30 2062 H 195.652 5.88676 -1.16536 0
M  V30 2063 H 196.722 4.55927 -1.65103 0
M  V30 2064 N 198.065 0.39524 1.52563 0
M  V30 2065 C 199.311 -0.185318 2.01952 0
M  V30 2066 C 199.644 -1.45964 1.28095 0
M  V30 2067 O 198.919 -1.90689 0.38315 0
M  V30 2068 C 199.202 -0.447193 3.57312 0
M  V30 2069 C 199.055 0.842828 4.41833 0
M  V30 2070 C 200.374 -1.23529 4.22408 0
M  V30 2071 H 197.493 -0.0658788 0.73405 0
M  V30 2072 H 200.135 0.525975 1.82575 0
M  V30 2073 H 198.285 -1.05312 3.73954 0
M  V30 2074 H 199.957 1.4795 4.36931 0
M  V30 2075 H 198.2 1.45686 4.08605 0
M  V30 2076 H 198.871 0.614165 5.48573 0
M  V30 2077 H 201.347 -0.722445 4.0978 0
M  V30 2078 H 200.223 -1.38727 5.3108 0
M  V30 2079 H 200.484 -2.25213 3.80436 0
M  V30 2080 N 199.544 -1.57102 0.125237 0
M  V30 2081 C 200.474 -2.18659 -0.819174 0
M  V30 2082 C 201.455 -1.12843 -1.27281 0
M  V30 2083 O 202.64 -1.41104 -1.33429 0
M  V30 2084 C 199.77 -2.79096 -2.06695 0
M  V30 2085 C 198.724 -3.90548 -1.75088 0
M  V30 2086 C 198.05 -4.37821 -3.06948 0
M  V30 2087 C 199.35 -5.12356 -1.01435 0
M  V30 2088 H 201.044 -2.9783 -0.306202 0
M  V30 2089 H 198.59 -1.4326 -0.145839 0
M  V30 2090 H 200.543 -3.2082 -2.73226 0
M  V30 2091 H 199.267 -1.97223 -2.60328 0
M  V30 2092 H 197.926 -3.49409 -1.10944 0
M  V30 2093 H 197.574 -3.52799 -3.58527 0
M  V30 2094 H 197.274 -5.12982 -2.86571 0
M  V30 2095 H 198.798 -4.822 -3.74587 0
M  V30 2096 H 200.212 -5.5106 -1.58132 0
M  V30 2097 H 198.609 -5.9314 -0.911319 0
M  V30 2098 H 199.679 -4.849 -0.00218681 0
M  V30 2099 N 201.022 0.148545 -1.56898 0
M  V30 2100 C 202.268 0.857877 -1.84424 0
M  V30 2101 C 202.623 1.7886 -0.709006 0
M  V30 2102 O 201.916 1.89344 0.293139 0
M  V30 2103 C 202.11 1.67064 -3.1595 0
M  V30 2104 C 201.939 0.82011 -4.42159 0
M  V30 2105 C 200.709 0.486328 -5.02954 0
M  V30 2106 C 202.907 0.151155 -5.14078 0
M  V30 2107 N 200.889 -0.377956 -6.12735 0
M  V30 2108 C 202.26 -0.573333 -6.17343 0
M  V30 2109 C 204.315 0.0716685 -4.97848 0
M  V30 2110 C 203.018 -1.3698 -7.06137 0
M  V30 2111 C 205.044 -0.711532 -5.87104 0
M  V30 2112 C 204.406 -1.42431 -6.8985 0
M  V30 2113 H 200.505 0.291798 -0.725519 0
M  V30 2114 H 203.089 0.123347 -1.94309 0
M  V30 2115 H 201.26 2.37642 -3.07215 0
M  V30 2116 H 202.992 2.32302 -3.31388 0
M  V30 2117 H 199.747 0.821753 -4.66416 0
M  V30 2118 H 200.171 -0.801077 -6.72244 0
M  V30 2119 H 204.813 0.608381 -4.184 0
M  V30 2120 H 202.531 -1.91778 -7.85014 0
M  V30 2121 H 206.117 -0.775005 -5.76615 0
M  V30 2122 H 204.997 -2.02061 -7.57721 0
M  V30 2123 N 202.5 1.5196 0.417844 0
M  V30 2124 C 203.748 1.65263 1.16329 0
M  V30 2125 C 204.069 0.380634 1.91249 0
M  V30 2126 O 203.339 -0.604214 1.86349 0
M  V30 2127 H 201.919 0.60912 0.432414 0
M  V30 2128 H 204.581 1.88969 0.477162 0
M  V30 2129 H 203.677 2.4896 1.88217 0
M  V30 2130 N 203.978 -0.674533 1.42435 0
M  V30 2131 C 205.226 -1.43175 1.42637 0
M  V30 2132 C 205.547 -1.94951 0.0438992 0
M  V30 2133 O 204.817 -1.7308 -0.917607 0
M  V30 2134 H 203.397 -0.531307 0.525092 0
M  V30 2135 H 206.059 -0.797006 1.77859 0
M  V30 2136 H 205.155 -2.28463 2.12629 0
M  V30 2137 N 205.456 -1.28612 -0.910864 0
M  V30 2138 C 206.872 -1.06381 -1.18976 0
M  V30 2139 C 207.072 0.191998 -2.00583 0
M  V30 2140 O 206.128 0.892869 -2.36187 0
M  V30 2141 C 207.441 -2.31295 -1.92154 0
M  V30 2142 C 208.989 -2.36503 -2.05025 0
M  V30 2143 C 209.464 -3.61191 -2.81612 0
M  V30 2144 N 210.955 -3.61847 -2.89172 0
M  V30 2145 C 211.69 -4.55004 -3.4894 0
M  V30 2146 N 211.186 -5.58482 -4.09963 0
M  V30 2147 N 212.979 -4.42594 -3.46506 0
M  V30 2148 H 205.13 -2.09221 -0.366094 0
M  V30 2149 H 207.393 -0.921003 -0.224629 0
M  V30 2150 H 207.099 -3.228 -1.39618 0
M  V30 2151 H 206.973 -2.37934 -2.9269 0
M  V30 2152 H 209.36 -1.45494 -2.5674 0
M  V30 2153 H 209.441 -2.33857 -1.03657 0
M  V30 2154 H 209.085 -4.52545 -2.30576 0
M  V30 2155 H 209.015 -3.61092 -3.83302 0
M  V30 2156 H 211.506 -2.87022 -2.45819 0
M  V30 2157 H 211.819 -6.25704 -4.53557 0
M  V30 2158 H 210.164 -5.62305 -4.08459 0
M  V30 2159 H 213.355 -3.60953 -2.98045 0
M  V30 2160 H 213.528 -5.15381 -3.92793 0
M  V30 2161 N 206.934 1.1197 -1.10907 0
M  V30 2162 C 207.844 2.21433 -0.774896 0
M  V30 2163 C 208.86 1.72478 0.229657 0
M  V30 2164 O 210.036 2.01288 0.0672008 0
M  V30 2165 C 207.101 3.4602 -0.216986 0
M  V30 2166 C 206.162 4.09791 -1.27944 0
M  V30 2167 C 205.395 5.28431 -0.748055 0
M  V30 2168 O 205.618 5.68823 0.423833 0
M  V30 2169 O 204.552 5.82644 -1.51027 0
M  V30 2170 H 208.378 2.5242 -1.68873 0
M  V30 2171 H 205.963 1.20399 -0.884555 0
M  V30 2172 H 207.845 4.21304 0.090059 0
M  V30 2173 H 206.52 3.16698 0.669633 0
M  V30 2174 H 205.427 3.36265 -1.63941 0
M  V30 2175 H 206.76 4.4328 -2.13925 0
M  V30 2176 N 208.412 0.89855 1.29475 0
M  V30 2177 C 209.66 0.522847 1.9522 0
M  V30 2178 C 209.981 -0.93371 1.71192 0
M  V30 2179 O 209.251 -1.65823 1.04305 0
M  V30 2180 H 207.831 0.190366 0.722336 0
M  V30 2181 H 210.493 1.14459 1.5775 0
M  V30 2182 H 209.589 0.704476 3.04045 0
M  V30 2183 N 209.89 -1.43072 0.660911 0
M  V30 2184 C 210.853 -2.29194 -0.0166406 0
M  V30 2185 C 211.853 -1.42609 -0.742912 0
M  V30 2186 O 213.043 -1.64155 -0.583004 0
M  V30 2187 C 210.175 -3.24831 -1.0343 0
M  V30 2188 H 211.368 -2.90596 0.741208 0
M  V30 2189 H 208.921 -1.5048 0.422532 0
M  V30 2190 H 209.656 -2.68339 -1.82111 0
M  V30 2191 H 209.441 -3.88676 -0.517082 0
M  V30 2192 H 210.931 -3.89451 -1.50723 0
M  V30 2193 N 211.368 -0.403325 -1.52352 0
M  V30 2194 C 212.278 0.432009 -2.30588 0
M  V30 2195 C 213.294 1.05884 -1.38075 0
M  V30 2196 O 214.47 1.06161 -1.71148 0
M  V30 2197 C 211.535 1.53669 -3.10784 0
M  V30 2198 C 210.596 0.933525 -4.19027 0
M  V30 2199 C 209.829 1.98557 -4.9539 0
M  V30 2200 O 210.052 3.20283 -4.71991 0
M  V30 2201 O 208.986 1.59504 -5.80381 0
M  V30 2202 H 212.812 -0.205739 -3.03002 0
M  V30 2203 H 210.397 -0.166675 -1.48467 0
M  V30 2204 H 212.279 2.17814 -3.60742 0
M  V30 2205 H 210.954 2.15915 -2.41169 0
M  V30 2206 H 209.861 0.254954 -3.7323 0
M  V30 2207 H 211.194 0.35508 -4.90918 0
M  V30 2208 N 212.846 1.57033 -0.133567 0
M  V30 2209 C 214.076 1.99754 0.527429 0
M  V30 2210 C 214.484 1.01245 1.59832 0
M  V30 2211 O 213.827 -0.000645496 1.837 0
M  V30 2212 C 213.889 3.38903 1.19939 0
M  V30 2213 C 213.553 4.56174 0.274709 0
M  V30 2214 C 214.55 5.17563 -0.492398 0
M  V30 2215 C 212.235 5.01972 0.18153 0
M  V30 2216 C 214.229 6.2315 -1.34027 0
M  V30 2217 C 211.916 6.07416 -0.669958 0
M  V30 2218 C 212.914 6.67874 -1.42947 0
M  V30 2219 O 212.602 7.71279 -2.2668 0
M  V30 2220 H 212.334 0.660702 0.142999 0
M  V30 2221 H 214.888 2.04207 -0.221099 0
M  V30 2222 H 213.118 3.31248 1.99528 0
M  V30 2223 H 214.807 3.65818 1.75875 0
M  V30 2224 H 215.573 4.83087 -0.430367 0
M  V30 2225 H 211.452 4.54652 0.762422 0
M  V30 2226 H 214.996 6.70268 -1.93357 0
M  V30 2227 H 210.893 6.41321 -0.73333 0
M  V30 2228 H 211.661 7.88441 -2.1978 0
M  V30 2229 N 214.325 -0.140222 1.56975 0
M  V30 2230 C 215.602 -0.880769 1.74648 0
M  V30 2231 C 215.982 -1.99036 0.703404 0
M  V30 2232 O 215.33 -2.26821 -0.27648 0
M  V30 2233 C 215.54 -1.417 3.18939 0
M  V30 2234 C 216.888 -1.87774 3.80823 0
M  V30 2235 O 217.912 -1.51427 3.2241 0
M  V30 2236 O 216.771 -2.54827 4.83452 0
M  V30 2237 H 213.865 -0.416713 0.714338 0
M  V30 2238 H 216.411 -0.125618 1.69234 0
M  V30 2239 H 215.183 -0.619902 3.86359 0
M  V30 2240 H 214.806 -2.23546 3.28805 0
M  V30 2241 N 215.803 -1.52179 -0.40978 0
M  V30 2242 C 217.028 -1.70347 -1.18308 0
M  V30 2243 C 217.453 -0.411887 -1.83535 0
M  V30 2244 O 216.811 0.630587 -1.6998 0
M  V30 2245 C 216.859 -2.83977 -2.22238 0
M  V30 2246 O 215.963 -2.495 -3.28365 0
M  V30 2247 H 215.304 -0.567103 -0.345384 0
M  V30 2248 H 217.834 -1.98879 -0.480445 0
M  V30 2249 H 217.844 -3.0887 -2.66577 0
M  V30 2250 H 216.519 -3.77685 -1.74146 0
M  V30 2251 H 215.096 -2.35277 -2.89308 0
M  V30 2252 N 217.281 0.66697 -1.42791 0
M  V30 2253 C 218.244 1.76211 -1.46568 0
M  V30 2254 C 219.244 1.56896 -0.352196 0
M  V30 2255 O 220.434 1.63044 -0.613364 0
M  V30 2256 C 217.566 3.14935 -1.30494 0
M  V30 2257 H 218.759 1.74247 -2.44086 0
M  V30 2258 H 216.312 0.877342 -1.29354 0
M  V30 2259 H 217.047 3.2252 -0.339301 0
M  V30 2260 H 216.832 3.30359 -2.11199 0
M  V30 2261 H 218.322 3.94821 -1.36038 0
M  V30 2262 N 218.759 1.29093 0.90403 0
M  V30 2263 C 219.706 1.13853 2.00764 0
M  V30 2264 C 220.676 0.0330084 1.66067 0
M  V30 2265 O 221.861 0.199733 1.89752 0
M  V30 2266 C 219.001 0.816537 3.35301 0
M  V30 2267 C 218.114 2.00206 3.82807 0
M  V30 2268 C 217.249 1.61983 5.059 0
M  V30 2269 C 216.288 2.77143 5.45764 0
M  V30 2270 N 215.425 2.39346 6.60044 0
M  V30 2271 H 220.265 2.08276 2.13132 0
M  V30 2272 H 217.802 1.03648 1.04381 0
M  V30 2273 H 219.76 0.610557 4.12708 0
M  V30 2274 H 218.39 -0.090779 3.22672 0
M  V30 2275 H 217.442 2.31988 3.01473 0
M  V30 2276 H 218.754 2.86512 4.08304 0
M  V30 2277 H 217.908 1.37649 5.90879 0
M  V30 2278 H 216.647 0.728202 4.82233 0
M  V30 2279 H 215.652 3.02165 4.59322 0
M  V30 2280 H 216.877 3.66964 5.71414 0
M  V30 2281 H 214.823 1.52665 6.37989 0
M  V30 2282 H 214.74 3.19185 6.85315 0
M  V30 2283 H 216.008 2.1832 7.48303 0
M  V30 2284 N 220.237 -1.11381 1.11499 0
M  V30 2285 C 221.514 -1.7955 0.775965 0
M  V30 2286 C 221.894 -1.97859 -0.73588 0
M  V30 2287 O 221.242 -1.56376 -1.66609 0
M  V30 2288 C 221.452 -3.13196 1.53977 0
M  V30 2289 C 222.8 -3.88227 1.71944 0
M  V30 2290 O 223.824 -3.22887 1.50407 0
M  V30 2291 O 222.683 -5.05477 2.07738 0
M  V30 2292 H 219.777 -0.777728 0.28119 0
M  V30 2293 H 222.323 -1.18118 1.21845 0
M  V30 2294 H 221.095 -2.95229 2.56818 0
M  V30 2295 H 220.718 -3.82342 1.09088 0
M  V30 2296 N 221.715 -0.905404 -1.28997 0
M  V30 2297 C 222.961 -0.535039 -1.95615 0
M  V30 2298 C 223.294 0.917404 -1.71165 0
M  V30 2299 O 222.569 1.65123 -1.02785 0
M  V30 2300 C 222.852 -0.834918 -3.50287 0
M  V30 2301 C 222.705 -2.33948 -3.84172 0
M  V30 2302 C 224.024 -0.325318 -4.38896 0
M  V30 2303 H 221.143 -0.195861 -0.710498 0
M  V30 2304 H 223.785 -1.13313 -1.52513 0
M  V30 2305 H 221.935 -0.325904 -3.87131 0
M  V30 2306 H 223.607 -2.91847 -3.57243 0
M  V30 2307 H 221.85 -2.79789 -3.31513 0
M  V30 2308 H 222.521 -2.49987 -4.92149 0
M  V30 2309 H 224.997 -0.761256 -4.09077 0
M  V30 2310 H 223.873 -0.564295 -5.45992 0
M  V30 2311 H 224.134 0.774144 -4.35269 0
M  V30 2312 N 223.193 1.4272 -0.668489 0
M  V30 2313 C 224.418 2.06484 -0.194758 0
M  V30 2314 C 224.843 1.49862 1.13679 0
M  V30 2315 O 224.201 0.614582 1.70565 0
M  V30 2316 C 224.249 3.60353 -0.133546 0
M  V30 2317 O 223.353 4.02464 0.899806 0
M  V30 2318 H 222.694 0.656137 -0.10188 0
M  V30 2319 H 225.224 1.82964 -0.915722 0
M  V30 2320 H 225.234 4.07976 0.0447041 0
M  V30 2321 H 223.909 4.00938 -1.1055 0
M  V30 2322 H 222.486 3.66402 0.693109 0
M  V30 2323 N 224.671 0.411399 1.52136 0
M  V30 2324 C 225.634 -0.401089 2.25663 0
M  V30 2325 C 226.634 -0.971732 1.28117 0
M  V30 2326 O 227.824 -0.850254 1.52041 0
M  V30 2327 C 224.956 -1.56483 3.02863 0
M  V30 2328 H 226.149 0.24295 2.98914 0
M  V30 2329 H 223.702 0.163968 1.55438 0
M  V30 2330 H 224.437 -2.24567 2.33967 0
M  V30 2331 H 224.222 -1.16211 3.74483 0
M  V30 2332 H 225.712 -2.13951 3.58629 0
M  V30 2333 N 226.149 -1.5696 0.141893 0
M  V30 2334 C 227.112 -2.15316 -0.785587 0
M  V30 2335 C 228.112 -1.09366 -1.1788 0
M  V30 2336 O 229.302 -1.35031 -1.10056 0
M  V30 2337 C 226.434 -2.71211 -2.06537 0
M  V30 2338 H 227.627 -2.98608 -0.278041 0
M  V30 2339 H 225.18 -1.5593 -0.107519 0
M  V30 2340 H 225.915 -1.91571 -2.6167 0
M  V30 2341 H 225.7 -3.4872 -1.79268 0
M  V30 2342 H 227.19 -3.16189 -2.72789 0
M  V30 2343 N 227.627 0.131896 -1.57047 0
M  V30 2344 C 228.557 1.16384 -2.02428 0
M  V30 2345 C 229.538 1.43936 -0.90644 0
M  V30 2346 O 230.723 1.54599 -1.17528 0
M  V30 2347 C 227.853 2.49328 -2.4177 0
M  V30 2348 C 226.807 2.36266 -3.56879 0
M  V30 2349 C 226.133 3.74057 -3.8208 0
M  V30 2350 C 227.433 1.834 -4.89042 0
M  V30 2351 H 229.127 0.786433 -2.88887 0
M  V30 2352 H 226.673 0.376855 -1.38981 0
M  V30 2353 H 228.626 3.21759 -2.7212 0
M  V30 2354 H 227.35 2.88934 -1.52266 0
M  V30 2355 H 226.009 1.66286 -3.26718 0
M  V30 2356 H 225.657 4.11125 -2.89803 0
M  V30 2357 H 225.357 3.66174 -4.59554 0
M  V30 2358 H 226.881 4.48012 -4.1487 0
M  V30 2359 H 228.295 2.45636 -5.18011 0
M  V30 2360 H 226.692 1.8637 -5.70426 0
M  V30 2361 H 227.762 0.790662 -4.7841 0
M  V30 2362 N 229.106 1.52395 0.401703 0
M  V30 2363 C 230.383 1.57387 1.16141 0
M  V30 2364 C 230.763 0.359359 2.08019 0
M  V30 2365 O 230.111 -0.65326 2.18963 0
M  V30 2366 C 230.321 2.90631 1.93221 0
M  V30 2367 C 231.669 3.43904 2.49028 0
M  V30 2368 O 232.693 2.92421 2.03393 0
M  V30 2369 O 231.552 4.33823 3.32356 0
M  V30 2370 H 228.646 0.634262 0.530698 0
M  V30 2371 H 231.192 1.64725 0.407883 0
M  V30 2372 H 229.964 3.70473 1.25958 0
M  V30 2373 H 229.587 2.8662 2.75563 0
M  V30 2374 N 230.584 -0.659388 1.43143 0
M  V30 2375 C 232 -0.974337 1.26407 0
M  V30 2376 C 232.2 -2.007 0.179341 0
M  V30 2377 O 231.256 -2.4856 -0.444295 0
M  V30 2378 C 232.569 -1.46447 2.62628 0
M  V30 2379 C 234.117 -1.58144 2.7011 0
M  V30 2380 C 234.592 -2.1055 4.06734 0
M  V30 2381 N 236.083 -2.17861 4.08767 0
M  V30 2382 C 236.818 -2.59519 5.1131 0
M  V30 2383 N 236.314 -3.00518 6.24228 0
M  V30 2384 N 238.107 -2.59404 4.98664 0
M  V30 2385 H 230.258 0.0240528 2.12386 0
M  V30 2386 H 232.521 -0.0518065 0.946583 0
M  V30 2387 H 232.227 -0.780123 3.42939 0
M  V30 2388 H 232.101 -2.44058 2.87603 0
M  V30 2389 H 234.488 -2.25682 1.90136 0
M  V30 2390 H 234.569 -0.589828 2.48907 0
M  V30 2391 H 234.213 -1.43616 4.87172 0
M  V30 2392 H 234.143 -3.10531 4.25298 0
M  V30 2393 H 236.634 -1.88975 3.27257 0
M  V30 2394 H 236.947 -3.31036 6.98309 0
M  V30 2395 H 235.292 -2.98337 6.2771 0
M  V30 2396 H 238.483 -2.26747 4.09516 0
M  V30 2397 H 238.656 -2.91548 5.78709 0
M  V30 2398 N 232.062 -1.29571 -0.897171 0
M  V30 2399 C 233.292 -1.20408 -1.67886 0
M  V30 2400 C 233.7 0.237429 -1.87704 0
M  V30 2401 O 233.043 1.17048 -1.41582 0
M  V30 2402 C 233.105 -1.84887 -3.08314 0
M  V30 2403 C 232.769 -3.34189 -3.11716 0
M  V30 2404 C 233.766 -4.30374 -2.91675 0
M  V30 2405 C 231.451 -3.75431 -3.33701 0
M  V30 2406 C 233.445 -5.65776 -2.93557 0
M  V30 2407 C 231.132 -5.10955 -3.35214 0
M  V30 2408 C 232.13 -6.05938 -3.15164 0
M  V30 2409 O 231.818 -7.38987 -3.1647 0
M  V30 2410 H 231.55 -0.418289 -0.531046 0
M  V30 2411 H 234.104 -1.71514 -1.13014 0
M  V30 2412 H 232.334 -1.28295 -3.64798 0
M  V30 2413 H 234.023 -1.70011 -3.6858 0
M  V30 2414 H 234.789 -3.99844 -2.74499 0
M  V30 2415 H 230.668 -3.01953 -3.48347 0
M  V30 2416 H 234.212 -6.39889 -2.77826 0
M  V30 2417 H 230.109 -5.4113 -3.51922 0
M  V30 2418 H 230.877 -7.47823 -3.3272 0
M  V30 2419 N 233.54 1.10788 -1.12088 0
M  V30 2420 C 234.956 1.34691 -0.856186 0
M  V30 2421 C 235.156 1.94791 0.515615 0
M  V30 2422 O 234.212 2.18524 1.26505 0
M  V30 2423 C 235.525 2.27208 -1.9697 0
M  V30 2424 C 237.073 2.40755 -2.00016 0
M  V30 2425 C 237.548 3.36598 -3.1059 0
M  V30 2426 N 239.039 3.44164 -3.10008 0
M  V30 2427 C 239.774 4.18284 -3.92206 0
M  V30 2428 N 239.27 4.95322 -4.84384 0
M  V30 2429 N 241.063 4.13865 -3.80357 0
M  V30 2430 H 233.214 0.70144 -2.00483 0
M  V30 2431 H 235.477 0.371405 -0.872217 0
M  V30 2432 H 235.183 1.90251 -2.958 0
M  V30 2433 H 235.057 3.27485 -1.87172 0
M  V30 2434 H 237.444 2.76982 -1.01808 0
M  V30 2435 H 237.525 1.40305 -2.13888 0
M  V30 2436 H 237.169 3.01096 -4.09028 0
M  V30 2437 H 237.099 4.36918 -2.93956 0
M  V30 2438 H 239.59 2.8922 -2.43228 0
M  V30 2439 H 239.903 5.49267 -5.43623 0
M  V30 2440 H 238.248 4.94459 -4.884 0
M  V30 2441 H 241.439 3.52773 -3.07683 0
M  V30 2442 H 241.612 4.71372 -4.44649 0
M  V30 2443 N 235.018 0.912232 1.28515 0
M  V30 2444 C 235.928 0.404506 2.31086 0
M  V30 2445 C 236.944 -0.50707 1.66448 0
M  V30 2446 O 238.12 -0.393624 1.97516 0
M  V30 2447 C 235.185 -0.348572 3.44943 0
M  V30 2448 C 234.246 0.59604 4.25142 0
M  V30 2449 C 233.479 -0.121194 5.33562 0
M  V30 2450 O 233.702 -1.34317 5.5436 0
M  V30 2451 O 232.636 0.542716 5.99448 0
M  V30 2452 H 236.462 1.25579 2.76521 0
M  V30 2453 H 234.047 0.676998 1.33181 0
M  V30 2454 H 235.929 -0.77395 4.14232 0
M  V30 2455 H 234.604 -1.17571 3.01594 0
M  V30 2456 H 233.511 1.07079 3.58448 0
M  V30 2457 H 234.844 1.38995 4.72167 0
M  V30 2458 N 236.496 -1.42363 0.676048 0
M  V30 2459 C 237.459 -2.29199 0.00766941 0
M  V30 2460 C 238.459 -1.43389 -0.727745 0
M  V30 2461 O 239.649 -1.64764 -0.56556 0
M  V30 2462 C 236.781 -3.2591 -0.999785 0
M  V30 2463 H 237.974 -2.89794 0.771988 0
M  V30 2464 H 235.527 -1.50024 0.438468 0
M  V30 2465 H 236.262 -2.70256 -1.79255 0
M  V30 2466 H 236.047 -3.89202 -0.475829 0
M  V30 2467 H 237.537 -3.91028 -1.46583 0
M  V30 2468 N 237.974 -0.419461 -1.51915 0
M  V30 2469 C 238.904 0.391813 -2.30189 0
M  V30 2470 C 239.885 1.03699 -1.34836 0
M  V30 2471 O 241.07 1.04403 -1.63748 0
M  V30 2472 C 238.2 1.50312 -3.13087 0
M  V30 2473 C 237.154 0.9824 -4.16573 0
M  V30 2474 C 236.48 2.18809 -4.8788 0
M  V30 2475 C 237.78 0.0292356 -5.22292 0
M  V30 2476 H 239.474 -0.26135 -2.98257 0
M  V30 2477 H 237.02 -0.127134 -1.43438 0
M  V30 2478 H 238.973 2.07773 -3.66617 0
M  V30 2479 H 237.697 2.18431 -2.42807 0
M  V30 2480 H 236.356 0.430119 -3.64068 0
M  V30 2481 H 236.004 2.85507 -4.14119 0
M  V30 2482 H 235.704 1.84615 -5.57845 0
M  V30 2483 H 237.228 2.76858 -5.44226 0
M  V30 2484 H 238.642 0.512976 -5.71 0
M  V30 2485 H 237.039 -0.2244 -5.9968 0
M  V30 2486 H 238.109 -0.912931 -4.76228 0
M  V30 2487 N 239.452 1.56882 -0.150215 0
M  V30 2488 C 240.4 2.18214 0.805313 0
M  V30 2489 C 241.394 1.14006 1.25296 0
M  V30 2490 O 242.6 1.3225 1.22107 0
M  V30 2491 H 238.975 0.698762 0.277913 0
M  V30 2492 H 240.946 2.97231 0.263862 0
M  V30 2493 C 239.695 2.82065 2.03309 0
M  V30 2494 H 239.018 3.61968 1.69763 0
M  V30 2495 H 240.458 3.28477 2.68103 0
M  V30 2496 C 238.917 1.80739 2.84315 0
M  V30 2497 O 239.447 1.27983 3.80767 0
M  V30 2498 N 237.653 1.4997 2.48913 0
M  V30 2499 H 237.2 1.93062 1.70542 0
M  V30 2500 H 237.158 0.824217 3.03404 0
M  V30 2501 N 240.93 -0.123565 1.57115 0
M  V30 2502 C 241.86 -1.15309 2.03042 0
M  V30 2503 C 242.841 -1.43454 0.914061 0
M  V30 2504 O 244.026 -1.53973 1.18347 0
M  V30 2505 C 241.156 -2.48043 2.43089 0
M  V30 2506 C 240.11 -2.3437 3.58127 0
M  V30 2507 C 239.436 -3.72026 3.84059 0
M  V30 2508 C 240.736 -1.80804 4.90007 0
M  V30 2509 H 242.43 -0.771102 2.893 0
M  V30 2510 H 239.976 -0.369479 1.39179 0
M  V30 2511 H 241.929 -3.20311 2.73823 0
M  V30 2512 H 240.653 -2.88122 1.53796 0
M  V30 2513 H 239.312 -1.64551 3.27595 0
M  V30 2514 H 238.96 -4.09582 2.91979 0
M  V30 2515 H 238.66 -3.63732 4.6149 0
M  V30 2516 H 240.184 -4.45806 4.1724 0
M  V30 2517 H 241.598 -2.42886 5.19307 0
M  V30 2518 H 239.995 -1.83343 5.71407 0
M  V30 2519 H 241.065 -0.76528 4.78823 0
M  V30 2520 N 242.408 -1.52605 -0.393616 0
M  V30 2521 C 243.338 -1.80022 -1.48709 0
M  V30 2522 C 244.319 -0.651995 -1.57108 0
M  V30 2523 O 245.504 -0.89913 -1.72132 0
M  V30 2524 C 242.634 -1.96492 -2.86371 0
M  V30 2525 C 241.588 -3.12161 -2.92813 0
M  V30 2526 C 240.914 -3.13877 -4.3288 0
M  V30 2527 C 242.214 -4.51322 -2.6288 0
M  V30 2528 H 243.908 -2.71589 -1.26015 0
M  V30 2529 H 241.454 -1.30684 -0.604778 0
M  V30 2530 H 243.407 -2.14255 -3.62867 0
M  V30 2531 H 242.131 -1.01611 -3.10391 0
M  V30 2532 H 240.79 -2.94173 -2.18764 0
M  V30 2533 H 240.438 -2.16687 -4.53933 0
M  V30 2534 H 240.138 -3.91576 -4.38112 0
M  V30 2535 H 241.662 -3.33789 -5.1129 0
M  V30 2536 H 243.076 -4.69435 -3.29096 0
M  V30 2537 H 241.473 -5.31053 -2.79468 0
M  V30 2538 H 242.543 -4.58353 -1.58242 0
M  V30 2539 N 243.887 0.651787 -1.4349 0
M  V30 2540 C 244.85 1.74647 -1.48429 0
M  V30 2541 C 245.85 1.56513 -0.368817 0
M  V30 2542 O 247.04 1.62385 -0.630623 0
M  V30 2543 C 244.172 3.13533 -1.33827 0
M  V30 2544 H 245.365 1.71649 -2.4592 0
M  V30 2545 H 242.918 0.863573 -1.30277 0
M  V30 2546 H 243.653 3.22142 -0.37349 0
M  V30 2547 H 243.438 3.28101 -2.14691 0
M  V30 2548 H 244.928 3.93356 -1.40218 0
M  V30 2549 N 245.365 1.30045 0.890287 0
M  V30 2550 C 246.297 1.11786 2.00091 0
M  V30 2551 C 247.31 0.0626307 1.62679 0
M  V30 2552 O 248.499 0.308112 1.75821 0
M  V30 2553 C 245.599 0.681527 3.31977 0
M  V30 2554 C 244.772 1.81735 3.97858 0
M  V30 2555 C 243.831 1.37045 5.08041 0
M  V30 2556 O 242.857 2.07677 5.29961 0
M  V30 2557 N 244.059 0.246525 5.79976 0
M  V30 2558 H 246.824 2.07441 2.16306 0
M  V30 2559 H 244.385 1.2211 1.06305 0
M  V30 2560 H 246.377 0.365675 4.03045 0
M  V30 2561 H 244.947 -0.182828 3.12065 0
M  V30 2562 H 244.167 2.30159 3.20032 0
M  V30 2563 H 245.455 2.57865 4.38615 0
M  V30 2564 H 244.853 -0.34215 5.64664 0
M  V30 2565 H 243.41 -0.00990438 6.51799 0
M  V30 2566 N 246.843 -1.10192 1.12674 0
M  V30 2567 C 248.073 -1.85713 0.905213 0
M  V30 2568 C 248.481 -1.81056 -0.549108 0
M  V30 2569 O 247.824 -1.19927 -1.39151 0
M  V30 2570 C 247.886 -3.34972 1.30516 0
M  V30 2571 C 247.55 -3.63385 2.77129 0
M  V30 2572 C 248.547 -3.59772 3.75313 0
M  V30 2573 C 246.232 -3.91981 3.14096 0
M  V30 2574 C 248.226 -3.84354 5.08479 0
M  V30 2575 C 245.913 -4.16218 4.47443 0
M  V30 2576 C 246.911 -4.12395 5.44444 0
M  V30 2577 O 246.599 -4.36014 6.75387 0
M  V30 2578 H 246.331 -0.593719 0.323223 0
M  V30 2579 H 248.885 -1.40198 1.50112 0
M  V30 2580 H 247.115 -3.81156 0.652463 0
M  V30 2581 H 248.804 -3.91886 1.05736 0
M  V30 2582 H 249.57 -3.37716 3.48099 0
M  V30 2583 H 245.449 -3.94085 2.39202 0
M  V30 2584 H 248.993 -3.81285 5.84181 0
M  V30 2585 H 244.89 -4.37754 4.74386 0
M  V30 2586 H 245.658 -4.53516 6.8137 0
M  V30 2587 N 248.321 -0.919034 -1.28029 0
M  V30 2588 C 249.546 -0.570357 -1.99403 0
M  V30 2589 C 249.971 0.842486 -1.68178 0
M  V30 2590 O 249.329 1.56391 -0.917141 0
M  V30 2591 C 249.377 -0.792541 -3.51783 0
M  V30 2592 O 248.481 0.145988 -4.12142 0
M  V30 2593 H 247.822 -0.220555 -0.6263 0
M  V30 2594 H 250.352 -1.23592 -1.63053 0
M  V30 2595 H 250.362 -0.704708 -4.01868 0
M  V30 2596 H 249.037 -1.82247 -3.73844 0
M  V30 2597 H 247.614 0.00897528 -3.72899 0
M  V30 2598 N 249.799 1.42003 -0.683588 0
M  V30 2599 C 250.709 2.34597 -0.0109075 0
M  V30 2600 C 251.725 1.55576 0.779245 0
M  V30 2601 O 252.901 1.88107 0.719555 0
M  V30 2602 C 249.966 3.34199 0.922588 0
M  V30 2603 C 249.027 4.29115 0.125984 0
M  V30 2604 C 248.26 5.23959 1.01502 0
M  V30 2605 O 248.483 5.23952 2.25456 0
M  V30 2606 O 247.417 6.00053 0.47111 0
M  V30 2607 H 251.243 2.93675 -0.773853 0
M  V30 2608 H 248.828 1.42654 -0.443861 0
M  V30 2609 H 250.71 3.95365 1.45823 0
M  V30 2610 H 249.385 2.77582 1.66523 0
M  V30 2611 H 248.292 3.71335 -0.453969 0
M  V30 2612 H 249.625 4.88798 -0.577736 0
M  V30 2613 N 251.277 0.427512 1.51691 0
M  V30 2614 C 252.554 -0.201684 1.94557 0
M  V30 2615 C 252.934 -1.60981 1.36559 0
M  V30 2616 O 252.282 -2.21814 0.548702 0
M  V30 2617 C 252.492 -0.189394 3.48486 0
M  V30 2618 C 253.84 -0.39978 4.22714 0
M  V30 2619 O 254.864 -0.267945 3.55191 0
M  V30 2620 O 253.723 -0.661249 5.42485 0
M  V30 2621 H 250.817 -0.135261 0.815864 0
M  V30 2622 H 253.363 0.484782 1.62628 0
M  V30 2623 H 252.135 0.795431 3.8313 0
M  V30 2624 H 251.758 -0.919187 3.86829 0
M  V30 2625 N 252.755 -1.56801 0.158532 0
M  V30 2626 C 254.171 -1.5837 -0.197774 0
M  V30 2627 C 254.371 -1.17334 -1.63814 0
M  V30 2628 O 253.427 -0.878988 -2.36707 0
M  V30 2629 C 254.74 -3.00615 0.0714459 0
M  V30 2630 C 256.288 -3.12999 0.00864533 0
M  V30 2631 C 256.763 -4.57313 0.250685 0
M  V30 2632 N 258.254 -4.62777 0.198014 0
M  V30 2633 C 258.989 -5.72271 0.359642 0
M  V30 2634 N 258.485 -6.90371 0.579625 0
M  V30 2635 N 260.278 -5.61318 0.296438 0
M  V30 2636 H 252.429 -1.81765 1.09887 0
M  V30 2637 H 254.692 -0.841849 0.435884 0
M  V30 2638 H 254.398 -3.35068 1.06874 0
M  V30 2639 H 254.272 -3.71683 -0.642757 0
M  V30 2640 H 256.659 -2.7838 -0.979217 0
M  V30 2641 H 256.74 -2.44393 0.755359 0
M  V30 2642 H 256.384 -4.92639 1.2357 0
M  V30 2643 H 256.314 -5.24061 -0.516489 0
M  V30 2644 H 258.805 -3.77885 0.0331115 0
M  V30 2645 H 259.118 -7.69689 0.69275 0
M  V30 2646 H 257.463 -6.92264 0.616087 0
M  V30 2647 H 260.654 -4.67932 0.125258 0
M  V30 2648 H 260.827 -6.46599 0.425831 0
M  V30 2649 N 254.233 0.115231 -1.57178 0
M  V30 2650 C 255.481 0.820727 -1.84685 0
M  V30 2651 C 255.802 1.80237 -0.744279 0
M  V30 2652 O 255.072 1.94529 0.231375 0
M  V30 2653 H 253.652 0.306084 -0.681411 0
M  V30 2654 H 256.314 0.101656 -1.94635 0
M  V30 2655 H 255.41 1.36366 -2.80733 0
M  V30 2656 N 255.711 1.52812 0.385517 0
M  V30 2657 C 256.941 1.71658 1.14966 0
M  V30 2658 C 257.349 0.436253 1.84102 0
M  V30 2659 O 256.692 -0.599313 1.73649 0
M  V30 2660 C 256.754 2.81309 2.23843 0
M  V30 2661 C 256.418 4.22313 1.74644 0
M  V30 2662 C 257.415 5.05352 1.22129 0
M  V30 2663 C 255.1 4.68648 1.80761 0
M  V30 2664 C 257.094 6.32807 0.763838 0
M  V30 2665 C 254.781 5.96086 1.34627 0
M  V30 2666 C 255.779 6.77996 0.825264 0
M  V30 2667 O 255.467 8.03045 0.370669 0
M  V30 2668 H 255.199 0.578022 0.350523 0
M  V30 2669 H 257.753 2.00263 0.456509 0
M  V30 2670 H 255.983 2.48133 2.96592 0
M  V30 2671 H 257.672 2.88524 2.85497 0
M  V30 2672 H 258.438 4.70736 1.16758 0
M  V30 2673 H 254.317 4.04979 2.20256 0
M  V30 2674 H 257.861 6.96689 0.356494 0
M  V30 2675 H 253.758 6.30205 1.39686 0
M  V30 2676 H 254.526 8.17021 0.491829 0
M  V30 2677 N 257.189 -0.644168 1.43834 0
M  V30 2678 C 258.437 -1.40117 1.45642 0
M  V30 2679 C 258.758 -1.94814 0.0852413 0
M  V30 2680 O 258.028 -1.74988 -0.880688 0
M  V30 2681 H 256.608 -0.52005 0.536243 0
M  V30 2682 H 259.27 -0.7591 1.7951 0
M  V30 2683 H 258.366 -2.23902 2.17427 0
M  V30 2684 N 258.668 -1.30515 -0.883378 0
M  V30 2685 C 259.598 -1.19607 -2.00541 0
M  V30 2686 C 260.579 -0.086346 -1.69881 0
M  V30 2687 O 261.764 -0.268654 -1.92333 0
M  V30 2688 C 258.894 -0.888758 -3.35736 0
M  V30 2689 C 257.848 -1.95659 -3.8066 0
M  V30 2690 C 257.174 -1.50224 -5.13164 0
M  V30 2691 C 258.474 -3.36788 -3.99213 0
M  V30 2692 H 260.168 -2.13476 -2.09925 0
M  V30 2693 H 257.714 -1.02775 -1.00863 0
M  V30 2694 H 259.667 -0.799094 -4.13754 0
M  V30 2695 H 258.391 0.0856125 -3.26488 0
M  V30 2696 H 257.05 -2.03591 -3.04871 0
M  V30 2697 H 256.698 -0.516092 -5.00345 0
M  V30 2698 H 256.398 -2.2165 -5.44192 0
M  V30 2699 H 257.922 -1.42639 -5.93706 0
M  V30 2700 H 259.336 -3.31605 -4.67665 0
M  V30 2701 H 257.733 -4.06314 -4.41621 0
M  V30 2702 H 258.803 -3.78561 -3.03017 0
M  V30 2703 N 260.146 1.09593 -1.13257 0
M  V30 2704 C 261.562 1.33775 -0.870423 0
M  V30 2705 C 261.762 1.95327 0.494926 0
M  V30 2706 O 260.818 2.19853 1.2418 0
M  V30 2707 C 262.131 2.25106 -1.99369 0
M  V30 2708 C 263.679 2.3862 -2.02558 0
M  V30 2709 C 264.154 3.33285 -3.14142 0
M  V30 2710 N 265.645 3.40857 -3.13641 0
M  V30 2711 C 266.38 4.14101 -3.96621 0
M  V30 2712 N 265.876 4.90157 -4.8961 0
M  V30 2713 N 267.669 4.09808 -3.84726 0
M  V30 2714 H 259.82 0.680136 -2.01216 0
M  V30 2715 H 262.083 0.362133 -0.876107 0
M  V30 2716 H 261.789 1.87103 -2.97801 0
M  V30 2717 H 261.663 3.25481 -1.90635 0
M  V30 2718 H 264.05 2.75887 -1.0474 0
M  V30 2719 H 264.131 1.38028 -2.15364 0
M  V30 2720 H 263.775 2.96741 -4.12198 0
M  V30 2721 H 263.705 4.33776 -2.98574 0
M  V30 2722 H 266.196 2.86624 -2.46282 0
M  V30 2723 H 266.509 5.4347 -5.49418 0
M  V30 2724 H 264.854 4.89251 -4.93617 0
M  V30 2725 H 268.045 3.4949 -3.11408 0
M  V30 2726 H 268.218 4.66629 -4.49623 0
M  V30 2727 N 261.624 0.925811 1.2754 0
M  V30 2728 C 262.871 0.565255 1.94451 0
M  V30 2729 C 263.199 -0.89316 1.7278 0
M  V30 2730 O 262.454 -1.65213 1.04895 0
M  V30 2731 C 262.753 0.835296 3.47502 0
M  V30 2732 C 262.419 2.27515 3.89291 0
M  V30 2733 C 261.081 2.66879 4.00411 0
M  V30 2734 C 263.433 3.21158 4.10496 0
M  V30 2735 C 260.761 3.99014 4.30122 0
M  V30 2736 C 263.113 4.52871 4.4169 0
M  V30 2737 C 261.777 4.92072 4.51023 0
M  V30 2738 H 261.047 0.206841 0.711546 0
M  V30 2739 H 263.694 1.16942 1.51647 0
M  V30 2740 H 261.999 0.148442 3.91519 0
M  V30 2741 H 263.696 0.535322 3.97411 0
M  V30 2742 H 260.286 1.95976 3.81171 0
M  V30 2743 H 264.47 2.9195 4.01346 0
M  V30 2744 H 259.726 4.2907 4.35556 0
M  V30 2745 H 263.9 5.25436 4.57045 0
M  V30 2746 H 261.527 5.9449 4.738 0
M  V30 2747 N 263.102 -1.41638 0.69111 0
M  V30 2748 C 264.065 -2.29178 0.0319786 0
M  V30 2749 C 265.065 -1.44153 -0.712496 0
M  V30 2750 O 266.255 -1.65354 -0.548053 0
M  V30 2751 C 263.387 -3.26952 -0.965161 0
M  V30 2752 H 264.58 -2.88959 0.802681 0
M  V30 2753 H 262.133 -1.4955 0.454356 0
M  V30 2754 H 262.868 -2.72142 -1.76378 0
M  V30 2755 H 262.653 -3.89685 -0.434522 0
M  V30 2756 H 264.143 -3.92561 -1.42428 0
M  V30 2757 N 264.58 -0.43555 -1.51462 0
M  V30 2758 C 265.829 0.133007 -2.01261 0
M  V30 2759 C 266.142 1.43942 -1.32439 0
M  V30 2760 O 267.348 2.09081 -1.73198 0
M  V30 2761 C 265.804 0.287581 -3.58749 0
M  V30 2762 C 265.412 -1.00829 -4.36506 0
M  V30 2763 C 267.156 0.810004 -4.167 0
M  V30 2764 C 265.063 -0.819454 -5.85695 0
M  V30 2765 H 263.993 0.0534822 -0.752101 0
M  V30 2766 H 266.644 -0.565038 -1.74584 0
M  V30 2767 H 265.026 1.04859 -3.81865 0
M  V30 2768 H 266.2 -1.77749 -4.25138 0
M  V30 2769 H 264.515 -1.45911 -3.89999 0
M  V30 2770 H 267.112 0.967743 -5.2587 0
M  V30 2771 H 267.455 1.79196 -3.75758 0
M  V30 2772 H 267.988 0.107357 -3.97655 0
M  V30 2773 H 264.727 -1.77374 -6.31046 0
M  V30 2774 H 264.247 -0.0900208 -5.99732 0
M  V30 2775 H 265.926 -0.471949 -6.45276 0
M  V30 2776 N 266.058 1.56714 -0.166846 0
M  V30 2777 C 266.968 2.21331 0.777791 0
M  V30 2778 C 267.984 1.20358 1.25658 0
M  V30 2779 O 269.16 1.53005 1.30964 0
M  V30 2780 C 266.225 2.83787 1.99163 0
M  V30 2781 C 265.286 3.99947 1.56016 0
M  V30 2782 C 264.519 4.59415 2.71613 0
M  V30 2783 O 264.742 4.17769 3.88362 0
M  V30 2784 O 263.676 5.49359 2.45945 0
M  V30 2785 H 267.502 3.02605 0.257636 0
M  V30 2786 H 265.087 1.49275 0.0611393 0
M  V30 2787 H 266.969 3.23405 2.70161 0
M  V30 2788 H 265.644 2.05513 2.50092 0
M  V30 2789 H 264.551 3.65007 0.819809 0
M  V30 2790 H 265.884 4.79801 1.09782 0
M  V30 2791 N 267.536 -0.106894 1.57237 0
M  V30 2792 C 268.947 -0.662723 1.74542 0
M  V30 2793 C 269.298 -1.7971 0.787319 0
M  V30 2794 O 268.423 -2.16368 -0.0369636 0
M  V30 2795 C 269.018 -1.20896 3.16496 0
M  V30 2796 C 267.577 -1.71096 3.35266 0
M  V30 2797 C 266.724 -0.615642 2.7038 0
M  V30 2798 H 269.675 0.119106 1.58252 0
M  V30 2799 H 269.696 -2.07847 3.18716 0
M  V30 2800 H 269.208 -0.383122 3.86204 0
M  V30 2801 H 267.309 -2.56119 2.70618 0
M  V30 2802 H 267.422 -1.81208 4.43509 0
M  V30 2803 H 265.786 -1.05222 2.31949 0
M  V30 2804 H 266.569 0.199419 3.4272 0
M  V30 2805 N 269.014 -1.53014 -0.377408 0
M  V30 2806 C 269.961 -1.78616 -1.46168 0
M  V30 2807 C 270.931 -0.629917 -1.53692 0
M  V30 2808 O 272.116 -0.870861 -1.69766 0
M  V30 2809 C 269.256 -1.97123 -2.8326 0
M  V30 2810 C 268.369 -3.24831 -2.84796 0
M  V30 2811 C 267.504 -3.33591 -4.13389 0
M  V30 2812 C 266.543 -4.55377 -4.09021 0
M  V30 2813 N 265.68 -4.61355 -5.29241 0
M  V30 2814 H 270.52 -2.71142 -1.23637 0
M  V30 2815 H 268.057 -1.34326 -0.599577 0
M  V30 2816 H 270.015 -2.05839 -3.62886 0
M  V30 2817 H 268.645 -1.07946 -3.04216 0
M  V30 2818 H 267.697 -3.25128 -1.97474 0
M  V30 2819 H 269.009 -4.14523 -2.77439 0
M  V30 2820 H 268.163 -3.41554 -5.01424 0
M  V30 2821 H 266.902 -2.41894 -4.23484 0
M  V30 2822 H 265.907 -4.47527 -3.19373 0
M  V30 2823 H 267.132 -5.48402 -4.00539 0
M  V30 2824 H 265.078 -3.72554 -5.39944 0
M  V30 2825 H 264.995 -5.44935 -5.24006 0
M  V30 2826 H 266.263 -4.73586 -6.19141 0
M  V30 2827 N 270.492 0.636531 -1.44174 0
M  V30 2828 C 271.903 1.21806 -1.41493 0
M  V30 2829 C 272.254 1.95785 -0.1275 0
M  V30 2830 O 271.379 2.02147 0.772376 0
M  V30 2831 C 271.974 2.21551 -2.56321 0
M  V30 2832 C 270.533 2.75143 -2.56853 0
M  V30 2833 C 269.68 1.50052 -2.33195 0
M  V30 2834 H 272.631 0.427531 -1.52833 0
M  V30 2835 H 272.652 3.0405 -2.28765 0
M  V30 2836 H 272.164 1.67679 -3.50008 0
M  V30 2837 H 270.265 3.33033 -1.67093 0
M  V30 2838 H 270.378 3.2155 -3.55165 0
M  V30 2839 H 268.742 1.77993 -1.82183 0
M  V30 2840 H 269.525 0.980903 -3.28988 0
M  V30 2841 N 271.97 1.30982 0.876444 0
M  V30 2842 C 272.918 1.18006 2.00443 0
M  V30 2843 C 273.912 0.0898871 1.69161 0
M  V30 2844 O 275.118 0.251333 1.78237 0
M  V30 2845 H 271.493 0.365196 0.65737 0
M  V30 2846 H 273.464 2.13453 2.0852 0
M  V30 2847 C 272.213 0.897521 3.35916 0
M  V30 2848 H 271.536 1.7285 3.60504 0
M  V30 2849 H 272.976 0.846874 4.15456 0
M  V30 2850 C 271.435 -0.399674 3.34521 0
M  V30 2851 O 271.965 -1.41852 3.7582 0
M  V30 2852 N 270.171 -0.413893 2.87637 0
M  V30 2853 H 269.718 0.41571 2.54224 0
M  V30 2854 H 269.676 -1.28175 2.87086 0
M  V30 2855 N 273.449 -1.08991 1.13837 0
M  V30 2856 C 274.359 -2.19301 0.833333 0
M  V30 2857 C 275.375 -1.73026 -0.183847 0
M  V30 2858 O 276.551 -2.01395 -0.0138092 0
M  V30 2859 C 273.616 -3.45323 0.308651 0
M  V30 2860 C 272.677 -4.06255 1.38764 0
M  V30 2861 C 271.91 -5.26262 0.887896 0
M  V30 2862 O 272.133 -5.69747 -0.27287 0
M  V30 2863 O 271.067 -5.78435 1.66421 0
M  V30 2864 H 274.893 -2.47854 1.75506 0
M  V30 2865 H 272.478 -1.18012 0.916166 0
M  V30 2866 H 274.36 -4.21394 0.0216739 0
M  V30 2867 H 273.035 -3.18362 -0.585431 0
M  V30 2868 H 271.942 -3.318 1.72799 0
M  V30 2869 H 273.275 -4.37452 2.25602 0
M  V30 2870 N 274.927 -0.932562 -1.27047 0
M  V30 2871 C 276.338 -0.619451 -1.76124 0
M  V30 2872 C 276.689 0.865397 -1.76083 0
M  V30 2873 O 275.814 1.67722 -1.36742 0
M  V30 2874 C 276.409 -1.11771 -3.19832 0
M  V30 2875 C 274.968 -0.855174 -3.66557 0
M  V30 2876 C 274.115 -1.27362 -2.46321 0
M  V30 2877 H 277.066 -1.11181 -1.13245 0
M  V30 2878 H 277.087 -0.46759 -3.77616 0
M  V30 2879 H 276.599 -2.19842 -3.1983 0
M  V30 2880 H 274.7 0.211524 -3.71999 0
M  V30 2881 H 274.813 -1.47613 -4.55793 0
M  V30 2882 H 273.177 -0.692119 -2.45116 0
M  V30 2883 H 273.96 -2.36307 -2.49025 0
M  V30 2884 N 276.405 1.4127 -0.698611 0
M  V30 2885 C 277.821 1.55241 -0.370462 0
M  V30 2886 C 278.021 1.67351 1.12231 0
M  V30 2887 O 277.077 1.65363 1.90818 0
M  V30 2888 C 278.39 2.78997 -1.12165 0
M  V30 2889 C 279.938 2.92797 -1.1063 0
M  V30 2890 C 280.413 4.19445 -1.8393 0
M  V30 2891 N 281.904 4.26409 -1.80914 0
M  V30 2892 C 282.639 5.23271 -2.34467 0
M  V30 2893 N 282.135 6.26145 -2.96504 0
M  V30 2894 N 283.928 5.15232 -2.24706 0
M  V30 2895 H 276.079 1.31654 -1.66676 0
M  V30 2896 H 278.342 0.635393 -0.703548 0
M  V30 2897 H 278.048 2.76268 -2.17644 0
M  V30 2898 H 277.922 3.70606 -0.702209 0
M  V30 2899 H 280.309 2.95039 -0.0597713 0
M  V30 2900 H 280.39 2.02353 -1.56483 0
M  V30 2901 H 280.034 4.17964 -2.88563 0
M  V30 2902 H 279.964 5.08866 -1.35509 0
M  V30 2903 H 282.455 3.527 -1.35687 0
M  V30 2904 H 282.768 6.96451 -3.34927 0
M  V30 2905 H 281.113 6.26638 -3.00583 0
M  V30 2906 H 284.304 4.33789 -1.7591 0
M  V30 2907 H 284.477 5.90552 -2.66745 0
M  V30 2908 N 277.883 0.443576 1.51229 0
M  V30 2909 C 279.131 -0.120557 2.0174 0
M  V30 2910 C 279.452 -1.42665 1.32935 0
M  V30 2911 O 278.722 -1.9028 0.465866 0
M  V30 2912 H 277.302 -0.0475426 0.745486 0
M  V30 2913 H 279.964 0.587711 1.85828 0
M  V30 2914 H 279.06 -0.291972 3.10731 0
M  V30 2915 N 279.361 -1.56624 0.175154 0
M  V30 2916 C 280.638 -1.88688 -0.515373 0
M  V30 2917 C 281.018 -1.08564 -1.81044 0
M  V30 2918 O 280.366 -0.180703 -2.27784 0
M  V30 2919 C 280.576 -3.40768 -0.753552 0
M  V30 2920 C 281.924 -4.10587 -1.08184 0
M  V30 2921 O 282.948 -3.46106 -0.841961 0
M  V30 2922 O 281.807 -5.24512 -1.53459 0
M  V30 2923 H 278.901 -0.78301 -0.26613 0
M  V30 2924 H 281.447 -1.68347 0.213877 0
M  V30 2925 H 280.219 -3.90965 0.161829 0
M  V30 2926 H 279.842 -3.66733 -1.53598 0
M  V30 2927 N 280.839 0.0985539 -1.57292 0
M  V30 2928 C 282.088 0.801358 -1.85098 0
M  V30 2929 C 282.401 1.80066 -0.763902 0
M  V30 2930 O 283.607 2.55112 -0.928981 0
M  V30 2931 C 282.063 1.47599 -3.28242 0
M  V30 2932 C 281.671 0.516624 -4.45011 0
M  V30 2933 C 283.415 2.16272 -3.65276 0
M  V30 2934 C 281.322 1.19564 -5.79188 0
M  V30 2935 H 280.252 0.303022 -0.69043 0
M  V30 2936 H 282.903 0.0542623 -1.8342 0
M  V30 2937 H 281.285 2.27042 -3.2445 0
M  V30 2938 H 282.459 -0.246065 -4.60143 0
M  V30 2939 H 280.774 -0.064227 -4.1635 0
M  V30 2940 H 283.371 2.67802 -4.62803 0
M  V30 2941 H 283.714 2.95009 -2.93727 0
M  V30 2942 H 284.247 1.43693 -3.70941 0
M  V30 2943 H 280.986 0.449157 -6.53959 0
M  V30 2944 H 280.506 1.92984 -5.67906 0
M  V30 2945 H 282.185 1.7231 -6.23633 0
M  V30 2946 N 282.317 1.53212 0.369288 0
M  V30 2947 C 283.247 1.82365 1.45826 0
M  V30 2948 C 284.228 0.676907 1.56051 0
M  V30 2949 O 285.413 0.926401 1.70679 0
M  V30 2950 C 282.543 2.01023 2.83208 0
M  V30 2951 C 281.497 3.1678 2.8781 0
M  V30 2952 C 280.823 3.20724 4.27832 0
M  V30 2953 C 282.123 4.55447 2.55667 0
M  V30 2954 H 283.817 2.73559 1.21678 0
M  V30 2955 H 281.363 1.3163 0.583911 0
M  V30 2956 H 283.316 2.20001 3.59413 0
M  V30 2957 H 282.04 1.06536 3.08736 0
M  V30 2958 H 280.699 2.97616 2.14056 0
M  V30 2959 H 280.347 2.23882 4.50429 0
M  V30 2960 H 280.047 3.98496 4.31827 0
M  V30 2961 H 281.571 3.41881 5.05915 0
M  V30 2962 H 282.985 4.74611 3.21586 0
M  V30 2963 H 281.382 5.35432 2.70984 0
M  V30 2964 H 282.452 4.60812 1.5093 0
M  V30 2965 N 283.795 -0.628877 1.44509 0
M  V30 2966 C 284.725 -1.75187 1.54376 0
M  V30 2967 C 285.706 -1.65411 0.396618 0
M  V30 2968 O 286.891 -1.84137 0.617031 0
M  V30 2969 C 284.021 -3.13725 1.48976 0
M  V30 2970 C 282.975 -3.38291 2.62189 0
M  V30 2971 C 282.301 -4.76883 2.41841 0
M  V30 2972 C 283.601 -3.30632 4.04326 0
M  V30 2973 H 285.295 -1.67187 2.48373 0
M  V30 2974 H 282.841 -0.802909 1.19538 0
M  V30 2975 H 284.794 -3.92064 1.54478 0
M  V30 2976 H 283.518 -3.22515 0.514961 0
M  V30 2977 H 282.177 -2.62334 2.56079 0
M  V30 2978 H 281.825 -4.82378 1.42548 0
M  V30 2979 H 281.525 -4.94278 3.17747 0
M  V30 2980 H 283.049 -5.57449 2.49165 0
M  V30 2981 H 284.463 -3.98873 4.11793 0
M  V30 2982 H 282.86 -3.59561 4.80454 0
M  V30 2983 H 283.93 -2.28404 4.27738 0
M  V30 2984 N 285.273 -1.31445 -0.869486 0
M  V30 2985 C 286.684 -1.19042 -1.43826 0
M  V30 2986 C 287.035 0.202919 -1.95148 0
M  V30 2987 O 286.16 1.10071 -1.86315 0
M  V30 2988 C 286.755 -2.15499 -2.6143 0
M  V30 2989 C 285.314 -2.07028 -3.14351 0
M  V30 2990 C 284.461 -2.04701 -1.87063 0
M  V30 2991 H 287.412 -1.43489 -0.677984 0
M  V30 2992 H 287.433 -1.74488 -3.38134 0
M  V30 2993 H 286.945 -3.16899 -2.24046 0
M  V30 2994 H 285.046 -1.08825 -3.56354 0
M  V30 2995 H 285.159 -2.96157 -3.766 0
M  V30 2996 H 283.523 -1.49724 -2.06046 0
M  V30 2997 H 284.306 -3.07857 -1.51917 0
M  V30 2998 N 286.751 1.08385 -1.14413 0
M  V30 2999 C 287.979 1.84517 -0.936001 0
M  V30 3000 C 288.394 1.81626 0.515503 0
M  V30 3001 O 287.751 1.22008 1.35721 0
M  V30 3002 C 287.802 3.32049 -1.42918 0
M  V30 3003 O 287.523 3.34951 -2.82381 0
M  V30 3004 C 289.024 4.24986 -1.26103 0
M  V30 3005 H 286.244 0.582491 -0.333084 0
M  V30 3006 H 288.788 1.36885 -1.5193 0
M  V30 3007 H 286.943 3.7707 -0.888641 0
M  V30 3008 H 287.357 4.27048 -3.04517 0
M  V30 3009 H 288.831 5.26615 -1.6547 0
M  V30 3010 H 289.308 4.38726 -0.20392 0
M  V30 3011 H 289.914 3.85791 -1.79012 0
M  V30 3012 N 288.23 0.939286 1.26551 0
M  V30 3013 C 289.193 0.451987 2.24699 0
M  V30 3014 C 290.193 -0.435869 1.5478 0
M  V30 3015 O 291.383 -0.235314 1.72603 0
M  V30 3016 C 288.515 -0.348801 3.39111 0
M  V30 3017 H 289.708 1.3193 2.69322 0
M  V30 3018 H 287.261 0.721072 1.38673 0
M  V30 3019 H 287.996 -1.23444 2.99887 0
M  V30 3020 H 287.781 0.287945 3.91041 0
M  V30 3021 H 289.271 -0.679726 4.12031 0
M  V30 3022 N 289.708 -1.40897 0.706093 0
M  V30 3023 C 290.956 -2.00657 0.241054 0
M  V30 3024 C 291.277 -1.56241 -1.16678 0
M  V30 3025 O 290.547 -0.79765 -1.78926 0
M  V30 3026 H 289.127 -0.742018 0.0861308 0
M  V30 3027 H 291.789 -1.72372 0.909604 0
M  V30 3028 H 290.885 -3.10958 0.266705 0
M  V30 3029 N 291.186 -0.45159 -1.50991 0
M  V30 3030 C 292.136 0.370861 -2.24964 0
M  V30 3031 C 293.12 0.978074 -1.2776 0
M  V30 3032 O 294.312 0.893854 -1.52772 0
M  V30 3033 C 291.441 1.46344 -3.10545 0
M  V30 3034 C 290.527 0.864924 -4.15187 0
M  V30 3035 N 290.918 -0.00311354 -5.058 0
M  V30 3036 C 289.216 1.13099 -4.31422 0
M  V30 3037 C 289.917 -0.340772 -5.80701 0
M  V30 3038 N 288.893 0.279203 -5.42883 0
M  V30 3039 H 292.695 -0.298134 -2.92384 0
M  V30 3040 H 290.209 -0.264528 -1.60231 0
M  V30 3041 H 292.206 2.06565 -3.62128 0
M  V30 3042 H 290.866 2.13463 -2.4467 0
M  V30 3043 H 291.877 -0.37058 -5.16572 0
M  V30 3044 H 288.554 1.79861 -3.76771 0
M  V30 3045 H 289.944 -1.048 -6.63677 0
M  V30 3046 N 292.664 1.56529 -0.183458 0
M  V30 3047 C 293.627 2.17324 0.728223 0
M  V30 3048 C 294.627 1.12453 1.14939 0
M  V30 3049 O 295.817 1.37902 1.06437 0
M  V30 3050 C 292.949 2.76591 1.99274 0
M  V30 3051 H 294.142 2.99241 0.198772 0
M  V30 3052 H 291.695 1.5616 0.0661391 0
M  V30 3053 H 292.43 1.98441 2.56499 0
M  V30 3054 H 292.215 3.5335 1.69959 0
M  V30 3055 H 293.705 3.23311 2.6431 0
M  V30 3056 N 294.142 -0.090211 1.57342 0
M  V30 3057 C 295.391 -0.791531 1.8552 0
M  V30 3058 C 295.704 -1.79659 0.773441 0
M  V30 3059 O 296.91 -2.54616 0.942497 0
M  V30 3060 C 295.366 -1.45856 3.2902 0
M  V30 3061 C 294.974 -0.493017 4.45279 0
M  V30 3062 C 296.718 -2.14332 3.66418 0
M  V30 3063 C 294.625 -1.16491 5.79814 0
M  V30 3064 H 293.555 -0.299356 0.692027 0
M  V30 3065 H 296.206 -0.0445343 1.83446 0
M  V30 3066 H 294.588 -2.25318 3.2565 0
M  V30 3067 H 295.762 0.270464 4.60006 0
M  V30 3068 H 294.077 0.0863061 4.16311 0
M  V30 3069 H 296.674 -2.65344 4.64216 0
M  V30 3070 H 297.017 -2.93447 2.95287 0
M  V30 3071 H 297.55 -1.41724 3.71698 0
M  V30 3072 H 294.289 -0.41447 6.54188 0
M  V30 3073 H 293.809 -1.8997 5.68921 0
M  V30 3074 H 295.488 -1.69001 6.24538 0
M  V30 3075 N 295.62 -1.53406 -0.361157 0
M  V30 3076 C 296.583 -1.79479 -1.42548 0
M  V30 3077 C 297.583 -0.665327 -1.4639 0
M  V30 3078 O 298.773 -0.933549 -1.47073 0
M  V30 3079 C 295.905 -1.92087 -2.8163 0
M  V30 3080 H 297.098 -2.74538 -1.20701 0
M  V30 3081 H 294.651 -1.4455 -0.594546 0
M  V30 3082 H 295.386 -0.991099 -3.08784 0
M  V30 3083 H 295.171 -2.74241 -2.80239 0
M  V30 3084 H 296.661 -2.13836 -3.58697 0
M  V30 3085 N 297.098 0.621204 -1.44841 0
M  V30 3086 C 298.345 1.38055 -1.48145 0
M  V30 3087 C 298.673 1.94143 -0.117867 0
M  V30 3088 O 297.928 1.74713 0.881694 0
M  V30 3089 C 298.227 2.55675 -2.4973 0
M  V30 3090 C 297.893 2.17817 -3.94799 0
M  V30 3091 C 296.555 2.07205 -4.34303 0
M  V30 3092 C 298.907 1.88065 -4.86087 0
M  V30 3093 C 296.235 1.65045 -5.63007 0
M  V30 3094 C 298.587 1.47394 -6.15189 0
M  V30 3095 C 297.251 1.35331 -6.53637 0
M  V30 3096 H 296.521 0.505181 -0.542101 0
M  V30 3097 H 299.168 0.703477 -1.78111 0
M  V30 3098 H 297.473 3.2866 -2.13284 0
M  V30 3099 H 299.17 3.13904 -2.4953 0
M  V30 3100 H 295.76 2.26998 -3.63552 0
M  V30 3101 H 299.944 1.95168 -4.56315 0
M  V30 3102 H 295.2 1.54317 -5.91605 0
M  V30 3103 H 299.374 1.23415 -6.85377 0
M  V30 3104 H 297.001 1.02435 -7.53267 0
M  V30 3105 N 298.576 1.31904 0.862503 0
M  V30 3106 C 299.822 1.22197 1.61851 0
M  V30 3107 C 300.155 -0.217641 1.92977 0
M  V30 3108 O 299.43 -1.15264 1.56666 0
M  V30 3109 C 299.713 2.07378 2.94391 0
M  V30 3110 C 299.566 3.59678 2.70096 0
M  V30 3111 C 300.885 1.92891 3.95577 0
M  V30 3112 H 298.004 0.445255 0.587296 0
M  V30 3113 H 300.646 1.6177 0.99651 0
M  V30 3114 H 298.796 1.73758 3.47477 0
M  V30 3115 H 300.468 4.03472 2.23625 0
M  V30 3116 H 298.711 3.82735 2.04197 0
M  V30 3117 H 299.382 4.14595 3.64438 0
M  V30 3118 H 301.858 2.22327 3.51724 0
M  V30 3119 H 300.734 2.54781 4.86187 0
M  V30 3120 H 300.995 0.894315 4.3296 0
M  V30 3121 N 300.054 -1.07777 1.14986 0
M  V30 3122 C 300.986 -2.14769 0.800436 0
M  V30 3123 C 301.999 -1.61739 -0.185595 0
M  V30 3124 O 303.188 -1.78462 0.0370358 0
M  V30 3125 C 300.288 -3.38481 0.168533 0
M  V30 3126 C 299.461 -4.20876 1.1909 0
M  V30 3127 C 298.52 -5.22976 0.581575 0
M  V30 3128 O 297.546 -5.55388 1.24633 0
M  V30 3129 N 298.748 -5.76976 -0.638706 0
M  V30 3130 H 301.513 -2.45348 1.72118 0
M  V30 3131 H 299.074 -1.23645 1.04515 0
M  V30 3132 H 301.066 -4.03916 -0.251764 0
M  V30 3133 H 299.636 -3.05651 -0.655467 0
M  V30 3134 H 298.856 -3.51322 1.78791 0
M  V30 3135 H 300.144 -4.7274 1.88133 0
M  V30 3136 H 299.542 -5.52886 -1.19723 0
M  V30 3137 H 298.099 -6.44061 -1.00142 0
M  V30 3138 N 301.532 -0.945985 -1.26051 0
M  V30 3139 C 302.442 -0.465633 -2.29933 0
M  V30 3140 C 303.458 0.462761 -1.67733 0
M  V30 3141 O 304.634 0.341118 -1.9849 0
M  V30 3142 C 301.699 0.256994 -3.45746 0
M  V30 3143 C 300.76 -0.708549 -4.23412 0
M  V30 3144 C 299.993 -0.0203135 -5.33696 0
M  V30 3145 O 300.216 1.19571 -5.57726 0
M  V30 3146 O 299.15 -0.701459 -5.97799 0
M  V30 3147 H 302.976 -1.32866 -2.73094 0
M  V30 3148 H 300.561 -0.712071 -1.31339 0
M  V30 3149 H 302.443 0.663852 -4.16138 0
M  V30 3150 H 301.118 1.09533 -3.04605 0
M  V30 3151 H 300.025 -1.16545 -3.55483 0
M  V30 3152 H 301.358 -1.51465 -4.68315 0
M  V30 3153 N 303.011 1.40521 -0.713556 0
M  V30 3154 C 303.941 2.33381 -0.0743864 0
M  V30 3155 C 304.922 1.52784 0.747735 0
M  V30 3156 O 306.107 1.81258 0.697071 0
M  V30 3157 C 303.237 3.36748 0.849598 0
M  V30 3158 C 302.191 4.27793 0.133247 0
M  V30 3159 C 301.517 5.21679 1.17281 0
M  V30 3160 C 302.817 5.12415 -1.01134 0
M  V30 3161 H 304.511 2.87081 -0.850007 0
M  V30 3162 H 302.057 1.38034 -0.410201 0
M  V30 3163 H 304.01 4.00648 1.30612 0
M  V30 3164 H 302.734 2.81439 1.65709 0
M  V30 3165 H 301.393 3.65342 -0.303426 0
M  V30 3166 H 301.041 4.62677 1.9733 0
M  V30 3167 H 300.741 5.83435 0.698397 0
M  V30 3168 H 302.265 5.88456 1.62947 0
M  V30 3169 H 303.679 5.69781 -0.634274 0
M  V30 3170 H 302.076 5.83203 -1.41399 0
M  V30 3171 H 303.146 4.48514 -1.84292 0
M  V30 3172 N 304.489 0.459591 1.5075 0
M  V30 3173 C 305.399 -0.34613 2.32033 0
M  V30 3174 C 306.415 -1.00686 1.41909 0
M  V30 3175 O 307.591 -0.997361 1.7497 0
M  V30 3176 C 304.656 -1.42029 3.16273 0
M  V30 3177 C 303.717 -0.777362 4.22203 0
M  V30 3178 C 302.95 -1.80034 5.02418 0
M  V30 3179 O 303.173 -3.02544 4.83553 0
M  V30 3180 O 302.107 -1.37853 5.85901 0
M  V30 3181 H 305.933 0.318054 3.0203 0
M  V30 3182 H 303.518 0.221663 1.47746 0
M  V30 3183 H 305.4 -2.04275 3.68578 0
M  V30 3184 H 304.075 -2.06815 2.49016 0
M  V30 3185 H 302.982 -0.116256 3.73919 0
M  V30 3186 H 304.315 -0.172634 4.91897 0
M  V30 3187 N 305.967 -1.56429 0.191757 0
M  V30 3188 C 307.383 -1.58754 -0.164137 0
M  V30 3189 C 307.583 -1.20782 -1.61288 0
M  V30 3190 O 306.639 -0.928999 -2.34789 0
M  V30 3191 C 307.952 -3.00396 0.135195 0
M  V30 3192 C 309.5 -3.1291 0.0750351 0
M  V30 3193 C 309.975 -4.56679 0.347632 0
M  V30 3194 N 311.466 -4.62252 0.296131 0
M  V30 3195 C 312.201 -5.71379 0.480948 0
M  V30 3196 N 311.697 -6.88986 0.725933 0
M  V30 3197 N 313.49 -5.60563 0.415435 0
M  V30 3198 H 305.641 -1.79393 1.13718 0
M  V30 3199 H 307.904 -0.832414 0.453643 0
M  V30 3200 H 307.61 -3.32726 1.13958 0
M  V30 3201 H 307.484 -3.72963 -0.563773 0
M  V30 3202 H 309.871 -2.80394 -0.919948 0
M  V30 3203 H 309.952 -2.42736 0.807029 0
M  V30 3204 H 309.596 -4.89907 1.33992 0
M  V30 3205 H 309.526 -5.25039 -0.405212 0
M  V30 3206 H 312.017 -3.7773 0.113259 0
M  V30 3207 H 312.33 -7.68046 0.855857 0
M  V30 3208 H 310.675 -6.90801 0.762788 0
M  V30 3209 H 313.866 -4.67561 0.224486 0
M  V30 3210 H 314.039 -6.45551 0.562889 0
M  V30 3211 N 307.445 0.0818655 -1.57387 0
M  V30 3212 C 308.856 0.634871 -1.75574 0
M  V30 3213 C 309.207 1.78435 -0.815809 0
M  V30 3214 O 308.332 2.164 0.0025366 0
M  V30 3215 C 308.927 1.15845 -3.18379 0
M  V30 3216 C 307.486 1.65741 -3.37945 0
M  V30 3217 C 306.633 0.572549 -2.71325 0
M  V30 3218 H 309.584 -0.144268 -1.58043 0
M  V30 3219 H 309.605 2.02751 -3.21982 0
M  V30 3220 H 309.117 0.321631 -3.86765 0
M  V30 3221 H 307.218 2.51781 -2.74658 0
M  V30 3222 H 307.331 1.74129 -4.46336 0
M  V30 3223 H 305.695 1.01518 -2.33594 0
M  V30 3224 H 306.478 -0.253918 -3.4236 0
M  V30 3225 N 308.923 1.53595 0.353017 0
M  V30 3226 C 309.833 1.83897 1.45667 0
M  V30 3227 C 310.849 0.728334 1.58023 0
M  V30 3228 O 312.025 1.01968 1.73679 0
M  V30 3229 C 309.09 2.03383 2.80778 0
M  V30 3230 C 308.151 3.27262 2.77845 0
M  V30 3231 C 307.384 3.45809 4.06512 0
M  V30 3232 O 307.607 2.68387 5.03314 0
M  V30 3233 O 306.541 4.39207 4.11559 0
M  V30 3234 H 310.367 2.77686 1.2298 0
M  V30 3235 H 307.952 1.39132 0.544308 0
M  V30 3236 H 309.834 2.17698 3.60812 0
M  V30 3237 H 308.509 1.12783 3.03417 0
M  V30 3238 H 307.416 3.18359 1.96465 0
M  V30 3239 H 308.749 4.17824 2.60161 0
M  V30 3240 N 310.401 -0.613514 1.45168 0
M  V30 3241 C 311.331 -1.7354 1.56225 0
M  V30 3242 C 312.312 -1.64981 0.41414 0
M  V30 3243 O 313.497 -1.83472 0.636526 0
M  V30 3244 C 310.627 -3.12128 1.52295 0
M  V30 3245 C 309.581 -3.35491 2.65762 0
M  V30 3246 C 308.907 -4.74291 2.46885 0
M  V30 3247 C 310.207 -3.26325 4.0781 0
M  V30 3248 H 311.901 -1.64543 2.50132 0
M  V30 3249 H 309.447 -0.790185 1.20383 0
M  V30 3250 H 311.4 -3.90404 1.58628 0
M  V30 3251 H 310.124 -3.2195 0.549139 0
M  V30 3252 H 308.783 -2.59603 2.58847 0
M  V30 3253 H 308.431 -4.80839 1.47657 0
M  V30 3254 H 308.131 -4.9088 3.22972 0
M  V30 3255 H 309.655 -5.54775 2.55063 0
M  V30 3256 H 311.069 -3.94483 4.16 0
M  V30 3257 H 309.466 -3.54445 4.8424 0
M  V30 3258 H 310.536 -2.23855 4.30136 0
M  V30 3259 N 311.879 -1.3236 -0.855495 0
M  V30 3260 C 313.126 -1.22872 -1.60962 0
M  V30 3261 C 313.454 0.209658 -1.93367 0
M  V30 3262 O 312.709 1.16243 -1.57436 0
M  V30 3263 C 313.008 -2.03275 -2.93963 0
M  V30 3264 C 312.674 -3.5264 -2.80991 0
M  V30 3265 C 311.336 -3.93364 -2.7716 0
M  V30 3266 C 313.688 -4.47626 -2.66983 0
M  V30 3267 C 311.016 -5.27319 -2.572 0
M  V30 3268 C 313.368 -5.81723 -2.48558 0
M  V30 3269 C 312.032 -6.2165 -2.4312 0
M  V30 3270 H 311.302 -0.44962 -0.589001 0
M  V30 3271 H 313.949 -1.63777 -0.992442 0
M  V30 3272 H 312.254 -1.55095 -3.59795 0
M  V30 3273 H 313.951 -1.93303 -3.51333 0
M  V30 3274 H 310.541 -3.20295 -2.84797 0
M  V30 3275 H 314.725 -4.17084 -2.68988 0
M  V30 3276 H 309.981 -5.57311 -2.51424 0
M  V30 3277 H 314.155 -6.5494 -2.36699 0
M  V30 3278 H 311.782 -7.25388 -2.27412 0
M  V30 3279 N 313.357 1.07166 -1.15556 0
M  V30 3280 C 314.605 1.79443 -0.929764 0
M  V30 3281 C 314.926 1.87246 0.544414 0
M  V30 3282 O 314.196 1.37473 1.39564 0
M  V30 3283 H 312.776 0.664625 -0.341003 0
M  V30 3284 H 315.438 1.29499 -1.45657 0
M  V30 3285 H 314.534 2.81832 -1.34079 0
M  V30 3286 N 314.835 0.952656 1.25548 0
M  V30 3287 C 316.084 0.602053 1.92505 0
M  V30 3288 C 316.397 -0.864663 1.75451 0
M  V30 3289 O 317.603 -1.32514 2.36965 0
M  V30 3290 C 316.059 1.02607 3.44963 0
M  V30 3291 C 315.667 2.51519 3.70732 0
M  V30 3292 C 317.411 0.747905 4.1786 0
M  V30 3293 C 315.318 2.87732 5.16686 0
M  V30 3294 H 314.248 0.22146 0.720744 0
M  V30 3295 H 316.899 1.15684 1.42441 0
M  V30 3296 H 315.281 0.399712 3.93978 0
M  V30 3297 H 316.455 3.19157 3.32378 0
M  V30 3298 H 314.77 2.76786 3.11092 0
M  V30 3299 H 317.367 0.994647 5.25367 0
M  V30 3300 H 317.71 -0.315629 4.15102 0
M  V30 3301 H 318.243 1.33452 3.74747 0
M  V30 3302 H 314.982 3.93095 5.24554 0
M  V30 3303 H 314.502 2.24765 5.56094 0
M  V30 3304 H 316.181 2.76817 5.84792 0
M  V30 3305 N 316.313 -1.40141 0.720998 0
M  V30 3306 C 317.261 -2.3252 0.0608547 0
M  V30 3307 C 318.255 -1.52326 -0.741152 0
M  V30 3308 O 319.461 -1.68089 -0.643911 0
M  V30 3309 H 315.836 -0.751999 0.000876664 0
M  V30 3310 H 317.807 -2.8584 0.856614 0
M  V30 3311 C 316.556 -3.37331 -0.842809 0
M  V30 3312 H 315.879 -3.99108 -0.235084 0
M  V30 3313 H 317.319 -4.04452 -1.27257 0
M  V30 3314 C 315.778 -2.73246 -1.97074 0
M  V30 3315 O 316.308 -2.59998 -3.06209 0
M  V30 3316 N 314.514 -2.31547 -1.75597 0
M  V30 3317 H 314.061 -2.42522 -0.868368 0
M  V30 3318 H 314.019 -1.89007 -2.51244 0
M  V30 3319 N 317.792 -0.46758 -1.50504 0
M  V30 3320 C 319.203 -0.0116166 -1.86696 0
M  V30 3321 C 319.554 1.39202 -1.38265 0
M  V30 3322 O 318.679 2.0313 -0.746132 0
M  V30 3323 C 319.274 -0.0143044 -3.38797 0
M  V30 3324 C 317.833 0.386175 -3.74414 0
M  V30 3325 C 316.98 -0.401287 -2.74381 0
M  V30 3326 H 319.931 -0.682022 -1.43297 0
M  V30 3327 H 319.952 0.788641 -3.72237 0
M  V30 3328 H 319.464 -1.03602 -3.74016 0
M  V30 3329 H 317.565 1.41237 -3.44794 0
M  V30 3330 H 317.678 0.0899596 -4.79016 0
M  V30 3331 H 316.042 0.144536 -2.5429 0
M  V30 3332 H 316.825 -1.42244 -3.12444 0
M  V30 3333 N 319.27 1.56325 -0.20005 0
M  V30 3334 C 320.18 2.22931 0.730668 0
M  V30 3335 C 321.196 1.22997 1.23076 0
M  V30 3336 O 322.372 1.55748 1.27689 0
M  V30 3337 C 319.437 2.87948 1.93098 0
M  V30 3338 C 318.498 4.03166 1.47497 0
M  V30 3339 C 317.731 4.65073 2.61807 0
M  V30 3340 O 317.954 4.25913 3.79413 0
M  V30 3341 O 316.888 5.54452 2.34237 0
M  V30 3342 H 320.714 3.03084 0.193391 0
M  V30 3343 H 318.299 1.49371 0.0294621 0
M  V30 3344 H 320.181 3.29063 2.6324 0
M  V30 3345 H 318.856 2.10771 2.45677 0
M  V30 3346 H 317.763 3.66664 0.742201 0
M  V30 3347 H 319.096 4.82022 0.995796 0
M  V30 3348 N 320.748 -0.0735177 1.57428 0
M  V30 3349 C 321.976 -0.785969 1.9139 0
M  V30 3350 C 322.391 -1.71207 0.795847 0
M  V30 3351 O 321.748 -1.81033 -0.230915 0
M  V30 3352 C 321.799 -1.58107 3.25091 0
M  V30 3353 O 321.52 -0.6922 4.32597 0
M  V30 3354 C 323.021 -2.39467 3.73055 0
M  V30 3355 H 320.241 -0.223558 0.632663 0
M  V30 3356 H 322.785 -0.044302 2.04452 0
M  V30 3357 H 320.94 -2.27503 3.13562 0
M  V30 3358 H 321.354 -1.24504 5.09508 0
M  V30 3359 H 322.828 -2.90716 4.69242 0
M  V30 3360 H 323.305 -3.18913 3.01979 0
M  V30 3361 H 323.911 -1.7523 3.87523 0
M  V30 3362 N 322.226 -1.5378 -0.344866 0
M  V30 3363 C 323.474 -1.70625 -1.08311 0
M  V30 3364 C 323.795 -0.471447 -1.89215 0
M  V30 3365 O 323.065 0.514616 -1.8902 0
M  V30 3366 H 321.645 -0.629058 -0.402859 0
M  V30 3367 H 324.307 -1.9103 -0.386459 0
M  V30 3368 H 323.403 -2.57656 -1.76124 0
M  V30 3369 N 323.704 0.605807 -1.45491 0
M  V30 3370 C 324.654 1.71074 -1.50724 0
M  V30 3371 C 325.638 1.5658 -0.37033 0
M  V30 3372 O 326.83 1.65887 -0.617299 0
M  V30 3373 C 323.959 3.0983 -1.47852 0
M  V30 3374 C 323.045 3.29704 -2.66751 0
M  V30 3375 N 323.436 3.19831 -3.91844 0
M  V30 3376 C 321.734 3.60579 -2.62486 0
M  V30 3377 C 322.435 3.41083 -4.71208 0
M  V30 3378 N 321.411 3.65157 -4.02693 0
M  V30 3379 H 325.213 1.61937 -2.45263 0
M  V30 3380 H 322.727 0.80912 -1.40808 0
M  V30 3381 H 324.724 3.89101 -1.49686 0
M  V30 3382 H 323.384 3.20115 -0.543714 0
M  V30 3383 H 324.395 2.98194 -4.23439 0
M  V30 3384 H 321.072 3.7769 -1.77922 0
M  V30 3385 H 322.462 3.38828 -5.80211 0
M  V30 3386 N 325.182 1.32811 0.848464 0
M  V30 3387 C 326.092 1.24278 1.98978 0
M  V30 3388 C 327.108 0.155176 1.73307 0
M  V30 3389 O 328.284 0.376999 1.9784 0
M  V30 3390 C 325.349 0.972444 3.32783 0
M  V30 3391 C 324.41 2.14911 3.71634 0
M  V30 3392 C 323.643 1.89157 4.99054 0
M  V30 3393 O 323.866 0.837165 5.64223 0
M  V30 3394 O 322.8 2.75433 5.35183 0
M  V30 3395 H 326.626 2.20238 2.09115 0
M  V30 3396 H 324.211 1.12762 0.980052 0
M  V30 3397 H 326.093 0.838432 4.12975 0
M  V30 3398 H 324.768 0.043051 3.23671 0
M  V30 3399 H 323.675 2.33862 2.91992 0
M  V30 3400 H 325.008 3.06151 3.85399 0
M  V30 3401 N 326.66 -1.06551 1.16123 0
M  V30 3402 C 327.592 -2.13908 0.823171 0
M  V30 3403 C 328.605 -1.61926 -0.16843 0
M  V30 3404 O 329.794 -1.78412 0.055962 0
M  V30 3405 C 326.894 -3.38283 0.204424 0
M  V30 3406 C 326.067 -4.19589 1.23548 0
M  V30 3407 C 325.126 -5.2233 0.637011 0
M  V30 3408 O 324.152 -5.54034 1.30516 0
M  V30 3409 N 325.354 -5.77621 -0.577474 0
M  V30 3410 H 328.119 -2.43508 1.74711 0
M  V30 3411 H 325.68 -1.2253 1.05821 0
M  V30 3412 H 327.672 -4.0416 -0.208909 0
M  V30 3413 H 326.242 -3.06329 -0.623012 0
M  V30 3414 H 325.462 -3.49406 1.82507 0
M  V30 3415 H 326.75 -4.70718 1.93137 0
M  V30 3416 H 326.148 -5.54125 -1.13853 0
M  V30 3417 H 324.705 -6.45087 -0.933053 0
M  V30 3418 N 328.138 -0.959301 -1.25041 0
M  V30 3419 C 329.071 -0.427418 -2.24161 0
M  V30 3420 C 330.049 0.493837 -1.54919 0
M  V30 3421 O 331.233 0.427144 -1.83597 0
M  V30 3422 C 328.36 0.383893 -3.36517 0
M  V30 3423 C 327.406 -0.478431 -4.23808 0
M  V30 3424 S 328.239 -1.91353 -5.00144 0
M  V30 3425 C 329.395 -1.11077 -6.15965 0
M  V30 3426 H 329.628 -1.26743 -2.6893 0
M  V30 3427 H 327.161 -0.763714 -1.34189 0
M  V30 3428 H 329.119 0.846039 -4.01687 0
M  V30 3429 H 327.78 1.19878 -2.90324 0
M  V30 3430 H 326.973 0.14406 -5.03794 0
M  V30 3431 H 326.575 -0.87597 -3.63597 0
M  V30 3432 H 328.867 -0.361699 -6.76534 0
M  V30 3433 H 329.81 -1.88472 -6.82557 0
M  V30 3434 H 330.218 -0.638843 -5.60873 0
M  V30 3435 N 329.616 1.39756 -0.72842 0
M  V30 3436 C 330.841 2.05472 -0.282159 0
M  V30 3437 C 331.266 1.54549 1.07221 0
M  V30 3438 O 330.624 0.686372 1.67805 0
M  V30 3439 C 330.672 3.59462 -0.286264 0
M  V30 3440 O 329.776 4.05918 0.728298 0
M  V30 3441 H 329.117 0.651226 -0.129618 0
M  V30 3442 H 331.647 1.78915 -0.992499 0
M  V30 3443 H 331.657 4.07798 -0.128373 0
M  V30 3444 H 330.332 3.95889 -1.27456 0
M  V30 3445 H 328.909 3.69012 0.537081 0
M  V30 3446 N 331.094 0.475555 1.50254 0
M  V30 3447 C 332.042 -0.330276 2.30243 0
M  V30 3448 C 333.036 -0.986306 1.37726 0
M  V30 3449 O 334.242 -0.9169 1.54897 0
M  V30 3450 H 330.617 -0.125353 0.741479 0
M  V30 3451 H 332.588 0.364702 2.96163 0
M  V30 3452 C 331.337 -1.39704 3.18399 0
M  V30 3453 H 330.66 -0.901621 3.89501 0
M  V30 3454 H 332.1 -1.93336 3.77355 0
M  V30 3455 C 330.559 -2.4014 2.36293 0
M  V30 3456 O 331.089 -3.45504 2.04914 0
M  V30 3457 N 329.295 -2.1197 1.98789 0
M  V30 3458 H 328.842 -1.2631 2.24507 0
M  V30 3459 H 328.8 -2.79403 1.44157 0
M  V30 3460 N 332.573 -1.56217 0.208337 0
M  V30 3461 C 333.503 -2.22694 -0.702116 0
M  V30 3462 C 334.484 -1.19432 -1.2112 0
M  V30 3463 O 335.669 -1.47978 -1.25762 0
M  V30 3464 C 332.799 -2.8966 -1.9161 0
M  V30 3465 C 331.753 -3.9928 -1.5414 0
M  V30 3466 C 331.079 -4.53476 -2.83308 0
M  V30 3467 C 332.379 -5.17012 -0.741339 0
M  V30 3468 H 334.073 -2.99034 -0.147898 0
M  V30 3469 H 331.619 -1.43831 -0.0696951 0
M  V30 3470 H 333.572 -3.34852 -2.55836 0
M  V30 3471 H 332.296 -2.10746 -2.49507 0
M  V30 3472 H 330.955 -3.54799 -0.922668 0
M  V30 3473 H 330.603 -3.71308 -3.39322 0
M  V30 3474 H 330.303 -5.27451 -2.58976 0
M  V30 3475 H 331.827 -5.01378 -3.485 0
M  V30 3476 H 333.241 -5.58667 -1.28699 0
M  V30 3477 H 331.638 -5.97137 -0.595627 0
M  V30 3478 H 332.708 -4.8423 0.254851 0
M  V30 3479 N 334.051 0.0651679 -1.57465 0
M  V30 3480 C 334.999 1.09542 -2.05191 0
M  V30 3481 C 335.993 1.39675 -0.958509 0
M  V30 3482 O 337.199 1.39003 -1.14359 0
M  V30 3483 H 333.574 0.370623 -0.654326 0
M  V30 3484 H 335.545 0.666802 -2.90854 0
M  V30 3485 C 334.294 2.39881 -2.51699 0
M  V30 3486 H 333.617 2.17547 -3.3543 0
M  V30 3487 H 335.057 3.104 -2.88839 0
M  V30 3488 C 333.516 3.0631 -1.40271 0
M  V30 3489 O 334.046 3.94664 -0.748523 0
M  V30 3490 N 332.252 2.67041 -1.14618 0
M  V30 3491 H 331.799 1.95281 -1.67997 0
M  V30 3492 H 331.757 3.1181 -0.402688 0
M  V30 3493 N 335.529 1.53961 0.336706 0
M  V30 3494 C 336.776 1.71536 1.07618 0
M  V30 3495 C 337.104 0.482125 1.8843 0
M  V30 3496 O 336.359 -0.536142 1.88213 0
M  V30 3497 C 336.658 2.93493 2.03953 0
M  V30 3498 C 336.324 4.28811 1.39399 0
M  V30 3499 C 334.986 4.65602 1.21523 0
M  V30 3500 C 337.338 5.12844 0.929541 0
M  V30 3501 C 334.666 5.84037 0.558312 0
M  V30 3502 C 337.018 6.31951 0.286505 0
M  V30 3503 C 335.682 6.67432 0.0954869 0
M  V30 3504 H 334.952 0.627696 0.393801 0
M  V30 3505 H 337.599 1.88186 0.354715 0
M  V30 3506 H 335.904 2.71475 2.82504 0
M  V30 3507 H 337.601 3.04285 2.61174 0
M  V30 3508 H 334.191 3.99858 1.54311 0
M  V30 3509 H 338.375 4.84947 1.05548 0
M  V30 3510 H 333.631 6.10097 0.398995 0
M  V30 3511 H 337.805 6.96352 -0.0814376 0
M  V30 3512 H 335.432 7.59063 -0.415579 0
M  V30 3513 N 337.007 -0.598083 1.45811 0
M  V30 3514 C 338.235 -1.38322 1.53866 0
M  V30 3515 C 338.65 -1.87992 0.174479 0
M  V30 3516 O 338.007 -1.62756 -0.825627 0
M  V30 3517 C 338.058 -2.58125 2.53089 0
M  V30 3518 O 337.779 -2.10516 3.84206 0
M  V30 3519 C 339.28 -3.50869 2.70935 0
M  V30 3520 H 336.5 -0.423093 0.520801 0
M  V30 3521 H 339.044 -0.728527 1.91083 0
M  V30 3522 H 337.199 -3.19615 2.18917 0
M  V30 3523 H 337.613 -2.88425 4.38077 0
M  V30 3524 H 339.087 -4.31451 3.44317 0
M  V30 3525 H 339.564 -4.01822 1.77301 0
M  V30 3526 H 340.17 -2.95225 3.06141 0
M  V30 3527 N 338.485 -1.33259 -0.841409 0
M  V30 3528 C 339.417 -1.19136 -1.95804 0
M  V30 3529 C 340.43 -0.122965 -1.62335 0
M  V30 3530 O 341.619 -0.373154 -1.74556 0
M  V30 3531 C 338.719 -0.804268 -3.29218 0
M  V30 3532 C 337.892 -1.96376 -3.90839 0
M  V30 3533 C 336.951 -1.55806 -5.02604 0
M  V30 3534 O 335.977 -2.27203 -5.21888 0
M  V30 3535 N 337.179 -0.461609 -5.78662 0
M  V30 3536 H 339.944 -2.15326 -2.08458 0
M  V30 3537 H 337.505 -1.25971 -1.017 0
M  V30 3538 H 339.497 -0.51501 -4.0141 0
M  V30 3539 H 338.067 0.0668809 -3.12528 0
M  V30 3540 H 337.287 -2.41879 -3.11269 0
M  V30 3541 H 338.575 -2.73966 -4.28742 0
M  V30 3542 H 337.973 0.132343 -5.65545 0
M  V30 3543 H 336.53 -0.232013 -6.51387 0
M  V30 3544 N 339.963 1.05934 -1.16686 0
M  V30 3545 C 341.211 1.78447 -0.948744 0
M  V30 3546 C 341.532 1.87813 0.524523 0
M  V30 3547 O 340.802 1.38945 1.38098 0
M  V30 3548 H 339.382 0.660971 -0.348033 0
M  V30 3549 H 342.044 1.27947 -1.47022 0
M  V30 3550 H 341.14 2.80394 -1.37061 0
M  V30 3551 N 341.441 0.965919 1.2453 0
M  V30 3552 C 342.69 0.622437 1.91856 0
M  V30 3553 C 343.003 -0.846006 1.76358 0
M  V30 3554 O 344.209 -1.29993 2.38357 0
M  V30 3555 C 342.665 1.0626 3.43856 0
M  V30 3556 C 342.273 2.55437 3.68043 0
M  V30 3557 C 344.017 0.792183 4.17043 0
M  V30 3558 C 341.924 2.93196 5.13605 0
M  V30 3559 H 340.854 0.229092 0.718354 0
M  V30 3560 H 343.505 1.17189 1.41206 0
M  V30 3561 H 341.887 0.441476 3.93531 0
M  V30 3562 H 343.061 3.22665 3.28974 0
M  V30 3563 H 341.376 2.8007 3.08139 0
M  V30 3564 H 343.973 1.05031 5.24283 0
M  V30 3565 H 344.316 -0.271584 4.15413 0
M  V30 3566 H 344.849 1.37419 3.73311 0
M  V30 3567 H 341.588 3.98636 5.20355 0
M  V30 3568 H 341.108 2.30651 5.53679 0
M  V30 3569 H 342.787 2.83004 5.81823 0
M  V30 3570 N 342.919 -1.39368 0.735821 0
M  V30 3571 C 343.882 -2.2896 0.104874 0
M  V30 3572 C 344.882 -1.46347 -0.666274 0
M  V30 3573 O 346.072 -1.67014 -0.49517 0
M  V30 3574 C 343.204 -3.29857 -0.860656 0
M  V30 3575 H 344.397 -2.86259 0.894205 0
M  V30 3576 H 341.95 -1.48029 0.501704 0
M  V30 3577 H 342.685 -2.77615 -1.67631 0
M  V30 3578 H 342.47 -3.9087 -0.310327 0
M  V30 3579 H 343.96 -3.96893 -1.29867 0
M  V30 3580 N 344.397 -0.483516 -1.5 0
M  V30 3581 C 345.329 0.340634 -2.26655 0
M  V30 3582 C 346.342 0.946152 -1.32483 0
M  V30 3583 O 347.531 0.832453 -1.579 0
M  V30 3584 C 344.631 1.4929 -3.04246 0
M  V30 3585 C 343.804 0.997903 -4.25865 0
M  V30 3586 C 342.863 2.02569 -4.85646 0
M  V30 3587 O 341.889 1.60128 -5.46212 0
M  V30 3588 N 343.091 3.3548 -4.73744 0
M  V30 3589 H 345.856 -0.316577 -2.98023 0
M  V30 3590 H 343.417 -0.315024 -1.58806 0
M  V30 3591 H 345.409 2.17766 -3.41116 0
M  V30 3592 H 343.979 2.05458 -2.35597 0
M  V30 3593 H 343.199 0.138617 -3.93956 0
M  V30 3594 H 344.487 0.645305 -5.04691 0
M  V30 3595 H 343.885 3.72661 -4.25605 0
M  V30 3596 H 342.442 3.99718 -5.14848 0
M  V30 3597 N 345.875 1.56104 -0.216619 0
M  V30 3598 C 346.838 2.18819 0.681962 0
M  V30 3599 C 347.838 1.14866 1.12528 0
M  V30 3600 O 349.028 1.40128 1.03488 0
M  V30 3601 C 346.16 2.80756 1.93362 0
M  V30 3602 H 347.353 2.99595 0.135254 0
M  V30 3603 H 344.906 1.56265 0.0330003 0
M  V30 3604 H 345.641 2.03837 2.52232 0
M  V30 3605 H 345.426 3.56876 1.62426 0
M  V30 3606 H 346.916 3.28844 2.57393 0
M  V30 3607 N 347.353 -0.0568162 1.57498 0
M  V30 3608 C 348.283 -1.06593 2.0775 0
M  V30 3609 C 349.264 -1.39448 0.974082 0
M  V30 3610 O 350.449 -1.48815 1.24771 0
M  V30 3611 C 347.579 -2.37509 2.5339 0
M  V30 3612 C 346.533 -2.1897 3.67745 0
M  V30 3613 C 345.859 -3.55402 3.99492 0
M  V30 3614 C 347.159 -1.59859 4.97235 0
M  V30 3615 H 348.853 -0.647706 2.9231 0
M  V30 3616 H 346.399 -0.310116 1.40621 0
M  V30 3617 H 348.352 -3.08409 2.87162 0
M  V30 3618 H 347.076 -2.8134 1.65878 0
M  V30 3619 H 345.735 -1.50508 3.3428 0
M  V30 3620 H 345.383 -3.9683 3.09088 0
M  V30 3621 H 345.083 -3.43831 4.76502 0
M  V30 3622 H 346.607 -4.27708 4.35773 0
M  V30 3623 H 348.021 -2.20642 5.29141 0
M  V30 3624 H 346.418 -1.58942 5.78669 0
M  V30 3625 H 347.488 -0.561506 4.81638 0
M  V30 3626 N 348.832 -1.54138 -0.328536 0
M  V30 3627 C 350.078 -1.73297 -1.06488 0
M  V30 3628 C 350.433 -0.497958 -1.85844 0
M  V30 3629 O 349.726 0.509591 -1.84699 0
M  V30 3630 C 349.92 -2.9457 -2.02393 0
M  V30 3631 C 349.749 -4.29747 -1.32467 0
M  V30 3632 C 348.519 -4.93987 -1.06324 0
M  V30 3633 C 350.717 -5.08903 -0.743137 0
M  V30 3634 N 348.699 -6.13005 -0.331359 0
M  V30 3635 C 350.07 -6.19836 -0.142602 0
M  V30 3636 C 352.125 -4.93699 -0.64546 0
M  V30 3637 C 350.828 -7.17224 0.546125 0
M  V30 3638 C 352.854 -5.91393 0.0295558 0
M  V30 3639 C 352.216 -7.01674 0.619056 0
M  V30 3640 H 348.315 -0.687017 -0.373539 0
M  V30 3641 H 350.899 -1.91589 -0.346659 0
M  V30 3642 H 349.07 -2.77752 -2.71493 0
M  V30 3643 H 350.802 -3.0238 -2.68977 0
M  V30 3644 H 347.557 -4.53824 -1.35428 0
M  V30 3645 H 347.981 -6.76997 0.0202939 0
M  V30 3646 H 352.623 -4.08589 -1.08695 0
M  V30 3647 H 350.341 -8.01896 0.999459 0
M  V30 3648 H 353.927 -5.81706 0.104705 0
M  V30 3649 H 352.807 -7.75971 1.13309 0
M  V30 3650 N 350.31 0.590341 -1.46126 0
M  V30 3651 C 351.26 1.69466 -1.5253 0
M  V30 3652 C 352.244 1.56179 -0.386917 0
M  V30 3653 O 353.436 1.65223 -0.634858 0
M  V30 3654 C 350.565 3.08245 -1.5113 0
M  V30 3655 C 349.651 3.26856 -2.70233 0
M  V30 3656 N 350.042 3.15657 -3.95214 0
M  V30 3657 C 348.34 3.57775 -2.66296 0
M  V30 3658 C 349.041 3.36066 -4.74799 0
M  V30 3659 N 348.017 3.60865 -4.06543 0
M  V30 3660 H 351.819 1.59326 -2.46966 0
M  V30 3661 H 349.333 0.79414 -1.41659 0
M  V30 3662 H 351.33 3.87492 -1.53804 0
M  V30 3663 H 349.99 3.19521 -0.577636 0
M  V30 3664 H 351.001 2.93686 -4.26578 0
M  V30 3665 H 347.678 3.75782 -1.81918 0
M  V30 3666 H 349.068 3.32655 -5.83772 0
M  V30 3667 N 351.788 1.33704 0.83433 0
M  V30 3668 C 352.735 1.24335 1.94447 0
M  V30 3669 C 353.705 0.120991 1.65659 0
M  V30 3670 O 354.89 0.300035 1.88426 0
M  V30 3671 C 352.03 0.993124 3.30501 0
M  V30 3672 C 351.143 2.20217 3.71657 0
M  V30 3673 C 350.278 1.88572 4.96602 0
M  V30 3674 C 349.317 3.05683 5.30306 0
M  V30 3675 N 348.454 2.73997 6.46429 0
M  V30 3676 H 353.294 2.1928 2.01792 0
M  V30 3677 H 350.831 1.09035 0.987404 0
M  V30 3678 H 352.789 0.828467 4.08892 0
M  V30 3679 H 351.419 0.0803902 3.227 0
M  V30 3680 H 350.471 2.47642 2.88752 0
M  V30 3681 H 351.783 3.07752 3.92543 0
M  V30 3682 H 350.937 1.68776 5.82752 0
M  V30 3683 H 349.676 0.982799 4.77695 0
M  V30 3684 H 348.681 3.26088 4.42659 0
M  V30 3685 H 349.906 3.96737 5.51159 0
M  V30 3686 H 347.852 1.86268 6.28999 0
M  V30 3687 H 347.769 3.55064 6.67432 0
M  V30 3688 H 349.037 2.57679 7.35678 0
M  V30 3689 N 353.266 -1.05314 1.17247 0
M  V30 3690 C 354.213 -2.13031 0.888058 0
M  V30 3691 C 355.183 -1.65253 -0.167537 0
M  V30 3692 O 356.368 -1.90775 -0.0305974 0
M  V30 3693 C 353.508 -3.42702 0.406147 0
M  V30 3694 C 352.621 -4.04161 1.52572 0
M  V30 3695 C 351.756 -5.21744 0.997808 0
M  V30 3696 C 350.795 -5.75207 2.09291 0
M  V30 3697 N 349.932 -6.84094 1.57986 0
M  V30 3698 H 354.772 -2.36698 1.81048 0
M  V30 3699 H 352.309 -1.16121 0.903013 0
M  V30 3700 H 354.267 -4.17059 0.108305 0
M  V30 3701 H 352.897 -3.19222 -0.479313 0
M  V30 3702 H 351.949 -3.27253 1.93931 0
M  V30 3703 H 353.261 -4.39881 2.35172 0
M  V30 3704 H 352.415 -6.03168 0.653739 0
M  V30 3705 H 351.154 -4.87495 0.141232 0
M  V30 3706 H 350.159 -4.92414 2.44557 0
M  V30 3707 H 351.384 -6.11505 2.95362 0
M  V30 3708 H 349.33 -6.51745 0.74598 0
M  V30 3709 H 349.247 -7.18811 2.34195 0
M  V30 3710 H 350.515 -7.69172 1.26468 0
M  V30 3711 N 354.744 -0.972509 -1.24016 0
M  V30 3712 C 355.674 -0.525548 -2.27509 0
M  V30 3713 C 356.655 0.437262 -1.64384 0
M  V30 3714 O 357.84 0.332343 -1.91335 0
M  V30 3715 C 354.97 0.180448 -3.46831 0
M  V30 3716 C 353.924 -0.698859 -4.22256 0
M  V30 3717 C 353.25 0.138903 -5.3452 0
M  V30 3718 C 354.55 -1.98582 -4.83076 0
M  V30 3719 H 356.244 -1.39058 -2.65148 0
M  V30 3720 H 353.79 -0.67009 -1.27459 0
M  V30 3721 H 355.743 0.504387 -4.18371 0
M  V30 3722 H 354.467 1.07987 -3.08231 0
M  V30 3723 H 353.126 -1.00614 -3.52523 0
M  V30 3724 H 352.774 1.03862 -4.9216 0
M  V30 3725 H 352.474 -0.446259 -5.85903 0
M  V30 3726 H 353.998 0.457404 -6.08884 0
M  V30 3727 H 355.412 -1.72715 -5.46665 0
M  V30 3728 H 353.809 -2.5181 -5.44713 0
M  V30 3729 H 354.879 -2.67769 -4.04262 0
M  V30 3730 N 356.222 1.38976 -0.743202 0
M  V30 3731 C 357.469 2.00343 -0.294752 0
M  V30 3732 C 357.797 1.58983 1.12047 0
M  V30 3733 O 357.052 0.813809 1.77977 0
M  V30 3734 C 357.351 3.55647 -0.353517 0
M  V30 3735 C 357.017 4.16685 -1.72292 0
M  V30 3736 C 355.679 4.3307 -2.09771 0
M  V30 3737 C 358.031 4.50464 -2.62168 0
M  V30 3738 C 355.359 4.80526 -3.36618 0
M  V30 3739 C 357.711 4.99332 -3.88395 0
M  V30 3740 C 356.375 5.13924 -4.25956 0
M  V30 3741 H 355.645 0.733108 -0.107857 0
M  V30 3742 H 358.292 1.6618 -0.951651 0
M  V30 3743 H 356.597 3.89884 0.386954 0
M  V30 3744 H 358.294 4.00998 0.0117269 0
M  V30 3745 H 354.884 4.04339 -1.42155 0
M  V30 3746 H 359.068 4.37416 -2.3448 0
M  V30 3747 H 354.324 4.90008 -3.65653 0
M  V30 3748 H 358.498 5.2444 -4.58187 0
M  V30 3749 H 356.125 5.50457 -5.2431 0
M  V30 3750 N 357.7 0.491464 1.49741 0
M  V30 3751 C 358.65 -0.311086 2.25868 0
M  V30 3752 C 359.634 -0.943857 1.30308 0
M  V30 3753 O 360.826 -0.853035 1.55088 0
M  V30 3754 C 357.955 -1.38059 3.14316 0
M  V30 3755 C 357.041 -0.754541 4.17334 0
M  V30 3756 N 357.432 0.137216 5.05614 0
M  V30 3757 C 355.73 -1.01621 4.34269 0
M  V30 3758 C 356.431 0.494614 5.79593 0
M  V30 3759 N 355.407 -0.135169 5.43432 0
M  V30 3760 H 359.209 0.37555 2.91491 0
M  V30 3761 H 356.723 0.306917 1.59473 0
M  V30 3762 H 358.72 -1.96891 3.67477 0
M  V30 3763 H 357.38 -2.06901 2.50244 0
M  V30 3764 H 358.391 0.50741 5.15408 0
M  V30 3765 H 355.068 -1.69808 3.81407 0
M  V30 3766 H 356.458 1.2236 6.60665 0
M  V30 3767 N 359.178 -1.55987 0.224894 0
M  V30 3768 C 360.427 -1.97566 -0.406273 0
M  V30 3769 C 360.74 -1.11569 -1.6066 0
M  V30 3770 O 361.946 -1.43062 -2.3075 0
M  V30 3771 C 360.402 -3.51474 -0.774207 0
M  V30 3772 C 360.01 -4.46179 0.403496 0
M  V30 3773 C 361.754 -4.01758 -1.37079 0
M  V30 3774 C 359.661 -5.91399 0.0129412 0
M  V30 3775 H 358.591 -0.737777 -0.155565 0
M  V30 3776 H 361.242 -1.80659 0.321635 0
M  V30 3777 H 359.624 -3.63994 -1.55963 0
M  V30 3778 H 360.798 -4.45409 1.18101 0
M  V30 3779 H 359.113 -4.06255 0.913536 0
M  V30 3780 H 361.71 -5.07756 -1.67596 0
M  V30 3781 H 362.053 -3.47805 -2.28773 0
M  V30 3782 H 362.586 -3.92475 -0.648733 0
M  V30 3783 H 359.325 -6.49341 0.896451 0
M  V30 3784 H 358.845 -5.95356 -0.728821 0
M  V30 3785 H 360.524 -6.45683 -0.412582 0
M  V30 3786 N 360.656 0.0484629 -1.57525 0
M  V30 3787 C 361.933 0.777447 -1.79486 0
M  V30 3788 C 362.313 1.94597 -0.818251 0
M  V30 3789 O 361.661 2.28047 0.143767 0
M  V30 3790 C 361.871 1.22864 -3.26658 0
M  V30 3791 C 363.219 1.65251 -3.91123 0
M  V30 3792 O 364.243 1.32372 -3.3069 0
M  V30 3793 O 363.102 2.26207 -4.97486 0
M  V30 3794 H 360.196 0.374357 -0.737419 0
M  V30 3795 H 362.742 0.0267359 -1.69679 0
M  V30 3796 H 361.514 0.393589 -3.89316 0
M  V30 3797 H 361.137 2.03996 -3.41279 0
M  V30 3798 N 362.134 1.5431 0.320358 0
M  V30 3799 C 363.064 1.86912 1.3995 0
M  V30 3800 C 364.045 0.726211 1.53819 0
M  V30 3801 O 365.23 0.980233 1.67646 0
M  V30 3802 C 362.36 2.09932 2.7667 0
M  V30 3803 C 361.314 3.25776 2.77586 0
M  V30 3804 C 360.64 3.34173 4.17412 0
M  V30 3805 C 361.94 4.6335 2.41048 0
M  V30 3806 H 363.634 2.77292 1.12914 0
M  V30 3807 H 361.18 1.33421 0.541738 0
M  V30 3808 H 363.133 2.31324 3.52232 0
M  V30 3809 H 361.857 1.16304 3.0519 0
M  V30 3810 H 360.516 3.04276 2.04479 0
M  V30 3811 H 360.164 2.38098 4.43078 0
M  V30 3812 H 359.864 4.12033 4.18931 0
M  V30 3813 H 361.388 3.57803 4.94782 0
M  V30 3814 H 362.802 4.84602 3.06324 0
M  V30 3815 H 361.199 5.43782 2.53813 0
M  V30 3816 H 362.269 4.65381 1.36193 0
M  V30 3817 N 363.613 -0.582584 1.46437 0
M  V30 3818 C 364.561 -1.71272 1.5738 0
M  V30 3819 C 365.555 -1.63524 0.44229 0
M  V30 3820 O 366.761 -1.69016 0.619166 0
M  V30 3821 H 363.136 -0.566273 0.494813 0
M  V30 3822 H 365.107 -1.59174 2.52401 0
M  V30 3823 C 363.856 -3.09658 1.58136 0
M  V30 3824 H 363.179 -3.16291 2.44541 0
M  V30 3825 H 364.619 -3.88494 1.69847 0
M  V30 3826 C 363.078 -3.3547 0.310026 0
M  V30 3827 O 363.608 -3.97199 -0.599683 0
M  V30 3828 N 361.814 -2.89925 0.197901 0
M  V30 3829 H 361.361 -2.39873 0.93909 0
M  V30 3830 H 361.319 -3.07568 -0.65185 0
M  V30 3831 N 365.091 -1.34144 -0.827227 0
M  V30 3832 C 366.339 -1.26009 -1.58007 0
M  V30 3833 C 366.66 0.170971 -1.94249 0
M  V30 3834 O 365.93 1.10256 -1.61927 0
M  V30 3835 H 364.51 -0.463414 -0.585881 0
M  V30 3836 H 367.172 -1.68005 -0.987951 0
M  V30 3837 H 366.268 -1.86187 -2.50481 0
M  V30 3838 N 366.569 1.04691 -1.17803 0
M  V30 3839 C 367.501 2.12571 -0.857097 0
M  V30 3840 C 368.514 1.62174 0.142647 0
M  V30 3841 O 369.703 1.78301 -0.0843387 0
M  V30 3842 C 366.803 3.37915 -0.258216 0
M  V30 3843 C 365.976 4.1757 -1.30207 0
M  V30 3844 C 365.035 5.2125 -0.720029 0
M  V30 3845 O 364.061 5.51888 -1.39314 0
M  V30 3846 N 365.263 5.78466 0.485507 0
M  V30 3847 H 368.028 2.40698 -1.78562 0
M  V30 3848 H 365.589 1.20831 -1.07757 0
M  V30 3849 H 367.581 4.04442 0.144584 0
M  V30 3850 H 366.151 3.07281 0.574199 0
M  V30 3851 H 365.371 3.46458 -1.88043 0
M  V30 3852 H 366.659 4.67586 -2.00601 0
M  V30 3853 H 366.057 5.55866 1.05022 0
M  V30 3854 H 364.614 6.4649 0.830307 0
M  V30 3855 N 368.047 0.979072 1.23499 0
M  V30 3856 C 368.997 0.489378 2.22686 0
M  V30 3857 C 369.981 -0.434871 1.54912 0
M  V30 3858 O 371.173 -0.263941 1.75021 0
M  V30 3859 C 368.302 -0.208178 3.42668 0
M  V30 3860 C 367.388 0.735563 4.17672 0
M  V30 3861 N 367.779 1.87763 4.69658 0
M  V30 3862 C 366.077 0.548625 4.42613 0
M  V30 3863 C 366.778 2.46886 5.26709 0
M  V30 3864 N 365.754 1.75287 5.14563 0
M  V30 3865 H 369.556 1.36062 2.60508 0
M  V30 3866 H 367.07 0.83958 1.39014 0
M  V30 3867 H 369.067 -0.576295 4.12898 0
M  V30 3868 H 367.727 -1.07572 3.06363 0
M  V30 3869 H 368.738 2.25885 4.66043 0
M  V30 3870 H 365.415 -0.274006 4.166 0
M  V30 3871 H 366.805 3.43326 5.77561 0
M  V30 3872 N 369.525 -1.3858 0.750561 0
M  V30 3873 C 370.773 -1.99789 0.30477 0
M  V30 3874 C 371.094 -1.59874 -1.11649 0
M  V30 3875 O 370.364 -0.85417 -1.76297 0
M  V30 3876 H 368.944 -0.738902 0.109694 0
M  V30 3877 H 371.606 -1.69391 0.963983 0
M  V30 3878 H 370.702 -3.09952 0.365499 0
M  V30 3879 N 371.003 -0.499398 -1.49478 0
M  V30 3880 C 372.414 -0.051215 -1.8663 0
M  V30 3881 C 372.765 1.36238 -1.41186 0
M  V30 3882 O 371.89 2.01502 -0.789051 0
M  V30 3883 C 372.485 -0.0861651 -3.3869 0
M  V30 3884 C 371.044 0.30667 -3.75149 0
M  V30 3885 C 370.191 -0.459397 -2.73468 0
M  V30 3886 H 373.142 -0.712264 -1.41818 0
M  V30 3887 H 373.163 0.709507 -3.73826 0
M  V30 3888 H 372.675 -1.11512 -3.71735 0
M  V30 3889 H 370.776 1.33892 -3.47712 0
M  V30 3890 H 370.889 -0.0116669 -4.79099 0
M  V30 3891 H 369.253 0.0905645 -2.54539 0
M  V30 3892 H 370.036 -1.4884 -3.09357 0
M  V30 3893 N 372.481 1.55866 -0.233164 0
M  V30 3894 C 373.428 2.20796 0.67215 0
M  V30 3895 C 374.398 1.16731 1.18166 0
M  V30 3896 O 375.583 1.45129 1.23864 0
M  V30 3897 C 372.723 2.90072 1.86955 0
M  V30 3898 C 371.836 4.08759 1.39786 0
M  V30 3899 C 370.971 4.65787 2.55374 0
M  V30 3900 C 370.01 5.76752 2.04998 0
M  V30 3901 N 369.147 6.28021 3.13901 0
M  V30 3902 H 373.987 2.9779 0.111749 0
M  V30 3903 H 371.524 1.47036 0.0434007 0
M  V30 3904 H 373.482 3.28428 2.57276 0
M  V30 3905 H 372.112 2.15575 2.40265 0
M  V30 3906 H 371.164 3.7581 0.589173 0
M  V30 3907 H 372.476 4.88906 0.98856 0
M  V30 3908 H 371.63 5.06646 3.33758 0
M  V30 3909 H 370.369 3.84828 2.99598 0
M  V30 3910 H 369.374 5.35383 1.25079 0
M  V30 3911 H 370.599 6.59553 1.61759 0
M  V30 3912 H 368.545 5.49971 3.57586 0
M  V30 3913 H 368.462 7.03323 2.7726 0
M  V30 3914 H 369.73 6.73538 3.92386 0
M  V30 3915 N 373.959 -0.0401083 1.57549 0
M  V30 3916 C 375.206 -0.733125 1.88763 0
M  V30 3917 C 375.534 -1.75946 0.829058 0
M  V30 3918 O 374.789 -1.94949 -0.171323 0
M  V30 3919 C 375.088 -1.44902 3.26708 0
M  V30 3920 C 374.754 -0.559707 4.47413 0
M  V30 3921 C 373.416 -0.314731 4.8017 0
M  V30 3922 C 375.768 0.0549743 5.21171 0
M  V30 3923 C 373.096 0.553886 5.8408 0
M  V30 3924 C 375.448 0.911229 6.26003 0
M  V30 3925 C 374.112 1.16577 6.57241 0
M  V30 3926 H 373.382 -0.268269 0.690733 0
M  V30 3927 H 376.029 0.00679408 1.91499 0
M  V30 3928 H 374.334 -2.26197 3.1991 0
M  V30 3929 H 376.031 -1.99058 3.48105 0
M  V30 3930 H 372.621 -0.760793 4.21794 0
M  V30 3931 H 376.805 -0.121344 4.96152 0
M  V30 3932 H 372.061 0.759518 6.06664 0
M  V30 3933 H 376.235 1.3941 6.82303 0
M  V30 3934 H 373.862 1.84058 7.37582 0
M  V30 3935 N 375.437 -1.54477 -0.31217 0
M  V30 3936 C 376.714 -1.63891 -1.06767 0
M  V30 3937 C 377.094 -0.480028 -2.0557 0
M  V30 3938 O 376.442 0.524487 -2.22399 0
M  V30 3939 C 376.652 -3.01402 -1.75948 0
M  V30 3940 C 378 -3.57838 -2.28554 0
M  V30 3941 O 379.024 -3.03782 -1.85998 0
M  V30 3942 O 377.883 -4.52462 -3.06497 0
M  V30 3943 H 374.977 -0.664125 -0.492816 0
M  V30 3944 H 377.523 -1.66823 -0.311149 0
M  V30 3945 H 376.295 -3.77187 -1.04144 0
M  V30 3946 H 375.918 -3.02199 -2.58383 0
M  V30 3947 N 376.915 0.57481 -1.46744 0
M  V30 3948 C 377.847 1.69804 -1.53946 0
M  V30 3949 C 378.86 1.57098 -0.427106 0
M  V30 3950 O 380.049 1.64378 -0.695863 0
M  V30 3951 C 377.149 3.08125 -1.4111 0
M  V30 3952 C 376.322 3.46757 -2.66605 0
M  V30 3953 C 375.381 4.6417 -2.47855 0
M  V30 3954 O 374.407 4.69634 -3.21609 0
M  V30 3955 N 375.609 5.59553 -1.54534 0
M  V30 3956 H 378.374 1.64077 -2.50796 0
M  V30 3957 H 375.935 0.761 -1.429 0
M  V30 3958 H 377.927 3.84478 -1.26328 0
M  V30 3959 H 376.497 3.08175 -0.524109 0
M  V30 3960 H 375.717 2.6003 -2.96274 0
M  V30 3961 H 377.005 3.69337 -3.49954 0
M  V30 3962 H 376.403 5.57881 -0.937304 0
M  V30 3963 H 374.96 6.35304 -1.45711 0
M  V30 3964 N 378.394 1.34581 0.820102 0
M  V30 3965 C 379.671 1.17675 1.56244 0
M  V30 3966 C 380.051 -0.249541 2.0962 0
M  V30 3967 O 379.399 -1.25125 1.91196 0
M  V30 3968 C 379.609 2.23364 2.6816 0
M  V30 3969 C 380.957 2.58485 3.36854 0
M  V30 3970 O 381.981 2.22175 2.78418 0
M  V30 3971 O 380.84 3.20868 4.42386 0
M  V30 3972 H 377.934 0.456333 0.689702 0
M  V30 3973 H 380.48 1.46222 0.861231 0
M  V30 3974 H 379.252 3.19087 2.26493 0
M  V30 3975 H 378.875 1.96009 3.45928 0
M  V30 3976 N 379.872 -1.04064 1.18357 0
M  V30 3977 C 380.802 -2.14001 0.934113 0
M  V30 3978 C 381.783 -1.69616 -0.128186 0
M  V30 3979 O 382.968 -1.94185 0.0244093 0
M  V30 3980 C 380.098 -3.44253 0.459066 0
M  V30 3981 C 379.052 -4.02261 1.46185 0
M  V30 3982 C 378.378 -5.27992 0.844322 0
M  V30 3983 C 379.678 -4.38432 2.83856 0
M  V30 3984 H 381.372 -2.35127 1.85352 0
M  V30 3985 H 378.918 -1.12998 0.892604 0
M  V30 3986 H 380.871 -4.20522 0.271907 0
M  V30 3987 H 379.595 -3.22813 -0.495912 0
M  V30 3988 H 378.254 -3.28074 1.63595 0
M  V30 3989 H 377.902 -5.02862 -0.117845 0
M  V30 3990 H 377.602 -5.67765 1.51384 0
M  V30 3991 H 379.126 -6.06938 0.667693 0
M  V30 3992 H 380.54 -5.05688 2.70098 0
M  V30 3993 H 378.937 -4.89254 3.47491 0
M  V30 3994 H 380.007 -3.4826 3.37406 0
M  V30 3995 N 381.35 -0.985608 -1.22978 0
M  V30 3996 C 382.596 -0.65836 -1.91816 0
M  V30 3997 C 382.929 0.806692 -1.76653 0
M  V30 3998 O 382.204 1.58252 -1.13078 0
M  V30 3999 C 382.487 -1.056 -3.44268 0
M  V30 4000 C 382.34 -2.57906 -3.68516 0
M  V30 4001 C 383.659 -0.603781 -4.35939 0
M  V30 4002 H 380.778 -0.24065 -0.696604 0
M  V30 4003 H 383.42 -1.22783 -1.44998 0
M  V30 4004 H 381.57 -0.571445 -3.84274 0
M  V30 4005 H 383.242 -3.13976 -3.3796 0
M  V30 4006 H 381.485 -3.00305 -3.13048 0
M  V30 4007 H 382.156 -2.80779 -4.75255 0
M  V30 4008 H 384.632 -1.01987 -4.03408 0
M  V30 4009 H 383.508 -0.910383 -5.41298 0
M  V30 4010 H 383.769 0.495761 -4.39312 0
M  V30 4011 N 382.828 1.3818 -0.7579 0
M  V30 4012 C 384.075 2.00019 -0.315985 0
M  V30 4013 C 384.403 1.60163 1.10355 0
M  V30 4014 O 383.658 0.83264 1.77103 0
M  V30 4015 C 383.957 3.55252 -0.391218 0
M  V30 4016 C 383.623 4.14834 -1.76702 0
M  V30 4017 C 382.285 4.30821 -2.14353 0
M  V30 4018 C 384.637 4.47658 -2.66931 0
M  V30 4019 C 381.965 4.76928 -3.41696 0
M  V30 4020 C 384.317 4.95184 -3.93669 0
M  V30 4021 C 382.981 5.09377 -4.31383 0
M  V30 4022 H 382.251 0.731923 -0.115627 0
M  V30 4023 H 384.898 1.65161 -0.969223 0
M  V30 4024 H 383.203 3.90273 0.34558 0
M  V30 4025 H 384.9 4.00988 -0.030805 0
M  V30 4026 H 381.49 4.02808 -1.46435 0
M  V30 4027 H 385.674 4.34904 -2.39106 0
M  V30 4028 H 380.93 4.86103 -3.70829 0
M  V30 4029 H 385.104 5.19551 -4.63724 0
M  V30 4030 H 382.731 5.44865 -5.30119 0
M  V30 4031 N 384.306 0.507319 1.49211 0
M  V30 4032 C 385.554 -0.0348839 2.0207 0
M  V30 4033 C 385.875 -1.36898 1.38866 0
M  V30 4034 O 385.145 -1.88133 0.546151 0
M  V30 4035 H 383.725 -0.0158812 0.746831 0
M  V30 4036 H 386.387 0.665998 1.83168 0
M  V30 4037 H 385.483 -0.159917 3.1169 0
M  V30 4038 N 385.784 -1.5574 0.241426 0
M  V30 4039 C 386.734 -2.17803 -0.674233 0
M  V30 4040 C 387.718 -1.13225 -1.14319 0
M  V30 4041 O 388.91 -1.39153 -1.09387 0
M  V30 4042 C 386.039 -2.87682 -1.87333 0
M  V30 4043 C 385.125 -3.99509 -1.42313 0
M  V30 4044 N 385.516 -5.01115 -0.686798 0
M  V30 4045 C 383.814 -4.11964 -1.70885 0
M  V30 4046 C 384.515 -5.79922 -0.454456 0
M  V30 4047 N 383.491 -5.34001 -1.01705 0
M  V30 4048 H 387.293 -2.93718 -0.103447 0
M  V30 4049 H 384.807 -1.62342 0.0435095 0
M  V30 4050 H 386.804 -3.3057 -2.54026 0
M  V30 4051 H 385.464 -2.13269 -2.4484 0
M  V30 4052 H 386.475 -5.16799 -0.337459 0
M  V30 4053 H 383.152 -3.48718 -2.2957 0
M  V30 4054 H 384.542 -6.71768 0.132992 0
M  V30 4055 N 387.262 0.0317525 -1.57568 0
M  V30 4056 C 388.51 0.721676 -1.88776 0
M  V30 4057 C 388.831 1.76039 -0.838772 0
M  V30 4058 O 388.101 1.95482 0.127935 0
M  V30 4059 H 386.681 0.269534 -0.696678 0
M  V30 4060 H 389.343 -0.00165879 -1.949 0
M  V30 4061 H 388.439 1.21293 -2.87566 0
M  V30 4062 N 388.74 1.54641 0.303973 0
M  V30 4063 C 390.017 1.64455 1.05896 0
M  V30 4064 C 390.397 0.490923 2.05312 0
M  V30 4065 O 389.745 -0.512685 2.22674 0
M  V30 4066 C 389.955 3.02331 1.74347 0
M  V30 4067 C 391.303 3.59045 2.26653 0
M  V30 4068 O 392.327 3.04764 1.84384 0
M  V30 4069 O 391.186 4.54081 3.04093 0
M  V30 4070 H 388.28 0.666729 0.489287 0
M  V30 4071 H 390.826 1.66986 0.302298 0
M  V30 4072 H 389.598 3.77734 1.02142 0
M  V30 4073 H 389.221 3.03565 2.56777 0
M  V30 4074 N 390.218 -0.567019 1.47046 0
M  V30 4075 C 391.148 -1.68482 1.61667 0
M  V30 4076 C 392.129 -1.6358 0.466418 0
M  V30 4077 O 393.314 -1.81354 0.694574 0
M  V30 4078 C 390.444 -3.07124 1.62148 0
M  V30 4079 C 389.398 -3.26867 2.76301 0
M  V30 4080 C 388.724 -4.66196 2.61849 0
M  V30 4081 C 390.024 -3.13186 4.17986 0
M  V30 4082 H 391.718 -1.56502 2.5524 0
M  V30 4083 H 389.264 -0.751486 1.22836 0
M  V30 4084 H 391.217 -3.8516 1.70968 0
M  V30 4085 H 389.941 -3.2004 0.651287 0
M  V30 4086 H 388.6 -2.51237 2.66975 0
M  V30 4087 H 388.248 -4.75898 1.62879 0
M  V30 4088 H 387.948 -4.80356 3.38425 0
M  V30 4089 H 389.472 -5.46379 2.72584 0
M  V30 4090 H 390.886 -3.81049 4.2834 0
M  V30 4091 H 389.283 -3.3886 4.95272 0
M  V30 4092 H 390.353 -2.10057 4.3704 0
M  V30 4093 N 391.696 -1.35014 -0.812953 0
M  V30 4094 C 392.626 -1.30069 -1.93919 0
M  V30 4095 C 393.607 -0.176275 -1.69184 0
M  V30 4096 O 394.792 -0.370227 -1.90638 0
M  V30 4097 C 391.922 -1.06547 -3.30552 0
M  V30 4098 C 390.876 -2.15561 -3.69753 0
M  V30 4099 C 390.202 -1.77214 -5.04479 0
M  V30 4100 C 391.502 -3.57476 -3.808 0
M  V30 4101 H 393.196 -2.24303 -1.98314 0
M  V30 4102 H 390.742 -1.07977 -0.952736 0
M  V30 4103 H 392.695 -1.01729 -4.08937 0
M  V30 4104 H 391.419 -0.0875719 -3.26483 0
M  V30 4105 H 390.078 -2.19466 -2.9365 0
M  V30 4106 H 389.726 -0.780589 -4.96906 0
M  V30 4107 H 389.426 -2.50184 -5.31678 0
M  V30 4108 H 390.95 -1.7391 -5.8531 0
M  V30 4109 H 392.364 -3.55929 -4.4943 0
M  V30 4110 H 390.761 -4.29152 -4.19462 0
M  V30 4111 H 391.831 -3.94091 -2.82525 0
M  V30 4112 N 393.175 1.03435 -1.18907 0
M  V30 4113 C 394.123 2.13703 -0.918353 0
M  V30 4114 C 395.117 1.68947 0.123767 0
M  V30 4115 O 396.323 1.79983 -0.0249701 0
M  V30 4116 H 392.698 0.698112 -0.279542 0
M  V30 4117 H 394.669 2.33731 -1.85506 0
M  V30 4118 C 393.418 3.44542 -0.467532 0
M  V30 4119 H 392.741 3.79394 -1.26095 0
M  V30 4120 H 394.181 4.22812 -0.317164 0
M  V30 4121 C 392.64 3.26829 0.817588 0
M  V30 4122 O 393.17 3.54975 1.88031 0
M  V30 4123 N 391.376 2.80139 0.772677 0
M  V30 4124 H 390.923 2.57434 -0.0923883 0
M  V30 4125 H 390.881 2.68668 1.63294 0
M  V30 4126 N 394.653 0.992116 1.22453 0
M  V30 4127 C 395.616 0.546883 2.2258 0
M  V30 4128 C 396.616 -0.369829 1.56489 0
M  V30 4129 O 397.806 -0.161896 1.73446 0
M  V30 4130 C 394.938 -0.204659 3.40285 0
M  V30 4131 H 396.131 1.43234 2.63484 0
M  V30 4132 H 393.684 0.779239 1.3549 0
M  V30 4133 H 394.419 -1.10614 3.04853 0
M  V30 4134 H 394.204 0.45354 3.89468 0
M  V30 4135 H 395.694 -0.504358 4.14543 0
M  V30 4136 N 396.131 -1.37776 0.765217 0
M  V30 4137 C 397.378 -1.99849 0.326588 0
M  V30 4138 C 397.706 -1.60746 -1.09504 0
M  V30 4139 O 396.961 -0.84202 -1.76659 0
M  V30 4140 C 397.26 -3.5504 0.410053 0
M  V30 4141 C 396.926 -4.13891 1.78899 0
M  V30 4142 C 395.588 -4.29678 2.16635 0
M  V30 4143 C 397.94 -4.46236 2.69301 0
M  V30 4144 C 395.268 -4.7511 3.44221 0
M  V30 4145 C 397.62 -4.93089 3.9629 0
M  V30 4146 C 396.284 -5.07082 4.34078 0
M  V30 4147 H 395.554 -0.7313 0.119507 0
M  V30 4148 H 398.201 -1.64645 0.977968 0
M  V30 4149 H 396.506 -3.90451 -0.324878 0
M  V30 4150 H 398.203 -4.00966 0.0520699 0
M  V30 4151 H 394.793 -4.02026 1.48569 0
M  V30 4152 H 398.977 -4.3363 2.41409 0
M  V30 4153 H 394.233 -4.84129 3.73402 0
M  V30 4154 H 398.407 -5.17084 4.66472 0
M  V30 4155 H 396.034 -5.42046 5.33001 0
M  V30 4156 N 397.609 -0.515225 -1.4894 0
M  V30 4157 C 398.834 0.022727 -2.07388 0
M  V30 4158 C 399.259 1.2876 -1.37122 0
M  V30 4159 O 398.617 1.76067 -0.432431 0
M  V30 4160 C 398.665 0.244869 -3.59768 0
M  V30 4161 O 397.769 1.31667 -3.90817 0
M  V30 4162 H 397.11 -0.0325506 -0.663202 0
M  V30 4163 H 399.64 -0.718918 -1.91553 0
M  V30 4164 H 399.65 0.47205 -4.0526 0
M  V30 4165 H 398.325 -0.679194 -4.10317 0
M  V30 4166 H 396.902 1.07331 -3.5712 0
M  V30 4167 N 399.087 1.5561 -0.249682 0
M  V30 4168 C 400.017 2.24477 0.642826 0
M  V30 4169 C 400.998 1.22601 1.17911 0
M  V30 4170 O 402.183 1.5126 1.21795 0
M  V30 4171 C 399.313 2.94638 1.83863 0
M  V30 4172 C 398.267 4.03227 1.435 0
M  V30 4173 C 397.593 4.60828 2.71186 0
M  V30 4174 C 398.893 5.18796 0.604002 0
M  V30 4175 H 400.587 2.99321 0.0685625 0
M  V30 4176 H 398.133 1.43965 0.0315363 0
M  V30 4177 H 400.086 3.41517 2.46868 0
M  V30 4178 H 398.81 2.17287 2.43832 0
M  V30 4179 H 397.469 3.57121 0.828275 0
M  V30 4180 H 397.117 3.80174 3.29358 0
M  V30 4181 H 396.817 5.34132 2.44901 0
M  V30 4182 H 398.341 5.10442 3.35084 0
M  V30 4183 H 399.755 5.61883 1.13842 0
M  V30 4184 H 398.152 5.98506 0.437097 0
M  V30 4185 H 399.222 4.83384 -0.383147 0
M  V30 4186 N 400.565 -0.0233959 1.57583 0
M  V30 4187 C 401.811 -0.714119 1.89811 0
M  V30 4188 C 402.144 -1.74702 0.848113 0
M  V30 4189 O 401.419 -1.94023 -0.136135 0
M  V30 4190 C 401.702 -1.37853 3.32669 0
M  V30 4191 C 401.555 -0.358764 4.48367 0
M  V30 4192 C 402.874 -2.31101 3.7454 0
M  V30 4193 H 399.993 -0.25814 0.690314 0
M  V30 4194 H 402.635 0.0230927 1.89986 0
M  V30 4195 H 400.785 -2.00689 3.3265 0
M  V30 4196 H 402.457 0.268115 4.6052 0
M  V30 4197 H 400.7 0.321387 4.32608 0
M  V30 4198 H 401.371 -0.862242 5.45224 0
M  V30 4199 H 403.847 -1.78304 3.75961 0
M  V30 4200 H 402.723 -2.74567 4.75294 0
M  V30 4201 H 402.984 -3.18018 3.0711 0
M  V30 4202 N 402.043 -1.548 -0.295768 0
M  V30 4203 C 403.32 -1.65014 -1.05023 0
M  V30 4204 C 403.7 -0.501805 -2.05049 0
M  V30 4205 O 403.048 0.500869 -2.22943 0
M  V30 4206 C 403.258 -3.03252 -1.72741 0
M  V30 4207 C 404.606 -3.60242 -2.24746 0
M  V30 4208 O 405.63 -3.05737 -1.82765 0
M  V30 4209 O 404.489 -4.55687 -3.01681 0
M  V30 4210 H 401.583 -0.669314 -0.485744 0
M  V30 4211 H 404.129 -1.67144 -0.293438 0
M  V30 4212 H 402.901 -3.7827 -1.00138 0
M  V30 4213 H 402.524 -3.04922 -2.55163 0
M  V30 4214 N 403.521 0.559213 -1.47345 0
M  V30 4215 C 404.451 1.67622 -1.62558 0
M  V30 4216 C 405.432 1.63331 -0.475087 0
M  V30 4217 O 406.617 1.80983 -0.704182 0
M  V30 4218 C 403.747 3.0626 -1.63774 0
M  V30 4219 C 402.701 3.25397 -2.7803 0
M  V30 4220 C 402.027 4.64801 -2.64318 0
M  V30 4221 C 403.327 3.10965 -4.19641 0
M  V30 4222 H 405.021 1.55146 -2.56067 0
M  V30 4223 H 402.567 0.744961 -1.23233 0
M  V30 4224 H 404.52 3.84247 -1.73008 0
M  V30 4225 H 403.244 3.1969 -0.66825 0
M  V30 4226 H 401.903 2.49817 -2.68304 0
M  V30 4227 H 401.551 4.75028 -1.65401 0
M  V30 4228 H 401.251 4.78555 -3.40968 0
M  V30 4229 H 402.775 5.44926 -2.75478 0
M  V30 4230 H 404.189 3.78772 -4.30354 0
M  V30 4231 H 402.586 3.36229 -4.97062 0
M  V30 4232 H 403.656 2.07736 -4.38148 0
M  V30 4233 N 404.999 1.35443 0.805782 0
M  V30 4234 C 405.929 1.31095 1.93226 0
M  V30 4235 C 406.91 0.185244 1.69088 0
M  V30 4236 O 408.095 0.380332 1.90439 0
M  V30 4237 C 405.225 1.08299 3.29983 0
M  V30 4238 C 404.179 2.17519 3.68605 0
M  V30 4239 C 403.505 1.79887 5.03532 0
M  V30 4240 C 404.805 3.5949 3.78898 0
M  V30 4241 H 406.499 2.25352 1.97122 0
M  V30 4242 H 404.045 1.0848 0.946996 0
M  V30 4243 H 405.998 1.03897 4.08391 0
M  V30 4244 H 404.722 0.104885 3.26432 0
M  V30 4245 H 403.381 2.2102 2.92482 0
M  V30 4246 H 403.029 0.80693 4.96485 0
M  V30 4247 H 402.729 2.53001 5.30344 0
M  V30 4248 H 404.253 1.77011 5.84379 0
M  V30 4249 H 405.667 3.58307 4.47536 0
M  V30 4250 H 404.064 4.31371 4.1718 0
M  V30 4251 H 405.134 3.95584 2.80431 0
M  V30 4252 N 406.477 -1.02803 1.19454 0
M  V30 4253 C 407.387 -2.14575 0.948408 0
M  V30 4254 C 408.403 -1.73757 -0.091871 0
M  V30 4255 O 409.579 -2.01185 0.0929654 0
M  V30 4256 C 406.644 -3.43202 0.491265 0
M  V30 4257 C 405.705 -3.98328 1.60103 0
M  V30 4258 C 404.938 -5.20816 1.16561 0
M  V30 4259 O 405.161 -5.70392 0.0295238 0
M  V30 4260 O 404.095 -5.68801 1.96849 0
M  V30 4261 H 407.921 -2.38202 1.88397 0
M  V30 4262 H 405.506 -1.12989 0.977433 0
M  V30 4263 H 407.388 -4.20687 0.245015 0
M  V30 4264 H 406.063 -3.21018 -0.415851 0
M  V30 4265 H 404.97 -3.22174 1.90144 0
M  V30 4266 H 406.303 -4.24879 2.48473 0
M  V30 4267 N 407.956 -0.998596 -1.21925 0
M  V30 4268 C 408.904 -0.546641 -2.26085 0
M  V30 4269 C 409.898 0.405576 -1.64473 0
M  V30 4270 O 411.104 0.277471 -1.77849 0
M  V30 4271 H 407.479 -0.158403 -0.735127 0
M  V30 4272 H 409.45 -1.43645 -2.61551 0
M  V30 4273 C 408.199 0.117388 -3.47502 0
M  V30 4274 H 407.522 -0.606277 -3.95176 0
M  V30 4275 H 408.962 0.396993 -4.22137 0
M  V30 4276 C 407.421 1.35455 -3.0847 0
M  V30 4277 O 407.951 2.44944 -3.18379 0
M  V30 4278 N 406.157 1.23191 -2.63196 0
M  V30 4279 H 405.704 0.341006 -2.55333 0
M  V30 4280 H 405.662 2.06071 -2.37449 0
M  V30 4281 N 409.434 1.37368 -0.772513 0
M  V30 4282 C 410.682 1.99279 -0.336516 0
M  V30 4283 C 411.003 1.6163 1.09091 0
M  V30 4284 O 410.273 0.882109 1.74916 0
M  V30 4285 H 408.853 0.737063 -0.121435 0
M  V30 4286 H 411.515 1.67836 -0.990809 0
M  V30 4287 H 410.611 3.09332 -0.414763 0
M  V30 4288 N 410.912 0.523116 1.48665 0
M  V30 4289 C 412.323 0.0808997 1.86525 0
M  V30 4290 C 412.674 -1.33975 1.43336 0
M  V30 4291 O 411.799 -2.00221 0.821009 0
M  V30 4292 C 412.394 0.140037 3.3851 0
M  V30 4293 C 410.953 -0.246948 3.75589 0
M  V30 4294 C 410.1 0.502845 2.72703 0
M  V30 4295 H 413.051 0.734736 1.40667 0
M  V30 4296 H 413.072 -0.649945 3.74908 0
M  V30 4297 H 412.584 1.17412 3.69914 0
M  V30 4298 H 410.685 -1.28343 3.49798 0
M  V30 4299 H 410.798 0.0878859 4.79019 0
M  V30 4300 H 409.162 -0.0500581 2.54651 0
M  V30 4301 H 409.945 1.53743 3.0695 0
M  V30 4302 N 412.39 -1.55475 0.257931 0
M  V30 4303 C 413.667 -1.91155 -0.414629 0
M  V30 4304 C 414.047 -1.18008 -1.75035 0
M  V30 4305 O 413.395 -0.301193 -2.26506 0
M  V30 4306 C 413.605 -3.44283 -0.571859 0
M  V30 4307 C 414.953 -4.15744 -0.862678 0
M  V30 4308 O 415.977 -3.50083 -0.657314 0
M  V30 4309 O 414.836 -5.31909 -1.2544 0
M  V30 4310 H 411.93 -0.796016 -0.22425 0
M  V30 4311 H 414.476 -1.66976 0.302814 0
M  V30 4312 H 413.248 -3.89558 0.368844 0
M  V30 4313 H 412.871 -3.7436 -1.33943 0
M  V30 4314 N 413.868 0.0150385 -1.57593 0
M  V30 4315 C 415.116 0.701613 -1.8953 0
M  V30 4316 C 415.437 1.75139 -0.857396 0
M  V30 4317 O 414.707 1.95607 0.107194 0
M  V30 4318 H 413.287 0.26213 -0.699498 0
M  V30 4319 H 415.949 -0.0223304 -1.94887 0
M  V30 4320 H 415.045 1.18236 -2.88837 0
M  V30 4321 N 415.346 1.54954 0.287554 0
M  V30 4322 C 416.309 1.86076 1.33823 0
M  V30 4323 C 417.309 0.734414 1.43049 0
M  V30 4324 O 418.499 1.00266 1.42452 0
M  V30 4325 C 415.631 2.05305 2.72144 0
M  V30 4326 H 416.824 2.79984 1.07465 0
M  V30 4327 H 414.377 1.47223 0.524902 0
M  V30 4328 H 415.112 1.1373 3.03704 0
M  V30 4329 H 414.897 2.873 2.66836 0
M  V30 4330 H 416.387 2.30706 3.48087 0
M  V30 4331 N 416.824 -0.551391 1.4764 0
M  V30 4332 C 418.235 -1.13349 1.48354 0
M  V30 4333 C 418.586 -1.94709 0.241432 0
M  V30 4334 O 417.711 -2.06306 -0.653205 0
M  V30 4335 C 418.306 -2.0623 2.68802 0
M  V30 4336 C 416.865 -2.597 2.72457 0
M  V30 4337 C 416.012 -1.36201 2.41546 0
M  V30 4338 H 418.963 -0.337698 1.55065 0
M  V30 4339 H 418.984 -2.90196 2.46103 0
M  V30 4340 H 418.496 -1.46987 3.59188 0
M  V30 4341 H 416.597 -3.22724 1.86225 0
M  V30 4342 H 416.71 -3.00296 3.73308 0
M  V30 4343 H 415.074 -1.67068 1.9225 0
M  V30 4344 H 415.857 -0.787425 3.34147 0
M  V30 4345 N 418.302 -1.35869 -0.798587 0
M  V30 4346 C 419.265 -1.29307 -1.89242 0
M  V30 4347 C 420.265 -0.202747 -1.59517 0
M  V30 4348 O 421.455 -0.456957 -1.681 0
M  V30 4349 C 418.587 -1.00229 -3.25833 0
M  V30 4350 H 419.78 -2.26576 -1.96478 0
M  V30 4351 H 417.333 -1.20509 -0.995358 0
M  V30 4352 H 418.068 -0.033801 -3.24282 0
M  V30 4353 H 417.853 -1.79121 -3.48795 0
M  V30 4354 H 419.343 -0.98219 -4.05885 0
M  V30 4355 N 419.78 1.02168 -1.19998 0
M  V30 4356 C 421.01 1.79036 -1.031 0
M  V30 4357 C 421.418 1.84409 0.423078 0
M  V30 4358 O 420.761 1.29228 1.30559 0
M  V30 4359 C 420.823 3.25185 -1.53281 0
M  V30 4360 C 420.487 3.43431 -3.01503 0
M  V30 4361 C 421.484 3.33063 -3.99206 0
M  V30 4362 C 419.169 3.69412 -3.40353 0
M  V30 4363 C 421.163 3.48413 -5.33748 0
M  V30 4364 C 418.85 3.84406 -4.75053 0
M  V30 4365 C 419.848 3.7391 -5.71559 0
M  V30 4366 O 419.536 3.88452 -7.03818 0
M  V30 4367 H 419.268 0.570043 -0.363355 0
M  V30 4368 H 421.822 1.29524 -1.59414 0
M  V30 4369 H 420.052 3.75756 -0.913483 0
M  V30 4370 H 421.741 3.83671 -1.32481 0
M  V30 4371 H 422.507 3.12934 -3.70537 0
M  V30 4372 H 418.386 3.76671 -2.65782 0
M  V30 4373 H 421.93 3.40137 -6.09059 0
M  V30 4374 H 417.827 4.04035 -5.03415 0
M  V30 4375 H 418.595 4.055 -7.10993 0
M  V30 4376 N 421.258 1.00505 1.21394 0
M  V30 4377 C 422.535 0.603277 1.86064 0
M  V30 4378 C 422.915 -0.919095 1.90042 0
M  V30 4379 O 422.263 -1.80607 1.39977 0
M  V30 4380 C 422.473 1.23772 3.26315 0
M  V30 4381 C 423.821 1.34586 4.02705 0
M  V30 4382 O 424.845 1.19304 3.35626 0
M  V30 4383 O 423.704 1.59169 5.22807 0
M  V30 4384 H 420.798 0.206634 0.800769 0
M  V30 4385 H 423.344 1.1017 1.29076 0
M  V30 4386 H 422.116 2.27848 3.18121 0
M  V30 4387 H 421.739 0.725648 3.90922 0
M  V30 4388 N 422.737 -1.36956 0.779787 0
M  V30 4389 C 423.985 -1.99097 0.347079 0
M  V30 4390 C 424.306 -1.62206 -1.08232 0
M  V30 4391 O 423.576 -0.891373 -1.74446 0
M  V30 4392 H 422.156 -0.736409 0.125342 0
M  V30 4393 H 424.818 -1.67308 0.999696 0
M  V30 4394 H 423.914 -3.09107 0.431162 0
M  V30 4395 N 424.215 -0.530993 -1.48385 0
M  V30 4396 C 425.626 -0.0907905 -1.86479 0
M  V30 4397 C 425.977 1.33213 -1.44044 0
M  V30 4398 O 425.102 1.99783 -0.831615 0
M  V30 4399 C 425.697 -0.157987 -3.38431 0
M  V30 4400 C 424.256 0.227026 -3.75715 0
M  V30 4401 C 423.403 -0.5173 -2.72432 0
M  V30 4402 H 426.354 -0.742186 -1.40276 0
M  V30 4403 H 426.375 0.630053 -3.75247 0
M  V30 4404 H 425.887 -1.19372 -3.69286 0
M  V30 4405 H 423.988 1.26486 -3.50474 0
M  V30 4406 H 424.101 -0.113288 -4.78966 0
M  V30 4407 H 422.465 0.0365527 -2.54674 0
M  V30 4408 H 423.248 -1.55368 -3.0613 0
M  V30 4409 N 425.693 1.55336 -0.266172 0
M  V30 4410 C 427.109 1.59356 0.0882065 0
M  V30 4411 C 427.309 1.2834 1.55342 0
M  V30 4412 O 426.365 1.03996 2.30089 0
M  V30 4413 C 427.678 2.99409 -0.278364 0
M  V30 4414 C 429.226 3.12196 -0.224243 0
M  V30 4415 C 429.701 4.545 -0.565123 0
M  V30 4416 N 431.192 4.60313 -0.51634 0
M  V30 4417 C 431.927 5.68434 -0.753013 0
M  V30 4418 N 431.423 6.84738 -1.05383 0
M  V30 4419 N 433.216 5.57942 -0.682414 0
M  V30 4420 H 425.367 1.73764 -1.22147 0
M  V30 4421 H 427.63 0.809822 -0.492841 0
M  V30 4422 H 427.336 3.2691 -1.29703 0
M  V30 4423 H 427.21 3.75228 0.385186 0
M  V30 4424 H 429.597 2.84464 0.78512 0
M  V30 4425 H 429.678 2.38609 -0.921922 0
M  V30 4426 H 429.322 4.82956 -1.57213 0
M  V30 4427 H 429.252 5.26374 0.154248 0
M  V30 4428 H 431.743 3.7676 -0.29335 0
M  V30 4429 H 432.056 7.63088 -1.22133 0
M  V30 4430 H 430.401 6.86375 -1.09151 0
M  V30 4431 H 433.592 4.65958 -0.44731 0
M  V30 4432 H 433.765 6.4213 -0.870248 0
M  V30 4433 N 427.171 -0.0066808 1.57599 0
M  V30 4434 C 428.121 -1.0086 2.04478 0
M  V30 4435 C 429.105 -1.30714 0.938231 0
M  V30 4436 O 430.297 -1.29924 1.20203 0
M  V30 4437 C 427.426 -2.30273 2.54615 0
M  V30 4438 C 426.512 -2.03413 3.72134 0
M  V30 4439 N 426.903 -1.46688 4.84062 0
M  V30 4440 C 425.201 -2.33589 3.79937 0
M  V30 4441 C 425.902 -1.36146 5.65543 0
M  V30 4442 N 424.878 -1.84477 5.1134 0
M  V30 4443 H 428.68 -0.564402 2.8843 0
M  V30 4444 H 426.194 -0.212521 1.61003 0
M  V30 4445 H 428.191 -3.02885 2.86472 0
M  V30 4446 H 426.851 -2.75352 1.72079 0
M  V30 4447 H 427.862 -1.14658 5.05049 0
M  V30 4448 H 424.539 -2.81589 3.08243 0
M  V30 4449 H 425.929 -0.925873 6.6549 0
M  V30 4450 N 428.649 -1.55105 -0.279332 0
M  V30 4451 C 429.896 -1.75412 -1.01177 0
M  V30 4452 C 430.224 -0.551728 -1.86511 0
M  V30 4453 O 429.479 0.465919 -1.90073 0
M  V30 4454 C 429.778 -3.0086 -1.92919 0
M  V30 4455 C 429.444 -4.33689 -1.23387 0
M  V30 4456 C 428.106 -4.69792 -1.04159 0
M  V30 4457 C 430.458 -5.15941 -0.738562 0
M  V30 4458 C 427.786 -5.85707 -0.341166 0
M  V30 4459 C 430.138 -6.32579 -0.0517636 0
M  V30 4460 C 428.802 -6.67326 0.152292 0
M  V30 4461 H 428.072 -0.641879 -0.370233 0
M  V30 4462 H 430.719 -1.89373 -0.284627 0
M  V30 4463 H 429.024 -2.81773 -2.72234 0
M  V30 4464 H 430.721 -3.13768 -2.49701 0
M  V30 4465 H 427.311 -4.05309 -1.39364 0
M  V30 4466 H 431.495 -4.8853 -0.874764 0
M  V30 4467 H 426.751 -6.11157 -0.172287 0
M  V30 4468 H 430.925 -6.9557 0.339828 0
M  V30 4469 H 428.552 -7.56998 0.697014 0
M  V30 4470 N 430.127 0.543554 -1.4793 0
M  V30 4471 C 431.404 1.30458 -1.4574 0
M  V30 4472 C 431.784 2.1048 -0.161692 0
M  V30 4473 O 431.132 2.11831 0.856734 0
M  V30 4474 C 431.342 2.19754 -2.71126 0
M  V30 4475 C 432.69 2.80334 -3.18901 0
M  V30 4476 O 433.714 2.30049 -2.71948 0
M  V30 4477 O 432.573 3.71766 -4.00565 0
M  V30 4478 H 429.667 0.588117 -0.581418 0
M  V30 4479 H 432.213 0.561328 -1.60147 0
M  V30 4480 H 430.985 1.60316 -3.56952 0
M  V30 4481 H 430.608 3.01351 -2.59371 0
M  V30 4482 N 431.605 1.3629 0.791371 0
M  V30 4483 C 432.835 1.33368 1.57786 0
M  V30 4484 C 433.243 -0.0875188 1.88997 0
M  V30 4485 O 432.586 -1.05427 1.50435 0
M  V30 4486 C 432.648 2.08802 2.92646 0
M  V30 4487 C 432.312 3.57903 2.84174 0
M  V30 4488 C 433.309 4.52191 2.56553 0
M  V30 4489 C 430.994 4.00762 3.02812 0
M  V30 4490 C 432.988 5.87315 2.47669 0
M  V30 4491 C 430.675 5.35977 2.93551 0
M  V30 4492 C 431.673 6.29066 2.66017 0
M  V30 4493 O 431.361 7.61798 2.56746 0
M  V30 4494 H 431.093 0.459166 0.496128 0
M  V30 4495 H 433.647 1.79952 0.990269 0
M  V30 4496 H 431.877 1.56878 3.53449 0
M  V30 4497 H 433.566 1.98762 3.53904 0
M  V30 4498 H 434.332 4.20393 2.41858 0
M  V30 4499 H 430.211 3.2868 3.2325 0
M  V30 4500 H 433.755 6.59943 2.26099 0
M  V30 4501 H 429.652 5.67384 3.07808 0
M  V30 4502 H 430.42 7.71898 2.72242 0
M  V30 4503 N 433.083 -1.0153 1.20538 0
M  V30 4504 C 434.03 -2.10098 0.955383 0
M  V30 4505 C 435 -1.65702 -0.114878 0
M  V30 4506 O 436.185 -1.90776 0.0301118 0
M  V30 4507 C 433.325 -3.41236 0.514969 0
M  V30 4508 C 432.438 -3.99102 1.65353 0
M  V30 4509 C 431.573 -5.18306 1.16329 0
M  V30 4510 C 430.612 -5.68258 2.27485 0
M  V30 4511 N 429.749 -6.78722 1.7967 0
M  V30 4512 H 434.589 -2.30818 1.88486 0
M  V30 4513 H 432.126 -1.13189 0.939499 0
M  V30 4514 H 434.084 -4.16504 0.240935 0
M  V30 4515 H 432.714 -3.20585 -0.377512 0
M  V30 4516 H 431.766 -3.20918 2.04245 0
M  V30 4517 H 433.078 -4.32177 2.49047 0
M  V30 4518 H 432.232 -6.00782 0.845302 0
M  V30 4519 H 430.971 -4.86799 0.296254 0
M  V30 4520 H 429.976 -4.84385 2.60099 0
M  V30 4521 H 431.201 -6.01798 3.14667 0
M  V30 4522 H 429.147 -6.49042 0.95295 0
M  V30 4523 H 429.064 -7.10996 2.56944 0
M  V30 4524 H 430.332 -7.64759 1.50875 0
M  V30 4525 N 434.561 -1.01147 -1.20859 0
M  V30 4526 C 435.972 -0.730205 -1.71828 0
M  V30 4527 C 436.323 0.751662 -1.8123 0
M  V30 4528 O 435.448 1.58686 -1.47132 0
M  V30 4529 C 436.043 -1.31885 -3.12077 0
M  V30 4530 C 434.602 -1.08656 -3.60376 0
M  V30 4531 C 433.749 -1.42769 -2.37723 0
M  V30 4532 H 436.7 -1.18158 -1.05945 0
M  V30 4533 H 436.721 -0.706793 -3.73878 0
M  V30 4534 H 436.233 -2.39737 -3.05201 0
M  V30 4535 H 434.334 -0.0254814 -3.72591 0
M  V30 4536 H 434.447 -1.76301 -4.45483 0
M  V30 4537 H 432.811 -0.846603 -2.40218 0
M  V30 4538 H 433.594 -2.51666 -2.33493 0
M  V30 4539 N 436.039 1.36541 -0.78704 0
M  V30 4540 C 437.264 2.0409 -0.369053 0
M  V30 4541 C 437.689 1.58957 1.00569 0
M  V30 4542 O 437.047 0.756926 1.64743 0
M  V30 4543 C 437.095 3.57924 -0.438466 0
M  V30 4544 O 436.199 4.08642 0.555479 0
M  V30 4545 H 435.54 0.645142 -0.157122 0
M  V30 4546 H 438.07 1.74545 -1.06749 0
M  V30 4547 H 438.08 4.06887 -0.301218 0
M  V30 4548 H 436.755 3.90127 -1.44132 0
M  V30 4549 H 435.332 3.70958 0.380088 0
M  V30 4550 N 437.518 0.538854 1.48102 0
M  V30 4551 C 438.934 0.19732 1.58376 0
M  V30 4552 C 439.134 -1.29971 1.5398 0
M  V30 4553 O 438.19 -2.07861 1.43352 0
M  V30 4554 C 439.503 0.807716 2.89649 0
M  V30 4555 C 441.051 0.77726 3.03196 0
M  V30 4556 C 441.526 1.36639 4.37143 0
M  V30 4557 N 443.017 1.32875 4.43732 0
M  V30 4558 C 443.752 1.7544 5.45901 0
M  V30 4559 N 443.248 2.25776 6.54979 0
M  V30 4560 N 445.041 1.66623 5.36836 0
M  V30 4561 H 437.192 1.5117 1.49202 0
M  V30 4562 H 439.455 0.629327 0.708979 0
M  V30 4563 H 439.161 1.85909 2.98548 0
M  V30 4564 H 439.035 0.289975 3.76084 0
M  V30 4565 H 441.422 -0.265374 2.93904 0
M  V30 4566 H 441.503 1.33256 2.18349 0
M  V30 4567 H 441.147 2.408 4.47189 0
M  V30 4568 H 441.077 0.786689 5.20691 0
M  V30 4569 H 443.568 0.96037 3.65493 0
M  V30 4570 H 443.881 2.56226 7.29087 0
M  V30 4571 H 442.226 2.29775 6.55918 0
M  V30 4572 H 445.417 1.27089 4.50517 0
M  V30 4573 H 445.59 2.00115 6.16326 0
M  V30 4574 N 438.996 -1.55193 0.274407 0
M  V30 4575 C 440.224 -2.03987 -0.345943 0
M  V30 4576 C 440.639 -1.15279 -1.4952 0
M  V30 4577 O 439.996 -0.172759 -1.8168 0
M  V30 4578 C 440.047 -3.51898 -0.827631 0
M  V30 4579 O 439.768 -4.37231 0.275855 0
M  V30 4580 C 441.269 -4.16577 -1.51587 0
M  V30 4581 H 438.489 -0.666335 -0.0789892 0
M  V30 4582 H 441.033 -2.00423 0.406294 0
M  V30 4583 H 439.188 -3.55909 -1.52996 0
M  V30 4584 H 439.602 -5.24415 -0.0943638 0
M  V30 4585 H 441.076 -5.21678 -1.80433 0
M  V30 4586 H 441.553 -3.64707 -2.44716 0
M  V30 4587 H 442.159 -4.16568 -0.857409 0
M  V30 4588 N 440.474 -0.00167713 -1.576 0
M  V30 4589 C 441.384 1.00548 -2.1196 0
M  V30 4590 C 442.4 1.3758 -1.06526 0
M  V30 4591 O 443.576 1.46278 -1.38436 0
M  V30 4592 C 440.641 2.27809 -2.6135 0
M  V30 4593 C 439.702 1.97074 -3.81393 0
M  V30 4594 C 438.935 3.18267 -4.28417 0
M  V30 4595 O 439.158 4.30009 -3.74765 0
M  V30 4596 O 438.092 3.02167 -5.20556 0
M  V30 4597 H 441.918 0.573373 -2.98238 0
M  V30 4598 H 439.503 0.217255 -1.47812 0
M  V30 4599 H 441.385 3.02568 -2.93309 0
M  V30 4600 H 440.06 2.70254 -1.78169 0
M  V30 4601 H 438.967 1.19785 -3.54404 0
M  V30 4602 H 440.3 1.59464 -4.65652 0
M  V30 4603 N 441.952 1.55251 0.271103 0
M  V30 4604 C 443.229 1.66664 1.02384 0
M  V30 4605 C 443.609 0.534363 2.04225 0
M  V30 4606 O 442.957 -0.465337 2.23712 0
M  V30 4607 C 443.167 3.05961 1.67895 0
M  V30 4608 C 444.515 3.63772 2.18986 0
M  V30 4609 O 445.539 3.08606 1.77878 0
M  V30 4610 O 444.398 4.60429 2.94393 0
M  V30 4611 H 441.492 0.676957 0.475035 0
M  V30 4612 H 444.038 1.67589 0.26681 0
M  V30 4613 H 442.81 3.79815 0.941071 0
M  V30 4614 H 442.433 3.08943 2.5028 0
M  V30 4615 N 443.43 -0.535701 1.48216 0
M  V30 4616 C 444.66 -1.3148 1.59363 0
M  V30 4617 C 445.068 -1.8753 0.250844 0
M  V30 4618 O 444.411 -1.66821 -0.769174 0
M  V30 4619 C 444.473 -2.50731 2.57632 0
M  V30 4620 C 444.137 -2.15811 4.02833 0
M  V30 4621 C 445.134 -1.71822 4.90686 0
M  V30 4622 C 442.819 -2.26509 4.48329 0
M  V30 4623 C 444.813 -1.3899 6.22062 0
M  V30 4624 C 442.5 -1.93289 5.79726 0
M  V30 4625 C 443.498 -1.49599 6.66415 0
M  V30 4626 O 443.186 -1.16812 7.95368 0
M  V30 4627 H 442.918 -0.406315 0.540263 0
M  V30 4628 H 445.472 -0.653569 1.94725 0
M  V30 4629 H 443.702 -3.19817 2.1738 0
M  V30 4630 H 445.391 -3.12797 2.58675 0
M  V30 4631 H 446.157 -1.63031 4.56778 0
M  V30 4632 H 442.036 -2.59471 3.81045 0
M  V30 4633 H 445.58 -1.04816 6.89681 0
M  V30 4634 H 441.477 -2.01718 6.13172 0
M  V30 4635 H 442.245 -1.30259 8.08069 0
M  V30 4636 N 444.908 -1.36708 -0.784132 0
M  V30 4637 C 446.185 -1.21776 -1.53069 0
M  V30 4638 C 446.565 0.193876 -2.10208 0
M  V30 4639 O 445.913 1.20012 -1.94446 0
M  V30 4640 C 446.123 -2.30395 -2.62143 0
M  V30 4641 C 447.471 -2.67325 -3.29882 0
M  V30 4642 O 448.495 -2.29478 -2.7243 0
M  V30 4643 O 447.354 -3.32485 -4.33724 0
M  V30 4644 H 444.448 -0.474459 -0.677361 0
M  V30 4645 H 446.994 -1.48454 -0.82216 0
M  V30 4646 H 445.766 -3.2498 -2.17953 0
M  V30 4647 H 445.389 -2.05112 -3.40609 0
M  V30 4648 N 446.386 1.0089 -1.21074 0
M  V30 4649 C 447.634 1.74262 -1.02358 0
M  V30 4650 C 447.955 1.89869 0.444393 0
M  V30 4651 O 447.225 1.44677 1.32081 0
M  V30 4652 H 445.805 0.645615 -0.375754 0
M  V30 4653 H 448.467 1.21596 -1.52317 0
M  V30 4654 H 447.563 2.74328 -1.4883 0
M  V30 4655 N 447.864 1.01787 1.20321 0
M  V30 4656 C 449.11 0.708985 1.90003 0
M  V30 4657 C 449.443 -0.759572 1.78729 0
M  V30 4658 O 448.718 -1.55198 1.17234 0
M  V30 4659 C 449.001 1.1469 3.41348 0
M  V30 4660 C 448.854 2.67586 3.61549 0
M  V30 4661 C 450.173 0.71915 4.34185 0
M  V30 4662 H 447.292 0.259034 0.689978 0
M  V30 4663 H 449.934 1.26584 1.41692 0
M  V30 4664 H 448.084 0.673128 3.82624 0
M  V30 4665 H 449.756 3.22826 3.29517 0
M  V30 4666 H 447.999 3.085 3.04976 0
M  V30 4667 H 448.67 2.93281 4.67643 0
M  V30 4668 H 451.146 1.12647 4.00562 0
M  V30 4669 H 450.022 1.05358 5.38694 0
M  V30 4670 H 450.283 -0.379111 4.40472 0
M  V30 4671 N 449.342 -1.36122 0.79427 0
M  V30 4672 C 450.588 -1.99846 0.378542 0
M  V30 4673 C 450.943 -1.61898 -1.03955 0
M  V30 4674 O 450.236 -0.866013 -1.70912 0
M  V30 4675 C 450.43 -3.5409 0.48527 0
M  V30 4676 C 450.259 -4.0702 1.91219 0
M  V30 4677 C 449.029 -4.36944 2.53787 0
M  V30 4678 C 451.227 -4.26435 2.87502 0
M  V30 4679 N 449.209 -4.75727 3.88017 0
M  V30 4680 C 450.58 -4.68077 4.06576 0
M  V30 4681 C 452.635 -4.08616 2.84495 0
M  V30 4682 C 451.338 -4.93765 5.23057 0
M  V30 4683 C 453.364 -4.35453 4.00169 0
M  V30 4684 C 452.726 -4.77355 5.17988 0
M  V30 4685 H 448.825 -0.759549 0.186034 0
M  V30 4686 H 451.409 -1.65043 1.0329 0
M  V30 4687 H 449.58 -3.88151 -0.139023 0
M  V30 4688 H 451.312 -4.04675 0.0453192 0
M  V30 4689 H 448.067 -4.26822 2.05231 0
M  V30 4690 H 448.491 -4.99396 4.57092 0
M  V30 4691 H 453.133 -3.75373 1.94564 0
M  V30 4692 H 450.851 -5.25887 6.1357 0
M  V30 4693 H 454.437 -4.2323 3.99208 0
M  V30 4694 H 453.317 -4.97718 6.06008 0
M  V30 4695 N 450.82 -0.546701 -1.47814 0
M  V30 4696 C 451.73 0.21026 -2.33656 0
M  V30 4697 C 452.746 0.922413 -1.47538 0
M  V30 4698 O 453.922 0.893652 -1.80488 0
M  V30 4699 C 450.987 1.23348 -3.24016 0
M  V30 4700 C 450.048 0.529883 -4.26017 0
M  V30 4701 C 449.281 1.50435 -5.12059 0
M  V30 4702 O 449.504 2.73837 -5.00369 0
M  V30 4703 O 448.438 1.03459 -5.92942 0
M  V30 4704 H 452.264 -0.493605 -2.99662 0
M  V30 4705 H 449.849 -0.307427 -1.46203 0
M  V30 4706 H 451.731 1.82438 -3.79861 0
M  V30 4707 H 450.406 1.91945 -2.60651 0
M  V30 4708 H 449.313 -0.101948 -3.73961 0
M  V30 4709 H 450.646 -0.11445 -4.92067 0
M  V30 4710 N 452.299 1.55045 -0.282633 0
M  V30 4711 C 453.524 2.04628 0.337977 0
M  V30 4712 C 453.949 1.15937 1.48123 0
M  V30 4713 O 453.307 0.159532 1.80597 0
M  V30 4714 C 453.355 3.51854 0.78936 0
M  V30 4715 O 452.459 3.66236 1.89592 0
M  V30 4716 H 451.8 0.660434 0.0687261 0
M  V30 4717 H 454.33 2.00261 -0.419124 0
M  V30 4718 H 454.34 3.93361 1.08311 0
M  V30 4719 H 453.015 4.15873 -0.0470419 0
M  V30 4720 H 451.592 3.36633 1.60413 0
M  V30 4721 N 453.777 0.010035 1.57597 0
M  V30 4722 C 454.74 -0.963029 2.07986 0
M  V30 4723 C 455.74 -1.26619 0.991173 0
M  V30 4724 O 456.93 -1.2097 1.25347 0
M  V30 4725 C 454.062 -2.2851 2.52974 0
M  V30 4726 H 455.255 -0.526971 2.95234 0
M  V30 4727 H 452.808 -0.237639 1.54483 0
M  V30 4728 H 453.543 -2.76784 1.69 0
M  V30 4729 H 453.328 -2.07824 3.32493 0
M  V30 4730 H 454.818 -2.98294 2.9225 0
M  V30 4731 N 455.255 -1.55392 -0.262866 0
M  V30 4732 C 456.202 -1.88966 -1.32516 0
M  V30 4733 C 457.172 -0.742187 -1.48596 0
M  V30 4734 O 458.357 -0.99439 -1.62839 0
M  V30 4735 C 455.497 -2.17592 -2.67858 0
M  V30 4736 C 454.61 -3.45061 -2.59917 0
M  V30 4737 C 453.745 -3.63336 -3.87505 0
M  V30 4738 C 452.784 -4.84462 -3.74116 0
M  V30 4739 N 451.921 -4.99342 -4.93561 0
M  V30 4740 H 456.761 -2.79566 -1.03184 0
M  V30 4741 H 454.298 -1.38404 -0.498285 0
M  V30 4742 H 456.256 -2.3219 -3.46617 0
M  V30 4743 H 454.886 -1.30215 -2.95371 0
M  V30 4744 H 453.938 -3.38881 -1.72812 0
M  V30 4745 H 455.25 -4.3396 -2.45926 0
M  V30 4746 H 454.404 -3.77807 -4.74707 0
M  V30 4747 H 453.143 -2.72641 -4.04374 0
M  V30 4748 H 452.148 -4.69985 -2.85297 0
M  V30 4749 H 453.373 -5.76603 -3.58757 0
M  V30 4750 H 451.319 -4.1158 -5.10821 0
M  V30 4751 H 451.236 -5.82303 -4.82141 0
M  V30 4752 H 452.504 -5.18208 -5.82306 0
M  V30 4753 N 456.733 0.527833 -1.48498 0
M  V30 4754 C 457.696 1.61439 -1.62696 0
M  V30 4755 C 458.696 1.52824 -0.500136 0
M  V30 4756 O 459.886 1.56456 -0.765976 0
M  V30 4757 C 457.018 3.01063 -1.59918 0
M  V30 4758 H 458.211 1.50189 -2.59583 0
M  V30 4759 H 455.764 0.750055 -1.37127 0
M  V30 4760 H 456.499 3.17818 -0.645163 0
M  V30 4761 H 456.284 3.08725 -2.41726 0
M  V30 4762 H 457.774 3.80057 -1.73051 0
M  V30 4763 N 458.211 1.37122 0.776871 0
M  V30 4764 C 459.159 1.32549 1.91138 0
M  V30 4765 C 460.153 0.215119 1.68029 0
M  V30 4766 O 461.359 0.382852 1.75881 0
M  V30 4767 H 457.734 0.412952 0.62847 0
M  V30 4768 H 459.705 2.28332 1.92112 0
M  V30 4769 C 458.454 1.14422 3.28333 0
M  V30 4770 H 457.777 1.99115 3.46689 0
M  V30 4771 H 459.217 1.15272 4.0803 0
M  V30 4772 C 457.676 -0.150434 3.36564 0
M  V30 4773 O 458.206 -1.13584 3.85307 0
M  V30 4774 N 456.412 -0.19939 2.89915 0
M  V30 4775 H 455.959 0.603142 2.5044 0
M  V30 4776 H 455.917 -1.06526 2.95803 0
M  V30 4777 N 459.689 -1.00246 1.21608 0
M  V30 4778 C 460.938 -1.73476 1.02902 0
M  V30 4779 C 461.251 -1.90643 -0.437561 0
M  V30 4780 O 462.457 -2.61105 -0.74407 0
M  V30 4781 C 460.913 -3.12079 1.79261 0
M  V30 4782 C 460.521 -3.02877 3.30106 0
M  V30 4783 C 462.265 -3.89421 1.68972 0
M  V30 4784 C 460.172 -4.36575 3.98944 0
M  V30 4785 H 459.102 -0.650408 0.381425 0
M  V30 4786 H 461.753 -1.11985 1.45367 0
M  V30 4787 H 460.135 -3.74196 1.2959 0
M  V30 4788 H 461.309 -2.49983 3.87098 0
M  V30 4789 H 459.624 -2.39022 3.40965 0
M  V30 4790 H 462.221 -4.88362 2.17731 0
M  V30 4791 H 462.564 -4.1122 0.648397 0
M  V30 4792 H 463.097 -3.33963 2.16133 0
M  V30 4793 H 459.836 -4.19978 5.03288 0
M  V30 4794 H 459.356 -4.8942 3.4674 0
M  V30 4795 H 461.035 -5.05364 4.04 0
M  V30 4796 N 461.167 -1.02423 -1.1978 0
M  V30 4797 C 462.583 -0.740459 -1.41384 0
M  V30 4798 C 462.783 0.676827 -1.89793 0
M  V30 4799 O 461.839 1.4435 -2.0717 0
M  V30 4800 C 463.152 -1.77264 -2.42895 0
M  V30 4801 C 464.7 -1.79165 -2.56649 0
M  V30 4802 C 465.175 -2.8133 -3.6141 0
M  V30 4803 N 466.666 -2.80118 -3.68901 0
M  V30 4804 C 467.401 -3.55824 -4.49641 0
M  V30 4805 N 466.897 -4.41231 -5.34123 0
M  V30 4806 N 468.69 -3.44387 -4.44246 0
M  V30 4807 H 460.841 -1.9391 -0.866764 0
M  V30 4808 H 463.104 -0.838074 -0.443098 0
M  V30 4809 H 462.81 -2.7884 -2.14339 0
M  V30 4810 H 462.684 -1.59108 -3.42001 0
M  V30 4811 H 465.071 -0.782702 -2.84531 0
M  V30 4812 H 465.152 -2.01396 -1.57713 0
M  V30 4813 H 464.796 -3.82394 -3.34271 0
M  V30 4814 H 464.726 -2.56359 -4.59986 0
M  V30 4815 H 467.217 -2.1817 -3.08562 0
M  V30 4816 H 467.53 -4.95747 -5.92836 0
M  V30 4817 H 465.875 -4.45306 -5.33599 0
M  V30 4818 H 469.066 -2.7708 -3.77285 0
M  V30 4819 H 469.239 -4.0364 -5.06931 0
M  V30 4820 N 462.645 1.35699 -0.801477 0
M  V30 4821 C 463.578 2.2768 -0.153922 0
M  V30 4822 C 464.556 1.47832 0.67709 0
M  V30 4823 O 465.74 1.77104 0.645474 0
M  V30 4824 C 462.867 3.2943 0.786986 0
M  V30 4825 C 461.913 4.26485 0.0362447 0
M  V30 4826 S 462.746 5.19573 -1.2963 0
M  V30 4827 C 463.902 6.24866 -0.359705 0
M  V30 4828 H 464.135 2.82254 -0.9338 0
M  V30 4829 H 461.668 1.42421 -0.596283 0
M  V30 4830 H 463.626 3.8855 1.32436 0
M  V30 4831 H 462.287 2.73745 1.54021 0
M  V30 4832 H 461.48 4.98378 0.750668 0
M  V30 4833 H 461.082 3.71508 -0.431017 0
M  V30 4834 H 463.374 6.75957 0.456954 0
M  V30 4835 H 464.317 7.00307 -1.04768 0
M  V30 4836 H 464.725 5.64484 0.0423274 0
M  V30 4837 N 464.123 0.554532 1.47522 0
M  V30 4838 C 465.353 0.0342074 2.06572 0
M  V30 4839 C 465.761 -1.26375 1.40805 0
M  V30 4840 O 465.104 -1.7683 0.49769 0
M  V30 4841 C 465.166 -0.235096 3.5873 0
M  V30 4842 C 464.83 0.973024 4.46521 0
M  V30 4843 C 465.827 1.8779 4.848 0
M  V30 4844 C 463.512 1.18694 4.88075 0
M  V30 4845 C 465.506 2.98039 5.63428 0
M  V30 4846 C 463.193 2.29254 5.66468 0
M  V30 4847 C 464.191 3.18757 6.04055 0
M  V30 4848 O 463.879 4.27401 6.8087 0
M  V30 4849 H 463.611 0.041587 0.67472 0
M  V30 4850 H 466.165 0.766748 1.90552 0
M  V30 4851 H 464.395 -1.02191 3.72953 0
M  V30 4852 H 466.084 -0.700477 3.9981 0
M  V30 4853 H 466.85 1.72467 4.53299 0
M  V30 4854 H 462.729 0.49947 4.58286 0
M  V30 4855 H 466.273 3.67926 5.92685 0
M  V30 4856 H 462.17 2.4455 5.97382 0
M  V30 4857 H 462.938 4.25415 6.9926 0
M  V30 4858 N 465.601 -1.54893 0.290851 0
M  V30 4859 C 466.531 -2.26103 -0.583084 0
M  V30 4860 C 467.512 -1.25684 -1.14619 0
M  V30 4861 O 468.697 -1.54436 -1.17741 0
M  V30 4862 C 465.827 -2.99409 -1.75987 0
M  V30 4863 C 464.781 -4.0689 -1.32758 0
M  V30 4864 C 464.107 -4.67856 -2.58872 0
M  V30 4865 C 465.407 -5.20215 -0.46624 0
M  V30 4866 H 467.101 -2.99398 0.0108214 0
M  V30 4867 H 464.647 -1.43998 0.00664468 0
M  V30 4868 H 466.6 -3.47943 -2.37727 0
M  V30 4869 H 465.324 -2.23675 -2.37985 0
M  V30 4870 H 463.983 -3.59191 -0.733299 0
M  V30 4871 H 463.631 -3.88772 -3.19163 0
M  V30 4872 H 463.331 -5.40438 -2.30653 0
M  V30 4873 H 464.855 -5.19147 -3.21433 0
M  V30 4874 H 466.269 -5.64704 -0.989047 0
M  V30 4875 H 464.666 -5.99455 -0.27826 0
M  V30 4876 H 465.736 -4.82198 0.511173 0
M  V30 4877 N 467.08 -0.0183926 -1.57589 0
M  V30 4878 C 468.01 0.965596 -2.12599 0
M  V30 4879 C 468.991 1.34641 -1.0395 0
M  V30 4880 O 470.176 1.42693 -1.31729 0
M  V30 4881 C 467.306 2.25149 -2.64434 0
M  V30 4882 C 466.26 2.01175 -3.77773 0
M  V30 4883 C 465.586 3.35937 -4.15994 0
M  V30 4884 C 466.886 1.35953 -5.04296 0
M  V30 4885 H 468.58 0.507504 -2.95067 0
M  V30 4886 H 466.126 0.242671 -1.41941 0
M  V30 4887 H 468.079 2.94357 -3.01549 0
M  V30 4888 H 466.803 2.73105 -1.79112 0
M  V30 4889 H 465.462 1.34388 -3.4108 0
M  V30 4890 H 465.11 3.81631 -3.27669 0
M  V30 4891 H 464.81 3.20705 -4.92364 0
M  V30 4892 H 466.334 4.0643 -4.55683 0
M  V30 4893 H 467.748 1.95144 -5.39065 0
M  V30 4894 H 466.145 1.31152 -5.85593 0
M  V30 4895 H 467.215 0.331071 -4.83768 0
M  V30 4896 N 468.558 1.5553 0.254621 0
M  V30 4897 C 469.488 1.9268 1.31897 0
M  V30 4898 C 470.469 0.790797 1.506 0
M  V30 4899 O 471.654 1.05045 1.63337 0
M  V30 4900 C 468.784 2.21477 2.67517 0
M  V30 4901 C 467.738 3.37256 2.63519 0
M  V30 4902 C 467.064 3.51576 4.02862 0
M  V30 4903 C 468.364 4.73157 2.21179 0
M  V30 4904 H 470.058 2.81832 1.01051 0
M  V30 4905 H 467.604 1.35599 0.484662 0
M  V30 4906 H 469.557 2.46055 3.42104 0
M  V30 4907 H 468.281 1.29144 2.99982 0
M  V30 4908 H 466.94 3.12675 1.9139 0
M  V30 4909 H 466.588 2.56676 4.32581 0
M  V30 4910 H 466.288 4.2943 4.01078 0
M  V30 4911 H 467.812 3.78467 4.79161 0
M  V30 4912 H 469.226 4.97158 2.85494 0
M  V30 4913 H 467.623 5.54058 2.30521 0
M  V30 4914 H 468.693 4.70739 1.16332 0
M  V30 4915 N 470.036 -0.519951 1.48776 0
M  V30 4916 C 470.983 -1.62352 1.64044 0
M  V30 4917 C 471.953 -1.58945 0.482251 0
M  V30 4918 O 473.138 -1.77219 0.706971 0
M  V30 4919 C 470.278 -3.00579 1.69547 0
M  V30 4920 C 469.391 -3.14145 2.96541 0
M  V30 4921 C 468.526 -4.42991 2.93142 0
M  V30 4922 C 467.565 -4.50122 4.14797 0
M  V30 4923 N 466.702 -5.7037 4.09418 0
M  V30 4924 H 471.542 -1.48643 2.58281 0
M  V30 4925 H 469.079 -0.723516 1.28077 0
M  V30 4926 H 471.037 -3.80671 1.70719 0
M  V30 4927 H 469.667 -3.13036 0.787918 0
M  V30 4928 H 468.719 -2.27239 3.05068 0
M  V30 4929 H 470.031 -3.15275 3.86527 0
M  V30 4930 H 469.185 -5.31385 2.92772 0
M  V30 4931 H 467.924 -4.44398 2.00902 0
M  V30 4932 H 466.929 -3.60133 4.15433 0
M  V30 4933 H 468.154 -4.50445 5.08208 0
M  V30 4934 H 466.1 -5.72655 3.20004 0
M  V30 4935 H 466.017 -5.73036 4.93119 0
M  V30 4936 H 467.285 -6.61023 4.13121 0
M  V30 4937 N 471.514 -1.37532 -0.769588 0
M  V30 4938 C 472.424 -1.35668 -1.91393 0
M  V30 4939 C 473.44 -0.255954 -1.72107 0
M  V30 4940 O 474.616 -0.491704 -1.95305 0
M  V30 4941 C 471.681 -1.16481 -3.26547 0
M  V30 4942 C 470.742 -2.36212 -3.58472 0
M  V30 4943 C 469.975 -2.17932 -4.87177 0
M  V30 4944 O 470.198 -1.1647 -5.58382 0
M  V30 4945 O 469.132 -3.06167 -5.18214 0
M  V30 4946 H 472.958 -2.32055 -1.95918 0
M  V30 4947 H 470.543 -1.18284 -0.912641 0
M  V30 4948 H 472.425 -1.07778 -4.07384 0
M  V30 4949 H 471.1 -0.231687 -3.2287 0
M  V30 4950 H 470.007 -2.50488 -2.77861 0
M  V30 4951 H 471.34 -3.281 -3.66894 0
M  V30 4952 N 472.992 0.995999 -1.22138 0
M  V30 4953 C 474.408 1.25917 -0.980667 0
M  V30 4954 C 474.608 1.98819 0.327604 0
M  V30 4955 O 473.664 2.29587 1.05101 0
M  V30 4956 C 474.977 2.07399 -2.17729 0
M  V30 4957 C 476.525 2.20594 -2.22052 0
M  V30 4958 C 477 3.05462 -3.41258 0
M  V30 4959 N 478.491 3.13049 -3.41401 0
M  V30 4960 C 479.226 3.78997 -4.30289 0
M  V30 4961 N 478.722 4.46899 -5.2939 0
M  V30 4962 N 480.515 3.75728 -4.18073 0
M  V30 4963 H 472.666 0.507158 -2.06256 0
M  V30 4964 H 474.929 0.28658 -0.903646 0
M  V30 4965 H 474.635 1.61191 -3.12586 0
M  V30 4966 H 474.509 3.08154 -2.17534 0
M  V30 4967 H 476.896 2.66017 -1.27745 0
M  V30 4968 H 476.977 1.1928 -2.26287 0
M  V30 4969 H 476.621 2.60739 -4.35864 0
M  V30 4970 H 476.551 4.06911 -3.34262 0
M  V30 4971 H 479.042 2.64721 -2.69688 0
M  V30 4972 H 479.355 4.94952 -5.935 0
M  V30 4973 H 477.7 4.45657 -5.33306 0
M  V30 4974 H 480.891 3.2184 -3.39907 0
M  V30 4975 H 481.064 4.26845 -4.87553 0
M  V30 4976 N 474.47 1.03057 1.19235 0
M  V30 4977 C 475.433 0.617418 2.20727 0
M  V30 4978 C 476.433 -0.319856 1.57587 0
M  V30 4979 O 477.623 -0.106633 1.73873 0
M  V30 4980 C 474.755 -0.096296 3.40764 0
M  V30 4981 H 475.948 1.51544 2.58794 0
M  V30 4982 H 473.501 0.821949 1.32942 0
M  V30 4983 H 474.236 -1.00859 3.08217 0
M  V30 4984 H 474.021 0.577217 3.87828 0
M  V30 4985 H 475.511 -0.372219 4.15938 0
M  V30 4986 N 475.948 -1.35272 0.808662 0
M  V30 4987 C 476.895 -2.29764 0.218482 0
M  V30 4988 C 477.865 -1.52911 -0.648652 0
M  V30 4989 O 479.05 -1.81341 -0.593297 0
M  V30 4990 C 476.19 -3.39388 -0.625282 0
M  V30 4991 C 475.303 -4.31202 0.262516 0
M  V30 4992 C 474.438 -5.27919 -0.589451 0
M  V30 4993 C 473.477 -6.11371 0.298617 0
M  V30 4994 N 472.614 -7.0022 -0.513443 0
M  V30 4995 H 477.454 -2.79645 1.02968 0
M  V30 4996 H 474.991 -1.37629 0.519303 0
M  V30 4997 H 476.949 -4.01615 -1.12966 0
M  V30 4998 H 475.579 -2.90777 -1.40173 0
M  V30 4999 H 474.631 -3.69962 0.885013 0
M  V30 5000 H 475.943 -4.89748 0.945971 0
M  V30 5001 H 475.097 -5.95529 -1.15888 0
M  V30 5002 H 473.836 -4.69875 -1.30647 0
M  V30 5003 H 472.841 -5.42707 0.880301 0
M  V30 5004 H 474.066 -6.71494 1.01352 0
M  V30 5005 H 472.012 -6.44662 -1.21439 0
M  V30 5006 H 471.929 -7.55917 0.111922 0
M  V30 5007 H 473.197 -7.72175 -1.06608 0
M  V30 5008 N 477.426 -0.562348 -1.47226 0
M  V30 5009 C 478.389 0.172056 -2.28553 0
M  V30 5010 C 479.389 0.837928 -1.37242 0
M  V30 5011 O 480.579 0.693001 -1.59822 0
M  V30 5012 C 477.711 1.25223 -3.17068 0
M  V30 5013 H 478.904 -0.542401 -2.94954 0
M  V30 5014 H 476.457 -0.319493 -1.53 0
M  V30 5015 H 477.192 1.99892 -2.55369 0
M  V30 5016 H 476.977 0.779515 -3.84273 0
M  V30 5017 H 478.467 1.76791 -3.78332 0
M  V30 5018 N 478.904 1.54736 -0.299062 0
M  V30 5019 C 480.151 2.00101 0.310784 0
M  V30 5020 C 480.479 1.18746 1.54045 0
M  V30 5021 O 479.734 0.251198 1.94081 0
M  V30 5022 C 480.033 3.50199 0.713835 0
M  V30 5023 C 479.699 4.48997 -0.413873 0
M  V30 5024 C 478.361 4.7573 -0.723462 0
M  V30 5025 C 480.713 5.07839 -1.17257 0
M  V30 5026 C 478.041 5.5857 -1.79491 0
M  V30 5027 C 480.393 5.91844 -2.23392 0
M  V30 5028 C 479.057 6.16889 -2.54959 0
M  V30 5029 H 478.327 0.732221 0.113724 0
M  V30 5030 H 480.974 1.86888 -0.417756 0
M  V30 5031 H 479.279 3.61012 1.52243 0
M  V30 5032 H 480.976 3.82723 1.19684 0
M  V30 5033 H 477.566 4.28292 -0.162476 0
M  V30 5034 H 481.75 4.87188 -0.946651 0
M  V30 5035 H 477.006 5.76213 -2.04423 0
M  V30 5036 H 481.18 6.36465 -2.8264 0
M  V30 5037 H 478.807 6.80869 -3.38114 0
M  V30 5038 N 480.382 0.0267497 1.57577 0
M  V30 5039 C 481.798 -0.32962 1.56159 0
M  V30 5040 C 481.998 -1.73059 1.03213 0
M  V30 5041 O 481.054 -2.43233 0.677804 0
M  V30 5042 C 482.367 -0.18039 3.00158 0
M  V30 5043 C 483.915 -0.253334 3.11973 0
M  V30 5044 C 484.39 -0.132921 4.57807 0
M  V30 5045 N 485.881 -0.189979 4.6281 0
M  V30 5046 C 486.616 -0.120554 5.73273 0
M  V30 5047 N 486.112 -0.000180315 6.928 0
M  V30 5048 N 487.905 -0.174369 5.61829 0
M  V30 5049 H 480.056 0.942896 1.90324 0
M  V30 5050 H 482.319 0.3639 0.875375 0
M  V30 5051 H 482.025 0.784576 3.42837 0
M  V30 5052 H 481.899 -0.951565 3.65 0
M  V30 5053 H 484.286 -1.20876 2.69208 0
M  V30 5054 H 484.367 0.548177 2.49857 0
M  V30 5055 H 484.011 0.819073 5.01252 0
M  V30 5056 H 483.941 -0.953264 5.179 0
M  V30 5057 H 486.432 -0.283257 3.76837 0
M  V30 5058 H 486.745 0.0461666 7.72786 0
M  V30 5059 H 485.09 0.034569 6.94991 0
M  V30 5060 H 488.281 -0.266794 4.67339 0
M  V30 5061 H 488.454 -0.116802 6.47895 0
M  V30 5062 N 481.861 -1.55662 -0.24637 0
M  V30 5063 C 482.824 -1.89558 -1.28842 0
M  V30 5064 C 483.824 -0.772082 -1.41052 0
M  V30 5065 O 485.014 -1.04007 -1.39743 0
M  V30 5066 C 482.146 -2.12449 -2.66605 0
M  V30 5067 H 483.339 -2.82735 -1.00004 0
M  V30 5068 H 480.892 -1.48562 -0.485684 0
M  V30 5069 H 481.627 -1.21742 -3.00582 0
M  V30 5070 H 481.412 -2.94273 -2.59125 0
M  V30 5071 H 482.902 -2.39854 -3.41847 0
M  V30 5072 N 483.339 0.512053 -1.4905 0
M  V30 5073 C 484.616 1.27337 -1.48474 0
M  V30 5074 C 484.996 2.1009 -0.206301 0
M  V30 5075 O 484.344 2.136 0.811609 0
M  V30 5076 C 484.554 2.13954 -2.75726 0
M  V30 5077 C 485.902 2.73507 -3.24776 0
M  V30 5078 O 486.926 2.24229 -2.76767 0
M  V30 5079 O 485.785 3.63186 -4.08361 0
M  V30 5080 H 482.879 0.575652 -0.593762 0
M  V30 5081 H 485.425 0.527232 -1.61302 0
M  V30 5082 H 484.197 1.52709 -3.60272 0
M  V30 5083 H 483.82 2.95782 -2.65705 0
M  V30 5084 N 484.817 1.37938 0.762283 0
M  V30 5085 C 486.228 1.30094 1.33912 0
M  V30 5086 C 486.579 -0.0472026 1.96143 0
M  V30 5087 O 485.704 -0.94917 1.94473 0
M  V30 5088 C 486.299 2.35592 2.43478 0
M  V30 5089 C 484.858 2.31353 2.96905 0
M  V30 5090 C 484.005 2.18919 1.70205 0
M  V30 5091 H 486.956 1.48423 0.561816 0
M  V30 5092 H 486.977 2.00806 3.23199 0
M  V30 5093 H 486.489 3.33701 1.98155 0
M  V30 5094 H 484.59 1.36799 3.46579 0
M  V30 5095 H 484.703 3.25147 3.51875 0
M  V30 5096 H 483.067 1.65624 1.93496 0
M  V30 5097 H 483.85 3.18956 1.26973 0
M  V30 5098 N 486.295 -0.989507 1.22664 0
M  V30 5099 C 487.205 -2.11449 1.01619 0
M  V30 5100 C 488.221 -1.73962 -0.036545 0
M  V30 5101 O 489.397 -2.00788 0.156924 0
M  V30 5102 C 486.462 -3.41465 0.600204 0
M  V30 5103 C 485.523 -3.93033 1.72695 0
M  V30 5104 C 484.756 -5.16844 1.33071 0
M  V30 5105 O 484.979 -5.7001 0.210975 0
M  V30 5106 O 483.913 -5.6225 2.14845 0
M  V30 5107 H 487.739 -2.32088 1.9588 0
M  V30 5108 H 485.324 -1.09823 1.01289 0
M  V30 5109 H 487.206 -4.19695 0.37873 0
M  V30 5110 H 485.881 -3.22178 -0.313511 0
M  V30 5111 H 484.788 -3.15961 2.00298 0
M  V30 5112 H 486.121 -4.16758 2.61865 0
M  V30 5113 N 487.773 -1.03688 -1.18687 0
M  V30 5114 C 489.019 -0.739123 -1.88851 0
M  V30 5115 C 489.352 0.731042 -1.79915 0
M  V30 5116 O 488.627 1.53313 -1.19688 0
M  V30 5117 C 488.91 -1.20106 -3.3948 0
M  V30 5118 C 488.763 -2.73304 -3.57246 0
M  V30 5119 C 490.082 -0.788134 -4.32986 0
M  V30 5120 H 487.201 -0.269978 -0.68577 0
M  V30 5121 H 489.843 -1.28822 -1.3966 0
M  V30 5122 H 487.993 -0.733915 -3.81505 0
M  V30 5123 H 489.665 -3.28027 -3.24339 0
M  V30 5124 H 487.908 -3.13313 -3.00029 0
M  V30 5125 H 488.579 -3.00684 -4.62918 0
M  V30 5126 H 491.055 -1.19005 -3.98719 0
M  V30 5127 H 489.931 -1.13915 -5.36949 0
M  V30 5128 H 490.192 0.308988 -4.41019 0
M  V30 5129 N 489.251 1.34841 -0.815825 0
M  V30 5130 C 490.183 2.28409 -0.190265 0
M  V30 5131 C 491.196 1.50705 0.615771 0
M  V30 5132 O 492.385 1.72822 0.446616 0
M  V30 5133 C 489.485 3.30441 0.752446 0
M  V30 5134 C 488.658 4.37399 -0.00922152 0
M  V30 5135 C 487.717 5.19234 0.853351 0
M  V30 5136 O 486.743 5.68404 0.300919 0
M  V30 5137 N 487.945 5.38248 2.17416 0
M  V30 5138 H 490.71 2.82732 -0.994114 0
M  V30 5139 H 488.271 1.47289 -0.672129 0
M  V30 5140 H 490.263 3.82084 1.33394 0
M  V30 5141 H 488.833 2.76565 1.45707 0
M  V30 5142 H 488.053 3.86567 -0.771979 0
M  V30 5143 H 489.341 5.05992 -0.533807 0
M  V30 5144 H 488.739 4.99961 2.6468 0
M  V30 5145 H 487.296 5.93035 2.70467 0
M  V30 5146 N 490.729 0.570148 1.46925 0
M  V30 5147 C 491.639 -0.173061 2.33961 0
M  V30 5148 C 492.655 -0.898825 1.48987 0
M  V30 5149 O 493.831 -0.864825 1.81887 0
M  V30 5150 C 490.896 -1.18177 3.25937 0
M  V30 5151 C 489.957 -0.462041 4.26806 0
M  V30 5152 C 489.19 -1.4227 5.14388 0
M  V30 5153 O 489.413 -2.65842 5.04662 0
M  V30 5154 O 488.347 -0.940127 5.94513 0
M  V30 5155 H 492.173 0.541216 2.98839 0
M  V30 5156 H 489.758 0.330647 1.45695 0
M  V30 5157 H 491.64 -1.76372 3.82715 0
M  V30 5158 H 490.315 -1.87774 2.63671 0
M  V30 5159 H 489.222 0.161429 3.73752 0
M  V30 5160 H 490.555 0.192719 4.91823 0
M  V30 5161 N 492.207 -1.54576 0.307264 0
M  V30 5162 C 493.17 -2.22423 -0.553224 0
M  V30 5163 C 494.17 -1.21231 -1.05639 0
M  V30 5164 O 495.36 -1.45923 -0.951419 0
M  V30 5165 C 492.492 -2.91552 -1.76664 0
M  V30 5166 H 493.685 -2.99874 0.0396484 0
M  V30 5167 H 491.238 -1.56192 0.0581629 0
M  V30 5168 H 491.973 -2.18196 -2.39918 0
M  V30 5169 H 491.758 -3.65738 -1.41343 0
M  V30 5170 H 493.248 -3.43292 -2.37783 0
M  V30 5171 N 493.685 -0.035106 -1.57561 0
M  V30 5172 C 494.615 0.942993 -2.13612 0
M  V30 5173 C 495.596 1.33531 -1.05373 0
M  V30 5174 O 496.781 1.41287 -1.33235 0
M  V30 5175 C 493.911 2.22332 -2.66807 0
M  V30 5176 C 492.865 1.97156 -3.79886 0
M  V30 5177 C 492.191 3.31506 -4.19533 0
M  V30 5178 C 493.491 1.30596 -5.05709 0
M  V30 5179 H 495.185 0.476179 -2.95589 0
M  V30 5180 H 492.731 0.227602 -1.4219 0
M  V30 5181 H 494.684 2.91142 -3.04654 0
M  V30 5182 H 493.408 2.7119 -1.81999 0
M  V30 5183 H 492.067 1.30763 -3.42486 0
M  V30 5184 H 491.715 3.78134 -3.31698 0
M  V30 5185 H 491.415 3.15465 -4.95738 0
M  V30 5186 H 492.939 4.01574 -4.59968 0
M  V30 5187 H 494.353 1.89416 -5.41105 0
M  V30 5188 H 492.75 1.24934 -5.86951 0
M  V30 5189 H 493.82 0.279742 -4.84092 0
M  V30 5190 N 495.163 1.55791 0.238111 0
M  V30 5191 C 496.126 1.90239 1.27835 0
M  V30 5192 C 497.126 0.779552 1.4064 0
M  V30 5193 O 498.316 1.04747 1.3919 0
M  V30 5194 C 495.448 2.13859 2.65475 0
M  V30 5195 H 496.641 2.83262 0.985034 0
M  V30 5196 H 494.194 1.48818 0.477799 0
M  V30 5197 H 494.929 1.23334 2.99932 0
M  V30 5198 H 494.714 2.95643 2.57561 0
M  V30 5199 H 496.204 2.41664 3.40571 0
M  V30 5200 N 496.642 -0.504142 1.49319 0
M  V30 5201 C 497.605 -1.5883 1.65244 0
M  V30 5202 C 498.605 -1.52009 0.524386 0
M  V30 5203 O 499.795 -1.55218 0.79077 0
M  V30 5204 C 496.927 -2.98481 1.64687 0
M  V30 5205 H 498.12 -1.4604 2.61939 0
M  V30 5206 H 495.673 -0.728144 1.38303 0
M  V30 5207 H 496.408 -3.16751 0.695644 0
M  V30 5208 H 496.193 -3.0484 2.46607 0
M  V30 5209 H 497.683 -3.77256 1.79075 0
M  V30 5210 N 498.12 -1.38341 -0.754957 0
M  V30 5211 C 499.345 -1.37882 -1.5493 0
M  V30 5212 C 499.77 0.0296385 -1.88077 0
M  V30 5213 O 499.128 1.01133 -1.50472 0
M  V30 5214 C 499.176 -2.23996 -2.82592 0
M  V30 5215 O 498.28 -1.65612 -3.77686 0
M  V30 5216 H 497.621 -0.470384 -0.468652 0
M  V30 5217 H 500.151 -1.82084 -0.933082 0
M  V30 5218 H 500.161 -2.37806 -3.3153 0
M  V30 5219 H 498.836 -3.26365 -2.57796 0
M  V30 5220 H 497.413 -1.60936 -3.36384 0
M  V30 5221 N 499.598 0.982988 -1.23187 0
M  V30 5222 C 500.545 2.07491 -1.01075 0
M  V30 5223 C 501.515 1.65949 0.070905 0
M  V30 5224 O 502.7 1.90629 -0.0806822 0
M  V30 5225 C 499.84 3.39751 -0.605261 0
M  V30 5226 C 498.953 3.94578 -1.75876 0
M  V30 5227 C 498.088 5.15039 -1.3003 0
M  V30 5228 C 497.127 5.62027 -2.42472 0
M  V30 5229 N 496.264 6.73719 -1.97602 0
M  V30 5230 H 501.104 2.25739 -1.9454 0
M  V30 5231 H 498.641 1.10659 -0.969179 0
M  V30 5232 H 500.599 4.15719 -0.351279 0
M  V30 5233 H 499.229 3.21473 0.292382 0
M  V30 5234 H 498.281 3.1539 -2.12681 0
M  V30 5235 H 499.593 4.25422 -2.60418 0
M  V30 5236 H 498.747 5.9833 -1.00429 0
M  V30 5237 H 497.486 4.85843 -0.425216 0
M  V30 5238 H 496.491 4.77318 -2.7285 0
M  V30 5239 H 497.716 5.93244 -3.30512 0
M  V30 5240 H 495.662 6.46287 -1.1247 0
M  V30 5241 H 495.579 7.03934 -2.75705 0
M  V30 5242 H 496.847 7.6049 -1.71098 0
M  V30 5243 N 501.076 1.04316 1.18135 0
M  V30 5244 C 502.322 0.749128 1.88457 0
M  V30 5245 C 502.655 -0.72149 1.803 0
M  V30 5246 O 501.93 -1.52676 1.205 0
M  V30 5247 C 502.213 1.21905 3.38838 0
M  V30 5248 C 502.066 2.75195 3.55792 0
M  V30 5249 C 503.385 0.811085 4.32561 0
M  V30 5250 H 500.504 0.273611 0.684329 0
M  V30 5251 H 503.146 1.29561 1.38975 0
M  V30 5252 H 501.296 0.754137 3.8111 0
M  V30 5253 H 502.968 3.29743 3.22595 0
M  V30 5254 H 501.211 3.14899 2.98364 0
M  V30 5255 H 501.882 3.03135 4.61317 0
M  V30 5256 H 504.358 1.21118 3.98082 0
M  V30 5257 H 503.234 1.16761 5.36338 0
M  V30 5258 H 503.495 -0.285596 4.41177 0
M  V30 5259 N 502.554 -1.34406 0.822964 0
M  V30 5260 C 503.517 -2.2783 0.250271 0
M  V30 5261 C 504.517 -1.50288 -0.571854 0
M  V30 5262 O 505.707 -1.69825 -0.387952 0
M  V30 5263 C 502.839 -3.34663 -0.649137 0
M  V30 5264 H 504.032 -2.79992 1.07444 0
M  V30 5265 H 501.585 -1.44539 0.594829 0
M  V30 5266 H 502.32 -2.87714 -1.49637 0
M  V30 5267 H 502.105 -3.92052 -0.0611199 0
M  V30 5268 H 503.595 -4.04349 -1.04363 0
M  V30 5269 N 504.032 -0.577932 -1.46621 0
M  V30 5270 C 504.942 0.160651 -2.34049 0
M  V30 5271 C 505.958 0.890911 -1.49462 0
M  V30 5272 O 507.134 0.855166 -1.82343 0
M  V30 5273 C 504.199 1.16447 -3.26559 0
M  V30 5274 C 503.26 0.4394 -4.27045 0
M  V30 5275 C 502.493 1.3954 -5.15135 0
M  V30 5276 O 502.716 2.63162 -5.06065 0
M  V30 5277 O 501.65 0.908585 -5.95003 0
M  V30 5278 H 505.476 -0.557057 -2.98547 0
M  V30 5279 H 503.061 -0.338369 -1.45518 0
M  V30 5280 H 504.943 1.7434 -3.83645 0
M  V30 5281 H 503.618 1.86373 -2.64663 0
M  V30 5282 H 502.525 -0.181247 -3.73661 0
M  V30 5283 H 503.858 -0.218799 -4.91713 0
M  V30 5284 N 505.51 1.54411 -0.315457 0
M  V30 5285 C 506.44 2.27002 0.547039 0
M  V30 5286 C 507.421 1.27492 1.12605 0
M  V30 5287 O 508.606 1.5629 1.15269 0
M  V30 5288 C 505.736 3.02171 1.71201 0
M  V30 5289 C 504.69 4.0895 1.26268 0
M  V30 5290 C 504.016 4.71915 2.51396 0
M  V30 5291 C 505.316 5.20891 0.383419 0
M  V30 5292 H 507.01 2.99343 -0.0584517 0
M  V30 5293 H 504.556 1.4397 -0.0295527 0
M  V30 5294 H 506.509 3.51681 2.32161 0
M  V30 5295 H 505.233 2.27433 2.34397 0
M  V30 5296 H 503.892 3.60312 0.676062 0
M  V30 5297 H 503.54 3.93801 3.12937 0
M  V30 5298 H 503.24 5.44039 2.22026 0
M  V30 5299 H 504.764 5.24195 3.13133 0
M  V30 5300 H 506.178 5.66206 0.899082 0
M  V30 5301 H 504.575 5.99821 0.182857 0
M  V30 5302 H 505.645 4.81324 -0.587821 0
M  V30 5303 N 506.988 0.0434614 1.5754 0
M  V30 5304 C 507.935 -0.93356 2.11077 0
M  V30 5305 C 508.905 -1.31383 1.01626 0
M  V30 5306 O 510.09 -1.40465 1.29129 0
M  V30 5307 C 507.23 -2.20578 2.65404 0
M  V30 5308 C 506.343 -1.88068 3.88914 0
M  V30 5309 C 505.478 -3.09691 4.31584 0
M  V30 5310 C 504.517 -2.73067 5.47815 0
M  V30 5311 N 503.654 -3.87359 5.85574 0
M  V30 5312 H 508.494 -0.470118 2.94268 0
M  V30 5313 H 506.031 -0.220434 1.45439 0
M  V30 5314 H 507.989 -2.95011 2.94999 0
M  V30 5315 H 506.619 -2.64513 1.85021 0
M  V30 5316 H 505.671 -1.03816 3.6596 0
M  V30 5317 H 506.983 -1.57104 4.73413 0
M  V30 5318 H 506.137 -3.92431 4.62691 0
M  V30 5319 H 504.876 -3.43827 3.45882 0
M  V30 5320 H 503.881 -1.88742 5.16388 0
M  V30 5321 H 505.106 -2.40131 6.35227 0
M  V30 5322 H 503.052 -4.21311 5.02825 0
M  V30 5323 H 502.969 -3.60068 6.64746 0
M  V30 5324 H 504.237 -4.70761 6.21292 0
M  V30 5325 N 508.466 -1.55915 -0.229846 0
M  V30 5326 C 509.694 -1.82617 -0.972562 0
M  V30 5327 C 510.109 -0.621488 -1.78278 0
M  V30 5328 O 509.466 0.409956 -1.77836 0
M  V30 5329 C 509.517 -3.0774 -1.89679 0
M  V30 5330 O 509.238 -4.23559 -1.11934 0
M  V30 5331 C 510.739 -3.47368 -2.75409 0
M  V30 5332 H 507.959 -0.60727 -0.285419 0
M  V30 5333 H 510.503 -2.02996 -0.247579 0
M  V30 5334 H 508.658 -2.89361 -2.57583 0
M  V30 5335 H 509.072 -4.94586 -1.74599 0
M  V30 5336 H 510.546 -4.37977 -3.35977 0
M  V30 5337 H 511.023 -2.68737 -3.47386 0
M  V30 5338 H 511.629 -3.68158 -2.12931 0
M  V30 5339 N 509.944 0.496216 -1.49584 0
M  V30 5340 C 511.355 1.07765 -1.52459 0
M  V30 5341 C 511.706 1.93679 -0.31353 0
M  V30 5342 O 510.831 2.08588 0.576186 0
M  V30 5343 C 511.426 1.96111 -2.76271 0
M  V30 5344 C 509.985 2.49409 -2.81908 0
M  V30 5345 C 509.132 1.27142 -2.46435 0
M  V30 5346 H 512.083 0.279914 -1.56212 0
M  V30 5347 H 512.104 2.80862 -2.56704 0
M  V30 5348 H 511.616 1.33555 -3.64396 0
M  V30 5349 H 509.717 3.1559 -1.98074 0
M  V30 5350 H 509.83 2.86234 -3.84196 0
M  V30 5351 H 508.194 1.59818 -1.98319 0
M  V30 5352 H 508.977 0.662866 -3.3684 0
M  V30 5353 N 511.423 1.38739 0.74761 0
M  V30 5354 C 512.651 1.38521 1.53686 0
M  V30 5355 C 513.066 -0.0235129 1.88785 0
M  V30 5356 O 512.423 -0.991662 1.53207 0
M  V30 5357 C 512.474 2.24641 2.83229 0
M  V30 5358 O 512.195 3.60026 2.49625 0
M  V30 5359 C 513.696 2.32669 3.77333 0
M  V30 5360 H 510.916 0.473589 0.475347 0
M  V30 5361 H 513.46 1.82395 0.924786 0
M  V30 5362 H 511.615 1.84213 3.40799 0
M  V30 5363 H 512.029 4.05435 3.3275 0
M  V30 5364 H 513.503 2.97201 4.65162 0
M  V30 5365 H 513.98 1.3421 4.18192 0
M  V30 5366 H 514.586 2.73512 3.25685 0
M  V30 5367 N 512.901 -0.976442 1.23707 0
M  V30 5368 C 513.831 -2.08749 1.04624 0
M  V30 5369 C 514.812 -1.70057 -0.0380956 0
M  V30 5370 O 515.997 -1.93782 0.127308 0
M  V30 5371 C 513.127 -3.41335 0.640902 0
M  V30 5372 C 512.081 -3.93947 1.67302 0
M  V30 5373 C 511.407 -5.22774 1.12301 0
M  V30 5374 C 512.707 -4.22769 3.06697 0
M  V30 5375 H 514.401 -2.24972 1.97555 0
M  V30 5376 H 511.947 -1.08108 0.951247 0
M  V30 5377 H 513.9 -4.18489 0.494434 0
M  V30 5378 H 512.624 -3.24988 -0.324099 0
M  V30 5379 H 511.283 -3.18941 1.80755 0
M  V30 5380 H 510.931 -5.0278 0.148877 0
M  V30 5381 H 510.631 -5.58942 1.81267 0
M  V30 5382 H 512.155 -6.02546 0.988479 0
M  V30 5383 H 513.569 -4.90659 2.96524 0
M  V30 5384 H 511.966 -4.70147 3.72937 0
M  V30 5385 H 513.036 -3.29885 3.55392 0
M  V30 5386 N 514.379 -1.04941 -1.1758 0
M  V30 5387 C 515.327 -0.64204 -2.23563 0
M  V30 5388 C 516.321 0.335453 -1.66045 0
M  V30 5389 O 517.527 0.20179 -1.78865 0
M  V30 5390 H 513.902 -0.18944 -0.727748 0
M  V30 5391 H 515.873 -1.54609 -2.55223 0
M  V30 5392 C 514.622 -0.0301051 -3.47687 0
M  V30 5393 H 513.945 -0.773339 -3.92249 0
M  V30 5394 H 515.385 0.217592 -4.23441 0
M  V30 5395 C 513.844 1.2225 -3.13937 0
M  V30 5396 O 514.374 2.3122 -3.28482 0
M  V30 5397 N 512.58 1.11917 -2.68185 0
M  V30 5398 H 512.127 0.232403 -2.5655 0
M  V30 5399 H 512.085 1.95814 -2.45976 0
M  V30 5400 N 515.857 1.33968 -0.830081 0
M  V30 5401 C 517.268 1.80439 -0.479455 0
M  V30 5402 C 517.619 1.68756 1.00079 0
M  V30 5403 O 516.744 1.23171 1.77927 0
M  V30 5404 C 517.339 3.27611 -0.863505 0
M  V30 5405 C 515.898 3.72133 -0.565145 0
M  V30 5406 C 515.045 2.55549 -1.07657 0
M  V30 5407 H 517.996 1.21614 -1.0196 0
M  V30 5408 H 518.017 3.8012 -0.170083 0
M  V30 5409 H 517.529 3.36082 -1.94089 0
M  V30 5410 H 515.63 3.69196 0.502536 0
M  V30 5411 H 515.743 4.65963 -1.11422 0
M  V30 5412 H 514.107 2.49788 -0.497807 0
M  V30 5413 H 514.89 2.66786 -2.16055 0
M  V30 5414 N 517.335 0.585699 1.46312 0
M  V30 5415 C 518.583 0.072278 2.01971 0
M  V30 5416 C 518.904 -1.29345 1.45928 0
M  V30 5417 O 518.174 -1.84973 0.645109 0
M  V30 5418 H 516.754 0.023729 0.746623 0
M  V30 5419 H 519.416 0.762155 1.7938 0
M  V30 5420 H 518.512 0.00552767 3.121 0
M  V30 5421 N 518.813 -1.54241 0.323641 0
M  V30 5422 C 519.723 -2.28033 -0.551205 0
M  V30 5423 C 520.739 -1.32388 -1.12913 0
M  V30 5424 O 521.915 -1.65403 -1.14908 0
M  V30 5425 C 518.98 -3.02382 -1.69606 0
M  V30 5426 C 518.041 -4.13612 -1.14993 0
M  V30 5427 C 517.274 -4.84407 -2.24022 0
M  V30 5428 O 517.497 -4.54716 -3.44368 0
M  V30 5429 O 516.431 -5.71312 -1.89436 0
M  V30 5430 H 520.257 -3.03662 0.048066 0
M  V30 5431 H 517.842 -1.49133 0.0893289 0
M  V30 5432 H 519.724 -3.48941 -2.36259 0
M  V30 5433 H 518.399 -2.29628 -2.28151 0
M  V30 5434 H 517.306 -3.71402 -0.448484 0
M  V30 5435 H 518.639 -4.8841 -0.609608 0
M  V30 5436 N 520.291 -0.0518155 -1.57515 0
M  V30 5437 C 521.539 0.620595 -1.92336 0
M  V30 5438 C 521.86 1.71345 -0.930907 0
M  V30 5439 O 521.13 1.95885 0.0241341 0
M  V30 5440 H 519.71 0.232226 -0.709986 0
M  V30 5441 H 522.372 -0.104969 -1.94617 0
M  V30 5442 H 521.468 1.05879 -2.93592 0
M  V30 5443 N 521.769 1.56035 0.221574 0
M  V30 5444 C 522.999 1.82864 0.961468 0
M  V30 5445 C 523.407 0.628703 1.78449 0
M  V30 5446 O 522.75 -0.412109 1.79018 0
M  V30 5447 C 522.812 3.03425 1.92804 0
M  V30 5448 C 522.476 4.38429 1.28954 0
M  V30 5449 C 523.473 5.15441 0.679431 0
M  V30 5450 C 521.158 4.85151 1.30131 0
M  V30 5451 C 523.152 6.37337 0.0896148 0
M  V30 5452 C 520.839 6.06989 0.707651 0
M  V30 5453 C 521.837 6.82923 0.102855 0
M  V30 5454 O 521.525 8.02456 -0.48157 0
M  V30 5455 H 521.257 0.611883 0.28736 0
M  V30 5456 H 523.811 2.0397 0.241932 0
M  V30 5457 H 522.041 2.78138 2.68656 0
M  V30 5458 H 523.73 3.17127 2.53348 0
M  V30 5459 H 524.496 4.80452 0.662661 0
M  V30 5460 H 520.375 4.26021 1.76145 0
M  V30 5461 H 523.919 6.96547 -0.383069 0
M  V30 5462 H 519.816 6.41451 0.721834 0
M  V30 5463 H 520.584 8.17636 -0.375887 0
M  V30 5464 N 523.247 -0.488276 1.49845 0
M  V30 5465 C 524.21 -1.57069 1.66919 0
M  V30 5466 C 525.21 -1.51445 0.540479 0
M  V30 5467 O 526.4 -1.5437 0.807188 0
M  V30 5468 C 523.532 -2.96718 1.67844 0
M  V30 5469 H 524.725 -1.43254 2.63474 0
M  V30 5470 H 522.278 -0.713435 1.39068 0
M  V30 5471 H 523.013 -3.15996 0.7292 0
M  V30 5472 H 522.798 -3.02208 2.49826 0
M  V30 5473 H 524.288 -3.75335 1.83066 0
M  V30 5474 N 524.725 -1.39134 -0.740242 0
M  V30 5475 C 525.635 -1.39697 -1.88473 0
M  V30 5476 C 526.651 -0.292403 -1.71526 0
M  V30 5477 O 527.827 -0.533021 -1.94219 0
M  V30 5478 C 524.892 -1.23382 -3.24003 0
M  V30 5479 C 523.953 -2.43763 -3.53381 0
M  V30 5480 C 523.186 -2.28216 -4.82445 0
M  V30 5481 O 523.409 -1.28288 -5.55786 0
M  V30 5482 O 522.343 -3.1709 -5.11603 0
M  V30 5483 H 526.169 -2.36159 -1.90952 0
M  V30 5484 H 523.754 -1.20194 -0.887346 0
M  V30 5485 H 525.636 -1.16395 -4.05006 0
M  V30 5486 H 524.311 -0.300121 -3.22306 0
M  V30 5487 H 523.218 -2.56325 -2.72485 0
M  V30 5488 H 524.551 -3.35808 -3.59852 0
M  V30 5489 N 526.204 0.969867 -1.24223 0
M  V30 5490 C 527.134 2.08191 -1.05729 0
M  V30 5491 C 528.115 1.70075 0.0290765 0
M  V30 5492 O 529.3 1.93712 -0.137583 0
M  V30 5493 C 526.43 3.40991 -0.658995 0
M  V30 5494 C 525.384 3.93054 -1.69389 0
M  V30 5495 C 524.71 5.22171 -1.15072 0
M  V30 5496 C 526.01 4.21137 -3.08935 0
M  V30 5497 H 527.704 2.23921 -1.98746 0
M  V30 5498 H 525.25 1.07602 -0.956967 0
M  V30 5499 H 527.203 4.18221 -0.51662 0
M  V30 5500 H 525.927 3.25155 0.30686 0
M  V30 5501 H 524.586 3.17977 -1.82444 0
M  V30 5502 H 524.234 5.02694 -0.175539 0
M  V30 5503 H 523.934 5.57973 -1.84229 0
M  V30 5504 H 525.458 6.02013 -1.02042 0
M  V30 5505 H 526.872 4.8908 -2.99121 0
M  V30 5506 H 525.269 4.68163 -3.75425 0
M  V30 5507 H 526.339 3.27996 -3.57137 0
M  V30 5508 N 527.682 1.05563 1.17022 0
M  V30 5509 C 528.612 0.681026 2.23348 0
M  V30 5510 C 529.593 -0.322983 1.67005 0
M  V30 5511 O 530.778 -0.199746 1.9317 0
M  V30 5512 C 527.908 0.0589053 3.4725 0
M  V30 5513 C 526.862 0.988082 4.16438 0
M  V30 5514 C 526.188 0.229646 5.34207 0
M  V30 5515 C 527.488 2.31388 4.68249 0
M  V30 5516 H 529.182 1.56993 2.54938 0
M  V30 5517 H 526.728 0.756302 1.2254 0
M  V30 5518 H 528.681 -0.214982 4.20851 0
M  V30 5519 H 527.405 -0.864968 3.14938 0
M  V30 5520 H 526.064 1.24659 3.44754 0
M  V30 5521 H 525.712 -0.697111 4.98146 0
M  V30 5522 H 525.412 0.848815 5.81437 0
M  V30 5523 H 526.936 -0.0368694 6.10589 0
M  V30 5524 H 528.35 2.09964 5.33468 0
M  V30 5525 H 526.747 2.88736 5.26072 0
M  V30 5526 H 527.817 2.94982 3.84855 0
M  V30 5527 N 529.16 -1.33526 0.837174 0
M  V30 5528 C 530.123 -2.27551 0.274421 0
M  V30 5529 C 531.123 -1.50886 -0.555881 0
M  V30 5530 O 532.313 -1.70227 -0.369918 0
M  V30 5531 C 529.445 -3.35332 -0.613605 0
M  V30 5532 H 530.638 -2.78837 1.10408 0
M  V30 5533 H 528.191 -1.439 0.610126 0
M  V30 5534 H 528.926 -2.89285 -1.46577 0
M  V30 5535 H 528.711 -3.92095 -0.0195341 0
M  V30 5536 H 530.201 -4.05433 -1.00068 0
M  V30 5537 N 530.638 -0.59345 -1.46 0
M  V30 5538 C 531.915 -0.0157933 -1.95594 0
M  V30 5539 C 532.295 1.44807 -1.53604 0
M  V30 5540 O 531.643 2.14342 -0.791824 0
M  V30 5541 C 531.853 -0.199081 -3.48432 0
M  V30 5542 C 533.201 -0.0724943 -4.24538 0
M  V30 5543 O 534.225 -0.128469 -3.55968 0
M  V30 5544 O 533.084 0.0542426 -5.46473 0
M  V30 5545 H 530.178 0.043749 -0.825842 0
M  V30 5546 H 532.724 -0.662522 -1.56233 0
M  V30 5547 H 531.496 -1.21631 -3.71916 0
M  V30 5548 H 531.119 0.483576 -3.94648 0
M  V30 5549 N 532.116 1.54067 -0.331816 0
M  V30 5550 C 533.532 1.59587 0.0205388 0
M  V30 5551 C 533.732 1.34813 1.49759 0
M  V30 5552 O 532.788 1.13661 2.25471 0
M  V30 5553 C 534.101 2.97959 -0.405103 0
M  V30 5554 C 535.649 3.10964 -0.356454 0
M  V30 5555 C 536.124 4.51694 -0.757384 0
M  V30 5556 N 537.615 4.57709 -0.71111 0
M  V30 5557 C 538.35 5.64729 -0.993427 0
M  V30 5558 N 537.846 6.79652 -1.3433 0
M  V30 5559 N 539.639 5.54546 -0.918442 0
M  V30 5560 H 531.79 1.68426 -1.29407 0
M  V30 5561 H 534.053 0.78819 -0.526745 0
M  V30 5562 H 533.759 3.21115 -1.43451 0
M  V30 5563 H 533.633 3.76524 0.225692 0
M  V30 5564 H 536.02 2.87538 0.663763 0
M  V30 5565 H 536.101 2.34484 -1.02229 0
M  V30 5566 H 535.745 4.75853 -1.77555 0
M  V30 5567 H 535.675 5.26555 -0.0691444 0
M  V30 5568 H 538.166 3.75176 -0.452883 0
M  V30 5569 H 538.479 7.57221 -1.54388 0
M  V30 5570 H 536.824 6.81128 -1.38164 0
M  V30 5571 H 540.015 4.63641 -0.644536 0
M  V30 5572 H 540.188 6.37861 -1.14181 0
M  V30 5573 N 533.594 0.0601682 1.57485 0
M  V30 5574 C 534.819 -0.624416 1.97777 0
M  V30 5575 C 535.244 -1.63051 0.937867 0
M  V30 5576 O 534.602 -1.81036 -0.0978845 0
M  V30 5577 C 534.65 -1.27979 3.37126 0
M  V30 5578 O 533.754 -2.39556 3.35688 0
M  V30 5579 H 533.095 -0.161581 0.64404 0
M  V30 5580 H 535.625 0.131237 2.04179 0
M  V30 5581 H 535.635 -1.62937 3.74053 0
M  V30 5582 H 534.31 -0.542501 4.12347 0
M  V30 5583 H 532.887 -2.06478 3.10517 0
M  V30 5584 N 535.072 -1.5615 -0.213296 0
M  V30 5585 C 536.035 -1.92249 -1.24792 0
M  V30 5586 C 537.035 -0.801828 -1.39382 0
M  V30 5587 O 538.225 -1.06948 -1.37506 0
M  V30 5588 C 535.357 -2.18056 -2.62039 0
M  V30 5589 H 536.55 -2.84793 -0.939845 0
M  V30 5590 H 534.103 -1.49559 -0.454062 0
M  V30 5591 H 534.838 -1.2809 -2.97932 0
M  V30 5592 H 534.623 -2.99703 -2.52825 0
M  V30 5593 H 536.113 -2.47051 -3.36683 0
M  V30 5594 N 536.55 0.480323 -1.50102 0
M  V30 5595 C 537.797 1.23307 -1.60629 0
M  V30 5596 C 538.125 1.92135 -0.302375 0
M  V30 5597 O 537.38 1.82321 0.711154 0
M  V30 5598 C 537.679 2.30708 -2.72963 0
M  V30 5599 C 537.345 1.79195 -4.13763 0
M  V30 5600 C 536.007 1.64867 -4.52076 0
M  V30 5601 C 538.359 1.40878 -5.018 0
M  V30 5602 C 535.687 1.10631 -5.76175 0
M  V30 5603 C 538.039 0.880872 -6.26437 0
M  V30 5604 C 536.703 0.724146 -6.6356 0
M  V30 5605 H 535.973 0.451211 -0.587784 0
M  V30 5606 H 538.62 0.53051 -1.84005 0
M  V30 5607 H 536.925 3.06834 -2.43639 0
M  V30 5608 H 538.622 2.88692 -2.78313 0
M  V30 5609 H 535.212 1.91313 -3.83533 0
M  V30 5610 H 539.396 1.50786 -4.7284 0
M  V30 5611 H 534.652 0.972263 -6.0362 0
M  V30 5612 H 538.826 0.575269 -6.9402 0
M  V30 5613 H 536.453 0.301722 -7.59601 0
M  V30 5614 N 538.028 1.39524 0.732853 0
M  V30 5615 C 538.938 1.40695 1.87729 0
M  V30 5616 C 539.954 0.301496 1.71368 0
M  V30 5617 O 541.13 0.543313 1.93933 0
M  V30 5618 C 538.195 1.25098 3.23344 0
M  V30 5619 C 537.256 2.45634 3.52083 0
M  V30 5620 C 536.489 2.30772 4.81228 0
M  V30 5621 O 536.712 1.31233 5.55098 0
M  V30 5622 O 535.646 3.19799 5.09914 0
M  V30 5623 H 539.472 2.37168 1.89697 0
M  V30 5624 H 537.057 1.20663 0.880959 0
M  V30 5625 H 538.939 1.18541 4.04383 0
M  V30 5626 H 537.614 0.317209 3.22142 0
M  V30 5627 H 536.521 2.57767 2.71122 0
M  V30 5628 H 537.854 3.37712 3.58066 0
M  V30 5629 N 539.506 -0.963266 1.24736 0
M  V30 5630 C 540.783 -1.68248 0.9976 0
M  V30 5631 C 541.163 -2.05599 -0.478776 0
M  V30 5632 O 540.511 -1.7626 -1.45412 0
M  V30 5633 C 540.721 -2.91118 1.92487 0
M  V30 5634 C 542.069 -3.63261 2.19833 0
M  V30 5635 O 543.093 -3.01184 1.90176 0
M  V30 5636 O 541.952 -4.75019 2.7022 0
M  V30 5637 H 539.046 -0.735744 0.377637 0
M  V30 5638 H 541.592 -1.01696 1.35853 0
M  V30 5639 H 540.364 -2.60242 2.92215 0
M  V30 5640 H 539.987 -3.65402 1.56738 0
M  V30 5641 N 540.985 -1.06182 -1.16461 0
M  V30 5642 C 542.215 -0.797425 -1.9059 0
M  V30 5643 C 542.623 0.651845 -1.77616 0
M  V30 5644 O 541.966 1.45788 -1.11766 0
M  V30 5645 C 542.028 -1.11128 -3.41893 0
M  V30 5646 C 541.692 -2.55874 -3.78652 0
M  V30 5647 C 542.689 -3.54104 -3.80665 0
M  V30 5648 C 540.374 -2.91144 -4.09317 0
M  V30 5649 C 542.368 -4.85645 -4.12829 0
M  V30 5650 C 540.055 -4.22885 -4.41148 0
M  V30 5651 C 541.053 -5.19945 -4.42883 0
M  V30 5652 O 540.741 -6.49322 -4.73959 0
M  V30 5653 H 540.473 -0.288709 -0.611247 0
M  V30 5654 H 543.027 -1.41841 -1.4856 0
M  V30 5655 H 541.257 -0.433217 -3.84266 0
M  V30 5656 H 542.946 -0.831306 -3.97296 0
M  V30 5657 H 543.712 -3.28197 -3.57088 0
M  V30 5658 H 539.591 -2.16252 -4.07131 0
M  V30 5659 H 543.135 -5.61398 -4.14099 0
M  V30 5660 H 539.032 -4.48551 -4.6419 0
M  V30 5661 H 539.8 -6.54294 -4.91774 0
M  V30 5662 N 542.463 1.3308 -0.844243 0
M  V30 5663 C 543.74 1.92178 -0.364261 0
M  V30 5664 C 544.12 1.76961 1.15101 0
M  V30 5665 O 543.468 1.16128 1.9679 0
M  V30 5666 C 543.678 3.393 -0.817106 0
M  V30 5667 C 545.026 4.16444 -0.828236 0
M  V30 5668 O 546.05 3.47975 -0.761062 0
M  V30 5669 O 544.909 5.38685 -0.920926 0
M  V30 5670 H 542.003 0.820411 -0.10419 0
M  V30 5671 H 544.549 1.41918 -0.930453 0
M  V30 5672 H 543.321 3.44272 -1.85991 0
M  V30 5673 H 542.944 3.96947 -0.227785 0
M  V30 5674 N 543.941 0.601185 1.45683 0
M  V30 5675 C 544.904 -0.111398 2.28929 0
M  V30 5676 C 545.904 -0.801246 1.39416 0
M  V30 5677 O 547.094 -0.650383 1.61603 0
M  V30 5678 C 544.226 -1.16773 3.20276 0
M  V30 5679 H 545.419 0.620412 2.93413 0
M  V30 5680 H 542.972 0.359946 1.52099 0
M  V30 5681 H 543.707 -1.93051 2.60579 0
M  V30 5682 H 543.492 -0.677358 3.86205 0
M  V30 5683 H 544.982 -1.66698 3.82886 0
M  V30 5684 N 545.419 -1.53889 0.339982 0
M  V30 5685 C 546.696 -1.93084 -0.312719 0
M  V30 5686 C 547.076 -1.2712 -1.68534 0
M  V30 5687 O 546.424 -0.420835 -2.24591 0
M  V30 5688 C 546.634 -3.4683 -0.388558 0
M  V30 5689 C 547.982 -4.19732 -0.641088 0
M  V30 5690 O 549.006 -3.53075 -0.470818 0
M  V30 5691 O 547.865 -5.3781 -0.970685 0
M  V30 5692 H 544.959 -0.806784 -0.18174 0
M  V30 5693 H 547.505 -1.65137 0.390898 0
M  V30 5694 H 546.277 -3.87055 0.574821 0
M  V30 5695 H 545.9 -3.80933 -1.1391 0
M  V30 5696 N 546.897 -0.0685191 -1.57451 0
M  V30 5697 C 547.86 0.885173 -2.11417 0
M  V30 5698 C 548.86 1.22853 -1.03748 0
M  V30 5699 O 550.05 1.16235 -1.2975 0
M  V30 5700 C 547.182 2.18964 -2.61281 0
M  V30 5701 H 548.375 0.417034 -2.96986 0
M  V30 5702 H 545.928 0.18014 -1.55258 0
M  V30 5703 H 546.663 2.70321 -1.79156 0
M  V30 5704 H 546.448 1.9534 -3.39977 0
M  V30 5705 H 547.938 2.87242 -3.0312 0
M  V30 5706 N 548.375 1.56261 0.205012 0
M  V30 5707 C 549.621 1.80306 0.9283 0
M  V30 5708 C 549.954 0.640932 1.83319 0
M  V30 5709 O 549.229 -0.359032 1.91158 0
M  V30 5710 C 549.512 3.14547 1.75306 0
M  V30 5711 C 549.365 4.41236 0.873562 0
M  V30 5712 C 550.684 3.45382 2.72762 0
M  V30 5713 H 547.803 0.655929 0.336044 0
M  V30 5714 H 550.445 1.88984 0.196211 0
M  V30 5715 H 548.595 3.0728 2.37721 0
M  V30 5716 H 550.267 4.60539 0.264887 0
M  V30 5717 H 548.51 4.33427 0.179773 0
M  V30 5718 H 549.181 5.31639 1.48541 0
M  V30 5719 H 551.657 3.52884 2.20481 0
M  V30 5720 H 550.533 4.40449 3.2756 0
M  V30 5721 H 550.794 2.68377 3.51321 0
M  V30 5722 N 549.853 -0.472356 1.50355 0
M  V30 5723 C 551.101 -1.22211 1.60962 0
M  V30 5724 C 551.422 -1.92497 0.311439 0
M  V30 5725 O 550.692 -1.8405 -0.671002 0
M  V30 5726 H 549.272 -0.454092 0.593135 0
M  V30 5727 H 551.934 -0.544977 1.87126 0
M  V30 5728 H 551.03 -1.9707 2.42012 0
M  V30 5729 N 551.331 -1.39911 -0.725443 0
M  V30 5730 C 552.294 -1.39156 -1.82121 0
M  V30 5731 C 553.294 -0.287018 -1.58218 0
M  V30 5732 O 554.484 -0.545421 -1.65441 0
M  V30 5733 C 551.616 -1.1736 -3.20062 0
M  V30 5734 H 552.809 -2.36672 -1.84191 0
M  V30 5735 H 550.362 -1.25615 -0.930079 0
M  V30 5736 H 551.097 -0.205648 -3.23647 0
M  V30 5737 H 550.882 -1.97358 -3.3881 0
M  V30 5738 H 552.372 -1.19596 -4.00108 0
M  V30 5739 N 552.809 0.956637 -1.25245 0
M  V30 5740 C 553.756 2.053 -1.05454 0
M  V30 5741 C 554.726 1.66062 0.0356889 0
M  V30 5742 O 555.911 1.90415 -0.121099 0
M  V30 5743 C 553.051 3.38391 -0.677191 0
M  V30 5744 C 552.164 3.90758 -1.84206 0
M  V30 5745 C 551.299 5.12165 -1.40926 0
M  V30 5746 C 550.338 5.56757 -2.54338 0
M  V30 5747 N 549.475 6.69376 -2.11848 0
M  V30 5748 H 554.315 2.21562 -1.99284 0
M  V30 5749 H 551.852 1.08578 -0.992434 0
M  V30 5750 H 553.81 4.1488 -0.43938 0
M  V30 5751 H 552.44 3.22021 0.224127 0
M  V30 5752 H 551.492 3.10808 -2.19323 0
M  V30 5753 H 552.804 4.19802 -2.69383 0
M  V30 5754 H 551.958 5.96065 -1.13098 0
M  V30 5755 H 550.697 4.84832 -0.528175 0
M  V30 5756 H 549.702 4.71423 -2.82913 0
M  V30 5757 H 550.927 5.861 -3.43022 0
M  V30 5758 H 548.873 6.43756 -1.26153 0
M  V30 5759 H 548.79 6.97927 -2.90574 0
M  V30 5760 H 550.058 7.5669 -1.87191 0
M  V30 5761 N 554.287 1.06798 1.15896 0
M  V30 5762 C 555.535 0.786211 1.8618 0
M  V30 5763 C 555.856 -0.689547 1.82401 0
M  V30 5764 O 555.126 -1.49913 1.26107 0
M  V30 5765 H 553.706 0.287843 0.689315 0
M  V30 5766 H 556.368 1.35055 1.40521 0
M  V30 5767 H 555.464 1.1157 2.91477 0
M  V30 5768 N 555.766 -1.3263 0.851289 0
M  V30 5769 C 557.013 -1.97368 0.453023 0
M  V30 5770 C 557.341 -1.67384 -0.990596 0
M  V30 5771 O 556.596 -0.952665 -1.70947 0
M  V30 5772 C 556.895 -3.51713 0.635015 0
M  V30 5773 C 556.561 -4.01676 2.04859 0
M  V30 5774 C 555.223 -4.15031 2.43522 0
M  V30 5775 C 557.575 -4.28206 2.97135 0
M  V30 5776 C 554.903 -4.52257 3.73739 0
M  V30 5777 C 557.255 -4.66889 4.26846 0
M  V30 5778 C 555.919 -4.7845 4.65448 0
M  V30 5779 H 555.189 -0.722219 0.165773 0
M  V30 5780 H 557.836 -1.58092 1.0807 0
M  V30 5781 H 556.141 -3.91726 -0.0759081 0
M  V30 5782 H 557.838 -3.99823 0.306964 0
M  V30 5783 H 554.428 -3.91764 1.73836 0
M  V30 5784 H 558.612 -4.174 2.68498 0
M  V30 5785 H 553.868 -4.59402 4.03435 0
M  V30 5786 H 558.042 -4.86372 4.98413 0
M  V30 5787 H 555.669 -5.07052 5.66395 0
M  V30 5788 N 557.244 -0.608902 -1.45362 0
M  V30 5789 C 558.492 -0.104401 -2.0183 0
M  V30 5790 C 558.813 1.27007 -1.47967 0
M  V30 5791 O 558.083 1.83924 -0.674455 0
M  V30 5792 H 556.663 -0.0356042 -0.746151 0
M  V30 5793 H 559.325 -0.790596 -1.78145 0
M  V30 5794 H 558.421 -0.0551793 -3.12051 0
M  V30 5795 N 558.722 1.53707 -0.348139 0
M  V30 5796 C 559.969 2.00988 0.246966 0
M  V30 5797 C 560.297 1.23586 1.50189 0
M  V30 5798 O 559.552 0.312817 1.93184 0
M  V30 5799 C 559.851 3.52292 0.602061 0
M  V30 5800 C 559.517 4.47453 -0.556509 0
M  V30 5801 C 558.179 4.73188 -0.874446 0
M  V30 5802 C 560.531 5.03851 -1.33354 0
M  V30 5803 C 557.859 5.52577 -1.9717 0
M  V30 5804 C 560.211 5.84437 -2.42108 0
M  V30 5805 C 558.875 6.08465 -2.74456 0
M  V30 5806 H 558.145 0.735469 0.0903712 0
M  V30 5807 H 560.792 1.85464 -0.477001 0
M  V30 5808 H 559.097 3.65672 1.40681 0
M  V30 5809 H 560.794 3.86337 1.07447 0
M  V30 5810 H 557.384 4.27558 -0.298652 0
M  V30 5811 H 561.568 4.8393 -1.10117 0
M  V30 5812 H 556.824 5.69418 -2.22651 0
M  V30 5813 H 560.998 6.27151 -3.02745 0
M  V30 5814 H 558.625 6.69768 -3.59604 0
M  V30 5815 N 560.2 0.0768682 1.57412 0
M  V30 5816 C 561.446 -0.591961 1.93968 0
M  V30 5817 C 561.779 -1.68954 0.9575 0
M  V30 5818 O 561.054 -1.94496 -0.0124675 0
M  V30 5819 C 561.337 -1.16418 3.40762 0
M  V30 5820 C 561.19 -0.0728933 4.49741 0
M  V30 5821 C 562.509 -2.06814 3.88479 0
M  V30 5822 H 559.628 -0.213716 0.705333 0
M  V30 5823 H 562.27 0.14387 1.89455 0
M  V30 5824 H 560.42 -1.79128 3.4474 0
M  V30 5825 H 562.092 0.560446 4.57883 0
M  V30 5826 H 560.335 0.595859 4.29688 0
M  V30 5827 H 561.006 -0.513755 5.49604 0
M  V30 5828 H 563.482 -1.54033 3.8654 0
M  V30 5829 H 562.358 -2.43785 4.91793 0
M  V30 5830 H 562.619 -2.97844 3.26713 0
M  V30 5831 N 561.678 -1.56367 -0.196722 0
M  V30 5832 C 562.625 -1.94417 -1.24382 0
M  V30 5833 C 563.595 -0.804543 -1.45315 0
M  V30 5834 O 564.78 -1.06256 -1.58475 0
M  V30 5835 C 561.92 -2.28757 -2.58388 0
M  V30 5836 C 561.033 -3.55775 -2.45047 0
M  V30 5837 C 560.168 -3.79445 -3.71746 0
M  V30 5838 C 559.207 -4.99894 -3.53231 0
M  V30 5839 N 558.344 -5.19826 -4.71938 0
M  V30 5840 H 563.184 -2.83691 -0.912338 0
M  V30 5841 H 560.721 -1.40392 -0.439135 0
M  V30 5842 H 562.679 -2.46682 -3.36457 0
M  V30 5843 H 561.309 -1.42625 -2.89582 0
M  V30 5844 H 560.361 -3.45905 -1.58284 0
M  V30 5845 H 561.673 -4.44 -2.27299 0
M  V30 5846 H 560.827 -3.97601 -4.58256 0
M  V30 5847 H 559.566 -2.89546 -3.92446 0
M  V30 5848 H 558.571 -4.81662 -2.65107 0
M  V30 5849 H 559.796 -5.913 -3.33978 0
M  V30 5850 H 557.742 -4.32875 -4.92905 0
M  V30 5851 H 557.659 -6.02228 -4.57009 0
M  V30 5852 H 558.927 -5.42439 -5.59803 0
M  V30 5853 N 563.156 0.464375 -1.50603 0
M  V30 5854 C 564.086 1.56944 -1.72889 0
M  V30 5855 C 565.067 1.59979 -0.577997 0
M  V30 5856 O 566.252 1.76138 -0.817855 0
M  V30 5857 C 563.382 2.95225 -1.8292 0
M  V30 5858 C 562.336 3.07056 -2.98162 0
M  V30 5859 C 561.662 4.47051 -2.93343 0
M  V30 5860 C 562.962 2.83648 -4.38567 0
M  V30 5861 H 564.656 1.38547 -2.65415 0
M  V30 5862 H 562.202 0.665082 -1.27721 0
M  V30 5863 H 564.155 3.72467 -1.97095 0
M  V30 5864 H 562.879 3.14793 -0.870209 0
M  V30 5865 H 561.538 2.32248 -2.83648 0
M  V30 5866 H 561.186 4.63547 -1.95276 0
M  V30 5867 H 560.886 4.55902 -3.70712 0
M  V30 5868 H 562.41 5.26304 -3.09575 0
M  V30 5869 H 563.824 3.50636 -4.53572 0
M  V30 5870 H 562.221 3.03937 -5.17438 0
M  V30 5871 H 563.291 1.79451 -4.50472 0
M  V30 5872 N 564.634 1.40294 0.718013 0
M  V30 5873 C 565.582 1.40536 1.85344 0
M  V30 5874 C 566.576 0.286192 1.66965 0
M  V30 5875 O 567.782 0.457105 1.74099 0
M  V30 5876 H 564.157 0.439236 0.61039 0
M  V30 5877 H 566.128 2.36275 1.82255 0
M  V30 5878 C 564.877 1.28245 3.23185 0
M  V30 5879 H 564.2 2.1364 3.37932 0
M  V30 5880 H 565.64 1.32474 4.02774 0
M  V30 5881 C 564.099 -0.0075503 3.36899 0
M  V30 5882 O 564.629 -0.971391 3.89778 0
M  V30 5883 N 562.835 -0.0762479 2.905 0
M  V30 5884 H 562.382 0.708819 2.47656 0
M  V30 5885 H 562.34 -0.938846 3.00055 0
M  V30 5886 N 566.112 -0.949982 1.2575 0
M  V30 5887 C 567.044 -2.05088 1.02331 0
M  V30 5888 C 568.057 -1.62795 -0.0133247 0
M  V30 5889 O 569.246 -1.77067 0.225759 0
M  V30 5890 C 566.346 -3.34794 0.525924 0
M  V30 5891 C 565.519 -4.05903 1.62978 0
M  V30 5892 C 564.578 -5.1388 1.13196 0
M  V30 5893 O 563.604 -5.39072 1.82729 0
M  V30 5894 N 564.806 -5.80495 -0.0242926 0
M  V30 5895 H 567.571 -2.25747 1.97125 0
M  V30 5896 H 565.132 -1.11886 1.17018 0
M  V30 5897 H 567.124 -4.04312 0.177263 0
M  V30 5898 H 565.694 -3.10872 -0.328202 0
M  V30 5899 H 564.914 -3.3042 2.1498 0
M  V30 5900 H 566.202 -4.50166 2.37124 0
M  V30 5901 H 565.6 -5.62454 -0.605184 0
M  V30 5902 H 564.157 -6.51043 -0.313947 0
M  V30 5903 N 567.59 -1.07411 -1.15328 0
M  V30 5904 C 568.52 -0.716472 -2.22236 0
M  V30 5905 C 569.501 0.296373 -1.67498 0
M  V30 5906 O 570.686 0.168989 -1.93463 0
M  V30 5907 C 567.816 -0.114142 -3.47112 0
M  V30 5908 C 566.77 -1.05421 -4.14814 0
M  V30 5909 C 566.096 -0.314604 -5.33774 0
M  V30 5910 C 567.396 -2.38808 -4.64508 0
M  V30 5911 H 569.09 -1.61029 -2.52408 0
M  V30 5912 H 566.636 -0.775702 -1.21321 0
M  V30 5913 H 568.589 0.148001 -4.2114 0
M  V30 5914 H 567.313 0.814755 -3.16274 0
M  V30 5915 H 565.972 -1.30128 -3.42728 0
M  V30 5916 H 565.62 0.617772 -4.99192 0
M  V30 5917 H 565.32 -0.941209 -5.80013 0
M  V30 5918 H 566.844 -0.0602747 -6.1057 0
M  V30 5919 H 568.258 -2.18424 -5.3006 0
M  V30 5920 H 566.655 -2.97069 -5.21412 0
M  V30 5921 H 567.725 -3.01067 -3.80114 0
M  V30 5922 N 569.068 1.32177 -0.85831 0
M  V30 5923 C 570.031 2.27086 -0.310588 0
M  V30 5924 C 571.031 1.51751 0.531806 0
M  V30 5925 O 572.221 1.70794 0.34279 0
M  V30 5926 C 569.353 3.36266 0.560179 0
M  V30 5927 H 570.546 2.77045 -1.1483 0
M  V30 5928 H 568.099 1.42911 -0.632942 0
M  V30 5929 H 568.834 2.9158 1.41956 0
M  V30 5930 H 568.619 3.92077 -0.0428473 0
M  V30 5931 H 570.109 4.06974 0.936056 0
M  V30 5932 N 570.547 0.616602 1.45037 0
M  V30 5933 C 571.796 0.112861 2.01384 0
M  V30 5934 C 572.109 -1.26758 1.48969 0
M  V30 5935 O 573.315 -1.86454 1.9735 0
M  V30 5936 C 571.771 0.151057 3.59583 0
M  V30 5937 C 571.379 1.53191 4.20995 0
M  V30 5938 C 573.123 -0.296974 4.2346 0
M  V30 5939 C 571.03 1.526 5.71373 0
M  V30 5940 H 569.96 0.0384254 0.75302 0
M  V30 5941 H 572.611 0.773262 1.66412 0
M  V30 5942 H 570.993 -0.57617 3.91786 0
M  V30 5943 H 572.167 2.28156 4.00352 0
M  V30 5944 H 570.482 1.92279 3.69348 0
M  V30 5945 H 573.079 -0.320712 5.33737 0
M  V30 5946 H 573.422 -1.32145 3.9477 0
M  V30 5947 H 573.955 0.377279 3.96007 0
M  V30 5948 H 570.694 2.52837 6.04776 0
M  V30 5949 H 570.214 0.819064 5.94181 0
M  V30 5950 H 571.893 1.25357 6.3474 0
M  V30 5951 N 572.025 -1.5352 0.356285 0
M  V30 5952 C 572.935 -2.29151 -0.502712 0
M  V30 5953 C 573.951 -1.34753 -1.1008 0
M  V30 5954 O 575.127 -1.67803 -1.11374 0
M  V30 5955 C 572.192 -3.05911 -1.63154 0
M  V30 5956 C 571.253 -4.15958 -1.06194 0
M  V30 5957 C 570.486 -4.8905 -2.13696 0
M  V30 5958 O 570.709 -4.61919 -3.34645 0
M  V30 5959 O 569.643 -5.75202 -1.77275 0
M  V30 5960 H 573.469 -3.03492 0.112466 0
M  V30 5961 H 571.054 -1.4891 0.120942 0
M  V30 5962 H 572.936 -3.53874 -2.28804 0
M  V30 5963 H 571.611 -2.34415 -2.23229 0
M  V30 5964 H 570.518 -3.7227 -0.369603 0
M  V30 5965 H 571.851 -4.89593 -0.505872 0
M  V30 5966 N 573.503 -0.0852151 -1.57369 0
M  V30 5967 C 574.453 0.88767 -2.10011 0
M  V30 5968 C 575.437 1.25021 -1.01285 0
M  V30 5969 O 576.629 1.22694 -1.27574 0
M  V30 5970 C 573.758 2.15037 -2.67608 0
M  V30 5971 C 572.844 1.81371 -3.83361 0
M  V30 5972 N 573.235 1.18216 -4.91791 0
M  V30 5973 C 571.533 2.11041 -3.92909 0
M  V30 5974 C 572.234 1.02941 -5.72519 0
M  V30 5975 N 571.21 1.54351 -5.21226 0
M  V30 5976 H 575.012 0.395279 -2.9123 0
M  V30 5977 H 572.526 0.11829 -1.61969 0
M  V30 5978 H 574.523 2.85667 -3.03644 0
M  V30 5979 H 573.183 2.64851 -1.8784 0
M  V30 5980 H 574.194 0.850168 -5.10874 0
M  V30 5981 H 570.871 2.63138 -3.24136 0
M  V30 5982 H 572.261 0.536298 -6.69756 0
M  V30 5983 N 574.981 1.5647 0.188427 0
M  V30 5984 C 575.911 1.98101 1.23606 0
M  V30 5985 C 576.892 0.853961 1.47111 0
M  V30 5986 O 578.077 1.11879 1.58735 0
M  V30 5987 C 575.207 2.32624 2.57882 0
M  V30 5988 C 574.161 3.48129 2.48978 0
M  V30 5989 C 573.487 3.68347 3.87588 0
M  V30 5990 C 574.787 4.82112 2.00911 0
M  V30 5991 H 576.481 2.85864 0.890068 0
M  V30 5992 H 574.027 1.37532 0.426714 0
M  V30 5993 H 575.98 2.60343 3.3136 0
M  V30 5994 H 574.704 1.41751 2.94235 0
M  V30 5995 H 573.363 3.20511 1.77956 0
M  V30 5996 H 573.011 2.74793 4.21305 0
M  V30 5997 H 572.711 4.46055 3.82503 0
M  V30 5998 H 574.235 3.98449 4.62678 0
M  V30 5999 H 575.649 5.08819 2.64151 0
M  V30 6000 H 574.046 5.63337 2.06814 0
M  V30 6001 H 575.116 4.75249 0.96262 0
M  V30 6002 N 576.459 -0.456382 1.50847 0
M  V30 6003 C 577.389 -1.56025 1.73719 0
M  V30 6004 C 578.37 -1.5967 0.586473 0
M  V30 6005 O 579.555 -1.75702 0.827185 0
M  V30 6006 C 576.685 -2.94251 1.84483 0
M  V30 6007 C 575.639 -3.05471 2.99786 0
M  V30 6008 C 574.965 -4.45489 2.95709 0
M  V30 6009 C 576.265 -2.81318 4.40065 0
M  V30 6010 H 577.959 -1.37138 2.66146 0
M  V30 6011 H 575.505 -0.658299 1.28072 0
M  V30 6012 H 577.458 -3.71417 1.99067 0
M  V30 6013 H 576.182 -3.14328 0.886891 0
M  V30 6014 H 574.841 -2.30741 2.84876 0
M  V30 6015 H 574.489 -4.62505 1.97732 0
M  V30 6016 H 574.189 -4.53929 3.73125 0
M  V30 6017 H 575.713 -5.24655 3.12362 0
M  V30 6018 H 577.127 -3.48226 4.55425 0
M  V30 6019 H 575.524 -3.01188 5.19043 0
M  V30 6020 H 576.594 -1.7706 4.51418 0
M  V30 6021 N 577.937 -1.40673 -0.710563 0
M  V30 6022 C 579.185 -1.38947 -1.46759 0
M  V30 6023 C 579.506 0.00572879 -1.94999 0
M  V30 6024 O 578.776 0.961358 -1.70689 0
M  V30 6025 H 577.356 -0.5114 -0.544499 0
M  V30 6026 H 580.018 -1.75773 -0.842012 0
M  V30 6027 H 579.114 -2.06745 -2.33801 0
M  V30 6028 N 579.415 0.9433 -1.26252 0
M  V30 6029 C 580.378 2.02326 -1.07689 0
M  V30 6030 C 581.378 1.60779 -0.0259174 0
M  V30 6031 O 582.568 1.72108 -0.269134 0
M  V30 6032 C 579.7 3.34886 -0.63752 0
M  V30 6033 H 580.893 2.20225 -2.0357 0
M  V30 6034 H 578.446 1.12197 -1.08819 0
M  V30 6035 H 579.181 3.22684 0.323377 0
M  V30 6036 H 578.966 3.66393 -1.39637 0
M  V30 6037 H 580.456 4.14231 -0.529418 0
M  V30 6038 N 580.893 1.08022 1.14757 0
M  V30 6039 C 582.309 0.807072 1.3769 0
M  V30 6040 C 582.509 -0.585504 1.92806 0
M  V30 6041 O 581.565 -1.34301 2.13821 0
M  V30 6042 C 582.878 1.88651 2.34161 0
M  V30 6043 C 584.426 1.91206 2.47809 0
M  V30 6044 C 584.901 2.98253 3.47576 0
M  V30 6045 N 586.392 2.974 3.55117 0
M  V30 6046 C 587.127 3.76872 4.32152 0
M  V30 6047 N 586.623 4.66212 5.12463 0
M  V30 6048 N 588.416 3.6519 4.27309 0
M  V30 6049 H 580.567 1.97824 0.77326 0
M  V30 6050 H 582.83 0.85826 0.402608 0
M  V30 6051 H 582.536 2.88749 2.00791 0
M  V30 6052 H 582.41 1.75244 3.3402 0
M  V30 6053 H 584.797 0.917564 2.80472 0
M  V30 6054 H 584.878 2.08691 1.47925 0
M  V30 6055 H 584.522 3.97907 3.15646 0
M  V30 6056 H 584.452 2.78014 4.47231 0
M  V30 6057 H 586.943 2.32643 2.97801 0
M  V30 6058 H 587.256 5.23468 5.68508 0
M  V30 6059 H 585.601 4.70257 5.11745 0
M  V30 6060 H 588.792 2.94765 3.63636 0
M  V30 6061 H 588.965 4.27366 4.87095 0
M  V30 6062 O 582.41 -1.2689 0.999054 0
M  V30 6063 H 583.101 -1.82419 0.651387 0
M  V30 END ATOM
M  V30 BEGIN BOND
M  V30 END BOND
M  V30 END CTAB
M  END
$$$$
