drugbank_target|P13036 Fe(3+) dicitrate transport protein FecA (DB04079; DB04147)
 OpenBabel12092120013D

  0  0  0     0  0            999 V3000
M  V30 BEGIN CTAB
M  V30 COUNTS 11778 11927 0 0 0
M  V30 BEGIN ATOM
M  V30 1 H -0.908 1.98254 -0.117106 0
M  V30 2 N 0 1.576 0 0
M  V30 3 C 0.933 2.03868 1.02534 0
M  V30 4 C 1.911 0.928543 1.3348 0
M  V30 5 O 3.095 1.19667 1.45644 0
M  V30 6 C 0.222 2.43627 2.35294 0
M  V30 7 C -0.732 3.65373 2.2001 0
M  V30 8 S 0.101 5.13292 1.52614 0
M  V30 9 C 1.257 5.56322 2.86805 0
M  V30 10 H 1.49 2.90518 0.631377 0
M  V30 11 H -0.977 1.52953 0.210867 0
M  V30 12 H 0.981 2.67203 3.11629 0
M  V30 13 H -0.358 1.57376 2.7183 0
M  V30 14 H -1.165 3.90944 3.18086 0
M  V30 15 H -1.563 3.418 1.51819 0
M  V30 16 H 0.729 5.58782 3.83104 0
M  V30 17 H 1.672 6.56266 2.65933 0
M  V30 18 H 2.08 4.83886 2.90714 0
M  V30 19 N 1.4781 -0.272755 1.55222 0
M  V30 20 C 2.7061 -1.02255 1.79865 0
M  V30 21 C 3.1211 -1.79924 0.572088 0
M  V30 22 O 2.4781 -1.76638 -0.458842 0
M  V30 23 C 2.5291 -1.98094 3.02392 0
M  V30 24 O 2.2501 -1.23572 4.20311 0
M  V30 25 C 3.7511 -2.84884 3.39641 0
M  V30 26 H 0.9711 -0.302057 0.599168 0
M  V30 27 H 3.5151 -0.303465 2.02236 0
M  V30 28 H 1.6701 -2.65465 2.82147 0
M  V30 29 H 2.0841 -1.88172 4.89583 0
M  V30 30 H 3.5581 -3.47927 4.28545 0
M  V30 31 H 4.0351 -3.54665 2.59055 0
M  V30 32 H 4.6411 -2.23003 3.62146 0
M  V30 33 N 2.9562 -1.48159 -0.537278 0
M  V30 34 C 4.3672 -1.49429 -1.11928 0
M  V30 35 C 4.7182 -0.26 -1.9447 0
M  V30 36 O 3.8432 0.633489 -2.0692 0
M  V30 37 C 4.4382 -2.70758 -2.03656 0
M  V30 38 C 2.9972 -2.74923 -2.57088 0
M  V30 39 C 2.1442 -2.42835 -1.3389 0
M  V30 40 H 5.0952 -1.55381 -0.322886 0
M  V30 41 H 5.1162 -2.48861 -2.87834 0
M  V30 42 H 4.6282 -3.60575 -1.43553 0
M  V30 43 H 2.7292 -1.89296 -3.20933 0
M  V30 44 H 2.8422 -3.76157 -2.9672 0
M  V30 45 H 1.2062 -1.93836 -1.65226 0
M  V30 46 H 1.9892 -3.34884 -0.755504 0
M  V30 47 N 4.4343 0.785586 -1.36625 0
M  V30 48 C 5.3643 1.91259 -1.33949 0
M  V30 49 C 6.3453 1.68795 -0.210325 0
M  V30 50 O 7.5303 1.89854 -0.408561 0
M  V30 51 C 4.6603 3.28339 -1.13186 0
M  V30 52 C 3.6143 3.65335 -2.22967 0
M  V30 53 C 2.9403 5.00806 -1.87342 0
M  V30 54 C 4.2403 3.7352 -3.65075 0
M  V30 55 H 5.9343 1.93755 -2.28253 0
M  V30 56 H 3.4803 0.930788 -1.09874 0
M  V30 57 H 5.4333 4.06804 -1.09948 0
M  V30 58 H 4.1573 3.2624 -0.153332 0
M  V30 59 H 2.8163 2.89169 -2.25337 0
M  V30 60 H 2.4643 4.95233 -0.880545 0
M  V30 61 H 2.1643 5.26529 -2.60846 0
M  V30 62 H 3.6883 5.81687 -1.85667 0
M  V30 63 H 5.1023 4.42168 -3.64911 0
M  V30 64 H 3.4993 4.10731 -4.37516 0
M  V30 65 H 4.5693 2.74527 -3.99703 0
M  V30 66 N 5.9124 1.20967 1.01018 0
M  V30 67 C 7.3284 0.965905 1.27053 0
M  V30 68 C 7.5284 -0.350785 1.98423 0
M  V30 69 O 6.5844 -1.07773 2.28344 0
M  V30 70 C 7.8974 2.15294 2.09926 0
M  V30 71 C 9.4454 2.19463 2.23171 0
M  V30 72 C 9.9204 3.3767 3.09424 0
M  V30 73 N 11.4114 3.37724 3.17012 0
M  V30 74 C 12.1464 4.25837 3.83993 0
M  V30 75 N 11.6424 5.24138 4.53047 0
M  V30 76 N 13.4354 4.1366 3.80581 0
M  V30 77 H 5.5864 2.0565 0.531194 0
M  V30 78 H 7.8494 0.90024 0.297106 0
M  V30 79 H 7.5554 3.10684 1.64828 0
M  V30 80 H 7.4294 2.13923 3.10672 0
M  V30 81 H 9.8164 1.24632 2.6749 0
M  V30 82 H 9.8974 2.2488 1.21912 0
M  V30 83 H 9.5414 4.32791 2.65808 0
M  V30 84 H 9.4714 3.29491 4.10784 0
M  V30 85 H 11.9624 2.6658 2.6785 0
M  V30 86 H 12.2754 5.87684 5.01844 0
M  V30 87 H 10.6204 5.28068 4.5185 0
M  V30 88 H 13.8114 3.36127 3.25785 0
M  V30 89 H 13.9844 4.82538 4.32505 0
M  V30 90 N 7.3905 -1.2043 1.01659 0
M  V30 91 C 8.6365 -1.90079 0.706963 0
M  V30 92 C 8.9695 -1.78648 -0.761474 0
M  V30 93 O 8.2445 -1.17069 -1.55323 0
M  V30 94 C 8.5275 -3.41469 1.14327 0
M  V30 95 C 8.3805 -3.61833 2.67201 0
M  V30 96 C 9.6995 -4.34261 0.714529 0
M  V30 97 H 6.8185 -0.690254 0.2583 0
M  V30 98 H 9.4605 -1.41826 1.26433 0
M  V30 99 H 7.6105 -3.82696 0.669056 0
M  V30 100 H 9.2825 -3.2986 3.22475 0
M  V30 101 H 7.5255 -3.05304 3.08175 0
M  V30 102 H 8.1965 -4.67955 2.92783 0
M  V30 103 H 10.6725 -4.00682 1.12221 0
M  V30 104 H 9.5485 -5.38806 1.04784 0
M  V30 105 H 9.8095 -4.40431 -0.383799 0
M  V30 106 N 8.8686 -0.792821 -1.36206 0
M  V30 107 C 10.1156 -0.366786 -1.99151 0
M  V30 108 C 10.4436 1.06243 -1.62919 0
M  V30 109 O 9.6986 1.74927 -0.877442 0
M  V30 110 C 9.9976 -0.481501 -3.54142 0
M  V30 111 C 9.6636 -1.87202 -4.10203 0
M  V30 112 C 8.3256 -2.25248 -4.25226 0
M  V30 113 C 10.6776 -2.78237 -4.40719 0
M  V30 114 C 8.0056 -3.53723 -4.68078 0
M  V30 115 C 10.3576 -4.06144 -4.85005 0
M  V30 116 C 9.0216 -4.44207 -4.98234 0
M  V30 117 H 8.2916 -0.134217 -0.728743 0
M  V30 118 H 10.9386 -1.01094 -1.62641 0
M  V30 119 H 9.2436 0.246146 -3.91026 0
M  V30 120 H 10.9406 -0.132844 -4.0078 0
M  V30 121 H 7.5306 -1.56639 -3.98951 0
M  V30 122 H 11.7146 -2.50097 -4.28679 0
M  V30 123 H 6.9706 -3.8308 -4.76508 0
M  V30 124 H 11.1446 -4.76796 -5.07581 0
M  V30 125 H 8.7716 -5.43814 -5.31197 0
M  V30 126 N 10.3467 1.47872 -0.545128 0
M  V30 127 C 11.7627 1.5829 -0.204032 0
M  V30 128 C 11.9627 1.54529 1.29317 0
M  V30 129 O 11.0187 1.44232 2.07252 0
M  V30 130 C 12.3317 2.89304 -0.819987 0
M  V30 131 C 13.8797 3.02864 -0.790105 0
M  V30 132 C 14.3547 4.3656 -1.38491 0
M  V30 133 N 15.8457 4.43165 -1.34755 0
M  V30 134 C 16.5807 5.45153 -1.77753 0
M  V30 135 N 16.0767 6.54016 -2.2855 0
M  V30 136 N 17.8697 5.36125 -1.68897 0
M  V30 137 H 10.0207 1.4856 -1.51802 0
M  V30 138 H 12.2837 0.706305 -0.632327 0
M  V30 139 H 11.9897 2.97757 -1.87173 0
M  V30 140 H 11.8637 3.75957 -0.305915 0
M  V30 141 H 14.2507 2.94014 0.252913 0
M  V30 142 H 14.3317 2.17782 -1.34181 0
M  V30 143 H 13.9757 4.46164 -2.42693 0
M  V30 144 H 13.9057 5.20353 -0.808754 0
M  V30 145 H 16.3967 3.65083 -0.975855 0
M  V30 146 H 16.7097 7.27994 -2.59314 0
M  V30 147 H 15.0547 6.54938 -2.32553 0
M  V30 148 H 18.2457 4.49975 -1.28998 0
M  V30 149 H 18.4187 6.15472 -2.02726 0
M  V30 150 N 11.8248 0.280983 1.55075 0
M  V30 151 C 12.7718 -0.603937 2.22758 0
M  V30 152 C 13.7418 -1.1452 1.20309 0
M  V30 153 O 14.9268 -1.19343 1.48869 0
M  V30 154 C 12.0668 -1.77947 2.95684 0
M  V30 155 C 11.1798 -1.2715 4.12864 0
M  V30 156 C 10.3148 -2.4093 4.7342 0
M  V30 157 C 9.3538 -1.87165 5.82783 0
M  V30 158 N 8.4908 -2.94441 6.37377 0
M  V30 159 H 13.3308 -0.020124 2.97993 0
M  V30 160 H 10.8678 0.00183425 1.471 0
M  V30 161 H 12.8258 -2.47055 3.36184 0
M  V30 162 H 11.4558 -2.33522 2.22861 0
M  V30 163 H 10.5078 -0.473331 3.77444 0
M  V30 164 H 11.8198 -0.837751 4.91715 0
M  V30 165 H 10.9738 -3.18021 5.1667 0
M  V30 166 H 9.7128 -2.87623 3.93859 0
M  V30 167 H 8.7178 -1.08556 5.38976 0
M  V30 168 H 9.9428 -1.41401 6.64216 0
M  V30 169 H 7.8888 -3.40505 5.60707 0
M  V30 170 H 7.8058 -2.55501 7.11516 0
M  V30 171 H 9.0738 -3.71489 6.85285 0
M  V30 172 N 13.3029 -1.57598 0.00835791 0
M  V30 173 C 14.5309 -1.95214 -0.68549 0
M  V30 174 C 14.9459 -0.883706 -1.66841 0
M  V30 175 O 14.3029 0.136565 -1.81988 0
M  V30 176 C 14.3539 -3.32865 -1.41007 0
M  V30 177 O 14.0749 -4.35609 -0.466552 0
M  V30 178 C 15.5759 -3.84991 -2.19765 0
M  V30 179 H 12.7959 -0.643422 -0.190392 0
M  V30 180 H 15.3399 -2.04406 0.0619607 0
M  V30 181 H 13.4949 -3.24956 -2.10908 0
M  V30 182 H 13.9089 -5.15288 -0.978699 0
M  V30 183 H 15.3829 -4.8371 -2.65948 0
M  V30 184 H 15.8599 -3.18137 -3.02796 0
M  V30 185 H 16.4659 -3.96103 -1.54864 0
M  V30 186 N 14.781 0.264519 -1.55364 0
M  V30 187 C 16.009 1.013 -1.80405 0
M  V30 188 C 16.424 1.79618 -0.581622 0
M  V30 189 O 15.781 1.76879 0.449468 0
M  V30 190 C 15.832 1.96487 -3.03439 0
M  V30 191 O 15.553 1.21341 -4.20961 0
M  V30 192 C 17.054 2.83079 -3.41147 0
M  V30 193 H 14.274 0.298875 -0.600762 0
M  V30 194 H 16.818 0.292736 -2.02394 0
M  V30 195 H 14.973 2.63965 -2.83551 0
M  V30 196 H 15.387 1.85573 -4.90574 0
M  V30 197 H 16.861 3.4565 -4.30384 0
M  V30 198 H 17.338 3.53286 -2.60932 0
M  V30 199 H 17.944 2.2108 -3.63323 0
M  V30 200 N 16.2591 1.48442 0.529413 0
M  V30 201 C 17.6701 1.5002 1.11134 0
M  V30 202 C 18.0211 0.27031 1.94329 0
M  V30 203 O 17.1461 -0.622507 2.07253 0
M  V30 204 C 17.7411 2.71834 2.02217 0
M  V30 205 C 16.3001 2.76283 2.55627 0
M  V30 206 C 15.4471 2.43542 1.326 0
M  V30 207 H 18.3981 1.5555 0.314641 0
M  V30 208 H 18.4191 2.50384 2.8651 0
M  V30 209 H 17.9311 3.61331 1.41639 0
M  V30 210 H 16.0321 1.90995 3.19924 0
M  V30 211 H 16.1451 3.77725 2.94721 0
M  V30 212 H 14.5091 1.94709 1.64196 0
M  V30 213 H 15.2921 3.3528 0.737734 0
M  V30 214 N 17.7372 -0.778329 1.37039 0
M  V30 215 C 18.6672 -1.90546 1.34962 0
M  V30 216 C 19.6482 -1.68681 0.219274 0
M  V30 217 O 20.8332 -1.89634 0.418624 0
M  V30 218 C 17.9632 -3.27734 1.14925 0
M  V30 219 C 16.9172 -3.64147 2.24902 0
M  V30 220 C 16.2432 -4.99806 1.89996 0
M  V30 221 C 17.5432 -3.71579 3.67051 0
M  V30 222 H 19.2372 -1.92541 2.29277 0
M  V30 223 H 16.7832 -0.924948 1.10366 0
M  V30 224 H 18.7362 -4.06215 1.12104 0
M  V30 225 H 17.4602 -3.26154 0.170631 0
M  V30 226 H 16.1192 -2.8797 2.26868 0
M  V30 227 H 15.7672 -4.94759 0.906796 0
M  V30 228 H 15.4672 -5.25139 2.63634 0
M  V30 229 H 16.9912 -5.80694 1.88749 0
M  V30 230 H 18.4052 -4.40227 3.67251 0
M  V30 231 H 16.8022 -4.08405 4.39688 0
M  V30 232 H 17.8722 -2.72404 4.01154 0
M  V30 233 N 19.2153 -1.21501 -1.00376 0
M  V30 234 C 20.4613 -1.03452 -1.74429 0
M  V30 235 C 20.7943 0.430764 -1.89362 0
M  V30 236 O 20.0693 1.31962 -1.42886 0
M  V30 237 C 20.3523 -1.73375 -3.15615 0
M  V30 238 C 20.2053 -3.27431 -3.08397 0
M  V30 239 C 21.5243 -1.47732 -4.14564 0
M  V30 240 H 18.6433 -0.377226 -0.633143 0
M  V30 241 H 21.2853 -1.49693 -1.17013 0
M  V30 242 H 19.4353 -1.34064 -3.64636 0
M  V30 243 H 21.1073 -3.76119 -2.67081 0
M  V30 244 H 19.3503 -3.5767 -2.45468 0
M  V30 245 H 20.0213 -3.71524 -4.08258 0
M  V30 246 H 22.4973 -1.8186 -3.74254 0
M  V30 247 H 21.3733 -1.99169 -5.11491 0
M  V30 248 H 21.6343 -0.407589 -4.40217 0
M  V30 249 N 20.6934 1.19889 -1.02296 0
M  V30 250 C 21.6414 2.24938 -0.592081 0
M  V30 251 C 22.6354 1.65257 0.372357 0
M  V30 252 O 23.8414 1.78371 0.241583 0
M  V30 253 H 20.2164 0.731787 -0.173182 0
M  V30 254 H 22.1874 2.58603 -1.48885 0
M  V30 255 C 20.9364 3.47668 0.047351 0
M  V30 256 H 20.2594 3.93875 -0.685772 0
M  V30 257 H 21.6994 4.22852 0.311862 0
M  V30 258 C 20.1584 3.11136 1.29212 0
M  V30 259 O 20.6884 3.2325 2.38479 0
M  V30 260 N 18.8944 2.65625 1.17863 0
M  V30 261 H 18.4414 2.55968 0.289493 0
M  V30 262 H 18.3994 2.41553 2.01245 0
M  V30 263 N 22.1715 0.800033 1.35784 0
M  V30 264 C 23.3995 0.389606 2.03199 0
M  V30 265 C 23.8145 -0.997375 1.60306 0
M  V30 266 O 23.1715 -1.64154 0.797481 0
M  V30 267 C 23.2225 0.455855 3.58614 0
M  V30 268 O 22.9435 1.78815 3.99946 0
M  V30 269 C 24.4445 0.0374032 4.43284 0
M  V30 270 H 21.6645 0.159132 0.651857 0
M  V30 271 H 24.2085 1.08183 1.73541 0
M  V30 272 H 22.3635 -0.188057 3.86943 0
M  V30 273 H 22.7775 1.74636 4.94573 0
M  V30 274 H 24.2515 0.134882 5.51835 0
M  V30 275 H 24.7285 -1.01651 4.27275 0
M  V30 276 H 25.3345 0.654215 4.20238 0
M  V30 277 N 23.6496 -1.47581 0.552962 0
M  V30 278 C 24.8986 -2.01684 0.0251995 0
M  V30 279 C 25.2116 -1.43317 -1.33115 0
M  V30 280 O 26.4176 -1.89057 -1.94858 0
M  V30 281 C 24.8736 -3.599 -0.00542052 0
M  V30 282 C 24.4816 -4.27257 1.34742 0
M  V30 283 C 26.2256 -4.21768 -0.4808 0
M  V30 284 C 24.1326 -5.77467 1.27614 0
M  V30 285 H 23.0626 -0.753979 0.00565033 0
M  V30 286 H 25.7136 -1.69616 0.70018 0
M  V30 287 H 24.0956 -3.88911 -0.745961 0
M  V30 288 H 25.2696 -4.09893 2.10534 0
M  V30 289 H 23.5846 -3.77358 1.76039 0
M  V30 290 H 26.1816 -5.31838 -0.55246 0
M  V30 291 H 26.5246 -3.88651 -1.49184 0
M  V30 292 H 27.0576 -3.97273 0.204752 0
M  V30 293 H 23.7966 -6.15196 2.26304 0
M  V30 294 H 23.3166 -5.9718 0.55996 0
M  V30 295 H 24.9956 -6.3959 0.976421 0
M  V30 296 N 25.1277 -0.289203 -1.54924 0
M  V30 297 C 26.5437 0.0645403 -1.59469 0
M  V30 298 C 26.7437 1.53419 -1.30632 0
M  V30 299 O 25.7997 2.2852 -1.074 0
M  V30 300 C 27.1127 -0.32278 -2.98963 0
M  V30 301 C 28.6607 -0.270564 -3.11828 0
M  V30 302 C 29.1357 -0.632532 -4.53611 0
M  V30 303 N 30.6267 -0.584617 -4.59496 0
M  V30 304 C 31.3617 -0.837314 -5.67254 0
M  V30 305 N 30.8577 -1.15536 -6.83098 0
M  V30 306 N 32.6507 -0.765166 -5.56868 0
M  V30 307 H 24.8017 -1.24714 -1.71931 0
M  V30 308 H 27.0647 -0.504809 -0.802416 0
M  V30 309 H 26.7707 -1.34541 -3.24948 0
M  V30 310 H 26.6447 0.32944 -3.75759 0
M  V30 311 H 29.0317 0.742805 -2.85598 0
M  V30 312 H 29.1127 -0.957242 -2.37214 0
M  V30 313 H 28.7567 -1.64365 -4.80569 0
M  V30 314 H 28.6867 0.07609 -5.26545 0
M  V30 315 H 31.1777 -0.349248 -3.76283 0
M  V30 316 H 31.4907 -1.33447 -7.61191 0
M  V30 317 H 29.8357 -1.19328 -6.84679 0
M  V30 318 H 33.0267 -0.516432 -4.65243 0
M  V30 319 H 33.1997 -0.965477 -6.40767 0
M  V30 320 N 26.6058 1.57591 -0.0167156 0
M  V30 321 C 27.5358 2.12496 0.967858 0
M  V30 322 C 28.5168 1.03807 1.34752 0
M  V30 323 O 29.7018 1.31577 1.42833 0
M  V30 324 C 26.8318 2.64194 2.25431 0
M  V30 325 C 25.7858 3.77559 2.01576 0
M  V30 326 C 25.1118 4.15636 3.36379 0
M  V30 327 C 26.4118 5.04151 1.36489 0
M  V30 328 H 28.1058 2.95013 0.510643 0
M  V30 329 H 25.6518 1.41915 0.244181 0
M  V30 330 H 27.6048 3.01236 2.94678 0
M  V30 331 H 26.3288 1.78821 2.73296 0
M  V30 332 H 24.9878 3.40937 1.34751 0
M  V30 333 H 24.6358 3.27263 3.81979 0
M  V30 334 H 24.3358 4.92022 3.21229 0
M  V30 335 H 25.8598 4.5525 4.06915 0
M  V30 336 H 27.2738 5.38857 1.95718 0
M  V30 337 H 25.6708 5.85453 1.31776 0
M  V30 338 H 26.7408 4.83733 0.336219 0
M  V30 339 N 28.0839 -0.256276 1.55502 0
M  V30 340 C 29.3089 -1.00766 1.81276 0
M  V30 341 C 29.7339 -1.78524 0.59252 0
M  V30 342 O 29.0919 -1.75413 -0.45827 0
M  V30 343 C 29.1399 -1.92869 3.04687 0
M  V30 344 O 28.2439 -3.019 2.80945 0
M  V30 345 H 27.5849 -0.287224 0.598664 0
M  V30 346 H 30.1149 -0.280109 2.02674 0
M  V30 347 H 30.1249 -2.34511 3.33869 0
M  V30 348 H 28.7999 -1.35689 3.93143 0
M  V30 349 H 27.3769 -2.64454 2.62904 0
M  V30 350 N 29.562 -1.4872 -0.521534 0
M  V30 351 C 30.492 -1.66771 -1.63431 0
M  V30 352 C 31.473 -0.516499 -1.62069 0
M  V30 353 O 32.658 -0.750013 -1.79132 0
M  V30 354 C 29.788 -1.71515 -3.01993 0
M  V30 355 C 28.742 -2.86222 -3.18216 0
M  V30 356 C 28.068 -2.76061 -4.57924 0
M  V30 357 C 29.368 -4.27419 -3.00184 0
M  V30 358 H 31.062 -2.59932 -1.48579 0
M  V30 359 H 28.608 -1.25089 -0.713358 0
M  V30 360 H 30.561 -1.82731 -3.7972 0
M  V30 361 H 29.285 -0.749393 -3.17886 0
M  V30 362 H 27.944 -2.74575 -2.42908 0
M  V30 363 H 27.592 -1.77437 -4.70665 0
M  V30 364 H 27.292 -3.53037 -4.69722 0
M  V30 365 H 28.816 -2.89256 -5.37739 0
M  V30 366 H 30.23 -4.39855 -3.67697 0
M  V30 367 H 28.627 -5.05458 -3.2347 0
M  V30 368 H 29.697 -4.43293 -1.96518 0
M  V30 369 N 31.0401 0.771051 -1.3745 0
M  V30 370 C 31.9701 1.89827 -1.3597 0
M  V30 371 C 32.9511 1.68562 -0.228216 0
M  V30 372 O 34.1361 1.8941 -0.428675 0
M  V30 373 C 31.2661 3.2712 -1.16662 0
M  V30 374 C 30.2201 3.6295 -2.2683 0
M  V30 375 C 29.5461 4.98791 -1.92644 0
M  V30 376 C 30.8461 3.69627 -3.69017 0
M  V30 377 H 32.5401 1.91323 -2.30295 0
M  V30 378 H 30.0861 0.919082 -1.10855 0
M  V30 379 H 32.0391 4.05615 -1.14256 0
M  V30 380 H 30.7631 3.26059 -0.187926 0
M  V30 381 H 29.4221 2.86763 -2.28392 0
M  V30 382 H 29.0701 4.94271 -0.933021 0
M  V30 383 H 28.7701 5.23733 -2.66416 0
M  V30 384 H 30.2941 5.79685 -1.91826 0
M  V30 385 H 31.7081 4.38273 -3.69581 0
M  V30 386 H 30.1051 4.06067 -4.41848 0
M  V30 387 H 31.1751 2.70273 -4.02592 0
M  V30 388 N 32.5182 1.22032 0.997298 0
M  V30 389 C 33.9292 1.0397 1.55071 0
M  V30 390 C 34.2802 -0.398192 1.92117 0
M  V30 391 O 33.4052 -1.28254 1.74298 0
M  V30 392 C 34.0002 1.88109 2.81781 0
M  V30 393 C 32.5592 1.74357 3.33581 0
M  V30 394 C 31.7062 1.84846 2.06706 0
M  V30 395 H 34.6572 1.35941 0.818883 0
M  V30 396 H 34.6782 1.39589 3.53971 0
M  V30 397 H 34.1902 2.92754 2.54787 0
M  V30 398 H 32.2912 0.72427 3.65493 0
M  V30 399 H 32.4042 2.56772 4.04481 0
M  V30 400 H 30.7682 1.28238 2.20062 0
M  V30 401 H 31.5512 2.91014 1.82114 0
M  V30 402 N 33.9963 -1.19345 1.0293 0
M  V30 403 C 34.9263 -2.2481 0.631105 0
M  V30 404 C 35.9073 -1.66245 -0.360104 0
M  V30 405 O 37.0923 -1.92677 -0.242726 0
M  V30 406 C 34.2223 -3.47295 -0.0184607 0
M  V30 407 C 33.1763 -4.18536 0.895073 0
M  V30 408 C 32.5023 -5.34586 0.110592 0
M  V30 409 C 33.8023 -4.73287 2.209 0
M  V30 410 H 35.4963 -2.58372 1.51275 0
M  V30 411 H 33.0423 -1.24194 0.728818 0
M  V30 412 H 34.9953 -4.20268 -0.308675 0
M  V30 413 H 33.7193 -3.12933 -0.934907 0
M  V30 414 H 32.3783 -3.47446 1.16949 0
M  V30 415 H 32.0263 -4.96469 -0.807902 0
M  V30 416 H 31.7263 -5.83183 0.719087 0
M  V30 417 H 33.2503 -6.10355 -0.172871 0
M  V30 418 H 34.6643 -5.38013 1.98028 0
M  V30 419 H 33.0613 -5.32373 2.76946 0
M  V30 420 H 34.1313 -3.91331 2.86336 0
M  V30 421 N 35.4744 -0.807222 -1.35358 0
M  V30 422 C 36.4374 -0.223665 -2.28106 0
M  V30 423 C 37.4374 0.589354 -1.4961 0
M  V30 424 O 38.6274 0.407745 -1.69361 0
M  V30 425 C 35.7594 0.688149 -3.33882 0
M  V30 426 H 36.9524 -1.04169 -2.81227 0
M  V30 427 H 34.5054 -0.577921 -1.45223 0
M  V30 428 H 35.2404 1.52984 -2.85948 0
M  V30 429 H 35.0254 0.10687 -3.91954 0
M  V30 430 H 36.5154 1.09075 -4.03104 0
M  V30 431 N 36.9525 1.47285 -0.560781 0
M  V30 432 C 38.2005 2.02064 -0.0379868 0
M  V30 433 C 38.5215 1.43711 1.31803 0
M  V30 434 O 37.7915 0.61362 1.86042 0
M  V30 435 H 36.3715 0.746918 -0.0110531 0
M  V30 436 H 39.0335 1.80648 -0.731598 0
M  V30 437 H 38.1295 3.12064 0.0474463 0
M  V30 438 N 38.4306 0.297415 1.54768 0
M  V30 439 C 39.3606 -0.573494 2.26348 0
M  V30 440 C 40.3416 -1.14085 1.26169 0
M  V30 441 O 41.5266 -1.17086 1.54934 0
M  V30 442 C 38.6566 -1.74716 3.00153 0
M  V30 443 C 37.6106 -1.31032 4.07449 0
M  V30 444 C 36.9366 -2.56887 4.68949 0
M  V30 445 C 38.2366 -0.444183 5.20408 0
M  V30 446 H 39.9306 0.0235131 2.99391 0
M  V30 447 H 37.4766 0.0127488 1.43994 0
M  V30 448 H 39.4296 -2.3625 3.48947 0
M  V30 449 H 38.1536 -2.37035 2.24682 0
M  V30 450 H 36.8126 -0.718066 3.59499 0
M  V30 451 H 36.4606 -3.17512 3.90122 0
M  V30 452 H 36.1606 -2.2836 5.41411 0
M  V30 453 H 37.6846 -3.19229 5.20505 0
M  V30 454 H 39.0986 -0.9651 5.65118 0
M  V30 455 H 37.4956 -0.252846 5.99567 0
M  V30 456 H 38.5656 0.531609 4.81977 0
M  V30 457 N 39.9087 -1.5758 0.0250728 0
M  V30 458 C 41.1337 -1.96337 -0.668317 0
M  V30 459 C 41.5587 -0.901314 -1.651 0
M  V30 460 O 40.9167 0.138187 -1.80773 0
M  V30 461 C 40.9647 -3.34191 -1.35457 0
M  V30 462 O 40.0687 -3.30269 -2.46974 0
M  V30 463 H 39.4097 -0.640281 -0.175887 0
M  V30 464 H 41.9397 -2.0442 0.0857224 0
M  V30 465 H 41.9497 -3.70331 -1.71228 0
M  V30 466 H 40.6247 -4.11036 -0.634218 0
M  V30 467 H 39.2017 -3.05841 -2.13344 0
M  V30 468 N 41.3868 0.248026 -1.55636 0
M  V30 469 C 42.6338 0.976224 -1.77415 0
M  V30 470 C 42.9618 1.85361 -0.589193 0
M  V30 471 O 42.2168 1.90973 0.427529 0
M  V30 472 C 42.5158 1.86819 -3.04686 0
M  V30 473 C 42.1818 1.14625 -4.36087 0
M  V30 474 C 40.8438 0.946723 -4.71795 0
M  V30 475 C 43.1958 0.634463 -5.17324 0
M  V30 476 C 40.5238 0.223091 -5.86276 0
M  V30 477 C 42.8758 -0.0756959 -6.32555 0
M  V30 478 C 41.5398 -0.286711 -6.66884 0
M  V30 479 H 40.8098 0.357226 -0.649208 0
M  V30 480 H 43.4568 0.246415 -1.89908 0
M  V30 481 H 41.7618 2.66502 -2.872 0
M  V30 482 H 43.4588 2.43329 -3.18735 0
M  V30 483 H 40.0488 1.3117 -4.08035 0
M  V30 484 H 44.2328 0.77616 -4.90193 0
M  V30 485 H 39.4888 0.0491185 -6.1138 0
M  V30 486 H 43.6628 -0.479899 -6.94745 0
M  V30 487 H 41.2898 -0.849389 -7.5544 0
M  V30 488 N 42.8649 1.48995 0.513639 0
M  V30 489 C 44.0899 1.61792 1.29762 0
M  V30 490 C 44.5149 0.284475 1.85936 0
M  V30 491 O 43.8729 -0.746185 1.65232 0
M  V30 492 C 43.9209 2.67993 2.41272 0
M  V30 493 O 43.0249 2.26287 3.44772 0
M  V30 494 H 42.3659 0.541963 0.38363 0
M  V30 495 H 44.8959 1.95097 0.616307 0
M  V30 496 H 44.9059 2.89772 2.87221 0
M  V30 497 H 43.5809 3.64791 1.9975 0
M  V30 498 H 42.1579 2.14788 3.04829 0
M  V30 499 N 44.343 -0.763751 1.37857 0
M  V30 500 C 45.306 -1.85889 1.34081 0
M  V30 501 C 46.306 -1.58949 0.243277 0
M  V30 502 O 47.496 -1.66882 0.499589 0
M  V30 503 C 44.628 -3.23176 1.08489 0
M  V30 504 H 45.821 -1.90648 2.31502 0
M  V30 505 H 43.374 -0.964367 1.23003 0
M  V30 506 H 44.109 -3.24091 0.116318 0
M  V30 507 H 43.894 -3.44124 1.8794 0
M  V30 508 H 45.384 -4.03254 1.08517 0
M  V30 509 N 45.8211 -1.22559 -0.990812 0
M  V30 510 C 47.0681 -1.05141 -1.73065 0
M  V30 511 C 47.3961 0.413191 -1.9006 0
M  V30 512 O 46.6511 1.32257 -1.44245 0
M  V30 513 C 46.9501 -1.71011 -3.13831 0
M  V30 514 C 46.6161 -3.20911 -3.16745 0
M  V30 515 C 45.2781 -3.61812 -3.17247 0
M  V30 516 C 47.6301 -4.16846 -3.12872 0
M  V30 517 C 44.9581 -4.97127 -3.1158 0
M  V30 518 C 47.3101 -5.5214 -3.08746 0
M  V30 519 C 45.9741 -5.92419 -3.07565 0
M  V30 520 H 45.2441 -0.384738 -0.633291 0
M  V30 521 H 47.8911 -1.5235 -1.16025 0
M  V30 522 H 46.1961 -1.16133 -3.74193 0
M  V30 523 H 47.8931 -1.55023 -3.69823 0
M  V30 524 H 44.4831 -2.88344 -3.17105 0
M  V30 525 H 48.6671 -3.86263 -3.11632 0
M  V30 526 H 43.9231 -5.27562 -3.09012 0
M  V30 527 H 48.0971 -6.26201 -3.04705 0
M  V30 528 H 45.7241 -6.97236 -3.02929 0
M  V30 529 N 47.2992 1.18797 -1.03562 0
M  V30 530 C 48.2622 2.20464 -0.626769 0
M  V30 531 C 49.2622 1.57721 0.313173 0
M  V30 532 O 50.4522 1.73917 0.0992615 0
M  V30 533 C 47.5842 3.40802 0.0818498 0
M  V30 534 H 48.7772 2.58149 -1.5264 0
M  V30 535 H 46.3302 1.32593 -0.827578 0
M  V30 536 H 47.0652 3.08642 0.995518 0
M  V30 537 H 46.8502 3.8758 -0.593652 0
M  V30 538 H 48.3402 4.16092 0.354584 0
M  V30 539 N 48.7773 0.814389 1.34928 0
M  V30 540 C 49.7403 0.235759 2.27984 0
M  V30 541 C 50.7403 -0.581412 1.49921 0
M  V30 542 O 51.9303 -0.398758 1.69575 0
M  V30 543 C 49.0623 -0.670433 3.34242 0
M  V30 544 H 50.2553 1.05659 2.80671 0
M  V30 545 H 47.8083 0.585614 1.44915 0
M  V30 546 H 48.5433 -1.51466 2.86755 0
M  V30 547 H 48.3283 -0.0860822 3.92005 0
M  V30 548 H 49.8183 -1.06935 4.03676 0
M  V30 549 N 50.2554 -1.46986 0.568584 0
M  V30 550 C 51.1874 -2.28233 -0.210337 0
M  V30 551 C 52.2004 -1.37682 -0.868767 0
M  V30 552 O 53.3894 -1.62406 -0.740705 0
M  V30 553 C 50.4894 -3.12293 -1.3163 0
M  V30 554 C 49.6624 -4.30878 -0.7525 0
M  V30 555 C 48.7214 -4.96445 -1.74439 0
M  V30 556 O 47.7474 -5.54482 -1.286 0
M  V30 557 N 48.9494 -4.92171 -3.07812 0
M  V30 558 H 51.7144 -2.95723 0.486648 0
M  V30 559 H 49.2754 -1.56742 0.405409 0
M  V30 560 H 51.2674 -3.53022 -1.97883 0
M  V30 561 H 49.8374 -2.46971 -1.91636 0
M  V30 562 H 49.0574 -3.94104 0.0871128 0
M  V30 563 H 50.3454 -5.07558 -0.35536 0
M  V30 564 H 49.7434 -4.46239 -3.47688 0
M  V30 565 H 48.3004 -5.36884 -3.69592 0
M  V30 566 N 51.7335 -0.305618 -1.54608 0
M  V30 567 C 52.9795 0.302746 -2.00528 0
M  V30 568 C 53.3125 1.53184 -1.19367 0
M  V30 569 O 52.5875 1.92598 -0.271321 0
M  V30 570 C 52.8705 0.654756 -3.54097 0
M  V30 571 C 52.7235 -0.583793 -4.45995 0
M  V30 572 C 54.0425 1.47947 -4.14487 0
M  V30 573 H 51.1615 0.108564 -0.72896 0
M  V30 574 H 53.8035 -0.418634 -1.85331 0
M  V30 575 H 51.9535 1.26935 -3.67178 0
M  V30 576 H 53.6255 -1.22224 -4.44814 0
M  V30 577 H 51.8685 -1.21615 -4.16404 0
M  V30 578 H 52.5395 -0.293287 -5.5122 0
M  V30 579 H 55.0155 0.96013 -4.04871 0
M  V30 580 H 53.8915 1.69454 -5.22088 0
M  V30 581 H 54.1525 2.47011 -3.66658 0
M  V30 582 N 53.2116 1.57565 -0.0334293 0
M  V30 583 C 54.1596 2.1164 0.96496 0
M  V30 584 C 55.1536 1.04398 1.33407 0
M  V30 585 O 56.3596 1.22828 1.3158 0
M  V30 586 H 52.7346 0.676222 0.32898 0
M  V30 587 H 54.7056 2.94455 0.483614 0
M  V30 588 C 53.4546 2.66207 2.23672 0
M  V30 589 H 52.7776 3.48378 1.96145 0
M  V30 590 H 54.2176 3.07685 2.9173 0
M  V30 591 C 52.6766 1.59151 2.96939 0
M  V30 592 O 53.2066 0.993858 3.89211 0
M  V30 593 N 51.4126 1.31093 2.59351 0
M  V30 594 H 50.9596 1.7988 1.84393 0
M  V30 595 H 50.9176 0.596889 3.08682 0
M  V30 596 N 54.6897 -0.239769 1.55765 0
M  V30 597 C 55.9387 -0.964754 1.77131 0
M  V30 598 C 56.2517 -1.86213 0.59868 0
M  V30 599 O 57.4577 -2.6244 0.695522 0
M  V30 600 C 55.9137 -1.76552 3.1362 0
M  V30 601 C 55.5217 -0.915185 4.38553 0
M  V30 602 C 57.2657 -2.48281 3.44321 0
M  V30 603 C 55.1727 -1.71225 5.66071 0
M  V30 604 H 54.1027 -0.363953 0.660344 0
M  V30 605 H 56.7537 -0.219181 1.82186 0
M  V30 606 H 55.1357 -2.55331 3.02691 0
M  V30 607 H 56.3097 -0.169217 4.60489 0
M  V30 608 H 54.6247 -0.310889 4.15238 0
M  V30 609 H 57.2217 -3.08382 4.36812 0
M  V30 610 H 57.5647 -3.20256 2.65973 0
M  V30 611 H 58.0977 -1.76507 3.56497 0
M  V30 612 H 54.8367 -1.03612 6.4726 0
M  V30 613 H 54.3567 -2.43331 5.48224 0
M  V30 614 H 56.0357 -2.27758 6.05587 0
M  V30 615 N 56.1678 -1.49265 -0.50573 0
M  V30 616 C 57.1308 -1.65075 -1.59006 0
M  V30 617 C 58.1308 -0.522768 -1.52065 0
M  V30 618 O 59.3208 -0.789117 -1.55302 0
M  V30 619 C 56.4528 -1.64369 -2.98656 0
M  V30 620 H 57.6458 -2.61784 -1.46319 0
M  V30 621 H 55.1988 -1.38226 -0.729616 0
M  V30 622 H 55.9338 -0.692272 -3.16825 0
M  V30 623 H 55.7188 -2.46282 -3.05103 0
M  V30 624 H 57.2088 -1.78674 -3.77446 0
M  V30 625 N 57.6459 0.756429 -1.3826 0
M  V30 626 C 59.0569 1.33359 -1.30661 0
M  V30 627 C 59.4079 1.96161 0.0388875 0
M  V30 628 O 58.5329 1.94874 0.940918 0
M  V30 629 C 59.1279 2.42477 -2.36622 0
M  V30 630 C 57.6869 2.95922 -2.3261 0
M  V30 631 C 56.8339 1.69275 -2.19639 0
M  V30 632 H 59.7849 0.55552 -1.4866 0
M  V30 633 H 59.8059 3.22345 -2.02174 0
M  V30 634 H 59.3179 1.96739 -3.34538 0
M  V30 635 H 57.4189 3.45996 -1.38267 0
M  V30 636 H 57.5319 3.50494 -3.26636 0
M  V30 637 H 55.8959 1.92793 -1.66442 0
M  V30 638 H 56.6789 1.25619 -3.19491 0
M  V30 639 N 59.124 1.23083 0.984299 0
M  V30 640 C 60.372 1.05848 1.72165 0
M  V30 641 C 60.693 -0.406049 1.90726 0
M  V30 642 O 59.963 -1.29139 1.47309 0
M  V30 643 H 58.543 0.388685 0.637913 0
M  V30 644 H 61.205 1.54736 1.18503 0
M  V30 645 H 60.301 1.54327 2.71274 0
M  V30 646 N 60.6021 -1.18246 1.0419 0
M  V30 647 C 61.8271 -1.92736 0.765996 0
M  V30 648 C 62.2521 -1.75728 -0.67091 0
M  V30 649 O 61.6101 -1.06825 -1.46486 0
M  V30 650 C 61.6581 -3.42148 1.13875 0
M  V30 651 O 60.7621 -4.11548 0.264954 0
M  V30 652 H 60.1031 -0.601238 0.281797 0
M  V30 653 H 62.6331 -1.49942 1.39207 0
M  V30 654 H 62.6431 -3.92858 1.1012 0
M  V30 655 H 61.3181 -3.53848 2.18551 0
M  V30 656 H 59.8951 -3.71137 0.362226 0
M  V30 657 N 62.0802 -0.821533 -1.34494 0
M  V30 658 C 63.0102 -0.257138 -2.3208 0
M  V30 659 C 63.9912 0.625645 -1.58176 0
M  V30 660 O 65.1762 0.552811 -1.86166 0
M  V30 661 C 62.3062 0.582958 -3.42372 0
M  V30 662 C 61.2602 -0.202571 -4.2752 0
M  V30 663 C 60.5862 0.760179 -5.29269 0
M  V30 664 C 61.8862 -1.40998 -5.02908 0
M  V30 665 H 63.5802 -1.07247 -2.79532 0
M  V30 666 H 61.1262 -0.517163 -1.34393 0
M  V30 667 H 63.0792 0.987972 -4.09655 0
M  V30 668 H 61.8032 1.43133 -2.93565 0
M  V30 669 H 60.4622 -0.588936 -3.61838 0
M  V30 670 H 60.1102 1.60447 -4.76724 0
M  V30 671 H 59.8102 0.238809 -5.87115 0
M  V30 672 H 61.3342 1.16308 -5.9942 0
M  V30 673 H 62.7482 -1.07905 -5.63054 0
M  V30 674 H 61.1452 -1.86689 -5.70322 0
M  V30 675 H 62.2152 -2.1889 -4.32684 0
M  V30 676 N 63.5583 1.46682 -0.576371 0
M  V30 677 C 64.8353 1.95599 0.00703437 0
M  V30 678 C 65.2153 1.51904 1.46589 0
M  V30 679 O 64.5633 0.766755 2.15251 0
M  V30 680 C 64.7733 3.4864 -0.158404 0
M  V30 681 C 66.1213 4.24594 -0.0229439 0
M  V30 682 O 67.1453 3.56094 -0.0869173 0
M  V30 683 O 66.0043 5.46373 0.118015 0
M  V30 684 H 63.0983 0.825275 0.053384 0
M  V30 685 H 65.6443 1.56996 -0.644244 0
M  V30 686 H 64.4163 3.7331 -1.17282 0
M  V30 687 H 64.0393 3.94057 0.5296 0
M  V30 688 N 65.0364 0.313813 1.54444 0
M  V30 689 C 65.9834 -0.55655 2.23989 0
M  V30 690 C 66.9534 -1.11943 1.22711 0
M  V30 691 O 68.1384 -1.16158 1.51367 0
M  V30 692 C 65.2784 -1.71635 2.99392 0
M  V30 693 C 64.3914 -1.18364 4.15468 0
M  V30 694 C 63.5264 -2.30834 4.78424 0
M  V30 695 C 62.5654 -1.74762 5.86622 0
M  V30 696 N 61.7024 -2.80855 6.43479 0
M  V30 697 H 66.5424 0.0430893 2.97969 0
M  V30 698 H 64.0794 0.0330359 1.47063 0
M  V30 699 H 66.0374 -2.39868 3.41349 0
M  V30 700 H 64.6674 -2.28742 2.27765 0
M  V30 701 H 63.7194 -0.393163 3.78363 0
M  V30 702 H 65.0314 -0.733262 4.93381 0
M  V30 703 H 64.1854 -3.0699 5.23299 0
M  V30 704 H 62.9244 -2.79204 3.99871 0
M  V30 705 H 61.9294 -0.970995 5.41158 0
M  V30 706 H 63.1544 -1.2728 6.67066 0
M  V30 707 H 61.1004 -3.28535 5.67804 0
M  V30 708 H 61.0174 -2.40351 7.16776 0
M  V30 709 H 62.2854 -3.5687 6.93011 0
M  V30 710 N 66.5145 -1.57545 0.0417849 0
M  V30 711 C 67.4775 -2.09885 -0.92093 0
M  V30 712 C 68.4775 -1.01648 -1.24596 0
M  V30 713 O 69.6675 -1.27759 -1.1842 0
M  V30 714 C 66.7995 -2.57527 -2.23367 0
M  V30 715 H 67.9925 -2.96236 -0.467382 0
M  V30 716 H 65.5455 -1.5493 -0.206467 0
M  V30 717 H 66.2805 -1.74542 -2.73323 0
M  V30 718 H 66.0655 -3.36613 -2.01083 0
M  V30 719 H 67.5555 -2.98201 -2.92346 0
M  V30 720 N 67.9926 0.231505 -1.5589 0
M  V30 721 C 68.9226 1.29022 -1.94617 0
M  V30 722 C 69.9036 1.4941 -0.813067 0
M  V30 723 O 71.0886 1.6176 -1.07459 0
M  V30 724 C 68.2186 2.64199 -2.25424 0
M  V30 725 C 67.1726 2.58484 -3.41131 0
M  V30 726 C 66.4986 3.97599 -3.57518 0
M  V30 727 C 67.7986 2.1413 -4.76388 0
M  V30 728 H 69.4926 0.968563 -2.83301 0
M  V30 729 H 67.0386 0.464479 -1.36303 0
M  V30 730 H 68.9916 3.38413 -2.51107 0
M  V30 731 H 67.7156 2.98032 -1.33583 0
M  V30 732 H 66.3746 1.86727 -3.15481 0
M  V30 733 H 66.0226 4.28723 -2.6307 0
M  V30 734 H 65.7226 3.94659 -4.35337 0
M  V30 735 H 67.2466 4.7349 -3.85538 0
M  V30 736 H 68.6606 2.78083 -5.01341 0
M  V30 737 H 67.0576 2.2227 -5.57419 0
M  V30 738 H 68.1276 1.09331 -4.72414 0
M  V30 739 N 69.4707 1.49531 0.497807 0
M  V30 740 C 70.4187 1.66926 1.61983 0
M  V30 741 C 71.4127 0.535167 1.60724 0
M  V30 742 O 72.6187 0.714896 1.65195 0
M  V30 743 H 68.9937 0.526415 0.537021 0
M  V30 744 H 70.9647 2.61098 1.44465 0
M  V30 745 C 69.7137 1.75602 3.00099 0
M  V30 746 H 69.0367 2.62244 3.01775 0
M  V30 747 H 70.4767 1.91807 3.78135 0
M  V30 748 C 68.9357 0.501543 3.33146 0
M  V30 749 O 69.4657 -0.371342 3.9998 0
M  V30 750 N 67.6717 0.363531 2.88317 0
M  V30 751 H 67.2187 1.07485 2.34104 0
M  V30 752 H 67.1767 -0.474728 3.10795 0
M  V30 753 N 70.9488 -0.749086 1.3866 0
M  V30 754 C 71.8808 -1.87273 1.32142 0
M  V30 755 C 72.8938 -1.61127 0.232787 0
M  V30 756 O 74.0828 -1.71623 0.49069 0
M  V30 757 C 71.1828 -3.23005 1.02571 0
M  V30 758 C 70.3558 -3.7662 2.22433 0
M  V30 759 C 69.4148 -4.90879 1.89537 0
M  V30 760 O 68.4408 -5.05276 2.62078 0
M  V30 761 N 69.6428 -5.74198 0.853031 0
M  V30 762 H 72.4078 -1.93373 2.28969 0
M  V30 763 H 69.9688 -0.929216 1.32579 0
M  V30 764 H 71.9608 -3.96992 0.786085 0
M  V30 765 H 70.5308 -3.12262 0.145249 0
M  V30 766 H 69.7508 -2.94147 2.62434 0
M  V30 767 H 71.0388 -4.09173 3.02415 0
M  V30 768 H 70.4368 -5.6514 0.25155 0
M  V30 769 H 68.9938 -6.48313 0.67329 0
M  V30 770 N 72.4269 -1.23603 -0.977757 0
M  V30 771 C 73.6569 -1.09487 -1.75203 0
M  V30 772 C 74.0649 0.356321 -1.85814 0
M  V30 773 O 73.4079 1.25816 -1.33851 0
M  V30 774 C 73.4699 -1.64905 -3.19447 0
M  V30 775 C 73.1339 -3.13688 -3.32338 0
M  V30 776 C 74.1309 -4.10953 -3.18455 0
M  V30 777 C 71.8159 -3.53449 -3.56902 0
M  V30 778 C 73.8099 -5.45962 -3.28944 0
M  V30 779 C 71.4969 -4.88602 -3.6703 0
M  V30 780 C 72.4949 -5.84668 -3.53062 0
M  V30 781 O 72.1829 -7.17365 -3.62826 0
M  V30 782 H 71.9149 -0.38367 -0.556573 0
M  V30 783 H 74.4689 -1.6398 -1.23693 0
M  V30 784 H 72.6989 -1.04835 -3.72218 0
M  V30 785 H 74.3879 -1.46226 -3.78646 0
M  V30 786 H 75.1539 -3.81577 -2.99372 0
M  V30 787 H 71.0329 -2.79188 -3.66844 0
M  V30 788 H 74.5769 -6.20925 -3.17958 0
M  V30 789 H 70.4739 -5.17653 -3.85623 0
M  V30 790 H 71.2419 -7.2515 -3.79605 0
M  V30 791 N 73.905 1.17692 -1.04816 0
M  V30 792 C 74.868 2.19787 -0.650117 0
M  V30 793 C 75.868 1.58044 0.296427 0
M  V30 794 O 77.058 1.74012 0.0808097 0
M  V30 795 C 74.19 3.40869 0.0456987 0
M  V30 796 H 75.383 2.56516 -1.5537 0
M  V30 797 H 72.936 1.31708 -0.841594 0
M  V30 798 H 73.671 3.09681 0.962726 0
M  V30 799 H 73.456 3.86928 -0.634727 0
M  V30 800 H 74.946 4.16445 0.310432 0
M  V30 801 N 75.3831 0.828654 1.34056 0
M  V30 802 C 76.3461 0.259927 2.27721 0
M  V30 803 C 77.3461 -0.565478 1.50529 0
M  V30 804 O 78.5361 -0.38075 1.69988 0
M  V30 805 C 75.6681 -0.634944 3.34935 0
M  V30 806 H 76.8611 1.0863 2.79534 0
M  V30 807 H 74.4141 0.600951 1.44285 0
M  V30 808 H 75.1491 -1.48416 2.88346 0
M  V30 809 H 74.9341 -0.0444999 3.92075 0
M  V30 810 H 76.4241 -1.02648 4.04788 0
M  V30 811 N 76.8612 -1.46375 0.584142 0
M  V30 812 C 77.8112 -2.27371 -0.169232 0
M  V30 813 C 78.7952 -1.35955 -0.860523 0
M  V30 814 O 79.9872 -1.60119 -0.754382 0
M  V30 815 C 77.1162 -3.22334 -1.18134 0
M  V30 816 C 76.2022 -4.21235 -0.492088 0
M  V30 817 N 76.5932 -5.03766 0.453129 0
M  V30 818 C 74.8912 -4.39773 -0.742652 0
M  V30 819 C 75.5922 -5.75366 0.85609 0
M  V30 820 N 74.5682 -5.43214 0.204926 0
M  V30 821 H 78.3702 -2.88572 0.557097 0
M  V30 822 H 75.8842 -1.57242 0.406042 0
M  V30 823 H 77.8812 -3.79071 -1.73525 0
M  V30 824 H 76.5412 -2.62693 -1.90847 0
M  V30 825 H 77.5522 -5.11227 0.828723 0
M  V30 826 H 74.2292 -3.91279 -1.45625 0
M  V30 827 H 75.6192 -6.5172 1.63434 0
M  V30 828 N 78.3393 -0.321999 -1.54275 0
M  V30 829 C 79.5643 0.285791 -2.05422 0
M  V30 830 C 79.9893 1.45124 -1.19669 0
M  V30 831 O 79.3473 1.80132 -0.205441 0
M  V30 832 C 79.3953 0.69956 -3.53749 0
M  V30 833 O 78.4993 1.8021 -3.70942 0
M  V30 834 H 77.8403 0.0518962 -0.661969 0
M  V30 835 H 80.3703 -0.469954 -1.9913 0
M  V30 836 H 80.3803 0.982649 -3.9599 0
M  V30 837 H 79.0553 -0.152864 -4.15619 0
M  V30 838 H 77.6323 1.51794 -3.40607 0
M  V30 839 N 79.8174 1.5752 -0.0501392 0
M  V30 840 C 81.0654 1.9227 0.622642 0
M  V30 841 C 81.3864 0.929083 1.71444 0
M  V30 842 O 80.6564 -0.0262186 1.95882 0
M  V30 843 H 79.2364 0.709739 0.232981 0
M  V30 844 H 81.8984 1.94628 -0.102898 0
M  V30 845 H 80.9944 2.93479 1.06191 0
M  V30 846 N 81.2955 -0.223234 1.56011 0
M  V30 847 C 82.5425 -0.947875 1.78946 0
M  V30 848 C 82.8705 -1.844 0.618608 0
M  V30 849 O 82.1255 -1.91629 -0.397093 0
M  V30 850 C 82.4245 -1.81948 3.0762 0
M  V30 851 C 82.0905 -1.07672 4.37856 0
M  V30 852 C 80.7525 -0.871544 4.73242 0
M  V30 853 C 83.1045 -0.552081 5.18268 0
M  V30 854 C 80.4325 -0.129791 5.86556 0
M  V30 855 C 82.7845 0.17632 6.32354 0
M  V30 856 C 81.4485 0.39277 6.66343 0
M  V30 857 H 80.7185 -0.346852 0.654809 0
M  V30 858 H 83.3655 -0.216171 1.90276 0
M  V30 859 H 81.6705 -2.61899 2.91404 0
M  V30 860 H 83.3675 -2.38227 3.22566 0
M  V30 861 H 79.9575 -1.24662 4.1007 0
M  V30 862 H 84.1415 -0.698076 4.91366 0
M  V30 863 H 79.3975 0.048153 6.11381 0
M  V30 864 H 83.5715 0.590367 6.93893 0
M  V30 865 H 81.1985 0.969466 7.53993 0
M  V30 866 N 82.7736 -1.49793 -0.48987 0
M  V30 867 C 84.0016 -1.63568 -1.26701 0
M  V30 868 C 84.4166 -0.311465 -1.86213 0
M  V30 869 O 83.7736 0.704416 -1.68357 0
M  V30 870 C 83.8246 -2.71284 -2.38929 0
M  V30 871 O 83.5456 -3.9857 -1.81861 0
M  V30 872 C 85.0466 -2.95864 -3.3012 0
M  V30 873 H 82.2666 -0.550342 -0.383881 0
M  V30 874 H 84.8106 -1.95898 -0.586864 0
M  V30 875 H 82.9656 -2.417 -3.02753 0
M  V30 876 H 83.3796 -4.57993 -2.55622 0
M  V30 877 H 84.8536 -3.74941 -4.05121 0
M  V30 878 H 85.3306 -2.06206 -3.87783 0
M  V30 879 H 85.9366 -3.26907 -2.72051 0
M  V30 880 N 84.2517 0.741722 -1.39055 0
M  V30 881 C 85.1817 1.869 -1.39966 0
M  V30 882 C 86.1627 1.6804 -0.26392 0
M  V30 883 O 87.3477 1.88458 -0.468755 0
M  V30 884 C 84.4777 3.24572 -1.23574 0
M  V30 885 C 83.4317 3.58056 -2.34477 0
M  V30 886 C 82.7577 4.94593 -2.0318 0
M  V30 887 C 84.0577 3.61716 -3.76774 0
M  V30 888 H 85.7517 1.86395 -2.34302 0
M  V30 889 H 83.2977 0.895361 -1.1278 0
M  V30 890 H 85.2507 4.031 -1.22834 0
M  V30 891 H 83.9747 3.25587 -0.257045 0
M  V30 892 H 82.6337 2.81854 -2.34423 0
M  V30 893 H 82.2817 4.92181 -1.03765 0
M  V30 894 H 81.9817 5.17964 -2.77465 0
M  V30 895 H 83.5057 5.75486 -2.04079 0
M  V30 896 H 84.9197 4.30335 -3.78794 0
M  V30 897 H 83.3167 3.96603 -4.50362 0
M  V30 898 H 84.3867 2.61672 -4.08235 0
M  V30 899 N 85.7298 1.2412 0.971189 0
M  V30 900 C 86.9548 1.10667 1.75407 0
M  V30 901 C 87.3798 -0.337048 1.85056 0
M  V30 902 O 86.7378 -1.24396 1.31892 0
M  V30 903 C 86.7858 1.74726 3.15441 0
M  V30 904 O 85.8898 1.01566 3.99697 0
M  V30 905 H 85.2308 0.387341 0.539317 0
M  V30 906 H 87.7608 1.64358 1.2185 0
M  V30 907 H 87.7708 1.80341 3.6598 0
M  V30 908 H 86.4458 2.79773 3.07734 0
M  V30 909 H 85.0228 1.03713 3.58187 0
M  V30 910 N 87.2079 -1.17134 1.05439 0
M  V30 911 C 88.4539 -1.87733 0.767077 0
M  V30 912 C 88.7869 -1.8098 -0.704253 0
M  V30 913 O 88.0619 -1.21951 -1.5152 0
M  V30 914 C 88.3449 -3.37659 1.25133 0
M  V30 915 C 88.1979 -3.53149 2.78578 0
M  V30 916 C 89.5169 -4.31768 0.852324 0
M  V30 917 H 86.6359 -0.681687 0.280129 0
M  V30 918 H 89.2779 -1.37732 1.30881 0
M  V30 919 H 87.4279 -3.80373 0.790469 0
M  V30 920 H 89.0999 -3.19434 3.32806 0
M  V30 921 H 87.3429 -2.95345 3.17732 0
M  V30 922 H 88.0139 -4.58403 3.07523 0
M  V30 923 H 90.4899 -3.96909 1.24911 0
M  V30 924 H 89.3659 -5.35199 1.21873 0
M  V30 925 H 89.6269 -4.41429 -0.243485 0
M  V30 926 N 88.686 -0.835752 -1.33615 0
M  V30 927 C 89.963 -0.352017 -1.92406 0
M  V30 928 C 90.343 1.16225 -1.76224 0
M  V30 929 O 89.691 1.97526 -1.14873 0
M  V30 930 C 89.901 -0.795485 -3.39813 0
M  V30 931 C 91.249 -0.801703 -4.16963 0
M  V30 932 O 92.273 -0.738889 -3.48452 0
M  V30 933 O 91.132 -0.886607 -5.3926 0
M  V30 934 H 88.226 -0.0989641 -0.821057 0
M  V30 935 H 90.772 -0.921397 -1.42507 0
M  V30 936 H 89.544 -1.83795 -3.45449 0
M  V30 937 H 89.167 -0.202505 -3.97084 0
M  V30 938 N 90.1641 1.46063 -0.591896 0
M  V30 939 C 91.1271 2.28854 0.125973 0
M  V30 940 C 92.1271 1.38903 0.810107 0
M  V30 941 O 93.3171 1.61186 0.66066 0
M  V30 942 C 90.4491 3.19526 1.1881 0
M  V30 943 H 91.6421 2.93802 -0.601717 0
M  V30 944 H 89.1951 1.52325 -0.350254 0
M  V30 945 H 89.9301 2.59345 1.94707 0
M  V30 946 H 89.7151 3.85766 0.701936 0
M  V30 947 H 91.2051 3.81817 1.69132 0
M  V30 948 N 91.6422 0.330177 1.54103 0
M  V30 949 C 92.8672 -0.274893 2.0557 0
M  V30 950 C 93.2922 -1.44487 1.20437 0
M  V30 951 O 92.6502 -1.80021 0.214991 0
M  V30 952 C 92.6982 -0.68079 3.54115 0
M  V30 953 O 91.8022 -1.7824 3.71893 0
M  V30 954 H 91.1432 -0.0483849 0.662235 0
M  V30 955 H 93.6732 0.480508 1.98878 0
M  V30 956 H 93.6832 -0.961635 3.96505 0
M  V30 957 H 92.3582 0.174903 4.15532 0
M  V30 958 H 90.9352 -1.49985 3.41407 0
M  V30 959 N 93.1203 -1.57491 0.0584922 0
M  V30 960 C 94.0503 -2.14988 -0.911178 0
M  V30 961 C 95.0313 -1.07343 -1.31952 0
M  V30 962 O 96.2163 -1.35318 -1.39294 0
M  V30 963 C 93.3463 -2.70078 -2.18347 0
M  V30 964 C 92.3003 -3.82771 -1.91495 0
M  V30 965 C 91.6263 -4.24408 -3.25241 0
M  V30 966 C 92.9263 -5.07592 -1.23075 0
M  V30 967 H 94.6203 -2.96263 -0.432246 0
M  V30 968 H 92.1663 -1.42512 -0.206469 0
M  V30 969 H 94.1193 -3.08943 -2.86587 0
M  V30 970 H 92.8433 -1.86005 -2.68458 0
M  V30 971 H 91.5023 -3.44389 -1.25664 0
M  V30 972 H 91.1503 -3.37275 -3.73168 0
M  V30 973 H 90.8503 -5.00366 -3.08071 0
M  V30 974 H 92.3743 -4.65879 -3.94701 0
M  V30 975 H 93.7883 -5.43857 -1.81362 0
M  V30 976 H 92.1853 -5.88741 -1.16207 0
M  V30 977 H 93.2553 -4.84454 -0.207847 0
M  V30 978 N 94.5984 0.214957 -1.56127 0
M  V30 979 C 95.8264 0.955092 -1.83536 0
M  V30 980 C 96.2414 1.77677 -0.638472 0
M  V30 981 O 95.5984 1.78219 0.392968 0
M  V30 982 C 95.6494 1.86734 -3.09536 0
M  V30 983 O 95.3704 1.07887 -4.24608 0
M  V30 984 C 96.8714 2.72082 -3.4998 0
M  V30 985 H 94.0914 0.279611 -0.609966 0
M  V30 986 H 96.6354 0.228197 -2.03223 0
M  V30 987 H 94.7904 2.5481 -2.91806 0
M  V30 988 H 95.2044 1.69872 -4.9623 0
M  V30 989 H 96.6784 3.31782 -4.41163 0
M  V30 990 H 97.1554 3.44806 -2.7204 0
M  V30 991 H 97.7614 2.09409 -3.70173 0
M  V30 992 N 96.0765 1.50051 0.48192 0
M  V30 993 C 97.4925 1.37237 0.814756 0
M  V30 994 C 97.6925 0.420109 1.97072 0
M  V30 995 O 96.7485 -0.141246 2.52105 0
M  V30 996 C 98.0615 2.78375 1.13701 0
M  V30 997 C 99.6095 2.87213 1.2441 0
M  V30 998 C 100.084 4.29161 1.59954 0
M  V30 999 N 101.575 4.32061 1.66967 0
M  V30 1000 C 102.31 5.38879 1.95952 0
M  V30 1001 N 101.806 6.55918 2.23031 0
M  V30 1002 N 103.599 5.26312 1.97363 0
M  V30 1003 H 95.7505 2.10546 -0.28005 0
M  V30 1004 H 98.0135 0.945921 -0.0627454 0
M  V30 1005 H 97.7195 3.49845 0.360787 0
M  V30 1006 H 97.5935 3.14941 2.07586 0
M  V30 1007 H 99.9805 2.15969 2.01101 0
M  V30 1008 H 100.061 2.54204 0.285299 0
M  V30 1009 H 99.7055 5.00938 0.838067 0
M  V30 1010 H 99.6355 4.59648 2.56966 0
M  V30 1011 H 102.126 3.47661 1.48123 0
M  V30 1012 H 102.439 7.33139 2.44391 0
M  V30 1013 H 100.784 6.59112 2.20447 0
M  V30 1014 H 103.975 4.33876 1.75697 0
M  V30 1015 H 104.148 6.09649 2.19618 0
M  V30 1016 N 97.5546 -0.734337 1.39446 0
M  V30 1017 C 98.8026 -1.49096 1.36436 0
M  V30 1018 C 99.1236 -1.94961 -0.0388255 0
M  V30 1019 O 98.3936 -1.69033 -0.990191 0
M  V30 1020 H 96.9736 -0.5531 0.502085 0
M  V30 1021 H 99.6356 -0.871725 1.74319 0
M  V30 1022 H 98.7316 -2.37276 2.02747 0
M  V30 1023 N 99.0327 -1.24633 -0.964593 0
M  V30 1024 C 99.9797 -1.04144 -2.05968 0
M  V30 1025 C 100.95 0.046262 -1.66036 0
M  V30 1026 O 102.135 -0.108972 -1.90489 0
M  V30 1027 C 99.2747 -0.65563 -3.38815 0
M  V30 1028 C 98.3877 -1.81714 -3.91923 0
M  V30 1029 C 97.5227 -1.37662 -5.13052 0
M  V30 1030 C 96.5617 -2.50788 -5.58365 0
M  V30 1031 N 95.6987 -2.07582 -6.70712 0
M  V30 1032 H 100.539 -1.9787 -2.22827 0
M  V30 1033 H 98.0757 -0.9855 -1.09208 0
M  V30 1034 H 100.034 -0.412954 -4.15151 0
M  V30 1035 H 98.6637 0.244627 -3.21872 0
M  V30 1036 H 97.7157 -2.1734 -3.12198 0
M  V30 1037 H 99.0277 -2.66705 -4.21509 0
M  V30 1038 H 98.1817 -1.093 -5.96773 0
M  V30 1039 H 96.9207 -0.497293 -4.85158 0
M  V30 1040 H 95.9257 -2.79906 -4.73215 0
M  V30 1041 H 97.1507 -3.39283 -5.88272 0
M  V30 1042 H 95.0967 -1.22051 -6.44546 0
M  V30 1043 H 95.0137 -2.86125 -6.99763 0
M  V30 1044 H 96.2817 -1.82369 -7.57867 0
M  V30 1045 N 100.511 1.16574 -1.06058 0
M  V30 1046 C 101.443 2.2045 -0.627239 0
M  V30 1047 C 102.456 1.59752 0.313534 0
M  V30 1048 O 103.645 1.78192 0.104896 0
M  V30 1049 C 100.745 3.3875 0.100974 0
M  V30 1050 C 99.9178 4.29008 -0.852687 0
M  V30 1051 C 98.9768 5.25944 -0.164152 0
M  V30 1052 O 98.0028 5.63535 -0.801047 0
M  V30 1053 N 99.2048 5.70075 1.09518 0
M  V30 1054 H 101.97 2.58249 -1.52077 0
M  V30 1055 H 99.5308 1.3156 -0.943594 0
M  V30 1056 H 101.523 4.00638 0.57194 0
M  V30 1057 H 100.093 2.99476 0.89628 0
M  V30 1058 H 99.3128 3.64419 -1.50308 0
M  V30 1059 H 100.601 4.86195 -1.49972 0
M  V30 1060 H 99.9988 5.41624 1.6328 0
M  V30 1061 H 98.5558 6.34067 1.51006 0
M  V30 1062 N 101.989 0.842826 1.3317 0
M  V30 1063 C 103.214 0.453129 2.02389 0
M  V30 1064 C 103.639 -0.939105 1.6298 0
M  V30 1065 O 102.997 -1.61472 0.8244 0
M  V30 1066 C 103.045 0.586094 3.55805 0
M  V30 1067 O 102.149 -0.386029 4.10589 0
M  V30 1068 H 101.49 0.183664 0.638094 0
M  V30 1069 H 104.02 1.13875 1.69981 0
M  V30 1070 H 104.03 0.469209 4.05293 0
M  V30 1071 H 102.705 1.6014 3.83833 0
M  V30 1072 H 101.282 -0.226371 3.72212 0
M  V30 1073 N 103.467 -1.45747 0.599634 0
M  V30 1074 C 104.415 -2.322 -0.136426 0
M  V30 1075 C 105.409 -1.45497 -0.867583 0
M  V30 1076 O 106.615 -1.62027 -0.78405 0
M  V30 1077 H 102.99 -0.749368 -0.0628588 0
M  V30 1078 H 104.961 -2.92072 0.611281 0
M  V30 1079 C 103.71 -3.28974 -1.12567 0
M  V30 1080 H 103.033 -3.9568 -0.572484 0
M  V30 1081 H 104.473 -3.92212 -1.61077 0
M  V30 1082 C 102.932 -2.55561 -2.19523 0
M  V30 1083 O 103.462 -2.33111 -3.27143 0
M  V30 1084 N 101.668 -2.15832 -1.94589 0
M  V30 1085 H 101.215 -2.3429 -1.07078 0
M  V30 1086 H 101.173 -1.67034 -2.66359 0
M  V30 1087 N 104.945 -0.338344 -1.53925 0
M  V30 1088 C 106.193 0.259245 -2.0043 0
M  V30 1089 C 106.514 1.51484 -1.22791 0
M  V30 1090 O 105.784 1.93037 -0.33368 0
M  V30 1091 H 104.364 0.0987845 -0.740439 0
M  V30 1092 H 107.026 -0.458302 -1.89435 0
M  V30 1093 H 106.122 0.505334 -3.07982 0
M  V30 1094 N 106.423 1.57458 -0.0668435 0
M  V30 1095 C 107.353 2.15468 0.899764 0
M  V30 1096 C 108.334 1.08042 1.31381 0
M  V30 1097 O 109.519 1.36054 1.38574 0
M  V30 1098 C 106.649 2.71232 2.16911 0
M  V30 1099 C 105.603 3.83781 1.89463 0
M  V30 1100 C 104.929 4.26127 3.22986 0
M  V30 1101 C 106.229 5.08238 1.20381 0
M  V30 1102 H 107.923 2.96488 0.416529 0
M  V30 1103 H 105.469 1.4262 0.198908 0
M  V30 1104 H 107.422 3.10458 2.84945 0
M  V30 1105 H 106.146 1.87426 2.67468 0
M  V30 1106 H 104.805 3.45051 1.23836 0
M  V30 1107 H 104.453 3.39249 3.71374 0
M  V30 1108 H 104.153 5.01993 3.05413 0
M  V30 1109 H 105.677 4.67966 3.92225 0
M  V30 1110 H 107.091 5.44811 1.78475 0
M  V30 1111 H 105.488 5.89349 1.13083 0
M  V30 1112 H 106.558 4.84558 0.182153 0
M  V30 1113 N 107.901 -0.206675 1.56239 0
M  V30 1114 C 108.851 -1.26 1.90021 0
M  V30 1115 C 109.835 -1.41566 0.764721 0
M  V30 1116 O 111.027 -1.44131 1.02739 0
M  V30 1117 C 108.156 -2.6073 2.23326 0
M  V30 1118 C 107.242 -2.49005 3.43304 0
M  V30 1119 N 107.633 -2.06946 4.61527 0
M  V30 1120 C 105.931 -2.79927 3.47213 0
M  V30 1121 C 106.632 -2.06832 5.43687 0
M  V30 1122 N 105.608 -2.47892 4.83788 0
M  V30 1123 H 109.41 -0.925955 2.78932 0
M  V30 1124 H 106.924 -0.415172 1.57003 0
M  V30 1125 H 108.921 -3.36798 2.45708 0
M  V30 1126 H 107.581 -2.94968 1.35735 0
M  V30 1127 H 108.592 -1.77839 4.86409 0
M  V30 1128 H 105.269 -3.18438 2.70006 0
M  V30 1129 H 106.659 -1.76312 6.48354 0
M  V30 1130 N 109.379 -1.50304 -0.473955 0
M  V30 1131 C 110.627 -1.60832 -1.22382 0
M  V30 1132 C 110.948 -0.30939 -1.9253 0
M  V30 1133 O 110.218 0.67296 -1.83978 0
M  V30 1134 H 108.798 -0.592652 -0.454723 0
M  V30 1135 H 111.46 -1.87068 -0.546968 0
M  V30 1136 H 110.556 -2.41803 -1.97327 0
M  V30 1137 N 110.857 0.726932 -1.39834 0
M  V30 1138 C 112.134 1.47902 -1.28001 0
M  V30 1139 C 112.514 2.1083 0.106789 0
M  V30 1140 O 111.862 1.99242 1.11869 0
M  V30 1141 C 112.072 2.52392 -2.41038 0
M  V30 1142 C 113.42 3.18546 -2.80737 0
M  V30 1143 O 114.444 2.62708 -2.40547 0
M  V30 1144 O 113.303 4.19604 -3.50135 0
M  V30 1145 H 110.397 0.657163 -0.502062 0
M  V30 1146 H 112.943 0.760071 -1.51727 0
M  V30 1147 H 111.715 2.04329 -3.33715 0
M  V30 1148 H 111.338 3.31837 -2.19021 0
M  V30 1149 N 112.336 1.25143 0.95797 0
M  V30 1150 C 113.566 1.12261 1.73439 0
M  V30 1151 C 113.974 -0.326715 1.86358 0
M  V30 1152 O 113.317 -1.2367 1.35836 0
M  V30 1153 C 113.379 1.69966 3.16784 0
M  V30 1154 C 113.043 3.18936 3.27305 0
M  V30 1155 C 114.04 4.15968 3.11877 0
M  V30 1156 C 111.725 3.59083 3.51234 0
M  V30 1157 C 113.719 5.51126 3.20217 0
M  V30 1158 C 111.406 4.9438 3.5921 0
M  V30 1159 C 112.404 5.90211 3.43716 0
M  V30 1160 O 112.092 7.23046 3.51368 0
M  V30 1161 H 111.824 0.392476 0.550399 0
M  V30 1162 H 114.378 1.65927 1.21068 0
M  V30 1163 H 112.608 1.10744 3.70503 0
M  V30 1164 H 114.297 1.52232 3.76272 0
M  V30 1165 H 115.063 3.86292 2.93264 0
M  V30 1166 H 110.942 2.84989 3.62356 0
M  V30 1167 H 114.486 6.25905 3.0804 0
M  V30 1168 H 110.383 5.23723 3.77339 0
M  V30 1169 H 111.151 7.31097 3.6802 0
M  V30 1170 N 113.814 -1.1601 1.06675 0
M  V30 1171 C 115.091 -1.82679 0.699114 0
M  V30 1172 C 115.471 -1.94559 -0.819137 0
M  V30 1173 O 114.819 -1.49169 -1.73092 0
M  V30 1174 C 115.029 -3.19445 1.40555 0
M  V30 1175 C 116.377 -3.95171 1.55323 0
M  V30 1176 O 117.401 -3.28976 1.36577 0
M  V30 1177 O 116.26 -5.13833 1.86112 0
M  V30 1178 H 113.354 -0.788954 0.247951 0
M  V30 1179 H 115.9 -1.23179 1.16726 0
M  V30 1180 H 114.672 -3.05856 2.44065 0
M  V30 1181 H 114.295 -3.86625 0.927733 0
M  V30 1182 N 115.292 -0.849877 -1.32721 0
M  V30 1183 C 116.538 -0.451591 -1.97708 0
M  V30 1184 C 116.871 0.989175 -1.6712 0
M  V30 1185 O 116.146 1.69334 -0.956891 0
M  V30 1186 C 116.429 -0.685598 -3.53513 0
M  V30 1187 C 116.282 -2.17444 -3.93749 0
M  V30 1188 C 117.601 -0.138874 -4.39881 0
M  V30 1189 H 114.72 -0.16555 -0.718166 0
M  V30 1190 H 117.362 -1.06742 -1.57182 0
M  V30 1191 H 115.512 -0.161416 -3.88165 0
M  V30 1192 H 117.184 -2.76433 -3.693 0
M  V30 1193 H 115.427 -2.65476 -3.43081 0
M  V30 1194 H 116.098 -2.28888 -5.02309 0
M  V30 1195 H 118.574 -0.587068 -4.11938 0
M  V30 1196 H 117.45 -0.332213 -5.47894 0
M  V30 1197 H 117.711 0.95806 -4.31594 0
M  V30 1198 N 116.77 1.45427 -0.607355 0
M  V30 1199 C 117.68 2.34325 0.113463 0
M  V30 1200 C 118.696 1.51226 0.860617 0
M  V30 1201 O 119.872 1.84029 0.818255 0
M  V30 1202 C 116.937 3.28839 1.09844 0
M  V30 1203 C 115.998 4.27844 0.353271 0
M  V30 1204 C 115.231 5.17842 1.29133 0
M  V30 1205 O 115.454 5.11264 2.52913 0
M  V30 1206 O 114.388 5.96713 0.788523 0
M  V30 1207 H 118.214 2.97364 -0.617094 0
M  V30 1208 H 115.799 1.44807 -0.367619 0
M  V30 1209 H 117.681 3.8708 1.66575 0
M  V30 1210 H 116.356 2.68365 1.81003 0
M  V30 1211 H 115.263 3.7322 -0.256494 0
M  V30 1212 H 116.596 4.91173 -0.317822 0
M  V30 1213 N 118.248 0.346503 1.53744 0
M  V30 1214 C 119.473 -0.253074 2.0585 0
M  V30 1215 C 119.898 -1.43202 1.21962 0
M  V30 1216 O 119.256 -1.79783 0.234073 0
M  V30 1217 C 119.304 -0.643193 3.54817 0
M  V30 1218 O 118.408 -1.74286 3.73762 0
M  V30 1219 H 117.749 -0.0413583 0.662711 0
M  V30 1220 H 120.279 0.501574 1.98357 0
M  V30 1221 H 120.289 -0.919526 3.97503 0
M  V30 1222 H 118.964 0.218966 4.15323 0
M  V30 1223 H 117.541 -1.46356 3.42979 0
M  V30 1224 N 119.726 -1.57421 0.075193 0
M  V30 1225 C 120.974 -1.93236 -0.591974 0
M  V30 1226 C 121.295 -0.956241 -1.69944 0
M  V30 1227 O 120.565 -0.00494792 -1.95899 0
M  V30 1228 H 119.145 -0.713355 -0.22166 0
M  V30 1229 H 121.807 -1.9444 0.133848 0
M  V30 1230 H 120.903 -2.95131 -1.01509 0
M  V30 1231 N 121.204 0.198386 -1.56346 0
M  V30 1232 C 122.134 1.24865 -1.9731 0
M  V30 1233 C 123.115 1.47651 -0.844576 0
M  V30 1234 O 124.3 1.59444 -1.10866 0
M  V30 1235 C 121.43 2.59358 -2.30977 0
M  V30 1236 C 120.384 2.5119 -3.46537 0
M  V30 1237 C 119.71 3.89926 -3.65871 0
M  V30 1238 C 121.01 2.03977 -4.80823 0
M  V30 1239 H 122.704 0.908252 -2.85291 0
M  V30 1240 H 120.25 0.435462 -1.37258 0
M  V30 1241 H 122.203 3.33011 -2.58228 0
M  V30 1242 H 120.927 2.95132 -1.39874 0
M  V30 1243 H 119.586 1.79993 -3.19371 0
M  V30 1244 H 119.234 4.23046 -2.72105 0
M  V30 1245 H 118.934 3.85336 -4.4361 0
M  V30 1246 H 120.458 4.65205 -3.95495 0
M  V30 1247 H 121.872 2.67386 -5.07127 0
M  V30 1248 H 120.269 2.10397 -5.62008 0
M  V30 1249 H 121.339 0.992861 -4.74626 0
M  V30 1250 N 122.682 1.50554 0.465978 0
M  V30 1251 C 123.614 1.65949 1.58093 0
M  V30 1252 C 124.627 0.540827 1.53554 0
M  V30 1253 O 125.816 0.814187 1.5885 0
M  V30 1254 C 122.916 1.63261 2.96983 0
M  V30 1255 C 122.089 2.91245 3.26336 0
M  V30 1256 C 121.148 2.8113 4.44806 0
M  V30 1257 O 120.174 3.55086 4.44862 0
M  V30 1258 N 121.376 1.95032 5.46756 0
M  V30 1259 H 124.141 2.62122 1.45301 0
M  V30 1260 H 121.702 1.48082 0.65448 0
M  V30 1261 H 123.694 1.54101 3.74212 0
M  V30 1262 H 122.264 0.748032 3.03518 0
M  V30 1263 H 121.484 3.14493 2.37672 0
M  V30 1264 H 122.772 3.76022 3.42761 0
M  V30 1265 H 122.17 1.3427 5.49534 0
M  V30 1266 H 120.727 1.91772 6.2295 0
M  V30 1267 N 124.16 -0.719506 1.40217 0
M  V30 1268 C 125.092 -1.84428 1.36084 0
M  V30 1269 C 126.105 -1.60597 0.266913 0
M  V30 1270 O 127.294 -1.70544 0.526983 0
M  V30 1271 C 124.394 -3.20757 1.094 0
M  V30 1272 C 123.567 -3.71817 2.30372 0
M  V30 1273 C 122.626 -4.86748 1.99907 0
M  V30 1274 O 121.652 -4.99603 2.72737 0
M  V30 1275 N 122.854 -5.7226 0.974635 0
M  V30 1276 H 125.619 -1.88473 2.33019 0
M  V30 1277 H 123.18 -0.900885 1.3452 0
M  V30 1278 H 125.172 -3.95235 0.870116 0
M  V30 1279 H 123.742 -3.11884 0.211452 0
M  V30 1280 H 122.962 -2.88514 2.68614 0
M  V30 1281 H 124.25 -4.02666 3.11026 0
M  V30 1282 H 123.648 -5.6448 0.371368 0
M  V30 1283 H 122.205 -6.46739 0.810656 0
M  V30 1284 N 125.638 -1.25649 -0.95132 0
M  V30 1285 C 126.568 -1.08808 -2.06599 0
M  V30 1286 C 127.549 0.00382547 -1.701 0
M  V30 1287 O 128.734 -0.166325 -1.93486 0
M  V30 1288 C 125.864 -0.709542 -3.39975 0
M  V30 1289 C 124.818 -1.75206 -3.90496 0
M  V30 1290 C 124.144 -1.22811 -5.20405 0
M  V30 1291 C 125.444 -3.15153 -4.16504 0
M  V30 1292 H 127.138 -2.02048 -2.20946 0
M  V30 1293 H 124.684 -0.972835 -1.06169 0
M  V30 1294 H 126.637 -0.578649 -4.17408 0
M  V30 1295 H 125.361 0.258556 -3.25575 0
M  V30 1296 H 124.02 -1.87145 -3.15234 0
M  V30 1297 H 123.668 -0.250145 -5.02378 0
M  V30 1298 H 123.368 -1.92492 -5.55176 0
M  V30 1299 H 124.892 -1.10968 -6.00432 0
M  V30 1300 H 126.306 -3.06349 -4.84586 0
M  V30 1301 H 124.703 -3.82333 -4.62538 0
M  V30 1302 H 125.773 -3.61966 -3.22658 0
M  V30 1303 N 127.117 1.15442 -1.07289 0
M  V30 1304 C 128.047 2.22312 -0.714107 0
M  V30 1305 C 129.028 1.67467 0.298155 0
M  V30 1306 O 130.213 1.93445 0.171048 0
M  V30 1307 C 127.343 3.47124 -0.110448 0
M  V30 1308 C 126.297 4.14926 -1.04979 0
M  V30 1309 C 125.623 5.33807 -0.308924 0
M  V30 1310 C 126.923 4.64762 -2.38314 0
M  V30 1311 H 128.617 2.5258 -1.6076 0
M  V30 1312 H 126.163 1.21404 -0.77441 0
M  V30 1313 H 128.116 4.21124 0.152482 0
M  V30 1314 H 126.84 3.16187 0.81812 0
M  V30 1315 H 125.499 3.42866 -1.29764 0
M  V30 1316 H 125.147 4.99126 0.623084 0
M  V30 1317 H 124.847 5.80113 -0.935036 0
M  V30 1318 H 126.371 6.10576 -0.0537771 0
M  V30 1319 H 127.785 5.30292 -2.1786 0
M  V30 1320 H 126.182 5.21728 -2.96514 0
M  V30 1321 H 127.252 3.80434 -3.00663 0
M  V30 1322 N 128.595 0.856903 1.32268 0
M  V30 1323 C 129.872 0.382583 1.91822 0
M  V30 1324 C 130.252 -1.13407 1.78051 0
M  V30 1325 O 129.6 -1.95673 1.18001 0
M  V30 1326 C 129.81 0.849446 3.38505 0
M  V30 1327 C 131.158 0.867936 4.15634 0
M  V30 1328 O 132.182 0.794232 3.47232 0
M  V30 1329 O 131.041 0.972286 5.37781 0
M  V30 1330 H 128.135 0.112014 0.819379 0
M  V30 1331 H 130.681 0.943952 1.41024 0
M  V30 1332 H 129.453 1.89267 3.42482 0
M  V30 1333 H 129.076 0.265652 3.96712 0
M  V30 1334 N 130.073 -1.45103 0.615059 0
M  V30 1335 C 131.321 -2.01784 0.112955 0
M  V30 1336 C 131.642 -1.48504 -1.26378 0
M  V30 1337 O 130.912 -0.682245 -1.83636 0
M  V30 1338 H 129.492 -0.745993 0.0387668 0
M  V30 1339 H 132.154 -1.77808 0.798141 0
M  V30 1340 H 131.25 -3.12025 0.0684069 0
M  V30 1341 N 131.551 -0.354651 -1.53558 0
M  V30 1342 C 132.776 0.242153 -2.05981 0
M  V30 1343 C 133.201 1.42553 -1.2272 0
M  V30 1344 O 132.559 1.79656 -0.243604 0
M  V30 1345 C 132.607 0.624367 -3.55154 0
M  V30 1346 O 131.711 1.72301 -3.74681 0
M  V30 1347 H 131.052 0.0378432 -0.662921 0
M  V30 1348 H 133.582 -0.512087 -1.98088 0
M  V30 1349 H 133.592 0.898433 -3.97985 0
M  V30 1350 H 132.267 -0.240989 -4.15201 0
M  V30 1351 H 130.844 1.44535 -3.4375 0
M  V30 1352 N 133.029 1.57378 -0.0835403 0
M  V30 1353 C 134.277 1.93547 0.581718 0
M  V30 1354 C 134.598 0.96524 1.69435 0
M  V30 1355 O 133.868 0.0153369 1.95894 0
M  V30 1356 H 132.448 0.714521 0.217874 0
M  V30 1357 H 135.11 1.94366 -0.144158 0
M  V30 1358 H 134.206 2.95665 0.999423 0
M  V30 1359 N 134.507 -0.190092 1.56449 0
M  V30 1360 C 135.437 -1.23816 1.97969 0
M  V30 1361 C 136.418 -1.47201 0.852395 0
M  V30 1362 O 137.603 -1.58854 1.1171 0
M  V30 1363 C 134.733 -2.5813 2.3235 0
M  V30 1364 C 133.687 -2.49348 3.47864 0
M  V30 1365 C 133.013 -3.8798 3.67934 0
M  V30 1366 C 134.313 -2.01424 4.81898 0
M  V30 1367 H 136.007 -0.89311 2.85769 0
M  V30 1368 H 133.553 -0.428177 1.37487 0
M  V30 1369 H 135.506 -3.31637 2.59991 0
M  V30 1370 H 134.23 -2.94386 1.41438 0
M  V30 1371 H 132.889 -1.78297 3.20321 0
M  V30 1372 H 132.537 -4.21597 2.74344 0
M  V30 1373 H 132.237 -3.82978 4.45648 0
M  V30 1374 H 133.761 -4.63101 3.97957 0
M  V30 1375 H 135.175 -2.64693 5.08538 0
M  V30 1376 H 133.572 -2.07413 5.63116 0
M  V30 1377 H 134.642 -0.967677 4.75146 0
M  V30 1378 N 135.985 -1.50799 -0.457987 0
M  V30 1379 C 136.917 -1.66786 -1.57211 0
M  V30 1380 C 137.93 -0.548962 -1.53265 0
M  V30 1381 O 139.119 -0.8226 -1.58416 0
M  V30 1382 C 136.219 -1.64834 -2.96113 0
M  V30 1383 C 135.392 -2.92971 -3.24787 0
M  V30 1384 C 134.451 -2.83485 -4.43309 0
M  V30 1385 O 133.477 -3.5744 -4.42973 0
M  V30 1386 N 134.679 -1.97929 -5.45714 0
M  V30 1387 H 137.444 -2.62889 -1.43909 0
M  V30 1388 H 135.005 -1.48427 -0.646617 0
M  V30 1389 H 136.997 -1.56084 -3.7339 0
M  V30 1390 H 135.567 -0.764118 -3.03117 0
M  V30 1391 H 134.787 -3.15749 -2.36 0
M  V30 1392 H 136.075 -3.77834 -3.40762 0
M  V30 1393 H 135.473 -1.37182 -5.48815 0
M  V30 1394 H 134.03 -1.95073 -6.21924 0
M  V30 1395 N 137.463 0.71206 -1.40597 0
M  V30 1396 C 138.709 1.47416 -1.39271 0
M  V30 1397 C 139.042 1.942 0.00388791 0
M  V30 1398 O 138.317 1.68403 0.973179 0
M  V30 1399 C 138.6 2.69774 -2.38525 0
M  V30 1400 C 138.453 2.28861 -3.87224 0
M  V30 1401 C 139.772 3.71939 -2.35264 0
M  V30 1402 H 136.891 0.534713 -0.5072 0
M  V30 1403 H 139.533 0.812375 -1.71757 0
M  V30 1404 H 137.683 3.26238 -2.10953 0
M  V30 1405 H 139.355 1.77852 -4.25636 0
M  V30 1406 H 137.598 1.60824 -4.02887 0
M  V30 1407 H 138.269 3.16584 -4.52193 0
M  V30 1408 H 140.745 3.25113 -2.59694 0
M  V30 1409 H 139.621 4.55186 -3.06753 0
M  V30 1410 H 139.882 4.20484 -1.36549 0
M  V30 1411 N 138.941 1.26152 0.944643 0
M  V30 1412 C 139.888 1.07408 2.04285 0
M  V30 1413 C 140.858 -0.0198413 1.66088 0
M  V30 1414 O 142.043 0.139264 1.90291 0
M  V30 1415 C 139.183 0.70945 3.37729 0
M  V30 1416 C 138.296 1.87926 3.88983 0
M  V30 1417 C 137.431 1.45807 5.10797 0
M  V30 1418 C 136.47 2.5964 5.54305 0
M  V30 1419 N 135.607 2.18226 6.67324 0
M  V30 1420 H 140.447 2.01389 2.1965 0
M  V30 1421 H 137.984 1.00275 1.07626 0
M  V30 1422 H 139.942 0.478948 4.14442 0
M  V30 1423 H 138.572 -0.193389 3.2222 0
M  V30 1424 H 137.624 2.22279 3.08701 0
M  V30 1425 H 138.936 2.73377 4.17213 0
M  V30 1426 H 138.09 1.18781 5.94959 0
M  V30 1427 H 136.829 0.574414 4.84305 0
M  V30 1428 H 135.834 2.87399 4.68702 0
M  V30 1429 H 137.059 3.48599 5.828 0
M  V30 1430 H 135.005 1.3229 6.42523 0
M  V30 1431 H 134.922 2.97221 6.95123 0
M  V30 1432 H 136.19 1.94403 7.54869 0
M  V30 1433 N 140.419 -1.14872 1.07899 0
M  V30 1434 C 141.83 -1.67367 0.827363 0
M  V30 1435 C 142.181 -1.85236 -0.646693 0
M  V30 1436 O 141.306 -1.55974 -1.50004 0
M  V30 1437 C 141.901 -3.04016 1.49532 0
M  V30 1438 C 140.46 -3.53566 1.29106 0
M  V30 1439 C 139.607 -2.29161 1.56143 0
M  V30 1440 H 142.558 -0.990083 1.24028 0
M  V30 1441 H 142.579 -3.69219 0.919643 0
M  V30 1442 H 142.091 -2.90978 2.56814 0
M  V30 1443 H 140.192 -3.71835 0.238713 0
M  V30 1444 H 140.305 -4.34661 2.01511 0
M  V30 1445 H 138.669 -2.34978 0.982717 0
M  V30 1446 H 139.452 -2.18705 2.64619 0
M  V30 1447 N 141.898 -0.863906 -1.31812 0
M  V30 1448 C 142.828 -0.330843 -2.31144 0
M  V30 1449 C 143.809 0.575005 -1.60087 0
M  V30 1450 O 144.994 0.493304 -1.8783 0
M  V30 1451 C 142.124 0.47374 -3.44054 0
M  V30 1452 C 141.078 -0.338481 -4.26659 0
M  V30 1453 C 140.404 0.591412 -5.31419 0
M  V30 1454 C 141.704 -1.56926 -4.98168 0
M  V30 1455 H 143.398 -1.16086 -2.75979 0
M  V30 1456 H 140.944 -0.559657 -1.32679 0
M  V30 1457 H 142.897 0.857143 -4.12591 0
M  V30 1458 H 141.621 1.33721 -2.9797 0
M  V30 1459 H 140.28 -0.703754 -3.59782 0
M  V30 1460 H 139.928 1.45199 -4.81587 0
M  V30 1461 H 139.628 0.0519022 -5.87577 0
M  V30 1462 H 141.152 0.97179 -6.02817 0
M  V30 1463 H 142.566 -1.25764 -5.59336 0
M  V30 1464 H 140.963 -2.04739 -5.64094 0
M  V30 1465 H 142.033 -2.32544 -4.25501 0
M  V30 1466 N 143.376 1.44774 -0.622745 0
M  V30 1467 C 144.624 2.01721 -0.123655 0
M  V30 1468 C 144.945 1.49172 1.25589 0
M  V30 1469 O 144.215 0.691974 1.83272 0
M  V30 1470 H 142.795 0.745777 -0.0427225 0
M  V30 1471 H 145.457 1.77382 -0.807559 0
M  V30 1472 H 144.553 3.11984 -0.0849534 0
M  V30 1473 N 144.854 0.36279 1.53368 0
M  V30 1474 C 145.802 -0.500155 2.27159 0
M  V30 1475 C 146.796 -1.08575 1.3003 0
M  V30 1476 O 148.002 -1.02927 1.47668 0
M  V30 1477 H 144.377 -0.180009 0.730138 0
M  V30 1478 H 146.348 0.14401 2.98052 0
M  V30 1479 C 145.097 -1.62937 3.07159 0
M  V30 1480 H 144.42 -1.18806 3.8174 0
M  V30 1481 H 145.86 -2.20795 3.61975 0
M  V30 1482 C 144.319 -2.57007 2.17829 0
M  V30 1483 O 144.849 -3.59752 1.78721 0
M  V30 1484 N 143.055 -2.26131 1.82518 0
M  V30 1485 H 142.602 -1.42616 2.14519 0
M  V30 1486 H 142.56 -2.89327 1.23034 0
M  V30 1487 N 146.332 -1.57332 0.0918853 0
M  V30 1488 C 147.28 -2.15075 -0.885747 0
M  V30 1489 C 148.274 -1.09277 -1.29441 0
M  V30 1490 O 149.48 -1.27627 -1.26931 0
M  V30 1491 H 145.855 -0.687966 -0.303656 0
M  V30 1492 H 147.826 -2.96047 -0.373995 0
M  V30 1493 C 146.575 -2.74325 -2.13638 0
M  V30 1494 H 145.898 -3.55418 -1.8308 0
M  V30 1495 H 147.338 -3.183 -2.80109 0
M  V30 1496 C 145.797 -1.70062 -2.90827 0
M  V30 1497 O 146.327 -1.13763 -3.85254 0
M  V30 1498 N 144.533 -1.40628 -2.54307 0
M  V30 1499 H 144.08 -1.866 -1.7759 0
M  V30 1500 H 144.038 -0.711043 -3.06254 0
M  V30 1501 N 147.81 0.181792 -1.56548 0
M  V30 1502 C 149.035 0.920019 -1.85877 0
M  V30 1503 C 149.46 1.75494 -0.677021 0
M  V30 1504 O 148.818 1.77399 0.374056 0
M  V30 1505 C 148.866 1.78112 -3.13542 0
M  V30 1506 O 147.97 2.88152 -2.95029 0
M  V30 1507 H 147.311 0.258334 -0.611686 0
M  V30 1508 H 149.841 0.183092 -2.03779 0
M  V30 1509 H 149.851 2.18314 -3.44678 0
M  V30 1510 H 148.526 1.16777 -3.99169 0
M  V30 1511 H 147.103 2.51609 -2.75222 0
M  V30 1512 N 149.288 1.51039 0.449983 0
M  V30 1513 C 150.534 1.64287 1.19923 0
M  V30 1514 C 150.889 0.348701 1.89214 0
M  V30 1515 O 150.182 -0.654751 1.80065 0
M  V30 1516 C 150.376 2.77556 2.25161 0
M  V30 1517 C 150.205 4.17862 1.66198 0
M  V30 1518 C 148.975 4.83976 1.45243 0
M  V30 1519 C 151.173 5.01388 1.14519 0
M  V30 1520 N 149.155 6.08433 0.817437 0
M  V30 1521 C 150.526 6.16743 0.634705 0
M  V30 1522 C 152.581 4.87008 1.03574 0
M  V30 1523 C 151.284 7.19295 0.0255452 0
M  V30 1524 C 153.31 5.89757 0.440489 0
M  V30 1525 C 152.672 7.04375 -0.0595112 0
M  V30 1526 H 148.771 0.655161 0.426952 0
M  V30 1527 H 151.355 1.88228 0.49781 0
M  V30 1528 H 149.526 2.553 2.92706 0
M  V30 1529 H 151.258 2.80049 2.92155 0
M  V30 1530 H 148.013 4.41627 1.71063 0
M  V30 1531 H 148.437 6.75017 0.517747 0
M  V30 1532 H 153.079 3.9866 1.4082 0
M  V30 1533 H 150.797 8.07302 -0.359071 0
M  V30 1534 H 154.383 5.80698 0.35788 0
M  V30 1535 H 153.263 7.82521 -0.512882 0
M  V30 1536 N 150.766 -0.704594 1.40972 0
M  V30 1537 C 151.994 -1.49354 1.43182 0
M  V30 1538 C 152.409 -1.88768 0.0345508 0
M  V30 1539 O 151.766 -1.56184 -0.944081 0
M  V30 1540 C 151.817 -2.76187 2.33244 0
M  V30 1541 O 151.538 -2.38436 3.67532 0
M  V30 1542 C 153.039 -3.7 2.44162 0
M  V30 1543 H 150.259 -0.460559 0.487982 0
M  V30 1544 H 152.803 -0.868261 1.85153 0
M  V30 1545 H 150.958 -3.34974 1.94606 0
M  V30 1546 H 151.372 -3.20126 4.15475 0
M  V30 1547 H 152.846 -4.55803 3.11364 0
M  V30 1548 H 153.323 -4.13867 1.47006 0
M  V30 1549 H 153.929 -3.17121 2.83398 0
M  V30 1550 N 152.244 -1.26651 -0.937939 0
M  V30 1551 C 153.174 -1.10993 -2.05433 0
M  V30 1552 C 154.155 -0.0142161 -1.70094 0
M  V30 1553 O 155.34 -0.186837 -1.93299 0
M  V30 1554 C 152.47 -0.745561 -3.39203 0
M  V30 1555 C 151.424 -1.79337 -3.88616 0
M  V30 1556 C 150.75 -1.28324 -5.19073 0
M  V30 1557 C 152.05 -3.19553 -4.13138 0
M  V30 1558 H 153.744 -2.0438 -2.1879 0
M  V30 1559 H 151.29 -0.984041 -1.05131 0
M  V30 1560 H 153.243 -0.622888 -4.16771 0
M  V30 1561 H 151.967 0.22401 -3.25831 0
M  V30 1562 H 150.626 -1.90477 -3.13231 0
M  V30 1563 H 150.274 -0.303414 -5.02084 0
M  V30 1564 H 149.974 -1.98369 -5.53103 0
M  V30 1565 H 151.498 -1.1733 -5.99221 0
M  V30 1566 H 152.912 -3.11471 -4.81309 0
M  V30 1567 H 151.309 -3.87218 -4.58457 0
M  V30 1568 H 152.379 -3.65368 -3.18801 0
M  V30 1569 N 153.722 1.14298 -1.08507 0
M  V30 1570 C 154.632 2.23027 -0.727753 0
M  V30 1571 C 155.648 1.71952 0.26619 0
M  V30 1572 O 156.824 2.011 0.109882 0
M  V30 1573 C 153.889 3.46403 -0.143541 0
M  V30 1574 C 152.95 4.12413 -1.19223 0
M  V30 1575 C 152.183 5.29899 -0.635798 0
M  V30 1576 O 152.406 5.67796 0.544393 0
M  V30 1577 O 151.34 5.85717 -1.38634 0
M  V30 1578 H 155.166 2.55945 -1.63481 0
M  V30 1579 H 152.751 1.22248 -0.858817 0
M  V30 1580 H 154.633 4.21018 0.179404 0
M  V30 1581 H 153.308 3.15206 0.736659 0
M  V30 1582 H 152.215 3.39667 -1.56772 0
M  V30 1583 H 153.548 4.47718 -2.04474 0
M  V30 1584 N 155.201 0.870884 1.31352 0
M  V30 1585 C 156.612 0.534714 1.78879 0
M  V30 1586 C 156.963 -0.948423 1.71754 0
M  V30 1587 O 156.088 -1.74055 1.28584 0
M  V30 1588 C 156.683 0.963839 3.24801 0
M  V30 1589 C 155.242 0.679311 3.70219 0
M  V30 1590 C 154.389 1.15465 2.52117 0
M  V30 1591 H 157.34 1.05651 1.18421 0
M  V30 1592 H 157.361 0.286892 3.79417 0
M  V30 1593 H 156.873 2.04332 3.29955 0
M  V30 1594 H 154.974 -0.388769 3.70566 0
M  V30 1595 H 155.087 1.25698 4.62317 0
M  V30 1596 H 153.451 0.574383 2.48139 0
M  V30 1597 H 154.234 2.24157 2.60016 0
M  V30 1598 N 156.679 -1.44442 0.630414 0
M  V30 1599 C 157.642 -2.29107 -0.0652523 0
M  V30 1600 C 158.642 -1.41002 -0.772995 0
M  V30 1601 O 159.832 -1.62881 -0.617692 0
M  V30 1602 C 156.964 -3.22564 -1.10296 0
M  V30 1603 H 158.157 -2.92103 0.679401 0
M  V30 1604 H 155.71 -1.51343 0.390517 0
M  V30 1605 H 156.445 -2.64416 -1.87762 0
M  V30 1606 H 156.23 -3.87491 -0.59941 0
M  V30 1607 H 157.72 -3.86167 -1.5895 0
M  V30 1608 N 158.157 -0.370918 -1.53173 0
M  V30 1609 C 159.568 0.107139 -1.86392 0
M  V30 1610 C 159.919 1.47714 -1.29132 0
M  V30 1611 O 159.044 2.07464 -0.615439 0
M  V30 1612 C 159.639 0.201187 -3.38202 0
M  V30 1613 C 158.198 0.623507 -3.712 0
M  V30 1614 C 157.345 -0.225978 -2.76378 0
M  V30 1615 H 160.296 -0.58951 -1.47345 0
M  V30 1616 H 160.317 1.02377 -3.66468 0
M  V30 1617 H 159.829 -0.796058 -3.79848 0
M  V30 1618 H 157.93 1.62879 -3.35114 0
M  V30 1619 H 158.043 0.394414 -4.77474 0
M  V30 1620 H 156.407 0.305962 -2.52856 0
M  V30 1621 H 157.19 -1.22086 -3.20858 0
M  V30 1622 N 159.635 1.57281 -0.100228 0
M  V30 1623 C 160.598 2.13158 0.842398 0
M  V30 1624 C 161.598 1.06202 1.20738 0
M  V30 1625 O 162.788 1.32066 1.13597 0
M  V30 1626 C 159.92 2.65639 2.13655 0
M  V30 1627 H 161.113 2.97766 0.357114 0
M  V30 1628 H 158.666 1.5559 0.148823 0
M  V30 1629 H 159.401 1.84566 2.66657 0
M  V30 1630 H 159.186 3.43844 1.88451 0
M  V30 1631 H 160.676 3.08846 2.81077 0
M  V30 1632 N 161.113 -0.173488 1.56642 0
M  V30 1633 C 162.524 -0.736155 1.71574 0
M  V30 1634 C 162.875 -1.82888 0.710389 0
M  V30 1635 O 162 -2.16017 -0.1287 0
M  V30 1636 C 162.595 -1.34211 3.11083 0
M  V30 1637 C 161.154 -1.85162 3.27707 0
M  V30 1638 C 160.301 -0.729765 2.67525 0
M  V30 1639 H 163.252 0.0518786 1.58615 0
M  V30 1640 H 163.273 -2.21178 3.09613 0
M  V30 1641 H 162.785 -0.546579 3.84232 0
M  V30 1642 H 160.886 -2.67366 2.59512 0
M  V30 1643 H 160.999 -1.99855 4.35425 0
M  V30 1644 H 159.363 -1.14965 2.27278 0
M  V30 1645 H 160.146 0.0538806 3.43258 0
M  V30 1646 N 162.591 -1.51276 -0.441967 0
M  V30 1647 C 163.538 -1.72256 -1.53612 0
M  V30 1648 C 164.508 -0.564164 -1.56225 0
M  V30 1649 O 165.693 -0.798074 -1.73307 0
M  V30 1650 C 162.833 -1.84932 -2.91366 0
M  V30 1651 C 161.946 -3.12459 -2.98317 0
M  V30 1652 C 161.081 -3.15758 -4.27166 0
M  V30 1653 C 160.12 -4.37619 -4.27967 0
M  V30 1654 N 159.257 -4.38493 -5.48333 0
M  V30 1655 H 164.097 -2.65654 -1.35026 0
M  V30 1656 H 161.634 -1.31662 -0.656009 0
M  V30 1657 H 163.592 -1.90263 -3.7129 0
M  V30 1658 H 162.222 -0.949461 -3.08521 0
M  V30 1659 H 161.274 -3.1646 -2.11086 0
M  V30 1660 H 162.586 -4.02382 -2.94771 0
M  V30 1661 H 161.74 -3.19979 -5.15459 0
M  V30 1662 H 160.479 -2.23715 -4.33362 0
M  V30 1663 H 159.484 -4.33579 -3.38067 0
M  V30 1664 H 160.709 -5.30921 -4.23438 0
M  V30 1665 H 158.655 -3.49318 -5.55259 0
M  V30 1666 H 158.572 -5.22219 -5.46647 0
M  V30 1667 H 159.84 -4.469 -6.38671 0
M  V30 1668 N 164.069 0.697108 -1.41344 0
M  V30 1669 C 164.979 1.84088 -1.45427 0
M  V30 1670 C 165.995 1.70545 -0.34501 0
M  V30 1671 O 167.171 1.92488 -0.592492 0
M  V30 1672 C 164.236 3.20056 -1.33286 0
M  V30 1673 C 163.297 3.45718 -2.54514 0
M  V30 1674 C 162.53 4.75199 -2.42944 0
M  V30 1675 O 162.753 5.51579 -1.45318 0
M  V30 1676 O 161.687 5.0161 -3.32672 0
M  V30 1677 H 165.513 1.836 -2.41919 0
M  V30 1678 H 163.098 0.849966 -1.22866 0
M  V30 1679 H 164.98 4.01236 -1.28794 0
M  V30 1680 H 163.655 3.2123 -0.39909 0
M  V30 1681 H 162.562 2.64474 -2.64583 0
M  V30 1682 H 163.895 3.49356 -3.46715 0
M  V30 1683 N 165.547 1.27147 0.931209 0
M  V30 1684 C 166.824 1.0401 1.65654 0
M  V30 1685 C 167.204 -0.426297 2.06751 0
M  V30 1686 O 166.552 -1.40879 1.79904 0
M  V30 1687 C 166.762 1.99834 2.86125 0
M  V30 1688 C 168.11 2.29007 3.57549 0
M  V30 1689 O 169.134 1.97779 2.96246 0
M  V30 1690 O 167.993 2.82222 4.67989 0
M  V30 1691 H 165.087 0.396239 0.725895 0
M  V30 1692 H 167.633 1.38397 0.982056 0
M  V30 1693 H 166.405 2.98744 2.52721 0
M  V30 1694 H 166.028 1.65987 3.61295 0
M  V30 1695 N 167.025 -1.13721 1.09112 0
M  V30 1696 C 167.988 -2.17222 0.731241 0
M  V30 1697 C 168.988 -1.59035 -0.237566 0
M  V30 1698 O 170.178 -1.74192 -0.0161704 0
M  V30 1699 C 167.31 -3.40804 0.0808443 0
M  V30 1700 H 168.503 -2.50573 1.64783 0
M  V30 1701 H 166.056 -1.28493 0.889897 0
M  V30 1702 H 166.791 -3.1304 -0.847127 0
M  V30 1703 H 166.576 -3.84306 0.777896 0
M  V30 1704 H 168.066 -4.1731 -0.155657 0
M  V30 1705 N 168.503 -0.877838 -1.30888 0
M  V30 1706 C 169.433 -0.35534 -2.3078 0
M  V30 1707 C 170.414 0.557994 -1.60687 0
M  V30 1708 O 171.599 0.473355 -1.88343 0
M  V30 1709 C 168.729 0.437221 -3.44537 0
M  V30 1710 C 167.683 -0.383715 -4.26276 0
M  V30 1711 C 167.009 0.535014 -5.32017 0
M  V30 1712 C 168.309 -1.62201 -4.96476 0
M  V30 1713 H 170.003 -1.19007 -2.74732 0
M  V30 1714 H 167.549 -0.573698 -1.32078 0
M  V30 1715 H 169.502 0.813334 -4.13477 0
M  V30 1716 H 168.226 1.30553 -2.99372 0
M  V30 1717 H 166.885 -0.741874 -3.59015 0
M  V30 1718 H 166.533 1.40083 -4.831 0
M  V30 1719 H 166.233 -0.0104211 -5.87599 0
M  V30 1720 H 167.757 0.907799 -6.03814 0
M  V30 1721 H 169.171 -1.31689 -5.5797 0
M  V30 1722 H 167.568 -2.10711 -5.61891 0
M  V30 1723 H 168.638 -2.37044 -4.23011 0
M  V30 1724 N 169.982 1.44106 -0.638065 0
M  V30 1725 C 171.21 2.06336 -0.152615 0
M  V30 1726 C 171.625 1.47731 1.17563 0
M  V30 1727 O 170.982 0.602806 1.72257 0
M  V30 1728 C 171.033 3.61479 -0.0391491 0
M  V30 1729 O 170.754 4.17903 -1.31487 0
M  V30 1730 C 172.255 4.40757 0.474176 0
M  V30 1731 H 169.475 0.665862 -0.0828776 0
M  V30 1732 H 172.019 1.84862 -0.87443 0
M  V30 1733 H 170.174 3.82191 0.633142 0
M  V30 1734 H 170.588 5.11416 -1.16421 0
M  V30 1735 H 172.062 5.49707 0.502562 0
M  V30 1736 H 172.539 4.12697 1.50258 0
M  V30 1737 H 173.145 4.24979 -0.165102 0
M  V30 1738 N 171.46 0.379036 1.52974 0
M  V30 1739 C 172.706 -0.206727 2.01744 0
M  V30 1740 C 173.039 -1.47314 1.26539 0
M  V30 1741 O 172.314 -1.91084 0.362903 0
M  V30 1742 C 172.597 -0.485066 3.56818 0
M  V30 1743 C 172.45 0.795919 4.42702 0
M  V30 1744 C 173.769 -1.28003 4.21074 0
M  V30 1745 H 170.888 -0.0736607 0.73331 0
M  V30 1746 H 173.53 0.506581 1.83122 0
M  V30 1747 H 171.68 -1.09272 3.72816 0
M  V30 1748 H 173.352 1.43307 4.38476 0
M  V30 1749 H 171.595 1.41344 4.10127 0
M  V30 1750 H 172.266 0.555947 5.49193 0
M  V30 1751 H 174.742 -0.765867 4.08991 0
M  V30 1752 H 173.618 -1.44352 5.29579 0
M  V30 1753 H 173.879 -2.29236 3.78026 0
M  V30 1754 N 172.938 -1.57226 0.108567 0
M  V30 1755 C 174.184 -1.95121 -0.552761 0
M  V30 1756 C 174.517 -0.991345 -1.66991 0
M  V30 1757 O 173.792 -0.0267211 -1.94482 0
M  V30 1758 C 174.075 -3.43039 -1.09528 0
M  V30 1759 C 173.928 -4.49797 0.0177332 0
M  V30 1760 C 175.247 -3.92567 -1.98945 0
M  V30 1761 H 172.366 -0.709496 -0.199461 0
M  V30 1762 H 175.008 -1.89126 0.182011 0
M  V30 1763 H 173.158 -3.48279 -1.72146 0
M  V30 1764 H 174.83 -4.56661 0.652584 0
M  V30 1765 H 173.073 -4.284 0.682309 0
M  V30 1766 H 173.744 -5.50528 -0.402919 0
M  V30 1767 H 176.22 -3.89565 -1.46214 0
M  V30 1768 H 175.096 -4.96605 -2.33827 0
M  V30 1769 H 175.357 -3.32648 -2.91201 0
M  V30 1770 N 174.416 0.165178 -1.56732 0
M  V30 1771 C 175.664 0.879068 -1.8198 0
M  V30 1772 C 175.985 1.82514 -0.686561 0
M  V30 1773 O 175.255 1.93694 0.293146 0
M  V30 1774 H 173.835 0.327608 -0.671329 0
M  V30 1775 H 176.497 0.163526 -1.94213 0
M  V30 1776 H 175.593 1.45228 -2.76252 0
M  V30 1777 N 175.894 1.51508 0.433938 0
M  V30 1778 C 177.171 1.54888 1.19453 0
M  V30 1779 C 177.551 0.315154 2.08734 0
M  V30 1780 O 176.899 -0.699558 2.17528 0
M  V30 1781 C 177.109 2.86467 1.99342 0
M  V30 1782 C 178.457 3.38545 2.56267 0
M  V30 1783 O 179.481 2.88041 2.0955 0
M  V30 1784 O 178.34 4.26675 3.41483 0
M  V30 1785 H 175.434 0.622863 0.544032 0
M  V30 1786 H 177.98 1.63823 0.442732 0
M  V30 1787 H 176.752 3.67718 1.33788 0
M  V30 1788 H 176.375 2.8071 2.8158 0
M  V30 1789 N 177.372 -0.689602 1.41712 0
M  V30 1790 C 178.618 -1.45041 1.42599 0
M  V30 1791 C 178.973 -1.92366 0.0363764 0
M  V30 1792 O 178.266 -1.67022 -0.938844 0
M  V30 1793 C 178.46 -2.67298 2.37247 0
M  V30 1794 C 178.289 -2.31935 3.85274 0
M  V30 1795 C 177.059 -2.2201 4.53916 0
M  V30 1796 C 179.257 -1.94526 4.76093 0
M  V30 1797 N 177.239 -1.79594 5.87043 0
M  V30 1798 C 178.61 -1.62915 5.98213 0
M  V30 1799 C 180.665 -1.81388 4.63684 0
M  V30 1800 C 179.368 -1.19486 7.09306 0
M  V30 1801 C 181.394 -1.39364 5.74745 0
M  V30 1802 C 180.756 -1.08668 6.95967 0
M  V30 1803 H 176.855 -0.527806 0.577014 0
M  V30 1804 H 179.439 -0.797266 1.77628 0
M  V30 1805 H 177.61 -3.30325 2.04304 0
M  V30 1806 H 179.342 -3.33806 2.28814 0
M  V30 1807 H 176.097 -2.406 4.07932 0
M  V30 1808 H 176.521 -1.60851 6.57614 0
M  V30 1809 H 181.163 -2.03772 3.70455 0
M  V30 1810 H 178.881 -0.958477 8.02396 0
M  V30 1811 H 182.467 -1.2974 5.6715 0
M  V30 1812 H 181.347 -0.766417 7.80446 0
M  V30 1813 N 178.85 -1.27639 -0.924453 0
M  V30 1814 C 179.78 -1.13166 -2.04244 0
M  V30 1815 C 180.761 -0.032256 -1.70069 0
M  V30 1816 O 181.946 -0.207328 -1.9309 0
M  V30 1817 C 179.076 -0.781496 -3.38393 0
M  V30 1818 C 178.03 -1.83449 -3.86692 0
M  V30 1819 C 177.356 -1.33822 -5.17683 0
M  V30 1820 C 178.656 -3.23917 -4.09726 0
M  V30 1821 H 180.35 -2.06689 -2.1661 0
M  V30 1822 H 177.896 -0.995136 -1.04082 0
M  V30 1823 H 179.849 -0.667057 -4.16087 0
M  V30 1824 H 178.573 0.189439 -3.2605 0
M  V30 1825 H 177.232 -1.93789 -3.11193 0
M  V30 1826 H 176.88 -0.35665 -5.01734 0
M  V30 1827 H 176.58 -2.04224 -5.50968 0
M  V30 1828 H 178.104 -1.23679 -5.97943 0
M  V30 1829 H 179.518 -3.16559 -4.77978 0
M  V30 1830 H 177.915 -3.92059 -4.54324 0
M  V30 1831 H 178.985 -3.68729 -3.14908 0
M  V30 1832 N 180.328 1.1314 -1.09713 0
M  V30 1833 C 181.576 1.84119 -0.833338 0
M  V30 1834 C 181.897 1.84097 0.642904 0
M  V30 1835 O 181.167 1.29881 1.46655 0
M  V30 1836 H 179.747 0.681766 -0.305293 0
M  V30 1837 H 182.409 1.37038 -1.38588 0
M  V30 1838 H 181.505 2.88543 -1.18951 0
M  V30 1839 N 181.806 0.884767 1.30421 0
M  V30 1840 C 183.083 0.423185 1.90967 0
M  V30 1841 C 183.463 -1.09605 1.80416 0
M  V30 1842 O 182.811 -1.93126 1.22125 0
M  V30 1843 C 183.021 0.921056 3.36627 0
M  V30 1844 C 184.369 0.955903 4.137 0
M  V30 1845 O 185.393 0.867706 3.4547 0
M  V30 1846 O 184.252 1.08614 5.35598 0
M  V30 1847 H 181.346 0.129369 0.816819 0
M  V30 1848 H 183.892 0.973653 1.3899 0
M  V30 1849 H 182.664 1.96489 3.3839 0
M  V30 1850 H 182.287 0.349741 3.96059 0
M  V30 1851 N 183.284 -1.43765 0.645699 0
M  V30 1852 C 184.247 -2.29163 -0.0409488 0
M  V30 1853 C 185.247 -1.41813 -0.757996 0
M  V30 1854 O 186.437 -1.63527 -0.600382 0
M  V30 1855 C 183.569 -3.23716 -1.06869 0
M  V30 1856 H 184.762 -2.91366 0.710345 0
M  V30 1857 H 182.315 -1.5092 0.406547 0
M  V30 1858 H 183.05 -2.66393 -1.84947 0
M  V30 1859 H 182.835 -3.88105 -0.558277 0
M  V30 1860 H 184.325 -3.87831 -1.54845 0
M  V30 1861 N 184.763 -0.387143 -1.52771 0
M  V30 1862 C 186.179 -0.037007 -1.59557 0
M  V30 1863 C 186.379 1.44801 -1.40124 0
M  V30 1864 O 185.435 2.21227 -1.21716 0
M  V30 1865 C 186.748 -0.512256 -2.96305 0
M  V30 1866 C 188.296 -0.468328 -3.09476 0
M  V30 1867 C 188.771 -0.919731 -4.4867 0
M  V30 1868 N 190.262 -0.875656 -4.54848 0
M  V30 1869 C 190.997 -1.19637 -5.6078 0
M  V30 1870 N 190.493 -1.58745 -6.74368 0
M  V30 1871 N 192.286 -1.11776 -5.50874 0
M  V30 1872 H 184.437 -1.35395 -1.63652 0
M  V30 1873 H 186.7 -0.554818 -0.768688 0
M  V30 1874 H 186.406 -1.54935 -3.15734 0
M  V30 1875 H 186.28 0.089805 -3.77093 0
M  V30 1876 H 188.667 0.559671 -2.89744 0
M  V30 1877 H 188.748 -1.10616 -2.30646 0
M  V30 1878 H 188.392 -1.94595 -4.69143 0
M  V30 1879 H 188.322 -0.258927 -5.25963 0
M  V30 1880 H 190.813 -0.587843 -3.733 0
M  V30 1881 H 191.126 -1.81586 -7.51163 0
M  V30 1882 H 189.471 -1.6263 -6.75705 0
M  V30 1883 H 192.662 -0.811264 -4.61016 0
M  V30 1884 H 192.835 -1.37103 -6.3333 0
M  V30 1885 N 186.241 1.57166 -0.116904 0
M  V30 1886 C 187.151 2.18745 0.847812 0
M  V30 1887 C 188.167 1.163 1.29423 0
M  V30 1888 O 189.343 1.48761 1.35765 0
M  V30 1889 C 186.408 2.77307 2.0809 0
M  V30 1890 C 185.469 3.94781 1.68661 0
M  V30 1891 C 184.702 4.50541 2.86091 0
M  V30 1892 O 184.925 4.05202 4.01456 0
M  V30 1893 O 183.859 5.41256 2.63298 0
M  V30 1894 H 187.685 3.01632 0.353778 0
M  V30 1895 H 185.27 1.49005 0.108599 0
M  V30 1896 H 187.152 3.14647 2.80313 0
M  V30 1897 H 185.827 1.97452 2.56504 0
M  V30 1898 H 184.734 3.62214 0.935518 0
M  V30 1899 H 186.067 4.76065 1.24991 0
M  V30 1900 N 187.719 -0.156864 1.56817 0
M  V30 1901 C 188.667 -1.21319 1.98455 0
M  V30 1902 C 189.661 -1.45025 0.875444 0
M  V30 1903 O 190.867 -1.45435 1.0606 0
M  V30 1904 H 187.242 -0.408142 0.631605 0
M  V30 1905 H 189.213 -0.835244 2.86472 0
M  V30 1906 C 187.962 -2.54148 2.37285 0
M  V30 1907 H 187.285 -2.36733 3.22176 0
M  V30 1908 H 188.725 -3.26712 2.70251 0
M  V30 1909 C 187.184 -3.13967 1.22173 0
M  V30 1910 O 187.714 -3.98357 0.517149 0
M  V30 1911 N 185.92 -2.7327 0.988536 0
M  V30 1912 H 185.467 -2.04744 1.56326 0
M  V30 1913 H 185.425 -3.13628 0.220209 0
M  V30 1914 N 189.197 -1.51736 -0.425897 0
M  V30 1915 C 190.474 -1.55519 -1.1863 0
M  V30 1916 C 190.854 -0.326219 -2.08564 0
M  V30 1917 O 190.202 0.688012 -2.17896 0
M  V30 1918 C 190.412 -2.87521 -1.9782 0
M  V30 1919 C 191.76 -3.39899 -2.54468 0
M  V30 1920 O 192.784 -2.89148 -2.08019 0
M  V30 1921 O 191.643 -4.2848 -3.39215 0
M  V30 1922 H 188.737 -0.625739 -0.540721 0
M  V30 1923 H 191.283 -1.64055 -0.434038 0
M  V30 1924 H 190.055 -3.68422 -1.31836 0
M  V30 1925 H 189.678 -2.822 -2.80088 0
M  V30 1926 N 190.675 0.682077 -1.42076 0
M  V30 1927 C 191.921 1.44428 -1.42367 0
M  V30 1928 C 192.254 1.94164 -0.0373056 0
M  V30 1929 O 191.529 1.70429 0.937239 0
M  V30 1930 C 191.812 2.64654 -2.44194 0
M  V30 1931 C 191.665 2.20596 -3.91991 0
M  V30 1932 C 192.984 3.66865 -2.431 0
M  V30 1933 H 190.103 0.523834 -0.518428 0
M  V30 1934 H 192.745 0.77576 -1.73442 0
M  V30 1935 H 190.895 3.2169 -2.17826 0
M  V30 1936 H 192.567 1.68783 -4.29313 0
M  V30 1937 H 190.81 1.52242 -4.06208 0
M  V30 1938 H 191.481 3.06921 -4.58807 0
M  V30 1939 H 193.957 3.19531 -2.66532 0
M  V30 1940 H 192.833 4.48577 -3.16339 0
M  V30 1941 H 193.094 4.17493 -1.45437 0
M  V30 1942 N 192.153 1.28127 0.917671 0
M  V30 1943 C 193.4 1.15052 1.66641 0
M  V30 1944 C 193.728 -0.301677 1.92146 0
M  V30 1945 O 192.983 -1.23622 1.51711 0
M  V30 1946 C 193.282 1.89018 3.03327 0
M  V30 1947 C 192.948 3.38832 2.97496 0
M  V30 1948 C 191.61 3.79693 2.95613 0
M  V30 1949 C 193.962 4.34378 2.88036 0
M  V30 1950 C 191.29 5.14447 2.82066 0
M  V30 1951 C 193.642 5.69201 2.7603 0
M  V30 1952 C 192.306 6.09343 2.72502 0
M  V30 1953 H 191.576 0.421006 0.609783 0
M  V30 1954 H 194.223 1.58855 1.06945 0
M  V30 1955 H 192.528 1.37752 3.66785 0
M  V30 1956 H 194.225 1.76321 3.60156 0
M  V30 1957 H 190.815 3.06342 2.99754 0
M  V30 1958 H 194.999 4.03775 2.88581 0
M  V30 1959 H 190.255 5.44681 2.77728 0
M  V30 1960 H 194.429 6.42901 2.67678 0
M  V30 1961 H 192.056 7.13712 2.61762 0
M  V30 1962 N 193.631 -1.12557 1.10312 0
M  V30 1963 C 194.541 -2.21841 0.763142 0
M  V30 1964 C 195.557 -1.72354 -0.238801 0
M  V30 1965 O 196.733 -2.01249 -0.0778746 0
M  V30 1966 C 193.798 -3.46131 0.198632 0
M  V30 1967 C 192.859 -4.10464 1.25769 0
M  V30 1968 C 192.092 -5.28821 0.72002 0
M  V30 1969 O 192.315 -5.6859 -0.453993 0
M  V30 1970 O 191.249 -5.83437 1.47935 0
M  V30 1971 H 195.075 -2.53312 1.67532 0
M  V30 1972 H 192.66 -1.20867 0.878157 0
M  V30 1973 H 194.542 -4.2125 -0.112401 0
M  V30 1974 H 193.217 -3.16338 -0.686419 0
M  V30 1975 H 192.124 -3.3713 1.62156 0
M  V30 1976 H 193.457 -4.44408 2.11571 0
M  V30 1977 N 195.109 -0.891671 -1.2995 0
M  V30 1978 C 196.059 -0.334811 -2.25528 0
M  V30 1979 C 197.043 0.540553 -1.51548 0
M  V30 1980 O 198.235 0.383882 -1.72787 0
M  V30 1981 C 195.364 0.44374 -3.4042 0
M  V30 1982 C 194.45 -0.44609 -4.21747 0
M  V30 1983 N 194.841 -1.54963 -4.81477 0
M  V30 1984 C 193.139 -0.242415 -4.45341 0
M  V30 1985 C 193.84 -2.10015 -5.42465 0
M  V30 1986 N 192.816 -1.39423 -5.25416 0
M  V30 1987 H 196.618 -1.17792 -2.69262 0
M  V30 1988 H 194.132 -0.741822 -1.44467 0
M  V30 1989 H 196.129 0.859362 -4.07947 0
M  V30 1990 H 194.789 1.28421 -2.98225 0
M  V30 1991 H 195.8 -1.93244 -4.80497 0
M  V30 1992 H 192.477 0.560342 -4.13723 0
M  V30 1993 H 193.867 -3.02724 -5.9984 0
M  V30 1994 N 196.587 1.43421 -0.653314 0
M  V30 1995 C 197.55 2.29182 0.0287951 0
M  V30 1996 C 198.55 1.42213 0.750465 0
M  V30 1997 O 199.74 1.63843 0.591701 0
M  V30 1998 C 196.872 3.24278 1.05151 0
M  V30 1999 H 198.065 2.90985 -0.725786 0
M  V30 2000 H 195.618 1.50702 -0.414545 0
M  V30 2001 H 196.353 2.6737 1.83532 0
M  V30 2002 H 196.138 3.88396 0.537687 0
M  V30 2003 H 197.628 3.88647 1.52786 0
M  V30 2004 N 198.065 0.39524 1.52563 0
M  V30 2005 C 199.313 -0.184678 2.01254 0
M  V30 2006 C 199.634 -1.46822 1.28329 0
M  V30 2007 O 198.904 -1.91666 0.405094 0
M  V30 2008 H 197.484 -0.0712355 0.743596 0
M  V30 2009 H 200.146 0.528293 1.87603 0
M  V30 2010 H 199.242 -0.390681 3.09645 0
M  V30 2011 N 199.544 -1.57102 0.125237 0
M  V30 2012 C 200.507 -2.14471 -0.80838 0
M  V30 2013 C 201.507 -1.0811 -1.19033 0
M  V30 2014 O 202.697 -1.33856 -1.11482 0
M  V30 2015 C 199.829 -2.69005 -2.09402 0
M  V30 2016 H 201.022 -2.98297 -0.309696 0
M  V30 2017 H 198.575 -1.55807 -0.124051 0
M  V30 2018 H 199.31 -1.88785 -2.63687 0
M  V30 2019 H 199.095 -3.46799 -1.82957 0
M  V30 2020 H 200.585 -3.13278 -2.76128 0
M  V30 2021 N 201.022 0.148545 -1.56898 0
M  V30 2022 C 202.438 0.501131 -1.51528 0
M  V30 2023 C 202.638 1.83458 -0.833399 0
M  V30 2024 O 201.694 2.49259 -0.40328 0
M  V30 2025 C 203.007 0.512864 -2.96294 0
M  V30 2026 C 204.555 0.598487 -3.07225 0
M  V30 2027 C 205.03 0.640897 -4.53494 0
M  V30 2028 N 206.521 0.703163 -4.57832 0
M  V30 2029 C 207.256 0.756935 -5.68382 0
M  V30 2030 N 206.752 0.770147 -6.88506 0
M  V30 2031 N 208.545 0.797698 -5.56411 0
M  V30 2032 H 200.696 -0.725532 -1.99624 0
M  V30 2033 H 202.959 -0.264358 -0.910395 0
M  V30 2034 H 202.665 -0.398691 -3.49433 0
M  V30 2035 H 202.539 1.35133 -3.52163 0
M  V30 2036 H 204.926 1.50046 -2.54106 0
M  V30 2037 H 205.007 -0.267093 -2.54402 0
M  V30 2038 H 204.651 -0.256915 -5.0725 0
M  V30 2039 H 204.581 1.52295 -5.04097 0
M  V30 2040 H 207.072 0.700314 -3.71354 0
M  V30 2041 H 207.385 0.812983 -7.68512 0
M  V30 2042 H 205.73 0.738049 -6.9107 0
M  V30 2043 H 208.921 0.784535 -4.61479 0
M  V30 2044 H 209.094 0.83614 -6.42583 0
M  V30 2045 N 202.5 1.5196 0.417844 0
M  V30 2046 C 203.777 1.56146 1.17803 0
M  V30 2047 C 204.157 0.337275 2.08388 0
M  V30 2048 O 203.505 -0.676447 2.18258 0
M  V30 2049 C 203.715 2.88566 1.96293 0
M  V30 2050 C 205.063 3.41244 2.52662 0
M  V30 2051 O 206.087 2.90247 2.06483 0
M  V30 2052 O 204.946 4.30273 3.36938 0
M  V30 2053 H 202.04 0.628598 0.537395 0
M  V30 2054 H 204.586 1.64283 0.425331 0
M  V30 2055 H 203.358 3.69116 1.2988 0
M  V30 2056 H 202.981 2.83681 2.78587 0
M  V30 2057 N 203.978 -0.674533 1.42435 0
M  V30 2058 C 205.224 -1.43671 1.43131 0
M  V30 2059 C 205.557 -1.94142 0.0476021 0
M  V30 2060 O 204.832 -1.70924 -0.928188 0
M  V30 2061 C 205.115 -2.63355 2.45594 0
M  V30 2062 C 204.968 -2.18514 3.93156 0
M  V30 2063 C 206.287 -3.65571 2.45043 0
M  V30 2064 H 203.406 -0.521077 0.521198 0
M  V30 2065 H 206.048 -0.766551 1.7385 0
M  V30 2066 H 204.198 -3.2053 2.19528 0
M  V30 2067 H 205.87 -1.66504 4.30202 0
M  V30 2068 H 204.113 -1.50086 4.07009 0
M  V30 2069 H 204.784 -3.04484 4.60428 0
M  V30 2070 H 207.26 -3.18113 2.68223 0
M  V30 2071 H 206.136 -4.46893 3.18713 0
M  V30 2072 H 206.397 -4.16716 1.47649 0
M  V30 2073 N 205.456 -1.28612 -0.910864 0
M  V30 2074 C 206.705 -1.15311 -1.65488 0
M  V30 2075 C 207.018 0.296999 -1.93332 0
M  V30 2076 O 208.224 0.551168 -2.65847 0
M  V30 2077 C 206.68 -2.01599 -2.98137 0
M  V30 2078 C 206.288 -3.51367 -2.7793 0
M  V30 2079 C 208.032 -1.96993 -3.76024 0
M  V30 2080 C 205.939 -4.29797 -4.06237 0
M  V30 2081 H 204.869 -0.42796 -0.620779 0
M  V30 2082 H 207.52 -1.53166 -1.01057 0
M  V30 2083 H 205.902 -1.56603 -3.63719 0
M  V30 2084 H 207.076 -4.0434 -2.21011 0
M  V30 2085 H 205.391 -3.57529 -2.13452 0
M  V30 2086 H 207.988 -2.52856 -4.71135 0
M  V30 2087 H 208.331 -0.94733 -4.05378 0
M  V30 2088 H 208.864 -2.39973 -3.17266 0
M  V30 2089 H 205.603 -5.32648 -3.82055 0
M  V30 2090 H 205.123 -3.81596 -4.62757 0
M  V30 2091 H 206.802 -4.39869 -4.74473 0
M  V30 2092 N 206.934 1.1197 -1.10907 0
M  V30 2093 C 208.35 1.35591 -0.841852 0
M  V30 2094 C 208.55 1.94233 0.536246 0
M  V30 2095 O 207.606 2.1717 1.28816 0
M  V30 2096 C 208.919 2.29284 -1.94549 0
M  V30 2097 C 210.467 2.42862 -1.97451 0
M  V30 2098 C 210.942 3.39873 -3.07002 0
M  V30 2099 N 212.433 3.47433 -3.06341 0
M  V30 2100 C 213.168 4.22421 -3.87748 0
M  V30 2101 N 212.664 5.00432 -4.79103 0
M  V30 2102 N 214.457 4.17876 -3.75946 0
M  V30 2103 H 206.608 0.722664 -1.99728 0
M  V30 2104 H 208.871 0.380635 -0.868229 0
M  V30 2105 H 208.577 1.93378 -2.93765 0
M  V30 2106 H 208.451 3.29452 -1.83688 0
M  V30 2107 H 210.838 2.78046 -0.988645 0
M  V30 2108 H 210.919 1.42566 -2.12388 0
M  V30 2109 H 210.563 3.05417 -4.05811 0
M  V30 2110 H 210.493 4.40011 -2.89306 0
M  V30 2111 H 212.984 2.91784 -2.40147 0
M  V30 2112 H 213.297 5.55002 -5.37766 0
M  V30 2113 H 211.642 4.99612 -4.83128 0
M  V30 2114 H 214.833 3.56016 -3.03924 0
M  V30 2115 H 215.006 4.76061 -4.39624 0
M  V30 2116 N 208.412 0.89855 1.29475 0
M  V30 2117 C 209.828 0.594483 1.48115 0
M  V30 2118 C 210.028 -0.86431 1.82022 0
M  V30 2119 O 209.084 -1.64457 1.91599 0
M  V30 2120 C 210.397 1.51932 2.59494 0
M  V30 2121 C 211.945 1.5244 2.7337 0
M  V30 2122 C 212.42 2.43548 3.87877 0
M  V30 2123 N 213.911 2.41589 3.95208 0
M  V30 2124 C 214.646 3.08789 4.83153 0
M  V30 2125 N 214.142 3.85265 5.75798 0
M  V30 2126 N 215.935 2.97952 4.76635 0
M  V30 2127 H 208.086 1.84207 1.05742 0
M  V30 2128 H 210.349 0.789251 0.525154 0
M  V30 2129 H 210.055 2.55865 2.41301 0
M  V30 2130 H 209.929 1.23899 3.56271 0
M  V30 2131 H 212.316 0.492518 2.90961 0
M  V30 2132 H 212.397 1.8451 1.77172 0
M  V30 2133 H 212.041 3.46829 3.71041 0
M  V30 2134 H 211.971 2.08788 4.83441 0
M  V30 2135 H 214.462 1.86025 3.28943 0
M  V30 2136 H 214.775 4.33598 6.39697 0
M  V30 2137 H 213.12 3.89371 5.75687 0
M  V30 2138 H 216.311 2.37723 4.03244 0
M  V30 2139 H 216.484 3.50599 5.44962 0
M  V30 2140 N 209.89 -1.43072 0.660911 0
M  V30 2141 C 210.8 -2.34585 -0.0264163 0
M  V30 2142 C 211.816 -1.54316 -0.803898 0
M  V30 2143 O 212.992 -1.86939 -0.749391 0
M  V30 2144 C 210.057 -3.32689 -0.975639 0
M  V30 2145 C 209.118 -4.2886 -0.194236 0
M  V30 2146 C 208.351 -5.22278 -1.09825 0
M  V30 2147 O 208.574 -5.20299 -2.33763 0
M  V30 2148 O 207.508 -5.99228 -0.566513 0
M  V30 2149 H 211.334 -2.94869 0.727034 0
M  V30 2150 H 208.919 -1.43342 0.42111 0
M  V30 2151 H 210.801 -3.92995 -1.52094 0
M  V30 2152 H 209.476 -2.74898 -1.70918 0
M  V30 2153 H 208.383 -3.72011 0.394835 0
M  V30 2154 H 209.716 -4.89655 0.499899 0
M  V30 2155 N 211.368 -0.403325 -1.52352 0
M  V30 2156 C 212.645 0.232611 -1.94212 0
M  V30 2157 C 213.025 1.63133 -1.33981 0
M  V30 2158 O 212.373 2.22659 -0.513344 0
M  V30 2159 C 212.583 0.244811 -3.4814 0
M  V30 2160 C 213.931 0.46698 -4.22024 0
M  V30 2161 O 214.955 0.324419 -3.5472 0
M  V30 2162 O 213.814 0.74747 -5.41364 0
M  V30 2163 H 210.908 0.148223 -0.813609 0
M  V30 2164 H 213.454 -0.458848 -1.63379 0
M  V30 2165 H 212.226 -0.734378 -3.84347 0
M  V30 2166 H 211.849 0.980611 -3.85318 0
M  V30 2167 N 212.846 1.57033 -0.133567 0
M  V30 2168 C 214.093 1.95686 0.520877 0
M  V30 2169 C 214.421 1.0177 1.6575 0
M  V30 2170 O 213.676 0.0443195 1.9565 0
M  V30 2171 C 213.975 3.40674 1.08057 0
M  V30 2172 C 213.641 4.50855 0.0637899 0
M  V30 2173 C 212.303 4.80716 -0.215757 0
M  V30 2174 C 214.655 5.17398 -0.62835 0
M  V30 2175 C 211.983 5.74433 -1.19348 0
M  V30 2176 C 214.335 6.12167 -1.5948 0
M  V30 2177 C 212.999 6.40414 -1.88218 0
M  V30 2178 H 212.269 0.716067 0.190602 0
M  V30 2179 H 214.916 1.9026 -0.217556 0
M  V30 2180 H 213.221 3.42865 1.89606 0
M  V30 2181 H 214.918 3.67902 1.59529 0
M  V30 2182 H 211.508 4.27605 0.291855 0
M  V30 2183 H 215.692 4.94472 -0.425562 0
M  V30 2184 H 210.948 5.94616 -1.42272 0
M  V30 2185 H 215.122 6.6281 -2.13671 0
M  V30 2186 H 212.749 7.12838 -2.64133 0
M  V30 2187 N 214.325 -0.140222 1.56975 0
M  V30 2188 C 215.288 -1.15689 1.97861 0
M  V30 2189 C 216.288 -1.3549 0.865974 0
M  V30 2190 O 217.478 -1.32367 1.13246 0
M  V30 2191 C 214.61 -2.51582 2.30042 0
M  V30 2192 H 215.803 -0.805971 2.88867 0
M  V30 2193 H 213.356 -0.383801 1.51515 0
M  V30 2194 H 214.091 -2.91632 1.41849 0
M  V30 2195 H 213.876 -2.38569 3.11171 0
M  V30 2196 H 215.366 -3.24792 2.62488 0
M  V30 2197 N 215.803 -1.52179 -0.40978 0
M  V30 2198 C 216.75 -1.75475 -1.49924 0
M  V30 2199 C 217.72 -0.597175 -1.54994 0
M  V30 2200 O 218.905 -0.834655 -1.71575 0
M  V30 2201 C 216.045 -1.9107 -2.87378 0
M  V30 2202 C 215.158 -3.18717 -2.91622 0
M  V30 2203 C 214.293 -3.24747 -4.20372 0
M  V30 2204 C 213.332 -4.46598 -4.18588 0
M  V30 2205 N 212.469 -4.50025 -5.38908 0
M  V30 2206 H 217.309 -2.68458 -1.29361 0
M  V30 2207 H 214.846 -1.33024 -0.627934 0
M  V30 2208 H 216.804 -1.98096 -3.6717 0
M  V30 2209 H 215.434 -1.01469 -3.06437 0
M  V30 2210 H 214.486 -3.20866 -2.04326 0
M  V30 2211 H 215.798 -4.08544 -2.86169 0
M  V30 2212 H 214.952 -3.30841 -5.08556 0
M  V30 2213 H 213.691 -2.32857 -4.28519 0
M  V30 2214 H 212.696 -4.40652 -3.28794 0
M  V30 2215 H 213.921 -5.39783 -4.12081 0
M  V30 2216 H 211.867 -3.61017 -5.47725 0
M  V30 2217 H 211.784 -5.33697 -5.35447 0
M  V30 2218 H 213.052 -4.60347 -6.29048 0
M  V30 2219 N 217.281 0.66697 -1.42791 0
M  V30 2220 C 218.509 1.45505 -1.47091 0
M  V30 2221 C 218.924 1.8861 -0.0845873 0
M  V30 2222 O 218.281 1.58632 0.90234 0
M  V30 2223 C 218.332 2.69906 -2.40485 0
M  V30 2224 O 218.053 2.28608 -3.73725 0
M  V30 2225 C 219.554 3.63396 -2.53886 0
M  V30 2226 H 216.774 0.447459 -0.500022 0
M  V30 2227 H 219.318 0.818866 -1.8739 0
M  V30 2228 H 217.473 3.29696 -2.03419 0
M  V30 2229 H 217.887 3.08997 -4.23817 0
M  V30 2230 H 219.361 4.47387 -3.2334 0
M  V30 2231 H 219.838 4.09824 -1.57927 0
M  V30 2232 H 220.444 3.09495 -2.91706 0
M  V30 2233 N 218.759 1.29093 0.90403 0
M  V30 2234 C 220.007 1.16583 1.65085 0
M  V30 2235 C 220.328 -0.283933 1.92922 0
M  V30 2236 O 219.598 -1.19509 1.55224 0
M  V30 2237 H 218.178 0.428467 0.611903 0
M  V30 2238 H 220.84 1.61959 1.08422 0
M  V30 2239 H 219.936 1.71266 2.6091 0
M  V30 2240 N 220.237 -1.11381 1.11499 0
M  V30 2241 C 221.2 -2.15622 0.777153 0
M  V30 2242 C 222.2 -1.59504 -0.203779 0
M  V30 2243 O 223.39 -1.74188 0.020782 0
M  V30 2244 C 220.522 -3.40556 0.153116 0
M  V30 2245 H 221.715 -2.47021 1.70061 0
M  V30 2246 H 219.268 -1.26577 0.916952 0
M  V30 2247 H 220.003 -3.14767 -0.780536 0
M  V30 2248 H 219.788 -3.8257 0.859238 0
M  V30 2249 H 221.278 -4.17546 -0.0671044 0
M  V30 2250 N 221.715 -0.905404 -1.28997 0
M  V30 2251 C 222.943 -0.549846 -1.9946 0
M  V30 2252 C 223.358 0.866834 -1.67724 0
M  V30 2253 O 222.715 1.57298 -0.925404 0
M  V30 2254 C 222.766 -0.739387 -3.53858 0
M  V30 2255 O 222.487 -2.10031 -3.84472 0
M  V30 2256 C 223.988 -0.389541 -4.41585 0
M  V30 2257 H 221.208 -0.210429 -0.637151 0
M  V30 2258 H 223.752 -1.21632 -1.64396 0
M  V30 2259 H 221.907 -0.120023 -3.87214 0
M  V30 2260 H 222.321 -2.13385 -4.79132 0
M  V30 2261 H 223.795 -0.572972 -5.49018 0
M  V30 2262 H 224.272 0.673756 -4.34001 0
M  V30 2263 H 224.878 -0.986089 -4.1371 0
M  V30 2264 N 223.193 1.4272 -0.668489 0
M  V30 2265 C 224.421 2.05966 -0.196348 0
M  V30 2266 C 224.836 1.50191 1.14403 0
M  V30 2267 O 224.193 0.639208 1.7094 0
M  V30 2268 C 224.244 3.61314 -0.115815 0
M  V30 2269 O 223.965 4.1502 -1.40322 0
M  V30 2270 C 225.466 4.41663 0.380579 0
M  V30 2271 H 222.686 0.663954 -0.0969829 0
M  V30 2272 H 225.23 1.82966 -0.913446 0
M  V30 2273 H 223.385 3.83448 0.551931 0
M  V30 2274 H 223.799 5.08832 -1.27243 0
M  V30 2275 H 225.273 5.5065 0.385848 0
M  V30 2276 H 225.75 4.15792 1.41471 0
M  V30 2277 H 226.356 4.24534 -0.255209 0
M  V30 2278 N 224.671 0.411399 1.52136 0
M  V30 2279 C 225.604 -0.457614 2.23565 0
M  V30 2280 C 226.582 -1.04613 1.24478 0
M  V30 2281 O 227.766 -1.09356 1.53536 0
M  V30 2282 C 224.893 -1.6354 2.96602 0
M  V30 2283 C 223.939 -1.17005 4.10137 0
M  V30 2284 S 224.772 -0.13333 5.35334 0
M  V30 2285 C 225.928 -1.31638 6.119 0
M  V30 2286 H 226.161 0.148883 2.96927 0
M  V30 2287 H 223.694 0.195713 1.53155 0
M  V30 2288 H 225.652 -2.31074 3.39286 0
M  V30 2289 H 224.313 -2.21324 2.22878 0
M  V30 2290 H 223.506 -2.05005 4.60422 0
M  V30 2291 H 223.108 -0.573319 3.6958 0
M  V30 2292 H 225.4 -2.23957 6.39413 0
M  V30 2293 H 226.343 -0.854014 7.02931 0
M  V30 2294 H 226.751 -1.54321 5.42997 0
M  V30 2295 N 226.149 -1.5696 0.141893 0
M  V30 2296 C 227.565 -1.58151 -0.21456 0
M  V30 2297 C 227.765 -1.1559 -1.65049 0
M  V30 2298 O 226.821 -0.853832 -2.37626 0
M  V30 2299 C 228.134 -3.00674 0.0395576 0
M  V30 2300 C 229.682 -3.1299 -0.0245529 0
M  V30 2301 C 230.157 -4.57554 0.202167 0
M  V30 2302 N 231.648 -4.62961 0.148919 0
M  V30 2303 C 232.383 -5.7262 0.298924 0
M  V30 2304 N 231.879 -6.90947 0.50637 0
M  V30 2305 N 233.672 -5.61601 0.236886 0
M  V30 2306 H 225.823 -1.8292 1.07953 0
M  V30 2307 H 228.086 -0.846425 0.42693 0
M  V30 2308 H 227.792 -3.36183 1.03315 0
M  V30 2309 H 227.666 -3.70981 -0.682143 0
M  V30 2310 H 230.053 -2.77326 -1.00869 0
M  V30 2311 H 230.134 -2.4518 0.729396 0
M  V30 2312 H 229.778 -4.93922 1.18338 0
M  V30 2313 H 229.708 -5.23484 -0.572044 0
M  V30 2314 H 232.199 -3.77899 -0.00697015 0
M  V30 2315 H 232.512 -7.7038 0.611076 0
M  V30 2316 H 230.857 -6.92878 0.542628 0
M  V30 2317 H 234.048 -4.68039 0.0756209 0
M  V30 2318 H 234.221 -6.47015 0.357227 0
M  V30 2319 N 227.627 0.131896 -1.57047 0
M  V30 2320 C 228.537 1.1815 -2.02676 0
M  V30 2321 C 229.553 1.46113 -0.944824 0
M  V30 2322 O 230.729 1.57485 -1.25541 0
M  V30 2323 C 227.794 2.49139 -2.41103 0
M  V30 2324 C 226.855 2.28688 -3.63318 0
M  V30 2325 C 226.088 3.53431 -3.99903 0
M  V30 2326 O 226.311 4.60223 -3.36973 0
M  V30 2327 O 225.245 3.45198 -4.93074 0
M  V30 2328 H 229.071 0.824069 -2.92306 0
M  V30 2329 H 226.656 0.341745 -1.45439 0
M  V30 2330 H 228.538 3.26338 -2.66611 0
M  V30 2331 H 227.213 2.84382 -1.54624 0
M  V30 2332 H 226.12 1.4939 -3.42977 0
M  V30 2333 H 227.453 1.98355 -4.50462 0
M  V30 2334 N 229.106 1.52395 0.401703 0
M  V30 2335 C 230.352 1.67065 1.14966 0
M  V30 2336 C 230.685 0.403052 1.89971 0
M  V30 2337 O 229.96 -0.598774 1.85054 0
M  V30 2338 C 230.243 2.8975 2.13815 0
M  V30 2339 C 230.096 4.26578 1.42658 0
M  V30 2340 C 231.415 3.07965 3.14397 0
M  V30 2341 H 228.534 0.607968 0.416587 0
M  V30 2342 H 231.176 1.84965 0.434511 0
M  V30 2343 H 229.326 2.74619 2.74803 0
M  V30 2344 H 230.998 4.53451 0.847329 0
M  V30 2345 H 229.241 4.27639 0.72849 0
M  V30 2346 H 229.912 5.08483 2.14823 0
M  V30 2347 H 232.388 3.22043 2.63491 0
M  V30 2348 H 231.264 3.95308 3.80819 0
M  V30 2349 H 231.525 2.21611 3.82545 0
M  V30 2350 N 230.584 -0.659388 1.43143 0
M  V30 2351 C 231.514 -1.78422 1.50625 0
M  V30 2352 C 232.495 -1.66216 0.361443 0
M  V30 2353 O 233.68 -1.85404 0.577834 0
M  V30 2354 C 230.81 -3.16815 1.42287 0
M  V30 2355 C 229.764 -3.43777 2.54954 0
M  V30 2356 C 229.09 -4.81905 2.31671 0
M  V30 2357 C 230.39 -3.39134 3.97222 0
M  V30 2358 H 232.084 -1.72417 2.44771 0
M  V30 2359 H 229.63 -0.828084 1.17808 0
M  V30 2360 H 231.583 -3.95253 1.46127 0
M  V30 2361 H 230.307 -3.23534 0.446435 0
M  V30 2362 H 228.966 -2.67707 2.50457 0
M  V30 2363 H 228.614 -4.85294 1.32284 0
M  V30 2364 H 228.314 -5.00906 3.07192 0
M  V30 2365 H 229.838 -5.62609 2.37284 0
M  V30 2366 H 231.252 -4.07518 4.03239 0
M  V30 2367 H 229.649 -3.69671 4.72719 0
M  V30 2368 H 230.719 -2.37426 4.22797 0
M  V30 2369 N 232.062 -1.29571 -0.897171 0
M  V30 2370 C 233.01 -1.14802 -2.02295 0
M  V30 2371 C 234.004 -0.0629637 -1.69283 0
M  V30 2372 O 235.21 -0.222945 -1.78614 0
M  V30 2373 H 231.585 -0.354692 -0.663097 0
M  V30 2374 H 233.556 -2.10108 -2.11889 0
M  V30 2375 C 232.305 -0.843966 -3.37302 0
M  V30 2376 H 231.628 -1.67093 -3.63208 0
M  V30 2377 H 233.068 -0.780672 -4.16751 0
M  V30 2378 C 231.527 0.452843 -3.33843 0
M  V30 2379 O 232.057 1.47813 -3.73516 0
M  V30 2380 N 230.263 0.459601 -2.86943 0
M  V30 2381 H 229.81 -0.375213 -2.54853 0
M  V30 2382 H 229.768 1.32726 -2.85011 0
M  V30 2383 N 233.54 1.10788 -1.12088 0
M  V30 2384 C 234.956 1.34691 -0.856186 0
M  V30 2385 C 235.156 1.94791 0.515615 0
M  V30 2386 O 234.212 2.18524 1.26505 0
M  V30 2387 C 235.525 2.27208 -1.9697 0
M  V30 2388 C 237.073 2.40755 -2.00016 0
M  V30 2389 C 237.548 3.36598 -3.1059 0
M  V30 2390 N 239.039 3.44164 -3.10008 0
M  V30 2391 C 239.774 4.18284 -3.92206 0
M  V30 2392 N 239.27 4.95322 -4.84384 0
M  V30 2393 N 241.063 4.13865 -3.80357 0
M  V30 2394 H 233.214 0.70144 -2.00483 0
M  V30 2395 H 235.477 0.371405 -0.872217 0
M  V30 2396 H 235.183 1.90251 -2.958 0
M  V30 2397 H 235.057 3.27485 -1.87172 0
M  V30 2398 H 237.444 2.76982 -1.01808 0
M  V30 2399 H 237.525 1.40305 -2.13888 0
M  V30 2400 H 237.169 3.01096 -4.09028 0
M  V30 2401 H 237.099 4.36918 -2.93956 0
M  V30 2402 H 239.59 2.8922 -2.43228 0
M  V30 2403 H 239.903 5.49267 -5.43623 0
M  V30 2404 H 238.248 4.94459 -4.884 0
M  V30 2405 H 241.439 3.52773 -3.07683 0
M  V30 2406 H 241.612 4.71372 -4.44649 0
M  V30 2407 N 235.018 0.912232 1.28515 0
M  V30 2408 C 236.267 0.540504 1.94323 0
M  V30 2409 C 236.58 -0.920044 1.72611 0
M  V30 2410 O 237.786 -1.39986 2.32629 0
M  V30 2411 C 236.242 0.915803 3.48053 0
M  V30 2412 C 235.85 2.39598 3.78546 0
M  V30 2413 C 237.594 0.614588 4.20027 0
M  V30 2414 C 235.501 2.71148 5.25578 0
M  V30 2415 H 234.431 0.198418 0.727424 0
M  V30 2416 H 237.082 1.11094 1.46049 0
M  V30 2417 H 235.464 0.274168 3.9505 0
M  V30 2418 H 236.638 3.08422 3.42364 0
M  V30 2419 H 234.953 2.66749 3.1974 0
M  V30 2420 H 237.55 0.827002 5.28266 0
M  V30 2421 H 237.893 -0.447531 4.13887 0
M  V30 2422 H 238.426 1.21462 3.78803 0
M  V30 2423 H 235.165 3.76207 5.36794 0
M  V30 2424 H 234.685 2.0696 5.62963 0
M  V30 2425 H 236.364 2.58072 5.93302 0
M  V30 2426 N 236.496 -1.42363 0.676048 0
M  V30 2427 C 237.907 -1.84649 0.275948 0
M  V30 2428 C 238.258 -1.56588 -1.18214 0
M  V30 2429 O 237.383 -1.02634 -1.90513 0
M  V30 2430 C 237.978 -3.35178 0.494053 0
M  V30 2431 C 236.537 -3.76109 0.148061 0
M  V30 2432 C 235.684 -2.65931 0.785891 0
M  V30 2433 H 238.635 -1.32192 0.878121 0
M  V30 2434 H 238.656 -3.79655 -0.25343 0
M  V30 2435 H 238.168 -3.55571 1.55535 0
M  V30 2436 H 236.269 -3.61323 -0.909742 0
M  V30 2437 H 236.382 -4.7546 0.589454 0
M  V30 2438 H 234.746 -2.53773 0.217113 0
M  V30 2439 H 235.529 -2.89146 1.85067 0
M  V30 2440 N 237.974 -0.419461 -1.51915 0
M  V30 2441 C 239.222 0.152637 -2.01523 0
M  V30 2442 C 239.543 1.44762 -1.30649 0
M  V30 2443 O 238.813 1.90997 -0.435535 0
M  V30 2444 H 237.393 0.0593966 -0.744635 0
M  V30 2445 H 240.055 -0.558073 -1.86739 0
M  V30 2446 H 239.151 0.341369 -3.10227 0
M  V30 2447 N 239.452 1.56882 -0.150215 0
M  V30 2448 C 240.698 1.96518 0.500834 0
M  V30 2449 C 241.031 1.03527 1.64304 0
M  V30 2450 O 240.306 0.0782751 1.94342 0
M  V30 2451 C 240.589 3.45822 1.00395 0
M  V30 2452 C 240.442 4.49591 -0.136983 0
M  V30 2453 C 241.761 3.97704 1.88467 0
M  V30 2454 H 238.88 0.714535 0.18058 0
M  V30 2455 H 241.522 1.88577 -0.232091 0
M  V30 2456 H 239.672 3.5272 1.62851 0
M  V30 2457 H 241.344 4.5477 -0.77343 0
M  V30 2458 H 239.587 4.26441 -0.795652 0
M  V30 2459 H 240.258 5.51402 0.256815 0
M  V30 2460 H 242.734 3.93304 1.35834 0
M  V30 2461 H 241.61 5.0263 2.20578 0
M  V30 2462 H 241.871 3.40252 2.82279 0
M  V30 2463 N 240.93 -0.123565 1.57115 0
M  V30 2464 C 242.155 -0.850398 1.89164 0
M  V30 2465 C 242.58 -1.7286 0.741688 0
M  V30 2466 O 241.938 -1.78665 -0.307958 0
M  V30 2467 C 241.986 -1.66353 3.19936 0
M  V30 2468 O 241.09 -2.77004 3.0552 0
M  V30 2469 H 240.431 -0.235454 0.620852 0
M  V30 2470 H 242.961 -0.107335 2.04318 0
M  V30 2471 H 242.971 -2.05372 3.52543 0
M  V30 2472 H 241.646 -1.01881 4.03228 0
M  V30 2473 H 240.223 -2.41221 2.84371 0
M  V30 2474 N 242.408 -1.52605 -0.393616 0
M  V30 2475 C 243.371 -1.76415 -1.46323 0
M  V30 2476 C 244.371 -0.634126 -1.47768 0
M  V30 2477 O 245.561 -0.902142 -1.4902 0
M  V30 2478 C 242.693 -1.8607 -2.85641 0
M  V30 2479 H 243.886 -2.71916 -1.26498 0
M  V30 2480 H 241.439 -1.43257 -0.625073 0
M  V30 2481 H 242.174 -0.925378 -3.10817 0
M  V30 2482 H 241.959 -2.68235 -2.85993 0
M  V30 2483 H 243.449 -2.06179 -3.63153 0
M  V30 2484 N 243.887 0.651787 -1.4349 0
M  V30 2485 C 245.298 1.233 -1.40193 0
M  V30 2486 C 245.649 1.9591 -0.106727 0
M  V30 2487 O 244.774 2.01316 0.793773 0
M  V30 2488 C 245.369 2.24257 -2.53957 0
M  V30 2489 C 243.928 2.77852 -2.5392 0
M  V30 2490 C 243.075 1.52517 -2.3159 0
M  V30 2491 H 246.026 0.443717 -1.52371 0
M  V30 2492 H 246.047 3.0646 -2.25528 0
M  V30 2493 H 245.559 1.71382 -3.4821 0
M  V30 2494 H 243.66 3.34786 -1.63551 0
M  V30 2495 H 243.773 3.25299 -3.51735 0
M  V30 2496 H 242.137 1.79915 -1.80285 0
M  V30 2497 H 242.92 1.01574 -3.27929 0
M  V30 2498 N 245.365 1.30045 0.890287 0
M  V30 2499 C 246.275 1.17885 2.02831 0
M  V30 2500 C 247.291 0.0999609 1.73713 0
M  V30 2501 O 248.467 0.313867 1.98939 0
M  V30 2502 C 245.532 0.866079 3.35708 0
M  V30 2503 C 244.593 2.02979 3.78283 0
M  V30 2504 C 243.826 1.73184 5.0482 0
M  V30 2505 O 244.049 0.657237 5.66601 0
M  V30 2506 O 242.983 2.58267 5.43674 0
M  V30 2507 H 246.809 2.13474 2.16015 0
M  V30 2508 H 244.394 1.09587 1.01543 0
M  V30 2509 H 246.276 0.706623 4.15433 0
M  V30 2510 H 244.951 -0.0599443 3.23644 0
M  V30 2511 H 243.858 2.24454 2.99285 0
M  V30 2512 H 245.191 2.93734 3.94944 0
M  V30 2513 N 246.843 -1.10192 1.12674 0
M  V30 2514 C 247.791 -2.18694 0.792196 0
M  V30 2515 C 248.785 -1.67938 -0.222058 0
M  V30 2516 O 249.991 -1.79822 -0.0800074 0
M  V30 2517 H 246.366 -0.713223 0.238364 0
M  V30 2518 H 248.337 -2.44149 1.71564 0
M  V30 2519 C 247.086 -3.46682 0.265859 0
M  V30 2520 H 246.409 -3.86101 1.03761 0
M  V30 2521 H 247.849 -4.23942 0.0701128 0
M  V30 2522 C 246.308 -3.21506 -1.00675 0
M  V30 2523 O 246.838 -3.43408 -2.08408 0
M  V30 2524 N 245.044 -2.75158 -0.934692 0
M  V30 2525 H 244.591 -2.57535 -0.0578604 0
M  V30 2526 H 244.549 -2.58691 -1.7868 0
M  V30 2527 N 248.321 -0.919034 -1.28029 0
M  V30 2528 C 249.269 -0.401753 -2.29104 0
M  V30 2529 C 250.263 0.509354 -1.61561 0
M  V30 2530 O 251.469 0.390014 -1.75724 0
M  V30 2531 H 247.844 -0.111331 -0.743713 0
M  V30 2532 H 249.815 -1.2672 -2.70156 0
M  V30 2533 C 248.564 0.338148 -3.46052 0
M  V30 2534 H 247.887 -0.353732 -3.98232 0
M  V30 2535 H 249.327 0.664653 -4.18758 0
M  V30 2536 C 247.786 1.54798 -2.99231 0
M  V30 2537 O 248.316 2.64696 -3.02157 0
M  V30 2538 N 246.522 1.3968 -2.54829 0
M  V30 2539 H 246.069 0.502698 -2.52647 0
M  V30 2540 H 246.027 2.20755 -2.23863 0
M  V30 2541 N 249.799 1.42003 -0.683588 0
M  V30 2542 C 251.047 2.01015 -0.209101 0
M  V30 2543 C 251.368 1.54365 1.19149 0
M  V30 2544 O 250.638 0.769083 1.80172 0
M  V30 2545 H 249.218 0.743294 -0.074315 0
M  V30 2546 H 251.88 1.73798 -0.882066 0
M  V30 2547 H 250.976 3.11343 -0.2172 0
M  V30 2548 N 251.277 0.427512 1.51691 0
M  V30 2549 C 252.505 -0.141191 2.06418 0
M  V30 2550 C 252.92 -1.37303 1.29589 0
M  V30 2551 O 252.277 -1.79059 0.352732 0
M  V30 2552 C 252.328 -0.473266 3.58389 0
M  V30 2553 O 252.049 0.709673 4.32314 0
M  V30 2554 C 253.55 -1.09371 4.29596 0
M  V30 2555 H 250.77 -0.0122747 0.670888 0
M  V30 2556 H 253.314 0.603764 1.95384 0
M  V30 2557 H 251.469 -1.16812 3.69369 0
M  V30 2558 H 251.883 0.42807 5.2275 0
M  V30 2559 H 253.357 -1.27613 5.37046 0
M  V30 2560 H 253.834 -2.072 3.87253 0
M  V30 2561 H 254.44 -0.43853 4.23033 0
M  V30 2562 N 252.755 -1.56801 0.158532 0
M  V30 2563 C 254.003 -1.96102 -0.488712 0
M  V30 2564 C 254.324 -1.04498 -1.64636 0
M  V30 2565 O 253.594 -0.108783 -1.95598 0
M  V30 2566 H 252.174 -0.724102 -0.183535 0
M  V30 2567 H 254.836 -1.93457 0.236728 0
M  V30 2568 H 253.932 -3.00097 -0.857219 0
M  V30 2569 N 254.233 0.115231 -1.57178 0
M  V30 2570 C 255.458 0.840354 -1.89612 0
M  V30 2571 C 255.883 1.72464 -0.750845 0
M  V30 2572 O 255.241 1.78826 0.298478 0
M  V30 2573 C 255.289 1.64654 -3.20814 0
M  V30 2574 O 254.393 2.7538 -3.06985 0
M  V30 2575 H 253.734 0.232158 -0.622092 0
M  V30 2576 H 256.264 0.0964977 -2.04372 0
M  V30 2577 H 256.274 2.03499 -3.53627 0
M  V30 2578 H 254.949 0.997416 -4.03763 0
M  V30 2579 H 253.526 2.3971 -2.85646 0
M  V30 2580 N 255.711 1.52812 0.385517 0
M  V30 2581 C 256.661 1.74219 1.47078 0
M  V30 2582 C 257.645 0.59632 1.49442 0
M  V30 2583 O 258.837 0.85428 1.5502 0
M  V30 2584 C 255.966 1.9176 2.84751 0
M  V30 2585 C 255.052 3.12289 2.86943 0
M  V30 2586 N 255.443 4.34575 2.58802 0
M  V30 2587 C 253.741 3.12605 3.1811 0
M  V30 2588 C 254.442 5.162 2.68166 0
M  V30 2589 N 253.418 4.51964 3.02043 0
M  V30 2590 H 257.22 2.6639 1.24152 0
M  V30 2591 H 254.734 1.51166 0.593504 0
M  V30 2592 H 256.731 2.05218 3.62893 0
M  V30 2593 H 255.391 1.00805 3.08656 0
M  V30 2594 H 256.402 4.62649 2.32759 0
M  V30 2595 H 253.079 2.31472 3.47458 0
M  V30 2596 H 254.469 6.23689 2.49923 0
M  V30 2597 N 257.189 -0.644168 1.43834 0
M  V30 2598 C 258.466 -1.40188 1.36406 0
M  V30 2599 C 258.846 -2.11094 0.0163124 0
M  V30 2600 O 258.194 -2.05426 -1.00062 0
M  V30 2601 C 258.404 -2.3791 2.55343 0
M  V30 2602 C 259.752 -3.01637 2.98832 0
M  V30 2603 O 260.776 -2.48237 2.55455 0
M  V30 2604 O 259.635 -3.98477 3.74003 0
M  V30 2605 H 256.729 -0.626773 0.539523 0
M  V30 2606 H 259.275 -0.670317 1.559 0
M  V30 2607 H 258.047 -1.84525 3.4506 0
M  V30 2608 H 257.67 -3.18503 2.37995 0
M  V30 2609 N 258.668 -1.30515 -0.883378 0
M  V30 2610 C 259.598 -1.19607 -2.00541 0
M  V30 2611 C 260.579 -0.086346 -1.69881 0
M  V30 2612 O 261.764 -0.268654 -1.92333 0
M  V30 2613 C 258.894 -0.888758 -3.35736 0
M  V30 2614 C 257.848 -1.95659 -3.8066 0
M  V30 2615 C 257.174 -1.50224 -5.13164 0
M  V30 2616 C 258.474 -3.36788 -3.99213 0
M  V30 2617 H 260.168 -2.13476 -2.09925 0
M  V30 2618 H 257.714 -1.02775 -1.00863 0
M  V30 2619 H 259.667 -0.799094 -4.13754 0
M  V30 2620 H 258.391 0.0856125 -3.26488 0
M  V30 2621 H 257.05 -2.03591 -3.04871 0
M  V30 2622 H 256.698 -0.516092 -5.00345 0
M  V30 2623 H 256.398 -2.2165 -5.44192 0
M  V30 2624 H 257.922 -1.42639 -5.93706 0
M  V30 2625 H 259.336 -3.31605 -4.67665 0
M  V30 2626 H 257.733 -4.06314 -4.41621 0
M  V30 2627 H 258.803 -3.78561 -3.03017 0
M  V30 2628 N 260.146 1.09593 -1.13257 0
M  V30 2629 C 261.109 2.14359 -0.811358 0
M  V30 2630 C 262.109 1.59808 0.178377 0
M  V30 2631 O 263.299 1.74132 -0.0484911 0
M  V30 2632 C 260.431 3.40269 -0.207276 0
M  V30 2633 H 261.624 2.44284 -1.73969 0
M  V30 2634 H 259.177 1.25102 -0.936973 0
M  V30 2635 H 259.912 3.15969 0.73036 0
M  V30 2636 H 259.697 3.81154 -0.919992 0
M  V30 2637 H 261.187 4.176 0.000667944 0
M  V30 2638 N 261.624 0.925811 1.2754 0
M  V30 2639 C 262.557 0.367836 2.25216 0
M  V30 2640 C 263.535 -0.534738 1.53556 0
M  V30 2641 O 264.719 -0.475672 1.824 0
M  V30 2642 C 261.846 -0.47298 3.35381 0
M  V30 2643 C 260.892 0.365898 4.24928 0
M  V30 2644 S 261.725 1.78025 5.05042 0
M  V30 2645 C 262.881 0.947068 6.18693 0
M  V30 2646 H 263.114 1.19568 2.72196 0
M  V30 2647 H 260.647 0.727867 1.36167 0
M  V30 2648 H 262.605 -0.952242 3.99303 0
M  V30 2649 H 261.266 -1.27533 2.87044 0
M  V30 2650 H 260.459 -0.277582 5.03235 0
M  V30 2651 H 260.061 0.779261 3.65792 0
M  V30 2652 H 262.353 0.182201 6.77255 0
M  V30 2653 H 263.296 1.70309 6.87314 0
M  V30 2654 H 263.704 0.489913 5.6237 0
M  V30 2655 N 263.102 -1.41638 0.69111 0
M  V30 2656 C 264.05 -2.32597 0.0115199 0
M  V30 2657 C 265.044 -1.5072 -0.773296 0
M  V30 2658 O 266.25 -1.66685 -0.67942 0
M  V30 2659 H 262.625 -0.751849 -0.0150746 0
M  V30 2660 H 264.596 -2.87593 0.795791 0
M  V30 2661 C 263.345 -3.35467 -0.914172 0
M  V30 2662 H 262.668 -3.9852 -0.319687 0
M  V30 2663 H 264.108 -4.01662 -1.35808 0
M  V30 2664 C 262.567 -2.69004 -2.02826 0
M  V30 2665 O 263.097 -2.53444 -3.11655 0
M  V30 2666 N 261.303 -2.2777 -1.80469 0
M  V30 2667 H 260.85 -2.40626 -0.919615 0
M  V30 2668 H 260.808 -1.83635 -2.55197 0
M  V30 2669 N 264.58 -0.43555 -1.51462 0
M  V30 2670 C 265.827 0.131514 -2.02072 0
M  V30 2671 C 266.155 1.42868 -1.31981 0
M  V30 2672 O 265.41 1.91076 -0.422883 0
M  V30 2673 C 265.709 0.39942 -3.55161 0
M  V30 2674 C 265.375 -0.81172 -4.43533 0
M  V30 2675 C 264.037 -1.14387 -4.67407 0
M  V30 2676 C 266.389 -1.61976 -4.95392 0
M  V30 2677 C 263.717 -2.28477 -5.40384 0
M  V30 2678 C 266.069 -2.75164 -5.6962 0
M  V30 2679 C 264.733 -3.08835 -5.91758 0
M  V30 2680 H 264.003 0.0481244 -0.739436 0
M  V30 2681 H 266.65 -0.58238 -1.8243 0
M  V30 2682 H 264.955 1.19519 -3.73125 0
M  V30 2683 H 266.652 0.85157 -3.91854 0
M  V30 2684 H 263.242 -0.542898 -4.25148 0
M  V30 2685 H 267.426 -1.37637 -4.76833 0
M  V30 2686 H 262.682 -2.5488 -5.55739 0
M  V30 2687 H 266.856 -3.38147 -6.08793 0
M  V30 2688 H 264.483 -3.97353 -6.48086 0
M  V30 2689 N 266.058 1.56714 -0.166846 0
M  V30 2690 C 267.306 1.96358 0.478305 0
M  V30 2691 C 267.627 1.0537 1.6408 0
M  V30 2692 O 266.897 0.119154 1.95537 0
M  V30 2693 H 265.477 0.725065 0.179692 0
M  V30 2694 H 268.139 1.93329 -0.246985 0
M  V30 2695 H 267.235 3.00547 0.841292 0
M  V30 2696 N 267.536 -0.106894 1.57237 0
M  V30 2697 C 268.785 -0.811163 1.8467 0
M  V30 2698 C 269.098 -1.80469 0.754342 0
M  V30 2699 O 270.304 -2.55601 0.915439 0
M  V30 2700 C 268.76 -1.49337 3.27454 0
M  V30 2701 C 268.368 -0.540217 4.44731 0
M  V30 2702 C 270.112 -2.18206 3.64124 0
M  V30 2703 C 268.019 -1.22634 5.78545 0
M  V30 2704 H 266.949 -0.306679 0.688813 0
M  V30 2705 H 269.6 -0.0639887 1.83388 0
M  V30 2706 H 267.982 -2.2876 3.23241 0
M  V30 2707 H 269.156 0.221659 4.60267 0
M  V30 2708 H 267.471 0.042146 4.16379 0
M  V30 2709 H 270.068 -2.70253 4.61376 0
M  V30 2710 H 270.411 -2.96562 2.92158 0
M  V30 2711 H 270.944 -1.45658 3.70174 0
M  V30 2712 H 267.683 -0.483832 6.53712 0
M  V30 2713 H 267.203 -1.95993 5.66874 0
M  V30 2714 H 268.882 -1.75615 6.2271 0
M  V30 2715 N 269.014 -1.53014 -0.377408 0
M  V30 2716 C 270.43 -1.42523 -0.718281 0
M  V30 2717 C 270.63 -0.55487 -1.9371 0
M  V30 2718 O 269.686 -0.0327593 -2.52479 0
M  V30 2719 C 270.999 -2.85546 -0.942539 0
M  V30 2720 C 272.547 -2.95101 -1.04329 0
M  V30 2721 C 273.022 -4.3916 -1.3001 0
M  V30 2722 N 274.513 -4.42536 -1.36806 0
M  V30 2723 C 275.248 -5.51097 -1.58364 0
M  V30 2724 N 274.744 -6.69724 -1.77317 0
M  V30 2725 N 276.537 -5.38657 -1.60638 0
M  V30 2726 H 268.688 -2.08116 0.424426 0
M  V30 2727 H 270.951 -0.939352 0.127759 0
M  V30 2728 H 270.657 -3.51499 -0.118929 0
M  V30 2729 H 270.531 -3.28493 -1.85397 0
M  V30 2730 H 272.918 -2.29309 -1.85745 0
M  V30 2731 H 272.999 -2.55566 -0.109505 0
M  V30 2732 H 272.643 -5.05521 -0.490991 0
M  V30 2733 H 272.573 -4.76258 -2.24691 0
M  V30 2734 H 275.064 -3.57039 -1.23821 0
M  V30 2735 H 275.377 -7.48233 -1.93306 0
M  V30 2736 H 273.722 -6.72732 -1.74518 0
M  V30 2737 H 276.913 -4.44948 -1.45391 0
M  V30 2738 H 277.086 -6.2333 -1.77098 0
M  V30 2739 N 270.492 0.636531 -1.44174 0
M  V30 2740 C 271.74 1.39343 -1.46383 0
M  V30 2741 C 272.061 1.94766 -0.0955715 0
M  V30 2742 O 271.331 1.75452 0.871395 0
M  V30 2743 H 269.911 0.517199 -0.538994 0
M  V30 2744 H 272.573 0.74957 -1.7991 0
M  V30 2745 H 271.669 2.22746 -2.18611 0
M  V30 2746 N 271.97 1.30982 0.876444 0
M  V30 2747 C 272.9 1.20668 1.99903 0
M  V30 2748 C 273.881 0.095354 1.69833 0
M  V30 2749 O 275.066 0.27885 1.92188 0
M  V30 2750 C 272.196 0.90655 3.3526 0
M  V30 2751 C 271.15 1.97675 3.79617 0
M  V30 2752 C 270.476 1.52943 5.1236 0
M  V30 2753 C 271.776 3.389 3.97422 0
M  V30 2754 H 273.47 2.14586 2.0879 0
M  V30 2755 H 271.016 1.03308 1.00317 0
M  V30 2756 H 272.969 0.821025 4.13324 0
M  V30 2757 H 271.693 -0.0682969 3.26529 0
M  V30 2758 H 270.352 2.05205 3.03787 0
M  V30 2759 H 270 0.54262 5.00065 0
M  V30 2760 H 269.7 2.24532 5.43009 0
M  V30 2761 H 271.224 1.45786 5.92941 0
M  V30 2762 H 272.638 3.34081 4.659 0
M  V30 2763 H 271.035 4.0865 4.3946 0
M  V30 2764 H 272.105 3.80163 3.01006 0
M  V30 2765 N 273.449 -1.08991 1.13837 0
M  V30 2766 C 274.397 -2.17841 0.815347 0
M  V30 2767 C 275.391 -1.68164 -0.204233 0
M  V30 2768 O 276.597 -1.79897 -0.0609304 0
M  V30 2769 H 272.972 -0.710654 0.245915 0
M  V30 2770 H 274.943 -2.42315 1.74143 0
M  V30 2771 C 273.692 -3.46381 0.302614 0
M  V30 2772 H 273.015 -3.84979 1.0785 0
M  V30 2773 H 274.455 -4.23844 0.115074 0
M  V30 2774 C 272.914 -3.22556 -0.972591 0
M  V30 2775 O 273.444 -3.45599 -2.04754 0
M  V30 2776 N 271.65 -2.76134 -0.905455 0
M  V30 2777 H 271.197 -2.57582 -0.0305421 0
M  V30 2778 H 271.155 -2.60571 -1.75926 0
M  V30 2779 N 274.927 -0.932562 -1.27047 0
M  V30 2780 C 276.338 -0.619451 -1.76124 0
M  V30 2781 C 276.689 0.865397 -1.76083 0
M  V30 2782 O 275.814 1.67722 -1.36742 0
M  V30 2783 C 276.409 -1.11771 -3.19832 0
M  V30 2784 C 274.968 -0.855174 -3.66557 0
M  V30 2785 C 274.115 -1.27362 -2.46321 0
M  V30 2786 H 277.066 -1.11181 -1.13245 0
M  V30 2787 H 277.087 -0.46759 -3.77616 0
M  V30 2788 H 276.599 -2.19842 -3.1983 0
M  V30 2789 H 274.7 0.211524 -3.71999 0
M  V30 2790 H 274.813 -1.47613 -4.55793 0
M  V30 2791 H 273.177 -0.692119 -2.45116 0
M  V30 2792 H 273.96 -2.36307 -2.49025 0
M  V30 2793 N 276.405 1.4127 -0.698611 0
M  V30 2794 C 277.821 1.55241 -0.370462 0
M  V30 2795 C 278.021 1.67351 1.12231 0
M  V30 2796 O 277.077 1.65363 1.90818 0
M  V30 2797 C 278.39 2.78997 -1.12165 0
M  V30 2798 C 279.938 2.92797 -1.1063 0
M  V30 2799 C 280.413 4.19445 -1.8393 0
M  V30 2800 N 281.904 4.26409 -1.80914 0
M  V30 2801 C 282.639 5.23271 -2.34467 0
M  V30 2802 N 282.135 6.26145 -2.96504 0
M  V30 2803 N 283.928 5.15232 -2.24706 0
M  V30 2804 H 276.079 1.31654 -1.66676 0
M  V30 2805 H 278.342 0.635393 -0.703548 0
M  V30 2806 H 278.048 2.76268 -2.17644 0
M  V30 2807 H 277.922 3.70606 -0.702209 0
M  V30 2808 H 280.309 2.95039 -0.0597713 0
M  V30 2809 H 280.39 2.02353 -1.56483 0
M  V30 2810 H 280.034 4.17964 -2.88563 0
M  V30 2811 H 279.964 5.08866 -1.35509 0
M  V30 2812 H 282.455 3.527 -1.35687 0
M  V30 2813 H 282.768 6.96451 -3.34927 0
M  V30 2814 H 281.113 6.26638 -3.00583 0
M  V30 2815 H 284.304 4.33789 -1.7591 0
M  V30 2816 H 284.477 5.90552 -2.66745 0
M  V30 2817 N 277.883 0.443576 1.51229 0
M  V30 2818 C 278.813 -0.355142 2.30783 0
M  V30 2819 C 279.794 -1.0154 1.36468 0
M  V30 2820 O 280.979 -1.01785 1.65389 0
M  V30 2821 C 278.109 -1.45312 3.15439 0
M  V30 2822 C 277.063 -0.916002 4.18083 0
M  V30 2823 C 276.389 -2.1102 4.91299 0
M  V30 2824 C 277.689 0.0538602 5.22272 0
M  V30 2825 H 279.383 0.308767 2.97804 0
M  V30 2826 H 276.929 0.149937 1.43217 0
M  V30 2827 H 278.882 -2.01914 3.69876 0
M  V30 2828 H 277.606 -2.14541 2.46252 0
M  V30 2829 H 276.265 -0.372145 3.64706 0
M  V30 2830 H 275.913 -2.78882 4.18609 0
M  V30 2831 H 275.613 -1.75717 5.60712 0
M  V30 2832 H 277.137 -2.68164 5.48562 0
M  V30 2833 H 278.551 -0.422069 5.71744 0
M  V30 2834 H 276.948 0.319776 5.99247 0
M  V30 2835 H 278.018 0.98858 4.74716 0
M  V30 2836 N 279.361 -1.56624 0.175154 0
M  V30 2837 C 280.324 -2.16934 -0.739738 0
M  V30 2838 C 281.324 -1.11842 -1.15533 0
M  V30 2839 O 282.514 -1.37335 -1.07167 0
M  V30 2840 C 279.646 -2.75531 -2.00738 0
M  V30 2841 H 280.839 -2.99131 -0.214639 0
M  V30 2842 H 278.392 -1.56123 -0.0744197 0
M  V30 2843 H 279.127 -1.97078 -2.57548 0
M  V30 2844 H 278.912 -3.52444 -1.71831 0
M  V30 2845 H 280.402 -3.21904 -2.66021 0
M  V30 2846 N 280.839 0.0985539 -1.57292 0
M  V30 2847 C 282.064 0.820196 -1.90493 0
M  V30 2848 C 282.489 1.71658 -0.769094 0
M  V30 2849 O 281.847 1.79133 0.279495 0
M  V30 2850 C 281.895 1.61242 -3.22542 0
M  V30 2851 O 280.999 2.72108 -3.09888 0
M  V30 2852 H 280.34 0.225547 -0.62452 0
M  V30 2853 H 282.87 0.0748159 -2.04463 0
M  V30 2854 H 282.88 1.99737 -3.55766 0
M  V30 2855 H 281.555 0.954535 -4.04798 0
M  V30 2856 H 280.132 2.36667 -2.88172 0
M  V30 2857 N 282.317 1.53212 0.369288 0
M  V30 2858 C 283.733 1.42902 0.710712 0
M  V30 2859 C 283.933 0.565135 1.93413 0
M  V30 2860 O 282.989 0.0461484 2.52458 0
M  V30 2861 C 284.302 2.86042 0.927382 0
M  V30 2862 C 285.85 2.9565 1.02762 0
M  V30 2863 C 286.325 4.39843 1.27679 0
M  V30 2864 N 287.816 4.43256 1.34457 0
M  V30 2865 C 288.551 5.51929 1.55439 0
M  V30 2866 N 288.047 6.70655 1.73762 0
M  V30 2867 N 289.84 5.39502 1.57779 0
M  V30 2868 H 281.991 2.07888 -0.435457 0
M  V30 2869 H 284.254 0.938661 -0.132739 0
M  V30 2870 H 283.96 3.51557 0.100287 0
M  V30 2871 H 283.834 3.29472 1.83653 0
M  V30 2872 H 286.221 2.30291 1.84527 0
M  V30 2873 H 286.302 2.5562 0.0959504 0
M  V30 2874 H 285.946 5.05774 0.464175 0
M  V30 2875 H 285.876 4.77443 2.22162 0
M  V30 2876 H 288.367 3.5769 1.21926 0
M  V30 2877 H 288.68 7.49248 1.89335 0
M  V30 2878 H 287.025 6.73648 1.70948 0
M  V30 2879 H 290.216 4.45713 1.43029 0
M  V30 2880 H 290.389 6.2426 1.7379 0
M  V30 2881 N 283.795 -0.628877 1.44509 0
M  V30 2882 C 285.02 -1.42048 1.5112 0
M  V30 2883 C 285.445 -1.87594 0.137818 0
M  V30 2884 O 284.803 -1.58873 -0.873437 0
M  V30 2885 C 284.851 -2.61541 2.48251 0
M  V30 2886 O 283.955 -3.61453 1.98559 0
M  V30 2887 H 283.296 -0.424942 0.510216 0
M  V30 2888 H 285.826 -0.767374 1.89664 0
M  V30 2889 H 285.836 -3.09057 2.66361 0
M  V30 2890 H 284.511 -2.27736 3.48007 0
M  V30 2891 H 283.088 -3.20731 1.90227 0
M  V30 2892 N 285.273 -1.31445 -0.869486 0
M  V30 2893 C 286.501 -1.24122 -1.65534 0
M  V30 2894 C 286.916 0.193387 -1.87807 0
M  V30 2895 O 286.273 1.12557 -1.43656 0
M  V30 2896 C 286.324 -1.98229 -3.02304 0
M  V30 2897 O 286.045 -3.3609 -2.81026 0
M  V30 2898 C 287.546 -1.97751 -3.96749 0
M  V30 2899 H 284.766 -0.428868 -0.516055 0
M  V30 2900 H 287.31 -1.73328 -1.08525 0
M  V30 2901 H 285.465 -1.52782 -3.56001 0
M  V30 2902 H 285.879 -3.7383 -3.67902 0
M  V30 2903 H 287.353 -2.54114 -4.90031 0
M  V30 2904 H 287.83 -0.960137 -4.28577 0
M  V30 2905 H 288.436 -2.43079 -3.48988 0
M  V30 2906 N 286.751 1.08385 -1.14413 0
M  V30 2907 C 287.997 1.81044 -0.913834 0
M  V30 2908 C 288.33 1.86004 0.558209 0
M  V30 2909 O 287.605 1.33606 1.4135 0
M  V30 2910 C 287.888 3.26648 -1.51569 0
M  V30 2911 C 287.741 3.29895 -3.0576 0
M  V30 2912 C 289.06 4.23629 -1.19273 0
M  V30 2913 H 286.179 0.65727 -0.333414 0
M  V30 2914 H 288.821 1.26896 -1.41412 0
M  V30 2915 H 286.971 3.72889 -1.09023 0
M  V30 2916 H 288.643 2.91977 -3.57137 0
M  V30 2917 H 286.886 2.69163 -3.40197 0
M  V30 2918 H 287.557 4.32516 -3.42977 0
M  V30 2919 H 290.033 3.85727 -1.56057 0
M  V30 2920 H 288.909 5.23822 -1.64017 0
M  V30 2921 H 289.17 4.41968 -0.108068 0
M  V30 2922 N 288.23 0.939286 1.26551 0
M  V30 2923 C 289.16 0.465044 2.28822 0
M  V30 2924 C 290.141 -0.480692 1.63167 0
M  V30 2925 O 291.326 -0.382955 1.90387 0
M  V30 2926 C 288.456 -0.27234 3.46231 0
M  V30 2927 C 287.41 0.58666 4.2396 0
M  V30 2928 C 286.736 -0.280573 5.33963 0
M  V30 2929 C 288.036 1.85704 4.88171 0
M  V30 2930 H 289.73 1.31979 2.68741 0
M  V30 2931 H 287.276 0.636061 1.29191 0
M  V30 2932 H 289.229 -0.615133 4.16886 0
M  V30 2933 H 287.953 -1.16121 3.0526 0
M  V30 2934 H 286.612 0.91232 3.55067 0
M  V30 2935 H 286.26 -1.16874 4.89234 0
M  V30 2936 H 285.96 0.29076 5.8688 0
M  V30 2937 H 287.484 -0.618678 6.07458 0
M  V30 2938 H 288.898 1.58161 5.51052 0
M  V30 2939 H 287.295 2.37279 5.51197 0
M  V30 2940 H 288.365 2.56957 4.11219 0
M  V30 2941 N 289.708 -1.40897 0.706093 0
M  V30 2942 C 290.641 -2.282 -0.00328781 0
M  V30 2943 C 291.619 -1.42816 -0.77732 0
M  V30 2944 O 292.803 -1.72237 -0.765944 0
M  V30 2945 C 289.93 -3.23226 -1.01205 0
M  V30 2946 C 288.976 -4.25222 -0.329955 0
M  V30 2947 S 289.809 -5.27269 0.935298 0
M  V30 2948 C 290.965 -6.25859 -0.0716061 0
M  V30 2949 H 291.198 -2.88016 0.737143 0
M  V30 2950 H 288.731 -1.46191 0.496756 0
M  V30 2951 H 290.689 -3.78503 -1.58888 0
M  V30 2952 H 289.35 -2.62485 -1.72513 0
M  V30 2953 H 288.543 -4.92023 -1.09221 0
M  V30 2954 H 288.145 -3.73595 0.174069 0
M  V30 2955 H 290.437 -6.71204 -0.921521 0
M  V30 2956 H 291.38 -7.0586 0.562765 0
M  V30 2957 H 291.788 -5.62852 -0.431088 0
M  V30 2958 N 291.186 -0.45159 -1.50991 0
M  V30 2959 C 292.463 0.170707 -1.94854 0
M  V30 2960 C 292.843 1.58788 -1.39103 0
M  V30 2961 O 292.191 2.20913 -0.583921 0
M  V30 2962 C 292.401 0.133929 -3.48743 0
M  V30 2963 C 293.749 0.33248 -4.23296 0
M  V30 2964 O 294.773 0.211403 -3.55572 0
M  V30 2965 O 293.632 0.57486 -5.43468 0
M  V30 2966 H 290.726 0.122264 -0.817912 0
M  V30 2967 H 293.272 -0.510594 -1.61836 0
M  V30 2968 H 292.044 -0.856283 -3.81816 0
M  V30 2969 H 291.667 0.857529 -3.88242 0
M  V30 2970 N 292.664 1.56529 -0.183458 0
M  V30 2971 C 293.912 1.96855 0.457452 0
M  V30 2972 C 294.233 1.07104 1.62953 0
M  V30 2973 O 293.503 0.139887 1.954 0
M  V30 2974 H 292.083 0.72693 0.171992 0
M  V30 2975 H 294.745 1.93056 -0.267476 0
M  V30 2976 H 293.841 3.01423 0.809368 0
M  V30 2977 N 294.142 -0.090211 1.57342 0
M  V30 2978 C 295.391 -0.791531 1.8552 0
M  V30 2979 C 295.704 -1.79659 0.773441 0
M  V30 2980 O 296.91 -2.54616 0.942497 0
M  V30 2981 C 295.366 -1.45856 3.2902 0
M  V30 2982 C 294.974 -0.493017 4.45279 0
M  V30 2983 C 296.718 -2.14332 3.66418 0
M  V30 2984 C 294.625 -1.16491 5.79814 0
M  V30 2985 H 293.555 -0.299356 0.692027 0
M  V30 2986 H 296.206 -0.0445343 1.83446 0
M  V30 2987 H 294.588 -2.25318 3.2565 0
M  V30 2988 H 295.762 0.270464 4.60006 0
M  V30 2989 H 294.077 0.0863061 4.16311 0
M  V30 2990 H 296.674 -2.65344 4.64216 0
M  V30 2991 H 297.017 -2.93447 2.95287 0
M  V30 2992 H 297.55 -1.41724 3.71698 0
M  V30 2993 H 294.289 -0.41447 6.54188 0
M  V30 2994 H 293.809 -1.8997 5.68921 0
M  V30 2995 H 295.488 -1.69001 6.24538 0
M  V30 2996 N 295.62 -1.53406 -0.361157 0
M  V30 2997 C 297.031 -1.61442 -0.937728 0
M  V30 2998 C 297.382 -0.48461 -1.90121 0
M  V30 2999 O 296.507 0.388312 -2.12888 0
M  V30 3000 C 297.102 -2.92624 -1.70753 0
M  V30 3001 C 295.661 -3.02981 -2.23337 0
M  V30 3002 C 294.808 -2.5677 -1.04712 0
M  V30 3003 H 297.759 -1.58083 -0.139816 0
M  V30 3004 H 297.78 -2.80675 -2.56908 0
M  V30 3005 H 297.292 -3.74834 -1.00604 0
M  V30 3006 H 295.393 -2.25368 -2.96715 0
M  V30 3007 H 295.506 -4.0814 -2.50916 0
M  V30 3008 H 293.87 -2.11752 -1.41539 0
M  V30 3009 H 294.653 -3.41402 -0.360539 0
M  V30 3010 N 297.098 0.621204 -1.44841 0
M  V30 3011 C 298.344 1.3826 -1.48365 0
M  V30 3012 C 298.677 1.93831 -0.119624 0
M  V30 3013 O 297.952 1.74251 0.864111 0
M  V30 3014 C 298.235 2.54058 -2.55199 0
M  V30 3015 C 298.088 2.03772 -4.00995 0
M  V30 3016 C 299.407 3.56225 -2.58442 0
M  V30 3017 H 296.526 0.501374 -0.540179 0
M  V30 3018 H 299.168 0.7015 -1.76576 0
M  V30 3019 H 297.318 3.12162 -2.31274 0
M  V30 3020 H 298.99 1.50423 -4.36086 0
M  V30 3021 H 297.233 1.34876 -4.12299 0
M  V30 3022 H 297.904 2.87185 -4.71411 0
M  V30 3023 H 300.38 3.07939 -2.79844 0
M  V30 3024 H 299.256 4.34756 -3.3508 0
M  V30 3025 H 299.517 4.10949 -1.63013 0
M  V30 3026 N 298.576 1.31904 0.862503 0
M  V30 3027 C 299.987 1.19803 1.43193 0
M  V30 3028 C 300.338 -0.192567 1.95253 0
M  V30 3029 O 299.463 -1.09081 1.86896 0
M  V30 3030 C 300.058 2.16883 2.60283 0
M  V30 3031 C 298.617 2.08692 3.13248 0
M  V30 3032 C 297.764 2.05691 1.85975 0
M  V30 3033 H 300.715 1.43846 0.670365 0
M  V30 3034 H 300.736 1.76278 3.37204 0
M  V30 3035 H 300.248 3.18083 2.22363 0
M  V30 3036 H 298.349 1.10713 3.55771 0
M  V30 3037 H 298.462 2.9815 3.75025 0
M  V30 3038 H 296.826 1.50814 2.05249 0
M  V30 3039 H 297.609 3.08659 1.50282 0
M  V30 3040 N 300.054 -1.07777 1.14986 0
M  V30 3041 C 301.301 -1.8029 0.922056 0
M  V30 3042 C 301.629 -1.86531 -0.55105 0
M  V30 3043 O 300.884 -1.34189 -1.42449 0
M  V30 3044 C 301.183 -3.25495 1.47608 0
M  V30 3045 C 300.849 -3.39361 2.96893 0
M  V30 3046 C 299.511 -3.42852 3.37647 0
M  V30 3047 C 301.863 -3.42512 3.92854 0
M  V30 3048 C 299.191 -3.47094 4.73015 0
M  V30 3049 C 301.543 -3.4829 5.28088 0
M  V30 3050 C 300.207 -3.50058 5.68345 0
M  V30 3051 H 299.477 -0.659727 0.337404 0
M  V30 3052 H 302.124 -1.26854 1.43459 0
M  V30 3053 H 300.429 -3.81683 0.88463 0
M  V30 3054 H 302.126 -3.80168 1.27568 0
M  V30 3055 H 298.716 -3.37339 2.64387 0
M  V30 3056 H 302.9 -3.3904 3.62444 0
M  V30 3057 H 298.156 -3.46758 5.03556 0
M  V30 3058 H 302.33 -3.49675 6.02246 0
M  V30 3059 H 299.957 -3.53097 6.73221 0
M  V30 3060 N 301.532 -0.945985 -1.26051 0
M  V30 3061 C 302.495 -0.463897 -2.24456 0
M  V30 3062 C 303.495 0.427655 -1.55009 0
M  V30 3063 O 304.685 0.226157 -1.72726 0
M  V30 3064 C 301.817 0.330812 -3.39291 0
M  V30 3065 H 303.01 -1.33357 -2.68619 0
M  V30 3066 H 300.563 -0.728416 -1.38289 0
M  V30 3067 H 301.298 1.21852 -3.00537 0
M  V30 3068 H 301.083 -0.308679 -3.90883 0
M  V30 3069 H 302.573 0.657865 -4.12386 0
M  V30 3070 N 303.011 1.40521 -0.713556 0
M  V30 3071 C 304.422 1.83853 -0.324807 0
M  V30 3072 C 304.773 1.59667 1.14021 0
M  V30 3073 O 303.898 1.07649 1.87725 0
M  V30 3074 C 304.493 3.33751 -0.582746 0
M  V30 3075 C 303.052 3.75584 -0.247727 0
M  V30 3076 C 302.199 2.63753 -0.856121 0
M  V30 3077 H 305.15 1.29817 -0.91286 0
M  V30 3078 H 305.171 3.80194 0.152682 0
M  V30 3079 H 304.683 3.51322 -1.64908 0
M  V30 3080 H 302.784 3.63608 0.813624 0
M  V30 3081 H 302.897 4.7373 -0.715307 0
M  V30 3082 H 301.261 2.53108 -0.28432 0
M  V30 3083 H 302.044 2.84137 -1.92668 0
M  V30 3084 N 304.489 0.459591 1.5075 0
M  V30 3085 C 305.719 -0.0972338 2.06371 0
M  V30 3086 C 306.127 -1.35074 1.32483 0
M  V30 3087 O 305.47 -1.79637 0.384226 0
M  V30 3088 C 305.532 -0.462759 3.56509 0
M  V30 3089 C 305.196 0.687084 4.51805 0
M  V30 3090 C 306.193 1.56578 4.95761 0
M  V30 3091 C 303.878 0.874144 4.94635 0
M  V30 3092 C 305.872 2.61604 5.81242 0
M  V30 3093 C 303.559 1.92765 5.79901 0
M  V30 3094 C 304.557 2.79697 6.23104 0
M  V30 3095 O 304.245 3.83235 7.06673 0
M  V30 3096 H 303.977 -0.00140687 0.675999 0
M  V30 3097 H 306.531 0.644011 1.95043 0
M  V30 3098 H 304.761 -1.25703 3.65699 0
M  V30 3099 H 306.45 -0.953323 3.94546 0
M  V30 3100 H 307.216 1.4329 4.6335 0
M  V30 3101 H 303.095 0.207006 4.60535 0
M  V30 3102 H 306.639 3.29489 6.14884 0
M  V30 3103 H 302.536 2.06064 6.11725 0
M  V30 3104 H 303.304 3.80084 7.24899 0
M  V30 3105 N 305.967 -1.56429 0.191757 0
M  V30 3106 C 307.215 -1.97095 -0.447006 0
M  V30 3107 C 307.536 -1.07967 -1.62383 0
M  V30 3108 O 306.806 -0.150248 -1.95323 0
M  V30 3109 H 305.386 -0.727832 -0.168135 0
M  V30 3110 H 308.048 -1.92911 0.27771 0
M  V30 3111 H 307.144 -3.01848 -0.793371 0
M  V30 3112 N 307.445 0.0818655 -1.57387 0
M  V30 3113 C 308.377 1.12484 -1.997 0
M  V30 3114 C 309.39 1.35564 -0.90146 0
M  V30 3115 O 310.579 1.33982 -1.17945 0
M  V30 3116 C 307.679 2.47778 -2.31213 0
M  V30 3117 C 306.852 2.44793 -3.62485 0
M  V30 3118 C 305.911 3.62117 -3.81782 0
M  V30 3119 O 304.937 3.44005 -4.53486 0
M  V30 3120 N 306.139 4.82094 -3.23367 0
M  V30 3121 H 308.904 0.764585 -2.89783 0
M  V30 3122 H 306.465 0.270664 -1.59621 0
M  V30 3123 H 308.457 3.24891 -2.41304 0
M  V30 3124 H 307.027 2.75843 -1.4707 0
M  V30 3125 H 306.247 1.53134 -3.6324 0
M  V30 3126 H 307.535 2.39889 -4.48699 0
M  V30 3127 H 306.933 4.99713 -2.65148 0
M  V30 3128 H 305.49 5.56753 -3.38923 0
M  V30 3129 N 308.923 1.53595 0.353017 0
M  V30 3130 C 310.334 1.61937 0.929153 0
M  V30 3131 C 310.685 0.494686 1.89861 0
M  V30 3132 O 309.81 -0.377017 2.1309 0
M  V30 3133 C 310.405 2.93526 1.69199 0
M  V30 3134 C 308.964 3.04161 2.21727 0
M  V30 3135 C 308.111 2.57322 1.03348 0
M  V30 3136 H 311.062 1.58155 0.131431 0
M  V30 3137 H 311.083 2.82034 2.55416 0
M  V30 3138 H 310.595 3.75362 0.986144 0
M  V30 3139 H 308.696 2.26938 2.95516 0
M  V30 3140 H 308.809 4.09465 2.48748 0
M  V30 3141 H 307.173 2.12499 1.40414 0
M  V30 3142 H 307.956 3.41588 0.342428 0
M  V30 3143 N 310.401 -0.613514 1.45168 0
M  V30 3144 C 311.333 -1.73825 1.4939 0
M  V30 3145 C 312.346 -1.58175 0.385304 0
M  V30 3146 O 313.535 -1.66165 0.652036 0
M  V30 3147 C 310.635 -3.11758 1.32891 0
M  V30 3148 C 309.808 -3.53704 2.57317 0
M  V30 3149 C 308.867 -4.70579 2.35462 0
M  V30 3150 O 307.893 -4.77996 3.09044 0
M  V30 3151 N 309.095 -5.63454 1.39644 0
M  V30 3152 H 311.86 -1.70669 2.46358 0
M  V30 3153 H 309.421 -0.79862 1.40832 0
M  V30 3154 H 311.413 -3.87692 1.1609 0
M  V30 3155 H 309.983 -3.09456 0.442218 0
M  V30 3156 H 309.203 -2.67794 2.89275 0
M  V30 3157 H 310.491 -3.78486 3.40038 0
M  V30 3158 H 309.889 -5.6017 0.789062 0
M  V30 3159 H 308.446 -6.38944 1.28816 0
M  V30 3160 N 311.879 -1.3236 -0.855495 0
M  V30 3161 C 312.809 -1.23833 -1.97958 0
M  V30 3162 C 313.79 -0.122361 -1.69659 0
M  V30 3163 O 314.975 -0.30939 -1.9172 0
M  V30 3164 C 312.105 -0.959772 -3.33775 0
M  V30 3165 C 311.059 -2.03689 -3.76424 0
M  V30 3166 C 310.385 -1.61075 -5.09862 0
M  V30 3167 C 311.685 -3.4518 -3.9198 0
M  V30 3168 H 313.379 -2.1788 -2.0535 0
M  V30 3169 H 310.925 -1.04891 -0.986605 0
M  V30 3170 H 312.878 -0.886678 -4.11966 0
M  V30 3171 H 311.602 0.0163404 -3.26596 0
M  V30 3172 H 310.261 -2.10012 -3.00484 0
M  V30 3173 H 309.909 -0.622107 -4.99138 0
M  V30 3174 H 309.609 -2.33143 -5.39368 0
M  V30 3175 H 311.133 -1.55201 -5.90546 0
M  V30 3176 H 312.547 -3.4145 -4.60526 0
M  V30 3177 H 310.944 -4.1559 -4.32903 0
M  V30 3178 H 312.014 -3.84903 -2.94919 0
M  V30 3179 N 313.357 1.07166 -1.15556 0
M  V30 3180 C 314.582 1.84053 -0.955988 0
M  V30 3181 C 315.007 1.81586 0.490739 0
M  V30 3182 O 314.365 1.21018 1.34997 0
M  V30 3183 C 314.413 3.28957 -1.47714 0
M  V30 3184 O 313.517 4.06795 -0.677593 0
M  V30 3185 H 312.858 0.569842 -0.340847 0
M  V30 3186 H 315.388 1.35178 -1.53584 0
M  V30 3187 H 315.398 3.79788 -1.4908 0
M  V30 3188 H 314.073 3.30068 -2.53037 0
M  V30 3189 H 312.65 3.6561 -0.733721 0
M  V30 3190 N 314.835 0.952656 1.25548 0
M  V30 3191 C 315.765 0.489287 2.28316 0
M  V30 3192 C 316.746 -0.463359 1.63667 0
M  V30 3193 O 317.931 -0.36274 1.90782 0
M  V30 3194 C 315.061 -0.235603 3.465 0
M  V30 3195 C 314.015 0.631593 4.23314 0
M  V30 3196 C 313.341 -0.223923 5.34231 0
M  V30 3197 C 314.641 1.90871 4.86174 0
M  V30 3198 H 316.335 1.34822 2.67326 0
M  V30 3199 H 313.881 0.649728 1.28509 0
M  V30 3200 H 315.834 -0.570882 4.17515 0
M  V30 3201 H 314.558 -1.12877 3.06474 0
M  V30 3202 H 313.217 0.949929 3.54079 0
M  V30 3203 H 312.865 -1.11678 4.90446 0
M  V30 3204 H 312.565 0.35299 5.86539 0
M  V30 3205 H 314.089 -0.554214 6.0808 0
M  V30 3206 H 315.503 1.63997 5.49343 0
M  V30 3207 H 313.9 2.43112 5.4865 0
M  V30 3208 H 314.97 2.61304 4.08471 0
M  V30 3209 N 316.313 -1.40141 0.720998 0
M  V30 3210 C 317.276 -2.29058 0.0805834 0
M  V30 3211 C 318.276 -1.45632 -0.681758 0
M  V30 3212 O 319.466 -1.6648 -0.512856 0
M  V30 3213 C 316.598 -3.28925 -0.895593 0
M  V30 3214 H 317.791 -2.87191 0.863793 0
M  V30 3215 H 315.344 -1.48553 0.485975 0
M  V30 3216 H 316.079 -2.75822 -1.70566 0
M  V30 3217 H 315.864 -3.90519 -0.351766 0
M  V30 3218 H 317.354 -3.95494 -1.34069 0
M  V30 3219 N 317.792 -0.46758 -1.50504 0
M  V30 3220 C 319.203 -0.0116166 -1.86696 0
M  V30 3221 C 319.554 1.39202 -1.38265 0
M  V30 3222 O 318.679 2.0313 -0.746132 0
M  V30 3223 C 319.274 -0.0143044 -3.38797 0
M  V30 3224 C 317.833 0.386175 -3.74414 0
M  V30 3225 C 316.98 -0.401287 -2.74381 0
M  V30 3226 H 319.931 -0.682022 -1.43297 0
M  V30 3227 H 319.952 0.788641 -3.72237 0
M  V30 3228 H 319.464 -1.03602 -3.74016 0
M  V30 3229 H 317.565 1.41237 -3.44794 0
M  V30 3230 H 317.678 0.0899596 -4.79016 0
M  V30 3231 H 316.042 0.144536 -2.5429 0
M  V30 3232 H 316.825 -1.42244 -3.12444 0
M  V30 3233 N 319.27 1.56325 -0.20005 0
M  V30 3234 C 320.516 1.98012 0.438059 0
M  V30 3235 C 320.849 1.08702 1.60927 0
M  V30 3236 O 320.124 0.140064 1.93995 0
M  V30 3237 C 320.407 3.48841 0.893419 0
M  V30 3238 C 320.26 4.48928 -0.279947 0
M  V30 3239 C 321.579 4.03498 1.75719 0
M  V30 3240 H 318.698 0.719918 0.157757 0
M  V30 3241 H 321.34 1.87743 -0.291968 0
M  V30 3242 H 319.49 3.57723 1.51547 0
M  V30 3243 H 321.162 4.52079 -0.91772 0
M  V30 3244 H 319.405 4.23694 -0.930919 0
M  V30 3245 H 320.076 5.5194 0.0812601 0
M  V30 3246 H 322.552 3.97427 1.23253 0
M  V30 3247 H 321.428 5.09393 2.04476 0
M  V30 3248 H 321.689 3.4906 2.71311 0
M  V30 3249 N 320.748 -0.0735177 1.57428 0
M  V30 3250 C 321.973 -0.789787 1.91774 0
M  V30 3251 C 322.398 -1.70413 0.796306 0
M  V30 3252 O 321.756 -1.79555 -0.250961 0
M  V30 3253 C 321.804 -1.5609 3.25067 0
M  V30 3254 O 320.908 -2.67144 3.14178 0
M  V30 3255 H 320.249 -0.215582 0.628029 0
M  V30 3256 H 322.779 -0.0422781 2.04556 0
M  V30 3257 H 322.789 -1.94052 3.58898 0
M  V30 3258 H 321.464 -0.890015 4.06265 0
M  V30 3259 H 320.041 -2.32052 2.91901 0
M  V30 3260 N 322.226 -1.5378 -0.344866 0
M  V30 3261 C 323.156 -1.84662 -1.42906 0
M  V30 3262 C 324.137 -0.701648 -1.54955 0
M  V30 3263 O 325.322 -0.953438 -1.69184 0
M  V30 3264 C 322.452 -2.05503 -2.79974 0
M  V30 3265 C 321.406 -3.21318 -2.82734 0
M  V30 3266 C 320.732 -3.2749 -4.22675 0
M  V30 3267 C 322.032 -4.59456 -2.48389 0
M  V30 3268 H 323.726 -2.75461 -1.17311 0
M  V30 3269 H 321.272 -1.32542 -0.562896 0
M  V30 3270 H 323.225 -2.25691 -3.55867 0
M  V30 3271 H 321.949 -1.11434 -3.07002 0
M  V30 3272 H 320.608 -3.00984 -2.09294 0
M  V30 3273 H 320.256 -2.31019 -4.4681 0
M  V30 3274 H 319.956 -4.05316 -4.25433 0
M  V30 3275 H 321.48 -3.49887 -5.00412 0
M  V30 3276 H 322.894 -4.79667 -3.13995 0
M  V30 3277 H 321.291 -5.39675 -2.62432 0
M  V30 3278 H 322.361 -4.63155 -1.4358 0
M  V30 3279 N 323.704 0.605807 -1.45491 0
M  V30 3280 C 324.952 1.36207 -1.49305 0
M  V30 3281 C 325.273 1.94519 -0.136863 0
M  V30 3282 O 324.543 1.77261 0.833983 0
M  V30 3283 H 323.123 0.50565 -0.549843 0
M  V30 3284 H 325.785 0.711239 -1.81459 0
M  V30 3285 H 324.881 2.18058 -2.23287 0
M  V30 3286 N 325.182 1.32811 0.848464 0
M  V30 3287 C 326.13 1.22231 1.97895 0
M  V30 3288 C 327.124 0.125749 1.68933 0
M  V30 3289 O 328.33 0.289083 1.77663 0
M  V30 3290 H 324.705 0.379058 0.649476 0
M  V30 3291 H 326.676 2.17828 2.03945 0
M  V30 3292 C 325.425 0.968572 3.33937 0
M  V30 3293 H 324.748 1.80458 3.56756 0
M  V30 3294 H 326.188 0.934808 4.13567 0
M  V30 3295 C 324.647 -0.328628 3.35293 0
M  V30 3296 O 325.177 -1.33848 3.78745 0
M  V30 3297 N 323.383 -0.352788 2.88451 0
M  V30 3298 H 322.93 0.469541 2.53285 0
M  V30 3299 H 322.888 -1.22057 2.89741 0
M  V30 3300 N 326.66 -1.06551 1.16123 0
M  V30 3301 C 327.593 -2.13382 0.80892 0
M  V30 3302 C 328.571 -1.61128 -0.21827 0
M  V30 3303 O 329.755 -1.88219 -0.102952 0
M  V30 3304 C 326.882 -3.38083 0.204303 0
M  V30 3305 C 325.928 -4.09133 1.20469 0
M  V30 3306 S 326.761 -4.5948 2.75024 0
M  V30 3307 C 327.917 -5.87446 2.16005 0
M  V30 3308 H 328.15 -2.42937 1.71373 0
M  V30 3309 H 325.683 -1.18947 0.984428 0
M  V30 3310 H 327.641 -4.10268 -0.138081 0
M  V30 3311 H 326.302 -3.0669 -0.678234 0
M  V30 3312 H 325.495 -4.98685 0.730019 0
M  V30 3313 H 325.097 -3.4295 1.49202 0
M  V30 3314 H 327.389 -6.60065 1.5271 0
M  V30 3315 H 328.332 -6.39639 3.03756 0
M  V30 3316 H 328.74 -5.41354 1.59989 0
M  V30 3317 N 328.138 -0.959301 -1.25041 0
M  V30 3318 C 329.415 -0.533805 -1.88175 0
M  V30 3319 C 329.795 0.988994 -1.865 0
M  V30 3320 O 329.143 1.85677 -1.33177 0
M  V30 3321 C 329.353 -1.11575 -3.30684 0
M  V30 3322 C 330.701 -1.19548 -4.07423 0
M  V30 3323 O 331.725 -1.06765 -3.39823 0
M  V30 3324 O 330.584 -1.39656 -5.28354 0
M  V30 3325 H 327.678 -0.176772 -0.807887 0
M  V30 3326 H 330.224 -1.05303 -1.33076 0
M  V30 3327 H 328.996 -2.15884 -3.26358 0
M  V30 3328 H 328.619 -0.580059 -3.93346 0
M  V30 3329 N 329.616 1.39756 -0.72842 0
M  V30 3330 C 330.579 2.29012 -0.0927297 0
M  V30 3331 C 331.579 1.45992 0.674025 0
M  V30 3332 O 332.769 1.66749 0.50402 0
M  V30 3333 C 329.901 3.29396 0.878137 0
M  V30 3334 H 331.094 2.86729 -0.879011 0
M  V30 3335 H 328.647 1.48293 -0.493847 0
M  V30 3336 H 329.382 2.76722 1.69101 0
M  V30 3337 H 329.167 3.907 0.331051 0
M  V30 3338 H 330.657 3.96199 1.3197 0
M  V30 3339 N 331.094 0.475555 1.50254 0
M  V30 3340 C 332.343 -0.0795996 2.01543 0
M  V30 3341 C 332.656 -1.4038 1.36209 0
M  V30 3342 O 333.862 -2.04415 1.7868 0
M  V30 3343 C 332.318 -0.192363 3.59386 0
M  V30 3344 C 331.926 1.12367 4.33679 0
M  V30 3345 C 333.67 -0.699238 4.18701 0
M  V30 3346 C 331.577 0.974453 5.83317 0
M  V30 3347 H 330.507 -0.0335228 0.753254 0
M  V30 3348 H 333.158 0.611128 1.73025 0
M  V30 3349 H 331.54 -0.946974 3.84511 0
M  V30 3350 H 332.714 1.88958 4.20276 0
M  V30 3351 H 331.029 1.562 3.85993 0
M  V30 3352 H 333.626 -0.827978 5.28251 0
M  V30 3353 H 333.969 -1.69171 3.80377 0
M  V30 3354 H 334.502 -0.00188807 3.978 0
M  V30 3355 H 331.241 1.94042 6.26121 0
M  V30 3356 H 330.761 0.248998 5.99283 0
M  V30 3357 H 332.44 0.642867 6.43798 0
M  V30 3358 N 332.573 -1.56217 0.208337 0
M  V30 3359 C 333.85 -1.89739 -0.475234 0
M  V30 3360 C 334.23 -1.1238 -1.78701 0
M  V30 3361 O 333.578 -0.228979 -2.2735 0
M  V30 3362 C 333.788 -3.42289 -0.681101 0
M  V30 3363 C 335.136 -4.12789 -0.994507 0
M  V30 3364 O 336.16 -3.47814 -0.768357 0
M  V30 3365 O 335.019 -5.27649 -1.42299 0
M  V30 3366 H 332.113 -0.788478 -0.249461 0
M  V30 3367 H 334.659 -1.67855 0.249538 0
M  V30 3368 H 333.431 -3.90534 0.244722 0
M  V30 3369 H 333.054 -3.69909 -1.45785 0
M  V30 3370 N 334.051 0.0651679 -1.57465 0
M  V30 3371 C 335.297 0.764193 -1.87851 0
M  V30 3372 C 335.63 1.76889 -0.801495 0
M  V30 3373 O 334.905 1.93594 0.187528 0
M  V30 3374 C 335.188 1.46625 -3.28897 0
M  V30 3375 C 335.041 0.477515 -4.47258 0
M  V30 3376 C 336.36 2.4095 -3.68281 0
M  V30 3377 H 333.479 0.276351 -0.683227 0
M  V30 3378 H 336.121 0.0272868 -1.8998 0
M  V30 3379 H 334.271 2.09438 -3.27212 0
M  V30 3380 H 335.943 -0.145922 -4.61069 0
M  V30 3381 H 334.186 -0.206576 -4.33308 0
M  V30 3382 H 334.857 1.0065 -5.42746 0
M  V30 3383 H 337.333 1.88209 -3.71102 0
M  V30 3384 H 336.209 2.87072 -4.67847 0
M  V30 3385 H 336.47 3.26049 -2.98571 0
M  V30 3386 N 335.529 1.53961 0.336706 0
M  V30 3387 C 336.775 1.7179 1.07777 0
M  V30 3388 C 337.108 0.483263 1.88091 0
M  V30 3389 O 336.383 -0.519747 1.87427 0
M  V30 3390 C 336.666 2.98558 2.01334 0
M  V30 3391 C 336.519 4.32245 1.24437 0
M  V30 3392 C 337.838 3.21023 3.01052 0
M  V30 3393 H 334.957 0.625089 0.390426 0
M  V30 3394 H 337.599 1.86641 0.35567 0
M  V30 3395 H 335.749 2.86028 2.62908 0
M  V30 3396 H 337.421 4.56637 0.654243 0
M  V30 3397 H 335.664 4.30344 0.546458 0
M  V30 3398 H 336.335 5.17137 1.93063 0
M  V30 3399 H 338.811 3.32929 2.49595 0
M  V30 3400 H 337.687 4.11104 3.6371 0
M  V30 3401 H 337.948 2.37637 3.72802 0
M  V30 3402 N 337.007 -0.598083 1.45811 0
M  V30 3403 C 338.423 -0.919847 1.30426 0
M  V30 3404 C 338.623 -1.99759 0.264303 0
M  V30 3405 O 337.679 -2.50221 -0.338472 0
M  V30 3406 C 338.992 -1.35176 2.68603 0
M  V30 3407 C 340.54 -1.46546 2.76574 0
M  V30 3408 C 341.015 -1.9311 4.15298 0
M  V30 3409 N 342.506 -2.00328 4.1764 0
M  V30 3410 C 343.241 -2.37599 5.21856 0
M  V30 3411 N 342.737 -2.73771 6.36413 0
M  V30 3412 N 344.53 -2.38021 5.09218 0
M  V30 3413 H 336.681 0.114111 2.12093 0
M  V30 3414 H 338.944 -0.0116121 0.947929 0
M  V30 3415 H 338.65 -0.633969 3.45939 0
M  V30 3416 H 338.524 -2.3164 2.97696 0
M  V30 3417 H 340.911 -2.17415 1.99537 0
M  V30 3418 H 340.992 -0.483727 2.51185 0
M  V30 3419 H 340.636 -1.22824 4.92825 0
M  V30 3420 H 340.566 -2.92213 4.38086 0
M  V30 3421 H 343.057 -1.74925 3.34977 0
M  V30 3422 H 343.37 -3.0112 7.11721 0
M  V30 3423 H 341.715 -2.71445 6.39799 0
M  V30 3424 H 344.906 -2.09174 4.18765 0
M  V30 3425 H 345.079 -2.66741 5.90554 0
M  V30 3426 N 338.485 -1.33259 -0.841409 0
M  V30 3427 C 339.733 -1.24326 -1.59334 0
M  V30 3428 C 340.054 0.191564 -1.94057 0
M  V30 3429 O 339.324 1.11967 -1.60749 0
M  V30 3430 H 337.904 -0.457174 -0.590763 0
M  V30 3431 H 340.566 -1.66947 -1.00571 0
M  V30 3432 H 339.662 -1.8352 -2.52442 0
M  V30 3433 N 339.963 1.05934 -1.16686 0
M  V30 3434 C 341.211 1.78447 -0.948744 0
M  V30 3435 C 341.532 1.87813 0.524523 0
M  V30 3436 O 340.802 1.38945 1.38098 0
M  V30 3437 H 339.382 0.660971 -0.348033 0
M  V30 3438 H 342.044 1.27947 -1.47022 0
M  V30 3439 H 341.14 2.80394 -1.37061 0
M  V30 3440 N 341.441 0.965919 1.2453 0
M  V30 3441 C 342.689 0.625593 1.92174 0
M  V30 3442 C 343.01 -0.841652 1.75901 0
M  V30 3443 O 342.28 -1.60061 1.12948 0
M  V30 3444 H 340.86 0.228388 0.71123 0
M  V30 3445 H 343.522 1.2266 1.51461 0
M  V30 3446 H 342.618 0.864653 2.99884 0
M  V30 3447 N 342.919 -1.39368 0.735821 0
M  V30 3448 C 343.882 -2.2896 0.104874 0
M  V30 3449 C 344.882 -1.46347 -0.666274 0
M  V30 3450 O 346.072 -1.67014 -0.49517 0
M  V30 3451 C 343.204 -3.29857 -0.860656 0
M  V30 3452 H 344.397 -2.86259 0.894205 0
M  V30 3453 H 341.95 -1.48029 0.501704 0
M  V30 3454 H 342.685 -2.77615 -1.67631 0
M  V30 3455 H 342.47 -3.9087 -0.310327 0
M  V30 3456 H 343.96 -3.96893 -1.29867 0
M  V30 3457 N 344.397 -0.483516 -1.5 0
M  V30 3458 C 345.643 0.0672592 -2.02688 0
M  V30 3459 C 345.976 1.38247 -1.36387 0
M  V30 3460 O 345.251 1.88131 -0.493675 0
M  V30 3461 C 345.534 0.238109 -3.59312 0
M  V30 3462 C 345.387 -1.099 -4.36168 0
M  V30 3463 C 346.706 0.986916 -4.28892 0
M  V30 3464 H 343.825 0.0229696 -0.736642 0
M  V30 3465 H 346.467 -0.631527 -1.79197 0
M  V30 3466 H 344.617 0.8333 -3.79458 0
M  V30 3467 H 346.289 -1.73172 -4.27562 0
M  V30 3468 H 344.532 -1.69261 -3.99416 0
M  V30 3469 H 345.203 -0.932954 -5.44059 0
M  V30 3470 H 347.679 0.482302 -4.13295 0
M  V30 3471 H 346.555 1.07527 -5.38265 0
M  V30 3472 H 346.816 2.0265 -3.92919 0
M  V30 3473 N 345.875 1.56104 -0.216619 0
M  V30 3474 C 347.291 1.58995 0.13886 0
M  V30 3475 C 347.491 1.23333 1.59346 0
M  V30 3476 O 346.547 0.966234 2.33281 0
M  V30 3477 C 347.86 3.00143 -0.182968 0
M  V30 3478 C 349.408 3.12751 -0.124807 0
M  V30 3479 C 349.883 4.56068 -0.420241 0
M  V30 3480 N 351.374 4.61723 -0.369634 0
M  V30 3481 C 352.109 5.70542 -0.571789 0
M  V30 3482 N 351.605 6.87744 -0.835453 0
M  V30 3483 N 353.398 5.59831 -0.504563 0
M  V30 3484 H 345.549 1.77562 -1.16557 0
M  V30 3485 H 347.812 0.825091 -0.466828 0
M  V30 3486 H 347.518 3.30871 -1.19237 0
M  V30 3487 H 347.392 3.73813 0.504367 0
M  V30 3488 H 349.779 2.81822 0.875223 0
M  V30 3489 H 349.86 2.41421 -0.845544 0
M  V30 3490 H 349.504 4.87713 -1.41769 0
M  V30 3491 H 349.434 5.25617 0.321631 0
M  V30 3492 H 351.925 3.77502 -0.173338 0
M  V30 3493 H 352.238 7.66587 -0.977938 0
M  V30 3494 H 350.583 6.895 -0.872592 0
M  V30 3495 H 353.774 4.67145 -0.298842 0
M  V30 3496 H 353.947 6.44573 -0.665519 0
M  V30 3497 N 347.353 -0.0568162 1.57498 0
M  V30 3498 C 348.583 -0.764515 1.91934 0
M  V30 3499 C 348.991 -1.70877 0.81227 0
M  V30 3500 O 348.334 -1.82351 -0.222213 0
M  V30 3501 C 348.396 -1.5994 3.21962 0
M  V30 3502 C 348.06 -0.822925 4.4953 0
M  V30 3503 C 349.057 -0.135464 5.19723 0
M  V30 3504 C 346.742 -0.785666 4.96117 0
M  V30 3505 C 348.736 0.578861 6.34766 0
M  V30 3506 C 346.423 -0.0675784 6.11063 0
M  V30 3507 C 347.421 0.613471 6.80239 0
M  V30 3508 O 347.109 1.31996 7.92989 0
M  V30 3509 H 346.841 -0.221647 0.63863 0
M  V30 3510 H 349.395 -0.0268218 2.05382 0
M  V30 3511 H 347.625 -2.38026 3.04763 0
M  V30 3512 H 349.314 -2.18715 3.41934 0
M  V30 3513 H 350.08 -0.155458 4.84751 0
M  V30 3514 H 345.959 -1.30524 4.42136 0
M  V30 3515 H 349.503 1.111 6.88696 0
M  V30 3516 H 345.4 -0.0455636 6.45484 0
M  V30 3517 H 346.168 1.23077 8.09194 0
M  V30 3518 N 348.832 -1.54138 -0.328536 0
M  V30 3519 C 350.08 -1.71765 -1.06496 0
M  V30 3520 C 350.401 -0.49149 -1.88704 0
M  V30 3521 O 349.671 0.494539 -1.89555 0
M  V30 3522 H 348.251 -0.633295 -0.396164 0
M  V30 3523 H 350.913 -1.91429 -0.366176 0
M  V30 3524 H 350.009 -2.5951 -1.73381 0
M  V30 3525 N 350.31 0.590341 -1.46126 0
M  V30 3526 C 351.721 1.17243 -1.45296 0
M  V30 3527 C 352.072 1.95281 -0.189723 0
M  V30 3528 O 351.197 2.04502 0.707674 0
M  V30 3529 C 351.792 2.13284 -2.6324 0
M  V30 3530 C 350.351 2.66832 -2.65476 0
M  V30 3531 C 349.498 1.42557 -2.3785 0
M  V30 3532 H 352.449 0.378692 -1.54116 0
M  V30 3533 H 352.47 2.96619 -2.38323 0
M  V30 3534 H 351.982 1.56459 -3.55165 0
M  V30 3535 H 350.083 3.27548 -1.77603 0
M  V30 3536 H 350.196 3.10088 -3.65215 0
M  V30 3537 H 348.56 1.72107 -1.87753 0
M  V30 3538 H 349.343 0.875741 -3.31942 0
M  V30 3539 N 351.788 1.33704 0.83433 0
M  V30 3540 C 352.72 1.20172 1.9517 0
M  V30 3541 C 353.733 0.131572 1.62267 0
M  V30 3542 O 354.922 0.382406 1.74356 0
M  V30 3543 C 352.022 0.821716 3.28787 0
M  V30 3544 C 351.195 1.98446 3.89792 0
M  V30 3545 C 350.254 1.58469 5.01771 0
M  V30 3546 O 349.28 2.29968 5.20676 0
M  V30 3547 N 350.482 0.492291 5.78409 0
M  V30 3548 H 353.247 2.16429 2.07313 0
M  V30 3549 H 350.808 1.26509 1.0103 0
M  V30 3550 H 352.8 0.536291 4.01131 0
M  V30 3551 H 351.37 -0.0503058 3.1256 0
M  V30 3552 H 350.59 2.43526 3.09982 0
M  V30 3553 H 351.878 2.76236 4.27283 0
M  V30 3554 H 351.276 -0.102349 5.65607 0
M  V30 3555 H 349.833 0.266555 6.51255 0
M  V30 3556 N 353.266 -1.05314 1.17247 0
M  V30 3557 C 354.491 -1.82509 0.985148 0
M  V30 3558 C 354.916 -1.82343 -0.461788 0
M  V30 3559 O 354.274 -1.23151 -1.33055 0
M  V30 3560 C 354.322 -3.26566 1.52929 0
M  V30 3561 O 353.426 -4.05666 0.742225 0
M  V30 3562 H 352.767 -0.564347 0.349869 0
M  V30 3563 H 355.297 -1.32718 1.55715 0
M  V30 3564 H 355.307 -3.77369 1.55103 0
M  V30 3565 H 353.982 -3.26001 2.58256 0
M  V30 3566 H 352.559 -3.64397 0.791794 0
M  V30 3567 N 354.744 -0.972509 -1.24016 0
M  V30 3568 C 355.99 -0.637978 -1.92504 0
M  V30 3569 C 356.323 0.825383 -1.75787 0
M  V30 3570 O 355.598 1.59442 -1.11393 0
M  V30 3571 C 355.881 -1.01942 -3.45369 0
M  V30 3572 C 355.734 -2.53983 -3.71231 0
M  V30 3573 C 357.053 -0.55751 -4.36555 0
M  V30 3574 H 354.172 -0.233248 -0.699117 0
M  V30 3575 H 356.814 -1.21238 -1.46292 0
M  V30 3576 H 354.964 -0.530656 -3.84859 0
M  V30 3577 H 356.636 -3.10374 -3.41271 0
M  V30 3578 H 354.879 -2.96968 -3.16216 0
M  V30 3579 H 355.55 -2.75723 -4.78206 0
M  V30 3580 H 358.026 -0.977029 -4.04467 0
M  V30 3581 H 356.902 -0.85292 -5.42233 0
M  V30 3582 H 357.163 0.542328 -4.38761 0
M  V30 3583 N 356.222 1.38976 -0.743202 0
M  V30 3584 C 357.47 1.99948 -0.29417 0
M  V30 3585 C 357.791 1.59279 1.12495 0
M  V30 3586 O 357.061 0.844808 1.76748 0
M  V30 3587 H 355.641 0.739473 -0.105774 0
M  V30 3588 H 358.303 1.699 -0.954986 0
M  V30 3589 H 357.399 3.10142 -0.349056 0
M  V30 3590 N 357.7 0.491464 1.49741 0
M  V30 3591 C 358.948 -0.0563141 2.02022 0
M  V30 3592 C 359.269 -1.38363 1.37407 0
M  V30 3593 O 358.539 -1.88702 0.526166 0
M  V30 3594 H 357.119 -0.0238014 0.746621 0
M  V30 3595 H 359.781 0.646533 1.83864 0
M  V30 3596 H 358.877 -0.192967 3.11503 0
M  V30 3597 N 359.178 -1.55987 0.224894 0
M  V30 3598 C 360.424 -1.98684 -0.406502 0
M  V30 3599 C 360.757 -1.11248 -1.59177 0
M  V30 3600 O 360.032 -0.170909 -1.93748 0
M  V30 3601 C 360.315 -3.50218 -0.837808 0
M  V30 3602 C 360.168 -4.48426 0.351332 0
M  V30 3603 C 361.487 -4.06243 -1.69278 0
M  V30 3604 H 358.606 -0.722337 -0.146283 0
M  V30 3605 H 361.248 -1.87255 0.321799 0
M  V30 3606 H 359.398 -3.60089 -1.45837 0
M  V30 3607 H 361.07 -4.50562 0.989526 0
M  V30 3608 H 359.313 -4.22159 0.998207 0
M  V30 3609 H 359.984 -5.52 0.00655905 0
M  V30 3610 H 362.46 -3.99337 -1.16914 0
M  V30 3611 H 361.336 -5.12581 -1.96346 0
M  V30 3612 H 361.597 -3.53332 -2.65723 0
M  V30 3613 N 360.656 0.0484629 -1.57525 0
M  V30 3614 C 361.902 0.744226 -1.88651 0
M  V30 3615 C 362.235 1.76029 -0.820212 0
M  V30 3616 O 361.51 1.93782 0.166985 0
M  V30 3617 C 361.793 1.43128 -3.30434 0
M  V30 3618 C 361.646 0.43005 -4.47739 0
M  V30 3619 C 362.965 2.37031 -3.70816 0
M  V30 3620 H 360.084 0.269089 -0.68612 0
M  V30 3621 H 362.726 0.00713532 -1.89999 0
M  V30 3622 H 360.876 2.05956 -3.29415 0
M  V30 3623 H 362.548 -0.194816 -4.60888 0
M  V30 3624 H 360.791 -0.252522 -4.33064 0
M  V30 3625 H 361.462 0.948874 -5.43783 0
M  V30 3626 H 363.938 1.84263 -3.73077 0
M  V30 3627 H 362.814 2.82094 -4.70865 0
M  V30 3628 H 363.075 3.22864 -3.02012 0
M  V30 3629 N 362.134 1.5431 0.320358 0
M  V30 3630 C 363.082 1.84647 1.4145 0
M  V30 3631 C 364.076 0.718624 1.53402 0
M  V30 3632 O 365.282 0.902335 1.5575 0
M  V30 3633 H 361.657 0.585349 0.472091 0
M  V30 3634 H 363.628 2.7614 1.13089 0
M  V30 3635 C 362.377 2.09341 2.77617 0
M  V30 3636 H 361.7 2.9559 2.69196 0
M  V30 3637 H 363.14 2.3452 3.53237 0
M  V30 3638 C 361.599 0.885939 3.25043 0
M  V30 3639 O 362.129 0.0967891 4.01583 0
M  V30 3640 N 360.335 0.696682 2.82125 0
M  V30 3641 H 359.882 1.34006 2.2 0
M  V30 3642 H 359.84 -0.109712 3.14209 0
M  V30 3643 N 363.613 -0.582584 1.46437 0
M  V30 3644 C 364.86 -1.34079 1.51753 0
M  V30 3645 C 365.188 -1.93762 0.169299 0
M  V30 3646 O 364.443 -1.76989 -0.835062 0
M  V30 3647 C 364.742 -2.48964 2.56421 0
M  V30 3648 C 364.408 -2.07273 4.00436 0
M  V30 3649 C 363.07 -1.95618 4.39644 0
M  V30 3650 C 365.422 -1.75111 4.90903 0
M  V30 3651 C 362.75 -1.5006 5.67185 0
M  V30 3652 C 365.102 -1.31032 6.18881 0
M  V30 3653 C 363.766 -1.17954 6.56996 0
M  V30 3654 H 363.036 -0.49063 0.555304 0
M  V30 3655 H 365.683 -0.656007 1.79913 0
M  V30 3656 H 363.988 -3.22889 2.21923 0
M  V30 3657 H 365.685 -3.07178 2.57765 0
M  V30 3658 H 362.275 -2.17279 3.69443 0
M  V30 3659 H 366.459 -1.83001 4.61329 0
M  V30 3660 H 361.715 -1.38577 5.95488 0
M  V30 3661 H 365.889 -1.052 6.88408 0
M  V30 3662 H 363.516 -0.824279 7.55718 0
M  V30 3663 N 365.091 -1.34144 -0.827227 0
M  V30 3664 C 366.337 -1.26446 -1.58554 0
M  V30 3665 C 366.67 0.1664 -1.93486 0
M  V30 3666 O 365.945 1.1107 -1.59667 0
M  V30 3667 C 366.228 -2.15111 -2.8879 0
M  V30 3668 C 366.081 -3.66712 -2.60465 0
M  V30 3669 C 367.4 -2.03311 -3.90324 0
M  V30 3670 H 364.519 -0.46067 -0.575284 0
M  V30 3671 H 367.161 -1.64356 -0.953269 0
M  V30 3672 H 365.311 -1.8291 -3.42748 0
M  V30 3673 H 366.983 -4.09259 -2.1285 0
M  V30 3674 H 365.226 -3.88014 -1.93978 0
M  V30 3675 H 365.897 -4.24112 -3.53317 0
M  V30 3676 H 368.373 -2.31574 -3.45706 0
M  V30 3677 H 367.249 -2.67582 -4.79261 0
M  V30 3678 H 367.51 -1.00879 -4.30437 0
M  V30 3679 N 366.569 1.04691 -1.17803 0
M  V30 3680 C 367.797 1.81446 -0.99423 0
M  V30 3681 C 368.212 1.83174 0.457459 0
M  V30 3682 O 367.569 1.26265 1.31771 0
M  V30 3683 C 367.62 3.27334 -1.5341 0
M  V30 3684 O 367.341 3.25798 -2.92895 0
M  V30 3685 C 368.842 4.20759 -1.39559 0
M  V30 3686 H 366.062 0.571599 -0.351447 0
M  V30 3687 H 368.606 1.31982 -1.56208 0
M  V30 3688 H 366.761 3.74052 -1.00815 0
M  V30 3689 H 367.175 4.17144 -3.17949 0
M  V30 3690 H 368.649 5.21084 -1.82141 0
M  V30 3691 H 369.126 4.37856 -0.343394 0
M  V30 3692 H 369.732 3.79901 -1.91195 0
M  V30 3693 N 368.047 0.979072 1.23499 0
M  V30 3694 C 369.463 0.687475 1.44034 0
M  V30 3695 C 369.663 -0.746801 1.8715 0
M  V30 3696 O 368.719 -1.51939 2.0167 0
M  V30 3697 C 370.032 1.68127 2.49307 0
M  V30 3698 C 371.58 1.69516 2.63122 0
M  V30 3699 C 372.055 2.67723 3.71603 0
M  V30 3700 N 373.546 2.66233 3.79044 0
M  V30 3701 C 374.281 3.38891 4.62537 0
M  V30 3702 N 373.777 4.21103 5.50131 0
M  V30 3703 N 375.57 3.27661 4.56721 0
M  V30 3704 H 367.721 1.90559 0.938135 0
M  V30 3705 H 369.984 0.821051 0.473897 0
M  V30 3706 H 369.69 2.70693 2.2454 0
M  V30 3707 H 369.564 1.46306 3.4767 0
M  V30 3708 H 371.951 0.676561 2.8724 0
M  V30 3709 H 372.032 1.95404 1.65079 0
M  V30 3710 H 371.676 3.69724 3.48233 0
M  V30 3711 H 371.606 2.39111 4.69184 0
M  V30 3712 H 374.097 2.06568 3.16446 0
M  V30 3713 H 374.41 4.73403 6.10827 0
M  V30 3714 H 372.755 4.25195 5.49759 0
M  V30 3715 H 375.946 2.62887 3.87309 0
M  V30 3716 H 376.119 3.84547 5.21562 0
M  V30 3717 N 369.525 -1.3858 0.750561 0
M  V30 3718 C 370.488 -2.28836 0.129152 0
M  V30 3719 C 371.488 -1.47045 -0.650714 0
M  V30 3720 O 372.678 -1.6753 -0.477428 0
M  V30 3721 C 369.81 -3.30751 -0.825622 0
M  V30 3722 H 371.003 -2.85294 0.924516 0
M  V30 3723 H 368.556 -1.47489 0.517376 0
M  V30 3724 H 369.291 -2.79378 -1.64677 0
M  V30 3725 H 369.076 -3.91177 -0.268852 0
M  V30 3726 H 370.566 -3.98249 -1.2565 0
M  V30 3727 N 371.003 -0.499398 -1.49478 0
M  V30 3728 C 372.252 0.0475259 -2.01644 0
M  V30 3729 C 372.565 1.38195 -1.38425 0
M  V30 3730 O 373.771 2.01547 -1.8191 0
M  V30 3731 C 372.227 0.135164 -3.59646 0
M  V30 3732 C 371.835 -1.19252 -4.31837 0
M  V30 3733 C 373.579 0.632538 -4.19761 0
M  V30 3734 C 371.486 -1.06713 -5.81693 0
M  V30 3735 H 370.416 0.0215349 -0.753692 0
M  V30 3736 H 373.067 -0.638577 -1.7203 0
M  V30 3737 H 371.449 0.885681 -3.85969 0
M  V30 3738 H 372.623 -1.9562 -4.17216 0
M  V30 3739 H 370.938 -1.62321 -3.83459 0
M  V30 3740 H 373.535 0.743833 -5.29501 0
M  V30 3741 H 373.878 1.63098 -3.83021 0
M  V30 3742 H 374.411 -0.0613987 -3.97753 0
M  V30 3743 H 371.15 -2.03979 -6.22955 0
M  V30 3744 H 370.67 -0.344307 -5.98811 0
M  V30 3745 H 372.349 -0.745208 -6.42694 0
M  V30 3746 N 372.481 1.55866 -0.233164 0
M  V30 3747 C 373.892 1.847 0.272554 0
M  V30 3748 C 374.243 1.15477 1.58617 0
M  V30 3749 O 373.368 0.42841 2.12117 0
M  V30 3750 C 373.963 3.35071 0.501299 0
M  V30 3751 C 372.522 3.6418 0.951304 0
M  V30 3752 C 371.669 2.77292 0.0208209 0
M  V30 3753 H 374.62 1.52005 -0.456074 0
M  V30 3754 H 374.641 3.55906 1.34577 0
M  V30 3755 H 374.153 3.85424 -0.454936 0
M  V30 3756 H 372.254 3.19293 1.92049 0
M  V30 3757 H 372.367 4.72071 0.817675 0
M  V30 3758 H 370.731 2.49131 0.529723 0
M  V30 3759 H 371.514 3.30448 -0.93054 0
M  V30 3760 N 373.959 -0.0401083 1.57549 0
M  V30 3761 C 374.891 -1.07149 2.02612 0
M  V30 3762 C 375.904 -1.33126 0.937085 0
M  V30 3763 O 377.093 -1.30808 1.21456 0
M  V30 3764 C 374.193 -2.41561 2.37701 0
M  V30 3765 C 373.366 -2.35096 3.68848 0
M  V30 3766 C 372.425 -3.51867 3.91249 0
M  V30 3767 O 371.451 -3.3186 4.62447 0
M  V30 3768 N 372.653 -4.73351 3.36035 0
M  V30 3769 H 375.418 -0.687485 2.91708 0
M  V30 3770 H 372.979 -0.228248 1.60283 0
M  V30 3771 H 374.971 -3.18379 2.49833 0
M  V30 3772 H 373.541 -2.71846 1.54332 0
M  V30 3773 H 372.761 -1.4345 3.67173 0
M  V30 3774 H 374.049 -2.27908 4.54901 0
M  V30 3775 H 373.447 -4.92507 2.78304 0
M  V30 3776 H 372.004 -5.47572 3.53565 0
M  V30 3777 N 375.437 -1.54477 -0.31217 0
M  V30 3778 C 376.714 -1.63891 -1.06767 0
M  V30 3779 C 377.094 -0.480028 -2.0557 0
M  V30 3780 O 376.442 0.524487 -2.22399 0
M  V30 3781 C 376.652 -3.01402 -1.75948 0
M  V30 3782 C 378 -3.57838 -2.28554 0
M  V30 3783 O 379.024 -3.03782 -1.85998 0
M  V30 3784 O 377.883 -4.52462 -3.06497 0
M  V30 3785 H 374.977 -0.664125 -0.492816 0
M  V30 3786 H 377.523 -1.66823 -0.311149 0
M  V30 3787 H 376.295 -3.77187 -1.04144 0
M  V30 3788 H 375.918 -3.02199 -2.58383 0
M  V30 3789 N 376.915 0.57481 -1.46744 0
M  V30 3790 C 378.162 1.33272 -1.52462 0
M  V30 3791 C 378.49 1.93669 -0.179572 0
M  V30 3792 O 377.745 1.7743 0.825664 0
M  V30 3793 C 378.044 2.476 -2.57738 0
M  V30 3794 C 377.71 2.05146 -4.01529 0
M  V30 3795 C 376.372 1.93284 -4.40676 0
M  V30 3796 C 378.724 1.72506 -4.91824 0
M  V30 3797 C 376.052 1.47049 -5.67973 0
M  V30 3798 C 378.404 1.27748 -6.19567 0
M  V30 3799 C 377.068 1.14468 -6.57612 0
M  V30 3800 H 376.338 0.487678 -0.557899 0
M  V30 3801 H 378.985 0.646456 -1.80259 0
M  V30 3802 H 377.29 3.21708 -2.23632 0
M  V30 3803 H 378.987 3.05807 -2.5939 0
M  V30 3804 H 375.577 2.15316 -3.7059 0
M  V30 3805 H 379.761 1.80552 -4.62293 0
M  V30 3806 H 375.017 1.35417 -5.96215 0
M  V30 3807 H 379.191 1.01547 -6.88957 0
M  V30 3808 H 376.818 0.78419 -7.56145 0
M  V30 3809 N 378.394 1.34581 0.820102 0
M  V30 3810 C 379.642 1.26845 1.57336 0
M  V30 3811 C 379.963 -0.160667 1.94337 0
M  V30 3812 O 379.233 -1.09396 1.6251 0
M  V30 3813 H 377.813 0.466514 0.583415 0
M  V30 3814 H 380.475 1.68526 0.979027 0
M  V30 3815 H 379.571 1.87513 2.4949 0
M  V30 3816 N 379.872 -1.04064 1.18357 0
M  V30 3817 C 381.121 -1.76662 0.973313 0
M  V30 3818 C 381.434 -1.89154 -0.497991 0
M  V30 3819 O 382.64 -2.58606 -0.826762 0
M  V30 3820 C 381.096 -3.17624 1.69242 0
M  V30 3821 C 380.704 -3.13225 3.20303 0
M  V30 3822 C 382.448 -3.946 1.56497 0
M  V30 3823 C 380.355 -4.49046 3.84853 0
M  V30 3824 H 379.285 -0.662214 0.36054 0
M  V30 3825 H 381.936 -1.16553 1.41731 0
M  V30 3826 H 380.318 -3.78129 1.1762 0
M  V30 3827 H 381.492 -2.62172 3.78949 0
M  V30 3828 H 379.807 -2.49749 3.33189 0
M  V30 3829 H 382.404 -4.95042 2.02084 0
M  V30 3830 H 382.747 -4.13074 0.517243 0
M  V30 3831 H 383.28 -3.4067 2.05399 0
M  V30 3832 H 380.019 -4.35777 4.89672 0
M  V30 3833 H 379.539 -5.00203 3.30994 0
M  V30 3834 H 381.218 -5.17961 3.87718 0
M  V30 3835 N 381.35 -0.985608 -1.22978 0
M  V30 3836 C 382.26 -0.538548 -2.28335 0
M  V30 3837 C 383.276 0.409163 -1.69121 0
M  V30 3838 O 384.452 0.277797 -1.99475 0
M  V30 3839 C 381.517 0.146867 -3.46389 0
M  V30 3840 C 380.578 -0.842896 -4.20944 0
M  V30 3841 C 379.811 -0.190095 -5.33361 0
M  V30 3842 O 380.034 1.01767 -5.61248 0
M  V30 3843 O 378.968 -0.891289 -5.95264 0
M  V30 3844 H 382.794 -1.41487 -2.68729 0
M  V30 3845 H 380.379 -0.753495 -1.29007 0
M  V30 3846 H 382.261 0.531125 -4.1804 0
M  V30 3847 H 380.936 0.997871 -3.07935 0
M  V30 3848 H 379.843 -1.27795 -3.51595 0
M  V30 3849 H 381.176 -1.66287 -4.6326 0
M  V30 3850 N 382.828 1.3818 -0.7579 0
M  V30 3851 C 383.791 2.28764 -0.141286 0
M  V30 3852 C 384.791 1.47388 0.642907 0
M  V30 3853 O 385.981 1.67781 0.468536 0
M  V30 3854 C 383.113 3.31184 0.808069 0
M  V30 3855 H 384.306 2.848 -0.939633 0
M  V30 3856 H 381.859 1.47212 -0.525191 0
M  V30 3857 H 382.594 2.80247 1.63193 0
M  V30 3858 H 382.379 3.91314 0.248104 0
M  V30 3859 H 383.869 3.98909 1.23536 0
M  V30 3860 N 384.306 0.507319 1.49211 0
M  V30 3861 C 385.554 -0.0348839 2.0207 0
M  V30 3862 C 385.875 -1.36898 1.38866 0
M  V30 3863 O 385.145 -1.88133 0.546151 0
M  V30 3864 H 383.725 -0.0158812 0.746831 0
M  V30 3865 H 386.387 0.665998 1.83168 0
M  V30 3866 H 385.483 -0.159917 3.1169 0
M  V30 3867 N 385.784 -1.5574 0.241426 0
M  V30 3868 C 387.03 -1.99104 -0.385406 0
M  V30 3869 C 387.363 -1.1293 -1.57988 0
M  V30 3870 O 386.638 -0.191449 -1.93555 0
M  V30 3871 C 386.921 -3.51087 -0.800616 0
M  V30 3872 C 386.774 -4.48028 0.398874 0
M  V30 3873 C 388.093 -4.08015 -1.64959 0
M  V30 3874 H 385.212 -0.723848 -0.138614 0
M  V30 3875 H 387.854 -1.86903 0.341642 0
M  V30 3876 H 386.004 -3.61615 -1.4201 0
M  V30 3877 H 387.676 -4.49487 1.03726 0
M  V30 3878 H 385.919 -4.21077 1.04293 0
M  V30 3879 H 386.59 -5.51962 0.0651056 0
M  V30 3880 H 389.066 -4.00555 -1.12672 0
M  V30 3881 H 387.942 -5.14635 -1.90898 0
M  V30 3882 H 388.203 -3.56131 -2.61961 0
M  V30 3883 N 387.262 0.0317525 -1.57568 0
M  V30 3884 C 388.172 1.05021 -2.0978 0
M  V30 3885 C 389.188 1.39809 -1.03583 0
M  V30 3886 O 390.364 1.49182 -1.35302 0
M  V30 3887 C 387.429 2.33301 -2.56459 0
M  V30 3888 C 386.49 2.0512 -3.77127 0
M  V30 3889 C 385.723 3.27283 -4.2157 0
M  V30 3890 O 385.946 4.37861 -3.65559 0
M  V30 3891 O 384.88 3.13141 -5.14029 0
M  V30 3892 H 388.706 0.636505 -2.96955 0
M  V30 3893 H 386.291 0.248559 -1.47318 0
M  V30 3894 H 388.173 3.08722 -2.86825 0
M  V30 3895 H 386.848 2.73973 -1.72397 0
M  V30 3896 H 385.755 1.27276 -3.51784 0
M  V30 3897 H 387.088 1.69305 -4.62165 0
M  V30 3898 N 388.74 1.54641 0.303973 0
M  V30 3899 C 389.988 1.73437 1.0375 0
M  V30 3900 C 390.309 0.521449 1.87899 0
M  V30 3901 O 389.579 -0.46432 1.90318 0
M  V30 3902 H 388.159 0.639518 0.386039 0
M  V30 3903 H 390.821 1.91988 0.335675 0
M  V30 3904 H 389.917 2.62235 1.69231 0
M  V30 3905 N 390.218 -0.567019 1.47046 0
M  V30 3906 C 391.15 -1.68985 1.54844 0
M  V30 3907 C 392.163 -1.56869 0.435431 0
M  V30 3908 O 393.352 -1.64006 0.70457 0
M  V30 3909 C 390.452 -3.07373 1.42742 0
M  V30 3910 C 389.625 -3.45339 2.6844 0
M  V30 3911 C 388.684 -4.62849 2.50314 0
M  V30 3912 O 387.71 -4.67922 3.24095 0
M  V30 3913 N 388.912 -5.58726 1.57499 0
M  V30 3914 H 391.677 -1.62745 2.51663 0
M  V30 3915 H 389.238 -0.753411 1.43302 0
M  V30 3916 H 391.23 -3.83803 1.28365 0
M  V30 3917 H 389.8 -3.07893 0.540445 0
M  V30 3918 H 389.02 -2.58455 2.97648 0
M  V30 3919 H 390.308 -3.67476 3.51907 0
M  V30 3920 H 389.706 -5.57376 0.966876 0
M  V30 3921 H 388.263 -6.34523 1.49078 0
M  V30 3922 N 391.696 -1.35014 -0.812953 0
M  V30 3923 C 392.626 -1.30069 -1.93919 0
M  V30 3924 C 393.607 -0.176275 -1.69184 0
M  V30 3925 O 394.792 -0.370227 -1.90638 0
M  V30 3926 C 391.922 -1.06547 -3.30552 0
M  V30 3927 C 390.876 -2.15561 -3.69753 0
M  V30 3928 C 390.202 -1.77214 -5.04479 0
M  V30 3929 C 391.502 -3.57476 -3.808 0
M  V30 3930 H 393.196 -2.24303 -1.98314 0
M  V30 3931 H 390.742 -1.07977 -0.952736 0
M  V30 3932 H 392.695 -1.01729 -4.08937 0
M  V30 3933 H 391.419 -0.0875719 -3.26483 0
M  V30 3934 H 390.078 -2.19466 -2.9365 0
M  V30 3935 H 389.726 -0.780589 -4.96906 0
M  V30 3936 H 389.426 -2.50184 -5.31678 0
M  V30 3937 H 390.95 -1.7391 -5.8531 0
M  V30 3938 H 392.364 -3.55929 -4.4943 0
M  V30 3939 H 390.761 -4.29152 -4.19462 0
M  V30 3940 H 391.831 -3.94091 -2.82525 0
M  V30 3941 N 393.175 1.03435 -1.18907 0
M  V30 3942 C 394.4 1.80919 -1.01406 0
M  V30 3943 C 394.825 1.83055 0.432721 0
M  V30 3944 O 394.183 1.25252 1.31079 0
M  V30 3945 C 394.231 3.24091 -1.58105 0
M  V30 3946 O 393.335 4.04434 -0.806669 0
M  V30 3947 H 392.676 0.558709 -0.358803 0
M  V30 3948 H 395.206 1.30223 -1.57807 0
M  V30 3949 H 395.216 3.74853 -1.61087 0
M  V30 3950 H 393.891 3.21851 -2.6341 0
M  V30 3951 H 392.468 3.63091 -0.849666 0
M  V30 3952 N 394.653 0.992116 1.22453 0
M  V30 3953 C 396.064 0.702776 1.72968 0
M  V30 3954 C 396.415 -0.780399 1.80012 0
M  V30 3955 O 395.54 -1.61007 1.44589 0
M  V30 3956 C 396.135 1.26903 3.14135 0
M  V30 3957 C 394.694 1.02909 3.62059 0
M  V30 3958 C 393.841 1.38969 2.39964 0
M  V30 3959 H 396.792 1.16457 1.07812 0
M  V30 3960 H 396.813 0.647223 3.74955 0
M  V30 3961 H 396.325 2.34851 3.08977 0
M  V30 3962 H 394.426 -0.0337979 3.72585 0
M  V30 3963 H 394.539 1.69191 4.48231 0
M  V30 3964 H 392.903 0.808279 2.41535 0
M  V30 3965 H 393.686 2.4792 2.37467 0
M  V30 3966 N 396.131 -1.37776 0.765217 0
M  V30 3967 C 397.359 -2.04124 0.337767 0
M  V30 3968 C 397.774 -1.57715 -1.03785 0
M  V30 3969 O 397.131 -0.755447 -1.6613 0
M  V30 3970 C 397.182 -3.59658 0.364442 0
M  V30 3971 O 396.903 -4.04367 1.68579 0
M  V30 3972 C 398.404 -4.43236 -0.0754221 0
M  V30 3973 H 395.624 -0.655696 0.142491 0
M  V30 3974 H 398.168 -1.76238 1.03732 0
M  V30 3975 H 396.323 -3.86339 -0.286471 0
M  V30 3976 H 396.737 -4.98857 1.61993 0
M  V30 3977 H 398.211 -5.52 -0.00560067 0
M  V30 3978 H 398.688 -4.2455 -1.12491 0
M  V30 3979 H 399.294 -4.21767 0.547055 0
M  V30 3980 N 397.609 -0.515225 -1.4894 0
M  V30 3981 C 398.834 0.022727 -2.07388 0
M  V30 3982 C 399.259 1.2876 -1.37122 0
M  V30 3983 O 398.617 1.76067 -0.432431 0
M  V30 3984 C 398.665 0.244869 -3.59768 0
M  V30 3985 O 397.769 1.31667 -3.90817 0
M  V30 3986 H 397.11 -0.0325506 -0.663202 0
M  V30 3987 H 399.64 -0.718918 -1.91553 0
M  V30 3988 H 399.65 0.47205 -4.0526 0
M  V30 3989 H 398.325 -0.679194 -4.10317 0
M  V30 3990 H 396.902 1.07331 -3.5712 0
M  V30 3991 N 399.087 1.5561 -0.249682 0
M  V30 3992 C 400.312 2.03865 0.381305 0
M  V30 3993 C 400.737 1.12769 1.50548 0
M  V30 3994 O 400.095 0.121189 1.80895 0
M  V30 3995 C 400.143 3.50101 0.863816 0
M  V30 3996 O 399.247 3.62132 1.97318 0
M  V30 3997 H 398.588 0.658827 0.0827194 0
M  V30 3998 H 401.118 2.01105 -0.376552 0
M  V30 3999 H 401.128 3.90975 1.1663 0
M  V30 4000 H 399.803 4.1588 0.0411816 0
M  V30 4001 H 398.38 3.33155 1.67517 0
M  V30 4002 N 400.565 -0.0233959 1.57583 0
M  V30 4003 C 401.497 -1.04994 2.03737 0
M  V30 4004 C 402.51 -1.32125 0.951152 0
M  V30 4005 O 403.699 -1.29512 1.22837 0
M  V30 4006 C 400.799 -2.39026 2.40249 0
M  V30 4007 C 399.972 -2.31171 3.7132 0
M  V30 4008 C 399.031 -3.47698 3.94959 0
M  V30 4009 O 398.057 -3.26937 4.65941 0
M  V30 4010 N 399.259 -4.6976 3.41037 0
M  V30 4011 H 402.024 -0.656507 2.92421 0
M  V30 4012 H 399.585 -0.211235 1.60516 0
M  V30 4013 H 401.577 -3.15712 2.53196 0
M  V30 4014 H 400.147 -2.70194 1.57207 0
M  V30 4015 H 399.367 -1.39547 3.68674 0
M  V30 4016 H 400.655 -2.23071 4.57293 0
M  V30 4017 H 400.053 -4.89528 2.83512 0
M  V30 4018 H 398.61 -5.43791 3.59353 0
M  V30 4019 N 402.043 -1.548 -0.295768 0
M  V30 4020 C 402.991 -1.86874 -1.38495 0
M  V30 4021 C 403.985 -0.742938 -1.52239 0
M  V30 4022 O 405.191 -0.926999 -1.54294 0
M  V30 4023 H 401.566 -0.592786 -0.462719 0
M  V30 4024 H 403.537 -2.77904 -1.08682 0
M  V30 4025 C 402.286 -2.13732 -2.74252 0
M  V30 4026 H 401.609 -2.99835 -2.64459 0
M  V30 4027 H 403.049 -2.4011 -3.49461 0
M  V30 4028 C 401.508 -0.937539 -3.23592 0
M  V30 4029 O 402.038 -0.160665 -4.01379 0
M  V30 4030 N 400.244 -0.741478 -2.80981 0
M  V30 4031 H 399.791 -1.37489 -2.1784 0
M  V30 4032 H 399.749 0.0597103 -3.14343 0
M  V30 4033 N 403.521 0.559213 -1.47345 0
M  V30 4034 C 404.469 1.68747 -1.60085 0
M  V30 4035 C 405.463 1.628 -0.46825 0
M  V30 4036 O 406.669 1.68009 -0.645977 0
M  V30 4037 H 403.044 0.558329 -0.503759 0
M  V30 4038 H 405.015 1.55138 -2.54902 0
M  V30 4039 C 403.764 3.07103 -1.63042 0
M  V30 4040 H 403.087 3.12361 -2.49541 0
M  V30 4041 H 404.527 3.85743 -1.76006 0
M  V30 4042 C 402.986 3.34935 -0.363357 0
M  V30 4043 O 403.516 3.98102 0.536416 0
M  V30 4044 N 401.722 2.89574 -0.244 0
M  V30 4045 H 401.269 2.38348 -0.977133 0
M  V30 4046 H 401.227 3.08566 0.602836 0
M  V30 4047 N 404.999 1.35443 0.805782 0
M  V30 4048 C 406.41 1.25768 1.37983 0
M  V30 4049 C 406.761 -0.10958 1.95894 0
M  V30 4050 O 405.886 -1.01056 1.91355 0
M  V30 4051 C 406.481 2.27727 2.5085 0
M  V30 4052 C 405.04 2.2179 3.04115 0
M  V30 4053 C 404.187 2.13393 1.77084 0
M  V30 4054 H 407.138 1.4656 0.608752 0
M  V30 4055 H 407.159 1.90422 3.29424 0
M  V30 4056 H 406.671 3.27227 2.08671 0
M  V30 4057 H 404.772 1.25703 3.50756 0
M  V30 4058 H 404.885 3.13788 3.62042 0
M  V30 4059 H 403.249 1.59384 1.98668 0
M  V30 4060 H 404.032 3.14755 1.37056 0
M  V30 4061 N 406.477 -1.02803 1.19454 0
M  V30 4062 C 407.424 -2.11099 0.933046 0
M  V30 4063 C 408.394 -1.65571 -0.132447 0
M  V30 4064 O 409.579 -1.90797 0.00987576 0
M  V30 4065 C 406.719 -3.41763 0.478747 0
M  V30 4066 C 405.832 -4.00833 1.6111 0
M  V30 4067 C 404.967 -5.19511 1.10825 0
M  V30 4068 C 404.006 -5.70639 2.21445 0
M  V30 4069 N 403.143 -6.80589 1.72461 0
M  V30 4070 H 407.983 -2.32804 1.86028 0
M  V30 4071 H 405.52 -1.14179 0.927441 0
M  V30 4072 H 407.478 -4.16736 0.196745 0
M  V30 4073 H 406.108 -3.20166 -0.411493 0
M  V30 4074 H 405.16 -3.23066 2.00829 0
M  V30 4075 H 406.472 -4.34794 2.4445 0
M  V30 4076 H 405.626 -6.01645 0.781533 0
M  V30 4077 H 404.365 -4.87086 0.244606 0
M  V30 4078 H 403.37 -4.87116 2.54947 0
M  V30 4079 H 404.595 -6.05102 3.08267 0
M  V30 4080 H 402.541 -6.50016 0.884056 0
M  V30 4081 H 402.458 -7.13681 2.49389 0
M  V30 4082 H 403.726 -7.66317 1.42755 0
M  V30 4083 N 407.956 -0.998596 -1.21925 0
M  V30 4084 C 408.866 -0.562736 -2.27751 0
M  V30 4085 C 409.882 0.391203 -1.69545 0
M  V30 4086 O 411.058 0.256625 -1.99758 0
M  V30 4087 C 408.123 0.11012 -3.46525 0
M  V30 4088 C 407.184 -0.887495 -4.20026 0
M  V30 4089 C 406.417 -0.246654 -5.3313 0
M  V30 4090 O 406.64 0.958088 -5.62296 0
M  V30 4091 O 405.574 -0.954374 -5.94286 0
M  V30 4092 H 409.4 -1.44329 -2.67213 0
M  V30 4093 H 406.985 -0.767135 -1.28201 0
M  V30 4094 H 408.867 0.486756 -4.18579 0
M  V30 4095 H 407.542 0.965154 -3.08976 0
M  V30 4096 H 406.449 -1.31517 -3.5022 0
M  V30 4097 H 407.782 -1.71191 -4.6147 0
M  V30 4098 N 409.434 1.37368 -0.772513 0
M  V30 4099 C 410.662 2.03942 -0.348588 0
M  V30 4100 C 411.077 1.58264 1.02947 0
M  V30 4101 O 410.434 0.764246 1.65727 0
M  V30 4102 C 410.485 3.5946 -0.38351 0
M  V30 4103 O 410.206 4.03468 -1.70721 0
M  V30 4104 C 411.707 4.4327 0.0519152 0
M  V30 4105 H 408.927 0.654931 -0.145966 0
M  V30 4106 H 411.471 1.75686 -1.04665 0
M  V30 4107 H 409.626 3.86486 0.265978 0
M  V30 4108 H 410.04 4.97991 -1.64636 0
M  V30 4109 H 411.514 5.51995 -0.0236733 0
M  V30 4110 H 411.991 4.2514 1.10238 0
M  V30 4111 H 412.597 4.21471 -0.569415 0
M  V30 4112 N 410.912 0.523116 1.48665 0
M  V30 4113 C 411.862 -0.263106 2.26477 0
M  V30 4114 C 412.846 -0.916005 1.32281 0
M  V30 4115 O 414.038 -0.819946 1.56863 0
M  V30 4116 C 411.167 -1.31361 3.17174 0
M  V30 4117 C 410.253 -0.665849 4.1884 0
M  V30 4118 N 410.644 0.244434 5.05209 0
M  V30 4119 C 408.942 -0.923863 4.36326 0
M  V30 4120 C 409.643 0.617443 5.78414 0
M  V30 4121 N 408.619 -0.0198686 5.43596 0
M  V30 4122 H 412.421 0.437295 2.90629 0
M  V30 4123 H 409.935 0.340675 1.58787 0
M  V30 4124 H 411.932 -1.89052 3.71571 0
M  V30 4125 H 410.592 -2.01546 2.54576 0
M  V30 4126 H 411.603 0.616621 5.14216 0
M  V30 4127 H 408.28 -1.6168 3.84923 0
M  V30 4128 H 409.67 1.36346 6.57921 0
M  V30 4129 N 412.39 -1.55475 0.257931 0
M  V30 4130 C 413.338 -2.23244 -0.653076 0
M  V30 4131 C 414.332 -1.22366 -1.17144 0
M  V30 4132 O 415.538 -1.40347 -1.12706 0
M  V30 4133 H 411.913 -0.716247 -0.229117 0
M  V30 4134 H 413.884 -2.98343 -0.0584788 0
M  V30 4135 C 412.633 -2.95401 -1.83395 0
M  V30 4136 H 411.956 -3.72802 -1.44424 0
M  V30 4137 H 413.396 -3.46165 -2.44838 0
M  V30 4138 C 411.855 -1.99895 -2.71189 0
M  V30 4139 O 412.385 -1.53909 -3.71046 0
M  V30 4140 N 410.591 -1.6676 -2.3799 0
M  V30 4141 H 410.138 -2.04352 -1.56837 0
M  V30 4142 H 410.096 -1.03127 -2.97005 0
M  V30 4143 N 413.868 0.0150385 -1.57593 0
M  V30 4144 C 414.798 1.01047 -2.10503 0
M  V30 4145 C 415.779 1.36816 -1.01071 0
M  V30 4146 O 416.964 1.45455 -1.28672 0
M  V30 4147 C 414.094 2.30708 -2.59598 0
M  V30 4148 C 413.048 2.09142 -3.73421 0
M  V30 4149 C 412.374 3.44685 -4.08774 0
M  V30 4150 C 413.674 1.46619 -5.01298 0
M  V30 4151 H 415.368 0.569978 -2.93925 0
M  V30 4152 H 412.914 0.272724 -1.41394 0
M  V30 4153 H 414.867 3.00687 -2.95238 0
M  V30 4154 H 413.591 2.76843 -1.73279 0
M  V30 4155 H 412.25 1.41592 -3.38153 0
M  V30 4156 H 411.898 3.88495 -3.195 0
M  V30 4157 H 411.598 3.31077 -4.8545 0
M  V30 4158 H 413.122 4.16004 -4.4696 0
M  V30 4159 H 414.536 2.06535 -5.34805 0
M  V30 4160 H 412.933 1.43544 -5.82679 0
M  V30 4161 H 414.003 0.433611 -4.82957 0
M  V30 4162 N 415.346 1.54954 0.287554 0
M  V30 4163 C 416.279 1.81737 1.3801 0
M  V30 4164 C 417.257 0.669412 1.48181 0
M  V30 4165 O 418.441 0.910839 1.65033 0
M  V30 4166 C 415.568 1.96606 2.75796 0
M  V30 4167 C 414.614 3.19098 2.82982 0
M  V30 4168 S 415.447 4.7683 2.43707 0
M  V30 4169 C 416.603 4.94653 3.83496 0
M  V30 4170 H 416.836 2.74122 1.15085 0
M  V30 4171 H 414.369 1.46538 0.486403 0
M  V30 4172 H 416.327 2.05858 3.55152 0
M  V30 4173 H 414.988 1.05136 2.95982 0
M  V30 4174 H 414.181 3.26344 3.84077 0
M  V30 4175 H 413.783 3.08361 2.11635 0
M  V30 4176 H 416.075 4.79502 4.78628 0
M  V30 4177 H 417.018 5.96728 3.8121 0
M  V30 4178 H 417.426 4.2272 3.74123 0
M  V30 4179 N 416.824 -0.551391 1.4764 0
M  V30 4180 C 418.07 -1.31024 1.54792 0
M  V30 4181 C 418.403 -1.9304 0.211967 0
M  V30 4182 O 417.678 -1.78175 -0.77999 0
M  V30 4183 C 417.961 -2.41593 2.67029 0
M  V30 4184 C 417.814 -1.84408 4.10261 0
M  V30 4185 C 419.133 -3.43488 2.75143 0
M  V30 4186 H 416.252 -0.475031 0.563485 0
M  V30 4187 H 418.894 -0.616454 1.79722 0
M  V30 4188 H 417.044 -3.00772 2.45904 0
M  V30 4189 H 418.716 -1.29445 4.42766 0
M  V30 4190 H 416.959 -1.15051 4.18265 0
M  V30 4191 H 417.63 -2.64367 4.84576 0
M  V30 4192 H 420.106 -2.94236 2.94218 0
M  V30 4193 H 418.982 -4.18274 3.55441 0
M  V30 4194 H 419.243 -4.02703 1.82435 0
M  V30 4195 N 418.302 -1.35869 -0.798587 0
M  V30 4196 C 419.55 -1.29332 -1.55298 0
M  V30 4197 C 419.871 0.129729 -1.94568 0
M  V30 4198 O 419.141 1.06796 -1.6423 0
M  V30 4199 H 417.721 -0.475737 -0.57592 0
M  V30 4200 H 420.383 -1.70062 -0.952093 0
M  V30 4201 H 419.479 -1.91458 -2.46476 0
M  V30 4202 N 419.78 1.02168 -1.19998 0
M  V30 4203 C 421.028 1.75338 -1.00504 0
M  V30 4204 C 421.349 1.89387 0.464506 0
M  V30 4205 O 420.619 1.43268 1.33608 0
M  V30 4206 H 419.199 0.649564 -0.368885 0
M  V30 4207 H 421.861 1.23205 -1.51018 0
M  V30 4208 H 420.957 2.75892 -1.45912 0
M  V30 4209 N 421.258 1.00505 1.21394 0
M  V30 4210 C 422.486 0.706609 1.9446 0
M  V30 4211 C 422.901 -0.73081 1.74082 0
M  V30 4212 O 422.258 -1.49446 1.04747 0
M  V30 4213 C 422.309 1.01824 3.46863 0
M  V30 4214 O 422.03 2.39919 3.66566 0
M  V30 4215 C 423.531 0.739216 4.37093 0
M  V30 4216 H 420.751 0.260394 0.618414 0
M  V30 4217 H 423.295 1.34311 1.54211 0
M  V30 4218 H 421.45 0.427343 3.85036 0
M  V30 4219 H 421.864 2.50784 4.6066 0
M  V30 4220 H 423.338 1.00744 5.42729 0
M  V30 4221 H 423.815 -0.326746 4.37983 0
M  V30 4222 H 424.421 1.31173 4.04566 0
M  V30 4223 N 422.737 -1.36956 0.779787 0
M  V30 4224 C 423.7 -2.2851 0.177662 0
M  V30 4225 C 424.7 -1.48393 -0.619377 0
M  V30 4226 O 425.89 -1.68505 -0.441785 0
M  V30 4227 C 423.022 -3.32428 -0.755279 0
M  V30 4228 H 424.215 -2.83269 0.984823 0
M  V30 4229 H 421.768 -1.46358 0.548544 0
M  V30 4230 H 422.503 -2.82808 -1.58714 0
M  V30 4231 H 422.288 -3.91659 -0.185817 0
M  V30 4232 H 423.778 -4.00824 -1.17174 0
M  V30 4233 N 424.215 -0.530993 -1.48385 0
M  V30 4234 C 425.492 0.0671788 -1.95485 0
M  V30 4235 C 425.872 1.51191 -1.47324 0
M  V30 4236 O 425.22 2.17507 -0.700202 0
M  V30 4237 C 425.43 -0.0511206 -3.48963 0
M  V30 4238 C 426.778 0.107632 -4.24464 0
M  V30 4239 O 427.802 0.0226248 -3.56193 0
M  V30 4240 O 426.661 0.285972 -5.45751 0
M  V30 4241 H 423.755 0.0787365 -0.823243 0
M  V30 4242 H 426.301 -0.595662 -1.58902 0
M  V30 4243 H 425.073 -1.05747 -3.7674 0
M  V30 4244 H 424.696 0.650525 -3.92242 0
M  V30 4245 N 425.693 1.55336 -0.266172 0
M  V30 4246 C 426.641 2.23587 0.641228 0
M  V30 4247 C 427.635 1.22986 1.16494 0
M  V30 4248 O 428.841 1.40943 1.1196 0
M  V30 4249 H 425.216 0.717452 0.225315 0
M  V30 4250 H 427.187 2.9837 0.0426561 0
M  V30 4251 C 425.936 2.96369 1.81826 0
M  V30 4252 H 425.259 3.73563 1.42445 0
M  V30 4253 H 426.699 3.47459 2.42998 0
M  V30 4254 C 425.158 2.0133 2.70125 0
M  V30 4255 O 425.688 1.55875 3.70224 0
M  V30 4256 N 423.894 1.6802 2.37102 0
M  V30 4257 H 423.441 2.05181 1.55751 0
M  V30 4258 H 423.399 1.047 2.96454 0
M  V30 4259 N 427.171 -0.0066808 1.57599 0
M  V30 4260 C 428.419 -0.691552 1.899 0
M  V30 4261 C 428.74 -1.74682 0.866672 0
M  V30 4262 O 428.01 -1.95661 -0.0968189 0
M  V30 4263 H 426.59 -0.258416 0.700878 0
M  V30 4264 H 429.252 0.0326655 1.94873 0
M  V30 4265 H 428.348 -1.16702 2.8946 0
M  V30 4266 N 428.649 -1.55105 -0.279332 0
M  V30 4267 C 429.896 -1.75412 -1.01177 0
M  V30 4268 C 430.224 -0.551728 -1.86511 0
M  V30 4269 O 429.479 0.465919 -1.90073 0
M  V30 4270 C 429.778 -3.0086 -1.92919 0
M  V30 4271 C 429.444 -4.33689 -1.23387 0
M  V30 4272 C 428.106 -4.69792 -1.04159 0
M  V30 4273 C 430.458 -5.15941 -0.738562 0
M  V30 4274 C 427.786 -5.85707 -0.341166 0
M  V30 4275 C 430.138 -6.32579 -0.0517636 0
M  V30 4276 C 428.802 -6.67326 0.152292 0
M  V30 4277 H 428.072 -0.641879 -0.370233 0
M  V30 4278 H 430.719 -1.89373 -0.284627 0
M  V30 4279 H 429.024 -2.81773 -2.72234 0
M  V30 4280 H 430.721 -3.13768 -2.49701 0
M  V30 4281 H 427.311 -4.05309 -1.39364 0
M  V30 4282 H 431.495 -4.8853 -0.874764 0
M  V30 4283 H 426.751 -6.11157 -0.172287 0
M  V30 4284 H 430.925 -6.9557 0.339828 0
M  V30 4285 H 428.552 -7.56998 0.697014 0
M  V30 4286 N 430.127 0.543554 -1.4793 0
M  V30 4287 C 431.375 1.29752 -1.54948 0
M  V30 4288 C 431.696 1.93764 -0.219242 0
M  V30 4289 O 430.966 1.80639 0.75805 0
M  V30 4290 H 429.546 0.481874 -0.570795 0
M  V30 4291 H 432.208 0.633636 -1.84312 0
M  V30 4292 H 431.304 2.08392 -2.32334 0
M  V30 4293 N 431.605 1.3629 0.791371 0
M  V30 4294 C 432.833 1.33562 1.58016 0
M  V30 4295 C 433.248 -0.0835616 1.88615 0
M  V30 4296 O 432.605 -1.0399 1.49974 0
M  V30 4297 C 432.656 2.15517 2.90232 0
M  V30 4298 O 432.377 3.51902 2.60953 0
M  V30 4299 C 433.878 2.20546 3.84544 0
M  V30 4300 H 431.098 0.458226 0.490173 0
M  V30 4301 H 433.642 1.79361 0.982345 0
M  V30 4302 H 431.797 1.73278 3.46487 0
M  V30 4303 H 432.211 3.94644 3.4548 0
M  V30 4304 H 433.685 2.82252 4.74382 0
M  V30 4305 H 434.162 1.20838 4.2225 0
M  V30 4306 H 434.768 2.63013 3.34222 0
M  V30 4307 N 433.083 -1.0153 1.20538 0
M  V30 4308 C 434.046 -2.0826 0.957098 0
M  V30 4309 C 435.046 -1.60657 -0.0678655 0
M  V30 4310 O 436.236 -1.73385 0.168332 0
M  V30 4311 C 433.368 -3.38033 0.441188 0
M  V30 4312 H 434.561 -2.31719 1.90384 0
M  V30 4313 H 432.114 -1.1835 1.02093 0
M  V30 4314 H 432.849 -3.20249 -0.510961 0
M  V30 4315 H 432.634 -3.73911 1.18038 0
M  V30 4316 H 434.124 -4.16613 0.287009 0
M  V30 4317 N 434.561 -1.01147 -1.20859 0
M  V30 4318 C 435.491 -0.597663 -2.25722 0
M  V30 4319 C 436.472 0.384744 -1.65692 0
M  V30 4320 O 437.657 0.271303 -1.92296 0
M  V30 4321 C 434.787 0.0700149 -3.47229 0
M  V30 4322 C 433.741 -0.832843 -4.19819 0
M  V30 4323 C 433.067 -0.0312202 -5.34691 0
M  V30 4324 C 434.367 -2.1385 -4.76514 0
M  V30 4325 H 436.061 -1.47423 -2.60589 0
M  V30 4326 H 433.607 -0.710301 -1.25263 0
M  V30 4327 H 435.56 0.37103 -4.19763 0
M  V30 4328 H 434.284 0.981259 -3.11511 0
M  V30 4329 H 432.943 -1.11778 -3.49144 0
M  V30 4330 H 432.591 0.881515 -4.95215 0
M  V30 4331 H 432.291 -0.632434 -5.84187 0
M  V30 4332 H 433.815 0.26346 -6.10031 0
M  V30 4333 H 435.229 -1.9002 -5.40893 0
M  V30 4334 H 433.626 -2.69012 -5.36426 0
M  V30 4335 H 434.696 -2.80495 -3.95538 0
M  V30 4336 N 436.039 1.36541 -0.78704 0
M  V30 4337 C 436.969 2.32659 -0.197992 0
M  V30 4338 C 437.95 1.56533 0.665697 0
M  V30 4339 O 439.135 1.84698 0.60001 0
M  V30 4340 C 436.265 3.40778 0.669901 0
M  V30 4341 C 435.219 4.27897 -0.0937039 0
M  V30 4342 C 434.545 5.27163 0.894629 0
M  V30 4343 C 435.845 5.06334 -1.28154 0
M  V30 4344 H 437.539 2.82171 -1.00099 0
M  V30 4345 H 435.085 1.35665 -0.482793 0
M  V30 4346 H 437.038 4.07008 1.09191 0
M  V30 4347 H 435.762 2.89827 1.50558 0
M  V30 4348 H 434.421 3.6322 -0.49666 0
M  V30 4349 H 434.069 4.72486 1.72527 0
M  V30 4350 H 433.769 5.86317 0.388149 0
M  V30 4351 H 435.293 5.96266 1.31525 0
M  V30 4352 H 436.707 5.65617 -0.93541 0
M  V30 4353 H 435.104 5.74888 -1.72115 0
M  V30 4354 H 436.174 4.38114 -2.07807 0
M  V30 4355 N 437.518 0.538854 1.48102 0
M  V30 4356 C 438.748 0.0122958 2.06596 0
M  V30 4357 C 439.156 -1.27861 1.39457 0
M  V30 4358 O 438.499 -1.77348 0.478907 0
M  V30 4359 C 438.561 -0.273131 3.58461 0
M  V30 4360 C 438.225 0.92561 4.47528 0
M  V30 4361 C 439.222 1.82637 4.86765 0
M  V30 4362 C 436.907 1.13511 4.89306 0
M  V30 4363 C 438.901 2.92047 5.66558 0
M  V30 4364 C 436.588 2.23233 5.68868 0
M  V30 4365 C 437.586 3.12333 6.07402 0
M  V30 4366 O 437.274 4.20155 6.85365 0
M  V30 4367 H 437.006 0.0344283 0.675123 0
M  V30 4368 H 439.56 0.746494 1.91355 0
M  V30 4369 H 437.79 -1.06141 3.71848 0
M  V30 4370 H 439.479 -0.742842 3.99045 0
M  V30 4371 H 440.245 1.67649 4.55103 0
M  V30 4372 H 436.124 0.450835 4.5879 0
M  V30 4373 H 439.668 3.6162 5.96554 0
M  V30 4374 H 435.565 2.38201 5.99942 0
M  V30 4375 H 436.333 4.17975 7.03732 0
M  V30 4376 N 438.996 -1.55193 0.274407 0
M  V30 4377 C 440.221 -2.04446 -0.348824 0
M  V30 4378 C 440.646 -1.15149 -1.48735 0
M  V30 4379 O 440.004 -0.149952 -1.80679 0
M  V30 4380 C 440.052 -3.51431 -0.808009 0
M  V30 4381 O 439.156 -3.65225 -1.91531 0
M  V30 4382 H 438.497 -0.66006 -0.0722276 0
M  V30 4383 H 441.027 -2.00481 0.408498 0
M  V30 4384 H 441.037 -3.92781 -1.10395 0
M  V30 4385 H 439.712 -4.15892 0.0249865 0
M  V30 4386 H 438.289 -3.35778 -1.62196 0
M  V30 4387 N 440.474 -0.00167713 -1.576 0
M  V30 4388 C 441.722 0.681471 -1.90264 0
M  V30 4389 C 442.043 1.7422 -0.875924 0
M  V30 4390 O 441.313 1.95709 0.0864412 0
M  V30 4391 H 439.893 0.254696 -0.702239 0
M  V30 4392 H 442.555 -0.0429996 -1.94853 0
M  V30 4393 H 441.651 1.15166 -2.90075 0
M  V30 4394 N 441.952 1.55251 0.271103 0
M  V30 4395 C 443.18 1.79974 1.02064 0
M  V30 4396 C 443.595 0.574003 1.79863 0
M  V30 4397 O 442.952 -0.456962 1.76686 0
M  V30 4398 C 443.003 3.02603 1.97772 0
M  V30 4399 O 442.724 4.20443 1.23124 0
M  V30 4400 C 444.225 3.39944 2.84522 0
M  V30 4401 H 441.445 0.599489 0.301419 0
M  V30 4402 H 443.989 2.02268 0.301313 0
M  V30 4403 H 442.144 2.8243 2.65165 0
M  V30 4404 H 442.558 4.89783 1.87651 0
M  V30 4405 H 444.032 4.28915 3.47471 0
M  V30 4406 H 444.509 2.59432 3.54389 0
M  V30 4407 H 445.115 3.62383 2.22618 0
M  V30 4408 N 443.43 -0.535701 1.48216 0
M  V30 4409 C 444.846 -0.863701 1.3421 0
M  V30 4410 C 445.046 -1.98458 0.34879 0
M  V30 4411 O 444.102 -2.51432 -0.23204 0
M  V30 4412 C 445.415 -1.23662 2.74095 0
M  V30 4413 C 446.963 -1.34683 2.82541 0
M  V30 4414 C 447.438 -1.75322 4.23115 0
M  V30 4415 N 448.929 -1.82434 4.2576 0
M  V30 4416 C 449.664 -2.15252 5.31464 0
M  V30 4417 N 449.16 -2.46533 6.47452 0
M  V30 4418 N 450.953 -2.16209 5.18855 0
M  V30 4419 H 443.104 0.203965 2.11418 0
M  V30 4420 H 445.367 0.0286033 0.947568 0
M  V30 4421 H 445.073 -0.486674 3.48316 0
M  V30 4422 H 444.947 -2.18805 3.07253 0
M  V30 4423 H 447.334 -2.08756 2.08579 0
M  V30 4424 H 447.415 -0.376756 2.5301 0
M  V30 4425 H 447.059 -1.01812 4.97591 0
M  V30 4426 H 446.989 -2.7337 4.50085 0
M  V30 4427 H 449.48 -1.6056 3.42095 0
M  V30 4428 H 449.793 -2.70662 7.23852 0
M  V30 4429 H 448.138 -2.44065 6.50736 0
M  V30 4430 H 451.329 -1.91224 4.2726 0
M  V30 4431 H 451.502 -2.41453 6.01335 0
M  V30 4432 N 444.908 -1.36708 -0.784132 0
M  V30 4433 C 446.156 -1.30972 -1.53918 0
M  V30 4434 C 446.477 0.109086 -1.94695 0
M  V30 4435 O 445.747 1.05048 -1.65353 0
M  V30 4436 H 444.327 -0.481819 -0.570841 0
M  V30 4437 H 446.989 -1.71063 -0.934002 0
M  V30 4438 H 446.085 -1.94061 -2.44431 0
M  V30 4439 N 446.386 1.0089 -1.21074 0
M  V30 4440 C 447.611 1.78727 -1.05221 0
M  V30 4441 C 448.036 1.83932 0.393795 0
M  V30 4442 O 447.394 1.28004 1.28393 0
M  V30 4443 C 447.442 3.20665 -1.64944 0
M  V30 4444 O 446.546 4.02632 -0.892273 0
M  V30 4445 H 445.887 0.550973 -0.370574 0
M  V30 4446 H 448.417 1.26847 -1.60534 0
M  V30 4447 H 448.427 3.71352 -1.69002 0
M  V30 4448 H 447.102 3.16191 -2.70177 0
M  V30 4449 H 445.679 3.61207 -0.926492 0
M  V30 4450 N 447.864 1.01787 1.20321 0
M  V30 4451 C 449.141 0.622978 1.85414 0
M  V30 4452 C 449.521 -0.898887 1.91006 0
M  V30 4453 O 448.869 -1.79112 1.41884 0
M  V30 4454 C 449.079 1.27226 3.24984 0
M  V30 4455 C 450.427 1.3885 4.01255 0
M  V30 4456 O 451.451 1.22857 3.34342 0
M  V30 4457 O 450.31 1.64705 5.2109 0
M  V30 4458 H 447.404 0.215116 0.798533 0
M  V30 4459 H 449.95 1.11533 1.27901 0
M  V30 4460 H 448.722 2.31209 3.15687 0
M  V30 4461 H 448.345 0.767069 3.90131 0
M  V30 4462 N 449.342 -1.36122 0.79427 0
M  V30 4463 C 450.588 -1.99846 0.378542 0
M  V30 4464 C 450.943 -1.61898 -1.03955 0
M  V30 4465 O 450.236 -0.866013 -1.70912 0
M  V30 4466 C 450.43 -3.5409 0.48527 0
M  V30 4467 C 450.259 -4.0702 1.91219 0
M  V30 4468 C 449.029 -4.36944 2.53787 0
M  V30 4469 C 451.227 -4.26435 2.87502 0
M  V30 4470 N 449.209 -4.75727 3.88017 0
M  V30 4471 C 450.58 -4.68077 4.06576 0
M  V30 4472 C 452.635 -4.08616 2.84495 0
M  V30 4473 C 451.338 -4.93765 5.23057 0
M  V30 4474 C 453.364 -4.35453 4.00169 0
M  V30 4475 C 452.726 -4.77355 5.17988 0
M  V30 4476 H 448.825 -0.759549 0.186034 0
M  V30 4477 H 451.409 -1.65043 1.0329 0
M  V30 4478 H 449.58 -3.88151 -0.139023 0
M  V30 4479 H 451.312 -4.04675 0.0453192 0
M  V30 4480 H 448.067 -4.26822 2.05231 0
M  V30 4481 H 448.491 -4.99396 4.57092 0
M  V30 4482 H 453.133 -3.75373 1.94564 0
M  V30 4483 H 450.851 -5.25887 6.1357 0
M  V30 4484 H 454.437 -4.2323 3.99208 0
M  V30 4485 H 453.317 -4.97718 6.06008 0
M  V30 4486 N 450.82 -0.546701 -1.47814 0
M  V30 4487 C 452.236 -0.205717 -1.58269 0
M  V30 4488 C 452.436 1.29153 -1.54667 0
M  V30 4489 O 451.492 2.07098 -1.44453 0
M  V30 4490 C 452.805 -0.823065 -2.89216 0
M  V30 4491 C 454.353 -0.793328 -3.02779 0
M  V30 4492 C 454.828 -1.38955 -4.36412 0
M  V30 4493 N 456.319 -1.35227 -4.43021 0
M  V30 4494 C 457.054 -1.78333 -5.44963 0
M  V30 4495 N 456.55 -2.29246 -6.53772 0
M  V30 4496 N 458.343 -1.69467 -5.35945 0
M  V30 4497 H 450.494 -1.5196 -1.48398 0
M  V30 4498 H 452.757 -0.633078 -0.705632 0
M  V30 4499 H 452.463 -1.8749 -2.97558 0
M  V30 4500 H 452.337 -0.309915 -3.75925 0
M  V30 4501 H 454.724 0.249784 -2.94041 0
M  V30 4502 H 454.805 -1.34412 -2.17639 0
M  V30 4503 H 454.449 -2.43168 -4.45906 0
M  V30 4504 H 454.379 -0.814291 -5.20266 0
M  V30 4505 H 456.87 -0.979739 -3.64979 0
M  V30 4506 H 457.183 -2.60089 -7.27718 0
M  V30 4507 H 455.528 -2.3325 -6.5469 0
M  V30 4508 H 458.719 -1.29477 -4.49837 0
M  V30 4509 H 458.892 -2.03381 -6.15256 0
M  V30 4510 N 452.299 1.55045 -0.282633 0
M  V30 4511 C 453.209 2.26491 0.61147 0
M  V30 4512 C 454.225 1.29348 1.16384 0
M  V30 4513 O 455.401 1.62298 1.19253 0
M  V30 4514 C 452.466 2.97779 1.77563 0
M  V30 4515 C 451.527 4.10418 1.25919 0
M  V30 4516 C 450.76 4.78297 2.36786 0
M  V30 4517 O 450.983 4.45426 3.56303 0
M  V30 4518 O 449.917 5.66089 2.04517 0
M  V30 4519 H 453.743 3.03683 0.0324615 0
M  V30 4520 H 451.328 1.49317 -0.0497576 0
M  V30 4521 H 453.21 3.42554 2.45427 0
M  V30 4522 H 451.885 2.23498 2.34159 0
M  V30 4523 H 450.792 3.70082 0.546797 0
M  V30 4524 H 452.125 4.86622 0.738887 0
M  V30 4525 N 453.777 0.010035 1.57597 0
M  V30 4526 C 454.727 -0.986858 2.05536 0
M  V30 4527 C 455.711 -1.29711 0.952042 0
M  V30 4528 O 456.903 -1.28641 1.21575 0
M  V30 4529 C 454.032 -2.2756 2.57043 0
M  V30 4530 C 453.118 -1.99455 3.74271 0
M  V30 4531 N 453.509 -1.41546 4.85591 0
M  V30 4532 C 451.807 -2.29547 3.82393 0
M  V30 4533 C 452.508 -1.3014 5.66956 0
M  V30 4534 N 451.484 -1.79044 5.13268 0
M  V30 4535 H 455.286 -0.533778 2.89012 0
M  V30 4536 H 452.8 -0.195432 1.6122 0
M  V30 4537 H 454.797 -2.99829 2.89669 0
M  V30 4538 H 453.457 -2.73512 1.7499 0
M  V30 4539 H 454.468 -1.09294 5.06236 0
M  V30 4540 H 451.145 -2.78304 3.11213 0
M  V30 4541 H 452.535 -0.855237 6.66435 0
M  V30 4542 N 455.255 -1.55392 -0.262866 0
M  V30 4543 C 456.48 -1.80847 -1.01533 0
M  V30 4544 C 456.905 -0.584946 -1.78774 0
M  V30 4545 O 456.263 0.465701 -1.75217 0
M  V30 4546 C 456.311 -3.03866 -1.94159 0
M  V30 4547 O 455.415 -2.79662 -3.03089 0
M  V30 4548 H 454.756 -0.597441 -0.289759 0
M  V30 4549 H 457.286 -2.02553 -0.288698 0
M  V30 4550 H 457.296 -3.32872 -2.35924 0
M  V30 4551 H 455.971 -3.92564 -1.37354 0
M  V30 4552 H 454.548 -2.61781 -2.65566 0
M  V30 4553 N 456.733 0.527833 -1.48498 0
M  V30 4554 C 457.696 1.61439 -1.62696 0
M  V30 4555 C 458.696 1.52824 -0.500136 0
M  V30 4556 O 459.886 1.56456 -0.765976 0
M  V30 4557 C 457.018 3.01063 -1.59918 0
M  V30 4558 H 458.211 1.50189 -2.59583 0
M  V30 4559 H 455.764 0.750055 -1.37127 0
M  V30 4560 H 456.499 3.17818 -0.645163 0
M  V30 4561 H 456.284 3.08725 -2.41726 0
M  V30 4562 H 457.774 3.80057 -1.73051 0
M  V30 4563 N 458.211 1.37122 0.776871 0
M  V30 4564 C 459.439 1.3523 1.5659 0
M  V30 4565 C 459.854 -0.0635518 1.88693 0
M  V30 4566 O 459.211 -1.02394 1.51069 0
M  V30 4567 C 459.262 2.18583 2.8793 0
M  V30 4568 O 458.983 3.5465 2.57206 0
M  V30 4569 C 460.484 2.24612 3.82183 0
M  V30 4570 H 457.704 0.4634 0.485285 0
M  V30 4571 H 460.248 1.80392 0.963266 0
M  V30 4572 H 458.403 1.76943 3.4463 0
M  V30 4573 H 458.817 3.98286 3.41275 0
M  V30 4574 H 460.291 2.87267 4.71361 0
M  V30 4575 H 460.768 1.25309 4.20944 0
M  V30 4576 H 461.374 2.66543 3.31414 0
M  V30 4577 N 459.689 -1.00246 1.21608 0
M  V30 4578 C 461.105 -1.26435 0.973975 0
M  V30 4579 C 461.305 -1.98642 -0.338143 0
M  V30 4580 O 460.361 -2.29026 -1.06317 0
M  V30 4581 C 461.674 -2.08551 2.16626 0
M  V30 4582 C 463.222 -2.21769 2.20879 0
M  V30 4583 C 463.697 -3.07267 3.39633 0
M  V30 4584 N 465.188 -3.14855 3.39736 0
M  V30 4585 C 465.923 -3.81274 4.28273 0
M  V30 4586 N 465.419 -4.497 5.27012 0
M  V30 4587 N 467.212 -3.7794 4.16074 0
M  V30 4588 H 459.363 -0.518089 2.05984 0
M  V30 4589 H 461.626 -0.291368 0.902113 0
M  V30 4590 H 461.332 -1.62847 3.11727 0
M  V30 4591 H 461.206 -3.09303 2.15897 0
M  V30 4592 H 463.593 -2.66691 1.26332 0
M  V30 4593 H 463.674 -1.20478 2.25652 0
M  V30 4594 H 463.318 -2.63047 4.34475 0
M  V30 4595 H 463.248 -4.08678 3.321 0
M  V30 4596 H 465.739 -2.66147 2.6828 0
M  V30 4597 H 466.052 -4.98092 5.90867 0
M  V30 4598 H 464.397 -4.48479 5.30935 0
M  V30 4599 H 467.588 -3.23638 3.38195 0
M  V30 4600 H 467.761 -4.29424 4.85282 0
M  V30 4601 N 461.167 -1.02423 -1.1978 0
M  V30 4602 C 462.416 -0.713265 -1.88667 0
M  V30 4603 C 462.729 0.7609 -1.80193 0
M  V30 4604 O 463.935 1.18473 -2.44288 0
M  V30 4605 C 462.391 -1.22545 -3.38394 0
M  V30 4606 C 461.999 -2.72706 -3.55437 0
M  V30 4607 C 463.743 -0.990257 -4.12788 0
M  V30 4608 C 461.65 -3.17367 -4.99031 0
M  V30 4609 H 460.58 -0.263105 -0.706606 0
M  V30 4610 H 463.231 -1.23792 -1.35454 0
M  V30 4611 H 461.613 -0.628732 -3.90977 0
M  V30 4612 H 462.787 -3.37993 -3.13205 0
M  V30 4613 H 461.102 -2.94453 -2.94425 0
M  V30 4614 H 463.699 -1.29926 -5.18675 0
M  V30 4615 H 464.042 0.0730761 -4.16236 0
M  V30 4616 H 464.575 -1.55074 -3.66329 0
M  V30 4617 H 461.314 -4.23009 -5.00743 0
M  V30 4618 H 460.834 -2.56805 -5.42044 0
M  V30 4619 H 462.513 -3.10441 -5.67658 0
M  V30 4620 N 462.645 1.35699 -0.801477 0
M  V30 4621 C 463.922 1.9324 -0.302937 0
M  V30 4622 C 464.302 1.73209 1.20672 0
M  V30 4623 O 463.65 1.09809 2.00385 0
M  V30 4624 C 463.86 3.41728 -0.708747 0
M  V30 4625 C 465.208 4.18868 -0.695328 0
M  V30 4626 O 466.232 3.5022 -0.649971 0
M  V30 4627 O 465.091 5.41342 -0.749081 0
M  V30 4628 H 462.185 0.82331 -0.0780367 0
M  V30 4629 H 464.731 1.44806 -0.884832 0
M  V30 4630 H 463.503 3.50015 -1.74944 0
M  V30 4631 H 463.126 3.97471 -0.101384 0
M  V30 4632 N 464.123 0.554532 1.47522 0
M  V30 4633 C 465.4 -0.0360704 1.95567 0
M  V30 4634 C 465.78 -1.48828 1.49711 0
M  V30 4635 O 465.128 -2.16366 0.734717 0
M  V30 4636 C 465.338 0.106631 3.48837 0
M  V30 4637 C 466.686 -0.0400899 4.24581 0
M  V30 4638 O 467.71 0.0340453 3.56184 0
M  V30 4639 O 466.569 -0.199111 5.46137 0
M  V30 4640 H 463.663 -0.0656294 0.824392 0
M  V30 4641 H 466.209 0.620867 1.57935 0
M  V30 4642 H 464.981 1.11727 3.7501 0
M  V30 4643 H 464.604 -0.58804 3.93227 0
M  V30 4644 N 465.601 -1.54893 0.290851 0
M  V30 4645 C 466.531 -2.26103 -0.583084 0
M  V30 4646 C 467.512 -1.25684 -1.14619 0
M  V30 4647 O 468.697 -1.54436 -1.17741 0
M  V30 4648 C 465.827 -2.99409 -1.75987 0
M  V30 4649 C 464.781 -4.0689 -1.32758 0
M  V30 4650 C 464.107 -4.67856 -2.58872 0
M  V30 4651 C 465.407 -5.20215 -0.46624 0
M  V30 4652 H 467.101 -2.99398 0.0108214 0
M  V30 4653 H 464.647 -1.43998 0.00664468 0
M  V30 4654 H 466.6 -3.47943 -2.37727 0
M  V30 4655 H 465.324 -2.23675 -2.37985 0
M  V30 4656 H 463.983 -3.59191 -0.733299 0
M  V30 4657 H 463.631 -3.88772 -3.19163 0
M  V30 4658 H 463.331 -5.40438 -2.30653 0
M  V30 4659 H 464.855 -5.19147 -3.21433 0
M  V30 4660 H 466.269 -5.64704 -0.989047 0
M  V30 4661 H 464.666 -5.99455 -0.27826 0
M  V30 4662 H 465.736 -4.82198 0.511173 0
M  V30 4663 N 467.08 -0.0183926 -1.57589 0
M  V30 4664 C 468.013 1.00148 -2.0505 0
M  V30 4665 C 468.991 1.32387 -0.944058 0
M  V30 4666 O 470.175 1.44237 -1.21358 0
M  V30 4667 C 467.302 2.32435 -2.46357 0
M  V30 4668 C 466.348 2.15731 -3.67916 0
M  V30 4669 S 467.181 1.46613 -5.15039 0
M  V30 4670 C 468.337 2.80293 -5.59631 0
M  V30 4671 H 468.57 0.597429 -2.91235 0
M  V30 4672 H 466.103 0.193002 -1.53189 0
M  V30 4673 H 468.061 3.0849 -2.70822 0
M  V30 4674 H 466.722 2.69975 -1.60537 0
M  V30 4675 H 465.915 3.13502 -3.9463 0
M  V30 4676 H 465.517 1.4782 -3.43548 0
M  V30 4677 H 467.809 3.76557 -5.63215 0
M  V30 4678 H 468.752 2.58256 -6.59325 0
M  V30 4679 H 469.16 2.85047 -4.87246 0
M  V30 4680 N 468.558 1.5553 0.254621 0
M  V30 4681 C 469.488 1.9268 1.31897 0
M  V30 4682 C 470.469 0.790797 1.506 0
M  V30 4683 O 471.654 1.05045 1.63337 0
M  V30 4684 C 468.784 2.21477 2.67517 0
M  V30 4685 C 467.738 3.37256 2.63519 0
M  V30 4686 C 467.064 3.51576 4.02862 0
M  V30 4687 C 468.364 4.73157 2.21179 0
M  V30 4688 H 470.058 2.81832 1.01051 0
M  V30 4689 H 467.604 1.35599 0.484662 0
M  V30 4690 H 469.557 2.46055 3.42104 0
M  V30 4691 H 468.281 1.29144 2.99982 0
M  V30 4692 H 466.94 3.12675 1.9139 0
M  V30 4693 H 466.588 2.56676 4.32581 0
M  V30 4694 H 466.288 4.2943 4.01078 0
M  V30 4695 H 467.812 3.78467 4.79161 0
M  V30 4696 H 469.226 4.97158 2.85494 0
M  V30 4697 H 467.623 5.54058 2.30521 0
M  V30 4698 H 468.693 4.70739 1.16332 0
M  V30 4699 N 470.036 -0.519951 1.48776 0
M  V30 4700 C 470.983 -1.62352 1.64044 0
M  V30 4701 C 471.953 -1.58945 0.482251 0
M  V30 4702 O 473.138 -1.77219 0.706971 0
M  V30 4703 C 470.278 -3.00579 1.69547 0
M  V30 4704 C 469.391 -3.14145 2.96541 0
M  V30 4705 C 468.526 -4.42991 2.93142 0
M  V30 4706 C 467.565 -4.50122 4.14797 0
M  V30 4707 N 466.702 -5.7037 4.09418 0
M  V30 4708 H 471.542 -1.48643 2.58281 0
M  V30 4709 H 469.079 -0.723516 1.28077 0
M  V30 4710 H 471.037 -3.80671 1.70719 0
M  V30 4711 H 469.667 -3.13036 0.787918 0
M  V30 4712 H 468.719 -2.27239 3.05068 0
M  V30 4713 H 470.031 -3.15275 3.86527 0
M  V30 4714 H 469.185 -5.31385 2.92772 0
M  V30 4715 H 467.924 -4.44398 2.00902 0
M  V30 4716 H 466.929 -3.60133 4.15433 0
M  V30 4717 H 468.154 -4.50445 5.08208 0
M  V30 4718 H 466.1 -5.72655 3.20004 0
M  V30 4719 H 466.017 -5.73036 4.93119 0
M  V30 4720 H 467.285 -6.61023 4.13121 0
M  V30 4721 N 471.514 -1.37532 -0.769588 0
M  V30 4722 C 472.739 -1.36231 -1.56384 0
M  V30 4723 C 473.164 0.0495849 -1.88035 0
M  V30 4724 O 472.522 1.02723 -1.49391 0
M  V30 4725 C 472.57 -2.20986 -2.84952 0
M  V30 4726 O 471.674 -1.61597 -3.79421 0
M  V30 4727 H 471.015 -0.465387 -0.473615 0
M  V30 4728 H 473.545 -1.81085 -0.952342 0
M  V30 4729 H 473.555 -2.34277 -3.34034 0
M  V30 4730 H 472.23 -3.23612 -2.61243 0
M  V30 4731 H 470.807 -1.57359 -3.38072 0
M  V30 4732 N 472.992 0.995999 -1.22138 0
M  V30 4733 C 473.939 2.08551 -0.988687 0
M  V30 4734 C 474.909 1.65864 0.0885021 0
M  V30 4735 O 476.094 1.90704 -0.0604589 0
M  V30 4736 C 473.234 3.40374 -0.569191 0
M  V30 4737 C 472.347 3.96421 -1.71681 0
M  V30 4738 C 471.482 5.1639 -1.2456 0
M  V30 4739 C 470.521 5.64567 -2.36497 0
M  V30 4740 N 469.658 6.75777 -1.90445 0
M  V30 4741 H 474.498 2.2779 -1.92135 0
M  V30 4742 H 472.035 1.1168 -0.957388 0
M  V30 4743 H 473.993 4.16068 -0.307166 0
M  V30 4744 H 472.623 3.21145 0.326462 0
M  V30 4745 H 471.675 3.17628 -2.09324 0
M  V30 4746 H 472.987 4.2816 -2.55891 0
M  V30 4747 H 472.141 5.99362 -0.940774 0
M  V30 4748 H 470.88 4.86266 -0.373662 0
M  V30 4749 H 469.885 4.80185 -2.67772 0
M  V30 4750 H 471.11 5.96716 -3.24202 0
M  V30 4751 H 469.056 6.47443 -1.05609 0
M  V30 4752 H 468.973 7.06818 -2.68223 0
M  V30 4753 H 470.241 7.62262 -1.63022 0
M  V30 4754 N 474.47 1.03057 1.19235 0
M  V30 4755 C 475.7 0.746613 1.92638 0
M  V30 4756 C 476.108 -0.698708 1.75826 0
M  V30 4757 O 475.451 -1.487 1.07861 0
M  V30 4758 C 475.513 1.02024 3.44719 0
M  V30 4759 C 475.177 2.45745 3.85303 0
M  V30 4760 C 476.174 3.43887 3.8992 0
M  V30 4761 C 473.859 2.8019 4.16892 0
M  V30 4762 C 475.853 4.74529 4.2556 0
M  V30 4763 C 473.54 4.1104 4.52205 0
M  V30 4764 C 474.538 5.0802 4.56513 0
M  V30 4765 O 474.226 6.36527 4.91008 0
M  V30 4766 H 473.958 0.272401 0.618687 0
M  V30 4767 H 476.512 1.37853 1.52269 0
M  V30 4768 H 474.742 0.331184 3.85279 0
M  V30 4769 H 476.431 0.725677 3.9936 0
M  V30 4770 H 477.197 3.18614 3.65664 0
M  V30 4771 H 473.076 2.05382 4.12722 0
M  V30 4772 H 476.62 5.50222 4.28838 0
M  V30 4773 H 472.517 4.36086 4.7592 0
M  V30 4774 H 473.285 6.41025 5.08949 0
M  V30 4775 N 475.948 -1.35272 0.808662 0
M  V30 4776 C 476.911 -2.28082 0.226093 0
M  V30 4777 C 477.911 -1.49673 -0.587762 0
M  V30 4778 O 479.101 -1.69404 -0.405943 0
M  V30 4779 C 476.233 -3.33955 -0.684596 0
M  V30 4780 H 477.426 -2.81116 1.04469 0
M  V30 4781 H 474.979 -1.45162 0.579466 0
M  V30 4782 H 475.714 -2.86111 -1.5268 0
M  V30 4783 H 475.499 -3.91965 -0.102699 0
M  V30 4784 H 476.989 -4.03219 -1.08646 0
M  V30 4785 N 477.426 -0.562348 -1.47226 0
M  V30 4786 C 478.837 -0.130325 -1.86245 0
M  V30 4787 C 479.188 1.30128 -1.46838 0
M  V30 4788 O 478.313 1.97974 -0.873805 0
M  V30 4789 C 478.908 -0.229738 -3.3802 0
M  V30 4790 C 477.467 0.14728 -3.76112 0
M  V30 4791 C 476.614 -0.574971 -2.71274 0
M  V30 4792 H 479.565 -0.771773 -1.3867 0
M  V30 4793 H 479.586 0.550316 -3.76499 0
M  V30 4794 H 479.098 -1.27178 -3.66671 0
M  V30 4795 H 477.199 1.19023 -3.53078 0
M  V30 4796 H 477.312 -0.214858 -4.78618 0
M  V30 4797 H 475.676 -0.0174756 -2.54694 0
M  V30 4798 H 476.459 -1.61827 -3.02766 0
M  V30 4799 N 478.904 1.54736 -0.299062 0
M  V30 4800 C 480.181 1.92187 0.363802 0
M  V30 4801 C 480.561 1.22607 1.71845 0
M  V30 4802 O 479.909 0.361141 2.25628 0
M  V30 4803 C 480.119 3.45678 0.480377 0
M  V30 4804 C 481.467 4.17885 0.752147 0
M  V30 4805 O 482.491 3.51702 0.564264 0
M  V30 4806 O 481.35 5.35048 1.11294 0
M  V30 4807 H 478.444 0.801681 0.203066 0
M  V30 4808 H 480.99 1.66115 -0.346978 0
M  V30 4809 H 479.762 3.88443 -0.471999 0
M  V30 4810 H 479.385 3.77779 1.2397 0
M  V30 4811 N 480.382 0.0267497 1.57577 0
M  V30 4812 C 481.292 -0.971633 2.13533 0
M  V30 4813 C 482.308 -1.35868 1.08701 0
M  V30 4814 O 483.484 -1.44058 1.40746 0
M  V30 4815 C 480.549 -2.23622 2.64941 0
M  V30 4816 C 479.61 -1.90982 3.8448 0
M  V30 4817 C 478.843 -3.11411 4.33427 0
M  V30 4818 O 479.066 -4.23992 3.81558 0
M  V30 4819 O 478 -2.93848 5.25297 0
M  V30 4820 H 481.826 -0.525853 2.99113 0
M  V30 4821 H 479.411 -0.193712 1.48139 0
M  V30 4822 H 481.293 -2.97864 2.98086 0
M  V30 4823 H 479.968 -2.67386 1.82446 0
M  V30 4824 H 478.875 -1.14132 3.56265 0
M  V30 4825 H 480.208 -1.52036 4.6813 0
M  V30 4826 N 481.861 -1.55662 -0.24637 0
M  V30 4827 C 483.107 -1.77782 -0.975779 0
M  V30 4828 C 483.44 -0.592103 -1.84953 0
M  V30 4829 O 482.715 0.409588 -1.90138 0
M  V30 4830 C 482.998 -3.09788 -1.83584 0
M  V30 4831 C 482.851 -4.38764 -0.990241 0
M  V30 4832 C 484.17 -3.38029 -2.81823 0
M  V30 4833 H 481.289 -0.646789 -0.353317 0
M  V30 4834 H 483.931 -1.88398 -0.246248 0
M  V30 4835 H 482.081 -3.00869 -2.45784 0
M  V30 4836 H 483.753 -4.59675 -0.386897 0
M  V30 4837 H 481.996 -4.32798 -0.294626 0
M  V30 4838 H 482.667 -5.27514 -1.62584 0
M  V30 4839 H 485.143 -3.46915 -2.2976 0
M  V30 4840 H 484.019 -4.3161 -3.39122 0
M  V30 4841 H 484.28 -2.58968 -3.58313 0
M  V30 4842 N 483.339 0.512053 -1.4905 0
M  V30 4843 C 484.289 1.61142 -1.61298 0
M  V30 4844 C 485.273 1.53908 -0.46916 0
M  V30 4845 O 486.465 1.61625 -0.721547 0
M  V30 4846 C 483.594 2.998 -1.67256 0
M  V30 4847 C 482.68 3.12072 -2.87179 0
M  V30 4848 N 483.071 2.94263 -4.11391 0
M  V30 4849 C 481.369 3.43156 -2.84886 0
M  V30 4850 C 482.07 3.10426 -4.91946 0
M  V30 4851 N 481.046 3.38808 -4.251 0
M  V30 4852 H 484.848 1.46011 -2.55065 0
M  V30 4853 H 482.362 0.717934 -1.45669 0
M  V30 4854 H 484.359 3.78794 -1.74128 0
M  V30 4855 H 483.019 3.1601 -0.746195 0
M  V30 4856 H 484.03 2.70661 -4.41546 0
M  V30 4857 H 480.707 3.65611 -2.01581 0
M  V30 4858 H 482.097 3.01243 -6.00585 0
M  V30 4859 N 484.817 1.37938 0.762283 0
M  V30 4860 C 486.045 1.36883 1.55147 0
M  V30 4861 C 486.46 -0.0435348 1.8875 0
M  V30 4862 O 485.817 -1.00786 1.52146 0
M  V30 4863 C 485.868 2.21624 2.85596 0
M  V30 4864 O 485.589 3.57358 2.5343 0
M  V30 4865 C 487.09 2.28653 3.7978 0
M  V30 4866 H 484.31 0.468521 0.480343 0
M  V30 4867 H 486.854 1.81404 0.944079 0
M  V30 4868 H 485.009 1.80588 3.42734 0
M  V30 4869 H 485.423 4.01883 3.37032 0
M  V30 4870 H 486.897 2.9225 4.68288 0
M  V30 4871 H 487.374 1.29767 4.19592 0
M  V30 4872 H 487.98 2.70043 3.28568 0
M  V30 4873 N 486.295 -0.989507 1.22664 0
M  V30 4874 C 487.542 -1.72953 1.05325 0
M  V30 4875 C 487.87 -1.90104 -0.411168 0
M  V30 4876 O 487.125 -1.44386 -1.32103 0
M  V30 4877 C 487.424 -3.13649 1.71345 0
M  V30 4878 C 487.09 -3.16403 3.21248 0
M  V30 4879 C 485.752 -3.16862 3.62149 0
M  V30 4880 C 488.104 -3.12428 4.17179 0
M  V30 4881 C 485.432 -3.11051 4.97458 0
M  V30 4882 C 487.784 -3.08159 5.52468 0
M  V30 4883 C 486.448 -3.06935 5.92746 0
M  V30 4884 H 485.718 -0.632881 0.385412 0
M  V30 4885 H 488.365 -1.15863 1.52473 0
M  V30 4886 H 486.67 -3.74069 1.16532 0
M  V30 4887 H 488.367 -3.69658 1.55416 0
M  V30 4888 H 484.957 -3.16798 2.88682 0
M  V30 4889 H 489.141 -3.11221 3.86595 0
M  V30 4890 H 484.397 -3.0845 5.27891 0
M  V30 4891 H 488.571 -3.04039 6.26525 0
M  V30 4892 H 486.198 -3.02186 6.97558 0
M  V30 4893 N 487.773 -1.03688 -1.18687 0
M  V30 4894 C 488.721 -0.618292 -2.24232 0
M  V30 4895 C 489.715 0.353045 -1.6568 0
M  V30 4896 O 490.921 0.220749 -1.78641 0
M  V30 4897 H 487.296 -0.181711 -0.729716 0
M  V30 4898 H 489.267 -1.51893 -2.56848 0
M  V30 4899 C 488.016 0.00677342 -3.47699 0
M  V30 4900 H 487.339 -0.731692 -3.93047 0
M  V30 4901 H 488.779 0.262492 -4.23187 0
M  V30 4902 C 487.238 1.25572 -3.12623 0
M  V30 4903 O 487.768 2.34691 -3.26011 0
M  V30 4904 N 485.974 1.14755 -2.66982 0
M  V30 4905 H 485.521 0.259601 -2.56289 0
M  V30 4906 H 485.479 1.98412 -2.43885 0
M  V30 4907 N 489.251 1.34841 -0.815825 0
M  V30 4908 C 490.476 2.03261 -0.41226 0
M  V30 4909 C 490.901 1.61055 0.971751 0
M  V30 4910 O 490.259 0.7917 1.63101 0
M  V30 4911 C 490.307 3.56914 -0.514289 0
M  V30 4912 O 489.411 4.09728 0.468675 0
M  V30 4913 H 488.752 0.641664 -0.170771 0
M  V30 4914 H 491.282 1.72241 -1.10427 0
M  V30 4915 H 491.292 4.06156 -0.387457 0
M  V30 4916 H 489.967 3.86982 -1.52375 0
M  V30 4917 H 488.544 3.71681 0.301316 0
M  V30 4918 N 490.729 0.570148 1.46925 0
M  V30 4919 C 491.659 -0.158274 2.32963 0
M  V30 4920 C 492.64 -0.896093 1.44583 0
M  V30 4921 O 493.825 -0.874022 1.7342 0
M  V30 4922 C 490.955 -1.18055 3.26619 0
M  V30 4923 C 489.909 -0.558379 4.24342 0
M  V30 4924 C 489.235 -1.68623 5.07415 0
M  V30 4925 C 490.535 0.496295 5.19937 0
M  V30 4926 H 492.229 0.560046 2.94115 0
M  V30 4927 H 489.775 0.270775 1.41431 0
M  V30 4928 H 491.728 -1.69841 3.85658 0
M  V30 4929 H 490.452 -1.92899 2.63548 0
M  V30 4930 H 489.111 -0.0617157 3.66548 0
M  V30 4931 H 488.759 -2.42402 4.40738 0
M  V30 4932 H 488.459 -1.27564 5.73586 0
M  V30 4933 H 489.983 -2.20709 5.69315 0
M  V30 4934 H 491.397 0.0640052 5.73264 0
M  V30 4935 H 489.794 0.82649 5.94381 0
M  V30 4936 H 490.864 1.38735 4.6463 0
M  V30 4937 N 492.207 -1.54576 0.307264 0
M  V30 4938 C 493.137 -2.26708 -0.55907 0
M  V30 4939 C 494.118 -1.26893 -1.1328 0
M  V30 4940 O 495.303 -1.55677 -1.16097 0
M  V30 4941 C 492.433 -3.01259 -1.72801 0
M  V30 4942 C 491.387 -4.08275 -1.28435 0
M  V30 4943 C 490.713 -4.70575 -2.53895 0
M  V30 4944 C 492.013 -5.2068 -0.411038 0
M  V30 4945 H 493.707 -2.9937 0.042576 0
M  V30 4946 H 491.253 -1.43983 0.0219173 0
M  V30 4947 H 493.206 -3.50444 -2.34023 0
M  V30 4948 H 491.93 -2.26187 -2.356 0
M  V30 4949 H 490.589 -3.59949 -0.695161 0
M  V30 4950 H 490.237 -3.92136 -3.15021 0
M  V30 4951 H 489.937 -5.42854 -2.24908 0
M  V30 4952 H 491.461 -5.22527 -3.15908 0
M  V30 4953 H 492.875 -5.65721 -0.929097 0
M  V30 4954 H 491.272 -5.99716 -0.214664 0
M  V30 4955 H 492.342 -4.81629 0.562287 0
M  V30 4956 N 493.685 -0.035106 -1.57561 0
M  V30 4957 C 494.617 0.973604 -2.07494 0
M  V30 4958 C 495.63 1.28504 -0.999534 0
M  V30 4959 O 496.819 1.24864 -1.27559 0
M  V30 4960 C 493.919 2.29945 -2.48955 0
M  V30 4961 C 493.092 2.1723 -3.79644 0
M  V30 4962 C 492.151 3.328 -4.07592 0
M  V30 4963 O 491.177 3.09418 -4.77754 0
M  V30 4964 N 492.379 4.56779 -3.58236 0
M  V30 4965 H 495.144 0.547525 -2.94656 0
M  V30 4966 H 492.705 0.151515 -1.61189 0
M  V30 4967 H 494.697 3.06097 -2.64739 0
M  V30 4968 H 493.267 2.64173 -1.67126 0
M  V30 4969 H 492.487 1.25768 -3.73599 0
M  V30 4970 H 493.775 2.05945 -4.65257 0
M  V30 4971 H 493.173 4.78668 -3.01485 0
M  V30 4972 H 491.73 5.30079 -3.79288 0
M  V30 4973 N 495.163 1.55791 0.238111 0
M  V30 4974 C 496.393 1.81834 0.980809 0
M  V30 4975 C 496.801 0.609741 1.79106 0
M  V30 4976 O 496.144 -0.431073 1.78571 0
M  V30 4977 C 496.206 3.01363 1.96011 0
M  V30 4978 C 495.87 4.37037 1.33597 0
M  V30 4979 C 496.867 5.14692 0.734063 0
M  V30 4980 C 494.552 4.83743 1.3527 0
M  V30 4981 C 496.546 6.37206 0.157208 0
M  V30 4982 C 494.233 6.06204 0.77199 0
M  V30 4983 C 495.231 6.82775 0.175282 0
M  V30 4984 O 494.919 8.02922 -0.396432 0
M  V30 4985 H 494.651 0.6088 0.293834 0
M  V30 4986 H 497.205 2.03702 0.263552 0
M  V30 4987 H 495.435 2.75273 2.71591 0
M  V30 4988 H 497.124 3.14422 2.56697 0
M  V30 4989 H 497.89 4.79722 0.713582 0
M  V30 4990 H 493.769 4.24129 1.80653 0
M  V30 4991 H 497.313 6.96915 -0.30917 0
M  V30 4992 H 493.21 6.4065 0.789828 0
M  V30 4993 H 493.978 8.17989 -0.289145 0
M  V30 4994 N 496.642 -0.504142 1.49319 0
M  V30 4995 C 497.872 -1.28071 1.62116 0
M  V30 4996 C 498.28 -1.86955 0.290566 0
M  V30 4997 O 497.623 -1.68415 -0.733616 0
M  V30 4998 C 497.685 -2.4521 2.62893 0
M  V30 4999 C 497.349 -2.07218 4.0732 0
M  V30 5000 C 498.346 -1.61375 4.94221 0
M  V30 5001 C 496.031 -2.16949 4.53033 0
M  V30 5002 C 498.025 -1.25763 6.2487 0
M  V30 5003 C 495.712 -1.80949 5.83696 0
M  V30 5004 C 496.71 -1.3543 6.69438 0
M  V30 5005 O 496.398 -0.99915 7.97667 0
M  V30 5006 H 496.13 -0.394763 0.54876 0
M  V30 5007 H 498.684 -0.612118 1.96067 0
M  V30 5008 H 496.914 -3.15134 2.24115 0
M  V30 5009 H 498.603 -3.0724 2.65252 0
M  V30 5010 H 499.369 -1.53306 4.60133 0
M  V30 5011 H 495.248 -2.5133 3.86463 0
M  V30 5012 H 498.792 -0.901631 6.91749 0
M  V30 5013 H 494.689 -1.88667 6.17313 0
M  V30 5014 H 495.457 -1.13089 8.1065 0
M  V30 5015 N 498.12 -1.38341 -0.754957 0
M  V30 5016 C 499.397 -1.24995 -1.50451 0
M  V30 5017 C 499.777 0.149244 -2.10572 0
M  V30 5018 O 499.125 1.15861 -1.96948 0
M  V30 5019 C 499.335 -2.35904 -2.57197 0
M  V30 5020 C 500.683 -2.74262 -3.24138 0
M  V30 5021 O 501.707 -2.35205 -2.67501 0
M  V30 5022 O 500.566 -3.4161 -4.26574 0
M  V30 5023 H 497.66 -0.48872 -0.667144 0
M  V30 5024 H 500.206 -1.50165 -0.790486 0
M  V30 5025 H 498.978 -3.2953 -2.11011 0
M  V30 5026 H 498.601 -2.12291 -3.36182 0
M  V30 5027 N 499.598 0.982988 -1.23187 0
M  V30 5028 C 500.846 1.72052 -1.06031 0
M  V30 5029 C 501.167 1.90769 0.404019 0
M  V30 5030 O 500.437 1.47446 1.28982 0
M  V30 5031 H 499.017 0.637499 -0.389363 0
M  V30 5032 H 501.679 1.18338 -1.54862 0
M  V30 5033 H 500.775 2.7111 -1.54615 0
M  V30 5034 N 501.076 1.04316 1.18135 0
M  V30 5035 C 501.986 0.646876 2.25505 0
M  V30 5036 C 503.002 -0.328008 1.7088 0
M  V30 5037 O 504.178 -0.182309 2.00573 0
M  V30 5038 C 501.243 0.0185664 3.46695 0
M  V30 5039 C 500.304 1.04277 4.16443 0
M  V30 5040 C 499.537 0.444352 5.31847 0
M  V30 5041 O 499.76 -0.748735 5.65465 0
M  V30 5042 O 498.694 1.17428 5.90334 0
M  V30 5043 H 502.52 1.54147 2.61672 0
M  V30 5044 H 500.105 0.814188 1.25265 0
M  V30 5045 H 501.987 -0.331068 4.20097 0
M  V30 5046 H 500.662 -0.849814 3.12346 0
M  V30 5047 H 499.569 1.44425 3.45098 0
M  V30 5048 H 500.902 1.882 4.54798 0
M  V30 5049 N 502.554 -1.34406 0.822964 0
M  V30 5050 C 503.517 -2.2783 0.250271 0
M  V30 5051 C 504.517 -1.50288 -0.571854 0
M  V30 5052 O 505.707 -1.69825 -0.387952 0
M  V30 5053 C 502.839 -3.34663 -0.649137 0
M  V30 5054 H 504.032 -2.79992 1.07444 0
M  V30 5055 H 501.585 -1.44539 0.594829 0
M  V30 5056 H 502.32 -2.87714 -1.49637 0
M  V30 5057 H 502.105 -3.92052 -0.0611199 0
M  V30 5058 H 503.595 -4.04349 -1.04363 0
M  V30 5059 N 504.032 -0.577932 -1.46621 0
M  V30 5060 C 505.309 0.00495287 -1.95599 0
M  V30 5061 C 505.689 1.46428 -1.5206 0
M  V30 5062 O 505.037 2.1517 -0.769046 0
M  V30 5063 C 505.247 -0.162114 -3.48623 0
M  V30 5064 C 506.595 -0.0274623 -4.24591 0
M  V30 5065 O 507.619 -0.0907067 -3.56084 0
M  V30 5066 O 506.478 0.1122 -5.46385 0
M  V30 5067 H 503.572 0.0525057 -0.825332 0
M  V30 5068 H 506.118 -0.645914 -1.56927 0
M  V30 5069 H 504.89 -1.17679 -3.73185 0
M  V30 5070 H 504.513 0.525407 -3.94113 0
M  V30 5071 N 505.51 1.54411 -0.315457 0
M  V30 5072 C 506.443 2.20265 0.596522 0
M  V30 5073 C 507.421 1.17693 1.12192 0
M  V30 5074 O 508.605 1.46397 1.18744 0
M  V30 5075 C 505.732 2.85794 1.81767 0
M  V30 5076 C 504.778 4.02017 1.42424 0
M  V30 5077 S 505.611 5.33452 0.467836 0
M  V30 5078 C 506.767 6.02471 1.69645 0
M  V30 5079 H 507 2.97277 0.0370896 0
M  V30 5080 H 504.533 1.54079 -0.0995562 0
M  V30 5081 H 506.491 3.24172 2.51839 0
M  V30 5082 H 505.152 2.08601 2.34828 0
M  V30 5083 H 504.345 4.46701 2.33396 0
M  V30 5084 H 503.947 3.65271 0.803311 0
M  V30 5085 H 506.239 6.24157 2.63504 0
M  V30 5086 H 507.182 6.96215 1.29192 0
M  V30 5087 H 507.59 5.32284 1.87974 0
M  V30 5088 N 506.988 0.0434614 1.5754 0
M  V30 5089 C 508.399 -0.493343 1.80064 0
M  V30 5090 C 508.75 -1.71388 0.955023 0
M  V30 5091 O 507.875 -2.15736 0.169434 0
M  V30 5092 C 508.47 -0.90179 3.26578 0
M  V30 5093 C 507.029 -1.38362 3.50047 0
M  V30 5094 C 506.176 -0.355129 2.75017 0
M  V30 5095 H 509.127 0.2694 1.56397 0
M  V30 5096 H 509.148 -1.76523 3.37075 0
M  V30 5097 H 508.66 -0.013271 3.88098 0
M  V30 5098 H 506.761 -2.29159 2.93798 0
M  V30 5099 H 506.874 -1.3811 4.58762 0
M  V30 5100 H 505.238 -0.826348 2.40922 0
M  V30 5101 H 506.021 0.525172 3.39259 0
M  V30 5102 N 508.466 -1.55915 -0.229846 0
M  V30 5103 C 509.714 -1.7819 -0.953565 0
M  V30 5104 C 510.035 -0.610504 -1.85197 0
M  V30 5105 O 509.305 0.372988 -1.92316 0
M  V30 5106 H 507.885 -0.657208 -0.355087 0
M  V30 5107 H 510.547 -1.9337 -0.243693 0
M  V30 5108 H 509.643 -2.70011 -1.56527 0
M  V30 5109 N 509.944 0.496216 -1.49584 0
M  V30 5110 C 511.192 1.24756 -1.58998 0
M  V30 5111 C 511.513 1.92968 -0.280775 0
M  V30 5112 O 510.783 1.82959 0.700198 0
M  V30 5113 H 509.363 0.463471 -0.585836 0
M  V30 5114 H 512.025 0.574678 -1.86235 0
M  V30 5115 H 511.121 2.00895 -2.38847 0
M  V30 5116 N 511.423 1.38739 0.74761 0
M  V30 5117 C 512.353 1.39173 1.87492 0
M  V30 5118 C 513.334 0.256794 1.6815 0
M  V30 5119 O 514.519 0.460762 1.88655 0
M  V30 5120 C 511.649 1.22197 3.25093 0
M  V30 5121 C 510.603 2.32957 3.59047 0
M  V30 5122 C 509.929 2.01082 4.95449 0
M  V30 5123 C 511.229 3.75237 3.6331 0
M  V30 5124 H 512.923 2.3351 1.87386 0
M  V30 5125 H 510.469 1.12399 0.900134 0
M  V30 5126 H 512.422 1.21124 4.03617 0
M  V30 5127 H 511.146 0.243241 3.25693 0
M  V30 5128 H 509.805 2.33226 2.82845 0
M  V30 5129 H 509.453 1.01678 4.92616 0
M  V30 5130 H 509.153 2.75267 5.19136 0
M  V30 5131 H 510.677 2.01638 5.76346 0
M  V30 5132 H 512.091 3.76966 4.31937 0
M  V30 5133 H 510.488 4.48677 3.98509 0
M  V30 5134 H 511.558 4.07122 2.634 0
M  V30 5135 N 512.901 -0.976442 1.23707 0
M  V30 5136 C 514.126 -1.75875 1.09922 0
M  V30 5137 C 514.551 -1.84911 -0.34489 0
M  V30 5138 O 513.909 -1.31363 -1.24954 0
M  V30 5139 C 513.957 -3.16179 1.73388 0
M  V30 5140 O 513.061 -4.00124 0.99871 0
M  V30 5141 H 512.402 -0.540954 0.385052 0
M  V30 5142 H 514.932 -1.22546 1.6384 0
M  V30 5143 H 514.942 -3.66741 1.78788 0
M  V30 5144 H 513.617 -3.08917 2.78466 0
M  V30 5145 H 512.194 -3.58624 1.02193 0
M  V30 5146 N 514.379 -1.04941 -1.1758 0
M  V30 5147 C 515.795 -0.770282 -1.39781 0
M  V30 5148 C 515.995 0.636417 -1.91186 0
M  V30 5149 O 515.051 1.39923 -2.10185 0
M  V30 5150 C 516.364 -1.82376 -2.3908 0
M  V30 5151 C 517.912 -1.84569 -2.52791 0
M  V30 5152 C 518.387 -2.88933 -3.55361 0
M  V30 5153 N 519.878 -2.8788 -3.62877 0
M  V30 5154 C 520.613 -3.65282 -4.41992 0
M  V30 5155 N 520.109 -4.52461 -5.24643 0
M  V30 5156 N 521.902 -3.53732 -4.36841 0
M  V30 5157 H 514.053 -1.95705 -0.825438 0
M  V30 5158 H 516.316 -0.847284 -0.425222 0
M  V30 5159 H 516.022 -2.83323 -2.08376 0
M  V30 5160 H 515.896 -1.66327 -3.38549 0
M  V30 5161 H 518.283 -0.842879 -2.82807 0
M  V30 5162 H 518.364 -2.04696 -1.53406 0
M  V30 5163 H 518.008 -3.89398 -3.26085 0
M  V30 5164 H 517.938 -2.66059 -4.54445 0
M  V30 5165 H 520.429 -2.24666 -3.03864 0
M  V30 5166 H 520.742 -5.08211 -5.82187 0
M  V30 5167 H 519.087 -4.56524 -5.24033 0
M  V30 5168 H 522.278 -2.85021 -3.71323 0
M  V30 5169 H 522.451 -4.14302 -4.98255 0
M  V30 5170 N 515.857 1.33968 -0.830081 0
M  V30 5171 C 516.82 2.27694 -0.26235 0
M  V30 5172 C 517.82 1.50589 0.563876 0
M  V30 5173 O 519.01 1.70028 0.378941 0
M  V30 5174 C 516.142 3.35002 0.63138 0
M  V30 5175 H 517.335 2.79419 -1.08928 0
M  V30 5176 H 514.888 1.44221 -0.602486 0
M  V30 5177 H 515.623 2.88504 1.48109 0
M  V30 5178 H 515.408 3.92079 0.0403276 0
M  V30 5179 H 516.898 4.04897 1.02217 0
M  V30 5180 N 517.335 0.585699 1.46312 0
M  V30 5181 C 518.612 0.00542031 1.95599 0
M  V30 5182 C 518.992 -1.45619 1.52834 0
M  V30 5183 O 518.34 -2.14759 0.780446 0
M  V30 5184 C 518.55 0.180601 3.48532 0
M  V30 5185 C 519.898 0.049979 4.24571 0
M  V30 5186 O 520.922 0.109589 3.56031 0
M  V30 5187 O 519.781 -0.0832226 5.46437 0
M  V30 5188 H 516.875 -0.0481281 0.825598 0
M  V30 5189 H 519.421 0.654227 1.56582 0
M  V30 5190 H 518.193 1.19657 3.72556 0
M  V30 5191 H 517.816 -0.504498 3.94386 0
M  V30 5192 N 518.813 -1.54241 0.323641 0
M  V30 5193 C 520.043 -2.04687 -0.280464 0
M  V30 5194 C 520.451 -1.19939 -1.46326 0
M  V30 5195 O 519.794 -0.222872 -1.82343 0
M  V30 5196 C 519.856 -3.50978 -0.778123 0
M  V30 5197 C 519.52 -4.56127 0.282371 0
M  V30 5198 C 520.517 -5.07726 1.11847 0
M  V30 5199 C 518.202 -5.00451 0.430582 0
M  V30 5200 C 520.196 -6.02212 2.08851 0
M  V30 5201 C 517.883 -5.94752 1.40404 0
M  V30 5202 C 518.881 -6.45519 2.23147 0
M  V30 5203 O 518.569 -7.37968 3.1884 0
M  V30 5204 H 518.301 -0.673192 -0.0615473 0
M  V30 5205 H 520.855 -1.99999 0.467921 0
M  V30 5206 H 519.085 -3.53064 -1.57742 0
M  V30 5207 H 520.774 -3.84499 -1.30058 0
M  V30 5208 H 521.54 -4.74261 1.01496 0
M  V30 5209 H 517.419 -4.6055 -0.203569 0
M  V30 5210 H 520.963 -6.41761 2.73474 0
M  V30 5211 H 516.86 -6.27633 1.5082 0
M  V30 5212 H 517.628 -7.55841 3.14079 0
M  V30 5213 N 520.291 -0.0518155 -1.57515 0
M  V30 5214 C 521.568 0.661727 -1.84067 0
M  V30 5215 C 521.948 1.88999 -0.940351 0
M  V30 5216 O 521.296 2.285 -0.00155404 0
M  V30 5217 C 521.506 1.01841 -3.3381 0
M  V30 5218 C 522.854 1.40043 -4.00841 0
M  V30 5219 O 523.878 1.11073 -3.38439 0
M  V30 5220 O 522.737 1.94111 -5.10865 0
M  V30 5221 H 519.831 0.326702 -0.759733 0
M  V30 5222 H 522.377 -0.0812277 -1.69505 0
M  V30 5223 H 521.149 0.145202 -3.91031 0
M  V30 5224 H 520.772 1.81879 -3.53562 0
M  V30 5225 N 521.769 1.56035 0.221574 0
M  V30 5226 C 522.732 1.91584 1.2581 0
M  V30 5227 C 523.732 0.794425 1.39805 0
M  V30 5228 O 524.922 1.06217 1.38071 0
M  V30 5229 C 522.054 2.16663 2.63192 0
M  V30 5230 H 523.247 2.8429 0.954935 0
M  V30 5231 H 520.8 1.49316 0.461988 0
M  V30 5232 H 521.535 1.26508 2.98607 0
M  V30 5233 H 521.32 2.98358 2.5441 0
M  V30 5234 H 522.81 2.45262 3.37988 0
M  V30 5235 N 523.247 -0.488276 1.49845 0
M  V30 5236 C 524.524 -1.24959 1.50481 0
M  V30 5237 C 524.904 -2.09735 0.239698 0
M  V30 5238 O 524.252 -2.14865 -0.777524 0
M  V30 5239 C 524.462 -2.0954 2.79095 0
M  V30 5240 C 525.81 -2.68305 3.29086 0
M  V30 5241 O 526.834 -2.19797 2.80299 0
M  V30 5242 O 525.693 -3.56643 4.14087 0
M  V30 5243 H 522.787 -0.566133 0.602845 0
M  V30 5244 H 525.333 -0.501504 1.6212 0
M  V30 5245 H 524.105 -1.46958 3.62656 0
M  V30 5246 H 523.728 -2.91517 2.70377 0
M  V30 5247 N 524.725 -1.39134 -0.740242 0
M  V30 5248 C 526.141 -1.20623 -1.0451 0
M  V30 5249 C 526.341 -0.0641651 -2.01398 0
M  V30 5250 O 525.397 0.585843 -2.4561 0
M  V30 5251 C 526.71 -2.53815 -1.6124 0
M  V30 5252 C 528.258 -2.60615 -1.73346 0
M  V30 5253 C 528.733 -3.94015 -2.33486 0
M  V30 5254 N 530.224 -3.95627 -2.40902 0
M  V30 5255 C 530.959 -4.95616 -2.88361 0
M  V30 5256 N 530.455 -6.06003 -3.35756 0
M  V30 5257 N 532.248 -4.82998 -2.87523 0
M  V30 5258 H 524.399 -2.12176 -0.0975576 0
M  V30 5259 H 526.662 -0.942066 -0.105904 0
M  V30 5260 H 526.368 -3.37911 -0.975144 0
M  V30 5261 H 526.242 -2.73162 -2.6012 0
M  V30 5262 H 528.629 -1.76906 -2.36195 0
M  V30 5263 H 528.71 -2.45123 -0.731336 0
M  V30 5264 H 528.354 -4.78153 -1.71267 0
M  V30 5265 H 528.284 -4.06825 -3.34366 0
M  V30 5266 H 530.775 -3.15903 -2.07398 0
M  V30 5267 H 531.088 -6.78215 -3.70464 0
M  V30 5268 H 529.433 -6.09604 -3.33778 0
M  V30 5269 H 532.624 -3.95866 -2.49816 0
M  V30 5270 H 532.797 -5.61072 -3.24196 0
M  V30 5271 N 526.204 0.969867 -1.24223 0
M  V30 5272 C 527.45 1.71582 -1.09231 0
M  V30 5273 C 527.805 1.88898 0.365432 0
M  V30 5274 O 527.098 1.43781 1.2664 0
M  V30 5275 C 527.292 3.10883 -1.76314 0
M  V30 5276 C 527.121 3.07155 -3.2846 0
M  V30 5277 C 525.891 3.11757 -3.97663 0
M  V30 5278 C 528.089 2.895 -4.25082 0
M  V30 5279 N 526.071 2.98025 -5.36707 0
M  V30 5280 C 527.442 2.84041 -5.51109 0
M  V30 5281 C 529.497 2.74064 -4.15684 0
M  V30 5282 C 528.2 2.64725 -6.68815 0
M  V30 5283 C 530.226 2.56115 -5.33066 0
M  V30 5284 C 529.588 2.51363 -6.58024 0
M  V30 5285 H 525.687 0.636496 -0.454309 0
M  V30 5286 H 528.271 1.15004 -1.57106 0
M  V30 5287 H 526.442 3.65657 -1.30955 0
M  V30 5288 H 528.174 3.74171 -1.54201 0
M  V30 5289 H 524.929 3.20352 -3.48814 0
M  V30 5290 H 525.353 2.94405 -6.09635 0
M  V30 5291 H 529.995 2.76521 -3.19837 0
M  V30 5292 H 527.713 2.61011 -7.64787 0
M  V30 5293 H 531.299 2.45119 -5.27644 0
M  V30 5294 H 530.179 2.37651 -7.47323 0
M  V30 5295 N 527.682 1.05563 1.17022 0
M  V30 5296 C 528.614 0.617888 2.20714 0
M  V30 5297 C 529.627 -0.320303 1.59618 0
M  V30 5298 O 530.816 -0.112449 1.78145 0
M  V30 5299 C 527.916 -0.115333 3.38704 0
M  V30 5300 C 527.089 0.834493 4.29366 0
M  V30 5301 C 526.148 0.141855 5.26009 0
M  V30 5302 O 525.174 0.777151 5.6387 0
M  V30 5303 N 526.376 -1.11934 5.69606 0
M  V30 5304 H 529.141 1.50981 2.58892 0
M  V30 5305 H 526.702 0.938008 1.31958 0
M  V30 5306 H 528.694 -0.588918 4.00392 0
M  V30 5307 H 527.264 -0.908967 2.99093 0
M  V30 5308 H 526.484 1.48762 3.65053 0
M  V30 5309 H 527.772 1.4791 4.86827 0
M  V30 5310 H 527.17 -1.65574 5.40927 0
M  V30 5311 H 525.727 -1.53692 6.33421 0
M  V30 5312 N 529.16 -1.33526 0.837174 0
M  V30 5313 C 530.385 -2.0258 0.444545 0
M  V30 5314 C 530.81 -1.6258 -0.946006 0
M  V30 5315 O 530.168 -0.817548 -1.6182 0
M  V30 5316 C 530.216 -3.5605 0.571006 0
M  V30 5317 O 529.32 -4.10422 -0.403431 0
M  V30 5318 H 528.661 -0.638866 0.180958 0
M  V30 5319 H 531.191 -1.70462 1.13154 0
M  V30 5320 H 531.201 -4.05488 0.452024 0
M  V30 5321 H 529.876 -3.84509 1.58512 0
M  V30 5322 H 528.453 -3.72113 -0.242147 0
M  V30 5323 N 530.638 -0.59345 -1.46 0
M  V30 5324 C 531.866 -0.0890934 -2.06708 0
M  V30 5325 C 532.281 1.2205 -1.44046 0
M  V30 5326 O 531.638 1.74029 -0.549551 0
M  V30 5327 C 531.689 0.0720263 -3.61428 0
M  V30 5328 O 531.41 -1.18574 -4.21748 0
M  V30 5329 C 532.911 0.609487 -4.3909 0
M  V30 5330 H 530.131 -0.0623628 -0.668096 0
M  V30 5331 H 532.675 -0.817171 -1.87464 0
M  V30 5332 H 530.83 0.750369 -3.80063 0
M  V30 5333 H 531.244 -1.0064 -5.14754 0
M  V30 5334 H 532.718 0.671363 -5.47902 0
M  V30 5335 H 533.195 1.62878 -4.07882 0
M  V30 5336 H 533.801 -0.03434 -4.25286 0
M  V30 5337 N 532.116 1.54067 -0.331816 0
M  V30 5338 C 533.532 1.59587 0.0205388 0
M  V30 5339 C 533.732 1.34813 1.49759 0
M  V30 5340 O 532.788 1.13661 2.25471 0
M  V30 5341 C 534.101 2.97959 -0.405103 0
M  V30 5342 C 535.649 3.10964 -0.356454 0
M  V30 5343 C 536.124 4.51694 -0.757384 0
M  V30 5344 N 537.615 4.57709 -0.71111 0
M  V30 5345 C 538.35 5.64729 -0.993427 0
M  V30 5346 N 537.846 6.79652 -1.3433 0
M  V30 5347 N 539.639 5.54546 -0.918442 0
M  V30 5348 H 531.79 1.68426 -1.29407 0
M  V30 5349 H 534.053 0.78819 -0.526745 0
M  V30 5350 H 533.759 3.21115 -1.43451 0
M  V30 5351 H 533.633 3.76524 0.225692 0
M  V30 5352 H 536.02 2.87538 0.663763 0
M  V30 5353 H 536.101 2.34484 -1.02229 0
M  V30 5354 H 535.745 4.75853 -1.77555 0
M  V30 5355 H 535.675 5.26555 -0.0691444 0
M  V30 5356 H 538.166 3.75176 -0.452883 0
M  V30 5357 H 538.479 7.57221 -1.54388 0
M  V30 5358 H 536.824 6.81128 -1.38164 0
M  V30 5359 H 540.015 4.63641 -0.644536 0
M  V30 5360 H 540.188 6.37861 -1.14181 0
M  V30 5361 N 533.594 0.0601682 1.57485 0
M  V30 5362 C 535.005 -0.474217 1.80577 0
M  V30 5363 C 535.356 -1.70365 0.973147 0
M  V30 5364 O 534.481 -2.15544 0.192306 0
M  V30 5365 C 535.076 -0.867102 3.27516 0
M  V30 5366 C 533.635 -1.34642 3.51495 0
M  V30 5367 C 532.782 -0.32594 2.75378 0
M  V30 5368 H 535.733 0.285973 1.56102 0
M  V30 5369 H 535.754 -1.72938 3.38929 0
M  V30 5370 H 535.266 0.0278927 3.8809 0
M  V30 5371 H 533.367 -2.2603 2.96212 0
M  V30 5372 H 533.48 -1.33237 4.60201 0
M  V30 5373 H 531.844 -0.800749 2.41785 0
M  V30 5374 H 532.627 0.561125 3.38683 0
M  V30 5375 N 535.072 -1.5615 -0.213296 0
M  V30 5376 C 536.302 -1.83372 -0.951757 0
M  V30 5377 C 536.71 -0.638158 -1.78113 0
M  V30 5378 O 536.053 0.402609 -1.79234 0
M  V30 5379 C 536.115 -3.04444 -1.91192 0
M  V30 5380 C 535.779 -4.39107 -1.26627 0
M  V30 5381 C 536.776 -5.15794 -0.652087 0
M  V30 5382 C 534.461 -4.85834 -1.27556 0
M  V30 5383 C 536.455 -6.37376 -0.055814 0
M  V30 5384 C 534.142 -6.07356 -0.675451 0
M  V30 5385 C 535.14 -6.82967 -0.0666367 0
M  V30 5386 O 534.828 -8.0219 0.524119 0
M  V30 5387 H 534.56 -0.613398 -0.284111 0
M  V30 5388 H 537.114 -2.04096 -0.231112 0
M  V30 5389 H 535.344 -2.79559 -2.67178 0
M  V30 5390 H 537.033 -3.18466 -2.51662 0
M  V30 5391 H 537.799 -4.80796 -0.637172 0
M  V30 5392 H 533.678 -4.26949 -1.73883 0
M  V30 5393 H 537.222 -6.96334 0.420004 0
M  V30 5394 H 533.119 -6.41825 -0.687806 0
M  V30 5395 H 533.887 -8.17426 0.419243 0
M  V30 5396 N 536.55 0.480323 -1.50102 0
M  V30 5397 C 537.827 1.24159 -1.51142 0
M  V30 5398 C 538.207 2.09605 -0.250818 0
M  V30 5399 O 537.555 2.15274 0.766118 0
M  V30 5400 C 537.765 2.08057 -2.80202 0
M  V30 5401 C 539.113 2.66556 -3.30504 0
M  V30 5402 O 540.137 2.18308 -2.81461 0
M  V30 5403 O 538.996 3.54442 -4.15973 0
M  V30 5404 H 536.09 0.562928 -0.605839 0
M  V30 5405 H 538.636 0.492899 -1.62384 0
M  V30 5406 H 537.408 1.45032 -3.6343 0
M  V30 5407 H 537.031 2.90079 -2.71919 0
M  V30 5408 N 538.028 1.39524 0.732853 0
M  V30 5409 C 539.444 1.21176 1.03868 0
M  V30 5410 C 539.644 0.0748448 2.01361 0
M  V30 5411 O 538.7 -0.57281 2.45917 0
M  V30 5412 C 540.013 2.54667 1.59892 0
M  V30 5413 C 541.561 2.6153 1.71962 0
M  V30 5414 C 542.036 3.95248 2.31394 0
M  V30 5415 N 543.527 3.96899 2.38801 0
M  V30 5416 C 544.262 4.97138 2.85729 0
M  V30 5417 N 543.758 6.07775 3.32537 0
M  V30 5418 N 545.551 4.84516 2.84957 0
M  V30 5419 H 537.702 2.12225 0.086304 0
M  V30 5420 H 539.965 0.942614 0.100907 0
M  V30 5421 H 539.671 3.38423 0.95721 0
M  V30 5422 H 539.545 2.74538 2.58668 0
M  V30 5423 H 541.932 1.78156 2.35254 0
M  V30 5424 H 542.013 2.45507 0.718327 0
M  V30 5425 H 541.657 4.79054 1.68729 0
M  V30 5426 H 541.587 4.08593 3.32204 0
M  V30 5427 H 544.078 3.16998 2.05719 0
M  V30 5428 H 544.391 6.8017 3.66862 0
M  V30 5429 H 542.736 6.11366 3.30541 0
M  V30 5430 H 545.927 3.97185 2.47713 0
M  V30 5431 H 546.1 5.62783 3.21215 0
M  V30 5432 N 539.506 -0.963266 1.24736 0
M  V30 5433 C 540.753 -1.7068 1.0897 0
M  V30 5434 C 541.081 -1.90934 -0.370751 0
M  V30 5435 O 540.336 -1.47155 -1.29011 0
M  V30 5436 C 540.635 -3.09944 1.7796 0
M  V30 5437 C 540.301 -3.09518 3.27887 0
M  V30 5438 C 538.963 -3.09109 3.68789 0
M  V30 5439 C 541.315 -3.03509 4.23712 0
M  V30 5440 C 538.643 -3.00429 5.03944 0
M  V30 5441 C 540.995 -2.96371 5.5888 0
M  V30 5442 C 539.659 -2.94293 5.99123 0
M  V30 5443 H 538.929 -0.624564 0.398749 0
M  V30 5444 H 541.576 -1.12603 1.54896 0
M  V30 5445 H 539.881 -3.71513 1.2444 0
M  V30 5446 H 541.578 -3.66278 1.63222 0
M  V30 5447 H 538.168 -3.10603 2.95337 0
M  V30 5448 H 542.352 -3.0295 3.93109 0
M  V30 5449 H 537.608 -2.97183 5.34314 0
M  V30 5450 H 541.782 -2.90681 6.32833 0
M  V30 5451 H 539.409 -2.87322 7.03811 0
M  V30 5452 N 540.985 -1.06182 -1.16461 0
M  V30 5453 C 542.231 -0.788825 -1.87481 0
M  V30 5454 C 542.586 0.677298 -1.80085 0
M  V30 5455 O 541.879 1.48976 -1.20486 0
M  V30 5456 C 542.073 -1.21633 -3.36066 0
M  V30 5457 C 541.902 -2.72247 -3.57927 0
M  V30 5458 C 540.672 -3.39696 -3.74079 0
M  V30 5459 C 542.87 -3.70461 -3.56739 0
M  V30 5460 N 540.852 -4.79072 -3.83879 0
M  V30 5461 C 542.223 -4.95616 -3.72511 0
M  V30 5462 C 544.278 -3.63788 -3.39945 0
M  V30 5463 C 542.981 -6.14895 -3.73225 0
M  V30 5464 C 545.007 -4.82517 -3.41953 0
M  V30 5465 C 544.369 -6.065 -3.58242 0
M  V30 5466 H 540.468 -0.341034 -0.703719 0
M  V30 5467 H 543.052 -1.35575 -1.39741 0
M  V30 5468 H 541.223 -0.67725 -3.8245 0
M  V30 5469 H 542.955 -0.892119 -3.94745 0
M  V30 5470 H 539.71 -2.90097 -3.74354 0
M  V30 5471 H 540.134 -5.51573 -3.92551 0
M  V30 5472 H 544.776 -2.68888 -3.26281 0
M  V30 5473 H 542.494 -7.10129 -3.85672 0
M  V30 5474 H 546.08 -4.79017 -3.30203 0
M  V30 5475 H 544.96 -6.96833 -3.59712 0
M  V30 5476 N 542.463 1.3308 -0.844243 0
M  V30 5477 C 543.711 1.97215 -0.441676 0
M  V30 5478 C 544.032 1.67185 1.0037 0
M  V30 5479 O 543.302 0.973588 1.69994 0
M  V30 5480 H 541.882 0.72959 -0.160335 0
M  V30 5481 H 544.544 1.62348 -1.07838 0
M  V30 5482 H 543.64 3.06698 -0.57815 0
M  V30 5483 N 543.941 0.601185 1.45683 0
M  V30 5484 C 545.357 0.264315 1.57396 0
M  V30 5485 C 545.557 -1.23324 1.59353 0
M  V30 5486 O 544.613 -2.01594 1.52039 0
M  V30 5487 C 545.926 0.929839 2.85962 0
M  V30 5488 C 547.474 0.905156 2.99626 0
M  V30 5489 C 547.949 1.55057 4.30954 0
M  V30 5490 N 549.44 1.51576 4.37697 0
M  V30 5491 C 550.175 1.98436 5.37969 0
M  V30 5492 N 549.671 2.53352 6.44813 0
M  V30 5493 N 551.464 1.89242 5.29286 0
M  V30 5494 H 543.615 1.57363 1.42656 0
M  V30 5495 H 545.878 0.658831 0.681649 0
M  V30 5496 H 545.584 1.98404 2.90394 0
M  V30 5497 H 545.458 0.449224 3.74515 0
M  V30 5498 H 547.845 -0.14048 2.94765 0
M  V30 5499 H 547.926 1.42397 2.12501 0
M  V30 5500 H 547.57 2.5955 4.36573 0
M  V30 5501 H 547.5 1.00682 5.16886 0
M  V30 5502 H 549.991 1.11452 3.61091 0
M  V30 5503 H 550.304 2.86918 7.17564 0
M  V30 5504 H 548.649 2.57388 6.45582 0
M  V30 5505 H 551.84 1.46083 4.44722 0
M  V30 5506 H 552.013 2.26075 6.07284 0
M  V30 5507 N 545.419 -1.53889 0.339982 0
M  V30 5508 C 546.835 -1.59595 -0.0120752 0
M  V30 5509 C 547.035 -1.35605 -1.49042 0
M  V30 5510 O 546.091 -1.14856 -2.24865 0
M  V30 5511 C 547.404 -2.9774 0.420898 0
M  V30 5512 C 548.952 -3.1077 0.37294 0
M  V30 5513 C 549.427 -4.51286 0.781327 0
M  V30 5514 N 550.918 -4.57325 0.735374 0
M  V30 5515 C 551.653 -5.64194 1.02336 0
M  V30 5516 N 551.149 -6.7893 1.37933 0
M  V30 5517 N 552.942 -5.54051 0.947838 0
M  V30 5518 H 545.093 -1.67738 1.30299 0
M  V30 5519 H 547.356 -0.785385 0.530918 0
M  V30 5520 H 547.062 -3.20349 1.45152 0
M  V30 5521 H 546.936 -3.76639 -0.205721 0
M  V30 5522 H 549.323 -2.87886 -0.648505 0
M  V30 5523 H 549.404 -2.33939 1.03472 0
M  V30 5524 H 549.048 -4.74905 1.80077 0
M  V30 5525 H 548.978 -5.26511 0.0970679 0
M  V30 5526 H 551.469 -3.74931 0.472773 0
M  V30 5527 H 551.782 -7.56392 1.58402 0
M  V30 5528 H 550.127 -6.80386 1.41774 0
M  V30 5529 H 553.318 -4.63293 0.669115 0
M  V30 5530 H 553.491 -6.37246 1.17563 0
M  V30 5531 N 546.897 -0.0685191 -1.57451 0
M  V30 5532 C 547.844 0.899861 -2.12535 0
M  V30 5533 C 548.814 1.29749 -1.03703 0
M  V30 5534 O 549.999 1.38392 -1.31348 0
M  V30 5535 C 547.139 2.16328 -2.6888 0
M  V30 5536 C 546.252 1.81857 -3.91857 0
M  V30 5537 C 545.387 3.02786 -4.36457 0
M  V30 5538 C 544.426 2.64317 -5.5209 0
M  V30 5539 N 543.563 3.77994 -5.91663 0
M  V30 5540 H 548.403 0.423243 -2.94979 0
M  V30 5541 H 545.94 0.197268 -1.45771 0
M  V30 5542 H 547.898 2.90281 -2.99655 0
M  V30 5543 H 546.528 2.61536 -1.89206 0
M  V30 5544 H 545.58 0.979808 -3.67565 0
M  V30 5545 H 546.892 1.49553 -4.75852 0
M  V30 5546 H 546.046 3.85021 -4.68875 0
M  V30 5547 H 544.785 3.38281 -3.51308 0
M  V30 5548 H 543.79 1.80503 -5.19325 0
M  V30 5549 H 545.015 2.29995 -6.38967 0
M  V30 5550 H 542.961 4.13258 -5.09464 0
M  V30 5551 H 542.878 3.49447 -6.7039 0
M  V30 5552 H 544.146 4.60818 -6.28703 0
M  V30 5553 N 548.375 1.56261 0.205012 0
M  V30 5554 C 549.305 1.96779 1.257 0
M  V30 5555 C 550.286 0.838309 1.48008 0
M  V30 5556 O 551.471 1.10189 1.59913 0
M  V30 5557 C 548.601 2.29876 2.60335 0
M  V30 5558 C 547.555 3.45469 2.52656 0
M  V30 5559 C 546.881 3.64215 3.91473 0
M  V30 5560 C 548.181 4.79954 2.06014 0
M  V30 5561 H 549.875 2.84904 0.920338 0
M  V30 5562 H 547.421 1.37072 0.441277 0
M  V30 5563 H 549.374 2.56814 3.34102 0
M  V30 5564 H 548.098 1.38622 2.95722 0
M  V30 5565 H 546.757 3.18605 1.81345 0
M  V30 5566 H 546.405 2.70309 4.24196 0
M  V30 5567 H 546.105 4.41973 3.87213 0
M  V30 5568 H 547.629 3.93519 4.66878 0
M  V30 5569 H 549.043 5.05989 2.69533 0
M  V30 5570 H 547.44 5.61111 2.12777 0
M  V30 5571 H 548.51 4.74201 1.01297 0
M  V30 5572 N 549.853 -0.472356 1.50355 0
M  V30 5573 C 550.816 -1.5529 1.68576 0
M  V30 5574 C 551.816 -1.50863 0.556511 0
M  V30 5575 O 553.006 -1.53505 0.823516 0
M  V30 5576 C 550.138 -2.94921 1.70981 0
M  V30 5577 H 551.331 -1.40451 2.64978 0
M  V30 5578 H 548.884 -0.698645 1.39816 0
M  V30 5579 H 549.619 -3.15204 0.762675 0
M  V30 5580 H 549.404 -2.99541 2.53017 0
M  V30 5581 H 550.894 -3.73372 1.87037 0
M  V30 5582 N 551.331 -1.39911 -0.725443 0
M  V30 5583 C 552.556 -1.41137 -1.5197 0
M  V30 5584 C 552.981 -0.010262 -1.88097 0
M  V30 5585 O 552.339 0.979184 -1.52583 0
M  V30 5586 C 552.387 -2.2994 -2.77777 0
M  V30 5587 O 551.491 -1.73586 -3.74088 0
M  V30 5588 H 550.832 -0.480219 -0.458569 0
M  V30 5589 H 553.362 -1.84023 -0.894249 0
M  V30 5590 H 553.372 -2.44785 -3.26411 0
M  V30 5591 H 552.047 -3.31759 -2.50816 0
M  V30 5592 H 550.624 -1.68035 -3.32894 0
M  V30 5593 N 552.809 0.956637 -1.25245 0
M  V30 5594 C 553.739 2.07058 -1.07931 0
M  V30 5595 C 554.72 1.70096 0.0110361 0
M  V30 5596 O 555.905 1.93555 -0.158121 0
M  V30 5597 C 553.035 3.40272 -0.695124 0
M  V30 5598 C 551.989 3.91235 -1.73549 0
M  V30 5599 C 551.315 5.20921 -1.20604 0
M  V30 5600 C 552.615 4.17837 -3.13385 0
M  V30 5601 H 554.309 2.218 -2.01109 0
M  V30 5602 H 551.855 1.06581 -0.968326 0
M  V30 5603 H 553.808 4.1765 -0.560949 0
M  V30 5604 H 552.532 3.25462 0.272355 0
M  V30 5605 H 551.191 3.16025 -1.85807 0
M  V30 5606 H 550.839 5.02479 -0.228846 0
M  V30 5607 H 550.539 5.55987 -1.90136 0
M  V30 5608 H 552.063 6.00897 -1.08421 0
M  V30 5609 H 553.477 4.8588 -3.04292 0
M  V30 5610 H 551.874 4.64154 -3.80369 0
M  V30 5611 H 552.944 3.2419 -3.60595 0
M  V30 5612 N 554.287 1.06798 1.15896 0
M  V30 5613 C 555.535 0.786211 1.8618 0
M  V30 5614 C 555.856 -0.689547 1.82401 0
M  V30 5615 O 555.126 -1.49913 1.26107 0
M  V30 5616 H 553.706 0.287843 0.689315 0
M  V30 5617 H 556.368 1.35055 1.40521 0
M  V30 5618 H 555.464 1.1157 2.91477 0
M  V30 5619 N 555.766 -1.3263 0.851289 0
M  V30 5620 C 556.996 -2.01271 0.466222 0
M  V30 5621 C 557.404 -1.64156 -0.940714 0
M  V30 5622 O 556.747 -0.857109 -1.62479 0
M  V30 5623 C 556.809 -3.55695 0.521672 0
M  V30 5624 C 556.473 -4.16227 1.88691 0
M  V30 5625 C 557.47 -4.34699 2.85189 0
M  V30 5626 C 555.155 -4.52377 2.18313 0
M  V30 5627 C 557.149 -4.88484 4.09465 0
M  V30 5628 C 554.836 -5.05868 3.42843 0
M  V30 5629 C 555.834 -5.23869 4.38235 0
M  V30 5630 O 555.522 -5.76218 5.6056 0
M  V30 5631 H 555.254 -0.651034 0.18202 0
M  V30 5632 H 557.808 -1.7026 1.14894 0
M  V30 5633 H 556.038 -3.86086 -0.217888 0
M  V30 5634 H 557.727 -4.05613 0.152682 0
M  V30 5635 H 558.493 -4.07107 2.63607 0
M  V30 5636 H 554.372 -4.37652 1.44851 0
M  V30 5637 H 557.916 -5.02451 4.83931 0
M  V30 5638 H 553.813 -5.32891 3.64277 0
M  V30 5639 H 554.581 -5.94616 5.62471 0
M  V30 5640 N 557.244 -0.608902 -1.45362 0
M  V30 5641 C 558.176 0.147318 -2.28726 0
M  V30 5642 C 559.189 0.830468 -1.40025 0
M  V30 5643 O 560.378 0.695636 -1.64387 0
M  V30 5644 C 557.478 1.22968 -3.15804 0
M  V30 5645 C 556.651 0.633391 -4.3279 0
M  V30 5646 C 555.71 1.60682 -5.01067 0
M  V30 5647 O 554.736 1.13261 -5.57818 0
M  V30 5648 N 555.938 2.94123 -5.00472 0
M  V30 5649 H 558.703 -0.568014 -2.94268 0
M  V30 5650 H 556.264 -0.448479 -1.55564 0
M  V30 5651 H 558.256 1.88072 -3.58345 0
M  V30 5652 H 556.826 1.84752 -2.52162 0
M  V30 5653 H 556.046 -0.195762 -3.93714 0
M  V30 5654 H 557.334 0.215255 -5.08344 0
M  V30 5655 H 556.732 3.3525 -4.55657 0
M  V30 5656 H 555.289 3.54646 -5.46872 0
M  V30 5657 N 558.722 1.53707 -0.348139 0
M  V30 5658 C 559.969 2.00988 0.246966 0
M  V30 5659 C 560.297 1.23586 1.50189 0
M  V30 5660 O 559.552 0.312817 1.93184 0
M  V30 5661 C 559.851 3.52292 0.602061 0
M  V30 5662 C 559.517 4.47453 -0.556509 0
M  V30 5663 C 558.179 4.73188 -0.874446 0
M  V30 5664 C 560.531 5.03851 -1.33354 0
M  V30 5665 C 557.859 5.52577 -1.9717 0
M  V30 5666 C 560.211 5.84437 -2.42108 0
M  V30 5667 C 558.875 6.08465 -2.74456 0
M  V30 5668 H 558.145 0.735469 0.0903712 0
M  V30 5669 H 560.792 1.85464 -0.477001 0
M  V30 5670 H 559.097 3.65672 1.40681 0
M  V30 5671 H 560.794 3.86337 1.07447 0
M  V30 5672 H 557.384 4.27558 -0.298652 0
M  V30 5673 H 561.568 4.8393 -1.10117 0
M  V30 5674 H 556.824 5.69418 -2.22651 0
M  V30 5675 H 560.998 6.27151 -3.02745 0
M  V30 5676 H 558.625 6.69768 -3.59604 0
M  V30 5677 N 560.2 0.0768682 1.57412 0
M  V30 5678 C 561.132 -0.918248 2.10002 0
M  V30 5679 C 562.145 -1.25808 1.03325 0
M  V30 5680 O 563.334 -1.21438 1.30824 0
M  V30 5681 C 560.434 -2.23263 2.54964 0
M  V30 5682 C 559.607 -2.07088 3.8527 0
M  V30 5683 C 558.666 -3.21876 4.16272 0
M  V30 5684 O 557.692 -2.96643 4.8579 0
M  V30 5685 N 558.894 -4.4712 3.70221 0
M  V30 5686 H 561.659 -0.469209 2.96004 0
M  V30 5687 H 559.22 -0.108725 1.61535 0
M  V30 5688 H 561.212 -2.9897 2.72762 0
M  V30 5689 H 559.782 -2.59649 1.74072 0
M  V30 5690 H 559.002 -1.15818 3.76802 0
M  V30 5691 H 560.29 -1.93537 4.70554 0
M  V30 5692 H 559.688 -4.70506 3.1407 0
M  V30 5693 H 558.245 -5.19837 3.93209 0
M  V30 5694 N 561.678 -1.56367 -0.196722 0
M  V30 5695 C 563.089 -1.70462 -0.761545 0
M  V30 5696 C 563.44 -0.683161 -1.83922 0
M  V30 5697 O 562.565 0.160753 -2.15802 0
M  V30 5698 C 563.16 -3.09057 -1.38814 0
M  V30 5699 C 561.719 -3.24922 -1.90007 0
M  V30 5700 C 560.866 -2.66412 -0.769399 0
M  V30 5701 H 563.817 -1.58675 0.0283263 0
M  V30 5702 H 563.838 -3.06296 -2.2575 0
M  V30 5703 H 563.35 -3.83378 -0.603559 0
M  V30 5704 H 561.451 -2.55514 -2.71189 0
M  V30 5705 H 561.564 -4.3241 -2.06297 0
M  V30 5706 H 559.928 -2.25546 -1.18326 0
M  V30 5707 H 560.711 -3.433 0.00291773 0
M  V30 5708 N 563.156 0.464375 -1.50603 0
M  V30 5709 C 564.433 1.22549 -1.5245 0
M  V30 5710 C 564.813 2.09327 -0.273035 0
M  V30 5711 O 564.161 2.16074 0.743242 0
M  V30 5712 C 564.371 2.05074 -2.82393 0
M  V30 5713 C 565.719 2.63036 -3.33313 0
M  V30 5714 O 566.743 2.1531 -2.8376 0
M  V30 5715 O 565.602 3.5001 -4.19709 0
M  V30 5716 H 562.696 0.556471 -0.611775 0
M  V30 5717 H 565.242 0.475648 -1.62898 0
M  V30 5718 H 564.014 1.41169 -3.64948 0
M  V30 5719 H 563.637 2.87179 -2.7498 0
M  V30 5720 N 564.634 1.40294 0.718013 0
M  V30 5721 C 565.859 1.41941 1.5122 0
M  V30 5722 C 566.284 0.0202371 1.88089 0
M  V30 5723 O 565.642 -0.971078 1.53101 0
M  V30 5724 C 565.69 2.3141 2.76554 0
M  V30 5725 O 564.794 1.75567 3.73162 0
M  V30 5726 H 564.135 0.482644 0.456016 0
M  V30 5727 H 566.665 1.84494 0.884478 0
M  V30 5728 H 566.675 2.46513 3.25108 0
M  V30 5729 H 565.35 3.33085 2.49053 0
M  V30 5730 H 563.927 1.69798 3.31999 0
M  V30 5731 N 566.112 -0.949982 1.2575 0
M  V30 5732 C 567.044 -2.05088 1.02331 0
M  V30 5733 C 568.057 -1.62795 -0.0133247 0
M  V30 5734 O 569.246 -1.77067 0.225759 0
M  V30 5735 C 566.346 -3.34794 0.525924 0
M  V30 5736 C 565.519 -4.05903 1.62978 0
M  V30 5737 C 564.578 -5.1388 1.13196 0
M  V30 5738 O 563.604 -5.39072 1.82729 0
M  V30 5739 N 564.806 -5.80495 -0.0242926 0
M  V30 5740 H 567.571 -2.25747 1.97125 0
M  V30 5741 H 565.132 -1.11886 1.17018 0
M  V30 5742 H 567.124 -4.04312 0.177263 0
M  V30 5743 H 565.694 -3.10872 -0.328202 0
M  V30 5744 H 564.914 -3.3042 2.1498 0
M  V30 5745 H 566.202 -4.50166 2.37124 0
M  V30 5746 H 565.6 -5.62454 -0.605184 0
M  V30 5747 H 564.157 -6.51043 -0.313947 0
M  V30 5748 N 567.59 -1.07411 -1.15328 0
M  V30 5749 C 568.54 -0.664788 -2.18093 0
M  V30 5750 C 569.524 0.310395 -1.57878 0
M  V30 5751 O 570.716 0.124026 -1.76565 0
M  V30 5752 C 567.845 -0.0647822 -3.43239 0
M  V30 5753 C 566.931 -1.06514 -4.10506 0
M  V30 5754 N 567.322 -2.24491 -4.53252 0
M  V30 5755 C 565.62 -0.898613 -4.36853 0
M  V30 5756 C 566.321 -2.8796 -5.05424 0
M  V30 5757 N 565.297 -2.15622 -4.99007 0
M  V30 5758 H 569.099 -1.56333 -2.48872 0
M  V30 5759 H 566.613 -0.947393 -1.31902 0
M  V30 5760 H 568.61 0.246363 -4.16171 0
M  V30 5761 H 567.27 0.828866 -3.13943 0
M  V30 5762 H 568.281 -2.62205 -4.46619 0
M  V30 5763 H 564.958 -0.0579118 -4.1746 0
M  V30 5764 H 566.348 -3.88137 -5.48452 0
M  V30 5765 N 569.068 1.32177 -0.85831 0
M  V30 5766 C 570.015 2.28794 -0.303607 0
M  V30 5767 C 570.985 1.55213 0.591453 0
M  V30 5768 O 572.17 1.83418 0.525585 0
M  V30 5769 C 569.31 3.41475 0.49889 0
M  V30 5770 C 568.423 4.2993 -0.422373 0
M  V30 5771 C 567.558 5.29743 0.393111 0
M  V30 5772 C 566.597 6.09842 -0.525317 0
M  V30 5773 N 565.734 7.01643 0.253208 0
M  V30 5774 H 570.574 2.75631 -1.13276 0
M  V30 5775 H 568.111 1.35606 -0.570026 0
M  V30 5776 H 570.069 4.05531 0.979826 0
M  V30 5777 H 568.699 2.95779 1.29284 0
M  V30 5778 H 567.751 3.66422 -1.02171 0
M  V30 5779 H 569.063 4.85899 -1.12709 0
M  V30 5780 H 568.217 5.9942 0.937056 0
M  V30 5781 H 566.956 4.744 1.13117 0
M  V30 5782 H 565.961 5.39066 -1.08112 0
M  V30 5783 H 567.186 6.6727 -1.26205 0
M  V30 5784 H 565.132 6.48725 0.974295 0
M  V30 5785 H 565.049 7.54981 -0.392398 0
M  V30 5786 H 566.317 7.756 0.778761 0
M  V30 5787 N 570.547 0.616602 1.45037 0
M  V30 5788 C 571.794 0.115331 2.02171 0
M  V30 5789 C 572.122 -1.25748 1.48383 0
M  V30 5790 O 571.377 -1.84511 0.652229 0
M  V30 5791 C 571.676 0.0356829 3.57382 0
M  V30 5792 C 571.342 1.34535 4.30362 0
M  V30 5793 C 570.004 1.70408 4.50016 0
M  V30 5794 C 572.356 2.21049 4.72003 0
M  V30 5795 C 569.684 2.92529 5.0857 0
M  V30 5796 C 572.036 3.42427 5.31908 0
M  V30 5797 C 570.7 3.78541 5.49784 0
M  V30 5798 H 569.97 0.0422024 0.739797 0
M  V30 5799 H 572.617 0.80002 1.73988 0
M  V30 5800 H 570.922 -0.732314 3.84895 0
M  V30 5801 H 572.619 -0.368463 3.99304 0
M  V30 5802 H 569.209 1.05615 4.15383 0
M  V30 5803 H 573.393 1.94632 4.56544 0
M  V30 5804 H 568.649 3.20605 5.20598 0
M  V30 5805 H 572.823 4.09709 5.63127 0
M  V30 5806 H 570.45 4.73255 5.94923 0
M  V30 5807 N 572.025 -1.5352 0.356285 0
M  V30 5808 C 572.973 -2.26945 -0.50978 0
M  V30 5809 C 573.967 -1.29569 -1.09125 0
M  V30 5810 O 575.173 -1.47231 -1.03552 0
M  V30 5811 H 571.548 -0.729368 -0.183102 0
M  V30 5812 H 573.519 -2.98111 0.131374 0
M  V30 5813 C 572.268 -3.06466 -1.64237 0
M  V30 5814 H 571.591 -3.81233 -1.20423 0
M  V30 5815 H 573.031 -3.61035 -2.22327 0
M  V30 5816 C 571.49 -2.16737 -2.57928 0
M  V30 5817 O 572.02 -1.77195 -3.60507 0
M  V30 5818 N 570.226 -1.81558 -2.26903 0
M  V30 5819 H 569.773 -2.13913 -1.43524 0
M  V30 5820 H 569.731 -1.21806 -2.89846 0
M  V30 5821 N 573.503 -0.0852151 -1.57369 0
M  V30 5822 C 574.752 0.580443 -1.93168 0
M  V30 5823 C 575.065 1.6995 -0.968319 0
M  V30 5824 O 576.271 2.42564 -1.21963 0
M  V30 5825 C 574.727 1.08386 -3.43192 0
M  V30 5826 C 574.335 -0.00491388 -4.48 0
M  V30 5827 C 576.079 1.72281 -3.87968 0
M  V30 5828 C 573.986 0.513299 -5.89168 0
M  V30 5829 H 572.916 0.22059 -0.72101 0
M  V30 5830 H 575.567 -0.159621 -1.82804 0
M  V30 5831 H 573.949 1.8773 -3.48674 0
M  V30 5832 H 575.123 -0.780032 -4.5415 0
M  V30 5833 H 573.438 -0.548453 -4.12772 0
M  V30 5834 H 576.035 2.12108 -4.9083 0
M  V30 5835 H 576.378 2.58811 -3.26071 0
M  V30 5836 H 576.911 0.995359 -3.85146 0
M  V30 5837 H 573.65 -0.315153 -6.54742 0
M  V30 5838 H 573.17 1.25564 -5.8651 0
M  V30 5839 H 574.849 0.985433 -6.39451 0
M  V30 5840 N 574.981 1.5647 0.188427 0
M  V30 5841 C 575.913 1.91611 1.25769 0
M  V30 5842 C 576.926 0.807436 1.41366 0
M  V30 5843 O 578.115 1.08586 1.41673 0
M  V30 5844 C 575.215 2.13874 2.6289 0
M  V30 5845 C 574.388 3.45047 2.68815 0
M  V30 5846 C 573.447 3.56342 3.87178 0
M  V30 5847 O 572.473 4.29109 3.73971 0
M  V30 5848 N 573.675 2.89924 5.02916 0
M  V30 5849 H 576.44 2.8393 0.959373 0
M  V30 5850 H 574.001 1.57418 0.378306 0
M  V30 5851 H 575.993 2.18713 3.4051 0
M  V30 5852 H 574.563 1.28022 2.85183 0
M  V30 5853 H 573.783 3.52017 1.77419 0
M  V30 5854 H 575.071 4.31395 2.6977 0
M  V30 5855 H 574.469 2.30644 5.16546 0
M  V30 5856 H 573.026 3.0038 5.78459 0
M  V30 5857 N 576.459 -0.456382 1.50847 0
M  V30 5858 C 577.707 -1.20497 1.62249 0
M  V30 5859 C 578.028 -1.92156 0.331839 0
M  V30 5860 O 577.298 -1.84751 -0.651443 0
M  V30 5861 H 575.878 -0.447775 0.597918 0
M  V30 5862 H 578.54 -0.525099 1.87693 0
M  V30 5863 H 577.636 -1.94492 2.44089 0
M  V30 5864 N 577.937 -1.40673 -0.710563 0
M  V30 5865 C 579.184 -1.39222 -1.47049 0
M  V30 5866 C 579.512 0.0037691 -1.945 0
M  V30 5867 O 578.767 0.989224 -1.68857 0
M  V30 5868 C 579.066 -2.33253 -2.70791 0
M  V30 5869 C 578.732 -3.80406 -2.42079 0
M  V30 5870 C 577.394 -4.20496 -2.33959 0
M  V30 5871 C 579.746 -4.73375 -2.18094 0
M  V30 5872 C 577.074 -5.51584 -1.99929 0
M  V30 5873 C 579.426 -6.04768 -1.85576 0
M  V30 5874 C 578.09 -6.43895 -1.75941 0
M  V30 5875 H 577.36 -0.509449 -0.538092 0
M  V30 5876 H 580.007 -1.73363 -0.81348 0
M  V30 5877 H 578.312 -1.92314 -3.41354 0
M  V30 5878 H 580.009 -2.29412 -3.28894 0
M  V30 5879 H 576.599 -3.48645 -2.49288 0
M  V30 5880 H 580.783 -4.43217 -2.23321 0
M  V30 5881 H 576.039 -5.80797 -1.91011 0
M  V30 5882 H 580.213 -6.76318 -1.66033 0
M  V30 5883 H 577.84 -7.45387 -1.4934 0
M  V30 5884 N 579.415 0.9433 -1.26252 0
M  V30 5885 C 580.645 1.72117 -1.14277 0
M  V30 5886 C 581.053 1.86726 0.304944 0
M  V30 5887 O 580.396 1.3727 1.22076 0
M  V30 5888 C 580.458 3.14778 -1.73651 0
M  V30 5889 C 580.122 3.23561 -3.22734 0
M  V30 5890 C 581.119 3.07001 -4.19579 0
M  V30 5891 C 578.804 3.47019 -3.63157 0
M  V30 5892 C 580.798 3.13763 -5.54826 0
M  V30 5893 C 578.485 3.53416 -4.98538 0
M  V30 5894 C 579.483 3.36804 -5.94182 0
M  V30 5895 O 579.171 3.42906 -7.27098 0
M  V30 5896 H 578.903 0.545781 -0.398873 0
M  V30 5897 H 581.457 1.19123 -1.67328 0
M  V30 5898 H 579.687 3.69186 -1.1506 0
M  V30 5899 H 581.376 3.74469 -1.56613 0
M  V30 5900 H 582.142 2.88736 -3.89688 0
M  V30 5901 H 578.021 3.59006 -2.89199 0
M  V30 5902 H 581.565 3.00714 -6.29458 0
M  V30 5903 H 577.462 3.71201 -5.28091 0
M  V30 5904 H 578.23 3.59463 -7.35342 0
M  V30 5905 N 580.893 1.08022 1.14757 0
M  V30 5906 C 582.121 0.828847 1.89572 0
M  V30 5907 C 582.536 -0.618621 1.78377 0
M  V30 5908 O 581.893 -1.42482 1.1404 0
M  V30 5909 C 581.944 1.23677 3.39685 0
M  V30 5910 O 581.665 2.62746 3.50566 0
M  V30 5911 C 583.166 1.01569 4.31507 0
M  V30 5912 H 580.386 0.299196 0.600602 0
M  V30 5913 H 582.93 1.43846 1.45357 0
M  V30 5914 H 581.085 0.671347 3.81539 0
M  V30 5915 H 581.499 2.79573 4.43778 0
M  V30 5916 H 582.973 1.35055 5.35223 0
M  V30 5917 H 583.45 -0.0475433 4.39174 0
M  V30 5918 H 584.056 1.56636 3.95405 0
M  V30 5919 N 582.371 -1.3172 0.865308 0
M  V30 5920 C 583.303 -2.27545 0.274906 0
M  V30 5921 C 584.316 -1.52887 -0.559413 0
M  V30 5922 O 585.505 -1.74361 -0.382166 0
M  V30 5923 C 582.605 -3.33006 -0.629286 0
M  V30 5924 C 581.778 -4.37063 0.171553 0
M  V30 5925 C 580.837 -5.22044 -0.660052 0
M  V30 5926 O 579.863 -5.69129 -0.0897527 0
M  V30 5927 N 581.065 -5.45946 -1.97289 0
M  V30 5928 H 583.83 -2.78848 1.09836 0
M  V30 5929 H 581.391 -1.44693 0.726331 0
M  V30 5930 H 583.383 -3.86772 -1.19121 0
M  V30 5931 H 581.953 -2.81782 -1.35342 0
M  V30 5932 H 581.173 -3.83436 0.914919 0
M  V30 5933 H 582.461 -5.03662 0.721235 0
M  V30 5934 H 581.859 -5.0944 -2.45942 0
M  V30 5935 H 580.416 -6.02665 -2.4827 0
M  V30 5936 N 583.85 -0.624285 -1.44708 0
M  V30 5937 C 585.077 -0.132919 -2.06473 0
M  V30 5938 C 585.493 1.18967 -1.46602 0
M  V30 5939 O 584.85 1.72824 -0.586341 0
M  V30 5940 C 584.901 -0.00465418 -3.615 0
M  V30 5941 O 584.622 -1.27494 -4.19138 0
M  V30 5942 C 586.123 0.516213 -4.40284 0
M  V30 5943 H 583.343 -0.0765201 -0.666623 0
M  V30 5944 H 585.887 -0.856751 -1.85688 0
M  V30 5945 H 584.042 0.669583 -3.8157 0
M  V30 5946 H 584.456 -1.11536 -5.12504 0
M  V30 5947 H 585.93 0.554994 -5.49203 0
M  V30 5948 H 586.407 1.5419 -4.11245 0
M  V30 5949 H 587.013 -0.124542 -4.25118 0
M  V30 5950 N 585.328 1.53329 -0.364422 0
M  V30 5951 C 586.258 2.28627 0.474543 0
M  V30 5952 C 587.239 1.31009 1.08492 0
M  V30 5953 O 588.424 1.59878 1.10239 0
M  V30 5954 C 585.554 3.07465 1.61501 0
M  V30 5955 C 584.508 4.1276 1.13194 0
M  V30 5956 C 583.834 4.79674 2.36255 0
M  V30 5957 C 585.134 5.21847 0.217507 0
M  V30 5958 H 586.828 2.99005 -0.153656 0
M  V30 5959 H 584.374 1.43803 -0.0753406 0
M  V30 5960 H 586.327 3.58889 2.20855 0
M  V30 5961 H 585.051 2.34775 2.27042 0
M  V30 5962 H 583.71 3.62281 0.56109 0
M  V30 5963 H 583.358 4.03557 3.00251 0
M  V30 5964 H 583.058 5.50827 2.04606 0
M  V30 5965 H 584.582 5.33892 2.96297 0
M  V30 5966 H 585.996 5.6878 0.718493 0
M  V30 5967 H 584.393 6.00099 -0.00806408 0
M  V30 5968 H 585.463 4.7921 -0.740653 0
M  V30 5969 N 586.806 0.0935595 1.57322 0
M  V30 5970 C 588.222 -0.263091 1.57417 0
M  V30 5971 C 588.422 -1.68526 1.1046 0
M  V30 5972 O 587.478 -2.40139 0.780357 0
M  V30 5973 C 588.791 -0.0529201 3.00653 0
M  V30 5974 C 590.339 -0.120788 3.12767 0
M  V30 5975 C 590.814 0.0613707 4.57959 0
M  V30 5976 N 592.305 0.00648534 4.632 0
M  V30 5977 C 593.04 0.122699 5.73269 0
M  V30 5978 N 592.536 0.29366 6.92177 0
M  V30 5979 N 594.329 0.0640787 5.62063 0
M  V30 5980 H 586.48 1.02277 1.86154 0
M  V30 5981 H 588.743 0.4007 0.859153 0
M  V30 5982 H 588.449 0.929279 3.39201 0
M  V30 5983 H 588.323 -0.795899 3.68708 0
M  V30 5984 H 590.71 -1.09349 2.74093 0
M  V30 5985 H 590.791 0.653656 2.47307 0
M  V30 5986 H 590.435 1.03093 4.97327 0
M  V30 5987 H 590.365 -0.732748 5.21477 0
M  V30 5988 H 592.856 -0.123173 3.77699 0
M  V30 5989 H 593.169 0.37389 7.71895 0
M  V30 5990 H 591.514 0.329307 6.94219 0
M  V30 5991 H 594.705 -0.0683396 4.6805 0
M  V30 5992 H 594.878 0.158097 6.47807 0
M  V30 5993 N 588.284 -1.56567 -0.180126 0
M  V30 5994 C 589.509 -1.85975 -0.918041 0
M  V30 5995 C 589.934 -0.678888 -1.75422 0
M  V30 5996 O 589.292 0.372168 -1.77439 0
M  V30 5997 C 589.34 -3.13731 -1.77779 0
M  V30 5998 O 588.444 -2.95335 -2.87838 0
M  V30 5999 H 587.785 -0.61196 -0.257683 0
M  V30 6000 H 590.315 -2.03798 -0.180923 0
M  V30 6001 H 590.325 -3.4491 -2.17948 0
M  V30 6002 H 589 -3.99293 -1.16352 0
M  V30 6003 H 587.577 -2.7549 -2.51316 0
M  V30 6004 N 589.762 0.448376 -1.51087 0
M  V30 6005 C 591.01 1.19635 -1.62886 0
M  V30 6006 C 591.331 1.91977 -0.342024 0
M  V30 6007 O 590.601 1.85094 0.641636 0
M  V30 6008 H 589.181 0.444598 -0.600285 0
M  V30 6009 H 591.843 0.515138 -1.87969 0
M  V30 6010 H 590.939 1.93194 -2.45117 0
M  V30 6011 N 591.24 1.41047 0.703093 0
M  V30 6012 C 592.47 1.43133 1.48985 0
M  V30 6013 C 592.878 0.0328537 1.89171 0
M  V30 6014 O 592.221 -0.956469 1.56835 0
M  V30 6015 C 592.283 2.26991 2.78775 0
M  V30 6016 C 591.947 3.7525 2.60837 0
M  V30 6017 C 592.944 4.67591 2.27276 0
M  V30 6018 C 590.629 4.19208 2.76712 0
M  V30 6019 C 592.623 6.01877 2.09817 0
M  V30 6020 C 590.31 5.53561 2.5887 0
M  V30 6021 C 591.308 6.4471 2.25472 0
M  V30 6022 O 590.996 7.76584 2.07778 0
M  V30 6023 H 590.728 0.489788 0.465922 0
M  V30 6024 H 593.282 1.85886 0.873822 0
M  V30 6025 H 591.512 1.79038 3.42757 0
M  V30 6026 H 593.201 2.20867 3.40547 0
M  V30 6027 H 593.967 4.34923 2.14633 0
M  V30 6028 H 589.846 3.48572 3.01693 0
M  V30 6029 H 593.39 6.72986 1.83671 0
M  V30 6030 H 589.287 5.85811 2.71102 0
M  V30 6031 H 590.055 7.87649 2.22601 0
M  V30 6032 N 592.718 -0.936591 1.26751 0
M  V30 6033 C 593.648 -2.05315 1.11212 0
M  V30 6034 C 594.629 -1.70092 0.0160262 0
M  V30 6035 O 595.814 -1.93279 0.188894 0
M  V30 6036 C 592.944 -3.39123 0.749171 0
M  V30 6037 C 591.898 -3.88425 1.79751 0
M  V30 6038 C 591.224 -5.18936 1.28876 0
M  V30 6039 C 592.524 -4.12798 3.19992 0
M  V30 6040 H 594.218 -2.18573 2.04613 0
M  V30 6041 H 591.764 -1.05027 0.985159 0
M  V30 6042 H 593.717 -4.16704 0.627323 0
M  V30 6043 H 592.441 -3.25855 -0.220543 0
M  V30 6044 H 591.1 -3.13028 1.90811 0
M  V30 6045 H 590.748 -5.02051 0.308757 0
M  V30 6046 H 590.448 -5.52892 1.98958 0
M  V30 6047 H 591.972 -5.99096 1.17967 0
M  V30 6048 H 593.386 -4.80977 3.11983 0
M  V30 6049 H 591.783 -4.58044 3.87705 0
M  V30 6050 H 592.853 -3.18412 3.65707 0
M  V30 6051 N 594.196 -1.08629 -1.14182 0
M  V30 6052 C 595.106 -0.730126 -2.22949 0
M  V30 6053 C 596.122 0.26436 -1.7198 0
M  V30 6054 O 597.298 0.107742 -2.01112 0
M  V30 6055 C 594.363 -0.147227 -3.46387 0
M  V30 6056 C 593.424 -1.19662 -4.12286 0
M  V30 6057 C 592.657 -0.641437 -5.29831 0
M  V30 6058 O 592.88 0.538351 -5.67854 0
M  V30 6059 O 591.814 -1.39257 -5.85569 0
M  V30 6060 H 595.64 -1.63753 -2.55771 0
M  V30 6061 H 593.225 -0.860118 -1.22157 0
M  V30 6062 H 595.107 0.174923 -4.21037 0
M  V30 6063 H 593.782 0.733304 -3.15285 0
M  V30 6064 H 592.689 -1.57133 -3.395 0
M  V30 6065 H 594.022 -2.0495 -4.475 0
M  V30 6066 N 595.674 1.31259 -0.872281 0
M  V30 6067 C 596.606 2.27396 -0.28697 0
M  V30 6068 C 597.619 1.53181 0.551297 0
M  V30 6069 O 598.808 1.74561 0.372914 0
M  V30 6070 C 595.908 3.33335 0.611617 0
M  V30 6071 C 595.081 4.36966 -0.194729 0
M  V30 6072 C 594.14 5.22387 0.632358 0
M  V30 6073 O 593.166 5.69169 0.0595691 0
M  V30 6074 N 594.368 5.46985 1.94391 0
M  V30 6075 H 597.133 2.78261 -1.11314 0
M  V30 6076 H 594.694 1.44306 -0.733994 0
M  V30 6077 H 596.686 3.87398 1.17068 0
M  V30 6078 H 595.256 2.82496 1.33846 0
M  V30 6079 H 594.476 3.82945 -0.935241 0
M  V30 6080 H 595.764 5.03273 -0.747935 0
M  V30 6081 H 595.162 5.10737 2.43237 0
M  V30 6082 H 593.719 6.03973 2.45071 0
M  V30 6083 N 597.152 0.631951 1.44375 0
M  V30 6084 C 598.4 0.136497 2.01639 0
M  V30 6085 C 598.721 -1.24637 1.49969 0
M  V30 6086 O 597.991 -1.82827 0.70363 0
M  V30 6087 H 596.571 0.0474703 0.74549 0
M  V30 6088 H 599.233 0.818837 1.76865 0
M  V30 6089 H 598.329 0.104817 3.11924 0
M  V30 6090 N 598.631 -1.53133 0.372548 0
M  V30 6091 C 599.578 -2.25951 -0.470631 0
M  V30 6092 C 600.548 -1.26895 -1.07176 0
M  V30 6093 O 601.733 -1.55691 -1.10294 0
M  V30 6094 C 598.873 -3.05726 -1.6008 0
M  V30 6095 C 597.986 -4.19684 -1.02416 0
M  V30 6096 C 597.121 -4.86888 -2.124 0
M  V30 6097 C 596.16 -5.92866 -1.52238 0
M  V30 6098 N 595.297 -6.53732 -2.56084 0
M  V30 6099 H 600.137 -2.97587 0.156816 0
M  V30 6100 H 597.674 -1.4683 0.0891571 0
M  V30 6101 H 599.632 -3.50258 -2.26661 0
M  V30 6102 H 598.262 -2.36331 -2.1988 0
M  V30 6103 H 597.314 -3.79588 -0.248426 0
M  V30 6104 H 598.626 -4.95821 -0.544366 0
M  V30 6105 H 597.78 -5.34638 -2.86787 0
M  V30 6106 H 596.519 -4.10239 -2.63734 0
M  V30 6107 H 595.524 -5.4447 -0.763685 0
M  V30 6108 H 596.749 -6.71439 -1.0172 0
M  V30 6109 H 594.695 -5.79932 -3.06618 0
M  V30 6110 H 594.612 -7.25429 -2.12811 0
M  V30 6111 H 595.88 -7.0613 -3.30152 0
M  V30 6112 N 600.109 -0.101901 -1.5727 0
M  V30 6113 C 601.525 0.254739 -1.57554 0
M  V30 6114 C 601.725 1.67937 -1.11352 0
M  V30 6115 O 600.781 2.39722 -0.793081 0
M  V30 6116 C 602.094 0.036975 -3.00677 0
M  V30 6117 C 603.642 0.104199 -3.12827 0
M  V30 6118 C 604.117 -0.0856565 -4.5792 0
M  V30 6119 N 605.608 -0.0310498 -4.6319 0
M  V30 6120 C 606.343 -0.153099 -5.73196 0
M  V30 6121 N 605.839 -0.330364 -6.92012 0
M  V30 6122 N 607.632 -0.0938854 -5.62022 0
M  V30 6123 H 599.783 -1.03263 -1.85609 0
M  V30 6124 H 602.046 -0.405251 -0.857016 0
M  V30 6125 H 601.752 -0.947254 -3.38703 0
M  V30 6126 H 601.626 0.776335 -3.69124 0
M  V30 6127 H 604.013 1.07894 -2.74669 0
M  V30 6128 H 604.094 -0.666762 -2.46957 0
M  V30 6129 H 603.738 -1.05729 -4.96773 0
M  V30 6130 H 603.668 0.705082 -5.21858 0
M  V30 6131 H 606.159 0.103141 -3.77759 0
M  V30 6132 H 606.472 -0.41482 -7.71686 0
M  V30 6133 H 604.817 -0.366119 -6.94035 0
M  V30 6134 H 608.008 0.0435168 -4.6808 0
M  V30 6135 H 608.181 -0.19245 -6.47714 0
M  V30 6136 N 601.587 1.56661 0.17182 0
M  V30 6137 C 602.836 1.81158 0.886831 0
M  V30 6138 C 603.149 0.679072 1.83434 0
M  V30 6139 O 604.355 0.808964 2.59168 0
M  V30 6140 C 602.811 3.20999 1.6275 0
M  V30 6141 C 602.419 4.42117 0.723652 0
M  V30 6142 C 604.163 3.5479 2.33076 0
M  V30 6143 C 602.07 5.7298 1.46452 0
M  V30 6144 H 601 0.675543 0.334899 0
M  V30 6145 H 603.651 1.82967 0.139765 0
M  V30 6146 H 602.033 3.13506 2.4193 0
M  V30 6147 H 603.207 4.60789 -0.0311485 0
M  V30 6148 H 601.522 4.16197 0.130063 0
M  V30 6149 H 604.119 4.49806 2.89099 0
M  V30 6150 H 604.462 2.79646 3.08389 0
M  V30 6151 H 604.995 3.63834 1.6084 0
M  V30 6152 H 601.734 6.51152 0.753729 0
M  V30 6153 H 601.254 5.58285 2.19266 0
M  V30 6154 H 602.933 6.14916 2.01214 0
M  V30 6155 N 603.065 -0.440357 1.51323 0
M  V30 6156 C 604.293 -1.21255 1.67645 0
M  V30 6157 C 604.708 -1.85088 0.37252 0
M  V30 6158 O 604.065 -1.70582 -0.648683 0
M  V30 6159 C 604.116 -2.29881 2.78993 0
M  V30 6160 O 603.837 -1.68659 4.04334 0
M  V30 6161 C 605.338 -3.20214 3.06558 0
M  V30 6162 H 602.558 -0.36558 0.562666 0
M  V30 6163 H 605.102 -0.52214 1.97722 0
M  V30 6164 H 603.257 -2.94643 2.51524 0
M  V30 6165 H 603.671 -2.40426 4.6615 0
M  V30 6166 H 605.145 -3.92575 3.88058 0
M  V30 6167 H 605.622 -3.80794 2.18844 0
M  V30 6168 H 606.228 -2.61156 3.35675 0
M  V30 6169 N 604.543 -1.41418 -0.695603 0
M  V30 6170 C 605.473 -1.46035 -1.82197 0
M  V30 6171 C 606.454 -0.319025 -1.67082 0
M  V30 6172 O 607.639 -0.530462 -1.86815 0
M  V30 6173 C 604.769 -1.34179 -3.20333 0
M  V30 6174 C 603.723 -2.46123 -3.50154 0
M  V30 6175 C 603.049 -2.19332 -4.87645 0
M  V30 6176 C 604.349 -3.88463 -3.49133 0
M  V30 6177 H 606.043 -2.40303 -1.78591 0
M  V30 6178 H 603.589 -1.15663 -0.857797 0
M  V30 6179 H 605.542 -1.36021 -3.98844 0
M  V30 6180 H 604.266 -0.363952 -3.24566 0
M  V30 6181 H 602.925 -2.43563 -2.73994 0
M  V30 6182 H 602.573 -1.19891 -4.88503 0
M  V30 6183 H 602.273 -2.94344 -5.08562 0
M  V30 6184 H 603.797 -2.22889 -5.68465 0
M  V30 6185 H 605.211 -3.92738 -4.17648 0
M  V30 6186 H 603.608 -4.63158 -3.81582 0
M  V30 6187 H 604.678 -4.16617 -2.48109 0
M  V30 6188 N 606.021 0.929856 -1.27246 0
M  V30 6189 C 607.246 1.71674 -1.16374 0
M  V30 6190 C 607.671 1.86064 0.276024 0
M  V30 6191 O 607.029 1.3591 1.19992 0
M  V30 6192 C 607.077 3.09526 -1.85003 0
M  V30 6193 O 606.181 3.96142 -1.14653 0
M  V30 6194 H 605.522 0.52629 -0.404863 0
M  V30 6195 H 608.052 1.16381 -1.68276 0
M  V30 6196 H 608.062 3.59852 -1.92276 0
M  V30 6197 H 606.737 2.98369 -2.89739 0
M  V30 6198 H 605.314 3.54584 -1.15433 0
M  V30 6199 N 607.499 1.09233 1.13605 0
M  V30 6200 C 608.91 0.846839 1.6639 0
M  V30 6201 C 609.261 -0.625031 1.85978 0
M  V30 6202 O 608.386 -1.48173 1.57714 0
M  V30 6203 C 608.981 1.5307 3.0225 0
M  V30 6204 C 607.54 1.33223 3.52035 0
M  V30 6205 C 606.687 1.58806 2.27323 0
M  V30 6206 H 609.638 1.25175 0.975541 0
M  V30 6207 H 609.659 0.96267 3.68121 0
M  V30 6208 H 609.171 2.60192 2.87961 0
M  V30 6209 H 607.272 0.282091 3.71531 0
M  V30 6210 H 607.385 2.0657 4.32279 0
M  V30 6211 H 605.749 1.01007 2.33815 0
M  V30 6212 H 606.532 2.67153 2.15602 0
M  V30 6213 N 608.977 -1.30795 0.87923 0
M  V30 6214 C 610.393 -1.48981 0.57243 0
M  V30 6215 C 610.593 -1.80719 -0.891236 0
M  V30 6216 O 609.649 -1.89136 -1.67283 0
M  V30 6217 C 610.962 -2.61721 1.48063 0
M  V30 6218 C 612.51 -2.75603 1.48365 0
M  V30 6219 C 612.985 -3.91449 2.37763 0
M  V30 6220 N 614.476 -3.98751 2.35695 0
M  V30 6221 C 615.211 -4.87684 3.01583 0
M  V30 6222 N 614.707 -5.81454 3.76674 0
M  V30 6223 N 616.5 -4.81005 2.90844 0
M  V30 6224 H 608.651 -1.08465 1.82617 0
M  V30 6225 H 610.914 -0.536813 0.781368 0
M  V30 6226 H 610.62 -2.45073 2.52254 0
M  V30 6227 H 610.494 -3.58071 1.18596 0
M  V30 6228 H 612.881 -2.9166 0.44927 0
M  V30 6229 H 612.962 -1.79891 1.81859 0
M  V30 6230 H 612.606 -3.76149 3.41283 0
M  V30 6231 H 612.536 -4.86487 2.01589 0
M  V30 6232 H 615.027 -3.31668 1.81121 0
M  V30 6233 H 615.34 -6.46063 4.24054 0
M  V30 6234 H 613.685 -5.81403 3.80782 0
M  V30 6235 H 616.876 -4.06728 2.31711 0
M  V30 6236 H 617.049 -5.50107 3.42471 0
M  V30 6237 N 610.455 -0.639598 -1.44038 0
M  V30 6238 C 611.403 0.0723409 -2.32487 0
M  V30 6239 C 612.397 0.827129 -1.47834 0
M  V30 6240 O 613.603 0.73907 -1.64127 0
M  V30 6241 H 609.978 0.0421696 -0.750817 0
M  V30 6242 H 611.949 -0.691593 -2.90275 0
M  V30 6243 C 610.698 1.03452 -3.31953 0
M  V30 6244 H 610.021 0.46315 -3.97108 0
M  V30 6245 H 611.461 1.502 -3.96505 0
M  V30 6246 C 609.92 2.12392 -2.61518 0
M  V30 6247 O 610.45 3.2059 -2.42044 0
M  V30 6248 N 608.656 1.88563 -2.21116 0
M  V30 6249 H 608.203 1.00577 -2.37154 0
M  V30 6250 H 608.161 2.61651 -1.74316 0
M  V30 6251 N 611.933 1.52934 -0.380664 0
M  V30 6252 C 613.163 2.05587 0.204302 0
M  V30 6253 C 613.571 1.25288 1.41773 0
M  V30 6254 O 612.914 0.290394 1.8139 0
M  V30 6255 C 612.976 3.53624 0.647324 0
M  V30 6256 C 612.64 4.54765 -0.451465 0
M  V30 6257 C 613.637 5.03226 -1.30614 0
M  V30 6258 C 611.322 4.98508 -0.616025 0
M  V30 6259 C 613.316 5.94046 -2.31058 0
M  V30 6260 C 611.003 5.89131 -1.62381 0
M  V30 6261 C 612.001 6.36792 -2.46952 0
M  V30 6262 O 611.689 7.25626 -3.46009 0
M  V30 6263 H 611.421 0.675013 0.0365198 0
M  V30 6264 H 613.975 1.98125 -0.541827 0
M  V30 6265 H 612.205 3.58676 1.44529 0
M  V30 6266 H 613.894 3.89061 1.15698 0
M  V30 6267 H 614.66 4.70167 -1.19027 0
M  V30 6268 H 610.539 4.60989 0.0324987 0
M  V30 6269 H 614.083 6.3117 -2.97104 0
M  V30 6270 H 609.98 6.21603 -1.7401 0
M  V30 6271 H 610.748 7.43664 -3.41916 0
M  V30 6272 N 613.412 0.11024 1.57214 0
M  V30 6273 C 614.658 -0.544479 1.95977 0
M  V30 6274 C 615.013 -1.64845 0.992171 0
M  V30 6275 O 614.306 -1.91589 0.0206981 0
M  V30 6276 C 614.5 -1.13102 3.39032 0
M  V30 6277 C 614.329 -0.0854079 4.49619 0
M  V30 6278 C 613.099 0.343373 5.04132 0
M  V30 6279 C 615.297 0.692232 5.0962 0
M  V30 6280 N 613.279 1.37567 5.98288 0
M  V30 6281 C 614.65 1.57596 5.99636 0
M  V30 6282 C 616.705 0.744085 4.92309 0
M  V30 6283 C 615.408 2.50701 6.74197 0
M  V30 6284 C 617.434 1.6628 5.67543 0
M  V30 6285 C 616.796 2.53412 6.57238 0
M  V30 6286 H 612.895 -0.169124 0.763493 0
M  V30 6287 H 615.479 0.196326 1.93708 0
M  V30 6288 H 613.65 -1.84158 3.41965 0
M  V30 6289 H 615.382 -1.74934 3.64939 0
M  V30 6290 H 612.137 -0.0473277 4.73576 0
M  V30 6291 H 612.561 1.89048 6.50069 0
M  V30 6292 H 617.203 0.0845825 4.22715 0
M  V30 6293 H 614.921 3.17669 7.43043 0
M  V30 6294 H 618.507 1.70825 5.56156 0
M  V30 6295 H 617.387 3.23347 7.14434 0
M  V30 6296 N 614.89 -1.56749 -0.16351 0
M  V30 6297 C 616.136 -1.82704 -0.880168 0
M  V30 6298 C 616.469 -0.689311 -1.81555 0
M  V30 6299 O 615.744 0.308224 -1.92042 0
M  V30 6300 C 616.027 -3.19084 -1.66905 0
M  V30 6301 C 615.88 -4.43397 -0.756269 0
M  V30 6302 C 617.199 -3.52493 -2.63509 0
M  V30 6303 H 614.318 -0.664608 -0.318535 0
M  V30 6304 H 616.96 -1.89438 -0.146036 0
M  V30 6305 H 615.11 -3.13475 -2.2949 0
M  V30 6306 H 616.782 -4.61079 -0.14269 0
M  V30 6307 H 615.025 -4.33752 -0.0647944 0
M  V30 6308 H 615.696 -5.3539 -1.34393 0
M  V30 6309 H 618.172 -3.58606 -2.11047 0
M  V30 6310 H 617.048 -4.48979 -3.15767 0
M  V30 6311 H 617.309 -2.77597 -3.44082 0
M  V30 6312 N 616.368 0.432326 -1.51554 0
M  V30 6313 C 617.784 0.769195 -1.39841 0
M  V30 6314 C 617.984 1.95584 -0.484675 0
M  V30 6315 O 617.04 2.52433 0.0582829 0
M  V30 6316 C 618.353 1.04487 -2.81963 0
M  V30 6317 C 619.901 1.149 -2.91148 0
M  V30 6318 C 620.376 1.45758 -4.34187 0
M  V30 6319 N 621.867 1.52671 -4.37317 0
M  V30 6320 C 622.602 1.78129 -5.4503 0
M  V30 6321 N 622.098 2.01345 -6.62897 0
M  V30 6322 N 623.891 1.79953 -5.32516 0
M  V30 6323 H 616.042 -0.349122 -2.09511 0
M  V30 6324 H 618.305 -0.0938113 -0.943347 0
M  V30 6325 H 618.011 0.24557 -3.50842 0
M  V30 6326 H 617.885 1.97119 -3.21596 0
M  V30 6327 H 620.272 1.93891 -2.22464 0
M  V30 6328 H 620.353 0.201568 -2.55005 0
M  V30 6329 H 619.997 0.672917 -5.03423 0
M  V30 6330 H 619.927 2.41715 -4.67848 0
M  V30 6331 H 622.418 1.36612 -3.52343 0
M  V30 6332 H 622.731 2.20155 -7.40778 0
M  V30 6333 H 621.076 1.98657 -6.66003 0
M  V30 6334 H 624.267 1.61337 -4.39418 0
M  V30 6335 H 624.44 1.99455 -6.1654 0
M  V30 6336 N 617.846 1.41785 0.688094 0
M  V30 6337 C 619.094 1.41264 1.4453 0
M  V30 6338 C 619.415 0.0252946 1.94984 0
M  V30 6339 O 618.685 -0.934081 1.72197 0
M  V30 6340 H 617.265 0.519998 0.536294 0
M  V30 6341 H 619.927 1.7709 0.813941 0
M  V30 6342 H 619.023 2.10439 2.30482 0
M  V30 6343 N 619.324 -0.923095 1.27737 0
M  V30 6344 C 620.573 -1.66581 1.13727 0
M  V30 6345 C 620.886 -1.9304 -0.315433 0
M  V30 6346 O 622.092 -2.65309 -0.57651 0
M  V30 6347 C 620.548 -3.00047 1.98745 0
M  V30 6348 C 620.156 -2.8127 3.48699 0
M  V30 6349 C 621.9 -3.77887 1.93395 0
M  V30 6350 C 619.807 -4.1032 4.25901 0
M  V30 6351 H 618.737 -0.624834 0.422017 0
M  V30 6352 H 621.388 -1.02514 1.52194 0
M  V30 6353 H 619.77 -3.65197 1.53125 0
M  V30 6354 H 620.944 -2.24859 4.02213 0
M  V30 6355 H 619.259 -2.16854 3.55476 0
M  V30 6356 H 621.856 -4.73526 2.48348 0
M  V30 6357 H 622.199 -4.06264 0.908605 0
M  V30 6358 H 622.732 -3.19541 2.36935 0
M  V30 6359 H 619.471 -3.8712 5.28978 0
M  V30 6360 H 618.991 -4.66377 3.77163 0
M  V30 6361 H 620.67 -4.78648 4.35321 0
M  V30 6362 N 620.802 -1.09834 -1.13024 0
M  V30 6363 C 621.712 -0.753731 -2.22162 0
M  V30 6364 C 622.728 0.246105 -1.72251 0
M  V30 6365 O 623.904 0.0864051 -2.01215 0
M  V30 6366 C 620.969 -0.183958 -3.46212 0
M  V30 6367 C 620.03 -1.24028 -4.10993 0
M  V30 6368 C 619.263 -0.697597 -5.29121 0
M  V30 6369 O 619.486 0.478092 -5.68393 0
M  V30 6370 O 618.42 -1.4546 -5.84059 0
M  V30 6371 H 622.246 -1.66456 -2.5402 0
M  V30 6372 H 619.831 -0.873026 -1.21238 0
M  V30 6373 H 621.713 0.130257 -4.21199 0
M  V30 6374 H 620.388 0.699823 -3.16045 0
M  V30 6375 H 619.295 -1.60725 -3.37814 0
M  V30 6376 H 620.628 -2.09685 -4.45301 0
M  V30 6377 N 622.28 1.30327 -0.886154 0
M  V30 6378 C 623.691 1.78243 -0.555554 0
M  V30 6379 C 624.042 1.72849 0.928314 0
M  V30 6380 O 623.167 1.30607 1.72542 0
M  V30 6381 C 623.762 3.23654 -1.00168 0
M  V30 6382 C 622.321 3.69401 -0.722471 0
M  V30 6383 C 621.468 2.50753 -1.18399 0
M  V30 6384 H 624.419 1.1718 -1.07026 0
M  V30 6385 H 624.44 3.79056 -0.331152 0
M  V30 6386 H 623.952 3.27548 -2.08169 0
M  V30 6387 H 622.053 3.70995 0.345496 0
M  V30 6388 H 622.166 4.60818 -1.31085 0
M  V30 6389 H 620.53 2.47452 -0.603303 0
M  V30 6390 H 621.313 2.57383 -2.27176 0
M  V30 6391 N 623.758 0.647228 1.43697 0
M  V30 6392 C 625.174 0.314256 1.56476 0
M  V30 6393 C 625.374 -1.18191 1.63196 0
M  V30 6394 O 624.43 -1.96655 1.58376 0
M  V30 6395 C 625.743 1.02034 2.82859 0
M  V30 6396 C 627.291 1.00002 2.96595 0
M  V30 6397 C 627.766 1.68689 4.25803 0
M  V30 6398 N 629.257 1.65424 4.32654 0
M  V30 6399 C 629.992 2.1545 5.31384 0
M  V30 6400 N 629.488 2.73738 6.36427 0
M  V30 6401 N 631.281 2.05985 5.22998 0
M  V30 6402 H 623.432 1.61821 1.37578 0
M  V30 6403 H 625.695 0.680184 0.660344 0
M  V30 6404 H 625.401 2.07542 2.83935 0
M  V30 6405 H 625.275 0.568146 3.72897 0
M  V30 6406 H 627.662 -0.0466319 2.95063 0
M  V30 6407 H 627.743 1.49086 2.07863 0
M  V30 6408 H 627.387 2.73308 4.28095 0
M  V30 6409 H 627.317 1.17076 5.13421 0
M  V30 6410 H 629.808 1.22884 3.57363 0
M  V30 6411 H 630.121 3.09602 7.08072 0
M  V30 6412 H 628.466 2.77796 6.37067 0
M  V30 6413 H 631.657 1.60157 4.39849 0
M  V30 6414 H 631.83 2.45281 5.99784 0
M  V30 6415 N 625.236 -1.5273 0.388769 0
M  V30 6416 C 626.466 -2.05693 -0.193397 0
M  V30 6417 C 626.874 -1.26038 -1.41107 0
M  V30 6418 O 626.217 -0.30001 -1.81234 0
M  V30 6419 C 626.279 -3.53962 -0.628561 0
M  V30 6420 C 625.943 -4.54519 0.475576 0
M  V30 6421 C 626.94 -5.02526 1.33281 0
M  V30 6422 C 624.625 -4.98174 0.642453 0
M  V30 6423 C 626.619 -5.92812 2.34205 0
M  V30 6424 C 624.306 -5.88262 1.65503 0
M  V30 6425 C 625.304 -6.35473 2.50325 0
M  V30 6426 O 624.992 -7.23781 3.49852 0
M  V30 6427 H 624.724 -0.675197 -0.0329395 0
M  V30 6428 H 627.278 -1.97835 0.552326 0
M  V30 6429 H 625.508 -3.59437 -1.42625 0
M  V30 6430 H 627.197 -3.89669 -1.13633 0
M  V30 6431 H 627.963 -4.6953 1.21519 0
M  V30 6432 H 623.842 -4.60999 -0.00805093 0
M  V30 6433 H 627.386 -6.29585 3.00447 0
M  V30 6434 H 623.283 -6.20672 1.77304 0
M  V30 6435 H 624.051 -7.4184 3.45855 0
M  V30 6436 N 626.714 -0.118576 -1.57153 0
M  V30 6437 C 627.939 0.550582 -1.99958 0
M  V30 6438 C 628.364 1.59458 -0.997736 0
M  V30 6439 O 627.722 1.81274 0.0306269 0
M  V30 6440 C 627.77 1.15379 -3.41643 0
M  V30 6441 O 626.874 2.26932 -3.44348 0
M  V30 6442 H 626.215 0.137567 -0.649593 0
M  V30 6443 H 628.745 -0.206926 -2.03551 0
M  V30 6444 H 628.755 1.48942 -3.79843 0
M  V30 6445 H 627.43 0.389087 -4.14076 0
M  V30 6446 H 626.007 1.94812 -3.17967 0
M  V30 6447 N 628.193 1.56834 0.155195 0
M  V30 6448 C 629.125 1.94235 1.21677 0
M  V30 6449 C 630.138 0.83724 1.39621 0
M  V30 6450 O 631.327 1.11567 1.39338 0
M  V30 6451 C 628.427 2.19402 2.58294 0
M  V30 6452 C 627.6 3.50671 2.61436 0
M  V30 6453 C 626.659 3.64475 3.79532 0
M  V30 6454 O 625.685 4.36945 3.64784 0
M  V30 6455 N 626.887 3.00526 4.96653 0
M  V30 6456 H 629.652 2.85901 0.898932 0
M  V30 6457 H 627.213 1.58185 0.34483 0
M  V30 6458 H 629.205 2.25886 3.35794 0
M  V30 6459 H 627.775 1.34042 2.82403 0
M  V30 6460 H 626.995 3.55702 1.69912 0
M  V30 6461 H 628.283 4.3702 2.60559 0
M  V30 6462 H 627.681 2.41549 5.11538 0
M  V30 6463 H 626.238 3.12583 5.71958 0
M  V30 6464 N 629.671 -0.424282 1.51781 0
M  V30 6465 C 630.92 -1.16961 1.64326 0
M  V30 6466 C 631.233 -1.92035 0.371749 0
M  V30 6467 O 632.439 -2.68873 0.37676 0
M  V30 6468 C 630.895 -2.12782 2.90262 0
M  V30 6469 C 630.503 -1.43295 4.24465 0
M  V30 6470 C 632.247 -2.87667 3.12166 0
M  V30 6471 C 630.154 -2.37676 5.41538 0
M  V30 6472 H 629.084 -0.440293 0.612093 0
M  V30 6473 H 631.735 -0.435431 1.78259 0
M  V30 6474 H 630.117 -2.8969 2.69992 0
M  V30 6475 H 631.291 -0.718564 4.55163 0
M  V30 6476 H 629.606 -0.805118 4.08542 0
M  V30 6477 H 632.203 -3.58395 3.96808 0
M  V30 6478 H 632.546 -3.49758 2.25776 0
M  V30 6479 H 633.079 -2.17863 3.32837 0
M  V30 6480 H 629.818 -1.80255 6.30229 0
M  V30 6481 H 629.338 -3.07132 5.15199 0
M  V30 6482 H 631.017 -2.98529 5.74012 0
M  V30 6483 N 631.149 -1.42148 -0.680565 0
M  V30 6484 C 632.396 -1.4231 -1.44063 0
M  V30 6485 C 632.724 -0.037488 -1.94464 0
M  V30 6486 O 631.979 0.953184 -1.70918 0
M  V30 6487 C 632.278 -2.38945 -2.65782 0
M  V30 6488 C 631.944 -3.85455 -2.33956 0
M  V30 6489 C 630.606 -4.25364 -2.24987 0
M  V30 6490 C 632.958 -4.77895 -2.08004 0
M  V30 6491 C 630.286 -5.55701 -1.88184 0
M  V30 6492 C 632.638 -6.08568 -1.72706 0
M  V30 6493 C 631.302 -6.47482 -1.62244 0
M  V30 6494 H 630.572 -0.520748 -0.527164 0
M  V30 6495 H 633.219 -1.7505 -0.776524 0
M  V30 6496 H 631.524 -1.99511 -3.37198 0
M  V30 6497 H 633.221 -2.36336 -3.23954 0
M  V30 6498 H 629.811 -3.53855 -2.41836 0
M  V30 6499 H 633.995 -4.47854 -2.1387 0
M  V30 6500 H 629.251 -5.84718 -1.78648 0
M  V30 6501 H 633.425 -6.79688 -1.5165 0
M  V30 6502 H 631.052 -7.48387 -1.33496 0
M  V30 6503 N 632.627 0.916307 -1.28225 0
M  V30 6504 C 633.56 2.01954 -1.06254 0
M  V30 6505 C 634.538 1.62587 0.0205983 0
M  V30 6506 O 635.722 1.88073 -0.126824 0
M  V30 6507 C 632.849 3.33086 -0.614141 0
M  V30 6508 C 631.895 3.91435 -1.69354 0
M  V30 6509 S 632.728 4.22603 -3.28887 0
M  V30 6510 C 633.884 5.568 -2.85876 0
M  V30 6511 H 634.117 2.20281 -1.99659 0
M  V30 6512 H 631.65 1.06085 -1.12184 0
M  V30 6513 H 633.608 4.089 -0.36213 0
M  V30 6514 H 632.269 3.12664 0.300036 0
M  V30 6515 H 631.462 4.86098 -1.33136 0
M  V30 6516 H 631.064 3.22248 -1.89821 0
M  V30 6517 H 633.356 6.3658 -2.31888 0
M  V30 6518 H 634.299 5.97927 -3.79326 0
M  V30 6519 H 634.707 5.17865 -2.24669 0
M  V30 6520 N 634.105 1.10431 1.1244 0
M  V30 6521 C 635.354 0.841539 1.83306 0
M  V30 6522 C 635.667 -0.634961 1.85007 0
M  V30 6523 O 636.873 -1.01363 2.51869 0
M  V30 6524 C 635.329 1.45565 3.29149 0
M  V30 6525 C 634.937 2.96544 3.35806 0
M  V30 6526 C 636.681 1.27227 4.04986 0
M  V30 6527 C 634.588 3.5099 4.75983 0
M  V30 6528 H 633.518 0.311156 0.686803 0
M  V30 6529 H 636.169 1.32829 1.26604 0
M  V30 6530 H 634.551 0.896574 3.85717 0
M  V30 6531 H 635.725 3.58766 2.89177 0
M  V30 6532 H 634.04 3.14036 2.73442 0
M  V30 6533 H 636.637 1.65348 5.08492 0
M  V30 6534 H 636.98 0.213834 4.1575 0
M  V30 6535 H 637.513 1.79941 3.54776 0
M  V30 6536 H 634.252 4.56499 4.70413 0
M  V30 6537 H 633.772 2.93535 5.23065 0
M  V30 6538 H 635.451 3.48808 5.44924 0
M  V30 6539 N 635.583 -1.29855 0.893053 0
M  V30 6540 C 636.831 -1.9544 0.514566 0
M  V30 6541 C 637.152 -1.70795 -0.940959 0
M  V30 6542 O 636.422 -1.03601 -1.66264 0
M  V30 6543 H 635.002 -0.723137 0.187302 0
M  V30 6544 H 637.664 -1.58234 1.13789 0
M  V30 6545 H 636.76 -3.04341 0.691581 0
M  V30 6546 N 637.061 -0.65484 -1.43351 0
M  V30 6547 C 638.472 -0.248506 -1.85039 0
M  V30 6548 C 638.823 1.20526 -1.54816 0
M  V30 6549 O 637.948 1.92016 -0.99794 0
M  V30 6550 C 638.543 -0.444241 -3.35875 0
M  V30 6551 C 637.102 -0.0922108 -3.76287 0
M  V30 6552 C 636.249 -0.746327 -2.67068 0
M  V30 6553 H 639.2 -0.8584 -1.33481 0
M  V30 6554 H 639.221 0.309762 -3.79237 0
M  V30 6555 H 638.733 -1.50239 -3.5784 0
M  V30 6556 H 636.834 0.96328 -3.59933 0
M  V30 6557 H 636.947 -0.518807 -4.76283 0
M  V30 6558 H 635.311 -0.179416 -2.54067 0
M  V30 6559 H 636.094 -1.80754 -2.91861 0
M  V30 6560 N 638.539 1.52521 -0.396863 0
M  V30 6561 C 639.764 2.06571 0.185258 0
M  V30 6562 C 640.189 1.26605 1.39115 0
M  V30 6563 O 639.547 0.293055 1.78916 0
M  V30 6564 C 639.595 3.5674 0.526189 0
M  V30 6565 O 638.699 3.7929 1.61903 0
M  V30 6566 H 638.04 0.663712 0.0195474 0
M  V30 6567 H 640.57 1.966 -0.566519 0
M  V30 6568 H 640.58 4.00311 0.788338 0
M  V30 6569 H 639.255 4.14379 -0.355397 0
M  V30 6570 H 637.832 3.47605 1.35 0
M  V30 6571 N 640.017 0.126909 1.57088 0
M  V30 6572 C 640.98 -0.806097 2.14557 0
M  V30 6573 C 641.98 -1.18918 1.08236 0
M  V30 6574 O 643.17 -1.11339 1.33975 0
M  V30 6575 C 640.302 -2.09116 2.69227 0
M  V30 6576 H 641.495 -0.306522 2.98329 0
M  V30 6577 H 639.048 -0.122393 1.5582 0
M  V30 6578 H 639.783 -2.63486 1.89065 0
M  V30 6579 H 639.568 -1.82588 3.46993 0
M  V30 6580 H 641.058 -2.75794 3.13572 0
M  V30 6581 N 641.495 -1.56914 -0.146875 0
M  V30 6582 C 642.445 -1.94693 -1.18653 0
M  V30 6583 C 643.429 -0.81821 -1.38543 0
M  V30 6584 O 644.621 -1.08167 -1.40103 0
M  V30 6585 C 641.75 -2.33117 -2.52014 0
M  V30 6586 C 640.836 -3.5256 -2.35717 0
M  V30 6587 N 641.227 -4.69091 -1.89175 0
M  V30 6588 C 639.525 -3.57647 -2.66467 0
M  V30 6589 C 640.226 -5.51187 -1.85924 0
M  V30 6590 N 639.202 -4.92899 -2.29242 0
M  V30 6591 H 643.004 -2.82264 -0.81879 0
M  V30 6592 H 640.518 -1.58474 -0.354929 0
M  V30 6593 H 642.515 -2.58387 -3.27172 0
M  V30 6594 H 641.175 -1.46898 -2.89571 0
M  V30 6595 H 642.186 -4.92844 -1.59139 0
M  V30 6596 H 638.863 -2.81967 -3.07898 0
M  V30 6597 H 640.253 -6.54613 -1.51431 0
M  V30 6598 N 642.974 0.416227 -1.52004 0
M  V30 6599 C 643.884 1.53147 -1.77717 0
M  V30 6600 C 644.9 1.609 -0.662368 0
M  V30 6601 O 646.076 1.77747 -0.946991 0
M  V30 6602 C 643.141 2.88948 -1.91598 0
M  V30 6603 C 642.202 2.9114 -3.15493 0
M  V30 6604 C 641.435 4.20464 -3.28703 0
M  V30 6605 O 641.658 5.13981 -2.47345 0
M  V30 6606 O 640.592 4.29368 -4.21813 0
M  V30 6607 H 644.418 1.34357 -2.72363 0
M  V30 6608 H 642.003 0.601373 -1.36762 0
M  V30 6609 H 643.885 3.69505 -2.02593 0
M  V30 6610 H 642.56 3.07821 -1.00141 0
M  V30 6611 H 641.467 2.09461 -3.09962 0
M  V30 6612 H 642.8 2.77216 -4.06709 0
M  V30 6613 N 644.452 1.42507 0.673017 0
M  V30 6614 C 645.698 1.43284 1.43519 0
M  V30 6615 C 646.031 0.049668 1.94136 0
M  V30 6616 O 645.306 -0.926369 1.71022 0
M  V30 6617 C 645.589 2.45874 2.63093 0
M  V30 6618 C 645.442 3.93388 2.18096 0
M  V30 6619 C 646.761 2.45431 3.6531 0
M  V30 6620 H 643.88 0.521752 0.520522 0
M  V30 6621 H 646.522 1.73932 0.764701 0
M  V30 6622 H 644.672 2.19869 3.20296 0
M  V30 6623 H 646.344 4.30379 1.66046 0
M  V30 6624 H 644.587 4.07169 1.49652 0
M  V30 6625 H 645.258 4.60752 3.03993 0
M  V30 6626 H 647.734 2.68561 3.17827 0
M  V30 6627 H 646.61 3.19189 4.46553 0
M  V30 6628 H 646.871 1.48092 4.16559 0
M  V30 6629 N 645.93 -0.909495 1.28709 0
M  V30 6630 C 647.178 -1.65577 1.15882 0
M  V30 6631 C 647.499 -1.928 -0.292108 0
M  V30 6632 O 646.769 -1.54716 -1.20166 0
M  V30 6633 H 645.349 -0.613714 0.425869 0
M  V30 6634 H 648.011 -1.09108 1.61498 0
M  V30 6635 H 647.107 -2.61634 1.70159 0
M  V30 6636 N 647.408 -1.11026 -1.11852 0
M  V30 6637 C 648.654 -0.857729 -1.83768 0
M  V30 6638 C 648.987 0.615143 -1.842 0
M  V30 6639 O 648.262 1.45391 -1.29196 0
M  V30 6640 C 648.545 -1.41453 -3.31154 0
M  V30 6641 C 648.398 -2.95471 -3.39142 0
M  V30 6642 C 649.717 -1.0619 -4.27097 0
M  V30 6643 H 646.836 -0.313044 -0.667212 0
M  V30 6644 H 649.478 -1.37443 -1.31185 0
M  V30 6645 H 647.628 -0.975052 -3.76065 0
M  V30 6646 H 649.3 -3.4799 -3.02821 0
M  V30 6647 H 647.543 -3.31759 -2.79497 0
M  V30 6648 H 648.214 -3.29515 -4.42859 0
M  V30 6649 H 650.69 -1.44122 -3.90344 0
M  V30 6650 H 649.566 -1.47832 -5.28618 0
M  V30 6651 H 649.827 0.0278912 -4.42091 0
M  V30 6652 N 648.886 1.2938 -0.899927 0
M  V30 6653 C 650.134 1.95164 -0.524924 0
M  V30 6654 C 650.455 1.71292 0.931888 0
M  V30 6655 O 649.725 1.04481 1.65712 0
M  V30 6656 H 648.305 0.722133 -0.191135 0
M  V30 6657 H 650.967 1.57628 -1.14627 0
M  V30 6658 H 650.063 3.0397 -0.707711 0
M  V30 6659 N 650.364 0.662433 1.43002 0
M  V30 6660 C 651.594 0.187343 2.05749 0
M  V30 6661 C 652.002 -1.15582 1.49791 0
M  V30 6662 O 651.345 -1.72651 0.627487 0
M  V30 6663 C 651.407 0.0316493 3.59486 0
M  V30 6664 C 651.071 1.30156 4.38073 0
M  V30 6665 C 652.068 2.23234 4.69535 0
M  V30 6666 C 649.753 1.54572 4.77926 0
M  V30 6667 C 651.747 3.39012 5.39768 0
M  V30 6668 C 649.434 2.70641 5.47902 0
M  V30 6669 C 650.432 3.62687 5.78746 0
M  V30 6670 O 650.12 4.76728 6.47291 0
M  V30 6671 H 649.852 0.0915214 0.669776 0
M  V30 6672 H 652.406 0.905982 1.8434 0
M  V30 6673 H 650.636 -0.742451 3.79506 0
M  V30 6674 H 652.325 -0.401977 4.03905 0
M  V30 6675 H 653.091 2.05616 4.39257 0
M  V30 6676 H 648.97 0.83804 4.53319 0
M  V30 6677 H 652.514 4.10877 5.63761 0
M  V30 6678 H 648.411 2.88189 5.77596 0
M  V30 6679 H 649.179 4.76113 6.65777 0
M  V30 6680 N 651.842 -1.52309 0.404946 0
M  V30 6681 C 653.258 -1.59503 0.0556255 0
M  V30 6682 C 653.458 -1.41805 -1.43156 0
M  V30 6683 O 652.514 -1.2429 -2.19792 0
M  V30 6684 C 653.827 -2.95687 0.546801 0
M  V30 6685 C 655.375 -3.08909 0.504413 0
M  V30 6686 C 655.85 -4.47566 0.97203 0
M  V30 6687 N 657.341 -4.53795 0.928679 0
M  V30 6688 C 658.076 -5.59346 1.26174 0
M  V30 6689 N 657.572 -6.72469 1.66604 0
M  V30 6690 N 659.365 -5.49532 1.18198 0
M  V30 6691 H 651.516 -1.6206 1.37296 0
M  V30 6692 H 653.779 -0.762161 0.563751 0
M  V30 6693 H 653.485 -3.13905 1.58609 0
M  V30 6694 H 653.359 -3.77172 -0.0457905 0
M  V30 6695 H 655.746 -2.90378 -0.525819 0
M  V30 6696 H 655.827 -2.2934 1.13301 0
M  V30 6697 H 655.471 -4.6684 2.00057 0
M  V30 6698 H 655.401 -5.25625 0.320292 0
M  V30 6699 H 657.892 -3.72588 0.631369 0
M  V30 6700 H 658.205 -7.48993 1.9034 0
M  V30 6701 H 656.55 -6.73761 1.70504 0
M  V30 6702 H 659.741 -4.60038 0.865011 0
M  V30 6703 H 659.914 -6.31687 1.44485 0
M  V30 6704 N 653.32 -0.135238 -1.57019 0
M  V30 6705 C 654.55 0.525303 -1.9981 0
M  V30 6706 C 654.958 1.59724 -1.01415 0
M  V30 6707 O 654.301 1.837 -0.00130938 0
M  V30 6708 C 654.363 1.19578 -3.3903 0
M  V30 6709 C 654.027 0.269855 -4.56203 0
M  V30 6710 C 655.024 -0.497905 -5.1751 0
M  V30 6711 C 652.709 0.176188 -5.01991 0
M  V30 6712 C 654.703 -1.3469 -6.23007 0
M  V30 6713 C 652.39 -0.676422 -6.07345 0
M  V30 6714 C 653.388 -1.43658 -6.67721 0
M  V30 6715 O 653.076 -2.27501 -7.71037 0
M  V30 6716 H 652.808 0.142296 -0.660854 0
M  V30 6717 H 655.362 -0.223272 -2.04183 0
M  V30 6718 H 653.592 1.99176 -3.3146 0
M  V30 6719 H 655.281 1.75486 -3.66005 0
M  V30 6720 H 656.047 -0.435507 -4.83041 0
M  V30 6721 H 651.926 0.757583 -4.54733 0
M  V30 6722 H 655.47 -1.9407 -6.70062 0
M  V30 6723 H 651.367 -0.740154 -6.41243 0
M  V30 6724 H 652.135 -2.20619 -7.88206 0
M  V30 6725 N 654.798 1.5699 0.138552 0
M  V30 6726 C 655.728 2.01933 1.17241 0
M  V30 6727 C 656.709 0.90033 1.44319 0
M  V30 6728 O 657.894 1.16872 1.55095 0
M  V30 6729 C 655.024 2.40711 2.50351 0
M  V30 6730 C 653.978 3.55874 2.37776 0
M  V30 6731 C 653.304 3.80491 3.75674 0
M  V30 6732 C 654.604 4.8826 1.85472 0
M  V30 6733 H 656.298 2.88551 0.798672 0
M  V30 6734 H 653.844 1.3882 0.382743 0
M  V30 6735 H 655.797 2.70754 3.22909 0
M  V30 6736 H 654.521 1.5104 2.89576 0
M  V30 6737 H 653.18 3.2601 1.67669 0
M  V30 6738 H 652.828 2.88057 4.12349 0
M  V30 6739 H 652.528 4.57998 3.68119 0
M  V30 6740 H 654.052 4.12967 4.49767 0
M  V30 6741 H 655.466 5.16965 2.4783 0
M  V30 6742 H 653.863 5.69631 1.88787 0
M  V30 6743 H 654.933 4.78071 0.810935 0
M  V30 6744 N 656.276 -0.40816 1.52223 0
M  V30 6745 C 657.224 -1.51788 1.76248 0
M  V30 6746 C 658.218 -1.57264 0.629638 0
M  V30 6747 O 659.424 -1.60659 0.811704 0
M  V30 6748 H 655.799 -0.504823 0.557367 0
M  V30 6749 H 657.77 -1.2871 2.69214 0
M  V30 6750 C 656.519 -2.89145 1.93107 0
M  V30 6751 H 655.842 -2.85674 2.79697 0
M  V30 6752 H 657.282 -3.66082 2.13916 0
M  V30 6753 C 655.741 -3.29581 0.698431 0
M  V30 6754 O 656.271 -4.01479 -0.133238 0
M  V30 6755 N 654.477 -2.85651 0.53405 0
M  V30 6756 H 654.024 -2.2731 1.21194 0
M  V30 6757 H 653.982 -3.13065 -0.289387 0
M  V30 6758 N 657.755 -1.42862 -0.66545 0
M  V30 6759 C 658.665 -1.49491 -1.80803 0
M  V30 6760 C 659.681 -0.382914 -1.69734 0
M  V30 6761 O 660.857 -0.635223 -1.9112 0
M  V30 6762 C 657.922 -1.40383 -3.17007 0
M  V30 6763 C 656.983 -2.62152 -3.39963 0
M  V30 6764 C 656.216 -2.53469 -4.69669 0
M  V30 6765 O 656.439 -1.57568 -5.48205 0
M  V30 6766 O 655.373 -3.43763 -4.94075 0
M  V30 6767 H 659.199 -2.45949 -1.78165 0
M  V30 6768 H 656.784 -1.24728 -0.822387 0
M  V30 6769 H 658.666 -1.377 -3.98267 0
M  V30 6770 H 657.341 -0.470546 -3.20262 0
M  V30 6771 H 656.248 -2.70409 -2.58515 0
M  V30 6772 H 657.581 -3.54411 -3.41546 0
M  V30 6773 N 659.233 0.902656 -1.29189 0
M  V30 6774 C 660.458 1.69167 -1.19989 0
M  V30 6775 C 660.883 1.86607 0.236495 0
M  V30 6776 O 660.241 1.38425 1.17082 0
M  V30 6777 C 660.289 3.05532 -1.91527 0
M  V30 6778 O 659.393 3.93621 -1.2303 0
M  V30 6779 H 658.734 0.517584 -0.415936 0
M  V30 6780 H 661.264 1.12785 -1.70706 0
M  V30 6781 H 661.274 3.55693 -1.99866 0
M  V30 6782 H 659.949 2.92156 -2.96003 0
M  V30 6783 H 658.526 3.52055 -1.22928 0
M  V30 6784 N 660.711 1.11618 1.11262 0
M  V30 6785 C 661.939 0.888739 1.8684 0
M  V30 6786 C 662.354 -0.561558 1.80255 0
M  V30 6787 O 661.711 -1.38782 1.18515 0
M  V30 6788 C 661.762 1.34422 3.35579 0
M  V30 6789 O 661.483 2.73766 3.42029 0
M  V30 6790 C 662.984 1.15246 4.28058 0
M  V30 6791 H 660.204 0.318152 0.590779 0
M  V30 6792 H 662.748 1.48398 1.40707 0
M  V30 6793 H 660.903 0.79239 3.7921 0
M  V30 6794 H 661.317 2.9355 4.34659 0
M  V30 6795 H 662.791 1.52015 5.30656 0
M  V30 6796 H 663.268 0.0922007 4.39103 0
M  V30 6797 H 663.874 1.69136 3.90222 0
M  V30 6798 N 662.189 -1.289 0.906776 0
M  V30 6799 C 663.139 -2.25122 0.361109 0
M  V30 6800 C 664.123 -1.52169 -0.52283 0
M  V30 6801 O 665.315 -1.73223 -0.363691 0
M  V30 6802 C 662.444 -3.40915 -0.403982 0
M  V30 6803 C 661.53 -4.21198 0.495279 0
M  V30 6804 N 661.921 -4.79636 1.60572 0
M  V30 6805 C 660.219 -4.45027 0.294372 0
M  V30 6806 C 660.92 -5.39977 2.16332 0
M  V30 6807 N 659.896 -5.23753 1.45546 0
M  V30 6808 H 663.698 -2.67869 1.20927 0
M  V30 6809 H 661.212 -1.43592 0.758632 0
M  V30 6810 H 663.209 -4.08922 -0.811695 0
M  V30 6811 H 661.869 -2.99703 -1.24932 0
M  V30 6812 H 662.88 -4.78209 1.98838 0
M  V30 6813 H 659.557 -4.14348 -0.512021 0
M  V30 6814 H 660.947 -5.96266 3.09704 0
M  V30 6815 N 663.667 -0.670007 -1.42649 0
M  V30 6816 C 664.577 0.0114788 -2.34597 0
M  V30 6817 C 665.593 0.794055 -1.54825 0
M  V30 6818 O 666.769 0.737472 -1.87412 0
M  V30 6819 C 663.834 0.954436 -3.33304 0
M  V30 6820 C 662.895 0.166925 -4.28975 0
M  V30 6821 C 662.128 1.06497 -5.22967 0
M  V30 6822 O 662.351 2.30446 -5.21777 0
M  V30 6823 O 661.285 0.528347 -5.99577 0
M  V30 6824 H 665.111 -0.745794 -2.944 0
M  V30 6825 H 662.696 -0.430228 -1.43071 0
M  V30 6826 H 664.578 1.49589 -3.93956 0
M  V30 6827 H 663.253 1.69164 -2.7598 0
M  V30 6828 H 662.16 -0.418515 -3.71752 0
M  V30 6829 H 663.493 -0.531067 -4.89327 0
M  V30 6830 N 665.145 1.52092 -0.413018 0
M  V30 6831 C 666.078 2.23613 0.455234 0
M  V30 6832 C 667.056 1.2459 1.04481 0
M  V30 6833 O 668.24 1.53653 1.09193 0
M  V30 6834 C 665.367 2.96775 1.63224 0
M  V30 6835 C 664.413 4.10261 1.16568 0
M  V30 6836 S 665.246 5.35348 0.127633 0
M  V30 6837 C 666.402 6.1204 1.30987 0
M  V30 6838 H 666.635 2.96911 -0.152042 0
M  V30 6839 H 664.168 1.53134 -0.197343 0
M  V30 6840 H 666.126 3.39532 2.30713 0
M  V30 6841 H 664.787 2.23113 2.21087 0
M  V30 6842 H 663.98 4.6064 2.04515 0
M  V30 6843 H 663.582 3.6964 0.569386 0
M  V30 6844 H 665.874 6.39651 2.23276 0
M  V30 6845 H 666.817 7.03022 0.846533 0
M  V30 6846 H 667.225 5.43161 1.53743 0
M  V30 6847 N 666.623 0.143563 1.56945 0
M  V30 6848 C 668.039 -0.212877 1.58174 0
M  V30 6849 C 668.239 -1.64926 1.15766 0
M  V30 6850 O 667.295 -2.37535 0.856361 0
M  V30 6851 C 668.608 0.0427573 3.0067 0
M  V30 6852 C 670.156 -0.0212221 3.12993 0
M  V30 6853 C 670.631 0.207036 4.57532 0
M  V30 6854 N 672.122 0.153845 4.62944 0
M  V30 6855 C 672.857 0.305018 5.72588 0
M  V30 6856 N 672.353 0.513722 6.90893 0
M  V30 6857 N 674.146 0.242862 5.61575 0
M  V30 6858 H 666.297 1.08148 1.82805 0
M  V30 6859 H 668.56 0.427831 0.84597 0
M  V30 6860 H 668.266 1.03672 3.36073 0
M  V30 6861 H 668.14 -0.678195 3.71053 0
M  V30 6862 H 670.527 -1.00574 2.77433 0
M  V30 6863 H 670.608 0.732004 2.45103 0
M  V30 6864 H 670.252 1.18863 4.93795 0
M  V30 6865 H 670.182 -0.566473 5.23544 0
M  V30 6866 H 672.673 -0.00294866 3.779 0
M  V30 6867 H 672.986 0.619273 7.70315 0
M  V30 6868 H 671.331 0.550001 6.9282 0
M  V30 6869 H 674.522 0.0806015 4.68031 0
M  V30 6870 H 674.695 0.364112 6.46976 0
M  V30 6871 N 668.101 -1.57061 -0.130224 0
M  V30 6872 C 669.331 -1.88159 -0.853217 0
M  V30 6873 C 669.739 -0.731675 -1.7448 0
M  V30 6874 O 669.082 0.307035 -1.81116 0
M  V30 6875 C 669.144 -3.1415 -1.74785 0
M  V30 6876 C 668.808 -4.45202 -1.03173 0
M  V30 6877 C 669.805 -5.18526 -0.377759 0
M  V30 6878 C 667.49 -4.91912 -1.01624 0
M  V30 6879 C 669.484 -6.36775 0.282123 0
M  V30 6880 C 667.171 -6.10082 -0.352555 0
M  V30 6881 C 668.169 -6.82361 0.295483 0
M  V30 6882 O 667.857 -7.98284 0.948606 0
M  V30 6883 H 667.589 -0.627596 -0.251197 0
M  V30 6884 H 670.143 -2.05034 -0.1226 0
M  V30 6885 H 668.373 -2.93328 -2.51983 0
M  V30 6886 H 670.062 -3.31359 -2.34427 0
M  V30 6887 H 670.828 -4.83498 -0.381417 0
M  V30 6888 H 666.707 -4.35566 -1.51007 0
M  V30 6889 H 670.251 -6.93129 0.788525 0
M  V30 6890 H 666.148 -6.44569 -0.346621 0
M  V30 6891 H 666.916 -8.14054 0.851954 0
M  V30 6892 N 669.579 0.400081 -1.52437 0
M  V30 6893 C 670.809 1.16598 -1.70553 0
M  V30 6894 C 671.217 1.8451 -0.418665 0
M  V30 6895 O 670.56 1.73069 0.615855 0
M  V30 6896 C 670.622 2.26517 -2.7916 0
M  V30 6897 C 670.286 1.78666 -4.20628 0
M  V30 6898 C 671.283 1.26946 -5.04163 0
M  V30 6899 C 668.968 1.85225 -4.66902 0
M  V30 6900 C 670.962 0.824187 -6.32049 0
M  V30 6901 C 668.649 1.40309 -5.94774 0
M  V30 6902 C 669.647 0.889922 -6.77178 0
M  V30 6903 O 669.335 0.447281 -8.02655 0
M  V30 6904 H 669.067 0.356023 -0.574651 0
M  V30 6905 H 671.621 0.475598 -1.99818 0
M  V30 6906 H 669.851 2.98946 -2.45292 0
M  V30 6907 H 671.54 2.88237 -2.85787 0
M  V30 6908 H 672.306 1.21244 -4.69601 0
M  V30 6909 H 668.185 2.24111 -4.02859 0
M  V30 6910 H 671.729 0.422958 -6.96317 0
M  V30 6911 H 667.626 1.45693 -6.28843 0
M  V30 6912 H 668.394 0.569768 -8.16514 0
M  V30 6913 N 671.057 1.43213 0.657864 0
M  V30 6914 C 672.285 1.48015 1.44566 0
M  V30 6915 C 672.7 0.0965951 1.88553 0
M  V30 6916 O 672.057 -0.892221 1.59203 0
M  V30 6917 C 672.108 2.42199 2.68369 0
M  V30 6918 O 671.829 3.75173 2.26223 0
M  V30 6919 C 673.33 2.56195 3.61772 0
M  V30 6920 H 670.55 0.502861 0.444266 0
M  V30 6921 H 673.094 1.87907 0.806917 0
M  V30 6922 H 671.249 2.05514 3.28394 0
M  V30 6923 H 671.663 4.25776 3.06293 0
M  V30 6924 H 673.137 3.26182 4.4532 0
M  V30 6925 H 673.614 1.60534 4.0881 0
M  V30 6926 H 674.22 2.93671 3.07632 0
M  V30 6927 N 672.536 -0.895792 1.29666 0
M  V30 6928 C 673.499 -1.98189 1.15124 0
M  V30 6929 C 674.499 -1.60572 0.0855717 0
M  V30 6930 O 675.689 -1.70991 0.332826 0
M  V30 6931 C 672.821 -3.32289 0.761372 0
M  V30 6932 H 674.014 -2.12518 2.11603 0
M  V30 6933 H 671.567 -1.0808 1.12908 0
M  V30 6934 H 672.302 -3.23662 -0.203393 0
M  V30 6935 H 672.087 -3.60958 1.53139 0
M  V30 6936 H 673.577 -4.1198 0.682792 0
M  V30 6937 N 674.014 -1.12206 -1.10668 0
M  V30 6938 C 675.242 -0.898635 -1.86366 0
M  V30 6939 C 675.657 0.551991 -1.80551 0
M  V30 6940 O 675.014 1.38152 -1.19249 0
M  V30 6941 C 675.065 -1.36199 -3.34861 0
M  V30 6942 O 674.786 -2.75576 -3.40573 0
M  V30 6943 C 676.287 -1.17515 -4.2744 0
M  V30 6944 H 673.507 -0.321281 -0.589084 0
M  V30 6945 H 676.051 -1.49142 -1.39918 0
M  V30 6946 H 674.206 -0.81249 -3.78784 0
M  V30 6947 H 674.62 -2.95851 -4.33096 0
M  V30 6948 H 676.094 -1.54827 -5.29842 0
M  V30 6949 H 676.571 -0.115486 -4.39048 0
M  V30 6950 H 677.177 -1.71203 -3.89319 0
M  V30 6951 N 675.492 1.28418 -0.913599 0
M  V30 6952 C 676.717 1.99643 -0.561899 0
M  V30 6953 C 677.142 1.67819 0.849608 0
M  V30 6954 O 676.5 0.910503 1.56779 0
M  V30 6955 C 676.548 3.52116 -0.777622 0
M  V30 6956 O 675.652 4.12076 0.163457 0
M  V30 6957 H 674.993 0.627229 -0.217898 0
M  V30 6958 H 677.523 1.63575 -1.229 0
M  V30 6959 H 677.533 4.02163 -0.687666 0
M  V30 6960 H 676.208 3.74613 -1.8066 0
M  V30 6961 H 674.785 3.72892 0.0247827 0
M  V30 6962 N 676.97 0.677563 1.42291 0
M  V30 6963 C 678.195 0.207901 2.06355 0
M  V30 6964 C 678.62 -1.12723 1.50583 0
M  V30 6965 O 677.978 -1.70171 0.62543 0
M  V30 6966 C 678.026 0.156489 3.6026 0
M  V30 6967 O 677.13 -0.874162 4.03029 0
M  V30 6968 H 676.471 0.106056 0.655475 0
M  V30 6969 H 679.001 0.927354 1.82377 0
M  V30 6970 H 679.011 -0.0187258 4.07996 0
M  V30 6971 H 677.686 1.13101 4.00226 0
M  V30 6972 H 676.263 -0.669764 3.66836 0
M  V30 6973 N 678.448 -1.51871 0.421078 0
M  V30 6974 C 679.696 -2.01539 -0.150492 0
M  V30 6975 C 680.017 -1.30803 -1.44623 0
M  V30 6976 O 679.287 -0.437568 -1.90951 0
M  V30 6977 H 677.867 -0.744698 -0.0586041 0
M  V30 6978 H 680.529 -1.8668 0.560059 0
M  V30 6979 H 679.625 -3.10264 -0.338068 0
M  V30 6980 N 679.926 -0.151884 -1.56866 0
M  V30 6981 C 680.858 0.817008 -2.14144 0
M  V30 6982 C 681.871 1.20735 -1.0921 0
M  V30 6983 O 683.06 1.15058 -1.36469 0
M  V30 6984 C 680.16 2.10844 -2.65326 0
M  V30 6985 C 679.333 1.88471 -3.94712 0
M  V30 6986 C 678.392 3.01649 -4.31155 0
M  V30 6987 O 677.418 2.73127 -4.9939 0
M  V30 6988 N 678.62 4.28947 -3.91132 0
M  V30 6989 H 681.385 0.327448 -2.97906 0
M  V30 6990 H 678.946 0.0315313 -1.61869 0
M  V30 6991 H 680.938 2.85616 -2.86715 0
M  V30 6992 H 679.508 2.51049 -1.86262 0
M  V30 6993 H 678.728 0.977088 -3.81899 0
M  V30 6994 H 680.016 1.70866 -4.79252 0
M  V30 6995 H 679.414 4.54986 -3.36161 0
M  V30 6996 H 677.971 5.00484 -4.17563 0
M  V30 6997 N 681.404 1.57128 0.121893 0
M  V30 6998 C 682.334 2.03165 1.15092 0
M  V30 6999 C 683.315 0.915587 1.43356 0
M  V30 7000 O 684.5 1.1851 1.53847 0
M  V30 7001 C 681.63 2.43352 2.47784 0
M  V30 7002 C 680.584 3.58376 2.33989 0
M  V30 7003 C 679.91 3.84454 3.71617 0
M  V30 7004 C 681.21 4.90199 1.80283 0
M  V30 7005 H 682.904 2.89382 0.768023 0
M  V30 7006 H 680.45 1.39218 0.367998 0
M  V30 7007 H 682.403 2.74163 3.20019 0
M  V30 7008 H 681.127 1.54103 2.87958 0
M  V30 7009 H 679.786 3.2777 1.64202 0
M  V30 7010 H 679.434 2.92414 4.09271 0
M  V30 7011 H 679.134 4.61877 3.6324 0
M  V30 7012 H 680.658 4.17714 4.45362 0
M  V30 7013 H 682.072 5.19565 2.42333 0
M  V30 7014 H 680.469 5.71601 1.82735 0
M  V30 7015 H 681.539 4.78904 0.760184 0
M  V30 7016 N 682.882 -0.391992 1.52647 0
M  V30 7017 C 684.293 -0.970064 1.5952 0
M  V30 7018 C 684.644 -1.91059 0.446207 0
M  V30 7019 O 683.769 -2.12062 -0.431125 0
M  V30 7020 C 684.364 -1.76614 2.89125 0
M  V30 7021 C 682.923 -2.29396 2.9842 0
M  V30 7022 C 682.07 -1.09864 2.54608 0
M  V30 7023 H 685.021 -0.171638 1.57769 0
M  V30 7024 H 685.042 -2.62511 2.75442 0
M  V30 7025 H 684.554 -1.08135 3.72731 0
M  V30 7026 H 682.655 -3.01196 2.19344 0
M  V30 7027 H 682.768 -2.59088 4.03002 0
M  V30 7028 H 681.132 -1.45777 2.08857 0
M  V30 7029 H 681.915 -0.429249 3.40606 0
M  V30 7030 N 684.36 -1.4356 -0.65026 0
M  V30 7031 C 685.585 -1.48995 -1.44275 0
M  V30 7032 C 686.01 -0.109954 -1.87778 0
M  V30 7033 O 685.368 0.896926 -1.57559 0
M  V30 7034 C 685.416 -2.44341 -2.65198 0
M  V30 7035 O 684.52 -1.93172 -3.6436 0
M  V30 7036 H 683.861 -0.503852 -0.432469 0
M  V30 7037 H 686.391 -1.88504 -0.795446 0
M  V30 7038 H 686.401 -2.61743 -3.12977 0
M  V30 7039 H 685.076 -3.44588 -2.32877 0
M  V30 7040 H 683.653 -1.85445 -3.23519 0
M  V30 7041 N 685.838 0.888903 -1.30139 0
M  V30 7042 C 687.086 1.63713 -1.18501 0
M  V30 7043 C 687.407 1.9324 0.261399 0
M  V30 7044 O 686.677 1.56608 1.17689 0
M  V30 7045 H 685.257 0.606861 -0.435579 0
M  V30 7046 H 687.919 1.06525 -1.63213 0
M  V30 7047 H 687.015 2.58894 -1.743 0
M  V30 7048 N 687.317 1.12792 1.10072 0
M  V30 7049 C 688.542 0.908838 1.86427 0
M  V30 7050 C 688.967 -0.536793 1.80278 0
M  V30 7051 O 688.325 -1.38033 1.17543 0
M  V30 7052 C 688.373 1.39295 3.3261 0
M  V30 7053 O 687.477 0.573846 4.08388 0
M  V30 7054 H 686.818 0.326234 0.578331 0
M  V30 7055 H 689.348 1.50094 1.39043 0
M  V30 7056 H 689.358 1.39366 3.83459 0
M  V30 7057 H 688.033 2.44555 3.36401 0
M  V30 7058 H 686.61 0.640438 3.67359 0
M  V30 7059 N 688.795 -1.27931 0.920396 0
M  V30 7060 C 690.02 -1.99343 0.572478 0
M  V30 7061 C 690.445 -1.68267 -0.840696 0
M  V30 7062 O 689.803 -0.918805 -1.56294 0
M  V30 7063 C 689.851 -3.51698 0.796284 0
M  V30 7064 O 688.955 -4.12157 -0.141602 0
M  V30 7065 H 688.296 -0.626065 0.221221 0
M  V30 7066 H 690.826 -1.62921 1.23765 0
M  V30 7067 H 690.836 -4.01793 0.708984 0
M  V30 7068 H 689.511 -3.73649 1.82644 0
M  V30 7069 H 688.088 -3.729 -0.005007 0
M  V30 7070 N 690.273 -0.685099 -1.4193 0
M  V30 7071 C 691.684 -0.287699 -1.8447 0
M  V30 7072 C 692.035 1.17215 -1.57338 0
M  V30 7073 O 691.16 1.89856 -1.03845 0
M  V30 7074 C 691.755 -0.515385 -3.34857 0
M  V30 7075 C 690.314 -0.172006 -3.76007 0
M  V30 7076 C 689.461 -0.802808 -2.65425 0
M  V30 7077 H 692.412 -0.88652 -1.3163 0
M  V30 7078 H 692.433 0.229251 -3.79809 0
M  V30 7079 H 691.945 -1.57796 -3.54573 0
M  V30 7080 H 690.046 0.886716 -3.61895 0
M  V30 7081 H 690.159 -0.619717 -4.75075 0
M  V30 7082 H 688.523 -0.233267 -2.5363 0
M  V30 7083 H 689.306 -1.86904 -2.87961 0
M  V30 7084 N 691.751 1.51645 -0.429126 0
M  V30 7085 C 692.981 2.06133 0.138793 0
M  V30 7086 C 693.389 1.29735 1.37716 0
M  V30 7087 O 692.732 0.347955 1.80375 0
M  V30 7088 C 692.794 3.55504 0.534493 0
M  V30 7089 C 692.458 4.53098 -0.595917 0
M  V30 7090 C 693.455 4.98815 -1.46558 0
M  V30 7091 C 691.14 4.96296 -0.774309 0
M  V30 7092 C 693.134 5.86394 -2.4984 0
M  V30 7093 C 690.821 5.83667 -1.81042 0
M  V30 7094 C 691.819 6.28613 -2.67086 0
M  V30 7095 O 691.507 7.14251 -3.68919 0
M  V30 7096 H 691.239 0.675833 0.0150263 0
M  V30 7097 H 693.793 1.96301 -0.604584 0
M  V30 7098 H 692.023 3.63092 1.33045 0
M  V30 7099 H 693.712 3.92545 1.03262 0
M  V30 7100 H 694.478 4.66143 -1.33925 0
M  V30 7101 H 690.357 4.60859 -0.114178 0
M  V30 7102 H 693.901 6.21398 -3.17034 0
M  V30 7103 H 689.798 6.15753 -1.93698 0
M  V30 7104 H 690.566 7.3241 -3.65402 0
M  V30 7105 N 693.229 0.160201 1.56784 0
M  V30 7106 C 694.506 -0.533355 1.88188 0
M  V30 7107 C 694.886 -1.82072 1.06831 0
M  V30 7108 O 694.234 -2.27946 0.158959 0
M  V30 7109 C 694.444 -0.786034 3.40033 0
M  V30 7110 C 695.792 -1.12097 4.09536 0
M  V30 7111 O 696.816 -0.874949 3.45287 0
M  V30 7112 O 695.675 -1.58457 5.23023 0
M  V30 7113 H 692.769 -0.273589 0.780434 0
M  V30 7114 H 695.315 0.197803 1.68543 0
M  V30 7115 H 694.087 0.124515 3.91102 0
M  V30 7116 H 693.71 -1.57091 3.65251 0
M  V30 7117 N 694.707 -1.5719 -0.113559 0
M  V30 7118 C 696.123 -1.52607 -0.467253 0
M  V30 7119 C 696.323 -0.874058 -1.81556 0
M  V30 7120 O 695.379 -0.458703 -2.48299 0
M  V30 7121 C 696.692 -2.97363 -0.446736 0
M  V30 7122 C 698.24 -3.08482 -0.529903 0
M  V30 7123 C 698.715 -4.54809 -0.539721 0
M  V30 7124 N 700.206 -4.59284 -0.601005 0
M  V30 7125 C 700.941 -5.69927 -0.630138 0
M  V30 7126 N 700.437 -6.90051 -0.616589 0
M  V30 7127 N 702.23 -5.5805 -0.673558 0
M  V30 7128 H 694.381 -1.97958 0.769819 0
M  V30 7129 H 696.644 -0.90428 0.284572 0
M  V30 7130 H 696.35 -3.48458 0.47643 0
M  V30 7131 H 696.224 -3.55086 -1.27254 0
M  V30 7132 H 698.611 -2.57386 -1.44349 0
M  V30 7133 H 698.692 -2.53744 0.323695 0
M  V30 7134 H 698.336 -5.06552 0.369843 0
M  V30 7135 H 698.266 -5.07364 -1.41028 0
M  V30 7136 H 700.757 -3.72822 -0.617419 0
M  V30 7137 H 701.07 -7.70132 -0.641592 0
M  V30 7138 H 699.415 -6.92543 -0.583927 0
M  V30 7139 H 702.606 -4.63112 -0.681544 0
M  V30 7140 H 702.779 -6.44286 -0.692794 0
M  V30 7141 N 696.185 0.383891 -1.52853 0
M  V30 7142 C 697.462 1.14296 -1.58732 0
M  V30 7143 C 697.842 2.07585 -0.383611 0
M  V30 7144 O 697.19 2.1971 0.627661 0
M  V30 7145 C 697.4 1.89816 -2.92867 0
M  V30 7146 C 698.748 2.44998 -3.46787 0
M  V30 7147 O 699.772 1.99966 -2.94774 0
M  V30 7148 O 698.631 3.2727 -4.37672 0
M  V30 7149 H 695.725 0.52326 -0.640413 0
M  V30 7150 H 698.271 0.388631 -1.6519 0
M  V30 7151 H 697.043 1.21626 -3.71918 0
M  V30 7152 H 696.666 2.72199 -2.89816 0
M  V30 7153 N 697.663 1.43903 0.642637 0
M  V30 7154 C 698.891 1.4954 1.42988 0
M  V30 7155 C 699.306 0.116588 1.8844 0
M  V30 7156 O 698.663 -0.875285 1.60141 0
M  V30 7157 C 698.714 2.45031 2.65785 0
M  V30 7158 O 698.435 3.77551 2.22232 0
M  V30 7159 C 699.936 2.60017 3.59035 0
M  V30 7160 H 697.156 0.507544 0.438907 0
M  V30 7161 H 699.7 1.88752 0.786942 0
M  V30 7162 H 697.855 2.08985 3.26196 0
M  V30 7163 H 698.269 4.29001 3.01759 0
M  V30 7164 H 699.743 3.30887 4.41835 0
M  V30 7165 H 700.22 1.64861 4.07084 0
M  V30 7166 H 700.826 2.96918 3.045 0
M  V30 7167 N 699.141 -0.881989 1.30609 0
M  V30 7168 C 700.557 -1.16576 1.09005 0
M  V30 7169 C 700.757 -2.00961 -0.14727 0
M  V30 7170 O 699.813 -2.38117 -0.840036 0
M  V30 7171 C 701.126 -1.86954 2.35518 0
M  V30 7172 C 702.674 -1.99706 2.41011 0
M  V30 7173 C 703.149 -2.73497 3.67374 0
M  V30 7174 N 704.64 -2.8104 3.68199 0
M  V30 7175 C 705.375 -3.38718 4.62664 0
M  V30 7176 N 704.871 -3.97421 5.67475 0
M  V30 7177 N 706.664 -3.36561 4.50203 0
M  V30 7178 H 698.815 -0.319398 2.09985 0
M  V30 7179 H 701.078 -0.204058 0.925778 0
M  V30 7180 H 700.784 -1.32393 3.2583 0
M  V30 7181 H 700.658 -2.87317 2.44395 0
M  V30 7182 H 703.045 -2.53436 1.51176 0
M  V30 7183 H 703.126 -0.984218 2.36108 0
M  V30 7184 H 702.77 -2.20438 4.57569 0
M  V30 7185 H 702.7 -3.75163 3.6954 0
M  V30 7186 H 705.191 -2.39365 2.92426 0
M  V30 7187 H 705.504 -4.39507 6.35652 0
M  V30 7188 H 703.849 -3.95832 5.71264 0
M  V30 7189 H 707.04 -2.8993 3.67503 0
M  V30 7190 H 707.213 -3.81215 5.24003 0
M  V30 7191 N 700.619 -1.13374 -1.09472 0
M  V30 7192 C 701.844 -0.918711 -1.85942 0
M  V30 7193 C 702.269 0.527225 -1.8056 0
M  V30 7194 O 701.627 1.37408 -1.18274 0
M  V30 7195 C 701.675 -1.41056 -3.31867 0
M  V30 7196 O 700.779 -0.595496 -4.08078 0
M  V30 7197 H 700.12 -0.329297 -0.576593 0
M  V30 7198 H 702.65 -1.50829 -1.38245 0
M  V30 7199 H 702.66 -1.41398 -3.82715 0
M  V30 7200 H 701.335 -2.46335 -3.35099 0
M  V30 7201 H 699.912 -0.659911 -3.67014 0
M  V30 7202 N 702.098 1.27442 -0.927168 0
M  V30 7203 C 703.346 1.94007 -0.566203 0
M  V30 7204 C 703.667 1.7323 0.895345 0
M  V30 7205 O 702.937 1.07973 1.63459 0
M  V30 7206 H 701.517 0.717917 -0.206409 0
M  V30 7207 H 704.179 1.55161 -1.17945 0
M  V30 7208 H 703.275 3.02401 -0.772028 0
M  V30 7209 N 703.576 0.692616 1.41565 0
M  V30 7210 C 704.804 0.231279 2.05603 0
M  V30 7211 C 705.219 -1.11837 1.52111 0
M  V30 7212 O 704.576 -1.6983 0.66813 0
M  V30 7213 C 704.627 0.177125 3.61066 0
M  V30 7214 O 704.348 1.47346 4.12578 0
M  V30 7215 C 705.849 -0.30556 4.42246 0
M  V30 7216 H 703.069 0.108238 0.662213 0
M  V30 7217 H 705.613 0.944369 1.81389 0
M  V30 7218 H 703.768 -0.486769 3.8433 0
M  V30 7219 H 704.182 1.35861 5.06599 0
M  V30 7220 H 705.656 -0.29233 5.51225 0
M  V30 7221 H 706.133 -1.34393 4.18133 0
M  V30 7222 H 706.739 0.327229 4.24039 0
M  V30 7223 N 705.054 -1.51416 0.437162 0
M  V30 7224 C 705.964 -2.31493 -0.380537 0
M  V30 7225 C 706.98 -1.40399 -1.02782 0
M  V30 7226 O 708.156 -1.73471 -1.02323 0
M  V30 7227 C 705.221 -3.1413 -1.46709 0
M  V30 7228 C 704.282 -4.21003 -0.839953 0
M  V30 7229 C 703.515 -4.9969 -1.87473 0
M  V30 7230 O 703.738 -4.79008 -3.09689 0
M  V30 7231 O 702.672 -5.8379 -1.46536 0
M  V30 7232 H 706.498 -3.02469 0.273183 0
M  V30 7233 H 704.083 -1.48059 0.199706 0
M  V30 7234 H 705.965 -3.65505 -2.09724 0
M  V30 7235 H 704.64 -2.45919 -2.10489 0
M  V30 7236 H 703.547 -3.73706 -0.171752 0
M  V30 7237 H 704.88 -4.91587 -0.245638 0
M  V30 7238 N 706.532 -0.168513 -1.56696 0
M  V30 7239 C 707.495 0.748928 -2.16619 0
M  V30 7240 C 708.495 1.16007 -1.11351 0
M  V30 7241 O 709.685 1.07748 -1.3688 0
M  V30 7242 C 706.817 2.01904 -2.74677 0
M  V30 7243 H 708.01 0.227317 -2.99037 0
M  V30 7244 H 705.563 0.0810372 -1.5609 0
M  V30 7245 H 706.298 2.58381 -1.95985 0
M  V30 7246 H 706.083 1.73323 -3.51712 0
M  V30 7247 H 707.573 2.67383 -3.20774 0
M  V30 7248 N 708.01 1.57248 0.105221 0
M  V30 7249 C 708.96 1.9777 1.1345 0
M  V30 7250 C 709.944 0.854654 1.36325 0
M  V30 7251 O 711.136 1.11844 1.37186 0
M  V30 7252 C 708.265 2.39717 2.45745 0
M  V30 7253 C 707.351 3.58686 2.26286 0
M  V30 7254 N 707.742 4.73942 1.76671 0
M  V30 7255 C 706.04 3.64586 2.56891 0
M  V30 7256 C 706.741 5.55923 1.71245 0
M  V30 7257 N 705.717 4.98803 2.16093 0
M  V30 7258 H 709.519 2.84336 0.743664 0
M  V30 7259 H 707.033 1.59359 0.312787 0
M  V30 7260 H 709.03 2.66971 3.20206 0
M  V30 7261 H 707.69 1.54523 2.85574 0
M  V30 7262 H 708.701 4.9689 1.46016 0
M  V30 7263 H 705.378 2.90031 3.00314 0
M  V30 7264 H 706.768 6.58398 1.34022 0
M  V30 7265 N 709.488 -0.375779 1.53054 0
M  V30 7266 C 710.451 -1.44254 1.7811 0
M  V30 7267 C 711.451 -1.47018 0.651328 0
M  V30 7268 O 712.641 -1.47957 0.919472 0
M  V30 7269 C 709.773 -2.8345 1.89391 0
M  V30 7270 H 710.966 -1.23316 2.73374 0
M  V30 7271 H 708.519 -0.608312 1.43977 0
M  V30 7272 H 709.254 -3.09716 0.961589 0
M  V30 7273 H 709.039 -2.82844 2.71555 0
M  V30 7274 H 710.529 -3.60722 2.10404 0
M  V30 7275 N 710.966 -1.44241 -0.634997 0
M  V30 7276 C 712.212 -1.48033 -1.39492 0
M  V30 7277 C 712.567 -0.109791 -1.92086 0
M  V30 7278 O 711.86 0.874394 -1.70484 0
M  V30 7279 C 712.054 -2.47279 -2.58046 0
M  V30 7280 C 711.883 -3.93848 -2.17057 0
M  V30 7281 C 710.653 -4.62061 -2.04518 0
M  V30 7282 C 712.851 -4.83172 -1.76208 0
M  V30 7283 N 710.833 -5.93471 -1.57051 0
M  V30 7284 C 712.204 -6.03996 -1.39958 0
M  V30 7285 C 714.259 -4.70271 -1.63554 0
M  V30 7286 C 712.962 -7.13351 -0.923196 0
M  V30 7287 C 714.988 -5.79646 -1.1732 0
M  V30 7288 C 714.35 -6.99609 -0.820181 0
M  V30 7289 H 710.449 -0.596743 -0.505392 0
M  V30 7290 H 713.033 -1.80542 -0.72887 0
M  V30 7291 H 711.204 -2.16766 -3.22284 0
M  V30 7292 H 712.936 -2.41391 -3.24827 0
M  V30 7293 H 709.691 -4.1682 -2.24851 0
M  V30 7294 H 710.115 -6.63275 -1.35628 0
M  V30 7295 H 714.757 -3.77964 -1.8948 0
M  V30 7296 H 712.475 -8.0547 -0.651441 0
M  V30 7297 H 716.061 -5.71689 -1.07993 0
M  V30 7298 H 714.941 -7.82803 -0.467901 0
M  V30 7299 N 712.444 0.87505 -1.31075 0
M  V30 7300 C 713.674 1.65818 -1.2324 0
M  V30 7301 C 714.082 1.8808 0.205536 0
M  V30 7302 O 713.425 1.43548 1.14628 0
M  V30 7303 C 713.487 3.05131 -1.90093 0
M  V30 7304 C 713.151 3.05999 -3.39432 0
M  V30 7305 C 714.148 2.84328 -4.35263 0
M  V30 7306 C 711.833 3.27281 -3.81041 0
M  V30 7307 C 713.827 2.83912 -5.70678 0
M  V30 7308 C 711.514 3.26493 -5.16571 0
M  V30 7309 C 712.512 3.04834 -6.112 0
M  V30 7310 O 712.2 3.03882 -7.44252 0
M  V30 7311 H 711.932 0.52387 -0.427242 0
M  V30 7312 H 714.486 1.10086 -1.73408 0
M  V30 7313 H 712.716 3.62568 -1.34468 0
M  V30 7314 H 714.405 3.65641 -1.76242 0
M  V30 7315 H 715.171 2.67673 -4.04445 0
M  V30 7316 H 711.05 3.43171 -3.07822 0
M  V30 7317 H 714.594 2.66925 -6.44513 0
M  V30 7318 H 710.491 3.42687 -5.47025 0
M  V30 7319 H 711.259 3.19979 -7.53363 0
M  V30 7320 N 713.922 1.13953 1.08869 0
M  V30 7321 C 714.852 0.844824 2.17681 0
M  V30 7322 C 715.833 -0.198213 1.68941 0
M  V30 7323 O 717.018 -0.0559073 1.9412 0
M  V30 7324 C 714.148 0.316325 3.45856 0
M  V30 7325 C 713.102 1.29426 4.07962 0
M  V30 7326 C 712.428 0.625275 5.31031 0
M  V30 7327 C 713.728 2.65484 4.49795 0
M  V30 7328 H 715.422 1.75471 2.42591 0
M  V30 7329 H 712.968 0.845116 1.16592 0
M  V30 7330 H 714.921 0.0977876 4.21287 0
M  V30 7331 H 713.645 -0.628972 3.20486 0
M  V30 7332 H 712.304 1.49889 3.34558 0
M  V30 7333 H 711.952 -0.325678 5.01945 0
M  V30 7334 H 711.652 1.27777 5.73539 0
M  V30 7335 H 713.176 0.416152 6.0918 0
M  V30 7336 H 714.59 2.48957 5.16424 0
M  V30 7337 H 712.987 3.26963 5.03205 0
M  V30 7338 H 714.057 3.22717 3.61914 0
M  V30 7339 N 715.4 -1.26948 0.933913 0
M  V30 7340 C 716.677 -1.89212 0.495784 0
M  V30 7341 C 717.057 -1.84469 -1.02637 0
M  V30 7342 O 716.405 -1.29409 -1.88323 0
M  V30 7343 C 716.615 -3.32865 1.0489 0
M  V30 7344 C 717.963 -4.09749 1.11315 0
M  V30 7345 O 718.987 -3.41905 0.998966 0
M  V30 7346 O 717.846 -5.31061 1.28983 0
M  V30 7347 H 714.94 -0.811284 0.160459 0
M  V30 7348 H 717.486 -1.35171 1.02601 0
M  V30 7349 H 716.258 -3.30642 2.09265 0
M  V30 7350 H 715.881 -3.94435 0.500692 0
M  V30 7351 N 716.879 -0.700114 -1.41195 0
M  V30 7352 C 718.156 -0.160836 -1.94938 0
M  V30 7353 C 718.536 1.33014 -1.63922 0
M  V30 7354 O 717.884 2.07878 -0.948636 0
M  V30 7355 C 718.094 -0.456991 -3.45995 0
M  V30 7356 C 719.442 -0.387207 -4.22831 0
M  V30 7357 O 720.466 -0.392164 -3.54035 0
M  V30 7358 O 719.325 -0.351267 -5.4537 0
M  V30 7359 H 716.419 -0.0176304 -0.826812 0
M  V30 7360 H 718.965 -0.776586 -1.50888 0
M  V30 7361 H 717.737 -1.48884 -3.61869 0
M  V30 7362 H 717.36 0.189503 -3.97148 0
M  V30 7363 N 718.357 1.51182 -0.445186 0
M  V30 7364 C 719.304 2.27939 0.362291 0
M  V30 7365 C 720.274 1.31864 1.01 0
M  V30 7366 O 721.459 1.60776 1.02741 0
M  V30 7367 C 718.599 3.13016 1.45311 0
M  V30 7368 C 717.712 4.24093 0.822757 0
M  V30 7369 C 716.847 4.96467 1.88928 0
M  V30 7370 C 715.886 5.99454 1.23778 0
M  V30 7371 N 715.023 6.65206 2.24602 0
M  V30 7372 H 719.863 2.965 -0.29862 0
M  V30 7373 H 717.4 1.46237 -0.15911 0
M  V30 7374 H 719.358 3.60673 2.09692 0
M  V30 7375 H 717.988 2.46553 2.08354 0
M  V30 7376 H 717.04 3.80341 0.0670364 0
M  V30 7377 H 718.352 4.97853 0.307184 0
M  V30 7378 H 717.506 5.47712 2.60953 0
M  V30 7379 H 716.245 4.22355 2.4386 0
M  V30 7380 H 715.25 5.47494 0.503042 0
M  V30 7381 H 716.475 6.75527 0.695694 0
M  V30 7382 H 714.421 5.93901 2.78599 0
M  V30 7383 H 714.338 7.34756 1.77958 0
M  V30 7384 H 715.606 7.21078 2.96085 0
M  V30 7385 N 719.835 0.176821 1.56605 0
M  V30 7386 C 721.084 -0.466833 1.96223 0
M  V30 7387 C 721.397 -1.64015 1.06576 0
M  V30 7388 O 722.603 -2.3504 1.35898 0
M  V30 7389 C 721.059 -0.881921 3.48927 0
M  V30 7390 C 720.667 0.266102 4.47209 0
M  V30 7391 C 722.411 -1.49368 3.97353 0
M  V30 7392 C 720.318 -0.168923 5.91159 0
M  V30 7393 H 719.248 -0.178178 0.732645 0
M  V30 7394 H 721.899 0.265929 1.81563 0
M  V30 7395 H 720.281 -1.67082 3.59026 0
M  V30 7396 H 721.455 1.04349 4.4883 0
M  V30 7397 H 719.77 0.788178 4.08872 0
M  V30 7398 H 722.367 -1.8313 5.02362 0
M  V30 7399 H 722.71 -2.3936 3.40606 0
M  V30 7400 H 723.243 -0.769114 3.90294 0
M  V30 7401 H 719.982 0.696351 6.51791 0
M  V30 7402 H 719.502 -0.911552 5.92833 0
M  V30 7403 H 721.181 -0.610938 6.44109 0
M  V30 7404 N 721.313 -1.57302 -0.09688 0
M  V30 7405 C 722.59 -1.7701 -0.832272 0
M  V30 7406 C 722.97 -0.758025 -1.97021 0
M  V30 7407 O 722.318 0.213824 -2.27497 0
M  V30 7408 C 722.528 -3.22725 -1.32851 0
M  V30 7409 C 723.876 -3.85856 -1.772 0
M  V30 7410 O 724.9 -3.26464 -1.42478 0
M  V30 7411 O 723.759 -4.90295 -2.41398 0
M  V30 7412 H 720.853 -0.725558 -0.396856 0
M  V30 7413 H 723.399 -1.69516 -0.0789005 0
M  V30 7414 H 722.171 -3.87921 -0.51312 0
M  V30 7415 H 721.794 -3.34845 -2.14394 0
M  V30 7416 N 722.791 0.367657 -1.53252 0
M  V30 7417 C 724.04 1.10782 -1.68554 0
M  V30 7418 C 724.353 1.90523 -0.442765 0
M  V30 7419 O 725.559 2.6729 -0.47629 0
M  V30 7420 C 724.015 2.01863 -2.97959 0
M  V30 7421 C 723.623 1.27443 -4.29491 0
M  V30 7422 C 725.367 2.75883 -3.22628 0
M  V30 7423 C 723.274 2.17414 -5.49987 0
M  V30 7424 H 722.204 0.417272 -0.628013 0
M  V30 7425 H 724.855 0.368971 -1.79752 0
M  V30 7426 H 723.237 2.7947 -2.80558 0
M  V30 7427 H 724.411 0.549138 -4.57516 0
M  V30 7428 H 722.726 0.652935 -4.11249 0
M  V30 7429 H 725.323 3.43421 -4.09837 0
M  V30 7430 H 725.666 3.41138 -2.38601 0
M  V30 7431 H 726.199 2.0536 -3.40693 0
M  V30 7432 H 722.938 1.5674 -6.36485 0
M  V30 7433 H 722.458 2.87799 -5.26243 0
M  V30 7434 H 724.137 2.77019 -5.84696 0
M  V30 7435 N 724.269 1.44576 0.627338 0
M  V30 7436 C 725.517 1.47267 1.38408 0
M  V30 7437 C 725.838 0.107971 1.94701 0
M  V30 7438 O 725.108 -0.860206 1.76004 0
M  V30 7439 H 723.688 0.542276 0.513756 0
M  V30 7440 H 726.35 1.80383 0.738099 0
M  V30 7441 H 725.446 2.20025 2.21349 0
M  V30 7442 N 725.747 -0.868086 1.31537 0
M  V30 7443 C 726.695 -1.99688 1.1928 0
M  V30 7444 C 727.689 -1.69101 0.100656 0
M  V30 7445 O 728.895 -1.78073 0.262677 0
M  V30 7446 H 725.27 -0.655032 0.369374 0
M  V30 7447 H 727.241 -2.07157 2.14776 0
M  V30 7448 C 725.99 -3.35338 0.918892 0
M  V30 7449 H 725.313 -3.59396 1.75142 0
M  V30 7450 H 726.753 -4.14909 0.873311 0
M  V30 7451 C 725.212 -3.34769 -0.378366 0
M  V30 7452 O 725.742 -3.76716 -1.39456 0
M  V30 7453 N 723.948 -2.87895 -0.39557 0
M  V30 7454 H 723.495 -2.53954 0.431889 0
M  V30 7455 H 723.453 -2.87897 -1.26344 0
M  V30 7456 N 727.225 -1.14528 -1.08264 0
M  V30 7457 C 728.471 -0.925721 -1.81113 0
M  V30 7458 C 728.826 0.54185 -1.84612 0
M  V30 7459 O 728.119 1.39628 -1.31205 0
M  V30 7460 C 728.313 -1.46226 -3.26117 0
M  V30 7461 C 728.142 -2.98047 -3.36746 0
M  V30 7462 C 726.912 -3.66508 -3.4785 0
M  V30 7463 C 729.11 -3.95903 -3.28277 0
M  V30 7464 N 727.092 -5.06227 -3.47285 0
M  V30 7465 C 728.463 -5.21883 -3.34721 0
M  V30 7466 C 730.518 -3.88002 -3.12024 0
M  V30 7467 C 729.221 -6.40886 -3.26585 0
M  V30 7468 C 731.247 -5.06553 -3.05219 0
M  V30 7469 C 730.609 -6.31403 -3.12266 0
M  V30 7470 H 726.708 -0.392294 -0.676483 0
M  V30 7471 H 729.292 -1.45567 -1.293 0
M  V30 7472 H 727.463 -0.959076 -3.76373 0
M  V30 7473 H 729.195 -1.18247 -3.8704 0
M  V30 7474 H 725.95 -3.17067 -3.51804 0
M  V30 7475 H 726.374 -5.79172 -3.50555 0
M  V30 7476 H 731.016 -2.9235 -3.05436 0
M  V30 7477 H 728.734 -7.36781 -3.31934 0
M  V30 7478 H 732.32 -5.02191 -2.93761 0
M  V30 7479 H 731.2 -7.21596 -3.07032 0
M  V30 7480 N 728.703 1.26451 -0.940633 0
M  V30 7481 C 729.931 1.97868 -0.604642 0
M  V30 7482 C 730.346 1.70051 0.820251 0
M  V30 7483 O 729.703 0.96843 1.54686 0
M  V30 7484 C 729.754 3.51684 -0.836689 0
M  V30 7485 O 729.475 3.78533 -2.20554 0
M  V30 7486 C 730.976 4.40343 -0.511169 0
M  V30 7487 H 728.196 0.631105 -0.227919 0
M  V30 7488 H 730.74 1.60979 -1.26119 0
M  V30 7489 H 728.895 3.86736 -0.226759 0
M  V30 7490 H 729.309 4.73065 -2.26517 0
M  V30 7491 H 730.783 5.47229 -0.724157 0
M  V30 7492 H 731.26 4.35694 0.553815 0
M  V30 7493 H 731.866 4.10834 -1.0998 0
M  V30 7494 N 730.181 0.707592 1.40822 0
M  V30 7495 C 731.43 0.240705 2.00259 0
M  V30 7496 C 731.743 -1.17027 1.56729 0
M  V30 7497 O 732.949 -1.73526 2.08809 0
M  V30 7498 C 731.405 0.379432 3.57894 0
M  V30 7499 C 731.013 1.79654 4.104 0
M  V30 7500 C 732.757 -0.0270684 4.24491 0
M  V30 7501 C 730.664 1.88628 5.60512 0
M  V30 7502 H 729.594 0.0862369 0.749052 0
M  V30 7503 H 732.245 0.877528 1.61157 0
M  V30 7504 H 730.627 -0.325842 3.94657 0
M  V30 7505 H 731.801 2.53155 3.85032 0
M  V30 7506 H 730.116 2.15379 3.56372 0
M  V30 7507 H 732.713 0.0193743 5.34696 0
M  V30 7508 H 733.056 -1.06772 4.02375 0
M  V30 7509 H 733.589 0.628361 3.92806 0
M  V30 7510 H 730.328 2.90787 5.87472 0
M  V30 7511 H 729.848 1.19528 5.8777 0
M  V30 7512 H 731.527 1.6547 6.25483 0
M  V30 7513 N 731.66 -1.50943 0.453197 0
M  V30 7514 C 732.888 -2.06628 -0.106135 0
M  V30 7515 C 733.303 -1.31901 -1.35084 0
M  V30 7516 O 732.66 -0.383074 -1.78434 0
M  V30 7517 C 732.711 -3.5914 -0.412368 0
M  V30 7518 O 732.432 -4.31047 0.782948 0
M  V30 7519 C 733.933 -4.31391 -1.02064 0
M  V30 7520 H 731.153 -0.670999 -0.000885896 0
M  V30 7521 H 733.697 -1.94331 0.63684 0
M  V30 7522 H 731.852 -3.71299 -1.10526 0
M  V30 7523 H 732.266 -5.21948 0.516736 0
M  V30 7524 H 733.74 -5.39135 -1.1848 0
M  V30 7525 H 734.217 -3.90714 -2.00598 0
M  V30 7526 H 734.823 -4.23716 -0.366664 0
M  V30 7527 N 733.138 -0.185124 -1.56509 0
M  V30 7528 C 734.549 0.329221 -1.83774 0
M  V30 7529 C 734.9 1.62093 -1.10545 0
M  V30 7530 O 734.025 2.13334 -0.36298 0
M  V30 7531 C 734.62 0.604099 -3.33371 0
M  V30 7532 C 733.179 1.06284 -3.61083 0
M  V30 7533 C 732.326 0.10608 -2.77097 0
M  V30 7534 H 735.277 -0.409116 -1.53336 0
M  V30 7535 H 735.298 1.45458 -3.51599 0
M  V30 7536 H 734.81 -0.336201 -3.86641 0
M  V30 7537 H 732.911 2.01777 -3.13236 0
M  V30 7538 H 733.024 0.962453 -4.69333 0
M  V30 7539 H 731.388 0.606082 -2.47384 0
M  V30 7540 H 732.171 -0.828486 -3.33153 0
M  V30 7541 N 734.616 1.57351 0.0885366 0
M  V30 7542 C 735.864 1.86051 0.789262 0
M  V30 7543 C 736.185 0.774763 1.78948 0
M  V30 7544 O 735.455 -0.198324 1.94894 0
M  V30 7545 H 734.035 0.686508 0.294475 0
M  V30 7546 H 736.697 1.94779 0.0686055 0
M  V30 7547 H 735.793 2.83007 1.31581 0
M  V30 7548 N 736.094 -0.359525 1.53444 0
M  V30 7549 C 737.027 -1.46338 1.75101 0
M  V30 7550 C 738.005 -1.51142 0.599559 0
M  V30 7551 O 739.189 -1.69102 0.832862 0
M  V30 7552 C 736.316 -2.84667 1.83527 0
M  V30 7553 C 735.362 -2.9756 3.05549 0
M  V30 7554 S 736.195 -2.65685 4.64943 0
M  V30 7555 C 737.351 -4.06153 4.76225 0
M  V30 7556 H 737.584 -1.27747 2.68455 0
M  V30 7557 H 735.117 -0.554231 1.4411 0
M  V30 7558 H 737.075 -3.64368 1.89067 0
M  V30 7559 H 735.736 -3.00564 0.912147 0
M  V30 7560 H 734.929 -3.98883 3.08072 0
M  V30 7561 H 734.531 -2.25789 2.98153 0
M  V30 7562 H 736.823 -5.00475 4.56652 0
M  V30 7563 H 737.766 -4.08632 5.78295 0
M  V30 7564 H 738.174 -3.93435 4.04808 0
M  V30 7565 N 737.572 -1.44907 -0.619662 0
M  V30 7566 C 738.988 -1.29046 -0.939107 0
M  V30 7567 C 739.188 -0.23462 -2.00129 0
M  V30 7568 O 738.244 0.37558 -2.49691 0
M  V30 7569 C 739.557 -2.66567 -1.39149 0
M  V30 7570 C 741.105 -2.74368 -1.50635 0
M  V30 7571 C 741.58 -4.12386 -1.99253 0
M  V30 7572 N 743.071 -4.1462 -2.06506 0
M  V30 7573 C 743.806 -5.18272 -2.4532 0
M  V30 7574 N 743.302 -6.32278 -2.83189 0
M  V30 7575 N 745.095 -5.05628 -2.45554 0
M  V30 7576 H 737.246 -2.12239 0.0826135 0
M  V30 7577 H 739.509 -0.947652 -0.0256829 0
M  V30 7578 H 739.215 -3.4496 -0.685254 0
M  V30 7579 H 739.089 -2.94224 -2.36034 0
M  V30 7580 H 741.476 -1.96287 -2.20353 0
M  V30 7581 H 741.557 -2.50439 -0.520963 0
M  V30 7582 H 741.201 -4.90947 -1.30127 0
M  V30 7583 H 741.131 -4.33699 -2.98684 0
M  V30 7584 H 743.622 -3.32343 -1.79878 0
M  V30 7585 H 743.935 -7.07172 -3.11652 0
M  V30 7586 H 742.28 -6.35699 -2.80913 0
M  V30 7587 H 745.471 -4.15613 -2.15367 0
M  V30 7588 H 745.644 -5.86529 -2.75478 0
M  V30 7589 N 739.05 0.861098 -1.31996 0
M  V30 7590 C 740.297 1.61481 -1.22188 0
M  V30 7591 C 740.625 1.93276 0.217853 0
M  V30 7592 O 739.88 1.56942 1.16909 0
M  V30 7593 C 740.179 2.94822 -2.02027 0
M  V30 7594 C 739.845 2.82483 -3.51446 0
M  V30 7595 C 738.507 2.78825 -3.92186 0
M  V30 7596 C 740.859 2.68878 -4.46491 0
M  V30 7597 C 738.187 2.59433 -5.26224 0
M  V30 7598 C 740.539 2.51022 -5.80664 0
M  V30 7599 C 739.203 2.45753 -6.20614 0
M  V30 7600 H 738.473 0.590902 -0.447119 0
M  V30 7601 H 741.12 0.999376 -1.63355 0
M  V30 7602 H 739.425 3.6045 -1.53569 0
M  V30 7603 H 741.122 3.52149 -1.91812 0
M  V30 7604 H 737.712 2.86152 -3.19085 0
M  V30 7605 H 741.896 2.70754 -4.1594 0
M  V30 7606 H 737.152 2.53784 -5.5624 0
M  V30 7607 H 741.326 2.39473 -6.53931 0
M  V30 7608 H 738.953 2.30485 -7.24417 0
M  V30 7609 N 740.528 1.15101 1.07655 0
M  V30 7610 C 741.438 0.858869 2.18313 0
M  V30 7611 C 742.454 -0.163641 1.73229 0
M  V30 7612 O 743.63 0.00969541 2.01398 0
M  V30 7613 C 740.695 0.34893 3.4494 0
M  V30 7614 C 739.756 1.43495 4.04608 0
M  V30 7615 C 738.989 0.949253 5.2519 0
M  V30 7616 O 739.212 -0.20636 5.70027 0
M  V30 7617 O 738.146 1.73161 5.76454 0
M  V30 7618 H 741.972 1.78386 2.45788 0
M  V30 7619 H 739.557 0.929876 1.16934 0
M  V30 7620 H 741.439 0.070851 4.2134 0
M  V30 7621 H 740.114 -0.548237 3.19024 0
M  V30 7622 H 739.021 1.7666 3.29761 0
M  V30 7623 H 740.354 2.30692 4.3479 0
M  V30 7624 N 742.006 -1.2595 0.947325 0
M  V30 7625 C 742.956 -2.23859 0.432547 0
M  V30 7626 C 743.94 -1.53755 -0.474154 0
M  V30 7627 O 745.132 -1.74293 -0.308397 0
M  V30 7628 C 742.261 -3.42027 -0.295318 0
M  V30 7629 C 741.347 -4.19409 0.62903 0
M  V30 7630 N 741.738 -4.74284 1.7575 0
M  V30 7631 C 740.036 -4.43866 0.435805 0
M  V30 7632 C 740.737 -5.32821 2.33401 0
M  V30 7633 N 739.713 -5.18858 1.62135 0
M  V30 7634 H 743.515 -2.63886 1.29388 0
M  V30 7635 H 741.029 -1.41105 0.80393 0
M  V30 7636 H 743.026 -4.11297 -0.681188 0
M  V30 7637 H 741.686 -3.03526 -1.15334 0
M  V30 7638 H 742.697 -4.71641 2.13952 0
M  V30 7639 H 739.374 -4.15768 -0.37994 0
M  V30 7640 H 740.764 -5.86111 3.28517 0
M  V30 7641 N 743.484 -0.715051 -1.40445 0
M  V30 7642 C 744.733 -0.251322 -2.00128 0
M  V30 7643 C 745.046 1.16194 -1.57347 0
M  V30 7644 O 746.252 1.72416 -2.09726 0
M  V30 7645 C 744.708 -0.398407 -3.57688 0
M  V30 7646 C 744.316 -1.81828 -4.09442 0
M  V30 7647 C 746.06 0.00455625 -4.245 0
M  V30 7648 C 743.967 -1.91598 -5.59503 0
M  V30 7649 H 742.897 -0.0902081 -0.748584 0
M  V30 7650 H 745.548 -0.886062 -1.6069 0
M  V30 7651 H 743.93 0.304908 -3.94824 0
M  V30 7652 H 745.104 -2.55193 -3.83684 0
M  V30 7653 H 743.419 -2.17266 -3.55225 0
M  V30 7654 H 746.016 -0.0477303 -5.34679 0
M  V30 7655 H 746.359 1.04636 -4.02935 0
M  V30 7656 H 746.892 -0.649184 -3.92467 0
M  V30 7657 H 743.631 -2.93898 -5.85922 0
M  V30 7658 H 743.151 -1.22644 -5.87127 0
M  V30 7659 H 744.83 -1.68785 -6.24596 0
M  V30 7660 N 744.962 1.50701 -0.461195 0
M  V30 7661 C 745.872 2.32069 0.343661 0
M  V30 7662 C 746.888 1.42016 1.00535 0
M  V30 7663 O 748.064 1.75077 0.995498 0
M  V30 7664 C 745.129 3.16424 1.41692 0
M  V30 7665 C 744.19 4.22286 0.772869 0
M  V30 7666 C 743.423 5.02609 1.79499 0
M  V30 7667 O 743.646 4.83874 3.0203 0
M  V30 7668 O 742.58 5.86047 1.3723 0
M  V30 7669 H 746.406 3.01996 -0.321268 0
M  V30 7670 H 743.991 1.47723 -0.223235 0
M  V30 7671 H 745.873 3.68795 2.03883 0
M  V30 7672 H 744.548 2.49236 2.0655 0
M  V30 7673 H 743.455 3.73931 0.112277 0
M  V30 7674 H 744.788 4.91915 0.167399 0
M  V30 7675 N 746.441 0.193421 1.56409 0
M  V30 7676 C 747.666 -0.454552 2.02358 0
M  V30 7677 C 748.091 -1.54516 1.07268 0
M  V30 7678 O 747.449 -1.81214 0.0558962 0
M  V30 7679 C 747.497 -0.989469 3.46759 0
M  V30 7680 O 746.601 -2.10244 3.54783 0
M  V30 7681 H 745.942 -0.106417 0.655417 0
M  V30 7682 H 748.472 0.303807 2.02332 0
M  V30 7683 H 748.482 -1.30649 3.86516 0
M  V30 7684 H 747.157 -0.191083 4.15461 0
M  V30 7685 H 745.734 -1.79419 3.26899 0
M  V30 7686 N 747.919 -1.57396 -0.0801906 0
M  V30 7687 C 749.149 -1.90778 -0.792924 0
M  V30 7688 C 749.557 -0.786814 -1.72064 0
M  V30 7689 O 748.9 0.249259 -1.82001 0
M  V30 7690 C 748.962 -3.19552 -1.64702 0
M  V30 7691 C 748.626 -4.48259 -0.889567 0
M  V30 7692 C 749.623 -5.19465 -0.212602 0
M  V30 7693 C 747.308 -4.94896 -0.859229 0
M  V30 7694 C 749.302 -6.35555 0.484566 0
M  V30 7695 C 746.989 -6.10895 -0.158284 0
M  V30 7696 C 747.987 -6.81075 0.512421 0
M  V30 7697 O 747.675 -7.94862 1.20209 0
M  V30 7698 H 747.407 -0.63527 -0.231103 0
M  V30 7699 H 749.961 -2.0532 -0.0573081 0
M  V30 7700 H 748.191 -3.01196 -2.42524 0
M  V30 7701 H 749.88 -3.38649 -2.23767 0
M  V30 7702 H 750.646 -4.84467 -0.227403 0
M  V30 7703 H 746.525 -4.4015 -1.37073 0
M  V30 7704 H 750.069 -6.9027 1.00864 0
M  V30 7705 H 745.966 -6.45345 -0.141381 0
M  V30 7706 H 746.734 -8.10932 1.11051 0
M  V30 7707 N 749.397 0.351382 -1.53633 0
M  V30 7708 C 750.329 1.45159 -1.77374 0
M  V30 7709 C 751.342 1.4905 -0.654826 0
M  V30 7710 O 752.531 1.52274 -0.931396 0
M  V30 7711 C 749.631 2.83858 -1.85143 0
M  V30 7712 C 748.804 3.03498 -3.14972 0
M  V30 7713 C 747.863 4.22393 -3.138 0
M  V30 7714 O 746.889 4.16885 -3.87551 0
M  V30 7715 N 748.091 5.30533 -2.35617 0
M  V30 7716 H 750.856 1.25167 -2.72311 0
M  V30 7717 H 748.417 0.54121 -1.52586 0
M  V30 7718 H 750.409 3.61557 -1.8182 0
M  V30 7719 H 748.979 2.9703 -0.974275 0
M  V30 7720 H 748.199 2.13336 -3.31484 0
M  V30 7721 H 749.487 3.13498 -4.00745 0
M  V30 7722 H 748.885 5.37875 -1.75235 0
M  V30 7723 H 747.442 6.06756 -2.38098 0
M  V30 7724 N 750.875 1.45233 0.611969 0
M  V30 7725 C 751.823 1.53898 1.74408 0
M  V30 7726 C 752.817 0.409254 1.64382 0
M  V30 7727 O 754.023 0.584988 1.70229 0
M  V30 7728 H 750.398 0.483303 0.576127 0
M  V30 7729 H 752.369 2.49143 1.64227 0
M  V30 7730 C 751.118 1.51865 3.12782 0
M  V30 7731 H 750.441 2.38118 3.21154 0
M  V30 7732 H 751.881 1.61986 3.91838 0
M  V30 7733 C 750.34 0.242374 3.36027 0
M  V30 7734 O 750.87 -0.679587 3.9591 0
M  V30 7735 N 749.076 0.139448 2.90265 0
M  V30 7736 H 748.623 0.890571 2.41716 0
M  V30 7737 H 748.581 -0.713686 3.06193 0
M  V30 7738 N 752.353 -0.854086 1.3245 0
M  V30 7739 C 753.301 -1.98411 1.21391 0
M  V30 7740 C 754.295 -1.68984 0.118586 0
M  V30 7741 O 755.501 -1.77784 0.281549 0
M  V30 7742 H 751.876 -0.651077 0.376301 0
M  V30 7743 H 753.847 -2.04867 2.16961 0
M  V30 7744 C 752.596 -3.34345 0.954407 0
M  V30 7745 H 751.919 -3.57518 1.78944 0
M  V30 7746 H 753.359 -4.13959 0.917269 0
M  V30 7747 C 751.818 -3.35151 -0.342838 0
M  V30 7748 O 752.348 -3.78174 -1.35452 0
M  V30 7749 N 750.554 -2.88298 -0.365012 0
M  V30 7750 H 750.101 -2.53481 0.4588 0
M  V30 7751 H 750.059 -2.8922 -1.23284 0
M  V30 7752 N 753.831 -1.1567 -1.07043 0
M  V30 7753 C 754.794 -0.858906 -2.12498 0
M  V30 7754 C 755.794 0.142735 -1.60165 0
M  V30 7755 O 756.984 -0.0872678 -1.73981 0
M  V30 7756 C 754.116 -0.283021 -3.39723 0
M  V30 7757 H 755.309 -1.79368 -2.40348 0
M  V30 7758 H 752.862 -0.964608 -1.22984 0
M  V30 7759 H 753.597 0.659796 -3.17517 0
M  V30 7760 H 753.382 -1.00467 -3.7901 0
M  V30 7761 H 754.872 -0.0923543 -4.17498 0
M  V30 7762 N 755.309 1.25446 -0.953992 0
M  V30 7763 C 756.558 1.92441 -0.604101 0
M  V30 7764 C 756.871 1.75543 0.862796 0
M  V30 7765 O 758.077 2.37106 1.32262 0
M  V30 7766 C 756.533 3.44854 -1.02974 0
M  V30 7767 C 756.141 3.70464 -2.51914 0
M  V30 7768 C 757.885 4.1778 -0.752352 0
M  V30 7769 C 755.792 5.1638 -2.88281 0
M  V30 7770 H 754.722 0.720508 -0.222227 0
M  V30 7771 H 757.373 1.42318 -1.15836 0
M  V30 7772 H 755.755 3.93935 -0.403904 0
M  V30 7773 H 756.929 3.32038 -3.19511 0
M  V30 7774 H 755.244 3.10797 -2.77117 0
M  V30 7775 H 757.841 5.25261 -1.00024 0
M  V30 7776 H 758.184 4.15135 0.311212 0
M  V30 7777 H 758.717 3.74605 -1.33851 0
M  V30 7778 H 755.456 5.24135 -3.93653 0
M  V30 7779 H 754.976 5.55855 -2.25357 0
M  V30 7780 H 756.655 5.84497 -2.77439 0
M  V30 7781 N 756.787 0.722489 1.40064 0
M  V30 7782 C 758.015 0.274838 2.05066 0
M  V30 7783 C 758.43 -1.08586 1.54449 0
M  V30 7784 O 757.787 -1.68375 0.704003 0
M  V30 7785 C 757.838 0.253673 3.60609 0
M  V30 7786 O 757.559 1.56064 4.0936 0
M  V30 7787 C 759.06 -0.211684 4.42794 0
M  V30 7788 H 756.28 0.12226 0.659768 0
M  V30 7789 H 758.824 0.982632 1.79345 0
M  V30 7790 H 756.979 -0.405137 3.85276 0
M  V30 7791 H 757.393 1.46576 5.03603 0
M  V30 7792 H 758.867 -0.175341 5.51721 0
M  V30 7793 H 759.344 -1.25493 4.2089 0
M  V30 7794 H 759.95 0.4171 4.2325 0
M  V30 7795 N 758.265 -1.50454 0.469181 0
M  V30 7796 C 759.513 -2.01916 -0.0862982 0
M  V30 7797 C 759.834 -1.35337 -1.40388 0
M  V30 7798 O 759.104 -0.498096 -1.89462 0
M  V30 7799 H 757.684 -0.746185 -0.0348825 0
M  V30 7800 H 760.346 -1.84804 0.619167 0
M  V30 7801 H 759.442 -3.11182 -0.239189 0
M  V30 7802 N 759.743 -0.201713 -1.56304 0
M  V30 7803 C 760.971 0.440723 -2.02152 0
M  V30 7804 C 761.386 1.54735 -1.08179 0
M  V30 7805 O 760.743 1.82289 -0.0878196 0
M  V30 7806 C 760.794 0.990884 -3.47655 0
M  V30 7807 O 760.515 -0.0715937 -4.38041 0
M  V30 7808 C 762.016 1.70854 -4.09052 0
M  V30 7809 H 759.236 0.109987 -0.661924 0
M  V30 7810 H 761.78 -0.312358 -2.021 0
M  V30 7811 H 759.935 1.69432 -3.48384 0
M  V30 7812 H 760.349 0.338892 -5.23404 0
M  V30 7813 H 761.823 2.04572 -5.12693 0
M  V30 7814 H 762.3 2.61462 -3.52894 0
M  V30 7815 H 762.906 1.0508 -4.12114 0
M  V30 7816 N 761.222 1.57436 0.0718424 0
M  V30 7817 C 762.172 2.00132 1.09229 0
M  V30 7818 C 763.156 0.883379 1.34481 0
M  V30 7819 O 764.348 1.14728 1.34783 0
M  V30 7820 C 761.477 2.44876 2.40605 0
M  V30 7821 C 760.563 3.63405 2.18627 0
M  V30 7822 N 760.954 4.77583 1.66579 0
M  V30 7823 C 759.252 3.69953 2.491 0
M  V30 7824 C 759.953 5.5943 1.59415 0
M  V30 7825 N 758.929 5.03275 2.05464 0
M  V30 7826 H 762.731 2.85849 0.683185 0
M  V30 7827 H 760.245 1.59987 0.278914 0
M  V30 7828 H 762.242 2.73703 3.14471 0
M  V30 7829 H 760.902 1.60546 2.82232 0
M  V30 7830 H 761.913 4.99875 1.35443 0
M  V30 7831 H 758.59 2.96336 2.94094 0
M  V30 7832 H 759.98 6.61093 1.20026 0
M  V30 7833 N 762.7 -0.34323 1.53817 0
M  V30 7834 C 763.61 -1.44493 1.84821 0
M  V30 7835 C 764.626 -1.57556 0.738381 0
M  V30 7836 O 765.802 -1.73026 1.03072 0
M  V30 7837 C 762.867 -2.79478 2.05166 0
M  V30 7838 C 761.928 -2.75756 3.29025 0
M  V30 7839 C 761.161 -4.04302 3.4839 0
M  V30 7840 O 761.384 -5.01595 2.71586 0
M  V30 7841 O 760.318 -4.08754 4.41819 0
M  V30 7842 H 764.144 -1.21209 2.78464 0
M  V30 7843 H 761.729 -0.535437 1.39476 0
M  V30 7844 H 763.611 -3.59419 2.19991 0
M  V30 7845 H 762.286 -3.02692 1.14713 0
M  V30 7846 H 761.193 -1.94434 3.19603 0
M  V30 7847 H 762.526 -2.57495 4.19472 0
M  V30 7848 N 764.178 -1.45556 -0.604258 0
M  V30 7849 C 765.088 -1.57025 -1.74299 0
M  V30 7850 C 766.104 -0.45456 -1.67958 0
M  V30 7851 O 767.28 -0.715711 -1.88254 0
M  V30 7852 C 764.345 -1.53702 -3.10768 0
M  V30 7853 C 763.406 -2.76335 -3.28538 0
M  V30 7854 C 762.639 -2.73161 -4.58496 0
M  V30 7855 O 762.862 -1.80678 -5.41028 0
M  V30 7856 O 761.796 -3.64409 -4.79051 0
M  V30 7857 H 765.622 -2.53284 -1.67573 0
M  V30 7858 H 763.207 -1.28104 -0.768745 0
M  V30 7859 H 765.089 -1.54468 -3.92068 0
M  V30 7860 H 763.764 -0.605957 -3.17978 0
M  V30 7861 H 762.671 -2.8113 -2.46813 0
M  V30 7862 H 764.004 -3.68578 -3.26207 0
M  V30 7863 N 765.656 0.84705 -1.32902 0
M  V30 7864 C 766.902 1.60414 -1.24078 0
M  V30 7865 C 767.235 1.93217 0.195105 0
M  V30 7866 O 766.51 1.58001 1.13428 0
M  V30 7867 C 766.793 2.91951 -2.108 0
M  V30 7868 C 766.646 2.6588 -3.62805 0
M  V30 7869 C 767.965 3.93299 -1.97494 0
M  V30 7870 H 765.084 0.58206 -0.452079 0
M  V30 7871 H 767.726 0.977562 -1.62922 0
M  V30 7872 H 765.876 3.45425 -1.77802 0
M  V30 7873 H 767.548 2.18902 -4.06054 0
M  V30 7874 H 765.791 1.99716 -3.85092 0
M  V30 7875 H 766.462 3.59574 -4.1882 0
M  V30 7876 H 768.938 3.49105 -2.26417 0
M  V30 7877 H 767.814 4.8318 -2.60438 0
M  V30 7878 H 768.075 4.31887 -0.944782 0
M  V30 7879 N 767.134 1.16236 1.06428 0
M  V30 7880 C 768.359 0.967688 1.83441 0
M  V30 7881 C 768.784 -0.479167 1.81894 0
M  V30 7882 O 768.142 -1.34224 1.21875 0
M  V30 7883 C 768.19 1.49806 3.2801 0
M  V30 7884 O 767.294 0.703481 4.06356 0
M  V30 7885 H 766.635 0.344468 0.56766 0
M  V30 7886 H 769.165 1.54442 1.34197 0
M  V30 7887 H 769.175 1.51495 3.78831 0
M  V30 7888 H 767.85 2.55133 3.2845 0
M  V30 7889 H 766.427 0.756986 3.65136 0
M  V30 7890 N 768.612 -1.24939 0.960631 0
M  V30 7891 C 769.842 -1.96595 0.635123 0
M  V30 7892 C 770.25 -1.71538 -0.798206 0
M  V30 7893 O 769.593 -0.991727 -1.5463 0
M  V30 7894 C 769.655 -3.49994 0.821248 0
M  V30 7895 C 769.319 -3.98738 2.23287 0
M  V30 7896 C 770.316 -4.08965 3.21004 0
M  V30 7897 C 768.001 -4.32247 2.55867 0
M  V30 7898 C 769.995 -4.52025 4.49391 0
M  V30 7899 C 767.682 -4.74991 3.84482 0
M  V30 7900 C 768.68 -4.84844 4.81056 0
M  V30 7901 O 768.368 -5.26638 6.07378 0
M  V30 7902 H 768.1 -0.633265 0.23654 0
M  V30 7903 H 770.654 -1.5991 1.28911 0
M  V30 7904 H 768.884 -3.86543 0.110105 0
M  V30 7905 H 770.573 -4.02859 0.495892 0
M  V30 7906 H 771.339 -3.83302 2.97161 0
M  V30 7907 H 767.218 -4.23801 1.81421 0
M  V30 7908 H 770.762 -4.5963 5.24773 0
M  V30 7909 H 766.659 -5.00101 4.08129 0
M  V30 7910 H 767.427 -5.44807 6.10842 0
M  V30 7911 N 770.09 -0.729906 -1.39679 0
M  V30 7912 C 771.038 -0.0756589 -2.32477 0
M  V30 7913 C 772.032 0.731438 -1.52795 0
M  V30 7914 O 773.238 0.633195 -1.68495 0
M  V30 7915 H 769.613 -0.00566492 -0.751979 0
M  V30 7916 H 771.584 -0.874797 -2.85289 0
M  V30 7917 C 770.333 0.821313 -3.37861 0
M  V30 7918 H 769.656 0.209666 -3.9925 0
M  V30 7919 H 771.096 1.24679 -4.05254 0
M  V30 7920 C 769.555 1.9533 -2.74495 0
M  V30 7921 O 770.085 3.04548 -2.61942 0
M  V30 7922 N 768.291 1.74119 -2.3266 0
M  V30 7923 H 767.838 0.852908 -2.4307 0
M  V30 7924 H 767.796 2.50036 -1.90603 0
M  V30 7925 N 771.568 1.50203 -0.477153 0
M  V30 7926 C 772.531 2.27194 0.302599 0
M  V30 7927 C 773.531 1.32221 0.915112 0
M  V30 7928 O 774.721 1.55593 0.783348 0
M  V30 7929 C 771.853 3.0938 1.43167 0
M  V30 7930 H 773.046 2.97575 -0.372678 0
M  V30 7931 H 770.599 1.54578 -0.231392 0
M  V30 7932 H 771.334 2.43509 2.14182 0
M  V30 7933 H 771.119 3.79181 0.998197 0
M  V30 7934 H 772.609 3.67592 1.98157 0
M  V30 7935 N 773.046 0.209999 1.56195 0
M  V30 7936 C 774.457 -0.299943 1.84275 0
M  V30 7937 C 774.808 -1.60314 1.1311 0
M  V30 7938 O 773.933 -2.1273 0.396874 0
M  V30 7939 C 774.528 -0.550986 3.3429 0
M  V30 7940 C 773.087 -1.00526 3.62728 0
M  V30 7941 C 772.234 -0.0619828 2.77231 0
M  V30 7942 H 775.185 0.433458 1.52666 0
M  V30 7943 H 775.206 -1.39846 3.53869 0
M  V30 7944 H 774.718 0.397669 3.86057 0
M  V30 7945 H 772.819 -1.96768 3.16407 0
M  V30 7946 H 772.932 -0.887664 4.70805 0
M  V30 7947 H 771.296 -0.566648 2.48317 0
M  V30 7948 H 772.079 0.881383 3.31793 0
M  V30 7949 N 774.524 -1.57472 -0.0634922 0
M  V30 7950 C 775.454 -2.07297 -1.07473 0
M  V30 7951 C 776.435 -0.968162 -1.39859 0
M  V30 7952 O 777.62 -1.24139 -1.49343 0
M  V30 7953 C 774.75 -2.52381 -2.38581 0
M  V30 7954 C 773.704 -3.66813 -2.20526 0
M  V30 7955 C 773.03 -3.97982 -3.57092 0
M  V30 7956 C 774.33 -4.96553 -1.61965 0
M  V30 7957 H 776.024 -2.92033 -0.660092 0
M  V30 7958 H 773.57 -1.40488 -0.316074 0
M  V30 7959 H 775.523 -2.85852 -3.09624 0
M  V30 7960 H 774.247 -1.64684 -2.8204 0
M  V30 7961 H 772.906 -3.33639 -1.51924 0
M  V30 7962 H 772.554 -3.07403 -3.98136 0
M  V30 7963 H 772.254 -4.7504 -3.45848 0
M  V30 7964 H 773.778 -4.33956 -4.29552 0
M  V30 7965 H 775.192 -5.28201 -2.22883 0
M  V30 7966 H 773.589 -5.7799 -1.61394 0
M  V30 7967 H 774.659 -4.81396 -0.581918 0
M  V30 7968 N 776.003 0.335068 -1.53997 0
M  V30 7969 C 777.414 0.910191 -1.6301 0
M  V30 7970 C 777.765 1.89271 -0.516809 0
M  V30 7971 O 776.89 2.13516 0.352123 0
M  V30 7972 C 777.485 1.65761 -2.9548 0
M  V30 7973 C 776.044 2.18163 -3.06728 0
M  V30 7974 C 775.191 1.00338 -2.5851 0
M  V30 7975 H 778.142 0.112965 -1.58297 0
M  V30 7976 H 778.163 2.52107 -2.84995 0
M  V30 7977 H 777.675 0.94227 -3.76488 0
M  V30 7978 H 775.776 2.92847 -2.30372 0
M  V30 7979 H 775.889 2.43952 -4.1234 0
M  V30 7980 H 774.253 1.37925 -2.14124 0
M  V30 7981 H 775.036 0.30254 -3.41964 0
M  V30 7982 N 777.481 1.45874 0.596531 0
M  V30 7983 C 778.444 1.54988 1.68853 0
M  V30 7984 C 779.444 0.428302 1.54991 0
M  V30 7985 O 780.634 0.692158 1.59859 0
M  V30 7986 C 777.766 1.457 3.08195 0
M  V30 7987 H 778.959 2.52294 1.62135 0
M  V30 7988 H 776.512 1.33479 0.813206 0
M  V30 7989 H 777.247 0.496204 3.20481 0
M  V30 7990 H 777.032 2.27061 3.19665 0
M  V30 7991 H 778.522 1.55133 3.87716 0
M  V30 7992 N 778.959 -0.83999 1.33349 0
M  V30 7993 C 779.889 -1.965 1.26135 0
M  V30 7994 C 780.87 -1.69505 0.142152 0
M  V30 7995 O 782.055 -1.91346 0.331743 0
M  V30 7996 C 779.185 -3.32632 0.99866 0
M  V30 7997 C 778.139 -3.74021 2.08068 0
M  V30 7998 C 777.465 -5.07947 1.67014 0
M  V30 7999 C 778.765 -3.87925 3.49731 0
M  V30 8000 H 780.459 -2.02793 2.20262 0
M  V30 8001 H 778.005 -0.974297 1.06035 0
M  V30 8002 H 779.958 -4.10903 0.934696 0
M  V30 8003 H 778.682 -3.26593 0.0217759 0
M  V30 8004 H 777.341 -2.98012 2.13505 0
M  V30 8005 H 776.989 -4.98378 0.680316 0
M  V30 8006 H 776.689 -5.36611 2.39422 0
M  V30 8007 H 778.213 -5.88695 1.62082 0
M  V30 8008 H 779.627 -4.5651 3.46802 0
M  V30 8009 H 778.024 -4.28023 4.20614 0
M  V30 8010 H 779.094 -2.90407 3.88319 0
M  V30 8011 N 780.437 -1.16799 -1.0581 0
M  V30 8012 C 781.385 -0.875111 -2.1551 0
M  V30 8013 C 782.379 0.157781 -1.68664 0
M  V30 8014 O 783.585 0.011297 -1.79996 0
M  V30 8015 H 779.96 -0.26542 -0.703602 0
M  V30 8016 H 781.931 -1.8076 -2.37421 0
M  V30 8017 C 780.68 -0.39802 -3.45414 0
M  V30 8018 H 780.003 -1.18425 -3.81858 0
M  V30 8019 H 781.443 -0.231913 -4.23365 0
M  V30 8020 C 779.902 0.88327 -3.25115 0
M  V30 8021 O 780.432 1.95145 -3.51114 0
M  V30 8022 N 778.638 0.828961 -2.78526 0
M  V30 8023 H 778.185 -0.0405029 -2.57568 0
M  V30 8024 H 778.143 1.68673 -2.65324 0
M  V30 8025 N 781.915 1.24427 -0.967243 0
M  V30 8026 C 783.161 1.92772 -0.629812 0
M  V30 8027 C 783.494 1.75436 0.832827 0
M  V30 8028 O 782.769 1.10716 1.59913 0
M  V30 8029 C 783.052 3.45798 -1.00477 0
M  V30 8030 C 782.905 3.72304 -2.52407 0
M  V30 8031 C 784.224 4.36787 -0.538999 0
M  V30 8032 H 781.343 0.700099 -0.230282 0
M  V30 8033 H 783.985 1.46805 -1.20616 0
M  V30 8034 H 782.135 3.8508 -0.514336 0
M  V30 8035 H 783.807 3.42584 -3.08924 0
M  V30 8036 H 782.05 3.17472 -2.95625 0
M  V30 8037 H 782.721 4.7937 -2.73693 0
M  V30 8038 H 785.197 4.04877 -0.959874 0
M  V30 8039 H 784.073 5.4259 -0.829926 0
M  V30 8040 H 784.334 4.38527 0.560923 0
M  V30 8041 N 783.393 0.737304 1.3929 0
M  V30 8042 C 784.323 0.113988 2.33222 0
M  V30 8043 C 785.304 -0.721695 1.54031 0
M  V30 8044 O 786.489 -0.666206 1.82415 0
M  V30 8045 C 783.619 -0.792319 3.38141 0
M  V30 8046 C 782.573 -0.0606178 4.27957 0
M  V30 8047 C 781.899 -1.08409 5.23595 0
M  V30 8048 C 783.199 1.09817 5.10625 0
M  V30 8049 H 784.893 0.898611 2.85596 0
M  V30 8050 H 782.439 0.433571 1.37318 0
M  V30 8051 H 784.392 -1.23793 4.02807 0
M  V30 8052 H 783.116 -1.60908 2.84211 0
M  V30 8053 H 781.775 0.365393 3.64775 0
M  V30 8054 H 781.423 -1.89449 4.6596 0
M  V30 8055 H 781.123 -0.599269 5.84536 0
M  V30 8056 H 782.647 -1.52936 5.91137 0
M  V30 8057 H 784.061 0.730892 5.68622 0
M  V30 8058 H 782.458 1.51278 5.80719 0
M  V30 8059 H 783.528 1.91878 4.45321 0
M  V30 8060 N 784.871 -1.49948 0.485112 0
M  V30 8061 C 786.101 -2.06506 -0.0621921 0
M  V30 8062 C 786.509 -1.34756 -1.32806 0
M  V30 8063 O 785.852 -0.41466 -1.78959 0
M  V30 8064 C 785.914 -3.57243 -0.402182 0
M  V30 8065 C 785.578 -4.50574 0.763671 0
M  V30 8066 C 786.575 -4.93032 1.6497 0
M  V30 8067 C 784.26 -4.9308 0.957973 0
M  V30 8068 C 786.254 -5.76718 2.71432 0
M  V30 8069 C 783.941 -5.76546 2.0258 0
M  V30 8070 C 784.939 -6.18267 2.90232 0
M  V30 8071 O 784.627 -7.00066 3.95174 0
M  V30 8072 H 784.359 -0.675925 0.0100672 0
M  V30 8073 H 786.913 -1.93922 0.677023 0
M  V30 8074 H 785.143 -3.6778 -1.19478 0
M  V30 8075 H 786.832 -3.96107 -0.886219 0
M  V30 8076 H 787.598 -4.60851 1.51134 0
M  V30 8077 H 783.477 -4.60117 0.285144 0
M  V30 8078 H 787.021 -6.09203 3.39878 0
M  V30 8079 H 782.918 -6.0814 2.16417 0
M  V30 8080 H 783.686 -7.18343 3.92333 0
M  V30 8081 N 786.349 -0.21828 -1.56081 0
M  V30 8082 C 787.299 0.706492 -2.16778 0
M  V30 8083 C 788.283 1.15987 -1.11516 0
M  V30 8084 O 789.475 1.11441 -1.37513 0
M  V30 8085 C 786.604 1.91583 -2.8487 0
M  V30 8086 C 785.69 1.48228 -3.97353 0
M  V30 8087 N 786.081 0.761113 -5.00041 0
M  V30 8088 C 784.379 1.76982 -4.09382 0
M  V30 8089 C 785.08 0.540496 -5.79184 0
M  V30 8090 N 784.056 1.09622 -5.32432 0
M  V30 8091 H 787.858 0.147038 -2.93532 0
M  V30 8092 H 785.372 -0.0194049 -1.62388 0
M  V30 8093 H 787.369 2.58906 -3.26762 0
M  V30 8094 H 786.029 2.47979 -2.09611 0
M  V30 8095 H 787.04 0.414141 -5.16241 0
M  V30 8096 H 783.717 2.34721 -3.45271 0
M  V30 8097 H 785.107 -0.0332531 -6.71892 0
M  V30 8098 N 787.827 1.57504 0.0551401 0
M  V30 8099 C 788.757 2.07864 1.06372 0
M  V30 8100 C 789.738 0.975565 1.39344 0
M  V30 8101 O 790.923 1.24929 1.48682 0
M  V30 8102 C 788.053 2.53643 2.3724 0
M  V30 8103 C 787.007 3.67978 2.18578 0
M  V30 8104 C 786.333 3.9987 3.54976 0
M  V30 8105 C 787.633 4.97405 1.59329 0
M  V30 8106 H 789.327 2.92379 0.644595 0
M  V30 8107 H 786.873 1.40654 0.308619 0
M  V30 8108 H 788.826 2.8749 3.08103 0
M  V30 8109 H 787.55 1.66177 2.81163 0
M  V30 8110 H 786.209 3.3444 1.50152 0
M  V30 8111 H 785.857 3.0951 3.965 0
M  V30 8112 H 785.557 4.76867 3.43324 0
M  V30 8113 H 787.081 4.36228 4.27244 0
M  V30 8114 H 788.495 5.29375 2.20078 0
M  V30 8115 H 786.892 5.78837 1.58327 0
M  V30 8116 H 787.962 4.81697 0.55638 0
M  V30 8117 N 789.305 -0.326896 1.54172 0
M  V30 8118 C 790.533 -1.08486 1.76177 0
M  V30 8119 C 790.948 -1.81815 0.508788 0
M  V30 8120 O 790.305 -1.74924 -0.520362 0
M  V30 8121 C 790.356 -2.08552 2.95276 0
M  V30 8122 O 790.077 -1.38202 4.15731 0
M  V30 8123 C 791.578 -2.96593 3.29466 0
M  V30 8124 H 788.798 -0.322835 0.588233 0
M  V30 8125 H 791.342 -0.374036 2.0105 0
M  V30 8126 H 789.497 -2.75174 2.72687 0
M  V30 8127 H 789.911 -2.05186 4.827 0
M  V30 8128 H 791.385 -3.62708 4.16109 0
M  V30 8129 H 791.862 -3.63511 2.46487 0
M  V30 8130 H 792.468 -2.35537 3.54122 0
M  V30 8131 N 790.784 -1.46188 -0.588786 0
M  V30 8132 C 792.061 -1.41659 -1.34878 0
M  V30 8133 C 792.441 -0.0968913 -2.10878 0
M  V30 8134 O 791.789 0.921468 -2.09096 0
M  V30 8135 C 791.999 -2.6424 -2.27988 0
M  V30 8136 C 793.347 -3.1013 -2.90008 0
M  V30 8137 O 794.371 -2.64745 -2.38303 0
M  V30 8138 O 793.23 -3.88944 -3.83908 0
M  V30 8139 H 790.324 -0.563058 -0.605718 0
M  V30 8140 H 792.87 -1.58346 -0.610309 0
M  V30 8141 H 791.642 -3.51853 -1.71217 0
M  V30 8142 H 791.265 -2.49982 -3.09184 0
M  V30 8143 N 792.262 0.832906 -1.33792 0
M  V30 8144 C 793.487 1.62568 -1.28788 0
M  V30 8145 C 793.912 1.87599 0.137246 0
M  V30 8146 O 793.27 1.44436 1.0958 0
M  V30 8147 C 793.318 2.9495 -2.07453 0
M  V30 8148 O 792.422 3.86546 -1.43722 0
M  V30 8149 H 791.763 0.494809 -0.442787 0
M  V30 8150 H 794.293 1.03578 -1.76445 0
M  V30 8151 H 794.303 3.44599 -2.1844 0
M  V30 8152 H 792.978 2.76055 -3.11073 0
M  V30 8153 H 791.555 3.45044 -1.41417 0
M  V30 8154 N 793.74 1.17359 1.05189 0
M  V30 8155 C 794.986 0.973414 1.78595 0
M  V30 8156 C 795.341 -0.492713 1.85984 0
M  V30 8157 O 794.634 -1.361 1.3486 0
M  V30 8158 C 794.828 1.54821 3.22126 0
M  V30 8159 C 794.657 3.06871 3.28725 0
M  V30 8160 C 793.427 3.75602 3.38011 0
M  V30 8161 C 795.625 4.04467 3.17665 0
M  V30 8162 N 793.607 5.15257 3.33741 0
M  V30 8163 C 794.978 5.30574 3.20766 0
M  V30 8164 C 797.033 3.96138 3.01627 0
M  V30 8165 C 795.736 6.49319 3.09479 0
M  V30 8166 C 797.762 5.14467 2.91681 0
M  V30 8167 C 797.124 6.3946 2.95416 0
M  V30 8168 H 793.223 0.410092 0.665844 0
M  V30 8169 H 795.807 1.48944 1.25395 0
M  V30 8170 H 793.978 1.05853 3.73697 0
M  V30 8171 H 795.71 1.28467 3.83768 0
M  V30 8172 H 792.465 3.26282 3.43273 0
M  V30 8173 H 792.889 5.88263 3.35076 0
M  V30 8174 H 797.531 3.00345 2.97578 0
M  V30 8175 H 795.249 7.45322 3.12283 0
M  V30 8176 H 798.835 5.09803 2.80343 0
M  V30 8177 H 797.715 7.29483 2.87792 0
M  V30 8178 N 795.218 -1.23913 0.973828 0
M  V30 8179 C 796.166 -2.27141 0.50098 0
M  V30 8180 C 797.16 -1.63623 -0.438631 0
M  V30 8181 O 798.366 -1.77253 -0.313247 0
M  V30 8182 H 794.741 -0.73817 0.14356 0
M  V30 8183 H 796.712 -2.64392 1.38346 0
M  V30 8184 C 795.461 -3.47195 -0.187377 0
M  V30 8185 H 794.784 -3.96318 0.526535 0
M  V30 8186 H 796.224 -4.21252 -0.481962 0
M  V30 8187 C 794.683 -3.05678 -1.41642 0
M  V30 8188 O 795.213 -3.1338 -2.51309 0
M  V30 8189 N 793.419 -2.60661 -1.28469 0
M  V30 8190 H 792.966 -2.54594 -0.39238 0
M  V30 8191 H 792.924 -2.33249 -2.10813 0
M  V30 8192 N 796.696 -0.74468 -1.38897 0
M  V30 8193 C 797.626 -0.126355 -2.33158 0
M  V30 8194 C 798.607 0.713517 -1.54412 0
M  V30 8195 O 799.792 0.656523 -1.82766 0
M  V30 8196 C 796.922 0.774375 -3.38557 0
M  V30 8197 C 795.876 0.0379214 -4.27983 0
M  V30 8198 C 795.202 1.05631 -5.24162 0
M  V30 8199 C 796.502 -1.12523 -5.10035 0
M  V30 8200 H 798.196 -0.913744 -2.85116 0
M  V30 8201 H 795.742 -0.440847 -1.37086 0
M  V30 8202 H 797.695 1.21655 -4.03458 0
M  V30 8203 H 796.419 1.59399 -2.85061 0
M  V30 8204 H 795.078 -0.384733 -3.64576 0
M  V30 8205 H 794.726 1.86975 -4.66958 0
M  V30 8206 H 794.426 0.568261 -5.84846 0
M  V30 8207 H 795.95 1.49799 -5.9194 0
M  V30 8208 H 797.364 -0.761037 -5.68226 0
M  V30 8209 H 795.761 -1.54355 -5.79909 0
M  V30 8210 H 796.831 -1.94237 -4.44297 0
M  V30 8211 N 798.174 1.49689 -0.493057 0
M  V30 8212 C 799.404 2.06536 0.0512397 0
M  V30 8213 C 799.812 1.35459 1.32089 0
M  V30 8214 O 799.155 0.424145 1.78736 0
M  V30 8215 C 799.217 3.57452 0.383231 0
M  V30 8216 C 798.881 4.50163 -0.787555 0
M  V30 8217 C 799.878 4.92151 -1.67582 0
M  V30 8218 C 797.563 4.92565 -0.984109 0
M  V30 8219 C 799.557 5.7527 -2.74487 0
M  V30 8220 C 797.244 5.75463 -2.05634 0
M  V30 8221 C 798.242 6.16719 -2.93507 0
M  V30 8222 O 797.93 6.97961 -3.98881 0
M  V30 8223 H 797.662 0.675862 -0.0136516 0
M  V30 8224 H 800.216 1.9356 -0.687298 0
M  V30 8225 H 798.446 3.68408 1.17526 0
M  V30 8226 H 800.135 3.96572 0.8652 0
M  V30 8227 H 800.901 4.60043 -1.53575 0
M  V30 8228 H 796.78 4.5996 -0.309541 0
M  V30 8229 H 800.324 6.07392 -3.43104 0
M  V30 8230 H 796.221 6.06983 -2.19639 0
M  V30 8231 H 796.989 7.16253 -3.96137 0
M  V30 8232 N 799.652 0.226554 1.55963 0
M  V30 8233 C 800.615 -0.668015 2.19249 0
M  V30 8234 C 801.615 -1.11794 1.1558 0
M  V30 8235 O 802.805 -1.02593 1.40784 0
M  V30 8236 C 799.937 -1.91571 2.81981 0
M  V30 8237 H 801.13 -0.116175 2.99675 0
M  V30 8238 H 798.683 -0.0230497 1.56283 0
M  V30 8239 H 799.418 -2.50929 2.05439 0
M  V30 8240 H 799.203 -1.6015 3.57903 0
M  V30 8241 H 800.693 -2.55294 3.30477 0
M  V30 8242 N 801.13 -1.57531 -0.0467866 0
M  V30 8243 C 802.078 -2.06455 -1.0714 0
M  V30 8244 C 803.072 -0.974744 -1.38546 0
M  V30 8245 O 804.278 -1.15974 -1.37659 0
M  V30 8246 H 800.653 -0.658607 -0.362962 0
M  V30 8247 H 802.624 -2.91613 -0.632813 0
M  V30 8248 C 801.373 -2.54481 -2.36927 0
M  V30 8249 H 800.696 -3.37946 -2.13617 0
M  V30 8250 H 802.136 -2.92442 -3.07007 0
M  V30 8251 C 800.595 -1.43836 -3.04652 0
M  V30 8252 O 801.125 -0.794531 -3.93764 0
M  V30 8253 N 799.331 -1.17727 -2.65686 0
M  V30 8254 H 798.878 -1.70265 -1.93307 0
M  V30 8255 H 798.836 -0.439051 -3.11319 0
M  V30 8256 N 802.608 0.318715 -1.54344 0
M  V30 8257 C 803.836 1.0755 -1.7675 0
M  V30 8258 C 804.251 1.81543 -0.518422 0
M  V30 8259 O 803.608 1.75198 0.511078 0
M  V30 8260 C 803.659 2.06983 -2.96378 0
M  V30 8261 O 803.38 1.35995 -4.16458 0
M  V30 8262 C 804.881 2.94841 -3.31034 0
M  V30 8263 H 802.101 0.319711 -0.589937 0
M  V30 8264 H 804.645 0.363369 -2.01246 0
M  V30 8265 H 802.8 2.73724 -2.74142 0
M  V30 8266 H 803.214 2.02623 -4.83781 0
M  V30 8267 H 804.688 3.60496 -4.18027 0
M  V30 8268 H 805.165 3.62199 -2.48412 0
M  V30 8269 H 805.771 2.33656 -3.55366 0
M  V30 8270 N 804.086 1.46499 0.581025 0
M  V30 8271 C 804.996 1.59778 1.71779 0
M  V30 8272 C 806.012 0.481223 1.67213 0
M  V30 8273 O 807.188 0.74557 1.87091 0
M  V30 8274 C 804.253 1.58626 3.08283 0
M  V30 8275 C 803.314 2.81527 3.241 0
M  V30 8276 C 802.547 2.80421 4.54092 0
M  V30 8277 O 802.77 1.89262 5.38085 0
M  V30 8278 O 801.704 3.71984 4.73193 0
M  V30 8279 H 805.53 2.55918 1.63523 0
M  V30 8280 H 803.115 1.29311 0.748267 0
M  V30 8281 H 804.997 1.60686 3.89561 0
M  V30 8282 H 803.672 0.656467 3.16973 0
M  V30 8283 H 802.579 2.85021 2.42309 0
M  V30 8284 H 803.912 3.73721 3.20302 0
M  V30 8285 N 805.565 -0.825799 1.34232 0
M  V30 8286 C 806.813 -1.57873 1.26177 0
M  V30 8287 C 807.134 -1.94267 -0.168904 0
M  V30 8288 O 806.404 -1.62045 -1.10084 0
M  V30 8289 H 804.984 -0.585388 0.464037 0
M  V30 8290 H 807.646 -0.986163 1.6811 0
M  V30 8291 H 806.742 -2.50283 1.86453 0
M  V30 8292 N 807.043 -1.17915 -1.04565 0
M  V30 8293 C 808.268 -0.996749 -1.81878 0
M  V30 8294 C 808.693 0.450169 -1.82634 0
M  V30 8295 O 808.051 1.32268 -1.23995 0
M  V30 8296 C 808.099 -1.55005 -3.25585 0
M  V30 8297 O 807.203 -0.76804 -4.05185 0
M  V30 8298 H 806.544 -0.353456 -0.562108 0
M  V30 8299 H 809.074 -1.56557 -1.31723 0
M  V30 8300 H 809.084 -1.57503 -3.76373 0
M  V30 8301 H 807.759 -2.60327 -3.2435 0
M  V30 8302 H 806.336 -0.81498 -3.63885 0
M  V30 8303 N 808.521 1.23394 -0.980386 0
M  V30 8304 C 809.768 1.91809 -0.649261 0
M  V30 8305 C 810.096 1.765 0.817197 0
M  V30 8306 O 809.351 1.11979 1.60497 0
M  V30 8307 C 809.65 3.43542 -0.985588 0
M  V30 8308 C 809.316 3.79031 -2.44225 0
M  V30 8309 C 807.978 3.88429 -2.84035 0
M  V30 8310 C 810.33 3.96145 -3.38702 0
M  V30 8311 C 807.658 4.12368 -4.17336 0
M  V30 8312 C 810.01 4.21583 -4.71646 0
M  V30 8313 C 808.674 4.29203 -5.11215 0
M  V30 8314 H 807.944 0.70188 -0.237581 0
M  V30 8315 H 810.591 1.4642 -1.23424 0
M  V30 8316 H 808.896 3.90503 -0.318521 0
M  V30 8317 H 810.593 3.94708 -0.707596 0
M  V30 8318 H 807.183 3.7229 -2.12362 0
M  V30 8319 H 811.367 3.88274 -3.09123 0
M  V30 8320 H 806.623 4.1649 -4.47601 0
M  V30 8321 H 810.797 4.33769 -5.4481 0
M  V30 8322 H 808.424 4.47505 -6.14527 0
M  V30 8323 N 809.999 0.752036 1.385 0
M  V30 8324 C 811.247 0.306895 1.99756 0
M  V30 8325 C 811.568 -1.11478 1.59992 0
M  V30 8326 O 810.838 -1.76206 0.856045 0
M  V30 8327 H 809.418 0.11048 0.738785 0
M  V30 8328 H 812.08 0.965785 1.69289 0
M  V30 8329 H 811.176 0.368797 3.09913 0
M  V30 8330 N 811.477 -1.49425 0.500989 0
M  V30 8331 C 812.705 -2.06861 -0.0403443 0
M  V30 8332 C 813.12 -1.36132 -1.30819 0
M  V30 8333 O 812.477 -0.439647 -1.77125 0
M  V30 8334 C 812.528 -3.6027 -0.297902 0
M  V30 8335 O 812.249 -4.28338 0.919686 0
M  V30 8336 C 813.75 -4.34419 -0.882876 0
M  V30 8337 H 810.97 -0.670688 0.0204619 0
M  V30 8338 H 813.514 -1.92207 0.698342 0
M  V30 8339 H 811.669 -3.74627 -0.98657 0
M  V30 8340 H 812.083 -5.2004 0.682528 0
M  V30 8341 H 813.557 -5.42631 -1.01268 0
M  V30 8342 H 814.034 -3.96898 -1.88066 0
M  V30 8343 H 814.64 -4.24669 -0.231677 0
M  V30 8344 N 812.955 -0.234822 -1.55841 0
M  V30 8345 C 814.201 0.393843 -1.98939 0
M  V30 8346 C 814.534 1.58466 -1.1226 0
M  V30 8347 O 813.809 1.93635 -0.183242 0
M  V30 8348 C 814.092 0.815492 -3.50745 0
M  V30 8349 C 813.945 -0.379878 -4.48193 0
M  V30 8350 C 815.264 1.66687 -4.07312 0
M  V30 8351 H 812.383 0.141681 -0.723253 0
M  V30 8352 H 815.025 -0.333716 -1.87046 0
M  V30 8353 H 813.175 1.43541 -3.6101 0
M  V30 8354 H 814.847 -1.0182 -4.49923 0
M  V30 8355 H 813.09 -1.02507 -4.21515 0
M  V30 8356 H 813.761 -0.0417069 -5.51984 0
M  V30 8357 H 816.237 1.14369 -4.00074 0
M  V30 8358 H 815.113 1.93078 -5.13821 0
M  V30 8359 H 815.374 2.63468 -3.55017 0
M  V30 8360 N 814.433 1.57553 0.0384317 0
M  V30 8361 C 815.365 2.02726 1.06934 0
M  V30 8362 C 816.378 0.938502 1.33026 0
M  V30 8363 O 817.567 1.21595 1.30678 0
M  V30 8364 C 814.667 2.37958 2.41308 0
M  V30 8365 C 813.84 3.69098 2.34703 0
M  V30 8366 C 812.899 3.91623 3.51451 0
M  V30 8367 O 811.925 4.628 3.31368 0
M  V30 8368 N 813.127 3.36538 4.72993 0
M  V30 8369 H 815.892 2.91781 0.684381 0
M  V30 8370 H 813.453 1.60307 0.226542 0
M  V30 8371 H 815.445 2.50172 3.18113 0
M  V30 8372 H 814.015 1.54621 2.71682 0
M  V30 8373 H 813.235 3.67325 1.43059 0
M  V30 8374 H 814.523 4.55144 2.27424 0
M  V30 8375 H 813.921 2.78828 4.92211 0
M  V30 8376 H 812.478 3.54148 5.47195 0
M  V30 8377 N 815.911 -0.310526 1.54511 0
M  V30 8378 C 817.141 -1.06456 1.77061 0
M  V30 8379 C 817.549 -1.81755 0.525528 0
M  V30 8380 O 816.892 -1.76365 -0.513904 0
M  V30 8381 C 816.954 -2.09856 2.91892 0
M  V30 8382 C 816.618 -1.53838 4.30329 0
M  V30 8383 C 817.615 -0.973358 5.10707 0
M  V30 8384 C 815.3 -1.57688 4.76906 0
M  V30 8385 C 817.294 -0.454283 6.35779 0
M  V30 8386 C 814.981 -1.05393 6.01943 0
M  V30 8387 C 815.979 -0.493595 6.81214 0
M  V30 8388 O 815.667 0.0214506 8.03897 0
M  V30 8389 H 815.399 -0.321913 0.594431 0
M  V30 8390 H 817.953 -0.358289 2.02251 0
M  V30 8391 H 816.183 -2.84137 2.62304 0
M  V30 8392 H 817.872 -2.71085 3.02106 0
M  V30 8393 H 818.638 -0.936588 4.75871 0
M  V30 8394 H 814.517 -2.00242 4.1524 0
M  V30 8395 H 818.061 -0.0162657 6.97598 0
M  V30 8396 H 813.958 -1.08782 6.36268 0
M  V30 8397 H 814.726 -0.0927478 8.18447 0
M  V30 8398 N 817.389 -1.46805 -0.573248 0
M  V30 8399 C 818.614 -1.56433 -1.36175 0
M  V30 8400 C 819.039 -0.209336 -1.86932 0
M  V30 8401 O 818.397 0.812146 -1.62092 0
M  V30 8402 C 818.445 -2.58055 -2.51873 0
M  V30 8403 O 817.549 -2.12214 -3.53609 0
M  V30 8404 H 816.89 -0.526068 -0.405153 0
M  V30 8405 H 819.42 -1.92456 -0.694405 0
M  V30 8406 H 819.43 -2.77966 -2.98662 0
M  V30 8407 H 818.105 -3.56448 -2.14284 0
M  V30 8408 H 816.682 -2.02333 -3.13234 0
M  V30 8409 N 818.867 0.818669 -1.34668 0
M  V30 8410 C 819.799 1.93754 -1.22442 0
M  V30 8411 C 820.812 1.62103 -0.150501 0
M  V30 8412 O 822.001 1.73898 -0.402728 0
M  V30 8413 C 819.101 3.27806 -0.860031 0
M  V30 8414 C 818.274 3.8745 -2.02981 0
M  V30 8415 C 817.333 4.99887 -1.64314 0
M  V30 8416 O 816.359 5.17957 -2.36029 0
M  V30 8417 N 817.561 5.77795 -0.55976 0
M  V30 8418 H 820.326 2.04773 -2.18833 0
M  V30 8419 H 817.887 0.995472 -1.27679 0
M  V30 8420 H 819.879 4.00478 -0.583068 0
M  V30 8421 H 818.449 3.12597 0.0138253 0
M  V30 8422 H 817.669 3.07119 -2.47127 0
M  V30 8423 H 818.957 4.2403 -2.81204 0
M  V30 8424 H 818.355 5.65688 0.0363329 0
M  V30 8425 H 816.912 6.50899 -0.342541 0
M  V30 8426 N 820.346 1.18468 1.03938 0
M  V30 8427 C 821.595 0.975193 1.76558 0
M  V30 8428 C 821.908 -0.495978 1.89207 0
M  V30 8429 O 823.114 -0.824009 2.58694 0
M  V30 8430 C 821.57 1.69579 3.17444 0
M  V30 8431 C 821.178 3.20636 3.12884 0
M  V30 8432 C 822.922 1.56917 3.94433 0
M  V30 8433 C 820.829 3.8533 4.48636 0
M  V30 8434 H 819.759 0.361244 0.66183 0
M  V30 8435 H 822.41 1.41854 1.16403 0
M  V30 8436 H 820.792 1.18022 3.78004 0
M  V30 8437 H 821.966 3.79228 2.61768 0
M  V30 8438 H 820.281 3.33454 2.49394 0
M  V30 8439 H 822.878 2.02611 4.94826 0
M  V30 8440 H 823.221 0.521638 4.13019 0
M  V30 8441 H 823.754 2.05762 3.40451 0
M  V30 8442 H 820.493 4.90136 4.35255 0
M  V30 8443 H 820.013 3.31526 4.99851 0
M  V30 8444 H 821.692 3.88269 5.17549 0
M  V30 8445 N 821.824 -1.22873 0.986916 0
M  V30 8446 C 823.072 -1.91084 0.658121 0
M  V30 8447 C 823.393 -1.77304 -0.811675 0
M  V30 8448 O 822.663 -1.15649 -1.58121 0
M  V30 8449 H 821.243 -0.707251 0.240427 0
M  V30 8450 H 823.905 -1.49357 1.25213 0
M  V30 8451 H 823.001 -2.98373 0.915428 0
M  V30 8452 N 823.302 -0.75937 -1.38099 0
M  V30 8453 C 824.249 -0.135508 -2.30402 0
M  V30 8454 C 825.219 0.703356 -1.50473 0
M  V30 8455 O 826.404 0.658287 -1.79084 0
M  V30 8456 C 823.544 0.747228 -3.36913 0
M  V30 8457 C 822.657 -0.106893 -4.31868 0
M  V30 8458 C 821.792 0.779388 -5.25451 0
M  V30 8459 C 820.831 -0.0780179 -6.1205 0
M  V30 8460 N 819.968 0.765545 -6.97914 0
M  V30 8461 H 824.808 -0.9282 -2.83176 0
M  V30 8462 H 822.345 -0.46935 -1.39411 0
M  V30 8463 H 824.303 1.27371 -3.97281 0
M  V30 8464 H 822.933 1.50565 -2.85535 0
M  V30 8465 H 821.985 -0.751063 -3.72912 0
M  V30 8466 H 823.297 -0.768798 -4.9284 0
M  V30 8467 H 822.451 1.37282 -5.90964 0
M  V30 8468 H 821.19 1.47501 -4.6486 0
M  V30 8469 H 820.195 -0.684078 -5.45528 0
M  V30 8470 H 821.42 -0.770786 -6.74712 0
M  V30 8471 H 819.366 1.44601 -6.39864 0
M  V30 8472 H 819.283 0.160666 -7.55829 0
M  V30 8473 H 820.551 1.34377 -7.6783 0
M  V30 8474 N 824.78 1.49157 -0.508906 0
M  V30 8475 C 825.743 2.27784 0.25434 0
M  V30 8476 C 826.743 1.34132 0.88686 0
M  V30 8477 O 827.933 1.5722 0.750168 0
M  V30 8478 C 825.065 3.12347 1.36573 0
M  V30 8479 H 826.258 2.96718 -0.435714 0
M  V30 8480 H 823.811 1.54052 -0.264128 0
M  V30 8481 H 824.546 2.47997 2.08969 0
M  V30 8482 H 824.331 3.81213 0.917543 0
M  V30 8483 H 825.821 3.71712 1.90315 0
M  V30 8484 N 826.258 0.243083 1.55714 0
M  V30 8485 C 827.504 -0.383287 1.99145 0
M  V30 8486 C 827.837 -1.57868 1.13098 0
M  V30 8487 O 827.112 -1.93535 0.193509 0
M  V30 8488 C 827.395 -0.796879 3.51172 0
M  V30 8489 C 827.248 0.403642 4.47985 0
M  V30 8490 C 828.567 -1.64525 4.08191 0
M  V30 8491 H 825.686 -0.137843 0.723995 0
M  V30 8492 H 828.328 0.343631 1.86867 0
M  V30 8493 H 826.478 -1.41625 3.61766 0
M  V30 8494 H 828.15 1.04204 4.49376 0
M  V30 8495 H 826.393 1.04741 4.20965 0
M  V30 8496 H 827.064 0.0709794 5.51954 0
M  V30 8497 H 829.54 -1.12246 4.00674 0
M  V30 8498 H 828.416 -1.9035 5.14838 0
M  V30 8499 H 828.677 -2.61582 3.56409 0
M  V30 8500 N 827.736 -1.57571 -0.0300757 0
M  V30 8501 C 828.668 -2.0329 -1.05857 0
M  V30 8502 C 829.681 -0.945543 -1.32527 0
M  V30 8503 O 830.87 -1.22287 -1.30032 0
M  V30 8504 C 827.97 -2.39234 -2.40042 0
M  V30 8505 C 827.143 -3.70337 -2.32743 0
M  V30 8506 C 826.202 -3.93482 -3.49369 0
M  V30 8507 O 825.228 -4.64551 -3.28909 0
M  V30 8508 N 826.43 -3.39042 -4.71201 0
M  V30 8509 H 829.195 -2.9214 -0.668897 0
M  V30 8510 H 826.756 -1.60425 -0.218038 0
M  V30 8511 H 828.748 -2.51856 -3.16782 0
M  V30 8512 H 827.318 -1.5606 -2.70858 0
M  V30 8513 H 826.538 -3.68079 -1.41109 0
M  V30 8514 H 827.826 -4.56343 -2.25007 0
M  V30 8515 H 827.224 -2.81434 -4.90725 0
M  V30 8516 H 825.781 -3.57045 -5.45309 0
M  V30 8517 N 829.214 0.302327 -1.54673 0
M  V30 8518 C 830.439 1.06103 -1.78205 0
M  V30 8519 C 830.864 1.80204 -0.53926 0
M  V30 8520 O 830.222 1.73975 0.510142 0
M  V30 8521 C 830.27 2.01829 -2.98827 0
M  V30 8522 O 829.374 3.10108 -2.71858 0
M  V30 8523 H 828.715 0.30487 -0.589873 0
M  V30 8524 H 831.245 0.340153 -2.01753 0
M  V30 8525 H 831.255 2.44319 -3.2676 0
M  V30 8526 H 829.93 1.473 -3.88942 0
M  V30 8527 H 828.507 2.72142 -2.54937 0
M  V30 8528 N 830.692 1.47107 0.565454 0
M  V30 8529 C 831.94 1.53005 1.32038 0
M  V30 8530 C 832.261 0.190453 1.94068 0
M  V30 8531 O 831.531 -0.784783 1.79494 0
M  V30 8532 H 830.111 0.563578 0.490294 0
M  V30 8533 H 832.773 1.83351 0.660928 0
M  V30 8534 H 831.869 2.29215 2.11818 0
M  V30 8535 N 832.17 -0.811516 1.35101 0
M  V30 8536 C 833.118 -1.94449 1.27642 0
M  V30 8537 C 834.112 -1.68522 0.172287 0
M  V30 8538 O 835.318 -1.76799 0.337967 0
M  V30 8539 H 831.693 -0.638776 0.396824 0
M  V30 8540 H 833.664 -1.97861 2.23369 0
M  V30 8541 C 832.413 -3.31139 1.06029 0
M  V30 8542 H 831.736 -3.51644 1.90227 0
M  V30 8543 H 833.176 -4.10831 1.0485 0
M  V30 8544 C 831.635 -3.36072 -0.236039 0
M  V30 8545 O 832.165 -3.82292 -1.23353 0
M  V30 8546 N 830.371 -2.89314 -0.273107 0
M  V30 8547 H 829.918 -2.51893 0.539211 0
M  V30 8548 H 829.876 -2.92996 -1.1402 0
M  V30 8549 N 833.648 -1.19017 -1.03309 0
M  V30 8550 C 834.894 -0.991681 -1.769 0
M  V30 8551 C 835.227 0.476813 -1.88255 0
M  V30 8552 O 834.502 1.35407 -1.39625 0
M  V30 8553 C 834.785 -1.65627 -3.19749 0
M  V30 8554 C 834.638 -3.19813 -3.1629 0
M  V30 8555 C 835.957 -1.37579 -4.18043 0
M  V30 8556 H 833.076 -0.361674 -0.642153 0
M  V30 8557 H 835.718 -1.46795 -1.20628 0
M  V30 8558 H 833.868 -1.25132 -3.67796 0
M  V30 8559 H 835.54 -3.69494 -2.76174 0
M  V30 8560 H 833.783 -3.51578 -2.54117 0
M  V30 8561 H 834.454 -3.61457 -4.17196 0
M  V30 8562 H 836.93 -1.72679 -3.78578 0
M  V30 8563 H 835.806 -1.86636 -5.16196 0
M  V30 8564 H 836.067 -0.300118 -4.4108 0
M  V30 8565 N 835.127 1.22348 -0.993418 0
M  V30 8566 C 836.037 2.27987 -0.553076 0
M  V30 8567 C 837.053 1.69378 0.398386 0
M  V30 8568 O 838.229 1.99648 0.26509 0
M  V30 8569 C 835.294 3.46475 0.124809 0
M  V30 8570 C 834.355 4.20399 -0.869682 0
M  V30 8571 C 833.588 5.33229 -0.224052 0
M  V30 8572 O 833.811 5.61885 0.981915 0
M  V30 8573 O 832.745 5.94685 -0.929174 0
M  V30 8574 H 836.571 2.67822 -1.43195 0
M  V30 8575 H 834.156 1.28525 -0.761694 0
M  V30 8576 H 836.038 4.18369 0.504496 0
M  V30 8577 H 834.713 3.08565 0.978243 0
M  V30 8578 H 833.62 3.50774 -1.30031 0
M  V30 8579 H 834.953 4.62191 -1.69233 0
M  V30 8580 N 836.605 0.766683 1.37694 0
M  V30 8581 C 838.016 0.394761 1.82479 0
M  V30 8582 C 838.367 -1.07842 1.63904 0
M  V30 8583 O 837.492 -1.83479 1.14737 0
M  V30 8584 C 838.087 0.70974 3.31283 0
M  V30 8585 C 836.646 0.390936 3.74364 0
M  V30 8586 C 835.793 0.956192 2.60293 0
M  V30 8587 H 838.744 0.961756 1.26238 0
M  V30 8588 H 838.765 -0.00742144 3.80499 0
M  V30 8589 H 838.277 1.782 3.4477 0
M  V30 8590 H 836.378 -0.674213 3.66449 0
M  V30 8591 H 836.491 0.895645 4.70654 0
M  V30 8592 H 834.855 0.380744 2.51838 0
M  V30 8593 H 835.638 2.03375 2.76575 0
M  V30 8594 N 838.083 -1.48885 0.516809 0
M  V30 8595 C 838.993 -2.33185 -0.257293 0
M  V30 8596 C 840.009 -1.4565 -0.951952 0
M  V30 8597 O 841.185 -1.78651 -0.929834 0
M  V30 8598 C 838.25 -3.21465 -1.29851 0
M  V30 8599 C 837.311 -4.24863 -0.615608 0
M  V30 8600 C 836.544 -5.08925 -1.60722 0
M  V30 8601 O 836.767 -4.9475 -2.83863 0
M  V30 8602 O 835.701 -5.90737 -1.15384 0
M  V30 8603 H 839.527 -3.00596 0.433131 0
M  V30 8604 H 837.112 -1.46792 0.277908 0
M  V30 8605 H 838.994 -3.76108 -1.90055 0
M  V30 8606 H 837.669 -2.5673 -1.97158 0
M  V30 8607 H 836.576 -3.74091 0.0265829 0
M  V30 8608 H 837.909 -4.92198 0.0152871 0
M  V30 8609 N 839.561 -0.251338 -1.55583 0
M  V30 8610 C 840.508 0.646337 -2.21565 0
M  V30 8611 C 841.478 1.16796 -1.18102 0
M  V30 8612 O 842.663 1.22162 -1.46564 0
M  V30 8613 C 839.803 1.83557 -2.92234 0
M  V30 8614 C 838.916 1.35006 -4.10363 0
M  V30 8615 C 838.051 2.4992 -4.68736 0
M  V30 8616 C 837.09 1.98253 -5.79105 0
M  V30 8617 N 836.227 3.06551 -6.31642 0
M  V30 8618 H 841.067 0.0769881 -2.97901 0
M  V30 8619 H 838.604 0.026238 -1.47077 0
M  V30 8620 H 840.562 2.53425 -3.31408 0
M  V30 8621 H 839.192 2.37733 -2.18364 0
M  V30 8622 H 838.244 0.545274 -3.76472 0
M  V30 8623 H 839.556 0.931435 -4.90026 0
M  V30 8624 H 838.71 3.27823 -5.10507 0
M  V30 8625 H 837.449 2.95086 -3.88298 0
M  V30 8626 H 836.454 1.18822 -5.36807 0
M  V30 8627 H 837.679 1.54051 -6.61396 0
M  V30 8628 H 835.625 3.51143 -5.54107 0
M  V30 8629 H 835.542 2.69033 -7.06511 0
M  V30 8630 H 836.81 3.84499 -6.78071 0
M  V30 8631 N 841.039 1.57585 0.0217189 0
M  V30 8632 C 842.002 2.06004 1.00474 0
M  V30 8633 C 843.002 0.965461 1.2859 0
M  V30 8634 O 844.192 1.22884 1.23471 0
M  V30 8635 C 841.324 2.48319 2.33561 0
M  V30 8636 H 842.517 2.94112 0.586346 0
M  V30 8637 H 840.07 1.53973 0.268716 0
M  V30 8638 H 840.805 1.63389 2.80133 0
M  V30 8639 H 840.59 3.28239 2.1448 0
M  V30 8640 H 842.08 2.86181 3.04122 0
M  V30 8641 N 842.517 -0.29412 1.54831 0
M  V30 8642 C 843.933 -0.640167 1.46199 0
M  V30 8643 C 844.133 -1.90426 0.658798 0
M  V30 8644 O 843.189 -2.51932 0.169228 0
M  V30 8645 C 844.502 -0.786763 2.90225 0
M  V30 8646 C 846.05 -0.882201 3.0031 0
M  V30 8647 C 846.525 -1.06074 4.45547 0
M  V30 8648 N 848.016 -1.12678 4.49286 0
M  V30 8649 C 848.751 -1.28334 5.58854 0
M  V30 8650 N 848.247 -1.40845 6.78332 0
M  V30 8651 N 850.04 -1.31277 5.46555 0
M  V30 8652 H 842.191 0.536334 2.05517 0
M  V30 8653 H 844.454 0.178363 0.93107 0
M  V30 8654 H 844.16 0.0713018 3.51628 0
M  V30 8655 H 844.034 -1.67364 3.38037 0
M  V30 8656 H 846.421 -1.73075 2.39017 0
M  V30 8657 H 846.502 0.0288405 2.55784 0
M  V30 8658 H 846.146 -0.216935 5.07437 0
M  V30 8659 H 846.076 -1.98611 4.8771 0
M  V30 8660 H 848.567 -1.04335 3.63212 0
M  V30 8661 H 848.88 -1.52566 7.57591 0
M  V30 8662 H 847.225 -1.37888 6.81184 0
M  V30 8663 H 850.416 -1.2112 4.52159 0
M  V30 8664 H 850.589 -1.43136 6.31994 0
M  V30 8665 N 843.995 -1.47404 -0.557645 0
M  V30 8666 C 845.223 -1.57622 -1.34026 0
M  V30 8667 C 845.638 -0.226256 -1.87439 0
M  V30 8668 O 844.995 0.78043 -1.64971 0
M  V30 8669 C 845.046 -2.60111 -2.51047 0
M  V30 8670 O 844.767 -3.89866 -1.99841 0
M  V30 8671 C 846.268 -2.80508 -3.43264 0
M  V30 8672 H 843.488 -0.532271 -0.40857 0
M  V30 8673 H 846.032 -1.93019 -0.675555 0
M  V30 8674 H 844.187 -2.27648 -3.13457 0
M  V30 8675 H 844.601 -4.45864 -2.76234 0
M  V30 8676 H 846.075 -3.56084 -4.21792 0
M  V30 8677 H 846.552 -1.88314 -3.9678 0
M  V30 8678 H 847.158 -3.14166 -2.86671 0
M  V30 8679 N 845.473 0.80434 -1.35529 0
M  V30 8680 C 846.719 1.56328 -1.30127 0
M  V30 8681 C 847.074 1.92008 0.122699 0
M  V30 8682 O 846.367 1.58693 1.07364 0
M  V30 8683 C 846.561 2.85988 -2.14349 0
M  V30 8684 C 846.39 2.62977 -3.64792 0
M  V30 8685 C 845.16 2.58757 -4.34019 0
M  V30 8686 C 847.358 2.332 -4.58391 0
M  V30 8687 N 845.34 2.27487 -5.70195 0
M  V30 8688 C 846.711 2.11788 -5.82706 0
M  V30 8689 C 848.766 2.19082 -4.4711 0
M  V30 8690 C 847.469 1.77688 -6.97008 0
M  V30 8691 C 849.495 1.86378 -5.61264 0
M  V30 8692 C 848.857 1.65804 -6.84608 0
M  V30 8693 H 844.956 0.57368 -0.531428 0
M  V30 8694 H 847.54 0.941313 -1.70433 0
M  V30 8695 H 845.711 3.46077 -1.76311 0
M  V30 8696 H 847.443 3.51571 -2.00449 0
M  V30 8697 H 844.198 2.73484 -3.86656 0
M  V30 8698 H 844.622 2.1464 -6.42074 0
M  V30 8699 H 849.264 2.33686 -3.5235 0
M  V30 8700 H 846.982 1.61822 -7.91732 0
M  V30 8701 H 850.568 1.7616 -5.5449 0
M  V30 8702 H 849.448 1.40868 -7.71444 0
M  V30 8703 N 846.951 1.19563 1.02676 0
M  V30 8704 C 847.861 0.950691 2.14474 0
M  V30 8705 C 848.877 -0.0900219 1.73767 0
M  V30 8706 O 850.053 0.0951063 2.01175 0
M  V30 8707 C 847.118 0.494917 3.43149 0
M  V30 8708 C 846.179 1.60527 3.98158 0
M  V30 8709 C 845.412 1.17115 5.20692 0
M  V30 8710 O 845.635 0.0355937 5.70389 0
M  V30 8711 O 844.569 1.97454 5.68591 0
M  V30 8712 H 848.395 1.88651 2.38001 0
M  V30 8713 H 845.98 0.978635 1.12885 0
M  V30 8714 H 847.862 0.249492 4.20661 0
M  V30 8715 H 846.537 -0.412434 3.21062 0
M  V30 8716 H 845.444 1.90487 3.21971 0
M  V30 8717 H 846.777 2.48925 4.24614 0
M  V30 8718 N 848.429 -1.21819 0.999893 0
M  V30 8719 C 849.359 -2.26282 0.576096 0
M  V30 8720 C 850.34 -1.65317 -0.400537 0
M  V30 8721 O 851.525 -1.92028 -0.28964 0
M  V30 8722 C 848.655 -3.47147 -0.103145 0
M  V30 8723 C 847.609 -4.20594 0.792745 0
M  V30 8724 C 846.935 -5.34696 -0.0198026 0
M  V30 8725 C 848.235 -4.78533 2.09293 0
M  V30 8726 H 849.929 -2.61984 1.4493 0
M  V30 8727 H 847.475 -1.25935 0.698316 0
M  V30 8728 H 849.428 -4.1939 -0.411068 0
M  V30 8729 H 848.152 -3.1056 -1.01094 0
M  V30 8730 H 846.811 -3.50194 1.08442 0
M  V30 8731 H 846.459 -4.94352 -0.928729 0
M  V30 8732 H 846.159 -5.84764 0.576661 0
M  V30 8733 H 847.683 -6.09752 -0.321659 0
M  V30 8734 H 849.097 -5.42682 1.8485 0
M  V30 8735 H 847.494 -5.38968 2.63881 0
M  V30 8736 H 848.564 -3.98197 2.76708 0
M  V30 8737 N 849.908 -0.773975 -1.37286 0
M  V30 8738 C 851.156 -0.338636 -1.99243 0
M  V30 8739 C 851.477 1.08919 -1.61746 0
M  V30 8740 O 850.747 1.74822 -0.88397 0
M  V30 8741 H 849.327 -0.12222 -0.736934 0
M  V30 8742 H 851.989 -0.992595 -1.67731 0
M  V30 8743 H 851.085 -0.418055 -3.09287 0
M  V30 8744 N 851.386 1.48609 -0.524698 0
M  V30 8745 C 852.614 2.06899 0.00742946 0
M  V30 8746 C 853.029 1.38196 1.28637 0
M  V30 8747 O 852.386 0.467771 1.76403 0
M  V30 8748 C 852.437 3.60699 0.240548 0
M  V30 8749 O 852.158 4.26821 -0.987715 0
M  V30 8750 C 853.659 4.35769 0.813652 0
M  V30 8751 H 850.879 0.670278 -0.0311294 0
M  V30 8752 H 853.423 1.91071 -0.728832 0
M  V30 8753 H 851.578 3.76149 0.926845 0
M  V30 8754 H 851.992 5.18889 -0.765175 0
M  V30 8755 H 853.466 5.44174 0.926219 0
M  V30 8756 H 853.943 3.9984 1.81728 0
M  V30 8757 H 854.549 4.24983 0.164086 0
M  V30 8758 N 852.864 0.259585 1.55447 0
M  V30 8759 C 854.28 -0.094961 1.59317 0
M  V30 8760 C 854.48 -1.55884 1.2768 0
M  V30 8761 O 853.536 -2.30528 1.0302 0
M  V30 8762 C 854.849 0.265669 2.99524 0
M  V30 8763 C 856.397 0.211007 3.12288 0
M  V30 8764 C 856.872 0.545851 4.54736 0
M  V30 8765 N 858.363 0.496823 4.60528 0
M  V30 8766 C 859.098 0.728909 5.68748 0
M  V30 8767 N 858.594 1.02479 6.85179 0
M  V30 8768 N 860.387 0.658756 5.58226 0
M  V30 8769 H 852.538 1.2141 1.7428 0
M  V30 8770 H 854.801 0.489404 0.811904 0
M  V30 8771 H 854.507 1.28316 3.27457 0
M  V30 8772 H 854.381 -0.401089 3.75061 0
M  V30 8773 H 856.768 -0.797172 2.84129 0
M  V30 8774 H 856.849 0.911799 2.38998 0
M  V30 8775 H 856.493 1.55164 4.83618 0
M  V30 8776 H 856.423 -0.17656 5.26304 0
M  V30 8777 H 858.914 0.277376 3.76881 0
M  V30 8778 H 859.227 1.18897 7.63599 0
M  V30 8779 H 857.572 1.0624 6.86832 0
M  V30 8780 H 860.763 0.427553 4.66143 0
M  V30 8781 H 860.936 0.84302 6.42493 0
M  V30 8782 N 854.342 -1.57594 -0.0133615 0
M  V30 8783 C 855.572 -1.93969 -0.711295 0
M  V30 8784 C 855.98 -0.859084 -1.68572 0
M  V30 8785 O 855.323 0.171842 -1.82894 0
M  V30 8786 C 855.385 -3.2625 -1.51001 0
M  V30 8787 C 855.049 -4.51628 -0.698645 0
M  V30 8788 C 856.046 -5.19899 0.00791185 0
M  V30 8789 C 853.731 -4.98095 -0.648553 0
M  V30 8790 C 855.725 -6.32928 0.753691 0
M  V30 8791 C 853.412 -6.11017 0.10096 0
M  V30 8792 C 854.41 -6.78289 0.800828 0
M  V30 8793 O 854.098 -7.89048 1.53814 0
M  V30 8794 H 853.83 -0.6445 -0.203951 0
M  V30 8795 H 856.384 -2.05378 0.0298267 0
M  V30 8796 H 854.614 -3.11211 -2.29531 0
M  V30 8797 H 856.303 -3.47835 -2.09202 0
M  V30 8798 H 857.069 -4.84995 -0.0217192 0
M  V30 8799 H 852.948 -4.45568 -1.18282 0
M  V30 8800 H 856.492 -6.85371 1.3005 0
M  V30 8801 H 852.389 -6.45364 0.132459 0
M  V30 8802 H 853.157 -8.05492 1.45345 0
M  V30 8803 N 855.82 0.285905 -1.54985 0
M  V30 8804 C 857.097 1.0397 -1.65679 0
M  V30 8805 C 857.477 2.04725 -0.514851 0
M  V30 8806 O 856.825 2.23257 0.486663 0
M  V30 8807 C 857.035 1.70807 -3.04345 0
M  V30 8808 C 858.383 2.22447 -3.61666 0
M  V30 8809 O 859.407 1.80815 -3.06895 0
M  V30 8810 O 858.266 2.98773 -4.57599 0
M  V30 8811 H 855.36 0.481473 -0.672394 0
M  V30 8812 H 857.906 0.282789 -1.67327 0
M  V30 8813 H 856.678 0.977271 -3.789 0
M  V30 8814 H 856.301 2.53217 -3.06541 0
M  V30 8815 N 857.298 1.47698 0.54982 0
M  V30 8816 C 858.575 1.45185 1.31075 0
M  V30 8817 C 858.955 0.152768 2.10547 0
M  V30 8818 O 858.303 -0.865706 2.11466 0
M  V30 8819 C 858.513 2.70192 2.20902 0
M  V30 8820 C 859.861 3.1771 2.81683 0
M  V30 8821 O 860.885 2.70971 2.312 0
M  V30 8822 O 859.744 3.98986 3.7346 0
M  V30 8823 H 856.838 0.57892 0.590577 0
M  V30 8824 H 859.384 1.59908 0.568112 0
M  V30 8825 H 858.156 3.56269 1.61828 0
M  V30 8826 H 857.779 2.58091 3.02448 0
M  V30 8827 N 858.776 -0.797141 1.35954 0
M  V30 8828 C 860.024 -1.55161 1.29497 0
M  V30 8829 C 860.345 -1.94582 -0.127659 0
M  V30 8830 O 859.615 -1.64343 -1.06622 0
M  V30 8831 H 858.195 -0.575413 0.47635 0
M  V30 8832 H 860.857 -0.950282 1.70164 0
M  V30 8833 H 859.953 -2.46272 1.9172 0
M  V30 8834 N 860.254 -1.20106 -1.0204 0
M  V30 8835 C 861.217 -0.948261 -2.08664 0
M  V30 8836 C 862.217 0.0746753 -1.60627 0
M  V30 8837 O 863.407 -0.160981 -1.73455 0
M  V30 8838 C 860.539 -0.426854 -3.38217 0
M  V30 8839 H 861.732 -1.894 -2.32524 0
M  V30 8840 H 859.285 -1.0159 -1.18782 0
M  V30 8841 H 860.02 0.524532 -3.2003 0
M  V30 8842 H 859.805 -1.16451 -3.74408 0
M  V30 8843 H 861.295 -0.269346 -4.1673 0
M  V30 8844 N 861.732 1.21287 -1.00634 0
M  V30 8845 C 862.662 2.25973 -0.588089 0
M  V30 8846 C 863.643 1.65527 0.391764 0
M  V30 8847 O 864.828 1.92179 0.279452 0
M  V30 8848 C 861.958 3.47197 0.0847336 0
M  V30 8849 C 860.912 4.20168 -0.815039 0
M  V30 8850 C 860.238 5.34699 -0.00855393 0
M  V30 8851 C 861.538 4.77416 -2.11828 0
M  V30 8852 H 863.232 2.61212 -1.46317 0
M  V30 8853 H 860.778 1.25563 -0.704985 0
M  V30 8854 H 862.731 4.19602 0.388821 0
M  V30 8855 H 861.455 3.11092 0.994456 0
M  V30 8856 H 860.114 3.49614 -1.10297 0
M  V30 8857 H 859.762 4.94837 0.902499 0
M  V30 8858 H 859.462 5.84449 -0.607664 0
M  V30 8859 H 860.986 6.09914 0.289317 0
M  V30 8860 H 862.4 5.41694 -1.87725 0
M  V30 8861 H 860.797 5.37561 -2.66736 0
M  V30 8862 H 861.867 3.96724 -2.78816 0
M  V30 8863 N 863.21 0.781244 1.36873 0
M  V30 8864 C 864.438 0.361566 2.03716 0
M  V30 8865 C 864.853 -1.01937 1.58916 0
M  V30 8866 O 864.21 -1.65237 0.774783 0
M  V30 8867 C 864.261 0.406391 3.59208 0
M  V30 8868 O 863.982 1.73286 4.02372 0
M  V30 8869 C 865.483 -0.0236894 4.43294 0
M  V30 8870 H 862.703 0.150133 0.653988 0
M  V30 8871 H 865.247 1.05781 1.75016 0
M  V30 8872 H 863.402 -0.241364 3.86647 0
M  V30 8873 H 863.816 1.67804 4.96933 0
M  V30 8874 H 865.29 0.0588205 5.51969 0
M  V30 8875 H 865.767 -1.07529 4.25833 0
M  V30 8876 H 866.373 0.59624 4.211 0
M  V30 8877 N 864.689 -1.48329 0.532571 0
M  V30 8878 C 865.652 -2.2816 -0.218069 0
M  V30 8879 C 866.652 -1.35526 -0.865409 0
M  V30 8880 O 867.842 -1.58394 -0.725061 0
M  V30 8881 C 864.974 -3.1448 -1.31586 0
M  V30 8882 H 866.167 -2.95987 0.482865 0
M  V30 8883 H 863.72 -1.53612 0.288603 0
M  V30 8884 H 864.455 -2.5129 -2.04997 0
M  V30 8885 H 864.24 -3.82625 -0.856779 0
M  V30 8886 H 865.73 -3.74693 -1.84377 0
M  V30 8887 N 866.167 -0.267825 -1.55308 0
M  V30 8888 C 867.077 0.633055 -2.25897 0
M  V30 8889 C 868.093 1.17613 -1.28231 0
M  V30 8890 O 869.269 1.20797 -1.61153 0
M  V30 8891 C 866.334 1.80397 -2.96071 0
M  V30 8892 C 865.395 1.29829 -4.09198 0
M  V30 8893 C 864.628 2.4134 -4.76016 0
M  V30 8894 O 864.851 3.60537 -4.42006 0
M  V30 8895 O 863.785 2.09909 -5.64111 0
M  V30 8896 H 867.611 0.0614381 -3.03638 0
M  V30 8897 H 865.196 -0.0355072 -1.49358 0
M  V30 8898 H 867.078 2.48685 -3.40197 0
M  V30 8899 H 865.753 2.36281 -2.21253 0
M  V30 8900 H 864.66 0.582086 -3.69544 0
M  V30 8901 H 865.993 0.785288 -4.85895 0
M  V30 8902 N 867.645 1.57599 0.00500368 0
M  V30 8903 C 868.578 2.03541 1.03181 0
M  V30 8904 C 869.556 0.924301 1.33774 0
M  V30 8905 O 870.74 1.19204 1.46023 0
M  V30 8906 C 867.867 2.42879 2.36067 0
M  V30 8907 C 866.913 3.64673 2.21169 0
M  V30 8908 S 867.746 5.12805 1.54243 0
M  V30 8909 C 868.902 5.55408 2.88569 0
M  V30 8910 H 869.135 2.90316 0.640598 0
M  V30 8911 H 866.668 1.52886 0.215722 0
M  V30 8912 H 868.626 2.66212 3.12476 0
M  V30 8913 H 867.287 1.56512 2.72329 0
M  V30 8914 H 866.48 3.89932 3.19326 0
M  V30 8915 H 866.082 3.41316 1.52904 0
M  V30 8916 H 868.374 5.57563 3.84876 0
M  V30 8917 H 869.317 6.55418 2.68016 0
M  V30 8918 H 869.725 4.82961 2.92249 0
M  V30 8919 N 869.123 -0.277682 1.55134 0
M  V30 8920 C 870.371 -1.00791 1.75173 0
M  V30 8921 C 870.692 -1.86987 0.553266 0
M  V30 8922 O 869.962 -1.91079 -0.43195 0
M  V30 8923 H 868.542 -0.375129 0.645978 0
M  V30 8924 H 871.204 -0.303041 1.9253 0
M  V30 8925 H 870.3 -1.64756 2.6507 0
M  V30 8926 N 870.601 -1.47988 -0.541979 0
M  V30 8927 C 871.531 -1.64503 -1.65713 0
M  V30 8928 C 872.512 -0.494116 -1.62765 0
M  V30 8929 O 873.697 -0.725256 -1.80149 0
M  V30 8930 C 870.827 -1.67337 -3.04328 0
M  V30 8931 C 869.781 -2.81809 -3.2213 0
M  V30 8932 C 869.107 -2.69724 -4.61685 0
M  V30 8933 C 870.407 -4.23241 -3.06046 0
M  V30 8934 H 872.101 -2.5786 -1.52147 0
M  V30 8935 H 869.647 -1.24094 -0.730529 0
M  V30 8936 H 871.6 -1.77481 -3.82202 0
M  V30 8937 H 870.324 -0.705514 -3.18889 0
M  V30 8938 H 868.983 -2.71201 -2.46669 0
M  V30 8939 H 868.631 -1.70934 -4.73065 0
M  V30 8940 H 868.331 -3.4653 -4.74543 0
M  V30 8941 H 869.855 -2.81818 -5.41674 0
M  V30 8942 H 871.269 -4.34746 -3.73723 0
M  V30 8943 H 869.666 -5.00952 -3.30405 0
M  V30 8944 H 870.736 -4.40543 -2.02609 0
M  V30 8945 N 872.079 0.78992 -1.36375 0
M  V30 8946 C 873.326 1.54777 -1.30576 0
M  V30 8947 C 873.654 1.94159 0.115095 0
M  V30 8948 O 872.909 1.62918 1.08426 0
M  V30 8949 C 873.208 2.83698 -2.17371 0
M  V30 8950 C 872.874 2.63457 -3.65925 0
M  V30 8951 C 871.536 2.57645 -4.06415 0
M  V30 8952 C 873.888 2.44833 -4.60115 0
M  V30 8953 C 871.216 2.31174 -5.39236 0
M  V30 8954 C 873.568 2.19889 -5.93154 0
M  V30 8955 C 872.232 2.1251 -6.32768 0
M  V30 8956 H 871.502 0.566371 -0.477813 0
M  V30 8957 H 874.149 0.91138 -1.68422 0
M  V30 8958 H 872.454 3.51802 -1.72459 0
M  V30 8959 H 874.151 3.41487 -2.10209 0
M  V30 8960 H 870.741 2.68836 -3.33804 0
M  V30 8961 H 874.925 2.48325 -4.29707 0
M  V30 8962 H 870.181 2.23942 -5.68911 0
M  V30 8963 H 874.355 2.04473 -6.65705 0
M  V30 8964 H 871.982 1.91761 -7.35616 0
M  V30 8965 N 873.557 1.20646 1.01402 0
M  V30 8966 C 874.487 0.98155 2.11867 0
M  V30 8967 C 875.468 -0.0903712 1.6986 0
M  V30 8968 O 876.653 0.0676586 1.94082 0
M  V30 8969 C 873.783 0.535636 3.43145 0
M  V30 8970 C 872.737 1.55109 3.98905 0
M  V30 8971 C 872.063 0.961725 5.2598 0
M  V30 8972 C 873.363 2.93552 4.32001 0
M  V30 8973 H 875.057 1.90544 2.3094 0
M  V30 8974 H 872.603 0.917554 1.10982 0
M  V30 8975 H 874.556 0.365512 4.19812 0
M  V30 8976 H 873.28 -0.423882 3.23838 0
M  V30 8977 H 871.939 1.70862 3.24348 0
M  V30 8978 H 871.587 -0.00580108 5.03 0
M  V30 8979 H 871.287 1.63993 5.64252 0
M  V30 8980 H 872.811 0.802726 6.053 0
M  V30 8981 H 874.225 2.81295 4.99546 0
M  V30 8982 H 872.622 3.58303 4.81393 0
M  V30 8983 H 873.692 3.4508 3.40658 0
M  V30 8984 N 875.035 -1.20752 1.01276 0
M  V30 8985 C 876.284 -1.8934 0.695229 0
M  V30 8986 C 876.597 -1.79459 -0.77806 0
M  V30 8987 O 877.803 -2.43146 -1.20799 0
M  V30 8988 C 876.259 -3.39548 1.1931 0
M  V30 8989 C 875.867 -3.58023 2.69302 0
M  V30 8990 C 877.611 -4.13714 0.950823 0
M  V30 8991 C 875.518 -5.02037 3.1259 0
M  V30 8992 H 874.448 -0.709084 0.25635 0
M  V30 8993 H 877.099 -1.36629 1.22494 0
M  V30 8994 H 875.481 -3.91559 0.591395 0
M  V30 8995 H 876.655 -3.16416 3.34989 0
M  V30 8996 H 874.97 -2.97222 2.9163 0
M  V30 8997 H 877.567 -5.19891 1.24971 0
M  V30 8998 H 877.91 -4.16147 -0.112791 0
M  V30 8999 H 878.443 -3.67792 1.51571 0
M  V30 9000 H 875.182 -5.04757 4.18211 0
M  V30 9001 H 874.702 -5.44469 2.51621 0
M  V30 9002 H 876.381 -5.70594 3.0501 0
M  V30 9003 N 876.513 -0.788492 -1.36457 0
M  V30 9004 C 877.461 -0.174192 -2.31947 0
M  V30 9005 C 878.455 0.665974 -1.5576 0
M  V30 9006 O 879.661 0.561161 -1.71029 0
M  V30 9007 H 876.036 -0.0375538 -0.751062 0
M  V30 9008 H 878.007 -0.995011 -2.81322 0
M  V30 9009 C 876.756 0.677276 -3.4104 0
M  V30 9010 H 876.079 0.0401418 -3.9978 0
M  V30 9011 H 877.519 1.07379 -4.10178 0
M  V30 9012 C 875.978 1.83512 -2.82533 0
M  V30 9013 O 876.508 2.93164 -2.74623 0
M  V30 9014 N 874.714 1.64095 -2.39836 0
M  V30 9015 H 874.261 0.749046 -2.46469 0
M  V30 9016 H 874.219 2.41726 -2.01037 0
M  V30 9017 N 877.991 1.48044 -0.54043 0
M  V30 9018 C 879.238 2.02497 -0.0101567 0
M  V30 9019 C 879.566 1.41651 1.33286 0
M  V30 9020 O 878.821 0.555504 1.8765 0
M  V30 9021 C 879.12 3.57085 0.150008 0
M  V30 9022 C 878.786 4.36769 -1.11998 0
M  V30 9023 C 877.448 4.58261 -1.46801 0
M  V30 9024 C 879.8 4.82848 -1.96232 0
M  V30 9025 C 877.128 5.23079 -2.65717 0
M  V30 9026 C 879.48 5.48977 -3.14335 0
M  V30 9027 C 878.144 5.68705 -3.49472 0
M  V30 9028 H 877.414 0.740991 -0.00371661 0
M  V30 9029 H 880.061 1.77909 -0.708562 0
M  V30 9030 H 878.366 3.80572 0.931259 0
M  V30 9031 H 880.063 3.96851 0.575384 0
M  V30 9032 H 876.653 4.20309 -0.838957 0
M  V30 9033 H 880.837 4.66038 -1.70654 0
M  V30 9034 H 876.093 5.36549 -2.93129 0
M  V30 9035 H 880.267 5.83649 -3.79904 0
M  V30 9036 H 877.894 6.18703 -4.41713 0
M  V30 9037 N 879.47 0.276058 1.55163 0
M  V30 9038 C 880.418 -0.626978 2.2399 0
M  V30 9039 C 881.412 -1.15708 1.23725 0
M  V30 9040 O 882.618 -1.1106 1.41653 0
M  V30 9041 H 878.993 -0.220742 0.718872 0
M  V30 9042 H 880.964 -0.0236569 2.98391 0
M  V30 9043 C 879.713 -1.79935 2.97521 0
M  V30 9044 H 879.036 -1.40064 3.74463 0
M  V30 9045 H 880.476 -2.40781 3.48999 0
M  V30 9046 C 878.935 -2.68838 2.03046 0
M  V30 9047 O 879.465 -3.69224 1.58229 0
M  V30 9048 N 877.671 -2.36028 1.69527 0
M  V30 9049 H 877.218 -1.54442 2.06169 0
M  V30 9050 H 877.176 -2.95782 1.06586 0
M  V30 9051 N 880.948 -1.576 0.00335426 0
M  V30 9052 C 881.896 -2.09759 -1.00517 0
M  V30 9053 C 882.89 -1.01833 -1.35375 0
M  V30 9054 O 884.096 -1.20294 -1.339 0
M  V30 9055 H 880.471 -0.669821 -0.341825 0
M  V30 9056 H 882.442 -2.93478 -0.539718 0
M  V30 9057 C 881.191 -2.6189 -2.28711 0
M  V30 9058 H 880.514 -3.44571 -2.02758 0
M  V30 9059 H 881.954 -3.02061 -2.97548 0
M  V30 9060 C 880.413 -1.53455 -2.99922 0
M  V30 9061 O 880.943 -0.919402 -3.91037 0
M  V30 9062 N 879.149 -1.2612 -2.61806 0
M  V30 9063 H 878.696 -1.76329 -1.87792 0
M  V30 9064 H 878.654 -0.537872 -3.09765 0
M  V30 9065 N 882.426 0.269451 -1.5528 0
M  V30 9066 C 883.358 1.35553 -1.84819 0
M  V30 9067 C 884.371 1.45369 -0.732914 0
M  V30 9068 O 885.56 1.47122 -1.0108 0
M  V30 9069 C 882.66 2.73645 -1.9993 0
M  V30 9070 C 881.833 2.86376 -3.30617 0
M  V30 9071 C 880.892 4.05165 -3.35749 0
M  V30 9072 O 879.918 3.95756 -4.09104 0
M  V30 9073 N 881.12 5.17297 -2.63408 0
M  V30 9074 H 883.885 1.10557 -2.78563 0
M  V30 9075 H 881.446 0.459566 -1.5524 0
M  V30 9076 H 883.438 3.51411 -2.00729 0
M  V30 9077 H 882.008 2.91448 -1.13035 0
M  V30 9078 H 881.228 1.95465 -3.42326 0
M  V30 9079 H 882.516 2.91815 -4.16799 0
M  V30 9080 H 881.914 5.2783 -2.03501 0
M  V30 9081 H 880.471 5.93281 -2.69927 0
M  V30 9082 N 883.904 1.48273 0.534124 0
M  V30 9083 C 885.134 1.59503 1.31311 0
M  V30 9084 C 885.542 0.25284 1.87503 0
M  V30 9085 O 884.885 -0.767399 1.66903 0
M  V30 9086 C 884.947 2.57899 2.50456 0
M  V30 9087 C 884.611 4.03063 2.15382 0
M  V30 9088 C 885.608 4.90869 1.713 0
M  V30 9089 C 883.293 4.4857 2.26032 0
M  V30 9090 C 885.287 6.22209 1.38328 0
M  V30 9091 C 882.974 5.79932 1.92672 0
M  V30 9092 C 883.972 6.66574 1.4889 0
M  V30 9093 O 883.66 7.95492 1.15966 0
M  V30 9094 H 883.392 0.540695 0.405739 0
M  V30 9095 H 885.946 1.94794 0.651497 0
M  V30 9096 H 884.176 2.1772 3.19585 0
M  V30 9097 H 885.865 2.59008 3.12522 0
M  V30 9098 H 886.631 4.56951 1.62545 0
M  V30 9099 H 882.51 3.81321 2.59066 0
M  V30 9100 H 886.054 6.89792 1.04082 0
M  V30 9101 H 881.951 6.13386 2.01066 0
M  V30 9102 H 882.719 8.08207 1.29399 0
M  V30 9103 N 885.382 -0.782676 1.36792 0
M  V30 9104 C 886.659 -1.52939 1.21939 0
M  V30 9105 C 887.039 -2.10228 -0.191639 0
M  V30 9106 O 886.387 -1.94574 -1.19805 0
M  V30 9107 C 886.597 -2.61898 2.30674 0
M  V30 9108 C 887.945 -3.29598 2.67676 0
M  V30 9109 O 888.969 -2.72186 2.29768 0
M  V30 9110 O 887.828 -4.3337 3.32946 0
M  V30 9111 H 884.922 -0.676856 0.47518 0
M  V30 9112 H 887.468 -0.82058 1.48542 0
M  V30 9113 H 886.24 -2.17607 3.25212 0
M  V30 9114 H 885.863 -3.40391 2.05475 0
M  V30 9115 N 886.86 -1.21182 -1.00761 0
M  V30 9116 C 888.085 -1.05411 -1.78615 0
M  V30 9117 C 888.51 0.391837 -1.83973 0
M  V30 9118 O 887.868 1.28256 -1.28141 0
M  V30 9119 C 887.916 -1.65285 -3.20489 0
M  V30 9120 O 887.02 -0.896558 -4.02536 0
M  V30 9121 H 886.361 -0.37116 -0.550578 0
M  V30 9122 H 888.891 -1.60669 -1.26676 0
M  V30 9123 H 888.901 -1.69397 -3.71172 0
M  V30 9124 H 887.576 -2.70514 -3.15904 0
M  V30 9125 H 886.153 -0.930335 -3.61108 0
M  V30 9126 N 888.338 1.20213 -1.01915 0
M  V30 9127 C 889.286 2.25125 -0.584936 0
M  V30 9128 C 890.28 1.65138 0.377602 0
M  V30 9129 O 891.486 1.78294 0.247245 0
M  V30 9130 H 887.861 0.732333 -0.170858 0
M  V30 9131 H 889.832 2.59075 -1.48063 0
M  V30 9132 C 888.581 3.47651 0.058389 0
M  V30 9133 H 887.904 3.9409 -0.673263 0
M  V30 9134 H 889.344 4.2275 0.325285 0
M  V30 9135 C 887.803 3.10725 1.30199 0
M  V30 9136 O 888.333 3.22491 2.39505 0
M  V30 9137 N 886.539 2.6525 1.18706 0
M  V30 9138 H 886.086 2.55875 0.297618 0
M  V30 9139 H 886.044 2.40913 2.02011 0
M  V30 9140 N 889.816 0.795718 1.36037 0
M  V30 9141 C 890.748 0.156336 2.28666 0
M  V30 9142 C 891.761 -0.638075 1.49775 0
M  V30 9143 O 892.95 -0.472222 1.7214 0
M  V30 9144 C 890.05 -0.801417 3.29288 0
M  V30 9145 C 889.223 -0.0557118 4.37365 0
M  V30 9146 C 888.282 -0.930338 5.1791 0
M  V30 9147 O 887.308 -0.385266 5.67895 0
M  V30 9148 N 888.51 -2.25382 5.34961 0
M  V30 9149 H 891.275 0.952033 2.84177 0
M  V30 9150 H 888.836 0.650189 1.48271 0
M  V30 9151 H 890.828 -1.39051 3.80062 0
M  V30 9152 H 889.398 -1.49796 2.74372 0
M  V30 9153 H 888.618 0.714508 3.87671 0
M  V30 9154 H 889.906 0.458633 5.06729 0
M  V30 9155 H 889.304 -2.72073 4.95977 0
M  V30 9156 H 887.861 -2.79241 5.88955 0
M  V30 9157 N 891.294 -1.47756 0.548274 0
M  V30 9158 C 892.522 -2.06884 0.0254873 0
M  V30 9159 C 892.937 -1.40225 -1.26422 0
M  V30 9160 O 892.294 -0.495776 -1.75637 0
M  V30 9161 C 892.345 -3.61036 -0.183134 0
M  V30 9162 O 892.066 -4.25195 1.05549 0
M  V30 9163 C 893.567 -4.37008 -0.744222 0
M  V30 9164 H 890.787 -0.669697 0.041789 0
M  V30 9165 H 893.331 -1.89888 0.759138 0
M  V30 9166 H 891.486 -3.77576 -0.866886 0
M  V30 9167 H 891.9 -5.17606 0.847629 0
M  V30 9168 H 893.374 -5.45579 -0.839529 0
M  V30 9169 H 893.851 -4.0268 -1.75344 0
M  V30 9170 H 894.457 -4.25191 -0.0964542 0
M  V30 9171 N 892.772 -0.284283 -1.55015 0
M  V30 9172 C 893.72 0.615091 -2.2432 0
M  V30 9173 C 894.714 1.15051 -1.24337 0
M  V30 9174 O 895.92 1.10308 -1.4224 0
M  V30 9175 H 892.295 0.216927 -0.720033 0
M  V30 9176 H 894.266 0.00783216 -2.98399 0
M  V30 9177 C 893.015 1.78355 -2.98471 0
M  V30 9178 H 892.338 1.38076 -3.752 0
M  V30 9179 H 893.778 2.38927 -3.50271 0
M  V30 9180 C 892.237 2.67757 -2.04469 0
M  V30 9181 O 892.767 3.6838 -1.60185 0
M  V30 9182 N 890.973 2.35125 -1.70776 0
M  V30 9183 H 890.52 1.53346 -2.06985 0
M  V30 9184 H 890.478 2.95212 -1.08153 0
M  V30 9185 N 894.251 1.57596 -0.0117121 0
M  V30 9186 C 895.528 1.82323 0.708356 0
M  V30 9187 C 895.908 0.891947 1.91331 0
M  V30 9188 O 895.256 -0.0565984 2.2843 0
M  V30 9189 C 895.466 3.31111 1.10303 0
M  V30 9190 C 896.814 3.97147 1.50199 0
M  V30 9191 O 897.838 3.35503 1.1965 0
M  V30 9192 O 896.697 5.0576 2.07049 0
M  V30 9193 H 893.791 0.751173 0.345931 0
M  V30 9194 H 896.337 1.69657 -0.0380632 0
M  V30 9195 H 895.109 3.90534 0.24467 0
M  V30 9196 H 894.732 3.48818 1.90818 0
M  V30 9197 N 895.729 -0.261212 1.5542 0
M  V30 9198 C 896.957 -1.00916 1.8062 0
M  V30 9199 C 897.372 -1.79494 0.585444 0
M  V30 9200 O 896.729 -1.76974 -0.445702 0
M  V30 9201 C 896.78 -1.95841 3.03856 0
M  V30 9202 O 896.501 -1.20445 4.21218 0
M  V30 9203 C 898.002 -2.82352 3.41749 0
M  V30 9204 H 895.222 -0.297596 0.601397 0
M  V30 9205 H 897.766 -0.288427 2.02456 0
M  V30 9206 H 895.921 -2.63361 2.84112 0
M  V30 9207 H 896.335 -1.84528 4.90968 0
M  V30 9208 H 897.809 -3.44733 4.31118 0
M  V30 9209 H 898.286 -3.5273 2.61683 0
M  V30 9210 H 898.892 -2.20306 3.63793 0
M  V30 9211 N 897.207 -1.48554 -0.526253 0
M  V30 9212 C 898.453 -1.56994 -1.28378 0
M  V30 9213 C 898.786 -0.244701 -1.92652 0
M  V30 9214 O 898.061 0.749636 -1.79473 0
M  V30 9215 C 898.344 -2.71092 -2.37026 0
M  V30 9216 C 898.197 -4.13331 -1.77418 0
M  V30 9217 C 899.516 -2.80934 -3.38769 0
M  V30 9218 H 896.635 -0.571466 -0.465398 0
M  V30 9219 H 899.277 -1.80742 -0.585861 0
M  V30 9220 H 897.427 -2.50973 -2.96555 0
M  V30 9221 H 899.099 -4.44899 -1.21912 0
M  V30 9222 H 897.342 -4.20158 -1.07936 0
M  V30 9223 H 898.013 -4.88994 -2.56104 0
M  V30 9224 H 900.489 -2.9917 -2.892 0
M  V30 9225 H 899.365 -3.62489 -4.12181 0
M  V30 9226 H 899.626 -1.89244 -3.99549 0
M  V30 9227 N 898.685 0.775411 -1.37205 0
M  V30 9228 C 899.913 1.56446 -1.35397 0
M  V30 9229 C 900.328 1.887 0.0615437 0
M  V30 9230 O 899.685 1.51178 1.02233 0
M  V30 9231 C 899.736 2.87697 -2.18889 0
M  V30 9232 O 899.457 2.56828 -3.54924 0
M  V30 9233 C 900.958 3.81944 -2.25019 0
M  V30 9234 H 898.178 0.484792 -0.463916 0
M  V30 9235 H 900.722 0.961346 -1.80495 0
M  V30 9236 H 898.877 3.44442 -1.7731 0
M  V30 9237 H 899.291 3.40851 -3.98649 0
M  V30 9238 H 900.765 4.71055 -2.87769 0
M  V30 9239 H 901.242 4.20811 -1.25757 0
M  V30 9240 H 901.848 3.3113 -2.66895 0
M  V30 9241 N 900.163 1.21714 1.00117 0
M  V30 9242 C 901.126 0.981338 2.07129 0
M  V30 9243 C 902.126 -0.0491116 1.60725 0
M  V30 9244 O 903.316 0.188555 1.73177 0
M  V30 9245 C 900.448 0.480608 3.37495 0
M  V30 9246 H 901.641 1.93075 2.29482 0
M  V30 9247 H 899.194 1.03467 1.17151 0
M  V30 9248 H 899.929 -0.473552 3.20824 0
M  V30 9249 H 899.714 1.22393 3.72508 0
M  V30 9250 H 901.204 0.33561 4.16249 0
M  V30 9251 N 901.641 -1.19671 1.02551 0
M  V30 9252 C 903.057 -1.41305 0.741963 0
M  V30 9253 C 903.257 -1.89865 -0.674807 0
M  V30 9254 O 902.313 -2.07323 -1.44129 0
M  V30 9255 C 903.626 -2.42706 1.77522 0
M  V30 9256 C 905.174 -2.56458 1.79438 0
M  V30 9257 C 905.649 -3.61111 2.81715 0
M  V30 9258 N 907.14 -3.68603 2.8051 0
M  V30 9259 C 907.875 -4.49262 3.56302 0
M  V30 9260 N 907.371 -5.33653 4.41799 0
M  V30 9261 N 909.164 -4.43879 3.44859 0
M  V30 9262 H 901.315 -0.8647 1.94002 0
M  V30 9263 H 903.578 -0.442206 0.838545 0
M  V30 9264 H 903.284 -2.14042 2.79068 0
M  V30 9265 H 903.158 -3.41831 1.59472 0
M  V30 9266 H 905.545 -2.84447 0.78573 0
M  V30 9267 H 905.626 -1.57499 2.01563 0
M  V30 9268 H 905.27 -3.33864 3.82749 0
M  V30 9269 H 905.2 -4.59713 2.56849 0
M  V30 9270 H 907.691 -3.08329 2.18498 0
M  V30 9271 H 908.004 -5.92308 4.96378 0
M  V30 9272 H 906.349 -5.33125 4.45873 0
M  V30 9273 H 909.54 -3.7699 2.77482 0
M  V30 9274 H 909.713 -5.06501 4.04179 0
M  V30 9275 N 903.119 -0.802921 -1.35613 0
M  V30 9276 C 904.367 -0.380822 -1.9848 0
M  V30 9277 C 904.688 1.05464 -1.6402 0
M  V30 9278 O 903.958 1.72908 -0.920854 0
M  V30 9279 H 902.538 -0.137824 -0.734176 0
M  V30 9280 H 905.2 -1.02795 -1.65587 0
M  V30 9281 H 904.296 -0.483565 -3.08331 0
M  V30 9282 N 904.597 1.47463 -0.556102 0
M  V30 9283 C 905.544 2.29998 0.192213 0
M  V30 9284 C 906.514 1.38993 0.909403 0
M  V30 9285 O 907.699 1.67954 0.905316 0
M  V30 9286 C 904.839 3.22932 1.21692 0
M  V30 9287 C 903.952 4.29027 0.505908 0
M  V30 9288 C 903.087 5.09114 1.51581 0
M  V30 9289 C 902.126 6.06984 0.789714 0
M  V30 9290 N 901.263 6.80033 1.74639 0
M  V30 9291 H 906.103 2.93468 -0.517734 0
M  V30 9292 H 903.64 1.44654 -0.267147 0
M  V30 9293 H 905.598 3.75234 1.8236 0
M  V30 9294 H 904.228 2.61329 1.89491 0
M  V30 9295 H 903.28 3.7979 -0.215276 0
M  V30 9296 H 904.592 4.9876 -0.062958 0
M  V30 9297 H 903.746 5.6556 2.19606 0
M  V30 9298 H 902.485 4.3928 2.11859 0
M  V30 9299 H 901.49 5.49717 0.0955382 0
M  V30 9300 H 902.715 6.78827 0.192688 0
M  V30 9301 H 900.661 6.12931 2.33777 0
M  V30 9302 H 900.578 7.45933 1.22965 0
M  V30 9303 H 901.846 7.41054 2.41782 0
M  V30 9304 N 906.075 0.2925 1.54862 0
M  V30 9305 C 907.303 -0.322113 2.04377 0
M  V30 9306 C 907.718 -1.48164 1.17016 0
M  V30 9307 O 907.075 -1.81466 0.19395 0
M  V30 9308 C 907.126 -0.786506 3.5284 0
M  V30 9309 O 906.847 0.326863 4.36879 0
M  V30 9310 C 908.348 -1.46715 4.18318 0
M  V30 9311 H 905.568 -0.0712074 0.667211 0
M  V30 9312 H 908.112 0.429657 1.99935 0
M  V30 9313 H 906.267 -1.48832 3.5767 0
M  V30 9314 H 906.681 -0.0331558 5.2449 0
M  V30 9315 H 908.155 -1.74333 5.23748 0
M  V30 9316 H 908.632 -2.40443 3.67538 0
M  V30 9317 H 909.238 -0.808735 4.1754 0
M  V30 9318 N 907.553 -1.57587 0.0200696 0
M  V30 9319 C 908.969 -1.56018 -0.336237 0
M  V30 9320 C 909.169 -1.02478 -1.73495 0
M  V30 9321 O 908.225 -0.667487 -2.43518 0
M  V30 9322 C 909.538 -3.00079 -0.193112 0
M  V30 9323 C 911.086 -3.11863 -0.266557 0
M  V30 9324 C 911.561 -4.57747 -0.152326 0
M  V30 9325 N 913.052 -4.62726 -0.209596 0
M  V30 9326 C 913.787 -5.73217 -0.144855 0
M  V30 9327 N 913.283 -6.92794 -0.0295487 0
M  V30 9328 N 915.076 -5.61751 -0.198184 0
M  V30 9329 H 907.227 -1.90722 0.93482 0
M  V30 9330 H 909.49 -0.876909 0.360186 0
M  V30 9331 H 909.196 -3.43167 0.770036 0
M  V30 9332 H 909.07 -3.64593 -0.967029 0
M  V30 9333 H 911.457 -2.68693 -1.22016 0
M  V30 9334 H 911.538 -2.50087 0.53758 0
M  V30 9335 H 911.182 -5.01595 0.797817 0
M  V30 9336 H 911.112 -5.17491 -0.97521 0
M  V30 9337 H 913.603 -3.76713 -0.299229 0
M  V30 9338 H 913.916 -7.72799 0.0134071 0
M  V30 9339 H 912.261 -6.95 0.00510737 0
M  V30 9340 H 915.452 -4.67222 -0.286603 0
M  V30 9341 H 915.625 -6.47839 -0.144266 0
M  V30 9342 N 909.032 0.252966 -1.55557 0
M  V30 9343 C 909.982 1.31585 -1.86197 0
M  V30 9344 C 910.966 1.43773 -0.722357 0
M  V30 9345 O 912.158 1.47117 -0.984152 0
M  V30 9346 C 909.287 2.67245 -2.15487 0
M  V30 9347 C 908.373 2.59087 -3.3576 0
M  V30 9348 N 908.764 2.20556 -4.5518 0
M  V30 9349 C 907.062 2.90112 -3.3875 0
M  V30 9350 C 907.763 2.22881 -5.37307 0
M  V30 9351 N 906.739 2.62145 -4.76215 0
M  V30 9352 H 910.541 1.00835 -2.76061 0
M  V30 9353 H 908.055 0.461598 -1.55702 0
M  V30 9354 H 910.052 3.43944 -2.35602 0
M  V30 9355 H 908.712 2.98867 -1.26919 0
M  V30 9356 H 909.723 1.922 -4.80915 0
M  V30 9357 H 906.4 3.26313 -2.60434 0
M  V30 9358 H 907.79 1.95482 -6.42835 0
M  V30 9359 N 910.51 1.48831 0.518367 0
M  V30 9360 C 911.738 1.6112 1.298 0
M  V30 9361 C 912.153 0.275872 1.86774 0
M  V30 9362 O 911.51 -0.736416 1.66983 0
M  V30 9363 C 911.561 2.66675 2.44063 0
M  V30 9364 O 911.282 3.95027 1.89434 0
M  V30 9365 C 912.783 2.8951 3.35706 0
M  V30 9366 H 910.003 0.542916 0.394314 0
M  V30 9367 H 912.547 1.94743 0.624142 0
M  V30 9368 H 910.702 2.35879 3.07311 0
M  V30 9369 H 911.116 4.53031 2.64316 0
M  V30 9370 H 912.59 3.67142 4.12202 0
M  V30 9371 H 913.067 1.98768 3.91648 0
M  V30 9372 H 913.673 3.21656 2.7824 0
M  V30 9373 N 911.988 -0.768124 1.37614 0
M  V30 9374 C 913.236 -1.52379 1.3276 0
M  V30 9375 C 913.557 -1.94809 -0.0863564 0
M  V30 9376 O 912.827 -1.66568 -1.03112 0
M  V30 9377 H 911.407 -0.565179 0.488448 0
M  V30 9378 H 914.069 -0.913974 1.72141 0
M  V30 9379 H 913.165 -2.4215 1.96901 0
M  V30 9380 N 913.466 -1.22244 -0.994698 0
M  V30 9381 C 914.396 -1.01513 -2.10279 0
M  V30 9382 C 915.377 0.0633365 -1.69982 0
M  V30 9383 O 916.562 -0.0985268 -1.9395 0
M  V30 9384 C 913.692 -0.59016 -3.42249 0
M  V30 9385 C 912.646 -1.61436 -3.96387 0
M  V30 9386 C 911.972 -1.04528 -5.24383 0
M  V30 9387 C 913.272 -3.00388 -4.27276 0
M  V30 9388 H 914.966 -1.94194 -2.2788 0
M  V30 9389 H 912.512 -0.935094 -1.09508 0
M  V30 9390 H 914.465 -0.432254 -4.19177 0
M  V30 9391 H 913.189 0.372308 -3.24471 0
M  V30 9392 H 911.848 -1.76001 -3.21589 0
M  V30 9393 H 911.496 -0.0742225 -5.02945 0
M  V30 9394 H 911.196 -1.72949 -5.61571 0
M  V30 9395 H 912.72 -0.898922 -6.03947 0
M  V30 9396 H 914.134 -2.89207 -4.95007 0
M  V30 9397 H 912.531 -3.65916 -4.75631 0
M  V30 9398 H 913.601 -3.50456 -3.35125 0
M  V30 9399 N 914.944 1.19125 -1.03184 0
M  V30 9400 C 915.854 2.26112 -0.625329 0
M  V30 9401 C 916.87 1.7056 0.344298 0
M  V30 9402 O 918.046 2.0039 0.20144 0
M  V30 9403 C 915.111 3.46697 0.0145169 0
M  V30 9404 C 914.172 4.17419 -1.00299 0
M  V30 9405 C 913.405 5.32247 -0.393581 0
M  V30 9406 O 913.628 5.64724 0.802659 0
M  V30 9407 O 912.562 5.91428 -1.1179 0
M  V30 9408 H 916.388 2.63131 -1.51643 0
M  V30 9409 H 913.973 1.26036 -0.802197 0
M  V30 9410 H 915.855 4.19762 0.371139 0
M  V30 9411 H 914.53 3.11521 0.879581 0
M  V30 9412 H 913.437 3.4646 -1.41125 0
M  V30 9413 H 914.77 4.56573 -1.83852 0
M  V30 9414 N 916.422 0.810101 1.35185 0
M  V30 9415 C 917.65 0.404696 2.02903 0
M  V30 9416 C 918.065 -0.985434 1.61042 0
M  V30 9417 O 917.422 -1.63557 0.809658 0
M  V30 9418 C 917.473 0.482493 3.58266 0
M  V30 9419 O 917.194 1.81782 3.98606 0
M  V30 9420 C 918.695 0.070345 4.43244 0
M  V30 9421 H 915.915 0.163972 0.650657 0
M  V30 9422 H 918.459 1.0947 1.72733 0
M  V30 9423 H 916.614 -0.159296 3.87072 0
M  V30 9424 H 917.028 1.78306 4.93262 0
M  V30 9425 H 918.502 0.175888 5.5172 0
M  V30 9426 H 918.979 -0.984724 4.28018 0
M  V30 9427 H 919.585 0.685427 4.1974 0
M  V30 9428 N 917.9 -1.47166 0.563914 0
M  V30 9429 C 918.832 -2.28165 -0.217583 0
M  V30 9430 C 919.845 -1.37405 -0.873134 0
M  V30 9431 O 921.034 -1.6217 -0.745857 0
M  V30 9432 C 918.134 -3.11873 -1.32621 0
M  V30 9433 C 917.307 -4.30637 -0.766177 0
M  V30 9434 C 916.366 -4.95889 -1.76014 0
M  V30 9435 O 915.392 -5.54071 -1.3036 0
M  V30 9436 N 916.594 -4.91191 -3.09373 0
M  V30 9437 H 919.359 -2.95876 0.477256 0
M  V30 9438 H 916.92 -1.5687 0.40043 0
M  V30 9439 H 918.912 -3.52392 -1.99003 0
M  V30 9440 H 917.482 -2.46361 -1.92419 0
M  V30 9441 H 916.702 -3.94129 0.0745998 0
M  V30 9442 H 917.99 -5.07442 -0.371472 0
M  V30 9443 H 917.388 -4.45133 -3.49104 0
M  V30 9444 H 915.945 -5.35708 -3.71295 0
M  V30 9445 N 919.378 -0.300708 -1.54705 0
M  V30 9446 C 920.341 0.562648 -2.22187 0
M  V30 9447 C 921.341 1.06152 -1.20782 0
M  V30 9448 O 922.531 0.957596 -1.45519 0
M  V30 9449 C 919.663 1.77899 -2.908 0
M  V30 9450 H 920.856 -0.0269361 -2.99888 0
M  V30 9451 H 918.409 -0.0515412 -1.56215 0
M  V30 9452 H 919.144 2.40841 -2.17177 0
M  V30 9453 H 918.929 1.42892 -3.65136 0
M  V30 9454 H 920.419 2.39236 -3.42281 0
M  V30 9455 N 920.856 1.57574 -0.0284266 0
M  V30 9456 C 922.272 1.56194 0.327958 0
M  V30 9457 C 922.472 1.03397 1.72949 0
M  V30 9458 O 921.528 0.680392 2.4316 0
M  V30 9459 C 922.841 3.00177 0.177196 0
M  V30 9460 C 924.389 3.12 0.250014 0
M  V30 9461 C 924.864 4.57821 0.128049 0
M  V30 9462 N 926.355 4.6283 0.185054 0
M  V30 9463 C 927.09 5.73286 0.114454 0
M  V30 9464 N 926.586 6.928 -0.00719225 0
M  V30 9465 N 928.379 5.61848 0.16839 0
M  V30 9466 H 920.53 1.90224 -0.944921 0
M  V30 9467 H 922.793 0.874987 -0.364832 0
M  V30 9468 H 922.499 3.42753 -0.788224 0
M  V30 9469 H 922.373 3.65101 0.94768 0
M  V30 9470 H 924.76 2.69337 1.20589 0
M  V30 9471 H 924.841 2.49799 -0.550835 0
M  V30 9472 H 924.485 5.01165 -0.824407 0
M  V30 9473 H 924.415 5.18001 0.947753 0
M  V30 9474 H 926.906 3.76867 0.279247 0
M  V30 9475 H 927.219 7.72781 -0.0543903 0
M  V30 9476 H 925.564 6.94987 -0.0419648 0
M  V30 9477 H 928.755 4.67367 0.261821 0
M  V30 9478 H 928.928 6.47907 0.109908 0
M  V30 9479 N 922.334 -0.244713 1.55689 0
M  V30 9480 C 923.564 -0.988508 1.81417 0
M  V30 9481 C 923.972 -1.79362 0.602143 0
M  V30 9482 O 923.315 -1.78386 -0.438639 0
M  V30 9483 C 923.377 -1.97287 3.0053 0
M  V30 9484 C 923.041 -1.35448 4.36466 0
M  V30 9485 C 924.038 -0.755874 5.14376 0
M  V30 9486 C 921.723 -1.37319 4.83165 0
M  V30 9487 C 923.717 -0.184218 6.37134 0
M  V30 9488 C 921.404 -0.797681 6.05871 0
M  V30 9489 C 922.402 -0.204224 6.82695 0
M  V30 9490 O 922.09 0.362392 8.03083 0
M  V30 9491 H 921.822 -0.296412 0.607549 0
M  V30 9492 H 924.376 -0.272185 2.03589 0
M  V30 9493 H 922.606 -2.72756 2.74119 0
M  V30 9494 H 924.295 -2.58028 3.13331 0
M  V30 9495 H 925.061 -0.733912 4.79415 0
M  V30 9496 H 920.94 -1.8245 4.23359 0
M  V30 9497 H 924.484 0.279624 6.97039 0
M  V30 9498 H 920.381 -0.816978 6.40309 0
M  V30 9499 H 921.149 0.254467 8.18104 0
M  V30 9500 N 923.813 -1.49104 -0.510467 0
M  V30 9501 C 925.09 -1.48609 -1.27179 0
M  V30 9502 C 925.47 -0.208537 -2.10067 0
M  V30 9503 O 924.818 0.809335 -2.13687 0
M  V30 9504 C 925.028 -2.75953 -2.1366 0
M  V30 9505 C 926.376 -3.25067 -2.73161 0
M  V30 9506 O 927.4 -2.77005 -2.23934 0
M  V30 9507 O 926.259 -4.08747 -3.62751 0
M  V30 9508 H 923.353 -0.594374 -0.57502 0
M  V30 9509 H 925.899 -1.61358 -0.525515 0
M  V30 9510 H 924.671 -3.60434 -1.52325 0
M  V30 9511 H 924.294 -2.66019 -2.95499 0
M  V30 9512 N 925.291 0.760815 -1.38019 0
M  V30 9513 C 926.221 1.88811 -1.37377 0
M  V30 9514 C 927.202 1.68388 -0.240737 0
M  V30 9515 O 928.387 1.89086 -0.442739 0
M  V30 9516 C 925.517 3.26244 -1.1909 0
M  V30 9517 C 924.471 3.61254 -2.29521 0
M  V30 9518 C 923.797 4.97346 -1.96345 0
M  V30 9519 C 925.097 3.66874 -3.71753 0
M  V30 9520 H 926.791 1.89606 -2.31711 0
M  V30 9521 H 924.337 0.910818 -1.11535 0
M  V30 9522 H 926.29 4.04755 -1.17267 0
M  V30 9523 H 925.014 3.2591 -0.212152 0
M  V30 9524 H 923.673 2.85057 -2.30517 0
M  V30 9525 H 923.321 4.93564 -0.969728 0
M  V30 9526 H 923.021 5.21739 -2.703 0
M  V30 9527 H 924.545 5.78244 -1.96129 0
M  V30 9528 H 925.959 4.35514 -3.72828 0
M  V30 9529 H 924.356 4.02772 -4.44853 0
M  V30 9530 H 925.426 2.67273 -4.0459 0
M  V30 9531 N 926.769 1.22769 0.988202 0
M  V30 9532 C 928.017 1.05301 1.725 0
M  V30 9533 C 928.338 -0.412103 1.90596 0
M  V30 9534 O 927.608 -1.29606 1.46898 0
M  V30 9535 H 926.188 0.386658 0.639144 0
M  V30 9536 H 928.85 1.54359 1.18993 0
M  V30 9537 H 927.946 1.53465 2.71763 0
M  V30 9538 N 928.247 -1.18576 1.03814 0
M  V30 9539 C 929.475 -1.92437 0.759966 0
M  V30 9540 C 929.89 -1.76031 -0.682526 0
M  V30 9541 O 929.247 -1.08829 -1.46501 0
M  V30 9542 C 929.298 -3.43923 1.11351 0
M  V30 9543 O 929.019 -3.5981 2.49937 0
M  V30 9544 C 930.52 -4.34888 0.859472 0
M  V30 9545 H 927.74 -0.610998 0.277349 0
M  V30 9546 H 930.284 -1.50448 1.38512 0
M  V30 9547 H 928.439 -3.83711 0.533362 0
M  V30 9548 H 928.853 -4.53569 2.63393 0
M  V30 9549 H 930.327 -5.39744 1.15672 0
M  V30 9550 H 930.804 -4.38717 -0.205839 0
M  V30 9551 H 931.41 -4.00795 1.42279 0
M  V30 9552 N 929.725 -0.817259 -1.34754 0
M  V30 9553 C 930.655 -0.249769 -2.3216 0
M  V30 9554 C 931.636 0.630663 -1.57977 0
M  V30 9555 O 932.821 0.558719 -1.85989 0
M  V30 9556 C 929.951 0.593825 -3.42186 0
M  V30 9557 C 928.905 -0.188997 -4.27583 0
M  V30 9558 C 928.231 0.776979 -5.29025 0
M  V30 9559 C 929.531 -1.39401 -5.03354 0
M  V30 9560 H 931.225 -1.06359 -2.79872 0
M  V30 9561 H 928.771 -0.512894 -1.34556 0
M  V30 9562 H 930.724 1.00097 -4.09339 0
M  V30 9563 H 929.448 1.44064 -2.93109 0
M  V30 9564 H 928.107 -0.577445 -3.62024 0
M  V30 9565 H 927.755 1.61959 -4.76212 0
M  V30 9566 H 927.455 0.257448 -5.87036 0
M  V30 9567 H 928.979 1.18211 -5.99048 0
M  V30 9568 H 930.393 -1.06117 -5.63393 0
M  V30 9569 H 928.79 -1.84878 -5.70912 0
M  V30 9570 H 929.86 -2.17515 -4.33377 0
M  V30 9571 N 931.203 1.46865 -0.571711 0
M  V30 9572 C 932.431 2.06818 -0.0583975 0
M  V30 9573 C 932.846 1.42218 1.24175 0
M  V30 9574 O 932.203 0.523655 1.74826 0
M  V30 9575 C 932.254 3.61281 0.125673 0
M  V30 9576 O 931.975 4.23462 -1.123 0
M  V30 9577 C 933.476 4.38137 0.674604 0
M  V30 9578 H 930.696 0.668948 -0.052438 0
M  V30 9579 H 933.24 1.88656 -0.789251 0
M  V30 9580 H 931.395 3.78908 0.806707 0
M  V30 9581 H 931.809 5.16192 -0.929869 0
M  V30 9582 H 933.283 5.46845 0.752626 0
M  V30 9583 H 933.76 4.05419 1.68915 0
M  V30 9584 H 934.366 4.2529 0.0287979 0
M  V30 9585 N 932.681 0.308908 1.54543 0
M  V30 9586 C 934.092 -0.182144 1.85809 0
M  V30 9587 C 934.443 -1.52796 1.23076 0
M  V30 9588 O 933.568 -2.09775 0.531358 0
M  V30 9589 C 934.163 -0.337275 3.37117 0
M  V30 9590 C 932.722 -0.772545 3.68387 0
M  V30 9591 C 931.869 0.114451 2.77064 0
M  V30 9592 H 934.82 0.529671 1.496 0
M  V30 9593 H 934.841 -1.17058 3.62046 0
M  V30 9594 H 934.353 0.642382 3.82747 0
M  V30 9595 H 932.454 -1.76247 3.2828 0
M  V30 9596 H 932.567 -0.586453 4.75497 0
M  V30 9597 H 930.931 -0.407581 2.51418 0
M  V30 9598 H 931.714 1.09061 3.25516 0
M  V30 9599 N 934.159 -1.57557 0.0367827 0
M  V30 9600 C 935.387 -1.96419 -0.650168 0
M  V30 9601 C 935.802 -0.913656 -1.6522 0
M  V30 9602 O 935.159 0.103718 -1.82205 0
M  V30 9603 C 935.21 -3.35355 -1.3498 0
M  V30 9604 O 934.931 -4.36379 -0.387905 0
M  V30 9605 C 936.432 -3.88892 -2.12786 0
M  V30 9606 H 933.652 -0.646751 -0.178756 0
M  V30 9607 H 936.196 -2.04261 0.0988197 0
M  V30 9608 H 934.351 -3.28708 -2.05012 0
M  V30 9609 H 934.765 -5.16969 -0.885596 0
M  V30 9610 H 936.239 -4.88428 -2.5718 0
M  V30 9611 H 936.716 -3.23547 -2.97008 0
M  V30 9612 H 937.322 -3.98831 -1.47694 0
M  V30 9613 N 935.637 0.236453 -1.55816 0
M  V30 9614 C 936.567 1.29639 -1.94206 0
M  V30 9615 C 937.548 1.49667 -0.808319 0
M  V30 9616 O 938.733 1.621 -1.06945 0
M  V30 9617 C 935.863 2.64914 -2.24584 0
M  V30 9618 C 934.817 2.59565 -3.40308 0
M  V30 9619 C 934.143 3.98732 -3.56254 0
M  V30 9620 C 935.443 2.15642 -4.75706 0
M  V30 9621 H 937.137 0.977552 -2.82992 0
M  V30 9622 H 934.683 0.468804 -1.36155 0
M  V30 9623 H 936.636 3.39209 -2.50031 0
M  V30 9624 H 935.36 2.98455 -1.32636 0
M  V30 9625 H 934.019 1.87728 -3.14887 0
M  V30 9626 H 933.667 4.29556 -2.61707 0
M  V30 9627 H 933.367 3.96039 -4.34082 0
M  V30 9628 H 934.891 4.74711 -3.84033 0
M  V30 9629 H 936.305 2.79673 -5.00456 0
M  V30 9630 H 934.702 2.24039 -5.56711 0
M  V30 9631 H 935.772 1.10831 -4.72064 0
M  V30 9632 N 937.115 1.49373 0.502552 0
M  V30 9633 C 938.392 1.49282 1.26389 0
M  V30 9634 C 938.772 0.219674 2.09954 0
M  V30 9635 O 938.12 -0.797991 2.14113 0
M  V30 9636 C 938.33 2.77083 2.12194 0
M  V30 9637 C 939.678 3.26511 2.71433 0
M  V30 9638 O 940.702 2.78189 2.22462 0
M  V30 9639 O 939.561 4.10665 3.60578 0
M  V30 9640 H 936.655 0.597415 0.57186 0
M  V30 9641 H 939.201 1.61634 0.516951 0
M  V30 9642 H 937.973 3.61237 1.50411 0
M  V30 9643 H 937.596 2.67583 2.94084 0
M  V30 9644 N 938.594 -0.753485 1.38421 0
M  V30 9645 C 939.542 -1.8886 1.35774 0
M  V30 9646 C 940.536 -1.67639 0.243608 0
M  V30 9647 O 941.742 -1.75206 0.412649 0
M  V30 9648 H 938.117 -0.62137 0.42356 0
M  V30 9649 H 940.088 -1.88209 2.3156 0
M  V30 9650 C 938.837 -3.26344 1.19979 0
M  V30 9651 H 938.16 -3.43259 2.04971 0
M  V30 9652 H 939.6 -4.06015 1.22181 0
M  V30 9653 C 938.059 -3.36771 -0.0932867 0
M  V30 9654 O 938.589 -3.8718 -1.07027 0
M  V30 9655 N 936.795 -2.90212 -0.150154 0
M  V30 9656 H 936.342 -2.4938 0.645562 0
M  V30 9657 H 936.3 -2.97569 -1.0149 0
M  V30 9658 N 940.072 -1.23292 -0.981677 0
M  V30 9659 C 941.318 -1.06582 -1.72535 0
M  V30 9660 C 941.651 0.396538 -1.90108 0
M  V30 9661 O 940.926 1.29363 -1.45243 0
M  V30 9662 C 941.209 -1.7904 -3.12437 0
M  V30 9663 C 941.062 -3.32941 -3.02441 0
M  V30 9664 C 942.381 -1.55185 -4.11832 0
M  V30 9665 H 939.5 -0.388585 -0.626236 0
M  V30 9666 H 942.142 -1.51779 -1.14293 0
M  V30 9667 H 940.292 -1.40619 -3.62158 0
M  V30 9668 H 941.964 -3.80875 -2.60254 0
M  V30 9669 H 940.207 -3.62039 -2.38977 0
M  V30 9670 H 940.878 -3.78827 -4.0149 0
M  V30 9671 H 943.354 -1.88581 -3.70913 0
M  V30 9672 H 942.23 -2.08362 -5.07815 0
M  V30 9673 H 942.491 -0.486925 -4.3941 0
M  V30 9674 N 941.55 1.18024 -1.04442 0
M  V30 9675 C 942.775 1.92573 -0.770097 0
M  V30 9676 C 943.2 1.75871 0.667169 0
M  V30 9677 O 942.558 1.07136 1.46258 0
M  V30 9678 C 942.606 3.41904 -1.14602 0
M  V30 9679 O 941.71 4.11491 -0.273712 0
M  V30 9680 H 941.051 0.600636 -0.283076 0
M  V30 9681 H 943.581 1.49645 -1.39526 0
M  V30 9682 H 943.591 3.92623 -1.10956 0
M  V30 9683 H 942.266 3.53382 -2.19304 0
M  V30 9684 H 940.843 3.71059 -0.370124 0
M  V30 9685 N 943.028 0.824394 1.34319 0
M  V30 9686 C 944.277 0.40956 1.97498 0
M  V30 9687 C 944.59 -1.03323 1.66083 0
M  V30 9688 O 945.796 -1.55205 2.22764 0
M  V30 9689 C 944.252 0.681384 3.53391 0
M  V30 9690 C 943.86 2.1379 3.93698 0
M  V30 9691 C 945.604 0.332788 4.23194 0
M  V30 9692 C 943.511 2.35453 5.42509 0
M  V30 9693 H 942.441 0.149409 0.739049 0
M  V30 9694 H 945.092 1.01095 1.5314 0
M  V30 9695 H 943.474 0.00980375 3.95999 0
M  V30 9696 H 944.648 2.84876 3.62191 0
M  V30 9697 H 942.963 2.44807 3.36836 0
M  V30 9698 H 945.56 0.472463 5.32609 0
M  V30 9699 H 945.903 -0.722862 4.09976 0
M  V30 9700 H 946.436 0.959005 3.86067 0
M  V30 9701 H 943.175 3.39529 5.60714 0
M  V30 9702 H 942.695 1.68912 5.75525 0
M  V30 9703 H 944.374 2.17885 6.09209 0
M  V30 9704 N 944.506 -1.46559 0.579492 0
M  V30 9705 C 945.736 -2.06484 0.0692642 0
M  V30 9706 C 946.144 -1.4293 -1.23967 0
M  V30 9707 O 945.487 -0.527632 -1.75959 0
M  V30 9708 C 945.549 -3.59078 -0.174174 0
M  V30 9709 C 945.213 -4.44805 1.04867 0
M  V30 9710 C 946.21 -4.81543 1.95991 0
M  V30 9711 C 943.895 -4.8599 1.26961 0
M  V30 9712 C 945.889 -5.58288 3.0756 0
M  V30 9713 C 943.576 -5.62495 2.38836 0
M  V30 9714 C 944.574 -5.98558 3.28964 0
M  V30 9715 O 944.262 -6.73518 4.38896 0
M  V30 9716 H 943.994 -0.673917 0.0530331 0
M  V30 9717 H 946.548 -1.89223 0.79898 0
M  V30 9718 H 944.778 -3.74634 -0.958464 0
M  V30 9719 H 946.467 -4.00941 -0.632515 0
M  V30 9720 H 947.233 -4.50307 1.80136 0
M  V30 9721 H 943.112 -4.57372 0.577184 0
M  V30 9722 H 946.656 -5.86355 3.77933 0
M  V30 9723 H 942.553 -5.93145 2.54655 0
M  V30 9724 H 943.321 -6.91938 4.37223 0
M  V30 9725 N 945.984 -0.3171 -1.54377 0
M  V30 9726 C 946.947 0.53905 -2.22771 0
M  V30 9727 C 947.947 1.04865 -1.21901 0
M  V30 9728 O 949.137 0.942108 -1.46526 0
M  V30 9729 C 946.269 1.74804 -2.92671 0
M  V30 9730 H 947.462 -0.0587417 -2.99842 0
M  V30 9731 H 945.015 -0.068107 -1.56152 0
M  V30 9732 H 945.75 2.38524 -2.1972 0
M  V30 9733 H 945.535 1.39011 -3.66631 0
M  V30 9734 H 947.025 2.35592 -3.44799 0
M  V30 9735 N 947.462 1.57535 -0.0451378 0
M  V30 9736 C 948.687 1.97172 0.64326 0
M  V30 9737 C 949.112 0.922266 1.63939 0
M  V30 9738 O 948.47 -0.115155 1.80934 0
M  V30 9739 C 948.518 3.35889 1.3119 0
M  V30 9740 O 947.622 3.33387 2.42748 0
M  V30 9741 H 946.963 0.642469 0.167719 0
M  V30 9742 H 949.493 2.04295 -0.111747 0
M  V30 9743 H 949.503 3.72481 1.66499 0
M  V30 9744 H 948.178 4.1181 0.581823 0
M  V30 9745 H 946.755 3.08533 2.09432 0
M  V30 9746 N 948.94 -0.228186 1.55939 0
M  V30 9747 C 950.17 -0.969211 1.82455 0
M  V30 9748 C 950.578 -1.78714 0.621133 0
M  V30 9749 O 949.921 -1.78841 -0.419694 0
M  V30 9750 C 949.983 -1.94088 3.02605 0
M  V30 9751 C 949.647 -1.30811 4.37878 0
M  V30 9752 C 950.644 -0.701275 5.15149 0
M  V30 9753 C 948.329 -1.32187 4.84595 0
M  V30 9754 C 950.323 -0.116631 6.37293 0
M  V30 9755 C 948.01 -0.733375 6.06683 0
M  V30 9756 C 949.008 -0.131804 6.82873 0
M  V30 9757 O 948.696 0.447549 8.02653 0
M  V30 9758 H 948.428 -0.289951 0.610659 0
M  V30 9759 H 950.982 -0.250576 2.03866 0
M  V30 9760 H 949.212 -2.69833 2.76996 0
M  V30 9761 H 950.901 -2.5469 3.1605 0
M  V30 9762 H 951.667 -0.683022 4.80166 0
M  V30 9763 H 947.546 -1.77949 4.25271 0
M  V30 9764 H 951.09 0.353539 6.96704 0
M  V30 9765 H 946.987 -0.749019 6.4114 0
M  V30 9766 H 947.755 0.341224 8.17788 0
M  V30 9767 N 950.418 -1.49637 -0.494624 0
M  V30 9768 C 951.381 -1.66252 -1.57775 0
M  V30 9769 C 952.381 -0.534054 -1.51672 0
M  V30 9770 O 953.571 -0.800637 -1.54711 0
M  V30 9771 C 950.703 -1.66584 -2.97426 0
M  V30 9772 H 951.896 -2.62864 -1.4437 0
M  V30 9773 H 949.449 -1.38764 -0.719323 0
M  V30 9774 H 950.184 -0.715798 -3.16302 0
M  V30 9775 H 949.969 -2.48543 -3.03264 0
M  V30 9776 H 951.459 -1.81474 -3.76108 0
M  V30 9777 N 951.896 0.746133 -1.38819 0
M  V30 9778 C 953.126 1.53316 -1.38484 0
M  V30 9779 C 953.534 1.89183 0.0253332 0
M  V30 9780 O 952.877 1.5382 1.00424 0
M  V30 9781 C 952.939 2.85623 -2.18311 0
M  V30 9782 C 952.603 2.72253 -3.67052 0
M  V30 9783 C 953.6 2.41547 -4.60381 0
M  V30 9784 C 951.285 2.89472 -4.10501 0
M  V30 9785 C 953.279 2.28226 -5.9514 0
M  V30 9786 C 950.966 2.7577 -5.45338 0
M  V30 9787 C 951.964 2.45191 -6.37472 0
M  V30 9788 O 951.652 2.31561 -7.69828 0
M  V30 9789 H 951.384 0.480763 -0.475229 0
M  V30 9790 H 953.938 0.93057 -1.83111 0
M  V30 9791 H 952.168 3.481 -1.68414 0
M  V30 9792 H 953.857 3.47178 -2.10291 0
M  V30 9793 H 954.623 2.27905 -4.28117 0
M  V30 9794 H 950.502 3.12269 -3.3913 0
M  V30 9795 H 954.046 2.04279 -6.6702 0
M  V30 9796 H 949.943 2.88987 -5.77197 0
M  V30 9797 H 950.711 2.46716 -7.80432 0
M  V30 9798 N 953.375 1.23811 0.975125 0
M  V30 9799 C 954.621 1.07495 1.71967 0
M  V30 9800 C 954.954 -0.386451 1.90316 0
M  V30 9801 O 954.229 -1.28591 1.45927 0
M  V30 9802 C 954.512 1.80694 3.11483 0
M  V30 9803 C 954.365 3.3454 3.00671 0
M  V30 9804 C 955.684 1.57367 4.11003 0
M  V30 9805 H 952.803 0.3919 0.624166 0
M  V30 9806 H 955.445 1.52383 1.13487 0
M  V30 9807 H 953.595 1.42538 3.61407 0
M  V30 9808 H 955.267 3.8225 2.5823 0
M  V30 9809 H 953.51 3.63301 2.37054 0
M  V30 9810 H 954.181 3.80951 3.99475 0
M  V30 9811 H 956.657 1.90545 3.69908 0
M  V30 9812 H 955.533 2.11052 5.06703 0
M  V30 9813 H 955.794 0.510221 4.39146 0
M  V30 9814 N 954.853 -1.17469 1.05066 0
M  V30 9815 C 955.801 -2.23495 0.644418 0
M  V30 9816 C 956.795 -1.66081 -0.333685 0
M  V30 9817 O 958.001 -1.78887 -0.199886 0
M  V30 9818 H 954.376 -0.727546 0.190214 0
M  V30 9819 H 956.347 -2.55058 1.5488 0
M  V30 9820 C 955.096 -3.47684 0.0338051 0
M  V30 9821 H 954.419 -3.92167 0.777513 0
M  V30 9822 H 955.859 -4.23464 -0.213086 0
M  V30 9823 C 954.318 -3.14067 -1.21915 0
M  V30 9824 O 954.848 -3.28728 -2.3087 0
M  V30 9825 N 953.054 -2.68304 -1.11631 0
M  V30 9826 H 952.601 -2.56574 -0.229673 0
M  V30 9827 H 952.559 -2.46184 -1.95553 0
M  V30 9828 N 956.331 -0.831506 -1.3388 0
M  V30 9829 C 957.294 -0.264773 -2.27666 0
M  V30 9830 C 958.294 0.562273 -1.50649 0
M  V30 9831 O 959.484 0.377131 -1.70069 0
M  V30 9832 C 956.616 0.627814 -3.35069 0
M  V30 9833 H 957.809 -1.09225 -2.79303 0
M  V30 9834 H 955.362 -0.604021 -1.44157 0
M  V30 9835 H 956.097 1.47802 -2.88661 0
M  V30 9836 H 955.882 0.0361552 -3.92083 0
M  V30 9837 H 957.372 1.01786 -4.05005 0
M  V30 9838 N 957.809 1.4625 -0.587256 0
M  V30 9839 C 958.719 2.34147 0.145744 0
M  V30 9840 C 959.735 1.50026 0.881376 0
M  V30 9841 O 960.911 1.82884 0.843539 0
M  V30 9842 C 957.976 3.27294 1.14366 0
M  V30 9843 C 957.037 4.27317 0.412199 0
M  V30 9844 C 956.27 5.16013 1.36257 0
M  V30 9845 O 956.493 5.0773 2.59934 0
M  V30 9846 O 955.427 5.95569 0.870681 0
M  V30 9847 H 959.253 2.98187 -0.576055 0
M  V30 9848 H 956.838 1.45299 -0.347628 0
M  V30 9849 H 958.72 3.84747 1.71894 0
M  V30 9850 H 957.395 2.65845 1.84684 0
M  V30 9851 H 956.302 3.73538 -0.205036 0
M  V30 9852 H 957.635 4.91564 -0.250104 0
M  V30 9853 N 959.287 0.325282 1.54207 0
M  V30 9854 C 960.536 -0.27768 1.99779 0
M  V30 9855 C 960.849 -1.5311 1.21723 0
M  V30 9856 O 962.055 -2.21017 1.57682 0
M  V30 9857 C 960.511 -0.545329 3.55745 0
M  V30 9858 C 960.119 0.691143 4.42637 0
M  V30 9859 C 961.863 -1.10815 4.09781 0
M  V30 9860 C 959.77 0.395302 5.90077 0
M  V30 9861 H 958.7 -0.107536 0.746292 0
M  V30 9862 H 961.351 0.437773 1.78202 0
M  V30 9863 H 959.733 -1.32101 3.73317 0
M  V30 9864 H 960.907 1.46653 4.3684 0
M  V30 9865 H 959.222 1.1743 3.99499 0
M  V30 9866 H 961.819 -1.34414 5.1753 0
M  V30 9867 H 962.162 -2.05806 3.6187 0
M  V30 9868 H 962.695 -0.393608 3.95848 0
M  V30 9869 H 959.434 1.31443 6.42186 0
M  V30 9870 H 958.954 -0.34235 5.98822 0
M  V30 9871 H 960.633 0.00576877 6.47 0
M  V30 9872 N 960.765 -1.57509 0.0534917 0
M  V30 9873 C 962.181 -1.56696 -0.303067 0
M  V30 9874 C 962.381 -1.06135 -1.71282 0
M  V30 9875 O 961.437 -0.71899 -2.42047 0
M  V30 9876 C 962.75 -3.00421 -0.129418 0
M  V30 9877 C 964.298 -3.12358 -0.200346 0
M  V30 9878 C 964.773 -4.57967 -0.0551971 0
M  V30 9879 N 966.264 -4.63066 -0.111398 0
M  V30 9880 C 966.999 -5.73395 -0.0232344 0
M  V30 9881 N 966.495 -6.92701 0.11741 0
M  V30 9882 N 968.288 -5.62045 -0.078984 0
M  V30 9883 H 960.439 -1.88696 0.975064 0
M  V30 9884 H 962.702 -0.869072 0.378706 0
M  V30 9885 H 962.408 -3.41456 0.842653 0
M  V30 9886 H 962.282 -3.66563 -0.889476 0
M  V30 9887 H 964.669 -2.71221 -1.16289 0
M  V30 9888 H 964.75 -2.48891 0.590506 0
M  V30 9889 H 964.394 -4.9979 0.904034 0
M  V30 9890 H 964.324 -5.19443 -0.865223 0
M  V30 9891 H 966.815 -3.77263 -0.219256 0
M  V30 9892 H 967.128 -7.72597 0.177326 0
M  V30 9893 H 965.473 -6.94833 0.152526 0
M  V30 9894 H 968.664 -4.67725 -0.187434 0
M  V30 9895 H 968.837 -6.48 -0.00681731 0
M  V30 9896 N 962.243 0.219913 -1.56058 0
M  V30 9897 C 963.153 1.29349 -1.95719 0
M  V30 9898 C 964.169 1.5119 -0.861248 0
M  V30 9899 O 965.345 1.64289 -1.16495 0
M  V30 9900 C 962.41 2.6229 -2.26726 0
M  V30 9901 C 961.471 2.48738 -3.49897 0
M  V30 9902 C 960.704 3.75339 -3.79416 0
M  V30 9903 O 960.927 4.78427 -3.10586 0
M  V30 9904 O 959.861 3.72352 -4.72903 0
M  V30 9905 H 963.687 0.986979 -2.87215 0
M  V30 9906 H 961.272 0.42291 -1.43289 0
M  V30 9907 H 963.154 3.408 -2.47857 0
M  V30 9908 H 961.829 2.92619 -1.38404 0
M  V30 9909 H 960.736 1.68422 -3.34043 0
M  V30 9910 H 962.069 2.23347 -4.38608 0
M  V30 9911 N 963.721 1.49897 0.486681 0
M  V30 9912 C 964.668 1.67619 1.58658 0
M  V30 9913 C 965.638 0.517537 1.57831 0
M  V30 9914 O 966.823 0.746272 1.756 0
M  V30 9915 C 963.963 1.762 2.96728 0
M  V30 9916 C 963.076 3.03465 3.07462 0
M  V30 9917 C 962.211 3.02937 4.36351 0
M  V30 9918 C 961.25 4.24721 4.4077 0
M  V30 9919 N 960.387 4.22021 5.61108 0
M  V30 9920 H 965.227 2.61528 1.42853 0
M  V30 9921 H 962.764 1.29657 0.694807 0
M  V30 9922 H 964.722 1.79156 3.76774 0
M  V30 9923 H 963.352 0.857452 3.11203 0
M  V30 9924 H 962.404 3.10054 2.20387 0
M  V30 9925 H 963.716 3.93454 3.06586 0
M  V30 9926 H 962.87 3.04536 5.24731 0
M  V30 9927 H 961.609 2.10751 4.39813 0
M  V30 9928 H 960.614 4.23352 3.5079 0
M  V30 9929 H 961.839 5.18116 4.39013 0
M  V30 9930 H 959.785 3.3268 5.65385 0
M  V30 9931 H 959.702 5.05761 5.61909 0
M  V30 9932 H 960.97 4.27743 6.51656 0
M  V30 9933 N 965.199 -0.738761 1.39212 0
M  V30 9934 C 966.447 -1.49529 1.35962 0
M  V30 9935 C 966.768 -1.94948 -0.0450152 0
M  V30 9936 O 966.038 -1.68717 -0.995552 0
M  V30 9937 H 964.618 -0.554692 0.500326 0
M  V30 9938 H 967.28 -0.877255 1.74041 0
M  V30 9939 H 966.376 -2.37919 2.01993 0
M  V30 9940 N 966.677 -1.24326 -0.968545 0
M  V30 9941 C 967.954 -0.990459 -1.68669 0
M  V30 9942 C 968.334 0.487487 -2.05394 0
M  V30 9943 O 967.682 1.46158 -1.75642 0
M  V30 9944 C 967.892 -1.91251 -2.91931 0
M  V30 9945 C 969.24 -2.18291 -3.6419 0
M  V30 9946 O 970.264 -1.88897 -3.01987 0
M  V30 9947 O 969.123 -2.68204 -4.76161 0
M  V30 9948 H 966.217 -0.374515 -0.737338 0
M  V30 9949 H 968.763 -1.35421 -1.02271 0
M  V30 9950 H 967.535 -2.9111 -2.61478 0
M  V30 9951 H 967.158 -1.55188 -3.66064 0
M  V30 9952 N 968.156 1.1691 -1.05688 0
M  V30 9953 C 969.384 1.91204 -0.790485 0
M  V30 9954 C 969.799 1.77095 0.654434 0
M  V30 9955 O 969.156 1.11146 1.44751 0
M  V30 9956 C 969.207 3.42108 -1.16808 0
M  V30 9957 O 968.928 3.55788 -2.55629 0
M  V30 9958 C 970.429 4.33466 -0.92855 0
M  V30 9959 H 967.649 0.606508 -0.287035 0
M  V30 9960 H 970.193 1.48225 -1.40888 0
M  V30 9961 H 968.348 3.82814 -0.59434 0
M  V30 9962 H 968.762 4.49321 -2.70575 0
M  V30 9963 H 970.236 5.37836 -1.24245 0
M  V30 9964 H 970.713 4.38989 0.136016 0
M  V30 9965 H 971.319 3.98481 -1.48638 0
M  V30 9966 N 969.634 0.838594 1.33437 0
M  V30 9967 C 970.864 0.446995 2.01707 0
M  V30 9968 C 971.272 -0.956335 1.63251 0
M  V30 9969 O 970.615 -1.63289 0.841566 0
M  V30 9970 C 970.677 0.487707 3.56176 0
M  V30 9971 C 970.341 1.8471 4.18009 0
M  V30 9972 C 971.338 2.81028 4.374 0
M  V30 9973 C 969.023 2.13987 4.54439 0
M  V30 9974 C 971.017 4.04785 4.92369 0
M  V30 9975 C 968.704 3.38 5.09116 0
M  V30 9976 C 969.702 4.33216 5.28027 0
M  V30 9977 O 969.39 5.55036 5.81541 0
M  V30 9978 H 969.122 0.175799 0.652741 0
M  V30 9979 H 971.676 1.13265 1.71348 0
M  V30 9980 H 969.906 -0.254719 3.8586 0
M  V30 9981 H 971.595 0.113971 4.0574 0
M  V30 9982 H 972.361 2.5971 4.09604 0
M  V30 9983 H 968.24 1.40668 4.39014 0
M  V30 9984 H 971.784 4.79114 5.07046 0
M  V30 9985 H 967.681 3.59175 5.36343 0
M  V30 9986 H 968.449 5.56772 5.99956 0
M  V30 9987 N 971.112 -1.45937 0.595003 0
M  V30 9988 C 972.36 -2.01921 0.0851368 0
M  V30 9989 C 972.681 -1.46748 -1.28413 0
M  V30 9990 O 971.951 -0.656873 -1.84559 0
M  V30 9991 H 970.531 -0.746457 0.0284826 0
M  V30 9992 H 973.193 -1.78891 0.773561 0
M  V30 9993 H 972.289 -3.1209 0.0254002 0
M  V30 9994 N 972.59 -0.333456 -1.54032 0
M  V30 9995 C 973.538 0.543414 -2.26163 0
M  V30 9996 C 974.532 1.11037 -1.27934 0
M  V30 9997 O 975.738 1.05727 -1.45677 0
M  V30 9998 H 972.113 0.19391 -0.726569 0
M  V30 9999 H 974.084 -0.0871052 -2.98273 0
M  V30 10000 C 972.833 1.68769 -3.03994 0
M  V30 10001 H 972.156 1.26069 -3.79403 0
M  V30 10002 H 973.596 2.27662 -3.57695 0
M  V30 10003 C 972.055 2.61117 -2.12884 0
M  V30 10004 O 972.585 3.63097 -1.71823 0
M  V30 10005 N 970.791 2.29573 -1.7817 0
M  V30 10006 H 970.338 1.46684 -2.11759 0
M  V30 10007 H 970.296 2.91622 -1.1749 0
M  V30 10008 N 974.068 1.57479 -0.061844 0
M  V30 10009 C 974.998 2.15181 0.9066 0
M  V30 10010 C 975.979 1.07624 1.31724 0
M  V30 10011 O 977.164 1.35614 1.39006 0
M  V30 10012 C 974.294 2.70542 2.17771 0
M  V30 10013 C 973.248 3.83178 1.9068 0
M  V30 10014 C 972.574 4.25099 3.24337 0
M  V30 10015 C 973.874 5.07853 1.21994 0
M  V30 10016 H 975.568 2.96355 0.42594 0
M  V30 10017 H 973.114 1.42556 0.203435 0
M  V30 10018 H 975.067 3.09552 2.85929 0
M  V30 10019 H 973.791 1.86575 2.68062 0
M  V30 10020 H 972.45 3.44656 1.24931 0
M  V30 10021 H 972.098 3.38069 3.72449 0
M  V30 10022 H 971.798 5.01021 3.07005 0
M  V30 10023 H 973.322 4.66718 3.93709 0
M  V30 10024 H 974.736 5.44242 1.80204 0
M  V30 10025 H 973.133 5.88987 1.14954 0
M  V30 10026 H 974.203 4.84497 0.197536 0
M  V30 10027 N 975.546 -0.211634 1.56173 0
M  V30 10028 C 976.792 -0.935935 1.79911 0
M  V30 10029 C 977.125 -1.83589 0.633155 0
M  V30 10030 O 976.4 -1.91004 -0.367132 0
M  V30 10031 C 976.683 -1.76638 3.13801 0
M  V30 10032 C 976.536 -0.892259 4.40861 0
M  V30 10033 C 977.855 -2.74224 3.44223 0
M  V30 10034 H 974.974 -0.338822 0.654499 0
M  V30 10035 H 977.616 -0.20422 1.88899 0
M  V30 10036 H 975.766 -2.39021 3.0627 0
M  V30 10037 H 977.438 -0.284407 4.60422 0
M  V30 10038 H 975.681 -0.198145 4.33347 0
M  V30 10039 H 976.352 -1.50793 5.31004 0
M  V30 10040 H 978.828 -2.21975 3.51946 0
M  V30 10041 H 977.704 -3.29424 4.39057 0
M  V30 10042 H 977.965 -3.52455 2.66885 0
M  V30 10043 N 977.024 -1.50153 -0.478725 0
M  V30 10044 C 978.435 -1.53706 -1.05978 0
M  V30 10045 C 978.786 -0.336112 -1.933 0
M  V30 10046 O 977.911 0.551803 -2.09246 0
M  V30 10047 C 978.506 -2.78541 -1.92874 0
M  V30 10048 C 977.065 -2.848 -2.46102 0
M  V30 10049 C 976.212 -2.47902 -1.24257 0
M  V30 10050 H 979.163 -1.56528 -0.261664 0
M  V30 10051 H 979.184 -2.59964 -2.77847 0
M  V30 10052 H 978.696 -3.6593 -1.29293 0
M  V30 10053 H 976.797 -2.01744 -3.13257 0
M  V30 10054 H 976.91 -3.87511 -2.81731 0
M  V30 10055 H 975.274 -2.0017 -1.57493 0
M  V30 10056 H 976.057 -3.3759 -0.62351 0
M  V30 10057 N 978.502 0.731368 -1.39602 0
M  V30 10058 C 979.749 1.491 -1.37024 0
M  V30 10059 C 980.077 1.94473 0.0326423 0
M  V30 10060 O 979.332 1.6737 1.01418 0
M  V30 10061 C 979.631 2.74224 -2.29208 0
M  V30 10062 C 979.297 2.477 -3.7677 0
M  V30 10063 C 977.959 2.40175 -4.16976 0
M  V30 10064 C 980.311 2.25098 -4.70086 0
M  V30 10065 C 977.639 2.08095 -5.48556 0
M  V30 10066 C 979.991 1.94534 -6.01946 0
M  V30 10067 C 978.655 1.85481 -6.41212 0
M  V30 10068 H 977.925 0.545595 -0.501405 0
M  V30 10069 H 980.572 0.839127 -1.72136 0
M  V30 10070 H 978.877 3.44171 -1.87225 0
M  V30 10071 H 980.574 3.32264 -2.24504 0
M  V30 10072 H 977.164 2.54436 -3.44906 0
M  V30 10073 H 981.348 2.29876 -4.39853 0
M  V30 10074 H 976.604 1.99611 -5.77897 0
M  V30 10075 H 980.778 1.76054 -6.73779 0
M  V30 10076 H 978.405 1.60389 -7.43088 0
M  V30 10077 N 979.98 1.24838 0.961938 0
M  V30 10078 C 981.205 1.11967 1.7458 0
M  V30 10079 C 981.63 -0.323287 1.85301 0
M  V30 10080 O 980.988 -1.23412 1.32812 0
M  V30 10081 C 981.036 1.77066 3.14134 0
M  V30 10082 O 980.14 1.04534 3.98932 0
M  V30 10083 H 979.481 0.391338 0.536424 0
M  V30 10084 H 982.011 1.65259 1.20626 0
M  V30 10085 H 982.021 1.83056 3.64629 0
M  V30 10086 H 980.696 2.82052 3.05646 0
M  V30 10087 H 979.273 1.06372 3.57407 0
M  V30 10088 N 981.458 -1.16348 1.06306 0
M  V30 10089 C 982.869 -1.68491 0.80422 0
M  V30 10090 C 983.22 -1.84327 -0.672159 0
M  V30 10091 O 982.345 -1.53892 -1.52139 0
M  V30 10092 C 982.94 -3.06048 1.45328 0
M  V30 10093 C 981.499 -3.55311 1.24221 0
M  V30 10094 C 980.646 -2.31291 1.5297 0
M  V30 10095 H 983.597 -1.00708 1.22652 0
M  V30 10096 H 983.618 -3.70451 0.868674 0
M  V30 10097 H 983.13 -2.9449 2.52779 0
M  V30 10098 H 981.231 -3.72128 0.187447 0
M  V30 10099 H 981.344 -4.37397 1.95502 0
M  V30 10100 H 979.708 -2.3631 0.950241 0
M  V30 10101 H 980.491 -2.22331 2.6158 0
M  V30 10102 N 982.937 -0.845659 -1.3299 0
M  V30 10103 C 983.884 -0.281761 -2.29074 0
M  V30 10104 C 984.854 0.606237 -1.54641 0
M  V30 10105 O 986.039 0.543063 -1.82908 0
M  V30 10106 C 983.179 0.531451 -3.40983 0
M  V30 10107 C 982.292 -0.381328 -4.30314 0
M  V30 10108 C 981.427 0.443643 -5.29344 0
M  V30 10109 C 980.466 -0.467101 -6.10315 0
M  V30 10110 N 979.603 0.320148 -7.0137 0
M  V30 10111 H 984.443 -1.10641 -2.76699 0
M  V30 10112 H 981.98 -0.55706 -1.36144 0
M  V30 10113 H 983.938 1.01848 -4.04577 0
M  V30 10114 H 982.568 1.32101 -2.94532 0
M  V30 10115 H 981.62 -0.986701 -3.6738 0
M  V30 10116 H 982.932 -1.08067 -4.86953 0
M  V30 10117 H 982.086 0.994212 -5.98498 0
M  V30 10118 H 980.825 1.17639 -4.73299 0
M  V30 10119 H 979.83 -1.02963 -5.40073 0
M  V30 10120 H 981.055 -1.19832 -6.68444 0
M  V30 10121 H 979.001 1.03615 -6.47765 0
M  V30 10122 H 978.918 -0.320338 -7.55321 0
M  V30 10123 H 980.186 0.852735 -7.74822 0
M  V30 10124 N 984.415 1.45619 -0.602734 0
M  V30 10125 C 985.365 2.27568 0.140264 0
M  V30 10126 C 986.349 1.3704 0.84314 0
M  V30 10127 O 987.541 1.61067 0.733931 0
M  V30 10128 C 984.67 3.23812 1.14019 0
M  V30 10129 C 983.756 4.21828 0.438406 0
M  V30 10130 N 984.147 5.03148 -0.517245 0
M  V30 10131 C 982.445 4.40684 0.686588 0
M  V30 10132 C 983.146 5.74229 -0.929291 0
M  V30 10133 N 982.122 5.42909 -0.274086 0
M  V30 10134 H 985.924 2.87839 -0.5938 0
M  V30 10135 H 983.438 1.56712 -0.426033 0
M  V30 10136 H 985.435 3.8125 1.68684 0
M  V30 10137 H 984.095 2.65102 1.87486 0
M  V30 10138 H 985.106 5.1013 -0.893758 0
M  V30 10139 H 981.783 3.93102 1.4063 0
M  V30 10140 H 983.173 6.49586 -1.7172 0
M  V30 10141 N 985.893 0.34162 1.53853 0
M  V30 10142 C 986.84 -0.516058 2.24957 0
M  V30 10143 C 987.81 -1.09711 1.2471 0
M  V30 10144 O 988.995 -1.13409 1.53438 0
M  V30 10145 C 986.135 -1.66207 3.02439 0
M  V30 10146 C 985.248 -1.10851 4.17536 0
M  V30 10147 C 984.383 -2.22167 4.82509 0
M  V30 10148 C 983.422 -1.64152 5.89678 0
M  V30 10149 N 982.559 -2.69203 6.4844 0
M  V30 10150 H 987.399 0.0968275 2.97843 0
M  V30 10151 H 984.936 0.0595565 1.46979 0
M  V30 10152 H 986.894 -2.33672 3.4562 0
M  V30 10153 H 985.524 -2.24597 2.31853 0
M  V30 10154 H 984.576 -0.324853 3.7901 0
M  V30 10155 H 985.888 -0.644151 4.94623 0
M  V30 10156 H 985.042 -2.97501 5.28751 0
M  V30 10157 H 983.781 -2.71946 4.04842 0
M  V30 10158 H 982.786 -0.873228 5.42821 0
M  V30 10159 H 984.011 -1.15228 6.69253 0
M  V30 10160 H 981.957 -3.1824 5.73637 0
M  V30 10161 H 981.874 -2.27383 7.20994 0
M  V30 10162 H 983.142 -3.44312 6.99335 0
M  V30 10163 N 987.371 -1.57444 0.0701946 0
M  V30 10164 C 988.619 -1.93047 -0.598106 0
M  V30 10165 C 988.94 -0.950841 -1.70247 0
M  V30 10166 O 988.21 0.00127177 -1.959 0
M  V30 10167 H 986.79 -0.712648 -0.223924 0
M  V30 10168 H 989.452 -1.94481 0.127674 0
M  V30 10169 H 988.548 -2.94807 -1.02445 0
M  V30 10170 N 988.849 0.203349 -1.56283 0
M  V30 10171 C 990.077 0.941426 -1.84241 0
M  V30 10172 C 990.492 1.77197 -0.651658 0
M  V30 10173 O 989.849 1.78506 0.379713 0
M  V30 10174 C 989.9 1.84429 -3.10915 0
M  V30 10175 O 989.621 1.04729 -4.25398 0
M  V30 10176 C 991.122 2.69474 -3.51993 0
M  V30 10177 H 988.342 0.27507 -0.612027 0
M  V30 10178 H 990.886 0.213088 -2.03387 0
M  V30 10179 H 989.041 2.52635 -2.93691 0
M  V30 10180 H 989.455 1.66179 -4.97478 0
M  V30 10181 H 990.929 3.28495 -4.43616 0
M  V30 10182 H 991.406 3.42775 -2.74594 0
M  V30 10183 H 992.012 2.06652 -3.71719 0
M  V30 10184 N 990.327 1.50405 0.470755 0
M  V30 10185 C 991.257 1.72222 1.57676 0
M  V30 10186 C 992.238 0.57121 1.60222 0
M  V30 10187 O 993.423 0.810381 1.76484 0
M  V30 10188 C 990.553 1.81666 2.95998 0
M  V30 10189 C 989.507 2.96857 3.08318 0
M  V30 10190 C 988.833 2.91445 4.4829 0
M  V30 10191 C 990.133 4.37361 2.85504 0
M  V30 10192 H 991.827 2.64825 1.39671 0
M  V30 10193 H 989.373 1.27438 0.67049 0
M  V30 10194 H 991.326 1.95514 3.73299 0
M  V30 10195 H 990.05 0.856856 3.1516 0
M  V30 10196 H 988.709 2.82661 2.33449 0
M  V30 10197 H 988.357 1.93309 4.64371 0
M  V30 10198 H 988.057 3.68776 4.57469 0
M  V30 10199 H 989.581 3.07341 5.27611 0
M  V30 10200 H 990.995 4.52081 3.52555 0
M  V30 10201 H 989.392 5.16145 3.06127 0
M  V30 10202 H 990.462 4.49708 1.81359 0
M  V30 10203 N 991.805 -0.723954 1.39988 0
M  V30 10204 C 993.053 -1.48078 1.3754 0
M  V30 10205 C 993.374 -1.94985 -0.0243358 0
M  V30 10206 O 992.644 -1.69764 -0.977602 0
M  V30 10207 H 991.224 -0.549354 0.506181 0
M  V30 10208 H 993.886 -0.858746 1.74962 0
M  V30 10209 H 992.982 -2.35763 2.04505 0
M  V30 10210 N 993.283 -1.25346 -0.955304 0
M  V30 10211 C 994.529 -1.10218 -1.70235 0
M  V30 10212 C 994.862 0.356124 -1.90907 0
M  V30 10213 O 994.137 1.26253 -1.47954 0
M  V30 10214 C 994.42 -1.85627 -3.08569 0
M  V30 10215 C 994.273 -3.39281 -2.95311 0
M  V30 10216 C 995.592 -1.63886 -4.08448 0
M  V30 10217 H 992.711 -0.401781 -0.617852 0
M  V30 10218 H 995.353 -1.5417 -1.11048 0
M  V30 10219 H 993.503 -1.48269 -3.59094 0
M  V30 10220 H 995.175 -3.8631 -2.52116 0
M  V30 10221 H 993.418 -3.67027 -2.31244 0
M  V30 10222 H 994.089 -3.87258 -3.93364 0
M  V30 10223 H 996.565 -1.96406 -3.6683 0
M  V30 10224 H 995.441 -2.19087 -5.03281 0
M  V30 10225 H 995.702 -0.580021 -4.38279 0
M  V30 10226 N 994.761 1.15782 -1.06922 0
M  V30 10227 C 996.038 1.8253 -0.703 0
M  V30 10228 C 996.418 1.94733 0.814994 0
M  V30 10229 O 995.766 1.49537 1.72774 0
M  V30 10230 C 995.976 3.19145 -1.41234 0
M  V30 10231 C 997.324 3.94839 -1.56164 0
M  V30 10232 O 998.348 3.28685 -1.37277 0
M  V30 10233 O 997.207 5.13436 -1.87205 0
M  V30 10234 H 994.301 0.788425 -0.24963 0
M  V30 10235 H 996.847 1.22931 -1.16988 0
M  V30 10236 H 995.619 3.05336 -2.44715 0
M  V30 10237 H 995.242 3.86427 -0.935959 0
M  V30 10238 N 996.239 0.8527 1.3254 0
M  V30 10239 C 997.469 0.468363 2.01221 0
M  V30 10240 C 997.877 -0.938966 1.64256 0
M  V30 10241 O 997.22 -1.62387 0.858837 0
M  V30 10242 C 997.282 0.525457 3.55639 0
M  V30 10243 C 996.946 1.89133 4.16026 0
M  V30 10244 C 997.943 2.85652 4.34395 0
M  V30 10245 C 995.628 2.18795 4.52144 0
M  V30 10246 C 997.622 4.09985 4.88048 0
M  V30 10247 C 995.309 3.43381 5.05502 0
M  V30 10248 C 996.307 4.38792 5.23403 0
M  V30 10249 O 995.995 5.61173 5.75622 0
M  V30 10250 H 995.727 0.182712 0.65084 0
M  V30 10251 H 998.281 1.15076 1.70138 0
M  V30 10252 H 996.511 -0.213779 3.86109 0
M  V30 10253 H 998.2 0.156999 4.05596 0
M  V30 10254 H 998.966 2.6404 4.06827 0
M  V30 10255 H 994.845 1.45317 4.37498 0
M  V30 10256 H 998.389 4.84465 5.01936 0
M  V30 10257 H 994.286 3.64844 5.32503 0
M  V30 10258 H 995.054 5.63104 5.94017 0
M  V30 10259 N 997.718 -1.45297 0.610449 0
M  V30 10260 C 998.665 -2.30553 -0.106718 0
M  V30 10261 C 999.635 -1.42272 -0.85719 0
M  V30 10262 O 1000.82 -1.71199 -0.842357 0
M  V30 10263 C 997.96 -3.27226 -1.09623 0
M  V30 10264 C 997.073 -4.3061 -0.346329 0
M  V30 10265 C 996.208 -5.14389 -1.32581 0
M  V30 10266 C 995.247 -6.09497 -0.563892 0
M  V30 10267 N 994.384 -6.86047 -1.4928 0
M  V30 10268 H 999.224 -2.91344 0.626296 0
M  V30 10269 H 996.761 -1.43563 0.32065 0
M  V30 10270 H 998.719 -3.81744 -1.68308 0
M  V30 10271 H 997.349 -2.68182 -1.79662 0
M  V30 10272 H 996.401 -3.7873 0.356084 0
M  V30 10273 H 997.713 -4.98183 0.248026 0
M  V30 10274 H 996.867 -5.73321 -1.98464 0
M  V30 10275 H 995.606 -4.4684 -1.9541 0
M  V30 10276 H 994.611 -5.49693 0.108551 0
M  V30 10277 H 995.836 -6.79074 0.0593872 0
M  V30 10278 H 993.782 -6.21185 -2.10868 0
M  V30 10279 H 993.699 -7.49983 -0.951953 0
M  V30 10280 H 994.967 -7.49518 -2.14112 0
M  V30 10281 N 999.196 -0.349774 -1.5367 0
M  V30 10282 C 1000.61 0.132815 -1.86227 0
M  V30 10283 C 1000.96 1.49479 -1.27084 0
M  V30 10284 O 1000.08 2.08292 -0.58679 0
M  V30 10285 C 1000.68 0.247775 -3.37893 0
M  V30 10286 C 999.237 0.674603 -3.70305 0
M  V30 10287 C 998.384 -0.187869 -2.76663 0
M  V30 10288 H 1001.33 -0.569148 -1.48143 0
M  V30 10289 H 1001.36 1.07418 -3.65023 0
M  V30 10290 H 1000.87 -0.743635 -3.80909 0
M  V30 10291 H 998.969 1.67481 -3.32837 0
M  V30 10292 H 999.082 0.460177 -4.76885 0
M  V30 10293 H 997.446 0.340779 -2.5241 0
M  V30 10294 H 998.229 -1.17653 -3.2251 0
M  V30 10295 N 1000.67 1.57404 -0.0785433 0
M  V30 10296 C 1001.92 1.93361 0.58786 0
M  V30 10297 C 1002.24 0.959856 1.6974 0
M  V30 10298 O 1001.51 0.0091173 1.95898 0
M  V30 10299 H 1000.09 0.713825 0.220141 0
M  V30 10300 H 1002.75 1.94411 -0.137986 0
M  V30 10301 H 1001.85 2.95346 1.00881 0
M  V30 10302 N 1002.15 -0.195058 1.56388 0
M  V30 10303 C 1003.1 -1.26122 1.95438 0
M  V30 10304 C 1004.09 -1.47117 0.839818 0
M  V30 10305 O 1005.3 -1.47978 1.02482 0
M  V30 10306 H 1001.67 -0.423422 0.621464 0
M  V30 10307 H 1003.65 -0.904854 2.8435 0
M  V30 10308 C 1002.39 -2.59858 2.31017 0
M  V30 10309 H 1001.72 -2.44519 3.16308 0
M  V30 10310 H 1003.16 -3.33205 2.62203 0
M  V30 10311 C 1001.62 -3.16853 1.14481 0
M  V30 10312 O 1002.15 -3.995 0.419853 0
M  V30 10313 N 1000.35 -2.75599 0.921604 0
M  V30 10314 H 999.9 -2.08495 1.51287 0
M  V30 10315 H 999.858 -3.14072 0.143663 0
M  V30 10316 N 1003.63 -1.50653 -0.462772 0
M  V30 10317 C 1004.88 -1.63264 -1.21311 0
M  V30 10318 C 1005.23 -0.332647 -1.89503 0
M  V30 10319 O 1004.52 0.669994 -1.79504 0
M  V30 10320 C 1004.72 -2.75637 -2.27507 0
M  V30 10321 C 1004.55 -4.16438 -1.69734 0
M  V30 10322 C 1003.32 -4.82727 -1.49341 0
M  V30 10323 C 1005.51 -5.00399 -1.18765 0
M  V30 10324 N 1003.5 -6.07718 -0.868991 0
M  V30 10325 C 1004.87 -6.16182 -0.68697 0
M  V30 10326 C 1006.92 -4.86112 -1.07699 0
M  V30 10327 C 1005.63 -7.19248 -0.0865268 0
M  V30 10328 C 1007.65 -5.89363 -0.490473 0
M  V30 10329 C 1007.01 -7.044 -0.000208479 0
M  V30 10330 H 1003.11 -0.651518 -0.432491 0
M  V30 10331 H 1005.7 -1.878 -0.51375 0
M  V30 10332 H 1003.87 -2.52809 -2.9486 0
M  V30 10333 H 1005.6 -2.77562 -2.94519 0
M  V30 10334 H 1002.35 -4.40161 -1.74801 0
M  V30 10335 H 1002.78 -6.74554 -0.574957 0
M  V30 10336 H 1007.42 -3.97452 -1.44194 0
M  V30 10337 H 1005.14 -8.07577 0.290614 0
M  V30 10338 H 1008.72 -5.80374 -0.407099 0
M  V30 10339 H 1007.6 -7.82928 0.44652 0
M  V30 10340 N 1005.11 0.71652 -1.4037 0
M  V30 10341 C 1006.34 1.50563 -1.4191 0
M  V30 10342 C 1006.75 1.88791 -0.0185456 0
M  V30 10343 O 1006.11 1.55378 0.957289 0
M  V30 10344 C 1006.16 2.78155 -2.30894 0
M  V30 10345 O 1005.88 2.41543 -3.65497 0
M  V30 10346 C 1007.38 3.72057 -2.41016 0
M  V30 10347 H 1004.6 0.464679 -0.48406 0
M  V30 10348 H 1007.15 0.883927 -1.8441 0
M  V30 10349 H 1005.3 3.36611 -1.91759 0
M  V30 10350 H 1005.71 3.23636 -4.12747 0
M  V30 10351 H 1007.19 4.58426 -3.07489 0
M  V30 10352 H 1007.67 4.15098 -1.43492 0
M  V30 10353 H 1008.27 3.19512 -2.80699 0
M  V30 10354 N 1006.59 1.25851 0.948643 0
M  V30 10355 C 1007.83 1.10954 1.69397 0
M  V30 10356 C 1008.16 -0.348443 1.91353 0
M  V30 10357 O 1007.42 -1.27285 1.48651 0
M  V30 10358 C 1007.72 1.81565 3.07846 0
M  V30 10359 C 1007.38 3.31477 3.0567 0
M  V30 10360 C 1006.04 3.72371 3.04784 0
M  V30 10361 C 1008.4 4.27225 2.98543 0
M  V30 10362 C 1005.72 5.07416 2.94527 0
M  V30 10363 C 1008.08 5.62301 2.89828 0
M  V30 10364 C 1006.74 6.02516 2.87281 0
M  V30 10365 H 1006.01 0.406011 0.619868 0
M  V30 10366 H 1008.66 1.562 1.10787 0
M  V30 10367 H 1006.96 1.28767 3.70035 0
M  V30 10368 H 1008.66 1.67486 3.64348 0
M  V30 10369 H 1005.25 2.98941 3.07135 0
M  V30 10370 H 1009.43 3.96618 2.98342 0
M  V30 10371 H 1004.69 5.37746 2.90928 0
M  V30 10372 H 1008.86 6.36182 2.83276 0
M  V30 10373 H 1006.49 7.07116 2.79089 0
M  V30 10374 N 1008.06 -1.15214 1.07534 0
M  V30 10375 C 1009.01 -2.22078 0.69168 0
M  V30 10376 C 1010.01 -1.66751 -0.298382 0
M  V30 10377 O 1011.21 -1.7927 -0.161897 0
M  V30 10378 H 1007.59 -0.723347 0.205604 0
M  V30 10379 H 1009.56 -2.51716 1.60256 0
M  V30 10380 C 1008.31 -3.47534 0.107546 0
M  V30 10381 H 1007.63 -3.90429 0.860522 0
M  V30 10382 H 1009.07 -4.23821 -0.123215 0
M  V30 10383 C 1007.53 -3.16583 -1.15226 0
M  V30 10384 O 1008.06 -3.33551 -2.23845 0
M  V30 10385 N 1006.27 -2.70611 -1.05915 0
M  V30 10386 H 1005.81 -2.57004 -0.175198 0
M  V30 10387 H 1005.77 -2.50277 -1.90287 0
M  V30 10388 N 1009.54 -0.859717 -1.32086 0
M  V30 10389 C 1010.47 -0.323502 -2.31248 0
M  V30 10390 C 1011.45 0.580085 -1.59903 0
M  V30 10391 O 1012.64 0.499265 -1.87673 0
M  V30 10392 C 1009.77 0.484661 -3.43902 0
M  V30 10393 C 1008.72 -0.324933 -4.26765 0
M  V30 10394 C 1008.05 0.608281 -5.31229 0
M  V30 10395 C 1009.35 -1.55344 -4.98664 0
M  V30 10396 H 1011.04 -1.15209 -2.76346 0
M  V30 10397 H 1008.59 -0.555442 -1.32856 0
M  V30 10398 H 1010.54 0.870238 -4.12316 0
M  V30 10399 H 1009.27 1.34666 -2.97544 0
M  V30 10400 H 1007.92 -0.692328 -3.60003 0
M  V30 10401 H 1007.57 1.46727 -4.81124 0
M  V30 10402 H 1007.27 0.0705571 -5.87558 0
M  V30 10403 H 1008.8 0.990925 -6.02506 0
M  V30 10404 H 1010.21 -1.23987 -5.59732 0
M  V30 10405 H 1008.61 -2.02947 -5.64741 0
M  V30 10406 H 1009.68 -2.31192 -4.26237 0
M  V30 10407 N 1011.02 1.44971 -0.618145 0
M  V30 10408 C 1011.97 2.32354 0.106846 0
M  V30 10409 C 1012.96 1.4659 0.848984 0
M  V30 10410 O 1014.17 1.63012 0.763354 0
M  V30 10411 H 1010.54 0.750108 0.0533109 0
M  V30 10412 H 1012.51 2.9127 -0.648426 0
M  V30 10413 C 1011.26 3.30381 1.08368 0
M  V30 10414 H 1010.59 3.96377 0.52205 0
M  V30 10415 H 1012.03 3.94231 1.56069 0
M  V30 10416 C 1010.49 2.58336 2.1625 0
M  V30 10417 O 1011.02 2.37258 3.24148 0
M  V30 10418 N 1009.22 2.18292 1.91825 0
M  V30 10419 H 1008.77 2.35635 1.04086 0
M  V30 10420 H 1008.73 1.70413 2.6421 0
M  V30 10421 N 1012.5 0.357919 1.53482 0
M  V30 10422 C 1013.72 -0.237769 2.06033 0
M  V30 10423 C 1014.15 -1.42292 1.23023 0
M  V30 10424 O 1013.51 -1.79604 0.247427 0
M  V30 10425 C 1013.55 -0.616806 3.55286 0
M  V30 10426 O 1012.66 -1.71503 3.75047 0
M  V30 10427 H 1012 -0.0364322 0.663 0
M  V30 10428 H 1014.53 0.516301 1.97979 0
M  V30 10429 H 1014.54 -0.88996 3.98175 0
M  V30 10430 H 1013.21 0.249825 4.15149 0
M  V30 10431 H 1011.79 -1.43803 3.44057 0
M  V30 10432 N 1013.98 -1.5736 0.0868897 0
M  V30 10433 C 1015.25 -1.85495 -0.620561 0
M  V30 10434 C 1015.63 -0.982218 -1.86857 0
M  V30 10435 O 1014.98 -0.0524529 -2.2844 0
M  V30 10436 C 1015.19 -3.35996 -0.943798 0
M  V30 10437 C 1016.54 -4.03861 -1.31079 0
M  V30 10438 O 1017.56 -3.4083 -1.03507 0
M  V30 10439 O 1016.42 -5.15062 -1.82683 0
M  V30 10440 H 1013.52 -0.766822 -0.309697 0
M  V30 10441 H 1016.06 -1.69282 0.118966 0
M  V30 10442 H 1014.83 -3.91257 -0.0580628 0
M  V30 10443 H 1014.46 -3.57525 -1.73958 0
M  V30 10444 N 1015.45 0.186762 -1.56489 0
M  V30 10445 C 1016.7 0.905852 -1.81109 0
M  V30 10446 C 1017.03 1.82906 -0.661477 0
M  V30 10447 O 1016.28 1.92504 0.35226 0
M  V30 10448 C 1016.58 1.74719 -3.11782 0
M  V30 10449 C 1016.25 0.974238 -4.40249 0
M  V30 10450 C 1014.91 0.760856 -4.75147 0
M  V30 10451 C 1017.26 0.430971 -5.19415 0
M  V30 10452 C 1014.59 -0.00714216 -5.867 0
M  V30 10453 C 1016.94 -0.323859 -6.3177 0
M  V30 10454 C 1015.61 -0.548183 -6.65245 0
M  V30 10455 H 1014.88 0.331475 -0.662726 0
M  V30 10456 H 1017.52 0.171703 -1.90729 0
M  V30 10457 H 1015.83 2.55027 -2.97437 0
M  V30 10458 H 1017.53 2.30634 -3.28038 0
M  V30 10459 H 1014.12 1.15057 -4.12868 0
M  V30 10460 H 1018.3 0.583205 -4.92861 0
M  V30 10461 H 1013.56 -0.190832 -6.11102 0
M  V30 10462 H 1017.73 -0.752155 -6.92326 0
M  V30 10463 H 1015.36 -1.14518 -7.51525 0
M  V30 10464 N 1016.93 1.50896 0.454776 0
M  V30 10465 C 1017.86 1.6712 1.56855 0
M  V30 10466 C 1018.88 0.552223 1.53148 0
M  V30 10467 O 1020.07 0.825969 1.5824 0
M  V30 10468 C 1017.17 1.65464 2.95762 0
M  V30 10469 C 1016.34 2.93662 3.24163 0
M  V30 10470 C 1015.4 2.84428 4.42704 0
M  V30 10471 O 1014.42 3.58382 4.42211 0
M  V30 10472 N 1015.63 1.9909 5.45292 0
M  V30 10473 H 1018.39 2.63194 1.43349 0
M  V30 10474 H 1015.95 1.48564 0.643457 0
M  V30 10475 H 1017.94 1.56878 3.73057 0
M  V30 10476 H 1016.51 0.770568 3.02954 0
M  V30 10477 H 1015.73 3.16251 2.35328 0
M  V30 10478 H 1017.02 3.78558 3.39957 0
M  V30 10479 H 1016.42 1.3835 5.48521 0
M  V30 10480 H 1014.98 1.96396 6.21508 0
M  V30 10481 N 1018.41 -0.709066 1.40748 0
M  V30 10482 C 1019.64 -1.50313 1.42901 0
M  V30 10483 C 1020.06 -1.88072 0.032213 0
M  V30 10484 O 1019.42 -1.53716 -0.96131 0
M  V30 10485 C 1019.47 -2.75074 2.33166 0
M  V30 10486 O 1018.57 -3.72036 1.7794 0
M  V30 10487 H 1017.91 -0.452934 0.485538 0
M  V30 10488 H 1020.44 -0.872712 1.85054 0
M  V30 10489 H 1020.45 -3.23532 2.48578 0
M  V30 10490 H 1019.13 -2.46927 3.34664 0
M  V30 10491 H 1017.7 -3.30911 1.71908 0
M  V30 10492 N 1019.89 -1.26353 -0.941956 0
M  V30 10493 C 1021.11 -1.14731 -1.72776 0
M  V30 10494 C 1021.54 0.293766 -1.85792 0
M  V30 10495 O 1020.9 1.21284 -1.34759 0
M  V30 10496 C 1020.95 -1.82041 -3.11277 0
M  V30 10497 O 1020.05 -1.10867 -3.97218 0
M  V30 10498 H 1019.39 -0.399823 -0.53013 0
M  V30 10499 H 1021.92 -1.67157 -1.17981 0
M  V30 10500 H 1021.93 -1.88834 -3.61671 0
M  V30 10501 H 1020.61 -2.86879 -3.0112 0
M  V30 10502 H 1019.18 -1.12044 -3.55669 0
M  V30 10503 N 1021.37 1.14642 -1.08144 0
M  V30 10504 C 1022.3 2.19283 -0.6669 0
M  V30 10505 C 1023.31 1.60292 0.284668 0
M  V30 10506 O 1024.5 1.78352 0.0727383 0
M  V30 10507 C 1021.6 3.38877 0.0398572 0
M  V30 10508 C 1020.77 4.274 -0.929929 0
M  V30 10509 C 1019.83 5.25562 -0.258991 0
M  V30 10510 O 1018.86 5.61999 -0.902563 0
M  V30 10511 N 1020.06 5.71958 0.992177 0
M  V30 10512 H 1022.83 2.55464 -1.5671 0
M  V30 10513 H 1020.39 1.29836 -0.96717 0
M  V30 10514 H 1022.38 4.01605 0.499583 0
M  V30 10515 H 1020.95 3.01043 0.842118 0
M  V30 10516 H 1020.17 3.61649 -1.56857 0
M  V30 10517 H 1021.46 4.83411 -1.58717 0
M  V30 10518 H 1020.86 5.44481 1.53484 0
M  V30 10519 H 1019.41 6.36687 1.39544 0
M  V30 10520 N 1022.85 0.866709 1.31628 0
M  V30 10521 C 1024.09 0.476026 1.96825 0
M  V30 10522 C 1024.42 -0.970994 1.68529 0
M  V30 10523 O 1023.68 -1.69823 0.97255 0
M  V30 10524 C 1023.97 0.676018 3.50948 0
M  V30 10525 C 1023.64 2.09533 3.99258 0
M  V30 10526 C 1022.3 2.48349 4.1216 0
M  V30 10527 C 1024.65 3.02112 4.24709 0
M  V30 10528 C 1021.98 3.78991 4.47864 0
M  V30 10529 C 1024.33 4.32266 4.61875 0
M  V30 10530 C 1023 4.71 4.72985 0
M  V30 10531 H 1022.27 0.17419 0.720235 0
M  V30 10532 H 1024.92 1.09907 1.5682 0
M  V30 10533 H 1023.22 -0.0301867 3.91788 0
M  V30 10534 H 1024.92 0.353604 3.99438 0
M  V30 10535 H 1021.51 1.78396 3.89709 0
M  V30 10536 H 1025.69 2.73351 4.14238 0
M  V30 10537 H 1020.95 4.08769 4.54663 0
M  V30 10538 H 1025.12 5.04055 4.80522 0
M  V30 10539 H 1022.75 5.72273 5.00407 0
M  V30 10540 N 1024.32 -1.44642 0.625825 0
M  V30 10541 C 1025.29 -2.29085 -0.072526 0
M  V30 10542 C 1026.29 -1.40755 -0.777467 0
M  V30 10543 O 1027.48 -1.62684 -0.622861 0
M  V30 10544 C 1024.61 -3.22212 -1.1132 0
M  V30 10545 H 1025.8 -2.92317 0.670124 0
M  V30 10546 H 1023.35 -1.51466 0.38571 0
M  V30 10547 H 1024.09 -2.63819 -1.88601 0
M  V30 10548 H 1023.87 -3.87299 -0.611709 0
M  V30 10549 H 1025.36 -3.8566 -1.60175 0
M  V30 10550 N 1025.8 -0.366053 -1.5329 0
M  V30 10551 C 1027.08 0.279902 -1.93587 0
M  V30 10552 C 1027.46 1.66352 -1.29963 0
M  V30 10553 O 1026.81 2.23845 -0.458895 0
M  V30 10554 C 1027.02 0.329634 -3.4744 0
M  V30 10555 C 1028.36 0.569754 -4.2076 0
M  V30 10556 O 1029.39 0.410823 -3.53823 0
M  V30 10557 O 1028.25 0.879262 -5.3938 0
M  V30 10558 H 1025.34 0.16802 -0.809752 0
M  V30 10559 H 1027.89 -0.418871 -1.64449 0
M  V30 10560 H 1026.66 -0.640434 -3.86023 0
M  V30 10561 H 1026.28 1.07428 -3.82812 0
M  V30 10562 N 1027.28 1.57312 -0.0952337 0
M  V30 10563 C 1028.23 2.15263 0.881167 0
M  V30 10564 C 1029.22 1.09552 1.29208 0
M  V30 10565 O 1030.43 1.27897 1.26659 0
M  V30 10566 H 1026.8 0.688611 0.302191 0
M  V30 10567 H 1028.77 2.96126 0.367694 0
M  V30 10568 C 1027.52 2.74779 2.13053 0
M  V30 10569 H 1026.85 3.55807 1.82323 0
M  V30 10570 H 1028.29 3.18895 2.79431 0
M  V30 10571 C 1026.74 1.7068 2.90465 0
M  V30 10572 O 1027.27 1.14582 3.85011 0
M  V30 10573 N 1025.48 1.41169 2.54007 0
M  V30 10574 H 1025.03 1.86977 1.77193 0
M  V30 10575 H 1024.99 0.717559 3.06102 0
M  V30 10576 N 1028.76 -0.17846 1.56586 0
M  V30 10577 C 1029.72 -1.20479 1.94981 0
M  V30 10578 C 1030.72 -1.37561 0.832677 0
M  V30 10579 O 1031.91 -1.35089 1.09984 0
M  V30 10580 C 1029.04 -2.57117 2.23839 0
M  V30 10581 H 1030.24 -0.876173 2.86816 0
M  V30 10582 H 1027.79 -0.420635 1.50534 0
M  V30 10583 H 1028.52 -2.95005 1.34695 0
M  V30 10584 H 1028.31 -2.46086 3.05261 0
M  V30 10585 H 1029.8 -3.31096 2.5449 0
M  V30 10586 N 1030.24 -1.51135 -0.446768 0
M  V30 10587 C 1031.18 -1.72328 -1.56224 0
M  V30 10588 C 1032.18 -0.589411 -1.58815 0
M  V30 10589 O 1033.38 -0.770554 -1.62673 0
M  V30 10590 H 1029.76 -0.544339 -0.518844 0
M  V30 10591 H 1031.73 -2.65851 -1.3552 0
M  V30 10592 C 1030.48 -1.85686 -2.93966 0
M  V30 10593 H 1029.8 -2.72336 -2.927 0
M  V30 10594 H 1031.24 -2.0453 -3.71407 0
M  V30 10595 C 1029.7 -0.614328 -3.31252 0
M  V30 10596 O 1030.23 0.235369 -4.0101 0
M  V30 10597 N 1028.44 -0.461181 -2.86917 0
M  V30 10598 H 1027.98 -1.15369 -2.30321 0
M  V30 10599 H 1027.94 0.368966 -3.12227 0
M  V30 10600 N 1031.71 0.701592 -1.41122 0
M  V30 10601 C 1032.94 1.49049 -1.43499 0
M  V30 10602 C 1033.36 1.88761 -0.0385684 0
M  V30 10603 O 1032.71 1.56384 0.940755 0
M  V30 10604 C 1032.76 2.7569 -2.33832 0
M  V30 10605 O 1032.49 2.37653 -3.68039 0
M  V30 10606 C 1033.99 3.69479 -2.44949 0
M  V30 10607 H 1031.21 0.459519 -0.488961 0
M  V30 10608 H 1033.75 0.864318 -1.85337 0
M  V30 10609 H 1031.91 3.34559 -1.95318 0
M  V30 10610 H 1032.32 3.19241 -4.16156 0
M  V30 10611 H 1033.79 4.55139 -3.12334 0
M  V30 10612 H 1034.27 4.13553 -1.47887 0
M  V30 10613 H 1034.88 3.16517 -2.84072 0
M  V30 10614 N 1033.19 1.2685 0.935242 0
M  V30 10615 C 1034.44 1.12912 1.6846 0
M  V30 10616 C 1034.77 -0.325708 1.91449 0
M  V30 10617 O 1034.05 -1.23884 1.49944 0
M  V30 10618 C 1034.33 1.90513 3.05576 0
M  V30 10619 C 1034.18 3.43936 2.89876 0
M  V30 10620 C 1035.5 1.70363 4.05789 0
M  V30 10621 H 1032.62 0.411559 0.611382 0
M  V30 10622 H 1035.26 1.55917 1.08582 0
M  V30 10623 H 1033.41 1.53963 3.5669 0
M  V30 10624 H 1035.08 3.90272 2.45939 0
M  V30 10625 H 1033.33 3.70659 2.25376 0
M  V30 10626 H 1034 3.93467 3.87153 0
M  V30 10627 H 1036.47 2.02217 3.63659 0
M  V30 10628 H 1035.35 2.27066 4.99732 0
M  V30 10629 H 1035.61 0.649674 4.373 0
M  V30 10630 N 1034.67 -1.14067 1.0875 0
M  V30 10631 C 1035.62 -2.19261 0.720633 0
M  V30 10632 C 1036.59 -1.63462 -0.294847 0
M  V30 10633 O 1037.77 -1.89967 -0.178058 0
M  V30 10634 C 1034.91 -3.44816 0.139873 0
M  V30 10635 C 1034.03 -4.1475 1.20856 0
M  V30 10636 C 1033.16 -5.27899 0.591285 0
M  V30 10637 C 1032.2 -5.89672 1.64176 0
M  V30 10638 N 1031.34 -6.94264 1.04603 0
M  V30 10639 H 1036.18 -2.49991 1.62198 0
M  V30 10640 H 1033.71 -1.22757 0.810497 0
M  V30 10641 H 1035.67 -4.16648 -0.214587 0
M  V30 10642 H 1034.3 -3.14558 -0.724774 0
M  V30 10643 H 1033.35 -3.41272 1.6804 0
M  V30 10644 H 1034.67 -4.56753 2.00446 0
M  V30 10645 H 1033.82 -6.06417 0.185271 0
M  V30 10646 H 1032.56 -4.87128 -0.236236 0
M  V30 10647 H 1031.56 -5.09854 2.05739 0
M  V30 10648 H 1032.79 -6.32517 2.47182 0
M  V30 10649 H 1030.73 -6.55562 0.239664 0
M  V30 10650 H 1030.65 -7.34771 1.77898 0
M  V30 10651 H 1031.92 -7.7665 0.665989 0
M  V30 10652 N 1036.15 -0.873678 -1.31166 0
M  V30 10653 C 1037.06 -0.335726 -2.32185 0
M  V30 10654 C 1038.07 0.556259 -1.64869 0
M  V30 10655 O 1039.25 0.452087 -1.9626 0
M  V30 10656 C 1036.32 0.450822 -3.43756 0
M  V30 10657 C 1035.38 -0.469565 -4.26724 0
M  V30 10658 C 1034.61 0.279538 -5.32967 0
M  V30 10659 O 1034.83 1.50715 -5.50128 0
M  V30 10660 O 1033.77 -0.36452 -6.00795 0
M  V30 10661 H 1037.59 -1.17314 -2.80127 0
M  V30 10662 H 1035.18 -0.637163 -1.35132 0
M  V30 10663 H 1037.06 0.896582 -4.11752 0
M  V30 10664 H 1035.73 1.26472 -2.9797 0
M  V30 10665 H 1034.64 -0.963902 -3.61469 0
M  V30 10666 H 1035.97 -1.24916 -4.76085 0
M  V30 10667 N 1037.63 1.44308 -0.633487 0
M  V30 10668 C 1038.85 2.06897 -0.144347 0
M  V30 10669 C 1039.28 1.47045 1.173 0
M  V30 10670 O 1038.63 0.572806 1.72013 0
M  V30 10671 C 1038.68 3.60571 -0.0456324 0
M  V30 10672 O 1037.79 4.0015 0.997682 0
M  V30 10673 H 1037.13 0.658427 -0.0858499 0
M  V30 10674 H 1039.66 1.85142 -0.870833 0
M  V30 10675 H 1039.67 4.07745 0.144178 0
M  V30 10676 H 1038.34 4.03515 -1.0074 0
M  V30 10677 H 1036.92 3.64603 0.782252 0
M  V30 10678 N 1039.1 0.374177 1.53094 0
M  V30 10679 C 1040.07 -0.455999 2.24618 0
M  V30 10680 C 1041.07 -1.00269 1.25709 0
M  V30 10681 O 1042.26 -0.887077 1.49922 0
M  V30 10682 C 1039.39 -1.63822 2.98957 0
M  V30 10683 H 1040.58 0.169986 2.99418 0
M  V30 10684 H 1038.14 0.126015 1.55791 0
M  V30 10685 H 1038.87 -2.30205 2.28421 0
M  V30 10686 H 1038.66 -1.25308 3.71538 0
M  V30 10687 H 1040.15 -2.22633 3.53305 0
M  V30 10688 N 1040.58 -1.57259 0.103575 0
M  V30 10689 C 1041.86 -1.86143 -0.600852 0
M  V30 10690 C 1042.24 -1.00198 -1.85805 0
M  V30 10691 O 1041.59 -0.0766791 -2.28371 0
M  V30 10692 C 1041.8 -3.36978 -0.908108 0
M  V30 10693 C 1043.15 -4.05228 -1.26788 0
M  V30 10694 O 1044.17 -3.41908 -0.998859 0
M  V30 10695 O 1043.03 -5.16971 -1.7721 0
M  V30 10696 H 1040.12 -0.770064 -0.301547 0
M  V30 10697 H 1042.67 -1.69147 0.136914 0
M  V30 10698 H 1041.44 -3.91296 -0.0165615 0
M  V30 10699 H 1041.06 -3.5935 -1.70156 0
M  V30 10700 N 1042.06 0.170153 -1.56679 0
M  V30 10701 C 1043.31 0.884841 -1.817 0
M  V30 10702 C 1043.63 1.82731 -0.680763 0
M  V30 10703 O 1042.9 1.936 0.299294 0
M  V30 10704 H 1041.48 0.329738 -0.670285 0
M  V30 10705 H 1044.14 0.169691 -1.9416 0
M  V30 10706 H 1043.24 1.46104 -2.7579 0
M  V30 10707 N 1043.54 1.5137 0.438746 0
M  V30 10708 C 1044.76 1.68058 1.21537 0
M  V30 10709 C 1045.19 0.376787 1.84288 0
M  V30 10710 O 1044.55 -0.662911 1.68746 0
M  V30 10711 C 1044.59 2.79684 2.27616 0
M  V30 10712 O 1043.7 2.43189 3.33066 0
M  V30 10713 H 1043.04 0.560408 0.356144 0
M  V30 10714 H 1045.57 1.97926 0.518311 0
M  V30 10715 H 1045.58 3.03726 2.72423 0
M  V30 10716 H 1044.25 3.74293 1.81321 0
M  V30 10717 H 1042.83 2.29713 2.93746 0
M  V30 10718 N 1045.02 -0.694098 1.41492 0
M  V30 10719 C 1046.24 -1.48286 1.44288 0
M  V30 10720 C 1046.66 -1.88737 0.0485783 0
M  V30 10721 O 1046.02 -1.56881 -0.932449 0
M  V30 10722 C 1046.07 -2.74446 2.3529 0
M  V30 10723 O 1045.79 -2.35698 3.69294 0
M  V30 10724 C 1047.29 -3.68175 2.46905 0
M  V30 10725 H 1044.51 -0.45692 0.491391 0
M  V30 10726 H 1047.05 -0.854477 1.85793 0
M  V30 10727 H 1045.21 -3.33518 1.9709 0
M  V30 10728 H 1045.62 -3.17029 4.17843 0
M  V30 10729 H 1047.1 -4.53476 3.14743 0
M  V30 10730 H 1047.57 -4.12763 1.50078 0
M  V30 10731 H 1048.18 -3.15006 2.85747 0
M  V30 10732 N 1046.49 -1.27344 -0.928501 0
M  V30 10733 C 1047.74 -1.13411 -1.67279 0
M  V30 10734 C 1048.06 0.320698 -1.92345 0
M  V30 10735 O 1047.33 1.2245 -1.52915 0
M  V30 10736 H 1045.91 -0.416712 -0.619968 0
M  V30 10737 H 1048.58 -1.5986 -1.11493 0
M  V30 10738 H 1047.67 -1.66256 -2.64131 0
M  V30 10739 N 1047.97 1.13488 -1.09353 0
M  V30 10740 C 1049.39 1.36739 -0.823086 0
M  V30 10741 C 1049.59 1.93476 0.562963 0
M  V30 10742 O 1048.64 2.15374 1.31796 0
M  V30 10743 C 1049.96 2.31943 -1.91371 0
M  V30 10744 C 1051.51 2.4556 -1.94085 0
M  V30 10745 C 1051.98 3.44072 -3.02289 0
M  V30 10746 N 1053.47 3.51622 -3.01524 0
M  V30 10747 C 1054.21 4.27724 -3.8189 0
M  V30 10748 N 1053.7 5.06987 -4.72161 0
M  V30 10749 N 1055.5 4.23018 -3.70152 0
M  V30 10750 H 1047.65 0.75012 -1.98713 0
M  V30 10751 H 1049.91 0.392564 -0.862901 0
M  V30 10752 H 1049.62 1.97408 -2.91072 0
M  V30 10753 H 1049.49 3.31952 -1.79131 0
M  V30 10754 H 1051.88 2.79382 -0.950234 0
M  V30 10755 H 1051.96 1.45479 -2.10403 0
M  V30 10756 H 1051.6 3.10981 -4.01564 0
M  V30 10757 H 1051.53 4.43956 -2.83214 0
M  V30 10758 H 1054.02 2.95066 -2.36103 0
M  V30 10759 H 1054.34 5.6236 -5.30067 0
M  V30 10760 H 1052.68 5.06222 -4.76197 0
M  V30 10761 H 1055.87 3.60171 -2.98989 0
M  V30 10762 H 1056.04 4.82075 -4.33022 0
M  V30 10763 N 1049.45 0.880621 1.30701 0
M  V30 10764 C 1050.7 0.492957 1.95583 0
M  V30 10765 C 1051.01 -0.961863 1.70316 0
M  V30 10766 O 1052.22 -1.45617 2.29146 0
M  V30 10767 C 1050.68 0.830656 3.50183 0
M  V30 10768 C 1050.28 2.30295 3.84276 0
M  V30 10769 C 1052.03 0.511979 4.21401 0
M  V30 10770 C 1049.93 2.58251 5.32034 0
M  V30 10771 H 1048.86 0.18062 0.732047 0
M  V30 10772 H 1051.52 1.075 1.48715 0
M  V30 10773 H 1049.9 0.177752 3.95601 0
M  V30 10774 H 1051.07 2.99981 3.49783 0
M  V30 10775 H 1049.39 2.58873 3.2615 0
M  V30 10776 H 1051.98 0.697935 5.30125 0
M  V30 10777 H 1052.33 -0.548327 4.12673 0
M  V30 10778 H 1052.86 1.12189 3.81652 0
M  V30 10779 H 1049.6 3.63005 5.45809 0
M  V30 10780 H 1049.12 1.9317 5.67843 0
M  V30 10781 H 1050.8 2.43527 5.99419 0
M  V30 10782 N 1050.93 -1.4397 0.641131 0
M  V30 10783 C 1052.34 -1.85267 0.230838 0
M  V30 10784 C 1052.69 -1.53659 -1.21998 0
M  V30 10785 O 1051.82 -0.979572 -1.92959 0
M  V30 10786 C 1052.41 -3.36284 0.412171 0
M  V30 10787 C 1050.97 -3.76358 0.0563004 0
M  V30 10788 C 1050.12 -2.67768 0.720809 0
M  V30 10789 H 1053.07 -1.34294 0.845624 0
M  V30 10790 H 1053.09 -3.78924 -0.345936 0
M  V30 10791 H 1052.6 -3.59258 1.46818 0
M  V30 10792 H 1050.7 -3.58997 -0.997582 0
M  V30 10793 H 1050.82 -4.76756 0.473335 0
M  V30 10794 H 1049.18 -2.54227 0.155164 0
M  V30 10795 H 1049.96 -2.93573 1.77961 0
M  V30 10796 N 1052.41 -0.382291 -1.52893 0
M  V30 10797 C 1053.66 0.201734 -2.01091 0
M  V30 10798 C 1053.98 1.47905 -1.2708 0
M  V30 10799 O 1053.25 1.92002 -0.38883 0
M  V30 10800 H 1051.83 0.0775373 -0.742965 0
M  V30 10801 H 1054.49 -0.512369 -1.88045 0
M  V30 10802 H 1053.58 0.416919 -3.09303 0
M  V30 10803 N 1053.89 1.57202 -0.111913 0
M  V30 10804 C 1055.13 1.9495 0.547795 0
M  V30 10805 C 1055.46 0.994763 1.67137 0
M  V30 10806 O 1054.72 0.0173528 1.95692 0
M  V30 10807 C 1055.01 3.39152 1.12741 0
M  V30 10808 C 1054.68 4.50724 0.125916 0
M  V30 10809 C 1053.34 4.80968 -0.149489 0
M  V30 10810 C 1055.69 5.18215 -0.556987 0
M  V30 10811 C 1053.02 5.76023 -1.1142 0
M  V30 10812 C 1055.37 6.14307 -1.51029 0
M  V30 10813 C 1054.04 6.42947 -1.79375 0
M  V30 10814 H 1053.31 0.713372 0.200453 0
M  V30 10815 H 1055.96 1.90542 -0.191316 0
M  V30 10816 H 1054.26 3.4022 1.94313 0
M  V30 10817 H 1055.96 3.65668 1.64584 0
M  V30 10818 H 1052.55 4.27162 0.350756 0
M  V30 10819 H 1056.73 4.95012 -0.357378 0
M  V30 10820 H 1051.99 5.9652 -1.34064 0
M  V30 10821 H 1056.16 6.65692 -2.04516 0
M  V30 10822 H 1053.79 7.1641 -2.54284 0
M  V30 10823 N 1055.36 -0.161842 1.56767 0
M  V30 10824 C 1056.3 -1.22927 1.9226 0
M  V30 10825 C 1057.27 -1.42309 0.786562 0
M  V30 10826 O 1058.46 -1.57163 1.04078 0
M  V30 10827 C 1055.59 -2.59069 2.18177 0
M  V30 10828 C 1054.63 -2.56368 3.40849 0
M  V30 10829 S 1055.46 -2.04518 4.94907 0
M  V30 10830 C 1056.62 -3.42418 5.23928 0
M  V30 10831 H 1056.85 -0.926377 2.82499 0
M  V30 10832 H 1054.39 -0.366822 1.49979 0
M  V30 10833 H 1056.34 -3.37421 2.33789 0
M  V30 10834 H 1055.01 -2.86554 1.28629 0
M  V30 10835 H 1054.2 -3.56551 3.56213 0
M  V30 10836 H 1053.8 -1.86116 3.24402 0
M  V30 10837 H 1056.09 -4.38461 5.16486 0
M  V30 10838 H 1057.04 -3.3192 6.25487 0
M  V30 10839 H 1057.44 -3.38868 4.51474 0
M  V30 10840 N 1056.84 -1.516 -0.430713 0
M  V30 10841 C 1057.77 -1.76342 -1.53054 0
M  V30 10842 C 1058.75 -0.61349 -1.58652 0
M  V30 10843 O 1059.94 -0.856888 -1.74273 0
M  V30 10844 C 1057.07 -1.8945 -2.91077 0
M  V30 10845 C 1056.02 -3.04928 -3.00339 0
M  V30 10846 C 1055.35 -3.03228 -4.40405 0
M  V30 10847 C 1056.65 -4.44777 -2.73808 0
M  V30 10848 H 1058.34 -2.68435 -1.326 0
M  V30 10849 H 1055.89 -1.29171 -0.636466 0
M  V30 10850 H 1057.84 -2.05343 -3.67984 0
M  V30 10851 H 1056.56 -0.940114 -3.12777 0
M  V30 10852 H 1055.22 -2.88751 -2.25872 0
M  V30 10853 H 1054.87 -2.05553 -4.59083 0
M  V30 10854 H 1054.57 -3.80776 -4.47531 0
M  V30 10855 H 1056.1 -3.21222 -5.19277 0
M  V30 10856 H 1057.51 -4.6127 -3.40445 0
M  V30 10857 H 1055.91 -5.2408 -2.92335 0
M  V30 10858 H 1056.98 -4.54358 -1.69372 0
M  V30 10859 N 1058.32 0.686584 -1.41858 0
M  V30 10860 C 1059.57 1.44738 -1.42908 0
M  V30 10861 C 1059.92 1.92357 -0.0404705 0
M  V30 10862 O 1059.21 1.67221 0.935287 0
M  V30 10863 C 1059.41 2.66793 -2.37816 0
M  V30 10864 C 1059.24 2.31114 -3.85767 0
M  V30 10865 C 1058.01 2.21043 -4.54388 0
M  V30 10866 C 1060.2 1.93512 -4.76505 0
M  V30 10867 N 1058.19 1.78344 -5.87424 0
M  V30 10868 C 1059.56 1.61642 -5.98558 0
M  V30 10869 C 1061.61 1.80401 -4.64069 0
M  V30 10870 C 1060.32 1.17977 -7.09559 0
M  V30 10871 C 1062.34 1.38141 -5.7504 0
M  V30 10872 C 1061.7 1.07186 -6.96197 0
M  V30 10873 H 1057.8 0.526577 -0.578136 0
M  V30 10874 H 1060.39 0.793483 -1.77797 0
M  V30 10875 H 1058.56 3.29889 -2.05007 0
M  V30 10876 H 1060.29 3.33318 -2.29524 0
M  V30 10877 H 1057.04 2.39731 -4.08443 0
M  V30 10878 H 1057.47 1.59451 -6.57955 0
M  V30 10879 H 1062.11 2.02983 -3.70888 0
M  V30 10880 H 1059.83 0.941397 -8.02598 0
M  V30 10881 H 1063.41 1.28533 -5.67425 0
M  V30 10882 H 1062.29 0.749804 -7.80607 0
M  V30 10883 N 1059.8 1.27835 0.921735 0
M  V30 10884 C 1061.05 1.14296 1.66676 0
M  V30 10885 C 1061.37 -0.310493 1.92512 0
M  V30 10886 O 1060.64 -1.21637 1.53562 0
M  V30 10887 H 1059.22 0.419994 0.617749 0
M  V30 10888 H 1061.88 1.60449 1.10644 0
M  V30 10889 H 1060.97 1.67654 2.63246 0
M  V30 10890 N 1061.28 -1.12907 1.09954 0
M  V30 10891 C 1062.24 -2.16673 0.747364 0
M  V30 10892 C 1063.24 -1.59208 -0.225741 0
M  V30 10893 O 1064.43 -1.742 -0.00322482 0
M  V30 10894 C 1061.56 -3.40735 0.106169 0
M  V30 10895 H 1062.75 -2.49341 1.6664 0
M  V30 10896 H 1060.31 -1.27828 0.899421 0
M  V30 10897 H 1061.04 -3.13661 -0.82384 0
M  V30 10898 H 1060.83 -3.83717 0.806434 0
M  V30 10899 H 1062.32 -4.17414 -0.12464 0
M  V30 10900 N 1062.75 -0.88754 -1.30232 0
M  V30 10901 C 1064.17 -0.581904 -1.48614 0
M  V30 10902 C 1064.37 0.879711 -1.81282 0
M  V30 10903 O 1063.43 1.66076 -1.90198 0
M  V30 10904 C 1064.74 -1.49726 -2.60773 0
M  V30 10905 C 1066.29 -1.50117 -2.74653 0
M  V30 10906 C 1066.76 -2.40251 -3.89927 0
M  V30 10907 N 1068.25 -2.38229 -3.97242 0
M  V30 10908 C 1068.99 -3.04682 -4.85754 0
M  V30 10909 N 1068.48 -3.80369 -5.79043 0
M  V30 10910 N 1070.28 -2.93901 -4.79144 0
M  V30 10911 H 1062.43 -1.83304 -1.073 0
M  V30 10912 H 1064.69 -0.78477 -0.531826 0
M  V30 10913 H 1064.4 -2.5381 -2.43462 0
M  V30 10914 H 1064.27 -1.20874 -3.57308 0
M  V30 10915 H 1066.66 -0.467832 -2.91368 0
M  V30 10916 H 1066.74 -1.83001 -1.7873 0
M  V30 10917 H 1066.38 -3.43671 -3.73969 0
M  V30 10918 H 1066.31 -2.04682 -4.85194 0
M  V30 10919 H 1068.8 -1.83229 -3.30508 0
M  V30 10920 H 1069.12 -4.28159 -6.4335 0
M  V30 10921 H 1067.46 -3.84477 -5.78967 0
M  V30 10922 H 1070.65 -2.34296 -4.05245 0
M  V30 10923 H 1070.83 -3.45967 -5.47915 0
M  V30 10924 N 1064.23 1.43628 -0.648757 0
M  V30 10925 C 1065.48 2.02163 -0.160574 0
M  V30 10926 C 1065.81 1.51037 1.22072 0
M  V30 10927 O 1065.09 0.701633 1.81404 0
M  V30 10928 C 1065.37 3.59715 -0.166528 0
M  V30 10929 C 1065.22 4.21083 -1.58142 0
M  V30 10930 C 1066.54 4.37256 0.499485 0
M  V30 10931 H 1063.66 0.734568 -0.0598238 0
M  V30 10932 H 1066.3 1.70981 -0.828592 0
M  V30 10933 H 1064.45 3.86411 0.402302 0
M  V30 10934 H 1066.12 4.05433 -2.2005 0
M  V30 10935 H 1064.37 3.77904 -2.13005 0
M  V30 10936 H 1065.04 5.30156 -1.53748 0
M  V30 10937 H 1067.51 4.16097 0.0155561 0
M  V30 10938 H 1066.39 5.4693 0.464574 0
M  V30 10939 H 1066.65 4.13175 1.57286 0
M  V30 10940 N 1065.71 0.390394 1.52688 0
M  V30 10941 C 1066.67 -0.432149 2.25089 0
M  V30 10942 C 1067.67 -0.989296 1.26766 0
M  V30 10943 O 1068.86 -0.871126 1.50854 0
M  V30 10944 C 1066 -1.60642 3.00678 0
M  V30 10945 H 1067.19 0.201734 2.99221 0
M  V30 10946 H 1064.74 0.142531 1.55649 0
M  V30 10947 H 1065.48 -2.2777 2.3085 0
M  V30 10948 H 1065.26 -1.21361 3.72846 0
M  V30 10949 H 1066.75 -2.18873 3.55647 0
M  V30 10950 N 1067.19 -1.57141 0.120249 0
M  V30 10951 C 1068.42 -1.993 -0.544346 0
M  V30 10952 C 1068.83 -0.998858 -1.60684 0
M  V30 10953 O 1068.17 0.0162197 -1.83693 0
M  V30 10954 C 1068.23 -3.37874 -1.22808 0
M  V30 10955 C 1067.9 -4.55924 -0.313374 0
M  V30 10956 C 1068.89 -5.17962 0.448501 0
M  V30 10957 C 1066.58 -5.018 -0.224082 0
M  V30 10958 C 1068.57 -6.24264 1.28739 0
M  V30 10959 C 1066.26 -6.07963 0.618437 0
M  V30 10960 C 1067.26 -6.69061 1.3728 0
M  V30 10961 O 1066.94 -7.73173 2.20133 0
M  V30 10962 H 1066.68 -0.659466 -0.148596 0
M  V30 10963 H 1069.23 -2.04387 0.203779 0
M  V30 10964 H 1067.46 -3.29545 -2.02329 0
M  V30 10965 H 1069.15 -3.64314 -1.7897 0
M  V30 10966 H 1069.92 -4.83434 0.389395 0
M  V30 10967 H 1065.79 -4.53989 -0.80094 0
M  V30 10968 H 1069.34 -6.71883 1.87667 0
M  V30 10969 H 1065.24 -6.4192 0.678932 0
M  V30 10970 H 1066 -7.90276 2.13088 0
M  V30 10971 N 1068.67 0.153526 -1.5685 0
M  V30 10972 C 1069.94 0.895545 -1.73895 0
M  V30 10973 C 1070.32 1.99625 -0.686504 0
M  V30 10974 O 1069.67 2.26579 0.2957 0
M  V30 10975 C 1069.88 1.44399 -3.17726 0
M  V30 10976 C 1071.23 1.90996 -3.79217 0
M  V30 10977 O 1072.25 1.54155 -3.21115 0
M  V30 10978 O 1071.11 2.58917 -4.81274 0
M  V30 10979 H 1068.21 0.422755 -0.710779 0
M  V30 10980 H 1070.75 0.139961 -1.69122 0
M  V30 10981 H 1069.52 0.652635 -3.85819 0
M  V30 10982 H 1069.15 2.26326 -3.26898 0
M  V30 10983 N 1070.14 1.51827 0.422667 0
M  V30 10984 C 1071.39 1.6522 1.17084 0
M  V30 10985 C 1071.72 0.375508 1.90841 0
M  V30 10986 O 1070.97 -0.641029 1.84903 0
M  V30 10987 C 1071.27 2.81572 2.20119 0
M  V30 10988 C 1070.94 4.20303 1.63268 0
M  V30 10989 C 1069.6 4.5804 1.47488 0
M  V30 10990 C 1071.95 5.06812 1.21618 0
M  V30 10991 C 1069.28 5.79979 0.885531 0
M  V30 10992 C 1071.63 6.29343 0.641071 0
M  V30 10993 C 1070.3 6.65841 0.470286 0
M  V30 10994 H 1069.57 0.604581 0.428442 0
M  V30 10995 H 1072.21 1.85896 0.459874 0
M  V30 10996 H 1070.52 2.55175 2.97309 0
M  V30 10997 H 1072.22 2.89132 2.77856 0
M  V30 10998 H 1068.81 3.90557 1.76531 0
M  V30 10999 H 1072.99 4.78251 1.32624 0
M  V30 11000 H 1068.25 6.06892 0.741105 0
M  V30 11001 H 1072.42 6.9571 0.309888 0
M  V30 11002 H 1070.05 7.60199 0.0115038 0
M  V30 11003 N 1071.62 -0.679052 1.4222 0
M  V30 11004 C 1072.87 -1.43627 1.42182 0
M  V30 11005 C 1073.19 -1.94964 0.0377095 0
M  V30 11006 O 1072.46 -1.72788 -0.923098 0
M  V30 11007 H 1071.04 -0.532972 0.523402 0
M  V30 11008 H 1073.7 -0.802649 1.77605 0
M  V30 11009 H 1072.8 -2.29137 2.11902 0
M  V30 11010 N 1073.1 -1.28322 -0.914942 0
M  V30 11011 C 1074.51 -1.13937 -1.47903 0
M  V30 11012 C 1074.86 0.271072 -1.94318 0
M  V30 11013 O 1073.99 1.16522 -1.8235 0
M  V30 11014 C 1074.58 -2.06221 -2.68809 0
M  V30 11015 C 1073.14 -1.95903 -3.21402 0
M  V30 11016 C 1072.29 -1.98031 -1.94111 0
M  V30 11017 H 1075.24 -1.41029 -0.727772 0
M  V30 11018 H 1075.26 -1.6255 -3.44031 0
M  V30 11019 H 1074.77 -3.08866 -2.34997 0
M  V30 11020 H 1072.87 -0.962907 -3.59943 0
M  V30 11021 H 1072.99 -2.82799 -3.86732 0
M  V30 11022 H 1071.35 -1.42423 -2.11158 0
M  V30 11023 H 1072.13 -3.02354 -1.62595 0
M  V30 11024 N 1074.58 1.12322 -1.10551 0
M  V30 11025 C 1075.51 2.17819 -0.713263 0
M  V30 11026 C 1076.52 1.6086 0.250604 0
M  V30 11027 O 1077.71 1.78466 0.0348909 0
M  V30 11028 C 1074.81 3.38885 -0.0320325 0
M  V30 11029 C 1073.99 4.25332 -1.02038 0
M  V30 11030 C 1073.04 5.24895 -0.370412 0
M  V30 11031 O 1072.07 5.59958 -1.02157 0
M  V30 11032 N 1073.27 5.73934 0.870633 0
M  V30 11033 H 1076.04 2.52083 -1.62094 0
M  V30 11034 H 1073.6 1.27755 -0.994492 0
M  V30 11035 H 1075.59 4.02574 0.414285 0
M  V30 11036 H 1074.16 3.02762 0.778072 0
M  V30 11037 H 1073.38 3.5824 -1.64492 0
M  V30 11038 H 1074.67 4.79936 -1.68936 0
M  V30 11039 H 1074.07 5.47614 1.419 0
M  V30 11040 H 1072.62 6.39504 1.26008 0
M  V30 11041 N 1076.06 0.894434 1.2976 0
M  V30 11042 C 1076.99 0.312806 2.26046 0
M  V30 11043 C 1077.97 -0.572024 1.52206 0
M  V30 11044 O 1079.15 -0.520009 1.81185 0
M  V30 11045 C 1076.28 -0.554624 3.34128 0
M  V30 11046 C 1075.32 0.262168 4.25693 0
M  V30 11047 S 1076.16 1.65656 5.09233 0
M  V30 11048 C 1077.31 0.795914 6.20819 0
M  V30 11049 H 1077.55 1.12895 2.75031 0
M  V30 11050 H 1075.08 0.694446 1.37901 0
M  V30 11051 H 1077.04 -1.04933 3.96862 0
M  V30 11052 H 1075.7 -1.34495 2.83848 0
M  V30 11053 H 1074.89 -0.400216 5.02408 0
M  V30 11054 H 1074.49 0.689829 3.67583 0
M  V30 11055 H 1076.79 0.0169942 6.77498 0
M  V30 11056 H 1077.73 1.53497 6.91263 0
M  V30 11057 H 1078.14 0.35263 5.63398 0
M  V30 11058 N 1077.53 -1.43282 0.656365 0
M  V30 11059 C 1078.5 -2.29188 -0.0239173 0
M  V30 11060 C 1079.5 -1.42373 -0.747436 0
M  V30 11061 O 1080.69 -1.63969 -0.588213 0
M  V30 11062 C 1077.82 -3.24501 -1.0446 0
M  V30 11063 H 1079.01 -2.9083 0.731978 0
M  V30 11064 H 1076.57 -1.50614 0.417752 0
M  V30 11065 H 1077.3 -2.6776 -1.82962 0
M  V30 11066 H 1077.09 -3.88509 -0.52942 0
M  V30 11067 H 1078.58 -3.88971 -1.51958 0
M  V30 11068 N 1079.01 -0.398486 -1.52479 0
M  V30 11069 C 1080.29 0.238776 -1.94137 0
M  V30 11070 C 1080.67 1.63558 -1.33462 0
M  V30 11071 O 1080.02 2.22821 -0.506272 0
M  V30 11072 C 1080.23 0.255863 -3.48061 0
M  V30 11073 C 1081.58 0.480376 -4.21874 0
M  V30 11074 O 1082.6 0.335679 -3.54615 0
M  V30 11075 O 1081.46 0.764654 -5.41124 0
M  V30 11076 H 1078.55 0.150806 -0.813134 0
M  V30 11077 H 1081.1 -0.453659 -1.63524 0
M  V30 11078 H 1079.87 -0.722171 -3.84578 0
M  V30 11079 H 1079.49 0.99284 -3.85004 0
M  V30 11080 N 1080.49 1.57075 -0.12858 0
M  V30 11081 C 1081.42 2.18833 0.814519 0
M  V30 11082 C 1082.4 1.13114 1.2704 0
M  V30 11083 O 1083.59 1.41387 1.33129 0
M  V30 11084 C 1080.72 2.79535 2.06101 0
M  V30 11085 C 1079.67 3.9092 1.74257 0
M  V30 11086 C 1079 4.38473 3.06015 0
M  V30 11087 C 1080.3 5.1257 1.00345 0
M  V30 11088 H 1081.99 2.97895 0.299862 0
M  V30 11089 H 1079.54 1.4329 0.14279 0
M  V30 11090 H 1081.49 3.21401 2.72543 0
M  V30 11091 H 1080.21 1.97777 2.59907 0
M  V30 11092 H 1078.87 3.49645 1.102 0
M  V30 11093 H 1078.52 3.53561 3.57776 0
M  V30 11094 H 1078.22 5.13591 2.85479 0
M  V30 11095 H 1079.75 4.82997 3.7356 0
M  V30 11096 H 1081.16 5.51395 1.56959 0
M  V30 11097 H 1079.56 5.93333 0.898693 0
M  V30 11098 H 1080.63 4.84899 -0.0081335 0
M  V30 11099 N 1081.97 -0.145205 1.5693 0
M  V30 11100 C 1082.92 -1.19841 1.99351 0
M  V30 11101 C 1083.91 -1.44371 0.886197 0
M  V30 11102 O 1085.12 -1.44642 1.07138 0
M  V30 11103 H 1081.49 -0.403437 0.63462 0
M  V30 11104 H 1083.46 -0.813932 2.87085 0
M  V30 11105 C 1082.21 -2.52377 2.39167 0
M  V30 11106 H 1081.54 -2.34332 3.23927 0
M  V30 11107 H 1082.98 -3.24694 2.72671 0
M  V30 11108 C 1081.43 -3.1305 1.24503 0
M  V30 11109 O 1081.96 -3.97962 0.546739 0
M  V30 11110 N 1080.17 -2.72528 1.00882 0
M  V30 11111 H 1079.72 -2.03576 1.57843 0
M  V30 11112 H 1079.68 -3.13456 0.24351 0
M  V30 11113 N 1083.45 -1.52049 -0.414609 0
M  V30 11114 C 1084.38 -1.77956 -1.51175 0
M  V30 11115 C 1085.36 -0.630282 -1.57992 0
M  V30 11116 O 1086.54 -0.875324 -1.73354 0
M  V30 11117 C 1083.67 -1.92527 -2.89051 0
M  V30 11118 C 1082.63 -3.08096 -2.97087 0
M  V30 11119 C 1081.95 -3.07882 -4.37164 0
M  V30 11120 C 1083.25 -4.47656 -2.69075 0
M  V30 11121 H 1084.95 -2.69827 -1.29746 0
M  V30 11122 H 1082.49 -1.29839 -0.62273 0
M  V30 11123 H 1084.45 -2.09234 -3.65786 0
M  V30 11124 H 1083.17 -0.973235 -3.11762 0
M  V30 11125 H 1081.83 -2.91131 -2.22797 0
M  V30 11126 H 1081.48 -2.10411 -4.56877 0
M  V30 11127 H 1081.18 -3.85501 -4.43467 0
M  V30 11128 H 1082.7 -3.26712 -5.15841 0
M  V30 11129 H 1084.12 -4.64855 -3.35534 0
M  V30 11130 H 1082.51 -5.27151 -2.8676 0
M  V30 11131 H 1083.58 -4.56129 -1.64544 0
M  V30 11132 N 1084.93 0.6715 -1.42579 0
M  V30 11133 C 1085.89 1.76676 -1.46008 0
M  V30 11134 C 1086.89 1.57007 -0.347213 0
M  V30 11135 O 1088.08 1.63238 -0.608185 0
M  V30 11136 C 1085.21 3.15348 -1.29494 0
M  V30 11137 H 1086.4 1.75021 -2.43531 0
M  V30 11138 H 1083.96 0.881444 -1.29075 0
M  V30 11139 H 1084.69 3.22626 -0.32906 0
M  V30 11140 H 1084.48 3.31028 -2.10149 0
M  V30 11141 H 1085.97 3.95251 -1.34784 0
M  V30 11142 N 1086.4 1.28806 0.908124 0
M  V30 11143 C 1087.65 1.16287 1.65781 0
M  V30 11144 C 1087.98 -0.287389 1.92365 0
M  V30 11145 O 1087.23 -1.22491 1.52625 0
M  V30 11146 C 1087.53 1.91267 3.01914 0
M  V30 11147 C 1087.2 3.41033 2.9497 0
M  V30 11148 C 1085.86 3.81879 2.92783 0
M  V30 11149 C 1088.21 4.36507 2.848 0
M  V30 11150 C 1085.54 5.16529 2.78235 0
M  V30 11151 C 1087.89 5.71237 2.71792 0
M  V30 11152 C 1086.56 6.11351 2.67967 0
M  V30 11153 H 1085.83 0.425526 0.606637 0
M  V30 11154 H 1088.47 1.59646 1.05762 0
M  V30 11155 H 1086.78 1.40474 3.65752 0
M  V30 11156 H 1088.48 1.78992 3.58835 0
M  V30 11157 H 1085.07 3.08561 2.97469 0
M  V30 11158 H 1089.25 4.05909 2.85573 0
M  V30 11159 H 1084.51 5.4673 2.73672 0
M  V30 11160 H 1088.68 6.44872 2.62892 0
M  V30 11161 H 1086.31 7.15637 2.56451 0
M  V30 11162 N 1087.88 -1.11734 1.11145 0
M  V30 11163 C 1089.13 -1.83043 0.856717 0
M  V30 11164 C 1089.45 -1.84901 -0.619407 0
M  V30 11165 O 1088.72 -1.31738 -1.44989 0
M  V30 11166 H 1087.3 -0.677823 0.31395 0
M  V30 11167 H 1089.96 -1.35262 1.40322 0
M  V30 11168 H 1089.06 -2.87005 1.22616 0
M  V30 11169 N 1089.36 -0.901303 -1.29284 0
M  V30 11170 C 1090.61 -0.528826 -1.95784 0
M  V30 11171 C 1090.94 0.922833 -1.70873 0
M  V30 11172 O 1090.21 1.65448 -1.0226 0
M  V30 11173 C 1090.5 -0.823793 -3.50551 0
M  V30 11174 C 1090.35 -2.32727 -3.84913 0
M  V30 11175 C 1091.67 -0.311382 -4.38997 0
M  V30 11176 H 1088.79 -0.193604 -0.711116 0
M  V30 11177 H 1091.43 -1.12828 -1.52872 0
M  V30 11178 H 1089.58 -0.313612 -3.87232 0
M  V30 11179 H 1091.25 -2.90712 -3.58168 0
M  V30 11180 H 1089.49 -2.78735 -3.32399 0
M  V30 11181 H 1090.17 -2.48423 -4.9294 0
M  V30 11182 H 1092.64 -0.748265 -4.09317 0
M  V30 11183 H 1091.52 -0.546957 -5.46168 0
M  V30 11184 H 1091.78 0.787959 -4.35021 0
M  V30 11185 N 1090.84 1.42931 -0.663954 0
M  V30 11186 C 1091.78 2.3079 0.0210764 0
M  V30 11187 C 1092.75 1.45356 0.803796 0
M  V30 11188 O 1093.94 1.74207 0.778237 0
M  V30 11189 C 1091.08 3.31069 0.974023 0
M  V30 11190 C 1090.19 4.31598 0.186273 0
M  V30 11191 C 1089.33 5.18955 1.13399 0
M  V30 11192 C 1088.37 6.1117 0.337292 0
M  V30 11193 N 1087.5 6.91114 1.23715 0
M  V30 11194 H 1092.34 2.88819 -0.733995 0
M  V30 11195 H 1089.88 1.42274 -0.373711 0
M  V30 11196 H 1091.84 3.87727 1.54024 0
M  V30 11197 H 1090.47 2.74665 1.69585 0
M  V30 11198 H 1089.52 3.77147 -0.496402 0
M  V30 11199 H 1090.83 4.96919 -0.432753 0
M  V30 11200 H 1089.99 5.80292 1.77049 0
M  V30 11201 H 1088.73 4.53785 1.78691 0
M  V30 11202 H 1087.73 5.48911 -0.312492 0
M  V30 11203 H 1088.96 6.78386 -0.31138 0
M  V30 11204 H 1086.9 6.28583 1.87668 0
M  V30 11205 H 1086.82 7.52999 0.672946 0
M  V30 11206 H 1088.09 7.56948 1.86146 0
M  V30 11207 N 1092.32 0.406567 1.52266 0
M  V30 11208 C 1093.26 -0.43489 2.28498 0
M  V30 11209 C 1094.26 -1.04806 1.33086 0
M  V30 11210 O 1095.46 -0.986557 1.50556 0
M  V30 11211 H 1091.84 -0.159023 0.734994 0
M  V30 11212 H 1093.81 0.229316 2.97518 0
M  V30 11213 C 1092.56 -1.54073 3.117 0
M  V30 11214 H 1091.88 -1.07824 3.84986 0
M  V30 11215 H 1093.32 -2.10337 3.6815 0
M  V30 11216 C 1091.78 -2.50662 2.251 0
M  V30 11217 O 1092.31 -3.54486 1.88951 0
M  V30 11218 N 1090.52 -2.20811 1.8892 0
M  V30 11219 H 1090.06 -1.36413 2.18516 0
M  V30 11220 H 1090.02 -2.85684 1.3127 0
M  V30 11221 N 1093.79 -1.57004 0.136909 0
M  V30 11222 C 1095.04 -1.94972 -0.51662 0
M  V30 11223 C 1095.36 -1.02367 -1.66674 0
M  V30 11224 O 1096.56 -1.29873 -2.38423 0
M  V30 11225 C 1095.02 -3.4657 -0.970435 0
M  V30 11226 C 1094.63 -4.47741 0.152204 0
M  V30 11227 C 1096.37 -3.93423 -1.59432 0
M  V30 11228 C 1094.28 -5.90537 -0.319315 0
M  V30 11229 H 1093.21 -0.727873 -0.196766 0
M  V30 11230 H 1095.86 -1.82181 0.219637 0
M  V30 11231 H 1094.24 -3.54657 -1.76165 0
M  V30 11232 H 1095.41 -4.5134 0.928925 0
M  V30 11233 H 1093.73 -4.10746 0.683867 0
M  V30 11234 H 1096.33 -4.97539 -1.95856 0
M  V30 11235 H 1096.67 -3.34404 -2.47951 0
M  V30 11236 H 1097.2 -3.8821 -0.868193 0
M  V30 11237 H 1093.94 -6.53352 0.530248 0
M  V30 11238 H 1093.46 -5.90321 -1.06213 0
M  V30 11239 H 1095.14 -6.42346 -0.774662 0
M  V30 11240 N 1095.27 0.136881 -1.57004 0
M  V30 11241 C 1096.52 0.847775 -1.83899 0
M  V30 11242 C 1096.85 1.80709 -0.719332 0
M  V30 11243 O 1096.1 1.93527 0.290838 0
M  V30 11244 C 1096.4 1.64711 -3.17183 0
M  V30 11245 C 1096.07 0.833683 -4.43126 0
M  V30 11246 C 1094.73 0.609306 -4.77327 0
M  V30 11247 C 1097.08 0.265504 -5.20523 0
M  V30 11248 C 1094.41 -0.193793 -5.8638 0
M  V30 11249 C 1096.76 -0.524688 -6.3042 0
M  V30 11250 C 1095.43 -0.759548 -6.63164 0
M  V30 11251 H 1094.7 0.310223 -0.672936 0
M  V30 11252 H 1097.34 0.110937 -1.91178 0
M  V30 11253 H 1095.65 2.45435 -3.054 0
M  V30 11254 H 1097.34 2.20081 -3.3521 0
M  V30 11255 H 1093.93 1.01864 -4.16319 0
M  V30 11256 H 1098.12 0.426109 -4.94467 0
M  V30 11257 H 1093.37 -0.385153 -6.10186 0
M  V30 11258 H 1097.55 -0.972033 -6.89583 0
M  V30 11259 H 1095.18 -1.38369 -7.47501 0
M  V30 11260 N 1096.75 1.52266 0.40654 0
M  V30 11261 C 1098.03 1.57018 1.1664 0
M  V30 11262 C 1098.41 0.352752 2.08132 0
M  V30 11263 O 1097.76 -0.660208 2.18754 0
M  V30 11264 C 1097.97 2.90016 1.94143 0
M  V30 11265 C 1099.31 3.43112 2.50119 0
M  V30 11266 O 1100.34 2.91773 2.0432 0
M  V30 11267 O 1099.2 4.32765 3.33731 0
M  V30 11268 H 1096.29 0.632574 0.532709 0
M  V30 11269 H 1098.84 1.64595 0.413111 0
M  V30 11270 H 1097.61 3.70071 1.27134 0
M  V30 11271 H 1097.23 2.85744 2.76471 0
M  V30 11272 N 1098.23 -0.663929 1.42933 0
M  V30 11273 C 1099.16 -1.78946 1.43217 0
M  V30 11274 C 1100.17 -1.59426 0.329727 0
M  V30 11275 O 1101.36 -1.68344 0.5935 0
M  V30 11276 C 1098.46 -3.16217 1.21902 0
M  V30 11277 C 1097.64 -3.6249 2.44785 0
M  V30 11278 C 1096.69 -4.78529 2.18853 0
M  V30 11279 O 1095.72 -4.88516 2.92131 0
M  V30 11280 N 1096.92 -5.67994 1.19845 0
M  V30 11281 H 1099.69 -1.79184 2.40236 0
M  V30 11282 H 1097.25 -0.847404 1.37952 0
M  V30 11283 H 1099.24 -3.91517 1.02454 0
M  V30 11284 H 1097.81 -3.10814 0.333676 0
M  V30 11285 H 1097.03 -2.77751 2.79729 0
M  V30 11286 H 1098.32 -3.90151 3.26588 0
M  V30 11287 H 1097.72 -5.62588 0.59259 0
M  V30 11288 H 1096.27 -6.4306 1.06382 0
M  V30 11289 N 1099.71 -1.29285 -0.901281 0
M  V30 11290 C 1100.98 -1.07847 -1.63182 0
M  V30 11291 C 1101.36 0.377927 -2.07689 0
M  V30 11292 O 1100.71 1.36642 -1.83143 0
M  V30 11293 C 1100.92 -2.06457 -2.81383 0
M  V30 11294 C 1102.27 -2.37289 -3.52107 0
M  V30 11295 O 1103.29 -2.0464 -2.91549 0
M  V30 11296 O 1102.15 -2.93067 -4.61274 0
M  V30 11297 H 1099.25 -0.413073 -0.71645 0
M  V30 11298 H 1101.79 -1.40651 -0.949488 0
M  V30 11299 H 1100.56 -3.04561 -2.4568 0
M  V30 11300 H 1100.19 -1.74374 -3.57323 0
M  V30 11301 N 1101.18 1.11143 -1.11736 0
M  V30 11302 C 1102.41 1.86474 -0.889435 0
M  V30 11303 C 1102.82 1.80584 0.564438 0
M  V30 11304 O 1102.17 1.18743 1.40163 0
M  V30 11305 C 1102.23 3.36066 -1.27671 0
M  V30 11306 C 1101.89 3.65721 -2.74038 0
M  V30 11307 C 1102.89 3.62941 -3.7225 0
M  V30 11308 C 1100.57 3.94629 -3.10762 0
M  V30 11309 C 1102.57 3.88651 -5.05202 0
M  V30 11310 C 1100.25 4.19997 -4.43899 0
M  V30 11311 C 1101.25 4.16996 -5.40928 0
M  V30 11312 O 1100.94 4.41724 -6.71666 0
M  V30 11313 H 1100.67 0.596438 -0.318178 0
M  V30 11314 H 1103.23 1.41465 -1.48918 0
M  V30 11315 H 1101.46 3.81695 -0.620124 0
M  V30 11316 H 1103.15 3.92769 -1.02409 0
M  V30 11317 H 1103.91 3.40655 -3.45223 0
M  V30 11318 H 1099.79 3.96099 -2.35853 0
M  V30 11319 H 1103.33 3.86224 -5.80927 0
M  V30 11320 H 1099.23 4.4176 -4.70657 0
M  V30 11321 H 1100 4.59276 -6.77501 0
M  V30 11322 N 1102.66 0.908147 1.28804 0
M  V30 11323 C 1103.91 0.538404 1.95211 0
M  V30 11324 C 1104.24 -0.916886 1.71533 0
M  V30 11325 O 1103.49 -1.66643 1.02609 0
M  V30 11326 C 1103.79 0.787327 3.4862 0
M  V30 11327 C 1103.46 2.22129 3.92389 0
M  V30 11328 C 1102.12 2.61336 4.04051 0
M  V30 11329 C 1104.47 3.15471 4.14883 0
M  V30 11330 C 1101.8 3.93048 4.3558 0
M  V30 11331 C 1104.15 4.46741 4.47889 0
M  V30 11332 C 1102.82 4.85809 4.57761 0
M  V30 11333 H 1102.09 0.197016 0.714329 0
M  V30 11334 H 1104.73 1.14841 1.53244 0
M  V30 11335 H 1103.04 0.0944731 3.91686 0
M  V30 11336 H 1104.73 0.480503 3.98111 0
M  V30 11337 H 1101.32 1.90704 3.83836 0
M  V30 11338 H 1105.51 2.86391 4.05332 0
M  V30 11339 H 1100.76 4.23027 4.41428 0
M  V30 11340 H 1104.94 5.19087 4.64243 0
M  V30 11341 H 1102.57 5.87904 4.81947 0
M  V30 11342 N 1104.14 -1.42577 0.671525 0
M  V30 11343 C 1105.39 -2.00806 0.189663 0
M  V30 11344 C 1105.7 -1.537 -1.20978 0
M  V30 11345 O 1106.91 -2.04325 -1.78784 0
M  V30 11346 C 1105.36 -3.58744 0.288227 0
M  V30 11347 C 1104.97 -4.14839 1.69152 0
M  V30 11348 C 1106.72 -4.24285 -0.13509 0
M  V30 11349 C 1104.62 -5.65131 1.74302 0
M  V30 11350 H 1103.55 -0.751004 0.067146 0
M  V30 11351 H 1106.2 -1.63338 0.83623 0
M  V30 11352 H 1104.59 -3.937 -0.426175 0
M  V30 11353 H 1105.76 -3.91349 2.43274 0
M  V30 11354 H 1104.08 -3.61738 2.0624 0
M  V30 11355 H 1106.67 -5.34573 -0.116709 0
M  V30 11356 H 1107.02 -3.99527 -1.16977 0
M  V30 11357 H 1107.55 -3.94278 0.528191 0
M  V30 11358 H 1104.29 -5.94682 2.75742 0
M  V30 11359 H 1103.81 -5.90621 1.04531 0
M  V30 11360 H 1105.49 -6.29491 1.49498 0
M  V30 11361 N 1105.62 -0.414636 -1.52048 0
M  V30 11362 C 1107.03 -0.0657806 -1.59464 0
M  V30 11363 C 1107.23 1.4225 -1.42713 0
M  V30 11364 O 1106.29 2.18996 -1.25687 0
M  V30 11365 C 1107.6 -0.565618 -2.95332 0
M  V30 11366 C 1109.15 -0.524072 -3.08581 0
M  V30 11367 C 1109.63 -1.00051 -4.46938 0
M  V30 11368 N 1111.12 -0.957555 -4.53194 0
M  V30 11369 C 1111.85 -1.29733 -5.58531 0
M  V30 11370 N 1111.35 -1.70883 -6.71395 0
M  V30 11371 N 1113.14 -1.21694 -5.48769 0
M  V30 11372 H 1105.29 -1.38325 -1.61183 0
M  V30 11373 H 1107.56 -0.568593 -0.758556 0
M  V30 11374 H 1107.26 -1.60604 -3.12888 0
M  V30 11375 H 1107.14 0.0217735 -3.77194 0
M  V30 11376 H 1109.52 0.507319 -2.90707 0
M  V30 11377 H 1109.6 -1.14759 -2.28613 0
M  V30 11378 H 1109.25 -2.03025 -4.65557 0
M  V30 11379 H 1109.18 -0.353754 -5.2541 0
M  V30 11380 H 1111.67 -0.65508 -3.72179 0
M  V30 11381 H 1111.98 -1.95105 -7.47766 0
M  V30 11382 H 1110.33 -1.74791 -6.72661 0
M  V30 11383 H 1113.52 -0.894286 -4.59478 0
M  V30 11384 H 1113.69 -1.48504 -6.30754 0
M  V30 11385 N 1107.1 1.56929 -0.145233 0
M  V30 11386 C 1108.32 2.00864 0.516564 0
M  V30 11387 C 1108.75 1.02466 1.57741 0
M  V30 11388 O 1108.1 0.000145439 1.813 0
M  V30 11389 C 1108.15 3.43552 1.09563 0
M  V30 11390 O 1107.26 3.4815 2.21055 0
M  V30 11391 H 1106.6 0.651835 0.126521 0
M  V30 11392 H 1109.13 2.0317 -0.241445 0
M  V30 11393 H 1109.14 3.82316 1.42473 0
M  V30 11394 H 1107.81 4.14677 0.318749 0
M  V30 11395 H 1106.39 3.21228 1.89387 0
M  V30 11396 N 1108.58 -0.128553 1.57075 0
M  V30 11397 C 1109.81 -0.851214 1.8825 0
M  V30 11398 C 1110.21 -1.74402 0.733531 0
M  V30 11399 O 1109.56 -1.81149 -0.305108 0
M  V30 11400 C 1109.62 -1.74451 3.14336 0
M  V30 11401 C 1109.28 -1.02699 4.45311 0
M  V30 11402 C 1110.28 -0.37224 5.18566 0
M  V30 11403 C 1107.96 -1.01101 4.9202 0
M  V30 11404 C 1109.96 0.2889 6.36745 0
M  V30 11405 C 1107.65 -0.346063 6.10119 0
M  V30 11406 C 1108.64 0.302744 6.82329 0
M  V30 11407 O 1108.33 0.9571 7.98182 0
M  V30 11408 H 1108.06 -0.250529 0.627863 0
M  V30 11409 H 1110.62 -0.120418 2.05047 0
M  V30 11410 H 1108.85 -2.51671 2.93596 0
M  V30 11411 H 1110.54 -2.34075 3.31608 0
M  V30 11412 H 1111.3 -0.376271 4.83538 0
M  V30 11413 H 1107.18 -1.50543 4.35727 0
M  V30 11414 H 1110.73 0.795901 6.93045 0
M  V30 11415 H 1106.62 -0.339762 6.44605 0
M  V30 11416 H 1107.39 0.860616 8.13963 0
M  V30 11417 N 1110.05 -1.5248 -0.398459 0
M  V30 11418 C 1111.33 -1.57634 -1.15805 0
M  V30 11419 C 1111.71 -0.363785 -2.07942 0
M  V30 11420 O 1111.06 0.648598 -2.19101 0
M  V30 11421 C 1111.27 -2.91042 -1.92602 0
M  V30 11422 C 1112.62 -3.44433 -2.48296 0
M  V30 11423 O 1113.64 -2.92853 -2.0277 0
M  V30 11424 O 1112.5 -4.34529 -3.31432 0
M  V30 11425 H 1109.59 -0.63539 -0.529347 0
M  V30 11426 H 1112.14 -1.64812 -0.404376 0
M  V30 11427 H 1110.91 -3.7074 -1.25169 0
M  V30 11428 H 1110.53 -2.87206 -2.74952 0
M  V30 11429 N 1111.53 0.65634 -1.43283 0
M  V30 11430 C 1112.81 1.41339 -1.35213 0
M  V30 11431 C 1113.19 2.111 0.00158494 0
M  V30 11432 O 1112.54 2.0457 1.018 0
M  V30 11433 C 1112.75 2.40066 -2.53317 0
M  V30 11434 C 1114.09 3.04159 -2.96264 0
M  V30 11435 O 1115.12 2.50393 -2.53341 0
M  V30 11436 O 1113.98 4.01633 -3.70612 0
M  V30 11437 H 1111.07 0.631325 -0.534189 0
M  V30 11438 H 1113.62 0.68351 -1.55326 0
M  V30 11439 H 1112.39 1.87444 -3.43483 0
M  V30 11440 H 1112.01 3.20509 -2.35287 0
M  V30 11441 N 1113.01 1.29761 0.894412 0
M  V30 11442 C 1113.96 1.15232 2.0205 0
M  V30 11443 C 1114.95 0.0665664 1.69269 0
M  V30 11444 O 1116.16 0.226746 1.78566 0
M  V30 11445 H 1112.53 0.356102 0.662341 0
M  V30 11446 H 1114.5 2.10559 2.11442 0
M  V30 11447 C 1113.25 0.851143 3.37121 0
M  V30 11448 H 1112.58 1.67865 3.62852 0
M  V30 11449 H 1114.02 0.78954 4.16584 0
M  V30 11450 C 1112.47 -0.445737 3.33938 0
M  V30 11451 O 1113 -1.47017 3.7383 0
M  V30 11452 N 1111.21 -0.453493 2.8704 0
M  V30 11453 H 1110.76 0.380636 2.54772 0
M  V30 11454 H 1110.72 -1.32119 2.85293 0
M  V30 11455 N 1114.49 -1.10549 1.12324 0
M  V30 11456 C 1115.44 -2.18944 0.785248 0
M  V30 11457 C 1116.43 -1.67867 -0.227389 0
M  V30 11458 O 1117.64 -1.79796 -0.0857162 0
M  V30 11459 H 1114.01 -0.713976 0.236098 0
M  V30 11460 H 1115.98 -2.44692 1.70788 0
M  V30 11461 C 1114.73 -3.46765 0.25485 0
M  V30 11462 H 1114.05 -3.86428 1.02534 0
M  V30 11463 H 1115.49 -4.23962 0.0566526 0
M  V30 11464 C 1113.95 -3.21185 -1.01695 0
M  V30 11465 O 1114.48 -3.42745 -2.09497 0
M  V30 11466 N 1112.69 -2.7486 -0.943423 0
M  V30 11467 H 1112.24 -2.57515 -0.0660366 0
M  V30 11468 H 1112.19 -2.58122 -1.795 0
M  V30 11469 N 1115.97 -0.914965 -1.28321 0
M  V30 11470 C 1116.91 -0.402792 -2.27258 0
M  V30 11471 C 1117.88 0.523412 -1.57638 0
M  V30 11472 O 1119.07 0.445344 -1.8553 0
M  V30 11473 C 1116.21 0.349956 -3.43321 0
M  V30 11474 C 1115.32 -0.608892 -4.27687 0
M  V30 11475 C 1114.46 0.162425 -5.30952 0
M  V30 11476 C 1113.49 -0.789959 -6.06981 0
M  V30 11477 N 1112.63 -0.0520826 -7.02081 0
M  V30 11478 H 1117.47 -1.25153 -2.70446 0
M  V30 11479 H 1115.01 -0.628444 -1.33 0
M  V30 11480 H 1116.97 0.802589 -4.09407 0
M  V30 11481 H 1115.6 1.16303 -3.01121 0
M  V30 11482 H 1114.65 -1.18005 -3.61634 0
M  V30 11483 H 1115.96 -1.33727 -4.8054 0
M  V30 11484 H 1115.11 0.675563 -6.02927 0
M  V30 11485 H 1113.85 0.923851 -4.7887 0
M  V30 11486 H 1112.86 -1.31446 -5.33856 0
M  V30 11487 H 1114.08 -1.55096 -6.61152 0
M  V30 11488 H 1112.03 0.691331 -6.52347 0
M  V30 11489 H 1111.95 -0.720267 -7.52561 0
M  V30 11490 H 1113.21 0.44082 -7.78253 0
M  V30 11491 N 1117.44 1.42219 -0.679077 0
M  V30 11492 C 1118.69 2.01081 -0.202718 0
M  V30 11493 C 1119.01 1.53986 1.19639 0
M  V30 11494 O 1118.28 0.763359 1.80415 0
M  V30 11495 H 1116.86 0.743526 -0.0719547 0
M  V30 11496 H 1119.52 1.74077 -0.876544 0
M  V30 11497 H 1118.62 3.11411 -0.207314 0
M  V30 11498 N 1118.92 0.422693 1.51826 0
M  V30 11499 C 1120.17 -0.150066 2.01141 0
M  V30 11500 C 1120.48 -1.45059 1.31214 0
M  V30 11501 O 1121.69 -2.10542 1.71419 0
M  V30 11502 C 1120.15 -0.317985 3.58492 0
M  V30 11503 C 1119.75 0.971244 4.37345 0
M  V30 11504 C 1121.5 -0.845303 4.15999 0
M  V30 11505 C 1119.4 0.769769 5.86369 0
M  V30 11506 H 1118.33 -0.0598567 0.75162 0
M  V30 11507 H 1120.99 0.550217 1.75057 0
M  V30 11508 H 1119.37 -1.08092 3.80962 0
M  V30 11509 H 1120.54 1.74138 4.26629 0
M  V30 11510 H 1118.86 1.42599 3.91222 0
M  V30 11511 H 1121.45 -1.01229 5.2503 0
M  V30 11512 H 1121.8 -1.82375 3.74226 0
M  V30 11513 H 1122.33 -0.141067 3.9755 0
M  V30 11514 H 1119.07 1.72017 6.32527 0
M  V30 11515 H 1118.59 0.0391717 5.99787 0
M  V30 11516 H 1120.27 0.417225 6.45653 0
M  V30 11517 N 1120.4 -1.5685 0.153553 0
M  V30 11518 C 1121.63 -2.0041 -0.501949 0
M  V30 11519 C 1122.04 -1.03272 -1.58529 0
M  V30 11520 O 1121.38 -0.0227479 -1.83686 0
M  V30 11521 C 1121.44 -3.40402 -1.15613 0
M  V30 11522 C 1121.11 -4.56486 -0.216596 0
M  V30 11523 C 1122.1 -5.16894 0.558267 0
M  V30 11524 C 1119.79 -5.02162 -0.117592 0
M  V30 11525 C 1121.78 -6.21392 1.41951 0
M  V30 11526 C 1119.47 -6.06514 0.747255 0
M  V30 11527 C 1120.47 -6.65999 1.51441 0
M  V30 11528 O 1120.16 -7.6833 2.36483 0
M  V30 11529 H 1119.89 -0.66247 -0.134574 0
M  V30 11530 H 1122.44 -2.03908 0.247086 0
M  V30 11531 H 1120.67 -3.33762 -1.95294 0
M  V30 11532 H 1122.36 -3.68028 -1.71202 0
M  V30 11533 H 1123.13 -4.825 0.491851 0
M  V30 11534 H 1119.01 -4.55586 -0.704462 0
M  V30 11535 H 1122.55 -6.67751 2.01877 0
M  V30 11536 H 1118.45 -6.40335 0.81494 0
M  V30 11537 H 1119.21 -7.85578 2.29803 0
M  V30 11538 N 1121.88 0.120221 -1.57141 0
M  V30 11539 C 1122.84 1.13159 -1.99318 0
M  V30 11540 C 1123.84 1.34376 -0.883158 0
M  V30 11541 O 1125.03 1.30914 -1.14922 0
M  V30 11542 C 1122.16 2.48632 -2.33227 0
M  V30 11543 H 1123.36 0.769119 -2.8987 0
M  V30 11544 H 1120.91 0.364475 -1.51991 0
M  V30 11545 H 1121.64 2.89802 -1.45551 0
M  V30 11546 H 1121.43 2.34587 -3.14184 0
M  V30 11547 H 1122.92 3.21423 -2.66603 0
M  V30 11548 N 1123.36 1.52689 0.390367 0
M  V30 11549 C 1124.6 1.67335 1.13329 0
M  V30 11550 C 1124.93 0.415068 1.90531 0
M  V30 11551 O 1124.2 -0.570504 1.87409 0
M  V30 11552 H 1122.78 0.616821 0.421356 0
M  V30 11553 H 1125.44 1.89799 0.443 0
M  V30 11554 H 1124.53 2.52314 1.83696 0
M  V30 11555 N 1124.83 -0.648732 1.43629 0
M  V30 11556 C 1125.77 -1.77417 1.45107 0
M  V30 11557 C 1126.78 -1.59067 0.346618 0
M  V30 11558 O 1127.97 -1.67705 0.611322 0
M  V30 11559 C 1125.07 -3.14906 1.25249 0
M  V30 11560 C 1124.24 -3.59874 2.48616 0
M  V30 11561 C 1123.3 -4.76181 2.23916 0
M  V30 11562 O 1122.33 -4.8539 2.97296 0
M  V30 11563 N 1123.53 -5.66691 1.25862 0
M  V30 11564 H 1126.29 -1.76626 2.42123 0
M  V30 11565 H 1123.85 -0.832725 1.38843 0
M  V30 11566 H 1125.85 -3.90408 1.06601 0
M  V30 11567 H 1124.42 -3.10443 0.366623 0
M  V30 11568 H 1123.64 -2.74768 2.82659 0
M  V30 11569 H 1124.92 -3.86665 3.30708 0
M  V30 11570 H 1124.32 -5.61927 0.652227 0
M  V30 11571 H 1122.88 -6.41895 1.13196 0
M  V30 11572 N 1126.31 -1.30234 -0.887518 0
M  V30 11573 C 1127.72 -1.17048 -1.45453 0
M  V30 11574 C 1128.07 0.229793 -1.9485 0
M  V30 11575 O 1127.2 1.12628 -1.84781 0
M  V30 11576 C 1127.79 -2.11876 -2.64375 0
M  V30 11577 C 1126.35 -2.02676 -3.17174 0
M  V30 11578 C 1125.5 -2.02104 -1.89866 0
M  V30 11579 H 1128.45 -1.42541 -0.697694 0
M  V30 11580 H 1128.47 -1.69811 -3.40506 0
M  V30 11581 H 1127.98 -3.13781 -2.28392 0
M  V30 11582 H 1126.09 -1.03904 -3.57819 0
M  V30 11583 H 1126.2 -2.90939 -3.80646 0
M  V30 11584 H 1124.56 -1.4687 -2.0809 0
M  V30 11585 H 1125.35 -3.05735 -1.56145 0
M  V30 11586 N 1127.79 1.09952 -1.12909 0
M  V30 11587 C 1129.21 1.34051 -0.866172 0
M  V30 11588 C 1129.41 1.95169 0.501125 0
M  V30 11589 O 1128.46 2.19458 1.24878 0
M  V30 11590 C 1129.78 2.25738 -1.98653 0
M  V30 11591 C 1131.32 2.39261 -2.01799 0
M  V30 11592 C 1131.8 3.3428 -3.13083 0
M  V30 11593 N 1133.29 3.41851 -3.12558 0
M  V30 11594 C 1134.02 4.15358 -3.95304 0
M  V30 11595 N 1133.52 4.91709 -4.88051 0
M  V30 11596 N 1135.31 4.11027 -3.83423 0
M  V30 11597 H 1127.46 0.686521 -2.00999 0
M  V30 11598 H 1129.73 0.364913 -0.874953 0
M  V30 11599 H 1129.43 1.88048 -2.97205 0
M  V30 11600 H 1129.31 3.26085 -1.89601 0
M  V30 11601 H 1131.69 2.76218 -1.03864 0
M  V30 11602 H 1131.78 1.38712 -2.14925 0
M  V30 11603 H 1131.42 2.98048 -4.11254 0
M  V30 11604 H 1131.35 4.34721 -2.97195 0
M  V30 11605 H 1133.84 2.87405 -2.45371 0
M  V30 11606 H 1134.15 5.45212 -5.47689 0
M  V30 11607 H 1132.5 4.90816 -4.92061 0
M  V30 11608 H 1135.69 3.50477 -3.10296 0
M  V30 11609 H 1135.86 4.68054 -4.4814 0
M  V30 11610 N 1129.27 0.921757 1.27833 0
M  V30 11611 C 1130.5 0.575202 1.98744 0
M  V30 11612 C 1130.91 -0.845405 1.68815 0
M  V30 11613 O 1130.27 -1.56106 0.94536 0
M  V30 11614 C 1130.32 0.784389 3.52888 0
M  V30 11615 O 1130.04 2.1491 3.81766 0
M  V30 11616 C 1131.54 0.445744 4.41053 0
M  V30 11617 H 1128.76 0.218525 0.634419 0
M  V30 11618 H 1131.31 1.23715 1.62834 0
M  V30 11619 H 1129.46 0.169323 3.8703 0
M  V30 11620 H 1129.87 2.19469 4.76375 0
M  V30 11621 H 1131.35 0.64284 5.48244 0
M  V30 11622 H 1131.83 -0.618433 4.34824 0
M  V30 11623 H 1132.43 1.03869 4.12421 0
M  V30 11624 N 1130.75 -1.41857 0.686609 0
M  V30 11625 C 1131.68 -2.33481 0.0298353 0
M  V30 11626 C 1132.66 -1.51329 -0.776756 0
M  V30 11627 O 1133.84 -1.79895 -0.731535 0
M  V30 11628 C 1130.97 -3.35065 -0.913707 0
M  V30 11629 C 1129.93 -4.2746 -0.214861 0
M  V30 11630 C 1129.25 -5.19346 -1.27215 0
M  V30 11631 C 1130.55 -5.14252 0.913367 0
M  V30 11632 H 1132.25 -2.8865 0.795067 0
M  V30 11633 H 1129.79 -1.38792 0.383785 0
M  V30 11634 H 1131.75 -3.98082 -1.38234 0
M  V30 11635 H 1130.47 -2.78226 -1.7105 0
M  V30 11636 H 1129.13 -3.65855 0.233651 0
M  V30 11637 H 1128.78 -4.58827 -2.06124 0
M  V30 11638 H 1128.48 -5.81996 -0.80961 0
M  V30 11639 H 1130 -5.85239 -1.74147 0
M  V30 11640 H 1131.41 -5.70887 0.525424 0
M  V30 11641 H 1129.81 -5.85796 1.30244 0
M  V30 11642 H 1130.88 -4.51949 1.75699 0
M  V30 11643 N 1132.22 -0.430739 -1.51599 0
M  V30 11644 C 1133.45 0.136599 -2.06148 0
M  V30 11645 C 1133.86 1.37577 -1.29881 0
M  V30 11646 O 1133.21 1.80337 -0.349875 0
M  V30 11647 C 1133.27 0.53071 -3.55561 0
M  V30 11648 C 1132.93 -0.600738 -4.53034 0
M  V30 11649 C 1133.93 -1.47089 -4.98659 0
M  V30 11650 C 1131.61 -0.77959 -4.96213 0
M  V30 11651 C 1133.61 -2.50464 -5.86128 0
M  V30 11652 C 1131.29 -1.81663 -5.83474 0
M  V30 11653 C 1132.29 -2.67755 -6.28328 0
M  V30 11654 O 1131.98 -3.69679 -7.13858 0
M  V30 11655 H 1131.71 0.0143071 -0.675849 0
M  V30 11656 H 1134.27 -0.606673 -1.96236 0
M  V30 11657 H 1132.5 1.32659 -3.63233 0
M  V30 11658 H 1134.19 1.02844 -3.92655 0
M  V30 11659 H 1134.95 -1.34421 -4.66 0
M  V30 11660 H 1130.83 -0.119082 -4.60846 0
M  V30 11661 H 1134.37 -3.17695 -6.2106 0
M  V30 11662 H 1130.27 -1.94353 -6.15546 0
M  V30 11663 H 1131.04 -3.66181 -7.3202 0
M  V30 11664 N 1133.7 1.56767 -0.161869 0
M  V30 11665 C 1134.64 2.13321 0.810527 0
M  V30 11666 C 1135.61 1.06073 1.23237 0
M  V30 11667 O 1136.8 1.33993 1.32583 0
M  V30 11668 C 1133.92 2.66506 2.09027 0
M  V30 11669 C 1132.97 3.86038 1.8132 0
M  V30 11670 S 1133.8 5.26253 0.990873 0
M  V30 11671 C 1134.96 5.82837 2.28149 0
M  V30 11672 H 1135.19 2.95467 0.32965 0
M  V30 11673 H 1132.73 1.5431 0.052655 0
M  V30 11674 H 1134.68 2.97797 2.82537 0
M  V30 11675 H 1133.34 1.84463 2.54229 0
M  V30 11676 H 1132.54 4.21547 2.7625 0
M  V30 11677 H 1132.14 3.55585 1.1591 0
M  V30 11678 H 1134.43 5.95175 3.23686 0
M  V30 11679 H 1135.37 6.80109 1.97123 0
M  V30 11680 H 1135.78 5.11186 2.39477 0
M  V30 11681 N 1135.18 -0.111886 1.57202 0
M  V30 11682 C 1136.11 -1.16274 1.97517 0
M  V30 11683 C 1137.13 -1.37259 0.875425 0
M  V30 11684 O 1138.31 -1.36208 1.15367 0
M  V30 11685 C 1135.41 -2.52145 2.26442 0
M  V30 11686 C 1134.59 -2.51666 3.57747 0
M  V30 11687 C 1133.65 -3.69337 3.74802 0
M  V30 11688 O 1132.67 -3.52596 4.46839 0
M  V30 11689 N 1133.87 -4.88177 3.14108 0
M  V30 11690 H 1136.64 -0.819747 2.88271 0
M  V30 11691 H 1134.2 -0.301076 1.59076 0
M  V30 11692 H 1136.19 -3.29437 2.3506 0
M  V30 11693 H 1134.76 -2.78599 1.41779 0
M  V30 11694 H 1133.98 -1.60038 3.60252 0
M  V30 11695 H 1135.27 -2.48408 4.44039 0
M  V30 11696 H 1134.67 -5.04682 2.55564 0
M  V30 11697 H 1133.23 -5.6312 3.28237 0
M  V30 11698 N 1136.66 -1.52894 -0.382264 0
M  V30 11699 C 1137.91 -1.67933 -1.1244 0
M  V30 11700 C 1138.23 -0.425166 -1.90309 0
M  V30 11701 O 1137.5 0.560557 -1.87709 0
M  V30 11702 H 1136.08 -0.619047 -0.418079 0
M  V30 11703 H 1138.74 -1.90031 -0.432928 0
M  V30 11704 H 1137.84 -2.53285 -1.82355 0
M  V30 11705 N 1138.14 0.641106 -1.43971 0
M  V30 11706 C 1139.36 1.43324 -1.4991 0
M  V30 11707 C 1139.79 1.87705 -0.121908 0
M  V30 11708 O 1139.15 1.58127 0.886875 0
M  V30 11709 C 1139.19 2.63637 -2.46025 0
M  V30 11710 O 1138.3 3.63123 -1.95488 0
M  V30 11711 H 1137.64 0.429252 -0.506595 0
M  V30 11712 H 1140.17 0.783427 -1.89007 0
M  V30 11713 H 1140.18 3.11304 -2.63731 0
M  V30 11714 H 1138.85 2.30678 -3.46064 0
M  V30 11715 H 1137.43 3.22332 -1.87501 0
M  V30 11716 N 1139.62 1.30703 0.880598 0
M  V30 11717 C 1140.55 1.20033 2.00286 0
M  V30 11718 C 1141.53 0.0899614 1.69862 0
M  V30 11719 O 1142.71 0.272747 1.92275 0
M  V30 11720 C 1139.84 0.895902 3.35546 0
M  V30 11721 C 1138.8 1.96468 3.80242 0
M  V30 11722 C 1138.12 1.51316 5.12843 0
M  V30 11723 C 1139.42 3.37637 3.98496 0
M  V30 11724 H 1141.12 2.13922 2.0947 0
M  V30 11725 H 1138.66 1.02989 1.00644 0
M  V30 11726 H 1140.61 0.807899 4.13583 0
M  V30 11727 H 1139.34 -0.0786636 3.26505 0
M  V30 11728 H 1138 2.0424 3.04437 0
M  V30 11729 H 1137.65 0.52674 5.00234 0
M  V30 11730 H 1137.35 2.22807 5.43719 0
M  V30 11731 H 1138.87 1.43903 5.93401 0
M  V30 11732 H 1140.28 3.326 4.66959 0
M  V30 11733 H 1138.68 4.07253 4.40755 0
M  V30 11734 H 1139.75 3.79205 3.02211 0
M  V30 11735 N 1141.09 -1.09351 1.1349 0
M  V30 11736 C 1142.04 -2.16008 0.812981 0
M  V30 11737 C 1143.01 -1.64566 -0.225252 0
M  V30 11738 O 1144.2 -1.90552 -0.0973261 0
M  V30 11739 C 1141.34 -3.43913 0.285996 0
M  V30 11740 C 1140.45 -4.09251 1.38338 0
M  V30 11741 C 1139.58 -5.24916 0.814652 0
M  V30 11742 C 1138.62 -5.82178 1.89038 0
M  V30 11743 N 1137.76 -6.89203 1.33955 0
M  V30 11744 H 1142.6 -2.42887 1.72655 0
M  V30 11745 H 1140.14 -1.19209 0.861833 0
M  V30 11746 H 1142.09 -4.17183 -0.0376794 0
M  V30 11747 H 1140.72 -3.17349 -0.590707 0
M  V30 11748 H 1139.78 -3.33838 1.82363 0
M  V30 11749 H 1141.09 -4.4784 2.19638 0
M  V30 11750 H 1140.24 -6.05086 0.442306 0
M  V30 11751 H 1138.98 -4.87691 -0.029416 0
M  V30 11752 H 1137.99 -5.00669 2.27179 0
M  V30 11753 H 1139.21 -6.21464 2.73787 0
M  V30 11754 H 1137.16 -6.53956 0.517494 0
M  V30 11755 H 1137.07 -7.26565 2.08902 0
M  V30 11756 H 1138.34 -7.73126 0.994793 0
M  V30 11757 N 1142.57 -0.928524 -1.27343 0
M  V30 11758 C 1143.82 -0.569392 -1.9433 0
M  V30 11759 C 1144.15 0.889481 -1.7297 0
M  V30 11760 O 1143.4 1.6499 -1.05247 0
M  V30 11761 C 1143.7 -0.84269 -3.47323 0
M  V30 11762 C 1143.37 -2.28344 -3.88806 0
M  V30 11763 C 1142.03 -2.67731 -3.99842 0
M  V30 11764 C 1144.38 -3.22031 -4.09811 0
M  V30 11765 C 1141.71 -3.99928 -4.29272 0
M  V30 11766 C 1144.06 -4.5381 -4.40725 0
M  V30 11767 C 1142.72 -4.93031 -4.49975 0
M  V30 11768 H 1141.99 -0.208355 -0.711104 0
M  V30 11769 H 1144.64 -1.17264 -1.51398 0
M  V30 11770 H 1142.95 -0.156775 -3.91486 0
M  V30 11771 H 1144.64 -0.543779 -3.97296 0
M  V30 11772 H 1141.23 -1.96787 -3.80753 0
M  V30 11773 H 1145.42 -2.92803 -4.00724 0
M  V30 11774 H 1140.67 -4.29996 -4.34642 0
M  V30 11775 H 1144.85 -5.26407 -4.55926 0
M  V30 11776 H 1142.47 -5.95497 -4.72533 0
M  V30 11777 O 1144.09 1.38369 -0.832851 0
M  V30 11778 H 1144.78 1.89123 -0.418591 0
M  V30 END ATOM
M  V30 BEGIN BOND
M  V30 END BOND
M  V30 END CTAB
M  END
$$$$
