drugbank_target|P13196 5-aminolevulinate synthase, nonspecific, mitochondrial (DB00114; DB00145)
 OpenBabel12092119313D

  0  0  0     0  0            999 V3000
M  V30 BEGIN CTAB
M  V30 COUNTS 9882 9986 0 0 0
M  V30 BEGIN ATOM
M  V30 1 H -0.908 1.98254 -0.117106 0
M  V30 2 N 0 1.576 0 0
M  V30 3 C 0.933 2.03868 1.02534 0
M  V30 4 C 1.911 0.928543 1.3348 0
M  V30 5 O 3.095 1.19667 1.45644 0
M  V30 6 C 0.222 2.43627 2.35294 0
M  V30 7 C -0.732 3.65373 2.2001 0
M  V30 8 S 0.101 5.13292 1.52614 0
M  V30 9 C 1.257 5.56322 2.86805 0
M  V30 10 H 1.49 2.90518 0.631377 0
M  V30 11 H -0.977 1.52953 0.210867 0
M  V30 12 H 0.981 2.67203 3.11629 0
M  V30 13 H -0.358 1.57376 2.7183 0
M  V30 14 H -1.165 3.90944 3.18086 0
M  V30 15 H -1.563 3.418 1.51819 0
M  V30 16 H 0.729 5.58782 3.83104 0
M  V30 17 H 1.672 6.56266 2.65933 0
M  V30 18 H 2.08 4.83886 2.90714 0
M  V30 19 N 1.4781 -0.272755 1.55222 0
M  V30 20 C 2.3881 -1.35918 1.91216 0
M  V30 21 C 3.4041 -1.54026 0.809436 0
M  V30 22 O 4.5801 -1.68148 1.10852 0
M  V30 23 C 1.6451 -2.69834 2.17693 0
M  V30 24 C 0.7061 -2.6047 3.41253 0
M  V30 25 C -0.0609 -3.88 3.66458 0
M  V30 26 O 0.1621 -4.88693 2.94169 0
M  V30 27 O -0.9039 -3.88189 4.59992 0
M  V30 28 H 2.9221 -1.0839 2.83699 0
M  V30 29 H 0.5071 -0.471301 1.41771 0
M  V30 30 H 2.3891 -3.49017 2.36147 0
M  V30 31 H 1.0641 -2.97148 1.28392 0
M  V30 32 H -0.0289 -1.79663 3.28134 0
M  V30 33 H 1.3041 -2.38106 4.30774 0
M  V30 34 N 2.9562 -1.48159 -0.537278 0
M  V30 35 C 4.1812 -1.59707 -1.32319 0
M  V30 36 C 4.6062 -0.254859 -1.86365 0
M  V30 37 O 3.9642 0.772378 -1.64024 0
M  V30 38 C 4.0122 -2.6412 -2.45505 0
M  V30 39 O 3.1162 -2.20774 -3.48328 0
M  V30 40 H 2.4572 -0.535791 -0.392204 0
M  V30 41 H 4.9872 -1.94092 -0.647268 0
M  V30 42 H 4.9972 -2.85166 -2.91795 0
M  V30 43 H 3.6722 -3.61567 -2.05528 0
M  V30 44 H 2.2492 -2.09911 -3.08207 0
M  V30 45 N 4.4343 0.785586 -1.36625 0
M  V30 46 C 5.6803 1.54591 -1.31261 0
M  V30 47 C 6.0133 1.93906 0.106823 0
M  V30 48 O 5.2883 1.63007 1.06108 0
M  V30 49 C 5.5713 2.82038 -2.23889 0
M  V30 50 C 5.4243 2.49066 -3.74548 0
M  V30 51 C 6.7433 3.83887 -2.15217 0
M  V30 52 H 3.8623 0.560846 -0.478143 0
M  V30 53 H 6.5043 0.902278 -1.67209 0
M  V30 54 H 4.6543 3.36961 -1.93363 0
M  V30 55 H 6.3263 2.00164 -4.15611 0
M  V30 56 H 4.5693 1.81954 -3.93796 0
M  V30 57 H 5.2403 3.40109 -4.34776 0
M  V30 58 H 7.7163 3.38421 -2.42096 0
M  V30 59 H 6.5923 4.70806 -2.82193 0
M  V30 60 H 6.8533 4.27131 -1.14068 0
M  V30 61 N 5.9124 1.20967 1.01018 0
M  V30 62 C 7.1584 1.02526 1.74975 0
M  V30 63 C 7.4914 -0.4408 1.89131 0
M  V30 64 O 6.7664 -1.32718 1.42184 0
M  V30 65 C 7.0494 1.71699 3.1653 0
M  V30 66 C 6.9024 3.25791 3.10129 0
M  V30 67 C 8.2214 1.45531 4.15342 0
M  V30 68 H 5.3404 0.373863 0.635134 0
M  V30 69 H 7.9824 1.49071 1.17805 0
M  V30 70 H 6.1324 1.32128 3.65341 0
M  V30 71 H 7.8044 3.74697 2.69072 0
M  V30 72 H 6.0474 3.56363 2.47362 0
M  V30 73 H 6.7184 3.69353 4.10222 0
M  V30 74 H 9.1944 1.79872 3.75213 0
M  V30 75 H 8.0704 1.96453 5.1254 0
M  V30 76 H 8.3314 0.384237 4.40427 0
M  V30 77 N 7.3905 -1.2043 1.01659 0
M  V30 78 C 8.8065 -1.41852 0.731442 0
M  V30 79 C 9.0065 -1.89358 -0.688898 0
M  V30 80 O 8.0625 -2.06247 -1.45666 0
M  V30 81 C 9.3755 -2.44019 1.75714 0
M  V30 82 C 10.9235 -2.57785 1.77527 0
M  V30 83 C 11.3985 -3.63194 2.79023 0
M  V30 84 N 12.8895 -3.70678 2.77763 0
M  V30 85 C 13.6245 -4.51897 3.52954 0
M  V30 86 N 13.1205 -5.36921 4.37821 0
M  V30 87 N 14.9135 -4.4643 3.41551 0
M  V30 88 H 7.0645 -0.879093 1.93354 0
M  V30 89 H 9.3275 -0.448425 0.835236 0
M  V30 90 H 9.0335 -2.1611 2.77469 0
M  V30 91 H 8.9075 -3.43007 1.56927 0
M  V30 92 H 11.2945 -2.85023 0.764569 0
M  V30 93 H 11.3755 -1.58992 2.00387 0
M  V30 94 H 11.0195 -3.36699 3.80258 0
M  V30 95 H 10.9495 -4.61609 2.53425 0
M  V30 96 H 13.4405 -3.09944 2.16201 0
M  V30 97 H 13.7535 -5.95981 4.91962 0
M  V30 98 H 12.0985 -5.36424 4.41899 0
M  V30 99 H 15.2895 -3.79042 2.74672 0
M  V30 100 H 15.4625 -5.09491 4.00404 0
M  V30 101 N 8.8686 -0.792821 -1.36206 0
M  V30 102 C 10.2846 -0.474903 -1.52371 0
M  V30 103 C 10.4846 1.00622 -1.74578 0
M  V30 104 O 9.5406 1.79162 -1.77924 0
M  V30 105 C 10.8536 -1.3083 -2.70747 0
M  V30 106 C 12.4016 -1.30234 -2.84619 0
M  V30 107 C 12.8766 -2.11956 -4.06004 0
M  V30 108 N 14.3676 -2.09419 -4.13156 0
M  V30 109 C 15.1026 -2.69419 -5.06163 0
M  V30 110 N 14.5986 -3.3829 -6.04592 0
M  V30 111 N 16.3916 -2.59134 -4.98804 0
M  V30 112 H 8.5426 -1.75222 -1.20046 0
M  V30 113 H 10.8056 -0.745024 -0.586211 0
M  V30 114 H 10.5116 -2.35881 -2.6087 0
M  V30 115 H 10.3856 -0.95196 -3.6499 0
M  V30 116 H 12.7726 -0.259748 -2.93955 0
M  V30 117 H 12.8536 -1.69847 -1.91274 0
M  V30 118 H 12.4976 -3.16248 -3.97429 0
M  V30 119 H 12.4276 -1.69711 -4.98503 0
M  V30 120 H 14.9186 -1.59297 -3.42685 0
M  V30 121 H 15.2316 -3.81394 -6.7213 0
M  V30 122 H 13.5766 -3.42393 -6.04807 0
M  V30 123 H 16.7676 -2.04927 -4.20859 0
M  V30 124 H 16.9406 -3.06185 -5.711 0
M  V30 125 N 10.3467 1.47872 -0.545128 0
M  V30 126 C 11.5867 2.04391 -0.0187854 0
M  V30 127 C 11.9507 1.41162 1.30144 0
M  V30 128 O 13.1517 1.88656 1.91474 0
M  V30 129 C 11.4227 3.57299 0.0850867 0
M  V30 130 S 12.9817 4.35221 0.559302 0
M  V30 131 H 9.7997 0.710737 -0.0193301 0
M  V30 132 H 12.4017 1.81395 -0.729125 0
M  V30 133 H 11.1057 4.00847 -0.880351 0
M  V30 134 H 10.6367 3.84773 0.819348 0
M  V30 135 H 12.6517 4.61571 1.82118 0
M  V30 136 N 11.8248 0.280983 1.55075 0
M  V30 137 C 13.2358 -0.215629 1.85451 0
M  V30 138 C 13.5868 -1.54991 1.203 0
M  V30 139 O 12.7118 -2.10699 0.493435 0
M  V30 140 C 13.3068 -0.398026 3.36454 0
M  V30 141 C 11.8658 -0.838866 3.66933 0
M  V30 142 C 11.0128 0.064458 2.77225 0
M  V30 143 H 13.9638 0.502601 1.50531 0
M  V30 144 H 13.9848 -1.23569 3.59876 0
M  V30 145 H 13.4968 0.573241 3.83843 0
M  V30 146 H 11.5978 -1.8214 3.25048 0
M  V30 147 H 11.7108 -0.672123 4.74362 0
M  V30 148 H 10.0748 -0.452863 2.50642 0
M  V30 149 H 10.8578 1.03172 3.2743 0
M  V30 150 N 13.3029 -1.57598 0.00835791 0
M  V30 151 C 14.5499 -1.90928 -0.674732 0
M  V30 152 C 14.8779 -0.88277 -1.73313 0
M  V30 153 O 14.1329 0.111294 -1.95383 0
M  V30 154 C 14.4319 -3.3101 -1.34787 0
M  V30 155 C 14.0979 -4.48922 -0.421861 0
M  V30 156 C 12.7599 -4.8091 -0.166927 0
M  V30 157 C 15.1119 -5.20755 0.215211 0
M  V30 158 C 12.4399 -5.821 0.733232 0
M  V30 159 C 14.7919 -6.22905 1.1033 0
M  V30 160 C 13.4559 -6.53346 1.36733 0
M  V30 161 H 12.7259 -0.698656 -0.246902 0
M  V30 162 H 15.3729 -1.91387 0.0656779 0
M  V30 163 H 13.6779 -3.26714 -2.16253 0
M  V30 164 H 15.3749 -3.54061 -1.8826 0
M  V30 165 H 11.9649 -4.23934 -0.630729 0
M  V30 166 H 16.1489 -4.9629 0.0312829 0
M  V30 167 H 11.4049 -6.04042 0.945712 0
M  V30 168 H 15.5789 -6.77694 1.60325 0
M  V30 169 H 13.2059 -7.31573 2.06652 0
M  V30 170 N 14.781 0.264519 -1.55364 0
M  V30 171 C 15.711 1.33121 -1.91836 0
M  V30 172 C 16.692 1.51101 -0.781192 0
M  V30 173 O 17.877 1.64003 -1.04003 0
M  V30 174 C 15.007 2.68921 -2.19769 0
M  V30 175 C 13.961 2.65661 -3.35571 0
M  V30 176 C 13.287 4.05093 -3.49004 0
M  V30 177 C 14.587 2.24187 -4.71739 0
M  V30 178 H 16.281 1.02844 -2.81182 0
M  V30 179 H 13.827 0.493286 -1.35287 0
M  V30 180 H 15.78 3.43663 -2.43872 0
M  V30 181 H 14.504 3.00799 -1.27231 0
M  V30 182 H 13.163 1.93377 -3.1145 0
M  V30 183 H 12.811 4.34206 -2.53917 0
M  V30 184 H 12.511 4.03804 -4.26868 0
M  V30 185 H 14.035 4.81561 -3.75408 0
M  V30 186 H 15.449 2.88654 -4.9533 0
M  V30 187 H 13.846 2.34044 -5.52579 0
M  V30 188 H 14.916 1.19327 -4.69988 0
M  V30 189 N 16.2591 1.48442 0.529413 0
M  V30 190 C 17.4841 1.60406 1.31471 0
M  V30 191 C 17.9091 0.264738 1.86228 0
M  V30 192 O 17.2671 -0.763668 1.64432 0
M  V30 193 C 17.3151 2.65419 2.44101 0
M  V30 194 O 16.4191 2.22618 3.47153 0
M  V30 195 H 15.7601 0.537863 0.389357 0
M  V30 196 H 18.2901 1.94432 0.636965 0
M  V30 197 H 18.3001 2.86709 2.90279 0
M  V30 198 H 16.9751 3.62652 2.03608 0
M  V30 199 H 15.5521 2.11543 3.0709 0
M  V30 200 N 17.7372 -0.778329 1.37039 0
M  V30 201 C 19.1532 -1.07796 1.17695 0
M  V30 202 C 19.3532 -2.01498 0.00860115 0
M  V30 203 O 18.4092 -2.43901 -0.653352 0
M  V30 204 C 19.7222 -1.68178 2.49272 0
M  V30 205 C 21.2702 -1.80467 2.55735 0
M  V30 206 C 21.7452 -2.44263 3.87427 0
M  V30 207 N 23.2362 -2.51721 3.88833 0
M  V30 208 C 23.9712 -3.01919 4.87476 0
M  V30 209 N 23.4672 -3.5234 5.96513 0
M  V30 210 N 25.2602 -3.00733 4.74885 0
M  V30 211 H 17.4112 -0.156032 2.11826 0
M  V30 212 H 19.6742 -0.131844 0.938787 0
M  V30 213 H 19.3802 -1.06796 3.35093 0
M  V30 214 H 19.2542 -2.67554 2.65885 0
M  V30 215 H 21.6412 -2.40984 1.70325 0
M  V30 216 H 21.7222 -0.798656 2.43013 0
M  V30 217 H 21.3662 -1.84388 4.73248 0
M  V30 218 H 21.2962 -3.45458 3.9745 0
M  V30 219 H 23.7872 -2.1603 3.10063 0
M  V30 220 H 24.1002 -3.89027 6.67741 0
M  V30 221 H 22.4452 -3.50462 6.00168 0
M  V30 222 H 25.6362 -2.60638 3.88826 0
M  V30 223 H 25.8092 -3.39545 5.51918 0
M  V30 224 N 19.2153 -1.21501 -1.00376 0
M  V30 225 C 20.4613 -1.03452 -1.74429 0
M  V30 226 C 20.7943 0.430764 -1.89362 0
M  V30 227 O 20.0693 1.31962 -1.42886 0
M  V30 228 C 20.3523 -1.73375 -3.15615 0
M  V30 229 C 20.2053 -3.27431 -3.08397 0
M  V30 230 C 21.5243 -1.47732 -4.14564 0
M  V30 231 H 18.6433 -0.377226 -0.633143 0
M  V30 232 H 21.2853 -1.49693 -1.17013 0
M  V30 233 H 19.4353 -1.34064 -3.64636 0
M  V30 234 H 21.1073 -3.76119 -2.67081 0
M  V30 235 H 19.3503 -3.5767 -2.45468 0
M  V30 236 H 20.0213 -3.71524 -4.08258 0
M  V30 237 H 22.4973 -1.8186 -3.74254 0
M  V30 238 H 21.3733 -1.99169 -5.11491 0
M  V30 239 H 21.6343 -0.407589 -4.40217 0
M  V30 240 N 20.6934 1.19889 -1.02296 0
M  V30 241 C 22.1044 1.71124 -0.746568 0
M  V30 242 C 22.4554 1.81939 0.734335 0
M  V30 243 O 21.5804 1.48639 1.57275 0
M  V30 244 C 22.1754 3.10804 -1.34857 0
M  V30 245 C 20.7344 3.59323 -1.1209 0
M  V30 246 C 19.8814 2.3635 -1.45031 0
M  V30 247 H 22.8324 1.04813 -1.19163 0
M  V30 248 H 22.8534 3.73186 -0.742437 0
M  V30 249 H 22.3654 3.029 -2.42638 0
M  V30 250 H 20.4664 3.7255 -0.0610337 0
M  V30 251 H 20.5794 4.4378 -1.80544 0
M  V30 252 H 18.9434 2.39399 -0.869487 0
M  V30 253 H 19.7264 2.31081 -2.53883 0
M  V30 254 N 22.1715 0.800033 1.35784 0
M  V30 255 C 23.1035 0.163596 2.28615 0
M  V30 256 C 24.1165 -0.633317 1.49976 0
M  V30 257 O 25.3055 -0.466754 1.72289 0
M  V30 258 C 22.4055 -0.790958 3.29541 0
M  V30 259 C 21.5785 -0.0418255 4.3738 0
M  V30 260 C 20.6375 -0.91389 5.18203 0
M  V30 261 O 19.6635 -0.367234 5.68014 0
M  V30 262 N 20.8655 -2.23682 5.35674 0
M  V30 263 H 23.6305 0.96105 2.83873 0
M  V30 264 H 21.1915 0.654894 1.48063 0
M  V30 265 H 23.1835 -1.37844 3.80501 0
M  V30 266 H 21.7535 -1.48925 2.74846 0
M  V30 267 H 20.9735 0.726813 3.87442 0
M  V30 268 H 22.2615 0.474719 5.06581 0
M  V30 269 H 21.6595 -2.70497 4.96838 0
M  V30 270 H 20.2165 -2.77369 5.89839 0
M  V30 271 N 23.6496 -1.47581 0.552962 0
M  V30 272 C 24.6126 -2.28439 -0.186605 0
M  V30 273 C 25.6126 -1.36706 -0.84665 0
M  V30 274 O 26.8026 -1.59378 -0.703164 0
M  V30 275 C 23.9346 -3.16264 -1.2724 0
M  V30 276 H 25.1276 -2.95294 0.523609 0
M  V30 277 H 22.6806 -1.532 0.309745 0
M  V30 278 H 23.4156 -2.54091 -2.01514 0
M  V30 279 H 23.2006 -3.83769 -0.803968 0
M  V30 280 H 24.6906 -3.77198 -1.79196 0
M  V30 281 N 25.1277 -0.289203 -1.54924 0
M  V30 282 C 26.3747 0.323519 -1.99899 0
M  V30 283 C 26.7027 1.54797 -1.17762 0
M  V30 284 O 25.9577 1.94237 -0.238835 0
M  V30 285 C 26.2567 0.736119 -3.49737 0
M  V30 286 C 25.9227 -0.385276 -4.49251 0
M  V30 287 C 24.5847 -0.693156 -4.76181 0
M  V30 288 C 26.9367 -1.14021 -5.08575 0
M  V30 289 C 24.2647 -1.7593 -5.59701 0
M  V30 290 C 26.6167 -2.19619 -5.93254 0
M  V30 291 C 25.2807 -2.51026 -6.185 0
M  V30 292 H 24.5507 0.118384 -0.731482 0
M  V30 293 H 27.1977 -0.405847 -1.8715 0
M  V30 294 H 25.5027 1.54539 -3.60035 0
M  V30 295 H 27.1997 1.22118 -3.81953 0
M  V30 296 H 23.7897 -0.135202 -4.28387 0
M  V30 297 H 27.9737 -0.915611 -4.87781 0
M  V30 298 H 23.2297 -2.0075 -5.77503 0
M  V30 299 H 27.4037 -2.78581 -6.38252 0
M  V30 300 H 25.0307 -3.33772 -6.83008 0
M  V30 301 N 26.6058 1.57591 -0.0167156 0
M  V30 302 C 27.5358 2.12496 0.967858 0
M  V30 303 C 28.5168 1.03807 1.34752 0
M  V30 304 O 29.7018 1.31577 1.42833 0
M  V30 305 C 26.8318 2.64194 2.25431 0
M  V30 306 C 25.7858 3.77559 2.01576 0
M  V30 307 C 25.1118 4.15636 3.36379 0
M  V30 308 C 26.4118 5.04151 1.36489 0
M  V30 309 H 28.1058 2.95013 0.510643 0
M  V30 310 H 25.6518 1.41915 0.244181 0
M  V30 311 H 27.6048 3.01236 2.94678 0
M  V30 312 H 26.3288 1.78821 2.73296 0
M  V30 313 H 24.9878 3.40937 1.34751 0
M  V30 314 H 24.6358 3.27263 3.81979 0
M  V30 315 H 24.3358 4.92022 3.21229 0
M  V30 316 H 25.8598 4.5525 4.06915 0
M  V30 317 H 27.2738 5.38857 1.95718 0
M  V30 318 H 25.6708 5.85453 1.31776 0
M  V30 319 H 26.7408 4.83733 0.336219 0
M  V30 320 N 28.0839 -0.256276 1.55502 0
M  V30 321 C 29.0159 -1.33981 1.85962 0
M  V30 322 C 30.0289 -1.44743 0.745212 0
M  V30 323 O 31.2179 -1.4626 1.02324 0
M  V30 324 C 28.3179 -2.7194 2.02242 0
M  V30 325 C 27.4909 -2.83562 3.33033 0
M  V30 326 C 26.5499 -4.02304 3.39172 0
M  V30 327 O 25.5759 -3.92273 4.12444 0
M  V30 328 N 26.7779 -5.15045 2.67784 0
M  V30 329 H 29.5429 -1.08191 2.7949 0
M  V30 330 H 27.1039 -0.446388 1.55624 0
M  V30 331 H 29.0959 -3.49697 2.03701 0
M  V30 332 H 27.6659 -2.90479 1.15502 0
M  V30 333 H 26.8859 -1.92555 3.43971 0
M  V30 334 H 28.1739 -2.88271 4.19258 0
M  V30 335 H 27.5719 -5.26085 2.07968 0
M  V30 336 H 26.1289 -5.90972 2.74947 0
M  V30 337 N 29.562 -1.4872 -0.521534 0
M  V30 338 C 30.509 -1.63871 -1.62527 0
M  V30 339 C 31.479 -0.480559 -1.58996 0
M  V30 340 O 32.664 -0.705085 -1.77294 0
M  V30 341 C 29.804 -1.69227 -3.00759 0
M  V30 342 C 28.917 -2.96207 -3.14461 0
M  V30 343 C 28.052 -2.92671 -4.43303 0
M  V30 344 C 27.091 -4.14318 -4.50563 0
M  V30 345 N 26.228 -4.0881 -5.70805 0
M  V30 346 H 31.068 -2.58123 -1.48918 0
M  V30 347 H 28.605 -1.28 -0.724878 0
M  V30 348 H 30.563 -1.70314 -3.80853 0
M  V30 349 H 29.193 -0.784586 -3.1312 0
M  V30 350 H 28.245 -3.04826 -2.27564 0
M  V30 351 H 29.557 -3.86192 -3.15686 0
M  V30 352 H 28.711 -2.92206 -5.31696 0
M  V30 353 H 27.45 -2.00429 -4.44612 0
M  V30 354 H 26.455 -4.15049 -3.60575 0
M  V30 355 H 27.68 -5.07729 -4.50986 0
M  V30 356 H 25.626 -3.19394 -5.72995 0
M  V30 357 H 25.543 -4.92509 -5.7356 0
M  V30 358 H 26.811 -4.12418 -6.61462 0
M  V30 359 N 31.0401 0.771051 -1.3745 0
M  V30 360 C 32.0031 1.86598 -1.33093 0
M  V30 361 C 33.0031 1.59076 -0.234845 0
M  V30 362 O 34.1931 1.67145 -0.490732 0
M  V30 363 C 31.3251 3.23747 -1.06773 0
M  V30 364 H 32.5181 1.91873 -2.30488 0
M  V30 365 H 30.0711 0.970876 -1.2249 0
M  V30 366 H 30.8061 3.24148 -0.099129 0
M  V30 367 H 30.5911 3.45115 -1.86112 0
M  V30 368 H 32.0811 4.03824 -1.06377 0
M  V30 369 N 32.5182 1.22032 0.997298 0
M  V30 370 C 33.7662 1.04016 1.73278 0
M  V30 371 C 34.0872 -0.426255 1.90284 0
M  V30 372 O 33.3572 -1.30694 1.45931 0
M  V30 373 H 31.9372 0.381897 0.642 0
M  V30 374 H 34.5992 1.5347 1.20137 0
M  V30 375 H 33.6952 1.51441 2.72896 0
M  V30 376 N 33.9963 -1.19345 1.0293 0
M  V30 377 C 34.9433 -2.2258 0.610464 0
M  V30 378 C 35.9133 -1.6179 -0.375946 0
M  V30 379 O 37.0983 -1.88844 -0.272511 0
M  V30 380 C 34.2383 -3.45085 -0.0321473 0
M  V30 381 C 33.3513 -4.20258 1.00035 0
M  V30 382 C 32.4863 -5.3019 0.32746 0
M  V30 383 C 31.5253 -5.97121 1.34584 0
M  V30 384 N 30.6623 -6.98615 0.698726 0
M  V30 385 H 35.5023 -2.57764 1.49538 0
M  V30 386 H 33.0393 -1.26644 0.748311 0
M  V30 387 H 34.9973 -4.15061 -0.421966 0
M  V30 388 H 33.6273 -3.10555 -0.88064 0
M  V30 389 H 32.6793 -3.49223 1.50823 0
M  V30 390 H 33.9913 -4.66175 1.77433 0
M  V30 391 H 33.1453 -6.06587 -0.11718 0
M  V30 392 H 31.8843 -4.85345 -0.478713 0
M  V30 393 H 30.8893 -5.19474 1.80074 0
M  V30 394 H 32.1143 -6.4405 2.15352 0
M  V30 395 H 30.0603 -6.55942 -0.0873471 0
M  V30 396 H 29.9773 -7.42724 1.41058 0
M  V30 397 H 31.2453 -7.79004 0.278102 0
M  V30 398 N 35.4744 -0.807222 -1.35358 0
M  V30 399 C 36.6994 -0.399309 -2.0352 0
M  V30 400 C 37.1244 0.981986 -1.60433 0
M  V30 401 O 36.4824 1.63601 -0.781299 0
M  V30 402 C 36.5304 -0.491552 -3.57234 0
M  V30 403 O 35.6344 0.494754 -4.09421 0
M  V30 404 H 34.9754 -0.166682 -0.642739 0
M  V30 405 H 37.5054 -1.09328 -1.72941 0
M  V30 406 H 37.5154 -0.361588 -4.06395 0
M  V30 407 H 36.1904 -1.49907 -3.87944 0
M  V30 408 H 34.7674 0.324977 -3.71481 0
M  V30 409 N 36.9525 1.47285 -0.560781 0
M  V30 410 C 37.8825 2.32857 0.173105 0
M  V30 411 C 38.8635 1.44009 0.905281 0
M  V30 412 O 40.0485 1.7286 0.885046 0
M  V30 413 C 37.1785 3.25861 1.20133 0
M  V30 414 C 36.1325 4.23978 0.585388 0
M  V30 415 C 35.4585 5.06332 1.7185 0
M  V30 416 C 36.7585 5.20242 -0.463178 0
M  V30 417 H 38.4525 2.94466 -0.541307 0
M  V30 418 H 35.9985 1.41601 -0.261764 0
M  V30 419 H 37.9515 3.84569 1.72293 0
M  V30 420 H 36.6755 2.62315 1.94573 0
M  V30 421 H 35.3345 3.66501 0.085054 0
M  V30 422 H 34.9825 4.39186 2.45203 0
M  V30 423 H 34.6825 5.72762 1.31213 0
M  V30 424 H 36.2065 5.67899 2.24329 0
M  V30 425 H 37.6205 5.73293 -0.027502 0
M  V30 426 H 36.0175 5.94896 -0.788627 0
M  V30 427 H 37.0875 4.65504 -1.35773 0
M  V30 428 N 38.4306 0.297415 1.54768 0
M  V30 429 C 39.3606 -0.573494 2.26348 0
M  V30 430 C 40.3416 -1.14085 1.26169 0
M  V30 431 O 41.5266 -1.17086 1.54934 0
M  V30 432 C 38.6566 -1.74716 3.00153 0
M  V30 433 C 37.6106 -1.31032 4.07449 0
M  V30 434 C 36.9366 -2.56887 4.68949 0
M  V30 435 C 38.2366 -0.444183 5.20408 0
M  V30 436 H 39.9306 0.0235131 2.99391 0
M  V30 437 H 37.4766 0.0127488 1.43994 0
M  V30 438 H 39.4296 -2.3625 3.48947 0
M  V30 439 H 38.1536 -2.37035 2.24682 0
M  V30 440 H 36.8126 -0.718066 3.59499 0
M  V30 441 H 36.4606 -3.17512 3.90122 0
M  V30 442 H 36.1606 -2.2836 5.41411 0
M  V30 443 H 37.6846 -3.19229 5.20505 0
M  V30 444 H 39.0986 -0.9651 5.65118 0
M  V30 445 H 37.4956 -0.252846 5.99567 0
M  V30 446 H 38.5656 0.531609 4.81977 0
M  V30 447 N 39.9087 -1.5758 0.0250728 0
M  V30 448 C 41.1557 -1.91633 -0.654444 0
M  V30 449 C 41.4837 -0.901103 -1.72367 0
M  V30 450 O 40.7387 0.0905647 -1.9549 0
M  V30 451 C 41.0377 -3.32421 -1.31268 0
M  V30 452 C 40.7037 -4.49344 -0.374223 0
M  V30 453 C 39.3657 -4.8106 -0.115911 0
M  V30 454 C 41.7177 -5.20498 0.270432 0
M  V30 455 C 39.0457 -5.8129 0.79493 0
M  V30 456 C 41.3977 -6.21699 1.1693 0
M  V30 457 C 40.0617 -6.51859 1.43655 0
M  V30 458 H 39.3317 -0.701236 -0.239478 0
M  V30 459 H 41.9787 -1.91307 0.0859734 0
M  V30 460 H 40.2837 -3.28989 -2.12775 0
M  V30 461 H 41.9807 -3.56038 -1.84494 0
M  V30 462 H 38.5707 -4.24579 -0.58573 0
M  V30 463 H 42.7547 -4.96229 0.0839194 0
M  V30 464 H 38.0107 -6.03005 1.00973 0
M  V30 465 H 42.1847 -6.75955 1.67504 0
M  V30 466 H 39.8117 -7.2934 2.144 0
M  V30 467 N 41.3868 0.248026 -1.55636 0
M  V30 468 C 42.6168 0.992367 -1.81206 0
M  V30 469 C 43.0248 1.7949 -0.598324 0
M  V30 470 O 42.3678 1.78292 0.442434 0
M  V30 471 C 42.4298 1.97926 -3.00109 0
M  V30 472 C 42.0938 1.36377 -4.36177 0
M  V30 473 C 43.0908 0.76682 -5.14214 0
M  V30 474 C 40.7758 1.38347 -4.82872 0
M  V30 475 C 42.7698 0.197778 -6.37093 0
M  V30 476 C 40.4568 0.810574 -6.057 0
M  V30 477 C 41.4548 0.218754 -6.8265 0
M  V30 478 O 41.1428 -0.345298 -8.03158 0
M  V30 479 H 40.8748 0.297704 -0.606917 0
M  V30 480 H 43.4288 0.276517 -2.0353 0
M  V30 481 H 41.6588 2.73339 -2.73538 0
M  V30 482 H 43.3478 2.58694 -3.12781 0
M  V30 483 H 44.1138 0.744114 -4.79258 0
M  V30 484 H 39.9928 1.8335 -4.2297 0
M  V30 485 H 43.5368 -0.264788 -6.97097 0
M  V30 486 H 39.4338 0.830604 -6.40134 0
M  V30 487 H 40.2018 -0.237055 -8.18157 0
M  V30 488 N 42.8649 1.48995 0.513639 0
M  V30 489 C 43.8279 1.64229 1.59879 0
M  V30 490 C 44.8279 0.514696 1.5234 0
M  V30 491 O 46.0179 0.78087 1.55718 0
M  V30 492 C 43.1499 1.62783 2.99524 0
M  V30 493 H 44.3429 2.61004 1.47705 0
M  V30 494 H 41.8959 1.37837 0.736936 0
M  V30 495 H 42.6309 0.675461 3.17188 0
M  V30 496 H 42.4159 2.4466 3.06404 0
M  V30 497 H 43.9059 1.76669 3.78388 0
M  V30 498 N 44.343 -0.763751 1.37857 0
M  V30 499 C 45.275 -1.88664 1.30148 0
M  V30 500 C 46.288 -1.61365 0.215685 0
M  V30 501 O 47.477 -1.72134 0.472459 0
M  V30 502 C 44.577 -3.24075 0.991396 0
M  V30 503 C 43.75 -3.78958 2.18426 0
M  V30 504 C 42.809 -4.92862 1.8432 0
M  V30 505 O 41.835 -5.08027 2.56704 0
M  V30 506 N 43.037 -5.75071 0.792081 0
M  V30 507 H 45.802 -1.95791 2.26905 0
M  V30 508 H 43.363 -0.943226 1.31586 0
M  V30 509 H 45.355 -3.97804 0.743935 0
M  V30 510 H 43.925 -3.12399 0.112122 0
M  V30 511 H 43.145 -2.96913 2.59299 0
M  V30 512 H 44.433 -4.12357 2.98058 0
M  V30 513 H 43.831 -5.65375 0.191595 0
M  V30 514 H 42.388 -6.48991 0.60449 0
M  V30 515 N 45.8211 -1.22559 -0.990812 0
M  V30 516 C 46.7691 -0.994798 -2.10253 0
M  V30 517 C 47.7631 0.0627798 -1.69284 0
M  V30 518 O 48.9691 -0.0898392 -1.79776 0
M  V30 519 H 45.3441 -0.304527 -0.687581 0
M  V30 520 H 47.3151 -1.93812 -2.26891 0
M  V30 521 C 46.0641 -0.591439 -3.42633 0
M  V30 522 H 45.3871 -1.3969 -3.74602 0
M  V30 523 H 46.8271 -0.469385 -4.21394 0
M  V30 524 C 45.2861 0.699232 -3.29564 0
M  V30 525 O 45.8161 1.75112 -3.61523 0
M  V30 526 N 44.0221 0.671182 -2.82743 0
M  V30 527 H 43.5691 -0.185136 -2.56934 0
M  V30 528 H 43.5271 1.53502 -2.7438 0
M  V30 529 N 47.2992 1.18797 -1.03562 0
M  V30 530 C 48.5392 1.90346 -0.744832 0
M  V30 531 C 48.9032 1.78231 0.713972 0
M  V30 532 O 50.1042 2.44441 1.11813 0
M  V30 533 C 48.3752 3.36942 -1.19184 0
M  V30 534 S 49.9342 4.26638 -1.02593 0
M  V30 535 H 46.7522 0.657343 -0.270963 0
M  V30 536 H 49.3542 1.43579 -1.32685 0
M  V30 537 H 48.0582 3.43287 -2.24905 0
M  V30 538 H 47.5892 3.88745 -0.603397 0
M  V30 539 H 49.6042 4.96164 0.0596033 0
M  V30 540 N 48.7773 0.814389 1.34928 0
M  V30 541 C 50.1883 0.458364 1.80986 0
M  V30 542 C 50.5393 -1.02042 1.67577 0
M  V30 543 O 49.6643 -1.79352 1.21086 0
M  V30 544 C 50.2593 0.825212 3.28597 0
M  V30 545 C 48.8183 0.521677 3.72767 0
M  V30 546 C 47.9653 1.04668 2.56788 0
M  V30 547 H 50.9163 1.00533 1.22795 0
M  V30 548 H 50.9373 0.12571 3.80292 0
M  V30 549 H 50.4493 1.90154 3.38324 0
M  V30 550 H 48.5503 -0.545589 3.68584 0
M  V30 551 H 48.6633 1.05977 4.67232 0
M  V30 552 H 47.0273 0.468622 2.50352 0
M  V30 553 H 47.8103 2.12927 2.6929 0
M  V30 554 N 50.2554 -1.46986 0.568584 0
M  V30 555 C 51.2024 -2.30153 -0.172707 0
M  V30 556 C 52.1724 -1.39759 -0.897586 0
M  V30 557 O 53.3574 -1.68716 -0.891044 0
M  V30 558 C 50.4974 -3.23952 -1.1895 0
M  V30 559 C 49.6104 -4.29441 -0.469517 0
M  V30 560 C 48.7454 -5.1038 -1.47259 0
M  V30 561 C 47.7844 -6.07632 -0.738225 0
M  V30 562 N 46.9214 -6.8149 -1.68868 0
M  V30 563 H 51.7614 -2.93019 0.542596 0
M  V30 564 H 49.2984 -1.44422 0.279401 0
M  V30 565 H 51.2564 -3.76767 -1.79173 0
M  V30 566 H 49.8864 -2.62926 -1.87269 0
M  V30 567 H 48.9384 -3.79594 0.247467 0
M  V30 568 H 50.2504 -4.98689 0.105241 0
M  V30 569 H 49.4044 -5.67402 -2.14803 0
M  V30 570 H 48.1434 -4.4106 -2.08128 0
M  V30 571 H 47.1484 -5.49778 -0.0489293 0
M  V30 572 H 48.3734 -6.78966 -0.135129 0
M  V30 573 H 46.3194 -6.14891 -2.28573 0
M  V30 574 H 46.2364 -7.46948 -1.16636 0
M  V30 575 H 47.5044 -7.43078 -2.3549 0
M  V30 576 N 51.7335 -0.305618 -1.54608 0
M  V30 577 C 52.6665 0.610536 -2.19881 0
M  V30 578 C 53.6445 1.1294 -1.16976 0
M  V30 579 O 54.8285 1.19673 -1.45638 0
M  V30 580 C 51.9555 1.83583 -2.84631 0
M  V30 581 C 51.0015 1.4498 -4.01102 0
M  V30 582 S 51.8345 0.501793 -5.33144 0
M  V30 583 C 52.9905 1.73478 -6.01379 0
M  V30 584 H 53.2235 0.0560177 -2.97247 0
M  V30 585 H 50.7565 -0.0897434 -1.54139 0
M  V30 586 H 52.7145 2.53898 -3.22562 0
M  V30 587 H 51.3755 2.36152 -2.07102 0
M  V30 588 H 50.5685 2.36236 -4.45206 0
M  V30 589 H 50.1705 0.826553 -3.64752 0
M  V30 590 H 52.4625 2.67473 -6.22467 0
M  V30 591 H 53.4055 1.33622 -6.95378 0
M  V30 592 H 53.8135 1.9136 -5.31076 0
M  V30 593 N 53.2116 1.57565 -0.0334293 0
M  V30 594 C 54.1446 2.05997 0.981866 0
M  V30 595 C 55.1226 0.956647 1.3148 0
M  V30 596 O 56.3066 1.22729 1.43073 0
M  V30 597 C 53.4336 2.48564 2.30074 0
M  V30 598 C 52.4796 3.69958 2.12211 0
M  V30 599 S 53.3126 5.16414 1.41692 0
M  V30 600 C 54.4686 5.6228 2.7494 0
M  V30 601 H 54.7016 2.91792 0.569612 0
M  V30 602 H 52.2346 1.53366 0.178376 0
M  V30 603 H 54.1926 2.73753 3.05892 0
M  V30 604 H 52.8536 1.63106 2.68431 0
M  V30 605 H 52.0466 3.97603 3.09722 0
M  V30 606 H 51.6486 3.44943 1.44535 0
M  V30 607 H 53.9406 5.66783 3.71165 0
M  V30 608 H 54.8836 6.61759 2.51953 0
M  V30 609 H 55.2916 4.89944 2.80384 0
M  V30 610 N 54.6897 -0.239769 1.55765 0
M  V30 611 C 55.5997 -1.31831 1.94056 0
M  V30 612 C 56.6157 -1.52275 0.841925 0
M  V30 613 O 57.7917 -1.65759 1.14394 0
M  V30 614 C 54.8567 -2.65156 2.23368 0
M  V30 615 C 53.9177 -2.53173 3.46701 0
M  V30 616 C 53.1507 -3.8014 3.74606 0
M  V30 617 O 53.3737 -4.82343 3.04469 0
M  V30 618 O 52.3077 -3.78344 4.68123 0
M  V30 619 H 56.1337 -1.02347 2.85935 0
M  V30 620 H 53.7187 -0.441123 1.42739 0
M  V30 621 H 55.6007 -3.43929 2.43497 0
M  V30 622 H 54.2757 -2.94358 1.34666 0
M  V30 623 H 53.1827 -1.72662 3.31871 0
M  V30 624 H 54.5157 -2.28915 4.35728 0
M  V30 625 N 56.1678 -1.49265 -0.50573 0
M  V30 626 C 57.4138 -1.58748 -1.26202 0
M  V30 627 C 57.7468 -0.271227 -1.92297 0
M  V30 628 O 57.0218 0.724831 -1.80489 0
M  V30 629 C 57.3048 -2.74332 -2.33268 0
M  V30 630 C 57.1578 -4.15737 -1.71705 0
M  V30 631 C 58.4768 -2.85576 -3.34865 0
M  V30 632 H 55.5958 -0.577826 -0.457478 0
M  V30 633 H 58.2378 -1.81532 -0.560897 0
M  V30 634 H 56.3878 -2.55036 -2.93068 0
M  V30 635 H 58.0598 -4.46537 -1.15769 0
M  V30 636 H 56.3028 -4.21605 -1.02135 0
M  V30 637 H 56.9738 -4.92477 -2.49341 0
M  V30 638 H 59.4498 -3.03127 -2.8505 0
M  V30 639 H 58.3258 -3.68135 -4.07146 0
M  V30 640 H 58.5868 -1.94732 -3.96903 0
M  V30 641 N 57.6459 0.756429 -1.3826 0
M  V30 642 C 58.8939 1.51248 -1.34047 0
M  V30 643 C 59.2149 1.94875 0.0698372 0
M  V30 644 O 58.4849 1.67436 1.01696 0
M  V30 645 H 57.0649 0.561018 -0.493222 0
M  V30 646 H 59.7269 0.899347 -1.7291 0
M  V30 647 H 58.8229 2.40472 -1.98947 0
M  V30 648 N 59.124 1.23083 0.984299 0
M  V30 649 C 60.087 1.00979 2.05757 0
M  V30 650 C 61.087 -0.0269573 1.60777 0
M  V30 651 O 62.277 0.212403 1.729 0
M  V30 652 C 59.409 0.527072 3.36801 0
M  V30 653 H 60.602 1.9622 2.26799 0
M  V30 654 H 58.155 1.05072 1.15714 0
M  V30 655 H 58.89 -0.429294 3.21446 0
M  V30 656 H 58.675 1.27515 3.70786 0
M  V30 657 H 60.165 0.392942 4.15747 0
M  V30 658 N 60.6021 -1.18246 1.0419 0
M  V30 659 C 61.5491 -2.2192 0.634037 0
M  V30 660 C 62.5191 -1.62179 -0.358765 0
M  V30 661 O 63.7041 -1.89122 -0.252466 0
M  V30 662 C 60.8441 -3.451 0.00445535 0
M  V30 663 C 59.9571 -4.19174 1.04487 0
M  V30 664 C 59.0921 -5.29813 0.383676 0
M  V30 665 C 58.1311 -5.9566 1.4091 0
M  V30 666 N 57.2681 -6.97834 0.772784 0
M  V30 667 H 62.1081 -2.56164 1.52263 0
M  V30 668 H 59.6451 -1.25843 0.761701 0
M  V30 669 H 61.6031 -4.15485 -0.377919 0
M  V30 670 H 60.2331 -3.11472 -0.847652 0
M  V30 671 H 59.2851 -3.47604 1.54518 0
M  V30 672 H 60.5971 -4.64267 1.82368 0
M  V30 673 H 59.7511 -6.06677 -0.0528366 0
M  V30 674 H 58.4901 -4.85825 -0.427208 0
M  V30 675 H 57.4951 -5.17535 1.85574 0
M  V30 676 H 58.7201 -6.4173 2.22171 0
M  V30 677 H 56.6661 -6.55998 -0.0177708 0
M  V30 678 H 56.5831 -7.41186 1.48928 0
M  V30 679 H 57.8511 -7.78665 0.36071 0
M  V30 680 N 62.0802 -0.821533 -1.34494 0
M  V30 681 C 63.4912 -0.467956 -1.8074 0
M  V30 682 C 63.8422 1.01151 -1.68116 0
M  V30 683 O 62.9672 1.78707 -1.22036 0
M  V30 684 C 63.5622 -0.842627 -3.28154 0
M  V30 685 C 62.1212 -0.541439 -3.72485 0
M  V30 686 C 61.2682 -1.06028 -2.56229 0
M  V30 687 H 64.2192 -1.01183 -1.22261 0
M  V30 688 H 64.2402 -0.145876 -3.8022 0
M  V30 689 H 63.7522 -1.91945 -3.37311 0
M  V30 690 H 61.8532 0.526034 -3.68868 0
M  V30 691 H 61.9662 -1.08453 -4.66663 0
M  V30 692 H 60.3302 -0.481892 -2.501 0
M  V30 693 H 61.1132 -2.14352 -2.68157 0
M  V30 694 N 63.5583 1.46682 -0.576371 0
M  V30 695 C 64.5213 2.28707 0.150239 0
M  V30 696 C 65.5213 1.38035 0.824794 0
M  V30 697 O 66.7113 1.60476 0.677719 0
M  V30 698 C 63.8433 3.18248 1.22192 0
M  V30 699 H 65.0363 2.94423 -0.570521 0
M  V30 700 H 62.5893 1.52688 -0.334078 0
M  V30 701 H 63.3243 2.57265 1.97447 0
M  V30 702 H 63.1093 3.85 0.742812 0
M  V30 703 H 64.5993 3.80001 1.73172 0
M  V30 704 N 65.0364 0.313813 1.54444 0
M  V30 705 C 66.4474 -0.176243 1.85866 0
M  V30 706 C 66.7984 -1.52405 1.23561 0
M  V30 707 O 65.9234 -2.09605 0.538016 0
M  V30 708 C 66.5184 -0.32657 3.37222 0
M  V30 709 C 65.0774 -0.760846 3.6863 0
M  V30 710 C 64.2244 0.123247 2.77026 0
M  V30 711 H 67.1754 0.534418 1.49431 0
M  V30 712 H 67.1964 -1.15908 3.62416 0
M  V30 713 H 66.7084 0.654531 3.82541 0
M  V30 714 H 64.8094 -1.75204 3.28838 0
M  V30 715 H 64.9224 -0.571353 4.75681 0
M  V30 716 H 63.2864 -0.399597 2.51546 0
M  V30 717 H 64.0694 1.10094 3.25168 0
M  V30 718 N 66.5145 -1.57545 0.0417849 0
M  V30 719 C 67.9305 -1.56467 -0.314704 0
M  V30 720 C 68.1305 -1.04859 -1.72066 0
M  V30 721 O 67.1865 -0.700983 -2.42575 0
M  V30 722 C 68.4995 -3.00317 -0.15174 0
M  V30 723 C 70.0475 -3.12201 -0.223553 0
M  V30 724 C 70.5225 -4.57913 -0.0892295 0
M  V30 725 N 72.0135 -4.6297 -0.145808 0
M  V30 726 C 72.7485 -5.73362 -0.0658459 0
M  V30 727 N 72.2445 -6.92769 0.0659282 0
M  V30 728 N 74.0375 -5.6197 -0.12075 0
M  V30 729 H 66.1885 -1.89416 0.961014 0
M  V30 730 H 68.4515 -0.871862 0.372237 0
M  V30 731 H 68.1575 -3.42073 0.817254 0
M  V30 732 H 68.0315 -3.65892 -0.916692 0
M  V30 733 H 70.4185 -2.70349 -1.18301 0
M  V30 734 H 70.4995 -2.49323 0.571994 0
M  V30 735 H 70.1435 -5.00448 0.866867 0
M  V30 736 H 70.0735 -5.18786 -0.903802 0
M  V30 737 H 72.5645 -3.7709 -0.247286 0
M  V30 738 H 72.8775 -7.72707 0.119905 0
M  V30 739 H 71.2225 -6.94927 0.100885 0
M  V30 740 H 74.4135 -4.67572 -0.222187 0
M  V30 741 H 74.5865 -6.47977 -0.0549735 0
M  V30 742 N 67.9926 0.231505 -1.5589 0
M  V30 743 C 68.9556 1.27028 -1.90779 0
M  V30 744 C 69.9556 1.40308 -0.785507 0
M  V30 745 O 71.1456 1.38744 -1.05336 0
M  V30 746 C 68.2776 2.64566 -2.14983 0
M  V30 747 H 69.4706 0.973017 -2.83677 0
M  V30 748 H 67.0236 0.471486 -1.49019 0
M  V30 749 H 67.7586 2.99406 -1.24604 0
M  V30 750 H 67.5436 2.56305 -2.96732 0
M  V30 751 H 69.0336 3.39543 -2.43105 0
M  V30 752 N 69.4707 1.49531 0.497807 0
M  V30 753 C 70.4007 1.6935 1.60757 0
M  V30 754 C 71.3817 0.542218 1.61227 0
M  V30 755 O 72.5667 0.778417 1.77917 0
M  V30 756 C 69.6967 1.76298 2.99226 0
M  V30 757 C 68.6507 2.91248 3.13622 0
M  V30 758 C 67.9767 2.83312 4.53474 0
M  V30 759 C 69.2767 4.3214 2.93346 0
M  V30 760 H 70.9707 2.62263 1.44425 0
M  V30 761 H 68.5167 1.26208 0.693367 0
M  V30 762 H 70.4697 1.88749 3.76765 0
M  V30 763 H 69.1937 0.799871 3.16654 0
M  V30 764 H 67.8527 2.78404 2.38509 0
M  V30 765 H 67.5007 1.84902 4.67782 0
M  V30 766 H 67.2007 3.60465 4.64046 0
M  V30 767 H 68.7247 2.97775 5.33069 0
M  V30 768 H 70.1387 4.45649 3.60652 0
M  V30 769 H 68.5357 5.1054 3.15387 0
M  V30 770 H 69.6057 4.46363 1.89441 0
M  V30 771 N 70.9488 -0.749086 1.3866 0
M  V30 772 C 72.1738 -1.54344 1.38538 0
M  V30 773 C 72.5988 -1.88088 -0.0216655 0
M  V30 774 O 71.9568 -1.50899 -1.00494 0
M  V30 775 C 72.0048 -2.8164 2.25192 0
M  V30 776 O 71.1088 -3.7698 1.67212 0
M  V30 777 H 70.4498 -0.466654 0.472367 0
M  V30 778 H 72.9798 -0.925355 1.82478 0
M  V30 779 H 72.9898 -3.30519 2.3921 0
M  V30 780 H 71.6648 -2.56411 3.27454 0
M  V30 781 H 70.2418 -3.35699 1.6236 0
M  V30 782 N 72.4269 -1.23603 -0.977757 0
M  V30 783 C 73.6549 -1.09646 -1.75458 0
M  V30 784 C 74.0699 0.351859 -1.85492 0
M  V30 785 O 73.4269 1.24327 -1.336 0
M  V30 786 C 73.4779 -1.71895 -3.18016 0
M  V30 787 O 73.1989 -3.11063 -3.08498 0
M  V30 788 C 74.6999 -1.63415 -4.12081 0
M  V30 789 H 71.9199 -0.38359 -0.550545 0
M  V30 790 H 74.4639 -1.63507 -1.22824 0
M  V30 791 H 72.6189 -1.22061 -3.67668 0
M  V30 792 H 73.0329 -3.41305 -3.9826 0
M  V30 793 H 74.5069 -2.11669 -5.09804 0
M  V30 794 H 74.9839 -0.593462 -4.35172 0
M  V30 795 H 75.5899 -2.12628 -3.68334 0
M  V30 796 N 73.905 1.17692 -1.04816 0
M  V30 797 C 74.868 2.19787 -0.650117 0
M  V30 798 C 75.868 1.58044 0.296427 0
M  V30 799 O 77.058 1.74012 0.0808097 0
M  V30 800 C 74.19 3.40869 0.0456987 0
M  V30 801 H 75.383 2.56516 -1.5537 0
M  V30 802 H 72.936 1.31708 -0.841594 0
M  V30 803 H 73.671 3.09681 0.962726 0
M  V30 804 H 73.456 3.86928 -0.634727 0
M  V30 805 H 74.946 4.16445 0.310432 0
M  V30 806 N 75.3831 0.828654 1.34056 0
M  V30 807 C 76.3461 0.259927 2.27721 0
M  V30 808 C 77.3461 -0.565478 1.50529 0
M  V30 809 O 78.5361 -0.38075 1.69988 0
M  V30 810 C 75.6681 -0.634944 3.34935 0
M  V30 811 H 76.8611 1.0863 2.79534 0
M  V30 812 H 74.4141 0.600951 1.44285 0
M  V30 813 H 75.1491 -1.48416 2.88346 0
M  V30 814 H 74.9341 -0.0444999 3.92075 0
M  V30 815 H 76.4241 -1.02648 4.04788 0
M  V30 816 N 76.8612 -1.46375 0.584142 0
M  V30 817 C 78.1072 -2.02678 0.0703716 0
M  V30 818 C 78.4402 -1.4545 -1.28678 0
M  V30 819 O 77.7152 -0.62014 -1.84349 0
M  V30 820 C 77.9982 -3.60099 0.00614674 0
M  V30 821 C 77.8512 -4.27709 1.3923 0
M  V30 822 C 79.1702 -4.34598 -0.693742 0
M  V30 823 H 76.2892 -0.736504 0.027047 0
M  V30 824 H 78.9312 -1.74501 0.751615 0
M  V30 825 H 77.0812 -3.84236 -0.574009 0
M  V30 826 H 78.7532 -4.14832 2.01773 0
M  V30 827 H 76.9962 -3.87016 1.95962 0
M  V30 828 H 77.6672 -5.36478 1.29982 0
M  V30 829 H 80.1432 -4.15615 -0.200869 0
M  V30 830 H 79.0192 -5.44318 -0.707714 0
M  V30 831 H 79.2802 -4.05759 -1.75533 0
M  V30 832 N 78.3393 -0.321999 -1.54275 0
M  V30 833 C 79.2893 0.560185 -2.21011 0
M  V30 834 C 80.2733 1.08283 -1.19011 0
M  V30 835 O 81.4653 1.02011 -1.44647 0
M  V30 836 C 78.5943 1.72137 -2.97025 0
M  V30 837 C 77.6803 1.21369 -4.06363 0
M  V30 838 N 78.0713 0.425566 -5.04007 0
M  V30 839 C 76.3693 1.49255 -4.20284 0
M  V30 840 C 77.0703 0.152601 -5.815 0
M  V30 841 N 76.0463 0.738294 -5.38563 0
M  V30 842 H 79.8483 -0.049265 -2.93859 0
M  V30 843 H 77.3623 -0.127779 -1.61897 0
M  V30 844 H 79.3593 2.36512 -3.43319 0
M  V30 845 H 78.0193 2.33431 -2.25699 0
M  V30 846 H 79.0303 0.068551 -5.17855 0
M  V30 847 H 75.7073 2.11145 -3.60172 0
M  V30 848 H 77.0973 -0.481764 -6.70171 0
M  V30 849 N 79.8174 1.5752 -0.0501392 0
M  V30 850 C 81.0474 1.96678 0.632573 0
M  V30 851 C 81.4554 0.926298 1.64974 0
M  V30 852 O 80.7984 -0.09802 1.83438 0
M  V30 853 C 80.8604 3.32068 1.37735 0
M  V30 854 C 80.5244 4.54076 0.516131 0
M  V30 855 C 81.5214 5.19445 -0.217357 0
M  V30 856 C 79.2064 5.00304 0.44736 0
M  V30 857 C 81.2004 6.29378 -1.00807 0
M  V30 858 C 78.8874 6.10114 -0.347038 0
M  V30 859 C 79.8854 6.74512 -1.07344 0
M  V30 860 O 79.5734 7.82211 -1.85477 0
M  V30 861 H 79.3054 0.652193 0.177821 0
M  V30 862 H 81.8594 2.05091 -0.112543 0
M  V30 863 H 80.0894 3.20206 2.16807 0
M  V30 864 H 81.7784 3.55981 1.95019 0
M  V30 865 H 82.5444 4.84689 -0.173688 0
M  V30 866 H 78.4234 4.49971 1.00235 0
M  V30 867 H 81.9674 6.79575 -1.57556 0
M  V30 868 H 77.8644 6.44307 -0.392349 0
M  V30 869 H 78.6324 7.98982 -1.77678 0
M  V30 870 N 81.2955 -0.223234 1.56011 0
M  V30 871 C 82.2275 -1.30006 1.88762 0
M  V30 872 C 83.2405 -1.43129 0.775746 0
M  V30 873 O 84.4295 -1.44057 1.05403 0
M  V30 874 C 81.5295 -2.67589 2.07965 0
M  V30 875 C 80.7025 -2.76434 3.38973 0
M  V30 876 C 79.7615 -3.95019 3.47629 0
M  V30 877 O 78.7875 -3.83436 4.20672 0
M  V30 878 N 79.9895 -5.09249 2.78649 0
M  V30 879 H 82.7545 -1.02238 2.81722 0
M  V30 880 H 80.3155 -0.413278 1.56536 0
M  V30 881 H 82.3075 -3.45297 2.11073 0
M  V30 882 H 80.8775 -2.87964 1.21638 0
M  V30 883 H 80.0975 -1.85216 3.47978 0
M  V30 884 H 81.3855 -2.79313 4.25278 0
M  V30 885 H 80.7835 -5.21556 2.19081 0
M  V30 886 H 79.3405 -5.85007 2.8742 0
M  V30 887 N 82.7736 -1.49793 -0.48987 0
M  V30 888 C 83.7056 -1.63413 -1.60713 0
M  V30 889 C 84.7186 -0.516329 -1.54395 0
M  V30 890 O 85.9076 -0.788812 -1.60125 0
M  V30 891 C 83.0076 -1.58516 -2.99543 0
M  V30 892 C 82.1806 -2.86016 -3.30928 0
M  V30 893 C 81.2396 -2.74018 -4.49222 0
M  V30 894 O 80.2656 -3.47964 -4.50455 0
M  V30 895 N 81.4676 -1.86309 -5.4979 0
M  V30 896 H 84.2326 -2.59777 -1.49452 0
M  V30 897 H 81.7936 -1.47022 -0.677955 0
M  V30 898 H 83.7856 -1.48128 -3.76617 0
M  V30 899 H 82.3556 -0.69965 -3.0467 0
M  V30 900 H 81.5756 -3.10672 -2.42645 0
M  V30 901 H 82.8636 -3.70521 -3.487 0
M  V30 902 H 82.2616 -1.2551 -5.51601 0
M  V30 903 H 80.8186 -1.81837 -6.25922 0
M  V30 904 N 84.2517 0.741722 -1.39055 0
M  V30 905 C 85.5007 1.49656 -1.35225 0
M  V30 906 C 85.8137 1.95533 0.0512708 0
M  V30 907 O 87.0197 2.7067 0.212138 0
M  V30 908 C 85.4757 2.70389 -2.37525 0
M  V30 909 C 85.0837 2.31489 -3.83558 0
M  V30 910 C 86.8277 3.48236 -2.42759 0
M  V30 911 C 84.7347 3.48903 -4.77515 0
M  V30 912 H 83.6647 0.56197 -0.502699 0
M  V30 913 H 86.3157 0.809727 -1.64668 0
M  V30 914 H 84.6977 3.41113 -2.01142 0
M  V30 915 H 85.8717 1.68354 -4.28945 0
M  V30 916 H 84.1867 1.66749 -3.81554 0
M  V30 917 H 86.7837 4.35558 -3.1015 0
M  V30 918 H 87.1267 3.90229 -1.45008 0
M  V30 919 H 87.6597 2.84535 -2.78002 0
M  V30 920 H 84.3987 3.11966 -5.76504 0
M  V30 921 H 83.9187 4.11041 -4.36813 0
M  V30 922 H 85.5977 4.15328 -4.96096 0
M  V30 923 N 85.7298 1.2412 0.971189 0
M  V30 924 C 86.6768 1.0305 2.06517 0
M  V30 925 C 87.6468 -0.0550666 1.66009 0
M  V30 926 O 88.8318 0.0988688 1.90544 0
M  V30 927 C 85.9718 0.637653 3.39158 0
M  V30 928 C 85.0848 1.79633 3.92882 0
M  V30 929 C 84.2198 1.34939 5.13775 0
M  V30 930 C 83.2588 2.47823 5.59687 0
M  V30 931 N 82.3958 2.04022 6.71803 0
M  V30 932 H 87.2358 1.96685 2.23873 0
M  V30 933 H 84.7728 0.979694 1.09729 0
M  V30 934 H 86.7308 0.390931 4.15364 0
M  V30 935 H 85.3608 -0.261693 3.21737 0
M  V30 936 H 84.4128 2.15681 3.13346 0
M  V30 937 H 85.7248 2.64466 4.22918 0
M  V30 938 H 84.8788 1.06134 5.97345 0
M  V30 939 H 83.6178 0.471557 4.85415 0
M  V30 940 H 82.6228 2.77392 4.74693 0
M  V30 941 H 83.8478 3.36158 5.90063 0
M  V30 942 H 81.7938 1.18632 6.45184 0
M  V30 943 H 81.7108 2.82409 7.01271 0
M  V30 944 H 82.9788 1.78347 7.58823 0
M  V30 945 N 87.2079 -1.17134 1.05439 0
M  V30 946 C 88.1179 -2.24878 0.668365 0
M  V30 947 C 89.1339 -1.71186 -0.311687 0
M  V30 948 O 90.3099 -2.00738 -0.163161 0
M  V30 949 C 87.3749 -3.46662 0.051648 0
M  V30 950 C 86.4359 -4.15429 1.08246 0
M  V30 951 C 85.6689 -5.31399 0.495082 0
M  V30 952 O 85.8919 -5.66153 -0.694743 0
M  V30 953 O 84.8259 -5.89187 1.23056 0
M  V30 954 H 88.6519 -2.60189 1.56637 0
M  V30 955 H 86.2369 -1.24482 0.826104 0
M  V30 956 H 88.1189 -4.20394 -0.290966 0
M  V30 957 H 86.7939 -3.13142 -0.819971 0
M  V30 958 H 85.7009 -3.43704 1.47711 0
M  V30 959 H 87.0339 -4.52982 1.92532 0
M  V30 960 N 88.686 -0.835752 -1.33615 0
M  V30 961 C 89.914 -0.443344 -2.02094 0
M  V30 962 C 90.329 0.954522 -1.62894 0
M  V30 963 O 89.686 1.61982 -0.840723 0
M  V30 964 C 89.737 -0.550775 -3.5728 0
M  V30 965 O 89.458 -1.89356 -3.95065 0
M  V30 966 C 90.959 -0.154919 -4.43029 0
M  V30 967 H 88.179 -0.176359 -0.647409 0
M  V30 968 H 90.723 -1.12746 -1.70612 0
M  V30 969 H 88.878 0.0853997 -3.87306 0
M  V30 970 H 89.292 -1.87687 -4.89769 0
M  V30 971 H 90.766 -0.281144 -5.51284 0
M  V30 972 H 91.243 0.902863 -4.2982 0
M  V30 973 H 91.849 -0.765404 -4.18356 0
M  V30 974 N 90.1641 1.46063 -0.591896 0
M  V30 975 C 91.5751 1.85944 -0.167822 0
M  V30 976 C 91.9261 1.49429 1.27143 0
M  V30 977 O 91.0511 0.913515 1.96173 0
M  V30 978 C 91.6461 3.37489 -0.297794 0
M  V30 979 C 90.2051 3.76332 0.0714732 0
M  V30 980 C 89.3521 2.7006 -0.629509 0
M  V30 981 H 92.3031 1.37087 -0.799555 0
M  V30 982 H 92.3241 3.77532 0.474349 0
M  V30 983 H 91.8361 3.64034 -1.3454 0
M  V30 984 H 89.9371 3.55405 1.11886 0
M  V30 985 H 90.0501 4.78088 -0.311245 0
M  V30 986 H 88.4141 2.54607 -0.0687867 0
M  V30 987 H 89.1971 2.99444 -1.67894 0
M  V30 988 N 91.6422 0.330177 1.54103 0
M  V30 989 C 93.0532 -0.15652 1.86043 0
M  V30 990 C 93.4042 -1.51086 1.2517 0
M  V30 991 O 92.5292 -2.09023 0.560217 0
M  V30 992 C 93.1242 -0.290784 3.3755 0
M  V30 993 C 91.6832 -0.721705 3.69416 0
M  V30 994 C 90.8302 0.152622 2.7688 0
M  V30 995 H 93.7812 0.550237 1.48856 0
M  V30 996 H 93.8022 -1.12058 3.63625 0
M  V30 997 H 93.3142 0.695068 3.81825 0
M  V30 998 H 91.4152 -1.71706 3.30678 0
M  V30 999 H 91.5282 -0.520869 4.7626 0
M  V30 1000 H 89.8922 -0.372894 2.51956 0
M  V30 1001 H 90.6752 1.13536 3.23982 0
M  V30 1002 N 93.1203 -1.57491 0.0584922 0
M  V30 1003 C 94.0833 -2.1085 -0.898617 0
M  V30 1004 C 95.0833 -1.02964 -1.23511 0
M  V30 1005 O 96.2733 -1.29007 -1.17059 0
M  V30 1006 C 93.4053 -2.59881 -2.20623 0
M  V30 1007 H 94.5983 -2.96715 -0.435936 0
M  V30 1008 H 92.1513 -1.55141 -0.190023 0
M  V30 1009 H 92.8863 -1.77431 -2.71457 0
M  V30 1010 H 92.6713 -3.38727 -1.97501 0
M  V30 1011 H 94.1613 -3.01285 -2.89166 0
M  V30 1012 N 94.5984 0.214957 -1.56127 0
M  V30 1013 C 95.8234 0.95924 -1.83884 0
M  V30 1014 C 96.2484 1.7689 -0.639644 0
M  V30 1015 O 95.6064 1.76566 0.411601 0
M  V30 1016 C 95.6544 1.84723 -3.09693 0
M  V30 1017 O 94.7584 2.94346 -2.8885 0
M  V30 1018 H 94.0994 0.27125 -0.606069 0
M  V30 1019 H 96.6294 0.226276 -2.03345 0
M  V30 1020 H 96.6394 2.25576 -3.39969 0
M  V30 1021 H 95.3144 1.25218 -3.96602 0
M  V30 1022 H 93.8914 2.57391 -2.69823 0
M  V30 1023 N 96.0765 1.50051 0.48192 0
M  V30 1024 C 96.9865 1.7089 1.60728 0
M  V30 1025 C 98.0025 0.591788 1.63627 0
M  V30 1026 O 99.1785 0.868817 1.81696 0
M  V30 1027 C 96.2435 1.78855 2.97005 0
M  V30 1028 C 95.3045 3.02537 3.04581 0
M  V30 1029 C 94.5375 3.10112 4.34357 0
M  V30 1030 O 94.7605 2.24765 5.24249 0
M  V30 1031 O 93.6945 4.02747 4.47301 0
M  V30 1032 H 97.5205 2.66264 1.46072 0
M  V30 1033 H 95.1055 1.34018 0.660264 0
M  V30 1034 H 96.9875 1.86336 3.77964 0
M  V30 1035 H 95.6625 0.866628 3.11883 0
M  V30 1036 H 94.5695 3.00563 2.22739 0
M  V30 1037 H 95.9025 3.94272 2.94636 0
M  V30 1038 N 97.5546 -0.734337 1.39446 0
M  V30 1039 C 98.5016 -1.84835 1.38219 0
M  V30 1040 C 99.4716 -1.64331 0.24179 0
M  V30 1041 O 100.657 -1.85728 0.437002 0
M  V30 1042 C 97.7966 -3.22355 1.23212 0
M  V30 1043 C 96.9096 -3.5456 2.46801 0
M  V30 1044 C 96.0446 -4.81485 2.24377 0
M  V30 1045 C 95.0836 -5.06536 3.43639 0
M  V30 1046 N 94.2206 -6.24665 3.20528 0
M  V30 1047 H 99.0606 -1.85219 2.33448 0
M  V30 1048 H 96.5976 -0.905039 1.15963 0
M  V30 1049 H 98.5556 -4.0174 1.12522 0
M  V30 1050 H 97.1856 -3.21248 0.316121 0
M  V30 1051 H 96.2376 -2.69872 2.68092 0
M  V30 1052 H 97.5496 -3.6899 3.3563 0
M  V30 1053 H 96.7036 -5.68852 2.10933 0
M  V30 1054 H 95.4426 -4.6923 1.32944 0
M  V30 1055 H 94.4476 -4.17632 3.5758 0
M  V30 1056 H 95.6726 -5.20676 4.35974 0
M  V30 1057 H 93.6186 -6.13696 2.3176 0
M  V30 1058 H 93.5356 -6.39685 4.02913 0
M  V30 1059 H 94.8036 -7.14868 3.10779 0
M  V30 1060 N 99.0327 -1.24633 -0.964593 0
M  V30 1061 C 100.31 -0.995809 -1.68354 0
M  V30 1062 C 100.69 0.480964 -2.05548 0
M  V30 1063 O 100.038 1.45599 -1.76105 0
M  V30 1064 C 100.248 -1.92177 -2.91323 0
M  V30 1065 C 101.596 -2.19446 -3.63495 0
M  V30 1066 O 102.62 -1.89855 -3.01386 0
M  V30 1067 O 101.479 -2.69714 -4.75307 0
M  V30 1068 H 98.5727 -0.376854 -0.736146 0
M  V30 1069 H 101.119 -1.35745 -1.0184 0
M  V30 1070 H 99.8907 -2.91938 -2.60553 0
M  V30 1071 H 99.5137 -1.56349 -3.65569 0
M  V30 1072 N 100.511 1.16574 -1.06058 0
M  V30 1073 C 101.458 2.20883 -0.669263 0
M  V30 1074 C 102.428 1.62729 0.332918 0
M  V30 1075 O 103.613 1.895 0.222346 0
M  V30 1076 C 100.753 3.45049 -0.0593572 0
M  V30 1077 C 99.8658 4.17458 -1.11143 0
M  V30 1078 C 99.0008 5.29135 -0.467916 0
M  V30 1079 C 98.0398 5.93343 -1.50369 0
M  V30 1080 N 97.1768 6.96516 -0.883706 0
M  V30 1081 H 102.017 2.53709 -1.5632 0
M  V30 1082 H 99.5538 1.24616 -0.781625 0
M  V30 1083 H 101.512 4.16033 0.311771 0
M  V30 1084 H 100.142 3.12781 0.797992 0
M  V30 1085 H 99.1938 3.45101 -1.60029 0
M  V30 1086 H 100.506 4.61307 -1.89731 0
M  V30 1087 H 99.6598 6.06684 -0.0436871 0
M  V30 1088 H 98.3988 4.86443 0.349864 0
M  V30 1089 H 97.4038 5.14517 -1.93784 0
M  V30 1090 H 98.6288 6.38114 -2.32352 0
M  V30 1091 H 96.5748 6.55943 -0.086595 0
M  V30 1092 H 96.4918 7.38723 -1.607 0
M  V30 1093 H 97.7598 7.77993 -0.484543 0
M  V30 1094 N 101.989 0.842826 1.3317 0
M  V30 1095 C 103.217 0.454055 2.01856 0
M  V30 1096 C 103.632 -0.94587 1.63397 0
M  V30 1097 O 102.989 -1.61534 0.849302 0
M  V30 1098 C 103.04 0.569715 3.56982 0
M  V30 1099 O 102.761 1.91448 3.94055 0
M  V30 1100 C 104.262 0.178412 4.42941 0
M  V30 1101 H 101.482 0.17979 0.646465 0
M  V30 1102 H 104.026 1.1365 1.70012 0
M  V30 1103 H 102.181 -0.0648587 3.87346 0
M  V30 1104 H 102.595 1.90282 4.88767 0
M  V30 1105 H 104.069 0.310376 5.51127 0
M  V30 1106 H 104.546 -0.880056 4.30293 0
M  V30 1107 H 105.152 0.787579 4.17944 0
M  V30 1108 N 103.467 -1.45747 0.599634 0
M  V30 1109 C 104.43 -2.28917 -0.113835 0
M  V30 1110 C 105.43 -1.3933 -0.802729 0
M  V30 1111 O 106.62 -1.61534 -0.652103 0
M  V30 1112 C 103.752 -3.20152 -1.17114 0
M  V30 1113 H 104.945 -2.93478 0.617289 0
M  V30 1114 H 102.498 -1.52137 0.358327 0
M  V30 1115 H 103.233 -2.60374 -1.93329 0
M  V30 1116 H 103.018 -3.86133 -0.681468 0
M  V30 1117 H 104.508 -3.82708 -1.67105 0
M  V30 1118 N 104.945 -0.338344 -1.53925 0
M  V30 1119 C 105.892 0.520845 -2.24846 0
M  V30 1120 C 106.862 1.09976 -1.24477 0
M  V30 1121 O 108.047 1.13735 -1.53196 0
M  V30 1122 C 105.187 1.6685 -3.02084 0
M  V30 1123 C 104.3 1.11739 -4.17299 0
M  V30 1124 C 103.435 2.23193 -4.82036 0
M  V30 1125 C 102.474 1.65407 -5.89328 0
M  V30 1126 N 101.611 2.70582 -6.47866 0
M  V30 1127 H 106.451 -0.0904881 -2.97863 0
M  V30 1128 H 103.988 -0.0564282 -1.46992 0
M  V30 1129 H 105.946 2.34407 -3.45122 0
M  V30 1130 H 104.576 2.2509 -2.31375 0
M  V30 1131 H 103.628 0.332919 -3.7894 0
M  V30 1132 H 104.94 0.654677 -4.94485 0
M  V30 1133 H 104.094 2.98626 -5.28117 0
M  V30 1134 H 102.833 2.72807 -4.04262 0
M  V30 1135 H 101.838 0.884779 -5.42634 0
M  V30 1136 H 103.063 1.16652 -6.69006 0
M  V30 1137 H 101.009 3.1946 -5.72959 0
M  V30 1138 H 100.926 2.28917 -7.20509 0
M  V30 1139 H 102.194 3.45799 -6.98601 0
M  V30 1140 N 106.423 1.57458 -0.0668435 0
M  V30 1141 C 107.386 2.11323 0.887422 0
M  V30 1142 C 108.386 1.03618 1.22964 0
M  V30 1143 O 109.576 1.29626 1.16373 0
M  V30 1144 C 106.708 2.61048 2.19242 0
M  V30 1145 H 107.901 2.96942 0.420194 0
M  V30 1146 H 105.454 1.55239 0.181793 0
M  V30 1147 H 106.189 1.78868 2.70512 0
M  V30 1148 H 105.974 3.39769 1.95702 0
M  V30 1149 H 107.464 3.02814 2.87565 0
M  V30 1150 N 107.901 -0.206675 1.56239 0
M  V30 1151 C 108.848 -1.25617 1.93621 0
M  V30 1152 C 109.818 -1.45824 0.795274 0
M  V30 1153 O 111.003 -1.59148 1.05245 0
M  V30 1154 C 108.143 -2.59839 2.27107 0
M  V30 1155 C 107.256 -2.47308 3.54207 0
M  V30 1156 C 106.391 -3.74155 3.7707 0
M  V30 1157 C 105.43 -3.56407 4.97635 0
M  V30 1158 N 104.567 -4.75238 5.1681 0
M  V30 1159 H 109.407 -0.930383 2.83104 0
M  V30 1160 H 106.944 -0.448065 1.4011 0
M  V30 1161 H 108.902 -3.38021 2.44535 0
M  V30 1162 H 107.532 -2.90485 1.40778 0
M  V30 1163 H 106.584 -1.60483 3.4489 0
M  V30 1164 H 107.896 -2.30122 4.42544 0
M  V30 1165 H 107.05 -4.60778 3.94675 0
M  V30 1166 H 105.789 -3.94282 2.87042 0
M  V30 1167 H 104.794 -2.68168 4.79964 0
M  V30 1168 H 106.019 -3.37736 5.89161 0
M  V30 1169 H 103.965 -4.95651 4.29728 0
M  V30 1170 H 103.882 -4.60835 5.99306 0
M  V30 1171 H 105.15 -5.63246 5.38864 0
M  V30 1172 N 109.379 -1.50304 -0.473955 0
M  V30 1173 C 110.625 -1.61389 -1.22806 0
M  V30 1174 C 110.958 -0.311955 -1.91678 0
M  V30 1175 O 110.233 0.686384 -1.81986 0
M  V30 1176 C 110.516 -2.79219 -2.27396 0
M  V30 1177 C 110.369 -4.19286 -1.62848 0
M  V30 1178 C 111.688 -2.92614 -3.28732 0
M  V30 1179 H 108.807 -0.587399 -0.445119 0
M  V30 1180 H 111.449 -1.82681 -0.522265 0
M  V30 1181 H 109.599 -2.61195 -2.87592 0
M  V30 1182 H 111.271 -4.48892 -1.06271 0
M  V30 1183 H 109.514 -4.23677 -0.931693 0
M  V30 1184 H 110.185 -4.97655 -2.38838 0
M  V30 1185 H 112.661 -3.09105 -2.78556 0
M  V30 1186 H 111.537 -3.76688 -3.99246 0
M  V30 1187 H 111.798 -2.03107 -3.92683 0
M  V30 1188 N 110.857 0.726932 -1.39834 0
M  V30 1189 C 111.789 1.85147 -1.35104 0
M  V30 1190 C 112.802 1.60736 -0.258392 0
M  V30 1191 O 113.991 1.70821 -0.517931 0
M  V30 1192 C 111.091 3.21332 -1.07697 0
M  V30 1193 C 110.264 3.73033 -2.28396 0
M  V30 1194 C 109.323 4.87802 -1.97322 0
M  V30 1195 O 108.349 5.01043 -2.70083 0
M  V30 1196 N 109.551 5.72768 -0.944273 0
M  V30 1197 H 112.316 1.89706 -2.32017 0
M  V30 1198 H 109.877 0.908006 -1.3404 0
M  V30 1199 H 111.869 3.95691 -0.849144 0
M  V30 1200 H 110.439 3.11992 -0.194909 0
M  V30 1201 H 109.659 2.89934 -2.6708 0
M  V30 1202 H 110.947 4.0431 -3.08887 0
M  V30 1203 H 110.345 5.64669 -0.341427 0
M  V30 1204 H 108.902 6.4716 -0.776346 0
M  V30 1205 N 112.336 1.25143 0.95797 0
M  V30 1206 C 113.268 1.01023 2.05735 0
M  V30 1207 C 114.281 -0.0236902 1.62783 0
M  V30 1208 O 115.47 0.21448 1.77207 0
M  V30 1209 C 112.57 0.504595 3.35122 0
M  V30 1210 C 111.743 1.6039 4.06932 0
M  V30 1211 C 110.802 1.09922 5.14591 0
M  V30 1212 O 109.828 1.79293 5.40225 0
M  V30 1213 N 111.03 -0.0612545 5.80468 0
M  V30 1214 H 113.795 1.95683 2.26998 0
M  V30 1215 H 111.356 1.16303 1.12629 0
M  V30 1216 H 113.348 0.151516 4.04416 0
M  V30 1217 H 111.918 -0.347989 3.10657 0
M  V30 1218 H 111.138 2.12872 3.31782 0
M  V30 1219 H 112.426 2.34252 4.51667 0
M  V30 1220 H 111.824 -0.640985 5.62057 0
M  V30 1221 H 110.381 -0.355395 6.5083 0
M  V30 1222 N 113.814 -1.1601 1.06675 0
M  V30 1223 C 115.042 -1.90527 0.806667 0
M  V30 1224 C 115.457 -1.77643 -0.639396 0
M  V30 1225 O 114.814 -1.12369 -1.43803 0
M  V30 1226 C 114.865 -3.41106 1.19705 0
M  V30 1227 O 114.586 -3.53608 2.58636 0
M  V30 1228 C 116.087 -4.32663 0.965266 0
M  V30 1229 H 113.307 -0.604053 0.292166 0
M  V30 1230 H 115.851 -1.47026 1.4214 0
M  V30 1231 H 114.006 -3.82296 0.626774 0
M  V30 1232 H 114.42 -4.47011 2.74375 0
M  V30 1233 H 115.894 -5.36763 1.288 0
M  V30 1234 H 116.371 -4.39089 -0.0987936 0
M  V30 1235 H 116.977 -3.97206 1.52011 0
M  V30 1236 N 115.292 -0.849877 -1.32721 0
M  V30 1237 C 116.703 -0.506188 -1.79707 0
M  V30 1238 C 117.054 0.975627 -1.70223 0
M  V30 1239 O 116.179 1.76078 -1.25799 0
M  V30 1240 C 116.774 -0.912044 -3.26293 0
M  V30 1241 C 115.333 -0.620326 -3.71253 0
M  V30 1242 C 114.48 -1.11439 -2.53922 0
M  V30 1243 H 117.431 -1.03754 -1.20087 0
M  V30 1244 H 117.452 -0.226493 -3.79825 0
M  V30 1245 H 116.964 -1.99057 -3.33164 0
M  V30 1246 H 115.065 0.447674 -3.69901 0
M  V30 1247 H 115.178 -1.18327 -4.64258 0
M  V30 1248 H 113.542 -0.534834 -2.49021 0
M  V30 1249 H 114.325 -2.19992 -2.6355 0
M  V30 1250 N 116.77 1.45427 -0.607355 0
M  V30 1251 C 118.047 1.9557 -0.0344566 0
M  V30 1252 C 118.427 1.54979 1.43334 0
M  V30 1253 O 117.775 0.812241 2.13576 0
M  V30 1254 C 117.985 3.48226 -0.232321 0
M  V30 1255 C 119.333 4.2445 -0.113001 0
M  V30 1256 O 120.357 3.55829 -0.162431 0
M  V30 1257 O 119.216 5.465 0.00209442 0
M  V30 1258 H 116.31 0.826222 0.0358667 0
M  V30 1259 H 118.856 1.55594 -0.6774 0
M  V30 1260 H 117.628 3.70739 -1.25174 0
M  V30 1261 H 117.251 3.95092 0.445896 0
M  V30 1262 N 118.248 0.346503 1.53744 0
M  V30 1263 C 119.496 -0.248612 2.00565 0
M  V30 1264 C 119.817 -1.5083 1.23593 0
M  V30 1265 O 119.087 -1.92858 0.343912 0
M  V30 1266 H 117.667 -0.0948564 0.740953 0
M  V30 1267 H 120.329 0.468341 1.89189 0
M  V30 1268 H 119.425 -0.488994 3.08245 0
M  V30 1269 N 119.726 -1.57421 0.075193 0
M  V30 1270 C 120.951 -1.98364 -0.605515 0
M  V30 1271 C 121.376 -0.953383 -1.62149 0
M  V30 1272 O 120.734 0.0806053 -1.81121 0
M  V30 1273 C 120.782 -3.38332 -1.24756 0
M  V30 1274 O 119.886 -3.37959 -2.36342 0
M  V30 1275 H 119.227 -0.645553 -0.155428 0
M  V30 1276 H 121.757 -2.04044 0.150714 0
M  V30 1277 H 121.767 -3.75591 -1.5936 0
M  V30 1278 H 120.442 -4.12846 -0.503129 0
M  V30 1279 H 119.019 -3.12474 -2.03506 0
M  V30 1280 N 121.204 0.198386 -1.56346 0
M  V30 1281 C 122.136 1.26987 -1.90806 0
M  V30 1282 C 123.149 1.41877 -0.798419 0
M  V30 1283 O 124.338 1.42362 -1.07682 0
M  V30 1284 C 121.438 2.64246 -2.12196 0
M  V30 1285 C 120.611 2.71007 -3.43328 0
M  V30 1286 C 119.67 3.89439 -3.5387 0
M  V30 1287 O 118.696 3.76695 -4.26719 0
M  V30 1288 N 119.898 5.04752 -2.86715 0
M  V30 1289 H 122.663 0.977433 -2.83313 0
M  V30 1290 H 120.224 0.388322 -1.57174 0
M  V30 1291 H 122.216 3.41896 -2.1654 0
M  V30 1292 H 120.786 2.85992 -1.26204 0
M  V30 1293 H 120.006 1.79657 -3.50881 0
M  V30 1294 H 121.294 2.72512 -4.29668 0
M  V30 1295 H 120.692 5.18004 -2.2735 0
M  V30 1296 H 119.249 5.8036 -2.96691 0
M  V30 1297 N 122.682 1.50554 0.465978 0
M  V30 1298 C 123.614 1.65949 1.58093 0
M  V30 1299 C 124.627 0.540827 1.53554 0
M  V30 1300 O 125.816 0.814187 1.5885 0
M  V30 1301 C 122.916 1.63261 2.96983 0
M  V30 1302 C 122.089 2.91245 3.26336 0
M  V30 1303 C 121.148 2.8113 4.44806 0
M  V30 1304 O 120.174 3.55086 4.44862 0
M  V30 1305 N 121.376 1.95032 5.46756 0
M  V30 1306 H 124.141 2.62122 1.45301 0
M  V30 1307 H 121.702 1.48082 0.65448 0
M  V30 1308 H 123.694 1.54101 3.74212 0
M  V30 1309 H 122.264 0.748032 3.03518 0
M  V30 1310 H 121.484 3.14493 2.37672 0
M  V30 1311 H 122.772 3.76022 3.42761 0
M  V30 1312 H 122.17 1.3427 5.49534 0
M  V30 1313 H 120.727 1.91772 6.2295 0
M  V30 1314 N 124.16 -0.719506 1.40217 0
M  V30 1315 C 125.385 -1.51371 1.4178 0
M  V30 1316 C 125.81 -1.88091 0.0182355 0
M  V30 1317 O 125.168 -1.52997 -0.972707 0
M  V30 1318 C 125.216 -2.768 2.31115 0
M  V30 1319 O 124.32 -3.73349 1.7517 0
M  V30 1320 H 123.661 -0.456529 0.482159 0
M  V30 1321 H 126.191 -0.88644 1.844 0
M  V30 1322 H 126.201 -3.25371 2.46167 0
M  V30 1323 H 124.876 -2.49407 3.3282 0
M  V30 1324 H 123.453 -3.32179 1.69444 0
M  V30 1325 N 125.638 -1.25649 -0.95132 0
M  V30 1326 C 127.049 -1.09654 -1.51106 0
M  V30 1327 C 127.4 0.326615 -1.93462 0
M  V30 1328 O 126.525 1.21697 -1.78938 0
M  V30 1329 C 127.12 -1.98437 -2.74605 0
M  V30 1330 C 125.679 -1.86618 -3.2688 0
M  V30 1331 C 124.826 -1.9239 -1.99703 0
M  V30 1332 H 127.777 -1.38887 -0.767865 0
M  V30 1333 H 127.798 -1.5263 -3.48546 0
M  V30 1334 H 127.31 -3.02009 -2.43746 0
M  V30 1335 H 125.411 -0.859421 -3.62553 0
M  V30 1336 H 125.524 -2.71607 -3.94673 0
M  V30 1337 H 123.888 -1.36317 -2.15151 0
M  V30 1338 H 124.671 -2.97573 -1.71188 0
M  V30 1339 N 127.117 1.15442 -1.07289 0
M  V30 1340 C 128.394 1.82306 -0.708792 0
M  V30 1341 C 128.774 1.94991 0.808807 0
M  V30 1342 O 128.122 1.50085 1.72298 0
M  V30 1343 C 128.332 3.18695 -1.42247 0
M  V30 1344 C 129.68 3.94341 -1.57417 0
M  V30 1345 O 130.704 3.28247 -1.38319 0
M  V30 1346 O 129.563 5.12839 -1.88834 0
M  V30 1347 H 126.657 0.787628 -0.252132 0
M  V30 1348 H 129.203 1.22559 -1.17377 0
M  V30 1349 H 127.975 3.04557 -2.45684 0
M  V30 1350 H 127.598 3.86128 -0.948223 0
M  V30 1351 N 128.595 0.856903 1.32268 0
M  V30 1352 C 129.843 0.460474 1.96784 0
M  V30 1353 C 130.164 -0.987701 1.68135 0
M  V30 1354 O 129.434 -1.69058 0.989765 0
M  V30 1355 H 128.014 0.167289 0.728027 0
M  V30 1356 H 130.676 1.09383 1.61312 0
M  V30 1357 H 129.772 0.60739 3.06133 0
M  V30 1358 N 130.073 -1.45103 0.615059 0
M  V30 1359 C 131.301 -2.06553 0.11977 0
M  V30 1360 C 131.716 -1.45842 -1.19898 0
M  V30 1361 O 131.073 -0.575325 -1.73194 0
M  V30 1362 C 131.124 -3.61495 -0.018364 0
M  V30 1363 O 130.845 -4.19942 1.24822 0
M  V30 1364 C 132.346 -4.39947 -0.544237 0
M  V30 1365 H 129.566 -0.667096 0.0722739 0
M  V30 1366 H 132.11 -1.8623 0.84491 0
M  V30 1367 H 130.265 -3.81135 -0.693865 0
M  V30 1368 H 130.679 -5.13204 1.0827 0
M  V30 1369 H 132.153 -5.48838 -0.589953 0
M  V30 1370 H 132.63 -4.10255 -1.56805 0
M  V30 1371 H 133.236 -4.25188 0.0974703 0
M  V30 1372 N 131.551 -0.354651 -1.53558 0
M  V30 1373 C 132.483 0.5315 -2.22952 0
M  V30 1374 C 133.496 1.05503 -1.23988 0
M  V30 1375 O 134.685 0.963279 -1.50277 0
M  V30 1376 C 131.785 1.74538 -2.90499 0
M  V30 1377 C 130.958 1.35524 -4.15875 0
M  V30 1378 C 130.017 2.42999 -4.66731 0
M  V30 1379 O 129.043 2.05844 -5.30676 0
M  V30 1380 N 130.245 3.74423 -4.43608 0
M  V30 1381 H 133.01 -0.0628615 -2.99634 0
M  V30 1382 H 130.571 -0.179302 -1.60904 0
M  V30 1383 H 132.563 2.45892 -3.21433 0
M  V30 1384 H 131.133 2.24686 -2.17336 0
M  V30 1385 H 130.353 0.471998 -3.91364 0
M  V30 1386 H 131.641 1.07071 -4.97406 0
M  V30 1387 H 131.039 4.07391 -3.92491 0
M  V30 1388 H 129.596 4.41913 -4.7912 0
M  V30 1389 N 133.029 1.57378 -0.0835403 0
M  V30 1390 C 133.959 2.1641 0.87686 0
M  V30 1391 C 134.94 1.09429 1.30228 0
M  V30 1392 O 136.125 1.37516 1.37124 0
M  V30 1393 C 133.255 2.73517 2.14022 0
M  V30 1394 C 132.209 3.85769 1.85381 0
M  V30 1395 C 131.535 4.29529 3.18448 0
M  V30 1396 C 132.835 5.09486 1.14984 0
M  V30 1397 H 134.529 2.96914 0.385059 0
M  V30 1398 H 132.075 1.42823 0.18377 0
M  V30 1399 H 134.028 3.13463 2.81636 0
M  V30 1400 H 132.752 1.90252 2.65465 0
M  V30 1401 H 131.411 3.46345 1.20169 0
M  V30 1402 H 131.059 3.43169 3.67755 0
M  V30 1403 H 130.759 5.05204 3.00071 0
M  V30 1404 H 132.283 4.72099 3.8724 0
M  V30 1405 H 133.697 5.46674 1.72687 0
M  V30 1406 H 132.094 5.90515 1.06826 0
M  V30 1407 H 133.164 4.84724 0.130749 0
M  V30 1408 N 134.507 -0.190092 1.56449 0
M  V30 1409 C 135.918 -0.754312 1.70784 0
M  V30 1410 C 136.269 -1.83631 0.690951 0
M  V30 1411 O 135.394 -2.15868 -0.151604 0
M  V30 1412 C 135.989 -1.37503 3.09642 0
M  V30 1413 C 134.548 -1.88628 3.25725 0
M  V30 1414 C 133.695 -0.758098 2.66736 0
M  V30 1415 H 136.646 0.0350524 1.58661 0
M  V30 1416 H 136.667 -2.2445 3.0725 0
M  V30 1417 H 136.179 -0.587302 3.83631 0
M  V30 1418 H 134.28 -2.70103 2.56661 0
M  V30 1419 H 134.393 -2.04462 4.3328 0
M  V30 1420 H 132.757 -1.17369 2.26046 0
M  V30 1421 H 133.54 0.0174705 3.43296 0
M  V30 1422 N 135.985 -1.50799 -0.457987 0
M  V30 1423 C 137.21 -1.66496 -1.23668 0
M  V30 1424 C 137.635 -0.353288 -1.84752 0
M  V30 1425 O 136.993 0.684346 -1.67888 0
M  V30 1426 C 137.041 -2.76763 -2.3116 0
M  V30 1427 O 136.145 -2.38928 -3.36136 0
M  V30 1428 H 135.486 -0.555828 -0.363252 0
M  V30 1429 H 138.016 -1.9725 -0.543474 0
M  V30 1430 H 138.026 -3.00232 -2.76269 0
M  V30 1431 H 136.701 -3.71954 -1.86073 0
M  V30 1432 H 135.278 -2.25953 -2.96647 0
M  V30 1433 N 137.463 0.71206 -1.40597 0
M  V30 1434 C 138.711 1.46907 -1.38791 0
M  V30 1435 C 139.032 1.94998 0.00780391 0
M  V30 1436 O 138.302 1.70587 0.963174 0
M  V30 1437 H 136.882 0.545043 -0.51082 0
M  V30 1438 H 139.544 0.843882 -1.75683 0
M  V30 1439 H 138.64 2.34021 -2.06496 0
M  V30 1440 N 138.941 1.26152 0.944643 0
M  V30 1441 C 139.891 1.04081 2.02857 0
M  V30 1442 C 140.875 -0.0256555 1.6088 0
M  V30 1443 O 142.067 0.190884 1.75968 0
M  V30 1444 C 139.196 0.672118 3.36656 0
M  V30 1445 C 138.282 1.77586 3.85128 0
M  V30 1446 N 138.673 3.01272 4.06287 0
M  V30 1447 C 136.971 1.65867 4.1401 0
M  V30 1448 C 137.672 3.72983 4.46384 0
M  V30 1449 N 136.648 3.00653 4.52889 0
M  V30 1450 H 140.45 1.97968 2.17223 0
M  V30 1451 H 137.964 1.16618 1.13022 0
M  V30 1452 H 139.961 0.495166 4.13949 0
M  V30 1453 H 138.621 -0.259307 3.23663 0
M  V30 1454 H 139.632 3.37213 3.93075 0
M  V30 1455 H 136.309 0.796907 4.09824 0
M  V30 1456 H 137.699 4.792 4.70975 0
M  V30 1457 N 140.419 -1.14872 1.07899 0
M  V30 1458 C 141.83 -1.67367 0.827363 0
M  V30 1459 C 142.181 -1.85236 -0.646693 0
M  V30 1460 O 141.306 -1.55974 -1.50004 0
M  V30 1461 C 141.901 -3.04016 1.49532 0
M  V30 1462 C 140.46 -3.53566 1.29106 0
M  V30 1463 C 139.607 -2.29161 1.56143 0
M  V30 1464 H 142.558 -0.990083 1.24028 0
M  V30 1465 H 142.579 -3.69219 0.919643 0
M  V30 1466 H 142.091 -2.90978 2.56814 0
M  V30 1467 H 140.192 -3.71835 0.238713 0
M  V30 1468 H 140.305 -4.34661 2.01511 0
M  V30 1469 H 138.669 -2.34978 0.982717 0
M  V30 1470 H 139.452 -2.18705 2.64619 0
M  V30 1471 N 141.898 -0.863906 -1.31812 0
M  V30 1472 C 142.828 -0.330843 -2.31144 0
M  V30 1473 C 143.809 0.575005 -1.60087 0
M  V30 1474 O 144.994 0.493304 -1.8783 0
M  V30 1475 C 142.124 0.47374 -3.44054 0
M  V30 1476 C 141.078 -0.338481 -4.26659 0
M  V30 1477 C 140.404 0.591412 -5.31419 0
M  V30 1478 C 141.704 -1.56926 -4.98168 0
M  V30 1479 H 143.398 -1.16086 -2.75979 0
M  V30 1480 H 140.944 -0.559657 -1.32679 0
M  V30 1481 H 142.897 0.857143 -4.12591 0
M  V30 1482 H 141.621 1.33721 -2.9797 0
M  V30 1483 H 140.28 -0.703754 -3.59782 0
M  V30 1484 H 139.928 1.45199 -4.81587 0
M  V30 1485 H 139.628 0.0519022 -5.87577 0
M  V30 1486 H 141.152 0.97179 -6.02817 0
M  V30 1487 H 142.566 -1.25764 -5.59336 0
M  V30 1488 H 140.963 -2.04739 -5.64094 0
M  V30 1489 H 142.033 -2.32544 -4.25501 0
M  V30 1490 N 143.376 1.44774 -0.622745 0
M  V30 1491 C 144.787 1.85546 -0.207226 0
M  V30 1492 C 145.138 1.52093 1.23944 0
M  V30 1493 O 144.263 0.95492 1.94191 0
M  V30 1494 C 144.858 3.36781 -0.369313 0
M  V30 1495 C 143.417 3.76399 -0.00836847 0
M  V30 1496 C 142.564 2.68664 -0.686651 0
M  V30 1497 H 145.515 1.3536 -0.828454 0
M  V30 1498 H 145.536 3.78453 0.394162 0
M  V30 1499 H 145.048 3.61098 -1.42231 0
M  V30 1500 H 143.149 3.57698 1.04322 0
M  V30 1501 H 143.262 4.7732 -0.412584 0
M  V30 1502 H 141.626 2.54404 -0.122777 0
M  V30 1503 H 142.409 2.95815 -1.74208 0
M  V30 1504 N 144.854 0.36279 1.53368 0
M  V30 1505 C 145.817 -0.472679 2.24273 0
M  V30 1506 C 146.817 -1.012 1.24961 0
M  V30 1507 O 148.007 -0.898194 1.49259 0
M  V30 1508 C 145.139 -1.66039 2.97731 0
M  V30 1509 H 146.332 0.14773 2.99536 0
M  V30 1510 H 143.885 0.114434 1.55881 0
M  V30 1511 H 144.62 -2.31896 2.26704 0
M  V30 1512 H 144.405 -1.28066 3.70596 0
M  V30 1513 H 145.895 -2.25252 3.51641 0
M  V30 1514 N 146.332 -1.57332 0.0918853 0
M  V30 1515 C 147.56 -1.98574 -0.581048 0
M  V30 1516 C 147.975 -0.970903 -1.61923 0
M  V30 1517 O 147.332 0.0399054 -1.82456 0
M  V30 1518 C 147.383 -3.39872 -1.23164 0
M  V30 1519 O 147.104 -4.37469 -0.234989 0
M  V30 1520 C 148.605 -3.96099 -1.99049 0
M  V30 1521 H 145.825 -0.65261 -0.156018 0
M  V30 1522 H 148.369 -2.0379 0.170225 0
M  V30 1523 H 146.524 -3.35679 -1.93386 0
M  V30 1524 H 146.938 -5.19751 -0.70418 0
M  V30 1525 H 148.412 -4.97127 -2.39934 0
M  V30 1526 H 148.889 -3.3374 -2.85507 0
M  V30 1527 H 149.495 -4.03755 -1.3365 0
M  V30 1528 N 147.81 0.181792 -1.56548 0
M  V30 1529 C 149.035 0.920019 -1.85877 0
M  V30 1530 C 149.46 1.75494 -0.677021 0
M  V30 1531 O 148.818 1.77399 0.374056 0
M  V30 1532 C 148.866 1.78112 -3.13542 0
M  V30 1533 O 147.97 2.88152 -2.95029 0
M  V30 1534 H 147.311 0.258334 -0.611686 0
M  V30 1535 H 149.841 0.183092 -2.03779 0
M  V30 1536 H 149.851 2.18314 -3.44678 0
M  V30 1537 H 148.526 1.16777 -3.99169 0
M  V30 1538 H 147.103 2.51609 -2.75222 0
M  V30 1539 N 149.288 1.51039 0.449983 0
M  V30 1540 C 150.22 1.67617 1.56324 0
M  V30 1541 C 151.233 0.557083 1.52972 0
M  V30 1542 O 152.422 0.830989 1.57977 0
M  V30 1543 C 149.522 1.66402 2.95235 0
M  V30 1544 C 148.695 2.9469 3.23229 0
M  V30 1545 C 147.754 2.85832 4.41799 0
M  V30 1546 O 146.78 3.59785 4.41071 0
M  V30 1547 N 147.982 2.00821 5.44657 0
M  V30 1548 H 150.747 2.63648 1.42512 0
M  V30 1549 H 148.308 1.48767 0.638737 0
M  V30 1550 H 150.3 1.58062 3.72557 0
M  V30 1551 H 148.87 0.780182 3.02708 0
M  V30 1552 H 148.09 3.16996 2.34323 0
M  V30 1553 H 149.378 3.79636 3.38754 0
M  V30 1554 H 148.776 1.40091 5.48079 0
M  V30 1555 H 147.333 1.98368 6.20881 0
M  V30 1556 N 150.766 -0.704594 1.40972 0
M  V30 1557 C 152.014 -1.46169 1.39568 0
M  V30 1558 C 152.335 -1.95 0.00253745 0
M  V30 1559 O 151.605 -1.71095 -0.954114 0
M  V30 1560 H 150.185 -0.542326 0.513704 0
M  V30 1561 H 152.847 -0.834553 1.76128 0
M  V30 1562 H 151.943 -2.32922 2.07735 0
M  V30 1563 N 152.244 -1.26651 -0.937939 0
M  V30 1564 C 153.472 -1.15173 -1.7188 0
M  V30 1565 C 153.887 0.292668 -1.86518 0
M  V30 1566 O 153.244 1.20014 -1.37488 0
M  V30 1567 C 153.295 -1.81925 -3.12387 0
M  V30 1568 O 153.016 -3.2072 -2.98446 0
M  V30 1569 C 154.517 -1.76442 -4.06673 0
M  V30 1570 H 151.737 -0.400911 -0.538063 0
M  V30 1571 H 154.281 -1.67332 -1.1756 0
M  V30 1572 H 152.436 -1.33696 -3.63599 0
M  V30 1573 H 152.85 -3.53802 -3.872 0
M  V30 1574 H 154.324 -2.27781 -5.02812 0
M  V30 1575 H 154.801 -0.731608 -4.33064 0
M  V30 1576 H 155.407 -2.24238 -3.61382 0
M  V30 1577 N 153.722 1.14298 -1.08507 0
M  V30 1578 C 154.685 2.17607 -0.719711 0
M  V30 1579 C 155.685 1.58907 0.245997 0
M  V30 1580 O 156.875 1.74181 0.0254081 0
M  V30 1581 C 154.007 3.40842 -0.0627695 0
M  V30 1582 H 155.2 2.51443 -1.63452 0
M  V30 1583 H 152.753 1.28963 -0.88307 0
M  V30 1584 H 153.488 3.12587 0.863716 0
M  V30 1585 H 153.273 3.84713 -0.757504 0
M  V30 1586 H 154.763 4.17221 0.177786 0
M  V30 1587 N 155.201 0.870884 1.31352 0
M  V30 1588 C 156.426 0.495957 2.01383 0
M  V30 1589 C 156.851 -0.904324 1.64935 0
M  V30 1590 O 156.209 -1.59687 0.858466 0
M  V30 1591 C 156.257 0.661433 3.54482 0
M  V30 1592 O 155.361 -0.298851 4.11316 0
M  V30 1593 H 154.702 0.197158 0.634054 0
M  V30 1594 H 157.232 1.17455 1.67527 0
M  V30 1595 H 157.242 0.555072 4.04207 0
M  V30 1596 H 155.917 1.68246 3.8035 0
M  V30 1597 H 154.494 -0.147368 3.72609 0
M  V30 1598 N 156.679 -1.44442 0.630414 0
M  V30 1599 C 157.626 -2.30678 -0.0749355 0
M  V30 1600 C 158.596 -1.4344 -0.837502 0
M  V30 1601 O 159.781 -1.72343 -0.818684 0
M  V30 1602 C 156.921 -3.28706 -1.05103 0
M  V30 1603 C 156.034 -4.31046 -0.286954 0
M  V30 1604 C 155.169 -5.16167 -1.2548 0
M  V30 1605 C 154.208 -6.10216 -0.479843 0
M  V30 1606 N 153.345 -6.88039 -1.39811 0
M  V30 1607 H 158.185 -2.90454 0.666386 0
M  V30 1608 H 155.722 -1.43107 0.340404 0
M  V30 1609 H 157.68 -3.84027 -1.63031 0
M  V30 1610 H 156.31 -2.70632 -1.75949 0
M  V30 1611 H 155.362 -3.78203 0.408243 0
M  V30 1612 H 156.674 -4.97794 0.316657 0
M  V30 1613 H 155.828 -5.76002 -1.90544 0
M  V30 1614 H 154.567 -4.49491 -1.89233 0
M  V30 1615 H 153.572 -5.49491 0.184295 0
M  V30 1616 H 154.797 -6.78928 0.152965 0
M  V30 1617 H 152.743 -6.24032 -2.02287 0
M  V30 1618 H 152.66 -7.51223 -0.848508 0
M  V30 1619 H 153.928 -7.52397 -2.03762 0
M  V30 1620 N 158.157 -0.370918 -1.53173 0
M  V30 1621 C 159.397 0.217106 -2.03244 0
M  V30 1622 C 159.761 1.45558 -1.25207 0
M  V30 1623 O 160.962 2.11957 -1.65311 0
M  V30 1624 C 159.233 0.496664 -3.53932 0
M  V30 1625 S 160.792 1.0576 -4.25864 0
M  V30 1626 H 157.61 0.0627827 -0.708223 0
M  V30 1627 H 160.212 -0.515019 -1.88594 0
M  V30 1628 H 158.916 -0.412096 -4.08326 0
M  V30 1629 H 158.447 1.25772 -3.72753 0
M  V30 1630 H 160.462 2.34145 -4.37482 0
M  V30 1631 N 159.635 1.57281 -0.100228 0
M  V30 1632 C 161.046 1.81725 0.428107 0
M  V30 1633 C 161.397 1.01619 1.67833 0
M  V30 1634 O 160.522 0.247098 2.14985 0
M  V30 1635 C 161.117 3.29617 0.78347 0
M  V30 1636 C 159.676 3.54808 1.25653 0
M  V30 1637 C 158.823 2.76118 0.255752 0
M  V30 1638 H 161.774 1.55324 -0.325608 0
M  V30 1639 H 161.795 3.4322 1.64256 0
M  V30 1640 H 161.307 3.87893 -0.12665 0
M  V30 1641 H 159.408 3.01868 2.18418 0
M  V30 1642 H 159.521 4.63443 1.21482 0
M  V30 1643 H 157.885 2.43745 0.738956 0
M  V30 1644 H 158.668 3.37145 -0.647136 0
M  V30 1645 N 161.113 -0.173488 1.56642 0
M  V30 1646 C 162.36 -0.890465 1.81871 0
M  V30 1647 C 162.688 -1.82339 0.67696 0
M  V30 1648 O 161.943 -1.92795 -0.335926 0
M  V30 1649 C 162.242 -1.72069 3.13252 0
M  V30 1650 C 161.908 -0.936878 4.41059 0
M  V30 1651 C 160.57 -0.720545 4.75775 0
M  V30 1652 C 162.922 -0.386919 5.19762 0
M  V30 1653 C 160.25 0.0568829 5.86672 0
M  V30 1654 C 162.602 0.37741 6.31473 0
M  V30 1655 C 161.266 0.604563 6.64757 0
M  V30 1656 H 160.536 -0.325844 0.665512 0
M  V30 1657 H 163.183 -0.155527 1.90867 0
M  V30 1658 H 161.488 -2.52496 2.99588 0
M  V30 1659 H 163.185 -2.27844 3.29982 0
M  V30 1660 H 159.775 -1.11553 4.13828 0
M  V30 1661 H 163.959 -0.541398 4.93338 0
M  V30 1662 H 159.215 0.242635 6.10918 0
M  V30 1663 H 163.389 0.810825 6.91664 0
M  V30 1664 H 161.016 1.20885 7.50527 0
M  V30 1665 N 162.591 -1.51276 -0.441967 0
M  V30 1666 C 163.521 -1.752 -1.54361 0
M  V30 1667 C 164.502 -0.601682 -1.59103 0
M  V30 1668 O 165.687 -0.843913 -1.74905 0
M  V30 1669 C 162.817 -1.87282 -2.92477 0
M  V30 1670 C 161.771 -3.02687 -3.02596 0
M  V30 1671 C 161.097 -2.99947 -4.42647 0
M  V30 1672 C 162.397 -4.4273 -2.77106 0
M  V30 1673 H 164.091 -2.67442 -1.34592 0
M  V30 1674 H 161.637 -1.28694 -0.646048 0
M  V30 1675 H 163.59 -2.02602 -3.695 0
M  V30 1676 H 162.314 -0.916844 -3.13467 0
M  V30 1677 H 160.973 -2.87065 -2.28012 0
M  V30 1678 H 160.621 -2.02136 -4.60597 0
M  V30 1679 H 160.321 -3.77439 -4.50348 0
M  V30 1680 H 161.845 -3.17354 -5.2165 0
M  V30 1681 H 163.259 -4.58727 -3.43864 0
M  V30 1682 H 161.656 -5.21893 -2.96222 0
M  V30 1683 H 162.726 -4.53087 -1.72744 0
M  V30 1684 N 164.069 0.697108 -1.41344 0
M  V30 1685 C 165.032 1.79281 -1.42797 0
M  V30 1686 C 166.032 1.57607 -0.318837 0
M  V30 1687 O 167.222 1.64309 -0.578642 0
M  V30 1688 C 164.354 3.17632 -1.23785 0
M  V30 1689 H 165.547 1.79385 -2.40335 0
M  V30 1690 H 163.1 0.904582 -1.27464 0
M  V30 1691 H 163.835 3.23167 -0.270814 0
M  V30 1692 H 163.62 3.34765 -2.04144 0
M  V30 1693 H 165.11 3.97617 -1.27633 0
M  V30 1694 N 165.547 1.27147 0.931209 0
M  V30 1695 C 166.51 1.09615 2.01289 0
M  V30 1696 C 167.51 0.0412581 1.60747 0
M  V30 1697 O 168.7 0.285545 1.71844 0
M  V30 1698 C 165.832 0.669447 3.34262 0
M  V30 1699 H 167.025 2.05662 2.18273 0
M  V30 1700 H 164.578 1.09885 1.11153 0
M  V30 1701 H 165.313 -0.292572 3.22978 0
M  V30 1702 H 165.098 1.43127 3.65044 0
M  V30 1703 H 166.588 0.568921 4.13706 0
M  V30 1704 N 167.025 -1.13721 1.09112 0
M  V30 1705 C 167.957 -2.1871 0.685467 0
M  V30 1706 C 168.97 -1.60527 -0.271068 0
M  V30 1707 O 170.159 -1.78407 -0.0576148 0
M  V30 1708 C 167.259 -3.38898 -0.0111255 0
M  V30 1709 C 166.432 -4.26597 0.966131 0
M  V30 1710 C 165.491 -5.25324 0.303539 0
M  V30 1711 O 164.517 -5.61213 0.950177 0
M  V30 1712 N 165.719 -5.72779 -0.943651 0
M  V30 1713 H 168.484 -2.54126 1.58871 0
M  V30 1714 H 166.045 -1.29012 0.978143 0
M  V30 1715 H 168.037 -4.02014 -0.465517 0
M  V30 1716 H 166.607 -3.01747 -0.816565 0
M  V30 1717 H 165.827 -3.60306 1.59917 0
M  V30 1718 H 167.115 -4.82048 1.6281 0
M  V30 1719 H 166.513 -5.45762 -1.48862 0
M  V30 1720 H 165.07 -6.37847 -1.34142 0
M  V30 1721 N 168.503 -0.877838 -1.30888 0
M  V30 1722 C 169.436 -0.283995 -2.26426 0
M  V30 1723 C 170.414 0.591361 -1.51465 0
M  V30 1724 O 171.598 0.54304 -1.80509 0
M  V30 1725 C 168.725 0.597129 -3.33395 0
M  V30 1726 C 167.771 -0.207937 -4.25993 0
M  V30 1727 S 168.604 -1.59158 -5.11301 0
M  V30 1728 C 169.76 -0.716791 -6.21782 0
M  V30 1729 H 169.993 -1.09383 -2.76446 0
M  V30 1730 H 167.526 -0.676828 -1.38775 0
M  V30 1731 H 169.484 1.09978 -3.95493 0
M  V30 1732 H 168.145 1.38099 -2.82113 0
M  V30 1733 H 167.338 0.464163 -5.01858 0
M  V30 1734 H 166.94 -0.642963 -3.68432 0
M  V30 1735 H 169.232 0.0692833 -6.77465 0
M  V30 1736 H 170.175 -1.44682 -6.93161 0
M  V30 1737 H 170.583 -0.280855 -5.63801 0
M  V30 1738 N 169.982 1.44106 -0.638065 0
M  V30 1739 C 170.93 2.3248 0.0748149 0
M  V30 1740 C 171.924 1.47746 0.828702 0
M  V30 1741 O 173.13 1.64049 0.740816 0
M  V30 1742 H 169.505 0.750771 0.0429686 0
M  V30 1743 H 171.476 2.90348 -0.688504 0
M  V30 1744 C 170.225 3.31843 1.03805 0
M  V30 1745 H 169.548 3.97059 0.467375 0
M  V30 1746 H 170.988 3.96345 1.50622 0
M  V30 1747 C 169.447 2.61291 2.1267 0
M  V30 1748 O 169.977 2.41702 3.20847 0
M  V30 1749 N 168.183 2.20915 1.88798 0
M  V30 1750 H 167.73 2.37047 1.00829 0
M  V30 1751 H 167.688 1.74038 2.61836 0
M  V30 1752 N 171.46 0.379036 1.52974 0
M  V30 1753 C 172.392 -0.495963 2.2377 0
M  V30 1754 C 173.405 -1.03517 1.25651 0
M  V30 1755 O 174.594 -0.939249 1.51791 0
M  V30 1756 C 171.694 -1.69894 2.93239 0
M  V30 1757 C 170.867 -1.2889 4.17979 0
M  V30 1758 C 169.926 -2.35543 4.70538 0
M  V30 1759 O 168.952 -1.97375 5.33883 0
M  V30 1760 N 170.154 -3.67318 4.49508 0
M  V30 1761 H 172.919 0.110523 2.99496 0
M  V30 1762 H 170.48 0.204878 1.60598 0
M  V30 1763 H 172.472 -2.40747 3.25304 0
M  V30 1764 H 171.042 -2.212 2.20883 0
M  V30 1765 H 170.262 -0.409676 3.92065 0
M  V30 1766 H 171.55 -0.991443 4.99047 0
M  V30 1767 H 170.948 -4.01095 3.98923 0
M  V30 1768 H 169.505 -4.34235 4.8609 0
M  V30 1769 N 172.938 -1.57226 0.108567 0
M  V30 1770 C 174.354 -1.5766 -0.248058 0
M  V30 1771 C 174.554 -1.12063 -1.67464 0
M  V30 1772 O 173.61 -0.803236 -2.39383 0
M  V30 1773 C 174.923 -3.0069 -0.0242287 0
M  V30 1774 C 176.471 -3.12868 -0.0909372 0
M  V30 1775 C 176.946 -4.57879 0.105067 0
M  V30 1776 N 178.437 -4.63172 0.0506846 0
M  V30 1777 C 179.172 -5.73126 0.177396 0
M  V30 1778 N 178.668 -6.91866 0.359696 0
M  V30 1779 N 180.461 -5.61977 0.117709 0
M  V30 1780 H 172.612 -1.85169 1.04049 0
M  V30 1781 H 174.875 -0.85529 0.40888 0
M  V30 1782 H 174.581 -3.38299 0.961604 0
M  V30 1783 H 174.455 -3.6945 -0.76068 0
M  V30 1784 H 176.842 -2.75124 -1.06729 0
M  V30 1785 H 176.923 -2.46672 0.677225 0
M  V30 1786 H 176.567 -4.96321 1.07834 0
M  V30 1787 H 176.497 -5.22153 -0.682954 0
M  V30 1788 H 178.988 -3.778 -0.0871266 0
M  V30 1789 H 179.301 -7.71503 0.447529 0
M  V30 1790 H 177.646 -6.93874 0.395536 0
M  V30 1791 H 180.837 -4.68094 -0.0236741 0
M  V30 1792 H 181.01 -6.47627 0.219905 0
M  V30 1793 N 174.416 0.165178 -1.56732 0
M  V30 1794 C 175.664 0.879068 -1.8198 0
M  V30 1795 C 175.985 1.82514 -0.686561 0
M  V30 1796 O 175.255 1.93694 0.293146 0
M  V30 1797 H 173.835 0.327608 -0.671329 0
M  V30 1798 H 176.497 0.163526 -1.94213 0
M  V30 1799 H 175.593 1.45228 -2.76252 0
M  V30 1800 N 175.894 1.51508 0.433938 0
M  V30 1801 C 177.119 1.68443 1.21003 0
M  V30 1802 C 177.544 0.382636 1.84167 0
M  V30 1803 O 176.902 -0.65755 1.68956 0
M  V30 1804 C 176.95 2.80405 2.26727 0
M  V30 1805 O 176.054 2.44245 3.32292 0
M  V30 1806 H 175.395 0.561536 0.354363 0
M  V30 1807 H 177.925 1.9809 0.512024 0
M  V30 1808 H 177.935 3.0459 2.71457 0
M  V30 1809 H 176.61 3.74867 1.80132 0
M  V30 1810 H 175.187 2.30644 2.93015 0
M  V30 1811 N 177.372 -0.689602 1.41712 0
M  V30 1812 C 178.597 -1.48329 1.44959 0
M  V30 1813 C 179.022 -1.8801 0.0581283 0
M  V30 1814 O 178.38 -1.55026 -0.940035 0
M  V30 1815 C 178.428 -2.71835 2.36935 0
M  V30 1816 O 177.532 -3.69549 1.8305 0
M  V30 1817 H 176.873 -0.446199 0.491734 0
M  V30 1818 H 179.403 -0.847127 1.86239 0
M  V30 1819 H 179.413 -3.20076 2.53013 0
M  V30 1820 H 178.088 -2.42291 3.38035 0
M  V30 1821 H 176.665 -3.2851 1.76452 0
M  V30 1822 N 178.85 -1.27639 -0.924453 0
M  V30 1823 C 180.096 -1.14336 -1.67497 0
M  V30 1824 C 180.429 0.309465 -1.91718 0
M  V30 1825 O 179.704 1.22608 -1.50989 0
M  V30 1826 C 179.987 -1.93096 -3.0395 0
M  V30 1827 C 179.84 -3.46381 -2.8695 0
M  V30 1828 C 181.159 -1.73798 -4.0433 0
M  V30 1829 H 178.278 -0.416728 -0.607871 0
M  V30 1830 H 180.92 -1.56832 -1.07256 0
M  V30 1831 H 179.07 -1.56982 -3.55372 0
M  V30 1832 H 180.742 -3.92343 -2.42621 0
M  V30 1833 H 178.985 -3.72557 -2.22225 0
M  V30 1834 H 179.656 -3.96735 -3.83804 0
M  V30 1835 H 182.132 -2.05293 -3.61931 0
M  V30 1836 H 181.008 -2.31294 -4.97789 0
M  V30 1837 H 181.269 -0.686725 -4.36734 0
M  V30 1838 N 180.328 1.1314 -1.09713 0
M  V30 1839 C 181.575 1.84484 -0.834987 0
M  V30 1840 C 181.903 1.83689 0.639418 0
M  V30 1841 O 181.158 1.2724 1.4869 0
M  V30 1842 C 181.457 3.32167 -1.3191 0
M  V30 1843 C 181.123 3.53139 -2.80363 0
M  V30 1844 C 179.785 3.58571 -3.20905 0
M  V30 1845 C 182.137 3.60866 -3.76065 0
M  V30 1846 C 179.465 3.69267 -4.55916 0
M  V30 1847 C 181.817 3.73089 -5.10869 0
M  V30 1848 C 180.481 3.76775 -5.50996 0
M  V30 1849 H 179.751 0.675073 -0.305544 0
M  V30 1850 H 182.398 1.33554 -1.37243 0
M  V30 1851 H 180.703 3.85469 -0.701517 0
M  V30 1852 H 182.4 3.85821 -1.09284 0
M  V30 1853 H 178.99 3.49569 -2.47991 0
M  V30 1854 H 183.174 3.55946 -3.45855 0
M  V30 1855 H 178.43 3.70388 -4.86438 0
M  V30 1856 H 182.604 3.78011 -5.84877 0
M  V30 1857 H 180.231 3.84815 -6.55608 0
M  V30 1858 N 181.806 0.884767 1.30421 0
M  V30 1859 C 183.046 0.509806 1.9794 0
M  V30 1860 C 183.41 -0.923736 1.68319 0
M  V30 1861 O 184.611 -1.40481 2.29169 0
M  V30 1862 C 182.882 0.776732 3.48858 0
M  V30 1863 S 184.441 0.503843 4.35898 0
M  V30 1864 H 181.259 0.189699 0.685227 0
M  V30 1865 H 183.861 1.14399 1.58535 0
M  V30 1866 H 182.565 1.81857 3.67908 0
M  V30 1867 H 182.096 0.1301 3.93185 0
M  V30 1868 H 184.111 -0.657625 4.91823 0
M  V30 1869 N 183.284 -1.43765 0.645699 0
M  V30 1870 C 184.231 -2.30745 -0.0504648 0
M  V30 1871 C 185.201 -1.4432 -0.822241 0
M  V30 1872 O 186.386 -1.73202 -0.800358 0
M  V30 1873 C 183.526 -3.29802 -1.0161 0
M  V30 1874 C 182.639 -4.31326 -0.241219 0
M  V30 1875 C 181.774 -5.17469 -1.19998 0
M  V30 1876 C 180.813 -6.10691 -0.415094 0
M  V30 1877 N 179.95 -6.89483 -1.32506 0
M  V30 1878 H 184.79 -2.8973 0.697155 0
M  V30 1879 H 182.327 -1.42738 0.355563 0
M  V30 1880 H 184.285 -3.85734 -1.58949 0
M  V30 1881 H 182.915 -2.72483 -1.73069 0
M  V30 1882 H 181.967 -3.77749 0.448334 0
M  V30 1883 H 183.279 -4.9743 0.369437 0
M  V30 1884 H 182.433 -5.7799 -1.84424 0
M  V30 1885 H 181.172 -4.51473 -1.84455 0
M  V30 1886 H 180.177 -5.49265 0.242565 0
M  V30 1887 H 181.402 -6.78727 0.224966 0
M  V30 1888 H 179.348 -6.26142 -1.95657 0
M  V30 1889 H 179.265 -7.52081 -0.768783 0
M  V30 1890 H 180.533 -7.54516 -1.9577 0
M  V30 1891 N 184.763 -0.387143 -1.52771 0
M  V30 1892 C 185.726 0.436939 -2.24997 0
M  V30 1893 C 186.726 0.991991 -1.26555 0
M  V30 1894 O 187.916 0.874335 -1.50669 0
M  V30 1895 C 185.048 1.61281 -3.00335 0
M  V30 1896 H 186.241 -0.195365 -2.99263 0
M  V30 1897 H 183.794 -0.139218 -1.55679 0
M  V30 1898 H 184.529 2.2826 -2.30364 0
M  V30 1899 H 184.314 1.22154 -3.72587 0
M  V30 1900 H 185.804 2.19629 -3.5518 0
M  V30 1901 N 186.241 1.57166 -0.116904 0
M  V30 1902 C 187.466 1.999 0.55271 0
M  V30 1903 C 187.891 0.996039 1.59564 0
M  V30 1904 O 187.249 -0.032556 1.81271 0
M  V30 1905 C 187.297 3.4152 1.15742 0
M  V30 1906 O 186.401 3.44106 2.27299 0
M  V30 1907 H 185.742 0.649447 0.138258 0
M  V30 1908 H 188.272 2.03573 -0.204759 0
M  V30 1909 H 188.282 3.79684 1.49346 0
M  V30 1910 H 186.957 4.14034 0.393493 0
M  V30 1911 H 185.534 3.17759 1.9515 0
M  V30 1912 N 187.719 -0.156864 1.56817 0
M  V30 1913 C 188.649 -1.19589 2.00551 0
M  V30 1914 C 189.63 -1.4536 0.883426 0
M  V30 1915 O 190.815 -1.56449 1.15054 0
M  V30 1916 C 187.945 -2.53143 2.37773 0
M  V30 1917 C 186.899 -2.41913 3.53075 0
M  V30 1918 C 186.225 -3.80088 3.76081 0
M  V30 1919 C 187.525 -1.91157 4.86062 0
M  V30 1920 H 189.219 -0.832293 2.87599 0
M  V30 1921 H 186.765 -0.398918 1.38364 0
M  V30 1922 H 188.718 -3.26047 2.66967 0
M  V30 1923 H 187.442 -2.91319 1.4765 0
M  V30 1924 H 186.101 -1.71462 3.24031 0
M  V30 1925 H 185.749 -4.15683 2.83225 0
M  V30 1926 H 185.449 -3.73439 4.53671 0
M  V30 1927 H 186.973 -4.54556 4.0769 0
M  V30 1928 H 188.387 -2.53846 5.14038 0
M  V30 1929 H 186.784 -1.95422 5.67389 0
M  V30 1930 H 187.854 -0.866673 4.77092 0
M  V30 1931 N 189.197 -1.51736 -0.425897 0
M  V30 1932 C 190.107 -1.76738 -1.54275 0
M  V30 1933 C 191.123 -0.65211 -1.61318 0
M  V30 1934 O 192.299 -0.935654 -1.78346 0
M  V30 1935 C 189.364 -1.89755 -2.90162 0
M  V30 1936 C 188.425 -3.13633 -2.93143 0
M  V30 1937 C 187.658 -3.2602 -4.22548 0
M  V30 1938 O 187.881 -2.44067 -5.15546 0
M  V30 1939 O 186.815 -4.19071 -4.32046 0
M  V30 1940 H 190.641 -2.71502 -1.36089 0
M  V30 1941 H 188.226 -1.36376 -0.610069 0
M  V30 1942 H 190.108 -2.00236 -3.70788 0
M  V30 1943 H 188.783 -0.981785 -3.08452 0
M  V30 1944 H 187.69 -3.08622 -2.11431 0
M  V30 1945 H 189.023 -4.04936 -2.798 0
M  V30 1946 N 190.675 0.682077 -1.42076 0
M  V30 1947 C 191.605 1.80796 -1.47767 0
M  V30 1948 C 192.586 1.6677 -0.334954 0
M  V30 1949 O 193.771 1.863 -0.548264 0
M  V30 1950 C 190.901 3.19038 -1.37229 0
M  V30 1951 C 189.855 3.47789 -2.49453 0
M  V30 1952 C 189.181 4.8553 -2.23975 0
M  V30 1953 C 190.481 3.45411 -3.91776 0
M  V30 1954 H 192.175 1.7629 -2.41997 0
M  V30 1955 H 189.721 0.846721 -1.16476 0
M  V30 1956 H 191.674 3.97528 -1.39821 0
M  V30 1957 H 190.398 3.24204 -0.394907 0
M  V30 1958 H 189.057 2.71657 -2.46166 0
M  V30 1959 H 188.705 4.87337 -1.24547 0
M  V30 1960 H 188.405 5.0573 -2.99184 0
M  V30 1961 H 189.929 5.66312 -2.28304 0
M  V30 1962 H 191.343 4.13882 -3.96705 0
M  V30 1963 H 189.74 3.77145 -4.66778 0
M  V30 1964 H 190.81 2.44122 -4.18966 0
M  V30 1965 N 192.153 1.28127 0.917671 0
M  V30 1966 C 193.085 1.07517 2.02417 0
M  V30 1967 C 194.098 0.0281099 1.62776 0
M  V30 1968 O 195.287 0.270748 1.76435 0
M  V30 1969 C 192.387 0.610957 3.33347 0
M  V30 1970 C 191.56 1.73255 4.01624 0
M  V30 1971 C 190.619 1.26238 5.10833 0
M  V30 1972 O 189.645 1.96389 5.34247 0
M  V30 1973 N 190.847 0.123448 5.80369 0
M  V30 1974 H 193.612 2.02806 2.20658 0
M  V30 1975 H 191.173 1.19827 1.08871 0
M  V30 1976 H 193.165 0.280101 4.0373 0
M  V30 1977 H 191.735 -0.24898 3.11607 0
M  V30 1978 H 190.955 2.23319 3.24842 0
M  V30 1979 H 192.243 2.48503 4.43986 0
M  V30 1980 H 191.641 -0.461847 5.63812 0
M  V30 1981 H 190.198 -0.148158 6.51632 0
M  V30 1982 N 193.631 -1.12557 1.10312 0
M  V30 1983 C 194.541 -2.21841 0.763142 0
M  V30 1984 C 195.557 -1.72354 -0.238801 0
M  V30 1985 O 196.733 -2.01249 -0.0778746 0
M  V30 1986 C 193.798 -3.46131 0.198632 0
M  V30 1987 C 192.859 -4.10464 1.25769 0
M  V30 1988 C 192.092 -5.28821 0.72002 0
M  V30 1989 O 192.315 -5.6859 -0.453993 0
M  V30 1990 O 191.249 -5.83437 1.47935 0
M  V30 1991 H 195.075 -2.53312 1.67532 0
M  V30 1992 H 192.66 -1.20867 0.878157 0
M  V30 1993 H 194.542 -4.2125 -0.112401 0
M  V30 1994 H 193.217 -3.16338 -0.686419 0
M  V30 1995 H 192.124 -3.3713 1.62156 0
M  V30 1996 H 193.457 -4.44408 2.11571 0
M  V30 1997 N 195.109 -0.891671 -1.2995 0
M  V30 1998 C 196.386 -0.433307 -1.9074 0
M  V30 1999 C 196.766 1.08646 -1.80995 0
M  V30 2000 O 196.114 1.92476 -1.23147 0
M  V30 2001 C 196.324 -0.938895 -3.36134 0
M  V30 2002 C 197.672 -0.977829 -4.13187 0
M  V30 2003 O 198.696 -0.886015 -3.45005 0
M  V30 2004 O 197.555 -1.11453 -5.35015 0
M  V30 2005 H 194.649 -0.133699 -0.816121 0
M  V30 2006 H 197.195 -0.981011 -1.38471 0
M  V30 2007 H 195.967 -1.98281 -3.37343 0
M  V30 2008 H 195.59 -0.37074 -3.95868 0
M  V30 2009 N 196.587 1.43421 -0.653314 0
M  V30 2010 C 197.833 2.02111 -0.166992 0
M  V30 2011 C 198.166 1.51423 1.21592 0
M  V30 2012 O 197.441 0.707389 1.8118 0
M  V30 2013 C 197.724 3.5966 -0.177948 0
M  V30 2014 C 197.577 4.20579 -1.59478 0
M  V30 2015 C 198.896 4.37413 0.4856 0
M  V30 2016 H 196.015 0.734374 -0.0621557 0
M  V30 2017 H 198.657 1.70717 -0.834016 0
M  V30 2018 H 196.807 3.86537 0.390032 0
M  V30 2019 H 198.479 4.04732 -2.21336 0
M  V30 2020 H 196.722 3.77226 -2.14204 0
M  V30 2021 H 197.393 5.29665 -1.5543 0
M  V30 2022 H 199.869 4.161 0.00234528 0
M  V30 2023 H 198.745 5.47075 0.447207 0
M  V30 2024 H 199.006 4.13672 1.55974 0
M  V30 2025 N 198.065 0.39524 1.52563 0
M  V30 2026 C 198.997 -0.472201 2.24283 0
M  V30 2027 C 200.01 -1.02178 1.26742 0
M  V30 2028 O 201.199 -0.923097 1.52778 0
M  V30 2029 C 198.299 -1.66775 2.95024 0
M  V30 2030 C 197.472 -1.2445 4.19322 0
M  V30 2031 C 196.531 -2.30539 4.7301 0
M  V30 2032 O 195.557 -1.91702 5.35947 0
M  V30 2033 N 196.759 -3.6253 4.53379 0
M  V30 2034 H 199.524 0.142282 2.99362 0
M  V30 2035 H 197.085 0.2219 1.60372 0
M  V30 2036 H 199.077 -2.37283 3.27839 0
M  V30 2037 H 197.647 -2.18845 2.23217 0
M  V30 2038 H 196.867 -0.368069 3.92478 0
M  V30 2039 H 198.155 -0.938457 5.0007 0
M  V30 2040 H 197.553 -3.96841 4.03154 0
M  V30 2041 H 196.11 -4.29055 4.90668 0
M  V30 2042 N 199.544 -1.57102 0.125237 0
M  V30 2043 C 200.454 -2.19191 -0.8362 0
M  V30 2044 C 201.47 -1.16985 -1.28805 0
M  V30 2045 O 202.646 -1.49479 -1.34974 0
M  V30 2046 C 199.711 -2.78407 -2.06617 0
M  V30 2047 C 198.772 -3.9567 -1.66565 0
M  V30 2048 C 198.005 -4.52052 -2.83698 0
M  V30 2049 O 198.228 -4.07326 -3.99302 0
M  V30 2050 O 197.162 -5.42645 -2.60423 0
M  V30 2051 H 200.988 -3.01816 -0.337776 0
M  V30 2052 H 198.573 -1.4906 -0.100695 0
M  V30 2053 H 200.455 -3.16129 -2.7864 0
M  V30 2054 H 199.13 -1.9881 -2.55453 0
M  V30 2055 H 198.037 -3.62705 -0.916296 0
M  V30 2056 H 199.37 -4.76722 -1.22464 0
M  V30 2057 N 201.022 0.148545 -1.56898 0
M  V30 2058 C 201.955 1.21293 -1.93296 0
M  V30 2059 C 202.933 1.41637 -0.798599 0
M  V30 2060 O 204.117 1.56275 -1.05406 0
M  V30 2061 C 201.244 2.5721 -2.20365 0
M  V30 2062 C 200.29 2.53469 -3.4301 0
M  V30 2063 S 201.123 2.00315 -4.96623 0
M  V30 2064 C 202.279 3.37964 -5.26812 0
M  V30 2065 H 202.512 0.902393 -2.83274 0
M  V30 2066 H 200.045 0.354094 -1.50285 0
M  V30 2067 H 202.003 3.35427 -2.36641 0
M  V30 2068 H 200.664 2.85454 -1.31054 0
M  V30 2069 H 199.857 3.53518 -3.59223 0
M  V30 2070 H 199.459 1.83359 -3.25968 0
M  V30 2071 H 201.751 4.34066 -5.20185 0
M  V30 2072 H 202.694 3.26606 -6.28279 0
M  V30 2073 H 203.102 3.35028 -4.54331 0
M  V30 2074 N 202.5 1.5196 0.417844 0
M  V30 2075 C 203.448 1.75278 1.52907 0
M  V30 2076 C 204.442 0.619611 1.57662 0
M  V30 2077 O 205.648 0.801457 1.61173 0
M  V30 2078 H 202.023 0.554141 0.508362 0
M  V30 2079 H 203.994 2.68389 1.30422 0
M  V30 2080 C 202.743 1.91262 2.90369 0
M  V30 2081 H 202.066 2.77872 2.8745 0
M  V30 2082 H 203.506 2.11581 3.67436 0
M  V30 2083 C 201.965 0.677431 3.30019 0
M  V30 2084 O 202.495 -0.158799 4.01386 0
M  V30 2085 N 200.701 0.515851 2.85985 0
M  V30 2086 H 200.248 1.19744 2.28077 0
M  V30 2087 H 200.206 -0.309315 3.12875 0
M  V30 2088 N 203.978 -0.674533 1.42435 0
M  V30 2089 C 204.941 -1.76986 1.45632 0
M  V30 2090 C 205.941 -1.5708 0.343871 0
M  V30 2091 O 207.131 -1.63367 0.604709 0
M  V30 2092 C 204.263 -3.15623 1.28822 0
M  V30 2093 H 205.456 -1.75539 2.43158 0
M  V30 2094 H 203.009 -0.884189 1.28887 0
M  V30 2095 H 203.744 -3.22696 0.322193 0
M  V30 2096 H 203.529 -3.31475 2.09444 0
M  V30 2097 H 205.019 -3.95537 1.33942 0
M  V30 2098 N 205.456 -1.28612 -0.910864 0
M  V30 2099 C 206.702 -1.16106 -1.66274 0
M  V30 2100 C 207.035 0.289113 -1.92036 0
M  V30 2101 O 206.31 1.21 -1.52281 0
M  V30 2102 C 206.593 -1.96309 -3.01885 0
M  V30 2103 C 206.446 -3.49405 -2.8326 0
M  V30 2104 C 207.765 -1.78076 -4.02463 0
M  V30 2105 H 204.884 -0.423152 -0.603417 0
M  V30 2106 H 207.526 -1.57961 -1.05586 0
M  V30 2107 H 205.676 -1.60742 -3.53687 0
M  V30 2108 H 207.348 -3.94894 -2.38446 0
M  V30 2109 H 205.591 -3.74893 -2.18261 0
M  V30 2110 H 206.262 -4.00784 -3.79574 0
M  V30 2111 H 208.738 -2.0912 -3.59733 0
M  V30 2112 H 207.614 -2.36561 -4.95308 0
M  V30 2113 H 207.875 -0.733008 -4.35981 0
M  V30 2114 N 206.934 1.1197 -1.10907 0
M  V30 2115 C 208.35 1.35591 -0.841852 0
M  V30 2116 C 208.55 1.94233 0.536246 0
M  V30 2117 O 207.606 2.1717 1.28816 0
M  V30 2118 C 208.919 2.29284 -1.94549 0
M  V30 2119 C 210.467 2.42862 -1.97451 0
M  V30 2120 C 210.942 3.39873 -3.07002 0
M  V30 2121 N 212.433 3.47433 -3.06341 0
M  V30 2122 C 213.168 4.22421 -3.87748 0
M  V30 2123 N 212.664 5.00432 -4.79103 0
M  V30 2124 N 214.457 4.17876 -3.75946 0
M  V30 2125 H 206.608 0.722664 -1.99728 0
M  V30 2126 H 208.871 0.380635 -0.868229 0
M  V30 2127 H 208.577 1.93378 -2.93765 0
M  V30 2128 H 208.451 3.29452 -1.83688 0
M  V30 2129 H 210.838 2.78046 -0.988645 0
M  V30 2130 H 210.919 1.42566 -2.12388 0
M  V30 2131 H 210.563 3.05417 -4.05811 0
M  V30 2132 H 210.493 4.40011 -2.89306 0
M  V30 2133 H 212.984 2.91784 -2.40147 0
M  V30 2134 H 213.297 5.55002 -5.37766 0
M  V30 2135 H 211.642 4.99612 -4.83128 0
M  V30 2136 H 214.833 3.56016 -3.03924 0
M  V30 2137 H 215.006 4.76061 -4.39624 0
M  V30 2138 N 208.412 0.89855 1.29475 0
M  V30 2139 C 209.359 0.373819 2.27753 0
M  V30 2140 C 210.329 -0.543444 1.56958 0
M  V30 2141 O 211.514 -0.468934 1.84948 0
M  V30 2142 C 208.654 -0.393648 3.42848 0
M  V30 2143 C 207.767 0.554379 4.28428 0
M  V30 2144 C 206.902 -0.230026 5.30702 0
M  V30 2145 C 205.941 0.712599 6.07938 0
M  V30 2146 N 205.078 -0.0373283 7.0209 0
M  V30 2147 H 209.918 1.21699 2.72017 0
M  V30 2148 H 207.455 0.611456 1.33789 0
M  V30 2149 H 209.413 -0.85466 4.08352 0
M  V30 2150 H 208.043 -1.20128 2.99615 0
M  V30 2151 H 207.095 1.13391 3.63107 0
M  V30 2152 H 208.407 1.27597 4.82204 0
M  V30 2153 H 207.561 -0.752288 6.02018 0
M  V30 2154 H 206.3 -0.984758 4.77654 0
M  V30 2155 H 205.305 1.24637 5.35486 0
M  V30 2156 H 206.53 1.46664 6.63074 0
M  V30 2157 H 204.476 -0.774348 6.51414 0
M  V30 2158 H 204.393 0.624374 7.53417 0
M  V30 2159 H 205.661 -0.539891 7.77628 0
M  V30 2160 N 209.89 -1.43072 0.660911 0
M  V30 2161 C 210.8 -2.34585 -0.0264163 0
M  V30 2162 C 211.816 -1.54316 -0.803898 0
M  V30 2163 O 212.992 -1.86939 -0.749391 0
M  V30 2164 C 210.057 -3.32689 -0.975639 0
M  V30 2165 C 209.118 -4.2886 -0.194236 0
M  V30 2166 C 208.351 -5.22278 -1.09825 0
M  V30 2167 O 208.574 -5.20299 -2.33763 0
M  V30 2168 O 207.508 -5.99228 -0.566513 0
M  V30 2169 H 211.334 -2.94869 0.727034 0
M  V30 2170 H 208.919 -1.43342 0.42111 0
M  V30 2171 H 210.801 -3.92995 -1.52094 0
M  V30 2172 H 209.476 -2.74898 -1.70918 0
M  V30 2173 H 208.383 -3.72011 0.394835 0
M  V30 2174 H 209.716 -4.89655 0.499899 0
M  V30 2175 N 211.368 -0.403325 -1.52352 0
M  V30 2176 C 212.614 0.174605 -2.02047 0
M  V30 2177 C 212.947 1.45282 -1.28867 0
M  V30 2178 O 212.222 1.90483 -0.393257 0
M  V30 2179 C 212.505 0.428238 -3.57545 0
M  V30 2180 C 212.358 -0.866248 -4.4138 0
M  V30 2181 C 213.677 1.21287 -4.23057 0
M  V30 2182 H 210.796 0.0619851 -0.734389 0
M  V30 2183 H 213.438 -0.53565 -1.82293 0
M  V30 2184 H 211.588 1.03327 -3.74507 0
M  V30 2185 H 213.26 -1.50265 -4.3614 0
M  V30 2186 H 211.503 -1.47851 -4.07827 0
M  V30 2187 H 212.174 -0.643249 -5.48239 0
M  V30 2188 H 214.65 0.700703 -4.10158 0
M  V30 2189 H 213.526 1.35909 -5.31808 0
M  V30 2190 H 213.787 2.23193 -3.81625 0
M  V30 2191 N 212.846 1.57033 -0.133567 0
M  V30 2192 C 213.809 2.14897 0.796995 0
M  V30 2193 C 214.809 1.0874 1.18458 0
M  V30 2194 O 215.999 1.34446 1.1077 0
M  V30 2195 C 213.131 2.70112 2.07973 0
M  V30 2196 H 214.324 2.98457 0.293873 0
M  V30 2197 H 211.877 1.55871 0.115787 0
M  V30 2198 H 212.612 1.9018 2.62682 0
M  V30 2199 H 212.397 3.47764 1.81115 0
M  V30 2200 H 213.887 3.14738 2.74462 0
M  V30 2201 N 214.325 -0.140222 1.56975 0
M  V30 2202 C 215.235 -1.19223 2.02047 0
M  V30 2203 C 216.251 -1.46612 0.937062 0
M  V30 2204 O 217.427 -1.58148 1.24704 0
M  V30 2205 C 214.492 -2.50414 2.39778 0
M  V30 2206 C 213.553 -2.30612 3.621 0
M  V30 2207 C 212.786 -3.55547 3.98023 0
M  V30 2208 O 213.009 -4.62004 3.34528 0
M  V30 2209 O 211.943 -3.47808 4.91237 0
M  V30 2210 H 215.769 -0.839559 2.91865 0
M  V30 2211 H 213.354 -0.349453 1.45256 0
M  V30 2212 H 215.236 -3.27747 2.64877 0
M  V30 2213 H 213.911 -2.85198 1.53114 0
M  V30 2214 H 212.818 -1.51207 3.4218 0
M  V30 2215 H 214.151 -2.00741 4.49404 0
M  V30 2216 N 215.803 -1.52179 -0.40978 0
M  V30 2217 C 217.031 -1.70054 -1.17853 0
M  V30 2218 C 217.446 -0.409735 -1.843 0
M  V30 2219 O 216.803 0.614183 -1.71855 0
M  V30 2220 C 216.854 -2.83568 -2.24213 0
M  V30 2221 O 216.575 -4.0765 -1.60478 0
M  V30 2222 C 218.076 -3.12947 -3.13973 0
M  V30 2223 H 215.296 -0.569917 -0.354169 0
M  V30 2224 H 217.84 -1.98734 -0.482198 0
M  V30 2225 H 215.995 -2.57409 -2.89516 0
M  V30 2226 H 216.409 -4.70899 -2.30986 0
M  V30 2227 H 217.883 -3.95889 -3.84677 0
M  V30 2228 H 218.36 -2.26472 -3.76307 0
M  V30 2229 H 218.966 -3.40868 -2.5434 0
M  V30 2230 N 217.281 0.66697 -1.42791 0
M  V30 2231 C 218.506 1.46004 -1.47301 0
M  V30 2232 C 218.931 1.87894 -0.0880317 0
M  V30 2233 O 218.289 1.56502 0.915253 0
M  V30 2234 C 218.337 2.68031 -2.41229 0
M  V30 2235 O 217.441 3.6659 -1.88906 0
M  V30 2236 H 216.782 0.43832 -0.49877 0
M  V30 2237 H 219.312 0.817391 -1.87563 0
M  V30 2238 H 219.322 3.1601 -2.58073 0
M  V30 2239 H 217.997 2.36883 -3.41847 0
M  V30 2240 H 216.574 3.25661 -1.81656 0
M  V30 2241 N 218.759 1.29093 0.90403 0
M  V30 2242 C 219.722 1.1386 1.98919 0
M  V30 2243 C 220.722 0.0753457 1.60623 0
M  V30 2244 O 221.912 0.321931 1.71199 0
M  V30 2245 C 219.044 0.740198 3.32767 0
M  V30 2246 H 220.237 2.10246 2.13861 0
M  V30 2247 H 217.79 1.12218 1.08797 0
M  V30 2248 H 218.525 -0.223997 3.23525 0
M  V30 2249 H 218.31 1.50838 3.61926 0
M  V30 2250 H 219.8 0.656546 4.12407 0
M  V30 2251 N 220.237 -1.11381 1.11499 0
M  V30 2252 C 221.485 -1.8277 0.862524 0
M  V30 2253 C 221.806 -1.85097 -0.613534 0
M  V30 2254 O 221.076 -1.32198 -1.4457 0
M  V30 2255 H 219.656 -0.676823 0.316101 0
M  V30 2256 H 222.318 -1.34816 1.4075 0
M  V30 2257 H 221.414 -2.86614 1.23527 0
M  V30 2258 N 221.715 -0.905404 -1.28997 0
M  V30 2259 C 223.126 -0.581953 -1.77398 0
M  V30 2260 C 223.477 0.902552 -1.74208 0
M  V30 2261 O 222.602 1.70584 -1.33154 0
M  V30 2262 C 223.197 -1.04961 -3.22131 0
M  V30 2263 C 221.756 -0.777229 -3.68288 0
M  V30 2264 C 220.903 -1.22109 -2.48967 0
M  V30 2265 H 223.854 -1.08754 -1.15578 0
M  V30 2266 H 223.875 -0.387387 -3.78523 0
M  V30 2267 H 223.387 -2.13008 -3.24421 0
M  V30 2268 H 221.488 0.290383 -3.71467 0
M  V30 2269 H 221.601 -1.37911 -4.58822 0
M  V30 2270 H 219.965 -0.639971 -2.46529 0
M  V30 2271 H 220.748 -2.30972 -2.53982 0
M  V30 2272 N 223.193 1.4272 -0.668489 0
M  V30 2273 C 224.418 2.06484 -0.194758 0
M  V30 2274 C 224.843 1.49862 1.13679 0
M  V30 2275 O 224.201 0.614582 1.70565 0
M  V30 2276 C 224.249 3.60353 -0.133546 0
M  V30 2277 O 223.353 4.02464 0.899806 0
M  V30 2278 H 222.694 0.656137 -0.10188 0
M  V30 2279 H 225.224 1.82964 -0.915722 0
M  V30 2280 H 225.234 4.07976 0.0447041 0
M  V30 2281 H 223.909 4.00938 -1.1055 0
M  V30 2282 H 222.486 3.66402 0.693109 0
M  V30 2283 N 224.671 0.411399 1.52136 0
M  V30 2284 C 225.917 -0.163888 2.02137 0
M  V30 2285 C 226.25 -1.44597 1.29636 0
M  V30 2286 O 225.525 -1.90272 0.403353 0
M  V30 2287 C 225.808 -0.40927 3.57767 0
M  V30 2288 C 225.661 0.889643 4.40914 0
M  V30 2289 C 226.98 -1.19042 4.23694 0
M  V30 2290 H 224.099 -0.0580896 0.734707 0
M  V30 2291 H 226.741 0.54531 1.82007 0
M  V30 2292 H 224.891 -1.0134 3.7505 0
M  V30 2293 H 226.563 1.52575 4.35337 0
M  V30 2294 H 224.806 1.50011 4.07037 0
M  V30 2295 H 225.477 0.672314 5.4789 0
M  V30 2296 H 227.953 -0.678942 4.10524 0
M  V30 2297 H 226.829 -1.33086 5.32522 0
M  V30 2298 H 227.09 -2.21166 3.82803 0
M  V30 2299 N 226.149 -1.5696 0.141893 0
M  V30 2300 C 227.395 -1.9625 -0.511248 0
M  V30 2301 C 227.728 -1.02654 -1.64851 0
M  V30 2302 O 227.003 -0.0679676 -1.94381 0
M  V30 2303 C 227.286 -3.45285 -1.02227 0
M  V30 2304 C 227.139 -4.49658 0.113138 0
M  V30 2305 C 228.458 -3.96698 -1.90574 0
M  V30 2306 H 225.577 -0.713567 -0.184367 0
M  V30 2307 H 228.219 -1.88698 0.222087 0
M  V30 2308 H 226.369 -3.51852 -1.64719 0
M  V30 2309 H 228.041 -4.55174 0.749302 0
M  V30 2310 H 226.284 -4.26857 0.773026 0
M  V30 2311 H 226.955 -5.51258 -0.286053 0
M  V30 2312 H 229.431 -3.92578 -1.37918 0
M  V30 2313 H 228.307 -5.01453 -2.2324 0
M  V30 2314 H 228.568 -3.3875 -2.84079 0
M  V30 2315 N 227.627 0.131896 -1.57047 0
M  V30 2316 C 228.852 0.860418 -1.8871 0
M  V30 2317 C 229.277 1.73251 -0.73251 0
M  V30 2318 O 228.635 1.785 0.317429 0
M  V30 2319 C 228.683 1.68047 -3.19049 0
M  V30 2320 O 227.787 2.7862 -3.04047 0
M  V30 2321 H 227.128 0.238743 -0.619595 0
M  V30 2322 H 229.658 0.118169 -2.04258 0
M  V30 2323 H 229.668 2.07238 -3.51449 0
M  V30 2324 H 228.343 1.04018 -4.02682 0
M  V30 2325 H 226.92 2.42726 -2.83088 0
M  V30 2326 N 229.106 1.52395 0.401703 0
M  V30 2327 C 230.352 1.67065 1.14966 0
M  V30 2328 C 230.685 0.403052 1.89971 0
M  V30 2329 O 229.96 -0.598774 1.85054 0
M  V30 2330 C 230.243 2.8975 2.13815 0
M  V30 2331 C 230.096 4.26578 1.42658 0
M  V30 2332 C 231.415 3.07965 3.14397 0
M  V30 2333 H 228.534 0.607968 0.416587 0
M  V30 2334 H 231.176 1.84965 0.434511 0
M  V30 2335 H 229.326 2.74619 2.74803 0
M  V30 2336 H 230.998 4.53451 0.847329 0
M  V30 2337 H 229.241 4.27639 0.72849 0
M  V30 2338 H 229.912 5.08483 2.14823 0
M  V30 2339 H 232.388 3.22043 2.63491 0
M  V30 2340 H 231.264 3.95308 3.80819 0
M  V30 2341 H 231.525 2.21611 3.82545 0
M  V30 2342 N 230.584 -0.659388 1.43143 0
M  V30 2343 C 231.531 -1.77249 1.47822 0
M  V30 2344 C 232.501 -1.62818 0.328558 0
M  V30 2345 O 233.686 -1.83151 0.534838 0
M  V30 2346 C 230.826 -3.15371 1.40126 0
M  V30 2347 C 229.939 -3.4098 2.65249 0
M  V30 2348 C 229.074 -4.68915 2.49584 0
M  V30 2349 C 228.113 -4.87608 3.70006 0
M  V30 2350 N 227.25 -6.06796 3.53189 0
M  V30 2351 H 232.09 -1.72584 2.42938 0
M  V30 2352 H 229.627 -0.842297 1.20598 0
M  V30 2353 H 231.585 -3.9521 1.33659 0
M  V30 2354 H 230.215 -3.19121 0.485964 0
M  V30 2355 H 229.267 -2.55282 2.8202 0
M  V30 2356 H 230.579 -3.50681 3.54717 0
M  V30 2357 H 229.733 -5.56871 2.4079 0
M  V30 2358 H 228.472 -4.61524 1.5763 0
M  V30 2359 H 227.477 -3.9809 3.79215 0
M  V30 2360 H 228.702 -4.96834 4.62961 0
M  V30 2361 H 226.648 -6.00549 2.63965 0
M  V30 2362 H 226.565 -6.17428 4.36255 0
M  V30 2363 H 227.833 -6.9739 3.48236 0
M  V30 2364 N 232.062 -1.29571 -0.897171 0
M  V30 2365 C 233.29 -1.20583 -1.68129 0
M  V30 2366 C 233.705 0.233181 -1.87354 0
M  V30 2367 O 233.062 1.15579 -1.41236 0
M  V30 2368 C 233.113 -1.91772 -3.06441 0
M  V30 2369 O 232.834 -3.30053 -2.88091 0
M  V30 2370 C 234.335 -1.89291 -4.00854 0
M  V30 2371 H 231.555 -0.417826 -0.525036 0
M  V30 2372 H 234.099 -1.70987 -1.12177 0
M  V30 2373 H 232.254 -1.45196 -3.59161 0
M  V30 2374 H 232.668 -3.65942 -3.75748 0
M  V30 2375 H 234.142 -2.43662 -4.95311 0
M  V30 2376 H 234.619 -0.869014 -4.30517 0
M  V30 2377 H 235.225 -2.35622 -3.54066 0
M  V30 2378 N 233.54 1.10788 -1.12088 0
M  V30 2379 C 234.817 1.79136 -0.785476 0
M  V30 2380 C 235.197 1.98246 0.725377 0
M  V30 2381 O 234.545 1.57258 1.65778 0
M  V30 2382 C 234.755 3.12375 -1.55636 0
M  V30 2383 C 236.103 3.8731 -1.74001 0
M  V30 2384 O 237.127 3.22085 -1.52117 0
M  V30 2385 O 235.986 5.04369 -2.10415 0
M  V30 2386 H 233.08 0.776226 -0.285311 0
M  V30 2387 H 235.626 1.1747 -1.2247 0
M  V30 2388 H 234.398 2.93863 -2.5838 0
M  V30 2389 H 234.021 3.81758 -1.11114 0
M  V30 2390 N 235.018 0.912232 1.28515 0
M  V30 2391 C 236.266 0.543523 1.94654 0
M  V30 2392 C 236.587 -0.9155 1.72173 0
M  V30 2393 O 235.857 -1.64708 1.06058 0
M  V30 2394 H 234.437 0.198017 0.720277 0
M  V30 2395 H 237.099 1.16126 1.56527 0
M  V30 2396 H 236.195 0.736684 3.03281 0
M  V30 2397 N 236.496 -1.42363 0.676048 0
M  V30 2398 C 237.744 -2.01123 0.198437 0
M  V30 2399 C 238.065 -1.53731 -1.19966 0
M  V30 2400 O 237.335 -0.759518 -1.80577 0
M  V30 2401 H 235.915 -0.743678 0.0703721 0
M  V30 2402 H 238.577 -1.74263 0.872837 0
M  V30 2403 H 237.673 -3.11454 0.200686 0
M  V30 2404 N 237.974 -0.419461 -1.51915 0
M  V30 2405 C 239.251 0.211999 -1.94448 0
M  V30 2406 C 239.631 1.61703 -1.35703 0
M  V30 2407 O 238.979 2.22102 -0.536931 0
M  V30 2408 C 239.189 0.207872 -3.4838 0
M  V30 2409 C 240.537 0.422192 -4.22496 0
M  V30 2410 O 241.561 0.286778 -3.55044 0
M  V30 2411 O 240.42 0.690009 -5.42126 0
M  V30 2412 H 237.514 0.139586 -0.815135 0
M  V30 2413 H 240.06 -0.476151 -1.62883 0
M  V30 2414 H 238.832 -0.775102 -3.83546 0
M  V30 2415 H 238.455 0.939688 -3.86336 0
M  V30 2416 N 239.452 1.56882 -0.150215 0
M  V30 2417 C 240.863 1.82995 0.370076 0
M  V30 2418 C 241.214 1.06907 1.64515 0
M  V30 2419 O 240.339 0.315369 2.1409 0
M  V30 2420 C 240.934 3.31942 0.678208 0
M  V30 2421 C 239.493 3.58625 1.14301 0
M  V30 2422 C 238.64 2.76792 0.167778 0
M  V30 2423 H 241.591 1.54209 -0.374858 0
M  V30 2424 H 241.612 3.48272 1.53254 0
M  V30 2425 H 241.124 3.87294 -0.249991 0
M  V30 2426 H 239.225 3.08664 2.08704 0
M  V30 2427 H 239.338 4.67073 1.06676 0
M  V30 2428 H 237.702 2.45972 0.661037 0
M  V30 2429 H 238.485 3.34916 -0.754069 0
M  V30 2430 N 240.93 -0.123565 1.57115 0
M  V30 2431 C 242.155 -0.850398 1.89164 0
M  V30 2432 C 242.58 -1.7286 0.741688 0
M  V30 2433 O 241.938 -1.78665 -0.307958 0
M  V30 2434 C 241.986 -1.66353 3.19936 0
M  V30 2435 O 241.09 -2.77004 3.0552 0
M  V30 2436 H 240.431 -0.235454 0.620852 0
M  V30 2437 H 242.961 -0.107335 2.04318 0
M  V30 2438 H 242.971 -2.05372 3.52543 0
M  V30 2439 H 241.646 -1.01881 4.03228 0
M  V30 2440 H 240.223 -2.41221 2.84371 0
M  V30 2441 N 242.408 -1.52605 -0.393616 0
M  V30 2442 C 243.656 -1.67093 -1.13685 0
M  V30 2443 C 243.977 -0.411011 -1.90619 0
M  V30 2444 O 243.247 0.574491 -1.87287 0
M  V30 2445 H 241.827 -0.615923 -0.422668 0
M  V30 2446 H 244.489 -1.89704 -0.447039 0
M  V30 2447 H 243.585 -2.51922 -1.84232 0
M  V30 2448 N 243.887 0.651787 -1.4349 0
M  V30 2449 C 244.817 1.77621 -1.51569 0
M  V30 2450 C 245.798 1.66022 -0.370253 0
M  V30 2451 O 246.983 1.85095 -0.587658 0
M  V30 2452 C 244.113 3.16056 -1.43966 0
M  V30 2453 C 243.067 3.4242 -2.56774 0
M  V30 2454 C 242.393 4.8067 -2.34223 0
M  V30 2455 C 243.693 3.37023 -3.99015 0
M  V30 2456 H 245.387 1.71117 -2.45681 0
M  V30 2457 H 242.933 0.821825 -1.18246 0
M  V30 2458 H 244.886 3.94472 -1.48221 0
M  V30 2459 H 243.61 3.23293 -0.463586 0
M  V30 2460 H 242.269 2.66375 -2.51873 0
M  V30 2461 H 241.917 4.84585 -1.34856 0
M  V30 2462 H 241.617 4.9927 -3.09844 0
M  V30 2463 H 243.141 5.61342 -2.40265 0
M  V30 2464 H 244.555 4.05374 -4.05395 0
M  V30 2465 H 242.952 3.67159 -4.74673 0
M  V30 2466 H 244.022 2.3518 -4.2405 0
M  V30 2467 N 245.365 1.30045 0.890287 0
M  V30 2468 C 246.295 1.18541 2.01172 0
M  V30 2469 C 247.276 0.0773356 1.69924 0
M  V30 2470 O 248.461 0.25845 1.92473 0
M  V30 2471 C 245.591 0.870941 3.36202 0
M  V30 2472 C 244.545 1.93637 3.81692 0
M  V30 2473 C 243.871 1.475 5.13953 0
M  V30 2474 C 245.171 3.34666 4.00994 0
M  V30 2475 H 246.865 2.12359 2.11054 0
M  V30 2476 H 244.411 1.02238 1.01407 0
M  V30 2477 H 246.364 0.777141 4.14172 0
M  V30 2478 H 245.088 -0.102926 3.26438 0
M  V30 2479 H 243.747 2.01972 3.05946 0
M  V30 2480 H 243.395 0.489551 5.00612 0
M  V30 2481 H 243.095 2.1876 5.4536 0
M  V30 2482 H 244.619 1.39489 5.94454 0
M  V30 2483 H 246.033 3.2912 4.69417 0
M  V30 2484 H 244.43 4.03966 4.43769 0
M  V30 2485 H 245.5 3.76949 3.05021 0
M  V30 2486 N 246.843 -1.10192 1.12674 0
M  V30 2487 C 247.79 -2.16606 0.796906 0
M  V30 2488 C 248.76 -1.64394 -0.237476 0
M  V30 2489 O 249.945 -1.90474 -0.111484 0
M  V30 2490 C 247.085 -3.44116 0.26043 0
M  V30 2491 C 246.198 -4.10268 1.35293 0
M  V30 2492 C 245.333 -5.25507 0.775621 0
M  V30 2493 C 244.372 -5.83567 1.84706 0
M  V30 2494 N 243.509 -6.90179 1.28829 0
M  V30 2495 H 248.349 -2.44163 1.70846 0
M  V30 2496 H 245.886 -1.19846 0.85295 0
M  V30 2497 H 247.844 -4.17143 -0.0686814 0
M  V30 2498 H 246.474 -3.16901 -0.614274 0
M  V30 2499 H 245.526 -3.35184 1.79877 0
M  V30 2500 H 246.838 -4.4946 2.16303 0
M  V30 2501 H 245.992 -6.05398 0.397327 0
M  V30 2502 H 244.731 -4.87656 -0.0656581 0
M  V30 2503 H 243.736 -5.02344 2.23452 0
M  V30 2504 H 244.961 -6.23482 2.69161 0
M  V30 2505 H 242.907 -6.54322 0.468881 0
M  V30 2506 H 242.824 -7.28097 2.03497 0
M  V30 2507 H 244.092 -7.73844 0.937311 0
M  V30 2508 N 248.321 -0.919034 -1.28029 0
M  V30 2509 C 249.269 -0.401753 -2.29104 0
M  V30 2510 C 250.263 0.509354 -1.61561 0
M  V30 2511 O 251.469 0.390014 -1.75724 0
M  V30 2512 H 247.844 -0.111331 -0.743713 0
M  V30 2513 H 249.815 -1.2672 -2.70156 0
M  V30 2514 C 248.564 0.338148 -3.46052 0
M  V30 2515 H 247.887 -0.353732 -3.98232 0
M  V30 2516 H 249.327 0.664653 -4.18758 0
M  V30 2517 C 247.786 1.54798 -2.99231 0
M  V30 2518 O 248.316 2.64696 -3.02157 0
M  V30 2519 N 246.522 1.3968 -2.54829 0
M  V30 2520 H 246.069 0.502698 -2.52647 0
M  V30 2521 H 246.027 2.20755 -2.23863 0
M  V30 2522 N 249.799 1.42003 -0.683588 0
M  V30 2523 C 251.046 2.01413 -0.209514 0
M  V30 2524 C 251.374 1.54088 1.1869 0
M  V30 2525 O 250.629 0.737591 1.81268 0
M  V30 2526 C 250.928 3.56827 -0.202357 0
M  V30 2527 C 250.594 4.23617 -1.54464 0
M  V30 2528 C 249.256 4.41577 -1.91215 0
M  V30 2529 C 251.608 4.61178 -2.42826 0
M  V30 2530 C 248.936 4.9437 -3.15935 0
M  V30 2531 C 251.288 5.15355 -3.66867 0
M  V30 2532 C 249.952 5.31528 -4.03776 0
M  V30 2533 H 249.222 0.737023 -0.0766668 0
M  V30 2534 H 251.869 1.70067 -0.880312 0
M  V30 2535 H 250.174 3.87892 0.551969 0
M  V30 2536 H 251.871 4.00588 0.181793 0
M  V30 2537 H 248.461 4.10004 -1.24877 0
M  V30 2538 H 252.645 4.46968 -2.15717 0
M  V30 2539 H 247.901 5.05076 -3.44541 0
M  V30 2540 H 252.075 5.43402 -4.35531 0
M  V30 2541 H 249.702 5.72199 -5.00492 0
M  V30 2542 N 251.277 0.427512 1.51691 0
M  V30 2543 C 252.209 -0.424521 2.25234 0
M  V30 2544 C 253.222 -0.994671 1.2888 0
M  V30 2545 O 254.411 -0.890483 1.54702 0
M  V30 2546 C 251.511 -1.60479 2.98496 0
M  V30 2547 C 250.684 -1.15527 4.21868 0
M  V30 2548 C 249.743 -2.20454 4.77793 0
M  V30 2549 O 248.769 -1.8029 5.39893 0
M  V30 2550 N 249.971 -3.52831 4.60967 0
M  V30 2551 H 252.736 0.205749 2.98993 0
M  V30 2552 H 250.297 0.255867 1.59865 0
M  V30 2553 H 252.289 -2.30276 3.32799 0
M  V30 2554 H 250.859 -2.14061 2.27809 0
M  V30 2555 H 250.079 -0.284736 3.9317 0
M  V30 2556 H 251.367 -0.832173 5.01949 0
M  V30 2557 H 250.765 -3.88201 4.11481 0
M  V30 2558 H 249.322 -4.18551 4.99658 0
M  V30 2559 N 252.755 -1.56801 0.158532 0
M  V30 2560 C 254.032 -1.88131 -0.535357 0
M  V30 2561 C 254.412 -1.06638 -1.82186 0
M  V30 2562 O 253.76 -0.156533 -2.27963 0
M  V30 2563 C 253.97 -3.39949 -0.789653 0
M  V30 2564 C 255.318 -4.09416 -1.12533 0
M  V30 2565 O 256.342 -3.45194 -0.878622 0
M  V30 2566 O 255.201 -5.22855 -1.59014 0
M  V30 2567 H 252.295 -0.780143 -0.27442 0
M  V30 2568 H 254.841 -1.68564 0.19601 0
M  V30 2569 H 253.613 -3.91115 0.120353 0
M  V30 2570 H 253.236 -3.65084 -1.57479 0
M  V30 2571 N 254.233 0.115231 -1.57178 0
M  V30 2572 C 255.482 0.820945 -1.84237 0
M  V30 2573 C 255.795 1.80866 -0.744761 0
M  V30 2574 O 257.001 2.56083 -0.901871 0
M  V30 2575 C 255.457 1.51072 -3.26658 0
M  V30 2576 C 255.065 0.563795 -4.44438 0
M  V30 2577 C 256.809 2.20134 -3.62962 0
M  V30 2578 C 254.716 1.25701 -5.77887 0
M  V30 2579 H 253.646 0.310328 -0.687177 0
M  V30 2580 H 256.297 0.0737134 -1.83352 0
M  V30 2581 H 254.679 2.30471 -3.22024 0
M  V30 2582 H 255.853 -0.197247 -4.60378 0
M  V30 2583 H 254.168 -0.0200638 -4.16395 0
M  V30 2584 H 256.765 2.72696 -4.59936 0
M  V30 2585 H 257.108 2.98107 -2.90582 0
M  V30 2586 H 257.641 1.47619 -3.69396 0
M  V30 2587 H 254.38 0.518493 -6.53446 0
M  V30 2588 H 253.9 1.98997 -5.65827 0
M  V30 2589 H 255.579 1.78915 -6.2177 0
M  V30 2590 N 255.711 1.52812 0.385517 0
M  V30 2591 C 256.644 1.72592 1.49289 0
M  V30 2592 C 257.622 0.573819 1.52138 0
M  V30 2593 O 258.806 0.80404 1.70492 0
M  V30 2594 C 255.933 1.78669 2.87741 0
M  V30 2595 C 254.979 3.00455 3.02703 0
M  V30 2596 S 255.812 4.60366 2.73538 0
M  V30 2597 C 256.968 4.69263 4.14177 0
M  V30 2598 H 257.201 2.66248 1.32285 0
M  V30 2599 H 254.734 1.43148 0.578611 0
M  V30 2600 H 256.692 1.82855 3.67524 0
M  V30 2601 H 255.353 0.861 3.02069 0
M  V30 2602 H 254.546 3.01258 4.04054 0
M  V30 2603 H 254.148 2.94278 2.30817 0
M  V30 2604 H 256.44 4.48092 5.08153 0
M  V30 2605 H 257.383 5.71276 4.18388 0
M  V30 2606 H 257.791 3.98072 4.00249 0
M  V30 2607 N 257.189 -0.644168 1.43834 0
M  V30 2608 C 258.121 -1.76955 1.45669 0
M  V30 2609 C 259.134 -1.58956 0.351666 0
M  V30 2610 O 260.323 -1.6751 0.616644 0
M  V30 2611 C 257.423 -3.14507 1.26248 0
M  V30 2612 C 256.596 -3.59083 2.49757 0
M  V30 2613 C 255.655 -4.75467 2.25427 0
M  V30 2614 O 254.681 -4.84444 2.98836 0
M  V30 2615 N 255.883 -5.66289 1.27661 0
M  V30 2616 H 258.648 -1.75856 2.42682 0
M  V30 2617 H 256.209 -0.828312 1.39106 0
M  V30 2618 H 258.201 -3.90067 1.0784 0
M  V30 2619 H 256.771 -3.10325 0.376478 0
M  V30 2620 H 255.991 -2.7387 2.8353 0
M  V30 2621 H 257.279 -3.85613 3.31934 0
M  V30 2622 H 256.677 -5.61718 0.670064 0
M  V30 2623 H 255.234 -6.41533 1.15234 0
M  V30 2624 N 258.668 -1.30515 -0.883378 0
M  V30 2625 C 259.615 -1.17032 -1.98927 0
M  V30 2626 C 260.585 -0.0594241 -1.65994 0
M  V30 2627 O 261.77 -0.229895 -1.8941 0
M  V30 2628 C 258.91 -0.869777 -3.33959 0
M  V30 2629 C 258.023 -2.06271 -3.79574 0
M  V30 2630 C 257.158 -1.70011 -5.03259 0
M  V30 2631 C 256.197 -2.8579 -5.41286 0
M  V30 2632 N 255.334 -2.49816 -6.56153 0
M  V30 2633 H 260.174 -2.1164 -2.09792 0
M  V30 2634 H 257.711 -1.05296 -1.02719 0
M  V30 2635 H 259.669 -0.676138 -4.11685 0
M  V30 2636 H 258.299 0.0394332 -3.22776 0
M  V30 2637 H 257.351 -2.36755 -2.97744 0
M  V30 2638 H 258.663 -2.92971 -4.03694 0
M  V30 2639 H 257.817 -1.47032 -5.88614 0
M  V30 2640 H 256.556 -0.804829 -4.81013 0
M  V30 2641 H 255.561 -3.09434 -4.54456 0
M  V30 2642 H 256.786 -3.76008 -5.65504 0
M  V30 2643 H 254.732 -1.62795 -6.35479 0
M  V30 2644 H 254.649 -3.30048 -6.8015 0
M  V30 2645 H 255.917 -2.30197 -7.44735 0
M  V30 2646 N 260.146 1.09593 -1.13257 0
M  V30 2647 C 261.078 2.16015 -0.766167 0
M  V30 2648 C 262.091 1.61423 0.211303 0
M  V30 2649 O 263.28 1.78498 -0.00863946 0
M  V30 2650 C 260.38 3.38706 -0.114662 0
M  V30 2651 C 259.553 4.22717 -1.12379 0
M  V30 2652 C 258.612 5.23835 -0.498301 0
M  V30 2653 O 257.638 5.573 -1.15781 0
M  V30 2654 N 258.84 5.75886 0.730417 0
M  V30 2655 H 261.605 2.48055 -1.68193 0
M  V30 2656 H 259.166 1.25292 -1.02535 0
M  V30 2657 H 261.158 4.03464 0.315991 0
M  V30 2658 H 259.728 3.04569 0.704011 0
M  V30 2659 H 258.948 3.54122 -1.73179 0
M  V30 2660 H 260.236 4.75673 -1.80589 0
M  V30 2661 H 259.634 5.50911 1.28504 0
M  V30 2662 H 258.191 6.42387 1.10376 0
M  V30 2663 N 261.624 0.925811 1.2754 0
M  V30 2664 C 263.04 0.625767 1.46821 0
M  V30 2665 C 263.24 -0.825506 1.83814 0
M  V30 2666 O 262.296 -1.60356 1.95044 0
M  V30 2667 C 263.609 1.57402 2.56213 0
M  V30 2668 C 265.157 1.58204 2.70075 0
M  V30 2669 C 265.632 2.51721 3.82623 0
M  V30 2670 N 267.123 2.49917 3.89994 0
M  V30 2671 C 267.858 3.18968 4.76494 0
M  V30 2672 N 267.354 3.97391 5.67496 0
M  V30 2673 N 269.147 3.07996 4.70208 0
M  V30 2674 H 261.298 1.86409 1.01811 0
M  V30 2675 H 263.561 0.800213 0.508295 0
M  V30 2676 H 263.267 2.60925 2.35819 0
M  V30 2677 H 263.141 1.31428 3.53563 0
M  V30 2678 H 265.528 0.554124 2.89851 0
M  V30 2679 H 265.609 1.88226 1.73218 0
M  V30 2680 H 265.253 3.54622 3.63601 0
M  V30 2681 H 265.183 2.18996 4.78903 0
M  V30 2682 H 267.674 1.9296 3.24923 0
M  V30 2683 H 267.987 4.4707 6.30356 0
M  V30 2684 H 266.332 4.01495 5.67298 0
M  V30 2685 H 269.523 2.46223 3.9811 0
M  V30 2686 H 269.696 3.6208 5.37403 0
M  V30 2687 N 263.102 -1.41638 0.69111 0
M  V30 2688 C 264.513 -1.84346 0.295517 0
M  V30 2689 C 264.864 -1.57833 -1.16547 0
M  V30 2690 O 263.989 -1.04648 -1.89414 0
M  V30 2691 C 264.584 -3.34636 0.529575 0
M  V30 2692 C 263.143 -3.7593 0.187944 0
M  V30 2693 C 262.29 -2.65082 0.814052 0
M  V30 2694 H 265.241 -1.31253 0.892092 0
M  V30 2695 H 265.262 -3.79903 -0.213148 0
M  V30 2696 H 264.774 -3.53901 1.59297 0
M  V30 2697 H 262.875 -3.62268 -0.871367 0
M  V30 2698 H 262.988 -4.74808 0.63985 0
M  V30 2699 H 261.352 -2.53528 0.244017 0
M  V30 2700 H 262.135 -2.87167 1.88123 0
M  V30 2701 N 264.58 -0.43555 -1.51462 0
M  V30 2702 C 265.49 0.383001 -2.31453 0
M  V30 2703 C 266.506 1.02931 -1.4029 0
M  V30 2704 O 267.682 1.02507 -1.73362 0
M  V30 2705 C 264.747 1.47043 -3.13973 0
M  V30 2706 C 263.808 0.844433 -4.20913 0
M  V30 2707 C 263.041 1.88004 -4.9949 0
M  V30 2708 O 263.264 3.10199 -4.78678 0
M  V30 2709 O 262.198 1.47157 -5.83634 0
M  V30 2710 H 266.024 -0.269964 -3.02498 0
M  V30 2711 H 263.609 -0.19813 -1.4808 0
M  V30 2712 H 265.491 2.10113 -3.65281 0
M  V30 2713 H 264.166 2.10751 -2.45695 0
M  V30 2714 H 263.073 0.175729 -3.73687 0
M  V30 2715 H 264.406 0.250869 -4.9156 0
M  V30 2716 N 266.058 1.56714 -0.166846 0
M  V30 2717 C 267.474 1.58473 0.189372 0
M  V30 2718 C 267.674 1.18201 1.63189 0
M  V30 2719 O 266.73 0.891528 2.36237 0
M  V30 2720 C 268.043 3.00573 -0.0873872 0
M  V30 2721 C 269.591 3.1299 -0.0252443 0
M  V30 2722 C 270.066 4.57174 -0.274934 0
M  V30 2723 N 271.557 4.62665 -0.222553 0
M  V30 2724 C 272.292 5.72072 -0.389985 0
M  V30 2725 N 271.788 6.90054 -0.616229 0
M  V30 2726 N 273.581 5.61153 -0.326202 0
M  V30 2727 H 265.732 1.8118 -1.10849 0
M  V30 2728 H 267.995 0.839525 -0.440342 0
M  V30 2729 H 267.701 3.34497 -1.0865 0
M  V30 2730 H 267.575 3.72019 0.623037 0
M  V30 2731 H 269.962 2.78895 0.96444 0
M  V30 2732 H 270.043 2.43989 -0.768309 0
M  V30 2733 H 269.687 4.91976 -1.26181 0
M  V30 2734 H 269.617 5.24328 0.48869 0
M  V30 2735 H 272.108 3.77863 -0.0531512 0
M  V30 2736 H 272.421 7.69311 -0.733559 0
M  V30 2737 H 270.766 6.91927 -0.652791 0
M  V30 2738 H 273.957 4.67859 -0.150072 0
M  V30 2739 H 274.13 6.46364 -0.460116 0
M  V30 2740 N 267.536 -0.106894 1.57237 0
M  V30 2741 C 268.782 -0.81373 1.85759 0
M  V30 2742 C 269.115 -1.78952 0.754315 0
M  V30 2743 O 268.39 -1.93029 -0.23879 0
M  V30 2744 C 268.673 -1.55293 3.24894 0
M  V30 2745 C 268.526 -0.595929 4.45835 0
M  V30 2746 C 269.845 -2.5063 3.61763 0
M  V30 2747 H 266.964 -0.294369 0.67566 0
M  V30 2748 H 269.606 -0.0776472 1.89841 0
M  V30 2749 H 267.756 -2.1804 3.21544 0
M  V30 2750 H 269.428 0.0236262 4.61294 0
M  V30 2751 H 267.671 0.0916191 4.33703 0
M  V30 2752 H 268.342 -1.15004 5.39887 0
M  V30 2753 H 270.818 -1.97982 3.65981 0
M  V30 2754 H 269.694 -2.99376 4.60071 0
M  V30 2755 H 269.955 -3.3385 2.89821 0
M  V30 2756 N 269.014 -1.53014 -0.377408 0
M  V30 2757 C 270.239 -1.72818 -1.14668 0
M  V30 2758 C 270.664 -0.450725 -1.8262 0
M  V30 2759 O 270.022 0.59439 -1.7128 0
M  V30 2760 C 270.07 -2.88627 -2.16164 0
M  V30 2761 O 269.174 -2.56409 -3.22998 0
M  V30 2762 H 268.515 -0.574301 -0.333278 0
M  V30 2763 H 271.045 -1.99853 -0.438152 0
M  V30 2764 H 271.055 -3.14455 -2.59966 0
M  V30 2765 H 269.73 -3.81294 -1.66095 0
M  V30 2766 H 268.307 -2.4136 -2.84253 0
M  V30 2767 N 270.492 0.636531 -1.44174 0
M  V30 2768 C 271.442 1.74233 -1.47061 0
M  V30 2769 C 272.426 1.57331 -0.337034 0
M  V30 2770 O 273.618 1.67159 -0.581973 0
M  V30 2771 C 270.747 3.12897 -1.41246 0
M  V30 2772 C 269.833 3.35288 -2.59698 0
M  V30 2773 N 270.224 3.2807 -3.84972 0
M  V30 2774 C 268.522 3.66065 -2.54778 0
M  V30 2775 C 269.223 3.51001 -4.63867 0
M  V30 2776 N 268.199 3.73616 -3.94857 0
M  V30 2777 H 272.001 1.67103 -2.41773 0
M  V30 2778 H 269.515 0.838806 -1.3906 0
M  V30 2779 H 271.512 3.92189 -1.41398 0
M  V30 2780 H 270.172 3.21197 -0.47569 0
M  V30 2781 H 271.183 3.07109 -4.17019 0
M  V30 2782 H 267.86 3.81379 -1.6987 0
M  V30 2783 H 269.25 3.51059 -5.72894 0
M  V30 2784 N 271.97 1.30982 0.876444 0
M  V30 2785 C 272.9 1.20668 1.99903 0
M  V30 2786 C 273.881 0.095354 1.69833 0
M  V30 2787 O 275.066 0.27885 1.92188 0
M  V30 2788 C 272.196 0.90655 3.3526 0
M  V30 2789 C 271.15 1.97675 3.79617 0
M  V30 2790 C 270.476 1.52943 5.1236 0
M  V30 2791 C 271.776 3.389 3.97422 0
M  V30 2792 H 273.47 2.14586 2.0879 0
M  V30 2793 H 271.016 1.03308 1.00317 0
M  V30 2794 H 272.969 0.821025 4.13324 0
M  V30 2795 H 271.693 -0.0682969 3.26529 0
M  V30 2796 H 270.352 2.05205 3.03787 0
M  V30 2797 H 270 0.54262 5.00065 0
M  V30 2798 H 269.7 2.24532 5.43009 0
M  V30 2799 H 271.224 1.45786 5.92941 0
M  V30 2800 H 272.638 3.34081 4.659 0
M  V30 2801 H 271.035 4.0865 4.3946 0
M  V30 2802 H 272.105 3.80163 3.01006 0
M  V30 2803 N 273.449 -1.08991 1.13837 0
M  V30 2804 C 274.379 -2.17771 0.842507 0
M  V30 2805 C 275.36 -1.6892 -0.20001 0
M  V30 2806 O 276.545 -1.94113 -0.0579731 0
M  V30 2807 C 273.675 -3.4589 0.312644 0
M  V30 2808 C 272.629 -4.08099 1.28992 0
M  V30 2809 C 271.955 -5.31098 0.619623 0
M  V30 2810 C 273.255 -4.50077 2.65005 0
M  V30 2811 H 274.949 -2.42777 1.75213 0
M  V30 2812 H 272.495 -1.16682 0.843875 0
M  V30 2813 H 274.448 -4.21297 0.0933043 0
M  V30 2814 H 273.172 -3.20419 -0.632382 0
M  V30 2815 H 271.831 -3.34717 1.49533 0
M  V30 2816 H 271.479 -5.0191 -0.33102 0
M  V30 2817 H 271.179 -5.73674 1.27167 0
M  V30 2818 H 272.703 -6.09224 0.409669 0
M  V30 2819 H 274.117 -5.16688 2.48407 0
M  V30 2820 H 272.514 -5.03553 3.26427 0
M  V30 2821 H 273.584 -3.62257 3.22332 0
M  V30 2822 N 274.927 -0.932562 -1.27047 0
M  V30 2823 C 275.859 -0.392734 -2.2581 0
M  V30 2824 C 276.872 0.479241 -1.55586 0
M  V30 2825 O 278.061 0.291078 -1.76111 0
M  V30 2826 C 275.161 0.455456 -3.35826 0
M  V30 2827 C 274.334 -0.398355 -4.35582 0
M  V30 2828 C 273.393 0.387985 -5.24768 0
M  V30 2829 O 272.419 -0.206003 -5.68827 0
M  V30 2830 N 273.621 1.68664 -5.55457 0
M  V30 2831 H 276.386 -1.24173 -2.72766 0
M  V30 2832 H 273.947 -0.800511 -1.40725 0
M  V30 2833 H 275.939 0.988692 -3.92437 0
M  V30 2834 H 274.509 1.20522 -2.88432 0
M  V30 2835 H 273.729 -1.11286 -3.78165 0
M  V30 2836 H 275.017 -0.981889 -4.99236 0
M  V30 2837 H 274.415 2.19147 -5.21528 0
M  V30 2838 H 272.972 2.1663 -6.14748 0
M  V30 2839 N 276.405 1.4127 -0.698611 0
M  V30 2840 C 277.682 1.94955 -0.158762 0
M  V30 2841 C 278.062 1.63781 1.33188 0
M  V30 2842 O 277.41 0.946423 2.07979 0
M  V30 2843 C 277.62 3.46044 -0.453309 0
M  V30 2844 C 278.968 4.22872 -0.382707 0
M  V30 2845 O 279.992 3.54076 -0.388396 0
M  V30 2846 O 278.851 5.45407 -0.345463 0
M  V30 2847 H 275.945 0.82683 -0.0167505 0
M  V30 2848 H 278.491 1.50971 -0.77498 0
M  V30 2849 H 277.263 3.62028 -1.48498 0
M  V30 2850 H 276.886 3.97128 0.19373 0
M  V30 2851 N 277.883 0.443576 1.51229 0
M  V30 2852 C 278.831 -0.37904 2.29491 0
M  V30 2853 C 279.825 -1.0153 1.35603 0
M  V30 2854 O 281.031 -0.94955 1.52917 0
M  V30 2855 H 277.406 -0.141053 0.738653 0
M  V30 2856 H 279.377 0.301799 2.9687 0
M  V30 2857 C 278.126 -1.46426 3.15364 0
M  V30 2858 H 277.449 -0.984037 3.87501 0
M  V30 2859 H 278.889 -2.01297 3.7317 0
M  V30 2860 C 277.348 -2.45099 2.31146 0
M  V30 2861 O 277.878 -3.49773 1.9754 0
M  V30 2862 N 276.084 -2.16139 1.94249 0
M  V30 2863 H 275.631 -1.31044 2.21777 0
M  V30 2864 H 275.589 -2.82398 1.38198 0
M  V30 2865 N 279.361 -1.56624 0.175154 0
M  V30 2866 C 280.291 -2.21155 -0.749195 0
M  V30 2867 C 281.272 -1.16836 -1.23626 0
M  V30 2868 O 282.457 -1.45277 -1.28873 0
M  V30 2869 C 279.587 -2.8553 -1.97711 0
M  V30 2870 C 278.541 -3.95921 -1.62575 0
M  V30 2871 C 277.867 -4.47365 -2.92864 0
M  V30 2872 C 279.167 -5.15323 -0.850838 0
M  V30 2873 H 280.861 -2.98653 -0.211295 0
M  V30 2874 H 278.407 -1.43651 -0.100188 0
M  V30 2875 H 280.36 -3.2935 -2.62881 0
M  V30 2876 H 279.084 -2.05406 -2.53921 0
M  V30 2877 H 277.743 -3.52762 -0.997719 0
M  V30 2878 H 277.391 -3.64027 -3.47122 0
M  V30 2879 H 277.091 -5.21839 -2.70106 0
M  V30 2880 H 278.615 -4.93873 -3.59056 0
M  V30 2881 H 280.029 -5.55812 -1.40521 0
M  V30 2882 H 278.426 -5.95739 -0.722154 0
M  V30 2883 H 279.496 -4.84661 0.152082 0
M  V30 2884 N 280.839 0.0985539 -1.57292 0
M  V30 2885 C 282.25 0.653457 -1.74891 0
M  V30 2886 C 282.601 1.7929 -0.796838 0
M  V30 2887 O 281.726 2.16385 0.0254886 0
M  V30 2888 C 282.321 1.19216 -3.17133 0
M  V30 2889 C 280.88 1.69316 -3.36168 0
M  V30 2890 C 280.027 0.601294 -2.70702 0
M  V30 2891 H 282.978 -0.127497 -1.58187 0
M  V30 2892 H 282.999 2.06154 -3.19814 0
M  V30 2893 H 282.511 0.362635 -3.86402 0
M  V30 2894 H 280.612 2.5468 -2.71972 0
M  V30 2895 H 280.725 1.78853 -4.44464 0
M  V30 2896 H 279.089 1.0399 -2.32504 0
M  V30 2897 H 279.872 -0.217592 -3.4261 0
M  V30 2898 N 282.317 1.53212 0.369288 0
M  V30 2899 C 283.264 1.79388 1.45219 0
M  V30 2900 C 284.234 0.638059 1.53356 0
M  V30 2901 O 285.419 0.879852 1.69302 0
M  V30 2902 C 282.559 1.98623 2.82211 0
M  V30 2903 C 281.672 3.26337 2.8307 0
M  V30 2904 C 280.807 3.35779 4.11614 0
M  V30 2905 C 279.846 4.5754 4.06601 0
M  V30 2906 N 278.983 4.64155 5.26787 0
M  V30 2907 H 283.823 2.71794 1.22198 0
M  V30 2908 H 281.36 1.34642 0.592444 0
M  V30 2909 H 283.318 2.07761 3.61789 0
M  V30 2910 H 281.948 1.09558 3.03639 0
M  V30 2911 H 281 3.26171 1.95747 0
M  V30 2912 H 282.312 4.15988 2.75237 0
M  V30 2913 H 281.466 3.44208 4.99606 0
M  V30 2914 H 280.205 2.44137 4.22195 0
M  V30 2915 H 279.21 4.49215 3.16996 0
M  V30 2916 H 280.435 5.50519 3.97625 0
M  V30 2917 H 278.381 3.75413 5.3796 0
M  V30 2918 H 278.298 5.47706 5.21109 0
M  V30 2919 H 279.566 4.76863 6.16621 0
M  V30 2920 N 283.795 -0.628877 1.44509 0
M  V30 2921 C 285.02 -1.42048 1.5112 0
M  V30 2922 C 285.445 -1.87594 0.137818 0
M  V30 2923 O 284.803 -1.58873 -0.873437 0
M  V30 2924 C 284.851 -2.61541 2.48251 0
M  V30 2925 O 283.955 -3.61453 1.98559 0
M  V30 2926 H 283.296 -0.424942 0.510216 0
M  V30 2927 H 285.826 -0.767374 1.89664 0
M  V30 2928 H 285.836 -3.09057 2.66361 0
M  V30 2929 H 284.511 -2.27736 3.48007 0
M  V30 2930 H 283.088 -3.20731 1.90227 0
M  V30 2931 N 285.273 -1.31445 -0.869486 0
M  V30 2932 C 286.519 -1.21337 -1.62496 0
M  V30 2933 C 286.852 0.227872 -1.92858 0
M  V30 2934 O 286.127 1.16094 -1.56053 0
M  V30 2935 C 286.41 -2.05814 -2.95487 0
M  V30 2936 C 286.263 -3.5824 -2.72 0
M  V30 2937 C 287.582 -1.9079 -3.96594 0
M  V30 2938 H 284.701 -0.442135 -0.589649 0
M  V30 2939 H 287.343 -1.6124 -1.00507 0
M  V30 2940 H 285.493 -1.71913 -3.48394 0
M  V30 2941 H 287.165 -4.0228 -2.25762 0
M  V30 2942 H 285.408 -3.81647 -2.06224 0
M  V30 2943 H 286.079 -4.12657 -3.66631 0
M  V30 2944 H 288.555 -2.20459 -3.52898 0
M  V30 2945 H 287.431 -2.52199 -4.87531 0
M  V30 2946 H 287.692 -0.871341 -4.33428 0
M  V30 2947 N 286.751 1.08385 -1.14413 0
M  V30 2948 C 287.976 1.85057 -0.936413 0
M  V30 2949 C 288.401 1.81055 0.509971 0
M  V30 2950 O 287.759 1.1958 1.36273 0
M  V30 2951 C 287.807 3.30505 -1.44217 0
M  V30 2952 O 286.911 4.07491 -0.634409 0
M  V30 2953 H 286.252 0.573425 -0.334784 0
M  V30 2954 H 288.782 1.36799 -1.52142 0
M  V30 2955 H 288.792 3.81348 -1.45043 0
M  V30 2956 H 287.467 3.32734 -2.49522 0
M  V30 2957 H 286.044 3.66368 -0.694902 0
M  V30 2958 N 288.23 0.939286 1.26551 0
M  V30 2959 C 289.458 0.602536 1.97932 0
M  V30 2960 C 289.873 -0.82206 1.69964 0
M  V30 2961 O 289.23 -1.54789 0.966784 0
M  V30 2962 C 289.281 0.832946 3.51773 0
M  V30 2963 O 289.002 2.20151 3.78768 0
M  V30 2964 C 290.503 0.506483 4.40397 0
M  V30 2965 H 287.723 0.227248 0.631347 0
M  V30 2966 H 290.267 1.25948 1.61113 0
M  V30 2967 H 288.422 0.222644 3.8676 0
M  V30 2968 H 288.836 2.26013 4.73306 0
M  V30 2969 H 290.31 0.718333 5.47306 0
M  V30 2970 H 290.787 -0.558451 4.35635 0
M  V30 2971 H 291.393 1.09543 4.10951 0
M  V30 2972 N 289.708 -1.40897 0.706093 0
M  V30 2973 C 290.955 -2.01054 0.241531 0
M  V30 2974 C 291.283 -1.55956 -1.16223 0
M  V30 2975 O 290.538 -0.766336 -1.80072 0
M  V30 2976 C 290.837 -3.5646 0.259099 0
M  V30 2977 C 290.503 -4.21106 1.61184 0
M  V30 2978 C 289.165 -4.38479 1.98216 0
M  V30 2979 C 291.517 -4.57256 2.50132 0
M  V30 2980 C 288.845 -4.89282 3.2376 0
M  V30 2981 C 291.197 -5.09454 3.7502 0
M  V30 2982 C 289.861 -5.25037 4.12181 0
M  V30 2983 H 289.131 -0.73571 0.0883825 0
M  V30 2984 H 291.778 -1.68645 0.907257 0
M  V30 2985 H 290.083 -3.88721 -0.490189 0
M  V30 2986 H 291.78 -4.00826 -0.11804 0
M  V30 2987 H 288.37 -4.07966 1.31384 0
M  V30 2988 H 292.554 -4.43479 2.228 0
M  V30 2989 H 287.81 -4.99531 3.52532 0
M  V30 2990 H 291.984 -5.36404 4.44121 0
M  V30 2991 H 289.611 -5.64164 5.09532 0
M  V30 2992 N 291.186 -0.45159 -1.50991 0
M  V30 2993 C 292.118 0.388634 -2.25881 0
M  V30 2994 C 293.131 0.974041 -1.30446 0
M  V30 2995 O 294.32 0.865758 -1.56099 0
M  V30 2996 C 291.42 1.5571 -3.01011 0
M  V30 2997 C 290.593 1.08801 -4.23652 0
M  V30 2998 C 289.652 2.12825 -4.8124 0
M  V30 2999 O 288.678 1.71678 -5.42693 0
M  V30 3000 N 289.88 3.45453 -4.66522 0
M  V30 3001 H 292.645 -0.25329 -2.98628 0
M  V30 3002 H 290.206 -0.281268 -1.59438 0
M  V30 3003 H 292.198 2.24952 -3.3642 0
M  V30 3004 H 290.768 2.10409 -2.31186 0
M  V30 3005 H 289.988 0.22215 -3.93574 0
M  V30 3006 H 291.276 0.752213 -5.03209 0
M  V30 3007 H 290.674 3.81605 -4.17605 0
M  V30 3008 H 289.231 4.10549 -5.06254 0
M  V30 3009 N 292.664 1.56529 -0.183458 0
M  V30 3010 C 293.894 2.01331 0.463612 0
M  V30 3011 C 294.302 1.06278 1.5653 0
M  V30 3012 O 293.645 0.0577976 1.83609 0
M  V30 3013 C 293.707 3.42547 1.09096 0
M  V30 3014 C 293.371 4.56817 0.129442 0
M  V30 3015 C 294.368 5.15734 -0.656807 0
M  V30 3016 C 292.053 5.02295 0.02174 0
M  V30 3017 C 294.047 6.1857 -1.53784 0
M  V30 3018 C 291.734 6.04978 -0.862864 0
M  V30 3019 C 292.732 6.62988 -1.64123 0
M  V30 3020 O 292.42 7.63677 -2.51103 0
M  V30 3021 H 292.152 0.664917 0.121907 0
M  V30 3022 H 294.706 2.034 -0.285954 0
M  V30 3023 H 292.936 3.37428 1.88889 0
M  V30 3024 H 294.625 3.71228 1.64148 0
M  V30 3025 H 295.391 4.81473 -0.583839 0
M  V30 3026 H 291.27 4.56847 0.617392 0
M  V30 3027 H 294.814 6.63777 -2.14583 0
M  V30 3028 H 290.711 6.38663 -0.93699 0
M  V30 3029 H 291.479 7.81049 -2.44753 0
M  V30 3030 N 294.142 -0.090211 1.57342 0
M  V30 3031 C 295.419 -0.824761 1.77361 0
M  V30 3032 C 295.799 -1.96698 0.76637 0
M  V30 3033 O 295.147 -2.27586 -0.204179 0
M  V30 3034 C 295.357 -1.31481 3.23286 0
M  V30 3035 C 296.705 -1.75563 3.86604 0
M  V30 3036 O 297.729 -1.41093 3.27065 0
M  V30 3037 O 296.588 -2.39317 4.91314 0
M  V30 3038 H 293.682 -0.393776 0.727234 0
M  V30 3039 H 296.228 -0.0717138 1.69548 0
M  V30 3040 H 295 -0.496671 3.88135 0
M  V30 3041 H 294.623 -2.12973 3.35751 0
M  V30 3042 N 295.62 -1.53406 -0.361157 0
M  V30 3043 C 297.036 -1.43277 -0.703124 0
M  V30 3044 C 297.236 -0.575384 -1.9311 0
M  V30 3045 O 296.292 -0.0595362 -2.5243 0
M  V30 3046 C 297.605 -2.8653 -0.9122 0
M  V30 3047 C 299.153 -2.96191 -1.01193 0
M  V30 3048 C 299.628 -4.40514 -1.25345 0
M  V30 3049 N 301.119 -4.43962 -1.32105 0
M  V30 3050 C 301.854 -5.52746 -1.5251 0
M  V30 3051 N 301.35 -6.71567 -1.70203 0
M  V30 3052 N 303.143 -5.40331 -1.54916 0
M  V30 3053 H 295.294 -2.07654 0.446475 0
M  V30 3054 H 297.557 -0.937944 0.137715 0
M  V30 3055 H 297.263 -3.51605 -0.0816414 0
M  V30 3056 H 297.137 -3.30441 -1.81903 0
M  V30 3057 H 299.524 -2.31266 -1.83303 0
M  V30 3058 H 299.605 -2.55667 -0.0823929 0
M  V30 3059 H 299.249 -5.06014 -0.437346 0
M  V30 3060 H 299.179 -4.78614 -2.19627 0
M  V30 3061 H 301.67 -3.58332 -1.20028 0
M  V30 3062 H 301.983 -7.50241 -1.85359 0
M  V30 3063 H 300.328 -6.74545 -1.67373 0
M  V30 3064 H 303.519 -4.46465 -1.40663 0
M  V30 3065 H 303.692 -6.25173 -1.70477 0
M  V30 3066 N 297.098 0.621204 -1.44841 0
M  V30 3067 C 298.345 1.38055 -1.48145 0
M  V30 3068 C 298.673 1.94143 -0.117867 0
M  V30 3069 O 297.928 1.74713 0.881694 0
M  V30 3070 C 298.227 2.55675 -2.4973 0
M  V30 3071 C 297.893 2.17817 -3.94799 0
M  V30 3072 C 296.555 2.07205 -4.34303 0
M  V30 3073 C 298.907 1.88065 -4.86087 0
M  V30 3074 C 296.235 1.65045 -5.63007 0
M  V30 3075 C 298.587 1.47394 -6.15189 0
M  V30 3076 C 297.251 1.35331 -6.53637 0
M  V30 3077 H 296.521 0.505181 -0.542101 0
M  V30 3078 H 299.168 0.703477 -1.78111 0
M  V30 3079 H 297.473 3.2866 -2.13284 0
M  V30 3080 H 299.17 3.13904 -2.4953 0
M  V30 3081 H 295.76 2.26998 -3.63552 0
M  V30 3082 H 299.944 1.95168 -4.56315 0
M  V30 3083 H 295.2 1.54317 -5.91605 0
M  V30 3084 H 299.374 1.23415 -6.85377 0
M  V30 3085 H 297.001 1.02435 -7.53267 0
M  V30 3086 N 298.576 1.31904 0.862503 0
M  V30 3087 C 299.823 1.22017 1.61611 0
M  V30 3088 C 300.151 -0.21991 1.93253 0
M  V30 3089 O 299.406 -1.17076 1.56817 0
M  V30 3090 C 299.705 2.01713 2.95037 0
M  V30 3091 C 299.371 3.51145 2.82857 0
M  V30 3092 C 298.033 3.91889 2.79243 0
M  V30 3093 C 300.385 4.46204 2.69353 0
M  V30 3094 C 297.713 5.25947 2.59993 0
M  V30 3095 C 300.065 5.80397 2.5164 0
M  V30 3096 C 298.729 6.20352 2.46413 0
M  V30 3097 H 297.999 0.44649 0.591378 0
M  V30 3098 H 300.646 1.63248 1.00111 0
M  V30 3099 H 298.951 1.53185 3.60613 0
M  V30 3100 H 300.648 1.91437 3.52353 0
M  V30 3101 H 297.238 3.1878 2.86491 0
M  V30 3102 H 301.422 4.15652 2.71196 0
M  V30 3103 H 296.678 5.5597 2.54376 0
M  V30 3104 H 300.852 6.53676 2.40169 0
M  V30 3105 H 298.479 7.24172 2.31256 0
M  V30 3106 N 300.054 -1.07777 1.14986 0
M  V30 3107 C 300.964 -2.18404 0.856546 0
M  V30 3108 C 301.98 -1.73211 -0.165485 0
M  V30 3109 O 303.156 -2.01399 0.00755219 0
M  V30 3110 C 300.221 -3.44977 0.34526 0
M  V30 3111 C 299.282 -4.0476 1.43065 0
M  V30 3112 C 298.515 -5.25291 0.943663 0
M  V30 3113 O 298.738 -5.70004 -0.212426 0
M  V30 3114 O 297.672 -5.76638 1.72547 0
M  V30 3115 H 301.498 -2.45978 1.78125 0
M  V30 3116 H 299.083 -1.17033 0.928631 0
M  V30 3117 H 300.965 -4.21348 0.0663671 0
M  V30 3118 H 299.64 -3.18965 -0.551631 0
M  V30 3119 H 298.547 -3.29949 1.76309 0
M  V30 3120 H 299.88 -4.35035 2.30229 0
M  V30 3121 N 301.532 -0.945985 -1.26051 0
M  V30 3122 C 302.479 -0.45809 -2.26208 0
M  V30 3123 C 303.449 0.484816 -1.58867 0
M  V30 3124 O 304.634 0.399969 -1.86561 0
M  V30 3125 C 301.774 0.266131 -3.44072 0
M  V30 3126 C 300.887 -0.713005 -4.26075 0
M  V30 3127 C 300.022 0.0329013 -5.3119 0
M  V30 3128 C 299.061 -0.93774 -6.04874 0
M  V30 3129 N 298.198 -0.223274 -7.01745 0
M  V30 3130 H 303.038 -1.3171 -2.67313 0
M  V30 3131 H 300.575 -0.66069 -1.31428 0
M  V30 3132 H 302.533 0.702514 -4.11243 0
M  V30 3133 H 301.163 1.08925 -3.03867 0
M  V30 3134 H 300.215 -1.26789 -3.58648 0
M  V30 3135 H 301.527 -1.45406 -4.77136 0
M  V30 3136 H 300.681 0.528335 -6.04395 0
M  V30 3137 H 299.42 0.806801 -4.8098 0
M  V30 3138 H 298.425 -1.44425 -5.30492 0
M  V30 3139 H 299.65 -1.71172 -6.57173 0
M  V30 3140 H 297.596 0.532046 -6.53839 0
M  V30 3141 H 297.513 -0.90357 -7.50581 0
M  V30 3142 H 298.781 0.250907 -7.79096 0
M  V30 3143 N 303.011 1.40521 -0.713556 0
M  V30 3144 C 303.958 2.30723 -0.059684 0
M  V30 3145 C 304.928 1.48079 0.752448 0
M  V30 3146 O 306.113 1.76823 0.71681 0
M  V30 3147 C 303.253 3.34274 0.857594 0
M  V30 3148 C 302.366 4.31986 0.0351536 0
M  V30 3149 C 301.501 5.22605 0.951724 0
M  V30 3150 C 300.54 6.11976 0.123253 0
M  V30 3151 N 299.677 6.9502 0.99459 0
M  V30 3152 H 304.517 2.86074 -0.834596 0
M  V30 3153 H 302.054 1.40879 -0.42326 0
M  V30 3154 H 304.012 3.92879 1.40364 0
M  V30 3155 H 302.642 2.8043 1.59871 0
M  V30 3156 H 301.694 3.7518 -0.628052 0
M  V30 3157 H 303.006 4.95101 -0.606347 0
M  V30 3158 H 302.16 5.86131 1.56638 0
M  V30 3159 H 300.899 4.59759 1.62705 0
M  V30 3160 H 299.904 5.47482 -0.50435 0
M  V30 3161 H 301.129 6.76881 -0.548539 0
M  V30 3162 H 299.075 6.34764 1.6556 0
M  V30 3163 H 298.992 7.54892 0.40908 0
M  V30 3164 H 300.26 7.62997 1.59549 0
M  V30 3165 N 304.489 0.459591 1.5075 0
M  V30 3166 C 305.738 -0.100971 2.01447 0
M  V30 3167 C 306.051 -1.41816 1.34713 0
M  V30 3168 O 307.257 -2.06299 1.76502 0
M  V30 3169 C 305.713 -0.23047 3.59161 0
M  V30 3170 C 305.321 1.0776 4.34847 0
M  V30 3171 C 307.065 -0.743608 4.17936 0
M  V30 3172 C 304.972 0.91253 5.84317 0
M  V30 3173 H 303.902 -0.0415102 0.752856 0
M  V30 3174 H 306.553 0.592742 1.73663 0
M  V30 3175 H 304.935 -0.987703 3.83485 0
M  V30 3176 H 306.109 1.8449 4.22256 0
M  V30 3177 H 304.424 1.52097 3.87628 0
M  V30 3178 H 307.021 -0.883959 5.27343 0
M  V30 3179 H 307.364 -1.73196 3.78562 0
M  V30 3180 H 307.897 -0.04408 3.97776 0
M  V30 3181 H 304.636 1.87391 6.28144 0
M  V30 3182 H 304.156 0.185422 5.99513 0
M  V30 3183 H 305.835 0.574547 6.44444 0
M  V30 3184 N 305.967 -1.56429 0.191757 0
M  V30 3185 C 307.244 -1.89224 -0.495332 0
M  V30 3186 C 307.624 -1.10478 -1.79883 0
M  V30 3187 O 306.972 -0.204852 -2.2758 0
M  V30 3188 C 307.182 -3.41548 -0.717367 0
M  V30 3189 C 308.53 -4.11711 -1.03823 0
M  V30 3190 O 309.554 -3.4698 -0.805204 0
M  V30 3191 O 308.413 -5.2611 -1.47887 0
M  V30 3192 H 305.507 -0.785788 -0.25781 0
M  V30 3193 H 308.053 -1.68111 0.231721 0
M  V30 3194 H 306.825 -3.90772 0.203287 0
M  V30 3195 H 306.448 -3.68342 -1.497 0
M  V30 3196 N 307.445 0.0818655 -1.57387 0
M  V30 3197 C 308.355 1.11642 -2.06333 0
M  V30 3198 C 309.371 1.43033 -0.99083 0
M  V30 3199 O 310.547 1.53411 -1.30488 0
M  V30 3200 C 307.612 2.41342 -2.48907 0
M  V30 3201 C 306.673 2.17014 -3.7041 0
M  V30 3202 C 305.906 3.4053 -4.10944 0
M  V30 3203 O 306.129 4.4927 -3.51444 0
M  V30 3204 O 305.063 3.29336 -5.03807 0
M  V30 3205 H 308.889 0.730657 -2.9478 0
M  V30 3206 H 306.474 0.295301 -1.46452 0
M  V30 3207 H 308.356 3.17691 -2.76858 0
M  V30 3208 H 307.031 2.79319 -1.63593 0
M  V30 3209 H 305.938 1.38403 -3.47556 0
M  V30 3210 H 307.271 1.83923 -4.56545 0
M  V30 3211 N 308.923 1.53595 0.353017 0
M  V30 3212 C 309.87 1.80919 1.43308 0
M  V30 3213 C 310.84 0.654288 1.5267 0
M  V30 3214 O 312.025 0.897759 1.6836 0
M  V30 3215 C 309.165 2.01605 2.80089 0
M  V30 3216 C 308.278 3.29321 2.79593 0
M  V30 3217 C 307.413 3.40125 4.0803 0
M  V30 3218 C 306.452 4.61826 4.01725 0
M  V30 3219 N 305.589 4.69716 5.21834 0
M  V30 3220 H 310.429 2.73074 1.19308 0
M  V30 3221 H 307.966 1.35263 0.578131 0
M  V30 3222 H 309.924 2.11586 3.59565 0
M  V30 3223 H 308.554 1.12772 3.0246 0
M  V30 3224 H 307.606 3.28229 1.92276 0
M  V30 3225 H 308.918 4.18884 2.70809 0
M  V30 3226 H 308.072 3.49488 4.95927 0
M  V30 3227 H 306.811 2.48601 4.19582 0
M  V30 3228 H 305.816 4.52552 3.12213 0
M  V30 3229 H 307.041 5.54705 3.91764 0
M  V30 3230 H 304.987 3.81097 5.33948 0
M  V30 3231 H 304.904 5.53202 5.1527 0
M  V30 3232 H 306.172 4.83376 6.11529 0
M  V30 3233 N 310.401 -0.613514 1.45168 0
M  V30 3234 C 311.348 -1.72456 1.53387 0
M  V30 3235 C 312.318 -1.6169 0.380191 0
M  V30 3236 O 313.503 -1.81356 0.592836 0
M  V30 3237 C 310.643 -3.10753 1.50088 0
M  V30 3238 C 309.756 -3.32368 2.75963 0
M  V30 3239 C 308.891 -4.60737 2.64376 0
M  V30 3240 C 307.93 -4.7559 3.85332 0
M  V30 3241 N 307.067 -5.95253 3.72315 0
M  V30 3242 H 311.907 -1.64768 2.48305 0
M  V30 3243 H 309.444 -0.803503 1.23216 0
M  V30 3244 H 311.402 -3.90758 1.46164 0
M  V30 3245 H 310.032 -3.17413 0.587243 0
M  V30 3246 H 309.084 -2.4618 2.89999 0
M  V30 3247 H 310.396 -3.39218 3.65695 0
M  V30 3248 H 309.55 -5.48928 2.58385 0
M  V30 3249 H 308.289 -4.56275 1.72233 0
M  V30 3250 H 307.294 -3.85824 3.91688 0
M  V30 3251 H 308.519 -4.81854 4.78533 0
M  V30 3252 H 306.465 -5.91847 2.82937 0
M  V30 3253 H 306.382 -6.03236 4.55677 0
M  V30 3254 H 307.65 -6.85958 3.70246 0
M  V30 3255 N 311.879 -1.3236 -0.855495 0
M  V30 3256 C 312.827 -1.2118 -1.9854 0
M  V30 3257 C 313.821 -0.116788 -1.68997 0
M  V30 3258 O 315.027 -0.279657 -1.77814 0
M  V30 3259 H 311.402 -0.375608 -0.651477 0
M  V30 3260 H 313.373 -2.16743 -2.05098 0
M  V30 3261 C 312.122 -0.950849 -3.34446 0
M  V30 3262 H 311.445 -1.78563 -3.57708 0
M  V30 3263 H 312.885 -0.912863 -4.14057 0
M  V30 3264 C 311.344 0.346404 -3.35114 0
M  V30 3265 O 311.874 1.35855 -3.7803 0
M  V30 3266 N 310.08 0.36808 -2.88259 0
M  V30 3267 H 309.627 -0.456102 -2.5353 0
M  V30 3268 H 309.585 1.23591 -2.89089 0
M  V30 3269 N 313.357 1.07166 -1.15556 0
M  V30 3270 C 314.634 1.76546 -0.842069 0
M  V30 3271 C 315.014 2.00453 0.661939 0
M  V30 3272 O 314.362 1.62452 1.60691 0
M  V30 3273 C 314.572 3.07266 -1.65495 0
M  V30 3274 C 315.92 3.81578 -1.86234 0
M  V30 3275 O 316.944 3.17083 -1.62287 0
M  V30 3276 O 315.803 4.97419 -2.26355 0
M  V30 3277 H 312.897 0.766756 -0.309862 0
M  V30 3278 H 315.443 1.13514 -1.26145 0
M  V30 3279 H 314.215 2.85494 -2.67598 0
M  V30 3280 H 313.838 3.7803 -1.23203 0
M  V30 3281 N 314.835 0.952656 1.25548 0
M  V30 3282 C 315.785 0.442033 2.23674 0
M  V30 3283 C 316.769 -0.467632 1.53955 0
M  V30 3284 O 317.961 -0.301006 1.74422 0
M  V30 3285 C 315.09 -0.280816 3.4215 0
M  V30 3286 C 314.176 0.646803 4.19139 0
M  V30 3287 N 314.567 1.77759 4.73535 0
M  V30 3288 C 312.865 0.454617 4.43677 0
M  V30 3289 C 313.566 2.35658 5.31827 0
M  V30 3290 N 312.542 1.64333 5.18166 0
M  V30 3291 H 316.344 1.30505 2.63336 0
M  V30 3292 H 313.858 0.809904 1.40763 0
M  V30 3293 H 315.855 -0.663747 4.11582 0
M  V30 3294 H 314.515 -1.14046 3.04012 0
M  V30 3295 H 315.526 2.15949 4.7073 0
M  V30 3296 H 312.203 -0.362312 4.15925 0
M  V30 3297 H 313.593 3.30998 5.84713 0
M  V30 3298 N 316.313 -1.40141 0.720998 0
M  V30 3299 C 317.541 -2.05096 0.272656 0
M  V30 3300 C 317.956 -1.54334 -1.0875 0
M  V30 3301 O 317.313 -0.702211 -1.6845 0
M  V30 3302 C 317.364 -3.60636 0.249835 0
M  V30 3303 O 317.085 -4.09526 1.55629 0
M  V30 3304 C 318.586 -4.42772 -0.216396 0
M  V30 3305 H 315.806 -0.659897 0.121558 0
M  V30 3306 H 318.35 -1.79449 0.980723 0
M  V30 3307 H 316.505 -3.85232 -0.409237 0
M  V30 3308 H 316.919 -5.03758 1.4604 0
M  V30 3309 H 318.393 -5.51702 -0.181212 0
M  V30 3310 H 318.87 -4.20756 -1.25941 0
M  V30 3311 H 319.476 -4.23294 0.412596 0
M  V30 3312 N 317.792 -0.46758 -1.50504 0
M  V30 3313 C 319.022 0.086288 -2.0642 0
M  V30 3314 C 319.43 1.34369 -1.33197 0
M  V30 3315 O 318.773 1.79431 -0.393747 0
M  V30 3316 C 318.835 0.443846 -3.5675 0
M  V30 3317 C 318.499 -0.711035 -4.51435 0
M  V30 3318 C 319.496 -1.59205 -4.94924 0
M  V30 3319 C 317.181 -0.900363 -4.94165 0
M  V30 3320 C 319.175 -2.64683 -5.79846 0
M  V30 3321 C 316.862 -1.95837 -5.7887 0
M  V30 3322 C 317.86 -2.82997 -6.21612 0
M  V30 3323 O 317.548 -3.86977 -7.0463 0
M  V30 3324 H 317.28 -0.00217814 -0.675996 0
M  V30 3325 H 319.834 -0.654346 -1.94698 0
M  V30 3326 H 318.064 1.23762 -3.6636 0
M  V30 3327 H 319.753 0.932386 -3.95046 0
M  V30 3328 H 320.519 -1.45745 -4.62583 0
M  V30 3329 H 316.398 -0.231427 -4.60419 0
M  V30 3330 H 319.942 -3.32745 -6.13128 0
M  V30 3331 H 315.839 -2.09305 -6.10624 0
M  V30 3332 H 316.607 -3.83923 -7.22873 0
M  V30 3333 N 319.27 1.56325 -0.20005 0
M  V30 3334 C 320.686 1.58839 0.155716 0
M  V30 3335 C 320.886 1.21636 1.60645 0
M  V30 3336 O 319.942 0.941437 2.34293 0
M  V30 3337 C 321.255 3.0032 -0.151124 0
M  V30 3338 C 322.803 3.12866 -0.0916284 0
M  V30 3339 C 323.278 4.56488 -0.371845 0
M  V30 3340 N 324.769 4.62089 -0.320641 0
M  V30 3341 C 325.504 5.71116 -0.511243 0
M  V30 3342 N 325 6.88592 -0.762461 0
M  V30 3343 N 326.793 5.60335 -0.445157 0
M  V30 3344 H 318.944 1.78788 -1.14668 0
M  V30 3345 H 321.207 0.829996 -0.458051 0
M  V30 3346 H 320.913 3.32117 -1.15721 0
M  V30 3347 H 320.787 3.73257 0.543986 0
M  V30 3348 H 323.174 2.80878 0.905065 0
M  V30 3349 H 323.255 2.42304 -0.81989 0
M  V30 3350 H 322.899 4.89189 -1.36588 0
M  V30 3351 H 322.829 5.25246 0.377362 0
M  V30 3352 H 325.32 3.77665 -0.13329 0
M  V30 3353 H 325.633 7.67581 -0.896576 0
M  V30 3354 H 323.978 6.90387 -0.799412 0
M  V30 3355 H 327.169 4.67436 -0.249278 0
M  V30 3356 H 327.342 6.45243 -0.597116 0
M  V30 3357 N 320.748 -0.0735177 1.57428 0
M  V30 3358 C 321.994 -0.774145 1.87443 0
M  V30 3359 C 322.327 -1.77311 0.792103 0
M  V30 3360 O 321.602 -1.93492 -0.197793 0
M  V30 3361 C 321.885 -1.48367 3.28115 0
M  V30 3362 C 321.738 -0.501227 4.46999 0
M  V30 3363 C 323.057 -2.429 3.66998 0
M  V30 3364 H 320.176 -0.279971 0.681752 0
M  V30 3365 H 322.818 -0.0373616 1.89963 0
M  V30 3366 H 320.968 -2.11171 3.26097 0
M  V30 3367 H 322.64 0.121468 4.6114 0
M  V30 3368 H 320.883 0.183593 4.33411 0
M  V30 3369 H 321.554 -1.03526 5.42205 0
M  V30 3370 H 324.03 -1.90175 3.70098 0
M  V30 3371 H 322.906 -2.89549 4.66318 0
M  V30 3372 H 323.167 -3.27628 2.96837 0
M  V30 3373 N 322.226 -1.5378 -0.344866 0
M  V30 3374 C 323.473 -1.70963 -1.08526 0
M  V30 3375 C 323.801 -0.472126 -1.88683 0
M  V30 3376 O 323.056 0.546116 -1.87926 0
M  V30 3377 C 323.355 -2.92407 -2.05506 0
M  V30 3378 C 323.021 -4.28066 -1.41671 0
M  V30 3379 C 321.683 -4.64951 -1.2399 0
M  V30 3380 C 324.035 -5.12344 -0.956726 0
M  V30 3381 C 321.363 -5.83733 -0.589277 0
M  V30 3382 C 323.715 -6.3179 -0.320015 0
M  V30 3383 C 322.379 -6.67372 -0.130881 0
M  V30 3384 H 321.649 -0.625598 -0.397124 0
M  V30 3385 H 324.296 -1.87995 -0.36469 0
M  V30 3386 H 322.601 -2.69973 -2.8394 0
M  V30 3387 H 324.298 -3.02895 -2.62784 0
M  V30 3388 H 320.888 -3.99034 -1.56429 0
M  V30 3389 H 325.072 -4.8438 -1.08118 0
M  V30 3390 H 320.328 -6.09877 -0.431344 0
M  V30 3391 H 324.502 -6.96386 0.0445072 0
M  V30 3392 H 322.129 -7.59273 0.375318 0
M  V30 3393 N 323.704 0.605807 -1.45491 0
M  V30 3394 C 324.651 1.7164 -1.54299 0
M  V30 3395 C 325.621 1.61486 -0.388761 0
M  V30 3396 O 326.806 1.81039 -0.602445 0
M  V30 3397 C 323.946 3.09953 -1.51734 0
M  V30 3398 C 323.059 3.309 -2.77721 0
M  V30 3399 C 322.194 4.59329 -2.66816 0
M  V30 3400 C 321.233 4.7354 -3.87848 0
M  V30 3401 N 320.37 5.9327 -3.75467 0
M  V30 3402 H 325.21 1.63449 -2.49176 0
M  V30 3403 H 322.747 0.796957 -1.23641 0
M  V30 3404 H 324.705 3.89977 -1.48235 0
M  V30 3405 H 323.335 3.17098 -0.604068 0
M  V30 3406 H 322.387 2.44639 -2.913 0
M  V30 3407 H 323.699 3.37274 -3.67488 0
M  V30 3408 H 322.853 5.4755 -2.61292 0
M  V30 3409 H 321.592 4.55355 -1.74651 0
M  V30 3410 H 320.597 3.83741 -3.93729 0
M  V30 3411 H 321.822 4.79309 -4.81082 0
M  V30 3412 H 319.768 5.90338 -2.86072 0
M  V30 3413 H 319.685 6.00811 -4.5887 0
M  V30 3414 H 320.953 6.83984 -3.73879 0
M  V30 3415 N 325.182 1.32811 0.848464 0
M  V30 3416 C 326.41 1.26739 1.63538 0
M  V30 3417 C 326.825 -0.163484 1.88091 0
M  V30 3418 O 326.182 -1.10258 1.45429 0
M  V30 3419 C 326.233 2.03013 2.99112 0
M  V30 3420 O 325.954 3.40518 2.75643 0
M  V30 3421 C 327.455 2.04038 3.93552 0
M  V30 3422 H 324.675 0.437024 0.509167 0
M  V30 3423 H 327.219 1.75033 1.05753 0
M  V30 3424 H 325.374 1.58426 3.53525 0
M  V30 3425 H 325.788 3.79635 3.61908 0
M  V30 3426 H 327.262 2.61877 4.85926 0
M  V30 3427 H 327.739 1.0282 4.26995 0
M  V30 3428 H 328.345 2.486 3.45077 0
M  V30 3429 N 326.66 -1.06551 1.16123 0
M  V30 3430 C 327.906 -1.79567 0.94252 0
M  V30 3431 C 328.239 -1.86869 -0.528547 0
M  V30 3432 O 327.514 -1.35838 -1.39206 0
M  V30 3433 C 327.797 -3.24195 1.56747 0
M  V30 3434 C 327.65 -3.24989 3.10969 0
M  V30 3435 C 328.969 -4.21678 1.25998 0
M  V30 3436 H 326.088 -0.651883 0.343828 0
M  V30 3437 H 328.73 -1.2463 1.43413 0
M  V30 3438 H 326.88 -3.71107 1.14942 0
M  V30 3439 H 328.552 -2.86258 3.61737 0
M  V30 3440 H 326.795 -2.63716 3.44436 0
M  V30 3441 H 327.466 -4.27005 3.49815 0
M  V30 3442 H 329.942 -3.83196 1.62174 0
M  V30 3443 H 328.818 -5.21146 1.7233 0
M  V30 3444 H 329.079 -4.4174 0.178367 0
M  V30 3445 N 328.138 -0.959301 -1.25041 0
M  V30 3446 C 329.086 -0.474437 -2.2771 0
M  V30 3447 C 330.08 0.457697 -1.631 0
M  V30 3448 O 331.286 0.333912 -1.76876 0
M  V30 3449 H 327.661 -0.134936 -0.739795 0
M  V30 3450 H 329.632 -1.35251 -2.65988 0
M  V30 3451 C 328.381 0.227884 -3.46952 0
M  V30 3452 H 327.704 -0.480248 -3.96905 0
M  V30 3453 H 329.144 0.531091 -4.20661 0
M  V30 3454 C 327.603 1.452 -3.04004 0
M  V30 3455 O 328.133 2.54949 -3.10426 0
M  V30 3456 N 326.339 1.31502 -2.59144 0
M  V30 3457 H 325.886 0.422065 -2.54119 0
M  V30 3458 H 325.844 2.13521 -2.30773 0
M  V30 3459 N 329.616 1.39756 -0.72842 0
M  V30 3460 C 331.032 1.5442 -0.403308 0
M  V30 3461 C 331.232 1.69694 1.08656 0
M  V30 3462 O 330.288 1.69373 1.87267 0
M  V30 3463 C 331.601 2.76555 -1.18058 0
M  V30 3464 C 333.149 2.90384 -1.16815 0
M  V30 3465 C 333.624 4.15449 -1.92785 0
M  V30 3466 N 335.115 4.22475 -1.89918 0
M  V30 3467 C 335.85 5.1818 -2.45514 0
M  V30 3468 N 335.346 6.19714 -3.09719 0
M  V30 3469 N 337.139 5.1035 -2.35584 0
M  V30 3470 H 329.29 1.28089 -1.69431 0
M  V30 3471 H 331.553 0.620327 -0.716867 0
M  V30 3472 H 331.259 2.7159 -2.23455 0
M  V30 3473 H 331.133 3.69033 -0.780662 0
M  V30 3474 H 333.52 2.94846 -0.12234 0
M  V30 3475 H 333.601 1.98988 -1.6074 0
M  V30 3476 H 333.245 4.11749 -2.97364 0
M  V30 3477 H 333.175 5.05877 -1.46272 0
M  V30 3478 H 335.666 3.49743 -1.43138 0
M  V30 3479 H 335.979 6.8919 -3.49625 0
M  V30 3480 H 334.324 6.20121 -3.13807 0
M  V30 3481 H 337.515 4.2996 -1.85072 0
M  V30 3482 H 337.688 5.84761 -2.79211 0
M  V30 3483 N 331.094 0.475555 1.50254 0
M  V30 3484 C 332.51 0.12997 1.5907 0
M  V30 3485 C 332.71 -1.36385 1.48328 0
M  V30 3486 O 331.766 -2.13754 1.34407 0
M  V30 3487 C 333.079 0.684139 2.92814 0
M  V30 3488 C 334.627 0.647965 3.0622 0
M  V30 3489 C 335.102 1.17975 4.42545 0
M  V30 3490 N 336.593 1.13936 4.48969 0
M  V30 3491 C 337.328 1.52129 5.52851 0
M  V30 3492 N 336.824 1.97793 6.63965 0
M  V30 3493 N 338.617 1.43704 5.4342 0
M  V30 3494 H 330.768 1.44706 1.55479 0
M  V30 3495 H 333.031 0.598691 0.735033 0
M  V30 3496 H 332.737 1.73079 3.06164 0
M  V30 3497 H 332.611 0.130204 3.76975 0
M  V30 3498 H 334.998 -0.38979 2.92514 0
M  V30 3499 H 335.079 1.23876 2.23805 0
M  V30 3500 H 334.723 2.21616 4.57 0
M  V30 3501 H 334.653 0.565138 5.23559 0
M  V30 3502 H 337.144 0.804488 3.69238 0
M  V30 3503 H 337.457 2.25072 7.39299 0
M  V30 3504 H 335.802 2.01749 6.65073 0
M  V30 3505 H 338.993 1.07867 4.55502 0
M  V30 3506 H 339.166 1.73794 6.24259 0
M  V30 3507 N 332.573 -1.56217 0.208337 0
M  V30 3508 C 333.536 -2.18455 -0.693557 0
M  V30 3509 C 334.536 -1.14268 -1.13135 0
M  V30 3510 O 335.726 -1.39577 -1.0423 0
M  V30 3511 C 332.858 -2.79727 -1.94848 0
M  V30 3512 H 334.051 -2.99519 -0.15114 0
M  V30 3513 H 331.604 -1.56245 -0.041287 0
M  V30 3514 H 332.339 -2.02497 -2.53309 0
M  V30 3515 H 332.124 -3.56009 -1.64316 0
M  V30 3516 H 333.614 -3.27475 -2.59133 0
M  V30 3517 N 334.051 0.0651679 -1.57465 0
M  V30 3518 C 335.001 1.0838 -2.00594 0
M  V30 3519 C 335.985 1.34106 -0.889071 0
M  V30 3520 O 337.177 1.34295 -1.15299 0
M  V30 3521 C 334.306 2.39565 -2.45894 0
M  V30 3522 C 333.392 2.17085 -3.64328 0
M  V30 3523 N 333.783 1.64553 -4.78285 0
M  V30 3524 C 332.081 2.4753 -3.71006 0
M  V30 3525 C 332.782 1.57042 -5.60101 0
M  V30 3526 N 331.758 2.03328 -5.04141 0
M  V30 3527 H 335.56 0.671062 -2.86136 0
M  V30 3528 H 333.074 0.27213 -1.60104 0
M  V30 3529 H 335.071 3.13308 -2.75034 0
M  V30 3530 H 333.731 2.81549 -1.61741 0
M  V30 3531 H 334.742 1.33323 -5.00445 0
M  V30 3532 H 331.419 2.92835 -2.9758 0
M  V30 3533 H 332.809 1.17223 -6.61595 0
M  V30 3534 N 335.529 1.53961 0.336706 0
M  V30 3535 C 336.778 1.70751 1.07363 0
M  V30 3536 C 337.091 0.481061 1.89592 0
M  V30 3537 O 338.297 0.530046 2.66276 0
M  V30 3538 C 336.753 3.01965 1.95818 0
M  V30 3539 C 336.361 4.31971 1.18764 0
M  V30 3540 C 338.105 3.28121 2.69327 0
M  V30 3541 C 336.012 5.54255 2.06289 0
M  V30 3542 H 334.942 0.636292 0.404535 0
M  V30 3543 H 337.593 1.80459 0.332681 0
M  V30 3544 H 335.975 2.86132 2.7376 0
M  V30 3545 H 337.149 4.5853 0.456849 0
M  V30 3546 H 335.464 4.12481 0.569946 0
M  V30 3547 H 338.061 4.16673 3.35094 0
M  V30 3548 H 338.404 2.45426 3.36261 0
M  V30 3549 H 338.937 3.44762 1.98454 0
M  V30 3550 H 335.676 6.39513 1.43885 0
M  V30 3551 H 335.196 5.31935 2.77138 0
M  V30 3552 H 336.875 5.90159 2.65182 0
M  V30 3553 N 337.007 -0.598083 1.45811 0
M  V30 3554 C 338.254 -1.35681 1.50323 0
M  V30 3555 C 338.582 -1.9393 0.148739 0
M  V30 3556 O 337.837 -1.76094 -0.853787 0
M  V30 3557 C 338.136 -2.51669 2.53766 0
M  V30 3558 C 337.802 -2.11508 3.98215 0
M  V30 3559 C 336.464 -2.0027 4.37545 0
M  V30 3560 C 338.816 -1.80308 4.89018 0
M  V30 3561 C 336.144 -1.56067 5.65562 0
M  V30 3562 C 338.496 -1.37589 6.17456 0
M  V30 3563 C 337.16 -1.24916 6.55708 0
M  V30 3564 H 336.43 -0.496492 0.550069 0
M  V30 3565 H 339.077 -0.675052 1.79207 0
M  V30 3566 H 337.382 -3.25225 2.18486 0
M  V30 3567 H 339.079 -3.09895 2.54492 0
M  V30 3568 H 335.669 -2.21185 3.67117 0
M  V30 3569 H 339.853 -1.87884 4.59362 0
M  V30 3570 H 335.109 -1.44886 5.93985 0
M  V30 3571 H 339.283 -1.12495 6.87254 0
M  V30 3572 H 336.91 -0.904386 7.54801 0
M  V30 3573 N 338.485 -1.33259 -0.841409 0
M  V30 3574 C 339.896 -1.22066 -1.41269 0
M  V30 3575 C 340.247 0.161479 -1.95534 0
M  V30 3576 O 339.372 1.06094 -1.88608 0
M  V30 3577 C 339.967 -2.20996 -2.568 0
M  V30 3578 C 338.526 -2.13649 -3.09888 0
M  V30 3579 C 337.673 -2.08623 -1.82679 0
M  V30 3580 H 340.624 -1.44895 -0.647395 0
M  V30 3581 H 340.645 -1.81621 -3.34356 0
M  V30 3582 H 340.157 -3.2158 -2.17274 0
M  V30 3583 H 338.258 -1.16359 -3.53965 0
M  V30 3584 H 338.371 -3.04079 -3.70234 0
M  V30 3585 H 336.735 -1.54061 -2.02824 0
M  V30 3586 H 337.518 -3.1101 -1.45353 0
M  V30 3587 N 339.963 1.05934 -1.16686 0
M  V30 3588 C 340.896 2.1295 -0.820225 0
M  V30 3589 C 341.874 1.61242 0.209722 0
M  V30 3590 O 343.058 1.88271 0.0929688 0
M  V30 3591 C 340.185 3.3797 -0.22223 0
M  V30 3592 C 339.231 4.08488 -1.22637 0
M  V30 3593 S 340.064 4.58015 -2.77457 0
M  V30 3594 C 341.22 5.86292 -2.19117 0
M  V30 3595 H 341.453 2.42025 -1.72659 0
M  V30 3596 H 338.986 1.18423 -0.990722 0
M  V30 3597 H 340.944 4.10335 0.116322 0
M  V30 3598 H 339.605 3.07045 0.66196 0
M  V30 3599 H 338.798 4.98291 -0.756455 0
M  V30 3600 H 338.4 3.42154 -1.51019 0
M  V30 3601 H 340.692 6.59246 -1.56209 0
M  V30 3602 H 341.635 6.38019 -3.07144 0
M  V30 3603 H 342.043 5.40497 -1.62858 0
M  V30 3604 N 341.441 0.965919 1.2453 0
M  V30 3605 C 342.404 0.499547 2.2369 0
M  V30 3606 C 343.404 -0.40294 1.5567 0
M  V30 3607 O 344.594 -0.19865 1.73064 0
M  V30 3608 C 341.726 -0.276792 3.39774 0
M  V30 3609 H 342.919 1.37613 2.66463 0
M  V30 3610 H 340.472 0.750324 1.37112 0
M  V30 3611 H 341.207 -1.17055 3.02438 0
M  V30 3612 H 340.992 0.370826 3.90343 0
M  V30 3613 H 342.482 -0.592175 4.1338 0
M  V30 3614 N 342.919 -1.39368 0.735821 0
M  V30 3615 C 344.196 -1.94465 0.210395 0
M  V30 3616 C 344.576 -1.67254 -1.28799 0
M  V30 3617 O 343.924 -1.00123 -2.05396 0
M  V30 3618 C 344.134 -3.4472 0.544897 0
M  V30 3619 C 345.482 -4.21708 0.494689 0
M  V30 3620 O 346.506 -3.52922 0.482136 0
M  V30 3621 O 345.365 -5.44299 0.489947 0
M  V30 3622 H 342.459 -0.826096 0.0386666 0
M  V30 3623 H 345.005 -1.48863 0.814735 0
M  V30 3624 H 343.777 -3.57963 1.58045 0
M  V30 3625 H 343.4 -3.97502 -0.08837 0
M  V30 3626 N 344.397 -0.483516 -1.5 0
M  V30 3627 C 345.674 0.129337 -1.95172 0
M  V30 3628 C 346.054 1.55802 -1.4244 0
M  V30 3629 O 345.402 2.19625 -0.630649 0
M  V30 3630 C 345.612 0.0599251 -3.48949 0
M  V30 3631 C 346.96 0.242617 -4.23906 0
M  V30 3632 O 347.984 0.135933 -3.55941 0
M  V30 3633 O 346.843 0.459454 -5.44565 0
M  V30 3634 H 343.937 0.104887 -0.820322 0
M  V30 3635 H 346.483 -0.544807 -1.60717 0
M  V30 3636 H 345.255 -0.937079 -3.79914 0
M  V30 3637 H 344.878 0.774984 -3.89974 0
M  V30 3638 N 345.875 1.56104 -0.216619 0
M  V30 3639 C 347.105 2.02269 0.420802 0
M  V30 3640 C 347.513 1.09575 1.5424 0
M  V30 3641 O 346.856 0.0967308 1.83445 0
M  V30 3642 C 346.918 3.44784 1.01806 0
M  V30 3643 C 346.582 4.56988 0.0325154 0
M  V30 3644 C 347.579 5.14225 -0.766055 0
M  V30 3645 C 345.264 5.02228 -0.0848092 0
M  V30 3646 C 347.258 6.15169 -1.6687 0
M  V30 3647 C 344.945 6.03011 -0.990994 0
M  V30 3648 C 345.943 6.59357 -1.78149 0
M  V30 3649 O 345.631 7.58179 -2.67245 0
M  V30 3650 H 345.363 0.667353 0.107776 0
M  V30 3651 H 347.917 2.02747 -0.329034 0
M  V30 3652 H 346.147 3.41359 1.81689 0
M  V30 3653 H 347.836 3.74626 1.56237 0
M  V30 3654 H 348.602 4.80126 -0.685836 0
M  V30 3655 H 344.481 4.58054 0.520349 0
M  V30 3656 H 348.025 6.59076 -2.28615 0
M  V30 3657 H 343.922 6.36532 -1.07225 0
M  V30 3658 H 344.69 7.75682 -2.61265 0
M  V30 3659 N 347.353 -0.0568162 1.57498 0
M  V30 3660 C 348.578 -0.769402 1.92601 0
M  V30 3661 C 349.003 -1.69559 0.814336 0
M  V30 3662 O 348.361 -1.79811 -0.231903 0
M  V30 3663 C 348.409 -1.52634 3.26704 0
M  V30 3664 O 347.513 -2.63797 3.16994 0
M  V30 3665 H 346.854 -0.208909 0.63028 0
M  V30 3666 H 349.384 -0.0205798 2.0459 0
M  V30 3667 H 349.394 -1.90234 3.60936 0
M  V30 3668 H 348.069 -0.846875 4.07186 0
M  V30 3669 H 346.646 -2.28943 2.94346 0
M  V30 3670 N 348.832 -1.54138 -0.328536 0
M  V30 3671 C 350.109 -1.62749 -1.08499 0
M  V30 3672 C 350.489 -0.458198 -2.06067 0
M  V30 3673 O 349.837 0.548046 -2.2183 0
M  V30 3674 C 350.047 -2.99519 -1.79135 0
M  V30 3675 C 351.395 -3.55394 -2.32337 0
M  V30 3676 O 352.419 -3.01792 -1.89209 0
M  V30 3677 O 351.278 -4.49186 -3.11279 0
M  V30 3678 H 348.372 -0.65886 -0.499832 0
M  V30 3679 H 350.918 -1.66484 -0.328826 0
M  V30 3680 H 349.69 -3.76061 -1.08139 0
M  V30 3681 H 349.313 -2.99441 -2.61574 0
M  V30 3682 N 350.31 0.590341 -1.46126 0
M  V30 3683 C 351.535 1.37991 -1.54833 0
M  V30 3684 C 351.96 1.87163 -0.187506 0
M  V30 3685 O 351.318 1.61133 0.831008 0
M  V30 3686 C 351.366 2.54867 -2.55098 0
M  V30 3687 O 350.47 3.56061 -2.08073 0
M  V30 3688 H 349.811 0.411265 -0.521303 0
M  V30 3689 H 352.341 0.716819 -1.91632 0
M  V30 3690 H 352.351 3.01886 -2.74461 0
M  V30 3691 H 351.026 2.18429 -3.53923 0
M  V30 3692 H 349.603 3.15574 -1.98664 0
M  V30 3693 N 351.788 1.33704 0.83433 0
M  V30 3694 C 352.718 1.26967 1.95963 0
M  V30 3695 C 353.699 0.149337 1.69443 0
M  V30 3696 O 354.884 0.339852 1.91203 0
M  V30 3697 C 352.014 1.01275 3.32206 0
M  V30 3698 C 350.968 2.09652 3.73136 0
M  V30 3699 C 350.294 1.69166 5.07235 0
M  V30 3700 C 351.594 3.51372 3.86439 0
M  V30 3701 H 353.288 2.2112 2.01857 0
M  V30 3702 H 350.834 1.06447 0.969793 0
M  V30 3703 H 352.787 0.952106 4.10503 0
M  V30 3704 H 351.511 0.0356203 3.26581 0
M  V30 3705 H 350.17 2.14766 2.97104 0
M  V30 3706 H 349.818 0.701437 4.98085 0
M  V30 3707 H 349.518 2.41694 5.35591 0
M  V30 3708 H 351.042 1.64576 5.88003 0
M  V30 3709 H 352.456 3.48734 4.55036 0
M  V30 3710 H 350.853 4.22425 4.26236 0
M  V30 3711 H 351.923 3.89546 2.88759 0
M  V30 3712 N 353.266 -1.05314 1.17247 0
M  V30 3713 C 354.515 -1.77685 0.954521 0
M  V30 3714 C 354.828 -1.88616 -0.518025 0
M  V30 3715 O 356.034 -2.57714 -0.854144 0
M  V30 3716 C 354.49 -3.19402 1.65863 0
M  V30 3717 C 354.098 -3.16605 3.16963 0
M  V30 3718 C 355.842 -3.96237 1.52303 0
M  V30 3719 C 353.749 -4.53103 3.80068 0
M  V30 3720 H 352.679 -0.666 0.353496 0
M  V30 3721 H 355.33 -1.1805 1.40486 0
M  V30 3722 H 353.712 -3.79355 1.13602 0
M  V30 3723 H 354.886 -2.66176 3.76148 0
M  V30 3724 H 353.201 -2.53268 3.30521 0
M  V30 3725 H 355.798 -4.97157 1.96822 0
M  V30 3726 H 356.141 -4.136 0.473401 0
M  V30 3727 H 356.674 -3.42829 2.01775 0
M  V30 3728 H 353.413 -4.40946 4.85023 0
M  V30 3729 H 352.933 -5.03686 3.2567 0
M  V30 3730 H 354.612 -5.22045 3.82202 0
M  V30 3731 N 354.744 -0.972509 -1.24016 0
M  V30 3732 C 355.972 -0.654803 -1.96265 0
M  V30 3733 C 356.387 0.776708 -1.72083 0
M  V30 3734 O 355.744 1.52171 -1.00748 0
M  V30 3735 C 355.795 -0.92592 -3.49441 0
M  V30 3736 O 355.516 -2.30116 -3.72798 0
M  V30 3737 C 357.017 -0.623068 -4.38899 0
M  V30 3738 H 354.237 -0.243907 -0.6251 0
M  V30 3739 H 356.781 -1.30175 -1.57717 0
M  V30 3740 H 354.936 -0.325108 -3.86033 0
M  V30 3741 H 355.35 -2.38483 -4.67147 0
M  V30 3742 H 356.824 -0.863189 -5.45209 0
M  V30 3743 H 357.301 0.442754 -4.36963 0
M  V30 3744 H 357.907 -1.204 -4.07902 0
M  V30 3745 N 356.222 1.38976 -0.743202 0
M  V30 3746 C 357.169 2.30544 -0.10861 0
M  V30 3747 C 358.139 1.49642 0.720869 0
M  V30 3748 O 359.324 1.78304 0.679142 0
M  V30 3749 C 356.464 3.36018 0.786496 0
M  V30 3750 C 355.577 4.31963 -0.0564849 0
M  V30 3751 C 354.712 5.24506 0.840657 0
M  V30 3752 C 353.751 6.121 -0.00658363 0
M  V30 3753 N 352.888 6.96973 0.846943 0
M  V30 3754 H 357.728 2.8424 -0.895088 0
M  V30 3755 H 355.265 1.3995 -0.453048 0
M  V30 3756 H 357.223 3.95768 1.31999 0
M  V30 3757 H 355.853 2.83758 1.53887 0
M  V30 3758 H 354.905 3.73763 -0.707492 0
M  V30 3759 H 356.217 4.93703 -0.711229 0
M  V30 3760 H 355.371 5.89322 1.4417 0
M  V30 3761 H 354.11 4.63107 1.52916 0
M  V30 3762 H 353.115 5.46289 -0.620366 0
M  V30 3763 H 354.34 6.75565 -0.691992 0
M  V30 3764 H 352.286 6.38133 1.52059 0
M  V30 3765 H 352.203 7.5559 0.248864 0
M  V30 3766 H 353.471 7.6621 1.43328 0
M  V30 3767 N 357.7 0.491464 1.49741 0
M  V30 3768 C 358.647 -0.292027 2.28945 0
M  V30 3769 C 359.617 -0.968973 1.34908 0
M  V30 3770 O 360.802 -0.97748 1.6386 0
M  V30 3771 C 357.942 -1.35617 3.17336 0
M  V30 3772 C 357.055 -0.691957 4.26422 0
M  V30 3773 C 356.19 -1.73572 5.02042 0
M  V30 3774 C 355.229 -1.05286 6.02977 0
M  V30 3775 N 354.366 -2.0404 6.71798 0
M  V30 3776 H 359.206 0.389654 2.95442 0
M  V30 3777 H 356.743 0.204003 1.45679 0
M  V30 3778 H 358.701 -1.98502 3.66951 0
M  V30 3779 H 357.331 -2.00674 2.52844 0
M  V30 3780 H 356.383 0.0499523 3.80367 0
M  V30 3781 H 357.695 -0.153946 4.98562 0
M  V30 3782 H 356.849 -2.43987 5.55478 0
M  V30 3783 H 355.588 -2.30757 4.29654 0
M  V30 3784 H 354.593 -0.334446 5.48782 0
M  V30 3785 H 355.818 -0.487636 6.77347 0
M  V30 3786 H 353.764 -2.60205 6.02187 0
M  V30 3787 H 353.681 -1.55279 7.39881 0
M  V30 3788 H 354.949 -2.73772 7.29842 0
M  V30 3789 N 359.178 -1.55987 0.224894 0
M  V30 3790 C 360.11 -2.17722 -0.716224 0
M  V30 3791 C 361.123 -1.14723 -1.15509 0
M  V30 3792 O 362.312 -1.41688 -1.08567 0
M  V30 3793 C 359.412 -2.74873 -1.98238 0
M  V30 3794 C 358.585 -4.03074 -1.69853 0
M  V30 3795 C 357.644 -4.44757 -2.81208 0
M  V30 3796 O 356.67 -5.11587 -2.49534 0
M  V30 3797 N 357.872 -4.10716 -4.10235 0
M  V30 3798 H 360.637 -2.99109 -0.188123 0
M  V30 3799 H 358.198 -1.6184 0.0440123 0
M  V30 3800 H 360.19 -2.99727 -2.7193 0
M  V30 3801 H 358.76 -1.9777 -2.42086 0
M  V30 3802 H 357.98 -3.86041 -0.797875 0
M  V30 3803 H 359.268 -4.86701 -1.48324 0
M  V30 3804 H 358.666 -3.57019 -4.38809 0
M  V30 3805 H 357.223 -4.40455 -4.80461 0
M  V30 3806 N 360.656 0.0484629 -1.57525 0
M  V30 3807 C 361.902 0.744226 -1.88651 0
M  V30 3808 C 362.235 1.76029 -0.820212 0
M  V30 3809 O 361.51 1.93782 0.166985 0
M  V30 3810 C 361.793 1.43128 -3.30434 0
M  V30 3811 C 361.646 0.43005 -4.47739 0
M  V30 3812 C 362.965 2.37031 -3.70816 0
M  V30 3813 H 360.084 0.269089 -0.68612 0
M  V30 3814 H 362.726 0.00713532 -1.89999 0
M  V30 3815 H 360.876 2.05956 -3.29415 0
M  V30 3816 H 362.548 -0.194816 -4.60888 0
M  V30 3817 H 360.791 -0.252522 -4.33064 0
M  V30 3818 H 361.462 0.948874 -5.43783 0
M  V30 3819 H 363.938 1.84263 -3.73077 0
M  V30 3820 H 362.814 2.82094 -4.70865 0
M  V30 3821 H 363.075 3.22864 -3.02012 0
M  V30 3822 N 362.134 1.5431 0.320358 0
M  V30 3823 C 363.359 1.76954 1.08175 0
M  V30 3824 C 363.784 0.518193 1.80821 0
M  V30 3825 O 363.142 -0.530411 1.73368 0
M  V30 3826 C 363.19 2.96451 2.05303 0
M  V30 3827 O 362.294 2.68221 3.13259 0
M  V30 3828 H 361.635 0.586275 0.311733 0
M  V30 3829 H 364.165 2.01342 0.363676 0
M  V30 3830 H 364.175 3.23887 2.48116 0
M  V30 3831 H 362.85 3.87196 1.51829 0
M  V30 3832 H 361.427 2.51744 2.75099 0
M  V30 3833 N 363.613 -0.582584 1.46437 0
M  V30 3834 C 364.859 -1.34278 1.51978 0
M  V30 3835 C 365.192 -1.93446 0.170973 0
M  V30 3836 O 364.467 -1.76481 -0.817608 0
M  V30 3837 C 364.75 -2.47203 2.61845 0
M  V30 3838 C 364.603 -1.93069 4.06257 0
M  V30 3839 C 365.922 -3.49247 2.67795 0
M  V30 3840 H 363.041 -0.486876 0.553282 0
M  V30 3841 H 365.683 -0.654437 1.78374 0
M  V30 3842 H 363.833 -3.0592 2.39469 0
M  V30 3843 H 365.505 -1.38808 4.3992 0
M  V30 3844 H 363.748 -1.23898 4.1573 0
M  V30 3845 H 364.419 -2.74586 4.7886 0
M  V30 3846 H 366.895 -3.00411 2.8791 0
M  V30 3847 H 365.771 -4.25719 3.46489 0
M  V30 3848 H 366.032 -4.06482 1.73852 0
M  V30 3849 N 365.091 -1.34144 -0.827227 0
M  V30 3850 C 366.337 -1.27455 -1.58515 0
M  V30 3851 C 366.692 0.155271 -1.91772 0
M  V30 3852 O 365.985 1.10042 -1.56848 0
M  V30 3853 C 366.179 -2.09464 -2.89585 0
M  V30 3854 C 366.008 -3.60276 -2.69131 0
M  V30 3855 C 364.778 -4.29565 -2.66087 0
M  V30 3856 C 366.976 -4.54367 -2.40947 0
M  V30 3857 N 364.958 -5.66252 -2.37132 0
M  V30 3858 C 366.329 -5.79027 -2.21648 0
M  V30 3859 C 368.384 -4.43327 -2.26639 0
M  V30 3860 C 367.087 -6.93891 -1.89492 0
M  V30 3861 C 369.113 -5.58019 -1.95878 0
M  V30 3862 C 368.475 -6.81695 -1.774 0
M  V30 3863 H 364.574 -0.521614 -0.582617 0
M  V30 3864 H 367.158 -1.68811 -0.970105 0
M  V30 3865 H 365.329 -1.70411 -3.49019 0
M  V30 3866 H 367.061 -1.94453 -3.54923 0
M  V30 3867 H 363.816 -3.81959 -2.80008 0
M  V30 3868 H 364.24 -6.38338 -2.25507 0
M  V30 3869 H 368.882 -3.48333 -2.39633 0
M  V30 3870 H 366.6 -7.88871 -1.75236 0
M  V30 3871 H 370.186 -5.5142 -1.85546 0
M  V30 3872 H 369.066 -7.68942 -1.53941 0
M  V30 3873 N 366.569 1.04691 -1.17803 0
M  V30 3874 C 367.809 1.79352 -0.980423 0
M  V30 3875 C 368.173 1.85853 0.481958 0
M  V30 3876 O 369.374 2.56656 0.798809 0
M  V30 3877 C 367.645 3.19088 -1.6099 0
M  V30 3878 S 369.204 4.10164 -1.55918 0
M  V30 3879 H 366.022 0.617631 -0.352211 0
M  V30 3880 H 368.624 1.25575 -1.49837 0
M  V30 3881 H 367.328 3.11962 -2.66661 0
M  V30 3882 H 366.859 3.77941 -1.09197 0
M  V30 3883 H 368.874 4.92907 -0.570685 0
M  V30 3884 N 368.047 0.979072 1.23499 0
M  V30 3885 C 369.272 0.664845 1.96455 0
M  V30 3886 C 369.697 -0.761287 1.72006 0
M  V30 3887 O 369.055 -1.51837 0.990713 0
M  V30 3888 C 369.103 0.959479 3.47601 0
M  V30 3889 O 368.207 0.0508168 4.12369 0
M  V30 3890 H 367.548 0.250185 0.615064 0
M  V30 3891 H 370.078 1.31231 1.5697 0
M  V30 3892 H 370.088 0.895642 3.98048 0
M  V30 3893 H 368.763 1.99876 3.64723 0
M  V30 3894 H 367.34 0.16895 3.72517 0
M  V30 3895 N 369.525 -1.3858 0.750561 0
M  V30 3896 C 370.473 -2.32339 0.110162 0
M  V30 3897 C 371.467 -1.53864 -0.708674 0
M  V30 3898 O 372.673 -1.69417 -0.608112 0
M  V30 3899 H 369.048 -0.751812 0.0168275 0
M  V30 3900 H 371.019 -2.83959 0.917053 0
M  V30 3901 C 369.768 -3.39043 -0.771067 0
M  V30 3902 H 369.091 -3.99517 -0.150374 0
M  V30 3903 H 370.531 -4.07061 -1.1865 0
M  V30 3904 C 368.99 -2.77365 -1.91234 0
M  V30 3905 O 369.52 -2.66434 -3.00626 0
M  V30 3906 N 367.726 -2.35219 -1.70646 0
M  V30 3907 H 367.273 -2.4431 -0.81673 0
M  V30 3908 H 367.231 -1.94294 -2.47178 0
M  V30 3909 N 371.003 -0.499398 -1.49478 0
M  V30 3910 C 372.28 0.108629 -1.95298 0
M  V30 3911 C 372.66 1.54282 -1.44084 0
M  V30 3912 O 372.008 2.18944 -0.653908 0
M  V30 3913 C 372.218 0.0229111 -3.48992 0
M  V30 3914 C 373.566 0.197643 -4.2414 0
M  V30 3915 O 374.59 0.0981735 -3.56065 0
M  V30 3916 O 373.449 0.401669 -5.45022 0
M  V30 3917 H 370.543 0.096181 -0.821388 0
M  V30 3918 H 373.089 -0.561822 -1.6013 0
M  V30 3919 H 371.861 -0.977321 -3.78899 0
M  V30 3920 H 371.484 0.733579 -3.90774 0
M  V30 3921 N 372.481 1.55866 -0.233164 0
M  V30 3922 C 373.711 2.02704 0.399325 0
M  V30 3923 C 374.119 1.11204 1.53069 0
M  V30 3924 O 373.462 0.116182 1.83332 0
M  V30 3925 C 373.524 3.45844 0.981429 0
M  V30 3926 C 373.188 4.56997 -0.0159561 0
M  V30 3927 C 374.185 5.13384 -0.820552 0
M  V30 3928 C 371.87 5.0211 -0.138072 0
M  V30 3929 C 373.864 6.13365 -1.73386 0
M  V30 3930 C 371.551 6.01926 -1.0549 0
M  V30 3931 C 372.549 6.57431 -1.85132 0
M  V30 3932 O 372.237 7.55302 -2.75272 0
M  V30 3933 H 371.969 0.668459 0.100692 0
M  V30 3934 H 374.523 2.02387 -0.35052 0
M  V30 3935 H 372.753 3.43267 1.78058 0
M  V30 3936 H 374.442 3.76262 1.52255 0
M  V30 3937 H 375.208 4.79372 -0.736721 0
M  V30 3938 H 371.087 4.5858 0.471737 0
M  V30 3939 H 374.631 6.56614 -2.35592 0
M  V30 3940 H 370.528 6.35359 -1.1397 0
M  V30 3941 H 371.296 7.72867 -2.69477 0
M  V30 3942 N 373.959 -0.0401083 1.57549 0
M  V30 3943 C 374.889 -1.04384 2.08869 0
M  V30 3944 C 375.87 -1.38407 0.988817 0
M  V30 3945 O 377.055 -1.47483 1.26342 0
M  V30 3946 C 374.185 -2.34808 2.55895 0
M  V30 3947 C 373.139 -2.15057 3.70047 0
M  V30 3948 C 372.465 -3.51145 4.03239 0
M  V30 3949 C 373.765 -1.54576 4.98902 0
M  V30 3950 H 375.459 -0.616666 2.92981 0
M  V30 3951 H 373.005 -0.295184 1.40942 0
M  V30 3952 H 374.958 -3.05346 2.90417 0
M  V30 3953 H 373.682 -2.79565 1.68853 0
M  V30 3954 H 372.341 -1.46954 3.35857 0
M  V30 3955 H 371.989 -3.93529 3.13279 0
M  V30 3956 H 371.689 -3.38758 4.80122 0
M  V30 3957 H 373.213 -4.23062 4.40285 0
M  V30 3958 H 374.627 -2.15017 5.31451 0
M  V30 3959 H 373.024 -1.52796 5.80322 0
M  V30 3960 H 374.094 -0.51039 4.82206 0
M  V30 3961 N 375.437 -1.54477 -0.31217 0
M  V30 3962 C 376.685 -1.72884 -1.04668 0
M  V30 3963 C 377.006 -0.511477 -1.88173 0
M  V30 3964 O 376.276 0.474407 -1.90069 0
M  V30 3965 H 374.856 -0.637461 -0.389425 0
M  V30 3966 H 377.518 -1.91807 -0.345852 0
M  V30 3967 H 376.614 -2.61334 -1.70619 0
M  V30 3968 N 376.915 0.57481 -1.46744 0
M  V30 3969 C 377.848 1.69827 -1.52427 0
M  V30 3970 C 378.826 1.58151 -0.377744 0
M  V30 3971 O 380.01 1.79257 -0.58303 0
M  V30 3972 C 377.137 3.07943 -1.41027 0
M  V30 3973 C 376.183 3.38116 -2.59961 0
M  V30 3974 S 377.016 3.29313 -4.22272 0
M  V30 3975 C 378.172 4.69953 -4.13394 0
M  V30 3976 H 378.405 1.64748 -2.47478 0
M  V30 3977 H 375.938 0.754203 -1.34726 0
M  V30 3978 H 377.896 3.87619 -1.35137 0
M  V30 3979 H 376.557 3.10504 -0.473909 0
M  V30 3980 H 375.75 4.38762 -2.47999 0
M  V30 3981 H 375.352 2.66024 -2.62882 0
M  V30 3982 H 377.644 5.60517 -3.80562 0
M  V30 3983 H 378.587 4.86972 -5.14066 0
M  V30 3984 H 378.995 4.47174 -3.44522 0
M  V30 3985 N 378.394 1.34581 0.820102 0
M  V30 3986 C 379.619 1.30333 1.61332 0
M  V30 3987 C 380.044 -0.119339 1.87721 0
M  V30 3988 O 379.402 -1.08197 1.45475 0
M  V30 3989 C 379.45 2.10258 2.92957 0
M  V30 3990 O 378.554 1.47404 3.85157 0
M  V30 3991 H 377.895 0.447488 0.490561 0
M  V30 3992 H 380.425 1.77425 1.01889 0
M  V30 3993 H 380.435 2.21718 3.42498 0
M  V30 3994 H 379.11 3.13693 2.73074 0
M  V30 3995 H 377.687 1.44703 3.43679 0
M  V30 3996 N 379.872 -1.04064 1.18357 0
M  V30 3997 C 381.288 -1.2947 0.933258 0
M  V30 3998 C 381.488 -1.97466 -0.401169 0
M  V30 3999 O 380.544 -2.25528 -1.13549 0
M  V30 4000 C 381.857 -2.15337 2.09882 0
M  V30 4001 C 383.405 -2.28683 2.13712 0
M  V30 4002 C 383.88 -3.17917 3.29686 0
M  V30 4003 N 385.371 -3.25504 3.29547 0
M  V30 4004 C 386.106 -3.94706 4.15926 0
M  V30 4005 N 385.602 -4.66239 5.12439 0
M  V30 4006 N 387.395 -3.90986 4.0384 0
M  V30 4007 H 379.546 -0.583359 2.04232 0
M  V30 4008 H 381.809 -0.319921 0.892387 0
M  V30 4009 H 381.515 -1.72682 3.06389 0
M  V30 4010 H 381.389 -3.16015 2.05947 0
M  V30 4011 H 383.776 -2.70575 1.17784 0
M  V30 4012 H 383.857 -1.27596 2.21705 0
M  V30 4013 H 383.501 -2.76736 4.25887 0
M  V30 4014 H 383.431 -4.19036 3.1893 0
M  V30 4015 H 385.922 -2.74547 2.59677 0
M  V30 4016 H 386.235 -5.16638 5.74722 0
M  V30 4017 H 384.58 -4.65143 5.16398 0
M  V30 4018 H 387.771 -3.34234 3.27727 0
M  V30 4019 H 387.944 -4.44646 4.71375 0
M  V30 4020 N 381.35 -0.985608 -1.22978 0
M  V30 4021 C 382.3 -0.50118 -2.22423 0
M  V30 4022 C 383.284 0.426649 -1.5514 0
M  V30 4023 O 384.476 0.254656 -1.75159 0
M  V30 4024 C 381.605 0.190003 -3.42774 0
M  V30 4025 C 380.691 -0.757703 -4.17276 0
M  V30 4026 N 381.082 -1.90251 -4.68656 0
M  V30 4027 C 379.38 -0.57209 -4.42316 0
M  V30 4028 C 380.081 -2.49676 -5.25392 0
M  V30 4029 N 379.057 -1.78013 -5.13627 0
M  V30 4030 H 382.859 -1.37441 -2.59783 0
M  V30 4031 H 380.373 -0.846941 -1.38567 0
M  V30 4032 H 382.37 0.55439 -4.13197 0
M  V30 4033 H 381.03 1.05946 -3.06929 0
M  V30 4034 H 382.041 -2.28354 -4.64839 0
M  V30 4035 H 378.718 0.251909 -4.16739 0
M  V30 4036 H 380.108 -3.46384 -5.75732 0
M  V30 4037 N 382.828 1.3818 -0.7579 0
M  V30 4038 C 384.239 1.82726 -0.383134 0
M  V30 4039 C 384.59 1.63214 1.08884 0
M  V30 4040 O 383.715 1.13566 1.84205 0
M  V30 4041 C 384.31 3.31728 -0.688631 0
M  V30 4042 C 382.869 3.74606 -0.367091 0
M  V30 4043 C 382.016 2.60896 -0.939599 0
M  V30 4044 H 384.967 1.26847 -0.953699 0
M  V30 4045 H 384.988 3.80487 0.0316492 0
M  V30 4046 H 384.5 3.45898 -1.76001 0
M  V30 4047 H 382.601 3.66013 0.697532 0
M  V30 4048 H 382.714 4.71215 -0.865658 0
M  V30 4049 H 381.078 2.52075 -0.3647 0
M  V30 4050 H 381.861 2.77864 -2.0161 0
M  V30 4051 N 384.306 0.507319 1.49211 0
M  V30 4052 C 385.722 0.163682 1.58758 0
M  V30 4053 C 385.922 -1.33208 1.51188 0
M  V30 4054 O 384.978 -2.10855 1.38911 0
M  V30 4055 C 386.291 0.746095 2.91297 0
M  V30 4056 C 387.839 0.712773 3.04776 0
M  V30 4057 C 388.314 1.27336 4.39943 0
M  V30 4058 N 389.805 1.23433 4.46451 0
M  V30 4059 C 390.54 1.63821 5.495 0
M  V30 4060 N 390.036 2.11832 6.5962 0
M  V30 4061 N 391.829 1.55198 5.4025 0
M  V30 4062 H 383.98 1.47972 1.52375 0
M  V30 4063 H 386.243 0.614147 0.722168 0
M  V30 4064 H 385.949 1.79534 3.02424 0
M  V30 4065 H 385.823 0.210137 3.76614 0
M  V30 4066 H 388.21 -0.327656 2.93275 0
M  V30 4067 H 388.291 1.28595 2.21127 0
M  V30 4068 H 387.935 2.3126 4.52196 0
M  V30 4069 H 387.865 0.676066 5.22242 0
M  V30 4070 H 390.356 0.882627 3.67448 0
M  V30 4071 H 390.669 2.40703 7.34358 0
M  V30 4072 H 389.014 2.1581 6.60644 0
M  V30 4073 H 392.205 1.17505 4.53112 0
M  V30 4074 H 392.378 1.86997 6.20432 0
M  V30 4075 N 385.784 -1.5574 0.241426 0
M  V30 4076 C 387.03 -1.99104 -0.385406 0
M  V30 4077 C 387.363 -1.1293 -1.57988 0
M  V30 4078 O 386.638 -0.191449 -1.93555 0
M  V30 4079 C 386.921 -3.51087 -0.800616 0
M  V30 4080 C 386.774 -4.48028 0.398874 0
M  V30 4081 C 388.093 -4.08015 -1.64959 0
M  V30 4082 H 385.212 -0.723848 -0.138614 0
M  V30 4083 H 387.854 -1.86903 0.341642 0
M  V30 4084 H 386.004 -3.61615 -1.4201 0
M  V30 4085 H 387.676 -4.49487 1.03726 0
M  V30 4086 H 385.919 -4.21077 1.04293 0
M  V30 4087 H 386.59 -5.51962 0.0651056 0
M  V30 4088 H 389.066 -4.00555 -1.12672 0
M  V30 4089 H 387.942 -5.14635 -1.90898 0
M  V30 4090 H 388.203 -3.56131 -2.61961 0
M  V30 4091 N 387.262 0.0317525 -1.57568 0
M  V30 4092 C 388.502 0.727979 -1.90997 0
M  V30 4093 C 388.866 1.72664 -0.839708 0
M  V30 4094 O 390.067 2.47092 -1.05825 0
M  V30 4095 C 388.338 1.38239 -3.29583 0
M  V30 4096 S 389.897 2.10814 -3.84841 0
M  V30 4097 H 386.715 0.241226 -0.668828 0
M  V30 4098 H 389.317 -0.0173037 -1.95492 0
M  V30 4099 H 388.021 0.642288 -4.05343 0
M  V30 4100 H 387.552 2.16628 -3.28384 0
M  V30 4101 H 389.567 3.3792 -3.63352 0
M  V30 4102 N 388.74 1.54641 0.303973 0
M  V30 4103 C 389.988 1.73437 1.0375 0
M  V30 4104 C 390.309 0.521449 1.87899 0
M  V30 4105 O 389.579 -0.46432 1.90318 0
M  V30 4106 H 388.159 0.639518 0.386039 0
M  V30 4107 H 390.821 1.91988 0.335675 0
M  V30 4108 H 389.917 2.62235 1.69231 0
M  V30 4109 N 390.218 -0.567019 1.47046 0
M  V30 4110 C 391.181 -1.65696 1.58359 0
M  V30 4111 C 392.181 -1.54097 0.459441 0
M  V30 4112 O 393.371 -1.58432 0.724225 0
M  V30 4113 C 390.503 -3.05197 1.51879 0
M  V30 4114 H 391.696 -1.57019 2.5551 0
M  V30 4115 H 389.249 -0.786148 1.3509 0
M  V30 4116 H 389.984 -3.19417 0.560673 0
M  V30 4117 H 389.769 -3.15025 2.33455 0
M  V30 4118 H 391.259 -3.84511 1.62913 0
M  V30 4119 N 391.696 -1.35014 -0.812953 0
M  V30 4120 C 392.942 -1.2812 -1.57204 0
M  V30 4121 C 393.275 0.145869 -1.93651 0
M  V30 4122 O 392.55 1.0937 -1.60836 0
M  V30 4123 C 392.833 -2.18162 -2.86492 0
M  V30 4124 C 392.686 -3.69454 -2.56561 0
M  V30 4125 C 394.005 -2.07439 -3.88145 0
M  V30 4126 H 391.124 -0.466746 -0.570366 0
M  V30 4127 H 393.766 -1.65357 -0.935783 0
M  V30 4128 H 391.916 -1.86535 -3.40789 0
M  V30 4129 H 393.588 -4.11493 -2.08497 0
M  V30 4130 H 391.831 -3.9005 -1.89851 0
M  V30 4131 H 392.502 -4.27835 -3.48799 0
M  V30 4132 H 394.978 -2.35228 -3.4323 0
M  V30 4133 H 393.854 -2.7265 -4.76396 0
M  V30 4134 H 394.115 -1.05439 -4.29343 0
M  V30 4135 N 393.175 1.03435 -1.18907 0
M  V30 4136 C 394.108 2.11162 -0.86521 0
M  V30 4137 C 395.086 1.6165 0.175473 0
M  V30 4138 O 396.27 1.88425 0.0530129 0
M  V30 4139 C 393.397 3.37423 -0.293868 0
M  V30 4140 C 392.443 4.05795 -1.31274 0
M  V30 4141 S 393.276 4.52027 -2.8711 0
M  V30 4142 C 394.432 5.81513 -2.31504 0
M  V30 4143 H 394.665 2.38308 -1.77754 0
M  V30 4144 H 392.198 1.16295 -1.01562 0
M  V30 4145 H 394.156 4.1049 0.0292572 0
M  V30 4146 H 392.817 3.0838 0.596682 0
M  V30 4147 H 392.01 4.96574 -0.86198 0
M  V30 4148 H 391.612 3.38874 -1.58242 0
M  V30 4149 H 393.904 6.55784 -1.70157 0
M  V30 4150 H 394.847 6.3136 -3.20608 0
M  V30 4151 H 395.255 5.36921 -1.74286 0
M  V30 4152 N 394.653 0.992116 1.22453 0
M  V30 4153 C 395.93 0.583508 1.86694 0
M  V30 4154 C 396.31 -0.9392 1.89056 0
M  V30 4155 O 395.658 -1.82081 1.38053 0
M  V30 4156 C 395.868 1.20304 3.2761 0
M  V30 4157 C 397.216 1.30308 4.0411 0
M  V30 4158 O 398.24 1.15737 3.36873 0
M  V30 4159 O 397.099 1.53615 5.24466 0
M  V30 4160 H 394.193 0.198129 0.802916 0
M  V30 4161 H 396.739 1.08794 1.30238 0
M  V30 4162 H 395.511 2.24461 3.2052 0
M  V30 4163 H 395.134 0.684144 3.9167 0
M  V30 4164 N 396.131 -1.37776 0.765217 0
M  V30 4165 C 397.359 -2.04124 0.337767 0
M  V30 4166 C 397.774 -1.57715 -1.03785 0
M  V30 4167 O 397.131 -0.755447 -1.6613 0
M  V30 4168 C 397.182 -3.59658 0.364442 0
M  V30 4169 O 396.903 -4.04367 1.68579 0
M  V30 4170 C 398.404 -4.43236 -0.0754221 0
M  V30 4171 H 395.624 -0.655696 0.142491 0
M  V30 4172 H 398.168 -1.76238 1.03732 0
M  V30 4173 H 396.323 -3.86339 -0.286471 0
M  V30 4174 H 396.737 -4.98857 1.61993 0
M  V30 4175 H 398.211 -5.52 -0.00560067 0
M  V30 4176 H 398.688 -4.2455 -1.12491 0
M  V30 4177 H 399.294 -4.21767 0.547055 0
M  V30 4178 N 397.609 -0.515225 -1.4894 0
M  V30 4179 C 398.539 0.244628 -2.32215 0
M  V30 4180 C 399.52 0.949136 -1.41157 0
M  V30 4181 O 400.705 0.937783 -1.70057 0
M  V30 4182 C 397.835 1.30096 -3.22013 0
M  V30 4183 C 396.789 0.715486 -4.21977 0
M  V30 4184 C 396.115 1.87339 -5.00808 0
M  V30 4185 C 397.415 -0.302982 -5.2142 0
M  V30 4186 H 399.109 -0.450501 -2.95991 0
M  V30 4187 H 396.655 -0.218098 -1.42339 0
M  V30 4188 H 398.608 1.84037 -3.79089 0
M  V30 4189 H 397.332 2.02547 -2.56207 0
M  V30 4190 H 395.991 0.197715 -3.66066 0
M  V30 4191 H 395.639 2.58592 -4.31438 0
M  V30 4192 H 395.339 1.48764 -5.68457 0
M  V30 4193 H 396.863 2.41686 -5.60732 0
M  V30 4194 H 398.277 0.148802 -5.73107 0
M  V30 4195 H 396.674 -0.60532 -5.97039 0
M  V30 4196 H 397.744 -1.21395 -4.69459 0
M  V30 4197 N 399.087 1.5561 -0.249682 0
M  V30 4198 C 400.034 2.21496 0.648694 0
M  V30 4199 C 401.004 1.17977 1.16921 0
M  V30 4200 O 402.189 1.46434 1.22318 0
M  V30 4201 C 399.329 2.92039 1.83868 0
M  V30 4202 C 398.442 4.10219 1.35442 0
M  V30 4203 C 397.577 4.6847 2.50419 0
M  V30 4204 C 396.616 5.78893 1.98869 0
M  V30 4205 N 395.753 6.31315 3.07223 0
M  V30 4206 H 400.593 2.97892 0.0801582 0
M  V30 4207 H 398.13 1.47074 0.0278031 0
M  V30 4208 H 400.088 3.31138 2.53778 0
M  V30 4209 H 398.718 2.18111 2.37965 0
M  V30 4210 H 397.77 3.76413 0.54928 0
M  V30 4211 H 399.082 4.89927 0.936649 0
M  V30 4212 H 398.236 5.10158 3.28366 0
M  V30 4213 H 396.975 3.87984 2.95499 0
M  V30 4214 H 395.98 5.3668 1.19393 0
M  V30 4215 H 397.205 6.61232 1.54755 0
M  V30 4216 H 395.151 5.53733 3.51732 0
M  V30 4217 H 395.068 7.06224 2.69784 0
M  V30 4218 H 396.336 6.77662 3.8522 0
M  V30 4219 N 400.565 -0.0233959 1.57583 0
M  V30 4220 C 401.497 -1.04994 2.03737 0
M  V30 4221 C 402.51 -1.32125 0.951152 0
M  V30 4222 O 403.699 -1.29512 1.22837 0
M  V30 4223 C 400.799 -2.39026 2.40249 0
M  V30 4224 C 399.972 -2.31171 3.7132 0
M  V30 4225 C 399.031 -3.47698 3.94959 0
M  V30 4226 O 398.057 -3.26937 4.65941 0
M  V30 4227 N 399.259 -4.6976 3.41037 0
M  V30 4228 H 402.024 -0.656507 2.92421 0
M  V30 4229 H 399.585 -0.211235 1.60516 0
M  V30 4230 H 401.577 -3.15712 2.53196 0
M  V30 4231 H 400.147 -2.70194 1.57207 0
M  V30 4232 H 399.367 -1.39547 3.68674 0
M  V30 4233 H 400.655 -2.23071 4.57293 0
M  V30 4234 H 400.053 -4.89528 2.83512 0
M  V30 4235 H 398.61 -5.43791 3.59353 0
M  V30 4236 N 402.043 -1.548 -0.295768 0
M  V30 4237 C 402.993 -1.82497 -1.3667 0
M  V30 4238 C 403.977 -0.682434 -1.45711 0
M  V30 4239 O 405.169 -0.943207 -1.49775 0
M  V30 4240 C 402.298 -2.08036 -2.73086 0
M  V30 4241 C 401.384 -3.28488 -2.68247 0
M  V30 4242 N 401.775 -4.48924 -2.33025 0
M  V30 4243 C 400.073 -3.3062 -2.99343 0
M  V30 4244 C 400.774 -5.30956 -2.37613 0
M  V30 4245 N 399.75 -4.68805 -2.75178 0
M  V30 4246 H 403.552 -2.73175 -1.0841 0
M  V30 4247 H 401.066 -1.5437 -0.504361 0
M  V30 4248 H 403.063 -2.26027 -3.5031 0
M  V30 4249 H 401.723 -1.18629 -3.02254 0
M  V30 4250 H 402.734 -4.75432 -2.05389 0
M  V30 4251 H 399.411 -2.51336 -3.33371 0
M  V30 4252 H 400.801 -6.37199 -2.13135 0
M  V30 4253 N 403.521 0.559213 -1.47345 0
M  V30 4254 C 404.769 1.31388 -1.53563 0
M  V30 4255 C 405.09 1.93985 -0.198678 0
M  V30 4256 O 404.36 1.79825 0.777167 0
M  V30 4257 H 402.94 0.487901 -0.565652 0
M  V30 4258 H 405.602 0.65315 -1.8363 0
M  V30 4259 H 404.698 2.10844 -2.30111 0
M  V30 4260 N 404.999 1.35443 0.805782 0
M  V30 4261 C 405.962 1.28301 1.89925 0
M  V30 4262 C 406.962 0.194285 1.59622 0
M  V30 4263 O 408.152 0.448036 1.6834 0
M  V30 4264 C 405.284 0.984997 3.2636 0
M  V30 4265 H 406.477 2.2553 1.97677 0
M  V30 4266 H 404.03 1.19979 1.00173 0
M  V30 4267 H 404.765 0.016603 3.24296 0
M  V30 4268 H 404.55 1.77269 3.4974 0
M  V30 4269 H 406.04 0.960651 4.064 0
M  V30 4270 N 406.477 -1.02803 1.19454 0
M  V30 4271 C 407.725 -1.75869 0.995722 0
M  V30 4272 C 408.046 -1.89138 -0.474543 0
M  V30 4273 O 407.316 -1.42558 -1.34366 0
M  V30 4274 H 405.896 -0.651511 0.365435 0
M  V30 4275 H 408.558 -1.24004 1.50363 0
M  V30 4276 H 407.654 -2.76661 1.44447 0
M  V30 4277 N 407.956 -0.998596 -1.21925 0
M  V30 4278 C 408.919 -0.558679 -2.22287 0
M  V30 4279 C 409.919 0.361525 -1.56683 0
M  V30 4280 O 411.109 0.152695 -1.73529 0
M  V30 4281 C 408.241 0.18661 -3.40389 0
M  V30 4282 H 409.434 -1.4463 -2.62721 0
M  V30 4283 H 406.987 -0.786413 -1.35075 0
M  V30 4284 H 407.722 1.08996 -3.05435 0
M  V30 4285 H 407.507 -0.474188 -3.89222 0
M  V30 4286 H 408.997 0.482367 -4.14805 0
M  V30 4287 N 409.434 1.37368 -0.772513 0
M  V30 4288 C 410.682 1.99279 -0.336516 0
M  V30 4289 C 411.003 1.6163 1.09091 0
M  V30 4290 O 410.273 0.882109 1.74916 0
M  V30 4291 H 408.853 0.737063 -0.121435 0
M  V30 4292 H 411.515 1.67836 -0.990809 0
M  V30 4293 H 410.611 3.09332 -0.414763 0
M  V30 4294 N 410.912 0.523116 1.48665 0
M  V30 4295 C 412.16 -0.0134497 2.02096 0
M  V30 4296 C 412.481 -1.35418 1.40311 0
M  V30 4297 O 411.751 -1.87543 0.566074 0
M  V30 4298 H 410.331 -0.00795915 0.746958 0
M  V30 4299 H 412.993 0.685388 1.82451 0
M  V30 4300 H 412.089 -0.126849 3.11842 0
M  V30 4301 N 412.39 -1.55475 0.257931 0
M  V30 4302 C 413.618 -2.03609 -0.367559 0
M  V30 4303 C 414.033 -1.13687 -1.50734 0
M  V30 4304 O 413.39 -0.153479 -1.81853 0
M  V30 4305 C 413.441 -3.51001 -0.864908 0
M  V30 4306 O 413.162 -4.37499 0.229465 0
M  V30 4307 C 414.663 -4.14946 -1.55997 0
M  V30 4308 H 411.883 -0.665459 -0.0860521 0
M  V30 4309 H 414.427 -2.00843 0.385014 0
M  V30 4310 H 412.582 -3.54266 -1.56762 0
M  V30 4311 H 412.996 -5.24286 -0.14998 0
M  V30 4312 H 414.47 -5.19735 -1.85956 0
M  V30 4313 H 414.947 -3.6209 -2.4857 0
M  V30 4314 H 415.553 -4.15635 -0.901543 0
M  V30 4315 N 413.868 0.0150385 -1.57593 0
M  V30 4316 C 415.284 0.370907 -1.5523 0
M  V30 4317 C 415.484 1.75735 -0.985882 0
M  V30 4318 O 414.54 2.44944 -0.613077 0
M  V30 4319 C 415.853 0.259908 -2.99575 0
M  V30 4320 C 417.401 0.335959 -3.11192 0
M  V30 4321 C 417.876 0.254253 -4.57294 0
M  V30 4322 N 419.367 0.312618 -4.62144 0
M  V30 4323 C 420.102 0.272505 -5.72752 0
M  V30 4324 N 419.598 0.183864 -6.92556 0
M  V30 4325 N 421.391 0.323267 -5.6117 0
M  V30 4326 H 413.542 -0.892104 -1.92757 0
M  V30 4327 H 415.805 -0.340563 -0.884715 0
M  V30 4328 H 415.511 -0.693403 -3.44797 0
M  V30 4329 H 415.385 1.048 -3.62349 0
M  V30 4330 H 417.772 1.27971 -2.65909 0
M  V30 4331 H 417.853 -0.481739 -2.51223 0
M  V30 4332 H 417.497 -0.685887 -5.03247 0
M  V30 4333 H 417.427 1.09024 -5.15191 0
M  V30 4334 H 419.918 0.38307 -3.75953 0
M  V30 4335 H 420.231 0.15874 -7.72637 0
M  V30 4336 H 418.576 0.149708 -6.94839 0
M  V30 4337 H 421.767 0.390607 -4.66467 0
M  V30 4338 H 421.94 0.288539 -6.47357 0
M  V30 4339 N 415.346 1.54954 0.287554 0
M  V30 4340 C 416.294 1.87606 1.37502 0
M  V30 4341 C 417.288 0.751001 1.51843 0
M  V30 4342 O 418.494 0.935169 1.53801 0
M  V30 4343 H 414.869 0.595231 0.459569 0
M  V30 4344 H 416.84 2.78477 1.07206 0
M  V30 4345 C 415.589 2.15183 2.73115 0
M  V30 4346 H 414.912 3.01234 2.62866 0
M  V30 4347 H 416.352 2.4196 3.48183 0
M  V30 4348 C 414.811 0.954686 3.2309 0
M  V30 4349 O 415.341 0.181949 4.01288 0
M  V30 4350 N 413.547 0.756368 2.80584 0
M  V30 4351 H 413.094 1.38643 2.17108 0
M  V30 4352 H 413.052 -0.0430391 3.14371 0
M  V30 4353 N 416.824 -0.551391 1.4764 0
M  V30 4354 C 418.073 -1.30467 1.53822 0
M  V30 4355 C 418.386 -1.94495 0.207661 0
M  V30 4356 O 419.592 -2.71099 0.147533 0
M  V30 4357 C 418.048 -2.36616 2.71184 0
M  V30 4358 C 417.656 -1.78754 4.10793 0
M  V30 4359 C 419.4 -3.13088 2.86663 0
M  V30 4360 C 417.307 -2.82717 5.19447 0
M  V30 4361 H 416.237 -0.490584 0.572576 0
M  V30 4362 H 418.888 -0.58494 1.73927 0
M  V30 4363 H 417.27 -3.11529 2.4447 0
M  V30 4364 H 418.444 -1.10173 4.47435 0
M  V30 4365 H 416.759 -1.14846 4.00249 0
M  V30 4366 H 419.356 -3.90736 3.65007 0
M  V30 4367 H 419.699 -3.67635 1.95321 0
M  V30 4368 H 420.232 -2.45288 3.13175 0
M  V30 4369 H 416.971 -2.33018 6.12685 0
M  V30 4370 H 416.491 -3.4969 4.87316 0
M  V30 4371 H 418.17 -3.46102 5.46646 0
M  V30 4372 N 418.302 -1.35869 -0.798587 0
M  V30 4373 C 419.527 -1.32883 -1.59238 0
M  V30 4374 C 419.952 0.0894587 -1.87887 0
M  V30 4375 O 419.31 1.05869 -1.47178 0
M  V30 4376 C 419.358 -2.14892 -2.89575 0
M  V30 4377 O 418.462 -1.53512 -3.82763 0
M  V30 4378 H 417.803 -0.455236 -0.48338 0
M  V30 4379 H 420.333 -1.79024 -0.990539 0
M  V30 4380 H 420.343 -2.27139 -3.38928 0
M  V30 4381 H 419.018 -3.17998 -2.68049 0
M  V30 4382 H 417.595 -1.50153 -3.41334 0
M  V30 4383 N 419.78 1.02168 -1.19998 0
M  V30 4384 C 421.028 1.75338 -1.00504 0
M  V30 4385 C 421.349 1.89387 0.464506 0
M  V30 4386 O 420.619 1.43268 1.33608 0
M  V30 4387 H 419.199 0.649564 -0.368885 0
M  V30 4388 H 421.861 1.23205 -1.51018 0
M  V30 4389 H 420.957 2.75892 -1.45912 0
M  V30 4390 N 421.258 1.00505 1.21394 0
M  V30 4391 C 422.486 0.706609 1.9446 0
M  V30 4392 C 422.901 -0.73081 1.74082 0
M  V30 4393 O 422.258 -1.49446 1.04747 0
M  V30 4394 C 422.309 1.01824 3.46863 0
M  V30 4395 O 422.03 2.39919 3.66566 0
M  V30 4396 C 423.531 0.739216 4.37093 0
M  V30 4397 H 420.751 0.260394 0.618414 0
M  V30 4398 H 423.295 1.34311 1.54211 0
M  V30 4399 H 421.45 0.427343 3.85036 0
M  V30 4400 H 421.864 2.50784 4.6066 0
M  V30 4401 H 423.338 1.00744 5.42729 0
M  V30 4402 H 423.815 -0.326746 4.37983 0
M  V30 4403 H 424.421 1.31173 4.04566 0
M  V30 4404 N 422.737 -1.36956 0.779787 0
M  V30 4405 C 423.962 -2.04283 0.358224 0
M  V30 4406 C 424.387 -1.58422 -1.01411 0
M  V30 4407 O 423.745 -0.748179 -1.65142 0
M  V30 4408 C 423.793 -3.58152 0.419479 0
M  V30 4409 O 422.897 -4.08342 -0.577142 0
M  V30 4410 H 422.238 -0.645967 0.153698 0
M  V30 4411 H 424.768 -1.75108 1.05822 0
M  V30 4412 H 424.778 -4.07041 0.279636 0
M  V30 4413 H 423.453 -3.90886 1.42061 0
M  V30 4414 H 422.03 -3.70751 -0.399755 0
M  V30 4415 N 424.215 -0.530993 -1.48385 0
M  V30 4416 C 425.162 0.231223 -2.29639 0
M  V30 4417 C 426.132 0.932864 -1.37429 0
M  V30 4418 O 427.317 0.933692 -1.66394 0
M  V30 4419 C 424.457 1.27155 -3.2082 0
M  V30 4420 C 423.57 0.578655 -4.28107 0
M  V30 4421 C 422.705 1.602 -5.06467 0
M  V30 4422 C 421.744 0.892625 -6.05556 0
M  V30 4423 N 420.881 1.86157 -6.76971 0
M  V30 4424 H 425.721 -0.467848 -2.94305 0
M  V30 4425 H 423.258 -0.242556 -1.45086 0
M  V30 4426 H 425.216 1.88703 -3.72085 0
M  V30 4427 H 423.846 1.939 -2.58075 0
M  V30 4428 H 422.898 -0.150782 -3.80101 0
M  V30 4429 H 424.21 0.0217065 -4.98795 0
M  V30 4430 H 423.364 2.29173 -5.61751 0
M  V30 4431 H 422.103 2.19285 -4.35621 0
M  V30 4432 H 421.108 0.188829 -5.49476 0
M  V30 4433 H 422.333 0.307878 -6.78402 0
M  V30 4434 H 420.279 2.44147 -6.08875 0
M  V30 4435 H 420.196 1.35608 -7.43738 0
M  V30 4436 H 421.464 2.54325 -7.36844 0
M  V30 4437 N 425.693 1.55336 -0.266172 0
M  V30 4438 C 426.94 1.99397 0.353158 0
M  V30 4439 C 427.268 1.15451 1.56529 0
M  V30 4440 O 426.523 0.209974 1.9457 0
M  V30 4441 C 426.822 3.48606 0.787957 0
M  V30 4442 C 426.488 4.49773 -0.318541 0
M  V30 4443 C 425.15 4.77158 -0.62239 0
M  V30 4444 C 427.502 5.10212 -1.06459 0
M  V30 4445 C 424.83 5.62251 -1.67602 0
M  V30 4446 C 427.182 5.96449 -2.10788 0
M  V30 4447 C 425.846 6.22158 -2.41817 0
M  V30 4448 H 425.116 0.729644 0.12923 0
M  V30 4449 H 427.763 1.87732 -0.37802 0
M  V30 4450 H 426.068 3.57701 1.59866 0
M  V30 4451 H 427.765 3.80098 1.27775 0
M  V30 4452 H 424.355 4.2854 -0.0715925 0
M  V30 4453 H 428.539 4.89086 -0.843098 0
M  V30 4454 H 423.795 5.80419 -1.92155 0
M  V30 4455 H 427.969 6.42317 -2.69076 0
M  V30 4456 H 425.596 6.87888 -3.23596 0
M  V30 4457 N 427.171 -0.0066808 1.57599 0
M  V30 4458 C 428.121 -1.0086 2.04478 0
M  V30 4459 C 429.105 -1.30714 0.938231 0
M  V30 4460 O 430.297 -1.29924 1.20203 0
M  V30 4461 C 427.426 -2.30273 2.54615 0
M  V30 4462 C 426.512 -2.03413 3.72134 0
M  V30 4463 N 426.903 -1.46688 4.84062 0
M  V30 4464 C 425.201 -2.33589 3.79937 0
M  V30 4465 C 425.902 -1.36146 5.65543 0
M  V30 4466 N 424.878 -1.84477 5.1134 0
M  V30 4467 H 428.68 -0.564402 2.8843 0
M  V30 4468 H 426.194 -0.212521 1.61003 0
M  V30 4469 H 428.191 -3.02885 2.86472 0
M  V30 4470 H 426.851 -2.75352 1.72079 0
M  V30 4471 H 427.862 -1.14658 5.05049 0
M  V30 4472 H 424.539 -2.81589 3.08243 0
M  V30 4473 H 425.929 -0.925873 6.6549 0
M  V30 4474 N 428.649 -1.55105 -0.279332 0
M  V30 4475 C 429.895 -1.75672 -1.01327 0
M  V30 4476 C 430.228 -0.552739 -1.86168 0
M  V30 4477 O 429.503 0.449827 -1.89227 0
M  V30 4478 C 429.786 -3.05825 -1.90114 0
M  V30 4479 C 429.639 -4.36565 -1.08309 0
M  V30 4480 C 430.958 -3.31975 -2.8893 0
M  V30 4481 H 428.077 -0.639149 -0.366957 0
M  V30 4482 H 430.719 -1.87833 -0.286154 0
M  V30 4483 H 428.869 -2.95588 -2.52111 0
M  V30 4484 H 430.541 -4.58751 -0.484314 0
M  V30 4485 H 428.784 -4.32076 -0.386362 0
M  V30 4486 H 429.455 -5.23946 -1.73737 0
M  V30 4487 H 431.931 -3.41963 -2.37067 0
M  V30 4488 H 430.807 -4.2432 -3.48201 0
M  V30 4489 H 431.068 -2.51309 -3.63725 0
M  V30 4490 N 430.127 0.543554 -1.4793 0
M  V30 4491 C 431.404 1.30458 -1.4574 0
M  V30 4492 C 431.784 2.1048 -0.161692 0
M  V30 4493 O 431.132 2.11831 0.856734 0
M  V30 4494 C 431.342 2.19754 -2.71126 0
M  V30 4495 C 432.69 2.80334 -3.18901 0
M  V30 4496 O 433.714 2.30049 -2.71948 0
M  V30 4497 O 432.573 3.71766 -4.00565 0
M  V30 4498 H 429.667 0.588117 -0.581418 0
M  V30 4499 H 432.213 0.561328 -1.60147 0
M  V30 4500 H 430.985 1.60316 -3.56952 0
M  V30 4501 H 430.608 3.01351 -2.59371 0
M  V30 4502 N 431.605 1.3629 0.791371 0
M  V30 4503 C 432.535 1.33137 1.91825 0
M  V30 4504 C 433.516 0.203168 1.68882 0
M  V30 4505 O 434.701 0.400509 1.90025 0
M  V30 4506 C 431.831 1.11793 3.28816 0
M  V30 4507 C 430.785 2.21417 3.66277 0
M  V30 4508 C 430.111 1.85218 5.01596 0
M  V30 4509 C 431.411 3.63489 3.75064 0
M  V30 4510 H 433.105 2.2743 1.9472 0
M  V30 4511 H 430.651 1.09479 0.935437 0
M  V30 4512 H 432.604 1.08222 4.07266 0
M  V30 4513 H 431.328 0.139501 3.26302 0
M  V30 4514 H 429.987 2.2411 2.90121 0
M  V30 4515 H 429.635 0.859544 4.95602 0
M  V30 4516 H 429.335 2.58611 5.27631 0
M  V30 4517 H 430.859 1.832 5.82469 0
M  V30 4518 H 432.273 3.63034 4.43711 0
M  V30 4519 H 430.67 4.35771 4.12582 0
M  V30 4520 H 431.74 3.98536 2.76219 0
M  V30 4521 N 433.083 -1.0153 1.20538 0
M  V30 4522 C 433.993 -2.13557 0.971113 0
M  V30 4523 C 435.009 -1.73845 -0.0734366 0
M  V30 4524 O 436.185 -2.01075 0.114299 0
M  V30 4525 C 433.25 -3.42661 0.527639 0
M  V30 4526 C 432.311 -3.96608 1.64319 0
M  V30 4527 C 431.544 -5.1955 1.22078 0
M  V30 4528 O 431.767 -5.70329 0.0900198 0
M  V30 4529 O 430.701 -5.66681 2.02871 0
M  V30 4530 H 434.527 -2.3619 1.90913 0
M  V30 4531 H 432.112 -1.11946 0.989362 0
M  V30 4532 H 433.994 -4.20404 0.289621 0
M  V30 4533 H 432.669 -3.21441 -0.381779 0
M  V30 4534 H 431.576 -3.20139 1.93551 0
M  V30 4535 H 432.909 -4.22219 2.52966 0
M  V30 4536 N 434.561 -1.01147 -1.20859 0
M  V30 4537 C 435.977 -0.725422 -1.42161 0
M  V30 4538 C 436.177 0.696919 -1.89064 0
M  V30 4539 O 435.233 1.46539 -2.05627 0
M  V30 4540 C 436.546 -1.74678 -2.44761 0
M  V30 4541 C 438.094 -1.76433 -2.58535 0
M  V30 4542 C 438.569 -2.77481 -3.64374 0
M  V30 4543 N 440.06 -2.76189 -3.71852 0
M  V30 4544 C 440.795 -3.51035 -4.53389 0
M  V30 4545 N 440.291 -4.35541 -5.38773 0
M  V30 4546 N 442.084 -3.39655 -4.47873 0
M  V30 4547 H 434.235 -1.92979 -0.887282 0
M  V30 4548 H 436.498 -0.833327 -0.451962 0
M  V30 4549 H 436.204 -2.76551 -2.17285 0
M  V30 4550 H 436.078 -1.55472 -3.43669 0
M  V30 4551 H 438.465 -0.75248 -2.85345 0
M  V30 4552 H 438.546 -1.99712 -1.5984 0
M  V30 4553 H 438.19 -3.78827 -3.38308 0
M  V30 4554 H 438.12 -2.51466 -4.6268 0
M  V30 4555 H 440.611 -2.14885 -3.10858 0
M  V30 4556 H 440.924 -4.89432 -5.98061 0
M  V30 4557 H 439.269 -4.39621 -5.38292 0
M  V30 4558 H 442.46 -2.73063 -3.80203 0
M  V30 4559 H 442.633 -3.9824 -5.11184 0
M  V30 4560 N 436.039 1.36541 -0.78704 0
M  V30 4561 C 436.949 2.3387 -0.184896 0
M  V30 4562 C 437.965 1.60927 0.661697 0
M  V30 4563 O 439.141 1.92927 0.57804 0
M  V30 4564 C 436.206 3.40122 0.672145 0
M  V30 4565 C 435.267 4.28867 -0.19267 0
M  V30 4566 C 434.5 5.30045 0.623561 0
M  V30 4567 O 434.723 5.39232 1.8597 0
M  V30 4568 O 433.657 6.01895 0.0247068 0
M  V30 4569 H 437.483 2.87126 -0.989562 0
M  V30 4570 H 435.068 1.38969 -0.548455 0
M  V30 4571 H 436.95 4.05093 1.16094 0
M  V30 4572 H 435.625 2.89169 1.45474 0
M  V30 4573 H 434.532 3.66945 -0.728166 0
M  V30 4574 H 435.865 4.83165 -0.938722 0
M  V30 4575 N 437.518 0.538854 1.48102 0
M  V30 4576 C 438.448 -0.207654 2.32575 0
M  V30 4577 C 439.429 -0.926559 1.4265 0
M  V30 4578 O 440.614 -0.91061 1.71527 0
M  V30 4579 C 437.744 -1.24957 3.24042 0
M  V30 4580 C 436.698 -0.648263 4.23062 0
M  V30 4581 C 436.024 -1.79348 5.03725 0
M  V30 4582 C 437.324 0.385897 5.20872 0
M  V30 4583 H 439.018 0.497534 2.95237 0
M  V30 4584 H 436.564 0.240715 1.41974 0
M  V30 4585 H 438.517 -1.77983 3.81969 0
M  V30 4586 H 437.241 -1.98446 2.59397 0
M  V30 4587 H 435.9 -0.139452 3.66335 0
M  V30 4588 H 435.548 -2.51696 4.35498 0
M  V30 4589 H 435.248 -1.39702 5.70751 0
M  V30 4590 H 436.772 -2.32735 5.64506 0
M  V30 4591 H 438.186 -0.057607 5.73271 0
M  V30 4592 H 436.583 0.700227 5.96001 0
M  V30 4593 H 437.653 1.28848 4.67468 0
M  V30 4594 N 438.996 -1.55193 0.274407 0
M  V30 4595 C 439.959 -2.212 -0.600279 0
M  V30 4596 C 440.959 -1.18963 -1.08187 0
M  V30 4597 O 442.149 -1.43873 -0.982158 0
M  V30 4598 C 439.281 -2.87739 -1.82809 0
M  V30 4599 H 440.474 -2.9989 -0.0239682 0
M  V30 4600 H 438.027 -1.5628 0.0250192 0
M  V30 4601 H 438.762 -2.13058 -2.44493 0
M  V30 4602 H 438.547 -3.62658 -1.49069 0
M  V30 4603 H 440.037 -3.38171 -2.45011 0
M  V30 4604 N 440.474 -0.00167713 -1.576 0
M  V30 4605 C 441.751 0.719951 -1.81868 0
M  V30 4606 C 442.131 1.91895 -0.879747 0
M  V30 4607 O 441.479 2.28389 0.0711423 0
M  V30 4608 C 441.689 1.12409 -3.30402 0
M  V30 4609 C 443.037 1.52724 -3.96182 0
M  V30 4610 O 444.061 1.21784 -3.34734 0
M  V30 4611 O 442.92 2.10265 -5.04431 0
M  V30 4612 H 440.014 0.350707 -0.748955 0
M  V30 4613 H 442.56 -0.0272597 -1.69678 0
M  V30 4614 H 441.332 0.269532 -3.90371 0
M  V30 4615 H 440.955 1.93035 -3.47596 0
M  V30 4616 N 441.952 1.55251 0.271103 0
M  V30 4617 C 442.882 1.9127 1.33933 0
M  V30 4618 C 443.863 0.77478 1.5143 0
M  V30 4619 O 445.048 1.03307 1.64442 0
M  V30 4620 C 442.178 2.18627 2.69851 0
M  V30 4621 C 441.132 3.34442 2.67081 0
M  V30 4622 C 440.458 3.47284 4.06569 0
M  V30 4623 C 441.758 4.70784 2.26185 0
M  V30 4624 H 443.452 2.80744 1.04035 0
M  V30 4625 H 440.998 1.35077 0.499017 0
M  V30 4626 H 442.951 2.42413 3.44694 0
M  V30 4627 H 441.675 1.25955 3.01335 0
M  V30 4628 H 440.334 3.10627 1.94695 0
M  V30 4629 H 439.982 2.52074 4.35279 0
M  V30 4630 H 439.682 4.25152 4.0561 0
M  V30 4631 H 441.206 3.73363 4.83148 0
M  V30 4632 H 442.62 4.94102 2.90751 0
M  V30 4633 H 441.017 5.51582 2.36384 0
M  V30 4634 H 442.087 4.69478 1.21319 0
M  V30 4635 N 443.43 -0.535701 1.48216 0
M  V30 4636 C 444.38 -1.63688 1.58714 0
M  V30 4637 C 445.364 -1.54635 0.444615 0
M  V30 4638 O 446.556 -1.62753 0.695742 0
M  V30 4639 C 443.685 -3.02423 1.62466 0
M  V30 4640 C 442.771 -3.16601 2.82178 0
M  V30 4641 N 443.162 -3.00771 4.06658 0
M  V30 4642 C 441.46 -3.47645 2.79391 0
M  V30 4643 C 442.161 -3.18213 4.86945 0
M  V30 4644 N 441.137 -3.45528 4.19656 0
M  V30 4645 H 444.939 -1.5005 2.5271 0
M  V30 4646 H 442.453 -0.741018 1.44508 0
M  V30 4647 H 444.45 -3.81517 1.6808 0
M  V30 4648 H 443.11 -3.17157 0.695826 0
M  V30 4649 H 444.121 -2.77652 4.37184 0
M  V30 4650 H 440.798 -3.68771 1.95739 0
M  V30 4651 H 442.188 -3.1076 5.95716 0
M  V30 4652 N 444.908 -1.36708 -0.784132 0
M  V30 4653 C 446.156 -1.30972 -1.53918 0
M  V30 4654 C 446.477 0.109086 -1.94695 0
M  V30 4655 O 445.747 1.05048 -1.65353 0
M  V30 4656 H 444.327 -0.481819 -0.570841 0
M  V30 4657 H 446.989 -1.71063 -0.934002 0
M  V30 4658 H 446.085 -1.94061 -2.44431 0
M  V30 4659 N 446.386 1.0089 -1.21074 0
M  V30 4660 C 447.333 2.09588 -0.966512 0
M  V30 4661 C 448.303 1.65761 0.106089 0
M  V30 4662 O 449.488 1.90758 -0.0402287 0
M  V30 4663 C 446.628 3.40958 -0.533058 0
M  V30 4664 C 445.741 3.9822 -1.67467 0
M  V30 4665 C 444.876 5.17682 -1.19076 0
M  V30 4666 C 443.915 5.67043 -2.30496 0
M  V30 4667 N 443.052 6.77759 -1.83267 0
M  V30 4668 H 447.892 2.29815 -1.89708 0
M  V30 4669 H 445.429 1.12689 -0.945489 0
M  V30 4670 H 447.387 4.1637 -0.263019 0
M  V30 4671 H 446.017 3.20781 0.360505 0
M  V30 4672 H 445.069 3.1983 -2.05944 0
M  V30 4673 H 446.381 4.3085 -2.51336 0
M  V30 4674 H 445.535 6.00326 -0.877151 0
M  V30 4675 H 444.274 4.86635 -0.322066 0
M  V30 4676 H 443.279 4.82999 -2.62664 0
M  V30 4677 H 444.504 6.00121 -3.17855 0
M  V30 4678 H 442.45 6.48527 -0.987356 0
M  V30 4679 H 442.367 7.09624 -2.60711 0
M  V30 4680 H 443.635 7.63949 -1.54928 0
M  V30 4681 N 447.864 1.01787 1.20321 0
M  V30 4682 C 449.141 0.622978 1.85414 0
M  V30 4683 C 449.521 -0.898887 1.91006 0
M  V30 4684 O 448.869 -1.79112 1.41884 0
M  V30 4685 C 449.079 1.27226 3.24984 0
M  V30 4686 C 450.427 1.3885 4.01255 0
M  V30 4687 O 451.451 1.22857 3.34342 0
M  V30 4688 O 450.31 1.64705 5.2109 0
M  V30 4689 H 447.404 0.215116 0.798533 0
M  V30 4690 H 449.95 1.11533 1.27901 0
M  V30 4691 H 448.722 2.31209 3.15687 0
M  V30 4692 H 448.345 0.767069 3.90131 0
M  V30 4693 N 449.342 -1.36122 0.79427 0
M  V30 4694 C 450.305 -2.28309 0.201889 0
M  V30 4695 C 451.305 -1.49041 -0.603603 0
M  V30 4696 O 452.495 -1.68964 -0.423888 0
M  V30 4697 C 449.627 -3.3321 -0.719978 0
M  V30 4698 H 450.82 -2.82208 1.01481 0
M  V30 4699 H 448.373 -1.45768 0.564037 0
M  V30 4700 H 449.108 -2.84475 -1.55706 0
M  V30 4701 H 448.893 -3.91835 -0.144266 0
M  V30 4702 H 450.383 -4.02044 -1.12916 0
M  V30 4703 N 450.82 -0.546701 -1.47814 0
M  V30 4704 C 451.783 0.196287 -2.28358 0
M  V30 4705 C 452.783 0.852437 -1.36346 0
M  V30 4706 O 453.973 0.709913 -1.59078 0
M  V30 4707 C 451.105 1.28579 -3.15722 0
M  V30 4708 H 452.298 -0.511086 -2.95513 0
M  V30 4709 H 449.851 -0.303248 -1.5333 0
M  V30 4710 H 450.586 2.0259 -2.53235 0
M  V30 4711 H 450.371 0.820229 -3.83425 0
M  V30 4712 H 451.861 1.80793 -3.76435 0
M  V30 4713 N 452.299 1.55045 -0.282633 0
M  V30 4714 C 453.229 2.2579 0.595066 0
M  V30 4715 C 454.21 1.25074 1.15284 0
M  V30 4716 O 455.395 1.5381 1.18559 0
M  V30 4717 C 452.525 2.98472 1.77572 0
M  V30 4718 C 451.479 4.0618 1.34914 0
M  V30 4719 C 450.805 4.66477 2.6135 0
M  V30 4720 C 452.105 5.1996 0.493821 0
M  V30 4721 H 453.799 2.994 0.00505653 0
M  V30 4722 H 451.345 1.44 0.000992001 0
M  V30 4723 H 453.298 3.46677 2.39568 0
M  V30 4724 H 452.022 2.2241 2.39168 0
M  V30 4725 H 450.681 3.58797 0.752338 0
M  V30 4726 H 450.329 3.87074 3.2122 0
M  V30 4727 H 450.029 5.39207 2.33516 0
M  V30 4728 H 451.553 5.17435 3.24181 0
M  V30 4729 H 452.967 5.64172 1.01898 0
M  V30 4730 H 451.364 5.99299 0.310047 0
M  V30 4731 H 452.434 4.82462 -0.485593 0
M  V30 4732 N 453.777 0.010035 1.57597 0
M  V30 4733 C 454.707 -0.976857 2.12084 0
M  V30 4734 C 455.688 -1.35191 1.03235 0
M  V30 4735 O 456.873 -1.43389 1.3097 0
M  V30 4736 C 454.003 -2.26548 2.63236 0
M  V30 4737 C 452.957 -2.03175 3.76701 0
M  V30 4738 C 452.283 -3.38138 4.14206 0
M  V30 4739 C 453.583 -1.38625 5.03568 0
M  V30 4740 H 455.277 -0.523145 2.94794 0
M  V30 4741 H 452.823 -0.250195 1.4181 0
M  V30 4742 H 454.776 -2.95952 2.99984 0
M  V30 4743 H 453.5 -2.74051 1.77661 0
M  V30 4744 H 452.159 -1.36195 3.40362 0
M  V30 4745 H 451.807 -3.83363 3.25641 0
M  V30 4746 H 451.507 -3.23312 4.90656 0
M  V30 4747 H 453.031 -4.08841 4.53521 0
M  V30 4748 H 454.445 -1.98 5.38023 0
M  V30 4749 H 452.842 -1.34256 5.84889 0
M  V30 4750 H 453.912 -0.356722 4.83586 0
M  V30 4751 N 455.255 -1.55392 -0.262866 0
M  V30 4752 C 456.502 -1.76476 -0.993109 0
M  V30 4753 C 456.83 -0.571479 -1.85915 0
M  V30 4754 O 456.085 0.445733 -1.90556 0
M  V30 4755 C 456.384 -3.02889 -1.89718 0
M  V30 4756 C 456.05 -4.34974 -1.18781 0
M  V30 4757 C 454.712 -4.7087 -0.991699 0
M  V30 4758 C 457.064 -5.16695 -0.683798 0
M  V30 4759 C 454.392 -5.86036 -0.279024 0
M  V30 4760 C 456.744 -6.32598 0.0153327 0
M  V30 4761 C 455.408 -6.67127 0.223062 0
M  V30 4762 H 454.678 -0.64577 -0.363404 0
M  V30 4763 H 457.325 -1.89664 -0.264525 0
M  V30 4764 H 455.63 -2.84644 -2.6923 0
M  V30 4765 H 457.327 -3.16399 -2.46359 0
M  V30 4766 H 453.917 -4.06765 -1.35058 0
M  V30 4767 H 458.101 -4.8943 -0.8229 0
M  V30 4768 H 453.357 -6.11306 -0.107456 0
M  V30 4769 H 457.531 -6.95171 0.413584 0
M  V30 4770 H 455.158 -7.56216 0.777265 0
M  V30 4771 N 456.733 0.527833 -1.48498 0
M  V30 4772 C 457.958 1.313 -1.60546 0
M  V30 4773 C 458.383 1.86199 -0.26672 0
M  V30 4774 O 457.741 1.64513 0.761918 0
M  V30 4775 C 457.789 2.43818 -2.65678 0
M  V30 4776 O 456.893 3.46916 -2.22987 0
M  V30 4777 H 456.234 0.388784 -0.538277 0
M  V30 4778 H 458.764 0.634896 -1.945 0
M  V30 4779 H 458.774 2.89973 -2.87018 0
M  V30 4780 H 457.449 2.03222 -3.62869 0
M  V30 4781 H 456.026 3.06864 -2.11869 0
M  V30 4782 N 458.211 1.37122 0.776871 0
M  V30 4783 C 459.436 1.354 1.57104 0
M  V30 4784 C 459.861 -0.0595562 1.88006 0
M  V30 4785 O 459.219 -1.03514 1.48844 0
M  V30 4786 C 459.267 2.19472 2.8612 0
M  V30 4787 O 458.371 1.59582 3.80273 0
M  V30 4788 H 457.712 0.462869 0.476076 0
M  V30 4789 H 460.242 1.80577 0.961932 0
M  V30 4790 H 460.252 2.32502 3.35271 0
M  V30 4791 H 458.927 3.22222 2.62956 0
M  V30 4792 H 457.504 1.55564 3.38902 0
M  V30 4793 N 459.689 -1.00246 1.21608 0
M  V30 4794 C 460.929 -1.75589 1.04631 0
M  V30 4795 C 461.293 -1.87513 -0.412648 0
M  V30 4796 O 462.494 -2.59444 -0.703003 0
M  V30 4797 C 460.765 -3.12893 1.72722 0
M  V30 4798 S 462.324 -4.04095 1.71034 0
M  V30 4799 H 459.142 -0.604133 0.374892 0
M  V30 4800 H 461.744 -1.19927 1.54395 0
M  V30 4801 H 460.448 -3.0185 2.78055 0
M  V30 4802 H 459.979 -3.73628 1.23149 0
M  V30 4803 H 461.994 -4.9045 0.753231 0
M  V30 4804 N 461.167 -1.02423 -1.1978 0
M  V30 4805 C 462.414 -0.717988 -1.89344 0
M  V30 4806 C 462.742 0.753036 -1.79331 0
M  V30 4807 O 461.997 1.56355 -1.17692 0
M  V30 4808 C 462.296 -1.1088 -3.39765 0
M  V30 4809 C 461.962 -2.57731 -3.6998 0
M  V30 4810 C 460.624 -2.97854 -3.77937 0
M  V30 4811 C 462.976 -3.52763 -3.83677 0
M  V30 4812 C 460.304 -4.31931 -3.97054 0
M  V30 4813 C 462.656 -4.86538 -4.04306 0
M  V30 4814 C 461.32 -5.26356 -4.10494 0
M  V30 4815 H 460.59 -0.26273 -0.692859 0
M  V30 4816 H 463.237 -1.28623 -1.41875 0
M  V30 4817 H 461.542 -0.459094 -3.89101 0
M  V30 4818 H 463.239 -0.849432 -3.919 0
M  V30 4819 H 459.829 -2.25646 -3.64393 0
M  V30 4820 H 464.013 -3.2292 -3.76877 0
M  V30 4821 H 459.269 -4.62324 -4.00083 0
M  V30 4822 H 463.443 -5.60093 -4.13846 0
M  V30 4823 H 461.07 -6.3026 -4.2506 0
M  V30 4824 N 462.645 1.35699 -0.801477 0
M  V30 4825 C 463.891 1.99208 -0.380022 0
M  V30 4826 C 464.224 1.63445 1.04878 0
M  V30 4827 O 463.499 0.895223 1.72673 0
M  V30 4828 C 463.782 3.55755 -0.557708 0
M  V30 4829 C 463.635 4.01332 -2.03107 0
M  V30 4830 C 464.954 4.40096 0.0197968 0
M  V30 4831 H 462.073 0.723667 -0.139552 0
M  V30 4832 H 464.715 1.60928 -1.01006 0
M  V30 4833 H 462.865 3.88494 -0.0213741 0
M  V30 4834 H 464.537 3.79026 -2.62939 0
M  V30 4835 H 462.78 3.52429 -2.52936 0
M  V30 4836 H 463.451 5.10234 -2.1063 0
M  V30 4837 H 465.927 4.13786 -0.438179 0
M  V30 4838 H 464.803 5.48735 -0.134477 0
M  V30 4839 H 465.064 4.2786 1.11303 0
M  V30 4840 N 464.123 0.554532 1.47522 0
M  V30 4841 C 465.086 -0.184174 2.28459 0
M  V30 4842 C 466.086 -0.845195 1.36796 0
M  V30 4843 O 467.276 -0.701467 1.59452 0
M  V30 4844 C 464.408 -1.26903 3.16399 0
M  V30 4845 H 465.601 0.526751 2.95238 0
M  V30 4846 H 463.154 0.311375 1.53167 0
M  V30 4847 H 463.889 -2.01244 2.54306 0
M  V30 4848 H 463.674 -0.799883 3.83854 0
M  V30 4849 H 465.164 -1.78794 3.77389 0
M  V30 4850 N 465.601 -1.54893 0.290851 0
M  V30 4851 C 466.549 -2.24579 -0.605576 0
M  V30 4852 C 467.543 -1.24824 -1.14522 0
M  V30 4853 O 468.749 -1.42706 -1.09704 0
M  V30 4854 H 465.124 -0.720946 -0.213872 0
M  V30 4855 H 467.095 -2.984 0.0048173 0
M  V30 4856 C 465.844 -2.99224 -1.77088 0
M  V30 4857 H 465.167 -3.75782 -1.36484 0
M  V30 4858 H 466.607 -3.51281 -2.3744 0
M  V30 4859 C 465.066 -2.05602 -2.66888 0
M  V30 4860 O 465.596 -1.61745 -3.67698 0
M  V30 4861 N 463.802 -1.71771 -2.34399 0
M  V30 4862 H 463.349 -2.07633 -1.52468 0
M  V30 4863 H 463.307 -1.09403 -2.94751 0
M  V30 4864 N 467.08 -0.0183926 -1.57589 0
M  V30 4865 C 468.357 0.700621 -1.82622 0
M  V30 4866 C 468.737 1.90951 -0.90005 0
M  V30 4867 O 468.085 2.28452 0.0469145 0
M  V30 4868 C 468.295 1.08899 -3.31575 0
M  V30 4869 C 469.643 1.48514 -3.9778 0
M  V30 4870 O 470.667 1.18227 -3.36007 0
M  V30 4871 O 469.526 2.04903 -5.06633 0
M  V30 4872 H 466.62 0.342743 -0.752633 0
M  V30 4873 H 469.166 -0.0452548 -1.6964 0
M  V30 4874 H 467.938 0.228113 -3.90635 0
M  V30 4875 H 467.561 1.89338 -3.49624 0
M  V30 4876 N 468.558 1.5553 0.254621 0
M  V30 4877 C 469.783 1.81383 1.00573 0
M  V30 4878 C 470.208 0.594419 1.78461 0
M  V30 4879 O 469.566 -0.456403 1.75461 0
M  V30 4880 C 469.614 3.04892 1.92545 0
M  V30 4881 O 468.718 2.81266 3.01601 0
M  V30 4882 H 468.059 0.598969 0.286587 0
M  V30 4883 H 470.589 2.02703 0.277952 0
M  V30 4884 H 470.599 3.34119 2.34155 0
M  V30 4885 H 469.274 3.93287 1.3527 0
M  V30 4886 H 467.851 2.63185 2.64174 0
M  V30 4887 N 470.036 -0.519951 1.48776 0
M  V30 4888 C 471.264 -1.29971 1.60982 0
M  V30 4889 C 471.679 -1.86803 0.273885 0
M  V30 4890 O 471.036 -1.66904 -0.738193 0
M  V30 4891 C 471.087 -2.44346 2.66415 0
M  V30 4892 O 470.808 -1.89855 3.94825 0
M  V30 4893 C 472.309 -3.36014 2.89153 0
M  V30 4894 H 469.529 -0.394891 0.542496 0
M  V30 4895 H 472.073 -0.626214 1.94676 0
M  V30 4896 H 470.228 -3.07562 2.35552 0
M  V30 4897 H 470.642 -2.64798 4.5275 0
M  V30 4898 H 472.116 -4.12593 3.66703 0
M  V30 4899 H 472.593 -3.91859 1.98351 0
M  V30 4900 H 473.199 -2.78582 3.21359 0
M  V30 4901 N 471.514 -1.37532 -0.769588 0
M  V30 4902 C 472.444 -1.36172 -1.89682 0
M  V30 4903 C 473.425 -0.23001 -1.68538 0
M  V30 4904 O 474.61 -0.43069 -1.89364 0
M  V30 4905 C 471.74 -1.1701 -3.26995 0
M  V30 4906 C 470.694 -2.27216 -3.62708 0
M  V30 4907 C 470.02 -1.93174 -4.98586 0
M  V30 4908 C 471.32 -3.6941 -3.69234 0
M  V30 4909 H 473.014 -2.30499 -1.91078 0
M  V30 4910 H 470.56 -1.10953 -0.917902 0
M  V30 4911 H 472.513 -1.14688 -4.05493 0
M  V30 4912 H 471.237 -0.191395 -3.26039 0
M  V30 4913 H 469.896 -2.28697 -2.86519 0
M  V30 4914 H 469.544 -0.938281 -4.94171 0
M  V30 4915 H 469.244 -2.66973 -5.23449 0
M  V30 4916 H 470.768 -1.92443 -5.79481 0
M  V30 4917 H 472.182 -3.70047 -4.37879 0
M  V30 4918 H 470.579 -4.4228 -4.05597 0
M  V30 4919 H 471.649 -4.0288 -2.69844 0
M  V30 4920 N 472.992 0.995999 -1.22138 0
M  V30 4921 C 474.239 1.7351 -1.04406 0
M  V30 4922 C 474.567 1.89884 0.421244 0
M  V30 4923 O 473.822 1.43683 1.32867 0
M  V30 4924 C 474.121 3.14553 -1.6968 0
M  V30 4925 C 473.787 3.18102 -3.19565 0
M  V30 4926 C 472.449 3.18778 -3.60464 0
M  V30 4927 C 474.801 3.14636 -4.15516 0
M  V30 4928 C 472.129 3.13684 -4.95801 0
M  V30 4929 C 474.481 3.11084 -5.50826 0
M  V30 4930 C 473.145 3.10074 -5.91109 0
M  V30 4931 H 472.415 0.634916 -0.38205 0
M  V30 4932 H 475.062 1.1667 -1.51857 0
M  V30 4933 H 473.367 3.74682 -1.14546 0
M  V30 4934 H 475.064 3.70477 -1.53454 0
M  V30 4935 H 471.654 3.18324 -2.86998 0
M  V30 4936 H 475.838 3.13266 -3.84939 0
M  V30 4937 H 471.094 3.11245 -5.26247 0
M  V30 4938 H 475.268 3.07357 -6.24904 0
M  V30 4939 H 472.895 3.05882 -6.95946 0
M  V30 4940 N 474.47 1.03057 1.19235 0
M  V30 4941 C 475.698 0.747697 1.92917 0
M  V30 4942 C 476.113 -0.69372 1.75593 0
M  V30 4943 O 475.47 -1.47191 1.07894 0
M  V30 4944 C 475.521 1.09159 3.44625 0
M  V30 4945 O 475.242 2.47641 3.61394 0
M  V30 4946 C 476.743 0.831763 4.35427 0
M  V30 4947 H 473.963 0.273453 0.612751 0
M  V30 4948 H 476.507 1.37552 1.51327 0
M  V30 4949 H 474.662 0.508919 3.84043 0
M  V30 4950 H 475.076 2.60499 4.55237 0
M  V30 4951 H 476.55 1.12233 5.4047 0
M  V30 4952 H 477.027 -0.233769 4.38577 0
M  V30 4953 H 477.633 1.39725 4.01693 0
M  V30 4954 N 475.948 -1.35272 0.808662 0
M  V30 4955 C 476.878 -2.32315 0.234981 0
M  V30 4956 C 477.859 -1.57572 -0.64071 0
M  V30 4957 O 479.044 -1.8563 -0.570551 0
M  V30 4958 C 476.174 -3.41801 -0.615601 0
M  V30 4959 C 475.128 -4.27694 0.161767 0
M  V30 4960 C 474.454 -5.28519 -0.810649 0
M  V30 4961 C 475.754 -5.04231 1.36193 0
M  V30 4962 H 477.448 -2.80543 1.04575 0
M  V30 4963 H 474.994 -1.3488 0.504315 0
M  V30 4964 H 476.947 -4.08693 -1.02702 0
M  V30 4965 H 475.671 -2.92186 -1.45928 0
M  V30 4966 H 474.33 -3.62384 0.554382 0
M  V30 4967 H 473.978 -4.75171 -1.64988 0
M  V30 4968 H 473.678 -5.8686 -0.294822 0
M  V30 4969 H 475.202 -5.98283 -1.22023 0
M  V30 4970 H 476.616 -5.64058 1.02528 0
M  V30 4971 H 475.013 -5.72077 1.81239 0
M  V30 4972 H 476.083 -4.34753 2.14751 0
M  V30 4973 N 477.426 -0.562348 -1.47226 0
M  V30 4974 C 478.389 0.172056 -2.28553 0
M  V30 4975 C 479.389 0.837928 -1.37242 0
M  V30 4976 O 480.579 0.693001 -1.59822 0
M  V30 4977 C 477.711 1.25223 -3.17068 0
M  V30 4978 H 478.904 -0.542401 -2.94954 0
M  V30 4979 H 476.457 -0.319493 -1.53 0
M  V30 4980 H 477.192 1.99892 -2.55369 0
M  V30 4981 H 476.977 0.779515 -3.84273 0
M  V30 4982 H 478.467 1.76791 -3.78332 0
M  V30 4983 N 478.904 1.54736 -0.299062 0
M  V30 4984 C 479.851 2.23448 0.577899 0
M  V30 4985 C 480.821 1.21637 1.13109 0
M  V30 4986 O 482.006 1.50252 1.17597 0
M  V30 4987 C 479.146 2.9774 1.74484 0
M  V30 4988 C 478.259 4.1432 1.22323 0
M  V30 4989 C 477.394 4.76199 2.35388 0
M  V30 4990 C 476.433 5.84927 1.80351 0
M  V30 4991 N 475.57 6.4077 2.86982 0
M  V30 4992 H 480.41 2.97996 -0.0146545 0
M  V30 4993 H 477.947 1.47088 -0.0190013 0
M  V30 4994 H 479.905 3.39045 2.43114 0
M  V30 4995 H 478.535 2.25572 2.30905 0
M  V30 4996 H 477.587 3.7797 0.429249 0
M  V30 4997 H 478.899 4.92659 0.780309 0
M  V30 4998 H 478.053 5.20346 3.11969 0
M  V30 4999 H 476.792 3.97188 2.83006 0
M  V30 5000 H 475.797 5.40207 1.02259 0
M  V30 5001 H 477.022 6.65821 1.3364 0
M  V30 5002 H 474.968 5.64643 3.33938 0
M  V30 5003 H 474.885 7.1445 2.4718 0
M  V30 5004 H 476.153 6.89574 3.63466 0
M  V30 5005 N 480.382 0.0267497 1.57577 0
M  V30 5006 C 481.315 -0.99059 2.05579 0
M  V30 5007 C 482.293 -1.31884 0.951065 0
M  V30 5008 O 483.477 -1.43592 1.22121 0
M  V30 5009 C 480.604 -2.31125 2.47586 0
M  V30 5010 C 479.65 -2.13777 3.69055 0
M  V30 5011 S 480.483 -1.4388 5.15809 0
M  V30 5012 C 481.639 -2.77321 5.6111 0
M  V30 5013 H 481.872 -0.581976 2.91548 0
M  V30 5014 H 479.405 -0.184876 1.53289 0
M  V30 5015 H 481.363 -3.07049 2.72454 0
M  V30 5016 H 480.024 -2.6912 1.61967 0
M  V30 5017 H 479.217 -3.11405 3.96287 0
M  V30 5018 H 478.819 -1.45996 3.44327 0
M  V30 5019 H 481.111 -3.73565 5.65204 0
M  V30 5020 H 482.054 -2.54756 6.60685 0
M  V30 5021 H 482.462 -2.82459 4.88751 0
M  V30 5022 N 481.861 -1.55662 -0.24637 0
M  V30 5023 C 482.794 -1.85332 -1.33143 0
M  V30 5024 C 483.772 -0.708464 -1.46354 0
M  V30 5025 O 484.956 -0.954274 -1.6256 0
M  V30 5026 C 482.083 -2.0385 -2.70487 0
M  V30 5027 C 481.129 -3.26488 -2.74423 0
M  V30 5028 S 481.962 -4.83124 -2.30979 0
M  V30 5029 C 483.118 -5.04647 -3.70246 0
M  V30 5030 H 483.351 -2.77077 -1.07777 0
M  V30 5031 H 480.884 -1.47776 -0.44738 0
M  V30 5032 H 482.842 -2.15202 -3.49569 0
M  V30 5033 H 481.503 -1.12947 -2.9309 0
M  V30 5034 H 480.696 -3.36413 -3.7529 0
M  V30 5035 H 480.298 -3.13864 -2.03385 0
M  V30 5036 H 482.59 -4.92023 -4.65746 0
M  V30 5037 H 483.533 -6.06625 -3.65255 0
M  V30 5038 H 483.941 -4.32491 -3.62784 0
M  V30 5039 N 483.339 0.512053 -1.4905 0
M  V30 5040 C 484.75 1.09376 -1.51307 0
M  V30 5041 C 485.101 1.94 -0.292971 0
M  V30 5042 O 484.226 2.07965 0.598277 0
M  V30 5043 C 484.821 1.99031 -2.74176 0
M  V30 5044 C 483.38 2.52385 -2.79247 0
M  V30 5045 C 482.527 1.29749 -2.45073 0
M  V30 5046 H 485.478 0.296467 -1.55906 0
M  V30 5047 H 485.499 2.83569 -2.53711 0
M  V30 5048 H 485.011 1.37412 -3.62959 0
M  V30 5049 H 483.112 3.17673 -1.94716 0
M  V30 5050 H 483.225 2.90293 -3.81139 0
M  V30 5051 H 481.589 1.61912 -1.96612 0
M  V30 5052 H 482.372 0.698555 -3.36118 0
M  V30 5053 N 484.817 1.37938 0.762283 0
M  V30 5054 C 486.065 1.33404 1.51815 0
M  V30 5055 C 486.386 -0.0780975 1.94844 0
M  V30 5056 O 485.656 -1.02405 1.67003 0
M  V30 5057 H 484.236 0.490839 0.563104 0
M  V30 5058 H 486.898 1.72527 0.906669 0
M  V30 5059 H 485.994 1.97926 2.41313 0
M  V30 5060 N 486.295 -0.989507 1.22664 0
M  V30 5061 C 487.535 -1.7447 1.06488 0
M  V30 5062 C 487.899 -1.8794 -0.392737 0
M  V30 5063 O 489.1 -2.60175 -0.675446 0
M  V30 5064 C 487.371 -3.11043 1.76031 0
M  V30 5065 S 488.93 -4.02258 1.7531 0
M  V30 5066 H 485.748 -0.600123 0.381278 0
M  V30 5067 H 488.35 -1.18283 1.55658 0
M  V30 5068 H 487.054 -2.98884 2.81241 0
M  V30 5069 H 486.585 -3.72301 1.27105 0
M  V30 5070 H 488.6 -4.89623 0.805208 0
M  V30 5071 N 487.773 -1.03688 -1.18687 0
M  V30 5072 C 488.683 -0.634908 -2.25845 0
M  V30 5073 C 489.699 0.337065 -1.70704 0
M  V30 5074 O 490.875 0.192943 -2.00474 0
M  V30 5075 C 487.94 -0.000180054 -3.467 0
M  V30 5076 C 487.001 -1.02067 -4.1699 0
M  V30 5077 C 486.234 -0.41614 -5.32075 0
M  V30 5078 O 486.457 0.778712 -5.65059 0
M  V30 5079 O 485.391 -1.14296 -5.90948 0
M  V30 5080 H 489.217 -1.52757 -2.62486 0
M  V30 5081 H 486.802 -0.807533 -1.25695 0
M  V30 5082 H 488.684 0.353342 -4.19916 0
M  V30 5083 H 487.359 0.866367 -3.11891 0
M  V30 5084 H 486.266 -1.42592 -3.45859 0
M  V30 5085 H 487.599 -1.85786 -4.5579 0
M  V30 5086 N 489.251 1.34841 -0.815825 0
M  V30 5087 C 490.5 1.97755 -0.396976 0
M  V30 5088 C 490.813 1.65422 1.04379 0
M  V30 5089 O 492.019 2.21771 1.5662 0
M  V30 5090 C 490.475 3.53818 -0.658869 0
M  V30 5091 C 490.083 3.95051 -2.11278 0
M  V30 5092 C 491.827 4.23397 -0.305834 0
M  V30 5093 C 489.734 5.43997 -2.31994 0
M  V30 5094 H 488.664 0.739985 -0.1447 0
M  V30 5095 H 491.315 1.53781 -1.00118 0
M  V30 5096 H 489.697 3.95997 0.0154112 0
M  V30 5097 H 490.871 3.63998 -2.82564 0
M  V30 5098 H 489.186 3.38388 -2.42657 0
M  V30 5099 H 491.783 5.32899 -0.43854 0
M  V30 5100 H 492.126 4.09508 0.748952 0
M  V30 5101 H 492.659 3.8667 -0.934403 0
M  V30 5102 H 489.398 5.62865 -3.35952 0
M  V30 5103 H 488.918 5.76589 -1.65244 0
M  V30 5104 H 490.597 6.10584 -2.14001 0
M  V30 5105 N 490.729 0.570148 1.46925 0
M  V30 5106 C 491.959 0.0561151 2.06524 0
M  V30 5107 C 492.367 -1.24874 1.42137 0
M  V30 5108 O 491.71 -1.76292 0.516417 0
M  V30 5109 C 491.772 -0.197035 3.5896 0
M  V30 5110 C 491.436 1.02033 4.45464 0
M  V30 5111 C 492.433 1.92921 4.82781 0
M  V30 5112 C 490.118 1.23864 4.86788 0
M  V30 5113 C 492.112 3.03999 5.60235 0
M  V30 5114 C 489.799 2.35249 5.64004 0
M  V30 5115 C 490.797 3.25146 6.0064 0
M  V30 5116 O 490.485 4.34598 6.76299 0
M  V30 5117 H 490.217 0.0487409 0.674241 0
M  V30 5118 H 492.771 0.786915 1.89728 0
M  V30 5119 H 491.001 -0.982299 3.74016 0
M  V30 5120 H 492.69 -0.658032 4.00531 0
M  V30 5121 H 493.456 1.77265 4.51444 0
M  V30 5122 H 489.335 0.54805 4.57731 0
M  V30 5123 H 492.879 3.74192 5.8875 0
M  V30 5124 H 488.776 2.50873 5.94755 0
M  V30 5125 H 489.544 4.32808 6.94708 0
M  V30 5126 N 492.207 -1.54576 0.307264 0
M  V30 5127 C 493.432 -2.05139 -0.305379 0
M  V30 5128 C 493.857 -1.18278 -1.46259 0
M  V30 5129 O 493.215 -0.188243 -1.8032 0
M  V30 5130 C 493.263 -3.53066 -0.733283 0
M  V30 5131 O 492.367 -3.69206 -1.83741 0
M  V30 5132 H 491.708 -0.661444 -0.0582105 0
M  V30 5133 H 494.238 -1.99569 0.450931 0
M  V30 5134 H 494.248 -3.95034 -1.02039 0
M  V30 5135 H 492.923 -4.15746 0.113198 0
M  V30 5136 H 491.5 -3.39143 -1.55037 0
M  V30 5137 N 493.685 -0.035106 -1.57561 0
M  V30 5138 C 494.962 0.681212 -1.83354 0
M  V30 5139 C 495.342 1.89986 -0.920252 0
M  V30 5140 O 494.69 2.28489 0.0226815 0
M  V30 5141 C 494.9 1.05376 -3.32712 0
M  V30 5142 C 496.248 1.44286 -3.99333 0
M  V30 5143 O 497.272 1.14656 -3.37242 0
M  V30 5144 O 496.131 1.99518 -5.08778 0
M  V30 5145 H 493.225 0.334741 -0.756226 0
M  V30 5146 H 495.771 -0.0632448 -1.69582 0
M  V30 5147 H 494.543 0.186668 -3.90854 0
M  V30 5148 H 494.166 1.85619 -3.51613 0
M  V30 5149 N 495.163 1.55791 0.238111 0
M  V30 5150 C 496.388 1.8244 0.986432 0
M  V30 5151 C 496.813 0.613314 1.7782 0
M  V30 5152 O 496.171 -0.437767 1.75935 0
M  V30 5153 C 496.219 3.06917 1.893 0
M  V30 5154 O 495.323 2.84449 2.98601 0
M  V30 5155 H 494.664 0.601975 0.280218 0
M  V30 5156 H 497.194 2.02987 0.256437 0
M  V30 5157 H 497.204 3.36583 2.30598 0
M  V30 5158 H 495.879 3.947 1.31091 0
M  V30 5159 H 494.456 2.65972 2.61368 0
M  V30 5160 N 496.642 -0.504142 1.49319 0
M  V30 5161 C 497.89 -1.25598 1.58334 0
M  V30 5162 C 498.211 -1.93114 0.270538 0
M  V30 5163 O 497.481 -1.82585 -0.709891 0
M  V30 5164 H 496.061 -0.466571 0.58337 0
M  V30 5165 H 498.723 -0.584547 1.85928 0
M  V30 5166 H 497.819 -2.02159 2.37778 0
M  V30 5167 N 498.12 -1.38341 -0.754957 0
M  V30 5168 C 499.068 -1.35573 -1.89005 0
M  V30 5169 C 500.062 -0.241824 -1.67665 0
M  V30 5170 O 501.268 -0.410785 -1.7525 0
M  V30 5171 H 497.643 -0.422898 -0.621821 0
M  V30 5172 H 499.614 -2.31359 -1.88455 0
M  V30 5173 C 498.363 -1.19631 -3.26471 0
M  V30 5174 H 497.686 -2.04605 -3.43477 0
M  V30 5175 H 499.126 -1.21748 -4.06144 0
M  V30 5176 C 497.585 0.0968705 -3.36761 0
M  V30 5177 O 498.115 1.07439 -3.87066 0
M  V30 5178 N 496.321 0.153242 -2.90196 0
M  V30 5179 H 495.868 -0.642908 -2.49448 0
M  V30 5180 H 495.826 1.01807 -2.9746 0
M  V30 5181 N 499.598 0.982988 -1.23187 0
M  V30 5182 C 500.548 2.05962 -0.977942 0
M  V30 5183 C 501.532 1.60725 0.0751148 0
M  V30 5184 O 502.724 1.76471 -0.136683 0
M  V30 5185 C 499.853 3.38564 -0.568276 0
M  V30 5186 C 498.939 3.90407 -1.6566 0
M  V30 5187 N 499.33 4.15359 -2.88635 0
M  V30 5188 C 497.628 4.18915 -1.53058 0
M  V30 5189 C 498.329 4.57642 -3.5908 0
M  V30 5190 N 497.305 4.6192 -2.86584 0
M  V30 5191 H 501.107 2.23208 -1.91195 0
M  V30 5192 H 498.621 1.16555 -1.13087 0
M  V30 5193 H 500.618 4.15276 -0.36764 0
M  V30 5194 H 499.278 3.22712 0.358713 0
M  V30 5195 H 500.289 4.03258 -3.24966 0
M  V30 5196 H 496.966 4.12081 -0.670506 0
M  V30 5197 H 498.356 4.85488 -4.6449 0
M  V30 5198 N 501.076 1.04316 1.18135 0
M  V30 5199 C 502.039 0.640794 2.2006 0
M  V30 5200 C 503.039 -0.303124 1.57917 0
M  V30 5201 O 504.229 -0.0881855 1.73977 0
M  V30 5202 C 501.361 -0.060148 3.40847 0
M  V30 5203 H 502.554 1.54281 2.57172 0
M  V30 5204 H 500.107 0.836004 1.32063 0
M  V30 5205 H 500.842 -0.975845 3.0927 0
M  V30 5206 H 500.627 0.618319 3.87194 0
M  V30 5207 H 502.117 -0.328082 4.16309 0
M  V30 5208 N 502.554 -1.34406 0.822964 0
M  V30 5209 C 503.779 -2.0304 0.423034 0
M  V30 5210 C 504.204 -1.61568 -0.963196 0
M  V30 5211 O 503.562 -0.800339 -1.62678 0
M  V30 5212 C 503.61 -3.56636 0.53321 0
M  V30 5213 O 502.714 -4.09971 -0.446939 0
M  V30 5214 H 502.055 -0.64075 0.174171 0
M  V30 5215 H 504.585 -1.71653 1.11339 0
M  V30 5216 H 504.595 -4.05945 0.408991 0
M  V30 5217 H 503.27 -3.86168 1.54425 0
M  V30 5218 H 501.847 -3.71835 -0.281601 0
M  V30 5219 N 504.032 -0.577932 -1.46621 0
M  V30 5220 C 504.965 0.206312 -2.27265 0
M  V30 5221 C 505.943 0.901306 -1.35334 0
M  V30 5222 O 507.127 0.916151 -1.64739 0
M  V30 5223 C 504.254 1.29563 -3.1294 0
M  V30 5224 C 503.3 0.706981 -4.206 0
M  V30 5225 S 504.133 -0.462459 -5.33499 0
M  V30 5226 C 505.289 0.628171 -6.2274 0
M  V30 5227 H 505.522 -0.477961 -2.93433 0
M  V30 5228 H 503.055 -0.364715 -1.50031 0
M  V30 5229 H 505.013 1.91935 -3.62865 0
M  V30 5230 H 503.674 1.95183 -2.46095 0
M  V30 5231 H 502.867 1.52565 -4.80354 0
M  V30 5232 H 502.469 0.159022 -3.73662 0
M  V30 5233 H 504.761 1.51506 -6.60342 0
M  V30 5234 H 505.704 0.0674961 -7.08068 0
M  V30 5235 H 506.112 0.930167 -5.56784 0
M  V30 5236 N 505.51 1.54411 -0.315457 0
M  V30 5237 C 506.759 1.99599 0.290395 0
M  V30 5238 C 507.072 1.20746 1.53882 0
M  V30 5239 O 508.278 1.56272 2.22017 0
M  V30 5240 C 506.734 3.5539 0.56797 0
M  V30 5241 C 506.342 4.43068 -0.662945 0
M  V30 5242 C 508.086 4.09067 1.13422 0
M  V30 5243 C 505.993 5.90317 -0.357722 0
M  V30 5244 H 504.923 0.745592 0.112286 0
M  V30 5245 H 507.574 1.78477 -0.426418 0
M  V30 5246 H 505.956 3.72468 1.34476 0
M  V30 5247 H 507.13 4.37765 -1.43869 0
M  V30 5248 H 505.445 4.00238 -1.14884 0
M  V30 5249 H 508.042 5.16663 1.37707 0
M  V30 5250 H 508.385 3.60552 2.08106 0
M  V30 5251 H 508.918 3.95589 0.418805 0
M  V30 5252 H 505.657 6.4301 -1.27351 0
M  V30 5253 H 505.177 5.98592 0.380472 0
M  V30 5254 H 506.856 6.4699 0.0354284 0
M  V30 5255 N 506.988 0.0434614 1.5754 0
M  V30 5256 C 507.92 -0.962586 2.08007 0
M  V30 5257 C 508.933 -1.27972 1.00634 0
M  V30 5258 O 510.122 -1.24186 1.28219 0
M  V30 5259 C 507.222 -2.28621 2.50171 0
M  V30 5260 C 506.395 -2.15214 3.80791 0
M  V30 5261 C 505.454 -3.30633 4.09351 0
M  V30 5262 O 504.48 -3.0688 4.79388 0
M  V30 5263 N 505.682 -4.54873 3.60654 0
M  V30 5264 H 508.447 -0.531891 2.94942 0
M  V30 5265 H 506.008 -0.142965 1.61268 0
M  V30 5266 H 508 -3.04689 2.66359 0
M  V30 5267 H 506.57 -2.63283 1.68525 0
M  V30 5268 H 505.79 -1.23785 3.74261 0
M  V30 5269 H 507.078 -2.03475 4.66343 0
M  V30 5270 H 506.476 -4.77063 3.04019 0
M  V30 5271 H 505.033 -5.2806 3.82094 0
M  V30 5272 N 508.466 -1.55915 -0.229846 0
M  V30 5273 C 509.714 -1.7819 -0.953565 0
M  V30 5274 C 510.035 -0.610504 -1.85197 0
M  V30 5275 O 509.305 0.372988 -1.92316 0
M  V30 5276 H 507.885 -0.657208 -0.355087 0
M  V30 5277 H 510.547 -1.9337 -0.243693 0
M  V30 5278 H 509.643 -2.70011 -1.56527 0
M  V30 5279 N 509.944 0.496216 -1.49584 0
M  V30 5280 C 511.193 1.24668 -1.58558 0
M  V30 5281 C 511.506 1.9359 -0.279703 0
M  V30 5282 O 512.712 2.70365 -0.248048 0
M  V30 5283 C 511.168 2.26388 -2.79779 0
M  V30 5284 C 510.776 1.63384 -4.17145 0
M  V30 5285 C 512.52 3.02233 -2.98086 0
M  V30 5286 C 510.427 2.63243 -5.29582 0
M  V30 5287 H 509.357 0.468995 -0.590389 0
M  V30 5288 H 512.008 0.519985 -1.75978 0
M  V30 5289 H 510.39 3.02241 -2.55863 0
M  V30 5290 H 511.564 0.93491 -4.51216 0
M  V30 5291 H 509.879 0.999121 -4.04236 0
M  V30 5292 H 512.476 3.76919 -3.79257 0
M  V30 5293 H 512.819 3.60132 -2.08831 0
M  V30 5294 H 513.352 2.33495 -3.22063 0
M  V30 5295 H 510.091 2.10119 -6.20911 0
M  V30 5296 H 509.611 3.31363 -4.99959 0
M  V30 5297 H 511.29 3.25575 -5.59115 0
M  V30 5298 N 511.423 1.38739 0.74761 0
M  V30 5299 C 512.839 1.20067 1.05148 0
M  V30 5300 C 513.039 0.0534835 2.01429 0
M  V30 5301 O 512.095 -0.59886 2.45296 0
M  V30 5302 C 513.408 2.52957 1.62584 0
M  V30 5303 C 514.956 2.59692 1.74726 0
M  V30 5304 C 515.431 3.92772 2.35573 0
M  V30 5305 N 516.922 3.94343 2.42997 0
M  V30 5306 C 517.657 4.9408 2.90985 0
M  V30 5307 N 517.153 6.04214 3.38965 0
M  V30 5308 N 518.946 4.81466 2.9008 0
M  V30 5309 H 511.097 2.12121 0.108808 0
M  V30 5310 H 513.36 0.941491 0.110899 0
M  V30 5311 H 513.066 3.37389 0.993051 0
M  V30 5312 H 512.94 2.71779 2.61565 0
M  V30 5313 H 515.327 1.75651 2.3713 0
M  V30 5314 H 515.408 2.44731 0.744326 0
M  V30 5315 H 515.052 4.77238 1.738 0
M  V30 5316 H 514.982 4.05046 3.36519 0
M  V30 5317 H 517.473 3.14799 2.0907 0
M  V30 5318 H 517.786 6.76241 3.74056 0
M  V30 5319 H 516.131 6.07825 3.37007 0
M  V30 5320 H 519.322 3.94535 2.51912 0
M  V30 5321 H 519.495 5.59344 3.27166 0
M  V30 5322 N 512.901 -0.976442 1.23707 0
M  V30 5323 C 513.849 -2.09078 1.01927 0
M  V30 5324 C 514.843 -1.69345 -0.0430193 0
M  V30 5325 O 516.049 -1.79659 0.110814 0
M  V30 5326 H 512.424 -0.68398 0.312531 0
M  V30 5327 H 514.395 -2.24614 1.96447 0
M  V30 5328 C 513.144 -3.41919 0.631385 0
M  V30 5329 H 512.467 -3.72946 1.44053 0
M  V30 5330 H 513.907 -4.20817 0.518532 0
M  V30 5331 C 512.366 -3.30357 -0.660723 0
M  V30 5332 O 512.896 -3.63542 -1.70881 0
M  V30 5333 N 511.102 -2.83507 -0.638139 0
M  V30 5334 H 510.649 -2.567 0.215108 0
M  V30 5335 H 510.607 -2.76153 -1.50289 0
M  V30 5336 N 514.379 -1.04941 -1.1758 0
M  V30 5337 C 515.604 -0.778253 -1.92245 0
M  V30 5338 C 516.029 0.659707 -1.76152 0
M  V30 5339 O 515.387 1.45803 -1.07755 0
M  V30 5340 C 515.435 -1.16051 -3.41416 0
M  V30 5341 O 514.539 -0.291153 -4.11371 0
M  V30 5342 H 513.88 -0.285619 -0.599431 0
M  V30 5343 H 516.41 -1.40159 -1.49052 0
M  V30 5344 H 516.42 -1.12619 -3.92149 0
M  V30 5345 H 515.095 -2.208 -3.52449 0
M  V30 5346 H 513.672 -0.385851 -3.70898 0
M  V30 5347 N 515.857 1.33968 -0.830081 0
M  V30 5348 C 517.273 1.51003 -0.516742 0
M  V30 5349 C 517.473 1.77286 0.957694 0
M  V30 5350 O 516.529 1.82797 1.74188 0
M  V30 5351 C 517.842 2.67036 -1.38247 0
M  V30 5352 C 519.39 2.80919 -1.38034 0
M  V30 5353 C 519.865 4.00004 -2.23071 0
M  V30 5354 N 521.356 4.07224 -2.20733 0
M  V30 5355 C 522.091 4.98541 -2.83275 0
M  V30 5356 N 521.587 5.95033 -3.54835 0
M  V30 5357 N 523.38 4.91469 -2.72791 0
M  V30 5358 H 515.531 1.15168 -1.78466 0
M  V30 5359 H 517.794 0.565443 -0.760906 0
M  V30 5360 H 517.5 2.54266 -2.42985 0
M  V30 5361 H 517.374 3.62226 -1.05225 0
M  V30 5362 H 519.761 2.93127 -0.340713 0
M  V30 5363 H 519.842 1.86517 -1.75057 0
M  V30 5364 H 519.486 3.88557 -3.27087 0
M  V30 5365 H 519.416 4.93634 -1.83394 0
M  V30 5366 H 521.907 3.38162 -1.68687 0
M  V30 5367 H 522.22 6.61357 -3.99784 0
M  V30 5368 H 520.565 5.95135 -3.58942 0
M  V30 5369 H 523.756 4.15048 -2.16456 0
M  V30 5370 H 523.929 5.62439 -3.21818 0
M  V30 5371 N 517.335 0.585699 1.46312 0
M  V30 5372 C 518.581 0.0725284 2.0267 0
M  V30 5373 C 518.914 -1.28523 1.45586 0
M  V30 5374 O 518.189 -1.84283 0.622101 0
M  V30 5375 C 518.472 0.0099788 3.60099 0
M  V30 5376 C 518.325 1.39685 4.27561 0
M  V30 5377 C 519.644 -0.689117 4.34671 0
M  V30 5378 H 516.763 0.0278307 0.736474 0
M  V30 5379 H 519.405 0.753472 1.74421 0
M  V30 5380 H 517.555 -0.56992 3.84297 0
M  V30 5381 H 519.227 2.02215 4.14617 0
M  V30 5382 H 517.47 1.96374 3.86807 0
M  V30 5383 H 518.141 1.30553 5.36339 0
M  V30 5384 H 520.617 -0.196446 4.15636 0
M  V30 5385 H 519.493 -0.701921 5.44393 0
M  V30 5386 H 519.754 -1.75101 4.05946 0
M  V30 5387 N 518.813 -1.54241 0.323641 0
M  V30 5388 C 520.224 -1.85975 -0.164405 0
M  V30 5389 C 520.575 -1.24529 -1.51615 0
M  V30 5390 O 519.7 -0.551351 -2.09258 0
M  V30 5391 C 520.295 -3.37424 -0.305091 0
M  V30 5392 C 518.854 -3.69107 -0.737358 0
M  V30 5393 C 518.001 -2.76942 0.140884 0
M  V30 5394 H 520.952 -1.49088 0.543922 0
M  V30 5395 H 520.973 -3.63147 -1.13598 0
M  V30 5396 H 520.485 -3.82116 0.678876 0
M  V30 5397 H 518.586 -3.29947 -1.73107 0
M  V30 5398 H 518.699 -4.76035 -0.541053 0
M  V30 5399 H 517.063 -2.51795 -0.383572 0
M  V30 5400 H 517.846 -3.24461 1.12162 0
M  V30 5401 N 520.291 -0.0518155 -1.57515 0
M  V30 5402 C 521.238 0.922352 -2.11569 0
M  V30 5403 C 522.208 1.30842 -1.02321 0
M  V30 5404 O 523.393 1.39778 -1.29872 0
M  V30 5405 C 520.533 2.19167 -2.6657 0
M  V30 5406 C 519.646 1.86003 -3.89906 0
M  V30 5407 C 518.781 3.07398 -4.33221 0
M  V30 5408 C 517.82 2.70158 -5.49255 0
M  V30 5409 N 516.957 3.84248 -5.8762 0
M  V30 5410 H 521.797 0.454506 -2.94514 0
M  V30 5411 H 519.334 0.212718 -1.45554 0
M  V30 5412 H 521.292 2.93443 -2.96559 0
M  V30 5413 H 519.922 2.63528 -1.86421 0
M  V30 5414 H 518.974 1.01874 -3.66505 0
M  V30 5415 H 520.286 1.54592 -4.74239 0
M  V30 5416 H 519.44 3.89972 -4.64765 0
M  V30 5417 H 518.179 3.41988 -3.477 0
M  V30 5418 H 517.184 1.86001 -5.17382 0
M  V30 5419 H 518.409 2.36759 -6.36492 0
M  V30 5420 H 516.355 4.18638 -5.05053 0
M  V30 5421 H 516.272 3.56538 -6.66646 0
M  V30 5422 H 517.54 4.6746 -6.2378 0
M  V30 5423 N 521.769 1.56035 0.221574 0
M  V30 5424 C 522.999 1.82864 0.961468 0
M  V30 5425 C 523.407 0.628703 1.78449 0
M  V30 5426 O 522.75 -0.412109 1.79018 0
M  V30 5427 C 522.812 3.03425 1.92804 0
M  V30 5428 C 522.476 4.38429 1.28954 0
M  V30 5429 C 523.473 5.15441 0.679431 0
M  V30 5430 C 521.158 4.85151 1.30131 0
M  V30 5431 C 523.152 6.37337 0.0896148 0
M  V30 5432 C 520.839 6.06989 0.707651 0
M  V30 5433 C 521.837 6.82923 0.102855 0
M  V30 5434 O 521.525 8.02456 -0.48157 0
M  V30 5435 H 521.257 0.611883 0.28736 0
M  V30 5436 H 523.811 2.0397 0.241932 0
M  V30 5437 H 522.041 2.78138 2.68656 0
M  V30 5438 H 523.73 3.17127 2.53348 0
M  V30 5439 H 524.496 4.80452 0.662661 0
M  V30 5440 H 520.375 4.26021 1.76145 0
M  V30 5441 H 523.919 6.96547 -0.383069 0
M  V30 5442 H 519.816 6.41451 0.721834 0
M  V30 5443 H 520.584 8.17636 -0.375887 0
M  V30 5444 N 523.247 -0.488276 1.49845 0
M  V30 5445 C 524.496 -1.23826 1.59217 0
M  V30 5446 C 524.809 -1.93439 0.289966 0
M  V30 5447 O 526.015 -2.70229 0.262382 0
M  V30 5448 C 524.471 -2.24902 2.80976 0
M  V30 5449 C 524.079 -1.6117 4.18005 0
M  V30 5450 C 525.823 -3.00648 2.99685 0
M  V30 5451 C 523.73 -2.60431 5.3097 0
M  V30 5452 H 522.66 -0.465858 0.592868 0
M  V30 5453 H 525.311 -0.510645 1.76252 0
M  V30 5454 H 523.693 -3.0088 2.57463 0
M  V30 5455 H 524.867 -0.910968 4.51706 0
M  V30 5456 H 523.182 -0.97767 4.0476 0
M  V30 5457 H 525.779 -3.74903 3.81251 0
M  V30 5458 H 526.122 -3.5902 2.10738 0
M  V30 5459 H 526.655 -2.31784 3.23297 0
M  V30 5460 H 523.394 -2.06823 6.22017 0
M  V30 5461 H 522.914 -3.28707 5.01709 0
M  V30 5462 H 524.593 -3.22606 5.60834 0
M  V30 5463 N 524.725 -1.39134 -0.740242 0
M  V30 5464 C 525.972 -1.36071 -1.49969 0
M  V30 5465 C 526.3 0.0450245 -1.94448 0
M  V30 5466 O 525.555 1.02482 -1.66721 0
M  V30 5467 C 525.854 -2.27457 -2.75678 0
M  V30 5468 C 525.52 -3.75185 -2.50094 0
M  V30 5469 C 524.182 -4.15439 -2.42825 0
M  V30 5470 C 526.534 -4.68643 -2.28086 0
M  V30 5471 C 523.862 -5.4722 -2.11584 0
M  V30 5472 C 526.214 -6.00695 -1.98363 0
M  V30 5473 C 524.878 -6.40018 -1.8956 0
M  V30 5474 H 524.148 -0.497921 -0.548777 0
M  V30 5475 H 526.795 -1.71599 -0.85007 0
M  V30 5476 H 525.1 -1.8503 -3.45356 0
M  V30 5477 H 526.797 -2.22384 -3.33686 0
M  V30 5478 H 523.387 -3.43279 -2.56627 0
M  V30 5479 H 527.571 -4.3838 -2.32672 0
M  V30 5480 H 522.827 -5.76615 -2.03287 0
M  V30 5481 H 527.001 -6.72644 -1.80341 0
M  V30 5482 H 524.628 -7.42051 -1.65117 0
M  V30 5483 N 526.204 0.969867 -1.24223 0
M  V30 5484 C 527.62 1.23809 -1.00716 0
M  V30 5485 C 527.82 1.99469 0.285358 0
M  V30 5486 O 526.876 2.31764 1.00207 0
M  V30 5487 C 528.189 2.02734 -2.2208 0
M  V30 5488 C 529.737 2.15834 -2.26681 0
M  V30 5489 C 530.212 2.98154 -3.47661 0
M  V30 5490 N 531.703 3.05737 -3.47964 0
M  V30 5491 C 532.438 3.69785 -4.38231 0
M  V30 5492 N 531.934 4.35569 -5.3875 0
M  V30 5493 N 533.727 3.66775 -4.25949 0
M  V30 5494 H 525.878 0.463294 -2.07286 0
M  V30 5495 H 528.141 0.267348 -0.909521 0
M  V30 5496 H 527.847 1.54524 -3.15935 0
M  V30 5497 H 527.721 3.0347 -2.24021 0
M  V30 5498 H 530.108 2.63248 -1.33359 0
M  V30 5499 H 530.189 1.14453 -2.28767 0
M  V30 5500 H 529.833 2.51435 -4.41297 0
M  V30 5501 H 529.763 3.99729 -3.42818 0
M  V30 5502 H 532.254 2.58941 -2.75242 0
M  V30 5503 H 532.567 4.82251 -6.03866 0
M  V30 5504 H 530.912 4.34244 -5.42639 0
M  V30 5505 H 534.103 3.14558 -3.46657 0
M  V30 5506 H 534.276 4.16407 -4.96497 0
M  V30 5507 N 527.682 1.05563 1.17022 0
M  V30 5508 C 528.632 0.630007 2.19123 0
M  V30 5509 C 529.616 -0.335472 1.57364 0
M  V30 5510 O 530.808 -0.1521 1.76345 0
M  V30 5511 C 527.937 0.0101676 3.43298 0
M  V30 5512 C 527.023 0.999698 4.12149 0
M  V30 5513 N 527.414 2.17251 4.56766 0
M  V30 5514 C 525.712 0.829 4.38228 0
M  V30 5515 C 526.413 2.79883 5.09942 0
M  V30 5516 N 525.389 2.07656 5.02374 0
M  V30 5517 H 529.191 1.52353 2.51328 0
M  V30 5518 H 526.705 0.926288 1.33393 0
M  V30 5519 H 528.702 -0.312541 4.15727 0
M  V30 5520 H 527.362 -0.878707 3.12584 0
M  V30 5521 H 528.373 2.55067 4.50734 0
M  V30 5522 H 525.05 -0.00850974 4.17499 0
M  V30 5523 H 526.44 3.79362 5.54558 0
M  V30 5524 N 529.16 -1.33526 0.837174 0
M  V30 5525 C 530.108 -2.31168 0.257698 0
M  V30 5526 C 531.102 -1.5806 -0.609388 0
M  V30 5527 O 532.308 -1.72941 -0.499139 0
M  V30 5528 H 528.683 -0.74922 0.0646058 0
M  V30 5529 H 530.654 -2.77552 1.09578 0
M  V30 5530 C 529.403 -3.4326 -0.553887 0
M  V30 5531 H 528.726 -3.99665 0.104008 0
M  V30 5532 H 530.166 -4.13782 -0.925219 0
M  V30 5533 C 528.625 -2.88965 -1.73207 0
M  V30 5534 O 529.155 -2.85013 -2.83073 0
M  V30 5535 N 527.361 -2.45596 -1.55342 0
M  V30 5536 H 526.908 -2.49009 -0.659705 0
M  V30 5537 H 526.866 -2.0962 -2.34322 0
M  V30 5538 N 530.638 -0.59345 -1.46 0
M  V30 5539 C 531.915 -0.0157933 -1.95594 0
M  V30 5540 C 532.295 1.44807 -1.53604 0
M  V30 5541 O 531.643 2.14342 -0.791824 0
M  V30 5542 C 531.853 -0.199081 -3.48432 0
M  V30 5543 C 533.201 -0.0724943 -4.24538 0
M  V30 5544 O 534.225 -0.128469 -3.55968 0
M  V30 5545 O 533.084 0.0542426 -5.46473 0
M  V30 5546 H 530.178 0.043749 -0.825842 0
M  V30 5547 H 532.724 -0.662522 -1.56233 0
M  V30 5548 H 531.496 -1.21631 -3.71916 0
M  V30 5549 H 531.119 0.483576 -3.94648 0
M  V30 5550 N 532.116 1.54067 -0.331816 0
M  V30 5551 C 533.362 2.01012 0.268667 0
M  V30 5552 C 533.695 1.2195 1.51136 0
M  V30 5553 O 532.97 0.303972 1.9211 0
M  V30 5554 C 533.253 3.55158 0.59456 0
M  V30 5555 C 533.106 4.4494 -0.659409 0
M  V30 5556 C 534.425 4.16939 1.4089 0
M  V30 5557 H 531.544 0.730698 0.0961756 0
M  V30 5558 H 534.186 1.84593 -0.450031 0
M  V30 5559 H 532.336 3.6928 1.20685 0
M  V30 5560 H 534.008 4.42675 -1.29756 0
M  V30 5561 H 532.251 4.1428 -1.28665 0
M  V30 5562 H 532.922 5.50643 -0.386804 0
M  V30 5563 H 535.398 4.06443 0.891272 0
M  V30 5564 H 534.274 5.24889 1.60569 0
M  V30 5565 H 534.535 3.70798 2.40752 0
M  V30 5566 N 533.594 0.0601682 1.57485 0
M  V30 5567 C 534.819 -0.624416 1.97777 0
M  V30 5568 C 535.244 -1.63051 0.937867 0
M  V30 5569 O 534.602 -1.81036 -0.0978845 0
M  V30 5570 C 534.65 -1.27979 3.37126 0
M  V30 5571 O 533.754 -2.39556 3.35688 0
M  V30 5572 H 533.095 -0.161581 0.64404 0
M  V30 5573 H 535.625 0.131237 2.04179 0
M  V30 5574 H 535.635 -1.62937 3.74053 0
M  V30 5575 H 534.31 -0.542501 4.12347 0
M  V30 5576 H 532.887 -2.06478 3.10517 0
M  V30 5577 N 535.072 -1.5615 -0.213296 0
M  V30 5578 C 536.022 -1.89485 -1.26804 0
M  V30 5579 C 537.006 -0.758713 -1.41889 0
M  V30 5580 O 538.198 -1.02127 -1.44565 0
M  V30 5581 C 535.327 -2.22219 -2.61675 0
M  V30 5582 C 534.413 -3.42245 -2.50458 0
M  V30 5583 N 534.804 -4.60645 -2.089 0
M  V30 5584 C 533.102 -3.46023 -2.81397 0
M  V30 5585 C 533.803 -5.42805 -2.09135 0
M  V30 5586 N 532.779 -4.82732 -2.49941 0
M  V30 5587 H 536.581 -2.78537 -0.937771 0
M  V30 5588 H 534.095 -1.56826 -0.421824 0
M  V30 5589 H 536.092 -2.44278 -3.37837 0
M  V30 5590 H 534.752 -1.34484 -2.95541 0
M  V30 5591 H 535.763 -4.85651 -1.79899 0
M  V30 5592 H 532.44 -2.68654 -3.1958 0
M  V30 5593 H 533.83 -6.47601 -1.79059 0
M  V30 5594 N 536.55 0.480323 -1.50102 0
M  V30 5595 C 537.48 1.58769 -1.71215 0
M  V30 5596 C 538.461 1.60583 -0.560997 0
M  V30 5597 O 539.646 1.76996 -0.799127 0
M  V30 5598 C 536.776 2.97148 -1.79778 0
M  V30 5599 C 535.73 3.10201 -2.94888 0
M  V30 5600 C 535.056 4.50137 -2.88584 0
M  V30 5601 C 536.356 2.88283 -4.35534 0
M  V30 5602 H 538.05 1.41354 -2.6393 0
M  V30 5603 H 535.596 0.678591 -1.27008 0
M  V30 5604 H 537.549 3.74536 -1.93133 0
M  V30 5605 H 536.273 3.15699 -0.836772 0
M  V30 5606 H 534.932 2.35244 -2.81169 0
M  V30 5607 H 534.58 4.65593 -1.90349 0
M  V30 5608 H 534.28 4.59808 -3.65856 0
M  V30 5609 H 535.804 5.29558 -3.03976 0
M  V30 5610 H 537.218 3.55427 -4.49827 0
M  V30 5611 H 535.615 3.09408 -5.14186 0
M  V30 5612 H 536.685 1.84219 -4.48544 0
M  V30 5613 N 538.028 1.39524 0.732853 0
M  V30 5614 C 539.444 1.21176 1.03868 0
M  V30 5615 C 539.644 0.0748448 2.01361 0
M  V30 5616 O 538.7 -0.57281 2.45917 0
M  V30 5617 C 540.013 2.54667 1.59892 0
M  V30 5618 C 541.561 2.6153 1.71962 0
M  V30 5619 C 542.036 3.95248 2.31394 0
M  V30 5620 N 543.527 3.96899 2.38801 0
M  V30 5621 C 544.262 4.97138 2.85729 0
M  V30 5622 N 543.758 6.07775 3.32537 0
M  V30 5623 N 545.551 4.84516 2.84957 0
M  V30 5624 H 537.702 2.12225 0.086304 0
M  V30 5625 H 539.965 0.942614 0.100907 0
M  V30 5626 H 539.671 3.38423 0.95721 0
M  V30 5627 H 539.545 2.74538 2.58668 0
M  V30 5628 H 541.932 1.78156 2.35254 0
M  V30 5629 H 542.013 2.45507 0.718327 0
M  V30 5630 H 541.657 4.79054 1.68729 0
M  V30 5631 H 541.587 4.08593 3.32204 0
M  V30 5632 H 544.078 3.16998 2.05719 0
M  V30 5633 H 544.391 6.8017 3.66862 0
M  V30 5634 H 542.736 6.11366 3.30541 0
M  V30 5635 H 545.927 3.97185 2.47713 0
M  V30 5636 H 546.1 5.62783 3.21215 0
M  V30 5637 N 539.506 -0.963266 1.24736 0
M  V30 5638 C 540.416 -2.09246 1.06082 0
M  V30 5639 C 541.432 -1.74 0.000363101 0
M  V30 5640 O 542.608 -2.0041 0.199479 0
M  V30 5641 C 539.673 -3.40115 0.672498 0
M  V30 5642 C 538.734 -3.89282 1.80993 0
M  V30 5643 C 537.967 -5.13905 1.44004 0
M  V30 5644 O 538.19 -5.69434 0.331835 0
M  V30 5645 O 537.124 -5.57566 2.26723 0
M  V30 5646 H 540.95 -2.27881 2.00759 0
M  V30 5647 H 538.535 -1.07649 1.03595 0
M  V30 5648 H 540.417 -4.18797 0.467668 0
M  V30 5649 H 539.092 -3.22771 -0.245102 0
M  V30 5650 H 537.999 -3.11642 2.06955 0
M  V30 5651 H 539.332 -4.1111 2.70646 0
M  V30 5652 N 540.985 -1.06182 -1.16461 0
M  V30 5653 C 541.915 -0.692861 -2.22984 0
M  V30 5654 C 542.896 0.314122 -1.67174 0
M  V30 5655 O 544.081 0.189499 -1.93273 0
M  V30 5656 C 541.211 -0.07732 -3.47214 0
M  V30 5657 C 540.165 -1.01015 -4.15909 0
M  V30 5658 C 539.491 -0.257973 -5.34077 0
M  V30 5659 C 540.791 -2.33868 -4.67015 0
M  V30 5660 H 542.485 -1.58343 -2.54102 0
M  V30 5661 H 540.031 -0.76279 -1.22137 0
M  V30 5662 H 541.984 0.19266 -4.20959 0
M  V30 5663 H 540.708 0.848254 -3.15392 0
M  V30 5664 H 539.367 -1.26486 -3.44088 0
M  V30 5665 H 539.015 0.670684 -4.98509 0
M  V30 5666 H 538.715 -0.879638 -5.80979 0
M  V30 5667 H 540.239 0.00448788 -6.106 0
M  V30 5668 H 541.653 -2.1279 -5.32347 0
M  V30 5669 H 540.05 -2.91522 -5.24533 0
M  V30 5670 H 541.12 -2.97019 -3.83286 0
M  V30 5671 N 542.463 1.3308 -0.844243 0
M  V30 5672 C 543.393 2.3161 -0.296493 0
M  V30 5673 C 544.374 1.59215 0.598707 0
M  V30 5674 O 545.559 1.87077 0.521134 0
M  V30 5675 C 542.689 3.43313 0.524762 0
M  V30 5676 C 541.643 4.27115 -0.275106 0
M  V30 5677 C 540.969 5.30483 0.670236 0
M  V30 5678 C 542.269 5.00443 -1.49514 0
M  V30 5679 H 543.963 2.77672 -1.11976 0
M  V30 5680 H 541.509 1.33496 -0.539899 0
M  V30 5681 H 543.462 4.11273 0.918298 0
M  V30 5682 H 542.186 2.95952 1.3813 0
M  V30 5683 H 540.845 3.60787 -0.650267 0
M  V30 5684 H 540.493 4.79379 1.52332 0
M  V30 5685 H 540.193 5.87435 0.139123 0
M  V30 5686 H 541.717 6.01308 1.06117 0
M  V30 5687 H 543.131 5.61141 -1.17447 0
M  V30 5688 H 541.528 5.67071 -1.96343 0
M  V30 5689 H 542.598 4.28906 -2.26202 0
M  V30 5690 N 543.941 0.601185 1.45683 0
M  V30 5691 C 544.873 -0.159446 2.28645 0
M  V30 5692 C 545.886 -0.837882 1.39583 0
M  V30 5693 O 547.075 -0.704344 1.64016 0
M  V30 5694 C 544.175 -1.24641 3.15147 0
M  V30 5695 C 543.348 -0.656334 4.32448 0
M  V30 5696 C 542.407 -1.63337 5.00208 0
M  V30 5697 O 541.433 -1.16217 5.57209 0
M  V30 5698 N 542.635 -2.96773 4.98905 0
M  V30 5699 H 545.4 0.5524 2.94565 0
M  V30 5700 H 542.961 0.440223 1.558 0
M  V30 5701 H 544.953 -1.8997 3.57342 0
M  V30 5702 H 543.523 -1.86087 2.51178 0
M  V30 5703 H 542.743 0.174879 3.93812 0
M  V30 5704 H 544.031 -0.242211 5.08223 0
M  V30 5705 H 543.429 -3.37662 4.53873 0
M  V30 5706 H 541.986 -3.57541 5.44984 0
M  V30 5707 N 545.419 -1.53889 0.339982 0
M  V30 5708 C 546.835 -1.59595 -0.0120752 0
M  V30 5709 C 547.035 -1.35605 -1.49042 0
M  V30 5710 O 546.091 -1.14856 -2.24865 0
M  V30 5711 C 547.404 -2.9774 0.420898 0
M  V30 5712 C 548.952 -3.1077 0.37294 0
M  V30 5713 C 549.427 -4.51286 0.781327 0
M  V30 5714 N 550.918 -4.57325 0.735374 0
M  V30 5715 C 551.653 -5.64194 1.02336 0
M  V30 5716 N 551.149 -6.7893 1.37933 0
M  V30 5717 N 552.942 -5.54051 0.947838 0
M  V30 5718 H 545.093 -1.67738 1.30299 0
M  V30 5719 H 547.356 -0.785385 0.530918 0
M  V30 5720 H 547.062 -3.20349 1.45152 0
M  V30 5721 H 546.936 -3.76639 -0.205721 0
M  V30 5722 H 549.323 -2.87886 -0.648505 0
M  V30 5723 H 549.404 -2.33939 1.03472 0
M  V30 5724 H 549.048 -4.74905 1.80077 0
M  V30 5725 H 548.978 -5.26511 0.0970679 0
M  V30 5726 H 551.469 -3.74931 0.472773 0
M  V30 5727 H 551.782 -7.56392 1.58402 0
M  V30 5728 H 550.127 -6.80386 1.41774 0
M  V30 5729 H 553.318 -4.63293 0.669115 0
M  V30 5730 H 553.491 -6.37246 1.17563 0
M  V30 5731 N 546.897 -0.0685191 -1.57451 0
M  V30 5732 C 548.122 0.613919 -1.98106 0
M  V30 5733 C 548.547 1.62551 -0.946501 0
M  V30 5734 O 547.905 1.81085 0.0882824 0
M  V30 5735 C 547.953 1.26189 -3.378 0
M  V30 5736 O 547.057 2.37773 -3.36954 0
M  V30 5737 H 546.398 0.158163 -0.644888 0
M  V30 5738 H 548.928 -0.142063 -2.04106 0
M  V30 5739 H 548.938 1.60951 -3.74912 0
M  V30 5740 H 547.613 0.520625 -4.12629 0
M  V30 5741 H 546.19 2.04829 -3.11608 0
M  V30 5742 N 548.375 1.56261 0.205012 0
M  V30 5743 C 549.652 1.70856 0.952233 0
M  V30 5744 C 550.032 0.620501 2.01775 0
M  V30 5745 O 549.38 -0.370035 2.25484 0
M  V30 5746 C 549.59 3.12807 1.54767 0
M  V30 5747 C 550.938 3.72733 2.0336 0
M  V30 5748 O 551.962 3.15873 1.64629 0
M  V30 5749 O 550.821 4.72501 2.746 0
M  V30 5750 H 547.915 0.696496 0.445895 0
M  V30 5751 H 550.461 1.6857 0.195489 0
M  V30 5752 H 549.233 3.83465 0.779132 0
M  V30 5753 H 548.856 3.1928 2.36951 0
M  V30 5754 N 549.853 -0.472356 1.50355 0
M  V30 5755 C 551.264 -1.05326 1.54154 0
M  V30 5756 C 551.615 -1.93155 0.344303 0
M  V30 5757 O 550.74 -2.09479 -0.542928 0
M  V30 5758 C 551.335 -1.91691 2.79356 0
M  V30 5759 C 549.894 -2.44892 2.8584 0
M  V30 5760 C 549.041 -1.23205 2.48426 0
M  V30 5761 H 551.992 -0.255027 1.56637 0
M  V30 5762 H 552.013 -2.76742 2.6114 0
M  V30 5763 H 551.525 -1.27741 3.66475 0
M  V30 5764 H 549.626 -3.12399 2.0307 0
M  V30 5765 H 549.739 -2.80086 3.88701 0
M  V30 5766 H 548.103 -1.56643 2.00836 0
M  V30 5767 H 548.886 -0.609194 3.37852 0
M  V30 5768 N 551.331 -1.39911 -0.725443 0
M  V30 5769 C 552.556 -1.41137 -1.5197 0
M  V30 5770 C 552.981 -0.010262 -1.88097 0
M  V30 5771 O 552.339 0.979184 -1.52583 0
M  V30 5772 C 552.387 -2.2994 -2.77777 0
M  V30 5773 O 551.491 -1.73586 -3.74088 0
M  V30 5774 H 550.832 -0.480219 -0.458569 0
M  V30 5775 H 553.362 -1.84023 -0.894249 0
M  V30 5776 H 553.372 -2.44785 -3.26411 0
M  V30 5777 H 552.047 -3.31759 -2.50816 0
M  V30 5778 H 550.624 -1.68035 -3.32894 0
M  V30 5779 N 552.809 0.956637 -1.25245 0
M  V30 5780 C 554.055 1.70352 -1.10036 0
M  V30 5781 C 554.388 1.90869 0.358156 0
M  V30 5782 O 553.663 1.47819 1.26411 0
M  V30 5783 C 553.946 3.08766 -1.85298 0
M  V30 5784 C 553.799 2.95672 -3.38966 0
M  V30 5785 C 555.118 4.08622 -1.63451 0
M  V30 5786 H 552.237 0.618279 -0.401123 0
M  V30 5787 H 554.879 1.11212 -1.54051 0
M  V30 5788 H 553.029 3.59252 -1.47887 0
M  V30 5789 H 554.701 2.52527 -3.86041 0
M  V30 5790 H 552.944 2.31634 -3.6678 0
M  V30 5791 H 553.615 3.93776 -3.86839 0
M  V30 5792 H 556.091 3.67038 -1.96015 0
M  V30 5793 H 554.967 5.03514 -2.18551 0
M  V30 5794 H 555.228 4.3834 -0.575357 0
M  V30 5795 N 554.287 1.06798 1.15896 0
M  V30 5796 C 555.698 0.811355 1.68149 0
M  V30 5797 C 556.049 -0.664339 1.8461 0
M  V30 5798 O 555.174 -1.51485 1.54535 0
M  V30 5799 C 555.769 1.46624 3.05429 0
M  V30 5800 C 554.328 1.25726 3.54781 0
M  V30 5801 C 553.475 1.53949 2.3064 0
M  V30 5802 H 556.426 1.23078 1.00187 0
M  V30 5803 H 556.447 0.88437 3.7008 0
M  V30 5804 H 555.959 2.54025 2.93416 0
M  V30 5805 H 554.06 0.20322 3.72045 0
M  V30 5806 H 554.173 1.97354 4.36564 0
M  V30 5807 H 552.537 0.96025 2.35905 0
M  V30 5808 H 553.32 2.6252 2.2122 0
M  V30 5809 N 555.766 -1.3263 0.851289 0
M  V30 5810 C 556.713 -2.28952 0.291469 0
M  V30 5811 C 557.683 -1.54897 -0.599676 0
M  V30 5812 O 558.868 -1.83137 -0.535305 0
M  V30 5813 C 556.008 -3.41206 -0.516992 0
M  V30 5814 C 555.121 -4.30148 0.399566 0
M  V30 5815 C 554.256 -5.29527 -0.4212 0
M  V30 5816 C 553.295 -6.10112 0.492969 0
M  V30 5817 N 552.432 -7.01499 -0.290414 0
M  V30 5818 H 557.272 -2.76228 1.11813 0
M  V30 5819 H 554.809 -1.35907 0.562826 0
M  V30 5820 H 556.767 -4.05005 -1.00132 0
M  V30 5821 H 555.397 -2.9509 -1.30851 0
M  V30 5822 H 554.449 -3.66959 1.00227 0
M  V30 5823 H 555.761 -4.8649 1.1013 0
M  V30 5824 H 554.915 -5.98914 -0.968832 0
M  V30 5825 H 553.654 -4.73794 -1.15632 0
M  V30 5826 H 552.659 -5.39632 1.05251 0
M  V30 5827 H 553.884 -6.6793 1.22664 0
M  V30 5828 H 551.83 -6.48199 -1.00868 0
M  V30 5829 H 551.747 -7.55178 0.352354 0
M  V30 5830 H 553.015 -7.75176 -0.819882 0
M  V30 5831 N 557.244 -0.608902 -1.45362 0
M  V30 5832 C 558.493 -0.10218 -2.01441 0
M  V30 5833 C 558.806 1.27546 -1.48295 0
M  V30 5834 O 560.012 1.87498 -1.96359 0
M  V30 5835 C 558.468 -0.131985 -3.59658 0
M  V30 5836 C 558.076 -1.50956 -4.21801 0
M  V30 5837 C 559.82 0.319427 -4.23296 0
M  V30 5838 C 557.727 -1.49568 -5.72174 0
M  V30 5839 H 556.657 -0.0344314 -0.753213 0
M  V30 5840 H 559.308 -0.764426 -1.6682 0
M  V30 5841 H 557.69 0.596939 -3.91475 0
M  V30 5842 H 558.864 -2.26029 -4.01556 0
M  V30 5843 H 557.179 -1.90318 -3.70362 0
M  V30 5844 H 559.776 0.349013 -5.3356 0
M  V30 5845 H 560.119 1.34237 -3.94064 0
M  V30 5846 H 560.652 -0.356273 -3.96201 0
M  V30 5847 H 557.391 -2.49626 -6.06108 0
M  V30 5848 H 556.911 -0.787542 -5.94607 0
M  V30 5849 H 558.59 -1.21989 -6.35396 0
M  V30 5850 N 558.722 1.53707 -0.348139 0
M  V30 5851 C 559.968 2.01286 0.247332 0
M  V30 5852 C 560.301 1.23546 1.49834 0
M  V30 5853 O 559.576 0.324331 1.91777 0
M  V30 5854 C 559.859 3.55768 0.556858 0
M  V30 5855 C 559.712 4.44216 -0.706564 0
M  V30 5856 C 561.031 4.1841 1.3646 0
M  V30 5857 H 558.15 0.731677 0.0884201 0
M  V30 5858 H 560.792 1.84106 -0.469584 0
M  V30 5859 H 558.942 3.70539 1.16761 0
M  V30 5860 H 560.614 4.41274 -1.34444 0
M  V30 5861 H 558.857 4.12892 -1.33052 0
M  V30 5862 H 559.528 5.50202 -0.445186 0
M  V30 5863 H 562.004 4.07365 0.848113 0
M  V30 5864 H 560.88 5.26563 1.54992 0
M  V30 5865 H 561.141 3.7333 2.36805 0
M  V30 5866 N 560.2 0.0768682 1.57412 0
M  V30 5867 C 561.163 -0.873949 2.11884 0
M  V30 5868 C 562.163 -1.22301 1.04398 0
M  V30 5869 O 563.353 -1.15545 1.30365 0
M  V30 5870 C 560.485 -2.17575 2.62438 0
M  V30 5871 H 561.678 -0.401278 2.97203 0
M  V30 5872 H 559.231 -0.171904 1.55352 0
M  V30 5873 H 559.966 -2.69368 1.80587 0
M  V30 5874 H 559.751 -1.93534 3.41009 0
M  V30 5875 H 561.241 -2.85631 3.04639 0
M  V30 5876 N 561.678 -1.56367 -0.196722 0
M  V30 5877 C 562.925 -1.80529 -0.917366 0
M  V30 5878 C 563.253 -0.649817 -1.83324 0
M  V30 5879 O 562.508 0.36451 -1.92275 0
M  V30 5880 C 562.807 -3.10663 -1.767 0
M  V30 5881 C 562.473 -4.3962 -1.00225 0
M  V30 5882 C 561.135 -4.74653 -0.791095 0
M  V30 5883 C 563.487 -5.1913 -0.464035 0
M  V30 5884 C 560.815 -5.86692 -0.0302155 0
M  V30 5885 C 563.167 -6.31964 0.283625 0
M  V30 5886 C 561.831 -6.65581 0.505813 0
M  V30 5887 H 561.101 -0.660602 -0.335688 0
M  V30 5888 H 563.748 -1.90615 -0.183844 0
M  V30 5889 H 562.053 -2.95807 -2.56915 0
M  V30 5890 H 563.75 -3.26563 -2.32718 0
M  V30 5891 H 560.34 -4.12127 -1.17684 0
M  V30 5892 H 564.524 -4.9248 -0.614575 0
M  V30 5893 H 559.78 -6.11211 0.151917 0
M  V30 5894 H 563.954 -6.92791 0.708057 0
M  V30 5895 H 561.581 -7.52239 1.0973 0
M  V30 5896 N 563.156 0.464375 -1.50603 0
M  V30 5897 C 564.066 1.58723 -1.72754 0
M  V30 5898 C 565.082 1.62925 -0.610844 0
M  V30 5899 O 566.258 1.8067 -0.889963 0
M  V30 5900 C 563.323 2.94897 -1.82309 0
M  V30 5901 C 562.384 3.0103 -3.06071 0
M  V30 5902 C 561.617 4.30708 -3.1516 0
M  V30 5903 O 561.84 5.2159 -2.30868 0
M  V30 5904 O 560.774 4.42571 -4.0794 0
M  V30 5905 H 564.6 1.42954 -2.67951 0
M  V30 5906 H 562.185 0.644579 -1.3478 0
M  V30 5907 H 564.067 3.75764 -1.90735 0
M  V30 5908 H 562.742 3.10851 -0.902967 0
M  V30 5909 H 561.649 2.19217 -3.03142 0
M  V30 5910 H 562.982 2.90014 -3.97684 0
M  V30 5911 N 564.634 1.40294 0.718013 0
M  V30 5912 C 565.862 1.4175 1.50714 0
M  V30 5913 C 566.277 0.0165366 1.88793 0
M  V30 5914 O 565.634 -0.958942 1.55276 0
M  V30 5915 C 565.685 2.30598 2.784 0
M  V30 5916 O 565.406 3.6524 2.41932 0
M  V30 5917 C 566.907 2.4062 3.72313 0
M  V30 5918 H 564.127 0.483565 0.465194 0
M  V30 5919 H 566.671 1.84316 0.885889 0
M  V30 5920 H 564.826 1.91401 3.36815 0
M  V30 5921 H 565.24 4.12402 3.24076 0
M  V30 5922 H 566.714 3.07001 4.58753 0
M  V30 5923 H 567.191 1.4305 4.15251 0
M  V30 5924 H 567.797 2.80359 3.19811 0
M  V30 5925 N 566.112 -0.949982 1.2575 0
M  V30 5926 C 567.358 -1.69766 1.10938 0
M  V30 5927 C 567.691 -1.91056 -0.348028 0
M  V30 5928 O 566.966 -1.48488 -1.25625 0
M  V30 5929 C 567.249 -3.07779 1.86933 0
M  V30 5930 C 567.102 -2.9387 3.4053 0
M  V30 5931 C 568.421 -4.07749 1.65616 0
M  V30 5932 H 565.54 -0.616144 0.404396 0
M  V30 5933 H 568.182 -1.10394 1.54639 0
M  V30 5934 H 566.332 -3.58462 1.4979 0
M  V30 5935 H 568.004 -2.50476 3.87375 0
M  V30 5936 H 566.247 -2.29686 3.68004 0
M  V30 5937 H 566.918 -3.91719 3.88922 0
M  V30 5938 H 569.394 -3.65994 1.97959 0
M  V30 5939 H 568.27 -5.02348 2.21218 0
M  V30 5940 H 568.531 -4.38029 0.598595 0
M  V30 5941 N 567.59 -1.07411 -1.15328 0
M  V30 5942 C 568.54 -0.664788 -2.18093 0
M  V30 5943 C 569.524 0.310395 -1.57878 0
M  V30 5944 O 570.716 0.124026 -1.76565 0
M  V30 5945 C 567.845 -0.0647822 -3.43239 0
M  V30 5946 C 566.931 -1.06514 -4.10506 0
M  V30 5947 N 567.322 -2.24491 -4.53252 0
M  V30 5948 C 565.62 -0.898613 -4.36853 0
M  V30 5949 C 566.321 -2.8796 -5.05424 0
M  V30 5950 N 565.297 -2.15622 -4.99007 0
M  V30 5951 H 569.099 -1.56333 -2.48872 0
M  V30 5952 H 566.613 -0.947393 -1.31902 0
M  V30 5953 H 568.61 0.246363 -4.16171 0
M  V30 5954 H 567.27 0.828866 -3.13943 0
M  V30 5955 H 568.281 -2.62205 -4.46619 0
M  V30 5956 H 564.958 -0.0579118 -4.1746 0
M  V30 5957 H 566.348 -3.88137 -5.48452 0
M  V30 5958 N 569.068 1.32177 -0.85831 0
M  V30 5959 C 570.293 2.01847 -0.476718 0
M  V30 5960 C 570.718 1.64065 0.920021 0
M  V30 5961 O 570.076 0.843189 1.60499 0
M  V30 5962 C 570.124 3.55097 -0.627578 0
M  V30 5963 O 569.228 4.11012 0.338086 0
M  V30 5964 H 568.569 0.635907 -0.191099 0
M  V30 5965 H 571.099 1.68641 -1.15851 0
M  V30 5966 H 571.109 4.04718 -0.516476 0
M  V30 5967 H 569.784 3.81938 -1.64609 0
M  V30 5968 H 568.361 3.72451 0.182917 0
M  V30 5969 N 570.547 0.616602 1.45037 0
M  V30 5970 C 571.48 -0.145984 2.27733 0
M  V30 5971 C 572.458 -0.865108 1.37676 0
M  V30 5972 O 573.642 -0.872152 1.6711 0
M  V30 5973 C 570.769 -1.2122 3.16265 0
M  V30 5974 C 569.815 -0.595218 4.22326 0
M  V30 5975 S 570.648 0.603744 5.32086 0
M  V30 5976 C 571.804 -0.462842 6.24186 0
M  V30 5977 H 572.037 0.555591 2.92062 0
M  V30 5978 H 569.57 0.404364 1.49011 0
M  V30 5979 H 571.528 -1.82247 3.67827 0
M  V30 5980 H 570.189 -1.88589 2.51183 0
M  V30 5981 H 569.382 -1.39775 4.8423 0
M  V30 5982 H 568.984 -0.0598965 3.73952 0
M  V30 5983 H 571.276 -1.33945 6.64127 0
M  V30 5984 H 572.219 0.120259 7.07998 0
M  V30 5985 H 572.627 -0.782219 5.59054 0
M  V30 5986 N 572.025 -1.5352 0.356285 0
M  V30 5987 C 573.302 -1.93405 -0.292223 0
M  V30 5988 C 573.682 -1.28901 -1.67176 0
M  V30 5989 O 573.03 -0.444632 -2.24132 0
M  V30 5990 C 573.24 -3.47223 -0.35175 0
M  V30 5991 C 574.588 -4.20389 -0.596534 0
M  V30 5992 O 575.612 -3.53554 -0.433344 0
M  V30 5993 O 574.471 -5.3881 -0.913589 0
M  V30 5994 H 571.565 -0.808666 -0.173172 0
M  V30 5995 H 574.111 -1.64713 0.408391 0
M  V30 5996 H 572.883 -3.86423 0.615841 0
M  V30 5997 H 572.506 -3.8212 -1.09864 0
M  V30 5998 N 573.503 -0.0852151 -1.57369 0
M  V30 5999 C 574.751 0.579658 -1.93609 0
M  V30 6000 C 575.072 1.69332 -0.967043 0
M  V30 6001 O 574.342 1.95892 -0.0174215 0
M  V30 6002 H 572.922 0.217113 -0.714752 0
M  V30 6003 H 575.584 -0.146226 -1.94351 0
M  V30 6004 H 574.68 0.996276 -2.95771 0
M  V30 6005 N 574.981 1.5647 0.188427 0
M  V30 6006 C 575.944 1.9421 1.21718 0
M  V30 6007 C 576.944 0.823901 1.38089 0
M  V30 6008 O 578.134 1.09122 1.35787 0
M  V30 6009 C 575.266 2.22197 2.58537 0
M  V30 6010 H 576.459 2.86252 0.894418 0
M  V30 6011 H 574.012 1.50263 0.430211 0
M  V30 6012 H 574.747 1.32814 2.95856 0
M  V30 6013 H 574.532 3.03688 2.48025 0
M  V30 6014 H 576.022 2.52376 3.3271 0
M  V30 6015 N 576.459 -0.456382 1.50847 0
M  V30 6016 C 577.705 -1.20914 1.62811 0
M  V30 6017 C 578.038 -1.91301 0.334304 0
M  V30 6018 O 577.313 -1.82775 -0.665098 0
M  V30 6019 C 577.596 -2.24122 2.81853 0
M  V30 6020 C 577.449 -1.57944 4.21158 0
M  V30 6021 C 578.768 -3.25295 2.96431 0
M  V30 6022 H 575.887 -0.438233 0.592554 0
M  V30 6023 H 578.529 -0.50091 1.83278 0
M  V30 6024 H 576.679 -2.84524 2.64534 0
M  V30 6025 H 578.351 -1.01025 4.50102 0
M  V30 6026 H 576.594 -0.882185 4.24735 0
M  V30 6027 H 577.265 -2.33014 5.00408 0
M  V30 6028 H 579.741 -2.7493 3.12335 0
M  V30 6029 H 578.617 -3.94822 3.81322 0
M  V30 6030 H 578.878 -3.90286 2.07676 0
M  V30 6031 N 577.937 -1.40673 -0.710563 0
M  V30 6032 C 579.177 -1.40677 -1.48288 0
M  V30 6033 C 579.541 -0.0097193 -1.91998 0
M  V30 6034 O 580.742 0.115381 -2.68552 0
M  V30 6035 C 579.013 -2.37289 -2.67262 0
M  V30 6036 S 580.572 -2.55694 -3.56603 0
M  V30 6037 H 577.39 -0.498545 -0.506926 0
M  V30 6038 H 579.992 -1.76984 -0.830472 0
M  V30 6039 H 578.696 -3.37617 -2.3333 0
M  V30 6040 H 578.227 -2.02282 -3.3741 0
M  V30 6041 H 580.242 -1.81311 -4.61888 0
M  V30 6042 N 579.415 0.9433 -1.26252 0
M  V30 6043 C 580.826 1.50404 -1.10614 0
M  V30 6044 C 581.177 1.93666 0.31429 0
M  V30 6045 O 580.302 1.79709 1.20555 0
M  V30 6046 C 580.897 2.73336 -2.00182 0
M  V30 6047 C 579.456 3.25686 -1.88695 0
M  V30 6048 C 578.603 1.98474 -1.93658 0
M  V30 6049 H 581.554 0.759006 -1.39373 0
M  V30 6050 H 581.575 3.47567 -1.54847 0
M  V30 6051 H 581.087 2.41818 -3.03555 0
M  V30 6052 H 579.188 3.61998 -0.882489 0
M  V30 6053 H 579.301 3.92935 -2.74115 0
M  V30 6054 H 577.665 2.14278 -1.37684 0
M  V30 6055 H 578.448 1.6929 -2.98657 0
M  V30 6056 N 580.893 1.08022 1.14757 0
M  V30 6057 C 581.823 0.728248 2.21853 0
M  V30 6058 C 582.804 -0.287486 1.67653 0
M  V30 6059 O 583.989 -0.158727 1.9355 0
M  V30 6060 C 581.119 0.132549 3.47047 0
M  V30 6061 C 580.073 1.07619 4.14249 0
M  V30 6062 C 579.399 0.342907 5.33599 0
M  V30 6063 C 580.699 2.41268 4.63235 0
M  V30 6064 H 582.393 1.62365 2.51551 0
M  V30 6065 H 579.939 0.782125 1.20908 0
M  V30 6066 H 581.892 -0.125665 4.21213 0
M  V30 6067 H 580.616 -0.797971 3.16702 0
M  V30 6068 H 579.275 1.31944 3.42033 0
M  V30 6069 H 578.923 -0.59129 4.99513 0
M  V30 6070 H 578.623 0.971955 5.79506 0
M  V30 6071 H 580.147 0.0926538 6.1053 0
M  V30 6072 H 581.561 2.21232 5.28894 0
M  V30 6073 H 579.958 2.9983 5.19829 0
M  V30 6074 H 581.028 3.03079 3.78512 0
M  V30 6075 N 582.371 -1.3172 0.865308 0
M  V30 6076 C 583.281 -2.32394 0.320935 0
M  V30 6077 C 584.297 -1.64511 -0.566746 0
M  V30 6078 O 585.473 -1.95969 -0.464575 0
M  V30 6079 C 582.538 -3.43462 -0.472701 0
M  V30 6080 C 581.599 -4.27015 0.442385 0
M  V30 6081 C 580.832 -5.32779 -0.313469 0
M  V30 6082 O 581.055 -5.49158 -1.54214 0
M  V30 6083 O 579.989 -6.01015 0.326257 0
M  V30 6084 H 583.815 -2.80868 1.15528 0
M  V30 6085 H 581.4 -1.35535 0.628545 0
M  V30 6086 H 583.282 -4.11172 -0.922781 0
M  V30 6087 H 581.957 -2.97159 -1.28367 0
M  V30 6088 H 580.864 -3.62075 0.940866 0
M  V30 6089 H 582.197 -4.76871 1.21882 0
M  V30 6090 N 583.85 -0.624285 -1.44708 0
M  V30 6091 C 584.76 0.0861083 -2.34442 0
M  V30 6092 C 585.776 0.84291 -1.5222 0
M  V30 6093 O 586.952 0.796723 -1.84971 0
M  V30 6094 C 584.017 1.05999 -3.30099 0
M  V30 6095 C 583.077 0.303316 -4.28227 0
M  V30 6096 C 582.311 1.23081 -5.19314 0
M  V30 6097 O 582.534 2.46929 -5.14181 0
M  V30 6098 O 581.468 0.71883 -5.97592 0
M  V30 6099 H 585.293 -0.651756 -2.96624 0
M  V30 6100 H 582.879 -0.384493 -1.44368 0
M  V30 6101 H 584.76 1.62046 -3.88997 0
M  V30 6102 H 583.436 1.77859 -2.70459 0
M  V30 6103 H 582.343 -0.300033 -3.72895 0
M  V30 6104 H 583.676 -0.375123 -4.90768 0
M  V30 6105 N 585.328 1.53329 -0.364422 0
M  V30 6106 C 586.258 2.28627 0.474543 0
M  V30 6107 C 587.239 1.31009 1.08492 0
M  V30 6108 O 588.424 1.59878 1.10239 0
M  V30 6109 C 585.554 3.07465 1.61501 0
M  V30 6110 C 584.508 4.1276 1.13194 0
M  V30 6111 C 583.834 4.79674 2.36255 0
M  V30 6112 C 585.134 5.21847 0.217507 0
M  V30 6113 H 586.828 2.99005 -0.153656 0
M  V30 6114 H 584.374 1.43803 -0.0753406 0
M  V30 6115 H 586.327 3.58889 2.20855 0
M  V30 6116 H 585.051 2.34775 2.27042 0
M  V30 6117 H 583.71 3.62281 0.56109 0
M  V30 6118 H 583.358 4.03557 3.00251 0
M  V30 6119 H 583.058 5.50827 2.04606 0
M  V30 6120 H 584.582 5.33892 2.96297 0
M  V30 6121 H 585.996 5.6878 0.718493 0
M  V30 6122 H 584.393 6.00099 -0.00806408 0
M  V30 6123 H 585.463 4.7921 -0.740653 0
M  V30 6124 N 586.806 0.0935595 1.57322 0
M  V30 6125 C 588.046 -0.573901 1.96178 0
M  V30 6126 C 588.41 -1.65445 0.97426 0
M  V30 6127 O 589.611 -2.37901 1.25126 0
M  V30 6128 C 587.882 -1.11612 3.39526 0
M  V30 6129 S 589.441 -1.79566 4.00377 0
M  V30 6130 H 586.259 -0.187315 0.685882 0
M  V30 6131 H 588.861 0.172597 1.94737 0
M  V30 6132 H 587.565 -0.31815 4.09165 0
M  V30 6133 H 587.096 -1.89848 3.4456 0
M  V30 6134 H 589.111 -3.07978 3.89056 0
M  V30 6135 N 588.284 -1.56567 -0.180126 0
M  V30 6136 C 589.561 -1.7235 -0.924931 0
M  V30 6137 C 589.941 -0.652523 -2.00762 0
M  V30 6138 O 589.289 0.334115 -2.26044 0
M  V30 6139 C 589.499 -3.1523 -1.49771 0
M  V30 6140 C 590.847 -3.75921 -1.97405 0
M  V30 6141 O 591.871 -3.18452 -1.59583 0
M  V30 6142 O 590.73 -4.7681 -2.67048 0
M  V30 6143 H 587.824 -0.703502 -0.434758 0
M  V30 6144 H 590.37 -1.6886 -0.168647 0
M  V30 6145 H 589.142 -3.84656 -0.718027 0
M  V30 6146 H 588.765 -3.23009 -2.31842 0
M  V30 6147 N 589.762 0.448376 -1.51087 0
M  V30 6148 C 591.008 1.20049 -1.6345 0
M  V30 6149 C 591.341 1.91121 -0.344444 0
M  V30 6150 O 590.616 1.83125 0.655396 0
M  V30 6151 C 590.899 2.22624 -2.83038 0
M  V30 6152 C 590.752 1.55708 -4.21989 0
M  V30 6153 C 592.071 3.23718 -2.98152 0
M  V30 6154 H 589.19 0.435085 -0.59487 0
M  V30 6155 H 591.832 0.491183 -1.83541 0
M  V30 6156 H 589.982 2.83117 -2.66039 0
M  V30 6157 H 591.654 0.986367 -4.50631 0
M  V30 6158 H 589.897 0.859647 -4.25197 0
M  V30 6159 H 590.568 2.30357 -5.01637 0
M  V30 6160 H 593.044 2.73269 -3.13788 0
M  V30 6161 H 591.92 3.92795 -3.83411 0
M  V30 6162 H 592.181 3.89179 -2.09743 0
M  V30 6163 N 591.24 1.41047 0.703093 0
M  V30 6164 C 592.203 1.42036 1.79884 0
M  V30 6165 C 593.203 0.312153 1.57741 0
M  V30 6166 O 594.393 0.571672 1.64553 0
M  V30 6167 C 591.525 1.22437 3.18154 0
M  V30 6168 H 592.718 2.39572 1.80403 0
M  V30 6169 H 590.271 1.27079 0.909977 0
M  V30 6170 H 591.006 0.257112 3.23279 0
M  V30 6171 H 590.791 2.02723 3.35627 0
M  V30 6172 H 592.281 1.25946 3.98155 0
M  V30 6173 N 592.718 -0.936591 1.26751 0
M  V30 6174 C 593.668 -2.0219 1.05371 0
M  V30 6175 C 594.652 -1.60893 -0.0154112 0
M  V30 6176 O 595.844 -1.75843 0.202085 0
M  V30 6177 C 592.973 -3.36222 0.693541 0
M  V30 6178 C 592.059 -3.8399 1.80035 0
M  V30 6179 N 592.45 -4.0436 3.03852 0
M  V30 6180 C 590.748 -4.12945 1.685 0
M  V30 6181 C 591.449 -4.44 3.75818 0
M  V30 6182 N 590.425 -4.50966 3.03531 0
M  V30 6183 H 594.227 -2.15958 1.99347 0
M  V30 6184 H 591.741 -1.12277 1.17335 0
M  V30 6185 H 593.738 -4.13625 0.521513 0
M  V30 6186 H 592.398 -3.23821 -0.238693 0
M  V30 6187 H 593.409 -3.9092 3.39709 0
M  V30 6188 H 590.086 -4.09308 0.822986 0
M  V30 6189 H 591.476 -4.67914 4.82189 0
M  V30 6190 N 594.196 -1.08629 -1.14182 0
M  V30 6191 C 595.106 -0.730126 -2.22949 0
M  V30 6192 C 596.122 0.26436 -1.7198 0
M  V30 6193 O 597.298 0.107742 -2.01112 0
M  V30 6194 C 594.363 -0.147227 -3.46387 0
M  V30 6195 C 593.424 -1.19662 -4.12286 0
M  V30 6196 C 592.657 -0.641437 -5.29831 0
M  V30 6197 O 592.88 0.538351 -5.67854 0
M  V30 6198 O 591.814 -1.39257 -5.85569 0
M  V30 6199 H 595.64 -1.63753 -2.55771 0
M  V30 6200 H 593.225 -0.860118 -1.22157 0
M  V30 6201 H 595.107 0.174923 -4.21037 0
M  V30 6202 H 593.782 0.733304 -3.15285 0
M  V30 6203 H 592.689 -1.57133 -3.395 0
M  V30 6204 H 594.022 -2.0495 -4.475 0
M  V30 6205 N 595.674 1.31259 -0.872281 0
M  V30 6206 C 596.921 1.96622 -0.484365 0
M  V30 6207 C 597.249 1.68939 0.963841 0
M  V30 6208 O 596.504 0.97974 1.6941 0
M  V30 6209 C 596.803 3.50659 -0.690889 0
M  V30 6210 C 596.469 3.98366 -2.11224 0
M  V30 6211 C 595.131 4.11104 -2.50094 0
M  V30 6212 C 597.483 4.23425 -3.0391 0
M  V30 6213 C 594.811 4.46254 -3.80887 0
M  V30 6214 C 597.163 4.60039 -4.3422 0
M  V30 6215 C 595.827 4.70984 -4.73001 0
M  V30 6216 H 595.097 0.71949 -0.177242 0
M  V30 6217 H 597.744 1.56353 -1.10571 0
M  V30 6218 H 596.049 3.91798 0.0135782 0
M  V30 6219 H 597.746 3.99284 -0.370534 0
M  V30 6220 H 594.336 3.88949 -1.80047 0
M  V30 6221 H 598.52 4.13075 -2.75104 0
M  V30 6222 H 593.776 4.52926 -4.10692 0
M  V30 6223 H 597.95 4.78381 -5.06088 0
M  V30 6224 H 595.577 4.97977 -5.7439 0
M  V30 6225 N 597.152 0.631951 1.44375 0
M  V30 6226 C 598.4 0.136497 2.01639 0
M  V30 6227 C 598.721 -1.24637 1.49969 0
M  V30 6228 O 597.991 -1.82827 0.70363 0
M  V30 6229 H 596.571 0.0474703 0.74549 0
M  V30 6230 H 599.233 0.818837 1.76865 0
M  V30 6231 H 598.329 0.104817 3.11924 0
M  V30 6232 N 598.631 -1.53133 0.372548 0
M  V30 6233 C 599.594 -2.24569 -0.458389 0
M  V30 6234 C 600.594 -1.25603 -1.00402 0
M  V30 6235 O 601.784 -1.49827 -0.888672 0
M  V30 6236 C 598.916 -2.98783 -1.6414 0
M  V30 6237 H 600.109 -2.99436 0.166799 0
M  V30 6238 H 597.662 -1.55805 0.124357 0
M  V30 6239 H 598.397 -2.28176 -2.30448 0
M  V30 6240 H 598.182 -3.71404 -1.25704 0
M  V30 6241 H 599.672 -3.53068 -2.23008 0
M  V30 6242 N 600.109 -0.101901 -1.5727 0
M  V30 6243 C 601.358 0.559922 -1.93772 0
M  V30 6244 C 601.671 1.68913 -0.98629 0
M  V30 6245 O 602.877 2.41256 -1.24529 0
M  V30 6246 C 601.333 1.04739 -3.44322 0
M  V30 6247 C 600.941 -0.05243 -4.47969 0
M  V30 6248 C 602.685 1.68157 -3.89774 0
M  V30 6249 C 600.592 0.450781 -5.8968 0
M  V30 6250 H 599.522 0.212931 -0.723309 0
M  V30 6251 H 602.173 -0.179001 -1.82625 0
M  V30 6252 H 600.555 1.84021 -3.50645 0
M  V30 6253 H 601.729 -0.828157 -4.53297 0
M  V30 6254 H 600.044 -0.592202 -4.12167 0
M  V30 6255 H 602.641 2.0689 -4.93052 0
M  V30 6256 H 602.984 2.55338 -3.28798 0
M  V30 6257 H 603.517 0.954453 -3.8618 0
M  V30 6258 H 600.256 -0.38458 -6.54371 0
M  V30 6259 H 599.776 1.19336 -5.87809 0
M  V30 6260 H 601.455 0.917555 -6.40461 0
M  V30 6261 N 601.587 1.56661 0.17182 0
M  V30 6262 C 602.815 1.861 0.904115 0
M  V30 6263 C 603.23 0.687227 1.75848 0
M  V30 6264 O 602.587 -0.343671 1.79235 0
M  V30 6265 C 602.638 3.14568 1.78127 0
M  V30 6266 O 602.359 4.27422 0.961366 0
M  V30 6267 C 603.86 3.5735 2.62327 0
M  V30 6268 H 601.08 0.617445 0.262684 0
M  V30 6269 H 603.624 2.03775 0.172068 0
M  V30 6270 H 601.779 2.98721 2.46666 0
M  V30 6271 H 602.193 5.00725 1.56123 0
M  V30 6272 H 603.667 4.50144 3.1949 0
M  V30 6273 H 604.144 2.81445 3.37173 0
M  V30 6274 H 604.75 3.75807 1.99121 0
M  V30 6275 N 603.065 -0.440357 1.51323 0
M  V30 6276 C 604.312 -1.19004 1.63842 0
M  V30 6277 C 604.64 -1.91266 0.35321 0
M  V30 6278 O 603.895 -1.84143 -0.662565 0
M  V30 6279 C 604.194 -2.2339 2.78984 0
M  V30 6280 C 603.86 -1.68162 4.18369 0
M  V30 6281 C 602.522 -1.52823 4.56288 0
M  V30 6282 C 604.874 -1.27524 5.05358 0
M  V30 6283 C 602.202 -0.953157 5.78906 0
M  V30 6284 C 604.554 -0.714474 6.28552 0
M  V30 6285 C 603.218 -0.547961 6.65247 0
M  V30 6286 H 602.488 -0.435468 0.59954 0
M  V30 6287 H 605.135 -0.481538 1.85347 0
M  V30 6288 H 603.44 -3.00267 2.51688 0
M  V30 6289 H 605.137 -2.81211 2.85869 0
M  V30 6290 H 601.727 -1.81077 3.8847 0
M  V30 6291 H 605.911 -1.38197 4.76671 0
M  V30 6292 H 601.167 -0.811882 6.05986 0
M  V30 6293 H 605.341 -0.391059 6.95301 0
M  V30 6294 H 602.968 -0.100222 7.60134 0
M  V30 6295 N 604.543 -1.41418 -0.695603 0
M  V30 6296 C 605.789 -1.40982 -1.4578 0
M  V30 6297 C 606.122 -0.0187763 -1.94191 0
M  V30 6298 O 605.397 0.95346 -1.69527 0
M  V30 6299 C 605.68 -2.41657 -2.66972 0
M  V30 6300 C 605.533 -3.89869 -2.24327 0
M  V30 6301 C 606.852 -2.39589 -3.69168 0
M  V30 6302 H 603.971 -0.513405 -0.528757 0
M  V30 6303 H 606.613 -1.72693 -0.792275 0
M  V30 6304 H 604.763 -2.14746 -3.23754 0
M  V30 6305 H 606.435 -4.27683 -1.72872 0
M  V30 6306 H 604.678 -4.04737 -1.56111 0
M  V30 6307 H 605.349 -4.55857 -3.11285 0
M  V30 6308 H 607.825 -2.63471 -3.2206 0
M  V30 6309 H 606.701 -3.12044 -4.51575 0
M  V30 6310 H 606.962 -1.41447 -4.18862 0
M  V30 6311 N 606.021 0.929856 -1.27246 0
M  V30 6312 C 607.298 1.65544 -1.04186 0
M  V30 6313 C 607.678 2.06796 0.424097 0
M  V30 6314 O 607.026 1.80053 1.40688 0
M  V30 6315 C 607.236 2.85912 -2.00138 0
M  V30 6316 C 608.584 3.57305 -2.29387 0
M  V30 6317 O 609.608 2.96036 -1.98094 0
M  V30 6318 O 608.467 4.67688 -2.82719 0
M  V30 6319 H 605.561 0.725473 -0.397011 0
M  V30 6320 H 608.107 0.980583 -1.38501 0
M  V30 6321 H 606.879 2.52403 -2.99013 0
M  V30 6322 H 606.502 3.61118 -1.66371 0
M  V30 6323 N 607.499 1.09233 1.13605 0
M  V30 6324 C 608.409 0.741939 2.22559 0
M  V30 6325 C 609.425 -0.255236 1.72118 0
M  V30 6326 O 610.601 -0.0970747 2.01166 0
M  V30 6327 C 607.666 0.165595 3.46304 0
M  V30 6328 C 606.727 1.21846 4.11645 0
M  V30 6329 C 605.96 0.669526 5.29484 0
M  V30 6330 O 606.183 -0.508228 5.68131 0
M  V30 6331 O 605.117 1.42361 5.84822 0
M  V30 6332 H 608.943 1.65107 2.54899 0
M  V30 6333 H 606.528 0.866584 1.21699 0
M  V30 6334 H 608.41 -0.152592 4.21124 0
M  V30 6335 H 607.085 -0.716573 3.15669 0
M  V30 6336 H 605.992 1.58931 3.38662 0
M  V30 6337 H 607.325 2.07321 4.46407 0
M  V30 6338 N 608.977 -1.30795 0.87923 0
M  V30 6339 C 610.223 -1.96653 0.495519 0
M  V30 6340 C 610.556 -1.69282 -0.951703 0
M  V30 6341 O 609.831 -0.994374 -1.6716 0
M  V30 6342 C 610.114 -3.51898 0.764174 0
M  V30 6343 C 609.967 -3.88808 2.2616 0
M  V30 6344 C 611.286 -4.39462 0.236825 0
M  V30 6345 H 608.405 -0.7143 0.181507 0
M  V30 6346 H 611.047 -1.54765 1.10217 0
M  V30 6347 H 609.197 -3.87709 0.247841 0
M  V30 6348 H 610.869 -3.63051 2.8459 0
M  V30 6349 H 609.112 -3.37082 2.73053 0
M  V30 6350 H 609.783 -4.97086 2.4002 0
M  V30 6351 H 612.259 -4.10528 0.678683 0
M  V30 6352 H 611.135 -5.47018 0.454176 0
M  V30 6353 H 611.396 -4.33621 -0.861683 0
M  V30 6354 N 610.455 -0.639598 -1.44038 0
M  V30 6355 C 611.405 0.0823038 -2.27851 0
M  V30 6356 C 612.389 0.807991 -1.39141 0
M  V30 6357 O 613.581 0.692702 -1.62882 0
M  V30 6358 C 610.71 1.05742 -3.26609 0
M  V30 6359 C 609.796 0.330911 -4.22807 0
M  V30 6360 N 610.187 -0.645126 -5.01669 0
M  V30 6361 C 608.485 0.574214 -4.42288 0
M  V30 6362 C 609.186 -1.07513 -5.71678 0
M  V30 6363 N 608.162 -0.412164 -5.42035 0
M  V30 6364 H 611.964 -0.666861 -2.86234 0
M  V30 6365 H 609.478 -0.465777 -1.55577 0
M  V30 6366 H 611.475 1.58927 -3.85419 0
M  V30 6367 H 610.135 1.80679 -2.69787 0
M  V30 6368 H 611.146 -1.02329 -5.0769 0
M  V30 6369 H 607.823 1.30581 -3.96554 0
M  V30 6370 H 609.213 -1.88196 -6.45005 0
M  V30 6371 N 611.933 1.52934 -0.380664 0
M  V30 6372 C 612.896 2.24809 0.446473 0
M  V30 6373 C 613.896 1.26133 0.997347 0
M  V30 6374 O 615.086 1.50297 0.880714 0
M  V30 6375 C 612.218 2.99649 1.62553 0
M  V30 6376 H 613.411 2.99343 -0.182677 0
M  V30 6377 H 610.964 1.55736 -0.132618 0
M  V30 6378 H 611.699 2.29395 2.29235 0
M  V30 6379 H 611.484 3.72066 1.23732 0
M  V30 6380 H 612.974 3.54246 2.21133 0
M  V30 6381 N 613.412 0.11024 1.57214 0
M  V30 6382 C 614.658 -0.550684 1.9518 0
M  V30 6383 C 614.991 -1.66885 0.993122 0
M  V30 6384 O 614.266 -1.94479 0.0287907 0
M  V30 6385 C 614.549 -1.09163 3.43155 0
M  V30 6386 C 614.402 0.0225198 4.49794 0
M  V30 6387 C 615.721 -1.98527 3.92778 0
M  V30 6388 H 612.84 -0.198706 0.709708 0
M  V30 6389 H 615.482 0.184024 1.89107 0
M  V30 6390 H 613.632 -1.71775 3.48462 0
M  V30 6391 H 615.304 0.657443 4.56591 0
M  V30 6392 H 613.547 0.686868 4.28328 0
M  V30 6393 H 614.218 -0.39706 5.5057 0
M  V30 6394 H 616.694 -1.458 3.8972 0
M  V30 6395 H 615.57 -2.33298 4.96853 0
M  V30 6396 H 615.831 -2.90846 3.32958 0
M  V30 6397 N 614.89 -1.56749 -0.16351 0
M  V30 6398 C 616.138 -1.82074 -0.87713 0
M  V30 6399 C 616.459 -0.688503 -1.82441 0
M  V30 6400 O 615.729 0.291085 -1.93725 0
M  V30 6401 H 614.309 -0.671677 -0.326893 0
M  V30 6402 H 616.971 -1.9423 -0.161459 0
M  V30 6403 H 616.067 -2.76407 -1.44934 0
M  V30 6404 N 616.368 0.432326 -1.51554 0
M  V30 6405 C 617.298 1.53242 -1.76179 0
M  V30 6406 C 618.279 1.58717 -0.611801 0
M  V30 6407 O 619.464 1.74364 -0.855033 0
M  V30 6408 C 616.594 2.91278 -1.89141 0
M  V30 6409 C 615.548 3.00663 -3.04608 0
M  V30 6410 C 614.874 4.40728 -3.02759 0
M  V30 6411 C 616.174 2.74281 -4.44485 0
M  V30 6412 H 617.868 1.32886 -2.68294 0
M  V30 6413 H 615.414 0.637841 -1.29103 0
M  V30 6414 H 617.367 3.68203 -2.04951 0
M  V30 6415 H 616.091 3.12877 -0.936785 0
M  V30 6416 H 614.75 2.26179 -2.88511 0
M  V30 6417 H 614.398 4.59301 -2.05065 0
M  V30 6418 H 614.098 4.47936 -3.80299 0
M  V30 6419 H 615.622 5.19619 -3.20669 0
M  V30 6420 H 617.036 3.40936 -4.60907 0
M  V30 6421 H 615.433 2.92893 -5.23769 0
M  V30 6422 H 616.503 1.69856 -4.54177 0
M  V30 6423 N 617.846 1.41785 0.688094 0
M  V30 6424 C 619.076 1.44705 1.47459 0
M  V30 6425 C 619.484 0.052916 1.89126 0
M  V30 6426 O 618.827 -0.939781 1.57841 0
M  V30 6427 C 618.889 2.29935 2.76352 0
M  V30 6428 C 618.553 3.77996 2.56843 0
M  V30 6429 C 619.55 4.69976 2.22304 0
M  V30 6430 C 617.235 4.2212 2.7225 0
M  V30 6431 C 619.229 6.04068 2.03421 0
M  V30 6432 C 616.916 5.56275 2.52985 0
M  V30 6433 C 617.914 6.47065 2.18621 0
M  V30 6434 O 617.602 7.78744 1.9953 0
M  V30 6435 H 617.334 0.494703 0.460701 0
M  V30 6436 H 619.888 1.86802 0.854057 0
M  V30 6437 H 618.118 1.82664 3.40839 0
M  V30 6438 H 619.807 2.24467 3.38186 0
M  V30 6439 H 620.573 4.37175 2.10008 0
M  V30 6440 H 616.452 3.51752 2.97979 0
M  V30 6441 H 619.996 6.74897 1.76523 0
M  V30 6442 H 615.893 5.88653 2.64873 0
M  V30 6443 H 616.661 7.89966 2.14234 0
M  V30 6444 N 619.324 -0.923095 1.27737 0
M  V30 6445 C 620.572 -1.66797 1.14119 0
M  V30 6446 C 620.893 -1.92479 -0.312541 0
M  V30 6447 O 620.163 -1.53432 -1.218 0
M  V30 6448 H 618.743 -0.618196 0.419336 0
M  V30 6449 H 621.405 -1.10815 1.60331 0
M  V30 6450 H 620.501 -2.63424 1.67374 0
M  V30 6451 N 620.802 -1.09834 -1.13024 0
M  V30 6452 C 621.765 -0.745058 -2.16752 0
M  V30 6453 C 622.765 0.227435 -1.59183 0
M  V30 6454 O 623.955 0.0050786 -1.74199 0
M  V30 6455 C 621.087 -0.102543 -3.40746 0
M  V30 6456 H 622.28 -1.66375 -2.49518 0
M  V30 6457 H 619.833 -0.898061 -1.27924 0
M  V30 6458 H 620.568 0.827177 -3.13573 0
M  V30 6459 H 620.353 -0.80235 -3.83803 0
M  V30 6460 H 621.843 0.129082 -4.174 0
M  V30 6461 N 622.28 1.30327 -0.886154 0
M  V30 6462 C 623.696 1.48676 -0.580323 0
M  V30 6463 C 623.896 1.81189 0.881639 0
M  V30 6464 O 622.952 1.90021 1.66278 0
M  V30 6465 C 624.265 2.60932 -1.49449 0
M  V30 6466 C 625.813 2.74812 -1.49824 0
M  V30 6467 C 626.288 3.90183 -2.39836 0
M  V30 6468 N 627.779 3.97495 -2.37806 0
M  V30 6469 C 628.514 4.86078 -3.04165 0
M  V30 6470 N 628.01 5.79448 -3.79753 0
M  V30 6471 N 629.803 4.79456 -2.93391 0
M  V30 6472 H 621.954 1.07495 -1.8319 0
M  V30 6473 H 624.217 0.532661 -0.784204 0
M  V30 6474 H 623.923 2.43731 -2.5355 0
M  V30 6475 H 623.797 3.57437 -1.20494 0
M  V30 6476 H 626.184 2.91418 -0.464731 0
M  V30 6477 H 626.265 1.78924 -1.82811 0
M  V30 6478 H 625.909 3.74334 -3.43273 0
M  V30 6479 H 625.839 4.85411 -2.04166 0
M  V30 6480 H 628.33 3.30703 -1.82877 0
M  V30 6481 H 628.643 6.43805 -4.27475 0
M  V30 6482 H 626.988 5.79376 -3.8386 0
M  V30 6483 H 630.179 4.05494 -2.33864 0
M  V30 6484 H 630.352 5.48283 -3.45383 0
M  V30 6485 N 623.758 0.647228 1.43697 0
M  V30 6486 C 625.006 0.157876 2.01482 0
M  V30 6487 C 625.327 -1.23039 1.51282 0
M  V30 6488 O 624.597 -1.82071 0.722982 0
M  V30 6489 H 623.177 0.0553745 0.744945 0
M  V30 6490 H 625.839 0.83755 1.75986 0
M  V30 6491 H 624.935 0.137895 3.11795 0
M  V30 6492 N 625.236 -1.5273 0.388769 0
M  V30 6493 C 626.484 -2.01174 -0.193208 0
M  V30 6494 C 626.805 -1.27705 -1.47365 0
M  V30 6495 O 626.075 -0.396966 -1.91836 0
M  V30 6496 H 624.655 -0.743287 -0.0743871 0
M  V30 6497 H 627.317 -1.87826 0.520336 0
M  V30 6498 H 626.413 -3.09477 -0.403803 0
M  V30 6499 N 626.714 -0.118576 -1.57153 0
M  V30 6500 C 627.962 0.538461 -1.94795 0
M  V30 6501 C 628.283 1.67243 -1.00274 0
M  V30 6502 O 627.553 1.95811 -0.0589692 0
M  V30 6503 H 626.133 0.201904 -0.719197 0
M  V30 6504 H 628.795 -0.187418 -1.93997 0
M  V30 6505 H 627.891 0.933315 -2.97818 0
M  V30 6506 N 628.193 1.56834 0.155195 0
M  V30 6507 C 629.442 1.82088 0.867567 0
M  V30 6508 C 629.755 0.69849 1.82703 0
M  V30 6509 O 630.961 0.836407 2.58295 0
M  V30 6510 C 629.417 3.22707 1.59336 0
M  V30 6511 C 629.025 4.42859 0.676719 0
M  V30 6512 C 630.769 3.57242 2.293 0
M  V30 6513 C 628.676 5.74501 1.40367 0
M  V30 6514 H 627.606 0.679057 0.327715 0
M  V30 6515 H 630.257 1.83105 0.120351 0
M  V30 6516 H 628.639 3.16054 2.38591 0
M  V30 6517 H 629.813 4.60731 -0.0800196 0
M  V30 6518 H 628.128 4.16311 0.0859129 0
M  V30 6519 H 630.725 4.52847 2.84312 0
M  V30 6520 H 631.068 2.82901 3.05406 0
M  V30 6521 H 631.601 3.6552 1.56972 0
M  V30 6522 H 628.34 6.51915 0.684623 0
M  V30 6523 H 627.86 5.60579 2.13332 0
M  V30 6524 H 629.539 6.17016 1.94681 0
M  V30 6525 N 629.671 -0.424282 1.51781 0
M  V30 6526 C 630.919 -1.17028 1.64769 0
M  V30 6527 C 631.24 -1.91409 0.372523 0
M  V30 6528 O 630.51 -1.86091 -0.612108 0
M  V30 6529 H 629.09 -0.434992 0.607282 0
M  V30 6530 H 631.752 -0.485169 1.88765 0
M  V30 6531 H 630.848 -1.8927 2.4816 0
M  V30 6532 N 631.149 -1.42148 -0.680565 0
M  V30 6533 C 632.426 -1.32795 -1.43614 0
M  V30 6534 C 632.806 0.037415 -2.11067 0
M  V30 6535 O 632.154 1.05258 -2.02813 0
M  V30 6536 C 632.364 -2.49206 -2.44331 0
M  V30 6537 C 633.712 -2.91059 -3.09144 0
M  V30 6538 O 634.736 -2.49054 -2.54657 0
M  V30 6539 O 633.595 -3.63741 -4.07866 0
M  V30 6540 H 630.689 -0.523397 -0.640301 0
M  V30 6541 H 633.235 -1.54144 -0.709775 0
M  V30 6542 H 632.007 -3.40252 -1.93247 0
M  V30 6543 H 631.63 -2.29813 -3.24456 0
M  V30 6544 N 632.627 0.916307 -1.28225 0
M  V30 6545 C 634.043 1.19425 -1.05876 0
M  V30 6546 C 634.243 2.005 0.2005 0
M  V30 6547 O 633.299 2.35806 0.902873 0
M  V30 6548 C 634.612 1.93133 -2.30478 0
M  V30 6549 C 636.16 2.06026 -2.35632 0
M  V30 6550 C 636.635 2.83141 -3.59994 0
M  V30 6551 N 638.126 2.90704 -3.60618 0
M  V30 6552 C 638.861 3.50865 -4.53521 0
M  V30 6553 N 638.357 4.12327 -5.56739 0
M  V30 6554 N 640.15 3.48379 -4.41122 0
M  V30 6555 H 632.301 0.37496 -2.09064 0
M  V30 6556 H 634.564 0.228531 -0.920042 0
M  V30 6557 H 634.27 1.40985 -3.22205 0
M  V30 6558 H 634.144 2.93696 -2.36691 0
M  V30 6559 H 636.531 2.57355 -1.44404 0
M  V30 6560 H 636.612 1.04647 -2.33415 0
M  V30 6561 H 636.256 2.32492 -4.51564 0
M  V30 6562 H 636.186 3.84829 -3.59464 0
M  V30 6563 H 638.677 2.47034 -2.85977 0
M  V30 6564 H 638.99 4.56205 -6.23776 0
M  V30 6565 H 637.335 4.10839 -5.60568 0
M  V30 6566 H 640.526 2.99572 -3.59686 0
M  V30 6567 H 640.699 3.94974 -5.13712 0
M  V30 6568 N 634.105 1.10431 1.1244 0
M  V30 6569 C 635.382 0.758797 1.80282 0
M  V30 6570 C 635.762 -0.754727 1.97147 0
M  V30 6571 O 635.11 -1.68094 1.54779 0
M  V30 6572 C 635.32 1.50982 3.14651 0
M  V30 6573 C 636.668 1.68232 3.8985 0
M  V30 6574 O 637.692 1.47319 3.24308 0
M  V30 6575 O 636.551 2.02905 5.07437 0
M  V30 6576 H 633.645 0.273756 0.780376 0
M  V30 6577 H 636.191 1.20713 1.19275 0
M  V30 6578 H 634.963 2.53989 2.97666 0
M  V30 6579 H 634.586 1.05435 3.83366 0
M  V30 6580 N 635.583 -1.29855 0.893053 0
M  V30 6581 C 636.831 -1.9544 0.514566 0
M  V30 6582 C 637.152 -1.70795 -0.940959 0
M  V30 6583 O 636.422 -1.03601 -1.66264 0
M  V30 6584 H 635.002 -0.723137 0.187302 0
M  V30 6585 H 637.664 -1.58234 1.13789 0
M  V30 6586 H 636.76 -3.04341 0.691581 0
M  V30 6587 N 637.061 -0.65484 -1.43351 0
M  V30 6588 C 638.307 -0.169142 -2.02093 0
M  V30 6589 C 638.64 1.21431 -1.51553 0
M  V30 6590 O 637.915 1.81105 -0.709317 0
M  V30 6591 C 638.198 -0.181775 -3.59641 0
M  V30 6592 C 638.051 -1.59926 -4.20409 0
M  V30 6593 C 639.37 0.480945 -4.37464 0
M  V30 6594 H 636.489 -0.0629371 -0.734308 0
M  V30 6595 H 639.131 -0.835833 -1.70628 0
M  V30 6596 H 637.281 0.385918 -3.86578 0
M  V30 6597 H 638.953 -2.21766 -4.04497 0
M  V30 6598 H 637.196 -2.14605 -3.76998 0
M  V30 6599 H 637.867 -1.55994 -5.295 0
M  V30 6600 H 640.343 -0.00208273 -4.161 0
M  V30 6601 H 639.219 0.441384 -5.47122 0
M  V30 6602 H 639.48 1.55533 -4.13838 0
M  V30 6603 N 638.539 1.52521 -0.396863 0
M  V30 6604 C 639.472 2.23118 0.478926 0
M  V30 6605 C 640.45 1.23475 1.05796 0
M  V30 6606 O 641.634 1.52486 1.10817 0
M  V30 6607 C 638.761 2.95028 1.66362 0
M  V30 6608 C 637.807 4.09002 1.20913 0
M  V30 6609 S 638.64 5.35182 0.184407 0
M  V30 6610 C 639.796 6.10616 1.37471 0
M  V30 6611 H 640.029 2.97056 -0.120542 0
M  V30 6612 H 637.562 1.53334 -0.18109 0
M  V30 6613 H 639.52 3.37066 2.34301 0
M  V30 6614 H 638.181 2.20756 2.23441 0
M  V30 6615 H 637.374 4.58445 2.09389 0
M  V30 6616 H 636.976 3.69016 0.608559 0
M  V30 6617 H 639.268 6.37247 2.30048 0
M  V30 6618 H 640.211 7.02084 0.921051 0
M  V30 6619 H 640.619 5.41499 1.59495 0
M  V30 6620 N 640.017 0.126909 1.57088 0
M  V30 6621 C 641.428 -0.397201 1.82426 0
M  V30 6622 C 641.779 -1.66084 1.04453 0
M  V30 6623 O 640.904 -2.14534 0.283552 0
M  V30 6624 C 641.499 -0.727411 3.30899 0
M  V30 6625 C 640.058 -1.19612 3.56889 0
M  V30 6626 C 639.205 -0.20885 2.76512 0
M  V30 6627 H 642.156 0.351924 1.54749 0
M  V30 6628 H 642.177 -1.58407 3.45959 0
M  V30 6629 H 641.689 0.19247 3.87622 0
M  V30 6630 H 639.79 -2.13263 3.05532 0
M  V30 6631 H 639.903 -1.13598 4.65438 0
M  V30 6632 H 638.267 -0.697479 2.44964 0
M  V30 6633 H 639.05 0.704267 3.35998 0
M  V30 6634 N 641.495 -1.56914 -0.146875 0
M  V30 6635 C 642.442 -1.98275 -1.18134 0
M  V30 6636 C 643.412 -0.850367 -1.42681 0
M  V30 6637 O 644.597 -1.11244 -1.55014 0
M  V30 6638 C 641.737 -2.36861 -2.5098 0
M  V30 6639 C 640.85 -3.63391 -2.33605 0
M  V30 6640 C 639.985 -3.91079 -3.59486 0
M  V30 6641 C 639.024 -5.10879 -3.37149 0
M  V30 6642 N 638.161 -5.34577 -4.55161 0
M  V30 6643 H 643.001 -2.8645 -0.821622 0
M  V30 6644 H 640.538 -1.41718 -0.394248 0
M  V30 6645 H 642.496 -2.57262 -3.28439 0
M  V30 6646 H 641.126 -1.51766 -2.84898 0
M  V30 6647 H 640.178 -3.50766 -1.47199 0
M  V30 6648 H 641.49 -4.51007 -2.13059 0
M  V30 6649 H 640.644 -4.11979 -4.45374 0
M  V30 6650 H 639.383 -3.01885 -3.83036 0
M  V30 6651 H 638.388 -4.89853 -2.49649 0
M  V30 6652 H 639.613 -6.01626 -3.14997 0
M  V30 6653 H 637.559 -4.48337 -4.78884 0
M  V30 6654 H 637.476 -6.16463 -4.37618 0
M  V30 6655 H 638.744 -5.59975 -5.42263 0
M  V30 6656 N 642.974 0.416227 -1.52004 0
M  V30 6657 C 643.907 1.52736 -1.6955 0
M  V30 6658 C 644.885 1.53264 -0.54305 0
M  V30 6659 O 646.069 1.72077 -0.769527 0
M  V30 6660 C 643.196 2.91283 -1.72835 0
M  V30 6661 C 642.242 3.08695 -2.94295 0
M  V30 6662 S 643.075 2.82758 -4.54762 0
M  V30 6663 C 644.231 4.23548 -4.60823 0
M  V30 6664 H 644.464 1.37623 -2.63528 0
M  V30 6665 H 641.997 0.607335 -1.41954 0
M  V30 6666 H 643.955 3.71134 -1.75413 0
M  V30 6667 H 642.616 3.03742 -0.799966 0
M  V30 6668 H 641.809 4.10042 -2.93056 0
M  V30 6669 H 641.411 2.36699 -2.89568 0
M  V30 6670 H 643.703 5.17078 -4.37763 0
M  V30 6671 H 644.646 4.29813 -5.62731 0
M  V30 6672 H 645.054 4.08188 -3.89927 0
M  V30 6673 N 644.452 1.42507 0.673017 0
M  V30 6674 C 645.729 1.33554 1.42908 0
M  V30 6675 C 646.109 -0.0262211 2.11084 0
M  V30 6676 O 645.457 -1.04181 2.03368 0
M  V30 6677 C 645.667 2.50498 2.43006 0
M  V30 6678 C 647.015 2.92694 3.07596 0
M  V30 6679 O 648.039 2.50401 2.53333 0
M  V30 6680 O 646.898 3.65899 4.05931 0
M  V30 6681 H 643.992 0.526785 0.637516 0
M  V30 6682 H 646.538 1.54518 0.701591 0
M  V30 6683 H 645.31 3.41272 1.9144 0
M  V30 6684 H 644.933 2.3153 3.23233 0
M  V30 6685 N 645.93 -0.909495 1.28709 0
M  V30 6686 C 647.179 -1.65365 1.15487 0
M  V30 6687 C 647.492 -1.93364 -0.294941 0
M  V30 6688 O 648.698 -2.65905 -0.548338 0
M  V30 6689 C 647.154 -2.97923 2.01916 0
M  V30 6690 C 646.762 -2.77556 3.51663 0
M  V30 6691 C 648.506 -3.75814 1.97393 0
M  V30 6692 C 646.413 -4.0578 4.30229 0
M  V30 6693 H 645.343 -0.620323 0.42862 0
M  V30 6694 H 647.994 -1.00894 1.53273 0
M  V30 6695 H 646.376 -3.63552 1.5699 0
M  V30 6696 H 647.55 -2.2058 4.04575 0
M  V30 6697 H 645.865 -2.13072 3.57756 0
M  V30 6698 H 648.462 -4.70866 2.53357 0
M  V30 6699 H 648.805 -4.05277 0.951643 0
M  V30 6700 H 649.338 -3.1701 2.40311 0
M  V30 6701 H 646.077 -3.81488 5.33055 0
M  V30 6702 H 645.597 -4.62351 3.82089 0
M  V30 6703 H 647.276 -4.74004 4.40374 0
M  V30 6704 N 647.408 -1.11026 -1.11852 0
M  V30 6705 C 648.657 -0.851249 -1.82857 0
M  V30 6706 C 648.97 0.62514 -1.85341 0
M  V30 6707 O 650.176 1.00026 -2.52403 0
M  V30 6708 C 648.632 -1.47309 -3.28372 0
M  V30 6709 C 648.24 -2.9832 -3.34229 0
M  V30 6710 C 649.984 -1.29373 -4.04306 0
M  V30 6711 C 647.891 -3.53509 -4.74115 0
M  V30 6712 H 646.821 -0.314794 -0.685143 0
M  V30 6713 H 649.472 -1.33499 -1.25898 0
M  V30 6714 H 647.854 -0.917017 -3.85236 0
M  V30 6715 H 649.028 -3.60295 -2.87271 0
M  V30 6716 H 647.343 -3.15482 -2.71772 0
M  V30 6717 H 649.94 -1.68042 -5.07608 0
M  V30 6718 H 650.283 -0.235879 -4.15631 0
M  V30 6719 H 650.816 -1.8182 -3.53817 0
M  V30 6720 H 647.555 -4.58987 -4.67986 0
M  V30 6721 H 647.075 -2.96305 -5.21501 0
M  V30 6722 H 648.754 -3.51693 -5.43066 0
M  V30 6723 N 648.886 1.2938 -0.899927 0
M  V30 6724 C 650.111 2.00228 -0.540692 0
M  V30 6725 C 650.536 1.66909 0.867359 0
M  V30 6726 O 649.894 0.893824 1.57735 0
M  V30 6727 C 649.942 3.52921 -0.740232 0
M  V30 6728 O 649.046 4.11879 0.207154 0
M  V30 6729 H 648.387 0.629505 -0.211233 0
M  V30 6730 H 650.917 1.6487 -1.21158 0
M  V30 6731 H 650.927 4.0287 -0.644973 0
M  V30 6732 H 649.602 3.76508 -1.76677 0
M  V30 6733 H 648.179 3.72845 0.0643315 0
M  V30 6734 N 650.364 0.662433 1.43002 0
M  V30 6735 C 651.612 0.179237 2.01304 0
M  V30 6736 C 651.933 -1.21428 1.52579 0
M  V30 6737 O 651.203 -1.81294 0.742252 0
M  V30 6738 H 649.783 0.0632725 0.744316 0
M  V30 6739 H 652.445 0.856169 1.75088 0
M  V30 6740 H 651.541 0.170957 3.11631 0
M  V30 6741 N 651.842 -1.52309 0.404946 0
M  V30 6742 C 653.07 -2.06185 -0.171818 0
M  V30 6743 C 653.485 -1.27536 -1.39212 0
M  V30 6744 O 652.842 -0.326112 -1.79563 0
M  V30 6745 C 652.893 -3.57647 -0.526417 0
M  V30 6746 O 652.614 -4.3332 0.645417 0
M  V30 6747 C 654.115 -4.27925 -1.15736 0
M  V30 6748 H 651.335 -0.670632 -0.0222328 0
M  V30 6749 H 653.879 -1.96259 0.574692 0
M  V30 6750 H 652.034 -3.67595 -1.22282 0
M  V30 6751 H 652.448 -5.23328 0.35042 0
M  V30 6752 H 653.922 -5.35093 -1.35572 0
M  V30 6753 H 654.399 -3.84134 -2.12926 0
M  V30 6754 H 655.005 -4.22335 -0.501281 0
M  V30 6755 N 653.32 -0.135238 -1.57019 0
M  V30 6756 C 654.25 0.805235 -2.19176 0
M  V30 6757 C 655.231 1.2656 -1.13651 0
M  V30 6758 O 656.416 1.32528 -1.4195 0
M  V30 6759 C 653.546 2.04914 -2.80406 0
M  V30 6760 C 652.5 1.72598 -3.91655 0
M  V30 6761 C 651.826 3.04154 -4.39766 0
M  V30 6762 C 653.126 0.981709 -5.12991 0
M  V30 6763 H 654.82 0.287232 -2.98019 0
M  V30 6764 H 652.366 0.136714 -1.4335 0
M  V30 6765 H 654.319 2.71178 -3.22553 0
M  V30 6766 H 653.043 2.59067 -1.98877 0
M  V30 6767 H 651.702 1.08717 -3.50109 0
M  V30 6768 H 651.35 3.56274 -3.55075 0
M  V30 6769 H 651.05 2.83299 -5.14796 0
M  V30 6770 H 652.574 3.71509 -4.84576 0
M  V30 6771 H 653.988 1.5462 -5.52056 0
M  V30 6772 H 652.385 0.873533 -5.93708 0
M  V30 6773 H 653.455 -0.0286887 -4.84892 0
M  V30 6774 N 654.798 1.5699 0.138552 0
M  V30 6775 C 656.046 1.83446 0.848053 0
M  V30 6776 C 656.367 0.71744 1.81322 0
M  V30 6777 O 655.637 -0.260228 1.94164 0
M  V30 6778 H 654.217 0.676792 0.316166 0
M  V30 6779 H 656.879 1.94462 0.130538 0
M  V30 6780 H 655.975 2.78677 1.40518 0
M  V30 6781 N 656.276 -0.40816 1.52223 0
M  V30 6782 C 657.223 -1.49737 1.75635 0
M  V30 6783 C 658.193 -1.5493 0.598824 0
M  V30 6784 O 659.378 -1.71487 0.83648 0
M  V30 6785 C 656.518 -2.87174 1.91376 0
M  V30 6786 C 655.631 -2.91283 3.19027 0
M  V30 6787 C 654.766 -4.20026 3.25195 0
M  V30 6788 C 653.805 -4.18113 4.47044 0
M  V30 6789 N 652.942 -5.38429 4.50598 0
M  V30 6790 H 657.782 -1.29075 2.68596 0
M  V30 6791 H 655.319 -0.626518 1.33091 0
M  V30 6792 H 657.277 -3.66959 1.98486 0
M  V30 6793 H 655.907 -3.06329 1.01795 0
M  V30 6794 H 654.959 -2.03984 3.21084 0
M  V30 6795 H 656.271 -2.85734 4.08849 0
M  V30 6796 H 655.425 -5.08204 3.31382 0
M  V30 6797 H 654.164 -4.28271 2.33313 0
M  V30 6798 H 653.169 -3.28325 4.41002 0
M  V30 6799 H 654.394 -4.11507 5.40221 0
M  V30 6800 H 652.34 -5.4734 3.616 0
M  V30 6801 H 652.257 -5.34879 5.34266 0
M  V30 6802 H 653.525 -6.28557 4.61016 0
M  V30 6803 N 657.755 -1.42862 -0.66545 0
M  V30 6804 C 658.718 -1.46756 -1.76055 0
M  V30 6805 C 659.718 -0.353866 -1.56858 0
M  V30 6806 O 660.908 -0.615099 -1.62979 0
M  V30 6807 C 658.04 -1.30829 -3.14796 0
M  V30 6808 H 659.233 -2.44271 -1.73987 0
M  V30 6809 H 656.786 -1.29447 -0.875965 0
M  V30 6810 H 657.521 -0.342733 -3.22484 0
M  V30 6811 H 657.306 -2.11551 -3.30134 0
M  V30 6812 H 658.796 -1.36458 -3.94676 0
M  V30 6813 N 659.233 0.902656 -1.29189 0
M  V30 6814 C 660.48 1.65287 -1.16989 0
M  V30 6815 C 660.808 1.92485 0.279232 0
M  V30 6816 O 660.063 1.53143 1.21843 0
M  V30 6817 C 660.362 3.011 -1.92545 0
M  V30 6818 C 660.028 2.93521 -3.42281 0
M  V30 6819 C 658.69 2.91161 -3.83117 0
M  V30 6820 C 661.042 2.82947 -4.3771 0
M  V30 6821 C 658.37 2.76043 -5.17704 0
M  V30 6822 C 660.722 2.69368 -5.72384 0
M  V30 6823 C 659.386 2.65373 -6.12482 0
M  V30 6824 H 658.656 0.604828 -0.428094 0
M  V30 6825 H 661.303 1.05084 -1.60092 0
M  V30 6826 H 659.608 3.65153 -1.42024 0
M  V30 6827 H 661.305 3.58073 -1.80512 0
M  V30 6828 H 657.895 2.96158 -3.09819 0
M  V30 6829 H 662.079 2.83849 -4.07116 0
M  V30 6830 H 657.335 2.71352 -5.47885 0
M  V30 6831 H 661.509 2.60156 -6.45981 0
M  V30 6832 H 659.136 2.53415 -7.16718 0
M  V30 6833 N 660.711 1.11618 1.11262 0
M  V30 6834 C 661.959 0.864469 1.82678 0
M  V30 6835 C 662.28 -0.611564 1.85162 0
M  V30 6836 O 661.55 -1.44429 1.32352 0
M  V30 6837 H 660.13 0.316821 0.676486 0
M  V30 6838 H 662.792 1.40894 1.34666 0
M  V30 6839 H 661.888 1.23832 2.86482 0
M  V30 6840 N 662.189 -1.289 0.906776 0
M  V30 6841 C 663.429 -1.97046 0.543329 0
M  V30 6842 C 663.793 -1.69862 -0.895034 0
M  V30 6843 O 664.994 -2.31521 -1.36571 0
M  V30 6844 C 663.265 -3.47489 0.835833 0
M  V30 6845 S 664.824 -4.3498 0.577756 0
M  V30 6846 H 661.642 -0.681908 0.201302 0
M  V30 6847 H 664.244 -1.5657 1.17073 0
M  V30 6848 H 662.948 -3.64768 1.88075 0
M  V30 6849 H 662.479 -3.92907 0.196817 0
M  V30 6850 H 664.494 -4.92868 -0.574052 0
M  V30 6851 N 663.667 -0.670007 -1.42649 0
M  V30 6852 C 664.913 -0.190568 -2.01903 0
M  V30 6853 C 665.246 1.19817 -1.52832 0
M  V30 6854 O 664.521 1.80342 -0.728485 0
M  V30 6855 C 664.804 -0.21991 -3.59428 0
M  V30 6856 C 664.657 -1.64376 -4.18689 0
M  V30 6857 C 665.976 0.434519 -4.3795 0
M  V30 6858 H 663.095 -0.0707219 -0.733599 0
M  V30 6859 H 665.737 -0.853883 -1.69732 0
M  V30 6860 H 663.887 0.344894 -3.86966 0
M  V30 6861 H 665.559 -2.26044 -4.02122 0
M  V30 6862 H 663.802 -2.18591 -3.747 0
M  V30 6863 H 664.473 -1.61601 -5.27815 0
M  V30 6864 H 666.949 -0.0462156 -4.16074 0
M  V30 6865 H 665.825 0.38333 -5.4756 0
M  V30 6866 H 666.086 1.51135 -4.15464 0
M  V30 6867 N 665.145 1.52092 -0.413018 0
M  V30 6868 C 666.393 2.01456 0.161178 0
M  V30 6869 C 666.714 1.30034 1.45314 0
M  V30 6870 O 665.984 0.427435 1.9118 0
M  V30 6871 H 664.564 0.744376 0.0625526 0
M  V30 6872 H 667.226 1.86974 -0.550151 0
M  V30 6873 H 666.322 3.1008 0.354517 0
M  V30 6874 N 666.623 0.143563 1.56945 0
M  V30 6875 C 667.871 -0.507402 1.95627 0
M  V30 6876 C 668.192 -1.65626 1.02922 0
M  V30 6877 O 667.462 -1.95693 0.0901136 0
M  V30 6878 H 666.042 -0.190436 0.722318 0
M  V30 6879 H 668.704 0.218257 1.93674 0
M  V30 6880 H 667.8 -0.885816 2.99265 0
M  V30 6881 N 668.101 -1.57061 -0.130224 0
M  V30 6882 C 669.331 -1.88159 -0.853217 0
M  V30 6883 C 669.739 -0.731675 -1.7448 0
M  V30 6884 O 669.082 0.307035 -1.81116 0
M  V30 6885 C 669.144 -3.1415 -1.74785 0
M  V30 6886 C 668.808 -4.45202 -1.03173 0
M  V30 6887 C 669.805 -5.18526 -0.377759 0
M  V30 6888 C 667.49 -4.91912 -1.01624 0
M  V30 6889 C 669.484 -6.36775 0.282123 0
M  V30 6890 C 667.171 -6.10082 -0.352555 0
M  V30 6891 C 668.169 -6.82361 0.295483 0
M  V30 6892 O 667.857 -7.98284 0.948606 0
M  V30 6893 H 667.589 -0.627596 -0.251197 0
M  V30 6894 H 670.143 -2.05034 -0.1226 0
M  V30 6895 H 668.373 -2.93328 -2.51983 0
M  V30 6896 H 670.062 -3.31359 -2.34427 0
M  V30 6897 H 670.828 -4.83498 -0.381417 0
M  V30 6898 H 666.707 -4.35566 -1.51007 0
M  V30 6899 H 670.251 -6.93129 0.788525 0
M  V30 6900 H 666.148 -6.44569 -0.346621 0
M  V30 6901 H 666.916 -8.14054 0.851954 0
M  V30 6902 N 669.579 0.400081 -1.52437 0
M  V30 6903 C 670.828 1.14332 -1.66166 0
M  V30 6904 C 671.141 1.91419 -0.402253 0
M  V30 6905 O 672.347 2.6824 -0.419487 0
M  V30 6906 C 670.803 2.08137 -2.9361 0
M  V30 6907 C 670.411 1.36524 -4.26691 0
M  V30 6908 C 672.155 2.82664 -3.16703 0
M  V30 6909 C 670.062 2.29031 -5.45251 0
M  V30 6910 H 668.992 0.430499 -0.61902 0
M  V30 6911 H 671.643 0.407017 -1.78929 0
M  V30 6912 H 670.025 2.85358 -2.74567 0
M  V30 6913 H 671.199 0.646061 -4.56249 0
M  V30 6914 H 669.514 0.74002 -4.09771 0
M  V30 6915 H 672.111 3.52037 -4.0246 0
M  V30 6916 H 672.454 3.46122 -2.31312 0
M  V30 6917 H 672.987 2.12541 -3.36261 0
M  V30 6918 H 669.726 1.70206 -6.33017 0
M  V30 6919 H 669.246 2.98896 -5.2002 0
M  V30 6920 H 670.925 2.89359 -5.78689 0
M  V30 6921 N 671.057 1.43213 0.657864 0
M  V30 6922 C 672.02 1.47687 1.75275 0
M  V30 6923 C 673.02 0.362179 1.56668 0
M  V30 6924 O 674.21 0.623734 1.62651 0
M  V30 6925 C 671.342 1.32497 3.14098 0
M  V30 6926 H 672.535 2.4519 1.7269 0
M  V30 6927 H 670.088 1.2991 0.869087 0
M  V30 6928 H 670.823 0.359831 3.22298 0
M  V30 6929 H 670.608 2.13299 3.29008 0
M  V30 6930 H 672.098 1.38549 3.93946 0
M  V30 6931 N 672.536 -0.895792 1.29666 0
M  V30 6932 C 673.761 -1.68528 1.20885 0
M  V30 6933 C 674.186 -1.8673 -0.226595 0
M  V30 6934 O 673.544 -1.39044 -1.16347 0
M  V30 6935 C 673.592 -3.04512 1.93144 0
M  V30 6936 O 672.696 -3.92963 1.25115 0
M  V30 6937 H 672.037 -0.515371 0.418675 0
M  V30 6938 H 674.567 -1.11878 1.71302 0
M  V30 6939 H 674.577 -3.54628 2.0175 0
M  V30 6940 H 673.252 -2.90582 2.97548 0
M  V30 6941 H 671.829 -3.51399 1.24794 0
M  V30 6942 N 674.014 -1.12206 -1.10668 0
M  V30 6943 C 675.242 -0.898635 -1.86366 0
M  V30 6944 C 675.657 0.551991 -1.80551 0
M  V30 6945 O 675.014 1.38152 -1.19249 0
M  V30 6946 C 675.065 -1.36199 -3.34861 0
M  V30 6947 O 674.786 -2.75576 -3.40573 0
M  V30 6948 C 676.287 -1.17515 -4.2744 0
M  V30 6949 H 673.507 -0.321281 -0.589084 0
M  V30 6950 H 676.051 -1.49142 -1.39918 0
M  V30 6951 H 674.206 -0.81249 -3.78784 0
M  V30 6952 H 674.62 -2.95851 -4.33096 0
M  V30 6953 H 676.094 -1.54827 -5.29842 0
M  V30 6954 H 676.571 -0.115486 -4.39048 0
M  V30 6955 H 677.177 -1.71203 -3.89319 0
M  V30 6956 N 675.492 1.28418 -0.913599 0
M  V30 6957 C 676.717 1.99643 -0.561899 0
M  V30 6958 C 677.142 1.67819 0.849608 0
M  V30 6959 O 676.5 0.910503 1.56779 0
M  V30 6960 C 676.548 3.52116 -0.777622 0
M  V30 6961 O 675.652 4.12076 0.163457 0
M  V30 6962 H 674.993 0.627229 -0.217898 0
M  V30 6963 H 677.523 1.63575 -1.229 0
M  V30 6964 H 677.533 4.02163 -0.687666 0
M  V30 6965 H 676.208 3.74613 -1.8066 0
M  V30 6966 H 674.785 3.72892 0.0247827 0
M  V30 6967 N 676.97 0.677563 1.42291 0
M  V30 6968 C 678.195 0.207901 2.06355 0
M  V30 6969 C 678.62 -1.12723 1.50583 0
M  V30 6970 O 677.978 -1.70171 0.62543 0
M  V30 6971 C 678.026 0.156489 3.6026 0
M  V30 6972 O 677.13 -0.874162 4.03029 0
M  V30 6973 H 676.471 0.106056 0.655475 0
M  V30 6974 H 679.001 0.927354 1.82377 0
M  V30 6975 H 679.011 -0.0187258 4.07996 0
M  V30 6976 H 677.686 1.13101 4.00226 0
M  V30 6977 H 676.263 -0.669764 3.66836 0
M  V30 6978 N 678.448 -1.51871 0.421078 0
M  V30 6979 C 679.378 -2.30231 -0.389363 0
M  V30 6980 C 680.359 -1.34946 -1.03555 0
M  V30 6981 O 681.544 -1.63859 -1.04229 0
M  V30 6982 C 678.674 -3.13247 -1.49979 0
M  V30 6983 C 677.628 -4.16677 -0.977966 0
M  V30 6984 C 676.954 -4.88112 -2.1829 0
M  V30 6985 C 678.254 -5.22295 -0.0236775 0
M  V30 6986 H 679.948 -2.98229 0.264524 0
M  V30 6987 H 677.494 -1.43424 0.12866 0
M  V30 6988 H 679.447 -3.66838 -2.07383 0
M  V30 6989 H 678.171 -2.4304 -2.18173 0
M  V30 6990 H 676.83 -3.64114 -0.426245 0
M  V30 6991 H 676.478 -4.14423 -2.85066 0
M  V30 6992 H 676.178 -5.58041 -1.84021 0
M  V30 6993 H 677.702 -5.44521 -2.76278 0
M  V30 6994 H 679.116 -5.71055 -0.506899 0
M  V30 6995 H 677.513 -5.99656 0.230782 0
M  V30 6996 H 678.583 -4.76131 0.917999 0
M  V30 6997 N 679.926 -0.151884 -1.56866 0
M  V30 6998 C 681.175 0.497992 -1.95456 0
M  V30 6999 C 681.488 1.6569 -1.03953 0
M  V30 7000 O 682.694 2.37173 -1.32142 0
M  V30 7001 C 681.15 0.93732 -3.4748 0
M  V30 7002 C 680.758 -0.194921 -4.47576 0
M  V30 7003 C 682.502 1.55671 -3.94926 0
M  V30 7004 C 680.409 0.26295 -5.90815 0
M  V30 7005 H 679.339 0.189811 -0.729717 0
M  V30 7006 H 681.99 -0.237011 -1.81963 0
M  V30 7007 H 680.372 1.72773 -3.56322 0
M  V30 7008 H 681.546 -0.971951 -4.50433 0
M  V30 7009 H 679.861 -0.72303 -4.10075 0
M  V30 7010 H 682.458 1.91099 -4.99385 0
M  V30 7011 H 682.801 2.44748 -3.36755 0
M  V30 7012 H 683.334 0.831109 -3.89021 0
M  V30 7013 H 680.073 -0.592568 -6.52816 0
M  V30 7014 H 679.593 1.00575 -5.91308 0
M  V30 7015 H 681.272 0.713333 -6.43056 0
M  V30 7016 N 681.404 1.57128 0.121893 0
M  V30 7017 C 682.681 1.75664 0.860327 0
M  V30 7018 C 683.061 0.726585 1.98202 0
M  V30 7019 O 682.409 -0.24999 2.27128 0
M  V30 7020 C 682.619 3.20571 1.37968 0
M  V30 7021 C 683.967 3.82988 1.83317 0
M  V30 7022 O 684.991 3.24156 1.47654 0
M  V30 7023 O 683.85 4.86393 2.49168 0
M  V30 7024 H 680.944 0.719153 0.408348 0
M  V30 7025 H 683.49 1.6937 0.105859 0
M  V30 7026 H 682.262 3.87056 0.57477 0
M  V30 7027 H 681.885 3.31392 2.19694 0
M  V30 7028 N 682.882 -0.391992 1.52647 0
M  V30 7029 C 684.11 -1.1586 1.71418 0
M  V30 7030 C 684.525 -1.8381 0.431216 0
M  V30 7031 O 683.882 -1.7256 -0.594085 0
M  V30 7032 C 683.933 -2.20888 2.86165 0
M  V30 7033 O 683.654 -1.5571 4.09495 0
M  V30 7034 C 685.155 -3.103 3.1659 0
M  V30 7035 H 682.375 -0.347494 0.574011 0
M  V30 7036 H 684.919 -0.458972 1.99283 0
M  V30 7037 H 683.074 -2.86492 2.6077 0
M  V30 7038 H 683.488 -2.25474 4.73563 0
M  V30 7039 H 684.962 -3.8003 4.00351 0
M  V30 7040 H 685.439 -3.73639 2.30848 0
M  V30 7041 H 686.045 -2.50345 3.43813 0
M  V30 7042 N 684.36 -1.4356 -0.65026 0
M  V30 7043 C 685.606 -1.45549 -1.41221 0
M  V30 7044 C 685.939 -0.0805472 -1.94033 0
M  V30 7045 O 685.214 0.899043 -1.72475 0
M  V30 7046 C 685.497 -2.50028 -2.59148 0
M  V30 7047 C 685.35 -3.96808 -2.1181 0
M  V30 7048 C 686.669 -2.51212 -3.61359 0
M  V30 7049 H 683.788 -0.529967 -0.512156 0
M  V30 7050 H 686.43 -1.75127 -0.736933 0
M  V30 7051 H 684.58 -2.24937 -3.16758 0
M  V30 7052 H 686.252 -4.32966 -1.59178 0
M  V30 7053 H 684.495 -4.09498 -1.43156 0
M  V30 7054 H 685.166 -4.6553 -2.96625 0
M  V30 7055 H 687.642 -2.73583 -3.13515 0
M  V30 7056 H 686.518 -3.26252 -4.41419 0
M  V30 7057 H 686.779 -1.54701 -4.1415 0
M  V30 7058 N 685.838 0.888903 -1.30139 0
M  V30 7059 C 687.254 1.17153 -1.08385 0
M  V30 7060 C 687.454 2.0088 0.157925 0
M  V30 7061 O 686.51 2.37668 0.852652 0
M  V30 7062 C 687.823 1.882 -2.34523 0
M  V30 7063 C 689.371 2.00981 -2.39949 0
M  V30 7064 C 689.846 2.75441 -3.65918 0
M  V30 7065 N 691.337 2.82989 -3.66704 0
M  V30 7066 C 692.072 3.41167 -4.60861 0
M  V30 7067 N 691.568 4.00425 -5.6536 0
M  V30 7068 N 693.361 3.38944 -4.48412 0
M  V30 7069 H 685.512 0.33053 -2.09812 0
M  V30 7070 H 687.775 0.208964 -0.924683 0
M  V30 7071 H 687.481 1.34119 -3.25123 0
M  V30 7072 H 687.355 2.88609 -2.42868 0
M  V30 7073 H 689.742 2.54234 -1.4983 0
M  V30 7074 H 689.823 0.996725 -2.35582 0
M  V30 7075 H 689.467 2.22861 -4.56394 0
M  V30 7076 H 689.397 3.77118 -3.67546 0
M  V30 7077 H 691.888 2.40912 -2.91153 0
M  V30 7078 H 692.201 4.42871 -6.33313 0
M  V30 7079 H 690.546 3.98856 -5.69157 0
M  V30 7080 H 693.737 2.91875 -3.6596 0
M  V30 7081 H 693.91 3.83989 -5.21974 0
M  V30 7082 N 687.317 1.12792 1.10072 0
M  V30 7083 C 688.542 0.908838 1.86427 0
M  V30 7084 C 688.967 -0.536793 1.80278 0
M  V30 7085 O 688.325 -1.38033 1.17543 0
M  V30 7086 C 688.373 1.39295 3.3261 0
M  V30 7087 O 687.477 0.573846 4.08388 0
M  V30 7088 H 686.818 0.326234 0.578331 0
M  V30 7089 H 689.348 1.50094 1.39043 0
M  V30 7090 H 689.358 1.39366 3.83459 0
M  V30 7091 H 688.033 2.44555 3.36401 0
M  V30 7092 H 686.61 0.640438 3.67359 0
M  V30 7093 N 688.795 -1.27931 0.920396 0
M  V30 7094 C 690.025 -1.98516 0.572256 0
M  V30 7095 C 690.433 -1.68912 -0.852375 0
M  V30 7096 O 689.776 -0.94203 -1.57707 0
M  V30 7097 C 689.838 -3.5243 0.709485 0
M  V30 7098 C 689.502 -4.0564 2.10489 0
M  V30 7099 C 690.499 -4.1897 3.07831 0
M  V30 7100 C 688.184 -4.40168 2.41986 0
M  V30 7101 C 690.178 -4.66093 4.34783 0
M  V30 7102 C 687.865 -4.86983 3.69176 0
M  V30 7103 C 688.863 -4.99903 4.65388 0
M  V30 7104 O 688.551 -5.45694 5.90316 0
M  V30 7105 H 688.283 -0.64047 0.216274 0
M  V30 7106 H 690.837 -1.6393 1.23758 0
M  V30 7107 H 689.067 -3.86698 -0.0129263 0
M  V30 7108 H 690.756 -4.04233 0.367474 0
M  V30 7109 H 691.522 -3.92562 2.84816 0
M  V30 7110 H 687.401 -4.29358 1.67846 0
M  V30 7111 H 690.945 -4.76092 5.09884 0
M  V30 7112 H 686.842 -5.12832 3.92012 0
M  V30 7113 H 687.61 -5.63965 5.932 0
M  V30 7114 N 690.273 -0.685099 -1.4193 0
M  V30 7115 C 691.236 -0.0222632 -2.29189 0
M  V30 7116 C 692.236 0.7186 -1.4385 0
M  V30 7117 O 693.426 0.555058 -1.6512 0
M  V30 7118 C 690.558 0.979013 -3.2654 0
M  V30 7119 H 691.751 -0.790424 -2.89296 0
M  V30 7120 H 689.304 -0.448012 -1.49742 0
M  V30 7121 H 690.039 1.77531 -2.71392 0
M  V30 7122 H 689.824 0.451037 -3.89497 0
M  V30 7123 H 691.314 1.44091 -3.91954 0
M  V30 7124 N 691.751 1.51645 -0.429126 0
M  V30 7125 C 692.714 2.26116 0.374726 0
M  V30 7126 C 693.714 1.29242 0.956714 0
M  V30 7127 O 694.904 1.53022 0.832452 0
M  V30 7128 C 692.036 3.04669 1.52937 0
M  V30 7129 H 693.229 2.9861 -0.277818 0
M  V30 7130 H 690.782 1.55236 -0.182097 0
M  V30 7131 H 691.517 2.36571 2.21821 0
M  V30 7132 H 691.302 3.75814 1.11833 0
M  V30 7133 H 692.792 3.61102 2.09751 0
M  V30 7134 N 693.229 0.160201 1.56784 0
M  V30 7135 C 694.477 -0.486625 1.96154 0
M  V30 7136 C 694.798 -1.64525 1.04673 0
M  V30 7137 O 694.068 -1.95586 0.110864 0
M  V30 7138 H 692.648 -0.182764 0.724297 0
M  V30 7139 H 695.31 0.238787 1.93432 0
M  V30 7140 H 694.406 -0.854025 3.00188 0
M  V30 7141 N 694.707 -1.5719 -0.113559 0
M  V30 7142 C 695.954 -1.85138 -0.820382 0
M  V30 7143 C 696.282 -0.74608 -1.79622 0
M  V30 7144 O 695.537 0.262077 -1.93937 0
M  V30 7145 C 695.836 -3.19593 -1.59984 0
M  V30 7146 C 695.502 -4.44315 -0.767809 0
M  V30 7147 C 694.164 -4.78179 -0.538379 0
M  V30 7148 C 696.516 -5.2086 -0.188203 0
M  V30 7149 C 693.844 -5.86028 0.28082 0
M  V30 7150 C 696.196 -6.29572 0.618217 0
M  V30 7151 C 694.86 -6.61964 0.857912 0
M  V30 7152 H 694.13 -0.677467 -0.300199 0
M  V30 7153 H 696.777 -1.91322 -0.0825443 0
M  V30 7154 H 695.082 -3.0901 -2.40874 0
M  V30 7155 H 696.779 -3.3844 -2.1508 0
M  V30 7156 H 693.369 -4.17786 -0.956724 0
M  V30 7157 H 697.553 -4.95045 -0.352658 0
M  V30 7158 H 692.809 -6.09547 0.475693 0
M  V30 7159 H 696.983 -6.88064 1.0743 0
M  V30 7160 H 694.61 -7.45365 1.49451 0
M  V30 7161 N 696.185 0.383891 -1.52853 0
M  V30 7162 C 697.434 1.12563 -1.67369 0
M  V30 7163 C 697.747 1.90982 -0.422533 0
M  V30 7164 O 698.953 2.6778 -0.447914 0
M  V30 7165 C 697.409 2.05011 -2.95801 0
M  V30 7166 C 697.017 1.31991 -4.28115 0
M  V30 7167 C 698.761 2.79289 -3.19684 0
M  V30 7168 C 696.668 2.23235 -5.4765 0
M  V30 7169 H 695.598 0.42391 -0.623552 0
M  V30 7170 H 698.249 0.388016 -1.79351 0
M  V30 7171 H 696.631 2.82429 -2.77578 0
M  V30 7172 H 697.805 0.597633 -4.56908 0
M  V30 7173 H 696.12 0.696517 -4.10533 0
M  V30 7174 H 698.717 3.47749 -4.06171 0
M  V30 7175 H 699.06 3.43649 -2.3497 0
M  V30 7176 H 699.593 2.08962 -3.38496 0
M  V30 7177 H 696.332 1.63482 -6.34786 0
M  V30 7178 H 695.852 2.93364 -5.23161 0
M  V30 7179 H 697.531 2.83205 -5.81725 0
M  V30 7180 N 697.663 1.43903 0.642637 0
M  V30 7181 C 698.91 1.46079 1.40239 0
M  V30 7182 C 699.238 0.0890335 1.94296 0
M  V30 7183 O 698.493 -0.907533 1.73385 0
M  V30 7184 C 698.792 2.45907 2.59354 0
M  V30 7185 C 698.458 3.91522 2.23654 0
M  V30 7186 C 697.12 4.31179 2.1363 0
M  V30 7187 C 699.472 4.83242 1.95261 0
M  V30 7188 C 696.8 5.60495 1.73384 0
M  V30 7189 C 699.152 6.12933 1.56511 0
M  V30 7190 C 697.816 6.51556 1.4502 0
M  V30 7191 H 697.086 0.534542 0.513172 0
M  V30 7192 H 699.733 1.77047 0.72984 0
M  V30 7193 H 698.038 2.08381 3.3179 0
M  V30 7194 H 699.735 2.44842 3.17574 0
M  V30 7195 H 696.325 3.60142 2.32369 0
M  V30 7196 H 700.509 4.53367 2.0192 0
M  V30 7197 H 695.765 5.89249 1.63082 0
M  V30 7198 H 699.939 6.83469 1.33576 0
M  V30 7199 H 697.566 7.51663 1.13606 0
M  V30 7200 N 699.141 -0.881989 1.30609 0
M  V30 7201 C 700.369 -1.66711 1.22536 0
M  V30 7202 C 700.784 -1.87614 -0.2113 0
M  V30 7203 O 700.141 -1.42576 -1.13923 0
M  V30 7204 C 700.192 -3.04182 1.95335 0
M  V30 7205 O 699.913 -2.8422 3.33393 0
M  V30 7206 C 701.414 -3.98617 1.93956 0
M  V30 7207 H 698.634 -0.520124 0.423925 0
M  V30 7208 H 701.178 -1.10174 1.72285 0
M  V30 7209 H 699.333 -3.57442 1.49378 0
M  V30 7210 H 699.747 -3.71452 3.70302 0
M  V30 7211 H 701.221 -4.92433 2.49426 0
M  V30 7212 H 701.698 -4.29473 0.919198 0
M  V30 7213 H 702.304 -3.51292 2.39738 0
M  V30 7214 N 700.619 -1.13374 -1.09472 0
M  V30 7215 C 701.847 -0.918351 -1.85402 0
M  V30 7216 C 702.262 0.53281 -1.81126 0
M  V30 7217 O 701.619 1.36879 -1.20708 0
M  V30 7218 C 701.67 -1.39743 -3.33398 0
M  V30 7219 O 701.391 -2.79172 -3.37631 0
M  V30 7220 C 702.892 -1.22042 -4.2617 0
M  V30 7221 H 700.112 -0.327511 -0.585643 0
M  V30 7222 H 702.656 -1.50617 -1.38328 0
M  V30 7223 H 700.811 -0.852619 -3.77901 0
M  V30 7224 H 701.225 -3.00428 -4.29934 0
M  V30 7225 H 702.699 -1.60438 -5.2817 0
M  V30 7226 H 703.176 -0.162047 -4.38901 0
M  V30 7227 H 703.782 -1.75323 -3.87482 0
M  V30 7228 N 702.098 1.27442 -0.927168 0
M  V30 7229 C 703.323 1.99036 -0.583042 0
M  V30 7230 C 703.748 1.68711 0.83176 0
M  V30 7231 O 703.106 0.927081 1.55804 0
M  V30 7232 C 703.154 3.51271 -0.814925 0
M  V30 7233 O 702.258 4.12226 0.119742 0
M  V30 7234 H 701.599 0.624883 -0.224538 0
M  V30 7235 H 704.129 1.62263 -1.24628 0
M  V30 7236 H 704.139 4.01411 -0.730282 0
M  V30 7237 H 702.814 3.72676 -1.84623 0
M  V30 7238 H 701.391 3.72897 -0.0147688 0
M  V30 7239 N 703.576 0.692616 1.41565 0
M  V30 7240 C 704.506 0.0397325 2.33466 0
M  V30 7241 C 705.487 -0.770334 1.51657 0
M  V30 7242 O 706.672 -0.723903 1.80203 0
M  V30 7243 C 703.802 -0.899495 3.3545 0
M  V30 7244 C 702.756 -0.196738 4.27548 0
M  V30 7245 C 702.082 -1.25012 5.19881 0
M  V30 7246 C 703.382 0.935158 5.1386 0
M  V30 7247 H 705.076 0.807296 2.88311 0
M  V30 7248 H 702.622 0.389665 1.38628 0
M  V30 7249 H 704.575 -1.36545 3.98665 0
M  V30 7250 H 703.299 -1.69869 2.78948 0
M  V30 7251 H 701.958 0.249158 3.65752 0
M  V30 7252 H 701.606 -2.04177 4.59696 0
M  V30 7253 H 701.306 -0.784931 5.82334 0
M  V30 7254 H 702.83 -1.71665 5.85972 0
M  V30 7255 H 704.244 0.549619 5.70659 0
M  V30 7256 H 702.641 1.32726 5.85238 0
M  V30 7257 H 703.711 1.77613 4.512 0
M  V30 7258 N 705.054 -1.51416 0.437162 0
M  V30 7259 C 706.465 -1.86682 -0.0260005 0
M  V30 7260 C 706.816 -1.35432 -1.4196 0
M  V30 7261 O 705.941 -0.705055 -2.04592 0
M  V30 7262 C 706.536 -3.38757 -0.0539577 0
M  V30 7263 C 705.095 -3.7356 -0.461532 0
M  V30 7264 C 704.242 -2.75134 0.345924 0
M  V30 7265 H 707.193 -1.44642 0.653013 0
M  V30 7266 H 707.214 -3.70573 -0.863478 0
M  V30 7267 H 706.726 -3.76028 0.96045 0
M  V30 7268 H 704.827 -3.41878 -1.48155 0
M  V30 7269 H 704.94 -4.78737 -0.186451 0
M  V30 7270 H 703.304 -2.53947 -0.195739 0
M  V30 7271 H 704.087 -3.15247 1.35921 0
M  V30 7272 N 706.532 -0.168513 -1.56696 0
M  V30 7273 C 707.943 0.348694 -1.83415 0
M  V30 7274 C 708.294 1.63257 -1.0882 0
M  V30 7275 O 707.419 2.13707 -0.340333 0
M  V30 7276 C 708.014 0.639423 -3.32711 0
M  V30 7277 C 706.573 1.10108 -3.59935 0
M  V30 7278 C 705.72 0.135464 -2.76969 0
M  V30 7279 H 708.671 -0.392829 -1.53761 0
M  V30 7280 H 708.692 1.49179 -3.50037 0
M  V30 7281 H 708.204 -0.295173 -3.86976 0
M  V30 7282 H 706.305 2.05088 -3.11079 0
M  V30 7283 H 706.418 1.01218 -4.68286 0
M  V30 7284 H 704.782 0.632286 -2.46727 0
M  V30 7285 H 705.565 -0.793104 -3.34013 0
M  V30 7286 N 708.01 1.57248 0.105221 0
M  V30 7287 C 708.943 1.96567 1.15916 0
M  V30 7288 C 709.921 0.837355 1.39381 0
M  V30 7289 O 711.105 1.09676 1.53308 0
M  V30 7290 C 708.232 2.27375 2.51035 0
M  V30 7291 C 707.278 3.49869 2.43913 0
M  V30 7292 S 708.111 5.01958 1.86543 0
M  V30 7293 C 709.267 5.35932 3.23307 0
M  V30 7294 H 709.5 2.85655 0.823931 0
M  V30 7295 H 707.033 1.51204 0.312515 0
M  V30 7296 H 708.991 2.45801 3.28774 0
M  V30 7297 H 707.652 1.38876 2.81731 0
M  V30 7298 H 706.845 3.68835 3.43477 0
M  V30 7299 H 706.447 3.30901 1.743 0
M  V30 7300 H 708.739 5.31958 4.19556 0
M  V30 7301 H 709.682 6.37047 3.09155 0
M  V30 7302 H 710.09 4.63397 3.22372 0
M  V30 7303 N 709.488 -0.375779 1.53054 0
M  V30 7304 C 710.418 -1.46598 1.81745 0
M  V30 7305 C 711.399 -1.56337 0.670286 0
M  V30 7306 O 712.584 -1.71071 0.919158 0
M  V30 7307 C 709.714 -2.84058 1.99821 0
M  V30 7308 C 708.668 -2.8915 3.15557 0
M  V30 7309 C 707.994 -4.29187 3.18908 0
M  V30 7310 C 709.294 -2.57595 4.54359 0
M  V30 7311 H 710.988 -1.22837 2.73041 0
M  V30 7312 H 708.534 -0.589485 1.31381 0
M  V30 7313 H 710.487 -3.60342 2.18475 0
M  V30 7314 H 709.211 -3.09184 1.05226 0
M  V30 7315 H 707.87 -2.15316 2.96706 0
M  V30 7316 H 707.518 -4.51374 2.2197 0
M  V30 7317 H 707.218 -4.33512 3.96662 0
M  V30 7318 H 708.742 -5.07359 3.39734 0
M  V30 7319 H 710.156 -3.23595 4.73243 0
M  V30 7320 H 708.553 -2.73252 5.34279 0
M  V30 7321 H 709.623 -1.52882 4.60169 0
M  V30 7322 N 710.966 -1.44241 -0.634997 0
M  V30 7323 C 711.896 -1.53632 -1.7584 0
M  V30 7324 C 712.877 -0.389603 -1.65578 0
M  V30 7325 O 714.062 -0.609219 -1.84397 0
M  V30 7326 C 711.192 -1.47644 -3.14354 0
M  V30 7327 C 710.146 -2.60752 -3.394 0
M  V30 7328 C 709.472 -2.39817 -4.77904 0
M  V30 7329 C 710.772 -4.02921 -3.32343 0
M  V30 7330 H 712.466 -2.47662 -1.68238 0
M  V30 7331 H 710.012 -1.19197 -0.807969 0
M  V30 7332 H 711.965 -1.52815 -3.92716 0
M  V30 7333 H 710.689 -0.501284 -3.2273 0
M  V30 7334 H 709.348 -2.54965 -2.63417 0
M  V30 7335 H 708.996 -1.40502 -4.82978 0
M  V30 7336 H 708.696 -3.15649 -4.9562 0
M  V30 7337 H 710.22 -2.46799 -5.585 0
M  V30 7338 H 711.634 -4.10098 -4.00615 0
M  V30 7339 H 710.031 -4.78925 -3.61595 0
M  V30 7340 H 711.101 -4.26766 -2.30215 0
M  V30 7341 N 712.444 0.87505 -1.31075 0
M  V30 7342 C 713.407 1.96333 -1.18263 0
M  V30 7343 C 714.407 1.60416 -0.111106 0
M  V30 7344 O 715.597 1.7044 -0.359987 0
M  V30 7345 C 712.729 3.31036 -0.81414 0
M  V30 7346 H 713.922 2.09125 -2.14958 0
M  V30 7347 H 711.475 1.06271 -1.14614 0
M  V30 7348 H 712.21 3.23944 0.151875 0
M  V30 7349 H 711.995 3.58476 -1.58862 0
M  V30 7350 H 713.485 4.10842 -0.748249 0
M  V30 7351 N 713.922 1.13953 1.08869 0
M  V30 7352 C 715.17 0.903023 1.80803 0
M  V30 7353 C 715.491 -0.572151 1.86417 0
M  V30 7354 O 714.761 -1.41589 1.35386 0
M  V30 7355 H 713.341 0.331099 0.669614 0
M  V30 7356 H 716.003 1.43719 1.31647 0
M  V30 7357 H 715.099 1.29881 2.83791 0
M  V30 7358 N 715.4 -1.26948 0.933913 0
M  V30 7359 C 716.363 -2.24889 0.442457 0
M  V30 7360 C 717.363 -1.54594 -0.442426 0
M  V30 7361 O 718.553 -1.72502 -0.242629 0
M  V30 7362 C 715.685 -3.3896 -0.363173 0
M  V30 7363 H 716.878 -2.69879 1.30787 0
M  V30 7364 H 714.431 -1.38978 0.715187 0
M  V30 7365 H 715.166 -2.99361 -1.24714 0
M  V30 7366 H 714.951 -3.9116 0.271366 0
M  V30 7367 H 716.441 -4.11739 -0.697186 0
M  V30 7368 N 716.879 -0.700114 -1.41195 0
M  V30 7369 C 717.809 -0.0521132 -2.33442 0
M  V30 7370 C 718.79 0.76228 -1.52063 0
M  V30 7371 O 719.975 0.714336 -1.80585 0
M  V30 7372 C 717.105 0.881693 -3.35922 0
M  V30 7373 C 716.059 0.174062 -4.27646 0
M  V30 7374 C 715.385 1.22254 -5.20536 0
M  V30 7375 C 716.685 -0.962396 -5.13357 0
M  V30 7376 H 718.379 -0.822574 -2.87879 0
M  V30 7377 H 715.925 -0.397011 -1.38419 0
M  V30 7378 H 717.878 1.34429 -3.99383 0
M  V30 7379 H 716.602 1.68387 -2.79845 0
M  V30 7380 H 715.261 -0.268551 -3.65615 0
M  V30 7381 H 714.909 2.01736 -4.60773 0
M  V30 7382 H 714.609 0.754038 -5.82742 0
M  V30 7383 H 716.133 1.68555 -5.86874 0
M  V30 7384 H 717.547 -0.579875 -5.7036 0
M  V30 7385 H 715.944 -1.35828 -5.84526 0
M  V30 7386 H 717.014 -1.80003 -4.50252 0
M  V30 7387 N 718.357 1.51182 -0.445186 0
M  V30 7388 C 719.267 2.31692 0.368255 0
M  V30 7389 C 720.283 1.40942 1.02036 0
M  V30 7390 O 721.459 1.74011 1.01401 0
M  V30 7391 C 718.524 3.14903 1.45041 0
M  V30 7392 C 717.585 4.21442 0.817615 0
M  V30 7393 C 716.818 5.00677 1.8482 0
M  V30 7394 O 717.041 4.80644 3.07145 0
M  V30 7395 O 715.975 5.84559 1.43438 0
M  V30 7396 H 719.801 3.0232 -0.289219 0
M  V30 7397 H 717.386 1.47951 -0.207555 0
M  V30 7398 H 719.268 3.66612 2.07783 0
M  V30 7399 H 717.943 2.47031 2.09182 0
M  V30 7400 H 716.85 3.73791 0.151931 0
M  V30 7401 H 718.183 4.9171 0.219564 0
M  V30 7402 N 719.835 0.176821 1.56605 0
M  V30 7403 C 721.06 -0.47599 2.01864 0
M  V30 7404 C 721.485 -1.55645 1.05623 0
M  V30 7405 O 720.843 -1.81263 0.0366729 0
M  V30 7406 C 720.891 -1.02619 3.4569 0
M  V30 7407 O 719.995 -2.13996 3.52533 0
M  V30 7408 H 719.336 -0.113363 0.654251 0
M  V30 7409 H 721.866 0.28233 2.02643 0
M  V30 7410 H 721.876 -1.34742 3.85109 0
M  V30 7411 H 720.551 -0.235138 4.15235 0
M  V30 7412 H 719.128 -1.82876 3.24978 0
M  V30 7413 N 721.313 -1.57302 -0.09688 0
M  V30 7414 C 722.559 -1.86273 -0.801885 0
M  V30 7415 C 722.892 -0.765694 -1.78468 0
M  V30 7416 O 722.167 0.226495 -1.93177 0
M  V30 7417 C 722.45 -3.25876 -1.53221 0
M  V30 7418 C 722.303 -4.46205 -0.567529 0
M  V30 7419 C 723.622 -3.63352 -2.48321 0
M  V30 7420 H 720.741 -0.67752 -0.29006 0
M  V30 7421 H 723.383 -1.89887 -0.0655577 0
M  V30 7422 H 721.533 -3.22926 -2.15988 0
M  V30 7423 H 723.205 -4.6127 0.0529982 0
M  V30 7424 H 721.448 -4.33636 0.119233 0
M  V30 7425 H 722.119 -5.40608 -1.11564 0
M  V30 7426 H 724.595 -3.67234 -1.95648 0
M  V30 7427 H 723.471 -4.61968 -2.9644 0
M  V30 7428 H 723.732 -2.91941 -3.31998 0
M  V30 7429 N 722.791 0.367657 -1.53252 0
M  V30 7430 C 724.207 0.709191 -1.42978 0
M  V30 7431 C 724.407 1.93352 -0.567193 0
M  V30 7432 O 723.463 2.52453 -0.0488349 0
M  V30 7433 C 724.776 0.924338 -2.86141 0
M  V30 7434 C 726.324 1.02448 -2.95759 0
M  V30 7435 C 726.799 1.27211 -4.39979 0
M  V30 7436 N 728.29 1.33986 -4.43398 0
M  V30 7437 C 729.025 1.54852 -5.52095 0
M  V30 7438 N 728.521 1.73049 -6.7084 0
M  V30 7439 N 730.314 1.57205 -5.39669 0
M  V30 7440 H 722.465 -0.437669 -2.07842 0
M  V30 7441 H 724.728 -0.133737 -0.938519 0
M  V30 7442 H 724.434 0.0965455 -3.51567 0
M  V30 7443 H 724.308 1.83302 -3.29667 0
M  V30 7444 H 726.695 1.84282 -2.30487 0
M  V30 7445 H 726.776 0.0932301 -2.5563 0
M  V30 7446 H 726.42 0.458792 -5.05824 0
M  V30 7447 H 726.35 2.21654 -4.77679 0
M  V30 7448 H 728.841 1.21545 -3.5782 0
M  V30 7449 H 729.154 1.88538 -7.49449 0
M  V30 7450 H 727.499 1.70231 -6.7383 0
M  V30 7451 H 730.69 1.42555 -4.45865 0
M  V30 7452 H 730.863 1.73126 -6.24445 0
M  V30 7453 N 724.269 1.44576 0.627338 0
M  V30 7454 C 725.518 1.46837 1.38281 0
M  V30 7455 C 725.831 0.10635 1.95311 0
M  V30 7456 O 727.037 0.00651084 2.71499 0
M  V30 7457 C 725.493 2.58527 2.50384 0
M  V30 7458 C 725.101 4.00953 1.99851 0
M  V30 7459 C 726.845 2.70013 3.27557 0
M  V30 7460 C 724.752 5.0406 3.09318 0
M  V30 7461 H 723.682 0.546319 0.519664 0
M  V30 7462 H 726.333 1.70654 0.674497 0
M  V30 7463 H 724.715 2.27957 3.23808 0
M  V30 7464 H 725.889 4.41108 1.33267 0
M  V30 7465 H 724.204 3.93743 1.35482 0
M  V30 7466 H 726.801 3.44217 4.09168 0
M  V30 7467 H 727.144 1.75961 3.77284 0
M  V30 7468 H 727.677 3.00011 2.61224 0
M  V30 7469 H 724.416 5.99753 2.6453 0
M  V30 7470 H 723.936 4.68493 3.74532 0
M  V30 7471 H 725.615 5.2793 3.74031 0
M  V30 7472 N 725.747 -0.868086 1.31537 0
M  V30 7473 C 726.677 -1.99131 1.21939 0
M  V30 7474 C 727.658 -1.69768 0.106166 0
M  V30 7475 O 728.843 -1.92006 0.291081 0
M  V30 7476 C 725.973 -3.34676 0.927879 0
M  V30 7477 C 724.927 -3.7835 2.00088 0
M  V30 7478 C 724.253 -5.11375 1.56203 0
M  V30 7479 C 725.553 -3.95256 3.41424 0
M  V30 7480 H 727.247 -2.07419 2.15911 0
M  V30 7481 H 724.793 -0.996569 1.03945 0
M  V30 7482 H 726.746 -4.12793 0.847327 0
M  V30 7483 H 725.47 -3.26565 -0.0475042 0
M  V30 7484 H 724.129 -3.02474 2.07135 0
M  V30 7485 H 723.777 -4.99709 0.57445 0
M  V30 7486 H 723.477 -5.41568 2.27985 0
M  V30 7487 H 725.001 -5.92001 1.49558 0
M  V30 7488 H 726.415 -4.63764 3.3704 0
M  V30 7489 H 724.812 -4.36849 4.1144 0
M  V30 7490 H 725.882 -2.98579 3.82072 0
M  V30 7491 N 727.225 -1.14528 -1.08264 0
M  V30 7492 C 728.172 -0.833556 -2.15222 0
M  V30 7493 C 729.142 0.209539 -1.64773 0
M  V30 7494 O 730.327 0.0791388 -1.90636 0
M  V30 7495 C 727.467 -0.318799 -3.43624 0
M  V30 7496 C 726.58 -1.42237 -4.07913 0
M  V30 7497 C 725.715 -0.864704 -5.24115 0
M  V30 7498 C 724.754 -1.94585 -5.80347 0
M  V30 7499 N 723.891 -1.40525 -6.87893 0
M  V30 7500 H 728.731 -1.74965 -2.41228 0
M  V30 7501 H 726.268 -0.873169 -1.18381 0
M  V30 7502 H 728.226 -0.00213088 -4.172 0
M  V30 7503 H 726.856 0.560397 -3.17898 0
M  V30 7504 H 725.908 -1.8554 -3.32083 0
M  V30 7505 H 727.22 -2.23901 -4.45724 0
M  V30 7506 H 726.374 -0.500025 -6.04636 0
M  V30 7507 H 725.113 -0.0171219 -4.87697 0
M  V30 7508 H 724.118 -2.31946 -4.98479 0
M  V30 7509 H 725.343 -2.79704 -6.18823 0
M  V30 7510 H 723.289 -0.579873 -6.53432 0
M  V30 7511 H 723.206 -2.15825 -7.24538 0
M  V30 7512 H 724.474 -1.06852 -7.72142 0
M  V30 7513 N 728.703 1.26451 -0.940633 0
M  V30 7514 C 729.928 1.98407 -0.60412 0
M  V30 7515 C 730.353 1.69584 0.81382 0
M  V30 7516 O 729.711 0.943553 1.54812 0
M  V30 7517 C 729.759 3.50387 -0.852136 0
M  V30 7518 O 728.863 4.1233 0.076013 0
M  V30 7519 H 728.204 0.622466 -0.231153 0
M  V30 7520 H 730.734 1.60932 -1.26342 0
M  V30 7521 H 730.744 4.00614 -0.772816 0
M  V30 7522 H 729.419 3.70696 -1.88566 0
M  V30 7523 H 727.996 3.7286 -0.0543187 0
M  V30 7524 N 730.181 0.707592 1.40822 0
M  V30 7525 C 731.144 0.0587224 2.29125 0
M  V30 7526 C 732.144 -0.695624 1.44975 0
M  V30 7527 O 733.334 -0.528718 1.65983 0
M  V30 7528 C 730.466 -0.926939 3.28056 0
M  V30 7529 H 731.659 0.836349 2.88002 0
M  V30 7530 H 729.212 0.471778 1.4901 0
M  V30 7531 H 729.947 -1.7319 2.74182 0
M  V30 7532 H 729.732 -0.389015 3.90165 0
M  V30 7533 H 731.222 -1.37837 3.94196 0
M  V30 7534 N 731.66 -1.50943 0.453197 0
M  V30 7535 C 732.57 -2.31884 -0.355963 0
M  V30 7536 C 733.586 -1.41481 -1.01287 0
M  V30 7537 O 734.762 -1.74546 -1.00477 0
M  V30 7538 C 731.827 -3.15668 -1.43369 0
M  V30 7539 C 730.888 -4.2187 -0.795253 0
M  V30 7540 C 730.121 -5.0165 -1.82162 0
M  V30 7541 O 730.344 -4.82266 -3.04592 0
M  V30 7542 O 729.278 -5.85311 -1.40336 0
M  V30 7543 H 733.104 -3.02162 0.305248 0
M  V30 7544 H 730.689 -1.47839 0.215398 0
M  V30 7545 H 732.571 -3.67709 -2.05836 0
M  V30 7546 H 731.246 -2.48137 -2.07869 0
M  V30 7547 H 730.153 -3.73867 -0.132106 0
M  V30 7548 H 731.486 -4.9182 -0.193484 0
M  V30 7549 N 733.138 -0.185124 -1.56509 0
M  V30 7550 C 734.386 0.455357 -1.96903 0
M  V30 7551 C 734.707 1.62839 -1.07277 0
M  V30 7552 O 733.977 1.95385 -0.141966 0
M  V30 7553 H 732.557 0.171218 -0.727113 0
M  V30 7554 H 735.219 -0.26953 -1.93027 0
M  V30 7555 H 734.315 0.80616 -3.01509 0
M  V30 7556 N 734.616 1.57351 0.0885366 0
M  V30 7557 C 736.032 1.53331 0.442916 0
M  V30 7558 C 736.232 0.902831 1.80142 0
M  V30 7559 O 735.288 0.498147 2.47537 0
M  V30 7560 C 736.601 2.98036 0.399372 0
M  V30 7561 C 738.149 3.09286 0.480759 0
M  V30 7562 C 738.624 4.5561 0.467296 0
M  V30 7563 N 740.115 4.60182 0.52786 0
M  V30 7564 C 740.85 5.70857 0.539388 0
M  V30 7565 N 740.346 6.90944 0.506729 0
M  V30 7566 N 742.139 5.59051 0.584691 0
M  V30 7567 H 734.29 1.96709 -0.801215 0
M  V30 7568 H 736.553 0.899639 -0.298922 0
M  V30 7569 H 736.259 3.47656 -0.531806 0
M  V30 7570 H 736.133 3.57066 1.21589 0
M  V30 7571 H 738.52 2.5965 1.40236 0
M  V30 7572 H 738.601 2.53197 -0.364023 0
M  V30 7573 H 738.245 5.05899 -0.450384 0
M  V30 7574 H 738.175 5.09544 1.32938 0
M  V30 7575 H 740.666 3.73757 0.558028 0
M  V30 7576 H 740.979 7.71055 0.518989 0
M  V30 7577 H 739.324 6.93384 0.473675 0
M  V30 7578 H 742.515 4.64138 0.607781 0
M  V30 7579 H 742.688 6.45307 0.590206 0
M  V30 7580 N 736.094 -0.359525 1.53444 0
M  V30 7581 C 737.34 -1.10315 1.70172 0
M  V30 7582 C 737.673 -1.88788 0.455287 0
M  V30 7583 O 736.948 -1.86635 -0.547514 0
M  V30 7584 C 737.231 -2.05744 2.95536 0
M  V30 7585 C 737.084 -1.3084 4.3035 0
M  V30 7586 C 738.403 -3.05784 3.16518 0
M  V30 7587 H 735.522 -0.399662 0.619225 0
M  V30 7588 H 738.164 -0.383338 1.86093 0
M  V30 7589 H 736.314 -2.67125 2.82093 0
M  V30 7590 H 737.986 -0.721959 4.55615 0
M  V30 7591 H 736.229 -0.610283 4.29486 0
M  V30 7592 H 736.9 -2.00718 5.14214 0
M  V30 7593 H 739.376 -2.5451 3.29187 0
M  V30 7594 H 738.252 -3.69772 4.05659 0
M  V30 7595 H 738.513 -3.76289 2.32076 0
M  V30 7596 N 737.572 -1.44907 -0.619662 0
M  V30 7597 C 738.502 -1.55488 -1.742 0
M  V30 7598 C 739.483 -0.407143 -1.65156 0
M  V30 7599 O 740.668 -0.628743 -1.8374 0
M  V30 7600 C 737.798 -1.5097 -3.1277 0
M  V30 7601 C 736.752 -2.64337 -3.36615 0
M  V30 7602 C 736.078 -2.44872 -4.75333 0
M  V30 7603 C 737.378 -4.06423 -3.28051 0
M  V30 7604 H 739.072 -2.49432 -1.65602 0
M  V30 7605 H 736.618 -1.20047 -0.795281 0
M  V30 7606 H 738.571 -1.56971 -3.91073 0
M  V30 7607 H 737.295 -0.535486 -3.2218 0
M  V30 7608 H 735.954 -2.57744 -2.60698 0
M  V30 7609 H 735.602 -1.45617 -4.81461 0
M  V30 7610 H 735.302 -3.20888 -4.92244 0
M  V30 7611 H 736.826 -2.52709 -5.55851 0
M  V30 7612 H 738.24 -4.14324 -3.96243 0
M  V30 7613 H 736.637 -4.82733 -3.56495 0
M  V30 7614 H 737.707 -4.29183 -2.25676 0
M  V30 7615 N 739.05 0.861098 -1.31996 0
M  V30 7616 C 740.466 1.14827 -1.10846 0
M  V30 7617 C 740.666 2.0117 0.11528 0
M  V30 7618 O 739.722 2.39423 0.802048 0
M  V30 7619 C 741.035 1.83183 -2.38462 0
M  V30 7620 C 742.583 1.95847 -2.44158 0
M  V30 7621 C 743.058 2.67617 -3.71679 0
M  V30 7622 N 744.549 2.75147 -3.72624 0
M  V30 7623 C 745.284 3.31314 -4.67994 0
M  V30 7624 N 744.78 3.88343 -5.73726 0
M  V30 7625 N 746.573 3.29356 -4.55501 0
M  V30 7626 H 738.724 0.285951 -2.10466 0
M  V30 7627 H 740.987 0.189303 -0.928907 0
M  V30 7628 H 740.693 1.27193 -3.27895 0
M  V30 7629 H 740.567 2.83393 -2.48935 0
M  V30 7630 H 742.954 2.50999 -1.55189 0
M  V30 7631 H 743.035 0.94653 -2.37644 0
M  V30 7632 H 742.679 2.13131 -4.61018 0
M  V30 7633 H 742.609 3.69237 -3.75462 0
M  V30 7634 H 745.1 2.34682 -2.96197 0
M  V30 7635 H 745.413 4.29338 -6.42564 0
M  V30 7636 H 743.758 3.86693 -5.77489 0
M  V30 7637 H 746.949 2.84047 -3.72069 0
M  V30 7638 H 747.122 3.7283 -5.30001 0
M  V30 7639 N 740.528 1.15101 1.07655 0
M  V30 7640 C 741.944 0.893004 1.32279 0
M  V30 7641 C 742.144 -0.461701 1.96139 0
M  V30 7642 O 741.2 -1.20431 2.21929 0
M  V30 7643 C 742.513 2.03161 2.21689 0
M  V30 7644 C 744.061 2.06579 2.35147 0
M  V30 7645 C 744.536 3.19754 3.27905 0
M  V30 7646 N 746.027 3.19382 3.35484 0
M  V30 7647 C 746.762 4.03592 4.07309 0
M  V30 7648 N 746.258 4.97859 4.81776 0
M  V30 7649 N 748.051 3.91626 4.03219 0
M  V30 7650 H 740.202 2.02341 0.645886 0
M  V30 7651 H 742.465 0.882127 0.347211 0
M  V30 7652 H 742.171 3.00934 1.82021 0
M  V30 7653 H 742.045 1.96132 3.22199 0
M  V30 7654 H 744.432 1.09408 2.74069 0
M  V30 7655 H 744.513 2.17676 1.34353 0
M  V30 7656 H 744.157 4.17175 2.89702 0
M  V30 7657 H 744.087 3.05893 4.28645 0
M  V30 7658 H 746.578 2.51112 2.82403 0
M  V30 7659 H 746.891 5.58563 5.34067 0
M  V30 7660 H 745.236 5.0185 4.80803 0
M  V30 7661 H 748.427 3.17295 3.44154 0
M  V30 7662 H 748.6 4.57479 4.5893 0
M  V30 7663 N 742.006 -1.2595 0.947325 0
M  V30 7664 C 742.938 -2.25336 0.41906 0
M  V30 7665 C 743.951 -1.56135 -0.461051 0
M  V30 7666 O 745.14 -1.76438 -0.270505 0
M  V30 7667 C 742.24 -3.36334 -0.416233 0
M  V30 7668 C 741.413 -4.35088 0.449162 0
M  V30 7669 C 740.472 -5.25185 -0.326716 0
M  V30 7670 O 739.498 -5.68548 0.272374 0
M  V30 7671 N 740.7 -5.57388 -1.6217 0
M  V30 7672 H 743.465 -2.71298 1.27348 0
M  V30 7673 H 741.026 -1.39781 0.81688 0
M  V30 7674 H 743.018 -3.93564 -0.942826 0
M  V30 7675 H 741.588 -2.89819 -1.17148 0
M  V30 7676 H 740.808 -3.76841 1.15692 0
M  V30 7677 H 742.096 -4.98056 1.04008 0
M  V30 7678 H 741.494 -5.2405 -2.13046 0
M  V30 7679 H 740.051 -6.17234 -2.0944 0
M  V30 7680 N 743.484 -0.715051 -1.40445 0
M  V30 7681 C 744.434 -0.038591 -2.27967 0
M  V30 7682 C 745.418 0.733099 -1.43229 0
M  V30 7683 O 746.61 0.605388 -1.66325 0
M  V30 7684 C 743.739 0.882801 -3.31755 0
M  V30 7685 C 742.825 0.106325 -4.23967 0
M  V30 7686 N 743.216 -0.910143 -4.97544 0
M  V30 7687 C 741.514 0.33896 -4.4471 0
M  V30 7688 C 742.215 -1.37665 -5.65175 0
M  V30 7689 N 741.191 -0.698905 -5.39088 0
M  V30 7690 H 744.993 -0.81765 -2.82297 0
M  V30 7691 H 742.507 -0.547591 -1.5289 0
M  V30 7692 H 744.504 1.38273 -3.93302 0
M  V30 7693 H 743.164 1.66124 -2.78985 0
M  V30 7694 H 744.175 -1.29097 -5.01552 0
M  V30 7695 H 740.852 1.09377 -4.02918 0
M  V30 7696 H 742.242 -2.22122 -6.34123 0
M  V30 7697 N 744.962 1.50701 -0.461195 0
M  V30 7698 C 745.894 2.26124 0.374244 0
M  V30 7699 C 746.907 1.31064 0.965715 0
M  V30 7700 O 748.096 1.56647 0.855801 0
M  V30 7701 C 745.196 3.01996 1.5379 0
M  V30 7702 C 744.369 4.24336 1.06101 0
M  V30 7703 C 743.428 4.82585 2.09756 0
M  V30 7704 O 742.454 5.43775 1.68219 0
M  V30 7705 N 743.656 4.68712 3.42475 0
M  V30 7706 H 746.421 2.9846 -0.2723 0
M  V30 7707 H 743.982 1.59256 -0.291415 0
M  V30 7708 H 745.974 3.37846 2.22806 0
M  V30 7709 H 744.544 2.32521 2.08933 0
M  V30 7710 H 743.764 3.93707 0.197085 0
M  V30 7711 H 745.052 5.03678 0.720156 0
M  V30 7712 H 744.45 4.20026 3.78938 0
M  V30 7713 H 743.007 5.08858 4.07317 0
M  V30 7714 N 746.441 0.193421 1.56409 0
M  V30 7715 C 747.857 -0.162447 1.58771 0
M  V30 7716 C 748.057 -1.6116 1.20954 0
M  V30 7717 O 747.113 -2.3469 0.931497 0
M  V30 7718 C 748.426 0.138391 3.00381 0
M  V30 7719 C 749.974 0.0783649 3.12902 0
M  V30 7720 C 750.449 0.352491 4.56642 0
M  V30 7721 N 751.94 0.30105 4.62221 0
M  V30 7722 C 752.675 0.487028 5.71328 0
M  V30 7723 N 752.171 0.733265 6.88909 0
M  V30 7724 N 753.964 0.4214 5.60518 0
M  V30 7725 H 746.115 1.13909 1.79272 0
M  V30 7726 H 748.378 0.454528 0.83193 0
M  V30 7727 H 748.084 1.14312 3.32604 0
M  V30 7728 H 747.958 -0.559804 3.73023 0
M  V30 7729 H 750.345 -0.916963 2.80492 0
M  V30 7730 H 750.426 0.809611 2.4265 0
M  V30 7731 H 750.07 1.34513 4.89764 0
M  V30 7732 H 750 -0.399624 5.25081 0
M  V30 7733 H 752.491 0.117279 3.77718 0
M  V30 7734 H 752.804 0.86403 7.67955 0
M  V30 7735 H 751.149 0.770138 6.9072 0
M  V30 7736 H 754.34 0.229461 4.67537 0
M  V30 7737 H 754.513 0.569758 6.4549 0
M  V30 7738 N 747.919 -1.57396 -0.0801906 0
M  V30 7739 C 748.867 -2.04136 -1.11495 0
M  V30 7740 C 749.861 -0.945137 -1.40583 0
M  V30 7741 O 751.067 -1.13028 -1.40088 0
M  V30 7742 H 747.442 -0.65076 -0.37685 0
M  V30 7743 H 749.413 -2.90205 -0.694526 0
M  V30 7744 C 748.162 -2.49399 -2.42272 0
M  V30 7745 H 747.485 -3.33339 -2.20737 0
M  V30 7746 H 748.925 -2.85864 -3.13142 0
M  V30 7747 C 747.384 -1.37341 -3.07635 0
M  V30 7748 O 747.914 -0.710829 -3.95361 0
M  V30 7749 N 746.12 -1.12064 -2.68123 0
M  V30 7750 H 745.667 -1.66126 -1.96875 0
M  V30 7751 H 745.625 -0.372916 -3.12181 0
M  V30 7752 N 749.397 0.351382 -1.53633 0
M  V30 7753 C 750.643 1.09411 -1.70754 0
M  V30 7754 C 750.976 1.88544 -0.465293 0
M  V30 7755 O 750.251 1.86923 0.537608 0
M  V30 7756 C 750.534 2.04173 -2.96623 0
M  V30 7757 C 750.387 1.28556 -4.31038 0
M  V30 7758 C 751.706 3.04102 -3.18136 0
M  V30 7759 H 748.825 0.396373 -0.621335 0
M  V30 7760 H 751.467 0.373464 -1.86293 0
M  V30 7761 H 749.617 2.65625 -2.83506 0
M  V30 7762 H 751.289 0.697786 -4.55992 0
M  V30 7763 H 749.532 0.587498 -4.29803 0
M  V30 7764 H 750.203 1.97989 -5.15271 0
M  V30 7765 H 752.679 2.5276 -3.30532 0
M  V30 7766 H 751.555 3.67616 -4.07615 0
M  V30 7767 H 751.816 3.75053 -2.34068 0
M  V30 7768 N 750.875 1.45233 0.611969 0
M  V30 7769 C 751.822 1.5357 1.72293 0
M  V30 7770 C 752.792 0.381912 1.6165 0
M  V30 7771 O 753.977 0.594765 1.81293 0
M  V30 7772 C 751.117 1.50419 3.10593 0
M  V30 7773 C 750.23 2.76316 3.32074 0
M  V30 7774 C 749.365 2.64866 4.60456 0
M  V30 7775 C 748.404 3.85838 4.7518 0
M  V30 7776 N 747.541 3.72949 5.94856 0
M  V30 7777 H 752.381 2.4848 1.64504 0
M  V30 7778 H 749.918 1.23302 0.802191 0
M  V30 7779 H 751.876 1.4658 3.90602 0
M  V30 7780 H 750.506 0.590621 3.17351 0
M  V30 7781 H 749.558 2.90261 2.45872 0
M  V30 7782 H 750.87 3.66055 3.38829 0
M  V30 7783 H 750.024 2.58969 5.48653 0
M  V30 7784 H 748.763 1.72719 4.56092 0
M  V30 7785 H 747.768 3.92099 3.85407 0
M  V30 7786 H 748.993 4.79045 4.81344 0
M  V30 7787 H 746.939 2.83567 5.91545 0
M  V30 7788 H 746.856 4.56319 6.02751 0
M  V30 7789 H 748.124 3.70976 6.85563 0
M  V30 7790 N 752.353 -0.854086 1.3245 0
M  V30 7791 C 753.283 -1.97827 1.24044 0
M  V30 7792 C 754.264 -1.69646 0.124166 0
M  V30 7793 O 755.449 -1.91687 0.31143 0
M  V30 7794 C 752.579 -3.33673 0.963324 0
M  V30 7795 C 751.533 -3.76207 2.04089 0
M  V30 7796 C 750.859 -5.0969 1.61618 0
M  V30 7797 C 752.159 -3.91612 3.45597 0
M  V30 7798 H 753.853 -2.05118 2.18099 0
M  V30 7799 H 751.399 -0.985489 1.04996 0
M  V30 7800 H 753.352 -4.11871 0.891061 0
M  V30 7801 H 752.076 -3.26597 -0.0128649 0
M  V30 7802 H 750.735 -3.0026 2.10332 0
M  V30 7803 H 750.383 -4.99072 0.627418 0
M  V30 7804 H 750.083 -5.3912 2.33717 0
M  V30 7805 H 751.607 -5.90381 1.55829 0
M  V30 7806 H 753.021 -4.60163 3.4194 0
M  V30 7807 H 751.418 -4.3246 4.16051 0
M  V30 7808 H 752.488 -2.9451 3.85217 0
M  V30 7809 N 753.831 -1.1567 -1.07043 0
M  V30 7810 C 754.764 -0.799867 -2.13723 0
M  V30 7811 C 755.742 0.225098 -1.61034 0
M  V30 7812 O 756.926 0.11093 -1.88173 0
M  V30 7813 C 754.053 -0.18997 -3.38167 0
M  V30 7814 C 753.099 -1.18733 -4.0964 0
M  V30 7815 S 753.932 -2.73074 -4.60642 0
M  V30 7816 C 755.088 -2.13512 -5.88356 0
M  V30 7817 H 755.321 -1.70342 -2.43661 0
M  V30 7818 H 752.854 -0.979377 -1.19363 0
M  V30 7819 H 754.812 0.155471 -4.10205 0
M  V30 7820 H 753.473 0.691229 -3.064 0
M  V30 7821 H 752.666 -0.708873 -4.9899 0
M  V30 7822 H 752.268 -1.47747 -3.43579 0
M  V30 7823 H 754.56 -1.49911 -6.60706 0
M  V30 7824 H 755.503 -3.01042 -6.40921 0
M  V30 7825 H 755.911 -1.57693 -5.42027 0
M  V30 7826 N 755.309 1.25446 -0.953992 0
M  V30 7827 C 756.725 1.4539 -0.658316 0
M  V30 7828 C 756.925 1.85607 0.784356 0
M  V30 7829 O 755.981 1.98568 1.55972 0
M  V30 7830 C 757.294 2.52643 -1.6307 0
M  V30 7831 C 758.842 2.66484 -1.64181 0
M  V30 7832 C 759.317 3.76921 -2.60182 0
M  V30 7833 N 760.808 3.84331 -2.58542 0
M  V30 7834 C 761.543 4.69271 -3.29503 0
M  V30 7835 N 761.039 5.58503 -4.09934 0
M  V30 7836 N 762.832 4.6323 -3.18393 0
M  V30 7837 H 754.983 0.976337 -1.8863 0
M  V30 7838 H 757.246 0.490343 -0.811337 0
M  V30 7839 H 756.952 2.29949 -2.66114 0
M  V30 7840 H 756.826 3.50547 -1.39271 0
M  V30 7841 H 759.213 2.88545 -0.618552 0
M  V30 7842 H 759.294 1.68982 -1.92038 0
M  V30 7843 H 758.938 3.55612 -3.62633 0
M  V30 7844 H 758.868 4.73906 -2.29609 0
M  V30 7845 H 761.359 3.20544 -2.0015 0
M  V30 7846 H 761.672 6.20241 -4.61 0
M  V30 7847 H 760.017 5.58214 -4.14032 0
M  V30 7848 H 763.208 3.92527 -2.5503 0
M  V30 7849 H 763.381 5.29204 -3.73961 0
M  V30 7850 N 756.787 0.722489 1.40064 0
M  V30 7851 C 757.719 0.0349057 2.29173 0
M  V30 7852 C 758.732 -0.716571 1.46182 0
M  V30 7853 O 759.921 -0.562806 1.69395 0
M  V30 7854 C 757.021 -0.974839 3.24577 0
M  V30 7855 C 756.194 -0.287471 4.36454 0
M  V30 7856 C 755.253 -1.20356 5.12251 0
M  V30 7857 O 754.279 -0.685753 5.65054 0
M  V30 7858 N 755.481 -2.53422 5.22262 0
M  V30 7859 H 758.246 0.800058 2.88824 0
M  V30 7860 H 755.807 0.57068 1.51509 0
M  V30 7861 H 757.799 -1.59002 3.72157 0
M  V30 7862 H 756.369 -1.6413 2.66046 0
M  V30 7863 H 755.589 0.508008 3.90913 0
M  V30 7864 H 756.877 0.189382 5.08447 0
M  V30 7865 H 756.275 -2.97981 4.80857 0
M  V30 7866 H 754.832 -3.10067 5.73325 0
M  V30 7867 N 758.265 -1.50454 0.469181 0
M  V30 7868 C 759.198 -2.25149 -0.371928 0
M  V30 7869 C 760.176 -1.28382 -0.997845 0
M  V30 7870 O 761.36 -1.57599 -1.03415 0
M  V30 7871 C 758.487 -3.02629 -1.52097 0
M  V30 7872 C 757.533 -4.14305 -1.01262 0
M  V30 7873 S 758.366 -5.35453 0.0711459 0
M  V30 7874 C 759.522 -6.1648 -1.08181 0
M  V30 7875 H 759.755 -2.96142 0.262134 0
M  V30 7876 H 757.288 -1.52296 0.254042 0
M  V30 7877 H 759.246 -3.47861 -2.17952 0
M  V30 7878 H 757.907 -2.31165 -2.12654 0
M  V30 7879 H 757.1 -4.67913 -1.87278 0
M  V30 7880 H 756.702 -3.71499 -0.431804 0
M  V30 7881 H 758.994 -6.47497 -1.99382 0
M  V30 7882 H 759.937 -7.05679 -0.585028 0
M  V30 7883 H 760.345 -5.48492 -1.33478 0
M  V30 7884 N 759.743 -0.201713 -1.56304 0
M  V30 7885 C 760.673 0.71155 -2.22394 0
M  V30 7886 C 761.654 1.21625 -1.18917 0
M  V30 7887 O 762.839 1.26388 -1.47444 0
M  V30 7888 C 759.969 1.92837 -2.88845 0
M  V30 7889 C 758.923 1.55831 -3.98623 0
M  V30 7890 C 758.249 2.85228 -4.52271 0
M  V30 7891 C 759.549 0.763249 -5.16693 0
M  V30 7892 H 761.243 0.160573 -2.98969 0
M  V30 7893 H 758.789 0.0757916 -1.438 0
M  V30 7894 H 760.742 2.57253 -3.33764 0
M  V30 7895 H 759.466 2.50398 -2.09686 0
M  V30 7896 H 758.125 0.9377 -3.54405 0
M  V30 7897 H 757.773 3.40893 -3.69866 0
M  V30 7898 H 757.473 2.6121 -5.26349 0
M  V30 7899 H 758.997 3.50622 -4.99897 0
M  V30 7900 H 760.411 1.31066 -5.58117 0
M  V30 7901 H 758.808 0.620935 -5.96879 0
M  V30 7902 H 759.878 -0.234322 -4.84334 0
M  V30 7903 N 761.222 1.57436 0.0718424 0
M  V30 7904 C 762.155 1.98982 1.11721 0
M  V30 7905 C 763.133 0.866731 1.37574 0
M  V30 7906 O 764.317 1.12903 1.50948 0
M  V30 7907 C 761.444 2.32648 2.46155 0
M  V30 7908 C 760.49 3.54964 2.36437 0
M  V30 7909 S 761.323 5.05802 1.75854 0
M  V30 7910 C 762.479 5.42669 3.11867 0
M  V30 7911 H 762.712 2.87338 0.763154 0
M  V30 7912 H 760.245 1.51833 0.280372 0
M  V30 7913 H 762.203 2.52719 3.23486 0
M  V30 7914 H 760.864 1.44821 2.78722 0
M  V30 7915 H 760.057 3.76038 3.35577 0
M  V30 7916 H 759.659 3.34524 1.67242 0
M  V30 7917 H 761.951 5.40737 4.08178 0
M  V30 7918 H 762.894 6.43461 2.95573 0
M  V30 7919 H 763.302 4.70131 3.1247 0
M  V30 7920 N 762.7 -0.34323 1.53817 0
M  V30 7921 C 763.977 -1.10047 1.61706 0
M  V30 7922 C 764.357 -2.06495 0.438514 0
M  V30 7923 O 763.705 -2.21297 -0.569188 0
M  V30 7924 C 763.915 -1.81985 2.97796 0
M  V30 7925 C 765.263 -2.35717 3.53161 0
M  V30 7926 O 766.287 -1.9208 2.99973 0
M  V30 7927 O 765.146 -3.15551 4.46195 0
M  V30 7928 H 762.24 -0.506096 0.654061 0
M  V30 7929 H 764.786 -0.344697 1.66162 0
M  V30 7930 H 763.558 -1.11722 3.75012 0
M  V30 7931 H 763.181 -2.64419 2.96931 0
M  V30 7932 N 764.178 -1.45556 -0.604258 0
M  V30 7933 C 765.141 -1.54091 -1.69672 0
M  V30 7934 C 766.141 -0.420076 -1.55216 0
M  V30 7935 O 767.331 -0.683671 -1.60224 0
M  V30 7936 C 764.463 -1.44063 -3.08964 0
M  V30 7937 H 765.656 -2.51431 -1.6347 0
M  V30 7938 H 763.209 -1.33046 -0.820273 0
M  V30 7939 H 763.944 -0.479201 -3.2074 0
M  V30 7940 H 763.729 -2.25362 -3.20865 0
M  V30 7941 H 765.219 -1.53075 -3.88533 0
M  V30 7942 N 765.656 0.84705 -1.32902 0
M  V30 7943 C 766.904 1.5986 -1.2365 0
M  V30 7944 C 767.225 1.93974 0.199789 0
M  V30 7945 O 766.495 1.60273 1.12648 0
M  V30 7946 H 765.075 0.592696 -0.454665 0
M  V30 7947 H 767.737 1.01278 -1.66519 0
M  V30 7948 H 766.833 2.53218 -1.82448 0
M  V30 7949 N 767.134 1.16236 1.06428 0
M  V30 7950 C 768.064 0.890807 2.1584 0
M  V30 7951 C 769.045 -0.162333 1.69324 0
M  V30 7952 O 770.23 -0.0147191 1.94194 0
M  V30 7953 C 767.36 0.389615 3.45108 0
M  V30 7954 C 766.314 1.38051 4.05125 0
M  V30 7955 C 765.64 0.737773 5.29586 0
M  V30 7956 C 766.94 2.74965 4.44062 0
M  V30 7957 H 768.634 1.80577 2.38814 0
M  V30 7958 H 766.18 0.869657 1.14774 0
M  V30 7959 H 768.133 0.187127 4.20984 0
M  V30 7960 H 766.857 -0.560851 3.21748 0
M  V30 7961 H 765.516 1.56952 3.31303 0
M  V30 7962 H 765.164 -0.219135 5.02522 0
M  V30 7963 H 764.864 1.39914 5.70699 0
M  V30 7964 H 766.388 0.545275 6.0816 0
M  V30 7965 H 767.802 2.59855 5.11027 0
M  V30 7966 H 766.199 3.37563 4.96156 0
M  V30 7967 H 767.269 3.30321 3.54987 0
M  V30 7968 N 768.612 -1.24939 0.960631 0
M  V30 7969 C 770.023 -1.74701 0.658529 0
M  V30 7970 C 770.374 -1.77967 -0.825959 0
M  V30 7971 O 769.499 -1.40444 -1.64634 0
M  V30 7972 C 770.094 -3.17263 1.18867 0
M  V30 7973 C 768.653 -3.64561 0.936614 0
M  V30 7974 C 767.8 -2.43423 1.32817 0
M  V30 7975 H 770.751 -1.10741 1.13676 0
M  V30 7976 H 770.772 -3.76481 0.551589 0
M  V30 7977 H 770.284 -3.14854 2.26912 0
M  V30 7978 H 768.385 -3.72378 -0.128608 0
M  V30 7979 H 768.498 -4.52392 1.57729 0
M  V30 7980 H 766.862 -2.43513 0.746548 0
M  V30 7981 H 767.645 -2.437 2.41796 0
M  V30 7982 N 770.09 -0.729906 -1.39679 0
M  V30 7983 C 771.336 -0.27603 -2.00913 0
M  V30 7984 C 771.669 1.13227 -1.57776 0
M  V30 7985 O 770.944 1.7709 -0.804319 0
M  V30 7986 C 771.227 -0.372157 -3.58172 0
M  V30 7987 C 771.08 -1.81986 -4.11341 0
M  V30 7988 C 772.399 0.248378 -4.39399 0
M  V30 7989 H 769.518 -0.101773 -0.729939 0
M  V30 7990 H 772.16 -0.925104 -1.65957 0
M  V30 7991 H 770.31 0.180459 -3.88081 0
M  V30 7992 H 771.982 -2.42896 -3.92172 0
M  V30 7993 H 770.225 -2.34287 -3.65092 0
M  V30 7994 H 770.896 -1.83842 -5.20486 0
M  V30 7995 H 773.372 -0.222645 -4.15504 0
M  V30 7996 H 772.248 0.150746 -5.48693 0
M  V30 7997 H 772.509 1.33378 -4.21501 0
M  V30 7998 N 771.568 1.50203 -0.477153 0
M  V30 7999 C 772.814 2.02658 0.0758507 0
M  V30 8000 C 773.147 1.358 1.38824 0
M  V30 8001 O 772.422 0.485696 1.88338 0
M  V30 8002 C 772.705 3.59208 0.253339 0
M  V30 8003 C 772.558 4.36629 -1.0805 0
M  V30 8004 C 773.877 4.28469 1.00509 0
M  V30 8005 H 770.996 0.736538 0.0260921 0
M  V30 8006 H 773.638 1.79464 -0.623925 0
M  V30 8007 H 771.788 3.79101 0.849378 0
M  V30 8008 H 773.46 4.28292 -1.71358 0
M  V30 8009 H 771.703 4.0013 -1.67566 0
M  V30 8010 H 772.374 5.44449 -0.909883 0
M  V30 8011 H 774.85 4.13087 0.499818 0
M  V30 8012 H 773.726 5.37804 1.09808 0
M  V30 8013 H 773.987 3.92057 2.04314 0
M  V30 8014 N 773.046 0.209999 1.56195 0
M  V30 8015 C 773.996 -0.717978 2.164 0
M  V30 8016 C 774.98 -1.16577 1.10899 0
M  V30 8017 O 776.172 -1.12169 1.3692 0
M  V30 8018 C 773.301 -1.93091 2.8385 0
M  V30 8019 C 772.387 -1.50333 3.96561 0
M  V30 8020 N 772.778 -0.787621 4.9963 0
M  V30 8021 C 771.076 -1.79151 4.08437 0
M  V30 8022 C 771.777 -0.571204 5.78889 0
M  V30 8023 N 770.753 -1.12444 5.31843 0
M  V30 8024 H 774.555 -0.162603 2.9345 0
M  V30 8025 H 772.069 0.0107928 1.62396 0
M  V30 8026 H 774.066 -2.60635 3.25384 0
M  V30 8027 H 772.726 -2.49087 2.08293 0
M  V30 8028 H 773.737 -0.441513 5.16015 0
M  V30 8029 H 770.414 -2.36549 3.44022 0
M  V30 8030 H 771.804 -0.00237941 6.719 0
M  V30 8031 N 774.524 -1.57472 -0.0634922 0
M  V30 8032 C 775.764 -1.89491 -0.766312 0
M  V30 8033 C 776.128 -0.80475 -1.74321 0
M  V30 8034 O 777.329 -1.00825 -2.49174 0
M  V30 8035 C 775.6 -3.26731 -1.44851 0
M  V30 8036 S 777.159 -3.80516 -2.18525 0
M  V30 8037 H 773.977 -0.663832 -0.254653 0
M  V30 8038 H 776.579 -1.95488 -0.0220867 0
M  V30 8039 H 775.283 -4.03967 -0.723824 0
M  V30 8040 H 774.814 -3.23953 -2.232 0
M  V30 8041 H 776.829 -3.5647 -3.45172 0
M  V30 8042 N 776.003 0.335068 -1.53997 0
M  V30 8043 C 777.414 0.910191 -1.6301 0
M  V30 8044 C 777.765 1.89271 -0.516809 0
M  V30 8045 O 776.89 2.13516 0.352123 0
M  V30 8046 C 777.485 1.65761 -2.9548 0
M  V30 8047 C 776.044 2.18163 -3.06728 0
M  V30 8048 C 775.191 1.00338 -2.5851 0
M  V30 8049 H 778.142 0.112965 -1.58297 0
M  V30 8050 H 778.163 2.52107 -2.84995 0
M  V30 8051 H 777.675 0.94227 -3.76488 0
M  V30 8052 H 775.776 2.92847 -2.30372 0
M  V30 8053 H 775.889 2.43952 -4.1234 0
M  V30 8054 H 774.253 1.37925 -2.14124 0
M  V30 8055 H 775.036 0.30254 -3.41964 0
M  V30 8056 N 777.481 1.45874 0.596531 0
M  V30 8057 C 778.706 1.54247 1.38646 0
M  V30 8058 C 779.131 0.179571 1.87241 0
M  V30 8059 O 778.489 -0.837831 1.6078 0
M  V30 8060 C 778.537 2.54015 2.55946 0
M  V30 8061 O 777.641 2.06561 3.5694 0
M  V30 8062 H 776.982 0.519555 0.413471 0
M  V30 8063 H 779.512 1.91327 0.724936 0
M  V30 8064 H 779.522 2.73179 3.03047 0
M  V30 8065 H 778.197 3.52994 2.19928 0
M  V30 8066 H 776.774 1.97324 3.16414 0
M  V30 8067 N 778.959 -0.83999 1.33349 0
M  V30 8068 C 779.909 -1.93817 1.20079 0
M  V30 8069 C 780.893 -1.60564 0.103978 0
M  V30 8070 O 782.085 -1.73859 0.331964 0
M  V30 8071 C 779.214 -3.30151 0.941031 0
M  V30 8072 C 778.3 -3.69577 2.08023 0
M  V30 8073 N 778.691 -3.80707 3.3301 0
M  V30 8074 C 776.989 -3.99309 1.98667 0
M  V30 8075 C 777.69 -4.14899 4.07717 0
M  V30 8076 N 776.666 -4.27208 3.36146 0
M  V30 8077 H 780.468 -2.00576 2.14817 0
M  V30 8078 H 777.982 -1.03264 1.2534 0
M  V30 8079 H 779.979 -4.08617 0.826894 0
M  V30 8080 H 778.639 -3.247 0.00216738 0
M  V30 8081 H 779.65 -3.64644 3.67771 0
M  V30 8082 H 776.327 -4.02076 1.12433 0
M  V30 8083 H 777.717 -4.30857 5.15569 0
M  V30 8084 N 780.437 -1.16799 -1.0581 0
M  V30 8085 C 781.686 -0.94698 -1.78088 0
M  V30 8086 C 781.999 0.526016 -1.88394 0
M  V30 8087 O 783.205 0.865061 -2.5735 0
M  V30 8088 C 781.661 -1.64508 -3.20102 0
M  V30 8089 C 781.269 -3.15618 -3.17946 0
M  V30 8090 C 783.013 -1.50622 -3.96879 0
M  V30 8091 C 780.92 -3.78144 -4.5471 0
M  V30 8092 H 779.85 -0.35067 -0.667493 0
M  V30 8093 H 782.501 -1.39985 -1.18645 0
M  V30 8094 H 780.883 -1.11993 -3.79834 0
M  V30 8095 H 782.057 -3.75016 -2.67768 0
M  V30 8096 H 780.372 -3.29444 -2.54667 0
M  V30 8097 H 782.969 -1.94713 -4.97987 0
M  V30 8098 H 783.312 -0.455864 -4.13797 0
M  V30 8099 H 783.845 -2.00319 -3.43682 0
M  V30 8100 H 780.584 -4.83149 -4.42998 0
M  V30 8101 H 780.104 -3.23532 -5.05062 0
M  V30 8102 H 781.783 -3.79986 -5.2366 0
M  V30 8103 N 781.915 1.24427 -0.967243 0
M  V30 8104 C 783.164 1.91789 -0.624478 0
M  V30 8105 C 783.477 1.76448 0.844129 0
M  V30 8106 O 784.683 2.38495 1.2974 0
M  V30 8107 C 783.139 3.43743 -1.06626 0
M  V30 8108 C 782.747 3.67771 -2.55829 0
M  V30 8109 C 784.491 4.16958 -0.79662 0
M  V30 8110 C 782.398 5.13293 -2.93742 0
M  V30 8111 H 781.328 0.71811 -0.229856 0
M  V30 8112 H 783.979 1.41081 -1.17339 0
M  V30 8113 H 782.361 3.93484 -0.445663 0
M  V30 8114 H 783.535 3.28631 -3.23015 0
M  V30 8115 H 781.85 3.07841 -2.80398 0
M  V30 8116 H 784.447 5.24171 -1.05589 0
M  V30 8117 H 784.79 4.15442 0.267163 0
M  V30 8118 H 785.323 3.73164 -1.37816 0
M  V30 8119 H 782.062 5.19931 -3.9919 0
M  V30 8120 H 781.582 5.53433 -2.3124 0
M  V30 8121 H 783.261 5.81521 -2.83623 0
M  V30 8122 N 783.393 0.737304 1.3929 0
M  V30 8123 C 784.804 0.355966 1.83275 0
M  V30 8124 C 785.155 -1.11295 1.6158 0
M  V30 8125 O 784.28 -1.85871 1.10819 0
M  V30 8126 C 784.875 0.63931 3.32713 0
M  V30 8127 C 783.434 0.31144 3.75109 0
M  V30 8128 C 782.581 0.900765 2.62262 0
M  V30 8129 H 785.532 0.934763 1.28249 0
M  V30 8130 H 785.553 -0.0881293 3.80398 0
M  V30 8131 H 785.065 1.70847 3.48472 0
M  V30 8132 H 783.166 -0.751791 3.64937 0
M  V30 8133 H 783.279 0.795611 4.72448 0
M  V30 8134 H 781.643 0.327239 2.52589 0
M  V30 8135 H 782.426 1.97463 2.80826 0
M  V30 8136 N 784.871 -1.49948 0.485112 0
M  V30 8137 C 786.117 -2.02695 -0.0651022 0
M  V30 8138 C 786.45 -1.36534 -1.38102 0
M  V30 8139 O 785.725 -0.495677 -1.88078 0
M  V30 8140 C 786.008 -3.59337 -0.234285 0
M  V30 8141 C 785.861 -4.3605 1.10364 0
M  V30 8142 C 787.18 -4.28996 -0.982351 0
M  V30 8143 H 784.299 -0.736666 -0.0221856 0
M  V30 8144 H 786.941 -1.7913 0.633433 0
M  V30 8145 H 785.091 -3.79546 -0.829262 0
M  V30 8146 H 786.763 -4.27377 1.73627 0
M  V30 8147 H 785.006 -3.99236 1.69686 0
M  V30 8148 H 785.677 -5.43959 0.938743 0
M  V30 8149 H 788.153 -4.13346 -0.477904 0
M  V30 8150 H 787.029 -5.38379 -1.06955 0
M  V30 8151 H 787.29 -3.93135 -2.02231 0
M  V30 8152 N 786.349 -0.21828 -1.56081 0
M  V30 8153 C 787.765 0.137168 -1.59009 0
M  V30 8154 C 787.965 1.59215 -1.23503 0
M  V30 8155 O 787.021 2.33178 -0.968716 0
M  V30 8156 C 788.334 -0.186162 -3.00123 0
M  V30 8157 C 789.882 -0.128135 -3.12738 0
M  V30 8158 C 790.357 -0.425094 -4.56023 0
M  V30 8159 N 791.848 -0.374547 -4.61683 0
M  V30 8160 C 792.583 -0.57786 -5.70481 0
M  V30 8161 N 792.079 -0.842771 -6.87655 0
M  V30 8162 N 793.872 -0.510521 -5.59777 0
M  V30 8163 H 786.023 -1.16746 -1.77437 0
M  V30 8164 H 788.286 -0.467706 -0.824594 0
M  V30 8165 H 787.992 -1.19589 -3.30744 0
M  V30 8166 H 787.866 0.500388 -3.73866 0
M  V30 8167 H 790.253 0.872224 -2.81915 0
M  V30 8168 H 790.334 -0.848112 -2.41331 0
M  V30 8169 H 789.978 -1.42288 -4.87562 0
M  V30 8170 H 789.908 0.316038 -5.25651 0
M  V30 8171 H 792.399 -0.177356 -3.77484 0
M  V30 8172 H 792.712 -0.986095 -7.66483 0
M  V30 8173 H 791.057 -0.879929 -6.89407 0
M  V30 8174 H 794.248 -0.303813 -4.67113 0
M  V30 8175 H 794.421 -0.672378 -6.44502 0
M  V30 8176 N 787.827 1.57504 0.0551401 0
M  V30 8177 C 789.073 1.88334 0.752216 0
M  V30 8178 C 789.406 0.812742 1.76375 0
M  V30 8179 O 788.681 -0.175198 1.93709 0
M  V30 8180 C 788.964 3.29824 1.44528 0
M  V30 8181 C 788.817 4.47553 0.449026 0
M  V30 8182 C 790.136 3.69808 2.38601 0
M  V30 8183 H 787.255 0.684973 0.271995 0
M  V30 8184 H 789.897 1.89994 0.0151895 0
M  V30 8185 H 788.047 3.28539 2.07351 0
M  V30 8186 H 789.719 4.60967 -0.175277 0
M  V30 8187 H 787.962 4.33168 -0.234162 0
M  V30 8188 H 788.633 5.43376 0.971917 0
M  V30 8189 H 791.109 3.72293 1.85842 0
M  V30 8190 H 789.985 4.69665 2.84088 0
M  V30 8191 H 790.246 3.00641 3.24141 0
M  V30 8192 N 789.305 -0.326896 1.54172 0
M  V30 8193 C 790.268 -1.38515 1.8261 0
M  V30 8194 C 791.268 -1.44872 0.697771 0
M  V30 8195 O 792.458 -1.44957 0.966078 0
M  V30 8196 C 789.59 -2.77281 1.98313 0
M  V30 8197 H 790.783 -1.14556 2.77159 0
M  V30 8198 H 788.336 -0.562199 1.45839 0
M  V30 8199 H 789.071 -3.065 1.05964 0
M  V30 8200 H 788.856 -2.74061 2.80416 0
M  V30 8201 H 790.346 -3.53845 2.21773 0
M  V30 8202 N 790.784 -1.46188 -0.588786 0
M  V30 8203 C 792.061 -1.41659 -1.34878 0
M  V30 8204 C 792.441 -0.0968913 -2.10878 0
M  V30 8205 O 791.789 0.921468 -2.09096 0
M  V30 8206 C 791.999 -2.6424 -2.27988 0
M  V30 8207 C 793.347 -3.1013 -2.90008 0
M  V30 8208 O 794.371 -2.64745 -2.38303 0
M  V30 8209 O 793.23 -3.88944 -3.83908 0
M  V30 8210 H 790.324 -0.563058 -0.605718 0
M  V30 8211 H 792.87 -1.58346 -0.610309 0
M  V30 8212 H 791.642 -3.51853 -1.71217 0
M  V30 8213 H 791.265 -2.49982 -3.09184 0
M  V30 8214 N 792.262 0.832906 -1.33792 0
M  V30 8215 C 793.225 1.92471 -1.24449 0
M  V30 8216 C 794.225 1.59981 -0.162085 0
M  V30 8217 O 795.415 1.69208 -0.414029 0
M  V30 8218 C 792.547 3.28278 -0.919044 0
M  V30 8219 H 793.74 2.0218 -2.21502 0
M  V30 8220 H 791.293 1.0257 -1.17936 0
M  V30 8221 H 792.028 3.24263 0.048738 0
M  V30 8222 H 791.813 3.53241 -1.70187 0
M  V30 8223 H 793.303 4.08253 -0.878576 0
M  V30 8224 N 793.74 1.17359 1.05189 0
M  V30 8225 C 794.703 0.892604 2.11105 0
M  V30 8226 C 795.703 -0.117236 1.60372 0
M  V30 8227 O 796.893 0.114936 1.7382 0
M  V30 8228 C 794.025 0.337032 3.3923 0
M  V30 8229 H 795.218 1.83169 2.37464 0
M  V30 8230 H 792.771 0.984051 1.21434 0
M  V30 8231 H 793.506 -0.609198 3.18527 0
M  V30 8232 H 793.291 1.06484 3.77364 0
M  V30 8233 H 794.781 0.158763 4.17298 0
M  V30 8234 N 795.218 -1.23913 0.973828 0
M  V30 8235 C 796.165 -2.25132 0.508366 0
M  V30 8236 C 797.135 -1.59908 -0.449307 0
M  V30 8237 O 798.32 -1.87405 -0.358313 0
M  V30 8238 C 795.46 -3.4458 -0.189422 0
M  V30 8239 C 794.573 -4.24381 0.807738 0
M  V30 8240 C 793.708 -5.31131 0.0854315 0
M  V30 8241 C 792.747 -6.02635 1.07225 0
M  V30 8242 N 791.884 -7.01073 0.379535 0
M  V30 8243 H 796.724 -2.64313 1.37632 0
M  V30 8244 H 794.261 -1.29924 0.689802 0
M  V30 8245 H 796.219 -4.12706 -0.610733 0
M  V30 8246 H 794.849 -3.06218 -1.02129 0
M  V30 8247 H 793.901 -3.55735 1.34747 0
M  V30 8248 H 795.213 -4.73778 1.55998 0
M  V30 8249 H 794.367 -6.05422 -0.393572 0
M  V30 8250 H 793.106 -4.82658 -0.699461 0
M  V30 8251 H 792.111 -5.27143 1.56207 0
M  V30 8252 H 793.336 -6.53197 1.85769 0
M  V30 8253 H 791.282 -6.54862 -0.386269 0
M  V30 8254 H 791.199 -7.48382 1.07054 0
M  V30 8255 H 792.467 -7.79462 -0.0772984 0
M  V30 8256 N 796.696 -0.74468 -1.38897 0
M  V30 8257 C 797.644 -0.100312 -2.32384 0
M  V30 8258 C 798.638 0.715191 -1.53562 0
M  V30 8259 O 799.844 0.615288 -1.69157 0
M  V30 8260 H 796.219 -0.0136403 -0.751876 0
M  V30 8261 H 798.19 -0.905007 -2.84345 0
M  V30 8262 C 796.939 0.785432 -3.38713 0
M  V30 8263 H 796.262 0.167308 -3.9945 0
M  V30 8264 H 797.702 1.20374 -4.06554 0
M  V30 8265 C 796.161 1.92408 -2.76552 0
M  V30 8266 O 796.691 3.01752 -2.65157 0
M  V30 8267 N 794.897 1.71642 -2.34494 0
M  V30 8268 H 794.444 0.827079 -2.43961 0
M  V30 8269 H 794.402 2.48 -1.93244 0
M  V30 8270 N 798.174 1.49689 -0.493057 0
M  V30 8271 C 799.402 2.06836 0.0513141 0
M  V30 8272 C 799.817 1.35436 1.31539 0
M  V30 8273 O 799.174 0.430248 1.77356 0
M  V30 8274 C 799.225 3.60107 0.317003 0
M  V30 8275 O 798.946 4.2882 -0.896957 0
M  V30 8276 C 800.447 4.33945 0.905902 0
M  V30 8277 H 797.667 0.670787 -0.0169048 0
M  V30 8278 H 800.211 1.92574 -0.688139 0
M  V30 8279 H 798.366 3.74099 1.00642 0
M  V30 8280 H 798.78 5.20395 -0.654939 0
M  V30 8281 H 800.254 5.42087 1.04144 0
M  V30 8282 H 800.731 3.95895 1.90168 0
M  V30 8283 H 801.337 4.2454 0.254195 0
M  V30 8284 N 799.652 0.226554 1.55963 0
M  V30 8285 C 800.562 -0.692725 2.24139 0
M  V30 8286 C 801.578 -1.20971 1.25068 0
M  V30 8287 O 802.754 -1.25027 1.57893 0
M  V30 8288 C 799.819 -1.88183 2.91184 0
M  V30 8289 C 798.88 -1.40633 4.05612 0
M  V30 8290 C 798.113 -2.53875 4.6945 0
M  V30 8291 O 798.336 -3.72129 4.32292 0
M  V30 8292 O 797.27 -2.24792 5.58348 0
M  V30 8293 H 801.096 -0.141921 3.03368 0
M  V30 8294 H 798.681 -0.0041049 1.49399 0
M  V30 8295 H 800.563 -2.57617 3.33484 0
M  V30 8296 H 799.238 -2.42064 2.14911 0
M  V30 8297 H 798.145 -0.67986 3.67871 0
M  V30 8298 H 799.478 -0.913838 4.83642 0
M  V30 8299 N 801.13 -1.57531 -0.0467866 0
M  V30 8300 C 802.376 -1.8873 -0.742218 0
M  V30 8301 C 802.709 -0.822084 -1.75941 0
M  V30 8302 O 801.984 0.164922 -1.938 0
M  V30 8303 C 802.267 -3.30586 -1.42776 0
M  V30 8304 C 802.12 -4.47785 -0.425285 0
M  V30 8305 C 803.439 -3.71068 -2.36636 0
M  V30 8306 H 800.558 -0.686406 -0.268359 0
M  V30 8307 H 803.2 -1.89999 -0.00511341 0
M  V30 8308 H 801.35 -3.29634 -2.05605 0
M  V30 8309 H 803.022 -4.60867 0.199721 0
M  V30 8310 H 801.265 -4.33037 0.25713 0
M  V30 8311 H 801.936 -5.43884 -0.943086 0
M  V30 8312 H 804.412 -3.73273 -1.83866 0
M  V30 8313 H 803.288 -4.71165 -2.81593 0
M  V30 8314 H 803.549 -3.02355 -3.22542 0
M  V30 8315 N 802.608 0.318715 -1.54344 0
M  V30 8316 C 803.848 1.06425 -1.74508 0
M  V30 8317 C 804.212 1.85087 -0.510572 0
M  V30 8318 O 805.413 2.62253 -0.589647 0
M  V30 8319 C 803.684 1.96054 -2.98827 0
M  V30 8320 S 805.243 2.77493 -3.39916 0
M  V30 8321 H 802.061 0.35921 -0.613587 0
M  V30 8322 H 804.663 0.339679 -1.92526 0
M  V30 8323 H 803.367 1.37109 -3.8682 0
M  V30 8324 H 802.898 2.72908 -2.83346 0
M  V30 8325 H 804.913 3.98544 -2.95596 0
M  V30 8326 N 804.086 1.46499 0.581025 0
M  V30 8327 C 805.363 1.42372 1.34125 0
M  V30 8328 C 805.743 0.108073 2.10823 0
M  V30 8329 O 805.091 -0.910366 2.09582 0
M  V30 8330 C 805.301 2.65445 2.26583 0
M  V30 8331 C 806.649 3.11664 2.88359 0
M  V30 8332 O 807.673 2.66006 2.36896 0
M  V30 8333 O 806.532 3.90974 3.81839 0
M  V30 8334 H 803.626 0.566262 0.602724 0
M  V30 8335 H 806.172 1.58667 0.601903 0
M  V30 8336 H 804.944 3.52756 1.69348 0
M  V30 8337 H 804.567 2.51618 3.07854 0
M  V30 8338 N 805.565 -0.825799 1.34232 0
M  V30 8339 C 806.475 -1.9684 1.27638 0
M  V30 8340 C 807.491 -1.73018 0.184569 0
M  V30 8341 O 808.667 -1.97172 0.410525 0
M  V30 8342 C 805.732 -3.31084 1.02879 0
M  V30 8343 C 804.793 -3.67933 2.21188 0
M  V30 8344 C 804.026 -4.95772 1.976 0
M  V30 8345 O 804.249 -5.62721 0.93281 0
M  V30 8346 O 803.183 -5.30431 2.84477 0
M  V30 8347 H 807.009 -2.05346 2.23756 0
M  V30 8348 H 804.594 -0.960772 1.1441 0
M  V30 8349 H 806.476 -4.11492 0.908406 0
M  V30 8350 H 805.151 -3.23552 0.0979821 0
M  V30 8351 H 804.058 -2.87981 2.38784 0
M  V30 8352 H 805.391 -3.80147 3.12648 0
M  V30 8353 N 807.043 -1.17915 -1.04565 0
M  V30 8354 C 807.973 -0.925033 -2.14395 0
M  V30 8355 C 808.954 0.135375 -1.6956 0
M  V30 8356 O 810.139 -0.0161774 -1.94193 0
M  V30 8357 C 807.269 -0.444469 -3.44444 0
M  V30 8358 C 806.223 -1.44478 -4.02877 0
M  V30 8359 C 805.549 -0.821933 -5.28345 0
M  V30 8360 C 806.849 -2.81995 -4.39632 0
M  V30 8361 H 808.543 -1.84354 -2.35911 0
M  V30 8362 H 806.089 -0.887806 -1.13375 0
M  V30 8363 H 808.042 -0.254078 -4.20633 0
M  V30 8364 H 806.766 0.509592 -3.226 0
M  V30 8365 H 805.425 -1.62203 -3.28764 0
M  V30 8366 H 805.073 0.139161 -5.02807 0
M  V30 8367 H 804.773 -1.48976 -5.68401 0
M  V30 8368 H 806.297 -0.641959 -6.07216 0
M  V30 8369 H 807.711 -2.67952 -5.06828 0
M  V30 8370 H 806.108 -3.45414 -4.90723 0
M  V30 8371 H 807.178 -3.35927 -3.49687 0
M  V30 8372 N 808.521 1.23394 -0.980386 0
M  V30 8373 C 809.454 2.23404 -0.465404 0
M  V30 8374 C 810.432 1.55735 0.467471 0
M  V30 8375 O 811.616 1.84295 0.395921 0
M  V30 8376 C 808.743 3.3712 0.32672 0
M  V30 8377 C 807.789 4.22935 -0.550296 0
M  V30 8378 S 808.622 4.96824 -1.99814 0
M  V30 8379 C 809.778 6.13991 -1.21516 0
M  V30 8380 H 810.011 2.6674 -1.31289 0
M  V30 8381 H 807.544 1.32874 -0.78638 0
M  V30 8382 H 809.502 4.03065 0.777738 0
M  V30 8383 H 808.163 2.92317 1.14933 0
M  V30 8384 H 807.356 5.03966 0.0585298 0
M  V30 8385 H 806.958 3.62058 -0.937558 0
M  V30 8386 H 809.25 6.75822 -0.476476 0
M  V30 8387 H 810.193 6.7926 -2.0003 0
M  V30 8388 H 810.601 5.59708 -0.733949 0
M  V30 8389 N 809.999 0.752036 1.385 0
M  V30 8390 C 811.224 0.316993 2.04963 0
M  V30 8391 C 811.649 -1.04582 1.56346 0
M  V30 8392 O 811.007 -1.66616 0.714755 0
M  V30 8393 C 811.055 0.347235 3.58924 0
M  V30 8394 O 810.159 -0.659296 4.07096 0
M  V30 8395 H 809.5 0.140652 0.648932 0
M  V30 8396 H 812.03 1.02272 1.77205 0
M  V30 8397 H 812.04 0.19757 4.07521 0
M  V30 8398 H 810.715 1.34157 3.93668 0
M  V30 8399 H 809.292 -0.474371 3.6987 0
M  V30 8400 N 811.477 -1.49425 0.500989 0
M  V30 8401 C 812.893 -1.58826 0.156951 0
M  V30 8402 C 813.093 -1.50622 -1.33848 0
M  V30 8403 O 812.149 -1.38016 -2.11442 0
M  V30 8404 C 813.462 -2.91611 0.73374 0
M  V30 8405 C 815.01 -3.05076 0.699846 0
M  V30 8406 C 815.485 -4.40479 1.2547 0
M  V30 8407 N 816.976 -4.4697 1.2154 0
M  V30 8408 C 817.711 -5.50189 1.6149 0
M  V30 8409 N 817.207 -6.60512 2.09034 0
M  V30 8410 N 819 -5.40903 1.52907 0
M  V30 8411 H 811.151 -1.53001 1.47324 0
M  V30 8412 H 813.414 -0.724765 0.61108 0
M  V30 8413 H 813.12 -3.03182 1.78251 0
M  V30 8414 H 812.994 -3.767 0.19417 0
M  V30 8415 H 815.381 -2.93134 -0.340085 0
M  V30 8416 H 815.462 -2.2167 1.27656 0
M  V30 8417 H 815.106 -4.53172 2.29341 0
M  V30 8418 H 815.036 -5.22524 0.653921 0
M  V30 8419 H 817.527 -3.67819 0.867043 0
M  V30 8420 H 817.84 -7.35372 2.37588 0
M  V30 8421 H 816.185 -6.61553 2.13008 0
M  V30 8422 H 819.376 -4.53606 1.15583 0
M  V30 8423 H 819.549 -6.21219 1.84365 0
M  V30 8424 N 812.955 -0.234822 -1.55841 0
M  V30 8425 C 813.905 0.68346 -2.17515 0
M  V30 8426 C 814.889 1.14798 -1.1274 0
M  V30 8427 O 816.081 1.09976 -1.38688 0
M  V30 8428 C 813.21 1.88551 -2.86886 0
M  V30 8429 C 812.296 1.44006 -3.98903 0
M  V30 8430 N 812.687 0.708034 -5.0082 0
M  V30 8431 C 810.985 1.7263 -4.11236 0
M  V30 8432 C 811.686 0.479036 -5.79724 0
M  V30 8433 N 810.662 1.03968 -5.33565 0
M  V30 8434 H 814.464 0.115897 -2.93671 0
M  V30 8435 H 811.978 -0.0366273 -1.62359 0
M  V30 8436 H 813.975 2.55425 -3.2949 0
M  V30 8437 H 812.635 2.45742 -2.12229 0
M  V30 8438 H 813.646 0.359363 -5.16652 0
M  V30 8439 H 810.323 2.31046 -3.47741 0
M  V30 8440 H 811.713 -0.104514 -6.71819 0
M  V30 8441 N 814.433 1.57553 0.0384317 0
M  V30 8442 C 815.381 2.07021 1.06043 0
M  V30 8443 C 816.375 0.982078 1.38028 0
M  V30 8444 O 817.581 1.16702 1.37042 0
M  V30 8445 H 813.956 0.660522 0.359464 0
M  V30 8446 H 815.927 2.91944 0.617339 0
M  V30 8447 C 814.676 2.55734 2.35574 0
M  V30 8448 H 813.999 3.39074 2.11822 0
M  V30 8449 H 815.439 2.94066 3.05452 0
M  V30 8450 C 813.898 1.45449 3.03885 0
M  V30 8451 O 814.428 0.815402 3.93337 0
M  V30 8452 N 812.634 1.19134 2.65058 0
M  V30 8453 H 812.181 1.71288 1.92401 0
M  V30 8454 H 812.139 0.455554 3.11082 0
M  V30 8455 N 815.911 -0.310526 1.54511 0
M  V30 8456 C 817.16 -1.0445 1.72549 0
M  V30 8457 C 817.473 -1.88748 0.513172 0
M  V30 8458 O 818.679 -2.65338 0.575165 0
M  V30 8459 C 817.135 -1.90665 3.05246 0
M  V30 8460 C 816.743 -1.11415 4.33925 0
M  V30 8461 C 818.487 -2.63719 3.32645 0
M  V30 8462 C 816.394 -1.96852 5.57677 0
M  V30 8463 H 815.324 -0.393676 0.643067 0
M  V30 8464 H 817.975 -0.302003 1.80998 0
M  V30 8465 H 816.357 -2.68864 2.90737 0
M  V30 8466 H 817.531 -0.378956 4.59239 0
M  V30 8467 H 815.846 -0.499853 4.13389 0
M  V30 8468 H 818.443 -3.27974 4.223 0
M  V30 8469 H 818.786 -3.32047 2.51098 0
M  V30 8470 H 819.319 -1.92574 3.48081 0
M  V30 8471 H 816.058 -1.33009 6.41864 0
M  V30 8472 H 815.578 -2.68069 5.36562 0
M  V30 8473 H 817.257 -2.55127 5.94575 0
M  V30 8474 N 817.389 -1.46805 -0.573248 0
M  V30 8475 C 818.619 -1.55965 -1.35494 0
M  V30 8476 C 819.027 -0.203038 -1.88107 0
M  V30 8477 O 818.37 0.81138 -1.6481 0
M  V30 8478 C 818.432 -2.51168 -2.57206 0
M  V30 8479 C 818.096 -3.97211 -2.25993 0
M  V30 8480 C 819.093 -4.86155 -1.84254 0
M  V30 8481 C 816.778 -4.42419 -2.37846 0
M  V30 8482 C 818.772 -6.18323 -1.54776 0
M  V30 8483 C 816.459 -5.74619 -2.0798 0
M  V30 8484 C 817.457 -6.62392 -1.66511 0
M  V30 8485 O 817.145 -7.92137 -1.37016 0
M  V30 8486 H 816.877 -0.529748 -0.419932 0
M  V30 8487 H 819.431 -1.92998 -0.702914 0
M  V30 8488 H 817.661 -2.09171 -3.25245 0
M  V30 8489 H 819.35 -2.50631 -3.19279 0
M  V30 8490 H 820.116 -4.52481 -1.74603 0
M  V30 8491 H 815.995 -3.74319 -2.69085 0
M  V30 8492 H 819.539 -6.8679 -1.22334 0
M  V30 8493 H 815.436 -6.0784 -2.17258 0
M  V30 8494 H 816.204 -8.04492 -1.50782 0
M  V30 8495 N 818.867 0.818669 -1.34668 0
M  V30 8496 C 820.113 1.57746 -1.27453 0
M  V30 8497 C 820.446 1.93588 0.154077 0
M  V30 8498 O 819.721 1.60371 1.10051 0
M  V30 8499 C 820.004 2.87414 -2.16945 0
M  V30 8500 C 819.857 2.58125 -3.68363 0
M  V30 8501 C 821.176 3.89021 -2.05792 0
M  V30 8502 H 818.295 0.572339 -0.464324 0
M  V30 8503 H 820.937 0.942784 -1.64959 0
M  V30 8504 H 819.087 3.41576 -1.85089 0
M  V30 8505 H 820.759 2.10239 -4.10606 0
M  V30 8506 H 819.002 1.91503 -3.89242 0
M  V30 8507 H 819.673 3.5061 -4.26353 0
M  V30 8508 H 822.149 3.44224 -2.33771 0
M  V30 8509 H 821.025 4.77548 -2.70628 0
M  V30 8510 H 821.286 4.29786 -1.03618 0
M  V30 8511 N 820.346 1.18468 1.03938 0
M  V30 8512 C 821.278 0.870615 2.12021 0
M  V30 8513 C 822.291 -0.132318 1.62261 0
M  V30 8514 O 823.48 0.0956901 1.78243 0
M  V30 8515 C 820.58 0.279727 3.37744 0
M  V30 8516 C 819.753 1.32863 4.16733 0
M  V30 8517 C 818.812 0.753204 5.20781 0
M  V30 8518 O 817.838 1.42825 5.5099 0
M  V30 8519 N 819.04 -0.448664 5.78764 0
M  V30 8520 H 821.805 1.80091 2.39556 0
M  V30 8521 H 819.366 1.08524 1.20142 0
M  V30 8522 H 821.358 -0.118829 4.04526 0
M  V30 8523 H 819.928 -0.554621 3.07641 0
M  V30 8524 H 819.148 1.90245 3.45254 0
M  V30 8525 H 820.436 2.03574 4.66299 0
M  V30 8526 H 819.834 -1.01481 5.56523 0
M  V30 8527 H 818.391 -0.789125 6.47005 0
M  V30 8528 N 821.824 -1.22873 0.986916 0
M  V30 8529 C 822.787 -2.2281 0.537442 0
M  V30 8530 C 823.787 -1.56331 -0.37646 0
M  V30 8531 O 824.977 -1.73376 -0.169247 0
M  V30 8532 C 822.109 -3.40195 -0.219082 0
M  V30 8533 H 823.302 -2.64089 1.42116 0
M  V30 8534 H 820.855 -1.35819 0.773488 0
M  V30 8535 H 821.59 -3.04381 -1.11905 0
M  V30 8536 H 821.375 -3.89657 0.437026 0
M  V30 8537 H 822.865 -4.14326 -0.521926 0
M  V30 8538 N 823.302 -0.75937 -1.38099 0
M  V30 8539 C 824.551 -0.314864 -1.99227 0
M  V30 8540 C 824.864 1.1113 -1.60964 0
M  V30 8541 O 826.07 1.65657 -2.15105 0
M  V30 8542 C 824.526 -0.512001 -3.56239 0
M  V30 8543 C 824.134 -1.94762 -4.0345 0
M  V30 8544 C 825.878 -0.130497 -4.24299 0
M  V30 8545 C 823.785 -2.09301 -5.53125 0
M  V30 8546 H 822.715 -0.113978 -0.745335 0
M  V30 8547 H 825.366 -0.936736 -1.57789 0
M  V30 8548 H 823.748 0.179144 -3.95595 0
M  V30 8549 H 824.922 -2.67271 -3.75371 0
M  V30 8550 H 823.237 -2.28457 -3.48133 0
M  V30 8551 H 825.834 -0.21781 -5.34256 0
M  V30 8552 H 826.177 0.917644 -4.0606 0
M  V30 8553 H 826.71 -0.773716 -3.90203 0
M  V30 8554 H 823.449 -3.1239 -5.76275 0
M  V30 8555 H 822.969 -1.41261 -5.82928 0
M  V30 8556 H 824.648 -1.88571 -6.1891 0
M  V30 8557 N 824.78 1.49157 -0.508906 0
M  V30 8558 C 825.728 2.30922 0.278906 0
M  V30 8559 C 826.722 1.39889 0.955382 0
M  V30 8560 O 827.928 1.56901 0.882169 0
M  V30 8561 H 824.303 0.744087 0.108805 0
M  V30 8562 H 826.274 2.95277 -0.430583 0
M  V30 8563 C 825.023 3.21432 1.32576 0
M  V30 8564 H 824.346 3.91413 0.814634 0
M  V30 8565 H 825.786 3.81568 1.84882 0
M  V30 8566 C 824.245 2.41583 2.34817 0
M  V30 8567 O 824.775 2.1256 3.40854 0
M  V30 8568 N 822.981 2.03462 2.07489 0
M  V30 8569 H 822.528 2.27265 1.21278 0
M  V30 8570 H 822.486 1.50345 2.76123 0
M  V30 8571 N 826.258 0.243083 1.55714 0
M  V30 8572 C 827.488 -0.38641 2.02954 0
M  V30 8573 C 827.896 -1.52358 1.12177 0
M  V30 8574 O 827.239 -1.83255 0.127853 0
M  V30 8575 C 827.301 -0.959388 3.46462 0
M  V30 8576 C 826.965 0.0450546 4.56978 0
M  V30 8577 C 827.962 0.853224 5.12851 0
M  V30 8578 C 825.647 0.170041 5.02012 0
M  V30 8579 C 827.641 1.77288 6.12248 0
M  V30 8580 C 825.328 1.0932 6.01242 0
M  V30 8581 C 826.326 1.89315 6.56238 0
M  V30 8582 O 826.014 2.80075 7.53534 0
M  V30 8583 H 825.746 -0.0964333 0.669086 0
M  V30 8584 H 828.3 0.363399 2.0216 0
M  V30 8585 H 826.53 -1.75869 3.44394 0
M  V30 8586 H 828.219 -1.49856 3.77224 0
M  V30 8587 H 828.985 0.767229 4.78893 0
M  V30 8588 H 824.864 -0.442528 4.58871 0
M  V30 8589 H 828.408 2.39768 6.55101 0
M  V30 8590 H 824.305 1.18013 6.3462 0
M  V30 8591 H 825.073 2.74393 7.71136 0
M  V30 8592 N 827.736 -1.57571 -0.0300757 0
M  V30 8593 C 829.147 -1.77567 -0.576802 0
M  V30 8594 C 829.498 -0.874034 -1.75656 0
M  V30 8595 O 828.623 -0.0686124 -2.16291 0
M  V30 8596 C 829.218 -3.22016 -1.05315 0
M  V30 8597 C 827.777 -3.43212 -1.5454 0
M  V30 8598 C 826.924 -2.73061 -0.483033 0
M  V30 8599 H 829.875 -1.57483 0.196151 0
M  V30 8600 H 829.896 -3.28474 -1.92055 0
M  V30 8601 H 829.408 -3.87613 -0.194298 0
M  V30 8602 H 827.509 -2.82788 -2.42615 0
M  V30 8603 H 827.622 -4.5182 -1.5936 0
M  V30 8604 H 825.986 -2.36805 -0.937835 0
M  V30 8605 H 826.769 -3.4134 0.366341 0
M  V30 8606 N 829.214 0.302327 -1.54673 0
M  V30 8607 C 830.442 1.05669 -1.77881 0
M  V30 8608 C 830.857 1.80983 -0.537648 0
M  V30 8609 O 830.214 1.7573 0.492467 0
M  V30 8610 C 830.265 2.03828 -2.98557 0
M  V30 8611 O 829.986 1.3157 -4.17877 0
M  V30 8612 C 831.487 2.91314 -3.34143 0
M  V30 8613 H 828.707 0.313436 -0.593295 0
M  V30 8614 H 831.251 0.342003 -2.0162 0
M  V30 8615 H 829.406 2.70801 -2.7703 0
M  V30 8616 H 829.82 1.97481 -4.85903 0
M  V30 8617 H 831.294 3.56042 -4.21827 0
M  V30 8618 H 831.771 3.59544 -2.52239 0
M  V30 8619 H 832.377 2.29874 -3.57824 0
M  V30 8620 N 830.692 1.47107 0.565454 0
M  V30 8621 C 831.938 1.53535 1.32495 0
M  V30 8622 C 832.271 0.193537 1.93233 0
M  V30 8623 O 831.546 -0.796956 1.77423 0
M  V30 8624 C 831.829 2.64712 2.4413 0
M  V30 8625 C 831.682 4.08482 1.88314 0
M  V30 8626 C 833.001 2.71853 3.46098 0
M  V30 8627 H 830.12 0.558926 0.480386 0
M  V30 8628 H 832.762 1.79125 0.633575 0
M  V30 8629 H 830.912 2.43023 3.03104 0
M  V30 8630 H 832.584 4.4151 1.33665 0
M  V30 8631 H 830.827 4.17148 1.19037 0
M  V30 8632 H 831.498 4.82032 2.68978 0
M  V30 8633 H 833.974 2.91397 2.97031 0
M  V30 8634 H 832.85 3.51433 4.21646 0
M  V30 8635 H 833.111 1.78584 4.04426 0
M  V30 8636 N 832.17 -0.811516 1.35101 0
M  V30 8637 C 833.581 -1.38515 1.25182 0
M  V30 8638 C 833.932 -1.95846 -0.117883 0
M  V30 8639 O 833.057 -1.90925 -1.01866 0
M  V30 8640 C 833.652 -2.51813 2.26662 0
M  V30 8641 C 832.211 -3.05052 2.20499 0
M  V30 8642 C 831.358 -1.77987 2.12641 0
M  V30 8643 H 834.309 -0.614959 1.46301 0
M  V30 8644 H 834.33 -3.30228 1.89023 0
M  V30 8645 H 833.842 -2.10057 3.2634 0
M  V30 8646 H 831.943 -3.51285 1.24215 0
M  V30 8647 H 832.056 -3.63368 3.1225 0
M  V30 8648 H 830.42 -1.99342 1.5854 0
M  V30 8649 H 831.203 -1.38389 3.14171 0
M  V30 8650 N 833.648 -1.19017 -1.03309 0
M  V30 8651 C 835.064 -0.941483 -1.28873 0
M  V30 8652 C 835.264 0.388587 -1.97718 0
M  V30 8653 O 834.32 1.12111 -2.26246 0
M  V30 8654 C 835.633 -2.11249 -2.13996 0
M  V30 8655 C 837.181 -2.15164 -2.27318 0
M  V30 8656 C 837.656 -3.31704 -3.15811 0
M  V30 8657 N 839.147 -3.31613 -3.23399 0
M  V30 8658 C 839.882 -4.18431 -3.9205 0
M  V30 8659 N 839.378 -5.15397 -4.62966 0
M  V30 8660 N 841.171 -4.06321 -3.88406 0
M  V30 8661 H 833.322 -2.04599 -0.570343 0
M  V30 8662 H 835.585 -0.894406 -0.314232 0
M  V30 8663 H 835.291 -3.07482 -1.70727 0
M  V30 8664 H 835.165 -2.07955 -3.14697 0
M  V30 8665 H 837.552 -1.19504 -2.6982 0
M  V30 8666 H 837.633 -2.22513 -1.26182 0
M  V30 8667 H 837.277 -4.2764 -2.74019 0
M  V30 8668 H 837.207 -3.21592 -4.16997 0
M  V30 8669 H 839.698 -2.6142 -2.72888 0
M  V30 8670 H 840.011 -5.78 -5.12968 0
M  V30 8671 H 838.356 -5.19349 -4.61846 0
M  V30 8672 H 841.547 -3.29849 -3.3214 0
M  V30 8673 H 841.72 -4.74196 -4.41635 0
M  V30 8674 N 835.127 1.22348 -0.993418 0
M  V30 8675 C 836.375 1.90733 -0.668246 0
M  V30 8676 C 836.696 1.77732 0.802261 0
M  V30 8677 O 835.966 1.16486 1.57505 0
M  V30 8678 H 834.546 0.705966 -0.244174 0
M  V30 8679 H 837.208 1.48691 -1.26004 0
M  V30 8680 H 836.304 2.97883 -0.931239 0
M  V30 8681 N 836.605 0.766683 1.37694 0
M  V30 8682 C 837.515 0.150158 2.34119 0
M  V30 8683 C 838.531 -0.685513 1.59927 0
M  V30 8684 O 839.707 -0.606616 1.92047 0
M  V30 8685 C 836.772 -0.722562 3.39087 0
M  V30 8686 C 835.833 0.128983 4.29106 0
M  V30 8687 C 835.066 -0.702178 5.29061 0
M  V30 8688 O 835.289 -1.93954 5.36412 0
M  V30 8689 O 834.223 -0.114056 6.01792 0
M  V30 8690 H 838.049 0.946829 2.88563 0
M  V30 8691 H 835.634 0.527765 1.39768 0
M  V30 8692 H 837.516 -1.22095 4.03325 0
M  V30 8693 H 836.191 -1.49751 2.86978 0
M  V30 8694 H 835.098 0.673612 3.67985 0
M  V30 8695 H 836.431 0.866892 4.84506 0
M  V30 8696 N 838.083 -1.48885 0.516809 0
M  V30 8697 C 838.993 -2.33185 -0.257293 0
M  V30 8698 C 840.009 -1.4565 -0.951952 0
M  V30 8699 O 841.185 -1.78651 -0.929834 0
M  V30 8700 C 838.25 -3.21465 -1.29851 0
M  V30 8701 C 837.311 -4.24863 -0.615608 0
M  V30 8702 C 836.544 -5.08925 -1.60722 0
M  V30 8703 O 836.767 -4.9475 -2.83863 0
M  V30 8704 O 835.701 -5.90737 -1.15384 0
M  V30 8705 H 839.527 -3.00596 0.433131 0
M  V30 8706 H 837.112 -1.46792 0.277908 0
M  V30 8707 H 838.994 -3.76108 -1.90055 0
M  V30 8708 H 837.669 -2.5673 -1.97158 0
M  V30 8709 H 836.576 -3.74091 0.0265829 0
M  V30 8710 H 837.909 -4.92198 0.0152871 0
M  V30 8711 N 839.561 -0.251338 -1.55583 0
M  V30 8712 C 840.491 0.640437 -2.24545 0
M  V30 8713 C 841.472 1.17781 -1.22726 0
M  V30 8714 O 842.657 1.21633 -1.5139 0
M  V30 8715 C 839.787 1.8355 -2.94834 0
M  V30 8716 C 838.741 1.4307 -4.03379 0
M  V30 8717 C 838.067 2.70695 -4.61116 0
M  V30 8718 C 839.367 0.59848 -5.1886 0
M  V30 8719 H 841.061 0.0653772 -2.99329 0
M  V30 8720 H 838.607 0.0300042 -1.43969 0
M  V30 8721 H 840.56 2.46505 -3.4178 0
M  V30 8722 H 839.284 2.43601 -2.17546 0
M  V30 8723 H 837.943 0.824474 -3.57209 0
M  V30 8724 H 837.591 3.28954 -3.80524 0
M  V30 8725 H 837.291 2.44332 -5.34393 0
M  V30 8726 H 838.815 3.34541 -5.10798 0
M  V30 8727 H 840.229 1.13244 -5.62004 0
M  V30 8728 H 838.626 0.430728 -5.98552 0
M  V30 8729 H 839.696 -0.38829 -4.83343 0
M  V30 8730 N 841.039 1.57585 0.0217189 0
M  V30 8731 C 841.969 2.10073 1.01939 0
M  V30 8732 C 842.95 1.0049 1.37243 0
M  V30 8733 O 844.135 1.28055 1.45999 0
M  V30 8734 C 841.265 2.58618 2.31806 0
M  V30 8735 C 840.219 3.72531 2.10724 0
M  V30 8736 C 839.545 4.07309 3.46415 0
M  V30 8737 C 840.845 5.00672 1.48743 0
M  V30 8738 H 842.539 2.9368 0.582432 0
M  V30 8739 H 840.085 1.41277 0.278715 0
M  V30 8740 H 842.038 2.9396 3.01936 0
M  V30 8741 H 840.762 1.72104 2.77575 0
M  V30 8742 H 839.421 3.37549 1.43025 0
M  V30 8743 H 839.069 3.17851 3.89846 0
M  V30 8744 H 838.769 4.84042 3.33132 0
M  V30 8745 H 840.293 4.45192 4.17895 0
M  V30 8746 H 841.707 5.33925 2.088 0
M  V30 8747 H 840.104 5.82065 1.46013 0
M  V30 8748 H 841.174 4.82769 0.45408 0
M  V30 8749 N 842.517 -0.29412 1.54831 0
M  V30 8750 C 843.933 -0.640167 1.46199 0
M  V30 8751 C 844.133 -1.90426 0.658798 0
M  V30 8752 O 843.189 -2.51932 0.169228 0
M  V30 8753 C 844.502 -0.786763 2.90225 0
M  V30 8754 C 846.05 -0.882201 3.0031 0
M  V30 8755 C 846.525 -1.06074 4.45547 0
M  V30 8756 N 848.016 -1.12678 4.49286 0
M  V30 8757 C 848.751 -1.28334 5.58854 0
M  V30 8758 N 848.247 -1.40845 6.78332 0
M  V30 8759 N 850.04 -1.31277 5.46555 0
M  V30 8760 H 842.191 0.536334 2.05517 0
M  V30 8761 H 844.454 0.178363 0.93107 0
M  V30 8762 H 844.16 0.0713018 3.51628 0
M  V30 8763 H 844.034 -1.67364 3.38037 0
M  V30 8764 H 846.421 -1.73075 2.39017 0
M  V30 8765 H 846.502 0.0288405 2.55784 0
M  V30 8766 H 846.146 -0.216935 5.07437 0
M  V30 8767 H 846.076 -1.98611 4.8771 0
M  V30 8768 H 848.567 -1.04335 3.63212 0
M  V30 8769 H 848.88 -1.52566 7.57591 0
M  V30 8770 H 847.225 -1.37888 6.81184 0
M  V30 8771 H 850.416 -1.2112 4.52159 0
M  V30 8772 H 850.589 -1.43136 6.31994 0
M  V30 8773 N 843.995 -1.47404 -0.557645 0
M  V30 8774 C 845.244 -1.53268 -1.31118 0
M  V30 8775 C 845.557 -0.199414 -1.94581 0
M  V30 8776 O 846.763 -0.136039 -2.71159 0
M  V30 8777 C 845.219 -2.70178 -2.37764 0
M  V30 8778 C 844.827 -4.10032 -1.80493 0
M  V30 8779 C 846.571 -2.85334 -3.14301 0
M  V30 8780 C 844.478 -5.18244 -2.84916 0
M  V30 8781 H 843.408 -0.570491 -0.493007 0
M  V30 8782 H 846.059 -1.73678 -0.592308 0
M  V30 8783 H 844.441 -2.43147 -3.12563 0
M  V30 8784 H 845.615 -4.46964 -1.12069 0
M  V30 8785 H 843.93 -3.99759 -1.16542 0
M  V30 8786 H 846.527 -3.63347 -3.92279 0
M  V30 8787 H 846.87 -1.93761 -3.68459 0
M  V30 8788 H 847.403 -3.12133 -2.46613 0
M  V30 8789 H 844.142 -6.11691 -2.35614 0
M  V30 8790 H 843.662 -4.85829 -3.51753 0
M  V30 8791 H 845.341 -5.45174 -3.48417 0
M  V30 8792 N 845.473 0.80434 -1.35529 0
M  V30 8793 C 846.436 1.89788 -1.28503 0
M  V30 8794 C 847.436 1.59601 -0.195983 0
M  V30 8795 O 848.626 1.68292 -0.449827 0
M  V30 8796 C 845.758 3.26255 -0.98847 0
M  V30 8797 H 846.951 1.97436 -2.25741 0
M  V30 8798 H 844.504 1.00046 -1.20086 0
M  V30 8799 H 845.239 3.24294 -0.0200541 0
M  V30 8800 H 845.024 3.49551 -1.77641 0
M  V30 8801 H 846.514 4.06298 -0.964975 0
M  V30 8802 N 846.951 1.19563 1.02676 0
M  V30 8803 C 848.362 1.00158 1.57561 0
M  V30 8804 C 848.713 -0.444922 1.91089 0
M  V30 8805 O 847.838 -1.32466 1.71119 0
M  V30 8806 C 848.433 1.81181 2.86284 0
M  V30 8807 C 846.992 1.66171 3.37734 0
M  V30 8808 C 846.139 1.7975 2.11152 0
M  V30 8809 H 849.09 1.33904 0.85179 0
M  V30 8810 H 849.111 1.30916 3.57269 0
M  V30 8811 H 848.623 2.86454 2.6185 0
M  V30 8812 H 846.724 0.634927 3.6715 0
M  V30 8813 H 846.837 2.46832 4.10622 0
M  V30 8814 H 845.201 1.22833 2.23123 0
M  V30 8815 H 845.984 2.86487 1.89157 0
M  V30 8816 N 848.429 -1.21819 0.999893 0
M  V30 8817 C 849.657 -1.94758 0.698359 0
M  V30 8818 C 850.072 -1.73771 -0.738183 0
M  V30 8819 O 849.429 -1.04113 -1.49889 0
M  V30 8820 C 849.48 -3.47292 1.00353 0
M  V30 8821 O 849.201 -3.67579 2.38363 0
M  V30 8822 C 850.702 -4.37403 0.72068 0
M  V30 8823 H 847.922 -0.619512 0.257771 0
M  V30 8824 H 850.466 -1.54778 1.33656 0
M  V30 8825 H 848.621 -3.85213 0.411018 0
M  V30 8826 H 849.035 -4.61719 2.48829 0
M  V30 8827 H 850.509 -5.43151 0.984422 0
M  V30 8828 H 850.986 -4.3784 -0.345309 0
M  V30 8829 H 851.592 -4.05119 1.29456 0
M  V30 8830 N 849.908 -0.773975 -1.37286 0
M  V30 8831 C 851.319 -0.404433 -1.82267 0
M  V30 8832 C 851.67 1.06971 -1.64474 0
M  V30 8833 O 850.795 1.82867 -1.15708 0
M  V30 8834 C 851.39 -0.727298 -3.30902 0
M  V30 8835 C 849.949 -0.410784 -3.74152 0
M  V30 8836 C 849.096 -0.969983 -2.59782 0
M  V30 8837 H 852.047 -0.968437 -1.25726 0
M  V30 8838 H 852.068 -0.0127575 -3.80498 0
M  V30 8839 H 851.58 -1.80026 -3.4382 0
M  V30 8840 H 849.681 0.65477 -3.66802 0
M  V30 8841 H 849.794 -0.920592 -4.70172 0
M  V30 8842 H 848.158 -0.394094 -2.51633 0
M  V30 8843 H 848.941 -2.04839 -2.75492 0
M  V30 8844 N 851.386 1.48609 -0.524698 0
M  V30 8845 C 852.336 2.26505 0.260696 0
M  V30 8846 C 853.32 1.32378 0.914597 0
M  V30 8847 O 854.512 1.5695 0.818277 0
M  V30 8848 C 851.641 3.17313 1.31024 0
M  V30 8849 C 850.727 4.18911 0.661391 0
M  V30 8850 N 851.118 5.05183 -0.24981 0
M  V30 8851 C 849.416 4.36425 0.91922 0
M  V30 8852 C 850.117 5.78348 -0.623598 0
M  V30 8853 N 849.093 5.43598 0.0140839 0
M  V30 8854 H 852.895 2.90582 -0.440388 0
M  V30 8855 H 850.409 1.5875 -0.342364 0
M  V30 8856 H 852.406 3.71772 1.88656 0
M  V30 8857 H 851.066 2.54791 2.01275 0
M  V30 8858 H 852.077 5.1415 -0.622093 0
M  V30 8859 H 848.754 3.85095 1.6127 0
M  V30 8860 H 850.144 6.57775 -1.37046 0
M  V30 8861 N 852.864 0.259585 1.55447 0
M  V30 8862 C 853.814 -0.648769 2.18575 0
M  V30 8863 C 854.798 -1.1299 1.14552 0
M  V30 8864 O 855.99 -1.07756 1.4042 0
M  V30 8865 C 853.119 -1.83963 2.89849 0
M  V30 8866 C 852.205 -1.37641 4.01143 0
M  V30 8867 N 852.596 -0.628269 5.01883 0
M  V30 8868 C 850.894 -1.66066 4.1393 0
M  V30 8869 C 851.595 -0.386746 5.80413 0
M  V30 8870 N 850.571 -0.954665 5.35151 0
M  V30 8871 H 854.373 -0.0691616 2.93819 0
M  V30 8872 H 851.887 0.0624525 1.6228 0
M  V30 8873 H 853.884 -2.50151 3.33512 0
M  V30 8874 H 852.544 -2.42334 2.16112 0
M  V30 8875 H 853.555 -0.277123 5.17158 0
M  V30 8876 H 850.232 -2.25484 3.51373 0
M  V30 8877 H 851.622 0.211382 6.71567 0
M  V30 8878 N 854.342 -1.57594 -0.0133615 0
M  V30 8879 C 855.57 -1.94251 -0.712328 0
M  V30 8880 C 855.985 -0.86063 -1.68043 0
M  V30 8881 O 855.342 0.161632 -1.81783 0
M  V30 8882 C 855.393 -3.30891 -1.45581 0
M  V30 8883 O 855.114 -4.34924 -0.526539 0
M  V30 8884 C 856.615 -3.81926 -2.2505 0
M  V30 8885 H 853.835 -0.640737 -0.199241 0
M  V30 8886 H 856.379 -2.04472 0.0337855 0
M  V30 8887 H 854.534 -3.22019 -2.15366 0
M  V30 8888 H 854.948 -5.1389 -1.04962 0
M  V30 8889 H 856.422 -4.79999 -2.72589 0
M  V30 8890 H 856.899 -3.13934 -3.07152 0
M  V30 8891 H 857.505 -3.93931 -1.60308 0
M  V30 8892 N 855.82 0.285905 -1.54985 0
M  V30 8893 C 857.231 0.857869 -1.65824 0
M  V30 8894 C 857.582 1.87531 -0.576763 0
M  V30 8895 O 856.707 2.14528 0.284016 0
M  V30 8896 C 857.302 1.56277 -3.00604 0
M  V30 8897 C 855.861 2.08294 -3.13513 0
M  V30 8898 C 855.008 0.920633 -2.61571 0
M  V30 8899 H 857.959 0.0625463 -1.58577 0
M  V30 8900 H 857.98 2.42912 -2.92872 0
M  V30 8901 H 857.492 0.822017 -3.79295 0
M  V30 8902 H 855.593 2.8537 -2.39572 0
M  V30 8903 H 855.706 2.3071 -4.19892 0
M  V30 8904 H 854.07 1.31043 -2.18403 0
M  V30 8905 H 854.853 0.193594 -3.42754 0
M  V30 8906 N 857.298 1.47698 0.54982 0
M  V30 8907 C 858.23 1.56806 1.67166 0
M  V30 8908 C 859.243 0.453709 1.5635 0
M  V30 8909 O 860.432 0.723663 1.63173 0
M  V30 8910 C 857.532 1.4632 3.05686 0
M  V30 8911 C 856.705 2.72452 3.42182 0
M  V30 8912 C 855.764 2.55698 4.59897 0
M  V30 8913 O 854.79 3.29534 4.64108 0
M  V30 8914 N 855.992 1.64009 5.56849 0
M  V30 8915 H 858.757 2.53545 1.59797 0
M  V30 8916 H 856.318 1.44171 0.736635 0
M  V30 8917 H 858.31 1.32835 3.82279 0
M  V30 8918 H 856.88 0.57634 3.07241 0
M  V30 8919 H 856.1 3.00644 2.54964 0
M  V30 8920 H 857.388 3.56172 3.63344 0
M  V30 8921 H 856.786 1.03186 5.5621 0
M  V30 8922 H 855.343 1.56473 6.3274 0
M  V30 8923 N 858.776 -0.797141 1.35954 0
M  V30 8924 C 859.709 -1.91567 1.24005 0
M  V30 8925 C 860.687 -1.62112 0.125868 0
M  V30 8926 O 861.871 -1.86167 0.295638 0
M  V30 8927 C 858.998 -3.26204 0.911535 0
M  V30 8928 C 858.044 -3.74598 2.03909 0
M  V30 8929 S 858.877 -3.91276 3.656 0
M  V30 8930 C 860.033 -5.288 3.34846 0
M  V30 8931 H 860.266 -2.0141 2.18681 0
M  V30 8932 H 857.799 -0.955542 1.2128 0
M  V30 8933 H 859.757 -4.03979 0.728805 0
M  V30 8934 H 858.418 -3.14095 -0.0173159 0
M  V30 8935 H 857.611 -4.72137 1.7636 0
M  V30 8936 H 857.213 -3.03849 2.18064 0
M  V30 8937 H 859.505 -6.13117 2.8826 0
M  V30 8938 H 860.448 -5.61347 4.31619 0
M  V30 8939 H 860.856 -4.95534 2.70382 0
M  V30 8940 N 860.254 -1.20106 -1.0204 0
M  V30 8941 C 861.187 -0.889795 -2.10138 0
M  V30 8942 C 862.165 0.156595 -1.61844 0
M  V30 8943 O 863.349 0.0310192 -1.88474 0
M  V30 8944 C 860.476 -0.333227 -3.37057 0
M  V30 8945 C 859.522 -1.36001 -4.04235 0
M  V30 8946 S 860.355 -2.92366 -4.48645 0
M  V30 8947 C 861.511 -2.38274 -5.78771 0
M  V30 8948 H 861.744 -1.80523 -2.36217 0
M  V30 8949 H 859.277 -1.02912 -1.15102 0
M  V30 8950 H 861.235 -0.0186507 -4.10496 0
M  V30 8951 H 859.896 0.560652 -3.09056 0
M  V30 8952 H 859.089 -0.919874 -4.95534 0
M  V30 8953 H 858.691 -1.62186 -3.37004 0
M  V30 8954 H 860.983 -1.77799 -6.53754 0
M  V30 8955 H 861.926 -3.27955 -6.27576 0
M  V30 8956 H 862.334 -1.8054 -5.34851 0
M  V30 8957 N 861.732 1.21287 -1.00634 0
M  V30 8958 C 862.68 2.25733 -0.561026 0
M  V30 8959 C 863.674 1.64728 0.395095 0
M  V30 8960 O 864.88 1.78022 0.266141 0
M  V30 8961 H 861.255 0.734104 -0.163081 0
M  V30 8962 H 863.226 2.60631 -1.45307 0
M  V30 8963 C 861.975 3.47569 0.0952587 0
M  V30 8964 H 861.298 3.94782 -0.631427 0
M  V30 8965 H 862.738 4.22382 0.370105 0
M  V30 8966 C 861.197 3.09326 1.33488 0
M  V30 8967 O 861.727 3.19933 2.42912 0
M  V30 8968 N 859.933 2.63976 1.21512 0
M  V30 8969 H 859.48 2.55545 0.324741 0
M  V30 8970 H 859.438 2.38757 2.04555 0
M  V30 8971 N 863.21 0.781244 1.36873 0
M  V30 8972 C 864.44 0.361042 2.03421 0
M  V30 8973 C 864.848 -1.02471 1.59048 0
M  V30 8974 O 864.191 -1.66712 0.771552 0
M  V30 8975 C 864.253 0.336202 3.57924 0
M  V30 8976 C 863.917 1.66815 4.25467 0
M  V30 8977 C 864.914 2.62224 4.48926 0
M  V30 8978 C 862.599 1.9452 4.63106 0
M  V30 8979 C 864.593 3.83538 5.09095 0
M  V30 8980 C 862.28 3.16103 5.22994 0
M  V30 8981 C 863.278 4.10431 5.45926 0
M  V30 8982 O 862.966 5.29871 6.04559 0
M  V30 8983 H 862.698 0.147956 0.65961 0
M  V30 8984 H 865.252 1.05895 1.75998 0
M  V30 8985 H 863.482 -0.418147 3.84433 0
M  V30 8986 H 865.171 -0.0582199 4.05858 0
M  V30 8987 H 865.937 2.42104 4.20251 0
M  V30 8988 H 861.816 1.21921 4.44585 0
M  V30 8989 H 865.36 4.57178 5.2691 0
M  V30 8990 H 861.257 3.36104 5.51094 0
M  V30 8991 H 862.025 5.30825 6.23031 0
M  V30 8992 N 864.689 -1.48329 0.532571 0
M  V30 8993 C 865.936 -2.025 -0.000582356 0
M  V30 8994 C 866.264 -1.40942 -1.34036 0
M  V30 8995 O 865.519 -0.545545 -1.87942 0
M  V30 8996 C 865.818 -3.57 -0.168943 0
M  V30 8997 C 865.484 -4.37357 1.0968 0
M  V30 8998 C 864.146 -4.59033 1.44369 0
M  V30 8999 C 866.498 -4.83882 1.93669 0
M  V30 9000 C 863.826 -5.24481 2.62939 0
M  V30 9001 C 866.178 -5.50637 3.11419 0
M  V30 9002 C 864.842 -5.70551 3.46451 0
M  V30 9003 H 864.112 -0.741 -0.000213099 0
M  V30 9004 H 866.759 -1.78282 0.699117 0
M  V30 9005 H 865.064 -3.80072 -0.951429 0
M  V30 9006 H 866.761 -3.9654 -0.596422 0
M  V30 9007 H 863.351 -4.20748 0.816655 0
M  V30 9008 H 867.535 -4.66936 1.6818 0
M  V30 9009 H 862.791 -5.38096 2.9028 0
M  V30 9010 H 866.965 -5.85655 3.76803 0
M  V30 9011 H 864.592 -6.21037 4.38425 0
M  V30 9012 N 866.167 -0.267825 -1.55308 0
M  V30 9013 C 867.097 0.616585 -2.25212 0
M  V30 9014 C 868.078 1.16472 -1.23969 0
M  V30 9015 O 869.263 1.20021 -1.52672 0
M  V30 9016 C 866.393 1.80412 -2.96764 0
M  V30 9017 C 865.347 1.38784 -4.04874 0
M  V30 9018 C 864.673 2.65789 -4.63961 0
M  V30 9019 C 865.973 0.543415 -5.19465 0
M  V30 9020 H 867.667 0.0336257 -2.99381 0
M  V30 9021 H 865.213 0.0147328 -1.43992 0
M  V30 9022 H 867.166 2.42866 -3.44375 0
M  V30 9023 H 865.89 2.4128 -2.20118 0
M  V30 9024 H 864.549 0.786541 -3.58063 0
M  V30 9025 H 864.197 3.24899 -3.83992 0
M  V30 9026 H 863.897 2.38651 -5.36954 0
M  V30 9027 H 865.421 3.29104 -5.14318 0
M  V30 9028 H 866.835 1.07277 -5.63174 0
M  V30 9029 H 865.232 0.367219 -5.98975 0
M  V30 9030 H 866.302 -0.439534 -4.82904 0
M  V30 9031 N 867.645 1.57599 0.00500368 0
M  V30 9032 C 868.555 2.11532 1.01446 0
M  V30 9033 C 869.571 1.05941 1.3803 0
M  V30 9034 O 870.747 1.37815 1.46864 0
M  V30 9035 C 867.812 2.60382 2.28915 0
M  V30 9036 C 866.873 3.80554 1.98689 0
M  V30 9037 C 866.106 4.27064 3.20081 0
M  V30 9038 O 866.329 3.72939 4.31593 0
M  V30 9039 O 865.263 5.1927 3.04371 0
M  V30 9040 H 869.089 2.97993 0.586011 0
M  V30 9041 H 866.674 1.47718 0.223519 0
M  V30 9042 H 868.556 2.92024 3.03809 0
M  V30 9043 H 867.231 1.77022 2.71007 0
M  V30 9044 H 866.138 3.53893 1.21286 0
M  V30 9045 H 867.471 4.64972 1.61437 0
M  V30 9046 N 869.123 -0.277682 1.55134 0
M  V30 9047 C 870.071 -1.36305 1.88478 0
M  V30 9048 C 871.065 -1.51362 0.760654 0
M  V30 9049 O 872.271 -1.53202 0.944943 0
M  V30 9050 H 868.646 -0.45577 0.598146 0
M  V30 9051 H 870.617 -1.05431 2.79154 0
M  V30 9052 C 869.366 -2.71739 2.16918 0
M  V30 9053 H 868.689 -2.60942 3.02901 0
M  V30 9054 H 870.129 -3.46635 2.44172 0
M  V30 9055 C 868.588 -3.22476 0.975239 0
M  V30 9056 O 869.118 -4.01164 0.207497 0
M  V30 9057 N 867.324 -2.80097 0.774219 0
M  V30 9058 H 866.871 -2.16221 1.40022 0
M  V30 9059 H 866.829 -3.14392 -0.023021 0
M  V30 9060 N 870.601 -1.47988 -0.541979 0
M  V30 9061 C 871.531 -1.64503 -1.65713 0
M  V30 9062 C 872.512 -0.494116 -1.62765 0
M  V30 9063 O 873.697 -0.725256 -1.80149 0
M  V30 9064 C 870.827 -1.67337 -3.04328 0
M  V30 9065 C 869.781 -2.81809 -3.2213 0
M  V30 9066 C 869.107 -2.69724 -4.61685 0
M  V30 9067 C 870.407 -4.23241 -3.06046 0
M  V30 9068 H 872.101 -2.5786 -1.52147 0
M  V30 9069 H 869.647 -1.24094 -0.730529 0
M  V30 9070 H 871.6 -1.77481 -3.82202 0
M  V30 9071 H 870.324 -0.705514 -3.18889 0
M  V30 9072 H 868.983 -2.71201 -2.46669 0
M  V30 9073 H 868.631 -1.70934 -4.73065 0
M  V30 9074 H 868.331 -3.4653 -4.74543 0
M  V30 9075 H 869.855 -2.81818 -5.41674 0
M  V30 9076 H 871.269 -4.34746 -3.73723 0
M  V30 9077 H 869.666 -5.00952 -3.30405 0
M  V30 9078 H 870.736 -4.40543 -2.02609 0
M  V30 9079 N 872.079 0.78992 -1.36375 0
M  V30 9080 C 873.009 1.91683 -1.33341 0
M  V30 9081 C 873.99 1.68861 -0.204965 0
M  V30 9082 O 875.175 1.89982 -0.402531 0
M  V30 9083 C 872.305 3.28696 -1.12143 0
M  V30 9084 C 871.259 3.66041 -2.21806 0
M  V30 9085 C 870.585 5.01399 -1.85751 0
M  V30 9086 C 871.885 3.74677 -3.63888 0
M  V30 9087 H 873.579 1.94478 -2.27637 0
M  V30 9088 H 871.125 0.934271 -1.09578 0
M  V30 9089 H 873.078 4.07151 -1.08656 0
M  V30 9090 H 871.802 3.26287 -0.142974 0
M  V30 9091 H 870.461 2.89883 -2.24418 0
M  V30 9092 H 870.109 4.9551 -0.864817 0
M  V30 9093 H 869.809 5.27355 -2.59173 0
M  V30 9094 H 871.333 5.82274 -1.83819 0
M  V30 9095 H 872.747 4.43324 -3.63506 0
M  V30 9096 H 871.144 4.12118 -4.3621 0
M  V30 9097 H 872.214 2.75795 -3.9883 0
M  V30 9098 N 873.557 1.20646 1.01402 0
M  V30 9099 C 874.803 1.0197 1.753 0
M  V30 9100 C 875.136 -0.446803 1.8899 0
M  V30 9101 O 874.411 -1.33169 1.41762 0
M  V30 9102 C 874.694 1.70693 3.17074 0
M  V30 9103 C 874.547 3.24805 3.11162 0
M  V30 9104 C 875.866 1.44212 4.15802 0
M  V30 9105 H 872.985 0.371844 0.636318 0
M  V30 9106 H 875.627 1.48696 1.18277 0
M  V30 9107 H 873.777 1.30968 3.65759 0
M  V30 9108 H 875.449 3.73841 2.70261 0
M  V30 9109 H 873.692 3.55576 2.48492 0
M  V30 9110 H 874.363 3.68049 4.11393 0
M  V30 9111 H 876.839 1.7868 3.75783 0
M  V30 9112 H 875.715 1.94825 5.13161 0
M  V30 9113 H 875.976 0.370252 4.40547 0
M  V30 9114 N 875.035 -1.20752 1.01276 0
M  V30 9115 C 876.263 -1.94006 0.718976 0
M  V30 9116 C 876.678 -1.74544 -0.719711 0
M  V30 9117 O 876.035 -1.05697 -1.48776 0
M  V30 9118 C 876.086 -3.46208 1.04031 0
M  V30 9119 O 875.807 -3.65031 2.42248 0
M  V30 9120 C 877.308 -4.36614 0.767032 0
M  V30 9121 H 874.528 -0.616743 0.264327 0
M  V30 9122 H 877.072 -1.53352 1.3529 0
M  V30 9123 H 875.227 -3.84756 0.451852 0
M  V30 9124 H 875.641 -4.59054 2.53712 0
M  V30 9125 H 877.115 -5.42076 1.04198 0
M  V30 9126 H 877.592 -4.38182 -0.298851 0
M  V30 9127 H 878.198 -4.03723 1.33746 0
M  V30 9128 N 876.513 -0.788492 -1.36457 0
M  V30 9129 C 877.759 -0.370067 -2.00005 0
M  V30 9130 C 878.114 1.0464 -1.61456 0
M  V30 9131 O 877.407 1.71277 -0.85876 0
M  V30 9132 C 877.601 -0.470255 -3.54293 0
M  V30 9133 C 877.43 -1.89492 -4.07827 0
M  V30 9134 C 876.2 -2.51932 -4.38016 0
M  V30 9135 C 878.398 -2.85692 -4.2765 0
M  V30 9136 N 876.38 -3.85997 -4.77368 0
M  V30 9137 C 877.751 -4.04588 -4.69796 0
M  V30 9138 C 879.806 -2.8276 -4.09818 0
M  V30 9139 C 878.509 -5.2096 -4.95977 0
M  V30 9140 C 880.535 -3.98319 -4.37145 0
M  V30 9141 C 879.897 -5.1596 -4.79547 0
M  V30 9142 H 875.996 -0.182813 -0.760331 0
M  V30 9143 H 878.58 -1.02589 -1.6548 0
M  V30 9144 H 876.751 0.155476 -3.88089 0
M  V30 9145 H 878.483 -0.0281643 -4.0469 0
M  V30 9146 H 875.238 -2.0342 -4.27688 0
M  V30 9147 H 875.662 -4.54971 -5.01329 0
M  V30 9148 H 880.304 -1.92971 -3.76194 0
M  V30 9149 H 878.022 -6.11335 -5.28483 0
M  V30 9150 H 881.608 -3.97411 -4.24919 0
M  V30 9151 H 880.488 -6.03893 -5.00283 0
M  V30 9152 N 877.991 1.48044 -0.54043 0
M  V30 9153 C 878.938 2.29781 0.216597 0
M  V30 9154 C 879.908 1.38021 0.924094 0
M  V30 9155 O 881.093 1.66985 0.923078 0
M  V30 9156 C 878.233 3.21623 1.2511 0
M  V30 9157 C 877.346 4.28467 0.551384 0
M  V30 9158 C 876.481 5.07477 1.56972 0
M  V30 9159 C 875.52 6.06113 0.854048 0
M  V30 9160 N 874.657 6.78143 1.81842 0
M  V30 9161 H 879.497 2.94001 -0.486578 0
M  V30 9162 H 877.034 1.44929 -0.251789 0
M  V30 9163 H 878.992 3.73279 1.8633 0
M  V30 9164 H 877.622 2.59305 1.92252 0
M  V30 9165 H 876.674 3.79997 -0.174982 0
M  V30 9166 H 877.986 4.98799 -0.0100542 0
M  V30 9167 H 877.14 5.63199 2.25592 0
M  V30 9168 H 875.879 4.37008 2.16507 0
M  V30 9169 H 874.884 5.49585 0.153838 0
M  V30 9170 H 876.109 6.78584 0.264675 0
M  V30 9171 H 874.055 6.10417 2.40265 0
M  V30 9172 H 873.972 7.44587 1.3087 0
M  V30 9173 H 875.24 7.38448 2.49628 0
M  V30 9174 N 879.47 0.276058 1.55163 0
M  V30 9175 C 880.402 -0.644254 2.19959 0
M  V30 9176 C 881.415 -1.11675 1.18459 0
M  V30 9177 O 882.604 -1.0385 1.45181 0
M  V30 9178 C 879.704 -1.89093 2.81242 0
M  V30 9179 C 878.877 -1.56509 4.08441 0
M  V30 9180 C 877.936 -2.66433 4.53762 0
M  V30 9181 O 876.962 -2.32579 5.19515 0
M  V30 9182 N 878.164 -3.96509 4.23982 0
M  V30 9183 H 880.929 -0.0896808 2.99566 0
M  V30 9184 H 878.49 0.0971981 1.61608 0
M  V30 9185 H 880.482 -2.61929 3.08505 0
M  V30 9186 H 879.052 -2.35453 2.05622 0
M  V30 9187 H 878.272 -0.670522 3.88455 0
M  V30 9188 H 879.56 -1.32242 4.91314 0
M  V30 9189 H 878.958 -4.26834 3.71254 0
M  V30 9190 H 877.515 -4.6572 4.56014 0
M  V30 9191 N 880.948 -1.576 0.00335426 0
M  V30 9192 C 882.194 -1.90996 -0.681799 0
M  V30 9193 C 882.527 -0.877643 -1.73237 0
M  V30 9194 O 881.802 0.103183 -1.94226 0
M  V30 9195 C 882.085 -3.34961 -1.32187 0
M  V30 9196 C 881.938 -4.48911 -0.28261 0
M  V30 9197 C 883.257 -3.78408 -2.24711 0
M  V30 9198 H 880.376 -0.694596 -0.246386 0
M  V30 9199 H 883.018 -1.89919 0.055336 0
M  V30 9200 H 881.168 -3.36008 -1.95014 0
M  V30 9201 H 882.84 -4.59999 0.346241 0
M  V30 9202 H 881.083 -4.32 0.394768 0
M  V30 9203 H 881.754 -5.46609 -0.769576 0
M  V30 9204 H 884.23 -3.78934 -1.71897 0
M  V30 9205 H 883.106 -4.79885 -2.66461 0
M  V30 9206 H 883.367 -3.12464 -3.1276 0
M  V30 9207 N 882.426 0.269451 -1.5528 0
M  V30 9208 C 883.674 0.998604 -1.75705 0
M  V30 9209 C 883.995 1.86691 -0.563175 0
M  V30 9210 O 883.265 1.91305 0.421811 0
M  V30 9211 H 881.845 0.371698 -0.647958 0
M  V30 9212 H 884.507 0.292826 -1.92688 0
M  V30 9213 H 883.603 1.63348 -2.6594 0
M  V30 9214 N 883.904 1.48273 0.534124 0
M  V30 9215 C 884.834 1.6538 1.64839 0
M  V30 9216 C 885.815 0.502741 1.62501 0
M  V30 9217 O 887 0.734799 1.79762 0
M  V30 9218 C 884.13 1.68949 3.03436 0
M  V30 9219 C 883.084 2.83513 3.20631 0
M  V30 9220 C 882.41 2.72169 4.60248 0
M  V30 9221 C 883.71 4.24858 3.03797 0
M  V30 9222 H 885.404 2.58663 1.50777 0
M  V30 9223 H 882.95 1.24479 0.723937 0
M  V30 9224 H 884.903 1.79505 3.81256 0
M  V30 9225 H 883.627 0.722415 3.1851 0
M  V30 9226 H 882.286 2.72505 2.45227 0
M  V30 9227 H 881.934 1.7344 4.72152 0
M  V30 9228 H 881.634 3.49042 4.72698 0
M  V30 9229 H 883.158 2.84687 5.40172 0
M  V30 9230 H 884.572 4.36721 3.71413 0
M  V30 9231 H 882.969 5.02697 3.27743 0
M  V30 9232 H 884.039 4.41611 2.0027 0
M  V30 9233 N 885.382 -0.782676 1.36792 0
M  V30 9234 C 886.292 -1.92679 1.33835 0
M  V30 9235 C 887.308 -1.72344 0.23952 0
M  V30 9236 O 888.484 -1.95766 0.473045 0
M  V30 9237 C 885.549 -3.27644 1.1336 0
M  V30 9238 C 884.61 -3.6071 2.32781 0
M  V30 9239 C 883.843 -4.89234 2.13273 0
M  V30 9240 O 884.066 -5.59468 1.11136 0
M  V30 9241 O 883 -5.21112 3.01208 0
M  V30 9242 H 886.826 -1.98124 2.30175 0
M  V30 9243 H 884.411 -0.923887 1.17408 0
M  V30 9244 H 886.293 -4.08394 1.03886 0
M  V30 9245 H 884.968 -3.23076 0.200868 0
M  V30 9246 H 883.875 -2.80238 2.47825 0
M  V30 9247 H 885.208 -3.70008 3.24584 0
M  V30 9248 N 886.86 -1.21182 -1.00761 0
M  V30 9249 C 887.79 -0.992773 -2.11344 0
M  V30 9250 C 888.771 0.0813618 -1.69905 0
M  V30 9251 O 889.956 -0.0779503 -1.94043 0
M  V30 9252 C 887.086 -0.553826 -3.42856 0
M  V30 9253 C 886.04 -1.57223 -3.98077 0
M  V30 9254 C 885.366 -0.989605 -5.25463 0
M  V30 9255 C 886.666 -2.95839 -4.30438 0
M  V30 9256 H 888.36 -1.91766 -2.29927 0
M  V30 9257 H 885.906 -0.923426 -1.10494 0
M  V30 9258 H 887.859 -0.387771 -4.19612 0
M  V30 9259 H 886.583 0.406702 -3.24058 0
M  V30 9260 H 885.242 -1.7258 -3.23437 0
M  V30 9261 H 884.89 -0.0208743 -5.02996 0
M  V30 9262 H 884.59 -1.66984 -5.63374 0
M  V30 9263 H 886.114 -0.834815 -6.04866 0
M  V30 9264 H 887.528 -2.8394 -4.98047 0
M  V30 9265 H 885.925 -3.60851 -4.79486 0
M  V30 9266 H 886.995 -3.46882 -3.38823 0
M  V30 9267 N 888.338 1.20213 -1.01915 0
M  V30 9268 C 889.285 2.2309 -0.591571 0
M  V30 9269 C 890.255 1.61465 0.389649 0
M  V30 9270 O 891.44 1.88606 0.288511 0
M  V30 9271 C 888.58 3.45045 0.0614028 0
M  V30 9272 C 887.693 4.21091 -0.964688 0
M  V30 9273 C 886.828 5.30448 -0.282499 0
M  V30 9274 C 885.867 5.98241 -1.29517 0
M  V30 9275 N 885.004 6.99182 -0.639472 0
M  V30 9276 H 889.844 2.59023 -1.47347 0
M  V30 9277 H 887.381 1.27274 -0.737547 0
M  V30 9278 H 889.339 4.14688 0.45714 0
M  V30 9279 H 887.969 3.09797 0.906937 0
M  V30 9280 H 887.021 3.50489 -1.47857 0
M  V30 9281 H 888.333 4.67662 -1.73475 0
M  V30 9282 H 887.487 6.06466 0.168603 0
M  V30 9283 H 886.226 4.84922 0.519843 0
M  V30 9284 H 885.231 5.20982 -1.75663 0
M  V30 9285 H 886.456 6.45853 -2.09884 0
M  V30 9286 H 884.402 6.55844 0.142955 0
M  V30 9287 H 884.319 7.43893 -1.34756 0
M  V30 9288 H 885.587 7.79212 -0.212047 0
M  V30 9289 N 889.816 0.795718 1.36037 0
M  V30 9290 C 891.227 0.433379 1.816 0
M  V30 9291 C 891.578 -1.04341 1.66155 0
M  V30 9292 O 890.703 -1.81004 1.18603 0
M  V30 9293 C 891.298 0.77985 3.29703 0
M  V30 9294 C 889.857 0.470256 3.73451 0
M  V30 9295 C 889.004 1.01119 2.58206 0
M  V30 9296 H 891.955 0.988317 1.24169 0
M  V30 9297 H 891.976 0.0732898 3.80429 0
M  V30 9298 H 891.488 1.85473 3.40913 0
M  V30 9299 H 889.589 -0.596332 3.67797 0
M  V30 9300 H 889.702 0.995276 4.68648 0
M  V30 9301 H 888.066 0.434077 2.50974 0
M  V30 9302 H 888.849 2.09196 2.72198 0
M  V30 9303 N 891.294 -1.47756 0.548274 0
M  V30 9304 C 892.244 -2.26891 -0.224628 0
M  V30 9305 C 893.228 -1.33816 -0.893421 0
M  V30 9306 O 894.42 -1.58232 -0.793204 0
M  V30 9307 C 891.549 -3.19358 -1.25959 0
M  V30 9308 C 890.635 -4.1991 -0.594662 0
M  V30 9309 N 891.026 -5.04721 0.330148 0
M  V30 9310 C 889.324 -4.37832 -0.849672 0
M  V30 9311 C 890.025 -5.77282 0.71553 0
M  V30 9312 N 889.001 -5.43552 0.0723997 0
M  V30 9313 H 892.803 -2.89844 0.486561 0
M  V30 9314 H 890.317 -1.58185 0.367577 0
M  V30 9315 H 892.314 -3.74726 -1.82718 0
M  V30 9316 H 890.974 -2.57961 -1.97196 0
M  V30 9317 H 891.985 -5.13095 0.703811 0
M  V30 9318 H 888.662 -3.87612 -1.55123 0
M  V30 9319 H 890.052 -6.55512 1.47493 0
M  V30 9320 N 892.772 -0.284283 -1.55015 0
M  V30 9321 C 893.997 0.335799 -2.04664 0
M  V30 9322 C 894.422 1.47999 -1.16094 0
M  V30 9323 O 893.78 1.8058 -0.161454 0
M  V30 9324 C 893.828 0.785615 -3.51938 0
M  V30 9325 O 892.932 1.89202 -3.66437 0
M  V30 9326 H 892.273 0.0680233 -0.660506 0
M  V30 9327 H 894.803 -0.421255 -2.00216 0
M  V30 9328 H 894.813 1.07892 -3.93476 0
M  V30 9329 H 893.488 -0.0514675 -4.15868 0
M  V30 9330 H 892.065 1.60055 -3.36804 0
M  V30 9331 N 894.251 1.57596 -0.0117121 0
M  V30 9332 C 895.476 1.95764 0.684938 0
M  V30 9333 C 895.901 0.887285 1.65858 0
M  V30 9334 O 895.259 -0.153508 1.80649 0
M  V30 9335 C 895.307 3.33031 1.38285 0
M  V30 9336 O 894.411 3.28163 2.49765 0
M  V30 9337 H 893.752 0.638767 0.181309 0
M  V30 9338 H 896.282 2.04486 -0.0683883 0
M  V30 9339 H 896.292 3.68866 1.74362 0
M  V30 9340 H 894.967 4.10483 0.669043 0
M  V30 9341 H 893.544 3.04021 2.15929 0
M  V30 9342 N 895.729 -0.261212 1.5542 0
M  V30 9343 C 896.692 -1.30645 1.8832 0
M  V30 9344 C 897.692 -1.41782 0.758588 0
M  V30 9345 O 898.882 -1.40729 1.02669 0
M  V30 9346 C 896.014 -2.6862 2.09895 0
M  V30 9347 H 897.207 -1.02698 2.81768 0
M  V30 9348 H 894.76 -0.499838 1.48092 0
M  V30 9349 H 895.495 -3.0173 1.18868 0
M  V30 9350 H 895.28 -2.61921 2.91787 0
M  V30 9351 H 896.77 -3.44121 2.36581 0
M  V30 9352 N 897.207 -1.48554 -0.526253 0
M  V30 9353 C 898.117 -1.66044 -1.65731 0
M  V30 9354 C 899.133 -0.542951 -1.65312 0
M  V30 9355 O 900.309 -0.814495 -1.84195 0
M  V30 9356 C 897.374 -1.69959 -3.02184 0
M  V30 9357 C 896.435 -2.93362 -3.13428 0
M  V30 9358 C 895.668 -2.97081 -4.43372 0
M  V30 9359 O 895.891 -2.09103 -5.3069 0
M  V30 9360 O 894.825 -3.8929 -4.59061 0
M  V30 9361 H 898.651 -2.61811 -1.53912 0
M  V30 9362 H 896.236 -1.31999 -0.699759 0
M  V30 9363 H 898.118 -1.75033 -3.83329 0
M  V30 9364 H 896.793 -0.773658 -3.14319 0
M  V30 9365 H 895.7 -2.93818 -2.31564 0
M  V30 9366 H 897.033 -3.85352 -3.06211 0
M  V30 9367 N 898.685 0.775411 -1.37205 0
M  V30 9368 C 899.925 1.54689 -1.33606 0
M  V30 9369 C 900.289 1.91834 0.0798549 0
M  V30 9370 O 901.49 2.67722 0.240531 0
M  V30 9371 C 899.761 2.7804 -2.24563 0
M  V30 9372 S 901.32 3.68143 -2.38781 0
M  V30 9373 H 898.138 0.529631 -0.474355 0
M  V30 9374 H 900.74 0.912128 -1.72918 0
M  V30 9375 H 899.444 2.48825 -3.26365 0
M  V30 9376 H 898.975 3.46479 -1.86322 0
M  V30 9377 H 900.99 4.69843 -1.59568 0
M  V30 9378 N 900.163 1.21714 1.00117 0
M  V30 9379 C 901.111 0.976937 2.11089 0
M  V30 9380 C 902.105 -0.0771295 1.69224 0
M  V30 9381 O 903.311 0.0745945 1.79845 0
M  V30 9382 H 899.686 0.298687 0.690138 0
M  V30 9383 H 901.657 1.91881 2.28526 0
M  V30 9384 C 900.406 0.562369 3.43122 0
M  V30 9385 H 899.729 1.36509 3.75773 0
M  V30 9386 H 901.169 0.433642 4.21777 0
M  V30 9387 C 899.628 -0.727148 3.28959 0
M  V30 9388 O 900.158 -1.78171 3.60025 0
M  V30 9389 N 898.364 -0.695129 2.82164 0
M  V30 9390 H 897.911 0.163346 2.57082 0
M  V30 9391 H 897.869 -1.55822 2.73069 0
M  V30 9392 N 901.641 -1.19671 1.02551 0
M  V30 9393 C 902.888 -1.89268 0.720002 0
M  V30 9394 C 903.216 -1.79411 -0.751127 0
M  V30 9395 O 902.471 -1.17859 -1.5623 0
M  V30 9396 C 902.77 -3.39647 1.11241 0
M  V30 9397 C 902.436 -3.69706 2.58125 0
M  V30 9398 C 901.098 -3.7762 2.98256 0
M  V30 9399 C 903.45 -3.83301 3.53171 0
M  V30 9400 C 900.778 -3.96594 4.32354 0
M  V30 9401 C 903.13 -4.03788 4.86968 0
M  V30 9402 C 901.794 -4.09934 5.26793 0
M  V30 9403 H 901.064 -0.692579 0.263467 0
M  V30 9404 H 903.711 -1.41738 1.28774 0
M  V30 9405 H 902.016 -3.89052 0.463234 0
M  V30 9406 H 903.713 -3.91809 0.853602 0
M  V30 9407 H 900.303 -3.64152 2.26033 0
M  V30 9408 H 904.487 -3.76534 3.2332 0
M  V30 9409 H 899.743 -3.9959 4.6275 0
M  V30 9410 H 903.917 -4.1325 5.60533 0
M  V30 9411 H 901.544 -4.24389 6.30712 0
M  V30 9412 N 903.119 -0.802921 -1.35613 0
M  V30 9413 C 904.359 -0.387163 -2.007 0
M  V30 9414 C 904.723 1.02546 -1.62322 0
M  V30 9415 O 905.924 1.54303 -2.201 0
M  V30 9416 C 904.195 -0.560813 -3.52973 0
M  V30 9417 S 905.754 -0.234935 -4.38171 0
M  V30 9418 H 902.572 -0.147218 -0.695592 0
M  V30 9419 H 905.174 -1.04437 -1.65267 0
M  V30 9420 H 903.878 -1.58897 -3.78391 0
M  V30 9421 H 903.409 0.111845 -3.93241 0
M  V30 9422 H 905.424 0.958715 -4.8685 0
M  V30 9423 N 904.597 1.47463 -0.556102 0
M  V30 9424 C 906.013 1.58134 -0.21579 0
M  V30 9425 C 906.213 1.55486 1.28166 0
M  V30 9426 O 905.269 1.45768 2.06174 0
M  V30 9427 C 906.582 2.88686 -0.841464 0
M  V30 9428 C 908.13 3.02268 -0.812591 0
M  V30 9429 C 908.605 4.35518 -1.41731 0
M  V30 9430 N 910.096 4.42151 -1.38045 0
M  V30 9431 C 910.831 5.43817 -1.81799 0
M  V30 9432 N 910.327 6.52299 -2.33404 0
M  V30 9433 N 912.12 5.34855 -1.72877 0
M  V30 9434 H 904.271 1.47428 -1.52901 0
M  V30 9435 H 906.534 0.701586 -0.637559 0
M  V30 9436 H 906.24 2.96358 -1.8938 0
M  V30 9437 H 906.114 3.7572 -0.333846 0
M  V30 9438 H 908.501 2.94194 0.231056 0
M  V30 9439 H 908.582 2.16779 -1.35796 0
M  V30 9440 H 908.226 4.44348 -2.46002 0
M  V30 9441 H 908.156 5.19737 -0.847402 0
M  V30 9442 H 910.647 3.64348 -1.00296 0
M  V30 9443 H 910.96 7.26047 -2.64717 0
M  V30 9444 H 909.305 6.53192 -2.37414 0
M  V30 9445 H 912.496 4.49004 -1.32338 0
M  V30 9446 H 912.669 6.13949 -2.07294 0
M  V30 9447 N 906.075 0.2925 1.54862 0
M  V30 9448 C 907.491 -0.0611461 1.59483 0
M  V30 9449 C 907.691 -1.53141 1.30958 0
M  V30 9450 O 906.747 -2.28291 1.07887 0
M  V30 9451 C 908.06 0.329143 2.98893 0
M  V30 9452 C 909.608 0.2772 3.1177 0
M  V30 9453 C 910.083 0.642185 4.53475 0
M  V30 9454 N 911.574 0.594396 4.5937 0
M  V30 9455 C 912.309 0.849385 5.67074 0
M  V30 9456 N 911.805 1.1699 6.82851 0
M  V30 9457 N 913.598 0.777016 5.56704 0
M  V30 9458 H 905.749 1.25079 1.71665 0
M  V30 9459 H 908.012 0.506516 0.80134 0
M  V30 9460 H 907.718 1.35233 3.24661 0
M  V30 9461 H 907.592 -0.321442 3.75828 0
M  V30 9462 H 909.979 -0.736725 2.85756 0
M  V30 9463 H 910.06 0.962289 2.3701 0
M  V30 9464 H 909.704 1.65388 4.80218 0
M  V30 9465 H 909.634 -0.0648831 5.2656 0
M  V30 9466 H 912.125 0.357256 3.76208 0
M  V30 9467 H 912.438 1.35067 7.60905 0
M  V30 9468 H 910.783 1.20785 6.84424 0
M  V30 9469 H 913.974 0.526333 4.65132 0
M  V30 9470 H 914.147 0.979113 6.4056 0
M  V30 9471 N 907.553 -1.57587 0.0200696 0
M  V30 9472 C 908.964 -1.79312 -0.520019 0
M  V30 9473 C 909.315 -0.929475 -1.72787 0
M  V30 9474 O 908.44 -0.137389 -2.15963 0
M  V30 9475 C 909.035 -3.25203 -0.950172 0
M  V30 9476 C 907.594 -3.47954 -1.43543 0
M  V30 9477 C 906.741 -2.74459 -0.395917 0
M  V30 9478 H 909.692 -1.56779 0.246153 0
M  V30 9479 H 909.713 -3.34418 -1.81508 0
M  V30 9480 H 909.225 -3.88035 -0.070883 0
M  V30 9481 H 907.326 -2.90363 -2.33495 0
M  V30 9482 H 907.439 -4.56661 -1.44905 0
M  V30 9483 H 905.803 -2.39669 -0.862022 0
M  V30 9484 H 906.586 -3.40001 0.47475 0
M  V30 9485 N 909.032 0.252966 -1.55557 0
M  V30 9486 C 909.962 1.31691 -1.9282 0
M  V30 9487 C 910.943 1.50516 -0.7924 0
M  V30 9488 O 912.128 1.63225 -1.05219 0
M  V30 9489 C 909.258 2.67281 -2.21762 0
M  V30 9490 C 908.212 2.6316 -3.37536 0
M  V30 9491 C 907.538 4.02488 -3.52005 0
M  V30 9492 C 908.838 2.20675 -4.73392 0
M  V30 9493 H 910.532 1.00751 -2.81939 0
M  V30 9494 H 908.078 0.483219 -1.3565 0
M  V30 9495 H 910.031 3.41842 -2.46419 0
M  V30 9496 H 908.755 2.99845 -1.29463 0
M  V30 9497 H 907.414 1.91057 -3.12878 0
M  V30 9498 H 907.062 4.32307 -2.57137 0
M  V30 9499 H 906.762 4.00621 -4.29857 0
M  V30 9500 H 908.286 4.78758 -3.78977 0
M  V30 9501 H 909.7 2.84965 -4.97461 0
M  V30 9502 H 908.097 2.29931 -5.54303 0
M  V30 9503 H 909.167 1.15831 -4.70862 0
M  V30 9504 N 910.51 1.48831 0.518367 0
M  V30 9505 C 911.46 1.60614 1.61824 0
M  V30 9506 C 912.444 0.462631 1.54106 0
M  V30 9507 O 913.636 0.714689 1.6193 0
M  V30 9508 C 910.765 1.65984 3.00507 0
M  V30 9509 C 909.851 2.85854 3.13286 0
M  V30 9510 N 910.242 4.1014 2.96005 0
M  V30 9511 C 908.54 2.83429 3.4436 0
M  V30 9512 C 909.241 4.90626 3.12508 0
M  V30 9513 N 908.217 4.2366 3.40607 0
M  V30 9514 H 912.019 2.54443 1.47091 0
M  V30 9515 H 909.533 1.45363 0.724102 0
M  V30 9516 H 911.53 1.72521 3.79529 0
M  V30 9517 H 910.19 0.732792 3.16323 0
M  V30 9518 H 911.201 4.40395 2.72531 0
M  V30 9519 H 907.878 2.0003 3.66462 0
M  V30 9520 H 909.268 5.99302 3.03786 0
M  V30 9521 N 911.988 -0.768124 1.37614 0
M  V30 9522 C 913.235 -1.5268 1.33022 0
M  V30 9523 C 913.563 -1.94318 -0.0841918 0
M  V30 9524 O 912.818 -1.64623 -1.0582 0
M  V30 9525 C 913.117 -2.80204 2.21856 0
M  V30 9526 C 912.783 -2.57602 3.7007 0
M  V30 9527 C 911.445 -2.51146 4.10462 0
M  V30 9528 C 913.797 -2.37482 4.63952 0
M  V30 9529 C 911.125 -2.22566 5.42846 0
M  V30 9530 C 913.477 -2.10425 5.96577 0
M  V30 9531 C 912.141 -2.02416 6.36069 0
M  V30 9532 H 911.411 -0.558697 0.486763 0
M  V30 9533 H 914.058 -0.88447 1.69851 0
M  V30 9534 H 912.363 -3.49014 1.78034 0
M  V30 9535 H 914.06 -3.38099 2.15615 0
M  V30 9536 H 910.65 -2.63491 3.38039 0
M  V30 9537 H 914.834 -2.41457 4.33604 0
M  V30 9538 H 910.09 -2.14863 5.72402 0
M  V30 9539 H 914.264 -1.93857 6.68874 0
M  V30 9540 H 911.891 -1.80034 7.38574 0
M  V30 9541 N 913.466 -1.22244 -0.994698 0
M  V30 9542 C 914.376 -1.00722 -2.11878 0
M  V30 9543 C 915.392 0.043919 -1.73945 0
M  V30 9544 O 916.568 -0.148411 -2.00852 0
M  V30 9545 C 913.633 -0.585723 -3.41717 0
M  V30 9546 C 912.694 -1.71027 -3.93762 0
M  V30 9547 C 911.927 -1.30879 -5.17403 0
M  V30 9548 O 912.15 -0.18681 -5.70094 0
M  V30 9549 O 911.084 -2.1246 -5.63156 0
M  V30 9550 H 914.91 -1.94894 -2.32916 0
M  V30 9551 H 912.495 -1.00822 -1.10251 0
M  V30 9552 H 914.377 -0.360935 -4.19851 0
M  V30 9553 H 913.052 0.327166 -3.22042 0
M  V30 9554 H 911.959 -1.98956 -3.16808 0
M  V30 9555 H 913.292 -2.60096 -4.17865 0
M  V30 9556 N 914.944 1.19125 -1.03184 0
M  V30 9557 C 916.19 1.89163 -0.731111 0
M  V30 9558 C 916.523 1.79604 0.738662 0
M  V30 9559 O 915.798 1.19037 1.53819 0
M  V30 9560 C 916.081 3.39986 -1.18666 0
M  V30 9561 C 915.934 3.58401 -2.71788 0
M  V30 9562 C 917.253 4.33316 -0.769772 0
M  V30 9563 H 914.372 0.686908 -0.267069 0
M  V30 9564 H 917.014 1.40205 -1.28229 0
M  V30 9565 H 915.164 3.81813 -0.717736 0
M  V30 9566 H 916.836 3.25727 -3.26649 0
M  V30 9567 H 915.079 3.01355 -3.12038 0
M  V30 9568 H 915.75 4.64189 -2.98719 0
M  V30 9569 H 918.226 3.9922 -1.17314 0
M  V30 9570 H 917.102 5.37427 -1.11637 0
M  V30 9571 H 917.363 4.40884 0.327681 0
M  V30 9572 N 916.422 0.810101 1.35185 0
M  V30 9573 C 917.355 0.168416 2.27578 0
M  V30 9574 C 918.333 -0.667664 1.4826 0
M  V30 9575 O 919.517 -0.634184 1.77512 0
M  V30 9576 C 916.644 -0.765994 3.29925 0
M  V30 9577 C 915.69 -0.00908802 4.26499 0
M  V30 9578 S 916.523 1.32936 5.18737 0
M  V30 9579 C 917.679 0.399485 6.24624 0
M  V30 9580 H 917.912 0.951753 2.81654 0
M  V30 9581 H 915.445 0.60534 1.42039 0
M  V30 9582 H 917.403 -1.2996 3.89385 0
M  V30 9583 H 916.064 -1.52275 2.7472 0
M  V30 9584 H 915.257 -0.718919 4.98846 0
M  V30 9585 H 914.859 0.454663 3.71226 0
M  V30 9586 H 917.151 -0.413904 6.76234 0
M  V30 9587 H 918.094 1.09225 6.99625 0
M  V30 9588 H 918.502 -0.00638358 5.645 0
M  V30 9589 N 917.9 -1.47166 0.563914 0
M  V30 9590 C 919.125 -2.0735 0.0454698 0
M  V30 9591 C 919.55 -1.41281 -1.24182 0
M  V30 9592 O 918.908 -0.490084 -1.7455 0
M  V30 9593 C 918.956 -3.60378 -0.126453 0
M  V30 9594 O 918.06 -3.94934 -1.18746 0
M  V30 9595 H 917.401 -0.661773 0.0543377 0
M  V30 9596 H 919.931 -1.89086 0.781508 0
M  V30 9597 H 919.941 -4.06593 -0.338554 0
M  V30 9598 H 918.616 -4.07862 0.81373 0
M  V30 9599 H 917.193 -3.60455 -0.955318 0
M  V30 9600 N 919.378 -0.300708 -1.54705 0
M  V30 9601 C 920.288 0.584996 -2.27189 0
M  V30 9602 C 921.304 1.14866 -1.30697 0
M  V30 9603 O 922.48 1.17351 -1.63679 0
M  V30 9604 C 919.545 1.74076 -2.99831 0
M  V30 9605 C 918.606 1.2112 -4.1186 0
M  V30 9606 C 917.839 2.31188 -4.81028 0
M  V30 9607 O 918.062 3.5108 -4.49554 0
M  V30 9608 O 916.996 1.97897 -5.68437 0
M  V30 9609 H 920.822 -0.00298177 -3.037 0
M  V30 9610 H 918.407 -0.0671802 -1.49249 0
M  V30 9611 H 920.289 2.41413 -3.45395 0
M  V30 9612 H 918.964 2.31535 -2.26215 0
M  V30 9613 H 917.871 0.50357 -3.70695 0
M  V30 9614 H 919.204 0.682046 -4.87452 0
M  V30 9615 N 920.856 1.57574 -0.0284266 0
M  V30 9616 C 922.272 1.56194 0.327958 0
M  V30 9617 C 922.472 1.03397 1.72949 0
M  V30 9618 O 921.528 0.680392 2.4316 0
M  V30 9619 C 922.841 3.00177 0.177196 0
M  V30 9620 C 924.389 3.12 0.250014 0
M  V30 9621 C 924.864 4.57821 0.128049 0
M  V30 9622 N 926.355 4.6283 0.185054 0
M  V30 9623 C 927.09 5.73286 0.114454 0
M  V30 9624 N 926.586 6.928 -0.00719225 0
M  V30 9625 N 928.379 5.61848 0.16839 0
M  V30 9626 H 920.53 1.90224 -0.944921 0
M  V30 9627 H 922.793 0.874987 -0.364832 0
M  V30 9628 H 922.499 3.42753 -0.788224 0
M  V30 9629 H 922.373 3.65101 0.94768 0
M  V30 9630 H 924.76 2.69337 1.20589 0
M  V30 9631 H 924.841 2.49799 -0.550835 0
M  V30 9632 H 924.485 5.01165 -0.824407 0
M  V30 9633 H 924.415 5.18001 0.947753 0
M  V30 9634 H 926.906 3.76867 0.279247 0
M  V30 9635 H 927.219 7.72781 -0.0543903 0
M  V30 9636 H 925.564 6.94987 -0.0419648 0
M  V30 9637 H 928.755 4.67367 0.261821 0
M  V30 9638 H 928.928 6.47907 0.109908 0
M  V30 9639 N 922.334 -0.244713 1.55689 0
M  V30 9640 C 923.244 -1.32447 1.93636 0
M  V30 9641 C 924.26 -1.52541 0.837086 0
M  V30 9642 O 925.436 -1.66121 1.13867 0
M  V30 9643 C 922.501 -2.65864 2.22525 0
M  V30 9644 C 921.562 -2.54273 3.45896 0
M  V30 9645 C 920.795 -3.81327 3.73397 0
M  V30 9646 O 921.018 -4.83307 3.02936 0
M  V30 9647 O 919.952 -3.79829 4.66919 0
M  V30 9648 H 923.778 -1.03255 2.85608 0
M  V30 9649 H 921.363 -0.445652 1.42598 0
M  V30 9650 H 923.245 -3.447 2.42404 0
M  V30 9651 H 921.92 -2.94784 1.33731 0
M  V30 9652 H 920.827 -1.73715 3.31321 0
M  V30 9653 H 922.16 -2.30297 4.34999 0
M  V30 9654 N 923.813 -1.49104 -0.510467 0
M  V30 9655 C 924.76 -1.65074 -1.61305 0
M  V30 9656 C 925.73 -0.492362 -1.58635 0
M  V30 9657 O 926.915 -0.718241 -1.76765 0
M  V30 9658 C 924.055 -1.71457 -2.99493 0
M  V30 9659 C 923.168 -2.98536 -3.12251 0
M  V30 9660 C 922.303 -2.95957 -4.41116 0
M  V30 9661 C 921.342 -4.17655 -4.47471 0
M  V30 9662 N 920.479 -4.13041 -5.67751 0
M  V30 9663 H 925.319 -2.59222 -1.46996 0
M  V30 9664 H 922.856 -1.28535 -0.715346 0
M  V30 9665 H 924.814 -1.7314 -3.79577 0
M  V30 9666 H 923.444 -0.807834 -3.12528 0
M  V30 9667 H 922.496 -3.06509 -2.25292 0
M  V30 9668 H 923.808 -3.88527 -3.12807 0
M  V30 9669 H 922.962 -2.96149 -5.2951 0
M  V30 9670 H 921.701 -2.03728 -4.4311 0
M  V30 9671 H 920.706 -4.17717 -3.57481 0
M  V30 9672 H 921.931 -5.11066 -4.472 0
M  V30 9673 H 919.877 -3.23643 -5.70606 0
M  V30 9674 H 919.794 -4.96757 -5.69884 0
M  V30 9675 H 921.062 -4.17322 -6.58379 0
M  V30 9676 N 925.291 0.760815 -1.38019 0
M  V30 9677 C 926.516 1.55513 -1.37224 0
M  V30 9678 C 926.941 1.88062 0.037611 0
M  V30 9679 O 926.299 1.50042 1.0177 0
M  V30 9680 C 926.347 2.83539 -2.22796 0
M  V30 9681 O 925.451 3.78384 -1.64009 0
M  V30 9682 H 924.792 0.470642 -0.468393 0
M  V30 9683 H 927.322 0.940792 -1.81687 0
M  V30 9684 H 927.332 3.32535 -2.36399 0
M  V30 9685 H 926.007 2.59178 -3.25269 0
M  V30 9686 H 924.584 3.37063 -1.59508 0
M  V30 9687 N 926.769 1.22769 0.988202 0
M  V30 9688 C 927.999 1.07998 1.76125 0
M  V30 9689 C 928.407 -0.372062 1.85506 0
M  V30 9690 O 927.75 -1.26946 1.3278 0
M  V30 9691 C 927.812 1.6219 3.20834 0
M  V30 9692 C 927.476 3.1086 3.34986 0
M  V30 9693 C 928.473 4.08239 3.21927 0
M  V30 9694 C 926.158 3.50411 3.59886 0
M  V30 9695 C 928.152 5.43154 3.33561 0
M  V30 9696 C 925.839 4.85473 3.71159 0
M  V30 9697 C 926.837 5.81653 3.58006 0
M  V30 9698 O 926.525 7.14263 3.68895 0
M  V30 9699 H 926.257 0.378937 0.559806 0
M  V30 9700 H 928.811 1.62925 1.25078 0
M  V30 9701 H 927.041 1.01676 3.73094 0
M  V30 9702 H 928.73 1.43011 3.79872 0
M  V30 9703 H 929.496 3.79025 3.02597 0
M  V30 9704 H 925.375 2.76068 3.69198 0
M  V30 9705 H 928.919 6.18207 3.23211 0
M  V30 9706 H 924.816 5.14365 3.89998 0
M  V30 9707 H 925.584 7.21906 3.85739 0
M  V30 9708 N 928.247 -1.18576 1.03814 0
M  V30 9709 C 929.494 -1.88493 0.740036 0
M  V30 9710 C 929.822 -1.80198 -0.732056 0
M  V30 9711 O 929.077 -1.19509 -1.54971 0
M  V30 9712 C 929.376 -3.38448 1.14837 0
M  V30 9713 C 929.042 -3.66947 2.62031 0
M  V30 9714 C 927.704 -3.74435 3.02244 0
M  V30 9715 C 930.056 -3.79534 3.57217 0
M  V30 9716 C 927.384 -3.91986 4.36536 0
M  V30 9717 C 929.736 -3.986 4.91223 0
M  V30 9718 C 928.4 -4.04323 5.31111 0
M  V30 9719 H 927.67 -0.689746 0.270798 0
M  V30 9720 H 930.317 -1.40364 1.3027 0
M  V30 9721 H 928.622 -3.88539 0.504472 0
M  V30 9722 H 930.319 -3.90882 0.89511 0
M  V30 9723 H 926.909 -3.61734 2.29883 0
M  V30 9724 H 931.093 -3.73083 3.27296 0
M  V30 9725 H 926.349 -3.9466 4.66962 0
M  V30 9726 H 930.523 -4.07281 5.64885 0
M  V30 9727 H 928.15 -4.17676 6.35178 0
M  V30 9728 N 929.725 -0.817259 -1.34754 0
M  V30 9729 C 930.95 -0.414423 -2.03217 0
M  V30 9730 C 931.375 0.970037 -1.61158 0
M  V30 9731 O 930.733 1.63016 -0.793436 0
M  V30 9732 C 930.781 -0.518087 -3.56859 0
M  V30 9733 O 929.885 0.464314 -4.09778 0
M  V30 9734 H 929.226 -0.171454 -0.641482 0
M  V30 9735 H 931.756 -1.10611 -1.72123 0
M  V30 9736 H 931.766 -0.391779 -4.06115 0
M  V30 9737 H 930.441 -1.52786 -3.86819 0
M  V30 9738 H 929.018 0.297361 -3.71712 0
M  V30 9739 N 931.203 1.46865 -0.571711 0
M  V30 9740 C 932.451 2.0203 -0.0530022 0
M  V30 9741 C 932.772 1.44687 1.30731 0
M  V30 9742 O 932.042 0.627429 1.85581 0
M  V30 9743 H 930.622 0.746815 -0.0166035 0
M  V30 9744 H 933.284 1.80099 -0.745003 0
M  V30 9745 H 932.38 3.12091 0.0242538 0
M  V30 9746 N 932.681 0.308908 1.54543 0
M  V30 9747 C 933.611 -0.556657 2.26768 0
M  V30 9748 C 934.592 -1.13145 1.27013 0
M  V30 9749 O 935.777 -1.15931 1.558 0
M  V30 9750 C 932.907 -1.72481 3.01443 0
M  V30 9751 C 931.861 -1.28001 4.08411 0
M  V30 9752 C 931.187 -2.53395 4.70845 0
M  V30 9753 C 932.487 -0.405497 5.20724 0
M  V30 9754 H 934.181 0.0457618 2.99365 0
M  V30 9755 H 931.727 0.0234495 1.43981 0
M  V30 9756 H 933.68 -2.3365 3.50693 0
M  V30 9757 H 932.404 -2.35359 2.26437 0
M  V30 9758 H 931.063 -0.69133 3.60022 0
M  V30 9759 H 930.711 -3.14604 3.92471 0
M  V30 9760 H 930.411 -2.2433 5.43093 0
M  V30 9761 H 931.935 -3.15352 5.22863 0
M  V30 9762 H 933.349 -0.923076 5.6582 0
M  V30 9763 H 931.746 -0.208282 5.99738 0
M  V30 9764 H 932.816 0.567412 4.81569 0
M  V30 9765 N 934.159 -1.57557 0.0367827 0
M  V30 9766 C 935.384 -1.96828 -0.653707 0
M  V30 9767 C 935.809 -0.913559 -1.64425 0
M  V30 9768 O 935.167 0.124749 -1.8087 0
M  V30 9769 C 935.215 -3.35189 -1.32969 0
M  V30 9770 O 934.319 -3.32095 -2.44513 0
M  V30 9771 H 933.66 -0.64157 -0.171124 0
M  V30 9772 H 936.19 -2.04351 0.100912 0
M  V30 9773 H 936.2 -3.71593 -1.68472 0
M  V30 9774 H 934.875 -4.11496 -0.603654 0
M  V30 9775 H 933.452 -3.07418 -2.11065 0
M  V30 9776 N 935.637 0.236453 -1.55816 0
M  V30 9777 C 936.584 1.29289 -1.91188 0
M  V30 9778 C 937.554 1.47315 -0.767301 0
M  V30 9779 O 938.739 1.61128 -1.02189 0
M  V30 9780 C 935.879 2.64126 -2.22107 0
M  V30 9781 C 934.992 2.54022 -3.49423 0
M  V30 9782 C 934.127 3.81282 -3.69861 0
M  V30 9783 C 933.166 3.65839 -4.90743 0
M  V30 9784 N 932.303 4.85014 -5.07647 0
M  V30 9785 H 937.143 0.98424 -2.81277 0
M  V30 9786 H 934.68 0.474722 -1.39229 0
M  V30 9787 H 936.638 3.42626 -2.3804 0
M  V30 9788 H 935.268 2.93118 -1.35209 0
M  V30 9789 H 934.32 1.67036 -3.41765 0
M  V30 9790 H 935.632 2.38525 -4.38072 0
M  V30 9791 H 934.786 4.68226 -3.8581 0
M  V30 9792 H 933.525 3.99688 -2.79465 0
M  V30 9793 H 932.53 2.77279 -4.74759 0
M  V30 9794 H 933.755 3.48918 -5.82609 0
M  V30 9795 H 931.701 5.03762 -4.20191 0
M  V30 9796 H 931.618 4.72188 -5.90402 0
M  V30 9797 H 932.886 5.73427 -5.28017 0
M  V30 9798 N 937.115 1.49373 0.502552 0
M  V30 9799 C 938.045 1.68839 1.61294 0
M  V30 9800 C 939.026 0.537096 1.61398 0
M  V30 9801 O 940.211 0.772764 1.78163 0
M  V30 9802 C 937.341 1.75347 2.99784 0
M  V30 9803 C 936.295 2.90251 3.14545 0
M  V30 9804 C 935.621 2.8187 4.54371 0
M  V30 9805 C 936.921 4.31207 2.94717 0
M  V30 9806 H 938.615 2.61803 1.45257 0
M  V30 9807 H 936.161 1.25987 0.697371 0
M  V30 9808 H 938.114 1.87552 3.77362 0
M  V30 9809 H 936.838 0.789814 3.16906 0
M  V30 9810 H 935.497 2.77646 2.39392 0
M  V30 9811 H 935.145 1.83416 4.68367 0
M  V30 9812 H 934.845 3.5899 4.65188 0
M  V30 9813 H 936.369 2.96081 5.34012 0
M  V30 9814 H 937.783 4.44501 3.62065 0
M  V30 9815 H 936.18 5.09536 3.17007 0
M  V30 9816 H 937.25 4.45759 1.90857 0
M  V30 9817 N 938.594 -0.753485 1.38421 0
M  V30 9818 C 939.84 -1.51485 1.34834 0
M  V30 9819 C 940.173 -1.94102 -0.0615381 0
M  V30 9820 O 939.448 -1.65439 -1.02274 0
M  V30 9821 C 939.731 -2.76736 2.30411 0
M  V30 9822 C 939.584 -2.40256 3.80259 0
M  V30 9823 C 940.903 -3.7876 2.24119 0
M  V30 9824 H 938.022 -0.549534 0.491102 0
M  V30 9825 H 940.664 -0.863006 1.6927 0
M  V30 9826 H 938.814 -3.32357 2.01175 0
M  V30 9827 H 940.486 -1.90409 4.20169 0
M  V30 9828 H 938.729 -1.72714 3.97935 0
M  V30 9829 H 939.4 -3.29869 4.42595 0
M  V30 9830 H 941.876 -3.32679 2.49928 0
M  V30 9831 H 940.752 -4.64092 2.93104 0
M  V30 9832 H 941.013 -4.24352 1.24006 0
M  V30 9833 N 940.072 -1.23292 -0.981677 0
M  V30 9834 C 941.297 -1.09176 -1.76339 0
M  V30 9835 C 941.722 0.352726 -1.84763 0
M  V30 9836 O 941.08 1.25509 -1.30832 0
M  V30 9837 C 941.128 -1.72046 -3.16911 0
M  V30 9838 O 940.232 -0.98174 -4.00544 0
M  V30 9839 H 939.573 -0.382755 -0.542581 0
M  V30 9840 H 942.103 -1.63319 -1.23239 0
M  V30 9841 H 942.113 -1.77232 -3.67495 0
M  V30 9842 H 940.788 -2.77154 -3.10095 0
M  V30 9843 H 939.365 -1.00672 -3.59054 0
M  V30 9844 N 941.55 1.18024 -1.04442 0
M  V30 9845 C 942.513 2.19992 -0.643136 0
M  V30 9846 C 943.513 1.57949 0.301444 0
M  V30 9847 O 944.703 1.73986 0.0863341 0
M  V30 9848 C 941.835 3.40853 0.0565208 0
M  V30 9849 H 943.028 2.57008 -1.54554 0
M  V30 9850 H 940.581 1.31974 -0.837408 0
M  V30 9851 H 941.316 3.09373 0.972553 0
M  V30 9852 H 941.101 3.87128 -0.622439 0
M  V30 9853 H 942.591 4.16344 0.323652 0
M  V30 9854 N 943.028 0.824394 1.34319 0
M  V30 9855 C 943.96 0.204805 2.28283 0
M  V30 9856 C 944.973 -0.606162 1.51094 0
M  V30 9857 O 946.162 -0.435602 1.73103 0
M  V30 9858 C 943.262 -0.73139 3.30914 0
M  V30 9859 C 942.435 0.0370723 4.37384 0
M  V30 9860 C 941.494 -0.820272 5.19767 0
M  V30 9861 O 940.52 -0.264721 5.68584 0
M  V30 9862 N 941.722 -2.13984 5.39621 0
M  V30 9863 H 944.487 1.0121 2.82093 0
M  V30 9864 H 942.048 0.681494 1.46858 0
M  V30 9865 H 944.04 -1.30958 3.82926 0
M  V30 9866 H 942.61 -1.43943 2.77487 0
M  V30 9867 H 941.83 0.796578 3.86068 0
M  V30 9868 H 943.118 0.566014 5.05642 0
M  V30 9869 H 942.516 -2.61492 5.01636 0
M  V30 9870 H 941.073 -2.66685 5.94746 0
M  V30 9871 N 944.506 -1.46559 0.579492 0
M  V30 9872 C 945.469 -2.28739 -0.145371 0
M  V30 9873 C 946.469 -1.38211 -0.821854 0
M  V30 9874 O 947.659 -1.6062 -0.674302 0
M  V30 9875 C 944.791 -3.18507 -1.21515 0
M  V30 9876 H 945.984 -2.94301 0.576786 0
M  V30 9877 H 943.537 -1.52616 0.337327 0
M  V30 9878 H 944.272 -2.57685 -1.96899 0
M  V30 9879 H 944.057 -3.85157 -0.734616 0
M  V30 9880 H 945.547 -3.80369 -1.72363 0
M  V30 9881 O 946.023 -0.459225 -1.54833 0
M  V30 9882 H 946.714 0.0690813 -1.93577 0
M  V30 END ATOM
M  V30 BEGIN BOND
M  V30 END BOND
M  V30 END CTAB
M  END
$$$$
