drugbank_target|P13254 Methionine gamma-lyase (DB04083)
 OpenBabel12092120283D

  0  0  0     0  0            999 V3000
M  V30 BEGIN CTAB
M  V30 COUNTS 5963 6028 0 0 0
M  V30 BEGIN ATOM
M  V30 1 H -0.908 1.98254 -0.117106 0
M  V30 2 N 0 1.576 0 0
M  V30 3 C 0.933 2.03868 1.02534 0
M  V30 4 C 1.911 0.928543 1.3348 0
M  V30 5 O 3.095 1.19667 1.45644 0
M  V30 6 C 0.222 2.43627 2.35294 0
M  V30 7 C -0.732 3.65373 2.2001 0
M  V30 8 S 0.101 5.13292 1.52614 0
M  V30 9 C 1.257 5.56322 2.86805 0
M  V30 10 H 1.49 2.90518 0.631377 0
M  V30 11 H -0.977 1.52953 0.210867 0
M  V30 12 H 0.981 2.67203 3.11629 0
M  V30 13 H -0.358 1.57376 2.7183 0
M  V30 14 H -1.165 3.90944 3.18086 0
M  V30 15 H -1.563 3.418 1.51819 0
M  V30 16 H 0.729 5.58782 3.83104 0
M  V30 17 H 1.672 6.56266 2.65933 0
M  V30 18 H 2.08 4.83886 2.90714 0
M  V30 19 N 1.4781 -0.272755 1.55222 0
M  V30 20 C 2.4281 -1.33946 1.84506 0
M  V30 21 C 3.4121 -1.44682 0.70399 0
M  V30 22 O 4.6041 -1.48358 0.965338 0
M  V30 23 C 1.7331 -2.69968 2.12067 0
M  V30 24 C 0.8191 -2.63341 3.32434 0
M  V30 25 N 1.2101 -2.26335 4.52334 0
M  V30 26 C -0.4919 -2.94402 3.35028 0
M  V30 27 C 0.2091 -2.29705 5.34425 0
M  V30 28 N -0.8149 -2.68188 4.72838 0
M  V30 29 H 2.9871 -1.04343 2.74754 0
M  V30 30 H 0.5011 -0.481389 1.55101 0
M  V30 31 H 2.4981 -3.46916 2.31202 0
M  V30 32 H 1.1581 -3.00459 1.23103 0
M  V30 33 H 2.1691 -1.98309 4.78429 0
M  V30 34 H -1.1539 -3.29603 2.56257 0
M  V30 35 H 0.2361 -2.03653 6.40293 0
M  V30 36 N 2.9562 -1.48159 -0.537278 0
M  V30 37 C 4.2042 -1.55497 -1.29094 0
M  V30 38 C 4.5252 -0.227454 -1.93669 0
M  V30 39 O 3.7952 0.750386 -1.80959 0
M  V30 40 H 2.3752 -0.572832 -0.47945 0
M  V30 41 H 5.0372 -1.84579 -0.625818 0
M  V30 42 H 4.1332 -2.33216 -2.07405 0
M  V30 43 N 4.4343 0.785586 -1.36625 0
M  V30 44 C 5.6593 1.57963 -1.34397 0
M  V30 45 C 6.0843 1.87964 0.071526 0
M  V30 46 O 5.4423 1.48182 1.0446 0
M  V30 47 C 5.4903 2.87511 -2.17646 0
M  V30 48 O 4.5943 3.81281 -1.57158 0
M  V30 49 H 3.9353 0.479014 -0.459828 0
M  V30 50 H 6.4653 0.973411 -1.79961 0
M  V30 51 H 6.4753 3.36745 -2.30362 0
M  V30 52 H 5.1503 2.65002 -3.20541 0
M  V30 53 H 3.7273 3.39885 -1.53403 0
M  V30 54 N 5.9124 1.20967 1.01018 0
M  V30 55 C 6.8604 0.961223 2.1181 0
M  V30 56 C 7.8544 -0.0897034 1.69162 0
M  V30 57 O 9.0604 0.0612271 1.79896 0
M  V30 58 H 5.4354 0.29355 0.692338 0
M  V30 59 H 7.4064 1.90178 2.29946 0
M  V30 60 C 6.1554 0.536854 3.4353 0
M  V30 61 H 5.4784 1.33713 3.76777 0
M  V30 62 H 6.9184 0.402286 4.22087 0
M  V30 63 C 5.3774 -0.751574 3.2841 0
M  V30 64 O 5.9074 -1.80841 3.58691 0
M  V30 65 N 4.1134 -0.716079 2.81639 0
M  V30 66 H 3.6604 0.144236 2.57196 0
M  V30 67 H 3.6184 -1.57847 2.71904 0
M  V30 68 N 7.3905 -1.2043 1.01659 0
M  V30 69 C 8.3375 -2.23215 0.586822 0
M  V30 70 C 9.3075 -1.61382 -0.393085 0
M  V30 71 O 10.4925 -1.88544 -0.292525 0
M  V30 72 C 7.6325 -3.45032 -0.0687464 0
M  V30 73 C 6.7455 -4.21296 0.955724 0
M  V30 74 C 5.8805 -5.30507 0.271208 0
M  V30 75 C 4.9195 -5.98515 1.28244 0
M  V30 76 N 4.0565 -6.99316 0.62459 0
M  V30 77 H 8.8965 -2.59336 1.46796 0
M  V30 78 H 6.4335 -1.27431 0.734836 0
M  V30 79 H 8.3915 -4.1459 -0.465965 0
M  V30 80 H 7.0215 -3.09604 -0.913529 0
M  V30 81 H 6.0735 -3.50803 1.4711 0
M  V30 82 H 7.3855 -4.6803 1.72479 0
M  V30 83 H 6.5395 -6.06428 -0.18151 0
M  V30 84 H 5.2785 -4.8481 -0.530163 0
M  V30 85 H 4.2835 -5.21355 1.74554 0
M  V30 86 H 5.5085 -6.46298 2.08509 0
M  V30 87 H 3.4545 -6.55812 -0.156914 0
M  V30 88 H 3.3715 -7.44178 1.33172 0
M  V30 89 H 4.6395 -7.79255 0.195462 0
M  V30 90 N 8.8686 -0.792821 -1.36206 0
M  V30 91 C 9.7986 -0.207853 -2.32573 0
M  V30 92 C 10.7796 0.659055 -1.56813 0
M  V30 93 O 11.9646 0.592176 -1.84951 0
M  V30 94 C 9.0946 0.655449 -3.41059 0
M  V30 95 C 8.0486 -0.111842 -4.27854 0
M  V30 96 C 7.3746 0.872274 -5.27537 0
M  V30 97 C 8.6746 -1.30299 -5.05786 0
M  V30 98 H 10.3686 -1.01294 -2.81744 0
M  V30 99 H 7.9146 -0.48854 -1.3546 0
M  V30 100 H 9.8676 1.07464 -4.07467 0
M  V30 101 H 8.5916 1.49328 -2.90463 0
M  V30 102 H 7.2506 -0.512053 -3.63006 0
M  V30 103 H 6.8986 1.70523 -4.73214 0
M  V30 104 H 6.5986 0.363291 -5.86476 0
M  V30 105 H 8.1226 1.28996 -5.96818 0
M  V30 106 H 9.5366 -0.959379 -5.65216 0
M  V30 107 H 7.9336 -1.7455 -5.74154 0
M  V30 108 H 9.0036 -2.09663 -4.37229 0
M  V30 109 N 10.3467 1.47872 -0.545128 0
M  V30 110 C 11.7577 1.86384 -0.108581 0
M  V30 111 C 12.1087 1.45309 1.31832 0
M  V30 112 O 11.2337 0.850641 1.9898 0
M  V30 113 C 11.8287 3.38265 -0.190274 0
M  V30 114 C 10.3877 3.75914 0.191164 0
M  V30 115 C 9.5347 2.71926 -0.543273 0
M  V30 116 H 12.4857 1.39561 -0.755537 0
M  V30 117 H 12.5067 3.75831 0.594217 0
M  V30 118 H 12.0187 3.6813 -1.2289 0
M  V30 119 H 10.1197 3.51665 1.23136 0
M  V30 120 H 10.2327 4.78836 -0.158987 0
M  V30 121 H 8.5967 2.54697 0.0122495 0
M  V30 122 H 9.3797 3.04634 -1.58282 0
M  V30 123 N 11.8248 0.280983 1.55075 0
M  V30 124 C 13.0728 -0.333455 1.9933 0
M  V30 125 C 13.3938 -1.55937 1.17085 0
M  V30 126 O 12.6638 -1.94143 0.261805 0
M  V30 127 H 11.2438 -0.126197 0.736263 0
M  V30 128 H 13.9058 0.387678 1.91005 0
M  V30 129 H 13.0018 -0.619292 3.05894 0
M  V30 130 N 13.3029 -1.57598 0.00835791 0
M  V30 131 C 14.5499 -1.90928 -0.674732 0
M  V30 132 C 14.8779 -0.88277 -1.73313 0
M  V30 133 O 14.1329 0.111294 -1.95383 0
M  V30 134 C 14.4319 -3.3101 -1.34787 0
M  V30 135 C 14.0979 -4.48922 -0.421861 0
M  V30 136 C 12.7599 -4.8091 -0.166927 0
M  V30 137 C 15.1119 -5.20755 0.215211 0
M  V30 138 C 12.4399 -5.821 0.733232 0
M  V30 139 C 14.7919 -6.22905 1.1033 0
M  V30 140 C 13.4559 -6.53346 1.36733 0
M  V30 141 H 12.7259 -0.698656 -0.246902 0
M  V30 142 H 15.3729 -1.91387 0.0656779 0
M  V30 143 H 13.6779 -3.26714 -2.16253 0
M  V30 144 H 15.3749 -3.54061 -1.8826 0
M  V30 145 H 11.9649 -4.23934 -0.630729 0
M  V30 146 H 16.1489 -4.9629 0.0312829 0
M  V30 147 H 11.4049 -6.04042 0.945712 0
M  V30 148 H 15.5789 -6.77694 1.60325 0
M  V30 149 H 13.2059 -7.31573 2.06652 0
M  V30 150 N 14.781 0.264519 -1.55364 0
M  V30 151 C 15.744 1.31046 -1.88042 0
M  V30 152 C 16.744 1.41943 -0.755569 0
M  V30 153 O 17.934 1.40947 -1.02369 0
M  V30 154 C 15.066 2.69067 -2.09323 0
M  V30 155 H 16.259 1.03297 -2.81549 0
M  V30 156 H 13.812 0.502989 -1.47986 0
M  V30 157 H 14.547 3.01982 -1.18226 0
M  V30 158 H 14.332 2.62542 -2.91229 0
M  V30 159 H 15.822 3.44623 -2.35848 0
M  V30 160 N 16.2591 1.48442 0.529413 0
M  V30 161 C 17.4871 1.60151 1.30994 0
M  V30 162 C 17.9021 0.261985 1.86973 0
M  V30 163 O 17.2591 -0.748805 1.66431 0
M  V30 164 C 17.3101 2.64854 2.46038 0
M  V30 165 O 17.0311 3.93608 1.92365 0
M  V30 166 C 18.5321 2.87007 3.37849 0
M  V30 167 H 15.7521 0.539971 0.398338 0
M  V30 168 H 18.2961 1.94273 0.638597 0
M  V30 169 H 16.4511 2.33589 3.09055 0
M  V30 170 H 16.8651 4.51055 2.67675 0
M  V30 171 H 18.3391 3.64068 4.14919 0
M  V30 172 H 18.8161 1.95852 3.93114 0
M  V30 173 H 19.4221 3.19579 2.80623 0
M  V30 174 N 17.7372 -0.778329 1.37039 0
M  V30 175 C 19.1532 -1.07796 1.17695 0
M  V30 176 C 19.3532 -2.01498 0.00860115 0
M  V30 177 O 18.4092 -2.43901 -0.653352 0
M  V30 178 C 19.7222 -1.68178 2.49272 0
M  V30 179 C 21.2702 -1.80467 2.55735 0
M  V30 180 C 21.7452 -2.44263 3.87427 0
M  V30 181 N 23.2362 -2.51721 3.88833 0
M  V30 182 C 23.9712 -3.01919 4.87476 0
M  V30 183 N 23.4672 -3.5234 5.96513 0
M  V30 184 N 25.2602 -3.00733 4.74885 0
M  V30 185 H 17.4112 -0.156032 2.11826 0
M  V30 186 H 19.6742 -0.131844 0.938787 0
M  V30 187 H 19.3802 -1.06796 3.35093 0
M  V30 188 H 19.2542 -2.67554 2.65885 0
M  V30 189 H 21.6412 -2.40984 1.70325 0
M  V30 190 H 21.7222 -0.798656 2.43013 0
M  V30 191 H 21.3662 -1.84388 4.73248 0
M  V30 192 H 21.2962 -3.45458 3.9745 0
M  V30 193 H 23.7872 -2.1603 3.10063 0
M  V30 194 H 24.1002 -3.89027 6.67741 0
M  V30 195 H 22.4452 -3.50462 6.00168 0
M  V30 196 H 25.6362 -2.60638 3.88826 0
M  V30 197 H 25.8092 -3.39545 5.51918 0
M  V30 198 N 19.2153 -1.21501 -1.00376 0
M  V30 199 C 20.1783 -0.976927 -2.07337 0
M  V30 200 C 21.1783 0.0525322 -1.60714 0
M  V30 201 O 22.3683 -0.184869 -1.73216 0
M  V30 202 C 19.5003 -0.473423 -3.37597 0
M  V30 203 H 20.6933 -1.92587 -2.29892 0
M  V30 204 H 18.2463 -1.03217 -1.17371 0
M  V30 205 H 18.9813 0.480379 -3.20722 0
M  V30 206 H 18.7663 -1.216 -3.72768 0
M  V30 207 H 20.2563 -0.32675 -4.1632 0
M  V30 208 N 20.6934 1.19889 -1.02296 0
M  V30 209 C 21.9424 1.88743 -0.711257 0
M  V30 210 C 22.2554 1.80112 0.762817 0
M  V30 211 O 23.4614 2.44161 1.18733 0
M  V30 212 C 21.9174 3.38525 -1.22185 0
M  V30 213 C 21.5254 3.55727 -2.72328 0
M  V30 214 C 23.2694 4.12893 -0.985864 0
M  V30 215 C 21.1764 4.99369 -3.16835 0
M  V30 216 H 20.1064 0.706885 -0.262353 0
M  V30 217 H 22.7574 1.35586 -1.23648 0
M  V30 218 H 21.1394 3.91044 -0.624571 0
M  V30 219 H 22.3134 3.13564 -3.3766 0
M  V30 220 H 20.6284 2.94739 -2.9414 0
M  V30 221 H 23.2254 5.18813 -1.29374 0
M  V30 222 H 23.5684 4.16228 0.0775055 0
M  V30 223 H 24.1014 3.66494 -1.54684 0
M  V30 224 H 20.8404 5.01193 -4.22476 0
M  V30 225 H 20.3604 5.42317 -2.56228 0
M  V30 226 H 22.0394 5.67988 -3.09837 0
M  V30 227 N 22.1715 0.800033 1.35784 0
M  V30 228 C 23.1215 0.178654 2.27299 0
M  V30 229 C 24.1055 -0.643667 1.47464 0
M  V30 230 O 25.2975 -0.502 1.69732 0
M  V30 231 C 22.4265 -0.677194 3.36555 0
M  V30 232 C 21.5125 0.154497 4.23818 0
M  V30 233 N 21.9035 1.21427 4.91008 0
M  V30 234 C 20.2015 -0.0649462 4.45953 0
M  V30 235 C 20.9025 1.72147 5.55644 0
M  V30 236 N 19.8785 1.02897 5.33773 0
M  V30 237 H 23.6805 0.989637 2.76737 0
M  V30 238 H 21.1945 0.64054 1.49234 0
M  V30 239 H 23.1915 -1.13835 4.01058 0
M  V30 240 H 21.8515 -1.4866 2.8867 0
M  V30 241 H 22.8625 1.59684 4.92668 0
M  V30 242 H 19.5395 -0.844016 4.0888 0
M  V30 243 H 20.9295 2.60683 6.19269 0
M  V30 244 N 23.6496 -1.47581 0.552962 0
M  V30 245 C 24.5996 -2.26961 -0.217423 0
M  V30 246 C 25.5836 -1.34099 -0.889168 0
M  V30 247 O 26.7756 -1.58483 -0.788176 0
M  V30 248 C 23.9046 -3.19756 -1.24944 0
M  V30 249 C 22.9906 -4.20097 -0.581327 0
M  V30 250 N 23.3816 -5.04614 0.346171 0
M  V30 251 C 21.6796 -4.38099 -0.835767 0
M  V30 252 C 22.3806 -5.77052 0.733854 0
M  V30 253 N 21.3566 -5.43526 0.0896567 0
M  V30 254 H 25.1586 -2.89688 0.495761 0
M  V30 255 H 22.6726 -1.58068 0.372597 0
M  V30 256 H 24.6696 -3.75305 -1.81527 0
M  V30 257 H 23.3296 -2.58585 -1.96376 0
M  V30 258 H 24.3406 -5.12869 0.720098 0
M  V30 259 H 21.0176 -3.88102 -1.53892 0
M  V30 260 H 22.4076 -6.5504 1.49574 0
M  V30 261 N 25.1277 -0.289203 -1.54924 0
M  V30 262 C 26.3757 0.322879 -1.99504 0
M  V30 263 C 26.6967 1.55313 -1.1791 0
M  V30 264 O 25.9667 1.94001 -0.272097 0
M  V30 265 H 24.5467 0.122291 -0.736922 0
M  V30 266 H 27.2087 -0.397802 -1.90797 0
M  V30 267 H 26.3047 0.603061 -3.06218 0
M  V30 268 N 26.6058 1.57591 -0.0167156 0
M  V30 269 C 27.8358 1.95292 0.674149 0
M  V30 270 C 28.2438 0.891097 1.66901 0
M  V30 271 O 27.5868 -0.136908 1.83189 0
M  V30 272 C 27.6488 3.29072 1.44747 0
M  V30 273 C 27.3128 4.52879 0.612331 0
M  V30 274 C 28.3098 5.1979 -0.107126 0
M  V30 275 C 25.9948 4.99242 0.553381 0
M  V30 276 C 27.9888 6.31375 -0.874339 0
M  V30 277 C 25.6758 6.10713 -0.217546 0
M  V30 278 C 26.6738 6.76637 -0.930123 0
M  V30 279 O 26.3618 7.85969 -1.68844 0
M  V30 280 H 26.0938 0.648275 0.191615 0
M  V30 281 H 28.6478 2.05284 -0.0690148 0
M  V30 282 H 26.8778 3.15535 2.2355 0
M  V30 283 H 28.5668 3.51764 2.02526 0
M  V30 284 H 29.3328 4.84948 -0.0708392 0
M  V30 285 H 25.2118 4.47744 1.09757 0
M  V30 286 H 28.7558 6.82764 -1.43106 0
M  V30 287 H 24.6528 6.44994 -0.255593 0
M  V30 288 H 25.4208 8.02571 -1.6069 0
M  V30 289 N 28.0839 -0.256276 1.55502 0
M  V30 290 C 29.3609 -1.00789 1.67633 0
M  V30 291 C 29.7409 -2.03706 0.553826 0
M  V30 292 O 29.0889 -2.24145 -0.443969 0
M  V30 293 C 29.2989 -1.64968 3.07549 0
M  V30 294 C 30.6469 -2.15505 3.65845 0
M  V30 295 O 31.6709 -1.74925 3.1029 0
M  V30 296 O 30.5299 -2.89986 4.63217 0
M  V30 297 H 27.6239 -0.468553 0.681459 0
M  V30 298 H 30.1699 -0.250806 1.67836 0
M  V30 299 H 28.9419 -0.904785 3.80696 0
M  V30 300 H 28.5649 -2.47321 3.11317 0
M  V30 301 N 29.562 -1.4872 -0.521534 0
M  V30 302 C 30.973 -1.50607 -1.10337 0
M  V30 303 C 31.324 -0.280612 -1.94183 0
M  V30 304 O 30.449 0.611507 -2.0758 0
M  V30 305 C 31.044 -2.72903 -2.00772 0
M  V30 306 C 29.603 -2.77634 -2.54158 0
M  V30 307 C 28.75 -2.44241 -1.31307 0
M  V30 308 H 31.701 -1.55714 -0.306388 0
M  V30 309 H 31.722 -2.519 -2.85178 0
M  V30 310 H 31.234 -3.62077 -1.39721 0
M  V30 311 H 29.335 -1.92689 -3.18907 0
M  V30 312 H 29.448 -3.79283 -2.92714 0
M  V30 313 H 27.812 -1.95577 -1.63161 0
M  V30 314 H 28.595 -3.35666 -0.719943 0
M  V30 315 N 31.0401 0.771051 -1.3745 0
M  V30 316 C 31.9721 1.89352 -1.29146 0
M  V30 317 C 32.9851 1.61477 -0.207124 0
M  V30 318 O 34.1741 1.72382 -0.463324 0
M  V30 319 C 31.2741 3.24596 -0.974195 0
M  V30 320 C 30.4471 3.80111 -2.16413 0
M  V30 321 C 29.5061 4.93832 -1.81703 0
M  V30 322 O 28.5321 5.09382 -2.54006 0
M  V30 323 N 29.7341 5.75483 -0.761573 0
M  V30 324 H 32.4991 1.96991 -2.25864 0
M  V30 325 H 30.0601 0.950191 -1.31084 0
M  V30 326 H 32.0521 3.98193 -0.722828 0
M  V30 327 H 30.6221 3.12454 -0.0955527 0
M  V30 328 H 29.8421 2.98284 -2.57721 0
M  V30 329 H 31.1301 4.13932 -2.95867 0
M  V30 330 H 30.5281 5.65469 -0.161609 0
M  V30 331 H 29.0851 6.49302 -0.570064 0
M  V30 332 N 32.5182 1.22032 0.997298 0
M  V30 333 C 33.7952 0.950823 1.70935 0
M  V30 334 C 34.1752 -0.535292 2.042 0
M  V30 335 O 33.5232 -1.50217 1.72183 0
M  V30 336 C 33.7332 1.84386 2.96315 0
M  V30 337 C 35.0812 2.09732 3.69185 0
M  V30 338 O 36.1052 1.81798 3.06314 0
M  V30 339 O 34.9642 2.57018 4.82291 0
M  V30 340 H 32.0582 0.357204 0.745878 0
M  V30 341 H 34.6042 1.32997 1.05404 0
M  V30 342 H 33.3762 2.84928 2.68201 0
M  V30 343 H 32.9992 1.46602 3.69586 0
M  V30 344 N 33.9963 -1.19345 1.0293 0
M  V30 345 C 34.9463 -2.20472 0.58104 0
M  V30 346 C 35.9303 -1.56578 -0.370442 0
M  V30 347 O 37.1223 -1.75963 -0.191344 0
M  V30 348 C 34.2513 -3.43236 -0.066306 0
M  V30 349 C 33.3373 -4.14274 0.907642 0
M  V30 350 N 33.7283 -4.61492 2.07023 0
M  V30 351 C 32.0263 -4.39966 0.731177 0
M  V30 352 C 32.7273 -5.1605 2.68454 0
M  V30 353 N 31.7033 -5.06875 1.96414 0
M  V30 354 H 35.5053 -2.54659 1.46717 0
M  V30 355 H 33.0193 -1.35423 0.896345 0
M  V30 356 H 35.0163 -4.14927 -0.405068 0
M  V30 357 H 33.6763 -3.10549 -0.948118 0
M  V30 358 H 34.6873 -4.56304 2.44963 0
M  V30 359 H 31.3643 -4.17377 -0.101507 0
M  V30 360 H 32.7543 -5.6287 3.66915 0
M  V30 361 N 35.4744 -0.807222 -1.35358 0
M  V30 362 C 36.7224 -0.387122 -1.98358 0
M  V30 363 C 37.0434 1.04942 -1.64354 0
M  V30 364 O 36.3134 1.72615 -0.926339 0
M  V30 365 H 34.8934 -0.140154 -0.733734 0
M  V30 366 H 37.5554 -1.0332 -1.6526 0
M  V30 367 H 36.6514 -0.493352 -3.08176 0
M  V30 368 N 36.9525 1.47285 -0.560781 0
M  V30 369 C 38.2005 2.02064 -0.0379868 0
M  V30 370 C 38.5215 1.43711 1.31803 0
M  V30 371 O 37.7915 0.61362 1.86042 0
M  V30 372 H 36.3715 0.746918 -0.0110531 0
M  V30 373 H 39.0335 1.80648 -0.731598 0
M  V30 374 H 38.1295 3.12064 0.0474463 0
M  V30 375 N 38.4306 0.297415 1.54768 0
M  V30 376 C 39.3936 -0.567375 2.22066 0
M  V30 377 C 40.3936 -1.06409 1.20556 0
M  V30 378 O 41.5836 -0.960691 1.45315 0
M  V30 379 C 38.7156 -1.78517 2.90421 0
M  V30 380 H 39.9086 0.0205534 2.99893 0
M  V30 381 H 37.4616 0.0482163 1.56226 0
M  V30 382 H 38.1966 -2.41303 2.16664 0
M  V30 383 H 37.9816 -1.43669 3.64831 0
M  V30 384 H 39.4716 -2.39964 3.41771 0
M  V30 385 N 39.9087 -1.5758 0.0250728 0
M  V30 386 C 40.8387 -2.13007 -0.956575 0
M  V30 387 C 41.8197 -1.0452 -1.342 0
M  V30 388 O 43.0047 -1.32332 -1.42133 0
M  V30 389 C 40.1347 -2.65386 -2.24026 0
M  V30 390 C 39.0887 -3.78623 -1.99571 0
M  V30 391 C 38.4147 -4.17414 -3.3417 0
M  V30 392 C 39.7147 -5.04867 -1.33814 0
M  V30 393 H 41.4087 -2.9528 -0.494991 0
M  V30 394 H 38.9547 -1.42042 -0.236651 0
M  V30 395 H 40.9077 -3.02794 -2.93076 0
M  V30 396 H 39.6317 -1.80268 -2.72343 0
M  V30 397 H 38.2907 -3.41646 -1.32941 0
M  V30 398 H 37.9387 -3.29284 -3.80238 0
M  V30 399 H 37.6387 -4.93719 -3.18615 0
M  V30 400 H 39.1627 -4.57402 -4.04495 0
M  V30 401 H 40.5767 -5.39888 -1.92857 0
M  V30 402 H 38.9737 -5.86144 -1.28669 0
M  V30 403 H 40.0437 -4.83904 -0.310561 0
M  V30 404 N 41.3868 0.248026 -1.55636 0
M  V30 405 C 42.6328 0.97767 -1.77678 0
M  V30 406 C 42.9658 1.85016 -0.590135 0
M  V30 407 O 42.2408 1.90095 0.411611 0
M  V30 408 C 42.5238 1.83914 -3.09593 0
M  V30 409 C 42.3768 0.99491 -4.38659 0
M  V30 410 C 43.6958 2.82183 -3.37729 0
M  V30 411 H 40.8148 0.354005 -0.646413 0
M  V30 412 H 43.4568 0.248253 -1.88371 0
M  V30 413 H 41.6068 2.46104 -3.00608 0
M  V30 414 H 43.2788 0.391789 -4.59633 0
M  V30 415 H 41.5218 0.299231 -4.32767 0
M  V30 416 H 42.1928 1.63145 -5.2734 0
M  V30 417 H 44.6688 2.30129 -3.4667 0
M  V30 418 H 43.5448 3.39582 -4.31249 0
M  V30 419 H 43.8058 3.58588 -2.58586 0
M  V30 420 N 42.8649 1.48995 0.513639 0
M  V30 421 C 44.2759 1.5119 1.09537 0
M  V30 422 C 44.6269 0.290906 1.94031 0
M  V30 423 O 43.7519 -0.60049 2.07902 0
M  V30 424 C 44.3469 2.73964 1.99322 0
M  V30 425 C 42.9059 2.78978 2.52682 0
M  V30 426 C 42.0529 2.44934 1.30009 0
M  V30 427 H 45.0039 1.55875 0.298125 0
M  V30 428 H 45.0249 2.53409 2.83838 0
M  V30 429 H 44.5369 3.62813 1.37799 0
M  V30 430 H 42.6379 1.94378 3.1788 0
M  V30 431 H 42.7509 3.8083 2.90698 0
M  V30 432 H 41.1149 1.9644 1.62122 0
M  V30 433 H 41.8979 3.36043 0.702131 0
M  V30 434 N 44.343 -0.763751 1.37857 0
M  V30 435 C 45.754 -1.3405 1.29952 0
M  V30 436 C 46.105 -1.96138 -0.0492898 0
M  V30 437 O 45.23 -1.94372 -0.951239 0
M  V30 438 C 45.825 -2.43729 2.35333 0
M  V30 439 C 44.384 -2.97151 2.31037 0
M  V30 440 C 43.531 -1.70438 2.18738 0
M  V30 441 H 46.482 -0.563396 1.48363 0
M  V30 442 H 46.503 -3.23412 2.00462 0
M  V30 443 H 46.015 -1.9851 3.33489 0
M  V30 444 H 44.116 -3.46724 1.3643 0
M  V30 445 H 44.229 -3.52221 3.24772 0
M  V30 446 H 42.593 -1.93673 1.65418 0
M  V30 447 H 43.376 -1.27312 3.18821 0
M  V30 448 N 45.8211 -1.22559 -0.990812 0
M  V30 449 C 47.0671 -1.05297 -1.73322 0
M  V30 450 C 47.4001 0.410655 -1.89808 0
M  V30 451 O 46.6751 1.30439 -1.44277 0
M  V30 452 C 46.9581 -1.76713 -3.13759 0
M  V30 453 C 46.8111 -3.30684 -3.04907 0
M  V30 454 C 48.1301 -1.52121 -4.12974 0
M  V30 455 H 45.2491 -0.38392 -0.629106 0
M  V30 456 H 47.8911 -1.50926 -1.15418 0
M  V30 457 H 46.0411 -1.37924 -3.63193 0
M  V30 458 H 47.7131 -3.7893 -2.63077 0
M  V30 459 H 45.9561 -3.60253 -2.41661 0
M  V30 460 H 46.6271 -3.75833 -4.04294 0
M  V30 461 H 49.1031 -1.85819 -3.72304 0
M  V30 462 H 47.9791 -2.04582 -5.0935 0
M  V30 463 H 48.2401 -0.454257 -4.3976 0
M  V30 464 N 47.2992 1.18797 -1.03562 0
M  V30 465 C 48.5292 1.92319 -0.754773 0
M  V30 466 C 48.9372 1.7612 0.691248 0
M  V30 467 O 48.2802 1.08491 1.48241 0
M  V30 468 C 48.3422 3.44284 -1.03484 0
M  V30 469 C 48.0062 3.84258 -2.47376 0
M  V30 470 C 49.0032 3.88459 -3.45537 0
M  V30 471 C 46.6882 4.15701 -2.81954 0
M  V30 472 C 48.6822 4.23545 -4.76328 0
M  V30 473 C 46.3692 4.50458 -4.12954 0
M  V30 474 C 47.3672 4.54356 -5.09951 0
M  V30 475 O 47.0552 4.88305 -6.38603 0
M  V30 476 H 46.7872 0.617527 -0.275021 0
M  V30 477 H 49.3412 1.51683 -1.38497 0
M  V30 478 H 47.5712 3.85135 -0.347513 0
M  V30 479 H 49.2602 3.99049 -0.7426 0
M  V30 480 H 50.0262 3.6431 -3.20162 0
M  V30 481 H 45.9052 4.11847 -2.0713 0
M  V30 482 H 49.4492 4.26502 -5.52035 0
M  V30 483 H 45.3462 4.74067 -4.38099 0
M  V30 484 H 46.1142 5.06227 -6.43177 0
M  V30 485 N 48.7773 0.814389 1.34928 0
M  V30 486 C 49.7093 0.187834 2.28429 0
M  V30 487 C 50.7223 -0.617374 1.5064 0
M  V30 488 O 51.9113 -0.448454 1.72775 0
M  V30 489 C 49.0113 -0.755962 3.30361 0
M  V30 490 C 48.1843 0.00456686 4.374 0
M  V30 491 C 47.2433 -0.858876 5.19143 0
M  V30 492 O 46.2693 -0.306968 5.68372 0
M  V30 493 N 47.4713 -2.17988 5.38016 0
M  V30 494 H 50.2363 0.991105 2.82838 0
M  V30 495 H 47.7973 0.670561 1.4736 0
M  V30 496 H 49.7893 -1.338 3.81942 0
M  V30 497 H 48.3593 -1.46001 2.7641 0
M  V30 498 H 47.5793 0.767865 3.86649 0
M  V30 499 H 48.8673 0.528422 5.06049 0
M  V30 500 H 48.2653 -2.65212 4.99679 0
M  V30 501 H 46.8223 -2.71098 5.92747 0
M  V30 502 N 50.2554 -1.46986 0.568584 0
M  V30 503 C 51.4834 -2.0683 0.0539956 0
M  V30 504 C 51.8984 -1.41953 -1.24478 0
M  V30 505 O 51.2554 -0.519933 -1.74937 0
M  V30 506 C 51.3064 -3.61254 -0.133362 0
M  V30 507 O 51.0274 -4.237 1.11399 0
M  V30 508 C 52.5284 -4.37992 -0.683927 0
M  V30 509 H 49.7484 -0.669058 0.0510141 0
M  V30 510 H 52.2924 -1.88824 0.785234 0
M  V30 511 H 50.4474 -3.78735 -0.81477 0
M  V30 512 H 50.8614 -5.16388 0.91888 0
M  V30 513 H 52.3354 -5.46684 -0.764263 0
M  V30 514 H 52.8124 -4.05058 -1.69778 0
M  V30 515 H 53.4184 -4.25283 -0.0378494 0
M  V30 516 N 51.7335 -0.305618 -1.54608 0
M  V30 517 C 52.6965 0.555591 -2.22364 0
M  V30 518 C 53.6965 1.05768 -1.21119 0
M  V30 519 O 54.8865 0.952972 -1.45822 0
M  V30 520 C 52.0185 1.76974 -2.91364 0
M  V30 521 H 53.2115 -0.0364572 -2.99878 0
M  V30 522 H 50.7645 -0.0565007 -1.56198 0
M  V30 523 H 51.4995 2.40151 -2.17941 0
M  V30 524 H 51.2845 1.41732 -3.65588 0
M  V30 525 H 52.7745 2.38148 -3.43038 0
M  V30 526 N 53.2116 1.57565 -0.0334293 0
M  V30 527 C 54.4396 1.9628 0.654347 0
M  V30 528 C 54.8546 0.910138 1.65414 0
M  V30 529 O 54.2116 -0.107595 1.82183 0
M  V30 530 C 54.2626 3.35067 1.35693 0
M  V30 531 O 53.9836 4.36296 0.397191 0
M  V30 532 C 55.4846 3.88439 2.13613 0
M  V30 533 H 52.7046 0.646369 0.180132 0
M  V30 534 H 55.2486 2.04282 -0.0944721 0
M  V30 535 H 53.4036 3.2827 2.05712 0
M  V30 536 H 53.8176 5.1678 0.896597 0
M  V30 537 H 55.2916 4.8788 2.58219 0
M  V30 538 H 55.7686 3.22914 2.97696 0
M  V30 539 H 56.3746 3.98516 1.48543 0
M  V30 540 N 54.6897 -0.239769 1.55765 0
M  V30 541 C 55.9367 -0.966801 1.7793 0
M  V30 542 C 56.2647 -1.85046 0.599015 0
M  V30 543 O 55.5197 -1.91197 -0.417395 0
M  V30 544 C 55.8187 -1.852 3.05672 0
M  V30 545 C 55.4847 -1.1231 4.36689 0
M  V30 546 C 54.1467 -0.921689 4.72291 0
M  V30 547 C 56.4987 -0.607019 5.17653 0
M  V30 548 C 53.8267 -0.191996 5.86386 0
M  V30 549 C 56.1787 0.109241 6.32506 0
M  V30 550 C 54.8427 0.322073 6.66723 0
M  V30 551 H 54.1127 -0.353778 0.651093 0
M  V30 552 H 56.7597 -0.23634 1.90036 0
M  V30 553 H 55.0647 -2.64975 2.8861 0
M  V30 554 H 56.7617 -2.41635 3.20021 0
M  V30 555 H 53.3517 -1.29004 4.08725 0
M  V30 556 H 57.5357 -0.750153 4.90598 0
M  V30 557 H 52.7917 -0.0166949 6.11398 0
M  V30 558 H 56.9657 0.516737 6.9448 0
M  V30 559 H 54.5927 0.88944 7.54979 0
M  V30 560 N 56.1678 -1.49265 -0.50573 0
M  V30 561 C 57.3958 -1.62215 -1.28429 0
M  V30 562 C 57.8108 -0.291697 -1.86533 0
M  V30 563 O 57.1678 0.722233 -1.67601 0
M  V30 564 C 57.2188 -2.68735 -2.41793 0
M  V30 565 O 56.9398 -3.96619 -1.86078 0
M  V30 566 C 58.4408 -2.92346 -3.3324 0
M  V30 567 H 55.6608 -0.546239 -0.389697 0
M  V30 568 H 58.2048 -1.95265 -0.607609 0
M  V30 569 H 56.3598 -2.38476 -3.053 0
M  V30 570 H 56.7738 -4.55256 -2.60465 0
M  V30 571 H 58.2478 -3.70623 -4.09075 0
M  V30 572 H 58.7248 -2.02081 -3.89948 0
M  V30 573 H 59.3308 -3.24003 -2.75503 0
M  V30 574 N 57.6459 0.756429 -1.3826 0
M  V30 575 C 58.8929 1.51547 -1.34312 0
M  V30 576 C 59.2209 1.94382 0.0677144 0
M  V30 577 O 58.4759 1.65514 1.04421 0
M  V30 578 C 58.7749 2.78313 -2.24224 0
M  V30 579 C 58.4409 2.54455 -3.72241 0
M  V30 580 C 57.1029 2.47657 -4.12576 0
M  V30 581 C 59.4549 2.3354 -4.65949 0
M  V30 582 C 56.7829 2.17956 -5.44713 0
M  V30 583 C 59.1349 2.05359 -5.9834 0
M  V30 584 C 57.7989 1.97016 -6.37762 0
M  V30 585 H 57.0689 0.55455 -0.491482 0
M  V30 586 H 59.7159 0.870039 -1.70595 0
M  V30 587 H 58.0209 3.47492 -1.80987 0
M  V30 588 H 59.7179 3.36259 -2.18474 0
M  V30 589 H 56.3079 2.60616 -3.40261 0
M  V30 590 H 60.4919 2.37772 -4.35635 0
M  V30 591 H 55.7479 2.10003 -5.74203 0
M  V30 592 H 59.9219 1.88179 -6.70494 0
M  V30 593 H 57.5489 1.73766 -7.40074 0
M  V30 594 N 59.124 1.23083 0.984299 0
M  V30 595 C 60.535 1.05609 1.5396 0
M  V30 596 C 60.886 -0.377793 1.92528 0
M  V30 597 O 60.011 -1.26398 1.75649 0
M  V30 598 C 60.606 1.91087 2.7977 0
M  V30 599 C 59.165 1.77885 3.31713 0
M  V30 600 C 58.312 1.87028 2.04733 0
M  V30 601 H 61.263 1.36802 0.804419 0
M  V30 602 H 61.284 1.43336 3.5247 0
M  V30 603 H 60.796 2.9544 2.51668 0
M  V30 604 H 58.897 0.762995 3.64704 0
M  V30 605 H 59.01 2.61047 4.01735 0
M  V30 606 H 57.374 1.30565 2.18689 0
M  V30 607 H 58.157 2.92929 1.79017 0
M  V30 608 N 60.6021 -1.18246 1.0419 0
M  V30 609 C 61.8301 -1.92195 0.766072 0
M  V30 610 C 62.2451 -1.76247 -0.676933 0
M  V30 611 O 61.6021 -1.09293 -1.46155 0
M  V30 612 C 61.6531 -3.43568 1.12442 0
M  V30 613 O 61.3741 -3.59015 2.51078 0
M  V30 614 C 62.8751 -4.34613 0.873275 0
M  V30 615 H 60.0951 -0.610114 0.279288 0
M  V30 616 H 62.6391 -1.50007 1.38989 0
M  V30 617 H 60.7941 -3.8354 0.545542 0
M  V30 618 H 61.2081 -4.5273 2.64831 0
M  V30 619 H 62.6821 -5.39374 1.17385 0
M  V30 620 H 63.1591 -4.38781 -0.191909 0
M  V30 621 H 63.7651 -4.00341 1.43551 0
M  V30 622 N 62.0802 -0.821533 -1.34494 0
M  V30 623 C 63.3262 -0.409552 -1.98622 0
M  V30 624 C 63.6592 1.0244 -1.64984 0
M  V30 625 O 62.9342 1.71325 -0.920758 0
M  V30 626 C 63.2172 -0.610458 -3.54888 0
M  V30 627 C 63.0702 -2.09043 -3.98273 0
M  V30 628 C 64.3892 -0.0455379 -4.40076 0
M  V30 629 H 61.5082 -0.15028 -0.721516 0
M  V30 630 H 64.1502 -1.03384 -1.59411 0
M  V30 631 H 62.3002 -0.079044 -3.8842 0
M  V30 632 H 63.9722 -2.68537 -3.75081 0
M  V30 633 H 62.2152 -2.58139 -3.48635 0
M  V30 634 H 62.8862 -2.18182 -5.07051 0
M  V30 635 H 65.3622 -0.499557 -4.1309 0
M  V30 636 H 64.2382 -0.215922 -5.48475 0
M  V30 637 H 64.4992 1.04939 -4.29465 0
M  V30 638 N 63.5583 1.46682 -0.576371 0
M  V30 639 C 64.4683 2.34032 0.163141 0
M  V30 640 C 65.4843 1.49367 0.892501 0
M  V30 641 O 66.6603 1.82252 0.857106 0
M  V30 642 C 63.7253 3.26435 1.16795 0
M  V30 643 C 62.7863 4.26998 0.443944 0
M  V30 644 C 62.0193 5.14986 1.40088 0
M  V30 645 O 62.2423 5.05785 2.637 0
M  V30 646 O 61.1763 5.94906 0.914917 0
M  V30 647 H 65.0023 2.98607 -0.55388 0
M  V30 648 H 62.5873 1.45554 -0.336821 0
M  V30 649 H 64.4693 3.83459 1.74748 0
M  V30 650 H 63.1443 2.64465 1.86655 0
M  V30 651 H 62.0513 3.7368 -0.177271 0
M  V30 652 H 63.3843 4.91736 -0.213566 0
M  V30 653 N 65.0364 0.313813 1.54444 0
M  V30 654 C 66.2664 -0.293491 2.04505 0
M  V30 655 C 66.6744 -1.47086 1.19005 0
M  V30 656 O 66.0174 -1.82481 0.211257 0
M  V30 657 C 66.0794 -0.800455 3.50475 0
M  V30 658 C 65.7434 0.253322 4.56297 0
M  V30 659 C 66.7404 1.08612 5.08428 0
M  V30 660 C 64.4254 0.398708 5.00715 0
M  V30 661 C 66.4194 2.05013 6.0353 0
M  V30 662 C 64.1064 1.36614 5.95634 0
M  V30 663 C 65.1044 2.19033 6.46926 0
M  V30 664 O 64.7924 3.14134 7.39983 0
M  V30 665 H 64.5244 -0.0658325 0.672787 0
M  V30 666 H 67.0784 0.455177 2.00293 0
M  V30 667 H 65.3084 -1.59987 3.52053 0
M  V30 668 H 66.9974 -1.32504 3.83663 0
M  V30 669 H 67.7634 0.984736 4.74898 0
M  V30 670 H 63.6424 -0.23289 4.60411 0
M  V30 671 H 67.1864 2.69382 6.4349 0
M  V30 672 H 63.0834 1.4682 6.28581 0
M  V30 673 H 63.8514 3.0926 7.57826 0
M  V30 674 N 66.5145 -1.57545 0.0417849 0
M  V30 675 C 67.7625 -1.91937 -0.632829 0
M  V30 676 C 68.0835 -0.919978 -1.71934 0
M  V30 677 O 67.3535 0.0366064 -1.95866 0
M  V30 678 H 65.9335 -0.708493 -0.236742 0
M  V30 679 H 68.5955 -1.9468 0.0925745 0
M  V30 680 H 67.6915 -2.92912 -1.07746 0
M  V30 681 N 67.9926 0.231505 -1.5589 0
M  V30 682 C 68.9556 1.27028 -1.90779 0
M  V30 683 C 69.9556 1.40308 -0.785507 0
M  V30 684 O 71.1456 1.38744 -1.05336 0
M  V30 685 C 68.2776 2.64566 -2.14983 0
M  V30 686 H 69.4706 0.973017 -2.83677 0
M  V30 687 H 67.0236 0.471486 -1.49019 0
M  V30 688 H 67.7586 2.99406 -1.24604 0
M  V30 689 H 67.5436 2.56305 -2.96732 0
M  V30 690 H 69.0336 3.39543 -2.43105 0
M  V30 691 N 69.4707 1.49531 0.497807 0
M  V30 692 C 70.4337 1.65916 1.58128 0
M  V30 693 C 71.4337 0.530825 1.51786 0
M  V30 694 O 72.6237 0.797342 1.54881 0
M  V30 695 C 69.7557 1.65951 2.9778 0
M  V30 696 H 70.9487 2.62556 1.44929 0
M  V30 697 H 68.5017 1.38611 0.722275 0
M  V30 698 H 69.2367 0.709065 3.16453 0
M  V30 699 H 69.0217 2.47897 3.03792 0
M  V30 700 H 70.5117 1.80673 3.76493 0
M  V30 701 N 70.9488 -0.749086 1.3866 0
M  V30 702 C 72.1888 -1.52112 1.36534 0
M  V30 703 C 72.5528 -1.91951 -0.0432316 0
M  V30 704 O 73.7538 -2.68132 -0.189396 0
M  V30 705 C 72.0248 -2.73704 2.29828 0
M  V30 706 S 73.5838 -3.63519 2.45763 0
M  V30 707 H 70.4018 -0.520482 0.484375 0
M  V30 708 H 73.0038 -0.878963 1.74627 0
M  V30 709 H 71.7078 -2.42552 3.31054 0
M  V30 710 H 71.2388 -3.4286 1.929 0
M  V30 711 H 73.2538 -4.66712 1.68505 0
M  V30 712 N 72.4269 -1.23603 -0.977757 0
M  V30 713 C 73.6739 -1.06971 -1.71941 0
M  V30 714 C 74.0019 0.393009 -1.90488 0
M  V30 715 O 73.2569 1.30719 -1.4564 0
M  V30 716 C 73.5559 -1.7433 -3.11999 0
M  V30 717 C 73.2219 -3.24252 -3.13323 0
M  V30 718 C 71.8839 -3.65156 -3.13392 0
M  V30 719 C 74.2359 -4.20141 -3.08433 0
M  V30 720 C 71.5639 -5.00403 -3.0629 0
M  V30 721 C 73.9159 -5.55384 -3.02873 0
M  V30 722 C 72.5799 -5.95647 -3.01265 0
M  V30 723 H 71.8499 -0.391433 -0.629175 0
M  V30 724 H 74.4969 -1.53572 -1.14403 0
M  V30 725 H 72.8019 -1.20096 -3.7294 0
M  V30 726 H 74.4989 -1.58936 -3.68158 0
M  V30 727 H 71.0889 -2.91692 -3.14029 0
M  V30 728 H 75.2729 -3.89547 -3.07517 0
M  V30 729 H 70.5289 -5.3081 -3.03399 0
M  V30 730 H 74.7029 -6.29398 -2.98046 0
M  V30 731 H 72.3299 -7.0041 -2.95516 0
M  V30 732 N 73.905 1.17692 -1.04816 0
M  V30 733 C 74.868 2.19787 -0.650117 0
M  V30 734 C 75.868 1.58044 0.296427 0
M  V30 735 O 77.058 1.74012 0.0808097 0
M  V30 736 C 74.19 3.40869 0.0456987 0
M  V30 737 H 75.383 2.56516 -1.5537 0
M  V30 738 H 72.936 1.31708 -0.841594 0
M  V30 739 H 73.671 3.09681 0.962726 0
M  V30 740 H 73.456 3.86928 -0.634727 0
M  V30 741 H 74.946 4.16445 0.310432 0
M  V30 742 N 75.3831 0.828654 1.34056 0
M  V30 743 C 76.6311 0.41863 1.97717 0
M  V30 744 C 76.9521 -1.02314 1.66002 0
M  V30 745 O 76.2221 -1.71119 0.953683 0
M  V30 746 H 74.8021 0.151809 0.731412 0
M  V30 747 H 77.4641 1.05936 1.63596 0
M  V30 748 H 76.5601 0.542318 3.07352 0
M  V30 749 N 76.8612 -1.46375 0.584142 0
M  V30 750 C 77.7712 -2.34115 -0.150728 0
M  V30 751 C 78.7872 -1.49838 -0.884567 0
M  V30 752 O 79.9632 -1.82704 -0.847429 0
M  V30 753 C 77.0282 -3.2705 -1.15062 0
M  V30 754 C 76.0892 -4.27228 -0.421293 0
M  V30 755 C 75.3222 -5.15722 -1.37355 0
M  V30 756 O 75.5452 -5.07176 -2.61014 0
M  V30 757 O 74.4792 -5.95383 -0.883355 0
M  V30 758 H 78.3052 -2.98309 0.569708 0
M  V30 759 H 75.8902 -1.45373 0.344535 0
M  V30 760 H 77.7722 -3.84381 -1.72712 0
M  V30 761 H 76.4472 -2.65451 -1.8525 0
M  V30 762 H 75.3542 -3.7358 0.197085 0
M  V30 763 H 76.6872 -4.91616 0.239641 0
M  V30 764 N 78.3393 -0.321999 -1.54275 0
M  V30 765 C 79.2713 0.578671 -2.21775 0
M  V30 766 C 80.2843 1.08109 -1.21722 0
M  V30 767 O 81.4733 0.994938 -1.482 0
M  V30 768 C 78.5733 1.80661 -2.86731 0
M  V30 769 C 77.7463 1.44314 -4.12907 0
M  V30 770 C 76.8053 2.52845 -4.61472 0
M  V30 771 O 75.8313 2.17054 -5.2619 0
M  V30 772 N 77.0333 3.83748 -4.35566 0
M  V30 773 H 79.7983 0.000709447 -2.997 0
M  V30 774 H 77.3593 -0.145132 -1.61248 0
M  V30 775 H 79.3513 2.52655 -3.16145 0
M  V30 776 H 77.9213 2.29245 -2.12521 0
M  V30 777 H 77.1413 0.554906 -3.90275 0
M  V30 778 H 78.4293 1.17598 -4.95023 0
M  V30 779 H 77.8273 4.15625 -3.83761 0
M  V30 780 H 76.3843 4.51977 -4.69638 0
M  V30 781 N 79.8174 1.5752 -0.0501392 0
M  V30 782 C 80.7804 2.1037 0.909786 0
M  V30 783 C 81.7804 1.02308 1.24056 0
M  V30 784 O 82.9704 1.28385 1.17741 0
M  V30 785 C 80.1024 2.58708 2.21998 0
M  V30 786 H 81.2954 2.96479 0.451665 0
M  V30 787 H 78.8484 1.55038 0.198248 0
M  V30 788 H 79.5834 1.75989 2.72394 0
M  V30 789 H 79.3684 3.37675 1.99295 0
M  V30 790 H 80.8584 2.99747 2.9076 0
M  V30 791 N 81.2955 -0.223234 1.56011 0
M  V30 792 C 82.5435 -0.946003 1.78592 0
M  V30 793 C 82.8645 -1.84936 0.618349 0
M  V30 794 O 82.1345 -1.92473 -0.364833 0
M  V30 795 H 80.7145 -0.352298 0.658707 0
M  V30 796 H 83.3765 -0.235494 1.93472 0
M  V30 797 H 82.4725 -1.55381 2.70672 0
M  V30 798 N 82.7736 -1.49793 -0.48987 0
M  V30 799 C 83.7236 -1.63673 -1.5873 0
M  V30 800 C 84.7076 -0.491956 -1.53195 0
M  V30 801 O 85.8996 -0.745461 -1.60536 0
M  V30 802 C 83.0286 -1.71689 -2.97284 0
M  V30 803 C 82.1146 -2.91781 -3.07774 0
M  V30 804 N 82.5056 -4.15714 -2.88124 0
M  V30 805 C 80.8036 -2.89949 -3.38889 0
M  V30 806 C 81.5046 -4.965 -3.03088 0
M  V30 807 N 80.4806 -4.30083 -3.3246 0
M  V30 808 H 84.2826 -2.57204 -1.42208 0
M  V30 809 H 81.7966 -1.46719 -0.69623 0
M  V30 810 H 83.7936 -1.79732 -3.76168 0
M  V30 811 H 82.4536 -0.793024 -3.14867 0
M  V30 812 H 83.4646 -4.45515 -2.64077 0
M  V30 813 H 80.1416 -2.06987 -3.62578 0
M  V30 814 H 81.5316 -6.04991 -2.92294 0
M  V30 815 N 84.2517 0.741722 -1.39055 0
M  V30 816 C 85.4987 1.50114 -1.35912 0
M  V30 817 C 85.8267 1.94443 0.0470937 0
M  V30 818 O 85.0817 1.66612 1.02659 0
M  V30 819 C 85.3807 2.7592 -2.27163 0
M  V30 820 C 85.0467 2.50493 -3.74919 0
M  V30 821 C 83.7087 2.43267 -4.1518 0
M  V30 822 C 86.0607 2.28585 -4.684 0
M  V30 823 C 83.3887 2.12166 -5.46994 0
M  V30 824 C 85.7407 1.99002 -6.00484 0
M  V30 825 C 84.4047 1.90241 -6.39816 0
M  V30 826 H 83.6747 0.549306 -0.497336 0
M  V30 827 H 86.3217 0.851896 -1.71508 0
M  V30 828 H 84.6267 3.45553 -1.84663 0
M  V30 829 H 86.3237 3.33923 -2.22028 0
M  V30 830 H 82.9137 2.56992 -3.43006 0
M  V30 831 H 87.0977 2.33139 -4.38132 0
M  V30 832 H 82.3537 2.03901 -5.76398 0
M  V30 833 H 86.5277 1.81057 -6.72452 0
M  V30 834 H 84.1547 1.65907 -7.41875 0
M  V30 835 N 85.7298 1.2412 0.971189 0
M  V30 836 C 86.9598 1.10415 1.7462 0
M  V30 837 C 87.3678 -0.346462 1.86001 0
M  V30 838 O 86.7108 -1.25104 1.34517 0
M  V30 839 C 86.7728 1.66596 3.18568 0
M  V30 840 C 86.4368 3.15446 3.3067 0
M  V30 841 C 87.4338 4.12636 3.16271 0
M  V30 842 C 85.1188 3.55337 3.55022 0
M  V30 843 C 87.1128 5.47699 3.26044 0
M  V30 844 C 84.7998 4.90542 3.64434 0
M  V30 845 C 85.7978 5.86532 3.49956 0
M  V30 846 O 85.4858 7.19279 3.59017 0
M  V30 847 H 85.2178 0.386616 0.55453 0
M  V30 848 H 87.7718 1.64633 1.22821 0
M  V30 849 H 86.0018 1.06808 3.71657 0
M  V30 850 H 87.6908 1.48232 3.77865 0
M  V30 851 H 88.4568 3.8316 2.97344 0
M  V30 852 H 84.3358 2.8113 3.65359 0
M  V30 853 H 87.8798 6.22603 3.14661 0
M  V30 854 H 83.7768 5.19691 3.82873 0
M  V30 855 H 84.5448 7.27153 3.75754 0
M  V30 856 N 87.2079 -1.17134 1.05439 0
M  V30 857 C 88.4329 -1.91913 0.786396 0
M  V30 858 C 88.8579 -1.7643 -0.652234 0
M  V30 859 O 88.2159 -1.08372 -1.45345 0
M  V30 860 C 88.2639 -3.40921 1.17497 0
M  V30 861 O 87.3679 -4.11244 0.308589 0
M  V30 862 H 86.7089 -0.598215 0.288158 0
M  V30 863 H 89.2389 -1.48457 1.4079 0
M  V30 864 H 89.2489 -3.91668 1.14281 0
M  V30 865 H 87.9239 -3.5151 2.22292 0
M  V30 866 H 86.5009 -3.70731 0.40157 0
M  V30 867 N 88.686 -0.835752 -1.33615 0
M  V30 868 C 90.102 -0.523139 -1.50783 0
M  V30 869 C 90.302 0.950171 -1.77691 0
M  V30 870 O 89.358 1.73411 -1.83534 0
M  V30 871 C 90.671 -1.39378 -2.66448 0
M  V30 872 C 92.219 -1.39223 -2.80332 0
M  V30 873 C 92.694 -2.24765 -3.99055 0
M  V30 874 N 94.185 -2.22458 -4.06284 0
M  V30 875 C 94.92 -2.85386 -4.97336 0
M  V30 876 N 94.416 -3.57354 -5.93523 0
M  V30 877 N 96.209 -2.74872 -4.90308 0
M  V30 878 H 88.36 -1.78952 -1.14411 0
M  V30 879 H 90.623 -0.763297 -0.562212 0
M  V30 880 H 90.329 -2.44061 -2.53234 0
M  V30 881 H 90.203 -1.0676 -3.61776 0
M  V30 882 H 92.59 -0.353136 -2.92979 0
M  V30 883 H 92.671 -1.75846 -1.85773 0
M  V30 884 H 92.315 -3.28732 -3.87167 0
M  V30 885 H 92.245 -1.85485 -4.92852 0
M  V30 886 H 94.736 -1.70119 -3.37443 0
M  V30 887 H 95.049 -4.02584 -6.59656 0
M  V30 888 H 93.394 -3.61461 -5.93608 0
M  V30 889 H 96.585 -2.18213 -4.14126 0
M  V30 890 H 96.758 -3.24199 -5.61069 0
M  V30 891 N 90.1641 1.46063 -0.591896 0
M  V30 892 C 91.4131 2.01547 -0.0786637 0
M  V30 893 C 91.7261 1.46796 1.29268 0
M  V30 894 O 92.9321 1.94157 1.89777 0
M  V30 895 C 91.3881 3.59787 -0.0900024 0
M  V30 896 C 90.9961 4.23534 -1.46023 0
M  V30 897 C 92.7401 4.22895 0.368806 0
M  V30 898 C 90.6471 5.73881 -1.4288 0
M  V30 899 H 89.5771 0.753564 -0.0256388 0
M  V30 900 H 92.2281 1.677 -0.744905 0
M  V30 901 H 90.6101 3.90752 0.642586 0
M  V30 902 H 91.7841 4.04167 -2.21328 0
M  V30 903 H 90.0991 3.72558 -1.85982 0
M  V30 904 H 92.6961 5.33116 0.411258 0
M  V30 905 H 93.0391 3.9247 1.38827 0
M  V30 906 H 93.5721 3.9659 -0.31001 0
M  V30 907 H 90.3111 6.0898 -2.42536 0
M  V30 908 H 89.8311 5.95486 -0.718095 0
M  V30 909 H 91.5101 6.36776 -1.14565 0
M  V30 910 N 91.6422 0.330177 1.54103 0
M  V30 911 C 92.8672 -0.274893 2.0557 0
M  V30 912 C 93.2922 -1.44487 1.20437 0
M  V30 913 O 92.6502 -1.80021 0.214991 0
M  V30 914 C 92.6982 -0.68079 3.54115 0
M  V30 915 O 91.8022 -1.7824 3.71893 0
M  V30 916 H 91.1432 -0.0483849 0.662235 0
M  V30 917 H 93.6732 0.480508 1.98878 0
M  V30 918 H 93.6832 -0.961635 3.96505 0
M  V30 919 H 92.3582 0.174903 4.15532 0
M  V30 920 H 90.9352 -1.49985 3.41407 0
M  V30 921 N 93.1203 -1.57491 0.0584922 0
M  V30 922 C 94.0683 -2.13148 -0.931168 0
M  V30 923 C 95.0623 -1.06507 -1.31729 0
M  V30 924 O 96.2683 -1.24906 -1.29609 0
M  V30 925 H 92.6433 -0.68137 -0.31818 0
M  V30 926 H 94.6143 -2.95187 -0.436707 0
M  V30 927 C 93.3633 -2.69732 -2.19408 0
M  V30 928 H 92.6863 -3.51454 -1.90578 0
M  V30 929 H 94.1263 -3.12287 -2.86798 0
M  V30 930 C 92.5853 -1.63855 -2.94369 0
M  V30 931 O 93.1153 -1.05565 -3.87581 0
M  V30 932 N 91.3213 -1.35202 -2.57233 0
M  V30 933 H 90.8683 -1.82791 -1.81508 0
M  V30 934 H 90.8263 -0.645922 -3.07693 0
M  V30 935 N 94.5984 0.214957 -1.56127 0
M  V30 936 C 96.0094 0.781386 -1.69562 0
M  V30 937 C 96.3604 1.84707 -0.66165 0
M  V30 938 O 95.4854 2.156 0.185927 0
M  V30 939 C 96.0804 1.42411 -3.07416 0
M  V30 940 C 94.6394 1.93786 -3.22683 0
M  V30 941 C 93.7864 0.800438 -2.65496 0
M  V30 942 H 96.7374 -0.00980633 -1.58697 0
M  V30 943 H 96.7584 2.29309 -3.0364 0
M  V30 944 H 96.2704 0.64826 -3.82648 0
M  V30 945 H 94.3714 2.74152 -2.52332 0
M  V30 946 H 94.4844 2.1133 -4.29973 0
M  V30 947 H 92.8484 1.2095 -2.2415 0
M  V30 948 H 93.6314 0.0371471 -3.4328 0
M  V30 949 N 96.0765 1.50051 0.48192 0
M  V30 950 C 97.3045 1.64237 1.25832 0
M  V30 951 C 97.7195 0.321336 1.86045 0
M  V30 952 O 97.0765 -0.695478 1.68729 0
M  V30 953 C 97.1275 2.72548 2.37487 0
M  V30 954 O 96.8485 3.99529 1.79745 0
M  V30 955 C 98.3495 2.9761 3.28547 0
M  V30 956 H 95.5695 0.55237 0.380957 0
M  V30 957 H 98.1135 1.96207 0.576467 0
M  V30 958 H 96.2685 2.43303 3.01467 0
M  V30 959 H 96.6825 4.59342 2.5319 0
M  V30 960 H 98.1565 3.77084 4.03127 0
M  V30 961 H 98.6335 2.0826 3.86684 0
M  V30 962 H 99.2395 3.28345 2.70314 0
M  V30 963 N 97.5546 -0.734337 1.39446 0
M  V30 964 C 98.4846 -1.86155 1.40955 0
M  V30 965 C 99.4656 -1.67898 0.272827 0
M  V30 966 O 100.651 -1.88207 0.478743 0
M  V30 967 C 97.7806 -3.23912 1.25294 0
M  V30 968 C 96.7346 -3.56808 2.36373 0
M  V30 969 C 96.0606 -4.93508 2.058 0
M  V30 970 C 97.3606 -3.59713 3.78687 0
M  V30 971 H 99.0546 -1.8515 2.35287 0
M  V30 972 H 96.6006 -0.889367 1.13253 0
M  V30 973 H 98.5536 -4.02443 1.2497 0
M  V30 974 H 97.2776 -3.25446 0.274308 0
M  V30 975 H 95.9366 -2.80606 2.35914 0
M  V30 976 H 95.5846 -4.91623 1.06374 0
M  V30 977 H 95.2846 -5.16486 2.80208 0
M  V30 978 H 96.8086 -5.74396 2.07128 0
M  V30 979 H 98.2226 -4.2832 3.81071 0
M  V30 980 H 96.6196 -3.94209 4.52459 0
M  V30 981 H 97.6896 -2.59504 4.09617 0
M  V30 982 N 99.0327 -1.24633 -0.964593 0
M  V30 983 C 99.9807 -1.03917 -2.08096 0
M  V30 984 C 100.975 0.0268581 -1.69379 0
M  V30 985 O 102.181 -0.127952 -1.79545 0
M  V30 986 H 98.5557 -0.319044 -0.680966 0
M  V30 987 H 100.527 -1.98581 -2.22729 0
M  V30 988 C 99.2757 -0.663983 -3.41301 0
M  V30 989 H 98.5987 -1.47605 -3.71555 0
M  V30 990 H 100.039 -0.558663 -4.20303 0
M  V30 991 C 98.4977 0.629169 -3.30973 0
M  V30 992 O 99.0277 1.67404 -3.65156 0
M  V30 993 N 97.2337 0.611057 -2.84103 0
M  V30 994 H 96.7807 -0.239593 -2.56483 0
M  V30 995 H 96.7387 1.47647 -2.77575 0
M  V30 996 N 100.511 1.16574 -1.06058 0
M  V30 997 C 101.441 2.23057 -0.690488 0
M  V30 998 C 102.422 1.67141 0.315901 0
M  V30 999 O 103.607 1.93253 0.191556 0
M  V30 1000 C 100.737 3.47222 -0.073625 0
M  V30 1001 C 99.6908 4.16016 -1.00573 0
M  V30 1002 C 99.0168 5.34104 -0.252289 0
M  V30 1003 C 100.317 4.67264 -2.33371 0
M  V30 1004 H 102.011 2.54271 -1.58072 0
M  V30 1005 H 99.5568 1.22218 -0.76149 0
M  V30 1006 H 101.51 4.20939 0.19714 0
M  V30 1007 H 100.234 3.15302 0.85161 0
M  V30 1008 H 98.8928 3.44223 -1.2612 0
M  V30 1009 H 98.5408 4.98437 0.675988 0
M  V30 1010 H 98.2408 5.81072 -0.873455 0
M  V30 1011 H 99.7648 6.10599 0.0109857 0
M  V30 1012 H 101.179 5.32573 -2.12223 0
M  V30 1013 H 99.5758 5.24843 -2.90963 0
M  V30 1014 H 100.646 3.83602 -2.96611 0
M  V30 1015 N 101.989 0.842826 1.3317 0
M  V30 1016 C 102.919 0.294028 2.31641 0
M  V30 1017 C 103.9 -0.600401 1.59151 0
M  V30 1018 O 105.085 -0.523124 1.87022 0
M  V30 1019 C 102.215 -0.528416 3.43257 0
M  V30 1020 C 101.169 0.27056 4.27144 0
M  V30 1021 C 100.495 -0.675881 5.30411 0
M  V30 1022 C 101.795 1.48981 5.00602 0
M  V30 1023 H 103.489 1.11681 2.77791 0
M  V30 1024 H 101.035 0.538478 1.33553 0
M  V30 1025 H 102.988 -0.922674 4.11175 0
M  V30 1026 H 101.712 -1.38445 2.95805 0
M  V30 1027 H 100.371 0.646427 3.60856 0
M  V30 1028 H 100.019 -1.52842 4.79216 0
M  V30 1029 H 99.7189 -0.145374 5.8742 0
M  V30 1030 H 101.243 -1.06757 6.01195 0
M  V30 1031 H 102.657 1.16849 5.61266 0
M  V30 1032 H 101.054 1.95739 5.6728 0
M  V30 1033 H 102.124 2.25746 4.29147 0
M  V30 1034 N 103.467 -1.45747 0.599634 0
M  V30 1035 C 104.377 -2.34262 -0.125888 0
M  V30 1036 C 105.393 -1.50768 -0.868625 0
M  V30 1037 O 106.569 -1.83592 -0.828003 0
M  V30 1038 C 103.634 -3.28252 -1.11587 0
M  V30 1039 C 102.695 -4.27651 -0.375956 0
M  V30 1040 C 101.928 -5.1715 -1.31877 0
M  V30 1041 O 102.151 -5.09916 -2.55621 0
M  V30 1042 O 101.085 -5.96286 -0.820157 0
M  V30 1043 H 104.911 -2.97688 0.601315 0
M  V30 1044 H 102.496 -1.44999 0.359934 0
M  V30 1045 H 104.378 -3.86191 -1.68626 0
M  V30 1046 H 103.053 -2.67401 -1.82424 0
M  V30 1047 H 101.96 -3.7335 0.236698 0
M  V30 1048 H 103.293 -4.91334 0.29177 0
M  V30 1049 N 104.945 -0.338344 -1.53925 0
M  V30 1050 C 105.908 0.508299 -2.23493 0
M  V30 1051 C 106.908 1.03175 -1.23335 0
M  V30 1052 O 108.098 0.921826 -1.47811 0
M  V30 1053 C 105.23 1.70754 -2.95052 0
M  V30 1054 H 106.423 -0.100058 -2.99733 0
M  V30 1055 H 103.976 -0.0896198 -1.56043 0
M  V30 1056 H 104.711 2.35474 -2.22986 0
M  V30 1057 H 104.496 1.33946 -3.68512 0
M  V30 1058 H 105.986 2.30818 -3.48013 0
M  V30 1059 N 106.423 1.57458 -0.0668435 0
M  V30 1060 C 107.839 1.56947 0.289772 0
M  V30 1061 C 108.039 1.07584 1.70376 0
M  V30 1062 O 107.095 0.739486 2.41429 0
M  V30 1063 C 108.408 3.0052 0.103943 0
M  V30 1064 C 109.956 3.12517 0.173857 0
M  V30 1065 C 110.431 4.57997 0.0163682 0
M  V30 1066 N 111.922 4.63144 0.0721352 0
M  V30 1067 C 112.657 5.73394 -0.0253794 0
M  V30 1068 N 112.153 6.92576 -0.176133 0
M  V30 1069 N 113.946 5.62091 0.0313305 0
M  V30 1070 H 106.097 1.87863 -0.991027 0
M  V30 1071 H 108.36 0.86583 -0.38606 0
M  V30 1072 H 108.066 3.40729 -0.871572 0
M  V30 1073 H 107.94 3.67304 0.858366 0
M  V30 1074 H 110.327 2.72197 1.13985 0
M  V30 1075 H 110.408 2.48381 -0.611586 0
M  V30 1076 H 110.052 4.99005 -0.946374 0
M  V30 1077 H 109.982 5.20158 0.821153 0
M  V30 1078 H 112.473 3.77436 0.187263 0
M  V30 1079 H 112.786 7.72418 -0.242821 0
M  V30 1080 H 111.131 6.94678 -0.211429 0
M  V30 1081 H 114.322 4.67867 0.147773 0
M  V30 1082 H 114.495 6.47982 -0.048121 0
M  V30 1083 N 107.901 -0.206675 1.56239 0
M  V30 1084 C 108.834 -1.28383 1.88661 0
M  V30 1085 C 109.812 -1.44504 0.745481 0
M  V30 1086 O 110.996 -1.60079 0.995336 0
M  V30 1087 C 108.123 -2.65211 2.10667 0
M  V30 1088 C 107.169 -2.66025 3.33366 0
M  V30 1089 S 108.002 -2.18609 4.88846 0
M  V30 1090 C 109.158 -3.57283 5.13906 0
M  V30 1091 H 109.391 -1.00691 2.7973 0
M  V30 1092 H 106.924 -0.409627 1.48867 0
M  V30 1093 H 108.882 -3.43979 2.24029 0
M  V30 1094 H 107.543 -2.90121 1.20369 0
M  V30 1095 H 106.736 -3.66607 3.45855 0
M  V30 1096 H 106.338 -1.95331 3.18938 0
M  V30 1097 H 108.63 -4.53074 5.03717 0
M  V30 1098 H 109.573 -3.49699 6.15724 0
M  V30 1099 H 109.981 -3.51659 4.41583 0
M  V30 1100 N 109.379 -1.50304 -0.473955 0
M  V30 1101 C 110.342 -1.6841 -1.55469 0
M  V30 1102 C 111.342 -0.554905 -1.50922 0
M  V30 1103 O 112.532 -0.821882 -1.53593 0
M  V30 1104 C 109.664 -1.70667 -2.95102 0
M  V30 1105 H 110.857 -2.64828 -1.40733 0
M  V30 1106 H 108.41 -1.39742 -0.700132 0
M  V30 1107 H 109.145 -0.75932 -3.15285 0
M  V30 1108 H 108.93 -2.52698 -2.9981 0
M  V30 1109 H 110.42 -1.8664 -3.73571 0
M  V30 1110 N 110.857 0.726932 -1.39834 0
M  V30 1111 C 112.082 1.52121 -1.40976 0
M  V30 1112 C 112.507 1.88098 -0.00826029 0
M  V30 1113 O 111.865 1.52479 0.980807 0
M  V30 1114 C 111.913 2.78021 -2.29644 0
M  V30 1115 O 111.017 3.74272 -1.73188 0
M  V30 1116 H 110.358 0.45908 -0.479731 0
M  V30 1117 H 112.888 0.896207 -1.83927 0
M  V30 1118 H 112.898 3.26671 -2.44438 0
M  V30 1119 H 111.573 2.51169 -3.31492 0
M  V30 1120 H 110.15 3.33073 -1.6768 0
M  V30 1121 N 112.336 1.25143 0.95797 0
M  V30 1122 C 113.266 1.07711 2.07173 0
M  V30 1123 C 114.247 -0.0128462 1.70095 0
M  V30 1124 O 115.432 0.156061 1.93572 0
M  V30 1125 C 112.562 0.691503 3.40346 0
M  V30 1126 C 111.516 1.73132 3.9142 0
M  V30 1127 C 110.842 1.20049 5.21049 0
M  V30 1128 C 112.142 3.1294 4.1817 0
M  V30 1129 H 113.836 2.00873 2.22014 0
M  V30 1130 H 111.382 0.967191 1.06684 0
M  V30 1131 H 113.335 0.556505 4.17709 0
M  V30 1132 H 112.059 -0.275819 3.25433 0
M  V30 1133 H 110.718 1.8547 3.16222 0
M  V30 1134 H 110.366 0.223499 5.02503 0
M  V30 1135 H 110.066 1.89545 5.56189 0
M  V30 1136 H 111.59 1.07782 6.01012 0
M  V30 1137 H 113.004 3.03775 4.86203 0
M  V30 1138 H 111.401 3.79875 4.64559 0
M  V30 1139 H 112.471 3.6025 3.24573 0
M  V30 1140 N 113.814 -1.1601 1.06675 0
M  V30 1141 C 114.724 -2.24156 0.692179 0
M  V30 1142 C 115.74 -1.71507 -0.293513 0
M  V30 1143 O 116.916 -2.009 -0.141861 0
M  V30 1144 C 113.981 -3.46587 0.0884131 0
M  V30 1145 C 113.042 -4.14257 1.12646 0
M  V30 1146 C 112.275 -5.30844 0.551416 0
M  V30 1147 O 112.498 -5.66858 -0.634656 0
M  V30 1148 O 111.432 -5.87848 1.29298 0
M  V30 1149 H 115.258 -2.58513 1.59388 0
M  V30 1150 H 112.843 -1.23599 0.83926 0
M  V30 1151 H 114.725 -4.20679 -0.246361 0
M  V30 1152 H 113.4 -3.13994 -0.786712 0
M  V30 1153 H 112.307 -3.42118 1.51348 0
M  V30 1154 H 113.64 -4.50914 1.97325 0
M  V30 1155 N 115.292 -0.849877 -1.32721 0
M  V30 1156 C 116.54 -0.450032 -1.97026 0
M  V30 1157 C 116.861 0.996604 -1.67609 0
M  V30 1158 O 116.131 1.6958 -0.980786 0
M  V30 1159 H 114.711 -0.163426 -0.728904 0
M  V30 1160 H 117.373 -1.08526 -1.6189 0
M  V30 1161 H 116.469 -0.591146 -3.0645 0
M  V30 1162 N 116.77 1.45427 -0.607355 0
M  V30 1163 C 118.018 2.01841 -0.102253 0
M  V30 1164 C 118.339 1.47832 1.27164 0
M  V30 1165 O 117.609 0.672497 1.83995 0
M  V30 1166 H 116.189 0.746188 -0.0348101 0
M  V30 1167 H 118.851 1.78229 -0.7887 0
M  V30 1168 H 117.947 3.12057 -0.0518585 0
M  V30 1169 N 118.248 0.346503 1.53744 0
M  V30 1170 C 119.158 -0.517293 2.28826 0
M  V30 1171 C 120.174 -1.10935 1.3405 0
M  V30 1172 O 121.35 -1.1244 1.6709 0
M  V30 1173 C 118.415 -1.65098 3.04866 0
M  V30 1174 C 117.476 -1.0884 4.15274 0
M  V30 1175 C 116.709 -2.16806 4.87679 0
M  V30 1176 O 116.932 -3.3758 4.59778 0
M  V30 1177 O 115.866 -1.80934 5.74061 0
M  V30 1178 H 119.692 0.0931396 3.03557 0
M  V30 1179 H 117.277 0.111458 1.48984 0
M  V30 1180 H 119.159 -2.31053 3.5241 0
M  V30 1181 H 117.834 -2.24717 2.32989 0
M  V30 1182 H 116.741 -0.3933 3.72027 0
M  V30 1183 H 118.074 -0.537036 4.89261 0
M  V30 1184 N 119.726 -1.57421 0.075193 0
M  V30 1185 C 120.689 -2.11791 -0.876203 0
M  V30 1186 C 121.689 -1.04268 -1.22412 0
M  V30 1187 O 122.879 -1.30242 -1.15684 0
M  V30 1188 C 120.011 -2.62207 -2.17854 0
M  V30 1189 H 121.204 -2.9716 -0.40444 0
M  V30 1190 H 118.757 -1.55333 -0.173557 0
M  V30 1191 H 119.492 -1.803 -2.6956 0
M  V30 1192 H 119.277 -3.40802 -1.93897 0
M  V30 1193 H 120.767 -3.04335 -2.85955 0
M  V30 1194 N 121.204 0.198386 -1.56346 0
M  V30 1195 C 122.452 0.91747 -1.80075 0
M  V30 1196 C 122.773 1.83929 -0.647692 0
M  V30 1197 O 122.043 1.93029 0.334166 0
M  V30 1198 H 120.623 0.341774 -0.664228 0
M  V30 1199 H 123.285 0.204684 -1.93822 0
M  V30 1200 H 122.381 1.51055 -2.7311 0
M  V30 1201 N 122.682 1.50554 0.465978 0
M  V30 1202 C 123.612 1.72722 1.57128 0
M  V30 1203 C 124.593 0.576294 1.6004 0
M  V30 1204 O 125.778 0.81598 1.76225 0
M  V30 1205 C 122.908 1.82605 2.95419 0
M  V30 1206 C 121.862 2.97835 3.07373 0
M  V30 1207 C 121.188 2.92867 4.47363 0
M  V30 1208 C 122.488 4.38265 2.84114 0
M  V30 1209 H 124.182 2.65267 1.38829 0
M  V30 1210 H 121.728 1.2765 0.666441 0
M  V30 1211 H 123.681 1.96698 3.72677 0
M  V30 1212 H 122.405 0.866858 3.14886 0
M  V30 1213 H 121.064 2.83401 2.3255 0
M  V30 1214 H 120.712 1.94783 4.63755 0
M  V30 1215 H 120.412 3.70227 4.56296 0
M  V30 1216 H 121.936 3.09015 5.26633 0
M  V30 1217 H 123.35 4.53198 3.51118 0
M  V30 1218 H 121.747 5.17115 3.04487 0
M  V30 1219 H 122.817 4.50281 1.7993 0
M  V30 1220 N 124.16 -0.719506 1.40217 0
M  V30 1221 C 125.123 -1.8153 1.39927 0
M  V30 1222 C 126.123 -1.58095 0.293723 0
M  V30 1223 O 127.313 -1.65209 0.552429 0
M  V30 1224 C 124.445 -3.19561 1.18716 0
M  V30 1225 H 125.638 -1.83186 2.37451 0
M  V30 1226 H 123.191 -0.924746 1.26008 0
M  V30 1227 H 123.926 -3.23557 0.219366 0
M  V30 1228 H 123.711 -3.3797 1.98793 0
M  V30 1229 H 125.201 -3.99598 1.21291 0
M  V30 1230 N 125.638 -1.25649 -0.95132 0
M  V30 1231 C 126.568 -1.08808 -2.06599 0
M  V30 1232 C 127.549 0.00382547 -1.701 0
M  V30 1233 O 128.734 -0.166325 -1.93486 0
M  V30 1234 C 125.864 -0.709542 -3.39975 0
M  V30 1235 C 124.818 -1.75206 -3.90496 0
M  V30 1236 C 124.144 -1.22811 -5.20405 0
M  V30 1237 C 125.444 -3.15153 -4.16504 0
M  V30 1238 H 127.138 -2.02048 -2.20946 0
M  V30 1239 H 124.684 -0.972835 -1.06169 0
M  V30 1240 H 126.637 -0.578649 -4.17408 0
M  V30 1241 H 125.361 0.258556 -3.25575 0
M  V30 1242 H 124.02 -1.87145 -3.15234 0
M  V30 1243 H 123.668 -0.250145 -5.02378 0
M  V30 1244 H 123.368 -1.92492 -5.55176 0
M  V30 1245 H 124.892 -1.10968 -6.00432 0
M  V30 1246 H 126.306 -3.06349 -4.84586 0
M  V30 1247 H 124.703 -3.82333 -4.62538 0
M  V30 1248 H 125.773 -3.61966 -3.22658 0
M  V30 1249 N 127.117 1.15442 -1.07289 0
M  V30 1250 C 128.08 2.18358 -0.696591 0
M  V30 1251 C 129.08 1.58637 0.262837 0
M  V30 1252 O 130.27 1.74145 0.0438809 0
M  V30 1253 C 127.402 3.4089 -0.0266151 0
M  V30 1254 H 128.595 2.53162 -1.60776 0
M  V30 1255 H 126.148 1.29893 -0.869342 0
M  V30 1256 H 126.883 3.11653 0.896822 0
M  V30 1257 H 126.668 3.85495 -0.716657 0
M  V30 1258 H 128.158 4.17009 0.222028 0
M  V30 1259 N 128.595 0.856903 1.32268 0
M  V30 1260 C 129.82 0.474569 2.01897 0
M  V30 1261 C 130.245 -0.921766 1.63967 0
M  V30 1262 O 129.603 -1.60589 0.84148 0
M  V30 1263 C 129.651 0.623799 3.55164 0
M  V30 1264 O 128.755 -0.342459 4.10976 0
M  V30 1265 H 128.096 0.190422 0.63611 0
M  V30 1266 H 130.626 1.15672 1.68764 0
M  V30 1267 H 130.636 0.512169 4.04773 0
M  V30 1268 H 129.311 1.64202 3.82113 0
M  V30 1269 H 127.888 -0.18688 3.72431 0
M  V30 1270 N 130.073 -1.45103 0.615059 0
M  V30 1271 C 131.321 -2.01784 0.112955 0
M  V30 1272 C 131.642 -1.48504 -1.26378 0
M  V30 1273 O 130.912 -0.682245 -1.83636 0
M  V30 1274 H 129.492 -0.745993 0.0387668 0
M  V30 1275 H 132.154 -1.77808 0.798141 0
M  V30 1276 H 131.25 -3.12025 0.0684069 0
M  V30 1277 N 131.551 -0.354651 -1.53558 0
M  V30 1278 C 132.484 0.540273 -2.21712 0
M  V30 1279 C 133.462 1.09161 -1.2051 0
M  V30 1280 O 134.646 1.14979 -1.49372 0
M  V30 1281 C 131.773 1.74435 -2.90328 0
M  V30 1282 C 130.819 1.32146 -4.05512 0
M  V30 1283 S 131.652 0.331924 -5.3447 0
M  V30 1284 C 132.808 1.54258 -6.06593 0
M  V30 1285 H 133.041 -0.0385776 -2.97275 0
M  V30 1286 H 130.574 -0.138736 -1.53775 0
M  V30 1287 H 132.532 2.43507 -3.30476 0
M  V30 1288 H 131.193 2.29444 -2.1451 0
M  V30 1289 H 130.386 2.21952 -4.52497 0
M  V30 1290 H 129.988 0.710091 -3.67197 0
M  V30 1291 H 132.28 2.47534 -6.30661 0
M  V30 1292 H 133.223 1.11431 -6.99277 0
M  V30 1293 H 133.631 1.74367 -5.36895 0
M  V30 1294 N 133.029 1.57378 -0.0835403 0
M  V30 1295 C 134.277 1.93547 0.581718 0
M  V30 1296 C 134.598 0.96524 1.69435 0
M  V30 1297 O 133.868 0.0153369 1.95894 0
M  V30 1298 H 132.448 0.714521 0.217874 0
M  V30 1299 H 135.11 1.94366 -0.144158 0
M  V30 1300 H 134.206 2.95665 0.999423 0
M  V30 1301 N 134.507 -0.190092 1.56449 0
M  V30 1302 C 135.47 -1.21925 1.9408 0
M  V30 1303 C 136.47 -1.38176 0.822431 0
M  V30 1304 O 137.66 -1.35903 1.08977 0
M  V30 1305 C 134.792 -2.58773 2.21922 0
M  V30 1306 H 135.985 -0.897464 2.86157 0
M  V30 1307 H 133.538 -0.43181 1.50217 0
M  V30 1308 H 134.273 -2.95998 1.32499 0
M  V30 1309 H 134.058 -2.48348 3.03424 0
M  V30 1310 H 135.548 -3.32978 2.52022 0
M  V30 1311 N 135.985 -1.50799 -0.457987 0
M  V30 1312 C 137.234 -1.6168 -1.20593 0
M  V30 1313 C 137.547 -0.32888 -1.92815 0
M  V30 1314 O 138.753 -0.316773 -2.69646 0
M  V30 1315 C 137.209 -2.8545 -2.19195 0
M  V30 1316 C 136.817 -4.21168 -1.52715 0
M  V30 1317 C 138.561 -3.05681 -2.94549 0
M  V30 1318 C 136.468 -5.3611 -2.4968 0
M  V30 1319 H 135.398 -0.602134 -0.453818 0
M  V30 1320 H 138.049 -1.77245 -0.475031 0
M  V30 1321 H 136.431 -2.63472 -2.95632 0
M  V30 1322 H 137.605 -4.53449 -0.819775 0
M  V30 1323 H 135.92 -4.06648 -0.895922 0
M  V30 1324 H 138.517 -3.88727 -3.67145 0
M  V30 1325 H 138.86 -2.17929 -3.54701 0
M  V30 1326 H 139.393 -3.27901 -2.25223 0
M  V30 1327 H 136.132 -6.26057 -1.94249 0
M  V30 1328 H 135.652 -5.0823 -3.18532 0
M  V30 1329 H 137.331 -5.6722 -3.11241 0
M  V30 1330 N 137.463 0.71206 -1.40597 0
M  V30 1331 C 138.691 1.50111 -1.42388 0
M  V30 1332 C 139.106 1.88784 -0.0245395 0
M  V30 1333 O 138.463 1.55681 0.952351 0
M  V30 1334 C 138.514 2.7742 -2.31776 0
M  V30 1335 O 138.235 2.40382 -3.66262 0
M  V30 1336 C 139.736 3.7129 -2.42196 0
M  V30 1337 H 136.956 0.46314 -0.485533 0
M  V30 1338 H 139.5 0.878068 -1.8469 0
M  V30 1339 H 137.655 3.36001 -1.92827 0
M  V30 1340 H 138.069 3.22324 -4.13772 0
M  V30 1341 H 139.543 4.57448 -3.08943 0
M  V30 1342 H 140.02 4.14641 -1.44809 0
M  V30 1343 H 140.626 3.18619 -2.81712 0
M  V30 1344 N 138.941 1.26152 0.944643 0
M  V30 1345 C 140.166 1.14363 1.7302 0
M  V30 1346 C 140.591 -0.29772 1.85729 0
M  V30 1347 O 139.949 -1.2157 1.34501 0
M  V30 1348 C 139.997 1.81378 3.11664 0
M  V30 1349 O 139.101 1.10022 3.97453 0
M  V30 1350 H 138.442 0.398694 0.53098 0
M  V30 1351 H 140.972 1.66906 1.18337 0
M  V30 1352 H 140.982 1.88064 3.62072 0
M  V30 1353 H 139.657 2.86237 3.0173 0
M  V30 1354 H 138.234 1.11287 3.55907 0
M  V30 1355 N 140.419 -1.14872 1.07899 0
M  V30 1356 C 141.647 -1.89661 0.82683 0
M  V30 1357 C 142.062 -1.78312 -0.620519 0
M  V30 1358 O 141.419 -1.13888 -1.42604 0
M  V30 1359 C 141.47 -3.39817 1.23316 0
M  V30 1360 O 141.191 -3.50845 2.62372 0
M  V30 1361 C 142.692 -4.31615 1.0111 0
M  V30 1362 H 139.912 -0.60092 0.298557 0
M  V30 1363 H 142.456 -1.4551 1.43691 0
M  V30 1364 H 140.611 -3.8161 0.667286 0
M  V30 1365 H 141.025 -4.44076 2.79101 0
M  V30 1366 H 142.499 -5.35367 1.34486 0
M  V30 1367 H 142.976 -4.39169 -0.0522168 0
M  V30 1368 H 143.582 -3.95572 1.56215 0
M  V30 1369 N 141.898 -0.863906 -1.31812 0
M  V30 1370 C 142.828 -0.330843 -2.31144 0
M  V30 1371 C 143.809 0.575005 -1.60087 0
M  V30 1372 O 144.994 0.493304 -1.8783 0
M  V30 1373 C 142.124 0.47374 -3.44054 0
M  V30 1374 C 141.078 -0.338481 -4.26659 0
M  V30 1375 C 140.404 0.591412 -5.31419 0
M  V30 1376 C 141.704 -1.56926 -4.98168 0
M  V30 1377 H 143.398 -1.16086 -2.75979 0
M  V30 1378 H 140.944 -0.559657 -1.32679 0
M  V30 1379 H 142.897 0.857143 -4.12591 0
M  V30 1380 H 141.621 1.33721 -2.9797 0
M  V30 1381 H 140.28 -0.703754 -3.59782 0
M  V30 1382 H 139.928 1.45199 -4.81587 0
M  V30 1383 H 139.628 0.0519022 -5.87577 0
M  V30 1384 H 141.152 0.97179 -6.02817 0
M  V30 1385 H 142.566 -1.25764 -5.59336 0
M  V30 1386 H 140.963 -2.04739 -5.64094 0
M  V30 1387 H 142.033 -2.32544 -4.25501 0
M  V30 1388 N 143.376 1.44774 -0.622745 0
M  V30 1389 C 144.622 2.02968 -0.13257 0
M  V30 1390 C 144.977 1.48047 1.22881 0
M  V30 1391 O 144.27 0.651625 1.80179 0
M  V30 1392 C 144.464 3.57364 -0.0508323 0
M  V30 1393 C 144.293 4.27262 -1.40275 0
M  V30 1394 C 143.063 4.64577 -1.98737 0
M  V30 1395 C 145.261 4.58248 -2.3348 0
M  V30 1396 N 143.243 5.19404 -3.27251 0
M  V30 1397 C 144.614 5.14069 -3.46603 0
M  V30 1398 C 146.669 4.40195 -2.32664 0
M  V30 1399 C 145.372 5.53738 -4.59093 0
M  V30 1400 C 147.398 4.80907 -3.44213 0
M  V30 1401 C 146.76 5.36834 -4.56058 0
M  V30 1402 H 142.859 0.776541 -0.0922354 0
M  V30 1403 H 145.443 1.76385 -0.82441 0
M  V30 1404 H 143.614 3.83576 0.610265 0
M  V30 1405 H 145.346 4.02219 0.447397 0
M  V30 1406 H 142.101 4.48622 -1.51774 0
M  V30 1407 H 142.525 5.51301 -3.92933 0
M  V30 1408 H 147.167 3.96257 -1.47446 0
M  V30 1409 H 144.885 5.96635 -5.45025 0
M  V30 1410 H 148.471 4.68659 -3.44747 0
M  V30 1411 H 147.351 5.67755 -5.40947 0
M  V30 1412 N 144.854 0.36279 1.53368 0
M  V30 1413 C 146.082 -0.228613 2.05633 0
M  V30 1414 C 146.497 -1.42676 1.23649 0
M  V30 1415 O 145.854 -1.80394 0.27647 0
M  V30 1416 C 145.905 -0.624845 3.56059 0
M  V30 1417 O 145.626 0.525675 4.34935 0
M  V30 1418 C 147.127 -1.27493 4.24571 0
M  V30 1419 H 144.347 -0.0407183 0.669763 0
M  V30 1420 H 146.891 0.520352 1.97769 0
M  V30 1421 H 145.046 -1.32373 3.64083 0
M  V30 1422 H 145.46 0.205969 5.24095 0
M  V30 1423 H 146.934 -1.50277 5.31151 0
M  V30 1424 H 147.411 -2.23439 3.78116 0
M  V30 1425 H 148.017 -0.617558 4.20792 0
M  V30 1426 N 146.332 -1.57332 0.0918853 0
M  V30 1427 C 147.262 -2.16872 -0.865371 0
M  V30 1428 C 148.243 -1.10118 -1.29646 0
M  V30 1429 O 149.428 -1.38242 -1.36392 0
M  V30 1430 C 146.558 -2.74649 -2.12569 0
M  V30 1431 C 145.512 -3.86747 -1.83333 0
M  V30 1432 C 144.838 -4.31212 -3.16166 0
M  V30 1433 C 146.138 -5.10089 -1.1228 0
M  V30 1434 H 147.832 -2.97114 -0.369307 0
M  V30 1435 H 145.378 -1.42918 -0.176194 0
M  V30 1436 H 147.331 -3.14952 -2.7997 0
M  V30 1437 H 146.055 -1.91657 -2.64452 0
M  V30 1438 H 144.714 -3.46978 -1.18331 0
M  V30 1439 H 144.362 -3.45115 -3.6593 0
M  V30 1440 H 144.062 -5.06788 -2.97388 0
M  V30 1441 H 145.586 -4.74146 -3.84731 0
M  V30 1442 H 147 -5.47582 -1.69785 0
M  V30 1443 H 145.397 -5.91073 -1.03693 0
M  V30 1444 H 146.467 -4.84786 -0.105041 0
M  V30 1445 N 147.81 0.181792 -1.56548 0
M  V30 1446 C 148.74 1.22765 -1.98623 0
M  V30 1447 C 149.721 1.46747 -0.860189 0
M  V30 1448 O 150.906 1.58259 -1.12551 0
M  V30 1449 C 148.036 2.56894 -2.33715 0
M  V30 1450 C 146.99 2.475 -3.49182 0
M  V30 1451 C 146.316 3.86023 -3.69986 0
M  V30 1452 C 147.616 1.98866 -4.82959 0
M  V30 1453 H 149.31 0.877942 -2.86239 0
M  V30 1454 H 146.856 0.42088 -1.37712 0
M  V30 1455 H 148.809 3.30253 -2.61746 0
M  V30 1456 H 147.533 2.93632 -1.42997 0
M  V30 1457 H 146.192 1.76596 -3.21262 0
M  V30 1458 H 145.84 4.20136 -2.76576 0
M  V30 1459 H 145.54 3.80609 -4.47672 0
M  V30 1460 H 147.064 4.60984 -4.00407 0
M  V30 1461 H 148.478 2.61992 -5.09934 0
M  V30 1462 H 146.875 2.04424 -5.64208 0
M  V30 1463 H 147.945 0.942465 -4.75653 0
M  V30 1464 N 149.288 1.51039 0.449983 0
M  V30 1465 C 150.704 1.38934 0.785462 0
M  V30 1466 C 150.904 0.461817 1.96136 0
M  V30 1467 O 149.96 -0.0877389 2.52348 0
M  V30 1468 C 151.273 2.80724 1.0777 0
M  V30 1469 C 152.821 2.89787 1.1829 0
M  V30 1470 C 153.296 4.32457 1.50815 0
M  V30 1471 N 154.787 4.35505 1.57764 0
M  V30 1472 C 155.522 5.42914 1.84477 0
M  V30 1473 N 155.018 6.60502 2.09068 0
M  V30 1474 N 156.811 5.3038 1.86155 0
M  V30 1475 H 148.962 2.09904 -0.324647 0
M  V30 1476 H 151.225 0.944378 -0.0827957 0
M  V30 1477 H 150.931 3.50531 0.286498 0
M  V30 1478 H 150.805 3.19273 2.00859 0
M  V30 1479 H 153.192 2.20186 1.96474 0
M  V30 1480 H 153.273 2.54752 0.231314 0
M  V30 1481 H 152.917 5.02603 0.731622 0
M  V30 1482 H 152.847 4.64995 2.47158 0
M  V30 1483 H 155.338 3.50724 1.40715 0
M  V30 1484 H 155.651 7.38158 2.28785 0
M  V30 1485 H 153.996 6.63639 2.06416 0
M  V30 1486 H 157.187 4.37505 1.66454 0
M  V30 1487 H 157.36 6.1417 2.06637 0
M  V30 1488 N 150.766 -0.704594 1.40972 0
M  V30 1489 C 152.177 -1.28418 1.3552 0
M  V30 1490 C 152.528 -1.96171 0.0339434 0
M  V30 1491 O 151.653 -1.98231 -0.867944 0
M  V30 1492 C 152.248 -2.33528 2.45459 0
M  V30 1493 C 150.807 -2.87085 2.43433 0
M  V30 1494 C 149.954 -1.61007 2.2577 0
M  V30 1495 H 152.905 -0.499963 1.50619 0
M  V30 1496 H 152.926 -3.14619 2.13998 0
M  V30 1497 H 152.438 -1.84187 3.41609 0
M  V30 1498 H 150.539 -3.40626 1.51013 0
M  V30 1499 H 150.652 -3.3813 3.39419 0
M  V30 1500 H 149.016 -1.86482 1.73483 0
M  V30 1501 H 149.799 -1.13675 3.23933 0
M  V30 1502 N 152.244 -1.26651 -0.937939 0
M  V30 1503 C 153.492 -1.12165 -1.68118 0
M  V30 1504 C 153.813 0.334983 -1.92101 0
M  V30 1505 O 153.083 1.23583 -1.52 0
M  V30 1506 H 151.663 -0.412093 -0.623048 0
M  V30 1507 H 154.325 -1.59027 -1.12678 0
M  V30 1508 H 153.421 -1.64289 -2.6536 0
M  V30 1509 N 153.722 1.14298 -1.08507 0
M  V30 1510 C 154.999 1.81544 -0.728088 0
M  V30 1511 C 155.379 1.95838 0.78808 0
M  V30 1512 O 154.727 1.51904 1.70697 0
M  V30 1513 C 154.937 3.17169 -1.45619 0
M  V30 1514 C 156.285 3.9265 -1.61591 0
M  V30 1515 O 157.309 3.26762 -1.41793 0
M  V30 1516 O 156.168 5.10807 -1.94263 0
M  V30 1517 H 153.262 0.78491 -0.260471 0
M  V30 1518 H 155.808 1.21307 -1.18671 0
M  V30 1519 H 154.58 3.01934 -2.489 0
M  V30 1520 H 154.203 3.851 -0.989124 0
M  V30 1521 N 155.201 0.870884 1.31352 0
M  V30 1522 C 156.111 0.330783 2.32256 0
M  V30 1523 C 157.127 -0.559767 1.6475 0
M  V30 1524 O 158.303 -0.456263 1.96164 0
M  V30 1525 C 155.368 -0.458137 3.4366 0
M  V30 1526 C 154.429 0.460482 4.26823 0
M  V30 1527 C 153.662 -0.290881 5.32907 0
M  V30 1528 O 153.885 -1.51885 5.49806 0
M  V30 1529 O 152.819 0.351732 6.00871 0
M  V30 1530 H 156.645 1.16718 2.80376 0
M  V30 1531 H 154.23 0.634285 1.35267 0
M  V30 1532 H 156.112 -0.905343 4.1156 0
M  V30 1533 H 154.787 -1.27106 2.97701 0
M  V30 1534 H 153.694 0.956207 3.61673 0
M  V30 1535 H 155.027 1.23903 4.7635 0
M  V30 1536 N 156.679 -1.44442 0.630414 0
M  V30 1537 C 157.925 -2.02351 0.134816 0
M  V30 1538 C 158.258 -1.4947 -1.23986 0
M  V30 1539 O 157.533 -0.678475 -1.82283 0
M  V30 1540 C 157.816 -3.59898 0.120707 0
M  V30 1541 C 157.669 -4.23063 1.52767 0
M  V30 1542 C 158.988 -4.36585 -0.555127 0
M  V30 1543 H 156.107 -0.73527 0.0504646 0
M  V30 1544 H 158.749 -1.72022 0.806751 0
M  V30 1545 H 156.899 -3.85868 -0.451477 0
M  V30 1546 H 158.571 -4.08202 2.14869 0
M  V30 1547 H 156.814 -3.80586 2.08175 0
M  V30 1548 H 157.485 -5.32071 1.46984 0
M  V30 1549 H 159.961 -4.16044 -0.0685429 0
M  V30 1550 H 158.837 -5.46294 -0.534185 0
M  V30 1551 H 159.098 -4.11138 -1.62535 0
M  V30 1552 N 158.157 -0.370918 -1.53173 0
M  V30 1553 C 159.087 0.464847 -2.28826 0
M  V30 1554 C 160.068 1.07936 -1.31468 0
M  V30 1555 O 161.253 1.0956 -1.60344 0
M  V30 1556 C 158.383 1.60196 -3.08147 0
M  V30 1557 C 157.337 1.11443 -4.13237 0
M  V30 1558 C 156.663 2.3422 -4.80672 0
M  V30 1559 C 157.963 0.195384 -5.21934 0
M  V30 1560 H 159.657 -0.166329 -2.98938 0
M  V30 1561 H 157.203 -0.0814359 -1.4377 0
M  V30 1562 H 159.156 2.19332 -3.59822 0
M  V30 1563 H 157.88 2.26045 -2.35735 0
M  V30 1564 H 156.539 0.545727 -3.62515 0
M  V30 1565 H 156.187 2.98537 -4.04827 0
M  V30 1566 H 155.887 2.02269 -5.51689 0
M  V30 1567 H 157.411 2.94032 -5.35143 0
M  V30 1568 H 158.825 0.694375 -5.69079 0
M  V30 1569 H 157.222 -0.0335027 -6.00091 0
M  V30 1570 H 158.292 -0.760961 -4.78892 0
M  V30 1571 N 159.635 1.57281 -0.100228 0
M  V30 1572 C 160.565 2.17328 0.853857 0
M  V30 1573 C 161.546 1.10804 1.2906 0
M  V30 1574 O 162.731 1.38963 1.35657 0
M  V30 1575 C 159.861 2.75772 2.11109 0
M  V30 1576 C 158.815 3.87713 1.81279 0
M  V30 1577 C 158.141 4.32882 3.13874 0
M  V30 1578 C 159.441 5.10677 1.09574 0
M  V30 1579 H 161.135 2.97305 0.353545 0
M  V30 1580 H 158.681 1.43009 0.168612 0
M  V30 1581 H 160.634 3.16433 2.78296 0
M  V30 1582 H 159.358 1.93057 2.63432 0
M  V30 1583 H 158.017 3.476 1.16489 0
M  V30 1584 H 157.665 3.47051 3.64095 0
M  V30 1585 H 157.365 5.08358 2.94696 0
M  V30 1586 H 158.889 4.7618 3.82211 0
M  V30 1587 H 160.303 5.48474 1.66879 0
M  V30 1588 H 158.7 5.91615 1.00557 0
M  V30 1589 H 159.77 4.84835 0.0793299 0
M  V30 1590 N 161.113 -0.173488 1.56642 0
M  V30 1591 C 162.361 -0.888706 1.81512 0
M  V30 1592 C 162.682 -1.82875 0.676872 0
M  V30 1593 O 161.952 -1.93536 -0.303414 0
M  V30 1594 H 160.532 -0.331164 0.669582 0
M  V30 1595 H 163.194 -0.173823 1.94123 0
M  V30 1596 H 162.29 -1.46691 2.75478 0
M  V30 1597 N 162.591 -1.51276 -0.441967 0
M  V30 1598 C 163.539 -1.72823 -1.55676 0
M  V30 1599 C 164.533 -0.59445 -1.58627 0
M  V30 1600 O 165.739 -0.775715 -1.62427 0
M  V30 1601 H 162.114 -0.545983 -0.517113 0
M  V30 1602 H 164.085 -2.6628 -1.34675 0
M  V30 1603 C 162.834 -1.86619 -2.93375 0
M  V30 1604 H 162.157 -2.73264 -2.91834 0
M  V30 1605 H 163.597 -2.05709 -3.70756 0
M  V30 1606 C 162.056 -0.624842 -3.31055 0
M  V30 1607 O 162.586 0.222636 -4.01083 0
M  V30 1608 N 160.792 -0.470288 -2.86769 0
M  V30 1609 H 160.339 -1.161 -2.29953 0
M  V30 1610 H 160.297 0.359051 -3.12343 0
M  V30 1611 N 164.069 0.697108 -1.41344 0
M  V30 1612 C 165.297 1.48593 -1.43972 0
M  V30 1613 C 165.712 1.88747 -0.0445612 0
M  V30 1614 O 165.069 1.56682 0.935785 0
M  V30 1615 C 165.12 2.74946 -2.34706 0
M  V30 1616 O 164.841 2.36484 -3.68791 0
M  V30 1617 C 166.342 3.687 -2.46121 0
M  V30 1618 H 163.562 0.457964 -0.490418 0
M  V30 1619 H 166.106 0.858429 -1.8561 0
M  V30 1620 H 164.261 3.33937 -1.9638 0
M  V30 1621 H 164.675 3.17918 -4.17167 0
M  V30 1622 H 166.149 4.54145 -3.13777 0
M  V30 1623 H 166.626 4.13081 -1.49199 0
M  V30 1624 H 167.232 3.15613 -2.85076 0
M  V30 1625 N 165.547 1.27147 0.931209 0
M  V30 1626 C 166.477 1.12081 2.04842 0
M  V30 1627 C 167.458 0.0232364 1.70084 0
M  V30 1628 O 168.643 0.197085 1.93197 0
M  V30 1629 C 165.773 0.76354 3.38803 0
M  V30 1630 C 164.727 1.81396 3.87659 0
M  V30 1631 C 164.053 1.31075 5.18385 0
M  V30 1632 C 165.353 3.21739 4.11438 0
M  V30 1633 H 167.047 2.05537 2.17703 0
M  V30 1634 H 164.593 0.989603 1.04608 0
M  V30 1635 H 166.546 0.644982 4.16435 0
M  V30 1636 H 165.27 -0.206727 3.25945 0
M  V30 1637 H 163.929 1.92136 3.12217 0
M  V30 1638 H 163.577 0.330037 5.01916 0
M  V30 1639 H 163.277 2.013 5.52044 0
M  V30 1640 H 164.801 1.20506 5.98591 0
M  V30 1641 H 166.215 3.14019 4.79651 0
M  V30 1642 H 164.612 3.89644 4.56397 0
M  V30 1643 H 165.682 3.67054 3.16859 0
M  V30 1644 N 167.025 -1.13721 1.09112 0
M  V30 1645 C 168.255 -1.88499 0.845671 0
M  V30 1646 C 168.663 -1.79218 -0.606432 0
M  V30 1647 O 168.006 -1.1544 -1.42896 0
M  V30 1648 C 168.068 -3.38954 1.19793 0
M  V30 1649 C 167.732 -3.72018 2.65428 0
M  V30 1650 C 168.729 -3.7153 3.63677 0
M  V30 1651 C 166.414 -4.01775 3.01467 0
M  V30 1652 C 168.408 -4.00336 4.95994 0
M  V30 1653 C 166.095 -4.30243 4.33975 0
M  V30 1654 C 167.093 -4.29508 5.31048 0
M  V30 1655 O 166.781 -4.5728 6.61173 0
M  V30 1656 H 166.513 -0.603702 0.304171 0
M  V30 1657 H 169.067 -1.44903 1.45576 0
M  V30 1658 H 167.297 -3.83039 0.530871 0
M  V30 1659 H 168.986 -3.95052 0.932146 0
M  V30 1660 H 169.752 -3.4862 3.37179 0
M  V30 1661 H 165.631 -4.01496 2.26544 0
M  V30 1662 H 169.175 -3.99678 5.71755 0
M  V30 1663 H 165.072 -4.52625 4.60219 0
M  V30 1664 H 165.84 -4.74964 6.66597 0
M  V30 1665 N 168.503 -0.877838 -1.30888 0
M  V30 1666 C 169.751 -0.491723 -1.96027 0
M  V30 1667 C 170.072 0.960827 -1.69685 0
M  V30 1668 O 169.342 1.67462 -1.01654 0
M  V30 1669 H 167.922 -0.17885 -0.725273 0
M  V30 1670 H 170.584 -1.11935 -1.59551 0
M  V30 1671 H 169.68 -0.656016 -3.05128 0
M  V30 1672 N 169.982 1.44106 -0.638065 0
M  V30 1673 C 171.222 2.03858 -0.148733 0
M  V30 1674 C 171.586 1.49153 1.20903 0
M  V30 1675 O 172.787 2.00452 1.79088 0
M  V30 1676 C 171.058 3.57117 -0.142314 0
M  V30 1677 S 172.617 4.37897 0.281385 0
M  V30 1678 H 169.435 0.708069 -0.0644912 0
M  V30 1679 H 172.037 1.7639 -0.843009 0
M  V30 1680 H 170.741 3.94436 -1.13349 0
M  V30 1681 H 170.272 3.89205 0.572988 0
M  V30 1682 H 172.287 4.72218 1.52395 0
M  V30 1683 N 171.46 0.379036 1.52974 0
M  V30 1684 C 172.688 -0.20679 2.05864 0
M  V30 1685 C 173.103 -1.41356 1.25155 0
M  V30 1686 O 172.46 -1.8009 0.295588 0
M  V30 1687 C 172.511 -0.587045 3.56702 0
M  V30 1688 O 172.232 0.571776 4.34353 0
M  V30 1689 C 173.733 -1.22983 4.25899 0
M  V30 1690 H 170.953 -0.0336123 0.670158 0
M  V30 1691 H 173.497 0.541298 1.97206 0
M  V30 1692 H 171.652 -1.28504 3.65466 0
M  V30 1693 H 172.066 0.261544 5.23847 0
M  V30 1694 H 173.54 -1.44635 5.32715 0
M  V30 1695 H 174.017 -2.19416 3.80465 0
M  V30 1696 H 174.623 -0.572892 4.21424 0
M  V30 1697 N 172.938 -1.57226 0.108567 0
M  V30 1698 C 174.185 -1.94833 -0.551943 0
M  V30 1699 C 174.513 -0.991204 -1.67348 0
M  V30 1700 O 173.768 -0.0131878 -1.95696 0
M  V30 1701 C 174.067 -3.38911 -1.13463 0
M  V30 1702 C 173.733 -4.50696 -0.135509 0
M  V30 1703 C 172.395 -4.80998 0.139252 0
M  V30 1704 C 174.747 -5.18333 0.545957 0
M  V30 1705 C 172.075 -5.76259 1.10194 0
M  V30 1706 C 174.427 -6.14627 1.49721 0
M  V30 1707 C 173.091 -6.43327 1.78006 0
M  V30 1708 H 172.361 -0.712944 -0.20197 0
M  V30 1709 H 175.008 -1.90582 0.18726 0
M  V30 1710 H 173.313 -3.39805 -1.95037 0
M  V30 1711 H 175.01 -3.65317 -1.65362 0
M  V30 1712 H 171.6 -4.27087 -0.359846 0
M  V30 1713 H 175.784 -4.95087 0.346842 0
M  V30 1714 H 171.04 -5.96804 1.32795 0
M  V30 1715 H 175.214 -6.66126 2.03099 0
M  V30 1716 H 172.841 -7.1695 2.52759 0
M  V30 1717 N 174.416 0.165178 -1.56732 0
M  V30 1718 C 175.379 1.18822 -1.95995 0
M  V30 1719 C 176.379 1.3685 -0.84431 0
M  V30 1720 O 177.569 1.34152 -1.11126 0
M  V30 1721 C 174.701 2.5521 -2.26011 0
M  V30 1722 H 175.894 0.851825 -2.87548 0
M  V30 1723 H 173.447 0.407857 -1.50885 0
M  V30 1724 H 174.182 2.93852 -1.37191 0
M  V30 1725 H 173.967 2.43489 -3.07336 0
M  V30 1726 H 175.457 3.28927 -2.57288 0
M  V30 1727 N 175.894 1.51508 0.433938 0
M  V30 1728 C 177.141 1.64345 1.18309 0
M  V30 1729 C 177.469 0.361315 1.91115 0
M  V30 1730 O 176.724 -0.654753 1.84422 0
M  V30 1731 C 177.023 2.79928 2.22205 0
M  V30 1732 C 176.689 4.19078 1.66387 0
M  V30 1733 C 175.351 4.56932 1.50887 0
M  V30 1734 C 177.703 5.05894 1.25381 0
M  V30 1735 C 175.031 5.79305 0.928608 0
M  V30 1736 C 177.383 6.2885 0.687823 0
M  V30 1737 C 176.047 6.65473 0.519755 0
M  V30 1738 H 175.317 0.601381 0.432923 0
M  V30 1739 H 177.964 1.85549 0.473676 0
M  V30 1740 H 176.269 2.52959 2.99197 0
M  V30 1741 H 177.966 2.87059 2.79997 0
M  V30 1742 H 174.556 3.89234 1.79428 0
M  V30 1743 H 178.74 4.77253 1.36175 0
M  V30 1744 H 173.996 6.06324 0.786186 0
M  V30 1745 H 178.17 6.95461 0.361581 0
M  V30 1746 H 175.797 7.6017 0.0679979 0
M  V30 1747 N 177.372 -0.689602 1.41712 0
M  V30 1748 C 178.302 -1.81577 1.46806 0
M  V30 1749 C 179.283 -1.66945 0.326105 0
M  V30 1750 O 180.468 -1.86588 0.538377 0
M  V30 1751 C 177.598 -3.19762 1.35535 0
M  V30 1752 C 176.552 -3.49107 2.47605 0
M  V30 1753 C 175.878 -4.86711 2.21397 0
M  V30 1754 C 177.178 -3.47483 3.89939 0
M  V30 1755 H 178.872 -1.7757 2.41058 0
M  V30 1756 H 176.418 -0.852887 1.16025 0
M  V30 1757 H 178.371 -3.98263 1.3771 0
M  V30 1758 H 177.095 -3.24409 0.377708 0
M  V30 1759 H 175.754 -2.72959 2.44722 0
M  V30 1760 H 175.402 -4.8799 1.21961 0
M  V30 1761 H 175.102 -5.0731 2.96497 0
M  V30 1762 H 176.626 -5.67515 2.25297 0
M  V30 1763 H 178.04 -4.1598 3.94505 0
M  V30 1764 H 176.437 -3.79615 4.64771 0
M  V30 1765 H 177.507 -2.46341 4.17665 0
M  V30 1766 N 178.85 -1.27639 -0.924453 0
M  V30 1767 C 179.8 -1.07295 -2.01176 0
M  V30 1768 C 180.784 5.77352e-05 -1.609 0
M  V30 1769 O 181.976 -0.218855 -1.75642 0
M  V30 1770 C 179.105 -0.725592 -3.35544 0
M  V30 1771 C 178.191 -1.83691 -3.82254 0
M  V30 1772 N 178.582 -3.07697 -4.01443 0
M  V30 1773 C 176.88 -1.72433 -4.11319 0
M  V30 1774 C 177.581 -3.80037 -4.40394 0
M  V30 1775 N 176.557 -3.0782 -4.48049 0
M  V30 1776 H 180.359 -2.01399 -2.14046 0
M  V30 1777 H 177.873 -1.18401 -1.11153 0
M  V30 1778 H 179.87 -0.560959 -4.13109 0
M  V30 1779 H 178.53 0.207782 -3.24034 0
M  V30 1780 H 179.541 -3.43424 -3.8766 0
M  V30 1781 H 176.218 -0.862005 -4.08504 0
M  V30 1782 H 177.608 -4.86632 -4.63291 0
M  V30 1783 N 180.328 1.1314 -1.09713 0
M  V30 1784 C 181.278 2.16709 -0.708593 0
M  V30 1785 C 182.262 1.58471 0.278523 0
M  V30 1786 O 183.454 1.76779 0.088427 0
M  V30 1787 C 180.583 3.43039 -0.133923 0
M  V30 1788 C 179.669 4.08277 -1.14763 0
M  V30 1789 N 180.06 4.48637 -2.33577 0
M  V30 1790 C 178.358 4.34954 -0.986446 0
M  V30 1791 C 179.059 4.9952 -2.98085 0
M  V30 1792 N 178.035 4.94561 -2.25632 0
M  V30 1793 H 181.837 2.45672 -1.61315 0
M  V30 1794 H 179.351 1.29967 -0.973775 0
M  V30 1795 H 181.348 4.16583 0.162465 0
M  V30 1796 H 180.008 3.15549 0.765447 0
M  V30 1797 H 181.019 4.41246 -2.7115 0
M  V30 1798 H 177.696 4.17258 -0.142008 0
M  V30 1799 H 179.086 5.40521 -3.99108 0
M  V30 1800 N 181.806 0.884767 1.30421 0
M  V30 1801 C 183.054 0.502112 1.95763 0
M  V30 1802 C 183.375 -0.951815 1.70192 0
M  V30 1803 O 182.645 -1.6692 1.0254 0
M  V30 1804 H 181.225 0.182694 0.724315 0
M  V30 1805 H 183.887 1.1278 1.58955 0
M  V30 1806 H 182.983 0.672188 3.04775 0
M  V30 1807 N 183.284 -1.43765 0.645699 0
M  V30 1808 C 184.533 -2.01116 0.153412 0
M  V30 1809 C 184.846 -1.51493 -1.23731 0
M  V30 1810 O 186.052 -2.01067 -1.8244 0
M  V30 1811 C 184.508 -3.59206 0.223473 0
M  V30 1812 C 184.116 -4.17823 1.61642 0
M  V30 1813 C 185.86 -4.23972 -0.211597 0
M  V30 1814 C 183.767 -5.68183 1.64081 0
M  V30 1815 H 182.697 -0.752093 0.0535891 0
M  V30 1816 H 185.348 -1.6482 0.806633 0
M  V30 1817 H 183.73 -3.92867 -0.497118 0
M  V30 1818 H 184.904 -3.95674 2.36176 0
M  V30 1819 H 183.219 -3.65399 1.99681 0
M  V30 1820 H 185.816 -5.34275 -0.213112 0
M  V30 1821 H 186.159 -3.97352 -1.24165 0
M  V30 1822 H 186.692 -3.95166 0.456988 0
M  V30 1823 H 183.431 -5.99559 2.64971 0
M  V30 1824 H 182.951 -5.9241 0.938611 0
M  V30 1825 H 184.63 -6.32085 1.3812 0
M  V30 1826 N 184.763 -0.387143 -1.52771 0
M  V30 1827 C 186.011 0.195349 -2.01154 0
M  V30 1828 C 186.332 1.475 -1.27549 0
M  V30 1829 O 185.602 1.91878 -0.394924 0
M  V30 1830 H 184.182 0.075178 -0.743207 0
M  V30 1831 H 186.844 -0.518337 -1.87881 0
M  V30 1832 H 185.94 0.407096 -3.09434 0
M  V30 1833 N 186.241 1.57166 -0.116904 0
M  V30 1834 C 187.151 2.18745 0.847812 0
M  V30 1835 C 188.167 1.163 1.29423 0
M  V30 1836 O 189.343 1.48761 1.35765 0
M  V30 1837 C 186.408 2.77307 2.0809 0
M  V30 1838 C 185.469 3.94781 1.68661 0
M  V30 1839 C 184.702 4.50541 2.86091 0
M  V30 1840 O 184.925 4.05202 4.01456 0
M  V30 1841 O 183.859 5.41256 2.63298 0
M  V30 1842 H 187.685 3.01632 0.353778 0
M  V30 1843 H 185.27 1.49005 0.108599 0
M  V30 1844 H 187.152 3.14647 2.80313 0
M  V30 1845 H 185.827 1.97452 2.56504 0
M  V30 1846 H 184.734 3.62214 0.935518 0
M  V30 1847 H 186.067 4.76065 1.24991 0
M  V30 1848 N 187.719 -0.156864 1.56817 0
M  V30 1849 C 188.966 -0.871125 1.82805 0
M  V30 1850 C 189.294 -1.81611 0.696262 0
M  V30 1851 O 188.549 -1.93141 -0.315459 0
M  V30 1852 C 188.848 -1.68737 3.1506 0
M  V30 1853 C 188.514 -0.890045 4.42028 0
M  V30 1854 C 187.176 -0.670042 4.76512 0
M  V30 1855 C 189.528 -0.331769 5.20143 0
M  V30 1856 C 186.856 0.119104 5.86579 0
M  V30 1857 C 189.208 0.444365 6.31037 0
M  V30 1858 C 187.872 0.675035 6.64078 0
M  V30 1859 H 187.142 -0.318767 0.668931 0
M  V30 1860 H 189.789 -0.135274 1.91022 0
M  V30 1861 H 188.094 -2.49304 3.0225 0
M  V30 1862 H 189.791 -2.24331 3.3238 0
M  V30 1863 H 186.381 -1.07157 4.14988 0
M  V30 1864 H 190.565 -0.489043 4.93885 0
M  V30 1865 H 185.821 0.307417 6.10627 0
M  V30 1866 H 189.995 0.884139 6.90765 0
M  V30 1867 H 187.622 1.28839 7.49203 0
M  V30 1868 N 189.197 -1.51736 -0.425897 0
M  V30 1869 C 190.445 -1.64644 -1.17204 0
M  V30 1870 C 190.766 -0.370486 -1.91448 0
M  V30 1871 O 190.036 0.614088 -1.86026 0
M  V30 1872 H 188.616 -0.606819 -0.435638 0
M  V30 1873 H 191.278 -1.88713 -0.487177 0
M  V30 1874 H 190.374 -2.47958 -1.89534 0
M  V30 1875 N 190.675 0.682077 -1.42076 0
M  V30 1876 C 191.921 1.44428 -1.42367 0
M  V30 1877 C 192.254 1.94164 -0.0373056 0
M  V30 1878 O 191.529 1.70429 0.937239 0
M  V30 1879 C 191.812 2.64654 -2.44194 0
M  V30 1880 C 191.665 2.20596 -3.91991 0
M  V30 1881 C 192.984 3.66865 -2.431 0
M  V30 1882 H 190.103 0.523834 -0.518428 0
M  V30 1883 H 192.745 0.77576 -1.73442 0
M  V30 1884 H 190.895 3.2169 -2.17826 0
M  V30 1885 H 192.567 1.68783 -4.29313 0
M  V30 1886 H 190.81 1.52242 -4.06208 0
M  V30 1887 H 191.481 3.06921 -4.58807 0
M  V30 1888 H 193.957 3.19531 -2.66532 0
M  V30 1889 H 192.833 4.48577 -3.16339 0
M  V30 1890 H 193.094 4.17493 -1.45437 0
M  V30 1891 N 192.153 1.28127 0.917671 0
M  V30 1892 C 193.1 1.11717 2.0196 0
M  V30 1893 C 194.07 0.0153929 1.66093 0
M  V30 1894 O 195.255 0.179596 1.89953 0
M  V30 1895 C 192.395 0.780927 3.36148 0
M  V30 1896 C 191.508 1.96135 3.84909 0
M  V30 1897 C 190.643 1.56609 5.0759 0
M  V30 1898 C 189.682 2.71339 5.48673 0
M  V30 1899 N 188.819 2.32332 6.62545 0
M  V30 1900 H 193.659 2.06003 2.15329 0
M  V30 1901 H 191.196 1.02535 1.05475 0
M  V30 1902 H 193.154 0.56675 4.13333 0
M  V30 1903 H 191.784 -0.124998 3.22558 0
M  V30 1904 H 190.836 2.28777 3.03916 0
M  V30 1905 H 192.148 2.82165 4.1132 0
M  V30 1906 H 191.302 1.31374 5.92305 0
M  V30 1907 H 190.041 0.677014 4.82978 0
M  V30 1908 H 189.046 2.97276 4.62501 0
M  V30 1909 H 190.271 3.60882 5.75274 0
M  V30 1910 H 188.217 1.45889 6.39572 0
M  V30 1911 H 188.134 3.11899 6.88662 0
M  V30 1912 H 189.402 2.10371 7.50576 0
M  V30 1913 N 193.631 -1.12557 1.10312 0
M  V30 1914 C 194.561 -2.20341 0.772798 0
M  V30 1915 C 195.542 -1.68198 -0.25365 0
M  V30 1916 O 196.727 -1.93831 -0.119699 0
M  V30 1917 C 193.857 -3.46709 0.202443 0
M  V30 1918 C 192.811 -4.11996 1.15943 0
M  V30 1919 C 192.137 -5.328 0.450345 0
M  V30 1920 C 193.437 -4.5828 2.50552 0
M  V30 1921 H 195.131 -2.48229 1.674 0
M  V30 1922 H 192.677 -1.19308 0.806326 0
M  V30 1923 H 194.63 -4.2138 -0.0407752 0
M  V30 1924 H 193.354 -3.18245 -0.734001 0
M  V30 1925 H 192.013 -3.39305 1.38808 0
M  V30 1926 H 191.661 -5.00602 -0.490531 0
M  V30 1927 H 191.361 -5.7743 1.08851 0
M  V30 1928 H 192.885 -6.10219 0.215642 0
M  V30 1929 H 194.299 -5.2433 2.31843 0
M  V30 1930 H 192.696 -5.13683 3.10242 0
M  V30 1931 H 193.766 -3.72329 3.10643 0
M  V30 1932 N 195.109 -0.891671 -1.2995 0
M  V30 1933 C 196.525 -0.58662 -1.48428 0
M  V30 1934 C 196.725 0.873951 -1.81561 0
M  V30 1935 O 195.781 1.65471 -1.90724 0
M  V30 1936 C 197.094 -1.50553 -2.60296 0
M  V30 1937 C 198.642 -1.50988 -2.74175 0
M  V30 1938 C 199.117 -2.41488 -3.89163 0
M  V30 1939 N 200.608 -2.39489 -3.96483 0
M  V30 1940 C 201.343 -3.06223 -4.84784 0
M  V30 1941 N 200.839 -3.82206 -5.77833 0
M  V30 1942 N 202.632 -2.95421 -4.78208 0
M  V30 1943 H 194.783 -1.83644 -1.06718 0
M  V30 1944 H 197.046 -0.786455 -0.529332 0
M  V30 1945 H 196.752 -2.54581 -2.42654 0
M  V30 1946 H 196.626 -1.22008 -3.56923 0
M  V30 1947 H 199.013 -0.47708 -2.91218 0
M  V30 1948 H 199.094 -1.83567 -1.78148 0
M  V30 1949 H 198.738 -3.44857 -3.72876 0
M  V30 1950 H 198.668 -2.06222 -4.84541 0
M  V30 1951 H 201.159 -1.84278 -3.29924 0
M  V30 1952 H 201.472 -4.302 -6.41988 0
M  V30 1953 H 199.817 -3.86313 -5.77743 0
M  V30 1954 H 203.008 -2.35581 -4.04499 0
M  V30 1955 H 203.181 -3.47704 -5.46814 0
M  V30 1956 N 196.587 1.43421 -0.653314 0
M  V30 1957 C 197.537 2.2792 0.060558 0
M  V30 1958 C 198.521 1.39906 0.794677 0
M  V30 1959 O 199.713 1.63536 0.677128 0
M  V30 1960 C 196.842 3.27603 1.0262 0
M  V30 1961 C 195.928 4.23104 0.290551 0
M  V30 1962 N 196.319 5.01031 -0.692967 0
M  V30 1963 C 194.617 4.42816 0.531984 0
M  V30 1964 C 195.318 5.70626 -1.12963 0
M  V30 1965 N 194.294 5.41617 -0.463867 0
M  V30 1966 H 198.096 2.85585 -0.694143 0
M  V30 1967 H 195.61 1.55126 -0.480602 0
M  V30 1968 H 197.607 3.86918 1.55242 0
M  V30 1969 H 196.267 2.71499 1.78096 0
M  V30 1970 H 197.278 5.0669 -1.07169 0
M  V30 1971 H 193.955 3.97782 1.26791 0
M  V30 1972 H 195.345 6.4318 -1.94343 0
M  V30 1973 N 198.065 0.39524 1.52563 0
M  V30 1974 C 199.311 -0.185318 2.01952 0
M  V30 1975 C 199.644 -1.45964 1.28095 0
M  V30 1976 O 198.919 -1.90689 0.38315 0
M  V30 1977 C 199.202 -0.447193 3.57312 0
M  V30 1978 C 199.055 0.842828 4.41833 0
M  V30 1979 C 200.374 -1.23529 4.22408 0
M  V30 1980 H 197.493 -0.0658788 0.73405 0
M  V30 1981 H 200.135 0.525975 1.82575 0
M  V30 1982 H 198.285 -1.05312 3.73954 0
M  V30 1983 H 199.957 1.4795 4.36931 0
M  V30 1984 H 198.2 1.45686 4.08605 0
M  V30 1985 H 198.871 0.614165 5.48573 0
M  V30 1986 H 201.347 -0.722445 4.0978 0
M  V30 1987 H 200.223 -1.38727 5.3108 0
M  V30 1988 H 200.484 -2.25213 3.80436 0
M  V30 1989 N 199.544 -1.57102 0.125237 0
M  V30 1990 C 200.821 -1.86953 -0.575142 0
M  V30 1991 C 201.201 -1.02749 -1.84407 0
M  V30 1992 O 200.549 -0.108144 -2.28244 0
M  V30 1993 C 200.759 -3.38198 -0.861583 0
M  V30 1994 C 202.107 -4.06937 -1.21192 0
M  V30 1995 O 203.131 -3.43252 -0.951645 0
M  V30 1996 O 201.99 -5.19364 -1.70068 0
M  V30 1997 H 199.084 -0.774147 -0.290906 0
M  V30 1998 H 201.63 -1.68942 0.160211 0
M  V30 1999 H 200.402 -3.91282 0.0373647 0
M  V30 2000 H 200.025 -3.61661 -1.65188 0
M  V30 2001 N 201.022 0.148545 -1.56898 0
M  V30 2002 C 201.955 1.21293 -1.93296 0
M  V30 2003 C 202.933 1.41637 -0.798599 0
M  V30 2004 O 204.117 1.56275 -1.05406 0
M  V30 2005 C 201.244 2.5721 -2.20365 0
M  V30 2006 C 200.29 2.53469 -3.4301 0
M  V30 2007 S 201.123 2.00315 -4.96623 0
M  V30 2008 C 202.279 3.37964 -5.26812 0
M  V30 2009 H 202.512 0.902393 -2.83274 0
M  V30 2010 H 200.045 0.354094 -1.50285 0
M  V30 2011 H 202.003 3.35427 -2.36641 0
M  V30 2012 H 200.664 2.85454 -1.31054 0
M  V30 2013 H 199.857 3.53518 -3.59223 0
M  V30 2014 H 199.459 1.83359 -3.25968 0
M  V30 2015 H 201.751 4.34066 -5.20185 0
M  V30 2016 H 202.694 3.26606 -6.28279 0
M  V30 2017 H 203.102 3.35028 -4.54331 0
M  V30 2018 N 202.5 1.5196 0.417844 0
M  V30 2019 C 203.463 1.74065 1.49111 0
M  V30 2020 C 204.463 0.610537 1.48758 0
M  V30 2021 O 205.653 0.87832 1.50437 0
M  V30 2022 C 202.785 1.81502 2.88565 0
M  V30 2023 H 203.978 2.69869 1.30807 0
M  V30 2024 H 201.531 1.42244 0.647785 0
M  V30 2025 H 202.266 0.875813 3.1225 0
M  V30 2026 H 202.051 2.63651 2.90225 0
M  V30 2027 H 203.541 2.00376 3.66387 0
M  V30 2028 N 203.978 -0.674533 1.42435 0
M  V30 2029 C 205.255 -1.4305 1.33402 0
M  V30 2030 C 205.635 -2.11081 -0.0284674 0
M  V30 2031 O 204.983 -2.03257 -1.04397 0
M  V30 2032 C 205.193 -2.43272 2.50239 0
M  V30 2033 C 206.541 -3.07907 2.92367 0
M  V30 2034 O 207.565 -2.53599 2.50132 0
M  V30 2035 O 206.424 -4.0632 3.65467 0
M  V30 2036 H 203.518 -0.638076 0.526106 0
M  V30 2037 H 206.064 -0.703235 1.54443 0
M  V30 2038 H 204.836 -1.91803 3.41068 0
M  V30 2039 H 204.459 -3.23479 2.31186 0
M  V30 2040 N 205.456 -1.28612 -0.910864 0
M  V30 2041 C 206.386 -1.15326 -2.03032 0
M  V30 2042 C 207.367 -0.0502924 -1.70026 0
M  V30 2043 O 208.552 -0.227797 -1.92859 0
M  V30 2044 C 205.682 -0.817343 -3.37545 0
M  V30 2045 C 204.636 -1.8754 -3.84724 0
M  V30 2046 C 203.962 -1.39305 -5.16235 0
M  V30 2047 C 205.262 -3.28244 -4.06267 0
M  V30 2048 H 206.956 -2.08975 -2.14406 0
M  V30 2049 H 204.502 -1.00612 -1.03021 0
M  V30 2050 H 206.455 -0.711151 -4.15356 0
M  V30 2051 H 205.179 0.154846 -3.26233 0
M  V30 2052 H 203.838 -1.97079 -3.09121 0
M  V30 2053 H 203.486 -0.409846 -5.01328 0
M  V30 2054 H 203.186 -2.10057 -5.48771 0
M  V30 2055 H 204.71 -1.30014 -5.96598 0
M  V30 2056 H 206.124 -3.21611 -4.74594 0
M  V30 2057 H 204.521 -3.96855 -4.5014 0
M  V30 2058 H 205.591 -3.72048 -3.10979 0
M  V30 2059 N 206.934 1.1197 -1.10907 0
M  V30 2060 C 207.866 2.17592 -0.720175 0
M  V30 2061 C 208.879 1.60938 0.245495 0
M  V30 2062 O 210.068 1.78476 0.0292245 0
M  V30 2063 C 207.168 3.38873 -0.0427917 0
M  V30 2064 C 206.341 4.25006 -1.03388 0
M  V30 2065 C 205.4 5.24774 -0.387075 0
M  V30 2066 O 204.426 5.59631 -1.03934 0
M  V30 2067 N 205.628 5.74208 0.852407 0
M  V30 2068 H 208.393 2.51567 -1.62893 0
M  V30 2069 H 205.954 1.27439 -0.998543 0
M  V30 2070 H 207.946 4.02703 0.401501 0
M  V30 2071 H 206.516 3.03007 0.768456 0
M  V30 2072 H 205.736 3.57716 -1.65629 0
M  V30 2073 H 207.024 4.79397 -1.70458 0
M  V30 2074 H 206.422 5.48062 1.40161 0
M  V30 2075 H 204.979 6.39901 1.23977 0
M  V30 2076 N 208.412 0.89855 1.29475 0
M  V30 2077 C 209.375 0.380272 2.26023 0
M  V30 2078 C 210.375 -0.484891 1.53315 0
M  V30 2079 O 211.565 -0.290108 1.71767 0
M  V30 2080 C 208.697 -0.45651 3.3783 0
M  V30 2081 H 209.89 1.23295 2.73383 0
M  V30 2082 H 207.443 0.676589 1.40897 0
M  V30 2083 H 208.178 -1.32922 2.95808 0
M  V30 2084 H 207.963 0.163393 3.91759 0
M  V30 2085 H 209.453 -0.810466 4.0966 0
M  V30 2086 N 209.89 -1.43072 0.660911 0
M  V30 2087 C 210.82 -2.33497 -0.0122829 0
M  V30 2088 C 211.801 -1.49903 -0.803925 0
M  V30 2089 O 212.986 -1.78546 -0.763864 0
M  V30 2090 C 210.116 -3.33363 -0.973994 0
M  V30 2091 C 209.07 -4.27003 -0.291928 0
M  V30 2092 C 208.396 -5.16967 -1.36562 0
M  V30 2093 C 209.696 -5.15816 0.820462 0
M  V30 2094 H 211.39 -2.90038 0.742873 0
M  V30 2095 H 208.936 -1.39461 0.358688 0
M  V30 2096 H 210.889 -3.95524 -1.45392 0
M  V30 2097 H 209.613 -2.75095 -1.7604 0
M  V30 2098 H 208.272 -3.66217 0.167623 0
M  V30 2099 H 207.92 -4.55034 -2.14366 0
M  V30 2100 H 207.62 -5.80441 -0.914454 0
M  V30 2101 H 209.144 -5.82003 -1.84675 0
M  V30 2102 H 210.558 -5.71742 0.422366 0
M  V30 2103 H 208.955 -5.8805 1.19656 0
M  V30 2104 H 210.025 -4.55045 1.67518 0
M  V30 2105 N 211.368 -0.403325 -1.52352 0
M  V30 2106 C 212.278 0.432009 -2.30588 0
M  V30 2107 C 213.294 1.05884 -1.38075 0
M  V30 2108 O 214.47 1.06161 -1.71148 0
M  V30 2109 C 211.535 1.53669 -3.10784 0
M  V30 2110 C 210.596 0.933525 -4.19027 0
M  V30 2111 C 209.829 1.98557 -4.9539 0
M  V30 2112 O 210.052 3.20283 -4.71991 0
M  V30 2113 O 208.986 1.59504 -5.80381 0
M  V30 2114 H 212.812 -0.205739 -3.03002 0
M  V30 2115 H 210.397 -0.166675 -1.48467 0
M  V30 2116 H 212.279 2.17814 -3.60742 0
M  V30 2117 H 210.954 2.15915 -2.41169 0
M  V30 2118 H 209.861 0.254954 -3.7323 0
M  V30 2119 H 211.194 0.35508 -4.90918 0
M  V30 2120 N 212.846 1.57033 -0.133567 0
M  V30 2121 C 213.809 2.14897 0.796995 0
M  V30 2122 C 214.809 1.0874 1.18458 0
M  V30 2123 O 215.999 1.34446 1.1077 0
M  V30 2124 C 213.131 2.70112 2.07973 0
M  V30 2125 H 214.324 2.98457 0.293873 0
M  V30 2126 H 211.877 1.55871 0.115787 0
M  V30 2127 H 212.612 1.9018 2.62682 0
M  V30 2128 H 212.397 3.47764 1.81115 0
M  V30 2129 H 213.887 3.14738 2.74462 0
M  V30 2130 N 214.325 -0.140222 1.56975 0
M  V30 2131 C 215.288 -1.15689 1.97861 0
M  V30 2132 C 216.288 -1.3549 0.865974 0
M  V30 2133 O 217.478 -1.32367 1.13246 0
M  V30 2134 C 214.61 -2.51582 2.30042 0
M  V30 2135 H 215.803 -0.805971 2.88867 0
M  V30 2136 H 213.356 -0.383801 1.51515 0
M  V30 2137 H 214.091 -2.91632 1.41849 0
M  V30 2138 H 213.876 -2.38569 3.11171 0
M  V30 2139 H 215.366 -3.24792 2.62488 0
M  V30 2140 N 215.803 -1.52179 -0.40978 0
M  V30 2141 C 216.736 -1.70196 -1.52015 0
M  V30 2142 C 217.714 -0.549542 -1.53032 0
M  V30 2143 O 218.898 -0.776815 -1.71749 0
M  V30 2144 C 216.025 -1.74069 -2.90547 0
M  V30 2145 C 215.071 -2.95601 -3.07445 0
M  V30 2146 S 215.904 -4.55956 -2.80827 0
M  V30 2147 C 217.06 -4.62614 -4.21591 0
M  V30 2148 H 217.293 -2.64109 -1.36504 0
M  V30 2149 H 214.826 -1.4221 -0.601312 0
M  V30 2150 H 216.784 -1.76985 -3.70387 0
M  V30 2151 H 215.445 -0.812835 -3.034 0
M  V30 2152 H 214.638 -2.94791 -4.08796 0
M  V30 2153 H 214.24 -2.90569 -2.35469 0
M  V30 2154 H 216.532 -4.39951 -5.15218 0
M  V30 2155 H 217.475 -5.64548 -4.27424 0
M  V30 2156 H 217.883 -3.91654 -4.06531 0
M  V30 2157 N 217.281 0.66697 -1.42791 0
M  V30 2158 C 218.509 1.45505 -1.47091 0
M  V30 2159 C 218.924 1.8861 -0.0845873 0
M  V30 2160 O 218.281 1.58632 0.90234 0
M  V30 2161 C 218.332 2.69906 -2.40485 0
M  V30 2162 O 218.053 2.28608 -3.73725 0
M  V30 2163 C 219.554 3.63396 -2.53886 0
M  V30 2164 H 216.774 0.447459 -0.500022 0
M  V30 2165 H 219.318 0.818866 -1.8739 0
M  V30 2166 H 217.473 3.29696 -2.03419 0
M  V30 2167 H 217.887 3.08997 -4.23817 0
M  V30 2168 H 219.361 4.47387 -3.2334 0
M  V30 2169 H 219.838 4.09824 -1.57927 0
M  V30 2170 H 220.444 3.09495 -2.91706 0
M  V30 2171 N 218.759 1.29093 0.90403 0
M  V30 2172 C 220.17 1.15186 1.46932 0
M  V30 2173 C 220.521 -0.254587 1.94541 0
M  V30 2174 O 219.646 -1.14972 1.83332 0
M  V30 2175 C 220.241 2.08492 2.67051 0
M  V30 2176 C 218.8 1.98621 3.19729 0
M  V30 2177 C 217.947 1.9967 1.92425 0
M  V30 2178 H 220.898 1.41641 0.715789 0
M  V30 2179 H 220.919 1.65461 3.42641 0
M  V30 2180 H 220.431 3.10847 2.3237 0
M  V30 2181 H 218.532 0.993389 3.59114 0
M  V30 2182 H 218.645 2.86068 3.8432 0
M  V30 2183 H 217.009 1.44208 2.09943 0
M  V30 2184 H 217.792 3.03721 1.60026 0
M  V30 2185 N 220.237 -1.11381 1.11499 0
M  V30 2186 C 221.2 -2.15622 0.777153 0
M  V30 2187 C 222.2 -1.59504 -0.203779 0
M  V30 2188 O 223.39 -1.74188 0.020782 0
M  V30 2189 C 220.522 -3.40556 0.153116 0
M  V30 2190 H 221.715 -2.47021 1.70061 0
M  V30 2191 H 219.268 -1.26577 0.916952 0
M  V30 2192 H 220.003 -3.14767 -0.780536 0
M  V30 2193 H 219.788 -3.8257 0.859238 0
M  V30 2194 H 221.278 -4.17546 -0.0671044 0
M  V30 2195 N 221.715 -0.905404 -1.28997 0
M  V30 2196 C 222.943 -0.549846 -1.9946 0
M  V30 2197 C 223.358 0.866834 -1.67724 0
M  V30 2198 O 222.715 1.57298 -0.925404 0
M  V30 2199 C 222.766 -0.739387 -3.53858 0
M  V30 2200 O 222.487 -2.10031 -3.84472 0
M  V30 2201 C 223.988 -0.389541 -4.41585 0
M  V30 2202 H 221.208 -0.210429 -0.637151 0
M  V30 2203 H 223.752 -1.21632 -1.64396 0
M  V30 2204 H 221.907 -0.120023 -3.87214 0
M  V30 2205 H 222.321 -2.13385 -4.79132 0
M  V30 2206 H 223.795 -0.572972 -5.49018 0
M  V30 2207 H 224.272 0.673756 -4.34001 0
M  V30 2208 H 224.878 -0.986089 -4.1371 0
M  V30 2209 N 223.193 1.4272 -0.668489 0
M  V30 2210 C 224.609 1.55992 -0.33745 0
M  V30 2211 C 224.809 1.64933 1.15756 0
M  V30 2212 O 223.865 1.61278 1.94282 0
M  V30 2213 C 225.178 2.81314 -1.06222 0
M  V30 2214 C 226.726 2.95078 -1.04394 0
M  V30 2215 C 227.201 4.23252 -1.74991 0
M  V30 2216 N 228.692 4.3015 -1.71829 0
M  V30 2217 C 229.427 5.28127 -2.23315 0
M  V30 2218 N 228.923 6.32293 -2.83156 0
M  V30 2219 N 230.716 5.19882 -2.13726 0
M  V30 2220 H 222.867 1.3516 -1.63846 0
M  V30 2221 H 225.13 0.650174 -0.689912 0
M  V30 2222 H 224.836 2.80823 -2.11734 0
M  V30 2223 H 224.71 3.72012 -0.62344 0
M  V30 2224 H 227.097 2.951 0.0028244 0
M  V30 2225 H 227.178 2.05627 -1.52155 0
M  V30 2226 H 226.822 4.2399 -2.79633 0
M  V30 2227 H 226.752 5.11626 -1.24685 0
M  V30 2228 H 229.243 3.55499 -1.28175 0
M  V30 2229 H 229.556 7.03398 -3.20079 0
M  V30 2230 H 227.901 6.32873 -2.87223 0
M  V30 2231 H 231.092 4.37423 -1.66669 0
M  V30 2232 H 231.265 5.96077 -2.54158 0
M  V30 2233 N 224.671 0.411399 1.52136 0
M  V30 2234 C 225.917 -0.163888 2.02137 0
M  V30 2235 C 226.25 -1.44597 1.29636 0
M  V30 2236 O 225.525 -1.90272 0.403353 0
M  V30 2237 C 225.808 -0.40927 3.57767 0
M  V30 2238 C 225.661 0.889643 4.40914 0
M  V30 2239 C 226.98 -1.19042 4.23694 0
M  V30 2240 H 224.099 -0.0580896 0.734707 0
M  V30 2241 H 226.741 0.54531 1.82007 0
M  V30 2242 H 224.891 -1.0134 3.7505 0
M  V30 2243 H 226.563 1.52575 4.35337 0
M  V30 2244 H 224.806 1.50011 4.07037 0
M  V30 2245 H 225.477 0.672314 5.4789 0
M  V30 2246 H 227.953 -0.678942 4.10524 0
M  V30 2247 H 226.829 -1.33086 5.32522 0
M  V30 2248 H 227.09 -2.21166 3.82803 0
M  V30 2249 N 226.149 -1.5696 0.141893 0
M  V30 2250 C 227.398 -1.95135 -0.510427 0
M  V30 2251 C 227.711 -1.02896 -1.66348 0
M  V30 2252 O 228.917 -1.30629 -2.38009 0
M  V30 2253 C 227.373 -3.46876 -0.959427 0
M  V30 2254 C 226.981 -4.47691 0.166419 0
M  V30 2255 C 228.725 -3.93927 -1.58183 0
M  V30 2256 C 226.632 -5.90636 -0.300565 0
M  V30 2257 H 225.562 -0.728494 -0.194454 0
M  V30 2258 H 228.213 -1.8211 0.22542 0
M  V30 2259 H 226.595 -3.55215 -1.75038 0
M  V30 2260 H 227.769 -4.51043 0.94325 0
M  V30 2261 H 226.084 -4.10527 0.696905 0
M  V30 2262 H 228.681 -4.98158 -1.94275 0
M  V30 2263 H 229.024 -3.3519 -2.46888 0
M  V30 2264 H 229.557 -3.88484 -0.855863 0
M  V30 2265 H 226.296 -6.5318 0.550989 0
M  V30 2266 H 225.816 -5.90655 -1.04338 0
M  V30 2267 H 227.495 -6.42588 -0.754265 0
M  V30 2268 N 227.627 0.131896 -1.57047 0
M  V30 2269 C 228.857 0.855219 -1.88068 0
M  V30 2270 C 229.265 1.74557 -0.729817 0
M  V30 2271 O 228.608 1.81083 0.308962 0
M  V30 2272 C 228.67 1.75119 -3.13964 0
M  V30 2273 C 228.334 1.03646 -4.45091 0
M  V30 2274 C 229.331 0.383276 -5.18485 0
M  V30 2275 C 227.016 1.02148 -4.91804 0
M  V30 2276 C 229.01 -0.275347 -6.36805 0
M  V30 2277 C 226.697 0.359047 -6.10044 0
M  V30 2278 C 227.695 -0.288222 -6.82392 0
M  V30 2279 O 227.383 -0.94011 -7.98384 0
M  V30 2280 H 227.115 0.251864 -0.627328 0
M  V30 2281 H 229.669 0.124782 -2.05021 0
M  V30 2282 H 227.899 2.52295 -2.9306 0
M  V30 2283 H 229.588 2.3478 -3.31109 0
M  V30 2284 H 230.354 0.386562 -4.83457 0
M  V30 2285 H 226.233 1.5147 -4.35405 0
M  V30 2286 H 229.777 -0.781148 -6.93213 0
M  V30 2287 H 225.674 0.35348 -6.44531 0
M  V30 2288 H 226.442 -0.84329 -8.14144 0
M  V30 2289 N 229.106 1.52395 0.401703 0
M  V30 2290 C 230.353 1.66817 1.14796 0
M  V30 2291 C 230.681 0.401772 1.90305 0
M  V30 2292 O 229.936 -0.615487 1.85769 0
M  V30 2293 C 230.235 2.84578 2.16217 0
M  V30 2294 C 229.901 4.22513 1.5746 0
M  V30 2295 C 228.563 4.60029 1.41161 0
M  V30 2296 C 230.915 5.0844 1.14622 0
M  V30 2297 C 228.243 5.81144 0.80552 0
M  V30 2298 C 230.595 6.30167 0.55428 0
M  V30 2299 C 229.259 6.66426 0.378482 0
M  V30 2300 H 228.529 0.610428 0.420069 0
M  V30 2301 H 231.176 1.86512 0.434212 0
M  V30 2302 H 229.481 2.59248 2.93764 0
M  V30 2303 H 231.178 2.92933 2.73845 0
M  V30 2304 H 227.768 3.92953 1.71132 0
M  V30 2305 H 231.952 4.80034 1.26021 0
M  V30 2306 H 227.208 6.07855 0.657399 0
M  V30 2307 H 231.382 6.96071 0.213983 0
M  V30 2308 H 229.009 7.60143 -0.0932606 0
M  V30 2309 N 230.584 -0.659388 1.43143 0
M  V30 2310 C 231.494 -1.80167 1.50256 0
M  V30 2311 C 232.51 -1.69571 0.390106 0
M  V30 2312 O 233.686 -1.90849 0.643319 0
M  V30 2313 C 230.751 -3.16409 1.41725 0
M  V30 2314 C 229.812 -3.38848 2.63591 0
M  V30 2315 C 229.045 -4.68591 2.55458 0
M  V30 2316 O 229.268 -5.47532 1.59891 0
M  V30 2317 O 228.202 -4.92614 3.45854 0
M  V30 2318 H 232.028 -1.77121 2.46702 0
M  V30 2319 H 229.613 -0.817092 1.25076 0
M  V30 2320 H 231.495 -3.9768 1.39387 0
M  V30 2321 H 230.17 -3.20059 0.484118 0
M  V30 2322 H 229.077 -2.57366 2.71502 0
M  V30 2323 H 230.41 -3.4004 3.55856 0
M  V30 2324 N 232.062 -1.29571 -0.897171 0
M  V30 2325 C 233.287 -1.20705 -1.68656 0
M  V30 2326 C 233.712 0.228582 -1.86706 0
M  V30 2327 O 233.07 1.16494 -1.3892 0
M  V30 2328 C 233.118 -1.9282 -3.04717 0
M  V30 2329 O 232.222 -1.24697 -3.93096 0
M  V30 2330 H 231.563 -0.418126 -0.515816 0
M  V30 2331 H 234.093 -1.71183 -1.12061 0
M  V30 2332 H 234.103 -2.01372 -3.54843 0
M  V30 2333 H 232.778 -2.97239 -2.90899 0
M  V30 2334 H 231.355 -1.2442 -3.51531 0
M  V30 2335 N 233.54 1.10788 -1.12088 0
M  V30 2336 C 234.951 1.64181 -0.88891 0
M  V30 2337 C 235.302 1.87508 0.577498 0
M  V30 2338 O 234.427 1.61434 1.44112 0
M  V30 2339 C 235.022 2.98257 -1.60712 0
M  V30 2340 C 233.581 3.4853 -1.42139 0
M  V30 2341 C 232.728 2.23208 -1.6454 0
M  V30 2342 H 235.679 0.943368 -1.27618 0
M  V30 2343 H 235.7 3.65552 -1.05604 0
M  V30 2344 H 235.212 2.81246 -2.67436 0
M  V30 2345 H 233.313 3.70692 -0.376552 0
M  V30 2346 H 233.426 4.26882 -2.17505 0
M  V30 2347 H 231.79 2.31169 -1.06925 0
M  V30 2348 H 232.573 2.08733 -2.72554 0
M  V30 2349 N 235.018 0.912232 1.28515 0
M  V30 2350 C 235.981 0.404223 2.25607 0
M  V30 2351 C 236.981 -0.468602 1.53821 0
M  V30 2352 O 238.171 -0.271873 1.72065 0
M  V30 2353 C 235.303 -0.420653 3.38295 0
M  V30 2354 H 236.496 1.26188 2.7206 0
M  V30 2355 H 234.049 0.691495 1.40171 0
M  V30 2356 H 234.784 -1.29777 2.97201 0
M  V30 2357 H 234.569 0.204935 3.91564 0
M  V30 2358 H 236.059 -0.766971 4.10496 0
M  V30 2359 N 236.496 -1.42363 0.676048 0
M  V30 2360 C 237.444 -2.32596 -0.0131507 0
M  V30 2361 C 238.438 -1.49891 -0.789238 0
M  V30 2362 O 239.644 -1.65955 -0.697061 0
M  V30 2363 H 236.019 -0.751647 -0.0230481 0
M  V30 2364 H 237.99 -2.88421 0.765243 0
M  V30 2365 C 236.739 -3.34479 -0.949702 0
M  V30 2366 H 236.062 -3.98158 -0.361938 0
M  V30 2367 H 237.502 -4.00199 -1.4006 0
M  V30 2368 C 235.961 -2.66838 -2.05667 0
M  V30 2369 O 236.491 -2.50124 -3.14326 0
M  V30 2370 N 234.697 -2.25843 -1.82875 0
M  V30 2371 H 234.244 -2.39637 -0.945085 0
M  V30 2372 H 234.202 -1.80918 -2.5713 0
M  V30 2373 N 237.974 -0.419461 -1.51915 0
M  V30 2374 C 239.385 0.0477853 -1.86639 0
M  V30 2375 C 239.736 1.43531 -1.33766 0
M  V30 2376 O 238.861 2.05401 -0.68113 0
M  V30 2377 C 239.456 0.0934885 -3.38671 0
M  V30 2378 C 238.015 0.505097 -3.72996 0
M  V30 2379 C 237.162 -0.313792 -2.75519 0
M  V30 2380 H 240.113 -0.636088 -1.45395 0
M  V30 2381 H 240.134 0.906667 -3.6954 0
M  V30 2382 H 239.646 -0.916501 -3.77123 0
M  V30 2383 H 237.747 1.52135 -3.40126 0
M  V30 2384 H 237.86 0.242309 -4.78487 0
M  V30 2385 H 236.224 0.225363 -2.53701 0
M  V30 2386 H 237.007 -1.32232 -3.16812 0
M  V30 2387 N 239.452 1.56882 -0.150215 0
M  V30 2388 C 240.4 2.18214 0.805313 0
M  V30 2389 C 241.394 1.14006 1.25296 0
M  V30 2390 O 242.6 1.3225 1.22107 0
M  V30 2391 H 238.975 0.698762 0.277913 0
M  V30 2392 H 240.946 2.97231 0.263862 0
M  V30 2393 C 239.695 2.82065 2.03309 0
M  V30 2394 H 239.018 3.61968 1.69763 0
M  V30 2395 H 240.458 3.28477 2.68103 0
M  V30 2396 C 238.917 1.80739 2.84315 0
M  V30 2397 O 239.447 1.27983 3.80767 0
M  V30 2398 N 237.653 1.4997 2.48913 0
M  V30 2399 H 237.2 1.93062 1.70542 0
M  V30 2400 H 237.158 0.824217 3.03404 0
M  V30 2401 N 240.93 -0.123565 1.57115 0
M  V30 2402 C 241.863 -1.18202 1.95201 0
M  V30 2403 C 242.841 -1.40349 0.821031 0
M  V30 2404 O 244.025 -1.54578 1.07879 0
M  V30 2405 C 241.152 -2.53671 2.24429 0
M  V30 2406 C 240.198 -2.4798 3.46999 0
M  V30 2407 S 241.031 -1.92389 4.99747 0
M  V30 2408 C 242.187 -3.2954 5.32123 0
M  V30 2409 H 242.42 -0.857212 2.84674 0
M  V30 2410 H 239.953 -0.33014 1.50829 0
M  V30 2411 H 241.911 -3.3162 2.41947 0
M  V30 2412 H 240.572 -2.83332 1.35579 0
M  V30 2413 H 239.765 -3.47758 3.64801 0
M  V30 2414 H 239.367 -1.7815 3.28844 0
M  V30 2415 H 241.659 -4.25736 5.27025 0
M  V30 2416 H 242.602 -3.16569 6.33395 0
M  V30 2417 H 243.01 -3.27758 4.59603 0
M  V30 2418 N 242.408 -1.52605 -0.393616 0
M  V30 2419 C 243.358 -1.73436 -1.48 0
M  V30 2420 C 244.342 -0.588386 -1.49756 0
M  V30 2421 O 245.534 -0.846047 -1.5547 0
M  V30 2422 C 242.663 -1.90247 -2.85764 0
M  V30 2423 C 241.749 -3.10763 -2.88595 0
M  V30 2424 N 242.14 -4.33196 -2.61103 0
M  V30 2425 C 240.438 -3.10914 -3.19763 0
M  V30 2426 C 241.139 -5.1477 -2.70899 0
M  V30 2427 N 240.115 -4.50356 -3.04435 0
M  V30 2428 H 243.917 -2.65727 -1.25563 0
M  V30 2429 H 241.431 -1.5085 -0.601513 0
M  V30 2430 H 243.428 -2.03291 -3.63976 0
M  V30 2431 H 242.088 -0.991663 -3.09186 0
M  V30 2432 H 243.099 -4.61408 -2.35209 0
M  V30 2433 H 239.776 -2.29626 -3.4868 0
M  V30 2434 H 241.166 -6.22355 -2.53227 0
M  V30 2435 N 243.887 0.651787 -1.4349 0
M  V30 2436 C 244.82 1.77668 -1.43211 0
M  V30 2437 C 245.798 1.59931 -0.29338 0
M  V30 2438 O 246.982 1.82095 -0.487191 0
M  V30 2439 C 244.109 3.14986 -1.24505 0
M  V30 2440 C 243.155 3.51421 -2.41673 0
M  V30 2441 S 243.988 3.51234 -4.04222 0
M  V30 2442 C 245.144 4.91206 -3.87902 0
M  V30 2443 H 245.377 1.77635 -2.38397 0
M  V30 2444 H 242.91 0.824558 -1.30539 0
M  V30 2445 H 244.868 3.94237 -1.144 0
M  V30 2446 H 243.529 3.1258 -0.308651 0
M  V30 2447 H 242.722 4.51291 -2.24393 0
M  V30 2448 H 242.324 2.79585 -2.48411 0
M  V30 2449 H 244.616 5.79902 -3.50315 0
M  V30 2450 H 245.559 5.13537 -4.8753 0
M  V30 2451 H 245.967 4.64808 -3.20334 0
M  V30 2452 N 245.365 1.30045 0.890287 0
M  V30 2453 C 246.328 1.15963 1.977 0
M  V30 2454 C 247.328 0.0923777 1.60534 0
M  V30 2455 O 248.518 0.340071 1.70848 0
M  V30 2456 C 245.65 0.775451 3.31963 0
M  V30 2457 H 246.843 2.12502 2.11619 0
M  V30 2458 H 244.396 1.13366 1.07601 0
M  V30 2459 H 245.131 -0.189671 3.23745 0
M  V30 2460 H 244.916 1.54668 3.60306 0
M  V30 2461 H 246.406 0.700251 4.11687 0
M  V30 2462 N 246.843 -1.10192 1.12674 0
M  V30 2463 C 248.12 -1.78717 0.794965 0
M  V30 2464 C 248.5 -1.98628 -0.714853 0
M  V30 2465 O 247.848 -1.58135 -1.64941 0
M  V30 2466 C 248.058 -3.11546 1.5729 0
M  V30 2467 C 249.406 -3.86382 1.76052 0
M  V30 2468 O 250.43 -3.21274 1.53823 0
M  V30 2469 O 249.289 -5.03246 2.13087 0
M  V30 2470 H 246.383 -0.774702 0.289423 0
M  V30 2471 H 248.929 -1.16819 1.23091 0
M  V30 2472 H 247.701 -2.92489 2.59935 0
M  V30 2473 H 247.324 -3.81164 1.13137 0
M  V30 2474 N 248.321 -0.919034 -1.28029 0
M  V30 2475 C 249.57 -0.550802 -1.94034 0
M  V30 2476 C 249.883 0.910877 -1.73096 0
M  V30 2477 O 251.089 1.3875 -2.33368 0
M  V30 2478 C 249.545 -0.934249 -3.47563 0
M  V30 2479 C 249.153 -2.41602 -3.7727 0
M  V30 2480 C 250.897 -0.636854 -4.19696 0
M  V30 2481 C 248.804 -2.73932 -5.24133 0
M  V30 2482 H 247.734 -0.202273 -0.726362 0
M  V30 2483 H 250.385 -1.11867 -1.45458 0
M  V30 2484 H 248.767 -0.295115 -3.94899 0
M  V30 2485 H 249.941 -3.10233 -3.40723 0
M  V30 2486 H 248.256 -2.68441 -3.18321 0
M  V30 2487 H 250.853 -0.855005 -5.2782 0
M  V30 2488 H 251.196 0.425575 -4.14119 0
M  V30 2489 H 251.729 -1.23469 -3.78154 0
M  V30 2490 H 248.468 -3.79049 -5.34792 0
M  V30 2491 H 247.988 -2.09942 -5.61858 0
M  V30 2492 H 249.667 -2.61215 -5.91925 0
M  V30 2493 N 249.799 1.42003 -0.683588 0
M  V30 2494 C 250.762 2.29191 -0.0198243 0
M  V30 2495 C 251.762 1.43773 0.72013 0
M  V30 2496 O 252.952 1.65061 0.556815 0
M  V30 2497 C 250.084 3.26435 0.982487 0
M  V30 2498 H 251.277 2.8938 -0.787345 0
M  V30 2499 H 248.83 1.49789 -0.446418 0
M  V30 2500 H 249.565 2.71203 1.77819 0
M  V30 2501 H 249.35 3.89449 0.455182 0
M  V30 2502 H 250.84 3.918 1.44508 0
M  V30 2503 N 251.277 0.427512 1.51691 0
M  V30 2504 C 252.525 -0.141948 2.01601 0
M  V30 2505 C 252.846 -1.44067 1.31414 0
M  V30 2506 O 252.116 -1.90763 0.445658 0
M  V30 2507 H 250.696 -0.0554468 0.744939 0
M  V30 2508 H 253.358 0.567968 1.86441 0
M  V30 2509 H 252.454 -0.324913 3.10404 0
M  V30 2510 N 252.755 -1.56801 0.158532 0
M  V30 2511 C 254.001 -1.96781 -0.490405 0
M  V30 2512 C 254.334 -1.04397 -1.63753 0
M  V30 2513 O 253.609 -0.0885805 -1.94298 0
M  V30 2514 C 253.892 -3.4635 -0.985594 0
M  V30 2515 C 253.745 -4.49512 0.160824 0
M  V30 2516 C 255.064 -3.98697 -1.86355 0
M  V30 2517 H 252.183 -0.715482 -0.176788 0
M  V30 2518 H 254.825 -1.88451 0.242088 0
M  V30 2519 H 252.975 -3.53579 -1.60978 0
M  V30 2520 H 254.647 -4.54353 0.797537 0
M  V30 2521 H 252.89 -4.26013 0.818256 0
M  V30 2522 H 253.561 -5.51531 -0.227569 0
M  V30 2523 H 256.037 -3.94019 -1.33746 0
M  V30 2524 H 254.913 -5.03792 -2.17909 0
M  V30 2525 H 255.174 -3.41744 -2.8047 0
M  V30 2526 N 254.233 0.115231 -1.57178 0
M  V30 2527 C 255.196 1.12526 -1.99676 0
M  V30 2528 C 256.196 1.34095 -0.88742 0
M  V30 2529 O 257.386 1.30548 -1.15337 0
M  V30 2530 C 254.518 2.4789 -2.34015 0
M  V30 2531 H 255.711 0.759912 -2.90113 0
M  V30 2532 H 253.264 0.359648 -1.52106 0
M  V30 2533 H 253.999 2.89339 -1.4647 0
M  V30 2534 H 253.784 2.33588 -3.14927 0
M  V30 2535 H 255.274 3.20575 -2.67622 0
M  V30 2536 N 255.711 1.52812 0.385517 0
M  V30 2537 C 256.658 1.77838 1.47113 0
M  V30 2538 C 257.628 0.621757 1.54024 0
M  V30 2539 O 258.813 0.861846 1.70226 0
M  V30 2540 C 255.953 1.95618 2.84302 0
M  V30 2541 C 255.066 3.23316 2.86515 0
M  V30 2542 C 254.201 3.31394 4.15152 0
M  V30 2543 C 253.24 4.53201 4.1143 0
M  V30 2544 N 252.377 4.58542 5.3168 0
M  V30 2545 H 257.217 2.70482 1.25073 0
M  V30 2546 H 254.754 1.34006 0.606692 0
M  V30 2547 H 256.712 2.03912 3.63972 0
M  V30 2548 H 255.342 1.06331 3.04784 0
M  V30 2549 H 254.394 3.24076 1.99195 0
M  V30 2550 H 255.706 4.13045 2.79634 0
M  V30 2551 H 254.86 3.3889 5.03228 0
M  V30 2552 H 253.599 2.39645 4.24761 0
M  V30 2553 H 252.604 4.45827 3.21742 0
M  V30 2554 H 253.829 5.46271 4.03442 0
M  V30 2555 H 251.775 3.69686 5.41912 0
M  V30 2556 H 251.692 5.42148 5.26889 0
M  V30 2557 H 252.96 4.70296 6.21644 0
M  V30 2558 N 257.189 -0.644168 1.43834 0
M  V30 2559 C 258.438 -1.39985 1.45214 0
M  V30 2560 C 258.751 -1.95421 0.0835494 0
M  V30 2561 O 259.957 -2.71488 -0.0251748 0
M  V30 2562 C 258.413 -2.53384 2.55587 0
M  V30 2563 C 258.021 -2.04517 3.98594 0
M  V30 2564 C 259.765 -3.30685 2.66172 0
M  V30 2565 C 257.672 -3.1518 5.00416 0
M  V30 2566 H 256.602 -0.526005 0.540218 0
M  V30 2567 H 259.253 -0.694367 1.69855 0
M  V30 2568 H 257.635 -3.26446 2.24163 0
M  V30 2569 H 258.809 -1.38405 4.39523 0
M  V30 2570 H 257.124 -1.40068 3.92135 0
M  V30 2571 H 259.721 -4.13158 3.39418 0
M  V30 2572 H 260.064 -3.79312 1.71546 0
M  V30 2573 H 260.597 -2.64708 2.96942 0
M  V30 2574 H 257.336 -2.71511 5.96625 0
M  V30 2575 H 256.856 -3.79974 4.64091 0
M  V30 2576 H 258.535 -3.80166 5.23529 0
M  V30 2577 N 258.668 -1.30515 -0.883378 0
M  V30 2578 C 259.631 -1.1701 -1.97082 0
M  V30 2579 C 260.631 -0.10089 -1.60483 0
M  V30 2580 O 261.821 -0.349127 -1.70666 0
M  V30 2581 C 258.953 -0.793045 -3.31547 0
M  V30 2582 H 260.146 -2.13622 -2.10489 0
M  V30 2583 H 257.699 -1.13935 -1.06998 0
M  V30 2584 H 258.434 0.172499 -3.23841 0
M  V30 2585 H 258.219 -1.56576 -3.5948 0
M  V30 2586 H 259.709 -0.722073 -4.1131 0
M  V30 2587 N 260.146 1.09593 -1.13257 0
M  V30 2588 C 261.562 1.33775 -0.870423 0
M  V30 2589 C 261.762 1.95327 0.494926 0
M  V30 2590 O 260.818 2.19853 1.2418 0
M  V30 2591 C 262.131 2.25106 -1.99369 0
M  V30 2592 C 263.679 2.3862 -2.02558 0
M  V30 2593 C 264.154 3.33285 -3.14142 0
M  V30 2594 N 265.645 3.40857 -3.13641 0
M  V30 2595 C 266.38 4.14101 -3.96621 0
M  V30 2596 N 265.876 4.90157 -4.8961 0
M  V30 2597 N 267.669 4.09808 -3.84726 0
M  V30 2598 H 259.82 0.680136 -2.01216 0
M  V30 2599 H 262.083 0.362133 -0.876107 0
M  V30 2600 H 261.789 1.87103 -2.97801 0
M  V30 2601 H 261.663 3.25481 -1.90635 0
M  V30 2602 H 264.05 2.75887 -1.0474 0
M  V30 2603 H 264.131 1.38028 -2.15364 0
M  V30 2604 H 263.775 2.96741 -4.12198 0
M  V30 2605 H 263.705 4.33776 -2.98574 0
M  V30 2606 H 266.196 2.86624 -2.46282 0
M  V30 2607 H 266.509 5.4347 -5.49418 0
M  V30 2608 H 264.854 4.89251 -4.93617 0
M  V30 2609 H 268.045 3.4949 -3.11408 0
M  V30 2610 H 268.218 4.66629 -4.49623 0
M  V30 2611 N 261.624 0.925811 1.2754 0
M  V30 2612 C 262.571 0.422045 2.26908 0
M  V30 2613 C 263.541 -0.510029 1.58076 0
M  V30 2614 O 264.726 -0.429599 1.85901 0
M  V30 2615 C 261.866 -0.320837 3.43605 0
M  V30 2616 C 260.979 0.64513 4.27156 0
M  V30 2617 C 260.114 -0.117405 5.3107 0
M  V30 2618 C 259.153 0.841391 6.0629 0
M  V30 2619 N 258.29 0.111604 7.02011 0
M  V30 2620 H 263.13 1.27441 2.69375 0
M  V30 2621 H 260.667 0.639697 1.32462 0
M  V30 2622 H 262.625 -0.76785 4.10073 0
M  V30 2623 H 261.255 -1.13745 3.02096 0
M  V30 2624 H 260.307 1.21067 3.6062 0
M  V30 2625 H 261.619 1.37797 4.79389 0
M  V30 2626 H 260.773 -0.624422 6.03478 0
M  V30 2627 H 259.512 -0.883219 4.79636 0
M  V30 2628 H 258.517 1.35967 5.32722 0
M  V30 2629 H 259.742 1.60696 6.59813 0
M  V30 2630 H 257.688 -0.635999 6.5291 0
M  V30 2631 H 257.605 0.784044 7.51923 0
M  V30 2632 H 258.873 -0.374823 7.78598 0
M  V30 2633 N 263.102 -1.41638 0.69111 0
M  V30 2634 C 264.052 -2.28 -0.000107832 0
M  V30 2635 C 265.036 -1.41964 -0.757304 0
M  V30 2636 O 266.228 -1.65274 -0.633532 0
M  V30 2637 C 263.357 -3.30209 -0.938983 0
M  V30 2638 C 262.443 -4.23725 -0.17827 0
M  V30 2639 N 262.834 -4.99017 0.825563 0
M  V30 2640 C 261.132 -4.44071 -0.414392 0
M  V30 2641 C 261.833 -5.67431 1.28052 0
M  V30 2642 N 260.809 -5.40197 0.607304 0
M  V30 2643 H 264.611 -2.83644 0.769617 0
M  V30 2644 H 262.125 -1.53797 0.521562 0
M  V30 2645 H 264.122 -3.90898 -1.44929 0
M  V30 2646 H 262.782 -2.76126 -1.70836 0
M  V30 2647 H 263.793 -5.03671 1.20566 0
M  V30 2648 H 260.47 -4.01004 -1.162 0
M  V30 2649 H 261.86 -6.37801 2.11327 0
M  V30 2650 N 264.58 -0.43555 -1.51462 0
M  V30 2651 C 265.828 0.131254 -2.01673 0
M  V30 2652 C 266.149 1.43368 -1.32177 0
M  V30 2653 O 265.419 1.90524 -0.455769 0
M  V30 2654 H 263.999 0.0514954 -0.745223 0
M  V30 2655 H 266.661 -0.577847 -1.86137 0
M  V30 2656 H 265.757 0.308446 -3.10572 0
M  V30 2657 N 266.058 1.56714 -0.166846 0
M  V30 2658 C 267.021 2.16539 0.751232 0
M  V30 2659 C 268.021 1.11228 1.16125 0
M  V30 2660 O 269.211 1.36765 1.07894 0
M  V30 2661 C 266.343 2.74462 2.02196 0
M  V30 2662 H 267.536 2.99013 0.230499 0
M  V30 2663 H 265.089 1.56081 0.0826982 0
M  V30 2664 H 265.824 1.95709 2.58589 0
M  V30 2665 H 265.609 3.51527 1.73698 0
M  V30 2666 H 267.099 3.20489 2.67725 0
M  V30 2667 N 267.536 -0.106894 1.57237 0
M  V30 2668 C 268.764 -0.826389 1.8968 0
M  V30 2669 C 269.179 -1.72856 0.759353 0
M  V30 2670 O 268.536 -1.80503 -0.269263 0
M  V30 2671 C 268.587 -1.64967 3.21665 0
M  V30 2672 O 268.308 -0.783804 4.31031 0
M  V30 2673 C 269.809 -2.47326 3.67892 0
M  V30 2674 H 267.029 -0.236927 0.627779 0
M  V30 2675 H 269.573 -0.0876593 2.04312 0
M  V30 2676 H 267.728 -2.34103 3.08666 0
M  V30 2677 H 268.142 -1.35284 5.06753 0
M  V30 2678 H 269.616 -3.00604 4.6297 0
M  V30 2679 H 270.093 -3.25247 2.95146 0
M  V30 2680 H 270.699 -1.83411 3.83719 0
M  V30 2681 N 269.014 -1.53014 -0.377408 0
M  V30 2682 C 270.26 -1.68872 -1.12294 0
M  V30 2683 C 270.593 -0.433224 -1.89306 0
M  V30 2684 O 269.868 0.569258 -1.85983 0
M  V30 2685 C 270.151 -2.93115 -2.09179 0
M  V30 2686 C 270.004 -4.28794 -1.35853 0
M  V30 2687 C 271.323 -3.12928 -3.09458 0
M  V30 2688 H 268.442 -0.614518 -0.406862 0
M  V30 2689 H 271.084 -1.85633 -0.40503 0
M  V30 2690 H 269.234 -2.78956 -2.70399 0
M  V30 2691 H 270.906 -4.54742 -0.775082 0
M  V30 2692 H 269.149 -4.28744 -0.660364 0
M  V30 2693 H 269.82 -5.11837 -2.06706 0
M  V30 2694 H 272.296 -3.26194 -2.58334 0
M  V30 2695 H 271.172 -4.01316 -3.74482 0
M  V30 2696 H 271.433 -2.27669 -3.78971 0
M  V30 2697 N 270.492 0.636531 -1.44174 0
M  V30 2698 C 271.738 1.39826 -1.4689 0
M  V30 2699 C 272.071 1.93947 -0.0990585 0
M  V30 2700 O 271.346 1.73325 0.882544 0
M  V30 2701 C 271.629 2.56751 -2.5249 0
M  V30 2702 C 271.482 2.08014 -3.98811 0
M  V30 2703 C 272.801 3.58946 -2.54649 0
M  V30 2704 H 269.92 0.507075 -0.53483 0
M  V30 2705 H 272.562 0.720188 -1.75822 0
M  V30 2706 H 270.712 3.14597 -2.2795 0
M  V30 2707 H 272.384 1.5504 -4.34466 0
M  V30 2708 H 270.627 1.39242 -4.10846 0
M  V30 2709 H 271.298 2.92169 -4.68339 0
M  V30 2710 H 273.774 3.1089 -2.76563 0
M  V30 2711 H 272.65 4.38286 -3.3045 0
M  V30 2712 H 272.911 4.12655 -1.58646 0
M  V30 2713 N 271.97 1.30982 0.876444 0
M  V30 2714 C 273.216 1.20474 1.63138 0
M  V30 2715 C 273.549 -0.238096 1.92735 0
M  V30 2716 O 272.824 -1.1692 1.55435 0
M  V30 2717 C 273.107 2.04244 2.96574 0
M  V30 2718 C 272.96 3.56793 2.73896 0
M  V30 2719 C 274.279 1.88684 3.97601 0
M  V30 2720 H 271.398 0.439001 0.591985 0
M  V30 2721 H 274.04 1.60704 1.01361 0
M  V30 2722 H 272.19 1.70063 3.493 0
M  V30 2723 H 273.862 4.01077 2.27892 0
M  V30 2724 H 272.105 3.80548 2.08245 0
M  V30 2725 H 272.776 4.10706 3.68815 0
M  V30 2726 H 275.252 2.18584 3.54062 0
M  V30 2727 H 274.128 2.4961 4.88862 0
M  V30 2728 H 274.389 0.848343 4.33884 0
M  V30 2729 N 273.449 -1.08991 1.13837 0
M  V30 2730 C 274.726 -1.77863 0.813876 0
M  V30 2731 C 275.106 -1.99375 -0.693746 0
M  V30 2732 O 274.454 -1.59875 -1.63255 0
M  V30 2733 C 274.664 -3.0986 1.60586 0
M  V30 2734 C 276.012 -3.84493 1.8014 0
M  V30 2735 O 277.036 -3.19624 1.57222 0
M  V30 2736 O 275.895 -5.00957 2.18413 0
M  V30 2737 H 272.989 -0.771589 0.297624 0
M  V30 2738 H 275.535 -1.15507 1.24323 0
M  V30 2739 H 274.307 -2.89715 2.63022 0
M  V30 2740 H 273.93 -3.79942 1.17173 0
M  V30 2741 N 274.927 -0.932562 -1.27047 0
M  V30 2742 C 275.875 -0.42603 -2.28665 0
M  V30 2743 C 276.869 0.49219 -1.62092 0
M  V30 2744 O 278.075 0.371355 -1.76128 0
M  V30 2745 H 274.45 -0.119213 -0.742491 0
M  V30 2746 H 276.421 -1.29579 -2.68797 0
M  V30 2747 C 275.17 0.301426 -3.46391 0
M  V30 2748 H 274.493 -0.39595 -3.97834 0
M  V30 2749 H 275.933 0.6202 -4.1944 0
M  V30 2750 C 274.392 1.51616 -3.00856 0
M  V30 2751 O 274.922 2.61476 -3.04948 0
M  V30 2752 N 273.128 1.36969 -2.56296 0
M  V30 2753 H 272.675 0.475873 -2.53166 0
M  V30 2754 H 272.633 2.18368 -2.26192 0
M  V30 2755 N 276.405 1.4127 -0.698611 0
M  V30 2756 C 277.633 2.05503 -0.239992 0
M  V30 2757 C 278.048 1.52584 1.11191 0
M  V30 2758 O 277.405 0.675323 1.69545 0
M  V30 2759 C 277.456 3.60987 -0.192429 0
M  V30 2760 O 277.177 4.1195 -1.49094 0
M  V30 2761 C 278.678 4.42371 0.28681 0
M  V30 2762 H 275.898 0.661748 -0.111045 0
M  V30 2763 H 278.442 1.80987 -0.95205 0
M  V30 2764 H 276.597 3.84533 0.470472 0
M  V30 2765 H 277.011 5.06018 -1.38007 0
M  V30 2766 H 278.485 5.51344 0.26896 0
M  V30 2767 H 278.962 4.18699 1.32619 0
M  V30 2768 H 279.568 4.23897 -0.345201 0
M  V30 2769 N 277.883 0.443576 1.51229 0
M  V30 2770 C 279.113 -0.119117 2.06256 0
M  V30 2771 C 279.521 -1.36471 1.31043 0
M  V30 2772 O 278.864 -1.80034 0.365151 0
M  V30 2773 C 278.926 -0.500546 3.55998 0
M  V30 2774 C 278.59 0.639125 4.52509 0
M  V30 2775 C 279.587 1.51311 4.97394 0
M  V30 2776 C 277.272 0.821632 4.95535 0
M  V30 2777 C 279.266 2.55425 5.83984 0
M  V30 2778 C 276.953 1.86603 5.81913 0
M  V30 2779 C 277.951 2.73072 6.26036 0
M  V30 2780 O 277.639 3.75718 7.10698 0
M  V30 2781 H 277.371 -0.00857665 0.675946 0
M  V30 2782 H 279.925 0.623288 1.95715 0
M  V30 2783 H 278.155 -1.29575 3.64345 0
M  V30 2784 H 279.844 -0.995116 3.93513 0
M  V30 2785 H 280.61 1.38367 4.64844 0
M  V30 2786 H 276.489 0.158149 4.60729 0
M  V30 2787 H 280.033 3.22949 6.18344 0
M  V30 2788 H 275.93 1.99564 6.13876 0
M  V30 2789 H 276.698 3.72374 7.2889 0
M  V30 2790 N 279.361 -1.56624 0.175154 0
M  V30 2791 C 280.601 -1.98894 -0.471221 0
M  V30 2792 C 280.965 -1.05889 -1.60161 0
M  V30 2793 O 282.166 -1.37315 -2.3108 0
M  V30 2794 C 280.437 -3.44865 -0.938241 0
M  V30 2795 S 281.996 -4.09164 -1.58526 0
M  V30 2796 H 278.814 -0.694686 -0.151434 0
M  V30 2797 H 281.416 -1.93577 0.27352 0
M  V30 2798 H 280.12 -4.10265 -0.10518 0
M  V30 2799 H 279.651 -3.53956 -1.71693 0
M  V30 2800 H 281.666 -4.04528 -2.87352 0
M  V30 2801 N 280.839 0.0985539 -1.57292 0
M  V30 2802 C 282.067 0.816318 -1.90115 0
M  V30 2803 C 282.482 1.72451 -0.768509 0
M  V30 2804 O 281.839 1.80643 0.259687 0
M  V30 2805 C 281.89 1.63259 -3.22535 0
M  V30 2806 O 281.611 0.760934 -4.31441 0
M  V30 2807 C 283.112 2.45372 -3.69199 0
M  V30 2808 H 280.332 0.233595 -0.629027 0
M  V30 2809 H 282.876 0.0768229 -2.04356 0
M  V30 2810 H 281.031 2.32463 -3.09903 0
M  V30 2811 H 281.445 1.32595 -5.07463 0
M  V30 2812 H 282.919 2.98144 -4.64558 0
M  V30 2813 H 283.396 3.23677 -2.96867 0
M  V30 2814 H 284.002 1.81373 -3.84687 0
M  V30 2815 N 282.317 1.53212 0.369288 0
M  V30 2816 C 283.728 1.60943 0.946276 0
M  V30 2817 C 284.079 0.47452 1.90375 0
M  V30 2818 O 283.204 -0.399597 2.12679 0
M  V30 2819 C 283.799 2.91715 1.72302 0
M  V30 2820 C 282.358 3.01792 2.24941 0
M  V30 2821 C 281.505 2.56211 1.06072 0
M  V30 2822 H 284.456 1.58007 0.148198 0
M  V30 2823 H 284.477 2.79309 2.58393 0
M  V30 2824 H 283.989 3.74295 1.0259 0
M  V30 2825 H 282.09 2.23791 2.97906 0
M  V30 2826 H 282.203 4.06803 2.53077 0
M  V30 2827 H 280.567 2.10998 1.4266 0
M  V30 2828 H 281.35 3.41206 0.378639 0
M  V30 2829 N 283.795 -0.628877 1.44509 0
M  V30 2830 C 285.025 -1.41349 1.50678 0
M  V30 2831 C 285.433 -1.88745 0.131075 0
M  V30 2832 O 284.776 -1.61592 -0.87371 0
M  V30 2833 C 284.838 -2.66608 2.41165 0
M  V30 2834 C 284.502 -2.40993 3.88293 0
M  V30 2835 C 285.499 -2.0268 4.78766 0
M  V30 2836 C 283.184 -2.54563 4.33016 0
M  V30 2837 C 285.178 -1.78269 6.11963 0
M  V30 2838 C 282.865 -2.29766 5.6626 0
M  V30 2839 C 283.863 -1.91678 6.55552 0
M  V30 2840 O 283.551 -1.67158 7.86329 0
M  V30 2841 H 283.283 -0.439851 0.51333 0
M  V30 2842 H 285.837 -0.776084 1.90174 0
M  V30 2843 H 284.067 -3.32994 1.96601 0
M  V30 2844 H 285.756 -3.28615 2.38259 0
M  V30 2845 H 286.522 -1.91751 4.45485 0
M  V30 2846 H 282.401 -2.83179 3.63773 0
M  V30 2847 H 285.945 -1.48465 6.81619 0
M  V30 2848 H 281.842 -2.40306 5.99102 0
M  V30 2849 H 282.61 -1.81386 7.98149 0
M  V30 2850 N 285.273 -1.31445 -0.869486 0
M  V30 2851 C 286.203 -1.21727 -1.99261 0
M  V30 2852 C 287.184 -0.104359 -1.6978 0
M  V30 2853 O 288.369 -0.289038 -1.92037 0
M  V30 2854 C 285.499 -0.924317 -3.34774 0
M  V30 2855 C 284.453 -1.99685 -3.78563 0
M  V30 2856 C 283.779 -1.55658 -5.11541 0
M  V30 2857 C 285.079 -3.41003 -3.95619 0
M  V30 2858 H 286.773 -2.1569 -2.07649 0
M  V30 2859 H 284.319 -1.03839 -0.997675 0
M  V30 2860 H 286.272 -0.842934 -4.12883 0
M  V30 2861 H 284.996 0.0509793 -3.2656 0
M  V30 2862 H 283.655 -2.06813 -3.02694 0
M  V30 2863 H 283.303 -0.569132 -4.9977 0
M  V30 2864 H 283.003 -2.27409 -5.41811 0
M  V30 2865 H 284.527 -1.48928 -5.92159 0
M  V30 2866 H 285.941 -3.36547 -4.64122 0
M  V30 2867 H 284.338 -4.10975 -4.37286 0
M  V30 2868 H 285.408 -3.81754 -2.98985 0
M  V30 2869 N 286.751 1.08385 -1.14413 0
M  V30 2870 C 287.683 2.1519 -0.789036 0
M  V30 2871 C 288.696 1.61638 0.19417 0
M  V30 2872 O 289.885 1.78479 -0.0275711 0
M  V30 2873 C 286.985 3.38565 -0.15058 0
M  V30 2874 C 286.158 4.21501 -1.16857 0
M  V30 2875 C 285.217 5.23277 -0.553832 0
M  V30 2876 O 284.243 5.56041 -1.21686 0
M  V30 2877 N 285.445 5.76629 0.669296 0
M  V30 2878 H 288.21 2.46257 -1.70814 0
M  V30 2879 H 285.771 1.24198 -1.03858 0
M  V30 2880 H 287.763 4.03777 0.273181 0
M  V30 2881 H 286.333 3.05299 0.671667 0
M  V30 2882 H 285.553 3.52265 -1.76926 0
M  V30 2883 H 286.841 4.73731 -1.85624 0
M  V30 2884 H 286.239 5.52243 1.22654 0
M  V30 2885 H 284.796 6.43521 1.03556 0
M  V30 2886 N 288.23 0.939286 1.26551 0
M  V30 2887 C 289.646 0.641304 1.46149 0
M  V30 2888 C 289.846 -0.805964 1.84679 0
M  V30 2889 O 288.902 -1.58278 1.96734 0
M  V30 2890 C 290.215 1.6011 2.54529 0
M  V30 2891 C 291.763 1.6106 2.68382 0
M  V30 2892 C 292.238 2.55765 3.79932 0
M  V30 2893 N 293.729 2.5404 3.87322 0
M  V30 2894 C 294.464 3.24004 4.73085 0
M  V30 2895 N 293.96 4.03388 5.63249 0
M  V30 2896 N 295.753 3.12965 4.66914 0
M  V30 2897 H 287.904 1.87478 0.998285 0
M  V30 2898 H 290.167 0.805559 0.499779 0
M  V30 2899 H 289.873 2.63412 2.33039 0
M  V30 2900 H 289.747 1.35171 3.52149 0
M  V30 2901 H 292.134 0.584835 2.89247 0
M  V30 2902 H 292.215 1.90053 1.71212 0
M  V30 2903 H 291.859 3.58458 3.5982 0
M  V30 2904 H 291.789 2.24063 4.76554 0
M  V30 2905 H 294.28 1.96396 3.22858 0
M  V30 2906 H 294.593 4.5373 6.25579 0
M  V30 2907 H 292.938 4.07489 5.63008 0
M  V30 2908 H 296.129 2.50432 3.95476 0
M  V30 2909 H 296.302 3.67759 5.33533 0
M  V30 2910 N 289.708 -1.40897 0.706093 0
M  V30 2911 C 291.119 -1.84023 0.315052 0
M  V30 2912 C 291.47 -1.5906 -1.14866 0
M  V30 2913 O 290.595 -1.06651 -1.88293 0
M  V30 2914 C 291.19 -3.34055 0.565038 0
M  V30 2915 C 289.749 -3.7571 0.227806 0
M  V30 2916 C 288.896 -2.64204 0.842122 0
M  V30 2917 H 291.847 -1.303 0.905963 0
M  V30 2918 H 291.868 -3.80107 -0.172843 0
M  V30 2919 H 291.38 -3.52192 1.63042 0
M  V30 2920 H 289.481 -3.63172 -0.832895 0
M  V30 2921 H 289.594 -4.74103 0.690174 0
M  V30 2922 H 287.958 -2.53255 0.270893 0
M  V30 2923 H 288.741 -2.85155 1.91158 0
M  V30 2924 N 291.186 -0.45159 -1.50991 0
M  V30 2925 C 292.116 0.342898 -2.30969 0
M  V30 2926 C 293.097 1.00815 -1.37005 0
M  V30 2927 O 294.282 1.00907 -1.65926 0
M  V30 2928 C 291.412 1.43637 -3.16205 0
M  V30 2929 C 290.366 0.893818 -4.18563 0
M  V30 2930 C 289.692 2.08411 -4.92411 0
M  V30 2931 C 290.992 -0.0815568 -5.22236 0
M  V30 2932 H 292.686 -0.324556 -2.97636 0
M  V30 2933 H 290.232 -0.157531 -1.43136 0
M  V30 2934 H 292.185 1.9995 -3.70942 0
M  V30 2935 H 290.909 2.13232 -2.47386 0
M  V30 2936 H 289.568 0.352798 -3.64898 0
M  V30 2937 H 289.216 2.76658 -4.20082 0
M  V30 2938 H 288.916 1.72741 -5.61636 0
M  V30 2939 H 290.44 2.65251 -5.49976 0
M  V30 2940 H 291.854 0.391742 -5.7196 0
M  V30 2941 H 290.251 -0.351551 -5.99069 0
M  V30 2942 H 291.321 -1.01374 -4.74185 0
M  V30 2943 N 292.664 1.56529 -0.183458 0
M  V30 2944 C 293.574 2.22144 0.754272 0
M  V30 2945 C 294.59 1.21684 1.24374 0
M  V30 2946 O 295.766 1.54385 1.29333 0
M  V30 2947 C 292.831 2.85884 1.96141 0
M  V30 2948 C 291.892 4.01579 1.51765 0
M  V30 2949 C 291.125 4.6227 2.66725 0
M  V30 2950 O 291.348 4.21865 3.83909 0
M  V30 2951 O 290.282 5.51936 2.40104 0
M  V30 2952 H 294.108 3.02861 0.225527 0
M  V30 2953 H 291.693 1.49331 0.0453032 0
M  V30 2954 H 293.575 3.26253 2.66715 0
M  V30 2955 H 292.25 2.08154 2.47899 0
M  V30 2956 H 291.157 3.65856 0.781049 0
M  V30 2957 H 292.49 4.80938 1.04686 0
M  V30 2958 N 294.142 -0.090211 1.57342 0
M  V30 2959 C 295.072 -1.10976 2.05443 0
M  V30 2960 C 296.053 -1.41482 0.944284 0
M  V30 2961 O 297.238 -1.51428 1.21586 0
M  V30 2962 C 294.368 -2.42831 2.48295 0
M  V30 2963 C 293.322 -2.26721 3.63018 0
M  V30 2964 C 292.648 -3.63796 3.91863 0
M  V30 2965 C 293.948 -1.7037 4.93732 0
M  V30 2966 H 295.642 -0.709564 2.9087 0
M  V30 2967 H 293.188 -0.339874 1.39932 0
M  V30 2968 H 295.141 -3.14431 2.80555 0
M  V30 2969 H 293.865 -2.84795 1.59873 0
M  V30 2970 H 292.524 -1.57565 3.31012 0
M  V30 2971 H 292.172 -4.03297 3.00601 0
M  V30 2972 H 291.872 -3.53861 4.69101 0
M  V30 2973 H 293.396 -4.36855 4.26603 0
M  V30 2974 H 294.81 -2.31816 5.24342 0
M  V30 2975 H 293.207 -1.71181 5.75167 0
M  V30 2976 H 294.277 -0.663542 4.80339 0
M  V30 2977 N 295.62 -1.53406 -0.361157 0
M  V30 2978 C 296.868 -1.69467 -1.10115 0
M  V30 2979 C 297.189 -0.451352 -1.89705 0
M  V30 2980 O 296.459 0.534636 -1.88463 0
M  V30 2981 H 295.039 -0.624749 -0.409508 0
M  V30 2982 H 297.701 -1.90609 -0.406699 0
M  V30 2983 H 296.797 -2.55774 -1.78847 0
M  V30 2984 N 297.098 0.621204 -1.44841 0
M  V30 2985 C 298.061 1.71459 -1.521 0
M  V30 2986 C 299.061 1.55696 -0.401933 0
M  V30 2987 O 300.251 1.61011 -0.664925 0
M  V30 2988 C 297.383 3.10624 -1.40447 0
M  V30 2989 H 298.576 1.66394 -2.49506 0
M  V30 2990 H 296.129 0.835745 -1.3208 0
M  V30 2991 H 296.864 3.21277 -0.441737 0
M  V30 2992 H 296.649 3.23473 -2.21602 0
M  V30 2993 H 298.139 3.90293 -1.4853 0
M  V30 2994 N 298.576 1.31904 0.862503 0
M  V30 2995 C 299.853 1.12644 1.59908 0
M  V30 2996 C 300.233 -0.316104 2.0872 0
M  V30 2997 O 299.581 -1.31145 1.87118 0
M  V30 2998 C 299.791 2.1472 2.7513 0
M  V30 2999 C 301.139 2.47637 3.44907 0
M  V30 3000 O 302.163 2.13205 2.85346 0
M  V30 3001 O 301.022 3.06632 4.52371 0
M  V30 3002 H 298.116 0.43416 0.703871 0
M  V30 3003 H 300.662 1.43408 0.907314 0
M  V30 3004 H 299.434 3.1172 2.3653 0
M  V30 3005 H 299.057 1.84905 3.51989 0
M  V30 3006 N 300.054 -1.07777 1.14986 0
M  V30 3007 C 300.984 -2.16865 0.865557 0
M  V30 3008 C 301.965 -1.69123 -0.182083 0
M  V30 3009 O 303.15 -1.94164 -0.0373815 0
M  V30 3010 C 300.28 -3.45539 0.349313 0
M  V30 3011 C 299.234 -4.06708 1.33313 0
M  V30 3012 C 298.56 -5.30411 0.675918 0
M  V30 3013 C 299.86 -4.47241 2.69764 0
M  V30 3014 H 301.554 -2.40905 1.77778 0
M  V30 3015 H 299.1 -1.15781 0.856203 0
M  V30 3016 H 301.053 -4.21174 0.137983 0
M  V30 3017 H 299.777 -3.21072 -0.598362 0
M  V30 3018 H 298.436 -3.33112 1.53075 0
M  V30 3019 H 298.084 -5.02232 -0.277767 0
M  V30 3020 H 297.784 -5.72293 1.33244 0
M  V30 3021 H 299.308 -6.08755 0.474262 0
M  V30 3022 H 300.722 -5.14025 2.53873 0
M  V30 3023 H 299.119 -5.00062 3.3175 0
M  V30 3024 H 300.189 -3.58818 3.26156 0
M  V30 3025 N 301.532 -0.945985 -1.26051 0
M  V30 3026 C 302.778 -0.597002 -1.93814 0
M  V30 3027 C 303.111 0.862484 -1.73997 0
M  V30 3028 O 302.386 1.61769 -1.07986 0
M  V30 3029 C 302.669 -0.945937 -3.47454 0
M  V30 3030 C 302.522 -2.46052 -3.76535 0
M  V30 3031 C 303.841 -0.464785 -4.37639 0
M  V30 3032 H 300.96 -0.218366 -0.703907 0
M  V30 3033 H 303.602 -1.18107 -1.48831 0
M  V30 3034 H 301.752 -0.448902 -3.85898 0
M  V30 3035 H 303.424 -3.03065 -3.47778 0
M  V30 3036 H 301.667 -2.90194 -3.22444 0
M  V30 3037 H 302.338 -2.65517 -4.83947 0
M  V30 3038 H 304.814 -0.891016 -4.06448 0
M  V30 3039 H 303.69 -0.737712 -5.4392 0
M  V30 3040 H 303.951 0.635274 -4.37512 0
M  V30 3041 N 303.011 1.40521 -0.713556 0
M  V30 3042 C 304.257 2.01221 -0.252564 0
M  V30 3043 C 304.59 1.56444 1.1506 0
M  V30 3044 O 303.865 0.783597 1.78017 0
M  V30 3045 C 304.148 3.58582 -0.330332 0
M  V30 3046 C 304.001 4.13437 -1.77173 0
M  V30 3047 C 305.32 4.39079 0.299641 0
M  V30 3048 H 302.439 0.731077 -0.0932471 0
M  V30 3049 H 305.081 1.67026 -0.905673 0
M  V30 3050 H 303.231 3.87844 0.225737 0
M  V30 3051 H 304.903 3.9498 -2.38303 0
M  V30 3052 H 303.146 3.67801 -2.3001 0
M  V30 3053 H 303.817 5.22597 -1.77755 0
M  V30 3054 H 306.293 4.15735 -0.174139 0
M  V30 3055 H 305.169 5.4848 0.214771 0
M  V30 3056 H 305.43 4.19915 1.38288 0
M  V30 3057 N 304.489 0.459591 1.5075 0
M  V30 3058 C 305.439 -0.358926 2.25157 0
M  V30 3059 C 306.423 -0.971285 1.28276 0
M  V30 3060 O 307.615 -0.885739 1.53244 0
M  V30 3061 C 304.744 -1.44695 3.11317 0
M  V30 3062 C 303.83 -0.842894 4.15639 0
M  V30 3063 N 304.221 0.0299373 5.05791 0
M  V30 3064 C 302.519 -1.10809 4.32015 0
M  V30 3065 C 303.22 0.371563 5.80512 0
M  V30 3066 N 302.196 -0.250409 5.43023 0
M  V30 3067 H 305.998 0.313636 2.92222 0
M  V30 3068 H 303.512 0.273021 1.60089 0
M  V30 3069 H 305.509 -2.04641 3.63218 0
M  V30 3070 H 304.169 -2.12162 2.45799 0
M  V30 3071 H 305.18 0.39797 5.16369 0
M  V30 3072 H 301.857 -1.7786 3.77719 0
M  V30 3073 H 303.247 1.08319 6.63111 0
M  V30 3074 N 305.967 -1.56429 0.191757 0
M  V30 3075 C 307.192 -2.02309 -0.456706 0
M  V30 3076 C 307.617 -1.07103 -1.5463 0
M  V30 3077 O 306.975 -0.0539677 -1.8122 0
M  V30 3078 C 307.023 -3.46654 -0.993159 0
M  V30 3079 O 306.127 -3.54559 -2.10622 0
M  V30 3080 H 305.468 -0.655303 -0.107114 0
M  V30 3081 H 307.998 -2.02364 0.301653 0
M  V30 3082 H 308.008 -3.86377 -1.31061 0
M  V30 3083 H 306.683 -4.1544 -0.195504 0
M  V30 3084 H 305.26 -3.26708 -1.79767 0
M  V30 3085 N 307.445 0.0818655 -1.57387 0
M  V30 3086 C 308.408 1.08265 -2.02018 0
M  V30 3087 C 309.408 1.32183 -0.915664 0
M  V30 3088 O 310.598 1.28073 -1.18081 0
M  V30 3089 C 307.73 2.42871 -2.39221 0
M  V30 3090 H 308.923 0.698204 -2.91659 0
M  V30 3091 H 306.476 0.327303 -1.52835 0
M  V30 3092 H 307.211 2.86167 -1.52575 0
M  V30 3093 H 306.996 2.26855 -3.19811 0
M  V30 3094 H 308.486 3.14826 -2.74362 0
M  V30 3095 N 308.923 1.53595 0.353017 0
M  V30 3096 C 310.151 1.74311 1.1146 0
M  V30 3097 C 310.566 0.477854 1.82653 0
M  V30 3098 O 309.923 -0.549977 1.74016 0
M  V30 3099 C 309.974 2.91694 2.13534 0
M  V30 3100 O 309.695 4.13325 1.45238 0
M  V30 3101 C 311.196 3.24384 3.02142 0
M  V30 3102 H 308.416 0.582669 0.332773 0
M  V30 3103 H 310.96 2.00386 0.408107 0
M  V30 3104 H 309.115 2.67977 2.79763 0
M  V30 3105 H 309.529 4.79148 2.13349 0
M  V30 3106 H 311.003 4.09893 3.69718 0
M  V30 3107 H 311.48 2.40282 3.67643 0
M  V30 3108 H 312.086 3.50073 2.41514 0
M  V30 3109 N 310.401 -0.613514 1.45168 0
M  V30 3110 C 311.348 -1.72456 1.53387 0
M  V30 3111 C 312.318 -1.6169 0.380191 0
M  V30 3112 O 313.503 -1.81356 0.592836 0
M  V30 3113 C 310.643 -3.10753 1.50088 0
M  V30 3114 C 309.756 -3.32368 2.75963 0
M  V30 3115 C 308.891 -4.60737 2.64376 0
M  V30 3116 C 307.93 -4.7559 3.85332 0
M  V30 3117 N 307.067 -5.95253 3.72315 0
M  V30 3118 H 311.907 -1.64768 2.48305 0
M  V30 3119 H 309.444 -0.803503 1.23216 0
M  V30 3120 H 311.402 -3.90758 1.46164 0
M  V30 3121 H 310.032 -3.17413 0.587243 0
M  V30 3122 H 309.084 -2.4618 2.89999 0
M  V30 3123 H 310.396 -3.39218 3.65695 0
M  V30 3124 H 309.55 -5.48928 2.58385 0
M  V30 3125 H 308.289 -4.56275 1.72233 0
M  V30 3126 H 307.294 -3.85824 3.91688 0
M  V30 3127 H 308.519 -4.81854 4.78533 0
M  V30 3128 H 306.465 -5.91847 2.82937 0
M  V30 3129 H 306.382 -6.03236 4.55677 0
M  V30 3130 H 307.65 -6.85958 3.70246 0
M  V30 3131 N 311.879 -1.3236 -0.855495 0
M  V30 3132 C 313.109 -1.25688 -1.6397 0
M  V30 3133 C 313.517 0.177592 -1.88365 0
M  V30 3134 O 312.86 1.12485 -1.45234 0
M  V30 3135 C 312.922 -1.94602 -3.02275 0
M  V30 3136 C 312.586 -3.43937 -3.00926 0
M  V30 3137 C 313.583 -4.39435 -2.77835 0
M  V30 3138 C 311.268 -3.85858 -3.21588 0
M  V30 3139 C 313.262 -5.74829 -2.75409 0
M  V30 3140 C 310.949 -5.21361 -3.18789 0
M  V30 3141 C 311.947 -6.15658 -2.95727 0
M  V30 3142 O 311.635 -7.48681 -2.928 0
M  V30 3143 H 311.367 -0.434972 -0.51747 0
M  V30 3144 H 313.921 -1.75023 -1.075 0
M  V30 3145 H 312.151 -1.39836 -3.60531 0
M  V30 3146 H 313.84 -1.81651 -3.62985 0
M  V30 3147 H 314.606 -4.08374 -2.6164 0
M  V30 3148 H 310.485 -3.12883 -3.38564 0
M  V30 3149 H 314.029 -6.48404 -2.57328 0
M  V30 3150 H 309.926 -5.52052 -3.34528 0
M  V30 3151 H 310.694 -7.5803 -3.0876 0
M  V30 3152 N 313.357 1.07166 -1.15556 0
M  V30 3153 C 314.287 2.16403 -0.877046 0
M  V30 3154 C 315.268 1.69217 0.173111 0
M  V30 3155 O 316.453 1.94181 0.027084 0
M  V30 3156 C 313.583 3.45349 -0.367632 0
M  V30 3157 C 312.537 4.05995 -1.35468 0
M  V30 3158 C 311.863 5.30045 -0.704038 0
M  V30 3159 C 313.163 4.45804 -2.72132 0
M  V30 3160 H 314.857 2.39959 -1.79053 0
M  V30 3161 H 312.403 1.15325 -0.862331 0
M  V30 3162 H 314.356 4.21095 -0.160317 0
M  V30 3163 H 313.08 3.21385 0.581326 0
M  V30 3164 H 311.739 3.32296 -1.54839 0
M  V30 3165 H 311.387 5.02373 0.251128 0
M  V30 3166 H 311.087 5.71579 -1.36277 0
M  V30 3167 H 312.611 6.08495 -0.50654 0
M  V30 3168 H 314.025 5.12671 -2.56595 0
M  V30 3169 H 312.422 4.98296 -3.34397 0
M  V30 3170 H 313.492 3.57083 -3.28054 0
M  V30 3171 N 314.835 0.952656 1.25548 0
M  V30 3172 C 316.06 0.623025 1.97821 0
M  V30 3173 C 316.485 -0.7976 1.70352 0
M  V30 3174 O 315.843 -1.53905 0.958283 0
M  V30 3175 C 315.891 0.885532 3.49558 0
M  V30 3176 O 314.995 -0.0366641 4.12384 0
M  V30 3177 H 314.336 0.237082 0.620232 0
M  V30 3178 H 316.866 1.27871 1.59719 0
M  V30 3179 H 316.876 0.811009 3.99858 0
M  V30 3180 H 315.551 1.92094 3.6888 0
M  V30 3181 H 314.128 0.0898954 3.72792 0
M  V30 3182 N 316.313 -1.40141 0.720998 0
M  V30 3183 C 317.561 -2.0039 0.262323 0
M  V30 3184 C 317.882 -1.57469 -1.15015 0
M  V30 3185 O 317.152 -0.816582 -1.78069 0
M  V30 3186 H 315.732 -0.741063 0.093996 0
M  V30 3187 H 318.394 -1.71398 0.927835 0
M  V30 3188 H 317.49 -3.10658 0.299671 0
M  V30 3189 N 317.792 -0.46758 -1.50504 0
M  V30 3190 C 318.742 0.34698 -2.25344 0
M  V30 3191 C 319.726 0.964469 -1.2879 0
M  V30 3192 O 320.918 0.8776 -1.53711 0
M  V30 3193 C 318.047 1.43042 -3.1208 0
M  V30 3194 C 317.133 0.82084 -4.16081 0
M  V30 3195 N 317.524 -0.0567602 -5.05768 0
M  V30 3196 C 315.822 1.08517 -4.32597 0
M  V30 3197 C 316.523 -0.402343 -5.80307 0
M  V30 3198 N 315.499 0.221607 -5.43148 0
M  V30 3199 H 319.301 -0.329129 -2.92051 0
M  V30 3200 H 316.815 -0.281508 -1.59942 0
M  V30 3201 H 318.812 2.02712 -3.64299 0
M  V30 3202 H 317.472 2.10856 -2.46921 0
M  V30 3203 H 318.483 -0.425349 -5.1615 0
M  V30 3204 H 315.16 1.75855 -3.78657 0
M  V30 3205 H 316.55 -1.11834 -6.62528 0
M  V30 3206 N 319.27 1.56325 -0.20005 0
M  V30 3207 C 320.518 1.97329 0.436547 0
M  V30 3208 C 320.839 1.08826 1.61808 0
M  V30 3209 O 320.109 0.160604 1.95241 0
M  V30 3210 H 318.689 0.728714 0.164272 0
M  V30 3211 H 321.351 1.92761 -0.287937 0
M  V30 3212 H 320.447 3.02264 0.777353 0
M  V30 3213 N 320.748 -0.0735177 1.57428 0
M  V30 3214 C 322.025 -0.805903 1.78226 0
M  V30 3215 C 322.405 -1.95874 0.787189 0
M  V30 3216 O 321.753 -2.2779 -0.180029 0
M  V30 3217 C 321.963 -1.28045 3.24662 0
M  V30 3218 C 323.311 -1.71453 3.88444 0
M  V30 3219 O 324.335 -1.37616 3.28543 0
M  V30 3220 O 323.194 -2.34093 4.93825 0
M  V30 3221 H 320.288 -0.386041 0.73137 0
M  V30 3222 H 322.834 -0.0537269 1.69615 0
M  V30 3223 H 321.606 -0.455476 3.8864 0
M  V30 3224 H 321.229 -2.094 3.37991 0
M  V30 3225 N 322.226 -1.5378 -0.344866 0
M  V30 3226 C 323.475 -1.7018 -1.08267 0
M  V30 3227 C 323.788 -0.471 -1.89845 0
M  V30 3228 O 324.994 -0.515917 -2.66553 0
M  V30 3229 C 323.45 -3.00923 -1.97417 0
M  V30 3230 C 323.058 -4.31335 -1.21053 0
M  V30 3231 C 324.802 -3.26688 -2.71063 0
M  V30 3232 C 322.709 -5.53153 -2.09225 0
M  V30 3233 H 321.639 -0.634138 -0.407903 0
M  V30 3234 H 324.29 -1.8028 -0.342246 0
M  V30 3235 H 322.672 -2.84676 -2.75274 0
M  V30 3236 H 323.846 -4.58281 -0.481159 0
M  V30 3237 H 322.161 -4.12173 -0.591813 0
M  V30 3238 H 324.758 -4.1489 -3.37299 0
M  V30 3239 H 325.101 -2.43639 -3.37558 0
M  V30 3240 H 325.634 -3.43705 -2.0028 0
M  V30 3241 H 322.373 -6.38741 -1.47274 0
M  V30 3242 H 321.893 -5.30458 -2.79955 0
M  V30 3243 H 323.572 -5.88744 -2.68308 0
M  V30 3244 N 323.704 0.605807 -1.45491 0
M  V30 3245 C 324.932 1.39136 -1.5313 0
M  V30 3246 C 325.347 1.88082 -0.164507 0
M  V30 3247 O 324.704 1.62316 0.834247 0
M  V30 3248 C 324.755 2.59463 -2.51716 0
M  V30 3249 O 324.476 2.12551 -3.83084 0
M  V30 3250 C 325.977 3.52301 -2.6907 0
M  V30 3251 H 323.197 0.425849 -0.51855 0
M  V30 3252 H 325.741 0.73865 -1.90694 0
M  V30 3253 H 323.896 3.20772 -2.17219 0
M  V30 3254 H 324.31 2.90744 -4.36541 0
M  V30 3255 H 325.784 4.33271 -3.42024 0
M  V30 3256 H 326.261 4.02757 -1.75167 0
M  V30 3257 H 326.867 2.96845 -3.04571 0
M  V30 3258 N 325.182 1.32811 0.848464 0
M  V30 3259 C 326.145 1.22194 1.9391 0
M  V30 3260 C 327.145 0.143404 1.60159 0
M  V30 3261 O 328.335 0.394253 1.6968 0
M  V30 3262 C 325.467 0.88067 3.29328 0
M  V30 3263 H 326.66 2.19127 2.04752 0
M  V30 3264 H 324.213 1.16731 1.0394 0
M  V30 3265 H 324.948 -0.0865776 3.24184 0
M  V30 3266 H 324.733 1.66052 3.55203 0
M  V30 3267 H 326.223 0.830871 4.09251 0
M  V30 3268 N 326.66 -1.06551 1.16123 0
M  V30 3269 C 327.908 -1.78947 0.939267 0
M  V30 3270 C 328.229 -1.87532 -0.534476 0
M  V30 3271 O 327.499 -1.38211 -1.38833 0
M  V30 3272 H 326.079 -0.662807 0.344523 0
M  V30 3273 H 328.741 -1.28725 1.46342 0
M  V30 3274 H 327.837 -2.81117 1.35572 0
M  V30 3275 N 328.138 -0.959301 -1.25041 0
M  V30 3276 C 329.387 -0.612254 -1.92183 0
M  V30 3277 C 329.7 0.855347 -1.75907 0
M  V30 3278 O 330.906 1.31256 -2.37664 0
M  V30 3279 C 329.362 -1.04435 -3.44414 0
M  V30 3280 C 328.97 -2.53482 -3.69393 0
M  V30 3281 C 330.714 -0.770055 -4.17457 0
M  V30 3282 C 328.621 -2.90468 -5.15153 0
M  V30 3283 H 327.551 -0.225279 -0.719559 0
M  V30 3284 H 330.202 -1.16438 -1.41825 0
M  V30 3285 H 328.584 -0.4206 -3.9376 0
M  V30 3286 H 329.758 -3.20916 -3.30681 0
M  V30 3287 H 328.073 -2.78432 -3.0962 0
M  V30 3288 H 330.67 -1.02249 -5.24832 0
M  V30 3289 H 331.013 0.293611 -4.15263 0
M  V30 3290 H 331.546 -1.35437 -3.74034 0
M  V30 3291 H 328.285 -3.95871 -5.22462 0
M  V30 3292 H 327.805 -2.27711 -5.54894 0
M  V30 3293 H 329.484 -2.79914 -5.83315 0
M  V30 3294 N 329.616 1.39756 -0.72842 0
M  V30 3295 C 330.862 2.00942 -0.273892 0
M  V30 3296 C 331.195 1.57656 1.13394 0
M  V30 3297 O 330.47 0.802434 1.77176 0
M  V30 3298 C 330.753 3.58211 -0.368346 0
M  V30 3299 C 330.606 4.11534 -1.81548 0
M  V30 3300 C 331.925 4.39372 0.253054 0
M  V30 3301 H 329.044 0.730047 -0.100996 0
M  V30 3302 H 331.686 1.66056 -0.923337 0
M  V30 3303 H 329.836 3.88061 0.184588 0
M  V30 3304 H 331.508 3.92431 -2.42478 0
M  V30 3305 H 329.751 3.65341 -2.33898 0
M  V30 3306 H 330.422 5.20682 -1.83288 0
M  V30 3307 H 332.898 4.15527 -0.218224 0
M  V30 3308 H 331.774 5.48677 0.156585 0
M  V30 3309 H 332.035 4.21358 1.33826 0
M  V30 3310 N 331.094 0.475555 1.50254 0
M  V30 3311 C 332.34 -0.0780073 2.0265 0
M  V30 3312 C 332.673 -1.38968 1.35652 0
M  V30 3313 O 331.948 -1.8839 0.483691 0
M  V30 3314 C 332.231 -0.257161 3.59181 0
M  V30 3315 C 332.084 1.07585 4.36744 0
M  V30 3316 C 333.403 -1.00965 4.28362 0
M  V30 3317 H 330.522 -0.0268758 0.73651 0
M  V30 3318 H 333.164 0.622015 1.7953 0
M  V30 3319 H 331.314 -0.853412 3.79011 0
M  V30 3320 H 332.986 1.70902 4.28474 0
M  V30 3321 H 331.229 1.6714 4.00308 0
M  V30 3322 H 331.9 0.904088 5.44546 0
M  V30 3323 H 334.376 -0.504214 4.13034 0
M  V30 3324 H 333.252 -1.10381 5.37687 0
M  V30 3325 H 333.513 -2.04731 3.91839 0
M  V30 3326 N 332.573 -1.56217 0.208337 0
M  V30 3327 C 333.821 -1.97558 -0.426076 0
M  V30 3328 C 334.142 -1.09683 -1.61229 0
M  V30 3329 O 333.412 -0.170956 -1.95153 0
M  V30 3330 H 331.992 -0.729575 -0.160405 0
M  V30 3331 H 334.654 -1.92606 0.298155 0
M  V30 3332 H 333.75 -3.02672 -0.761312 0
M  V30 3333 N 334.051 0.0651679 -1.57465 0
M  V30 3334 C 335.276 0.779605 -1.9219 0
M  V30 3335 C 335.701 1.69988 -0.805333 0
M  V30 3336 O 335.059 1.79685 0.241435 0
M  V30 3337 C 335.107 1.54364 -3.2589 0
M  V30 3338 O 334.211 2.65474 -3.1559 0
M  V30 3339 H 333.552 0.212249 -0.629163 0
M  V30 3340 H 336.082 0.0314294 -2.04576 0
M  V30 3341 H 336.092 1.92146 -3.59922 0
M  V30 3342 H 334.767 0.868457 -4.06732 0
M  V30 3343 H 333.344 2.30501 -2.93128 0
M  V30 3344 N 335.529 1.53961 0.336706 0
M  V30 3345 C 336.461 1.78751 1.4346 0
M  V30 3346 C 337.474 0.669019 1.48418 0
M  V30 3347 O 338.663 0.945884 1.51378 0
M  V30 3348 C 335.763 1.87844 2.82078 0
M  V30 3349 C 334.936 3.17854 3.00479 0
M  V30 3350 C 333.995 3.17816 4.19379 0
M  V30 3351 O 333.021 3.91511 4.13168 0
M  V30 3352 N 334.223 2.40669 5.2826 0
M  V30 3353 H 336.988 2.73493 1.22563 0
M  V30 3354 H 334.549 1.53096 0.526625 0
M  V30 3355 H 336.541 1.85261 3.59806 0
M  V30 3356 H 335.111 1.00257 2.96086 0
M  V30 3357 H 334.331 3.33504 2.10163 0
M  V30 3358 H 335.619 4.03718 3.0966 0
M  V30 3359 H 335.017 1.8036 5.36178 0
M  V30 3360 H 333.574 2.43877 6.04456 0
M  V30 3361 N 337.007 -0.598083 1.45811 0
M  V30 3362 C 337.97 -1.69018 1.54808 0
M  V30 3363 C 338.97 -1.55037 0.426652 0
M  V30 3364 O 340.16 -1.59932 0.690456 0
M  V30 3365 C 337.292 -3.0835 1.45371 0
M  V30 3366 H 338.485 -1.62403 2.52121 0
M  V30 3367 H 336.038 -0.814626 1.33392 0
M  V30 3368 H 336.773 -3.20534 0.492793 0
M  V30 3369 H 336.558 -3.19907 2.26721 0
M  V30 3370 H 338.048 -3.8788 1.54721 0
M  V30 3371 N 338.485 -1.33259 -0.841409 0
M  V30 3372 C 339.415 -1.25926 -1.96634 0
M  V30 3373 C 340.396 -0.140349 -1.6952 0
M  V30 3374 O 341.581 -0.329707 -1.91381 0
M  V30 3375 C 338.711 -0.99512 -3.32738 0
M  V30 3376 C 337.665 -2.0767 -3.74242 0
M  V30 3377 C 336.991 -1.66474 -5.08125 0
M  V30 3378 C 338.291 -3.49318 -3.88297 0
M  V30 3379 H 339.985 -2.20046 -2.03027 0
M  V30 3380 H 337.531 -1.05931 -0.975425 0
M  V30 3381 H 339.484 -0.930323 -4.11002 0
M  V30 3382 H 338.208 -0.0183004 -3.26595 0
M  V30 3383 H 336.867 -2.13187 -2.98239 0
M  V30 3384 H 336.515 -0.675012 -4.9845 0
M  V30 3385 H 336.215 -2.3885 -5.36865 0
M  V30 3386 H 337.739 -1.61455 -5.88867 0
M  V30 3387 H 339.153 -3.46316 -4.56879 0
M  V30 3388 H 337.55 -4.20158 -4.28471 0
M  V30 3389 H 338.62 -3.8801 -2.9082 0
M  V30 3390 N 339.963 1.05934 -1.16686 0
M  V30 3391 C 341.209 1.79065 -0.95203 0
M  V30 3392 C 341.542 1.87147 0.518629 0
M  V30 3393 O 340.817 1.36574 1.38484 0
M  V30 3394 C 341.1 3.23359 -1.58464 0
M  V30 3395 C 340.953 3.23336 -3.12689 0
M  V30 3396 C 342.272 4.21004 -1.28232 0
M  V30 3397 H 339.391 0.65005 -0.34728 0
M  V30 3398 H 342.033 1.23868 -1.44072 0
M  V30 3399 H 340.183 3.70493 -1.16908 0
M  V30 3400 H 341.855 2.84336 -3.6325 0
M  V30 3401 H 340.098 2.61886 -3.4583 0
M  V30 3402 H 340.769 4.25144 -3.52075 0
M  V30 3403 H 343.245 3.8233 -1.64203 0
M  V30 3404 H 342.121 5.20225 -1.75092 0
M  V30 3405 H 342.382 4.41639 -0.201791 0
M  V30 3406 N 341.441 0.965919 1.2453 0
M  V30 3407 C 342.718 0.543777 1.87889 0
M  V30 3408 C 343.098 -0.97909 1.87021 0
M  V30 3409 O 342.446 -1.84969 1.3416 0
M  V30 3410 C 342.656 1.13327 3.30088 0
M  V30 3411 C 344.004 1.21707 4.06783 0
M  V30 3412 O 345.028 1.08566 3.39252 0
M  V30 3413 O 343.887 1.42456 5.27606 0
M  V30 3414 H 340.981 0.181054 0.806938 0
M  V30 3415 H 343.527 1.06007 1.32516 0
M  V30 3416 H 342.299 2.17612 3.25209 0
M  V30 3417 H 341.922 0.600911 3.93033 0
M  V30 3418 N 342.919 -1.39368 0.735821 0
M  V30 3419 C 344.335 -1.54204 0.411492 0
M  V30 3420 C 344.535 -1.70268 -1.07755 0
M  V30 3421 O 343.591 -1.70364 -1.86366 0
M  V30 3422 C 344.904 -2.75925 1.19523 0
M  V30 3423 C 346.452 -2.89761 1.18354 0
M  V30 3424 C 346.927 -4.14421 1.94986 0
M  V30 3425 N 348.418 -4.21462 1.92156 0
M  V30 3426 C 349.153 -5.16871 2.48258 0
M  V30 3427 N 348.649 -6.18063 3.13001 0
M  V30 3428 N 350.442 -5.09093 2.38287 0
M  V30 3429 H 342.593 -1.27189 1.70108 0
M  V30 3430 H 344.856 -0.616517 0.720147 0
M  V30 3431 H 344.562 -2.70401 2.24892 0
M  V30 3432 H 344.436 -3.68614 0.800222 0
M  V30 3433 H 346.823 -2.94777 0.137975 0
M  V30 3434 H 346.904 -1.98133 1.61793 0
M  V30 3435 H 346.548 -4.10166 2.99543 0
M  V30 3436 H 346.478 -5.05095 1.48953 0
M  V30 3437 H 348.969 -3.48979 1.44991 0
M  V30 3438 H 349.282 -6.87326 3.53275 0
M  V30 3439 H 347.627 -6.18448 3.17091 0
M  V30 3440 H 350.818 -4.28973 1.8735 0
M  V30 3441 H 350.991 -5.83272 2.82308 0
M  V30 3442 N 344.397 -0.483516 -1.5 0
M  V30 3443 C 345.646 0.0689102 -2.01582 0
M  V30 3444 C 345.959 1.39655 -1.36952 0
M  V30 3445 O 347.165 2.03465 -1.79762 0
M  V30 3446 C 345.621 0.173302 -3.59483 0
M  V30 3447 C 345.229 -1.14665 -4.33077 0
M  V30 3448 C 346.973 0.677024 -4.19066 0
M  V30 3449 C 344.88 -1.00537 -5.82792 0
M  V30 3450 H 343.81 0.0295277 -0.753422 0
M  V30 3451 H 346.461 -0.620295 -1.72698 0
M  V30 3452 H 344.843 0.926569 -3.85007 0
M  V30 3453 H 346.017 -1.91184 -4.19268 0
M  V30 3454 H 344.332 -1.58244 -3.85159 0
M  V30 3455 H 346.929 0.799952 -5.28682 0
M  V30 3456 H 347.272 1.67151 -3.81269 0
M  V30 3457 H 347.805 -0.0192083 -3.97795 0
M  V30 3458 H 344.544 -1.9736 -6.25083 0
M  V30 3459 H 344.064 -0.280776 -5.99142 0
M  V30 3460 H 345.743 -0.677 -6.43448 0
M  V30 3461 N 345.875 1.56104 -0.216619 0
M  V30 3462 C 347.291 1.58995 0.13886 0
M  V30 3463 C 347.491 1.23333 1.59346 0
M  V30 3464 O 346.547 0.966234 2.33281 0
M  V30 3465 C 347.86 3.00143 -0.182968 0
M  V30 3466 C 349.408 3.12751 -0.124807 0
M  V30 3467 C 349.883 4.56068 -0.420241 0
M  V30 3468 N 351.374 4.61723 -0.369634 0
M  V30 3469 C 352.109 5.70542 -0.571789 0
M  V30 3470 N 351.605 6.87744 -0.835453 0
M  V30 3471 N 353.398 5.59831 -0.504563 0
M  V30 3472 H 345.549 1.77562 -1.16557 0
M  V30 3473 H 347.812 0.825091 -0.466828 0
M  V30 3474 H 347.518 3.30871 -1.19237 0
M  V30 3475 H 347.392 3.73813 0.504367 0
M  V30 3476 H 349.779 2.81822 0.875223 0
M  V30 3477 H 349.86 2.41421 -0.845544 0
M  V30 3478 H 349.504 4.87713 -1.41769 0
M  V30 3479 H 349.434 5.25617 0.321631 0
M  V30 3480 H 351.925 3.77502 -0.173338 0
M  V30 3481 H 352.238 7.66587 -0.977938 0
M  V30 3482 H 350.583 6.895 -0.872592 0
M  V30 3483 H 353.774 4.67145 -0.298842 0
M  V30 3484 H 353.947 6.44573 -0.665519 0
M  V30 3485 N 347.353 -0.0568162 1.57498 0
M  V30 3486 C 348.283 -1.06593 2.0775 0
M  V30 3487 C 349.264 -1.39448 0.974082 0
M  V30 3488 O 350.449 -1.48815 1.24771 0
M  V30 3489 C 347.579 -2.37509 2.5339 0
M  V30 3490 C 346.533 -2.1897 3.67745 0
M  V30 3491 C 345.859 -3.55402 3.99492 0
M  V30 3492 C 347.159 -1.59859 4.97235 0
M  V30 3493 H 348.853 -0.647706 2.9231 0
M  V30 3494 H 346.399 -0.310116 1.40621 0
M  V30 3495 H 348.352 -3.08409 2.87162 0
M  V30 3496 H 347.076 -2.8134 1.65878 0
M  V30 3497 H 345.735 -1.50508 3.3428 0
M  V30 3498 H 345.383 -3.9683 3.09088 0
M  V30 3499 H 345.083 -3.43831 4.76502 0
M  V30 3500 H 346.607 -4.27708 4.35773 0
M  V30 3501 H 348.021 -2.20642 5.29141 0
M  V30 3502 H 346.418 -1.58942 5.78669 0
M  V30 3503 H 347.488 -0.561506 4.81638 0
M  V30 3504 N 348.832 -1.54138 -0.328536 0
M  V30 3505 C 349.764 -1.79509 -1.4251 0
M  V30 3506 C 350.777 -0.67688 -1.48061 0
M  V30 3507 O 351.966 -0.953898 -1.50874 0
M  V30 3508 C 349.066 -1.89337 -2.81078 0
M  V30 3509 C 348.239 -3.19443 -2.98789 0
M  V30 3510 C 347.298 -3.20036 -4.17688 0
M  V30 3511 O 346.324 -3.93697 -4.11086 0
M  V30 3512 N 347.526 -2.43467 -5.26976 0
M  V30 3513 H 350.291 -2.74139 -1.21111 0
M  V30 3514 H 347.852 -1.53373 -0.518499 0
M  V30 3515 H 349.844 -1.87167 -3.58818 0
M  V30 3516 H 348.414 -1.01826 -2.95551 0
M  V30 3517 H 347.634 -3.34614 -2.08391 0
M  V30 3518 H 348.922 -4.05354 -3.07515 0
M  V30 3519 H 348.32 -1.83201 -5.35214 0
M  V30 3520 H 346.877 -2.4708 -6.03154 0
M  V30 3521 N 350.31 0.590341 -1.46126 0
M  V30 3522 C 351.558 1.34616 -1.50742 0
M  V30 3523 C 351.879 1.94363 -0.157486 0
M  V30 3524 O 351.149 1.78136 0.815136 0
M  V30 3525 H 349.729 0.499789 -0.555175 0
M  V30 3526 H 352.391 0.691953 -1.82203 0
M  V30 3527 H 351.487 2.15678 -2.25587 0
M  V30 3528 N 351.788 1.33704 0.83433 0
M  V30 3529 C 352.718 1.26967 1.95963 0
M  V30 3530 C 353.699 0.149337 1.69443 0
M  V30 3531 O 354.884 0.339852 1.91203 0
M  V30 3532 C 352.014 1.01275 3.32206 0
M  V30 3533 C 350.968 2.09652 3.73136 0
M  V30 3534 C 350.294 1.69166 5.07235 0
M  V30 3535 C 351.594 3.51372 3.86439 0
M  V30 3536 H 353.288 2.2112 2.01857 0
M  V30 3537 H 350.834 1.06447 0.969793 0
M  V30 3538 H 352.787 0.952106 4.10503 0
M  V30 3539 H 351.511 0.0356203 3.26581 0
M  V30 3540 H 350.17 2.14766 2.97104 0
M  V30 3541 H 349.818 0.701437 4.98085 0
M  V30 3542 H 349.518 2.41694 5.35591 0
M  V30 3543 H 351.042 1.64576 5.88003 0
M  V30 3544 H 352.456 3.48734 4.55036 0
M  V30 3545 H 350.853 4.22425 4.26236 0
M  V30 3546 H 351.923 3.89546 2.88759 0
M  V30 3547 N 353.266 -1.05314 1.17247 0
M  V30 3548 C 354.213 -2.13031 0.888058 0
M  V30 3549 C 355.183 -1.65253 -0.167537 0
M  V30 3550 O 356.368 -1.90775 -0.0305974 0
M  V30 3551 C 353.508 -3.42702 0.406147 0
M  V30 3552 C 352.621 -4.04161 1.52572 0
M  V30 3553 C 351.756 -5.21744 0.997808 0
M  V30 3554 C 350.795 -5.75207 2.09291 0
M  V30 3555 N 349.932 -6.84094 1.57986 0
M  V30 3556 H 354.772 -2.36698 1.81048 0
M  V30 3557 H 352.309 -1.16121 0.903013 0
M  V30 3558 H 354.267 -4.17059 0.108305 0
M  V30 3559 H 352.897 -3.19222 -0.479313 0
M  V30 3560 H 351.949 -3.27253 1.93931 0
M  V30 3561 H 353.261 -4.39881 2.35172 0
M  V30 3562 H 352.415 -6.03168 0.653739 0
M  V30 3563 H 351.154 -4.87495 0.141232 0
M  V30 3564 H 350.159 -4.92414 2.44557 0
M  V30 3565 H 351.384 -6.11505 2.95362 0
M  V30 3566 H 349.33 -6.51745 0.74598 0
M  V30 3567 H 349.247 -7.18811 2.34195 0
M  V30 3568 H 350.515 -7.69172 1.26468 0
M  V30 3569 N 354.744 -0.972509 -1.24016 0
M  V30 3570 C 356.021 -0.553733 -1.87598 0
M  V30 3571 C 356.401 0.969158 -1.87538 0
M  V30 3572 O 355.749 1.84255 -1.35139 0
M  V30 3573 C 355.959 -1.15076 -3.29482 0
M  V30 3574 C 357.307 -1.23862 -4.06132 0
M  V30 3575 O 358.331 -1.10363 -3.38672 0
M  V30 3576 O 357.19 -1.45252 -5.26844 0
M  V30 3577 H 354.284 -0.185331 -0.805966 0
M  V30 3578 H 356.83 -1.06709 -1.31952 0
M  V30 3579 H 355.602 -2.19333 -3.2405 0
M  V30 3580 H 355.225 -0.621746 -3.92709 0
M  V30 3581 N 356.222 1.38976 -0.743202 0
M  V30 3582 C 357.155 2.28128 -0.0572165 0
M  V30 3583 C 358.133 1.44827 0.739182 0
M  V30 3584 O 359.317 1.74207 0.720009 0
M  V30 3585 C 356.444 3.25796 0.926001 0
M  V30 3586 C 355.49 4.25947 0.217099 0
M  V30 3587 S 356.323 5.24604 -1.07477 0
M  V30 3588 C 357.479 6.25829 -0.0943545 0
M  V30 3589 H 357.712 2.85961 -0.813246 0
M  V30 3590 H 355.245 1.44822 -0.535341 0
M  V30 3591 H 357.203 3.82583 1.48797 0
M  V30 3592 H 355.864 2.66966 1.65493 0
M  V30 3593 H 355.057 4.94746 0.961372 0
M  V30 3594 H 354.659 3.73002 -0.273059 0
M  V30 3595 H 356.951 6.73411 0.743239 0
M  V30 3596 H 357.894 7.0412 -0.749713 0
M  V30 3597 H 358.302 5.63797 0.281706 0
M  V30 3598 N 357.7 0.491464 1.49741 0
M  V30 3599 C 358.928 -0.0535151 2.06831 0
M  V30 3600 C 359.343 -1.31683 1.35296 0
M  V30 3601 O 358.7 -1.77402 0.42836 0
M  V30 3602 C 358.751 -0.320835 3.60073 0
M  V30 3603 O 358.472 0.892394 4.28915 0
M  V30 3604 C 359.973 -0.910519 4.33848 0
M  V30 3605 H 357.193 0.0161909 0.670805 0
M  V30 3606 H 359.737 0.68609 1.92647 0
M  V30 3607 H 357.892 -1.0104 3.73991 0
M  V30 3608 H 358.306 0.649401 5.20464 0
M  V30 3609 H 359.78 -1.04721 5.41976 0
M  V30 3610 H 360.257 -1.90589 3.95692 0
M  V30 3611 H 360.863 -0.258712 4.24512 0
M  V30 3612 N 359.178 -1.55987 0.224894 0
M  V30 3613 C 360.426 -1.97998 -0.405099 0
M  V30 3614 C 360.747 -1.11387 -1.60056 0
M  V30 3615 O 360.017 -0.191645 -1.9496 0
M  V30 3616 H 358.597 -0.731235 -0.152658 0
M  V30 3617 H 361.259 -1.92279 0.318567 0
M  V30 3618 H 360.355 -3.03463 -0.729167 0
M  V30 3619 N 360.656 0.0484629 -1.57525 0
M  V30 3620 C 361.619 1.03956 -2.04269 0
M  V30 3621 C 362.619 1.30211 -0.943496 0
M  V30 3622 O 363.809 1.25539 -1.20771 0
M  V30 3623 C 360.941 2.37742 -2.44319 0
M  V30 3624 H 362.134 0.636182 -2.93075 0
M  V30 3625 H 359.687 0.294811 -1.53494 0
M  V30 3626 H 360.422 2.82866 -1.5861 0
M  V30 3627 H 360.207 2.20021 -3.24551 0
M  V30 3628 H 361.697 3.08936 -2.80978 0
M  V30 3629 N 362.134 1.5431 0.320358 0
M  V30 3630 C 363.38 1.72924 1.05949 0
M  V30 3631 C 363.713 0.503185 1.87568 0
M  V30 3632 O 362.988 -0.499839 1.87968 0
M  V30 3633 C 363.271 3.00676 1.98156 0
M  V30 3634 C 363.124 4.3354 1.19845 0
M  V30 3635 C 364.443 3.24198 2.9763 0
M  V30 3636 H 361.562 0.629195 0.383774 0
M  V30 3637 H 364.204 1.87008 0.335854 0
M  V30 3638 H 362.354 2.888 2.59859 0
M  V30 3639 H 364.026 4.57305 0.605773 0
M  V30 3640 H 362.269 4.309 0.500784 0
M  V30 3641 H 362.94 5.19156 1.87567 0
M  V30 3642 H 365.416 3.35557 2.4605 0
M  V30 3643 H 364.292 4.14938 3.59329 0
M  V30 3644 H 364.553 2.41577 3.7026 0
M  V30 3645 N 363.613 -0.582584 1.46437 0
M  V30 3646 C 364.543 -1.70187 1.59871 0
M  V30 3647 C 365.524 -1.64066 0.449042 0
M  V30 3648 O 366.709 -1.82081 0.6753 0
M  V30 3649 C 363.839 -3.08827 1.58881 0
M  V30 3650 C 362.793 -3.29779 2.72819 0
M  V30 3651 C 362.119 -4.68947 2.5689 0
M  V30 3652 C 363.419 -3.17601 4.1464 0
M  V30 3653 H 365.113 -1.592 2.53566 0
M  V30 3654 H 362.659 -0.764472 1.22032 0
M  V30 3655 H 364.612 -3.86951 1.66873 0
M  V30 3656 H 363.336 -3.20713 0.617306 0
M  V30 3657 H 361.995 -2.54054 2.64296 0
M  V30 3658 H 361.643 -4.77599 1.57823 0
M  V30 3659 H 361.343 -4.83919 3.33312 0
M  V30 3660 H 362.867 -5.4924 2.66773 0
M  V30 3661 H 364.281 -3.8557 4.24274 0
M  V30 3662 H 362.678 -3.44094 4.9165 0
M  V30 3663 H 363.748 -2.14681 4.34788 0
M  V30 3664 N 365.091 -1.34144 -0.827227 0
M  V30 3665 C 366.316 -1.29476 -1.62021 0
M  V30 3666 C 366.741 0.129292 -1.87655 0
M  V30 3667 O 366.099 1.08967 -1.449 0
M  V30 3668 C 366.147 -2.08702 -2.94068 0
M  V30 3669 O 365.251 -1.45359 -3.85933 0
M  V30 3670 H 364.592 -0.444881 -0.492927 0
M  V30 3671 H 367.122 -1.76882 -1.02829 0
M  V30 3672 H 367.132 -2.19898 -3.43669 0
M  V30 3673 H 365.807 -3.12241 -2.74734 0
M  V30 3674 H 364.384 -1.42879 -3.44442 0
M  V30 3675 N 366.569 1.04691 -1.17803 0
M  V30 3676 C 367.98 1.59238 -0.974689 0
M  V30 3677 C 368.331 1.90306 0.477292 0
M  V30 3678 O 367.456 1.68846 1.35352 0
M  V30 3679 C 368.051 2.89318 -1.76296 0
M  V30 3680 C 366.61 3.40506 -1.60414 0
M  V30 3681 C 365.757 2.14172 -1.76141 0
M  V30 3682 H 368.708 0.874395 -1.32439 0
M  V30 3683 H 368.729 3.5944 -1.24833 0
M  V30 3684 H 368.241 2.66675 -2.81968 0
M  V30 3685 H 366.342 3.68175 -0.572519 0
M  V30 3686 H 366.455 4.14753 -2.39827 0
M  V30 3687 H 364.819 2.25176 -1.19028 0
M  V30 3688 H 365.602 1.93992 -2.83235 0
M  V30 3689 N 368.047 0.979072 1.23499 0
M  V30 3690 C 368.997 0.489378 2.22686 0
M  V30 3691 C 369.981 -0.434871 1.54912 0
M  V30 3692 O 371.173 -0.263941 1.75021 0
M  V30 3693 C 368.302 -0.208178 3.42668 0
M  V30 3694 C 367.388 0.735563 4.17672 0
M  V30 3695 N 367.779 1.87763 4.69658 0
M  V30 3696 C 366.077 0.548625 4.42613 0
M  V30 3697 C 366.778 2.46886 5.26709 0
M  V30 3698 N 365.754 1.75287 5.14563 0
M  V30 3699 H 369.556 1.36062 2.60508 0
M  V30 3700 H 367.07 0.83958 1.39014 0
M  V30 3701 H 369.067 -0.576295 4.12898 0
M  V30 3702 H 367.727 -1.07572 3.06363 0
M  V30 3703 H 368.738 2.25885 4.66043 0
M  V30 3704 H 365.415 -0.274006 4.166 0
M  V30 3705 H 366.805 3.43326 5.77561 0
M  V30 3706 N 369.525 -1.3858 0.750561 0
M  V30 3707 C 370.802 -1.94231 0.231009 0
M  V30 3708 C 371.182 -1.68611 -1.27018 0
M  V30 3709 O 370.53 -1.02296 -2.04323 0
M  V30 3710 C 370.74 -3.44123 0.581428 0
M  V30 3711 C 372.088 -4.2116 0.539389 0
M  V30 3712 O 373.112 -3.52391 0.519541 0
M  V30 3713 O 371.971 -5.43749 0.54765 0
M  V30 3714 H 369.065 -0.825639 0.0474263 0
M  V30 3715 H 371.611 -1.4799 0.830478 0
M  V30 3716 H 370.383 -3.56267 1.61833 0
M  V30 3717 H 370.006 -3.97573 -0.0462047 0
M  V30 3718 N 371.003 -0.499398 -1.49478 0
M  V30 3719 C 371.966 0.268838 -2.27618 0
M  V30 3720 C 372.966 0.895383 -1.33565 0
M  V30 3721 O 374.156 0.760164 -1.56739 0
M  V30 3722 C 371.288 1.38559 -3.11471 0
M  V30 3723 H 372.481 -0.416812 -2.96989 0
M  V30 3724 H 370.034 -0.254313 -1.54217 0
M  V30 3725 H 370.769 2.10544 -2.46661 0
M  V30 3726 H 370.554 0.941797 -3.80621 0
M  V30 3727 H 372.044 1.92678 -3.70493 0
M  V30 3728 N 372.481 1.55866 -0.233164 0
M  V30 3729 C 373.444 2.1953 0.658715 0
M  V30 3730 C 374.444 1.16053 1.11303 0
M  V30 3731 O 375.634 1.41218 1.01996 0
M  V30 3732 C 372.766 2.82791 1.90373 0
M  V30 3733 H 373.959 2.99721 0.10347 0
M  V30 3734 H 371.512 1.56291 0.0164245 0
M  V30 3735 H 372.247 2.06501 2.50056 0
M  V30 3736 H 372.032 3.58578 1.58632 0
M  V30 3737 H 373.522 3.31556 2.53891 0
M  V30 3738 N 373.959 -0.0401083 1.57549 0
M  V30 3739 C 374.889 -1.04384 2.08869 0
M  V30 3740 C 375.87 -1.38407 0.988817 0
M  V30 3741 O 377.055 -1.47483 1.26342 0
M  V30 3742 C 374.185 -2.34808 2.55895 0
M  V30 3743 C 373.139 -2.15057 3.70047 0
M  V30 3744 C 372.465 -3.51145 4.03239 0
M  V30 3745 C 373.765 -1.54576 4.98902 0
M  V30 3746 H 375.459 -0.616666 2.92981 0
M  V30 3747 H 373.005 -0.295184 1.40942 0
M  V30 3748 H 374.958 -3.05346 2.90417 0
M  V30 3749 H 373.682 -2.79565 1.68853 0
M  V30 3750 H 372.341 -1.46954 3.35857 0
M  V30 3751 H 371.989 -3.93529 3.13279 0
M  V30 3752 H 371.689 -3.38758 4.80122 0
M  V30 3753 H 373.213 -4.23062 4.40285 0
M  V30 3754 H 374.627 -2.15017 5.31451 0
M  V30 3755 H 373.024 -1.52796 5.80322 0
M  V30 3756 H 374.094 -0.51039 4.82206 0
M  V30 3757 N 375.437 -1.54477 -0.31217 0
M  V30 3758 C 376.367 -1.87652 -1.38957 0
M  V30 3759 C 377.348 -0.734358 -1.53431 0
M  V30 3760 O 378.533 -0.98911 -1.67123 0
M  V30 3761 C 375.663 -2.11396 -2.75552 0
M  V30 3762 C 374.617 -3.27243 -2.75855 0
M  V30 3763 C 373.943 -3.36382 -4.15633 0
M  V30 3764 C 375.243 -4.64622 -2.38587 0
M  V30 3765 H 376.937 -2.77887 -1.11442 0
M  V30 3766 H 374.483 -1.33707 -0.534655 0
M  V30 3767 H 376.436 -2.33189 -3.51 0
M  V30 3768 H 375.16 -1.17921 -3.04569 0
M  V30 3769 H 373.819 -3.05356 -2.02863 0
M  V30 3770 H 373.467 -2.40445 -4.41809 0
M  V30 3771 H 373.167 -4.14249 -4.1674 0
M  V30 3772 H 374.691 -3.60422 -4.92877 0
M  V30 3773 H 376.105 -4.86219 -3.03749 0
M  V30 3774 H 374.502 -5.45121 -2.50925 0
M  V30 3775 H 375.572 -4.66097 -1.33723 0
M  V30 3776 N 376.915 0.57481 -1.46744 0
M  V30 3777 C 377.848 1.69827 -1.52427 0
M  V30 3778 C 378.826 1.58151 -0.377744 0
M  V30 3779 O 380.01 1.79257 -0.58303 0
M  V30 3780 C 377.137 3.07943 -1.41027 0
M  V30 3781 C 376.183 3.38116 -2.59961 0
M  V30 3782 S 377.016 3.29313 -4.22272 0
M  V30 3783 C 378.172 4.69953 -4.13394 0
M  V30 3784 H 378.405 1.64748 -2.47478 0
M  V30 3785 H 375.938 0.754203 -1.34726 0
M  V30 3786 H 377.896 3.87619 -1.35137 0
M  V30 3787 H 376.557 3.10504 -0.473909 0
M  V30 3788 H 375.75 4.38762 -2.47999 0
M  V30 3789 H 375.352 2.66024 -2.62882 0
M  V30 3790 H 377.644 5.60517 -3.80562 0
M  V30 3791 H 378.587 4.86972 -5.14066 0
M  V30 3792 H 378.995 4.47174 -3.44522 0
M  V30 3793 N 378.394 1.34581 0.820102 0
M  V30 3794 C 379.81 1.14325 1.11364 0
M  V30 3795 C 380.01 -0.0533648 2.01429 0
M  V30 3796 O 379.066 -0.728044 2.41776 0
M  V30 3797 C 380.379 2.43983 1.75764 0
M  V30 3798 C 381.927 2.50065 1.88246 0
M  V30 3799 C 382.402 3.79732 2.56061 0
M  V30 3800 N 383.893 3.80908 2.63558 0
M  V30 3801 C 384.628 4.77961 3.16766 0
M  V30 3802 N 384.124 5.85397 3.70517 0
M  V30 3803 N 385.917 4.65413 3.15194 0
M  V30 3804 H 378.068 2.11246 0.221096 0
M  V30 3805 H 380.331 0.934289 0.160649 0
M  V30 3806 H 380.037 3.31651 1.1705 0
M  V30 3807 H 379.911 2.57531 2.75604 0
M  V30 3808 H 382.298 1.62834 2.46108 0
M  V30 3809 H 382.379 2.40442 0.873006 0
M  V30 3810 H 382.023 4.67354 1.98853 0
M  V30 3811 H 381.953 3.86639 3.57516 0
M  V30 3812 H 384.444 3.03274 2.25463 0
M  V30 3813 H 384.757 6.55463 4.09376 0
M  V30 3814 H 383.102 5.89107 3.68752 0
M  V30 3815 H 386.293 3.80627 2.72471 0
M  V30 3816 H 386.466 5.41216 3.56356 0
M  V30 3817 N 379.872 -1.04064 1.18357 0
M  V30 3818 C 381.12 -1.76915 0.977013 0
M  V30 3819 C 381.441 -1.88624 -0.494577 0
M  V30 3820 O 380.711 -1.41125 -1.3587 0
M  V30 3821 H 379.291 -0.65535 0.358504 0
M  V30 3822 H 381.953 -1.25592 1.49039 0
M  V30 3823 H 381.049 -2.78178 1.41504 0
M  V30 3824 N 381.35 -0.985608 -1.22978 0
M  V30 3825 C 382.599 -0.652881 -1.90841 0
M  V30 3826 C 382.912 0.817842 -1.77681 0
M  V30 3827 O 384.118 1.26185 -2.40395 0
M  V30 3828 C 382.574 -1.11717 -3.42122 0
M  V30 3829 C 382.182 -2.6126 -3.63933 0
M  V30 3830 C 383.926 -0.85843 -4.1573 0
M  V30 3831 C 381.833 -3.0133 -5.08876 0
M  V30 3832 H 380.763 -0.240491 -0.714619 0
M  V30 3833 H 383.414 -1.1942 -1.39324 0
M  V30 3834 H 381.796 -0.504027 -3.92779 0
M  V30 3835 H 382.97 -3.27858 -3.23799 0
M  V30 3836 H 381.285 -2.84937 -3.03644 0
M  V30 3837 H 383.882 -1.13359 -5.22546 0
M  V30 3838 H 384.225 0.205461 -4.15793 0
M  V30 3839 H 384.758 -1.43341 -3.71077 0
M  V30 3840 H 381.497 -4.06864 -5.13947 0
M  V30 3841 H 381.017 -2.3943 -5.49939 0
M  V30 3842 H 382.696 -2.92224 -5.77247 0
M  V30 3843 N 382.828 1.3818 -0.7579 0
M  V30 3844 C 383.775 2.30416 -0.133057 0
M  V30 3845 C 384.745 1.50398 0.704957 0
M  V30 3846 O 385.93 1.79014 0.660192 0
M  V30 3847 C 383.07 3.36834 0.750813 0
M  V30 3848 C 382.183 4.31879 -0.102297 0
M  V30 3849 C 381.318 5.25368 0.784979 0
M  V30 3850 C 380.357 6.12058 -0.0715046 0
M  V30 3851 N 379.494 6.97832 0.772972 0
M  V30 3852 H 384.334 2.83274 -0.925186 0
M  V30 3853 H 381.871 1.39461 -0.467866 0
M  V30 3854 H 383.829 3.97145 1.27794 0
M  V30 3855 H 382.459 2.85374 1.50868 0
M  V30 3856 H 381.511 3.72991 -0.747095 0
M  V30 3857 H 382.823 4.92921 -0.763552 0
M  V30 3858 H 381.977 5.90818 1.37911 0
M  V30 3859 H 380.716 4.64703 1.47996 0
M  V30 3860 H 379.721 5.456 -0.678272 0
M  V30 3861 H 380.946 6.74793 -0.763606 0
M  V30 3862 H 378.892 6.3971 1.45282 0
M  V30 3863 H 378.809 7.55812 0.168709 0
M  V30 3864 H 380.077 7.67687 1.35194 0
M  V30 3865 N 384.306 0.507319 1.49211 0
M  V30 3866 C 385.534 -0.0315749 2.06876 0
M  V30 3867 C 385.949 -1.30241 1.36685 0
M  V30 3868 O 385.306 -1.76937 0.447152 0
M  V30 3869 C 385.357 -0.282627 3.60393 0
M  V30 3870 O 385.078 0.937835 4.27944 0
M  V30 3871 C 386.579 -0.864453 4.3479 0
M  V30 3872 H 383.799 0.0233048 0.670595 0
M  V30 3873 H 386.343 0.706484 1.91909 0
M  V30 3874 H 384.498 -0.97068 3.75042 0
M  V30 3875 H 384.912 0.704567 5.19746 0
M  V30 3876 H 386.386 -0.989664 5.43056 0
M  V30 3877 H 386.863 -1.86382 3.97692 0
M  V30 3878 H 387.469 -0.213672 4.24763 0
M  V30 3879 N 385.784 -1.5574 0.241426 0
M  V30 3880 C 386.714 -2.24133 -0.654722 0
M  V30 3881 C 387.695 -1.21974 -1.1856 0
M  V30 3882 O 388.88 -1.50612 -1.22595 0
M  V30 3883 C 386.01 -2.93659 -1.85423 0
M  V30 3884 C 384.964 -4.0246 -1.45636 0
M  V30 3885 C 384.29 -4.59383 -2.73626 0
M  V30 3886 C 385.59 -5.18468 -0.631506 0
M  V30 3887 H 387.284 -2.99281 -0.0844353 0
M  V30 3888 H 384.83 -1.43947 -0.0391707 0
M  V30 3889 H 386.783 -3.40203 -2.48676 0
M  V30 3890 H 385.507 -2.15991 -2.44981 0
M  V30 3891 H 384.166 -3.56676 -0.847202 0
M  V30 3892 H 383.814 -3.78422 -3.3137 0
M  V30 3893 H 383.514 -5.32826 -2.4773 0
M  V30 3894 H 385.038 -5.08658 -3.37786 0
M  V30 3895 H 386.452 -5.61272 -1.1682 0
M  V30 3896 H 384.849 -5.98266 -0.468831 0
M  V30 3897 H 385.919 -4.8358 0.357506 0
M  V30 3898 N 387.262 0.0317525 -1.57568 0
M  V30 3899 C 388.21 1.05165 -2.07468 0
M  V30 3900 C 389.204 1.3761 -0.98792 0
M  V30 3901 O 390.41 1.36546 -1.17282 0
M  V30 3902 H 386.785 0.35666 -0.66204 0
M  V30 3903 H 388.756 0.604958 -2.92203 0
M  V30 3904 C 387.505 2.34488 -2.56731 0
M  V30 3905 H 386.828 2.10383 -3.39969 0
M  V30 3906 H 388.268 3.04203 -2.95358 0
M  V30 3907 C 386.727 3.03266 -1.46736 0
M  V30 3908 O 387.257 3.92988 -0.832069 0
M  V30 3909 N 385.463 2.6455 -1.20256 0
M  V30 3910 H 385.01 1.91674 -1.72102 0
M  V30 3911 H 384.968 3.10886 -0.468737 0
M  V30 3912 N 388.74 1.54641 0.303973 0
M  V30 3913 C 389.67 1.88386 1.3796 0
M  V30 3914 C 390.651 0.742485 1.5304 0
M  V30 3915 O 391.836 0.997959 1.66597 0
M  V30 3916 C 388.966 2.12854 2.74427 0
M  V30 3917 C 387.92 3.28702 2.74115 0
M  V30 3918 C 387.246 3.38582 4.13844 0
M  V30 3919 C 388.546 4.65881 2.3612 0
M  V30 3920 H 390.24 2.78474 1.09966 0
M  V30 3921 H 387.786 1.33988 0.527556 0
M  V30 3922 H 389.739 2.35047 3.49758 0
M  V30 3923 H 388.463 1.19535 3.03939 0
M  V30 3924 H 387.122 3.06428 2.0124 0
M  V30 3925 H 386.77 2.42784 4.40528 0
M  V30 3926 H 386.47 4.16453 4.14537 0
M  V30 3927 H 387.994 3.63031 4.90959 0
M  V30 3928 H 389.408 4.87823 3.01167 0
M  V30 3929 H 387.805 5.46444 2.48031 0
M  V30 3930 H 388.875 4.66799 1.3125 0
M  V30 3931 N 390.218 -0.567019 1.47046 0
M  V30 3932 C 391.634 -0.891975 1.32348 0
M  V30 3933 C 391.834 -1.99154 0.306616 0
M  V30 3934 O 390.89 -2.50883 -0.28532 0
M  V30 3935 C 392.203 -1.29449 2.7141 0
M  V30 3936 C 393.751 -1.40646 2.79621 0
M  V30 3937 C 394.226 -1.84257 4.19301 0
M  V30 3938 N 395.717 -1.91424 4.21795 0
M  V30 3939 C 396.452 -2.26476 5.26779 0
M  V30 3940 N 395.948 -2.60211 6.42077 0
M  V30 3941 N 397.741 -2.27166 5.14152 0
M  V30 3942 H 389.892 0.159074 2.11803 0
M  V30 3943 H 392.155 0.00849752 0.947962 0
M  V30 3944 H 391.861 -0.560448 3.47206 0
M  V30 3945 H 391.735 -2.25273 3.02542 0
M  V30 3946 H 394.122 -2.13133 2.04104 0
M  V30 3947 H 394.203 -0.430339 2.52154 0
M  V30 3948 H 393.847 -1.12343 4.95319 0
M  V30 3949 H 393.777 -2.82855 4.44185 0
M  V30 3950 H 396.268 -1.6778 3.38612 0
M  V30 3951 H 396.581 -2.85956 7.17948 0
M  V30 3952 H 394.926 -2.57813 6.45413 0
M  V30 3953 H 398.117 -2.00244 4.23107 0
M  V30 3954 H 398.29 -2.54154 5.96079 0
M  V30 3955 N 391.696 -1.35014 -0.812953 0
M  V30 3956 C 392.629 -1.21761 -1.93001 0
M  V30 3957 C 393.607 -0.10694 -1.62248 0
M  V30 3958 O 394.791 -0.273891 -1.865 0
M  V30 3959 C 391.918 -0.873404 -3.27245 0
M  V30 3960 C 390.964 -1.99523 -3.76952 0
M  V30 3961 S 391.797 -3.61009 -3.95516 0
M  V30 3962 C 392.953 -3.28651 -5.32672 0
M  V30 3963 H 393.186 -2.16315 -2.03948 0
M  V30 3964 H 390.719 -1.20156 -0.969631 0
M  V30 3965 H 392.677 -0.68161 -4.04802 0
M  V30 3966 H 391.338 0.053971 -3.14054 0
M  V30 3967 H 390.531 -1.70838 -4.74163 0
M  V30 3968 H 390.133 -2.14503 -3.06373 0
M  V30 3969 H 392.425 -2.81085 -6.1644 0
M  V30 3970 H 393.368 -4.25039 -5.66346 0
M  V30 3971 H 393.776 -2.6458 -4.98656 0
M  V30 3972 N 393.175 1.03435 -1.18907 0
M  V30 3973 C 394.452 1.73778 -0.89781 0
M  V30 3974 C 394.832 2.02458 0.597832 0
M  V30 3975 O 394.18 1.67482 1.55441 0
M  V30 3976 C 394.39 3.01845 -1.75187 0
M  V30 3977 C 395.738 3.7546 -1.9828 0
M  V30 3978 O 396.762 3.11759 -1.72293 0
M  V30 3979 O 395.621 4.89966 -2.42065 0
M  V30 3980 H 392.715 0.75651 -0.334098 0
M  V30 3981 H 395.261 1.09444 -1.29693 0
M  V30 3982 H 394.033 2.76836 -2.76545 0
M  V30 3983 H 393.656 3.73919 -1.35167 0
M  V30 3984 N 394.653 0.992116 1.22453 0
M  V30 3985 C 396.069 0.702713 1.43297 0
M  V30 3986 C 396.269 -0.726909 1.87932 0
M  V30 3987 O 395.325 -1.49792 2.0327 0
M  V30 3988 C 396.638 1.70762 2.47509 0
M  V30 3989 C 398.186 1.72298 2.61309 0
M  V30 3990 C 398.661 2.71649 3.68742 0
M  V30 3991 N 400.152 2.70239 3.76199 0
M  V30 3992 C 400.887 3.43778 4.58917 0
M  V30 3993 N 400.383 4.26914 5.45633 0
M  V30 3994 N 402.176 3.32487 4.5322 0
M  V30 3995 H 394.327 1.91543 0.917871 0
M  V30 3996 H 396.59 0.826031 0.465162 0
M  V30 3997 H 396.296 2.73059 2.21657 0
M  V30 3998 H 396.17 1.49985 3.46099 0
M  V30 3999 H 398.557 0.706989 2.86506 0
M  V30 4000 H 398.638 1.97143 1.62997 0
M  V30 4001 H 398.282 3.73397 3.44292 0
M  V30 4002 H 398.212 2.44074 4.66622 0
M  V30 4003 H 400.703 2.09912 3.14237 0
M  V30 4004 H 401.016 4.79855 6.05771 0
M  V30 4005 H 399.361 4.31002 5.45218 0
M  V30 4006 H 402.552 2.6698 3.84499 0
M  V30 4007 H 402.725 3.90058 5.17454 0
M  V30 4008 N 396.131 -1.37776 0.765217 0
M  V30 4009 C 397.081 -2.2768 0.12075 0
M  V30 4010 C 398.065 -1.45778 -0.680988 0
M  V30 4011 O 399.257 -1.684 -0.545033 0
M  V30 4012 C 396.386 -3.34722 -0.762626 0
M  V30 4013 C 395.472 -4.24074 0.0465881 0
M  V30 4014 N 395.863 -4.93939 1.08892 0
M  V30 4015 C 394.161 -4.45643 -0.178418 0
M  V30 4016 C 394.862 -5.59845 1.57951 0
M  V30 4017 N 393.838 -5.36218 0.892797 0
M  V30 4018 H 397.64 -2.79166 0.918889 0
M  V30 4019 H 395.154 -1.50816 0.602353 0
M  V30 4020 H 397.151 -3.98031 -1.24005 0
M  V30 4021 H 395.811 -2.84793 -1.55959 0
M  V30 4022 H 396.822 -4.96572 1.47095 0
M  V30 4023 H 393.499 -4.06599 -0.9478 0
M  V30 4024 H 394.889 -6.25703 2.44838 0
M  V30 4025 N 397.609 -0.515225 -1.4894 0
M  V30 4026 C 398.849 0.0223983 -2.04388 0
M  V30 4027 C 399.213 1.32961 -1.38511 0
M  V30 4028 O 400.414 1.95236 -1.8476 0
M  V30 4029 C 398.685 0.157056 -3.57055 0
M  V30 4030 S 400.244 0.646875 -4.34006 0
M  V30 4031 H 397.062 -0.00500662 -0.710982 0
M  V30 4032 H 399.664 -0.69243 -1.82827 0
M  V30 4033 H 398.368 -0.799412 -4.02539 0
M  V30 4034 H 397.899 0.896704 -3.83044 0
M  V30 4035 H 399.914 1.91381 -4.57808 0
M  V30 4036 N 399.087 1.5561 -0.249682 0
M  V30 4037 C 400.05 2.20217 0.635394 0
M  V30 4038 C 401.05 1.17227 1.10066 0
M  V30 4039 O 402.24 1.42292 1.00492 0
M  V30 4040 C 399.372 2.84794 1.87363 0
M  V30 4041 H 400.565 2.99814 0.0716752 0
M  V30 4042 H 398.118 1.563 -0.000153234 0
M  V30 4043 H 398.853 2.09142 2.47851 0
M  V30 4044 H 398.638 3.60241 1.5482 0
M  V30 4045 H 400.128 3.3423 2.5036 0
M  V30 4046 N 400.565 -0.0233959 1.57583 0
M  V30 4047 C 401.513 -1.04063 2.08023 0
M  V30 4048 C 402.507 -1.37084 0.995204 0
M  V30 4049 O 403.713 -1.35923 1.18004 0
M  V30 4050 H 400.088 -0.353144 0.663922 0
M  V30 4051 H 402.059 -0.589453 2.9252 0
M  V30 4052 C 400.808 -2.33123 2.57971 0
M  V30 4053 H 400.131 -2.08577 3.4108 0
M  V30 4054 H 401.571 -3.02632 2.96967 0
M  V30 4055 C 400.03 -3.02483 1.48342 0
M  V30 4056 O 400.56 -3.92541 0.852898 0
M  V30 4057 N 398.766 -2.63909 1.21658 0
M  V30 4058 H 398.313 -1.90758 1.73116 0
M  V30 4059 H 398.271 -3.10633 0.485218 0
M  V30 4060 N 402.043 -1.548 -0.295768 0
M  V30 4061 C 403.006 -1.85363 -1.34808 0
M  V30 4062 C 404.006 -0.726817 -1.43436 0
M  V30 4063 O 405.196 -0.995088 -1.42981 0
M  V30 4064 C 402.328 -2.03859 -2.73229 0
M  V30 4065 H 403.521 -2.7941 -1.08949 0
M  V30 4066 H 401.074 -1.46942 -0.532702 0
M  V30 4067 H 401.809 -1.12117 -3.04303 0
M  V30 4068 H 401.594 -2.8588 -2.68356 0
M  V30 4069 H 403.084 -2.28857 -3.49305 0
M  V30 4070 N 403.521 0.559213 -1.47345 0
M  V30 4071 C 404.453 1.68161 -1.55738 0
M  V30 4072 C 405.466 1.56636 -0.443744 0
M  V30 4073 O 406.655 1.6363 -0.713258 0
M  V30 4074 C 403.755 3.06611 -1.4437 0
M  V30 4075 C 402.928 3.4391 -2.70268 0
M  V30 4076 C 401.987 4.61515 -2.52765 0
M  V30 4077 O 401.013 4.66197 -3.26572 0
M  V30 4078 N 402.215 5.57883 -1.6046 0
M  V30 4079 H 404.98 1.61408 -2.52522 0
M  V30 4080 H 402.541 0.7458 -1.43699 0
M  V30 4081 H 404.533 3.83117 -1.30398 0
M  V30 4082 H 403.103 3.07602 -0.556766 0
M  V30 4083 H 402.323 2.56873 -2.99015 0
M  V30 4084 H 403.611 3.65605 -3.53851 0
M  V30 4085 H 403.009 5.56855 -0.996422 0
M  V30 4086 H 401.566 6.33723 -1.52441 0
M  V30 4087 N 404.999 1.35443 0.805782 0
M  V30 4088 C 406.245 1.28952 1.56522 0
M  V30 4089 C 406.578 -0.135597 1.93726 0
M  V30 4090 O 405.853 -1.08516 1.61414 0
M  V30 4091 C 406.136 2.19678 2.85331 0
M  V30 4092 C 405.989 3.7081 2.54598 0
M  V30 4093 C 407.308 2.09495 3.8704 0
M  V30 4094 H 404.427 0.469764 0.567883 0
M  V30 4095 H 407.069 1.65851 0.927001 0
M  V30 4096 H 405.219 1.8834 3.39795 0
M  V30 4097 H 406.891 4.12593 2.06312 0
M  V30 4098 H 405.134 3.91051 1.8778 0
M  V30 4099 H 405.805 4.29679 3.46525 0
M  V30 4100 H 408.281 2.37045 3.41978 0
M  V30 4101 H 407.157 2.75173 4.74943 0
M  V30 4102 H 407.418 1.07714 4.28777 0
M  V30 4103 N 406.477 -1.02803 1.19454 0
M  V30 4104 C 407.407 -2.12999 0.956758 0
M  V30 4105 C 408.388 -1.69743 -0.110188 0
M  V30 4106 O 409.573 -1.94148 0.0450038 0
M  V30 4107 C 406.703 -3.43746 0.495553 0
M  V30 4108 C 405.657 -4.00688 1.50443 0
M  V30 4109 C 404.983 -5.27067 0.900275 0
M  V30 4110 C 406.283 -4.35397 2.8849 0
M  V30 4111 H 407.977 -2.33148 1.87836 0
M  V30 4112 H 405.523 -1.12045 0.904539 0
M  V30 4113 H 407.476 -4.2021 0.316493 0
M  V30 4114 H 406.2 -3.23321 -0.461646 0
M  V30 4115 H 404.859 -3.2632 1.67065 0
M  V30 4116 H 404.507 -5.02959 -0.064503 0
M  V30 4117 H 404.207 -5.66127 1.57397 0
M  V30 4118 H 405.731 -6.06196 0.73203 0
M  V30 4119 H 407.145 -5.02795 2.75446 0
M  V30 4120 H 405.542 -4.85541 3.52661 0
M  V30 4121 H 406.612 -3.44662 3.41081 0
M  V30 4122 N 407.956 -0.998596 -1.21925 0
M  V30 4123 C 408.919 -0.558679 -2.22287 0
M  V30 4124 C 409.919 0.361525 -1.56683 0
M  V30 4125 O 411.109 0.152695 -1.73529 0
M  V30 4126 C 408.241 0.18661 -3.40389 0
M  V30 4127 H 409.434 -1.4463 -2.62721 0
M  V30 4128 H 406.987 -0.786413 -1.35075 0
M  V30 4129 H 407.722 1.08996 -3.05435 0
M  V30 4130 H 407.507 -0.474188 -3.89222 0
M  V30 4131 H 408.997 0.482367 -4.14805 0
M  V30 4132 N 409.434 1.37368 -0.772513 0
M  V30 4133 C 410.344 2.34053 -0.160081 0
M  V30 4134 C 411.36 1.60216 0.678728 0
M  V30 4135 O 412.536 1.92303 0.59847 0
M  V30 4136 C 409.601 3.3939 0.708182 0
M  V30 4137 C 408.662 4.29048 -0.147172 0
M  V30 4138 C 407.895 5.29354 0.679744 0
M  V30 4139 O 408.118 5.3723 1.91678 0
M  V30 4140 O 407.052 6.01835 0.0885444 0
M  V30 4141 H 410.878 2.88159 -0.959053 0
M  V30 4142 H 408.463 1.39543 -0.533685 0
M  V30 4143 H 410.345 4.03839 1.20384 0
M  V30 4144 H 409.02 2.8761 1.48533 0
M  V30 4145 H 407.927 3.67697 -0.689205 0
M  V30 4146 H 409.26 4.84134 -0.887423 0
M  V30 4147 N 410.912 0.523116 1.48665 0
M  V30 4148 C 412.159 -0.0134763 2.02496 0
M  V30 4149 C 412.487 -1.3493 1.40086 0
M  V30 4150 O 411.742 -1.88286 0.533567 0
M  V30 4151 C 412.041 -0.191671 3.56886 0
M  V30 4152 C 411.707 1.06893 4.38046 0
M  V30 4153 C 410.369 1.41443 4.59943 0
M  V30 4154 C 412.721 1.90584 4.85106 0
M  V30 4155 C 410.049 2.59594 5.26144 0
M  V30 4156 C 412.401 3.07907 5.52609 0
M  V30 4157 C 411.065 3.42811 5.72745 0
M  V30 4158 H 410.335 -0.00493133 0.740984 0
M  V30 4159 H 412.982 0.687751 1.78724 0
M  V30 4160 H 411.287 -0.97561 3.79459 0
M  V30 4161 H 412.984 -0.621659 3.96152 0
M  V30 4162 H 409.574 0.789848 4.21259 0
M  V30 4163 H 413.758 1.65203 4.67997 0
M  V30 4164 H 409.014 2.86847 5.39934 0
M  V30 4165 H 413.188 3.73066 5.88043 0
M  V30 4166 H 410.815 4.34462 6.23816 0
M  V30 4167 N 412.39 -1.55475 0.257931 0
M  V30 4168 C 413.32 -2.24815 -0.630912 0
M  V30 4169 C 414.301 -1.23224 -1.17259 0
M  V30 4170 O 415.486 -1.51904 -1.20991 0
M  V30 4171 C 412.616 -2.95609 -1.82298 0
M  V30 4172 C 411.57 -4.03982 -1.41359 0
M  V30 4173 C 410.896 -4.6226 -2.68738 0
M  V30 4174 C 412.196 -5.19109 -0.57648 0
M  V30 4175 H 413.89 -2.99354 -0.0526878 0
M  V30 4176 H 411.436 -1.4398 -0.023901 0
M  V30 4177 H 413.389 -3.42822 -2.45054 0
M  V30 4178 H 412.113 -2.18577 -2.42676 0
M  V30 4179 H 410.772 -3.57555 -0.809324 0
M  V30 4180 H 410.42 -3.81915 -3.27338 0
M  V30 4181 H 410.12 -5.35424 -2.42065 0
M  V30 4182 H 411.644 -5.12212 -3.32372 0
M  V30 4183 H 413.058 -5.62479 -1.10861 0
M  V30 4184 H 411.455 -5.98729 -0.405351 0
M  V30 4185 H 412.525 -4.83174 0.408776 0
M  V30 4186 N 413.868 0.0150385 -1.57593 0
M  V30 4187 C 414.831 0.995996 -2.06428 0
M  V30 4188 C 415.831 1.2818 -0.970903 0
M  V30 4189 O 417.021 1.22949 -1.23406 0
M  V30 4190 C 414.153 2.32506 -2.49307 0
M  V30 4191 H 415.346 0.573873 -2.94358 0
M  V30 4192 H 412.899 0.262186 -1.54085 0
M  V30 4193 H 413.634 2.79438 -1.64575 0
M  V30 4194 H 413.419 2.13087 -3.29145 0
M  V30 4195 H 414.909 3.02906 -2.87468 0
M  V30 4196 N 415.346 1.54954 0.287554 0
M  V30 4197 C 416.762 1.46469 0.633964 0
M  V30 4198 C 416.962 0.666865 1.90145 0
M  V30 4199 O 416.018 0.179906 2.51858 0
M  V30 4200 C 417.331 2.90556 0.774454 0
M  V30 4201 C 418.879 3.00681 0.869462 0
M  V30 4202 C 419.354 4.45993 1.04184 0
M  V30 4203 N 420.845 4.4976 1.10772 0
M  V30 4204 C 421.58 5.59393 1.25964 0
M  V30 4205 N 421.076 6.78923 1.37968 0
M  V30 4206 N 422.869 5.47107 1.28959 0
M  V30 4207 H 415.02 2.05288 -0.545041 0
M  V30 4208 H 417.283 0.930305 -0.182308 0
M  V30 4209 H 416.989 3.51594 -0.086207 0
M  V30 4210 H 416.863 3.38743 1.6593 0
M  V30 4211 H 419.25 2.39749 1.7206 0
M  V30 4212 H 419.331 2.55769 -0.0396831 0
M  V30 4213 H 418.975 5.07524 0.195422 0
M  V30 4214 H 418.905 4.88548 1.96542 0
M  V30 4215 H 421.396 3.63651 1.02794 0
M  V30 4216 H 421.709 7.58231 1.49353 0
M  V30 4217 H 420.054 6.81763 1.34999 0
M  V30 4218 H 423.245 4.52668 1.19202 0
M  V30 4219 H 423.418 6.32595 1.40455 0
M  V30 4220 N 416.824 -0.551391 1.4764 0
M  V30 4221 C 417.756 -1.67333 1.56628 0
M  V30 4222 C 418.769 -1.56398 0.452045 0
M  V30 4223 O 419.958 -1.6325 0.721926 0
M  V30 4224 C 417.058 -3.05841 1.45994 0
M  V30 4225 C 416.231 -3.42472 2.72088 0
M  V30 4226 C 415.29 -4.60168 2.55209 0
M  V30 4227 O 414.316 -4.64458 3.2904 0
M  V30 4228 N 415.518 -5.57024 1.63416 0
M  V30 4229 H 418.283 -1.60066 2.53375 0
M  V30 4230 H 415.844 -0.738169 1.44093 0
M  V30 4231 H 417.836 -3.8242 1.32428 0
M  V30 4232 H 416.406 -3.07302 0.573071 0
M  V30 4233 H 415.626 -2.55284 3.00373 0
M  V30 4234 H 416.914 -3.63723 3.55785 0
M  V30 4235 H 416.312 -5.56319 1.02594 0
M  V30 4236 H 414.869 -6.32906 1.558 0
M  V30 4237 N 418.302 -1.35869 -0.798587 0
M  V30 4238 C 419.713 -1.26498 -1.37314 0
M  V30 4239 C 420.064 0.0991899 -1.95949 0
M  V30 4240 O 419.189 1.0004 -1.91888 0
M  V30 4241 C 419.784 -2.29054 -2.49639 0
M  V30 4242 C 418.343 -2.234 -3.02935 0
M  V30 4243 C 417.49 -2.14329 -1.75949 0
M  V30 4244 H 420.441 -1.46881 -0.600971 0
M  V30 4245 H 420.462 -1.92166 -3.28409 0
M  V30 4246 H 419.974 -3.2833 -2.06933 0
M  V30 4247 H 418.075 -1.27562 -3.50084 0
M  V30 4248 H 418.188 -3.15703 -3.60372 0
M  V30 4249 H 416.552 -1.60435 -1.9782 0
M  V30 4250 H 417.335 -3.15477 -1.35384 0
M  V30 4251 N 419.78 1.02168 -1.19998 0
M  V30 4252 C 420.712 2.10705 -0.901994 0
M  V30 4253 C 421.725 1.6244 0.108216 0
M  V30 4254 O 422.914 1.78082 -0.12214 0
M  V30 4255 C 420.014 3.37291 -0.329834 0
M  V30 4256 C 419.187 4.14714 -1.39035 0
M  V30 4257 C 418.246 5.19606 -0.830432 0
M  V30 4258 O 417.272 5.48809 -1.50989 0
M  V30 4259 N 418.474 5.79366 0.362696 0
M  V30 4260 H 421.239 2.36856 -1.83628 0
M  V30 4261 H 418.8 1.18518 -1.10296 0
M  V30 4262 H 420.792 4.04657 0.0587633 0
M  V30 4263 H 419.362 3.0843 0.508891 0
M  V30 4264 H 418.582 3.42392 -1.9535 0
M  V30 4265 H 419.87 4.63226 -2.10474 0
M  V30 4266 H 419.268 5.57968 0.932081 0
M  V30 4267 H 417.825 6.48106 0.69299 0
M  V30 4268 N 421.258 1.00505 1.21394 0
M  V30 4269 C 422.504 0.688793 1.90745 0
M  V30 4270 C 422.837 -0.778486 1.77914 0
M  V30 4271 O 422.112 -1.56433 1.15581 0
M  V30 4272 C 422.395 1.11063 3.42545 0
M  V30 4273 C 422.248 2.63737 3.64367 0
M  V30 4274 C 423.567 0.673059 4.34923 0
M  V30 4275 H 420.686 0.251702 0.692687 0
M  V30 4276 H 423.328 1.25074 1.43026 0
M  V30 4277 H 421.478 0.632508 3.83317 0
M  V30 4278 H 423.15 3.19313 3.32922 0
M  V30 4279 H 421.393 3.05248 3.08231 0
M  V30 4280 H 422.064 2.88305 4.70727 0
M  V30 4281 H 424.54 1.08392 4.01734 0
M  V30 4282 H 423.416 0.996383 5.39781 0
M  V30 4283 H 423.677 -0.425808 4.40045 0
M  V30 4284 N 422.737 -1.36956 0.779787 0
M  V30 4285 C 423.647 -2.33965 0.172491 0
M  V30 4286 C 424.663 -1.60574 -0.670222 0
M  V30 4287 O 425.839 -1.92617 -0.588263 0
M  V30 4288 C 422.904 -3.39761 -0.690173 0
M  V30 4289 C 421.965 -4.28964 0.169924 0
M  V30 4290 C 421.198 -5.29707 -0.651662 0
M  V30 4291 O 421.421 -5.38238 -1.88827 0
M  V30 4292 O 420.355 -6.01873 -0.0566264 0
M  V30 4293 H 424.181 -2.87647 0.974321 0
M  V30 4294 H 421.766 -1.39258 0.541078 0
M  V30 4295 H 423.648 -4.04471 -1.1824 0
M  V30 4296 H 422.323 -2.88394 -1.47006 0
M  V30 4297 H 421.23 -3.67326 0.708696 0
M  V30 4298 H 422.563 -4.83656 0.913085 0
M  V30 4299 N 424.215 -0.530993 -1.48385 0
M  V30 4300 C 425.145 0.219985 -2.32461 0
M  V30 4301 C 426.126 0.934111 -1.42156 0
M  V30 4302 O 427.311 0.919694 -1.71042 0
M  V30 4303 C 424.441 1.26674 -3.23375 0
M  V30 4304 C 423.395 0.67069 -4.22712 0
M  V30 4305 C 422.721 1.82017 -5.02766 0
M  V30 4306 C 424.021 -0.358268 -5.2107 0
M  V30 4307 H 425.715 -0.48187 -2.95497 0
M  V30 4308 H 423.261 -0.233182 -1.42099 0
M  V30 4309 H 425.214 1.80006 -3.81019 0
M  V30 4310 H 423.938 1.99818 -2.58341 0
M  V30 4311 H 422.597 0.158878 -3.66256 0
M  V30 4312 H 422.245 2.54002 -4.34157 0
M  V30 4313 H 421.945 1.42727 -5.70003 0
M  V30 4314 H 423.469 2.35725 -5.63264 0
M  V30 4315 H 424.883 0.0880081 -5.73232 0
M  V30 4316 H 423.28 -0.66861 -5.96364 0
M  V30 4317 H 424.35 -1.26367 -4.68145 0
M  V30 4318 N 425.693 1.55336 -0.266172 0
M  V30 4319 C 426.942 1.98574 0.353749 0
M  V30 4320 C 427.255 1.15789 1.57646 0
M  V30 4321 O 428.461 1.49129 2.26876 0
M  V30 4322 C 426.917 3.53403 0.680747 0
M  V30 4323 C 426.525 4.44953 -0.52165 0
M  V30 4324 C 428.269 4.05251 1.26379 0
M  V30 4325 C 426.176 5.91156 -0.169736 0
M  V30 4326 H 425.106 0.741643 0.135949 0
M  V30 4327 H 427.757 1.79743 -0.369421 0
M  V30 4328 H 426.139 3.68001 1.46257 0
M  V30 4329 H 427.313 4.42121 -1.29869 0
M  V30 4330 H 425.628 4.03691 -1.02093 0
M  V30 4331 H 428.225 5.12021 1.54074 0
M  V30 4332 H 428.568 3.53749 2.19471 0
M  V30 4333 H 429.101 3.94057 0.544447 0
M  V30 4334 H 425.84 6.46736 -1.0683 0
M  V30 4335 H 425.36 5.97079 0.570717 0
M  V30 4336 H 427.039 6.4655 0.241245 0
M  V30 4337 N 427.171 -0.0066808 1.57599 0
M  V30 4338 C 428.121 -1.0086 2.04478 0
M  V30 4339 C 429.105 -1.30714 0.938231 0
M  V30 4340 O 430.297 -1.29924 1.20203 0
M  V30 4341 C 427.426 -2.30273 2.54615 0
M  V30 4342 C 426.512 -2.03413 3.72134 0
M  V30 4343 N 426.903 -1.46688 4.84062 0
M  V30 4344 C 425.201 -2.33589 3.79937 0
M  V30 4345 C 425.902 -1.36146 5.65543 0
M  V30 4346 N 424.878 -1.84477 5.1134 0
M  V30 4347 H 428.68 -0.564402 2.8843 0
M  V30 4348 H 426.194 -0.212521 1.61003 0
M  V30 4349 H 428.191 -3.02885 2.86472 0
M  V30 4350 H 426.851 -2.75352 1.72079 0
M  V30 4351 H 427.862 -1.14658 5.05049 0
M  V30 4352 H 424.539 -2.81589 3.08243 0
M  V30 4353 H 425.929 -0.925873 6.6549 0
M  V30 4354 N 428.649 -1.55105 -0.279332 0
M  V30 4355 C 429.879 -1.7917 -1.02867 0
M  V30 4356 C 430.287 -0.56204 -1.80659 0
M  V30 4357 O 429.63 0.478266 -1.77365 0
M  V30 4358 C 429.692 -2.96061 -2.03932 0
M  V30 4359 C 429.356 -4.33341 -1.45137 0
M  V30 4360 C 430.353 -5.12565 -0.870266 0
M  V30 4361 C 428.038 -4.79987 -1.48048 0
M  V30 4362 C 430.032 -6.36565 -0.326097 0
M  V30 4363 C 427.719 -6.03944 -0.932443 0
M  V30 4364 C 428.717 -6.8207 -0.356247 0
M  V30 4365 O 428.405 -8.03691 0.183412 0
M  V30 4366 H 428.137 -0.600796 -0.309872 0
M  V30 4367 H 430.691 -2.02932 -0.317468 0
M  V30 4368 H 428.921 -2.67975 -2.78794 0
M  V30 4369 H 430.61 -3.07506 -2.64943 0
M  V30 4370 H 431.376 -4.77661 -0.840521 0
M  V30 4371 H 427.255 -4.1919 -1.91835 0
M  V30 4372 H 430.799 -6.97489 0.124286 0
M  V30 4373 H 426.696 -6.3833 -0.959407 0
M  V30 4374 H 427.464 -8.18468 0.0721681 0
M  V30 4375 N 430.127 0.543554 -1.4793 0
M  V30 4376 C 431.538 1.12561 -1.48953 0
M  V30 4377 C 431.889 1.94578 -0.251754 0
M  V30 4378 O 431.014 2.0665 0.642255 0
M  V30 4379 C 431.609 2.04801 -2.69892 0
M  V30 4380 C 430.168 2.58251 -2.73831 0
M  V30 4381 C 429.315 1.34918 -2.42265 0
M  V30 4382 H 432.266 0.32947 -1.55242 0
M  V30 4383 H 432.287 2.88886 -2.47639 0
M  V30 4384 H 431.799 1.4508 -3.59963 0
M  V30 4385 H 429.9 3.21732 -1.87934 0
M  V30 4386 H 430.013 2.98312 -3.74895 0
M  V30 4387 H 428.377 1.66046 -1.93134 0
M  V30 4388 H 429.16 0.769693 -3.3456 0
M  V30 4389 N 431.605 1.3629 0.791371 0
M  V30 4390 C 432.853 1.30154 1.5461 0
M  V30 4391 C 433.174 -0.119409 1.94634 0
M  V30 4392 O 432.444 -1.05924 1.64794 0
M  V30 4393 H 431.024 0.478784 0.573389 0
M  V30 4394 H 433.686 1.70565 0.94306 0
M  V30 4395 H 432.782 1.92762 2.45457 0
M  V30 4396 N 433.083 -1.0153 1.20538 0
M  V30 4397 C 434.013 -2.11972 0.979295 0
M  V30 4398 C 434.994 -1.6985 -0.0921787 0
M  V30 4399 O 436.179 -1.94089 0.0655932 0
M  V30 4400 C 433.309 -3.43201 0.531984 0
M  V30 4401 C 432.263 -3.9907 1.54685 0
M  V30 4402 C 431.589 -5.26082 0.956127 0
M  V30 4403 C 432.889 -4.32313 2.93092 0
M  V30 4404 H 434.583 -2.31143 1.90298 0
M  V30 4405 H 432.129 -1.11079 0.916372 0
M  V30 4406 H 434.082 -4.1985 0.361044 0
M  V30 4407 H 432.806 -3.23792 -0.427327 0
M  V30 4408 H 431.465 -3.2453 1.70517 0
M  V30 4409 H 431.113 -5.02999 -0.0111538 0
M  V30 4410 H 430.813 -5.64426 1.63393 0
M  V30 4411 H 432.337 -6.05386 0.796284 0
M  V30 4412 H 433.751 -4.99845 2.80763 0
M  V30 4413 H 432.148 -4.81774 3.57791 0
M  V30 4414 H 433.218 -3.41025 3.44717 0
M  V30 4415 N 434.561 -1.01147 -1.20859 0
M  V30 4416 C 435.524 -0.582224 -2.21682 0
M  V30 4417 C 436.524 0.344887 -1.57058 0
M  V30 4418 O 437.714 0.134281 -1.73682 0
M  V30 4419 C 434.846 0.150496 -3.40568 0
M  V30 4420 H 436.039 -1.47408 -2.61172 0
M  V30 4421 H 433.592 -0.800695 -1.34233 0
M  V30 4422 H 434.327 1.0575 -3.06574 0
M  V30 4423 H 434.112 -0.515444 -3.88697 0
M  V30 4424 H 435.602 0.438344 -4.15293 0
M  V30 4425 N 436.039 1.36541 -0.78704 0
M  V30 4426 C 437.264 2.0409 -0.369053 0
M  V30 4427 C 437.689 1.58957 1.00569 0
M  V30 4428 O 437.047 0.756926 1.64743 0
M  V30 4429 C 437.095 3.57924 -0.438466 0
M  V30 4430 O 436.199 4.08642 0.555479 0
M  V30 4431 H 435.54 0.645142 -0.157122 0
M  V30 4432 H 438.07 1.74545 -1.06749 0
M  V30 4433 H 438.08 4.06887 -0.301218 0
M  V30 4434 H 436.755 3.90127 -1.44132 0
M  V30 4435 H 435.332 3.70958 0.380088 0
M  V30 4436 N 437.518 0.538854 1.48102 0
M  V30 4437 C 438.765 0.0080018 2.02498 0
M  V30 4438 C 439.093 -1.33437 1.41509 0
M  V30 4439 O 438.348 -1.87709 0.553507 0
M  V30 4440 C 438.647 -0.153808 3.57069 0
M  V30 4441 C 438.313 1.11533 4.36888 0
M  V30 4442 C 436.975 1.46314 4.58417 0
M  V30 4443 C 439.327 1.95718 4.83057 0
M  V30 4444 C 436.655 2.6516 5.23361 0
M  V30 4445 C 439.007 3.13751 5.49312 0
M  V30 4446 C 437.671 3.48866 5.69077 0
M  V30 4447 H 436.941 0.00292807 0.740994 0
M  V30 4448 H 439.588 0.706668 1.77984 0
M  V30 4449 H 437.893 -0.935309 3.80472 0
M  V30 4450 H 439.59 -0.579607 3.96789 0
M  V30 4451 H 436.18 0.834484 4.20398 0
M  V30 4452 H 440.364 1.70158 4.66219 0
M  V30 4453 H 435.62 2.92558 5.36861 0
M  V30 4454 H 439.794 3.79282 5.84053 0
M  V30 4455 H 437.421 4.41054 6.19173 0
M  V30 4456 N 438.996 -1.55193 0.274407 0
M  V30 4457 C 440.407 -1.85358 -0.223488 0
M  V30 4458 C 440.758 -1.19642 -1.555 0
M  V30 4459 O 439.883 -0.484498 -2.10907 0
M  V30 4460 C 440.478 -3.36282 -0.412285 0
M  V30 4461 C 439.037 -3.66574 -0.854413 0
M  V30 4462 C 438.184 -2.7725 0.0527056 0
M  V30 4463 H 441.135 -1.50743 0.496215 0
M  V30 4464 H 441.156 -3.59349 -1.25094 0
M  V30 4465 H 440.668 -3.84083 0.556965 0
M  V30 4466 H 438.769 -3.24273 -1.83516 0
M  V30 4467 H 438.882 -4.74073 -0.692226 0
M  V30 4468 H 437.246 -2.50447 -0.463484 0
M  V30 4469 H 438.029 -3.27865 1.01783 0
M  V30 4470 N 440.474 -0.00167713 -1.576 0
M  V30 4471 C 441.406 1.0174 -2.05382 0
M  V30 4472 C 442.419 1.30595 -0.972052 0
M  V30 4473 O 443.608 1.27542 -1.24882 0
M  V30 4474 C 440.708 2.35174 -2.44022 0
M  V30 4475 C 439.881 2.25234 -3.74951 0
M  V30 4476 C 438.94 3.4137 -4.00441 0
M  V30 4477 O 437.966 3.19483 -4.71083 0
M  V30 4478 N 439.168 4.64275 -3.48467 0
M  V30 4479 H 441.933 0.609902 -2.93428 0
M  V30 4480 H 439.494 0.185672 -1.60832 0
M  V30 4481 H 441.486 3.11643 -2.58187 0
M  V30 4482 H 440.056 2.67659 -1.61485 0
M  V30 4483 H 439.276 1.33664 -3.70847 0
M  V30 4484 H 440.564 2.15767 -4.60784 0
M  V30 4485 H 439.962 4.84955 -2.91264 0
M  V30 4486 H 438.519 5.38005 -3.67959 0
M  V30 4487 N 441.952 1.55251 0.271103 0
M  V30 4488 C 443.182 1.79713 1.01916 0
M  V30 4489 C 443.59 0.571613 1.80359 0
M  V30 4490 O 442.933 -0.468853 1.77616 0
M  V30 4491 C 442.995 2.97138 2.02359 0
M  V30 4492 C 442.659 4.34104 1.42837 0
M  V30 4493 C 443.656 5.13019 0.843071 0
M  V30 4494 C 441.341 4.80765 1.455 0
M  V30 4495 C 443.335 6.36729 0.292333 0
M  V30 4496 C 441.022 6.0443 0.900402 0
M  V30 4497 C 442.02 6.8225 0.32007 0
M  V30 4498 O 441.708 8.03582 -0.226031 0
M  V30 4499 H 441.44 0.602431 0.306681 0
M  V30 4500 H 443.994 2.03097 0.306701 0
M  V30 4501 H 442.224 2.6945 2.77369 0
M  V30 4502 H 443.913 3.08907 2.63309 0
M  V30 4503 H 444.679 4.781 0.815178 0
M  V30 4504 H 440.558 4.20202 1.89609 0
M  V30 4505 H 444.102 6.97414 -0.161274 0
M  V30 4506 H 439.999 6.3883 0.925541 0
M  V30 4507 H 440.767 8.18418 -0.115572 0
M  V30 4508 N 443.43 -0.535701 1.48216 0
M  V30 4509 C 444.658 -1.31671 1.59594 0
M  V30 4510 C 445.073 -1.87083 0.254056 0
M  V30 4511 O 444.43 -1.66112 -0.755854 0
M  V30 4512 C 444.481 -2.47158 2.63809 0
M  V30 4513 O 444.202 -1.94032 3.92789 0
M  V30 4514 C 445.703 -3.39062 2.85573 0
M  V30 4515 H 442.923 -0.400623 0.538277 0
M  V30 4516 H 445.467 -0.646827 1.94001 0
M  V30 4517 H 443.622 -3.10043 2.32276 0
M  V30 4518 H 444.036 -2.69585 4.49916 0
M  V30 4519 H 445.51 -4.16459 3.62306 0
M  V30 4520 H 445.987 -3.93941 1.94184 0
M  V30 4521 H 446.593 -2.81975 3.18387 0
M  V30 4522 N 444.908 -1.36708 -0.784132 0
M  V30 4523 C 445.838 -1.34153 -1.91116 0
M  V30 4524 C 446.819 -0.212121 -1.68772 0
M  V30 4525 O 448.004 -0.410581 -1.8981 0
M  V30 4526 C 445.134 -1.13535 -3.28218 0
M  V30 4527 C 444.088 -2.23356 -3.65097 0
M  V30 4528 C 443.414 -1.87875 -5.00607 0
M  V30 4529 C 444.714 -3.65473 -3.73131 0
M  V30 4530 H 446.408 -2.28459 -1.93512 0
M  V30 4531 H 443.954 -1.09973 -0.929618 0
M  V30 4532 H 445.907 -1.10381 -4.06687 0
M  V30 4533 H 444.631 -0.156804 -3.26223 0
M  V30 4534 H 443.29 -2.25645 -2.88929 0
M  V30 4535 H 442.938 -0.885814 -4.95139 0
M  V30 4536 H 442.638 -2.61406 -5.26252 0
M  V30 4537 H 444.162 -1.86286 -5.81489 0
M  V30 4538 H 445.576 -3.65382 -4.41779 0
M  V30 4539 H 443.973 -4.37953 -4.10265 0
M  V30 4540 H 445.043 -3.99995 -2.74102 0
M  V30 4541 N 446.386 1.0089 -1.21074 0
M  V30 4542 C 447.349 2.0775 -0.968129 0
M  V30 4543 C 448.349 1.6069 0.0593445 0
M  V30 4544 O 449.539 1.73293 -0.177525 0
M  V30 4545 C 446.671 3.37794 -0.459108 0
M  V30 4546 H 447.864 2.30707 -1.9161 0
M  V30 4547 H 445.417 1.17807 -1.02719 0
M  V30 4548 H 446.152 3.20516 0.49397 0
M  V30 4549 H 445.937 3.7328 -1.20019 0
M  V30 4550 H 447.427 4.16454 -0.309099 0
M  V30 4551 N 447.864 1.01787 1.20321 0
M  V30 4552 C 449.28 0.732951 1.41774 0
M  V30 4553 C 449.48 -0.686883 1.89431 0
M  V30 4554 O 448.536 -1.45446 2.06402 0
M  V30 4555 C 449.849 1.75973 2.43832 0
M  V30 4556 C 451.397 1.77802 2.57596 0
M  V30 4557 C 451.872 2.7941 3.62897 0
M  V30 4558 N 453.363 2.78157 3.70382 0
M  V30 4559 C 454.098 3.53434 4.51521 0
M  V30 4560 N 453.594 4.38392 5.36455 0
M  V30 4561 N 455.387 3.42026 4.46066 0
M  V30 4562 H 447.538 1.93447 0.877035 0
M  V30 4563 H 449.801 0.835712 0.447536 0
M  V30 4564 H 449.507 2.77699 2.15815 0
M  V30 4565 H 449.381 1.57292 3.4284 0
M  V30 4566 H 451.768 0.767602 2.84942 0
M  V30 4567 H 451.849 2.00557 1.58779 0
M  V30 4568 H 451.493 3.80616 3.36295 0
M  V30 4569 H 451.423 2.53916 4.61339 0
M  V30 4570 H 453.914 2.16531 3.09714 0
M  V30 4571 H 454.227 4.92596 5.95457 0
M  V30 4572 H 452.572 4.4247 5.35953 0
M  V30 4573 H 455.763 2.75075 3.78749 0
M  V30 4574 H 455.936 4.00946 5.09064 0
M  V30 4575 N 449.342 -1.36122 0.79427 0
M  V30 4576 C 450.274 -2.28683 0.153903 0
M  V30 4577 C 451.287 -1.49707 -0.639669 0
M  V30 4578 O 452.476 -1.7209 -0.474054 0
M  V30 4579 C 449.576 -3.29202 -0.804921 0
M  V30 4580 C 448.749 -4.37358 -0.060366 0
M  V30 4581 C 447.808 -5.17811 -0.935849 0
M  V30 4582 O 446.834 -5.67853 -0.391309 0
M  V30 4583 N 448.036 -5.34721 -2.25951 0
M  V30 4584 H 450.801 -2.84278 0.949008 0
M  V30 4585 H 448.362 -1.4834 0.648611 0
M  V30 4586 H 450.354 -3.79914 -1.39455 0
M  V30 4587 H 448.924 -2.74212 -1.50088 0
M  V30 4588 H 448.144 -3.87746 0.710382 0
M  V30 4589 H 449.432 -5.06777 0.45324 0
M  V30 4590 H 448.83 -4.95687 -2.72601 0
M  V30 4591 H 447.387 -5.88657 -2.79867 0
M  V30 4592 N 450.82 -0.546701 -1.47814 0
M  V30 4593 C 451.752 0.244196 -2.27895 0
M  V30 4594 C 452.765 0.88911 -1.36377 0
M  V30 4595 O 453.954 0.764733 -1.61289 0
M  V30 4596 C 451.054 1.36252 -3.10304 0
M  V30 4597 C 450.227 0.816382 -4.29714 0
M  V30 4598 C 449.286 1.81789 -4.93801 0
M  V30 4599 O 448.312 1.36818 -5.52512 0
M  V30 4600 N 449.514 3.15085 -4.87547 0
M  V30 4601 H 452.279 -0.442694 -2.96412 0
M  V30 4602 H 449.84 -0.382095 -1.57327 0
M  V30 4603 H 451.832 2.03102 -3.50045 0
M  V30 4604 H 450.402 1.95281 -2.44099 0
M  V30 4605 H 449.622 -0.0285981 -3.9419 0
M  V30 4606 H 450.91 0.430668 -5.06974 0
M  V30 4607 H 450.308 3.54275 -4.41028 0
M  V30 4608 H 448.865 3.77522 -5.31339 0
M  V30 4609 N 452.299 1.55045 -0.282633 0
M  V30 4610 C 453.232 2.18951 0.64311 0
M  V30 4611 C 454.21 1.15287 1.14664 0
M  V30 4612 O 455.394 1.43846 1.21822 0
M  V30 4613 C 452.521 2.81874 1.87789 0
M  V30 4614 C 451.567 3.98906 1.50919 0
M  V30 4615 S 452.4 5.3234 0.580884 0
M  V30 4616 C 453.556 5.98737 1.82387 0
M  V30 4617 H 453.789 2.97131 0.100138 0
M  V30 4618 H 451.322 1.54255 -0.0668514 0
M  V30 4619 H 453.28 3.18757 2.58658 0
M  V30 4620 H 451.941 2.03573 2.392 0
M  V30 4621 H 451.134 4.4165 2.42819 0
M  V30 4622 H 450.736 3.63485 0.88061 0
M  V30 4623 H 453.028 6.18427 2.76684 0
M  V30 4624 H 453.971 6.93318 1.4393 0
M  V30 4625 H 454.379 5.28177 1.99223 0
M  V30 4626 N 453.777 0.010035 1.57597 0
M  V30 4627 C 455.002 -0.687021 1.95691 0
M  V30 4628 C 455.427 -1.65952 0.885519 0
M  V30 4629 O 454.785 -1.80633 -0.15543 0
M  V30 4630 C 454.833 -1.3864 3.32884 0
M  V30 4631 O 453.937 -2.50115 3.27897 0
M  V30 4632 H 453.278 -0.181989 0.638573 0
M  V30 4633 H 455.808 0.0662122 2.04493 0
M  V30 4634 H 455.818 -1.74754 3.6868 0
M  V30 4635 H 454.493 -0.673411 4.10412 0
M  V30 4636 H 453.07 -2.16253 3.03791 0
M  V30 4637 N 455.255 -1.55392 -0.262866 0
M  V30 4638 C 456.187 -1.85392 -1.34768 0
M  V30 4639 C 457.2 -0.739069 -1.45057 0
M  V30 4640 O 458.389 -1.01703 -1.46693 0
M  V30 4641 C 455.489 -2.01088 -2.72795 0
M  V30 4642 C 454.662 -3.31828 -2.84972 0
M  V30 4643 C 453.721 -3.37464 -4.03738 0
M  V30 4644 O 452.747 -4.10778 -3.94018 0
M  V30 4645 N 453.949 -2.65599 -5.16176 0
M  V30 4646 H 456.714 -2.79029 -1.09375 0
M  V30 4647 H 454.275 -1.55434 -0.452981 0
M  V30 4648 H 456.267 -2.02217 -3.50557 0
M  V30 4649 H 454.837 -1.1427 -2.90966 0
M  V30 4650 H 454.057 -3.43152 -1.94012 0
M  V30 4651 H 455.345 -4.18032 -2.90045 0
M  V30 4652 H 454.743 -2.05736 -5.26962 0
M  V30 4653 H 453.3 -2.72439 -5.92132 0
M  V30 4654 N 456.733 0.527833 -1.48498 0
M  V30 4655 C 458.144 1.10975 -1.50138 0
M  V30 4656 C 458.495 1.943 -0.272378 0
M  V30 4657 O 457.62 2.07319 0.620301 0
M  V30 4658 C 458.215 2.01927 -2.72049 0
M  V30 4659 C 456.774 2.55332 -2.76554 0
M  V30 4660 C 455.921 1.32341 -2.43683 0
M  V30 4661 H 458.872 0.312986 -1.55583 0
M  V30 4662 H 458.893 2.86244 -2.50689 0
M  V30 4663 H 458.405 1.41254 -3.61481 0
M  V30 4664 H 456.506 3.19721 -1.91336 0
M  V30 4665 H 456.619 2.94319 -3.78038 0
M  V30 4666 H 454.983 1.63989 -1.94884 0
M  V30 4667 H 455.766 0.734165 -3.35358 0
M  V30 4668 N 458.211 1.37122 0.776871 0
M  V30 4669 C 459.459 1.31787 1.53221 0
M  V30 4670 C 459.78 -0.0987589 1.9475 0
M  V30 4671 O 459.05 -1.0417 1.65908 0
M  V30 4672 H 457.63 0.484839 0.568278 0
M  V30 4673 H 460.292 1.71556 0.924917 0
M  V30 4674 H 459.388 1.95355 2.43398 0
M  V30 4675 N 459.689 -1.00246 1.21608 0
M  V30 4676 C 460.937 -1.73717 1.0328 0
M  V30 4677 C 461.258 -1.90102 -0.434318 0
M  V30 4678 O 460.528 -1.45376 -1.31311 0
M  V30 4679 H 459.108 -0.643613 0.379172 0
M  V30 4680 H 461.77 -1.20787 1.52959 0
M  V30 4681 H 460.866 -2.73535 1.50283 0
M  V30 4682 N 461.167 -1.02423 -1.1978 0
M  V30 4683 C 462.1 -0.545641 -2.21581 0
M  V30 4684 C 463.078 0.411024 -1.57319 0
M  V30 4685 O 464.262 0.329223 -1.85603 0
M  V30 4686 C 461.389 0.204973 -3.38079 0
M  V30 4687 C 460.435 -0.70241 -4.20676 0
M  V30 4688 S 461.268 -2.17595 -4.89298 0
M  V30 4689 C 462.424 -1.43572 -6.09211 0
M  V30 4690 H 462.657 -1.4082 -2.61834 0
M  V30 4691 H 460.19 -0.833771 -1.29952 0
M  V30 4692 H 462.148 0.631924 -4.05607 0
M  V30 4693 H 460.809 1.0432 -2.9627 0
M  V30 4694 H 460.002 -0.123193 -5.03849 0
M  V30 4695 H 459.604 -1.06747 -3.58442 0
M  V30 4696 H 461.896 -0.719806 -6.73665 0
M  V30 4697 H 462.839 -2.24388 -6.71607 0
M  V30 4698 H 463.247 -0.935252 -5.56699 0
M  V30 4699 N 462.645 1.35699 -0.801477 0
M  V30 4700 C 463.894 1.98165 -0.375979 0
M  V30 4701 C 464.207 1.64306 1.06127 0
M  V30 4702 O 465.413 2.20097 1.58964 0
M  V30 4703 C 463.869 3.54497 -0.621305 0
M  V30 4704 C 463.477 3.9727 -2.07076 0
M  V30 4705 C 465.221 4.23697 -0.26091 0
M  V30 4706 C 463.128 5.46427 -2.26211 0
M  V30 4707 H 462.058 0.741478 -0.136844 0
M  V30 4708 H 464.709 1.54834 -0.984814 0
M  V30 4709 H 463.091 3.95958 0.0574112 0
M  V30 4710 H 464.265 3.66974 -2.78687 0
M  V30 4711 H 462.58 3.40943 -2.39054 0
M  V30 4712 H 465.177 5.33334 -0.381994 0
M  V30 4713 H 465.52 4.0869 0.792344 0
M  V30 4714 H 466.053 3.87639 -0.893339 0
M  V30 4715 H 462.792 5.66396 -3.29963 0
M  V30 4716 H 462.312 5.78309 -1.59119 0
M  V30 4717 H 463.991 6.12819 -2.07513 0
M  V30 4718 N 464.123 0.554532 1.47522 0
M  V30 4719 C 465.086 -0.184174 2.28459 0
M  V30 4720 C 466.086 -0.845195 1.36796 0
M  V30 4721 O 467.276 -0.701467 1.59452 0
M  V30 4722 C 464.408 -1.26903 3.16399 0
M  V30 4723 H 465.601 0.526751 2.95238 0
M  V30 4724 H 463.154 0.311375 1.53167 0
M  V30 4725 H 463.889 -2.01244 2.54306 0
M  V30 4726 H 463.674 -0.799883 3.83854 0
M  V30 4727 H 465.164 -1.78794 3.77389 0
M  V30 4728 N 465.601 -1.54893 0.290851 0
M  V30 4729 C 466.848 -1.99933 -0.321391 0
M  V30 4730 C 467.176 -1.17927 -1.54672 0
M  V30 4731 O 466.431 -0.240902 -1.94212 0
M  V30 4732 C 466.73 -3.49815 -0.732397 0
M  V30 4733 C 466.396 -4.4921 0.390056 0
M  V30 4734 C 465.058 -4.76107 0.698223 0
M  V30 4735 C 467.41 -5.08453 1.14562 0
M  V30 4736 C 464.738 -5.59514 1.76526 0
M  V30 4737 C 467.09 -5.9302 2.2025 0
M  V30 4738 C 465.754 -6.18232 2.51684 0
M  V30 4739 H 465.024 -0.731608 -0.117605 0
M  V30 4740 H 467.671 -1.87107 0.407839 0
M  V30 4741 H 465.976 -3.60199 -1.54155 0
M  V30 4742 H 467.673 -3.82083 -1.21712 0
M  V30 4743 H 464.263 -4.28372 0.13976 0
M  V30 4744 H 468.447 -4.87683 0.920801 0
M  V30 4745 H 463.703 -5.77289 2.01364 0
M  V30 4746 H 467.877 -6.37955 2.7926 0
M  V30 4747 H 465.504 -6.82653 3.34499 0
M  V30 4748 N 467.08 -0.0183926 -1.57589 0
M  V30 4749 C 467.99 0.982943 -2.13015 0
M  V30 4750 C 469.006 1.36443 -1.07979 0
M  V30 4751 O 470.182 1.44802 -1.3998 0
M  V30 4752 C 467.247 2.25024 -2.63752 0
M  V30 4753 C 466.308 1.93018 -3.83461 0
M  V30 4754 C 465.541 3.13706 -4.31769 0
M  V30 4755 O 465.764 4.2601 -3.79305 0
M  V30 4756 O 464.698 2.96629 -5.23732 0
M  V30 4757 H 468.524 0.541709 -2.9883 0
M  V30 4758 H 466.109 0.201565 -1.48034 0
M  V30 4759 H 467.991 2.99441 -2.96502 0
M  V30 4760 H 466.666 2.68349 -1.81026 0
M  V30 4761 H 465.573 1.16019 -3.55655 0
M  V30 4762 H 466.906 1.54516 -4.67317 0
M  V30 4763 N 468.558 1.5553 0.254621 0
M  V30 4764 C 469.488 1.9268 1.31897 0
M  V30 4765 C 470.469 0.790797 1.506 0
M  V30 4766 O 471.654 1.05045 1.63337 0
M  V30 4767 C 468.784 2.21477 2.67517 0
M  V30 4768 C 467.738 3.37256 2.63519 0
M  V30 4769 C 467.064 3.51576 4.02862 0
M  V30 4770 C 468.364 4.73157 2.21179 0
M  V30 4771 H 470.058 2.81832 1.01051 0
M  V30 4772 H 467.604 1.35599 0.484662 0
M  V30 4773 H 469.557 2.46055 3.42104 0
M  V30 4774 H 468.281 1.29144 2.99982 0
M  V30 4775 H 466.94 3.12675 1.9139 0
M  V30 4776 H 466.588 2.56676 4.32581 0
M  V30 4777 H 466.288 4.2943 4.01078 0
M  V30 4778 H 467.812 3.78467 4.79161 0
M  V30 4779 H 469.226 4.97158 2.85494 0
M  V30 4780 H 467.623 5.54058 2.30521 0
M  V30 4781 H 468.693 4.70739 1.16332 0
M  V30 4782 N 470.036 -0.519951 1.48776 0
M  V30 4783 C 470.983 -1.62352 1.64044 0
M  V30 4784 C 471.953 -1.58945 0.482251 0
M  V30 4785 O 473.138 -1.77219 0.706971 0
M  V30 4786 C 470.278 -3.00579 1.69547 0
M  V30 4787 C 469.391 -3.14145 2.96541 0
M  V30 4788 C 468.526 -4.42991 2.93142 0
M  V30 4789 C 467.565 -4.50122 4.14797 0
M  V30 4790 N 466.702 -5.7037 4.09418 0
M  V30 4791 H 471.542 -1.48643 2.58281 0
M  V30 4792 H 469.079 -0.723516 1.28077 0
M  V30 4793 H 471.037 -3.80671 1.70719 0
M  V30 4794 H 469.667 -3.13036 0.787918 0
M  V30 4795 H 468.719 -2.27239 3.05068 0
M  V30 4796 H 470.031 -3.15275 3.86527 0
M  V30 4797 H 469.185 -5.31385 2.92772 0
M  V30 4798 H 467.924 -4.44398 2.00902 0
M  V30 4799 H 466.929 -3.60133 4.15433 0
M  V30 4800 H 468.154 -4.50445 5.08208 0
M  V30 4801 H 466.1 -5.72655 3.20004 0
M  V30 4802 H 466.017 -5.73036 4.93119 0
M  V30 4803 H 467.285 -6.61023 4.13121 0
M  V30 4804 N 471.514 -1.37532 -0.769588 0
M  V30 4805 C 472.762 -1.32597 -1.5252 0
M  V30 4806 C 473.083 0.0884294 -1.94799 0
M  V30 4807 O 472.353 1.03289 -1.66458 0
M  V30 4808 H 470.933 -0.487846 -0.565699 0
M  V30 4809 H 473.595 -1.72044 -0.915806 0
M  V30 4810 H 472.691 -1.96643 -2.42359 0
M  V30 4811 N 472.992 0.995999 -1.22138 0
M  V30 4812 C 474.24 1.73167 -1.042 0
M  V30 4813 C 474.561 1.90329 0.42423 0
M  V30 4814 O 473.831 1.4607 1.30539 0
M  V30 4815 H 472.411 0.641593 -0.38258 0
M  V30 4816 H 475.073 1.19974 -1.53598 0
M  V30 4817 H 474.169 2.72734 -1.51731 0
M  V30 4818 N 474.47 1.03057 1.19235 0
M  V30 4819 C 475.719 0.72326 1.88287 0
M  V30 4820 C 476.032 -0.751333 1.80594 0
M  V30 4821 O 477.238 -1.17176 2.44912 0
M  V30 4822 C 475.694 1.24338 3.3774 0
M  V30 4823 C 475.302 2.74587 3.53986 0
M  V30 4824 C 477.046 1.01213 4.12257 0
M  V30 4825 C 474.953 3.20009 4.97341 0
M  V30 4826 H 473.883 0.266848 0.705201 0
M  V30 4827 H 476.534 1.24509 1.34795 0
M  V30 4828 H 474.916 0.649457 3.90638 0
M  V30 4829 H 476.09 3.39649 3.11408 0
M  V30 4830 H 474.405 2.9601 2.9286 0
M  V30 4831 H 477.002 1.32675 5.17978 0
M  V30 4832 H 477.345 -0.051001 4.16269 0
M  V30 4833 H 477.878 1.57014 3.65501 0
M  V30 4834 H 474.617 4.25659 4.98493 0
M  V30 4835 H 474.137 2.59676 5.40674 0
M  V30 4836 H 475.816 3.13447 5.66003 0
M  V30 4837 N 475.948 -1.35272 0.808662 0
M  V30 4838 C 477.196 -1.98316 0.389233 0
M  V30 4839 C 477.517 -1.64465 -1.04767 0
M  V30 4840 O 476.787 -0.928175 -1.72516 0
M  V30 4841 H 475.367 -0.733585 0.140935 0
M  V30 4842 H 478.029 -1.6515 1.03496 0
M  V30 4843 H 477.125 -3.08123 0.496631 0
M  V30 4844 N 477.426 -0.562348 -1.47226 0
M  V30 4845 C 478.389 0.172056 -2.28553 0
M  V30 4846 C 479.389 0.837928 -1.37242 0
M  V30 4847 O 480.579 0.693001 -1.59822 0
M  V30 4848 C 477.711 1.25223 -3.17068 0
M  V30 4849 H 478.904 -0.542401 -2.94954 0
M  V30 4850 H 476.457 -0.319493 -1.53 0
M  V30 4851 H 477.192 1.99892 -2.55369 0
M  V30 4852 H 476.977 0.779515 -3.84273 0
M  V30 4853 H 478.467 1.76791 -3.78332 0
M  V30 4854 N 478.904 1.54736 -0.299062 0
M  V30 4855 C 480.152 1.99706 0.31017 0
M  V30 4856 C 480.473 1.18896 1.54559 0
M  V30 4857 O 479.743 0.284445 1.93824 0
M  V30 4858 H 478.323 0.737686 0.117596 0
M  V30 4859 H 480.985 1.9054 -0.409943 0
M  V30 4860 H 480.081 3.06596 0.58355 0
M  V30 4861 N 480.382 0.0267497 1.57577 0
M  V30 4862 C 481.798 -0.32962 1.56159 0
M  V30 4863 C 481.998 -1.73059 1.03213 0
M  V30 4864 O 481.054 -2.43233 0.677804 0
M  V30 4865 C 482.367 -0.18039 3.00158 0
M  V30 4866 C 483.915 -0.253334 3.11973 0
M  V30 4867 C 484.39 -0.132921 4.57807 0
M  V30 4868 N 485.881 -0.189979 4.6281 0
M  V30 4869 C 486.616 -0.120554 5.73273 0
M  V30 4870 N 486.112 -0.000180315 6.928 0
M  V30 4871 N 487.905 -0.174369 5.61829 0
M  V30 4872 H 480.056 0.942896 1.90324 0
M  V30 4873 H 482.319 0.3639 0.875375 0
M  V30 4874 H 482.025 0.784576 3.42837 0
M  V30 4875 H 481.899 -0.951565 3.65 0
M  V30 4876 H 484.286 -1.20876 2.69208 0
M  V30 4877 H 484.367 0.548177 2.49857 0
M  V30 4878 H 484.011 0.819073 5.01252 0
M  V30 4879 H 483.941 -0.953264 5.179 0
M  V30 4880 H 486.432 -0.283257 3.76837 0
M  V30 4881 H 486.745 0.0461666 7.72786 0
M  V30 4882 H 485.09 0.034569 6.94991 0
M  V30 4883 H 488.281 -0.266794 4.67339 0
M  V30 4884 H 488.454 -0.116802 6.47895 0
M  V30 4885 N 481.861 -1.55662 -0.24637 0
M  V30 4886 C 483.277 -1.48098 -0.594907 0
M  V30 4887 C 483.477 -0.717044 -1.8831 0
M  V30 4888 O 482.533 -0.246618 -2.51293 0
M  V30 4889 C 483.846 -2.92507 -0.697146 0
M  V30 4890 C 485.394 -3.02881 -0.789436 0
M  V30 4891 C 485.869 -4.48598 -0.923232 0
M  V30 4892 N 487.36 -4.52538 -0.988088 0
M  V30 4893 C 488.095 -5.62536 -1.11089 0
M  V30 4894 N 487.591 -6.82342 -1.19919 0
M  V30 4895 N 489.384 -5.50334 -1.14408 0
M  V30 4896 H 481.535 -2.0377 0.599278 0
M  V30 4897 H 483.798 -0.925145 0.20691 0
M  V30 4898 H 483.504 -3.51242 0.179396 0
M  V30 4899 H 483.378 -3.43024 -1.5689 0
M  V30 4900 H 485.765 -2.44226 -1.65643 0
M  V30 4901 H 485.846 -2.55574 0.107482 0
M  V30 4902 H 485.49 -5.07864 -0.0607927 0
M  V30 4903 H 485.42 -4.93587 -1.8352 0
M  V30 4904 H 487.911 -3.66248 -0.931167 0
M  V30 4905 H 488.224 -7.61924 -1.29197 0
M  V30 4906 H 486.569 -6.85102 -1.16876 0
M  V30 4907 H 489.76 -4.5567 -1.07158 0
M  V30 4908 H 489.933 -6.36096 -1.23634 0
M  V30 4909 N 483.339 0.512053 -1.4905 0
M  V30 4910 C 484.586 1.26686 -1.57978 0
M  V30 4911 C 484.914 1.92733 -0.261553 0
M  V30 4912 O 484.169 1.80772 0.749667 0
M  V30 4913 C 484.468 2.36446 -2.68008 0
M  V30 4914 C 484.134 1.87932 -4.09869 0
M  V30 4915 C 482.796 1.74419 -4.48477 0
M  V30 4916 C 485.148 1.5149 -4.98698 0
M  V30 4917 C 482.476 1.22827 -5.73699 0
M  V30 4918 C 484.828 1.01355 -6.24428 0
M  V30 4919 C 483.492 0.864735 -6.61875 0
M  V30 4920 H 482.762 0.463577 -0.578081 0
M  V30 4921 H 485.409 0.569421 -1.82838 0
M  V30 4922 H 483.714 3.11933 -2.37076 0
M  V30 4923 H 485.411 2.9453 -2.72127 0
M  V30 4924 H 482.001 1.99405 -3.79389 0
M  V30 4925 H 486.185 1.60782 -4.69535 0
M  V30 4926 H 481.441 1.10008 -6.01422 0
M  V30 4927 H 485.615 0.722351 -6.92644 0
M  V30 4928 H 483.242 0.462777 -7.5879 0
M  V30 4929 N 484.817 1.37938 0.762283 0
M  V30 4930 C 485.75 1.2884 1.88349 0
M  V30 4931 C 486.728 0.167084 1.61739 0
M  V30 4932 O 487.912 0.34292 1.85355 0
M  V30 4933 C 485.039 0.994257 3.23778 0
M  V30 4934 C 484.085 2.13376 3.69287 0
M  V30 4935 S 484.918 3.75439 3.81845 0
M  V30 4936 C 486.074 3.48195 5.20107 0
M  V30 4937 H 486.307 2.23736 1.95779 0
M  V30 4938 H 483.84 1.23672 0.924368 0
M  V30 4939 H 485.798 0.83138 4.01993 0
M  V30 4940 H 484.459 0.0626251 3.14038 0
M  V30 4941 H 483.652 1.88319 4.67495 0
M  V30 4942 H 483.254 2.25726 2.98201 0
M  V30 4943 H 485.546 3.0377 6.05583 0
M  V30 4944 H 486.489 4.45765 5.50181 0
M  V30 4945 H 486.897 2.82905 4.88493 0
M  V30 4946 N 486.295 -0.989507 1.22664 0
M  V30 4947 C 487.243 -2.10148 0.997035 0
M  V30 4948 C 488.237 -1.6929 -0.0609783 0
M  V30 4949 O 489.443 -1.79766 0.0917523 0
M  V30 4950 H 485.818 -0.687256 0.305259 0
M  V30 4951 H 487.789 -2.26685 1.94053 0
M  V30 4952 C 486.538 -3.4257 0.595085 0
M  V30 4953 H 485.861 -3.74453 1.40089 0
M  V30 4954 H 487.301 -4.21344 0.473869 0
M  V30 4955 C 485.76 -3.29638 -0.695725 0
M  V30 4956 O 486.29 -3.61709 -1.74727 0
M  V30 4957 N 484.496 -2.82814 -0.668173 0
M  V30 4958 H 484.043 -2.56914 0.18787 0
M  V30 4959 H 484.001 -2.74544 -1.5321 0
M  V30 4960 N 487.773 -1.03688 -1.18687 0
M  V30 4961 C 488.736 -0.629115 -2.20397 0
M  V30 4962 C 489.736 0.311495 -1.57754 0
M  V30 4963 O 490.926 0.0974107 -1.73927 0
M  V30 4964 C 488.058 0.0782231 -3.4081 0
M  V30 4965 H 489.251 -1.52915 -2.57987 0
M  V30 4966 H 486.804 -0.828988 -1.32505 0
M  V30 4967 H 487.539 0.992233 -3.08748 0
M  V30 4968 H 487.324 -0.597776 -3.87517 0
M  V30 4969 H 488.814 0.350156 -4.16129 0
M  V30 4970 N 489.251 1.34841 -0.815825 0
M  V30 4971 C 490.181 2.32187 -0.247298 0
M  V30 4972 C 491.162 1.5791 0.632344 0
M  V30 4973 O 492.347 1.8593 0.560698 0
M  V30 4974 C 489.477 3.42122 0.597466 0
M  V30 4975 C 488.431 4.27602 -0.184446 0
M  V30 4976 C 487.757 5.28942 0.782609 0
M  V30 4977 C 489.057 5.03502 -1.38865 0
M  V30 4978 H 490.751 2.79985 -1.06061 0
M  V30 4979 H 488.297 1.34611 -0.511461 0
M  V30 4980 H 490.25 4.09232 1.00533 0
M  V30 4981 H 488.974 2.92956 1.44376 0
M  V30 4982 H 487.633 3.62085 -0.573592 0
M  V30 4983 H 487.281 4.7604 1.62466 0
M  V30 4984 H 486.981 5.87008 0.263695 0
M  V30 4985 H 488.505 5.98922 1.18848 0
M  V30 4986 H 489.919 5.63506 -1.05518 0
M  V30 4987 H 488.316 5.71108 -1.8427 0
M  V30 4988 H 489.386 4.33608 -2.17054 0
M  V30 4989 N 490.729 0.570148 1.46925 0
M  V30 4990 C 491.661 -0.207909 2.28255 0
M  V30 4991 C 492.674 -0.867301 1.37774 0
M  V30 4992 O 493.863 -0.738976 1.62485 0
M  V30 4993 C 490.963 -1.31298 3.12433 0
M  V30 4994 C 490.136 -0.747915 4.30958 0
M  V30 4995 C 489.195 -1.7391 4.9663 0
M  V30 4996 O 488.221 -1.2801 5.54619 0
M  V30 4997 N 489.423 -3.07288 4.92498 0
M  V30 4998 H 492.188 0.489794 2.95671 0
M  V30 4999 H 489.749 0.407076 1.56699 0
M  V30 5000 H 491.741 -1.97507 3.53232 0
M  V30 5001 H 490.311 -1.91373 2.47175 0
M  V30 5002 H 489.531 0.0913066 3.94094 0
M  V30 5003 H 490.819 -0.349958 5.07595 0
M  V30 5004 H 490.217 -3.47213 4.46609 0
M  V30 5005 H 488.774 -3.69021 5.37277 0
M  V30 5006 N 492.207 -1.54576 0.307264 0
M  V30 5007 C 493.137 -2.26708 -0.55907 0
M  V30 5008 C 494.118 -1.26893 -1.1328 0
M  V30 5009 O 495.303 -1.55677 -1.16097 0
M  V30 5010 C 492.433 -3.01259 -1.72801 0
M  V30 5011 C 491.387 -4.08275 -1.28435 0
M  V30 5012 C 490.713 -4.70575 -2.53895 0
M  V30 5013 C 492.013 -5.2068 -0.411038 0
M  V30 5014 H 493.707 -2.9937 0.042576 0
M  V30 5015 H 491.253 -1.43983 0.0219173 0
M  V30 5016 H 493.206 -3.50444 -2.34023 0
M  V30 5017 H 491.93 -2.26187 -2.356 0
M  V30 5018 H 490.589 -3.59949 -0.695161 0
M  V30 5019 H 490.237 -3.92136 -3.15021 0
M  V30 5020 H 489.937 -5.42854 -2.24908 0
M  V30 5021 H 491.461 -5.22527 -3.15908 0
M  V30 5022 H 492.875 -5.65721 -0.929097 0
M  V30 5023 H 491.272 -5.99716 -0.214664 0
M  V30 5024 H 492.342 -4.81629 0.562287 0
M  V30 5025 N 493.685 -0.035106 -1.57561 0
M  V30 5026 C 494.932 0.642229 -1.92046 0
M  V30 5027 C 495.26 1.7179 -0.91206 0
M  V30 5028 O 494.515 1.95544 0.0781153 0
M  V30 5029 C 494.814 1.29149 -3.3325 0
M  V30 5030 C 494.48 0.345604 -4.49574 0
M  V30 5031 C 493.142 0.0852775 -4.81124 0
M  V30 5032 C 495.494 -0.303569 -5.20315 0
M  V30 5033 C 492.822 -0.831927 -5.80772 0
M  V30 5034 C 495.174 -1.20886 -6.20942 0
M  V30 5035 C 493.838 -1.47802 -6.50931 0
M  V30 5036 H 493.108 0.235008 -0.702746 0
M  V30 5037 H 495.755 -0.0981529 -1.91248 0
M  V30 5038 H 494.06 2.10676 -3.30337 0
M  V30 5039 H 495.757 1.82223 -3.57205 0
M  V30 5040 H 492.347 0.558683 -4.24943 0
M  V30 5041 H 496.531 -0.115515 -4.96166 0
M  V30 5042 H 491.787 -1.0481 -6.02349 0
M  V30 5043 H 495.961 -1.71804 -6.74875 0
M  V30 5044 H 493.588 -2.19039 -7.2796 0
M  V30 5045 N 495.163 1.55791 0.238111 0
M  V30 5046 C 496.388 1.8244 0.986432 0
M  V30 5047 C 496.813 0.613314 1.7782 0
M  V30 5048 O 496.171 -0.437767 1.75935 0
M  V30 5049 C 496.219 3.06917 1.893 0
M  V30 5050 O 495.323 2.84449 2.98601 0
M  V30 5051 H 494.664 0.601975 0.280218 0
M  V30 5052 H 497.194 2.02987 0.256437 0
M  V30 5053 H 497.204 3.36583 2.30598 0
M  V30 5054 H 495.879 3.947 1.31091 0
M  V30 5055 H 494.456 2.65972 2.61368 0
M  V30 5056 N 496.642 -0.504142 1.49319 0
M  V30 5057 C 498.058 -0.835039 1.36012 0
M  V30 5058 C 498.258 -1.97674 0.390808 0
M  V30 5059 O 497.314 -2.51867 -0.178655 0
M  V30 5060 C 498.627 -1.17821 2.76656 0
M  V30 5061 C 500.175 -1.2866 2.85334 0
M  V30 5062 C 500.65 -1.66307 4.26739 0
M  V30 5063 N 502.141 -1.73362 4.29534 0
M  V30 5064 C 502.876 -2.0393 5.35911 0
M  V30 5065 N 502.372 -2.32744 6.52535 0
M  V30 5066 N 504.165 -2.05155 5.23324 0
M  V30 5067 H 496.316 0.248764 2.10938 0
M  V30 5068 H 498.579 0.0486962 0.946748 0
M  V30 5069 H 498.285 -0.412682 3.4927 0
M  V30 5070 H 498.159 -2.12239 3.11825 0
M  V30 5071 H 500.546 -2.04285 2.1296 0
M  V30 5072 H 500.627 -0.323004 2.53752 0
M  V30 5073 H 500.271 -0.91234 4.99639 0
M  V30 5074 H 500.201 -2.63761 4.55782 0
M  V30 5075 H 502.692 -1.53268 3.45424 0
M  V30 5076 H 503.005 -2.55248 7.2943 0
M  V30 5077 H 501.35 -2.30207 6.55767 0
M  V30 5078 H 504.541 -1.82119 4.3122 0
M  V30 5079 H 504.714 -2.28644 6.06322 0
M  V30 5080 N 498.12 -1.38341 -0.754957 0
M  V30 5081 C 499.083 -1.35262 -1.85032 0
M  V30 5082 C 500.083 -0.253393 -1.58791 0
M  V30 5083 O 501.273 -0.510205 -1.66561 0
M  V30 5084 C 498.405 -1.10544 -3.22479 0
M  V30 5085 H 499.598 -2.32712 -1.8917 0
M  V30 5086 H 497.151 -1.23614 -0.956515 0
M  V30 5087 H 497.886 -0.136952 -3.24011 0
M  V30 5088 H 497.671 -1.90127 -3.4292 0
M  V30 5089 H 499.161 -1.11082 -4.02555 0
M  V30 5090 N 499.598 0.982988 -1.23187 0
M  V30 5091 C 500.844 1.72648 -1.06398 0
M  V30 5092 C 501.177 1.90066 0.398561 0
M  V30 5093 O 500.452 1.45105 1.29518 0
M  V30 5094 C 500.735 3.12627 -1.78707 0
M  V30 5095 C 500.588 3.02795 -3.32618 0
M  V30 5096 C 501.907 4.11997 -1.54747 0
M  V30 5097 H 499.026 0.626649 -0.387918 0
M  V30 5098 H 501.668 1.14455 -1.51658 0
M  V30 5099 H 499.818 3.62308 -1.40234 0
M  V30 5100 H 501.49 2.60659 -3.80598 0
M  V30 5101 H 499.733 2.39362 -3.61785 0
M  V30 5102 H 500.404 4.01893 -3.78399 0
M  V30 5103 H 502.88 3.71114 -1.88186 0
M  V30 5104 H 501.756 5.08037 -2.07821 0
M  V30 5105 H 502.017 4.39462 -0.482249 0
M  V30 5106 N 501.076 1.04316 1.18135 0
M  V30 5107 C 502.301 0.768047 1.92655 0
M  V30 5108 C 502.726 -0.66904 1.758 0
M  V30 5109 O 502.084 -1.46372 1.06981 0
M  V30 5110 C 502.132 1.14239 3.42026 0
M  V30 5111 O 501.236 0.269333 4.1152 0
M  V30 5112 H 500.577 0.282436 0.600937 0
M  V30 5113 H 503.107 1.39367 1.49793 0
M  V30 5114 H 503.117 1.10538 3.92741 0
M  V30 5115 H 501.792 2.18928 3.53615 0
M  V30 5116 H 500.369 0.366175 3.71098 0
M  V30 5117 N 502.554 -1.34406 0.822964 0
M  V30 5118 C 503.484 -2.32052 0.259608 0
M  V30 5119 C 504.465 -1.58243 -0.623961 0
M  V30 5120 O 505.65 -1.86224 -0.55083 0
M  V30 5121 C 502.78 -3.42434 -0.579314 0
M  V30 5122 C 501.734 -4.27499 0.20712 0
M  V30 5123 C 501.06 -5.29349 -0.754547 0
M  V30 5124 C 502.36 -5.02758 1.41533 0
M  V30 5125 H 504.054 -2.79418 1.07545 0
M  V30 5126 H 501.6 -1.34338 0.518593 0
M  V30 5127 H 503.553 -4.0976 -0.983612 0
M  V30 5128 H 502.277 -2.93717 -1.4282 0
M  V30 5129 H 500.936 -3.61776 0.592787 0
M  V30 5130 H 500.584 -4.76895 -1.59939 0
M  V30 5131 H 500.284 -5.8714 -0.232561 0
M  V30 5132 H 501.808 -5.99544 -1.1567 0
M  V30 5133 H 503.222 -5.62938 1.08504 0
M  V30 5134 H 501.619 -5.70123 1.87296 0
M  V30 5135 H 502.689 -4.32451 2.1935 0
M  V30 5136 N 504.032 -0.577932 -1.46621 0
M  V30 5137 C 505.28 -0.061566 -2.02006 0
M  V30 5138 C 505.601 1.30117 -1.4524 0
M  V30 5139 O 504.871 1.85313 -0.63529 0
M  V30 5140 H 503.451 -0.0197692 -0.746738 0
M  V30 5141 H 506.113 -0.752631 -1.79782 0
M  V30 5142 H 505.209 0.0110238 -3.12098 0
M  V30 5143 N 505.51 1.54411 -0.315457 0
M  V30 5144 C 506.787 1.92562 0.343398 0
M  V30 5145 C 507.167 1.24423 1.70535 0
M  V30 5146 O 506.515 0.385051 2.25232 0
M  V30 5147 C 506.725 3.46168 0.443687 0
M  V30 5148 C 508.073 4.18659 0.707783 0
M  V30 5149 O 509.097 3.52281 0.52693 0
M  V30 5150 O 507.956 5.36198 1.05612 0
M  V30 5151 H 505.05 0.80379 0.194552 0
M  V30 5152 H 507.596 1.65738 -0.364577 0
M  V30 5153 H 506.368 3.8792 -0.513172 0
M  V30 5154 H 505.991 3.79073 1.19956 0
M  V30 5155 N 506.988 0.0434614 1.5754 0
M  V30 5156 C 507.951 -0.918696 2.09982 0
M  V30 5157 C 508.951 -1.24488 1.01781 0
M  V30 5158 O 510.141 -1.18284 1.27885 0
M  V30 5159 C 507.273 -2.23093 2.57764 0
M  V30 5160 H 508.466 -0.464229 2.96285 0
M  V30 5161 H 506.019 -0.204818 1.54952 0
M  V30 5162 H 506.754 -2.73137 1.74832 0
M  V30 5163 H 506.539 -2.00724 3.36827 0
M  V30 5164 H 508.029 -2.92028 2.98512 0
M  V30 5165 N 508.466 -1.55915 -0.229846 0
M  V30 5166 C 509.376 -1.94891 -1.30593 0
M  V30 5167 C 510.392 -0.851604 -1.51736 0
M  V30 5168 O 511.568 -1.15447 -1.65027 0
M  V30 5169 C 508.633 -2.25052 -2.63728 0
M  V30 5170 C 507.694 -3.48306 -2.5096 0
M  V30 5171 C 506.927 -3.77019 -3.77747 0
M  V30 5172 O 507.15 -3.07534 -4.80395 0
M  V30 5173 O 506.084 -4.70523 -3.75356 0
M  V30 5174 H 509.91 -2.86581 -1.00525 0
M  V30 5175 H 507.495 -1.43017 -0.432025 0
M  V30 5176 H 509.377 -2.45682 -3.42372 0
M  V30 5177 H 508.052 -1.36538 -2.93495 0
M  V30 5178 H 506.959 -3.32964 -1.70546 0
M  V30 5179 H 508.292 -4.37177 -2.26136 0
M  V30 5180 N 509.944 0.496216 -1.49584 0
M  V30 5181 C 511.169 1.27865 -1.63295 0
M  V30 5182 C 511.594 1.85592 -0.306156 0
M  V30 5183 O 510.952 1.66092 0.726851 0
M  V30 5184 C 511 2.38128 -2.7079 0
M  V30 5185 O 510.104 3.42108 -2.30296 0
M  V30 5186 H 509.445 0.377279 -0.546403 0
M  V30 5187 H 511.975 0.593497 -1.95803 0
M  V30 5188 H 511.985 2.8382 -2.93104 0
M  V30 5189 H 510.66 1.95479 -3.67098 0
M  V30 5190 H 509.237 3.02301 -2.18331 0
M  V30 5191 N 511.423 1.38739 0.74761 0
M  V30 5192 C 512.353 1.39173 1.87492 0
M  V30 5193 C 513.334 0.256794 1.6815 0
M  V30 5194 O 514.519 0.460762 1.88655 0
M  V30 5195 C 511.649 1.22197 3.25093 0
M  V30 5196 C 510.603 2.32957 3.59047 0
M  V30 5197 C 509.929 2.01082 4.95449 0
M  V30 5198 C 511.229 3.75237 3.6331 0
M  V30 5199 H 512.923 2.3351 1.87386 0
M  V30 5200 H 510.469 1.12399 0.900134 0
M  V30 5201 H 512.422 1.21124 4.03617 0
M  V30 5202 H 511.146 0.243241 3.25693 0
M  V30 5203 H 509.805 2.33226 2.82845 0
M  V30 5204 H 509.453 1.01678 4.92616 0
M  V30 5205 H 509.153 2.75267 5.19136 0
M  V30 5206 H 510.677 2.01638 5.76346 0
M  V30 5207 H 512.091 3.76966 4.31937 0
M  V30 5208 H 510.488 4.48677 3.98509 0
M  V30 5209 H 511.558 4.07122 2.634 0
M  V30 5210 N 512.901 -0.976442 1.23707 0
M  V30 5211 C 513.864 -2.0511 1.02287 0
M  V30 5212 C 514.864 -1.60791 -0.0167195 0
M  V30 5213 O 516.054 -1.72761 0.223408 0
M  V30 5214 C 513.186 -3.36458 0.548507 0
M  V30 5215 H 514.379 -2.25545 1.9766 0
M  V30 5216 H 511.932 -1.15042 1.05806 0
M  V30 5217 H 512.667 -3.21713 -0.408818 0
M  V30 5218 H 512.452 -3.69967 1.29874 0
M  V30 5219 H 513.942 -4.15489 0.419406 0
M  V30 5220 N 514.379 -1.04941 -1.1758 0
M  V30 5221 C 515.311 -0.606174 -2.21039 0
M  V30 5222 C 516.324 0.328763 -1.59446 0
M  V30 5223 O 517.513 0.121895 -1.78083 0
M  V30 5224 C 514.613 0.133294 -3.38638 0
M  V30 5225 C 513.786 -0.811711 -4.29802 0
M  V30 5226 C 512.845 -0.113958 -5.26077 0
M  V30 5227 O 511.871 -0.747237 -5.64274 0
M  V30 5228 N 513.073 1.14953 -5.69004 0
M  V30 5229 H 515.838 -1.49606 -2.59689 0
M  V30 5230 H 513.399 -0.930997 -1.32454 0
M  V30 5231 H 515.391 0.610144 -4.00074 0
M  V30 5232 H 513.961 0.924816 -2.98607 0
M  V30 5233 H 513.181 -1.46824 -3.65837 0
M  V30 5234 H 514.469 -1.45326 -4.87604 0
M  V30 5235 H 513.867 1.68441 -5.40041 0
M  V30 5236 H 512.424 1.57049 -6.32597 0
M  V30 5237 N 515.857 1.33968 -0.830081 0
M  V30 5238 C 516.807 2.26845 -0.229242 0
M  V30 5239 C 517.791 1.48862 0.610659 0
M  V30 5240 O 518.983 1.70808 0.464067 0
M  V30 5241 C 516.112 3.3798 0.602057 0
M  V30 5242 C 515.198 4.23369 -0.248866 0
M  V30 5243 N 515.589 4.88182 -1.32334 0
M  V30 5244 C 513.887 4.45987 -0.0344077 0
M  V30 5245 C 514.588 5.51671 -1.84482 0
M  V30 5246 N 513.564 5.31348 -1.14762 0
M  V30 5247 H 517.366 2.74464 -1.05104 0
M  V30 5248 H 514.88 1.4777 -0.673623 0
M  V30 5249 H 516.877 4.03494 1.04873 0
M  V30 5250 H 515.537 2.9191 1.42193 0
M  V30 5251 H 516.548 4.88988 -1.70619 0
M  V30 5252 H 513.225 4.10658 0.752727 0
M  V30 5253 H 514.615 6.13308 -2.74413 0
M  V30 5254 N 517.335 0.585699 1.46312 0
M  V30 5255 C 518.746 0.159938 1.86014 0
M  V30 5256 C 519.097 -1.27775 1.48889 0
M  V30 5257 O 518.222 -1.96559 0.90519 0
M  V30 5258 C 518.817 0.283485 3.37612 0
M  V30 5259 C 517.376 -0.0874256 3.76298 0
M  V30 5260 C 516.523 0.618055 2.70325 0
M  V30 5261 H 519.474 0.793737 1.37425 0
M  V30 5262 H 519.495 -0.490348 3.77327 0
M  V30 5263 H 519.007 1.32995 3.64601 0
M  V30 5264 H 517.108 -1.13391 3.54927 0
M  V30 5265 H 517.221 0.290975 4.78216 0
M  V30 5266 H 515.585 0.057993 2.54634 0
M  V30 5267 H 516.368 1.66623 3.00153 0
M  V30 5268 N 518.813 -1.54241 0.323641 0
M  V30 5269 C 519.776 -2.22997 -0.529602 0
M  V30 5270 C 520.776 -1.22345 -1.04347 0
M  V30 5271 O 521.966 -1.46924 -0.935889 0
M  V30 5272 C 519.098 -2.93409 -1.73562 0
M  V30 5273 H 520.291 -2.99815 0.0714518 0
M  V30 5274 H 517.844 -1.56121 0.0747258 0
M  V30 5275 H 518.579 -2.20729 -2.37591 0
M  V30 5276 H 518.364 -3.67217 -1.37456 0
M  V30 5277 H 519.854 -3.45794 -2.34128 0
M  V30 5278 N 520.291 -0.0518155 -1.57515 0
M  V30 5279 C 521.516 0.634896 -1.97443 0
M  V30 5280 C 521.941 1.63546 -0.929207 0
M  V30 5281 O 521.299 1.80981 0.107484 0
M  V30 5282 C 521.347 1.29765 -3.36442 0
M  V30 5283 O 520.451 2.41333 -3.34413 0
M  V30 5284 H 519.792 0.164994 -0.643174 0
M  V30 5285 H 522.322 -0.120407 -2.04245 0
M  V30 5286 H 522.332 1.64918 -3.73184 0
M  V30 5287 H 521.007 0.564361 -4.12053 0
M  V30 5288 H 519.584 2.08122 -3.09418 0
M  V30 5289 N 521.769 1.56035 0.221574 0
M  V30 5290 C 522.702 1.87427 1.30178 0
M  V30 5291 C 523.68 0.731658 1.45209 0
M  V30 5292 O 524.864 0.980016 1.61022 0
M  V30 5293 C 521.991 2.08127 2.67209 0
M  V30 5294 C 521.037 3.30813 2.69194 0
M  V30 5295 S 521.87 4.86738 2.23263 0
M  V30 5296 C 523.026 5.10474 3.62171 0
M  V30 5297 H 523.259 2.78756 1.03355 0
M  V30 5298 H 520.792 1.48469 0.423813 0
M  V30 5299 H 522.75 2.20736 3.46101 0
M  V30 5300 H 521.411 1.17595 2.91256 0
M  V30 5301 H 520.604 3.42341 3.6989 0
M  V30 5302 H 520.206 3.1706 1.98366 0
M  V30 5303 H 522.498 4.9937 4.5786 0
M  V30 5304 H 523.441 6.12359 3.55558 0
M  V30 5305 H 523.849 4.38208 3.55857 0
M  V30 5306 N 523.247 -0.488276 1.49845 0
M  V30 5307 C 524.475 -1.26527 1.63702 0
M  V30 5308 C 524.89 -1.8618 0.313447 0
M  V30 5309 O 524.247 -1.68432 -0.702624 0
M  V30 5310 C 524.298 -2.3864 2.71538 0
M  V30 5311 O 524.019 -1.81437 3.98763 0
M  V30 5312 C 525.52 -3.29805 2.96215 0
M  V30 5313 H 522.74 -0.383295 0.55075 0
M  V30 5314 H 525.284 -0.584779 1.95961 0
M  V30 5315 H 523.439 -3.02496 2.42023 0
M  V30 5316 H 523.853 -2.55135 4.58265 0
M  V30 5317 H 525.327 -4.04722 3.75372 0
M  V30 5318 H 525.804 -3.87563 2.06619 0
M  V30 5319 H 526.41 -2.71703 3.27196 0
M  V30 5320 N 524.725 -1.39134 -0.740242 0
M  V30 5321 C 525.675 -1.33928 -1.84519 0
M  V30 5322 C 526.659 -0.221097 -1.59374 0
M  V30 5323 O 527.851 -0.458195 -1.70967 0
M  V30 5324 C 524.98 -1.17991 -3.22387 0
M  V30 5325 C 524.066 -2.34488 -3.53378 0
M  V30 5326 N 524.457 -3.59954 -3.5534 0
M  V30 5327 C 522.755 -2.27331 -3.83714 0
M  V30 5328 C 523.456 -4.36962 -3.83978 0
M  V30 5329 N 522.432 -3.66482 -4.01487 0
M  V30 5330 H 526.234 -2.28907 -1.84333 0
M  V30 5331 H 523.748 -1.32555 -0.938237 0
M  V30 5332 H 525.745 -1.12345 -4.01478 0
M  V30 5333 H 524.405 -0.23957 -3.23815 0
M  V30 5334 H 525.416 -3.93448 -3.36778 0
M  V30 5335 H 522.093 -1.41531 -3.92779 0
M  V30 5336 H 523.483 -5.45692 -3.92008 0
M  V30 5337 N 526.204 0.969867 -1.24223 0
M  V30 5338 C 527.429 1.75289 -1.10853 0
M  V30 5339 C 527.854 1.85091 0.335079 0
M  V30 5340 O 527.212 1.32024 1.24255 0
M  V30 5341 C 527.26 3.15255 -1.75062 0
M  V30 5342 O 526.364 3.99589 -1.01992 0
M  V30 5343 H 525.705 0.538904 -0.387915 0
M  V30 5344 H 528.235 1.21675 -1.64488 0
M  V30 5345 H 528.245 3.65787 -1.80731 0
M  V30 5346 H 526.92 3.07436 -2.801 0
M  V30 5347 H 525.497 3.58077 -1.04094 0
M  V30 5348 N 527.682 1.05563 1.17022 0
M  V30 5349 C 528.907 0.788437 1.91829 0
M  V30 5350 C 529.332 -0.650356 1.76499 0
M  V30 5351 O 528.69 -1.45229 1.08527 0
M  V30 5352 C 528.738 1.1786 3.40795 0
M  V30 5353 O 527.842 0.312965 4.11211 0
M  V30 5354 H 527.183 0.288794 0.597908 0
M  V30 5355 H 529.713 1.40948 1.48307 0
M  V30 5356 H 529.723 1.14697 3.91546 0
M  V30 5357 H 528.398 2.22666 3.51273 0
M  V30 5358 H 526.975 0.405515 3.70689 0
M  V30 5359 N 529.16 -1.33526 0.837174 0
M  V30 5360 C 530.39 -2.01754 0.444848 0
M  V30 5361 C 530.798 -1.63149 -0.958072 0
M  V30 5362 O 530.141 -0.839827 -1.63379 0
M  V30 5363 C 530.203 -3.56228 0.483917 0
M  V30 5364 C 529.867 -4.18205 1.84265 0
M  V30 5365 C 530.864 -4.37699 2.80563 0
M  V30 5366 C 528.549 -4.54667 2.13503 0
M  V30 5367 C 530.543 -4.928 4.04261 0
M  V30 5368 C 528.23 -5.09475 3.37458 0
M  V30 5369 C 529.228 -5.28488 4.32654 0
M  V30 5370 O 528.916 -5.82132 5.54417 0
M  V30 5371 H 528.648 -0.652928 0.175104 0
M  V30 5372 H 531.202 -1.71469 1.13082 0
M  V30 5373 H 529.432 -3.85833 -0.258826 0
M  V30 5374 H 531.121 -4.05752 0.109653 0
M  V30 5375 H 531.887 -4.0988 2.59274 0
M  V30 5376 H 527.766 -4.39164 1.40201 0
M  V30 5377 H 531.31 -5.07555 4.78574 0
M  V30 5378 H 527.207 -5.36725 3.58604 0
M  V30 5379 H 527.975 -6.00548 5.56133 0
M  V30 5380 N 530.638 -0.59345 -1.46 0
M  V30 5381 C 531.866 -0.0890934 -2.06708 0
M  V30 5382 C 532.281 1.2205 -1.44046 0
M  V30 5383 O 531.638 1.74029 -0.549551 0
M  V30 5384 C 531.689 0.0720263 -3.61428 0
M  V30 5385 O 531.41 -1.18574 -4.21748 0
M  V30 5386 C 532.911 0.609487 -4.3909 0
M  V30 5387 H 530.131 -0.0623628 -0.668096 0
M  V30 5388 H 532.675 -0.817171 -1.87464 0
M  V30 5389 H 530.83 0.750369 -3.80063 0
M  V30 5390 H 531.244 -1.0064 -5.14754 0
M  V30 5391 H 532.718 0.671363 -5.47902 0
M  V30 5392 H 533.195 1.62878 -4.07882 0
M  V30 5393 H 533.801 -0.03434 -4.25286 0
M  V30 5394 N 532.116 1.54067 -0.331816 0
M  V30 5395 C 533.527 1.86059 0.15454 0
M  V30 5396 C 533.878 1.25331 1.50952 0
M  V30 5397 O 533.003 0.562441 2.08963 0
M  V30 5398 C 533.598 3.37581 0.287192 0
M  V30 5399 C 532.157 3.69493 0.717773 0
M  V30 5400 C 531.304 2.76863 -0.155569 0
M  V30 5401 H 534.255 1.48797 -0.55182 0
M  V30 5402 H 534.276 3.63744 1.11671 0
M  V30 5403 H 533.788 3.81751 -0.699131 0
M  V30 5404 H 531.889 3.3086 1.71354 0
M  V30 5405 H 532.002 4.76315 0.5158 0
M  V30 5406 H 530.366 2.51995 0.370213 0
M  V30 5407 H 531.149 3.23861 -1.13881 0
M  V30 5408 N 533.594 0.0601682 1.57485 0
M  V30 5409 C 534.504 -0.926121 2.15546 0
M  V30 5410 C 535.52 -1.33532 1.11558 0
M  V30 5411 O 536.696 -1.4104 1.4377 0
M  V30 5412 C 533.761 -2.17952 2.69625 0
M  V30 5413 C 532.822 -1.82783 3.88444 0
M  V30 5414 C 532.055 -3.02148 4.39935 0
M  V30 5415 O 532.278 -4.15803 3.90466 0
M  V30 5416 O 531.212 -2.82639 5.31412 0
M  V30 5417 H 535.038 -0.462289 3.00161 0
M  V30 5418 H 532.623 -0.162246 1.48516 0
M  V30 5419 H 534.505 -2.91474 3.04337 0
M  V30 5420 H 533.18 -2.63456 1.88077 0
M  V30 5421 H 532.087 -1.06549 3.58606 0
M  V30 5422 H 533.42 -1.42072 4.7125 0
M  V30 5423 N 535.072 -1.5615 -0.213296 0
M  V30 5424 C 535.982 -1.96265 -1.28519 0
M  V30 5425 C 536.998 -0.86765 -1.50824 0
M  V30 5426 O 538.174 -1.17191 -1.63793 0
M  V30 5427 C 535.239 -2.27836 -2.61327 0
M  V30 5428 C 534.3 -3.50949 -2.47252 0
M  V30 5429 C 533.533 -3.81004 -3.73727 0
M  V30 5430 O 533.756 -3.12612 -4.77106 0
M  V30 5431 O 532.69 -4.74477 -3.70344 0
M  V30 5432 H 536.516 -2.87631 -0.974795 0
M  V30 5433 H 534.101 -1.43467 -0.416832 0
M  V30 5434 H 535.983 -2.49299 -3.39747 0
M  V30 5435 H 534.658 -1.39643 -2.9203 0
M  V30 5436 H 533.565 -3.34754 -1.67004 0
M  V30 5437 H 534.898 -4.39551 -2.21486 0
M  V30 5438 N 536.55 0.480323 -1.50102 0
M  V30 5439 C 537.966 0.813295 -1.37323 0
M  V30 5440 C 538.166 1.97027 -0.422206 0
M  V30 5441 O 537.222 2.5212 0.138563 0
M  V30 5442 C 538.535 1.13404 -2.78496 0
M  V30 5443 C 540.083 1.24104 -2.87345 0
M  V30 5444 C 540.558 1.59497 -4.29331 0
M  V30 5445 N 542.049 1.66507 -4.32238 0
M  V30 5446 C 542.784 1.95378 -5.39087 0
M  V30 5447 N 542.28 2.22333 -6.56155 0
M  V30 5448 N 544.073 1.96803 -5.26522 0
M  V30 5449 H 536.224 -0.282291 -2.10516 0
M  V30 5450 H 538.487 -0.063752 -0.945854 0
M  V30 5451 H 538.193 0.357064 -3.49883 0
M  V30 5452 H 538.067 2.07251 -3.15162 0
M  V30 5453 H 540.454 2.00871 -2.16183 0
M  V30 5454 H 540.535 0.282593 -2.54234 0
M  V30 5455 H 540.179 0.832736 -5.01027 0
M  V30 5456 H 540.109 2.56477 -4.59921 0
M  V30 5457 H 542.6 1.47753 -3.47818 0
M  V30 5458 H 542.913 2.43611 -7.33399 0
M  V30 5459 H 541.258 2.19745 -6.59346 0
M  V30 5460 H 544.449 1.75235 -4.34062 0
M  V30 5461 H 544.622 2.18969 -6.09883 0
M  V30 5462 N 538.028 1.39524 0.732853 0
M  V30 5463 C 538.991 1.38189 1.82857 0
M  V30 5464 C 539.991 0.278624 1.58368 0
M  V30 5465 O 541.181 0.536639 1.65728 0
M  V30 5466 C 538.313 1.15661 3.2068 0
M  V30 5467 H 539.506 2.35692 1.85444 0
M  V30 5468 H 537.059 1.2512 0.936728 0
M  V30 5469 H 537.794 0.188482 3.23752 0
M  V30 5470 H 537.579 1.95559 3.39852 0
M  V30 5471 H 539.069 1.17472 4.00737 0
M  V30 5472 N 539.506 -0.963266 1.24736 0
M  V30 5473 C 540.456 -2.0438 1.01058 0
M  V30 5474 C 541.44 -1.60824 -0.0495354 0
M  V30 5475 O 542.632 -1.76232 0.164741 0
M  V30 5476 C 539.761 -3.37617 0.622067 0
M  V30 5477 C 538.847 -3.87722 1.7185 0
M  V30 5478 N 539.238 -4.10715 2.95207 0
M  V30 5479 C 537.536 -4.16426 1.59703 0
M  V30 5480 C 538.237 -4.51872 3.66315 0
M  V30 5481 N 537.213 -4.57302 2.93897 0
M  V30 5482 H 541.015 -2.20138 1.94721 0
M  V30 5483 H 538.529 -1.14741 1.14927 0
M  V30 5484 H 540.526 -4.14638 0.43366 0
M  V30 5485 H 539.186 -3.23242 -0.307327 0
M  V30 5486 H 540.197 -3.98037 3.31341 0
M  V30 5487 H 536.874 -4.10962 0.73598 0
M  V30 5488 H 538.264 -4.78037 4.72155 0
M  V30 5489 N 540.985 -1.06182 -1.16461 0
M  V30 5490 C 542.215 -0.797425 -1.9059 0
M  V30 5491 C 542.623 0.651845 -1.77616 0
M  V30 5492 O 541.966 1.45788 -1.11766 0
M  V30 5493 C 542.028 -1.11128 -3.41893 0
M  V30 5494 C 541.692 -2.55874 -3.78652 0
M  V30 5495 C 542.689 -3.54104 -3.80665 0
M  V30 5496 C 540.374 -2.91144 -4.09317 0
M  V30 5497 C 542.368 -4.85645 -4.12829 0
M  V30 5498 C 540.055 -4.22885 -4.41148 0
M  V30 5499 C 541.053 -5.19945 -4.42883 0
M  V30 5500 O 540.741 -6.49322 -4.73959 0
M  V30 5501 H 540.473 -0.288709 -0.611247 0
M  V30 5502 H 543.027 -1.41841 -1.4856 0
M  V30 5503 H 541.257 -0.433217 -3.84266 0
M  V30 5504 H 542.946 -0.831306 -3.97296 0
M  V30 5505 H 543.712 -3.28197 -3.57088 0
M  V30 5506 H 539.591 -2.16252 -4.07131 0
M  V30 5507 H 543.135 -5.61398 -4.14099 0
M  V30 5508 H 539.032 -4.48551 -4.6419 0
M  V30 5509 H 539.8 -6.54294 -4.91774 0
M  V30 5510 N 542.463 1.3308 -0.844243 0
M  V30 5511 C 543.711 1.97215 -0.441676 0
M  V30 5512 C 544.032 1.67185 1.0037 0
M  V30 5513 O 543.302 0.973588 1.69994 0
M  V30 5514 H 541.882 0.72959 -0.160335 0
M  V30 5515 H 544.544 1.62348 -1.07838 0
M  V30 5516 H 543.64 3.06698 -0.57815 0
M  V30 5517 N 543.941 0.601185 1.45683 0
M  V30 5518 C 545.19 0.0914953 2.01492 0
M  V30 5519 C 545.503 -1.28331 1.47616 0
M  V30 5520 O 546.709 -1.88537 1.95362 0
M  V30 5521 C 545.165 0.11291 3.59723 0
M  V30 5522 C 544.773 1.48717 4.22596 0
M  V30 5523 C 546.517 -0.341871 4.23121 0
M  V30 5524 C 544.424 1.46531 5.7296 0
M  V30 5525 H 543.354 0.0304365 0.753385 0
M  V30 5526 H 546.005 0.755568 1.67223 0
M  V30 5527 H 544.387 -0.617692 3.91153 0
M  V30 5528 H 545.561 2.23897 4.02749 0
M  V30 5529 H 543.876 1.88351 3.71366 0
M  V30 5530 H 546.473 -0.377304 5.33367 0
M  V30 5531 H 546.816 -1.36325 3.93346 0
M  V30 5532 H 547.349 0.335256 3.96385 0
M  V30 5533 H 544.088 2.46408 6.07423 0
M  V30 5534 H 543.608 0.755997 5.95017 0
M  V30 5535 H 545.287 1.18618 6.36034 0
M  V30 5536 N 545.419 -1.53889 0.339982 0
M  V30 5537 C 546.644 -2.05741 -0.261798 0
M  V30 5538 C 547.069 -1.21354 -1.43718 0
M  V30 5539 O 546.427 -0.22645 -1.7988 0
M  V30 5540 C 546.475 -3.54542 -0.658228 0
M  V30 5541 O 545.579 -3.7302 -1.75869 0
M  V30 5542 H 544.92 -0.662529 -0.0441672 0
M  V30 5543 H 547.45 -1.98568 0.493161 0
M  V30 5544 H 547.46 -3.9711 -0.936368 0
M  V30 5545 H 546.135 -4.15412 0.201358 0
M  V30 5546 H 544.712 -3.42355 -1.47809 0
M  V30 5547 N 546.897 -0.0685191 -1.57451 0
M  V30 5548 C 547.807 0.914677 -2.16034 0
M  V30 5549 C 548.823 1.32938 -1.12265 0
M  V30 5550 O 549.999 1.40275 -1.44516 0
M  V30 5551 C 547.064 2.16519 -2.70777 0
M  V30 5552 C 546.125 1.80721 -3.89408 0
M  V30 5553 C 545.358 2.9981 -4.41531 0
M  V30 5554 O 545.581 4.13727 -3.92666 0
M  V30 5555 O 544.515 2.79817 -5.32903 0
M  V30 5556 H 548.341 0.446364 -3.00402 0
M  V30 5557 H 545.926 0.154367 -1.486 0
M  V30 5558 H 547.808 2.89856 -3.05878 0
M  V30 5559 H 546.483 2.62454 -1.89471 0
M  V30 5560 H 545.39 1.04646 -3.59166 0
M  V30 5561 H 546.723 1.39571 -4.71997 0
M  V30 5562 N 548.375 1.56261 0.205012 0
M  V30 5563 C 549.623 1.79684 0.925096 0
M  V30 5564 C 549.944 0.63989 1.84202 0
M  V30 5565 O 549.214 -0.342345 1.92885 0
M  V30 5566 H 547.794 0.662774 0.344587 0
M  V30 5567 H 550.456 1.93734 0.212899 0
M  V30 5568 H 549.552 2.72467 1.52211 0
M  V30 5569 N 549.853 -0.472356 1.50355 0
M  V30 5570 C 550.783 -1.57859 1.72055 0
M  V30 5571 C 551.764 -1.60283 0.569505 0
M  V30 5572 O 552.949 -1.7657 0.808503 0
M  V30 5573 C 550.079 -2.96191 1.81351 0
M  V30 5574 C 549.033 -3.08633 2.96529 0
M  V30 5575 C 548.359 -4.486 2.90968 0
M  V30 5576 C 549.659 -2.85969 4.37057 0
M  V30 5577 H 551.353 -1.39953 2.64676 0
M  V30 5578 H 548.899 -0.671846 1.27367 0
M  V30 5579 H 550.852 -3.73507 1.95117 0
M  V30 5580 H 549.576 -3.15251 0.853502 0
M  V30 5581 H 548.235 -2.33749 2.82413 0
M  V30 5582 H 547.883 -4.64577 1.92815 0
M  V30 5583 H 547.583 -4.57861 3.68289 0
M  V30 5584 H 549.107 -5.27938 3.0678 0
M  V30 5585 H 550.521 -3.53036 4.51706 0
M  V30 5586 H 548.918 -3.06677 5.15819 0
M  V30 5587 H 549.988 -1.81838 4.49514 0
M  V30 5588 N 551.331 -1.39911 -0.725443 0
M  V30 5589 C 552.577 -1.37858 -1.48738 0
M  V30 5590 C 552.91 0.0224187 -1.94187 0
M  V30 5591 O 552.185 0.989204 -1.67466 0
M  V30 5592 C 552.468 -2.3594 -2.72038 0
M  V30 5593 C 552.321 -3.85023 -2.32546 0
M  V30 5594 C 553.64 -2.31704 -3.74167 0
M  V30 5595 H 550.759 -0.502074 -0.539528 0
M  V30 5596 H 553.401 -1.70974 -0.828728 0
M  V30 5597 H 551.551 -2.0783 -3.28236 0
M  V30 5598 H 553.223 -4.2392 -1.81905 0
M  V30 5599 H 551.466 -4.01334 -1.64661 0
M  V30 5600 H 552.137 -4.49152 -3.20884 0
M  V30 5601 H 554.613 -2.5658 -3.27576 0
M  V30 5602 H 553.489 -3.02395 -4.58092 0
M  V30 5603 H 553.75 -1.3253 -4.21768 0
M  V30 5604 N 552.809 0.956637 -1.25245 0
M  V30 5605 C 554.225 1.22733 -1.02023 0
M  V30 5606 C 554.425 1.99761 0.264186 0
M  V30 5607 O 553.481 2.32814 0.977436 0
M  V30 5608 C 554.794 2.00367 -2.24217 0
M  V30 5609 C 556.342 2.13418 -2.28958 0
M  V30 5610 C 556.817 2.9445 -3.50803 0
M  V30 5611 N 558.308 3.02029 -3.51187 0
M  V30 5612 C 559.043 3.65116 -4.42129 0
M  V30 5613 N 558.539 4.2983 -5.43339 0
M  V30 5614 N 560.332 3.62237 -4.29815 0
M  V30 5615 H 552.483 0.441282 -2.07765 0
M  V30 5616 H 554.746 0.257686 -0.912306 0
M  V30 5617 H 554.452 1.51165 -3.17556 0
M  V30 5618 H 554.326 3.01077 -2.27228 0
M  V30 5619 H 556.713 2.61819 -1.36143 0
M  V30 5620 H 556.794 1.1202 -2.29968 0
M  V30 5621 H 556.438 2.46741 -4.43939 0
M  V30 5622 H 556.368 3.9607 -3.47039 0
M  V30 5623 H 558.859 2.56007 -2.77973 0
M  V30 5624 H 559.172 4.75819 -6.08947 0
M  V30 5625 H 557.517 4.28465 -5.47214 0
M  V30 5626 H 560.708 3.10863 -3.49974 0
M  V30 5627 H 560.881 4.11117 -5.00886 0
M  V30 5628 N 554.287 1.06798 1.15896 0
M  V30 5629 C 555.217 0.704677 2.22613 0
M  V30 5630 C 556.198 -0.305252 1.67339 0
M  V30 5631 O 557.383 -0.179247 1.93371 0
M  V30 5632 C 554.513 0.0957325 3.47168 0
M  V30 5633 C 553.467 1.0322 4.15367 0
M  V30 5634 C 552.793 0.286293 5.33933 0
M  V30 5635 C 554.093 2.36341 4.65768 0
M  V30 5636 H 555.787 1.59688 2.53259 0
M  V30 5637 H 553.333 0.769257 1.21731 0
M  V30 5638 H 555.286 -0.170333 4.21056 0
M  V30 5639 H 554.01 -0.831516 3.15838 0
M  V30 5640 H 552.669 1.28309 3.43413 0
M  V30 5641 H 552.317 -0.644237 4.98857 0
M  V30 5642 H 552.017 0.910436 5.80504 0
M  V30 5643 H 553.541 0.0278938 6.10594 0
M  V30 5644 H 554.955 2.1561 5.31211 0
M  V30 5645 H 553.352 2.94299 5.2298 0
M  V30 5646 H 554.422 2.99047 3.81705 0
M  V30 5647 N 555.766 -1.3263 0.851289 0
M  V30 5648 C 556.991 -2.02097 0.466006 0
M  V30 5649 C 557.416 -1.63574 -0.928709 0
M  V30 5650 O 556.774 -0.834665 -1.60944 0
M  V30 5651 C 556.822 -3.55425 0.608737 0
M  V30 5652 O 555.926 -4.10827 -0.359878 0
M  V30 5653 H 555.267 -0.636911 0.187724 0
M  V30 5654 H 557.797 -1.69253 1.14955 0
M  V30 5655 H 557.807 -4.04986 0.495006 0
M  V30 5656 H 556.482 -3.82806 1.62581 0
M  V30 5657 H 555.059 -3.72349 -0.202666 0
M  V30 5658 N 557.244 -0.608902 -1.45362 0
M  V30 5659 C 558.49 -0.104762 -2.02529 0
M  V30 5660 C 558.823 1.26191 -1.47613 0
M  V30 5661 O 558.098 1.8327 -0.65134 0
M  V30 5662 C 558.381 -0.0672661 -3.60037 0
M  V30 5663 C 558.234 -1.4647 -4.25284 0
M  V30 5664 C 559.553 0.619877 -4.35713 0
M  V30 5665 H 556.672 -0.0395438 -0.735938 0
M  V30 5666 H 559.314 -0.781126 -1.73201 0
M  V30 5667 H 557.464 0.50871 -3.85155 0
M  V30 5668 H 559.136 -2.08785 -4.11347 0
M  V30 5669 H 557.379 -2.02502 -3.83634 0
M  V30 5670 H 558.05 -1.39069 -5.34195 0
M  V30 5671 H 560.526 0.130297 -4.15896 0
M  V30 5672 H 559.402 0.615224 -5.45441 0
M  V30 5673 H 559.663 1.68621 -4.0868 0
M  V30 5674 N 558.722 1.53707 -0.348139 0
M  V30 5675 C 559.97 2.00591 0.246478 0
M  V30 5676 C 560.291 1.23753 1.50699 0
M  V30 5677 O 559.561 0.345964 1.92821 0
M  V30 5678 H 558.141 0.741053 0.0940679 0
M  V30 5679 H 560.803 1.89139 -0.470354 0
M  V30 5680 H 559.899 3.08297 0.485714 0
M  V30 5681 N 560.2 0.0768682 1.57412 0
M  V30 5682 C 561.13 -0.886026 2.16037 0
M  V30 5683 C 562.111 -1.30691 1.08876 0
M  V30 5684 O 563.296 -1.37705 1.36934 0
M  V30 5685 C 560.426 -2.1518 2.72608 0
M  V30 5686 C 559.38 -1.87015 3.8498 0
M  V30 5687 C 558.706 -3.20266 4.28175 0
M  V30 5688 C 560.006 -1.17143 5.08994 0
M  V30 5689 H 561.7 -0.397642 2.96748 0
M  V30 5690 H 559.246 -0.189823 1.42743 0
M  V30 5691 H 561.199 -2.82962 3.12266 0
M  V30 5692 H 559.923 -2.66269 1.89125 0
M  V30 5693 H 558.582 -1.21636 3.45833 0
M  V30 5694 H 558.23 -3.69207 3.41607 0
M  V30 5695 H 557.93 -3.0221 5.03927 0
M  V30 5696 H 559.454 -3.89237 4.70454 0
M  V30 5697 H 560.868 -1.75003 5.45937 0
M  V30 5698 H 559.265 -1.09328 5.90057 0
M  V30 5699 H 560.335 -0.151295 4.84664 0
M  V30 5700 N 561.678 -1.56367 -0.196722 0
M  V30 5701 C 562.588 -1.97617 -1.2643 0
M  V30 5702 C 563.604 -0.883598 -1.49895 0
M  V30 5703 O 564.78 -1.18921 -1.62541 0
M  V30 5704 C 561.845 -2.30595 -2.58895 0
M  V30 5705 C 560.906 -3.53551 -2.43516 0
M  V30 5706 C 560.139 -3.84946 -3.69665 0
M  V30 5707 O 560.362 -3.17655 -4.73763 0
M  V30 5708 O 559.296 -4.78379 -3.65291 0
M  V30 5709 H 563.122 -2.88648 -0.944233 0
M  V30 5710 H 560.707 -1.43901 -0.401592 0
M  V30 5711 H 562.589 -2.52889 -3.37083 0
M  V30 5712 H 561.264 -1.42732 -2.90533 0
M  V30 5713 H 560.171 -3.36507 -1.63445 0
M  V30 5714 H 561.504 -4.41875 -2.16812 0
M  V30 5715 N 563.156 0.464375 -1.50603 0
M  V30 5716 C 564.433 1.22549 -1.5245 0
M  V30 5717 C 564.813 2.09327 -0.273035 0
M  V30 5718 O 564.161 2.16074 0.743242 0
M  V30 5719 C 564.371 2.05074 -2.82393 0
M  V30 5720 C 565.719 2.63036 -3.33313 0
M  V30 5721 O 566.743 2.1531 -2.8376 0
M  V30 5722 O 565.602 3.5001 -4.19709 0
M  V30 5723 H 562.696 0.556471 -0.611775 0
M  V30 5724 H 565.242 0.475648 -1.62898 0
M  V30 5725 H 564.014 1.41169 -3.64948 0
M  V30 5726 H 563.637 2.87179 -2.7498 0
M  V30 5727 N 564.634 1.40294 0.718013 0
M  V30 5728 C 565.883 1.37746 1.4734 0
M  V30 5729 C 566.196 -0.0180754 1.95592 0
M  V30 5730 O 567.402 -0.166166 2.70991 0
M  V30 5731 C 565.858 2.4208 2.66318 0
M  V30 5732 C 565.466 3.87432 2.24945 0
M  V30 5733 C 567.21 2.48635 3.44065 0
M  V30 5734 C 565.117 4.83368 3.40748 0
M  V30 5735 H 564.047 0.512165 0.553356 0
M  V30 5736 H 566.698 1.66019 0.781661 0
M  V30 5737 H 565.08 2.06903 3.3765 0
M  V30 5738 H 566.254 4.3174 1.6105 0
M  V30 5739 H 564.569 3.8433 1.60249 0
M  V30 5740 H 567.166 3.17499 4.30231 0
M  V30 5741 H 567.509 1.51611 3.87711 0
M  V30 5742 H 568.042 2.82791 2.79775 0
M  V30 5743 H 564.781 5.81716 3.02136 0
M  V30 5744 H 564.301 4.43726 4.03568 0
M  V30 5745 H 565.98 5.03074 4.06848 0
M  V30 5746 N 566.112 -0.949982 1.2575 0
M  V30 5747 C 567.389 -1.6718 1.01539 0
M  V30 5748 C 567.769 -2.06095 -0.456942 0
M  V30 5749 O 567.117 -1.77792 -1.43534 0
M  V30 5750 C 567.327 -2.8906 1.95564 0
M  V30 5751 C 568.675 -3.60909 2.23673 0
M  V30 5752 O 569.699 -2.9915 1.9336 0
M  V30 5753 O 568.558 -4.72127 2.75243 0
M  V30 5754 H 565.652 -0.731697 0.385419 0
M  V30 5755 H 568.198 -1.00249 1.36924 0
M  V30 5756 H 566.97 -2.57128 2.94959 0
M  V30 5757 H 566.593 -3.63719 1.60605 0
M  V30 5758 N 567.59 -1.07411 -1.15328 0
M  V30 5759 C 568.867 -0.710732 -1.82231 0
M  V30 5760 C 569.247 0.806732 -1.95077 0
M  V30 5761 O 568.595 1.72139 -1.50268 0
M  V30 5762 C 568.805 -1.42586 -3.18544 0
M  V30 5763 C 570.153 -1.57836 -3.94174 0
M  V30 5764 O 571.177 -1.38669 -3.281 0
M  V30 5765 O 570.036 -1.8938 -5.12638 0
M  V30 5766 H 567.13 -0.25297 -0.78736 0
M  V30 5767 H 569.676 -1.17508 -1.22434 0
M  V30 5768 H 568.448 -2.46008 -3.04296 0
M  V30 5769 H 568.071 -0.952332 -3.86026 0
M  V30 5770 N 569.068 1.32177 -0.85831 0
M  V30 5771 C 569.998 2.31282 -0.321041 0
M  V30 5772 C 570.979 1.59841 0.581786 0
M  V30 5773 O 572.164 1.87619 0.501262 0
M  V30 5774 C 569.294 3.4385 0.48832 0
M  V30 5775 C 568.248 4.26799 -0.320391 0
M  V30 5776 C 567.574 5.31164 0.613934 0
M  V30 5777 C 568.874 4.98829 -1.54813 0
M  V30 5778 H 570.568 2.76469 -1.14915 0
M  V30 5779 H 568.114 1.32916 -0.554028 0
M  V30 5780 H 570.067 4.12224 0.874626 0
M  V30 5781 H 568.791 2.97401 1.34983 0
M  V30 5782 H 567.45 3.60077 -0.688497 0
M  V30 5783 H 567.098 4.80967 1.47239 0
M  V30 5784 H 566.798 5.8755 0.0768097 0
M  V30 5785 H 568.322 6.024 0.997336 0
M  V30 5786 H 569.736 5.59864 -1.23392 0
M  V30 5787 H 568.133 5.64957 -2.02346 0
M  V30 5788 H 569.203 4.26483 -2.30739 0
M  V30 5789 N 570.547 0.616602 1.45037 0
M  V30 5790 C 571.477 -0.0840787 2.33349 0
M  V30 5791 C 572.458 -0.849641 1.4736 0
M  V30 5792 O 573.643 -0.818407 1.76113 0
M  V30 5793 C 570.773 -1.07604 3.3021 0
M  V30 5794 C 569.727 -0.423096 4.25904 0
M  V30 5795 C 569.053 -1.52394 5.12523 0
M  V30 5796 C 570.353 0.661457 5.18095 0
M  V30 5797 H 572.047 0.653333 2.92185 0
M  V30 5798 H 569.593 0.315634 1.40498 0
M  V30 5799 H 571.546 -1.57485 3.90866 0
M  V30 5800 H 570.27 -1.84416 2.69552 0
M  V30 5801 H 568.929 0.05493 3.66559 0
M  V30 5802 H 568.577 -2.28257 4.48227 0
M  V30 5803 H 568.277 -1.09251 5.77354 0
M  V30 5804 H 569.801 -2.02485 5.76049 0
M  V30 5805 H 571.215 0.246353 5.7277 0
M  V30 5806 H 569.612 1.01517 5.91451 0
M  V30 5807 H 570.682 1.53446 4.59981 0
M  V30 5808 N 572.025 -1.5352 0.356285 0
M  V30 5809 C 572.988 -2.24071 -0.482182 0
M  V30 5810 C 573.988 -1.24531 -1.01729 0
M  V30 5811 O 575.178 -1.48876 -0.904513 0
M  V30 5812 C 572.31 -2.97025 -1.67299 0
M  V30 5813 H 573.503 -2.99596 0.135031 0
M  V30 5814 H 571.056 -1.55928 0.107825 0
M  V30 5815 H 571.791 -2.25719 -2.32855 0
M  V30 5816 H 571.576 -3.7005 -1.29636 0
M  V30 5817 H 573.066 -3.50683 -2.26741 0
M  V30 5818 N 573.503 -0.0852151 -1.57369 0
M  V30 5819 C 574.78 0.622534 -1.85429 0
M  V30 5820 C 575.16 1.86962 -0.980229 0
M  V30 5821 O 574.508 2.28445 -0.0500219 0
M  V30 5822 C 574.718 0.947374 -3.35896 0
M  V30 5823 C 576.066 1.31509 -4.03721 0
M  V30 5824 O 577.09 1.03869 -3.40719 0
M  V30 5825 O 575.949 1.83231 -5.14868 0
M  V30 5826 H 573.043 0.310513 -0.766492 0
M  V30 5827 H 575.589 -0.117164 -1.69295 0
M  V30 5828 H 574.361 0.0622264 -3.91251 0
M  V30 5829 H 573.984 1.74338 -3.5734 0
M  V30 5830 N 574.981 1.5647 0.188427 0
M  V30 5831 C 576.227 1.81281 0.909124 0
M  V30 5832 C 576.56 0.66034 1.82628 0
M  V30 5833 O 575.835 -0.338737 1.91528 0
M  V30 5834 C 576.118 3.16388 1.7196 0
M  V30 5835 C 575.971 4.42137 0.826714 0
M  V30 5836 C 577.29 3.48256 2.69083 0
M  V30 5837 H 574.409 0.659457 0.329068 0
M  V30 5838 H 577.051 1.89182 0.176156 0
M  V30 5839 H 575.201 3.09784 2.34448 0
M  V30 5840 H 576.873 4.60794 0.216025 0
M  V30 5841 H 575.116 4.33594 0.133792 0
M  V30 5842 H 575.787 5.33184 1.42893 0
M  V30 5843 H 578.263 3.55203 2.16726 0
M  V30 5844 H 577.139 4.43899 3.2287 0
M  V30 5845 H 577.4 2.72088 3.48455 0
M  V30 5846 N 576.459 -0.456382 1.50847 0
M  V30 5847 C 577.391 -1.57033 1.66953 0
M  V30 5848 C 578.404 -1.53207 0.550593 0
M  V30 5849 O 579.593 -1.58328 0.824285 0
M  V30 5850 C 576.693 -2.95937 1.65149 0
M  V30 5851 C 575.866 -3.24475 2.93317 0
M  V30 5852 C 574.925 -4.43007 2.83957 0
M  V30 5853 O 573.951 -4.42592 3.57912 0
M  V30 5854 N 575.153 -5.45503 1.9851 0
M  V30 5855 H 577.918 -1.43629 2.63042 0
M  V30 5856 H 575.479 -0.645037 1.48495 0
M  V30 5857 H 577.471 -3.73224 1.56481 0
M  V30 5858 H 576.041 -3.03036 0.767343 0
M  V30 5859 H 575.261 -2.35664 3.16 0
M  V30 5860 H 576.549 -3.4036 3.78196 0
M  V30 5861 H 575.947 -5.48668 1.37766 0
M  V30 5862 H 574.504 -6.21716 1.95735 0
M  V30 5863 N 577.937 -1.40673 -0.710563 0
M  V30 5864 C 578.869 -1.37256 -1.83558 0
M  V30 5865 C 579.882 -0.277133 -1.60424 0
M  V30 5866 O 581.071 -0.537831 -1.70205 0
M  V30 5867 C 578.171 -1.1144 -3.20054 0
M  V30 5868 C 577.344 -2.32734 -3.70342 0
M  V30 5869 C 576.403 -2.03002 -4.85465 0
M  V30 5870 O 575.429 -2.75912 -4.97857 0
M  V30 5871 N 576.631 -1.01105 -5.71627 0
M  V30 5872 H 579.396 -2.34215 -1.86985 0
M  V30 5873 H 576.957 -1.35091 -0.892301 0
M  V30 5874 H 578.949 -0.895265 -3.94673 0
M  V30 5875 H 577.519 -0.231307 -3.11743 0
M  V30 5876 H 576.739 -2.70446 -2.86798 0
M  V30 5877 H 578.027 -3.13584 -4.00678 0
M  V30 5878 H 577.425 -0.407303 -5.64232 0
M  V30 5879 H 575.982 -0.85182 -6.4621 0
M  V30 5880 N 579.415 0.9433 -1.26252 0
M  V30 5881 C 580.378 2.02326 -1.07689 0
M  V30 5882 C 581.378 1.60779 -0.0259174 0
M  V30 5883 O 582.568 1.72108 -0.269134 0
M  V30 5884 C 579.7 3.34886 -0.63752 0
M  V30 5885 H 580.893 2.20225 -2.0357 0
M  V30 5886 H 578.446 1.12197 -1.08819 0
M  V30 5887 H 579.181 3.22684 0.323377 0
M  V30 5888 H 578.966 3.66393 -1.39637 0
M  V30 5889 H 580.456 4.14231 -0.529418 0
M  V30 5890 N 580.893 1.08022 1.14757 0
M  V30 5891 C 581.823 0.728248 2.21853 0
M  V30 5892 C 582.804 -0.287486 1.67653 0
M  V30 5893 O 583.989 -0.158727 1.9355 0
M  V30 5894 C 581.119 0.132549 3.47047 0
M  V30 5895 C 580.073 1.07619 4.14249 0
M  V30 5896 C 579.399 0.342907 5.33599 0
M  V30 5897 C 580.699 2.41268 4.63235 0
M  V30 5898 H 582.393 1.62365 2.51551 0
M  V30 5899 H 579.939 0.782125 1.20908 0
M  V30 5900 H 581.892 -0.125665 4.21213 0
M  V30 5901 H 580.616 -0.797971 3.16702 0
M  V30 5902 H 579.275 1.31944 3.42033 0
M  V30 5903 H 578.923 -0.59129 4.99513 0
M  V30 5904 H 578.623 0.971955 5.79506 0
M  V30 5905 H 580.147 0.0926538 6.1053 0
M  V30 5906 H 581.561 2.21232 5.28894 0
M  V30 5907 H 579.958 2.9983 5.19829 0
M  V30 5908 H 581.028 3.03079 3.78512 0
M  V30 5909 N 582.371 -1.3172 0.865308 0
M  V30 5910 C 583.318 -2.2863 0.315736 0
M  V30 5911 C 584.288 -1.55524 -0.583213 0
M  V30 5912 O 585.473 -1.83694 -0.51585 0
M  V30 5913 C 582.613 -3.41735 -0.480773 0
M  V30 5914 C 581.726 -4.297 0.445167 0
M  V30 5915 C 580.861 -5.29944 -0.365012 0
M  V30 5916 C 579.9 -6.09554 0.557651 0
M  V30 5917 N 579.037 -7.01768 -0.215994 0
M  V30 5918 H 583.877 -2.75026 1.14736 0
M  V30 5919 H 581.414 -1.35302 0.577209 0
M  V30 5920 H 583.372 -4.06045 -0.958306 0
M  V30 5921 H 582.002 -2.96461 -1.27714 0
M  V30 5922 H 581.054 -3.65875 1.04113 0
M  V30 5923 H 582.366 -4.85295 1.15284 0
M  V30 5924 H 581.52 -5.99908 -0.905255 0
M  V30 5925 H 580.259 -4.74994 -1.106 0
M  V30 5926 H 579.264 -5.38485 1.10969 0
M  V30 5927 H 580.489 -6.66591 1.29742 0
M  V30 5928 H 578.435 -6.49232 -0.939878 0
M  V30 5929 H 578.352 -7.54762 0.432431 0
M  V30 5930 H 579.62 -7.76002 -0.737618 0
M  V30 5931 N 583.85 -0.624285 -1.44708 0
M  V30 5932 C 584.812 0.0749638 -2.29077 0
M  V30 5933 C 585.812 0.778965 -1.40673 0
M  V30 5934 O 587.003 0.624591 -1.62618 0
M  V30 5935 C 584.135 1.11663 -3.22094 0
M  V30 5936 H 585.327 -0.667013 -2.92388 0
M  V30 5937 H 582.88 -0.384098 -1.51507 0
M  V30 5938 H 583.615 1.88881 -2.63618 0
M  V30 5939 H 583.401 0.61583 -3.87234 0
M  V30 5940 H 584.891 1.60585 -3.8549 0
M  V30 5941 N 585.328 1.53329 -0.364422 0
M  V30 5942 C 586.553 2.06132 0.229033 0
M  V30 5943 C 586.978 1.23625 1.41769 0
M  V30 5944 O 586.336 0.255038 1.79497 0
M  V30 5945 C 586.384 3.55544 0.60174 0
M  V30 5946 O 585.488 3.75771 1.69912 0
M  V30 5947 H 584.829 0.663148 0.0336213 0
M  V30 5948 H 587.359 1.97758 -0.524689 0
M  V30 5949 H 587.369 3.98549 0.873073 0
M  V30 5950 H 586.044 4.15039 -0.267421 0
M  V30 5951 H 584.621 3.44663 1.42343 0
M  V30 5952 N 586.806 0.0935595 1.57322 0
M  V30 5953 C 587.769 -0.851426 2.12799 0
M  V30 5954 C 588.769 -1.21187 1.0569 0
M  V30 5955 O 589.959 -1.14156 1.31583 0
M  V30 5956 C 587.091 -2.14779 2.64731 0
M  V30 5957 H 588.284 -0.369733 2.97612 0
M  V30 5958 H 585.837 -0.155417 1.55525 0
M  V30 5959 H 586.572 -2.67437 1.83434 0
M  V30 5960 H 586.357 -1.89907 3.43042 0
M  V30 5961 H 587.847 -2.82383 3.07651 0
M  V30 5962 O 588.323 -1.61433 -0.0465113 0
M  V30 5963 H 589.014 -1.8177 -0.669292 0
M  V30 END ATOM
M  V30 BEGIN BOND
M  V30 END BOND
M  V30 END CTAB
M  END
$$$$
