drugbank_target|P13423 Protective antigen (DB08902; DB09057)
 OpenBabel12092120583D

  0  0  0     0  0            999 V3000
M  V30 BEGIN CTAB
M  V30 COUNTS 12040 12144 0 0 0
M  V30 BEGIN ATOM
M  V30 1 H -0.908 1.98254 -0.117106 0
M  V30 2 N 0 1.576 0 0
M  V30 3 C 0.933 2.03868 1.02534 0
M  V30 4 C 1.911 0.928543 1.3348 0
M  V30 5 O 3.095 1.19667 1.45644 0
M  V30 6 C 0.222 2.43627 2.35294 0
M  V30 7 C -0.732 3.65373 2.2001 0
M  V30 8 S 0.101 5.13292 1.52614 0
M  V30 9 C 1.257 5.56322 2.86805 0
M  V30 10 H 1.49 2.90518 0.631377 0
M  V30 11 H -0.977 1.52953 0.210867 0
M  V30 12 H 0.981 2.67203 3.11629 0
M  V30 13 H -0.358 1.57376 2.7183 0
M  V30 14 H -1.165 3.90944 3.18086 0
M  V30 15 H -1.563 3.418 1.51819 0
M  V30 16 H 0.729 5.58782 3.83104 0
M  V30 17 H 1.672 6.56266 2.65933 0
M  V30 18 H 2.08 4.83886 2.90714 0
M  V30 19 N 1.4781 -0.272755 1.55222 0
M  V30 20 C 2.4251 -1.33716 1.88119 0
M  V30 21 C 3.3951 -1.49066 0.73271 0
M  V30 22 O 4.5801 -1.63469 0.984002 0
M  V30 23 C 1.7201 -2.69238 2.15882 0
M  V30 24 C 0.8331 -2.62108 3.43399 0
M  V30 25 C -0.0319 -3.89811 3.60861 0
M  V30 26 C -0.9929 -3.77193 4.8207 0
M  V30 27 N -1.8559 -4.9673 4.96189 0
M  V30 28 H 2.9841 -1.04962 2.78903 0
M  V30 29 H 0.5211 -0.507088 1.38083 0
M  V30 30 H 2.4791 -3.48089 2.29978 0
M  V30 31 H 1.1091 -2.96194 1.28331 0
M  V30 32 H 0.1611 -1.74967 3.37773 0
M  V30 33 H 1.4731 -2.48685 4.32386 0
M  V30 34 H 0.6271 -4.77103 3.74777 0
M  V30 35 H -0.6339 -4.06102 2.7006 0
M  V30 36 H -1.6289 -2.88284 4.68159 0
M  V30 37 H -0.4039 -3.62421 5.74307 0
M  V30 38 H -2.4579 -5.13431 4.08319 0
M  V30 39 H -2.5409 -4.85839 5.79221 0
M  V30 40 H -1.2729 -5.85594 5.1449 0
M  V30 41 N 2.9562 -1.48159 -0.537278 0
M  V30 42 C 3.9032 -1.62138 -1.64256 0
M  V30 43 C 4.8732 -0.463668 -1.59497 0
M  V30 44 O 6.0582 -0.686241 -1.78032 0
M  V30 45 C 3.1982 -1.66028 -3.02537 0
M  V30 46 C 2.3112 -2.92855 -3.17585 0
M  V30 47 C 1.4462 -2.87952 -4.46382 0
M  V30 48 C 0.4852 -4.09516 -4.54932 0
M  V30 49 N -0.3778 -4.02733 -5.75109 0
M  V30 50 H 4.4622 -2.56529 -1.51647 0
M  V30 51 H 1.9992 -1.27224 -0.738414 0
M  V30 52 H 3.9572 -1.66265 -3.82638 0
M  V30 53 H 2.5872 -0.751331 -3.13934 0
M  V30 54 H 1.6392 -3.02395 -2.30784 0
M  V30 55 H 2.9512 -3.82822 -3.19764 0
M  V30 56 H 2.1052 -2.8655 -5.34765 0
M  V30 57 H 0.8442 -1.95702 -4.46712 0
M  V30 58 H -0.1508 -4.11201 -3.64957 0
M  V30 59 H 1.0742 -5.02917 -4.56346 0
M  V30 60 H -0.9798 -3.13299 -5.76351 0
M  V30 61 H -1.0628 -4.86397 -5.78752 0
M  V30 62 H 0.2052 -4.05379 -6.65799 0
M  V30 63 N 4.4343 0.785586 -1.36625 0
M  V30 64 C 5.8503 1.08419 -1.17122 0
M  V30 65 C 6.0503 2.015 0.00208491 0
M  V30 66 O 5.1063 2.43551 0.666278 0
M  V30 67 C 6.4193 1.69498 -2.48377 0
M  V30 68 C 7.9673 1.81821 -2.54775 0
M  V30 69 C 8.4423 2.46315 -3.86126 0
M  V30 70 N 9.9333 2.53779 -3.87492 0
M  V30 71 C 10.6683 3.045 -4.85868 0
M  V30 72 N 10.1643 3.55499 -5.94637 0
M  V30 73 N 11.9573 3.03247 -4.73284 0
M  V30 74 H 4.1083 0.167264 -2.1174 0
M  V30 75 H 6.3713 0.13682 -0.938075 0
M  V30 76 H 6.0773 1.08571 -3.34522 0
M  V30 77 H 5.9513 2.6896 -2.64462 0
M  V30 78 H 8.3383 2.41884 -1.69045 0
M  V30 79 H 8.4193 0.811532 -2.42586 0
M  V30 80 H 8.0633 1.86895 -4.72263 0
M  V30 81 H 7.9933 3.47561 -3.95612 0
M  V30 82 H 10.4843 2.17672 -3.08913 0
M  V30 83 H 10.7973 3.92562 -6.65669 0
M  V30 84 H 9.1423 3.5364 -5.98301 0
M  V30 85 H 12.3333 2.62696 -3.87438 0
M  V30 86 H 12.5063 3.42467 -5.50109 0
M  V30 87 N 5.9124 1.20967 1.01018 0
M  V30 88 C 6.8594 0.964281 2.09691 0
M  V30 89 C 7.8294 -0.107853 1.65749 0
M  V30 90 O 9.0144 0.0381987 1.90762 0
M  V30 91 C 6.1544 0.52943 3.41015 0
M  V30 92 C 5.2674 1.67043 3.98398 0
M  V30 93 C 4.4024 1.18525 5.17808 0
M  V30 94 C 3.4414 2.29892 5.67288 0
M  V30 95 N 2.5784 1.82546 6.77954 0
M  V30 96 H 7.4184 1.89463 2.30017 0
M  V30 97 H 4.9554 0.944289 1.1279 0
M  V30 98 H 6.9134 0.258588 4.16398 0
M  V30 99 H 5.5434 -0.363919 3.20742 0
M  V30 100 H 4.5954 2.05603 3.20049 0
M  V30 101 H 5.9074 2.50877 4.31117 0
M  V30 102 H 5.0614 0.870762 6.00419 0
M  V30 103 H 3.8004 0.316887 4.86669 0
M  V30 104 H 2.8054 2.6215 4.83278 0
M  V30 105 H 4.0304 3.17216 6.00459 0
M  V30 106 H 1.9764 0.980454 6.48632 0
M  V30 107 H 1.8934 2.59956 7.09901 0
M  V30 108 H 3.1614 1.54115 7.64113 0
M  V30 109 N 7.3905 -1.2043 1.01659 0
M  V30 110 C 8.6365 -1.90079 0.706963 0
M  V30 111 C 8.9695 -1.78648 -0.761474 0
M  V30 112 O 8.2445 -1.17069 -1.55323 0
M  V30 113 C 8.5275 -3.41469 1.14327 0
M  V30 114 C 8.3805 -3.61833 2.67201 0
M  V30 115 C 9.6995 -4.34261 0.714529 0
M  V30 116 H 6.8185 -0.690254 0.2583 0
M  V30 117 H 9.4605 -1.41826 1.26433 0
M  V30 118 H 7.6105 -3.82696 0.669056 0
M  V30 119 H 9.2825 -3.2986 3.22475 0
M  V30 120 H 7.5255 -3.05304 3.08175 0
M  V30 121 H 8.1965 -4.67955 2.92783 0
M  V30 122 H 10.6725 -4.00682 1.12221 0
M  V30 123 H 9.5485 -5.38806 1.04784 0
M  V30 124 H 9.8095 -4.40431 -0.383799 0
M  V30 125 N 8.8686 -0.792821 -1.36206 0
M  V30 126 C 9.7986 -0.207853 -2.32573 0
M  V30 127 C 10.7796 0.659055 -1.56813 0
M  V30 128 O 11.9646 0.592176 -1.84951 0
M  V30 129 C 9.0946 0.655449 -3.41059 0
M  V30 130 C 8.0486 -0.111842 -4.27854 0
M  V30 131 C 7.3746 0.872274 -5.27537 0
M  V30 132 C 8.6746 -1.30299 -5.05786 0
M  V30 133 H 10.3686 -1.01294 -2.81744 0
M  V30 134 H 7.9146 -0.48854 -1.3546 0
M  V30 135 H 9.8676 1.07464 -4.07467 0
M  V30 136 H 8.5916 1.49328 -2.90463 0
M  V30 137 H 7.2506 -0.512053 -3.63006 0
M  V30 138 H 6.8986 1.70523 -4.73214 0
M  V30 139 H 6.5986 0.363291 -5.86476 0
M  V30 140 H 8.1226 1.28996 -5.96818 0
M  V30 141 H 9.5366 -0.959379 -5.65216 0
M  V30 142 H 7.9336 -1.7455 -5.74154 0
M  V30 143 H 9.0036 -2.09663 -4.37229 0
M  V30 144 N 10.3467 1.47872 -0.545128 0
M  V30 145 C 11.5957 2.01695 -0.0145033 0
M  V30 146 C 11.9087 1.42609 1.33873 0
M  V30 147 O 13.1147 1.88021 1.95858 0
M  V30 148 C 11.5707 3.59892 0.0245068 0
M  V30 149 C 11.1787 4.27966 -1.32475 0
M  V30 150 C 12.9227 4.21507 0.50316 0
M  V30 151 C 10.8297 5.78136 -1.2455 0
M  V30 152 H 9.7597 0.753998 -0.00165172 0
M  V30 153 H 12.4107 1.69985 -0.691175 0
M  V30 154 H 10.7927 3.88509 0.766575 0
M  V30 155 H 11.9667 4.11003 -2.08357 0
M  V30 156 H 10.2817 3.78286 -1.74036 0
M  V30 157 H 12.8787 5.31538 0.580656 0
M  V30 158 H 13.2217 3.87855 1.51243 0
M  V30 159 H 13.7547 3.97376 -0.183681 0
M  V30 160 H 10.4937 6.16388 -2.23039 0
M  V30 161 H 10.0137 5.97469 -0.528282 0
M  V30 162 H 11.6927 6.40099 -0.942488 0
M  V30 163 N 11.8248 0.280983 1.55075 0
M  V30 164 C 13.2358 -0.215629 1.85451 0
M  V30 165 C 13.5868 -1.54991 1.203 0
M  V30 166 O 12.7118 -2.10699 0.493435 0
M  V30 167 C 13.3068 -0.398026 3.36454 0
M  V30 168 C 11.8658 -0.838866 3.66933 0
M  V30 169 C 11.0128 0.064458 2.77225 0
M  V30 170 H 13.9638 0.502601 1.50531 0
M  V30 171 H 13.9848 -1.23569 3.59876 0
M  V30 172 H 13.4968 0.573241 3.83843 0
M  V30 173 H 11.5978 -1.8214 3.25048 0
M  V30 174 H 11.7108 -0.672123 4.74362 0
M  V30 175 H 10.0748 -0.452863 2.50642 0
M  V30 176 H 10.8578 1.03172 3.2743 0
M  V30 177 N 13.3029 -1.57598 0.00835791 0
M  V30 178 C 14.2329 -2.1198 -0.979113 0
M  V30 179 C 15.2139 -1.03091 -1.35301 0
M  V30 180 O 16.3989 -1.30818 -1.43528 0
M  V30 181 C 13.5289 -2.62995 -2.26828 0
M  V30 182 C 12.4829 -3.76485 -2.03576 0
M  V30 183 C 11.8089 -4.13846 -3.38579 0
M  V30 184 C 13.1089 -5.0342 -1.39161 0
M  V30 185 H 14.8029 -2.94738 -0.526281 0
M  V30 186 H 12.3489 -1.41783 -0.251704 0
M  V30 187 H 14.3019 -2.99669 -2.96271 0
M  V30 188 H 13.0259 -1.7737 -2.7424 0
M  V30 189 H 11.6849 -3.40217 -1.36557 0
M  V30 190 H 11.3329 -3.25232 -3.83709 0
M  V30 191 H 11.0329 -4.90312 -3.23834 0
M  V30 192 H 12.5569 -4.53086 -4.09323 0
M  V30 193 H 13.9709 -5.37812 -1.98573 0
M  V30 194 H 12.3679 -5.84746 -1.34878 0
M  V30 195 H 13.4379 -4.83548 -0.361868 0
M  V30 196 N 14.781 0.264519 -1.55364 0
M  V30 197 C 15.714 1.35297 -1.83766 0
M  V30 198 C 16.692 1.47171 -0.691336 0
M  V30 199 O 17.876 1.63663 -0.935238 0
M  V30 200 C 15.003 2.72847 -2.00679 0
M  V30 201 C 14.049 2.78214 -3.23263 0
M  V30 202 S 14.882 2.36601 -4.80396 0
M  V30 203 C 16.038 3.7611 -5.00292 0
M  V30 204 H 16.271 1.11003 -2.758 0
M  V30 205 H 13.804 0.464596 -1.47244 0
M  V30 206 H 15.762 3.52057 -2.11108 0
M  V30 207 H 14.423 2.94388 -1.09518 0
M  V30 208 H 13.616 3.7919 -3.3201 0
M  V30 209 H 13.218 2.07034 -3.11469 0
M  V30 210 H 15.51 4.71457 -4.86554 0
M  V30 211 H 16.453 3.7231 -6.02321 0
M  V30 212 H 16.861 3.67806 -4.28228 0
M  V30 213 N 16.2591 1.48442 0.529413 0
M  V30 214 C 17.2221 1.62524 1.61612 0
M  V30 215 C 18.2221 0.498509 1.52877 0
M  V30 216 O 19.4121 0.76431 1.56537 0
M  V30 217 C 16.5441 1.59597 3.01233 0
M  V30 218 H 17.7371 2.59423 1.50465 0
M  V30 219 H 15.2901 1.37047 0.751514 0
M  V30 220 H 16.0251 0.641781 3.17886 0
M  V30 221 H 15.8101 2.41397 3.08982 0
M  V30 222 H 17.3001 1.72646 3.80241 0
M  V30 223 N 17.7372 -0.778329 1.37039 0
M  V30 224 C 18.6672 -1.90546 1.34962 0
M  V30 225 C 19.6482 -1.68681 0.219274 0
M  V30 226 O 20.8332 -1.89634 0.418624 0
M  V30 227 C 17.9632 -3.27734 1.14925 0
M  V30 228 C 16.9172 -3.64147 2.24902 0
M  V30 229 C 16.2432 -4.99806 1.89996 0
M  V30 230 C 17.5432 -3.71579 3.67051 0
M  V30 231 H 19.2372 -1.92541 2.29277 0
M  V30 232 H 16.7832 -0.924948 1.10366 0
M  V30 233 H 18.7362 -4.06215 1.12104 0
M  V30 234 H 17.4602 -3.26154 0.170631 0
M  V30 235 H 16.1192 -2.8797 2.26868 0
M  V30 236 H 15.7672 -4.94759 0.906796 0
M  V30 237 H 15.4672 -5.25139 2.63634 0
M  V30 238 H 16.9912 -5.80694 1.88749 0
M  V30 239 H 18.4052 -4.40227 3.67251 0
M  V30 240 H 16.8022 -4.08405 4.39688 0
M  V30 241 H 17.8722 -2.72404 4.01154 0
M  V30 242 N 19.2153 -1.21501 -1.00376 0
M  V30 243 C 20.4403 -1.05977 -1.78279 0
M  V30 244 C 20.8653 0.385994 -1.84097 0
M  V30 245 O 20.2233 1.27849 -1.28547 0
M  V30 246 C 20.2713 -1.66302 -3.19963 0
M  V30 247 O 19.3753 -0.909333 -4.0225 0
M  V30 248 H 18.7163 -0.372906 -0.549397 0
M  V30 249 H 21.2463 -1.6107 -1.26165 0
M  V30 250 H 21.2563 -1.70574 -3.70632 0
M  V30 251 H 19.9313 -2.71515 -3.15043 0
M  V30 252 H 18.5083 -0.941795 -3.60811 0
M  V30 253 N 20.6934 1.19889 -1.02296 0
M  V30 254 C 21.9214 1.9339 -0.735399 0
M  V30 255 C 22.3364 1.75148 0.704887 0
M  V30 256 O 21.6934 1.06954 1.47875 0
M  V30 257 C 21.7444 3.45313 -1.06962 0
M  V30 258 O 21.4654 3.62964 -2.45334 0
M  V30 259 C 22.9664 4.35948 -0.804021 0
M  V30 260 H 20.1864 0.61448 -0.269546 0
M  V30 261 H 22.7304 1.522 -1.36585 0
M  V30 262 H 20.8854 3.84359 -0.484455 0
M  V30 263 H 21.2994 4.56886 -2.57595 0
M  V30 264 H 22.7734 5.41174 -1.0879 0
M  V30 265 H 23.2504 4.3842 0.261691 0
M  V30 266 H 23.8564 4.02574 -1.37164 0
M  V30 267 N 22.1715 0.800033 1.35784 0
M  V30 268 C 23.4205 0.37387 1.98205 0
M  V30 269 C 23.7335 -1.06302 1.64193 0
M  V30 270 O 24.9395 -1.59198 2.19928 0
M  V30 271 C 23.3955 0.617532 3.54562 0
M  V30 272 C 23.0035 2.06654 3.9749 0
M  V30 273 C 24.7475 0.256401 4.23725 0
M  V30 274 C 22.6545 2.2563 5.46667 0
M  V30 275 H 21.5845 0.136055 0.741623 0
M  V30 276 H 24.2355 0.983166 1.54939 0
M  V30 277 H 22.6175 -0.0616248 3.95952 0
M  V30 278 H 23.7915 2.78296 3.67271 0
M  V30 279 H 22.1065 2.38691 3.41197 0
M  V30 280 H 24.7035 0.376318 5.33374 0
M  V30 281 H 25.0465 -0.796692 4.08606 0
M  V30 282 H 25.5795 0.889214 3.87734 0
M  V30 283 H 22.3185 3.2936 5.66747 0
M  V30 284 H 21.8385 1.58504 5.78478 0
M  V30 285 H 23.5175 2.06861 6.1304 0
M  V30 286 N 23.6496 -1.47581 0.552962 0
M  V30 287 C 24.5796 -2.32762 -0.185451 0
M  V30 288 C 25.5606 -1.43527 -0.912905 0
M  V30 289 O 26.7456 -1.72388 -0.894201 0
M  V30 290 C 23.8756 -3.25219 -1.21859 0
M  V30 291 C 22.8296 -4.23661 -0.607864 0
M  V30 292 C 22.1556 -5.05413 -1.74533 0
M  V30 293 C 23.4556 -5.20481 0.435582 0
M  V30 294 H 25.1496 -2.94749 0.525684 0
M  V30 295 H 22.6956 -1.41738 0.254251 0
M  V30 296 H 24.6486 -3.8365 -1.7433 0
M  V30 297 H 23.3726 -2.61279 -1.95961 0
M  V30 298 H 22.0316 -3.66451 -0.104489 0
M  V30 299 H 21.6796 -4.3788 -2.47529 0
M  V30 300 H 21.3796 -5.72059 -1.34249 0
M  V30 301 H 22.9036 -5.66701 -2.27338 0
M  V30 302 H 24.3176 -5.733 -0.00290157 0
M  V30 303 H 22.7146 -5.95305 0.757067 0
M  V30 304 H 23.7846 -4.66217 1.33303 0
M  V30 305 N 25.1277 -0.289203 -1.54924 0
M  V30 306 C 26.3737 0.323998 -2.00195 0
M  V30 307 C 26.7067 1.54441 -1.17735 0
M  V30 308 O 25.9817 1.92875 -0.250878 0
M  V30 309 C 26.2647 0.692276 -3.53383 0
M  V30 310 C 26.1177 -0.536457 -4.46589 0
M  V30 311 C 27.4367 1.52335 -4.12895 0
M  V30 312 H 24.5557 0.116289 -0.727768 0
M  V30 313 H 27.1977 -0.398954 -1.85764 0
M  V30 314 H 25.3477 1.30822 -3.65811 0
M  V30 315 H 27.0197 -1.17499 -4.46085 0
M  V30 316 H 25.2627 -1.17192 -4.1767 0
M  V30 317 H 25.9337 -0.234806 -5.515 0
M  V30 318 H 28.4097 1.00302 -4.0383 0
M  V30 319 H 27.2857 1.74982 -5.20262 0
M  V30 320 H 27.5467 2.50886 -3.64018 0
M  V30 321 N 26.6058 1.57591 -0.0167156 0
M  V30 322 C 27.8308 1.9598 0.67872 0
M  V30 323 C 28.2558 0.892546 1.65575 0
M  V30 324 O 27.6138 -0.147772 1.80697 0
M  V30 325 C 27.6618 3.33468 1.37227 0
M  V30 326 O 26.7658 3.28954 2.48722 0
M  V30 327 H 26.1068 0.639339 0.17928 0
M  V30 328 H 28.6368 2.04463 -0.0748802 0
M  V30 329 H 28.6468 3.69417 1.7319 0
M  V30 330 H 27.3218 4.10694 0.656007 0
M  V30 331 H 25.8988 3.04705 2.14963 0
M  V30 332 N 28.0839 -0.256276 1.55502 0
M  V30 333 C 29.3089 -1.00766 1.81276 0
M  V30 334 C 29.7339 -1.78524 0.59252 0
M  V30 335 O 29.0919 -1.75413 -0.45827 0
M  V30 336 C 29.1399 -1.92869 3.04687 0
M  V30 337 O 28.2439 -3.019 2.80945 0
M  V30 338 H 27.5849 -0.287224 0.598664 0
M  V30 339 H 30.1149 -0.280109 2.02674 0
M  V30 340 H 30.1249 -2.34511 3.33869 0
M  V30 341 H 28.7999 -1.35689 3.93143 0
M  V30 342 H 27.3769 -2.64454 2.62904 0
M  V30 343 N 29.562 -1.4872 -0.521534 0
M  V30 344 C 30.79 -1.60843 -1.30142 0
M  V30 345 C 31.205 -0.271897 -1.86832 0
M  V30 346 O 30.562 0.739969 -1.66825 0
M  V30 347 C 30.613 -2.66155 -2.4463 0
M  V30 348 O 30.334 -3.94623 -1.90275 0
M  V30 349 C 31.835 -2.88795 -3.36322 0
M  V30 350 H 29.055 -0.542075 -0.395468 0
M  V30 351 H 31.599 -1.94609 -0.628285 0
M  V30 352 H 29.754 -2.35224 -3.07812 0
M  V30 353 H 30.168 -4.52468 -2.65279 0
M  V30 354 H 31.642 -3.66264 -4.12983 0
M  V30 355 H 32.119 -1.97934 -3.9207 0
M  V30 356 H 32.725 -3.21063 -2.78924 0
M  V30 357 N 31.0401 0.771051 -1.3745 0
M  V30 358 C 32.2881 1.52661 -1.32435 0
M  V30 359 C 32.6091 1.9479 0.0905024 0
M  V30 360 O 31.8791 1.66348 1.03466 0
M  V30 361 H 30.4591 0.566218 -0.487244 0
M  V30 362 H 33.1211 0.917636 -1.71946 0
M  V30 363 H 32.2171 2.42568 -1.96385 0
M  V30 364 N 32.5182 1.22032 0.997298 0
M  V30 365 C 33.4662 0.983634 2.10778 0
M  V30 366 C 34.4602 -0.0717564 1.69248 0
M  V30 367 O 35.6662 0.080304 1.79821 0
M  V30 368 H 32.0412 0.300877 0.689186 0
M  V30 369 H 34.0122 1.92606 2.27916 0
M  V30 370 C 32.7612 0.57326 3.42942 0
M  V30 371 H 32.0842 1.37702 3.75338 0
M  V30 372 H 33.5242 0.447031 4.21637 0
M  V30 373 C 31.9832 -0.7167 3.29188 0
M  V30 374 O 32.5132 -1.77027 3.60589 0
M  V30 375 N 30.7192 -0.686167 2.82383 0
M  V30 376 H 30.2662 0.171507 2.57028 0
M  V30 377 H 30.2242 -1.54955 2.73562 0
M  V30 378 N 33.9963 -1.19345 1.0293 0
M  V30 379 C 34.9263 -2.2481 0.631105 0
M  V30 380 C 35.9073 -1.66245 -0.360104 0
M  V30 381 O 37.0923 -1.92677 -0.242726 0
M  V30 382 C 34.2223 -3.47295 -0.0184607 0
M  V30 383 C 33.1763 -4.18536 0.895073 0
M  V30 384 C 32.5023 -5.34586 0.110592 0
M  V30 385 C 33.8023 -4.73287 2.209 0
M  V30 386 H 35.4963 -2.58372 1.51275 0
M  V30 387 H 33.0423 -1.24194 0.728818 0
M  V30 388 H 34.9953 -4.20268 -0.308675 0
M  V30 389 H 33.7193 -3.12933 -0.934907 0
M  V30 390 H 32.3783 -3.47446 1.16949 0
M  V30 391 H 32.0263 -4.96469 -0.807902 0
M  V30 392 H 31.7263 -5.83183 0.719087 0
M  V30 393 H 33.2503 -6.10355 -0.172871 0
M  V30 394 H 34.6643 -5.38013 1.98028 0
M  V30 395 H 33.0613 -5.32373 2.76946 0
M  V30 396 H 34.1313 -3.91331 2.86336 0
M  V30 397 N 35.4744 -0.807222 -1.35358 0
M  V30 398 C 36.3844 -0.219594 -2.3357 0
M  V30 399 C 37.4004 0.637734 -1.61892 0
M  V30 400 O 38.5764 0.549336 -1.93763 0
M  V30 401 C 35.6414 0.62158 -3.41083 0
M  V30 402 C 34.7024 -0.256315 -4.28534 0
M  V30 403 C 33.9354 0.544807 -5.30912 0
M  V30 404 O 34.1584 1.77944 -5.41934 0
M  V30 405 O 33.0924 -0.0646478 -6.01865 0
M  V30 406 H 36.9184 -1.03208 -2.85625 0
M  V30 407 H 34.5034 -0.569025 -1.38139 0
M  V30 408 H 36.3854 1.10067 -4.06772 0
M  V30 409 H 35.0604 1.41165 -2.91297 0
M  V30 410 H 33.9674 -0.782559 -3.65823 0
M  V30 411 H 35.3004 -1.01034 -4.81719 0
M  V30 412 N 36.9525 1.47285 -0.560781 0
M  V30 413 C 38.1985 2.02764 -0.0381184 0
M  V30 414 C 38.5315 1.43384 1.30976 0
M  V30 415 O 37.8065 0.590733 1.85312 0
M  V30 416 C 38.0895 3.60064 0.0511427 0
M  V30 417 C 37.9425 4.2987 -1.32408 0
M  V30 418 C 39.2615 4.33439 0.762795 0
M  V30 419 H 36.3805 0.736841 -0.0153264 0
M  V30 420 H 39.0225 1.75675 -0.723759 0
M  V30 421 H 37.1725 3.83274 0.635065 0
M  V30 422 H 38.8445 4.17989 -1.95148 0
M  V30 423 H 37.0875 3.90085 -1.8978 0
M  V30 424 H 37.7585 5.38478 -1.21431 0
M  V30 425 H 40.2345 4.15243 0.266965 0
M  V30 426 H 39.1105 5.43124 0.794221 0
M  V30 427 H 39.3715 4.02915 1.81966 0
M  V30 428 N 38.4306 0.297415 1.54768 0
M  V30 429 C 39.6796 -0.313669 1.99246 0
M  V30 430 C 39.9926 -1.55281 1.18942 0
M  V30 431 O 41.1986 -2.23825 1.5367 0
M  V30 432 C 39.6546 -0.609407 3.54703 0
M  V30 433 C 39.2626 0.611192 4.43811 0
M  V30 434 C 41.0066 -1.18188 4.07715 0
M  V30 435 C 38.9136 0.288805 5.90694 0
M  V30 436 H 37.8436 -0.120979 0.744231 0
M  V30 437 H 40.4946 0.40556 1.78962 0
M  V30 438 H 38.8766 -1.38813 3.70873 0
M  V30 439 H 40.0506 1.3875 4.39414 0
M  V30 440 H 38.3656 1.10205 4.01552 0
M  V30 441 H 40.9626 -1.43727 5.15021 0
M  V30 442 H 41.3056 -2.12299 3.58099 0
M  V30 443 H 41.8386 -0.464944 3.95074 0
M  V30 444 H 38.5776 1.19838 6.44453 0
M  V30 445 H 38.0976 -0.450305 5.98107 0
M  V30 446 H 39.7766 -0.110933 6.46905 0
M  V30 447 N 39.9087 -1.5758 0.0250728 0
M  V30 448 C 40.8407 -2.06869 -0.986796 0
M  V30 449 C 41.8537 -0.991332 -1.29137 0
M  V30 450 O 43.0427 -1.26761 -1.25674 0
M  V30 451 C 40.1427 -2.47486 -2.31525 0
M  V30 452 C 39.3157 -3.78253 -2.19643 0
M  V30 453 C 38.3747 -4.05464 -3.35388 0
M  V30 454 O 37.4007 -4.75774 -3.12454 0
M  V30 455 N 38.6027 -3.55321 -4.59051 0
M  V30 456 H 41.3677 -2.94302 -0.566276 0
M  V30 457 H 38.9287 -1.6109 -0.161776 0
M  V30 458 H 40.9207 -2.62785 -3.07776 0
M  V30 459 H 39.4907 -1.65441 -2.65232 0
M  V30 460 H 38.7107 -3.7279 -1.28144 0
M  V30 461 H 39.9987 -4.63936 -2.08903 0
M  V30 462 H 39.3967 -2.98431 -4.80578 0
M  V30 463 H 37.9537 -3.75905 -5.32483 0
M  V30 464 N 41.3868 0.248026 -1.55636 0
M  V30 465 C 42.3498 1.29044 -1.89421 0
M  V30 466 C 43.3498 1.41134 -0.770581 0
M  V30 467 O 44.5398 1.39854 -1.03858 0
M  V30 468 C 41.6718 2.66831 -2.12165 0
M  V30 469 H 42.8648 1.00305 -2.82629 0
M  V30 470 H 40.4178 0.487265 -1.48511 0
M  V30 471 H 41.1528 3.00711 -1.21422 0
M  V30 472 H 40.9378 2.59438 -2.93997 0
M  V30 473 H 42.4278 3.42103 -2.3949 0
M  V30 474 N 42.8649 1.48995 0.513639 0
M  V30 475 C 43.7749 1.67443 1.64317 0
M  V30 476 C 44.7909 0.556947 1.64846 0
M  V30 477 O 45.9669 0.830082 1.83498 0
M  V30 478 C 43.0319 1.72515 3.00732 0
M  V30 479 C 42.0929 2.96009 3.1093 0
M  V30 480 C 41.3259 3.00829 4.40837 0
M  V30 481 O 41.5489 2.13594 5.28898 0
M  V30 482 O 40.4829 3.93168 4.55744 0
M  V30 483 H 44.3089 2.63106 1.51687 0
M  V30 484 H 41.8939 1.32588 0.688543 0
M  V30 485 H 43.7759 1.78277 3.81831 0
M  V30 486 H 42.4509 0.800278 3.13651 0
M  V30 487 H 41.3579 2.9577 2.29065 0
M  V30 488 H 42.6909 3.87934 3.02933 0
M  V30 489 N 44.343 -0.763751 1.37857 0
M  V30 490 C 45.589 -1.52483 1.33704 0
M  V30 491 C 45.922 -1.94051 -0.0759612 0
M  V30 492 O 45.197 -1.64675 -1.03501 0
M  V30 493 C 45.48 -2.78441 2.28348 0
M  V30 494 C 45.333 -2.43075 3.78463 0
M  V30 495 C 46.652 -3.80415 2.21298 0
M  V30 496 H 43.771 -0.553169 0.487005 0
M  V30 497 H 46.413 -0.875562 1.68624 0
M  V30 498 H 44.563 -3.33842 1.987 0
M  V30 499 H 46.235 -1.93527 4.18742 0
M  V30 500 H 44.478 -1.75666 3.96641 0
M  V30 501 H 45.149 -3.33149 4.40132 0
M  V30 502 H 47.625 -3.34527 2.47449 0
M  V30 503 H 46.501 -4.66257 2.89647 0
M  V30 504 H 46.762 -4.25262 1.20849 0
M  V30 505 N 45.8211 -1.22559 -0.990812 0
M  V30 506 C 46.7681 -0.997519 -2.0813 0
M  V30 507 C 47.7381 0.0814702 -1.659 0
M  V30 508 O 48.9231 -0.0685424 -1.90677 0
M  V30 509 C 46.0631 -0.583615 -3.40129 0
M  V30 510 C 45.1761 -1.7336 -3.9569 0
M  V30 511 C 44.3111 -1.26748 -5.15857 0
M  V30 512 C 43.3501 -2.38888 -5.63559 0
M  V30 513 N 42.4871 -1.93308 -6.74964 0
M  V30 514 H 47.3271 -1.93099 -2.26973 0
M  V30 515 H 44.8641 -0.962114 -1.11273 0
M  V30 516 H 46.8221 -0.324801 -4.15934 0
M  V30 517 H 45.4521 0.312845 -3.2128 0
M  V30 518 H 44.5041 -2.10669 -3.16738 0
M  V30 519 H 45.8161 -2.57704 -4.27071 0
M  V30 520 H 44.9701 -0.966173 -5.98957 0
M  V30 521 H 43.7091 -0.394272 -4.86104 0
M  V30 522 H 42.7141 -2.69805 -4.79046 0
M  V30 523 H 43.9391 -3.26728 -5.95336 0
M  V30 524 H 41.8851 -1.08352 -6.4699 0
M  V30 525 H 41.8021 -2.71217 -7.05675 0
M  V30 526 H 43.0701 -1.66252 -7.61564 0
M  V30 527 N 47.2992 1.18797 -1.03562 0
M  V30 528 C 48.2312 2.21731 -0.580337 0
M  V30 529 C 49.2442 1.59051 0.347349 0
M  V30 530 O 50.4332 1.77929 0.142669 0
M  V30 531 C 47.5332 3.38459 0.172805 0
M  V30 532 C 46.7062 4.3072 -0.761496 0
M  V30 533 C 45.7652 5.26174 -0.0525547 0
M  V30 534 O 44.7912 5.65108 -0.681333 0
M  V30 535 N 45.9932 5.67624 1.21586 0
M  V30 536 H 48.7582 2.61417 -1.46565 0
M  V30 537 H 46.3192 1.33531 -0.915476 0
M  V30 538 H 48.3112 3.99335 0.656793 0
M  V30 539 H 46.8812 2.97507 0.959602 0
M  V30 540 H 46.1012 3.67525 -1.42544 0
M  V30 541 H 47.3892 4.89267 -1.39626 0
M  V30 542 H 46.7872 5.38038 1.74732 0
M  V30 543 H 45.3442 6.30721 1.64421 0
M  V30 544 N 48.7773 0.814389 1.34928 0
M  V30 545 C 49.6873 0.231978 2.3345 0
M  V30 546 C 50.7033 -0.629139 1.62228 0
M  V30 547 O 51.8793 -0.539052 1.94052 0
M  V30 548 C 48.9443 -0.603482 3.41407 0
M  V30 549 C 48.0053 0.279037 4.28392 0
M  V30 550 C 47.2383 -0.516643 5.31193 0
M  V30 551 O 47.4613 -1.75068 5.4287 0
M  V30 552 O 46.3953 0.0965652 6.01823 0
M  V30 553 H 50.2213 1.04721 2.85074 0
M  V30 554 H 47.8063 0.576343 1.37836 0
M  V30 555 H 49.6883 -1.07908 4.0735 0
M  V30 556 H 48.3633 -1.39618 2.92042 0
M  V30 557 H 47.2703 0.801948 3.65403 0
M  V30 558 H 48.6033 1.03588 4.81176 0
M  V30 559 N 50.2554 -1.46986 0.568584 0
M  V30 560 C 51.2034 -2.31858 -0.185649 0
M  V30 561 C 52.1974 -1.43624 -0.898249 0
M  V30 562 O 53.4034 -1.60327 -0.818242 0
M  V30 563 H 49.7784 -0.747866 -0.0787399 0
M  V30 564 H 51.7494 -2.93303 0.549191 0
M  V30 565 C 50.4984 -3.26513 -1.19519 0
M  V30 566 H 49.8214 -3.94377 -0.656285 0
M  V30 567 H 51.2614 -3.88707 -1.6936 0
M  V30 568 C 49.7204 -2.50847 -2.24894 0
M  V30 569 O 50.2504 -2.26119 -3.32014 0
M  V30 570 N 48.4564 -2.11656 -1.99124 0
M  V30 571 H 48.0034 -2.31966 -1.12024 0
M  V30 572 H 47.9614 -1.61347 -2.69842 0
M  V30 573 N 51.7335 -0.305618 -1.54608 0
M  V30 574 C 53.1495 0.0476228 -1.59529 0
M  V30 575 C 53.3495 1.52025 -1.32252 0
M  V30 576 O 52.4055 2.27368 -1.09818 0
M  V30 577 C 53.7185 -0.354471 -2.98603 0
M  V30 578 C 55.2665 -0.303622 -3.11524 0
M  V30 579 C 55.7415 -0.680608 -4.52915 0
M  V30 580 N 57.2325 -0.63332 -4.5885 0
M  V30 581 C 57.9675 -0.897432 -5.66334 0
M  V30 582 N 57.4635 -1.22775 -6.81834 0
M  V30 583 N 59.2565 -0.824186 -5.56025 0
M  V30 584 H 51.4075 -1.2653 -1.70599 0
M  V30 585 H 53.6705 -0.513291 -0.797017 0
M  V30 586 H 53.3765 -1.3798 -3.23503 0
M  V30 587 H 53.2505 0.289568 -3.76087 0
M  V30 588 H 55.6375 0.712472 -2.8637 0
M  V30 589 H 55.7185 -0.982348 -2.36185 0
M  V30 590 H 55.3625 -1.69453 -4.78799 0
M  V30 591 H 55.2925 0.0202385 -5.26596 0
M  V30 592 H 57.7835 -0.389138 -3.75891 0
M  V30 593 H 58.0965 -1.41513 -7.59733 0
M  V30 594 H 56.4415 -1.26583 -6.83375 0
M  V30 595 H 59.6325 -0.565748 -4.64669 0
M  V30 596 H 59.8055 -1.03338 -6.39707 0
M  V30 597 N 53.2116 1.57565 -0.0334293 0
M  V30 598 C 54.1416 2.13511 0.945265 0
M  V30 599 C 55.1226 1.05231 1.33643 0
M  V30 600 O 56.3076 1.33084 1.41429 0
M  V30 601 C 53.4376 2.6657 2.22616 0
M  V30 602 C 52.3916 3.79676 1.97561 0
M  V30 603 C 51.7176 4.1918 3.31952 0
M  V30 604 C 53.0176 5.0557 1.31135 0
M  V30 605 H 54.7116 2.95538 0.479325 0
M  V30 606 H 52.2576 1.42166 0.229115 0
M  V30 607 H 54.2106 3.04344 2.91466 0
M  V30 608 H 52.9346 1.8171 2.71384 0
M  V30 609 H 51.5936 3.42347 1.31127 0
M  V30 610 H 51.2416 3.31296 3.78487 0
M  V30 611 H 50.9416 4.95402 3.15992 0
M  V30 612 H 52.4656 4.59541 4.02063 0
M  V30 613 H 53.8796 5.40903 1.89992 0
M  V30 614 H 52.2766 5.86818 1.25559 0
M  V30 615 H 53.3466 4.84062 0.284894 0
M  V30 616 N 54.6897 -0.239769 1.55765 0
M  V30 617 C 55.6197 -1.30052 1.9393 0
M  V30 618 C 56.6007 -1.49839 0.805132 0
M  V30 619 O 57.7857 -1.62328 1.06599 0
M  V30 620 C 54.9157 -2.65391 2.2402 0
M  V30 621 C 53.8697 -2.60289 3.39755 0
M  V30 622 C 53.1957 -3.99489 3.55405 0
M  V30 623 C 54.4957 -2.16654 4.75246 0
M  V30 624 H 56.1897 -0.983573 2.82783 0
M  V30 625 H 53.7357 -0.471701 1.36055 0
M  V30 626 H 55.6887 -3.3974 2.49308 0
M  V30 627 H 54.4127 -2.98736 1.32 0
M  V30 628 H 53.0717 -1.88398 3.14487 0
M  V30 629 H 52.7197 -4.30112 2.60793 0
M  V30 630 H 52.4197 -3.96962 4.33238 0
M  V30 631 H 53.9437 -4.75528 3.83022 0
M  V30 632 H 55.3577 -2.80737 4.99859 0
M  V30 633 H 53.7547 -2.25223 5.56232 0
M  V30 634 H 54.8247 -1.11835 4.71827 0
M  V30 635 N 56.1678 -1.49265 -0.50573 0
M  V30 636 C 57.1158 -1.66065 -1.62866 0
M  V30 637 C 58.1098 -0.526636 -1.61006 0
M  V30 638 O 59.3158 -0.706126 -1.65571 0
M  V30 639 H 55.6908 -0.52356 -0.539805 0
M  V30 640 H 57.6618 -2.60329 -1.45848 0
M  V30 641 C 56.4108 -1.74008 -3.01026 0
M  V30 642 H 55.7338 -2.6064 -3.03161 0
M  V30 643 H 57.1738 -1.89798 -3.79147 0
M  V30 644 C 55.6328 -0.483868 -3.33407 0
M  V30 645 O 56.1628 0.392548 -3.99777 0
M  V30 646 N 54.3688 -0.348236 -2.88506 0
M  V30 647 H 53.9158 -1.06242 -2.34671 0
M  V30 648 H 53.8738 0.491204 -3.10539 0
M  V30 649 N 57.6459 0.756429 -1.3826 0
M  V30 650 C 58.5559 1.9009 -1.37488 0
M  V30 651 C 59.5719 1.71855 -0.272366 0
M  V30 652 O 60.7479 1.94827 -0.510318 0
M  V30 653 C 57.8129 3.25421 -1.19592 0
M  V30 654 C 56.8739 3.56202 -2.39622 0
M  V30 655 C 56.1069 4.85075 -2.2257 0
M  V30 656 O 56.3299 5.57246 -1.21793 0
M  V30 657 O 55.2639 5.15269 -3.11098 0
M  V30 658 H 59.0899 1.93695 -2.33914 0
M  V30 659 H 56.6749 0.901313 -1.1915 0
M  V30 660 H 58.5569 4.06337 -1.11661 0
M  V30 661 H 57.2319 3.22634 -0.262486 0
M  V30 662 H 56.1389 2.75458 -2.53128 0
M  V30 663 H 57.4719 3.63747 -3.31586 0
M  V30 664 N 59.124 1.23083 0.984299 0
M  V30 665 C 60.349 1.088 1.76571 0
M  V30 666 C 60.774 -0.356657 1.84688 0
M  V30 667 O 60.132 -1.25788 1.30565 0
M  V30 668 C 60.18 1.71371 3.17277 0
M  V30 669 O 59.284 0.973213 4.00752 0
M  V30 670 H 58.625 0.381599 0.543395 0
M  V30 671 H 61.155 1.63057 1.23587 0
M  V30 672 H 61.165 1.76449 3.67872 0
M  V30 673 H 59.84 2.76493 3.10684 0
M  V30 674 H 58.417 0.999078 3.59267 0
M  V30 675 N 60.6021 -1.18246 1.0419 0
M  V30 676 C 61.5121 -2.25574 0.644476 0
M  V30 677 C 62.5281 -1.70845 -0.329826 0
M  V30 678 O 63.7041 -2.00554 -0.184443 0
M  V30 679 C 60.7691 -3.46697 0.014877 0
M  V30 680 C 59.8301 -4.16554 1.03834 0
M  V30 681 C 59.0631 -5.31894 0.438692 0
M  V30 682 O 59.2861 -5.65385 -0.754752 0
M  V30 683 O 58.2201 -5.90459 1.168 0
M  V30 684 H 62.0461 -2.61836 1.53869 0
M  V30 685 H 59.6311 -1.25352 0.812854 0
M  V30 686 H 61.5131 -4.20062 -0.335538 0
M  V30 687 H 60.1881 -3.12255 -0.853138 0
M  V30 688 H 59.0951 -3.45251 1.44057 0
M  V30 689 H 60.4281 -4.54998 1.87716 0
M  V30 690 N 62.0802 -0.821533 -1.34494 0
M  V30 691 C 63.3052 -0.420873 -2.03085 0
M  V30 692 C 63.7302 0.964915 -1.61465 0
M  V30 693 O 63.0882 1.62763 -0.798607 0
M  V30 694 C 63.1362 -0.529414 -3.56693 0
M  V30 695 O 62.2402 0.451302 -4.09923 0
M  V30 696 H 61.5812 -0.173489 -0.640935 0
M  V30 697 H 64.1112 -1.11157 -1.71771 0
M  V30 698 H 64.1212 -0.404671 -4.05988 0
M  V30 699 H 62.7962 -1.54014 -3.86332 0
M  V30 700 H 61.3732 0.285558 -3.71805 0
M  V30 701 N 63.5583 1.46682 -0.576371 0
M  V30 702 C 64.7833 2.07304 -0.0630475 0
M  V30 703 C 65.2083 1.42329 1.2298 0
M  V30 704 O 64.5663 0.504865 1.74129 0
M  V30 705 C 64.6143 3.60472 0.095895 0
M  V30 706 O 63.7183 3.95927 1.15394 0
M  V30 707 H 63.0593 0.661288 -0.0599463 0
M  V30 708 H 65.5893 1.88417 -0.797511 0
M  V30 709 H 65.5993 4.06865 0.304071 0
M  V30 710 H 64.2743 4.07157 -0.84828 0
M  V30 711 H 62.8513 3.61252 0.924724 0
M  V30 712 N 65.0364 0.313813 1.54444 0
M  V30 713 C 66.2614 -0.296681 2.05267 0
M  V30 714 C 66.6864 -1.45757 1.18897 0
M  V30 715 O 66.0444 -1.80239 0.195886 0
M  V30 716 C 66.0924 -0.71831 3.53373 0
M  V30 717 O 65.1964 -1.82175 3.69981 0
M  V30 718 H 64.5374 -0.0554061 0.661684 0
M  V30 719 H 67.0674 0.459387 1.99376 0
M  V30 720 H 67.0774 -1.00364 3.95463 0
M  V30 721 H 65.7524 0.130821 4.15694 0
M  V30 722 H 64.3294 -1.53598 3.39797 0
M  V30 723 N 66.5145 -1.57545 0.0417849 0
M  V30 724 C 67.4465 -2.07904 -0.964799 0
M  V30 725 C 68.4595 -1.00497 -1.28079 0
M  V30 726 O 69.6485 -1.28087 -1.24322 0
M  V30 727 C 66.7485 -2.49928 -2.28887 0
M  V30 728 C 65.9215 -3.80562 -2.15619 0
M  V30 729 C 64.9805 -4.08999 -3.31069 0
M  V30 730 O 64.0065 -4.79061 -3.0739 0
M  V30 731 N 65.2085 -3.6017 -4.55256 0
M  V30 732 H 67.9735 -2.94886 -0.535029 0
M  V30 733 H 65.5345 -1.61252 -0.144681 0
M  V30 734 H 67.5265 -2.66034 -3.04972 0
M  V30 735 H 66.0965 -1.68245 -2.63463 0
M  V30 736 H 65.3165 -3.74129 -1.24183 0
M  V30 737 H 66.6045 -4.66126 -2.03971 0
M  V30 738 H 66.0025 -3.03512 -4.77386 0
M  V30 739 H 64.5595 -3.81532 -5.28466 0
M  V30 740 N 67.9926 0.231505 -1.5589 0
M  V30 741 C 69.2406 0.955461 -1.78088 0
M  V30 742 C 69.5616 1.85262 -0.608533 0
M  V30 743 O 68.8316 1.92277 0.375035 0
M  V30 744 H 67.4116 0.355787 -0.656829 0
M  V30 745 H 70.0736 0.245751 -1.93344 0
M  V30 746 H 69.1696 1.56814 -2.69844 0
M  V30 747 N 69.4707 1.49531 0.497807 0
M  V30 748 C 70.4007 1.6935 1.60757 0
M  V30 749 C 71.3817 0.542218 1.61227 0
M  V30 750 O 72.5667 0.778417 1.77917 0
M  V30 751 C 69.6967 1.76298 2.99226 0
M  V30 752 C 68.6507 2.91248 3.13622 0
M  V30 753 C 67.9767 2.83312 4.53474 0
M  V30 754 C 69.2767 4.3214 2.93346 0
M  V30 755 H 70.9707 2.62263 1.44425 0
M  V30 756 H 68.5167 1.26208 0.693367 0
M  V30 757 H 70.4697 1.88749 3.76765 0
M  V30 758 H 69.1937 0.799871 3.16654 0
M  V30 759 H 67.8527 2.78404 2.38509 0
M  V30 760 H 67.5007 1.84902 4.67782 0
M  V30 761 H 67.2007 3.60465 4.64046 0
M  V30 762 H 68.7247 2.97775 5.33069 0
M  V30 763 H 70.1387 4.45649 3.60652 0
M  V30 764 H 68.5357 5.1054 3.15387 0
M  V30 765 H 69.6057 4.46363 1.89441 0
M  V30 766 N 70.9488 -0.749086 1.3866 0
M  V30 767 C 71.8788 -1.8764 1.38973 0
M  V30 768 C 72.8598 -1.68178 0.255004 0
M  V30 769 O 74.0448 -1.88704 0.458754 0
M  V30 770 C 71.1748 -3.25222 1.21851 0
M  V30 771 C 70.1288 -3.59295 2.32575 0
M  V30 772 C 69.4548 -4.95663 2.00555 0
M  V30 773 C 70.7548 -3.63709 3.7485 0
M  V30 774 H 72.4488 -1.87635 2.3331 0
M  V30 775 H 69.9948 -0.901329 1.12303 0
M  V30 776 H 71.9478 -4.03746 1.20695 0
M  V30 777 H 70.6718 -3.25719 0.239775 0
M  V30 778 H 69.3308 -2.83093 2.32925 0
M  V30 779 H 68.9788 -4.92724 1.01154 0
M  V30 780 H 68.6788 -5.19429 2.74714 0
M  V30 781 H 70.2028 -5.7656 2.01024 0
M  V30 782 H 71.6168 -4.32338 3.76506 0
M  V30 783 H 70.0138 -3.98986 4.48252 0
M  V30 784 H 71.0838 -2.63834 4.06841 0
M  V30 785 N 72.4269 -1.23603 -0.977757 0
M  V30 786 C 73.6749 -1.06759 -1.71601 0
M  V30 787 C 73.9959 0.395929 -1.90938 0
M  V30 788 O 73.2659 1.28356 -1.47992 0
M  V30 789 H 71.8459 -0.392062 -0.635843 0
M  V30 790 H 74.5079 -1.55362 -1.1768 0
M  V30 791 H 73.6039 -1.55763 -2.70452 0
M  V30 792 N 73.905 1.17692 -1.04816 0
M  V30 793 C 75.135 1.91508 -0.775128 0
M  V30 794 C 75.543 1.76844 0.67253 0
M  V30 795 O 74.886 1.10057 1.47082 0
M  V30 796 C 74.948 3.43167 -1.0713 0
M  V30 797 C 74.612 3.81612 -2.51438 0
M  V30 798 C 75.609 3.84772 -3.49638 0
M  V30 799 C 73.294 4.12687 -2.86348 0
M  V30 800 C 75.288 4.18469 -4.80794 0
M  V30 801 C 72.975 4.46053 -4.17708 0
M  V30 802 C 73.973 4.48921 -5.14741 0
M  V30 803 O 73.661 4.81504 -6.43746 0
M  V30 804 H 73.393 0.614575 -0.281555 0
M  V30 805 H 75.947 1.50206 -1.40098 0
M  V30 806 H 74.177 3.84745 -0.388342 0
M  V30 807 H 75.866 3.98239 -0.784883 0
M  V30 808 H 76.632 3.60893 -3.24008 0
M  V30 809 H 72.511 4.09627 -2.11486 0
M  V30 810 H 76.055 4.20623 -5.56527 0
M  V30 811 H 71.952 4.69393 -4.43103 0
M  V30 812 H 72.72 4.99377 -6.4851 0
M  V30 813 N 75.3831 0.828654 1.34056 0
M  V30 814 C 76.6131 0.431993 2.02033 0
M  V30 815 C 77.0211 -0.96844 1.62536 0
M  V30 816 O 76.3641 -1.6391 0.829408 0
M  V30 817 C 76.4261 0.461224 3.56529 0
M  V30 818 C 76.0901 1.81599 4.1937 0
M  V30 819 C 77.0871 2.7777 4.39477 0
M  V30 820 C 74.7721 2.10604 4.56017 0
M  V30 821 C 76.7661 4.01115 4.95364 0
M  V30 822 C 74.4531 3.34207 5.11614 0
M  V30 823 C 75.4511 4.2928 5.31232 0
M  V30 824 O 75.1391 5.50699 5.8565 0
M  V30 825 H 74.8711 0.170943 0.654029 0
M  V30 826 H 77.4251 1.11988 1.72185 0
M  V30 827 H 75.6551 -0.283388 3.8566 0
M  V30 828 H 77.3441 0.0838149 4.05813 0
M  V30 829 H 78.1101 2.56659 4.11523 0
M  V30 830 H 73.9891 1.37402 4.40047 0
M  V30 831 H 77.5331 4.75333 5.10592 0
M  V30 832 H 73.4301 3.55179 5.38997 0
M  V30 833 H 74.1981 5.52298 6.04077 0
M  V30 834 N 76.8612 -1.46375 0.584142 0
M  V30 835 C 78.1082 -2.02378 0.0702675 0
M  V30 836 C 78.4362 -1.45545 -1.29023 0
M  V30 837 O 77.6912 -0.610967 -1.85918 0
M  V30 838 C 77.9902 -3.57373 -0.0439342 0
M  V30 839 C 77.6562 -4.33252 1.24915 0
M  V30 840 C 76.3182 -4.53701 1.60341 0
M  V30 841 C 78.6702 -4.7681 2.1048 0
M  V30 842 C 75.9982 -5.1496 2.81128 0
M  V30 843 C 78.3502 -5.39404 3.30494 0
M  V30 844 C 77.0142 -5.5808 3.66201 0
M  V30 845 H 76.2842 -0.740554 0.0257127 0
M  V30 846 H 78.9312 -1.75727 0.761065 0
M  V30 847 H 77.2362 -3.83169 -0.817869 0
M  V30 848 H 78.9332 -3.98384 -0.457318 0
M  V30 849 H 75.5232 -4.17633 0.963364 0
M  V30 850 H 79.7072 -4.60766 1.84414 0
M  V30 851 H 74.9632 -5.27611 3.08928 0
M  V30 852 H 79.1372 -5.72114 3.97063 0
M  V30 853 H 76.7642 -6.05318 4.59885 0
M  V30 854 N 78.3393 -0.321999 -1.54275 0
M  V30 855 C 79.5643 0.285791 -2.05422 0
M  V30 856 C 79.9893 1.45124 -1.19669 0
M  V30 857 O 79.3473 1.80132 -0.205441 0
M  V30 858 C 79.3953 0.69956 -3.53749 0
M  V30 859 O 78.4993 1.8021 -3.70942 0
M  V30 860 H 77.8403 0.0518962 -0.661969 0
M  V30 861 H 80.3703 -0.469954 -1.9913 0
M  V30 862 H 80.3803 0.982649 -3.9599 0
M  V30 863 H 79.0553 -0.152864 -4.15619 0
M  V30 864 H 77.6323 1.51794 -3.40607 0
M  V30 865 N 79.8174 1.5752 -0.0501392 0
M  V30 866 C 81.0944 1.83996 0.663685 0
M  V30 867 C 81.4744 0.938339 1.89099 0
M  V30 868 O 80.8224 -0.00087759 2.285 0
M  V30 869 C 81.0324 3.33702 1.02196 0
M  V30 870 C 82.3804 4.00691 1.40469 0
M  V30 871 O 83.4044 3.38321 1.11433 0
M  V30 872 O 82.2634 5.10658 1.94654 0
M  V30 873 H 79.3574 0.759385 0.32751 0
M  V30 874 H 81.9034 1.69514 -0.0794238 0
M  V30 875 H 80.6754 3.91015 0.149364 0
M  V30 876 H 80.2984 3.53368 1.82255 0
M  V30 877 N 81.2955 -0.223234 1.56011 0
M  V30 878 C 82.2255 -1.27988 1.95298 0
M  V30 879 C 83.2065 -1.48976 0.820979 0
M  V30 880 O 84.3915 -1.61188 1.08315 0
M  V30 881 C 81.5215 -2.63 2.26822 0
M  V30 882 C 80.4755 -2.56671 3.42497 0
M  V30 883 C 79.8015 -3.95697 3.59622 0
M  V30 884 C 81.1015 -2.11601 4.77517 0
M  V30 885 H 82.7955 -0.953525 2.8381 0
M  V30 886 H 80.3415 -0.457244 1.36548 0
M  V30 887 H 82.2945 -3.37077 2.52898 0
M  V30 888 H 81.0185 -2.9732 1.35161 0
M  V30 889 H 79.6775 -1.85051 3.16467 0
M  V30 890 H 79.3255 -4.27322 2.6534 0
M  V30 891 H 79.0255 -3.92345 4.37424 0
M  V30 892 H 80.5495 -4.71438 3.88044 0
M  V30 893 H 81.9635 -2.7542 5.02809 0
M  V30 894 H 80.3605 -2.19311 5.5859 0
M  V30 895 H 81.4305 -1.06824 4.72987 0
M  V30 896 N 82.7736 -1.49793 -0.48987 0
M  V30 897 C 83.7216 -1.67783 -1.61095 0
M  V30 898 C 84.7156 -0.543683 -1.60438 0
M  V30 899 O 85.9216 -0.723647 -1.64813 0
M  V30 900 H 82.2966 -0.529255 -0.534222 0
M  V30 901 H 84.2676 -2.61861 -1.43078 0
M  V30 902 C 83.0166 -1.77191 -2.99164 0
M  V30 903 H 82.3396 -2.63841 -3.0038 0
M  V30 904 H 83.7796 -1.93809 -3.77113 0
M  V30 905 C 82.2386 -0.519203 -3.32875 0
M  V30 906 O 82.7686 0.350124 -4.00171 0
M  V30 907 N 80.9746 -0.378816 -2.8812 0
M  V30 908 H 80.5216 -1.08725 -2.33531 0
M  V30 909 H 80.4796 0.458239 -3.11043 0
M  V30 910 N 84.2517 0.741722 -1.39055 0
M  V30 911 C 85.4987 1.50114 -1.35912 0
M  V30 912 C 85.8267 1.94443 0.0470937 0
M  V30 913 O 85.0817 1.66612 1.02659 0
M  V30 914 C 85.3807 2.7592 -2.27163 0
M  V30 915 C 85.0467 2.50493 -3.74919 0
M  V30 916 C 83.7087 2.43267 -4.1518 0
M  V30 917 C 86.0607 2.28585 -4.684 0
M  V30 918 C 83.3887 2.12166 -5.46994 0
M  V30 919 C 85.7407 1.99002 -6.00484 0
M  V30 920 C 84.4047 1.90241 -6.39816 0
M  V30 921 H 83.6747 0.549306 -0.497336 0
M  V30 922 H 86.3217 0.851896 -1.71508 0
M  V30 923 H 84.6267 3.45553 -1.84663 0
M  V30 924 H 86.3237 3.33923 -2.22028 0
M  V30 925 H 82.9137 2.56992 -3.43006 0
M  V30 926 H 87.0977 2.33139 -4.38132 0
M  V30 927 H 82.3537 2.03901 -5.76398 0
M  V30 928 H 86.5277 1.81057 -6.72452 0
M  V30 929 H 84.1547 1.65907 -7.41875 0
M  V30 930 N 85.7298 1.2412 0.971189 0
M  V30 931 C 86.6618 0.988349 2.06795 0
M  V30 932 C 87.6748 -0.0409541 1.62748 0
M  V30 933 O 88.8638 0.195673 1.77424 0
M  V30 934 C 85.9638 0.469023 3.35639 0
M  V30 935 C 85.1368 1.56065 4.08611 0
M  V30 936 C 84.1958 1.04458 5.15728 0
M  V30 937 O 83.2218 1.73553 5.42096 0
M  V30 938 N 84.4238 -0.122817 5.8037 0
M  V30 939 H 87.1888 1.93265 2.29061 0
M  V30 940 H 84.7498 1.15102 1.13856 0
M  V30 941 H 86.7418 0.108613 4.04554 0
M  V30 942 H 85.3118 -0.380919 3.1027 0
M  V30 943 H 84.5318 2.09341 3.34021 0
M  V30 944 H 85.8198 2.29449 4.54126 0
M  V30 945 H 85.2178 -0.700563 5.61345 0
M  V30 946 H 83.7748 -0.424404 6.50417 0
M  V30 947 N 87.2079 -1.17134 1.05439 0
M  V30 948 C 88.1709 -2.19439 0.661764 0
M  V30 949 C 89.1709 -1.58199 -0.288042 0
M  V30 950 O 90.3609 -1.74053 -0.0715803 0
M  V30 951 C 87.4929 -3.40889 -0.0276209 0
M  V30 952 H 88.6859 -2.55688 1.56728 0
M  V30 953 H 86.2389 -1.31259 0.848567 0
M  V30 954 H 86.9739 -3.10187 -0.94629 0
M  V30 955 H 86.7589 -3.86586 0.655238 0
M  V30 956 H 88.2489 -4.16603 -0.288342 0
M  V30 957 N 88.686 -0.835752 -1.33615 0
M  V30 958 C 90.097 -0.487099 -1.80234 0
M  V30 959 C 90.448 0.993627 -1.69179 0
M  V30 960 O 89.573 1.77403 -1.23924 0
M  V30 961 C 90.168 -0.877385 -3.27242 0
M  V30 962 C 88.727 -0.580915 -3.7189 0
M  V30 963 C 87.874 -1.0874 -2.5509 0
M  V30 964 H 90.825 -1.02474 -1.2118 0
M  V30 965 H 90.846 -0.186195 -3.80044 0
M  V30 966 H 90.358 -1.95512 -3.35256 0
M  V30 967 H 88.459 0.486881 -3.69405 0
M  V30 968 H 88.572 -1.13396 -4.65487 0
M  V30 969 H 86.936 -0.508392 -2.49575 0
M  V30 970 H 87.719 -2.17184 -2.65868 0
M  V30 971 N 90.1641 1.46063 -0.591896 0
M  V30 972 C 91.0971 2.27452 0.184617 0
M  V30 973 C 92.0751 1.36188 0.888351 0
M  V30 974 O 93.2591 1.65606 0.90039 0
M  V30 975 C 90.3861 3.14162 1.26571 0
M  V30 976 C 89.4321 4.21255 0.666814 0
M  V30 977 S 90.2651 5.33034 -0.513345 0
M  V30 978 C 91.4211 6.23311 0.56872 0
M  V30 979 H 91.6541 2.92963 -0.505939 0
M  V30 980 H 89.1871 1.49676 -0.379014 0
M  V30 981 H 91.1451 3.6468 1.88463 0
M  V30 982 H 89.8061 2.47946 1.92826 0
M  V30 983 H 88.9991 4.81788 1.47974 0
M  V30 984 H 88.6011 3.73797 0.123359 0
M  V30 985 H 90.8931 6.61758 1.45198 0
M  V30 986 H 91.8361 7.081 -7.23824e-05 0
M  V30 987 H 92.2441 5.57646 0.876996 0
M  V30 988 N 91.6422 0.330177 1.54103 0
M  V30 989 C 92.8882 -0.270806 2.00984 0
M  V30 990 C 93.2212 -1.51265 1.21789 0
M  V30 991 O 92.4962 -1.92142 0.301927 0
M  V30 992 C 92.7792 -0.598339 3.55094 0
M  V30 993 C 92.6322 0.654674 4.4501 0
M  V30 994 C 93.9512 -1.41334 4.16789 0
M  V30 995 H 91.0702 -0.0969531 0.730595 0
M  V30 996 H 93.7122 0.448066 1.84641 0
M  V30 997 H 91.8622 -1.21078 3.69151 0
M  V30 998 H 93.5342 1.29285 4.42813 0
M  V30 999 H 91.7772 1.28224 4.14416 0
M  V30 1000 H 92.4482 0.380944 5.50684 0
M  V30 1001 H 94.9242 -0.895597 4.06347 0
M  V30 1002 H 93.8002 -1.61127 5.24718 0
M  V30 1003 H 94.0612 -2.41146 3.70541 0
M  V30 1004 N 93.1203 -1.57491 0.0584922 0
M  V30 1005 C 94.3663 -1.93264 -0.614558 0
M  V30 1006 C 94.6993 -0.937717 -1.7006 0
M  V30 1007 O 93.9743 0.0351652 -1.94468 0
M  V30 1008 C 94.2573 -3.3938 -1.20386 0
M  V30 1009 C 94.1103 -4.49625 -0.125375 0
M  V30 1010 C 95.4293 -3.86039 -2.11334 0
M  V30 1011 H 92.5483 -0.702791 -0.221933 0
M  V30 1012 H 95.1903 -1.8961 0.12175 0
M  V30 1013 H 93.3403 -3.42626 -1.83139 0
M  V30 1014 H 95.0123 -4.58506 0.506971 0
M  V30 1015 H 93.2553 -4.30354 0.545672 0
M  V30 1016 H 93.9263 -5.48967 -0.577861 0
M  V30 1017 H 96.4023 -3.84716 -1.58534 0
M  V30 1018 H 95.2783 -4.88914 -2.49507 0
M  V30 1019 H 95.5393 -3.23215 -3.01636 0
M  V30 1020 N 94.5984 0.214957 -1.56127 0
M  V30 1021 C 95.8264 0.955092 -1.83536 0
M  V30 1022 C 96.2414 1.77677 -0.638472 0
M  V30 1023 O 95.5984 1.78219 0.392968 0
M  V30 1024 C 95.6494 1.86734 -3.09536 0
M  V30 1025 O 95.3704 1.07887 -4.24608 0
M  V30 1026 C 96.8714 2.72082 -3.4998 0
M  V30 1027 H 94.0914 0.279611 -0.609966 0
M  V30 1028 H 96.6354 0.228197 -2.03223 0
M  V30 1029 H 94.7904 2.5481 -2.91806 0
M  V30 1030 H 95.2044 1.69872 -4.9623 0
M  V30 1031 H 96.6784 3.31782 -4.41163 0
M  V30 1032 H 97.1554 3.44806 -2.7204 0
M  V30 1033 H 97.7614 2.09409 -3.70173 0
M  V30 1034 N 96.0765 1.50051 0.48192 0
M  V30 1035 C 97.3015 1.64508 1.26301 0
M  V30 1036 C 97.7265 0.323851 1.85291 0
M  V30 1037 O 97.0845 -0.710969 1.66778 0
M  V30 1038 C 97.1325 2.7305 2.35533 0
M  V30 1039 O 96.2365 2.3355 3.39895 0
M  V30 1040 H 95.5775 0.549978 0.372048 0
M  V30 1041 H 98.1075 1.9636 0.574786 0
M  V30 1042 H 98.1175 2.95799 2.8101 0
M  V30 1043 H 96.7925 3.68946 1.91967 0
M  V30 1044 H 95.3695 2.21205 3.00204 0
M  V30 1045 N 97.5546 -0.734337 1.39446 0
M  V30 1046 C 98.7796 -1.52866 1.40167 0
M  V30 1047 C 99.2046 -1.881 -0.00171513 0
M  V30 1048 O 98.5626 -1.51957 -0.988879 0
M  V30 1049 C 98.6106 -2.79235 2.28167 0
M  V30 1050 O 97.7146 -3.75185 1.71201 0
M  V30 1051 H 97.0556 -0.461618 0.477289 0
M  V30 1052 H 99.5856 -0.905949 1.8345 0
M  V30 1053 H 99.5956 -3.27963 2.42702 0
M  V30 1054 H 98.2706 -2.52923 3.30156 0
M  V30 1055 H 96.8476 -3.33958 1.65912 0
M  V30 1056 N 99.0327 -1.24633 -0.964593 0
M  V30 1057 C 100.261 -1.11501 -1.74285 0
M  V30 1058 C 100.676 0.332165 -1.85855 0
M  V30 1059 O 100.033 1.22903 -1.34911 0
M  V30 1060 C 100.084 -1.75258 -3.16175 0
M  V30 1061 O 99.8047 -3.14318 -3.05182 0
M  V30 1062 C 101.306 -1.67776 -4.10324 0
M  V30 1063 H 98.5257 -0.389407 -0.546446 0
M  V30 1064 H 101.07 -1.64801 -1.21083 0
M  V30 1065 H 99.2247 -1.25954 -3.66353 0
M  V30 1066 H 99.6387 -3.4551 -3.94618 0
M  V30 1067 H 101.113 -2.17064 -5.0753 0
M  V30 1068 H 101.59 -0.639584 -4.34518 0
M  V30 1069 H 102.196 -2.16522 -3.66058 0
M  V30 1070 N 100.511 1.16574 -1.06058 0
M  V30 1071 C 101.739 1.90952 -0.796552 0
M  V30 1072 C 102.154 1.77302 0.648808 0
M  V30 1073 O 101.511 1.11605 1.44397 0
M  V30 1074 C 101.562 3.41736 -1.17894 0
M  V30 1075 O 101.283 3.54975 -2.56758 0
M  V30 1076 C 102.784 4.33169 -0.942308 0
M  V30 1077 H 100.004 0.605594 -0.288959 0
M  V30 1078 H 102.548 1.47777 -1.41358 0
M  V30 1079 H 100.703 3.82623 -0.606491 0
M  V30 1080 H 101.117 4.4846 -2.72 0
M  V30 1081 H 102.591 5.37439 -1.25952 0
M  V30 1082 H 103.068 4.3903 0.122078 0
M  V30 1083 H 103.674 3.98007 -1.49902 0
M  V30 1084 N 101.989 0.842826 1.3317 0
M  V30 1085 C 103.237 0.439577 1.97262 0
M  V30 1086 C 103.558 -1.00548 1.67078 0
M  V30 1087 O 102.828 -1.70098 0.971779 0
M  V30 1088 H 101.408 0.159558 0.72976 0
M  V30 1089 H 104.07 1.07665 1.62463 0
M  V30 1090 H 103.166 0.574886 3.0676 0
M  V30 1091 N 103.467 -1.45747 0.599634 0
M  V30 1092 C 104.744 -1.95585 0.0240846 0
M  V30 1093 C 105.124 -1.54217 -1.44154 0
M  V30 1094 O 104.472 -0.800903 -2.14004 0
M  V30 1095 C 104.682 -3.48344 0.21385 0
M  V30 1096 C 106.03 -4.24504 0.0904902 0
M  V30 1097 O 107.054 -3.55911 0.143558 0
M  V30 1098 O 105.913 -5.46491 -0.0310766 0
M  V30 1099 H 103.007 -0.82602 -0.0402478 0
M  V30 1100 H 105.553 -1.55951 0.669139 0
M  V30 1101 H 104.325 -3.71397 1.23206 0
M  V30 1102 H 103.948 -3.9485 -0.466842 0
M  V30 1103 N 104.945 -0.338344 -1.53925 0
M  V30 1104 C 105.875 0.51328 -2.27789 0
M  V30 1105 C 106.856 1.107 -1.29149 0
M  V30 1106 O 108.041 1.12937 -1.57984 0
M  V30 1107 C 105.171 1.66697 -3.04679 0
M  V30 1108 C 104.125 1.20183 -4.1078 0
M  V30 1109 C 103.451 2.44363 -4.75595 0
M  V30 1110 C 104.751 0.30605 -5.21403 0
M  V30 1111 H 106.445 -0.102883 -2.99223 0
M  V30 1112 H 103.991 -0.0509219 -1.4391 0
M  V30 1113 H 105.944 2.26915 -3.55088 0
M  V30 1114 H 104.668 2.30995 -2.30887 0
M  V30 1115 H 103.327 0.622499 -3.61276 0
M  V30 1116 H 102.975 3.07057 -3.98403 0
M  V30 1117 H 102.675 2.13925 -5.47275 0
M  V30 1118 H 104.199 3.05317 -5.28786 0
M  V30 1119 H 105.613 0.814929 -5.67478 0
M  V30 1120 H 104.01 0.0937929 -6.00027 0
M  V30 1121 H 105.08 -0.65921 -4.80398 0
M  V30 1122 N 106.423 1.57458 -0.0668435 0
M  V30 1123 C 107.648 1.9804 0.616027 0
M  V30 1124 C 108.073 0.944771 1.62652 0
M  V30 1125 O 107.431 -0.0902094 1.81075 0
M  V30 1126 C 107.479 3.37665 1.26549 0
M  V30 1127 O 106.583 3.36701 2.38131 0
M  V30 1128 H 105.924 0.644719 0.158849 0
M  V30 1129 H 108.454 2.04121 -0.139891 0
M  V30 1130 H 108.464 3.7474 1.6135 0
M  V30 1131 H 107.139 4.12573 0.525016 0
M  V30 1132 H 105.716 3.1139 2.0516 0
M  V30 1133 N 107.901 -0.206675 1.56239 0
M  V30 1134 C 109.15 -0.926964 1.79138 0
M  V30 1135 C 109.463 -1.84901 0.638043 0
M  V30 1136 O 110.669 -2.60906 0.751033 0
M  V30 1137 C 109.125 -1.6986 3.17294 0
M  V30 1138 C 108.733 -0.821956 4.40395 0
M  V30 1139 C 110.477 -2.40922 3.4951 0
M  V30 1140 C 108.384 -1.59179 5.69575 0
M  V30 1141 H 107.314 -0.349864 0.667915 0
M  V30 1142 H 109.965 -0.180487 1.8261 0
M  V30 1143 H 108.347 -2.48853 3.08039 0
M  V30 1144 H 109.521 -0.0715019 4.60745 0
M  V30 1145 H 107.836 -0.222741 4.15804 0
M  V30 1146 H 110.433 -2.99047 4.43255 0
M  V30 1147 H 110.776 -3.14542 2.72707 0
M  V30 1148 H 111.309 -1.68905 3.60161 0
M  V30 1149 H 108.048 -0.898589 6.49312 0
M  V30 1150 H 107.568 -2.31648 5.53262 0
M  V30 1151 H 109.247 -2.14862 6.10281 0
M  V30 1152 N 109.379 -1.50304 -0.473955 0
M  V30 1153 C 110.79 -1.54042 -1.0549 0
M  V30 1154 C 111.141 -0.342248 -1.93192 0
M  V30 1155 O 110.266 0.545157 -2.09421 0
M  V30 1156 C 110.861 -2.79152 -1.91989 0
M  V30 1157 C 109.42 -2.8558 -2.45196 0
M  V30 1158 C 108.567 -2.48295 -1.2347 0
M  V30 1159 H 111.518 -1.5661 -0.256693 0
M  V30 1160 H 111.539 -2.60845 -2.7702 0
M  V30 1161 H 111.051 -3.66339 -1.28131 0
M  V30 1162 H 109.152 -2.02738 -3.12615 0
M  V30 1163 H 109.265 -3.88403 -2.80499 0
M  V30 1164 H 107.629 -2.00669 -1.56856 0
M  V30 1165 H 108.412 -3.37787 -0.612789 0
M  V30 1166 N 110.857 0.726932 -1.39834 0
M  V30 1167 C 112.082 1.52121 -1.40976 0
M  V30 1168 C 112.507 1.88098 -0.00826029 0
M  V30 1169 O 111.865 1.52479 0.980807 0
M  V30 1170 C 111.913 2.78021 -2.29644 0
M  V30 1171 O 111.017 3.74272 -1.73188 0
M  V30 1172 H 110.358 0.45908 -0.479731 0
M  V30 1173 H 112.888 0.896207 -1.83927 0
M  V30 1174 H 112.898 3.26671 -2.44438 0
M  V30 1175 H 111.573 2.51169 -3.31492 0
M  V30 1176 H 110.15 3.33073 -1.6768 0
M  V30 1177 N 112.336 1.25143 0.95797 0
M  V30 1178 C 113.561 1.12521 1.74223 0
M  V30 1179 C 113.986 -0.317402 1.85403 0
M  V30 1180 O 113.344 -1.2299 1.33204 0
M  V30 1181 C 113.392 1.78062 3.1357 0
M  V30 1182 O 112.496 1.058 3.98598 0
M  V30 1183 H 111.837 0.39304 0.535178 0
M  V30 1184 H 114.367 1.65641 1.201 0
M  V30 1185 H 114.377 1.84213 3.64046 0
M  V30 1186 H 113.052 2.83021 3.04749 0
M  V30 1187 H 111.629 1.07506 3.57067 0
M  V30 1188 N 113.814 -1.1601 1.06675 0
M  V30 1189 C 114.724 -2.24156 0.692179 0
M  V30 1190 C 115.74 -1.71507 -0.293513 0
M  V30 1191 O 116.916 -2.009 -0.141861 0
M  V30 1192 C 113.981 -3.46587 0.0884131 0
M  V30 1193 C 113.042 -4.14257 1.12646 0
M  V30 1194 C 112.275 -5.30844 0.551416 0
M  V30 1195 O 112.498 -5.66858 -0.634656 0
M  V30 1196 O 111.432 -5.87848 1.29298 0
M  V30 1197 H 115.258 -2.58513 1.59388 0
M  V30 1198 H 112.843 -1.23599 0.83926 0
M  V30 1199 H 114.725 -4.20679 -0.246361 0
M  V30 1200 H 113.4 -3.13994 -0.786712 0
M  V30 1201 H 112.307 -3.42118 1.51348 0
M  V30 1202 H 113.64 -4.50914 1.97325 0
M  V30 1203 N 115.292 -0.849877 -1.32721 0
M  V30 1204 C 116.222 -0.306308 -2.31482 0
M  V30 1205 C 117.203 0.591952 -1.59468 0
M  V30 1206 O 118.388 0.513199 -1.87296 0
M  V30 1207 C 115.518 0.510204 -3.43532 0
M  V30 1208 C 114.472 -0.293209 -4.26994 0
M  V30 1209 C 113.798 0.647743 -5.30762 0
M  V30 1210 C 115.098 -1.51634 -4.99804 0
M  V30 1211 H 116.792 -1.13153 -2.77195 0
M  V30 1212 H 114.338 -0.545553 -1.33266 0
M  V30 1213 H 116.291 0.900856 -4.11658 0
M  V30 1214 H 115.015 1.36874 -2.96535 0
M  V30 1215 H 113.674 -0.665555 -3.60508 0
M  V30 1216 H 113.322 1.50299 -4.8002 0
M  V30 1217 H 113.022 0.11422 -5.87489 0
M  V30 1218 H 114.546 1.03567 -6.01753 0
M  V30 1219 H 115.96 -1.19824 -5.60638 0
M  V30 1220 H 114.357 -1.98745 -5.66234 0
M  V30 1221 H 115.427 -2.28018 -4.27943 0
M  V30 1222 N 116.77 1.45427 -0.607355 0
M  V30 1223 C 117.68 2.34325 0.113463 0
M  V30 1224 C 118.696 1.51226 0.860617 0
M  V30 1225 O 119.872 1.84029 0.818255 0
M  V30 1226 C 116.937 3.28839 1.09844 0
M  V30 1227 C 115.998 4.27844 0.353271 0
M  V30 1228 C 115.231 5.17842 1.29133 0
M  V30 1229 O 115.454 5.11264 2.52913 0
M  V30 1230 O 114.388 5.96713 0.788523 0
M  V30 1231 H 118.214 2.97364 -0.617094 0
M  V30 1232 H 115.799 1.44807 -0.367619 0
M  V30 1233 H 117.681 3.8708 1.66575 0
M  V30 1234 H 116.356 2.68365 1.81003 0
M  V30 1235 H 115.263 3.7322 -0.256494 0
M  V30 1236 H 116.596 4.91173 -0.317822 0
M  V30 1237 N 118.248 0.346503 1.53744 0
M  V30 1238 C 119.196 -0.52422 2.26616 0
M  V30 1239 C 120.19 -1.09948 1.28871 0
M  V30 1240 O 121.396 -1.04488 1.46568 0
M  V30 1241 H 117.771 -0.187743 0.728187 0
M  V30 1242 H 119.742 0.11239 2.98188 0
M  V30 1243 C 118.491 -1.66186 3.05414 0
M  V30 1244 H 117.814 -1.22848 3.80458 0
M  V30 1245 H 119.254 -2.24622 3.59612 0
M  V30 1246 C 117.713 -2.59302 2.1509 0
M  V30 1247 O 118.243 -3.61628 1.74895 0
M  V30 1248 N 116.449 -2.28055 1.8011 0
M  V30 1249 H 115.996 -1.44883 2.12994 0
M  V30 1250 H 115.954 -2.90615 1.19958 0
M  V30 1251 N 119.726 -1.57421 0.075193 0
M  V30 1252 C 120.975 -1.92794 -0.592731 0
M  V30 1253 C 121.288 -0.957478 -1.70563 0
M  V30 1254 O 122.494 -1.20417 -2.43335 0
M  V30 1255 C 120.95 -3.42495 -1.10569 0
M  V30 1256 C 120.558 -4.47994 -0.0236121 0
M  V30 1257 C 122.302 -3.86864 -1.74748 0
M  V30 1258 C 120.209 -5.88829 -0.550803 0
M  V30 1259 H 119.139 -0.719591 -0.225177 0
M  V30 1260 H 121.79 -1.82902 0.147978 0
M  V30 1261 H 120.172 -3.47471 -1.89947 0
M  V30 1262 H 121.346 -4.54637 0.751099 0
M  V30 1263 H 119.661 -4.13113 0.522159 0
M  V30 1264 H 122.258 -4.8947 -2.15229 0
M  V30 1265 H 122.601 -3.24417 -2.60882 0
M  V30 1266 H 123.134 -3.84504 -1.01986 0
M  V30 1267 H 119.873 -6.54929 0.273457 0
M  V30 1268 H 119.393 -5.85698 -1.29296 0
M  V30 1269 H 121.072 -6.38811 -1.02613 0
M  V30 1270 N 121.204 0.198386 -1.56346 0
M  V30 1271 C 122.615 0.763358 -1.70381 0
M  V30 1272 C 122.966 1.83995 -0.681203 0
M  V30 1273 O 122.091 2.15785 0.16305 0
M  V30 1274 C 122.686 1.39143 -3.08909 0
M  V30 1275 C 121.245 1.90352 -3.2472 0
M  V30 1276 C 120.392 0.772233 -2.6633 0
M  V30 1277 H 123.343 -0.0266377 -1.58678 0
M  V30 1278 H 123.364 2.26076 -3.06055 0
M  V30 1279 H 122.876 0.607638 -3.83314 0
M  V30 1280 H 120.977 2.71461 -2.55225 0
M  V30 1281 H 121.09 2.06757 -4.3219 0
M  V30 1282 H 119.454 1.18566 -2.2542 0
M  V30 1283 H 120.237 0.00073556 -3.433 0
M  V30 1284 N 122.682 1.50554 0.465978 0
M  V30 1285 C 123.907 1.65838 1.24549 0
M  V30 1286 C 124.332 0.343486 1.84937 0
M  V30 1287 O 123.69 -0.69324 1.67523 0
M  V30 1288 C 123.738 2.75533 2.32624 0
M  V30 1289 O 122.842 2.37142 3.37398 0
M  V30 1290 H 122.183 0.553893 0.366194 0
M  V30 1291 H 124.713 1.96959 0.553927 0
M  V30 1292 H 124.723 2.98763 2.77857 0
M  V30 1293 H 123.398 3.70962 1.88043 0
M  V30 1294 H 121.975 2.24377 2.97841 0
M  V30 1295 N 124.16 -0.719506 1.40217 0
M  V30 1296 C 125.07 -1.86378 1.42479 0
M  V30 1297 C 126.086 -1.71073 0.317834 0
M  V30 1298 O 127.262 -1.93406 0.561794 0
M  V30 1299 C 124.327 -3.22136 1.28178 0
M  V30 1300 C 123.388 -3.49723 2.48982 0
M  V30 1301 C 122.621 -4.79004 2.35353 0
M  V30 1302 O 122.844 -5.53821 1.36524 0
M  V30 1303 O 121.778 -5.06839 3.2465 0
M  V30 1304 H 125.604 -1.87425 2.38968 0
M  V30 1305 H 123.189 -0.869405 1.21498 0
M  V30 1306 H 125.071 -4.03234 1.22395 0
M  V30 1307 H 123.746 -3.21825 0.347934 0
M  V30 1308 H 122.653 -2.6865 2.60342 0
M  V30 1309 H 123.986 -3.54828 3.41113 0
M  V30 1310 N 125.638 -1.25649 -0.95132 0
M  V30 1311 C 126.586 -1.06118 -2.06982 0
M  V30 1312 C 127.58 0.00889169 -1.69398 0
M  V30 1313 O 128.786 -0.146988 -1.79399 0
M  V30 1314 H 125.161 -0.326248 -0.677544 0
M  V30 1315 H 127.132 -2.00932 -2.2061 0
M  V30 1316 C 125.881 -0.700145 -3.40578 0
M  V30 1317 H 125.204 -1.51537 -3.69968 0
M  V30 1318 H 126.644 -0.603211 -4.19687 0
M  V30 1319 C 125.103 0.59403 -3.31622 0
M  V30 1320 O 125.633 1.63522 -3.66911 0
M  V30 1321 N 123.839 0.58089 -2.84735 0
M  V30 1322 H 123.386 -0.266783 -2.56215 0
M  V30 1323 H 123.344 1.44695 -2.79125 0
M  V30 1324 N 127.117 1.15442 -1.07289 0
M  V30 1325 C 128.049 2.19773 -0.650585 0
M  V30 1326 C 129.062 1.60076 0.296572 0
M  V30 1327 O 130.251 1.78293 0.0859905 0
M  V30 1328 C 127.351 3.38838 0.0650398 0
M  V30 1329 C 126.524 4.2808 -0.898141 0
M  V30 1330 C 125.583 5.2574 -0.219926 0
M  V30 1331 O 124.609 5.62654 -0.860773 0
M  V30 1332 N 125.811 5.71205 1.03466 0
M  V30 1333 H 128.576 2.56622 -1.54808 0
M  V30 1334 H 126.137 1.30551 -0.957494 0
M  V30 1335 H 128.129 4.01222 0.529415 0
M  V30 1336 H 126.699 3.00409 0.864466 0
M  V30 1337 H 125.919 3.62804 -1.54165 0
M  V30 1338 H 127.207 4.84577 -1.5512 0
M  V30 1339 H 126.605 5.43325 1.57526 0
M  V30 1340 H 125.162 6.35633 1.44272 0
M  V30 1341 N 128.595 0.856903 1.32268 0
M  V30 1342 C 129.825 0.47475 2.01071 0
M  V30 1343 C 130.233 -0.933746 1.64553 0
M  V30 1344 O 129.576 -1.62114 0.863989 0
M  V30 1345 C 129.638 0.536746 3.55471 0
M  V30 1346 C 129.302 1.90453 4.15423 0
M  V30 1347 C 130.299 2.87029 4.33486 0
M  V30 1348 C 127.984 2.20229 4.51447 0
M  V30 1349 C 129.978 4.11532 4.86744 0
M  V30 1350 C 127.665 3.44984 5.0441 0
M  V30 1351 C 128.663 4.40452 5.22007 0
M  V30 1352 O 128.351 5.62998 5.73837 0
M  V30 1353 H 128.083 0.184778 0.650256 0
M  V30 1354 H 130.637 1.15615 1.69771 0
M  V30 1355 H 128.867 -0.20152 3.86175 0
M  V30 1356 H 130.556 0.169875 4.05544 0
M  V30 1357 H 131.322 2.6533 4.05986 0
M  V30 1358 H 127.201 1.46705 4.37034 0
M  V30 1359 H 130.745 4.86056 5.00395 0
M  V30 1360 H 126.642 3.66532 5.31342 0
M  V30 1361 H 127.41 5.64987 5.92226 0
M  V30 1362 N 130.073 -1.45103 0.615059 0
M  V30 1363 C 131.32 -2.02183 0.113179 0
M  V30 1364 C 131.648 -1.48249 -1.25906 0
M  V30 1365 O 130.903 -0.650265 -1.84581 0
M  V30 1366 C 131.202 -3.57386 0.0318797 0
M  V30 1367 C 130.868 -4.30505 1.34077 0
M  V30 1368 C 129.53 -4.50197 1.69929 0
M  V30 1369 C 131.882 -4.72238 2.20546 0
M  V30 1370 C 129.21 -5.08881 2.91988 0
M  V30 1371 C 131.562 -5.32272 3.41861 0
M  V30 1372 C 130.226 -5.50187 3.77956 0
M  V30 1373 H 129.496 -0.739842 0.0414151 0
M  V30 1374 H 132.143 -1.74073 0.798168 0
M  V30 1375 H 130.448 -3.84817 -0.736409 0
M  V30 1376 H 132.145 -3.99264 -0.372712 0
M  V30 1377 H 128.735 -4.15496 1.05173 0
M  V30 1378 H 132.919 -4.56751 1.94146 0
M  V30 1379 H 128.175 -5.20939 3.2005 0
M  V30 1380 H 132.349 -5.63563 4.09109 0
M  V30 1381 H 129.976 -5.95427 4.72622 0
M  V30 1382 N 131.551 -0.354651 -1.53558 0
M  V30 1383 C 132.483 0.5315 -2.22952 0
M  V30 1384 C 133.496 1.05503 -1.23988 0
M  V30 1385 O 134.685 0.963279 -1.50277 0
M  V30 1386 C 131.785 1.74538 -2.90499 0
M  V30 1387 C 130.958 1.35524 -4.15875 0
M  V30 1388 C 130.017 2.42999 -4.66731 0
M  V30 1389 O 129.043 2.05844 -5.30676 0
M  V30 1390 N 130.245 3.74423 -4.43608 0
M  V30 1391 H 133.01 -0.0628615 -2.99634 0
M  V30 1392 H 130.571 -0.179302 -1.60904 0
M  V30 1393 H 132.563 2.45892 -3.21433 0
M  V30 1394 H 131.133 2.24686 -2.17336 0
M  V30 1395 H 130.353 0.471998 -3.91364 0
M  V30 1396 H 131.641 1.07071 -4.97406 0
M  V30 1397 H 131.039 4.07391 -3.92491 0
M  V30 1398 H 129.596 4.41913 -4.7912 0
M  V30 1399 N 133.029 1.57378 -0.0835403 0
M  V30 1400 C 134.254 1.98682 0.594987 0
M  V30 1401 C 134.679 0.961969 1.61641 0
M  V30 1402 O 134.037 -0.0709989 1.81161 0
M  V30 1403 C 134.085 3.38988 1.2296 0
M  V30 1404 O 133.189 3.39208 2.34546 0
M  V30 1405 H 132.53 0.646368 0.152002 0
M  V30 1406 H 135.06 2.03961 -0.161533 0
M  V30 1407 H 135.07 3.76431 1.57366 0
M  V30 1408 H 133.745 4.13107 0.481228 0
M  V30 1409 H 132.322 3.13548 2.01846 0
M  V30 1410 N 134.507 -0.190092 1.56449 0
M  V30 1411 C 135.47 -1.21925 1.9408 0
M  V30 1412 C 136.47 -1.38176 0.822431 0
M  V30 1413 O 137.66 -1.35903 1.08977 0
M  V30 1414 C 134.792 -2.58773 2.21922 0
M  V30 1415 H 135.985 -0.897464 2.86157 0
M  V30 1416 H 133.538 -0.43181 1.50217 0
M  V30 1417 H 134.273 -2.95998 1.32499 0
M  V30 1418 H 134.058 -2.48348 3.03424 0
M  V30 1419 H 135.548 -3.32978 2.52022 0
M  V30 1420 N 135.985 -1.50799 -0.457987 0
M  V30 1421 C 137.234 -1.6168 -1.20593 0
M  V30 1422 C 137.547 -0.32888 -1.92815 0
M  V30 1423 O 138.753 -0.316773 -2.69646 0
M  V30 1424 C 137.209 -2.8545 -2.19195 0
M  V30 1425 C 136.817 -4.21168 -1.52715 0
M  V30 1426 C 138.561 -3.05681 -2.94549 0
M  V30 1427 C 136.468 -5.3611 -2.4968 0
M  V30 1428 H 135.398 -0.602134 -0.453818 0
M  V30 1429 H 138.049 -1.77245 -0.475031 0
M  V30 1430 H 136.431 -2.63472 -2.95632 0
M  V30 1431 H 137.605 -4.53449 -0.819775 0
M  V30 1432 H 135.92 -4.06648 -0.895922 0
M  V30 1433 H 138.517 -3.88727 -3.67145 0
M  V30 1434 H 138.86 -2.17929 -3.54701 0
M  V30 1435 H 139.393 -3.27901 -2.25223 0
M  V30 1436 H 136.132 -6.26057 -1.94249 0
M  V30 1437 H 135.652 -5.0823 -3.18532 0
M  V30 1438 H 137.331 -5.6722 -3.11241 0
M  V30 1439 N 137.463 0.71206 -1.40597 0
M  V30 1440 C 138.709 1.47292 -1.40274 0
M  V30 1441 C 139.064 1.92399 -0.00576812 0
M  V30 1442 O 138.357 1.65507 0.965297 0
M  V30 1443 C 138.551 2.71039 -2.32965 0
M  V30 1444 C 138.38 2.38035 -3.81536 0
M  V30 1445 C 137.15 2.29203 -4.50327 0
M  V30 1446 C 139.348 2.02076 -4.72938 0
M  V30 1447 N 137.33 1.88911 -5.84111 0
M  V30 1448 C 138.701 1.72412 -5.95545 0
M  V30 1449 C 140.756 1.88742 -4.60739 0
M  V30 1450 C 139.459 1.30756 -7.07316 0
M  V30 1451 C 141.485 1.4849 -5.72455 0
M  V30 1452 C 140.847 1.19726 -6.94151 0
M  V30 1453 H 136.946 0.536919 -0.568544 0
M  V30 1454 H 139.53 0.825424 -1.76337 0
M  V30 1455 H 137.701 3.33533 -1.99023 0
M  V30 1456 H 139.433 3.37404 -2.23474 0
M  V30 1457 H 136.188 2.47059 -4.04053 0
M  V30 1458 H 136.612 1.71293 -6.54972 0
M  V30 1459 H 141.254 2.0964 -3.67166 0
M  V30 1460 H 138.972 1.08601 -8.00769 0
M  V30 1461 H 142.558 1.38747 -5.65014 0
M  V30 1462 H 141.438 0.890482 -7.79128 0
M  V30 1463 N 138.941 1.26152 0.944643 0
M  V30 1464 C 140.166 1.14363 1.7302 0
M  V30 1465 C 140.591 -0.29772 1.85729 0
M  V30 1466 O 139.949 -1.2157 1.34501 0
M  V30 1467 C 139.997 1.81378 3.11664 0
M  V30 1468 O 139.101 1.10022 3.97453 0
M  V30 1469 H 138.442 0.398694 0.53098 0
M  V30 1470 H 140.972 1.66906 1.18337 0
M  V30 1471 H 140.982 1.88064 3.62072 0
M  V30 1472 H 139.657 2.86237 3.0173 0
M  V30 1473 H 138.234 1.11287 3.55907 0
M  V30 1474 N 140.419 -1.14872 1.07899 0
M  V30 1475 C 141.667 -1.85422 0.803941 0
M  V30 1476 C 141.988 -1.83051 -0.67211 0
M  V30 1477 O 141.258 -1.27532 -1.48703 0
M  V30 1478 H 139.838 -0.686537 0.294408 0
M  V30 1479 H 142.5 -1.39226 1.3639 0
M  V30 1480 H 141.596 -2.90399 1.14346 0
M  V30 1481 N 141.898 -0.863906 -1.31812 0
M  V30 1482 C 143.145 -0.471836 -1.96926 0
M  V30 1483 C 143.473 0.974578 -1.68322 0
M  V30 1484 O 142.728 1.7003 -0.968933 0
M  V30 1485 C 143.027 -0.668547 -3.51091 0
M  V30 1486 C 142.693 -2.08683 -3.99703 0
M  V30 1487 C 141.355 -2.47471 -4.12688 0
M  V30 1488 C 143.707 -3.01207 -4.25351 0
M  V30 1489 C 141.035 -3.78037 -4.4867 0
M  V30 1490 C 143.387 -4.31282 -4.62794 0
M  V30 1491 C 142.051 -4.69992 -4.73987 0
M  V30 1492 H 141.321 -0.172657 -0.720604 0
M  V30 1493 H 143.968 -1.09573 -1.57054 0
M  V30 1494 H 142.273 0.0385252 -3.91781 0
M  V30 1495 H 143.97 -0.345102 -3.99512 0
M  V30 1496 H 140.56 -1.77566 -3.90087 0
M  V30 1497 H 144.744 -2.72469 -4.14819 0
M  V30 1498 H 140 -4.078 -4.55532 0
M  V30 1499 H 144.174 -5.03031 -4.81594 0
M  V30 1500 H 141.801 -5.71207 -5.01624 0
M  V30 1501 N 143.376 1.44774 -0.622745 0
M  V30 1502 C 144.625 2.01334 -0.121397 0
M  V30 1503 C 144.938 1.49505 1.26125 0
M  V30 1504 O 146.144 1.98139 1.85616 0
M  V30 1505 C 144.6 3.59516 -0.166298 0
M  V30 1506 C 144.208 4.20342 -1.54974 0
M  V30 1507 C 145.952 4.23582 0.279021 0
M  V30 1508 C 143.859 5.70721 -1.55021 0
M  V30 1509 H 142.789 0.752851 -0.0416172 0
M  V30 1510 H 145.44 1.66083 -0.780309 0
M  V30 1511 H 143.822 3.92027 0.559557 0
M  V30 1512 H 144.996 3.99381 -2.29851 0
M  V30 1513 H 143.311 3.68529 -1.93843 0
M  V30 1514 H 145.908 5.33868 0.298083 0
M  V30 1515 H 146.251 3.95327 1.30471 0
M  V30 1516 H 146.784 3.95843 -0.394063 0
M  V30 1517 H 143.523 6.03698 -2.55399 0
M  V30 1518 H 143.043 5.93829 -0.844245 0
M  V30 1519 H 144.722 6.34203 -1.28047 0
M  V30 1520 N 144.854 0.36279 1.53368 0
M  V30 1521 C 145.801 -0.485008 2.25646 0
M  V30 1522 C 146.771 -1.07982 1.2621 0
M  V30 1523 O 147.956 -1.11284 1.54986 0
M  V30 1524 C 145.096 -1.62023 3.04701 0
M  V30 1525 C 144.209 -1.05086 4.19024 0
M  V30 1526 C 143.344 -2.15496 4.85525 0
M  V30 1527 C 142.383 -1.5601 5.91884 0
M  V30 1528 N 141.52 -2.60241 6.52088 0
M  V30 1529 H 146.36 0.137864 2.97681 0
M  V30 1530 H 143.897 0.0798061 1.46883 0
M  V30 1531 H 145.855 -2.28887 3.48807 0
M  V30 1532 H 144.485 -2.2138 2.34927 0
M  V30 1533 H 143.537 -0.27259 3.79422 0
M  V30 1534 H 144.849 -0.575926 4.95464 0
M  V30 1535 H 144.003 -2.90186 5.32801 0
M  V30 1536 H 142.742 -2.66341 4.08551 0
M  V30 1537 H 141.747 -0.798338 5.43973 0
M  V30 1538 H 142.972 -1.05994 6.70777 0
M  V30 1539 H 140.918 -3.10304 5.77968 0
M  V30 1540 H 140.835 -2.17426 7.24059 0
M  V30 1541 H 142.103 -3.34641 7.04014 0
M  V30 1542 N 146.332 -1.57332 0.0918853 0
M  V30 1543 C 147.578 -1.94524 -0.573425 0
M  V30 1544 C 147.911 -0.973578 -1.68033 0
M  V30 1545 O 147.186 -0.00609226 -1.94499 0
M  V30 1546 C 147.469 -3.41858 -1.13161 0
M  V30 1547 C 147.322 -4.4979 -0.0299747 0
M  V30 1548 C 148.641 -3.90435 -2.03098 0
M  V30 1549 H 145.76 -0.70734 -0.206975 0
M  V30 1550 H 148.402 -1.89309 0.161942 0
M  V30 1551 H 146.552 -3.46433 -1.7583 0
M  V30 1552 H 148.224 -4.57327 0.604112 0
M  V30 1553 H 146.467 -4.291 0.636833 0
M  V30 1554 H 147.138 -5.50069 -0.461287 0
M  V30 1555 H 149.614 -3.87992 -1.50338 0
M  V30 1556 H 148.49 -4.94097 -2.39081 0
M  V30 1557 H 148.751 -3.29541 -2.94712 0
M  V30 1558 N 147.81 0.181792 -1.56548 0
M  V30 1559 C 148.757 1.22521 -1.95595 0
M  V30 1560 C 149.727 1.4454 -0.818373 0
M  V30 1561 O 150.912 1.57454 -1.07763 0
M  V30 1562 C 148.052 2.56193 -2.31212 0
M  V30 1563 C 147.165 2.41641 -3.58097 0
M  V30 1564 C 146.3 3.68108 -3.82975 0
M  V30 1565 C 145.339 3.48445 -5.03242 0
M  V30 1566 N 144.476 4.66956 -5.24306 0
M  V30 1567 H 149.316 0.885226 -2.84548 0
M  V30 1568 H 146.853 0.425718 -1.40805 0
M  V30 1569 H 148.811 3.34088 -2.49882 0
M  V30 1570 H 147.441 2.88208 -1.45382 0
M  V30 1571 H 146.493 1.54976 -3.474 0
M  V30 1572 H 147.805 2.23052 -4.46149 0
M  V30 1573 H 146.959 4.54441 -4.01956 0
M  V30 1574 H 145.698 3.89666 -2.93278 0
M  V30 1575 H 144.703 2.60499 -4.8417 0
M  V30 1576 H 145.928 3.2832 -5.9446 0
M  V30 1577 H 143.874 4.88752 -4.37559 0
M  V30 1578 H 143.791 4.51242 -6.06561 0
M  V30 1579 H 145.059 5.54602 -5.47756 0
M  V30 1580 N 149.288 1.51039 0.449983 0
M  V30 1581 C 150.235 1.71439 1.54523 0
M  V30 1582 C 151.205 0.555871 1.56522 0
M  V30 1583 O 152.39 0.788871 1.73728 0
M  V30 1584 C 149.53 1.83384 2.92343 0
M  V30 1585 C 148.643 3.10873 2.9997 0
M  V30 1586 C 147.778 3.13488 4.28834 0
M  V30 1587 C 146.817 4.35343 4.30282 0
M  V30 1588 N 145.954 4.35579 5.5065 0
M  V30 1589 H 150.794 2.64934 1.36433 0
M  V30 1590 H 148.331 1.31312 0.662982 0
M  V30 1591 H 150.289 1.88291 3.72293 0
M  V30 1592 H 148.919 0.933086 3.0902 0
M  V30 1593 H 147.971 3.15336 2.12761 0
M  V30 1594 H 149.283 4.00814 2.96901 0
M  V30 1595 H 148.437 3.17241 5.17149 0
M  V30 1596 H 147.176 2.21414 4.34543 0
M  V30 1597 H 146.181 4.3178 3.40362 0
M  V30 1598 H 147.406 5.28668 4.26248 0
M  V30 1599 H 145.352 3.46369 5.57104 0
M  V30 1600 H 145.269 5.19313 5.49409 0
M  V30 1601 H 146.537 4.43507 6.41032 0
M  V30 1602 N 150.766 -0.704594 1.40972 0
M  V30 1603 C 151.991 -1.49858 1.43378 0
M  V30 1604 C 152.416 -1.88061 0.038184 0
M  V30 1605 O 151.774 -1.5402 -0.956425 0
M  V30 1606 C 151.822 -2.74333 2.34038 0
M  V30 1607 O 150.926 -3.7147 1.7912 0
M  V30 1608 H 150.267 -0.45139 0.486974 0
M  V30 1609 H 152.797 -0.866832 1.8533 0
M  V30 1610 H 152.807 -3.22741 2.49604 0
M  V30 1611 H 151.482 -2.45863 3.35446 0
M  V30 1612 H 150.059 -3.30363 1.72958 0
M  V30 1613 N 152.244 -1.26651 -0.937939 0
M  V30 1614 C 153.521 -1.0313 -1.66204 0
M  V30 1615 C 153.901 0.437256 -2.06522 0
M  V30 1616 O 153.249 1.41831 -1.79154 0
M  V30 1617 C 153.459 -1.98314 -2.87181 0
M  V30 1618 C 154.807 -2.27107 -3.58758 0
M  V30 1619 O 155.831 -1.96205 -2.97291 0
M  V30 1620 O 154.69 -2.79736 -4.69479 0
M  V30 1621 H 151.784 -0.392384 -0.727986 0
M  V30 1622 H 154.33 -1.37874 -0.989382 0
M  V30 1623 H 153.102 -2.97399 -2.54302 0
M  V30 1624 H 152.725 -1.64068 -3.6217 0
M  V30 1625 N 153.722 1.14298 -1.08507 0
M  V30 1626 C 154.632 2.23027 -0.727753 0
M  V30 1627 C 155.648 1.71952 0.26619 0
M  V30 1628 O 156.824 2.011 0.109882 0
M  V30 1629 C 153.889 3.46403 -0.143541 0
M  V30 1630 C 152.95 4.12413 -1.19223 0
M  V30 1631 C 152.183 5.29899 -0.635798 0
M  V30 1632 O 152.406 5.67796 0.544393 0
M  V30 1633 O 151.34 5.85717 -1.38634 0
M  V30 1634 H 155.166 2.55945 -1.63481 0
M  V30 1635 H 152.751 1.22248 -0.858817 0
M  V30 1636 H 154.633 4.21018 0.179404 0
M  V30 1637 H 153.308 3.15206 0.736659 0
M  V30 1638 H 152.215 3.39667 -1.56772 0
M  V30 1639 H 153.548 4.47718 -2.04474 0
M  V30 1640 N 155.201 0.870884 1.31352 0
M  V30 1641 C 156.431 0.496049 2.00557 0
M  V30 1642 C 156.839 -0.916241 1.65534 0
M  V30 1643 O 156.182 -1.61188 0.881134 0
M  V30 1644 C 156.244 0.574418 3.54881 0
M  V30 1645 C 155.908 1.94849 4.1338 0
M  V30 1646 C 156.905 2.91611 4.30417 0
M  V30 1647 C 154.59 2.25005 4.49086 0
M  V30 1648 C 156.584 4.16672 4.82352 0
M  V30 1649 C 154.271 3.50315 5.00722 0
M  V30 1650 C 155.269 4.45964 5.17306 0
M  V30 1651 O 154.957 5.69052 5.67833 0
M  V30 1652 H 154.689 0.191664 0.64826 0
M  V30 1653 H 157.243 1.17409 1.68536 0
M  V30 1654 H 155.473 -0.160549 3.86367 0
M  V30 1655 H 157.162 0.212879 4.05341 0
M  V30 1656 H 157.928 2.69622 4.03149 0
M  V30 1657 H 153.807 1.51332 4.35453 0
M  V30 1658 H 157.351 4.91336 4.95211 0
M  V30 1659 H 153.248 3.72147 5.27424 0
M  V30 1660 H 154.016 5.71236 5.86201 0
M  V30 1661 N 156.679 -1.44442 0.630414 0
M  V30 1662 C 157.907 -2.06414 0.141671 0
M  V30 1663 C 158.322 -1.47105 -1.18345 0
M  V30 1664 O 157.679 -0.593662 -1.72574 0
M  V30 1665 C 157.73 -3.61494 0.0199784 0
M  V30 1666 O 157.451 -4.18594 1.29269 0
M  V30 1667 C 158.952 -4.40499 -0.497544 0
M  V30 1668 H 156.172 -0.666292 0.0793452 0
M  V30 1669 H 158.716 -1.85323 0.864614 0
M  V30 1670 H 156.871 -3.8185 -0.653402 0
M  V30 1671 H 157.285 -5.12026 1.13707 0
M  V30 1672 H 158.759 -5.49433 -0.531708 0
M  V30 1673 H 159.236 -4.11895 -1.52445 0
M  V30 1674 H 159.842 -4.25061 0.142562 0
M  V30 1675 N 158.157 -0.370918 -1.53173 0
M  V30 1676 C 159.404 0.217102 -2.01333 0
M  V30 1677 C 159.732 1.48338 -1.25802 0
M  V30 1678 O 158.987 1.92698 -0.34146 0
M  V30 1679 C 159.286 0.549696 -3.53147 0
M  V30 1680 C 158.952 -0.622872 -4.46577 0
M  V30 1681 C 157.614 -0.944595 -4.71838 0
M  V30 1682 C 159.966 -1.40819 -5.01816 0
M  V30 1683 C 157.294 -2.05351 -5.49589 0
M  V30 1684 C 159.646 -2.50757 -5.80778 0
M  V30 1685 C 158.31 -2.83458 -6.04324 0
M  V30 1686 H 157.58 0.0794431 -0.736729 0
M  V30 1687 H 160.227 -0.504481 -1.84736 0
M  V30 1688 H 158.532 1.35237 -3.6772 0
M  V30 1689 H 160.229 1.017 -3.87889 0
M  V30 1690 H 156.819 -0.36209 -4.27068 0
M  V30 1691 H 161.003 -1.17289 -4.82242 0
M  V30 1692 H 156.259 -2.3108 -5.6605 0
M  V30 1693 H 160.433 -3.12022 -6.22588 0
M  V30 1694 H 158.06 -3.69508 -6.64355 0
M  V30 1695 N 159.635 1.57281 -0.100228 0
M  V30 1696 C 160.598 2.13158 0.842398 0
M  V30 1697 C 161.598 1.06202 1.20738 0
M  V30 1698 O 162.788 1.32066 1.13597 0
M  V30 1699 C 159.92 2.65639 2.13655 0
M  V30 1700 H 161.113 2.97766 0.357114 0
M  V30 1701 H 158.666 1.5559 0.148823 0
M  V30 1702 H 159.401 1.84566 2.66657 0
M  V30 1703 H 159.186 3.43844 1.88451 0
M  V30 1704 H 160.676 3.08846 2.81077 0
M  V30 1705 N 161.113 -0.173488 1.56642 0
M  V30 1706 C 162.341 -0.906095 1.86004 0
M  V30 1707 C 162.756 -1.75921 0.685355 0
M  V30 1708 O 162.113 -1.79198 -0.345578 0
M  V30 1709 C 162.164 -1.78462 3.14378 0
M  V30 1710 O 161.885 -0.965914 4.27319 0
M  V30 1711 C 163.386 -2.62707 3.57071 0
M  V30 1712 H 160.606 -0.263341 0.617165 0
M  V30 1713 H 163.15 -0.174236 2.03756 0
M  V30 1714 H 161.305 -2.46984 2.98459 0
M  V30 1715 H 161.719 -1.56655 5.00559 0
M  V30 1716 H 163.193 -3.19969 4.49804 0
M  V30 1717 H 163.67 -3.37472 2.81086 0
M  V30 1718 H 164.276 -1.99521 3.75595 0
M  V30 1719 N 162.591 -1.51276 -0.441967 0
M  V30 1720 C 163.816 -1.67799 -1.21895 0
M  V30 1721 C 164.241 -0.372864 -1.84367 0
M  V30 1722 O 163.599 0.666501 -1.68604 0
M  V30 1723 C 163.647 -2.79199 -2.28211 0
M  V30 1724 O 162.751 -2.42479 -3.33583 0
M  V30 1725 H 162.092 -0.559649 -0.357336 0
M  V30 1726 H 164.622 -1.97815 -0.522522 0
M  V30 1727 H 164.632 -3.03146 -2.73069 0
M  V30 1728 H 163.307 -3.73906 -1.82118 0
M  V30 1729 H 161.884 -2.29087 -2.94234 0
M  V30 1730 N 164.069 0.697108 -1.41344 0
M  V30 1731 C 165.032 1.79281 -1.42797 0
M  V30 1732 C 166.032 1.57607 -0.318837 0
M  V30 1733 O 167.222 1.64309 -0.578642 0
M  V30 1734 C 164.354 3.17632 -1.23785 0
M  V30 1735 H 165.547 1.79385 -2.40335 0
M  V30 1736 H 163.1 0.904582 -1.27464 0
M  V30 1737 H 163.835 3.23167 -0.270814 0
M  V30 1738 H 163.62 3.34765 -2.04144 0
M  V30 1739 H 165.11 3.97617 -1.27633 0
M  V30 1740 N 165.547 1.27147 0.931209 0
M  V30 1741 C 166.824 1.0401 1.65654 0
M  V30 1742 C 167.204 -0.426297 2.06751 0
M  V30 1743 O 166.552 -1.40879 1.79904 0
M  V30 1744 C 166.762 1.99834 2.86125 0
M  V30 1745 C 168.11 2.29007 3.57549 0
M  V30 1746 O 169.134 1.97779 2.96246 0
M  V30 1747 O 167.993 2.82222 4.67989 0
M  V30 1748 H 165.087 0.396239 0.725895 0
M  V30 1749 H 167.633 1.38397 0.982056 0
M  V30 1750 H 166.405 2.98744 2.52721 0
M  V30 1751 H 166.028 1.65987 3.61295 0
M  V30 1752 N 167.025 -1.13721 1.09112 0
M  V30 1753 C 167.973 -2.21103 0.722219 0
M  V30 1754 C 168.967 -1.67147 -0.275374 0
M  V30 1755 O 170.173 -1.79477 -0.137176 0
M  V30 1756 H 166.548 -0.720445 0.215553 0
M  V30 1757 H 168.519 -2.49483 1.63709 0
M  V30 1758 C 167.268 -3.47352 0.15543 0
M  V30 1759 H 166.591 -3.89206 0.914246 0
M  V30 1760 H 168.031 -4.2395 -0.0647967 0
M  V30 1761 C 166.49 -3.1814 -1.10852 0
M  V30 1762 O 167.02 -3.36604 -2.19227 0
M  V30 1763 N 165.226 -2.72045 -1.02176 0
M  V30 1764 H 164.773 -2.57221 -0.139764 0
M  V30 1765 H 164.731 -2.52875 -1.8682 0
M  V30 1766 N 168.503 -0.877838 -1.30888 0
M  V30 1767 C 169.453 -0.310872 -2.25871 0
M  V30 1768 C 170.437 0.556596 -1.50966 0
M  V30 1769 O 171.629 0.402187 -1.7237 0
M  V30 1770 C 168.758 0.479821 -3.3993 0
M  V30 1771 C 167.844 -0.401333 -4.22197 0
M  V30 1772 N 168.235 -1.49848 -4.83093 0
M  V30 1773 C 166.533 -0.195167 -4.45573 0
M  V30 1774 C 167.234 -2.0425 -5.44662 0
M  V30 1775 N 166.21 -1.33843 -5.26865 0
M  V30 1776 H 170.012 -1.1493 -2.70496 0
M  V30 1777 H 167.526 -0.726458 -1.45246 0
M  V30 1778 H 169.523 0.902582 -4.07012 0
M  V30 1779 H 168.183 1.31577 -2.96846 0
M  V30 1780 H 169.194 -1.88137 -4.82519 0
M  V30 1781 H 165.871 0.604192 -4.13105 0
M  V30 1782 H 167.261 -2.96345 -6.03017 0
M  V30 1783 N 169.982 1.44106 -0.638065 0
M  V30 1784 C 171.228 2.02277 -0.145546 0
M  V30 1785 C 171.561 1.50125 1.23191 0
M  V30 1786 O 170.836 0.688133 1.8192 0
M  V30 1787 C 171.119 3.59829 -0.139791 0
M  V30 1788 C 170.972 4.22247 -1.55008 0
M  V30 1789 C 172.291 4.36873 0.531966 0
M  V30 1790 H 169.41 0.734992 -0.0543632 0
M  V30 1791 H 172.052 1.71592 -0.815863 0
M  V30 1792 H 170.202 3.86102 0.431007 0
M  V30 1793 H 171.874 4.07057 -2.1703 0
M  V30 1794 H 170.117 3.79476 -2.10191 0
M  V30 1795 H 170.788 5.31284 -1.49804 0
M  V30 1796 H 173.264 4.16074 0.0464781 0
M  V30 1797 H 172.14 5.4657 0.505206 0
M  V30 1798 H 172.401 4.11995 1.60352 0
M  V30 1799 N 171.46 0.379036 1.52974 0
M  V30 1800 C 172.688 -0.20679 2.05864 0
M  V30 1801 C 173.103 -1.41356 1.25155 0
M  V30 1802 O 172.46 -1.8009 0.295588 0
M  V30 1803 C 172.511 -0.587045 3.56702 0
M  V30 1804 O 172.232 0.571776 4.34353 0
M  V30 1805 C 173.733 -1.22983 4.25899 0
M  V30 1806 H 170.953 -0.0336123 0.670158 0
M  V30 1807 H 173.497 0.541298 1.97206 0
M  V30 1808 H 171.652 -1.28504 3.65466 0
M  V30 1809 H 172.066 0.261544 5.23847 0
M  V30 1810 H 173.54 -1.44635 5.32715 0
M  V30 1811 H 174.017 -2.19416 3.80465 0
M  V30 1812 H 174.623 -0.572892 4.21424 0
M  V30 1813 N 172.938 -1.57226 0.108567 0
M  V30 1814 C 173.871 -2.10447 -0.882464 0
M  V30 1815 C 174.849 -1.01829 -1.26766 0
M  V30 1816 O 176.033 -1.29415 -1.37054 0
M  V30 1817 C 173.16 -2.59258 -2.17952 0
M  V30 1818 C 172.206 -3.79662 -1.94318 0
M  V30 1819 S 173.039 -5.22586 -1.16892 0
M  V30 1820 C 174.195 -5.74758 -2.47799 0
M  V30 1821 H 174.428 -2.94178 -0.429745 0
M  V30 1822 H 171.961 -1.54043 -0.105 0
M  V30 1823 H 173.919 -2.88036 -2.92482 0
M  V30 1824 H 172.58 -1.75728 -2.60343 0
M  V30 1825 H 171.773 -4.11928 -2.90399 0
M  V30 1826 H 171.375 -3.51446 -1.27913 0
M  V30 1827 H 173.667 -5.83846 -3.43701 0
M  V30 1828 H 174.61 -6.73027 -2.20093 0
M  V30 1829 H 175.018 -5.02763 -2.56689 0
M  V30 1830 N 174.416 0.165178 -1.56732 0
M  V30 1831 C 175.662 0.877389 -1.83503 0
M  V30 1832 C 176.017 1.79602 -0.689996 0
M  V30 1833 O 175.31 1.89023 0.313205 0
M  V30 1834 C 175.504 1.70405 -3.1416 0
M  V30 1835 C 175.333 0.866961 -4.41264 0
M  V30 1836 C 174.103 0.539646 -5.0241 0
M  V30 1837 C 176.301 0.205671 -5.13889 0
M  V30 1838 N 174.283 -0.312946 -6.13102 0
M  V30 1839 C 175.654 -0.507823 -6.17917 0
M  V30 1840 C 177.709 0.124468 -4.97744 0
M  V30 1841 C 176.412 -1.29483 -7.0755 0
M  V30 1842 C 178.438 -0.649222 -5.87826 0
M  V30 1843 C 177.8 -1.35106 -6.91322 0
M  V30 1844 H 173.899 0.299477 -0.722383 0
M  V30 1845 H 176.483 0.143949 -1.94167 0
M  V30 1846 H 174.654 2.40887 -3.04677 0
M  V30 1847 H 176.386 2.35804 -3.28905 0
M  V30 1848 H 173.141 0.871176 -4.65519 0
M  V30 1849 H 173.565 -0.729731 -6.73056 0
M  V30 1850 H 178.207 0.652724 -4.17731 0
M  V30 1851 H 175.925 -1.83441 -7.87004 0
M  V30 1852 H 179.511 -0.713804 -5.77405 0
M  V30 1853 H 178.391 -1.94013 -7.59821 0
M  V30 1854 N 175.894 1.51508 0.433938 0
M  V30 1855 C 177.14 1.64588 1.18484 0
M  V30 1856 C 177.473 0.362666 1.90784 0
M  V30 1857 O 176.748 -0.637892 1.83742 0
M  V30 1858 C 177.031 2.85149 2.19913 0
M  V30 1859 C 176.884 4.23456 1.51674 0
M  V30 1860 C 178.203 3.01227 3.20858 0
M  V30 1861 H 175.322 0.598994 0.429389 0
M  V30 1862 H 177.964 1.84002 0.473647 0
M  V30 1863 H 176.114 2.68729 2.80566 0
M  V30 1864 H 177.786 4.51552 0.943322 0
M  V30 1865 H 176.029 4.25998 0.819035 0
M  V30 1866 H 176.7 5.03812 2.2556 0
M  V30 1867 H 179.176 3.16382 2.70263 0
M  V30 1868 H 178.052 3.87141 3.89118 0
M  V30 1869 H 178.313 2.13447 3.8716 0
M  V30 1870 N 177.372 -0.689602 1.41712 0
M  V30 1871 C 178.649 -1.44457 1.31877 0
M  V30 1872 C 179.029 -2.11039 -0.0508537 0
M  V30 1873 O 178.377 -2.02138 -1.06547 0
M  V30 1874 C 178.587 -2.45913 2.47645 0
M  V30 1875 C 179.935 -3.10991 2.89084 0
M  V30 1876 O 180.959 -2.56238 2.47428 0
M  V30 1877 O 179.818 -4.10174 3.61137 0
M  V30 1878 H 176.912 -0.64362 0.519309 0
M  V30 1879 H 179.458 -0.719576 1.53689 0
M  V30 1880 H 178.23 -1.95409 3.39015 0
M  V30 1881 H 177.853 -3.25913 2.27742 0
M  V30 1882 N 178.85 -1.27639 -0.924453 0
M  V30 1883 C 180.127 -1.04887 -1.651 0
M  V30 1884 C 180.507 0.415327 -2.06974 0
M  V30 1885 O 179.855 1.39923 -1.80648 0
M  V30 1886 C 180.065 -2.01348 -2.85061 0
M  V30 1887 C 181.413 -2.30899 -3.56329 0
M  V30 1888 O 182.437 -1.99348 -2.95193 0
M  V30 1889 O 181.296 -2.84699 -4.66485 0
M  V30 1890 H 178.39 -0.400083 -0.723784 0
M  V30 1891 H 180.936 -1.38916 -0.974703 0
M  V30 1892 H 179.708 -3.0008 -2.51133 0
M  V30 1893 H 179.331 -1.679 -3.6041 0
M  V30 1894 N 180.328 1.1314 -1.09713 0
M  V30 1895 C 181.26 2.18343 -0.697056 0
M  V30 1896 C 182.273 1.60669 0.262551 0
M  V30 1897 O 183.462 1.78435 0.0481527 0
M  V30 1898 C 180.562 3.38899 -0.00684728 0
M  V30 1899 C 179.735 4.26078 -0.988741 0
M  V30 1900 C 178.794 5.25155 -0.331394 0
M  V30 1901 O 177.82 5.60701 -0.979926 0
M  V30 1902 N 179.022 5.73271 0.913261 0
M  V30 1903 H 181.787 2.5328 -1.60216 0
M  V30 1904 H 179.348 1.28491 -0.984971 0
M  V30 1905 H 181.34 4.02255 0.444191 0
M  V30 1906 H 179.91 3.02175 0.800551 0
M  V30 1907 H 179.13 3.59453 -1.61826 0
M  V30 1908 H 180.418 4.81178 -1.65364 0
M  V30 1909 H 179.816 5.46544 1.45966 0
M  V30 1910 H 178.373 6.3855 1.30757 0
M  V30 1911 N 181.806 0.884767 1.30421 0
M  V30 1912 C 182.716 0.355398 2.31892 0
M  V30 1913 C 183.732 -0.542261 1.65335 0
M  V30 1914 O 184.908 -0.435432 1.96637 0
M  V30 1915 C 181.973 -0.421661 3.44126 0
M  V30 1916 C 181.034 0.505727 4.26311 0
M  V30 1917 C 180.267 -0.234343 5.33185 0
M  V30 1918 O 180.49 -1.46045 5.51386 0
M  V30 1919 O 179.424 0.415443 6.00465 0
M  V30 1920 H 183.25 1.19685 2.79122 0
M  V30 1921 H 180.835 0.648596 1.34587 0
M  V30 1922 H 182.717 -0.861641 4.12497 0
M  V30 1923 H 181.392 -1.23942 2.99032 0
M  V30 1924 H 180.299 0.994513 3.60639 0
M  V30 1925 H 181.632 1.28948 4.75009 0
M  V30 1926 N 183.284 -1.43765 0.645699 0
M  V30 1927 C 184.53 -2.02197 0.156271 0
M  V30 1928 C 184.863 -1.50776 -1.22393 0
M  V30 1929 O 184.138 -0.697771 -1.81553 0
M  V30 1930 C 184.421 -3.59749 0.158872 0
M  V30 1931 C 184.274 -4.21419 1.57245 0
M  V30 1932 C 185.593 -4.37149 -0.50879 0
M  V30 1933 H 182.712 -0.734694 0.0582602 0
M  V30 1934 H 185.354 -1.71157 0.824951 0
M  V30 1935 H 183.504 -3.86325 -0.410525 0
M  V30 1936 H 185.176 -4.059 2.19186 0
M  V30 1937 H 183.419 -3.78356 2.122 0
M  V30 1938 H 184.09 -5.30482 1.52619 0
M  V30 1939 H 186.566 -4.16093 -0.024412 0
M  V30 1940 H 185.442 -5.4683 -0.476213 0
M  V30 1941 H 185.703 -4.12839 -1.58165 0
M  V30 1942 N 184.763 -0.387143 -1.52771 0
M  V30 1943 C 186.012 0.19697 -2.00736 0
M  V30 1944 C 186.325 1.48082 -1.27793 0
M  V30 1945 O 187.531 2.14485 -1.66458 0
M  V30 1946 C 185.987 0.401568 -3.57653 0
M  V30 1947 C 185.595 -0.868907 -4.39493 0
M  V30 1948 C 187.339 0.942164 -4.13912 0
M  V30 1949 C 185.246 -0.632705 -5.88006 0
M  V30 1950 H 184.176 0.0773827 -0.750019 0
M  V30 1951 H 186.827 -0.50921 -1.76293 0
M  V30 1952 H 185.209 1.16954 -3.78335 0
M  V30 1953 H 186.383 -1.64133 -4.30577 0
M  V30 1954 H 184.698 -1.33429 -3.94443 0
M  V30 1955 H 187.295 1.13455 -5.22525 0
M  V30 1956 H 187.638 1.9106 -3.69867 0
M  V30 1957 H 188.171 0.233814 -3.97112 0
M  V30 1958 H 184.91 -1.57208 -6.36369 0
M  V30 1959 H 184.43 0.100825 -5.99715 0
M  V30 1960 H 186.109 -0.26642 -6.46451 0
M  V30 1961 N 186.241 1.57166 -0.116904 0
M  V30 1962 C 187.189 2.16457 0.851418 0
M  V30 1963 C 188.183 1.11323 1.27686 0
M  V30 1964 O 189.389 1.2963 1.24884 0
M  V30 1965 H 185.764 0.69271 0.292672 0
M  V30 1966 H 187.735 2.96605 0.32685 0
M  V30 1967 C 186.484 2.77689 2.09246 0
M  V30 1968 H 185.807 3.58285 1.77402 0
M  V30 1969 H 187.247 3.22716 2.7501 0
M  V30 1970 C 185.706 1.74667 2.88085 0
M  V30 1971 O 186.236 1.19877 3.83396 0
M  V30 1972 N 184.442 1.44656 2.52038 0
M  V30 1973 H 183.989 1.89402 1.74599 0
M  V30 1974 H 183.947 0.759675 3.05084 0
M  V30 1975 N 187.719 -0.156864 1.56817 0
M  V30 1976 C 188.666 -1.19394 1.97519 0
M  V30 1977 C 189.636 -1.4322 0.841265 0
M  V30 1978 O 190.821 -1.55719 1.10255 0
M  V30 1979 C 187.961 -2.52483 2.35258 0
M  V30 1980 C 187.074 -2.35914 3.61896 0
M  V30 1981 C 186.209 -3.61969 3.88782 0
M  V30 1982 C 185.248 -3.40395 5.08722 0
M  V30 1983 N 184.385 -4.58556 5.31668 0
M  V30 1984 H 189.225 -0.839845 2.85921 0
M  V30 1985 H 186.762 -0.403264 1.41464 0
M  V30 1986 H 188.72 -3.30071 2.55165 0
M  V30 1987 H 187.35 -2.85859 1.49949 0
M  V30 1988 H 186.402 -1.49429 3.49821 0
M  V30 1989 H 187.714 -2.15926 4.49641 0
M  V30 1990 H 186.868 -4.47989 4.09135 0
M  V30 1991 H 185.607 -3.84951 2.9944 0
M  V30 1992 H 184.612 -2.52763 4.88253 0
M  V30 1993 H 185.837 -3.18822 5.99608 0
M  V30 1994 H 183.783 -4.81729 4.45279 0
M  V30 1995 H 183.7 -4.41535 6.13664 0
M  V30 1996 H 184.968 -5.45817 5.5651 0
M  V30 1997 N 189.197 -1.51736 -0.425897 0
M  V30 1998 C 190.16 -1.73271 -1.50032 0
M  V30 1999 C 191.16 -0.602639 -1.4908 0
M  V30 2000 O 192.35 -0.87033 -1.509 0
M  V30 2001 C 189.482 -1.79969 -2.89523 0
M  V30 2002 H 190.675 -2.69172 -1.32237 0
M  V30 2003 H 188.228 -1.41899 -0.65532 0
M  V30 2004 H 188.963 -0.859241 -3.1271 0
M  V30 2005 H 188.748 -2.62109 -2.91619 0
M  V30 2006 H 190.238 -1.9843 -3.67444 0
M  V30 2007 N 190.675 0.682077 -1.42076 0
M  V30 2008 C 191.9 1.47558 -1.45744 0
M  V30 2009 C 192.325 1.87977 -0.0680981 0
M  V30 2010 O 191.683 1.55522 0.9318 0
M  V30 2011 C 191.731 2.70575 -2.38373 0
M  V30 2012 O 190.835 3.68573 -1.85007 0
M  V30 2013 H 190.176 0.443585 -0.494093 0
M  V30 2014 H 192.706 0.837238 -1.86686 0
M  V30 2015 H 192.716 3.18729 -2.54707 0
M  V30 2016 H 191.391 2.40495 -3.39315 0
M  V30 2017 H 189.968 3.2757 -1.78192 0
M  V30 2018 N 192.153 1.28127 0.917671 0
M  V30 2019 C 193.101 1.11569 2.04096 0
M  V30 2020 C 194.095 0.0360242 1.69362 0
M  V30 2021 O 195.301 0.194501 1.78946 0
M  V30 2022 H 191.676 0.344097 0.668656 0
M  V30 2023 H 193.647 2.06711 2.15205 0
M  V30 2024 C 192.396 0.790197 3.38602 0
M  V30 2025 H 191.719 1.61293 3.6582 0
M  V30 2026 H 193.159 0.714271 4.1794 0
M  V30 2027 C 191.618 -0.505897 3.3308 0
M  V30 2028 O 192.148 -1.53736 3.71117 0
M  V30 2029 N 190.354 -0.505193 2.86175 0
M  V30 2030 H 189.901 0.334621 2.55417 0
M  V30 2031 H 189.859 -1.37243 2.82863 0
M  V30 2032 N 193.631 -1.12557 1.10312 0
M  V30 2033 C 194.856 -1.88405 0.867085 0
M  V30 2034 C 195.281 -1.79038 -0.576817 0
M  V30 2035 O 194.639 -1.14439 -1.40618 0
M  V30 2036 C 194.687 -3.3563 1.31851 0
M  V30 2037 O 193.791 -4.09565 0.482734 0
M  V30 2038 H 193.132 -0.585455 0.313271 0
M  V30 2039 H 195.662 -1.42352 1.4696 0
M  V30 2040 H 195.672 -3.86469 1.3079 0
M  V30 2041 H 194.347 -3.41765 2.37001 0
M  V30 2042 H 192.924 -3.68695 0.558448 0
M  V30 2043 N 195.109 -0.891671 -1.2995 0
M  V30 2044 C 196.057 -0.353066 -2.29905 0
M  V30 2045 C 197.051 0.543509 -1.60444 0
M  V30 2046 O 198.257 0.4272 -1.74857 0
M  V30 2047 H 194.632 -0.095531 -0.745907 0
M  V30 2048 H 196.603 -1.20961 -2.72784 0
M  V30 2049 C 195.352 0.411475 -3.45257 0
M  V30 2050 H 194.675 -0.269182 -3.98893 0
M  V30 2051 H 196.115 0.753328 -4.17254 0
M  V30 2052 C 194.574 1.6111 -2.9588 0
M  V30 2053 O 195.104 2.71045 -2.96475 0
M  V30 2054 N 193.31 1.45054 -2.51809 0
M  V30 2055 H 192.857 0.556175 -2.51524 0
M  V30 2056 H 192.815 2.25453 -2.1913 0
M  V30 2057 N 196.587 1.43421 -0.653314 0
M  V30 2058 C 197.534 2.30768 0.0382271 0
M  V30 2059 C 198.504 1.44755 0.814576 0
M  V30 2060 O 199.689 1.73624 0.791162 0
M  V30 2061 C 196.829 3.30336 0.998599 0
M  V30 2062 C 195.942 4.31448 0.218342 0
M  V30 2063 C 195.077 5.18098 1.17252 0
M  V30 2064 C 194.116 6.10902 0.382702 0
M  V30 2065 N 193.253 6.90176 1.28848 0
M  V30 2066 H 198.093 2.89357 -0.712511 0
M  V30 2067 H 195.63 1.42548 -0.363128 0
M  V30 2068 H 197.588 3.86572 1.56901 0
M  V30 2069 H 196.218 2.73397 1.71621 0
M  V30 2070 H 195.27 3.77506 -0.46836 0
M  V30 2071 H 196.582 4.97227 -0.395812 0
M  V30 2072 H 195.736 5.7896 1.81356 0
M  V30 2073 H 194.475 4.52444 1.82058 0
M  V30 2074 H 193.48 5.49128 -0.27169 0
M  V30 2075 H 194.705 6.78598 -0.260957 0
M  V30 2076 H 192.651 6.27171 1.92334 0
M  V30 2077 H 192.568 7.52478 0.728887 0
M  V30 2078 H 193.836 7.55543 1.91766 0
M  V30 2079 N 198.065 0.39524 1.52563 0
M  V30 2080 C 199.314 -0.186321 2.00838 0
M  V30 2081 C 199.627 -1.47402 1.28577 0
M  V30 2082 O 200.833 -2.13599 1.67593 0
M  V30 2083 C 199.289 -0.382595 3.57861 0
M  V30 2084 C 198.897 0.892202 4.39026 0
M  V30 2085 C 200.641 -0.9202 4.14406 0
M  V30 2086 C 198.548 0.66388 5.87662 0
M  V30 2087 H 197.478 -0.0734041 0.750418 0
M  V30 2088 H 200.129 0.518552 1.76021 0
M  V30 2089 H 198.511 -1.14946 3.7895 0
M  V30 2090 H 199.685 1.66414 4.29701 0
M  V30 2091 H 198 1.35519 3.9373 0
M  V30 2092 H 200.597 -1.10683 5.23119 0
M  V30 2093 H 200.94 -1.89096 3.70875 0
M  V30 2094 H 201.473 -0.212751 3.97231 0
M  V30 2095 H 198.212 1.6058 6.35527 0
M  V30 2096 H 197.732 -0.0690193 5.9976 0
M  V30 2097 H 199.411 0.300699 6.46301 0
M  V30 2098 N 199.544 -1.57102 0.125237 0
M  V30 2099 C 200.96 -1.57915 -0.231322 0
M  V30 2100 C 201.16 -1.13833 -1.66266 0
M  V30 2101 O 200.216 -0.828581 -2.38518 0
M  V30 2102 C 201.529 -3.00699 0.00766489 0
M  V30 2103 C 203.077 -3.12947 -0.0577483 0
M  V30 2104 C 203.552 -4.57742 0.153626 0
M  V30 2105 N 205.043 -4.63092 0.0998073 0
M  V30 2106 C 205.778 -5.72905 0.238174 0
M  V30 2107 N 205.274 -6.91445 0.433057 0
M  V30 2108 N 207.067 -5.6182 0.177308 0
M  V30 2109 H 199.218 -1.84055 1.06007 0
M  V30 2110 H 201.481 -0.850905 0.417929 0
M  V30 2111 H 201.187 -3.3726 0.997431 0
M  V30 2112 H 201.061 -3.70236 -0.721452 0
M  V30 2113 H 203.448 -2.7624 -1.03804 0
M  V30 2114 H 203.529 -2.4594 0.70335 0
M  V30 2115 H 203.173 -4.95149 1.13092 0
M  V30 2116 H 203.103 -5.22848 -0.627534 0
M  V30 2117 H 205.594 -3.77871 -0.047051 0
M  V30 2118 H 205.907 -7.70985 0.529332 0
M  V30 2119 H 204.252 -6.93415 0.469109 0
M  V30 2120 H 207.443 -4.68093 0.0259748 0
M  V30 2121 H 207.616 -6.47357 0.288582 0
M  V30 2122 N 201.022 0.148545 -1.56898 0
M  V30 2123 C 201.952 1.18524 -2.01182 0
M  V30 2124 C 202.933 1.4489 -0.891123 0
M  V30 2125 O 204.118 1.55836 -1.15882 0
M  V30 2126 C 201.248 2.51879 -2.39112 0
M  V30 2127 C 200.202 2.40038 -3.54353 0
M  V30 2128 C 199.528 3.78089 -3.78091 0
M  V30 2129 C 200.828 1.88577 -4.87069 0
M  V30 2130 H 202.522 0.817029 -2.88036 0
M  V30 2131 H 200.068 0.391575 -1.38574 0
M  V30 2132 H 202.021 3.24627 -2.68692 0
M  V30 2133 H 200.745 2.90532 -1.49193 0
M  V30 2134 H 199.404 1.69742 -3.24936 0
M  V30 2135 H 199.052 4.14175 -2.85426 0
M  V30 2136 H 198.752 3.71028 -4.55645 0
M  V30 2137 H 200.276 4.52387 -4.10095 0
M  V30 2138 H 201.69 2.51117 -5.15377 0
M  V30 2139 H 200.087 1.9241 -5.68417 0
M  V30 2140 H 201.157 0.84136 -4.77545 0
M  V30 2141 N 202.5 1.5196 0.417844 0
M  V30 2142 C 203.41 1.77554 1.53336 0
M  V30 2143 C 204.426 0.660655 1.6097 0
M  V30 2144 O 205.602 0.945099 1.77848 0
M  V30 2145 C 202.667 1.91291 2.89152 0
M  V30 2146 C 201.728 3.15183 2.91475 0
M  V30 2147 C 200.961 3.28256 4.20813 0
M  V30 2148 O 201.184 2.46798 5.14244 0
M  V30 2149 O 200.118 4.21356 4.29817 0
M  V30 2150 H 203.944 2.7222 1.34647 0
M  V30 2151 H 201.529 1.36698 0.602828 0
M  V30 2152 H 203.411 2.02199 3.69721 0
M  V30 2153 H 202.086 0.998129 3.07927 0
M  V30 2154 H 200.993 3.09739 2.09791 0
M  V30 2155 H 202.326 4.06414 2.77648 0
M  V30 2156 N 203.978 -0.674533 1.42435 0
M  V30 2157 C 204.925 -1.78807 1.45934 0
M  V30 2158 C 205.895 -1.63157 0.311271 0
M  V30 2159 O 207.08 -1.83707 0.515383 0
M  V30 2160 C 204.22 -3.16839 1.36773 0
M  V30 2161 C 203.333 -3.43774 2.61617 0
M  V30 2162 C 202.468 -4.71536 2.44597 0
M  V30 2163 C 201.507 -4.91505 3.64814 0
M  V30 2164 N 200.644 -6.10508 3.46734 0
M  V30 2165 H 205.484 -1.75151 2.41093 0
M  V30 2166 H 203.021 -0.85504 1.19697 0
M  V30 2167 H 204.979 -3.96606 1.29459 0
M  V30 2168 H 203.609 -3.19619 0.452089 0
M  V30 2169 H 202.661 -2.58259 2.79297 0
M  V30 2170 H 203.973 -3.54423 3.50978 0
M  V30 2171 H 203.127 -5.59393 2.3487 0
M  V30 2172 H 201.866 -4.6317 1.52726 0
M  V30 2173 H 200.871 -4.0209 3.74972 0
M  V30 2174 H 202.096 -5.01716 4.57665 0
M  V30 2175 H 200.042 -6.03315 2.5758 0
M  V30 2176 H 199.959 -6.2202 4.29682 0
M  V30 2177 H 201.227 -7.01044 3.40819 0
M  V30 2178 N 205.456 -1.28612 -0.910864 0
M  V30 2179 C 206.704 -1.15705 -1.65701 0
M  V30 2180 C 207.025 0.29416 -1.92769 0
M  V30 2181 O 206.295 1.20331 -1.54588 0
M  V30 2182 H 204.875 -0.425216 -0.614167 0
M  V30 2183 H 207.537 -1.61381 -1.0928 0
M  V30 2184 H 206.633 -1.6988 -2.61815 0
M  V30 2185 N 206.934 1.1197 -1.10907 0
M  V30 2186 C 208.35 1.35591 -0.841852 0
M  V30 2187 C 208.55 1.94233 0.536246 0
M  V30 2188 O 207.606 2.1717 1.28816 0
M  V30 2189 C 208.919 2.29284 -1.94549 0
M  V30 2190 C 210.467 2.42862 -1.97451 0
M  V30 2191 C 210.942 3.39873 -3.07002 0
M  V30 2192 N 212.433 3.47433 -3.06341 0
M  V30 2193 C 213.168 4.22421 -3.87748 0
M  V30 2194 N 212.664 5.00432 -4.79103 0
M  V30 2195 N 214.457 4.17876 -3.75946 0
M  V30 2196 H 206.608 0.722664 -1.99728 0
M  V30 2197 H 208.871 0.380635 -0.868229 0
M  V30 2198 H 208.577 1.93378 -2.93765 0
M  V30 2199 H 208.451 3.29452 -1.83688 0
M  V30 2200 H 210.838 2.78046 -0.988645 0
M  V30 2201 H 210.919 1.42566 -2.12388 0
M  V30 2202 H 210.563 3.05417 -4.05811 0
M  V30 2203 H 210.493 4.40011 -2.89306 0
M  V30 2204 H 212.984 2.91784 -2.40147 0
M  V30 2205 H 213.297 5.55002 -5.37766 0
M  V30 2206 H 211.642 4.99612 -4.83128 0
M  V30 2207 H 214.833 3.56016 -3.03924 0
M  V30 2208 H 215.006 4.76061 -4.39624 0
M  V30 2209 N 208.412 0.89855 1.29475 0
M  V30 2210 C 209.342 0.39201 2.30186 0
M  V30 2211 C 210.323 -0.532359 1.61555 0
M  V30 2212 O 211.508 -0.443331 1.89072 0
M  V30 2213 C 208.638 -0.382353 3.45189 0
M  V30 2214 C 207.592 0.451483 4.25612 0
M  V30 2215 C 206.918 -0.450307 5.328 0
M  V30 2216 C 208.218 1.70079 4.93832 0
M  V30 2217 H 209.912 1.23362 2.72804 0
M  V30 2218 H 207.458 0.594638 1.31149 0
M  V30 2219 H 209.411 -0.747451 4.14718 0
M  V30 2220 H 208.135 -1.25774 3.01411 0
M  V30 2221 H 206.794 0.798897 3.57789 0
M  V30 2222 H 206.442 -1.32379 4.85268 0
M  V30 2223 H 206.142 0.103902 5.87508 0
M  V30 2224 H 207.666 -0.811623 6.05182 0
M  V30 2225 H 209.08 1.40549 5.55805 0
M  V30 2226 H 207.477 2.19623 5.58467 0
M  V30 2227 H 208.547 2.43744 4.19186 0
M  V30 2228 N 209.89 -1.43072 0.660911 0
M  V30 2229 C 211.12 -2.05769 0.185153 0
M  V30 2230 C 211.528 -1.49668 -1.15742 0
M  V30 2231 O 210.871 -0.625649 -1.72717 0
M  V30 2232 C 210.933 -3.59489 0.0278237 0
M  V30 2233 C 210.597 -4.38212 1.2969 0
M  V30 2234 C 211.594 -4.69772 2.22734 0
M  V30 2235 C 209.279 -4.7809 1.54063 0
M  V30 2236 C 211.273 -5.40129 3.38437 0
M  V30 2237 C 208.96 -5.4819 2.70058 0
M  V30 2238 C 209.958 -5.79132 3.62071 0
M  V30 2239 O 209.646 -6.47798 4.76039 0
M  V30 2240 H 209.378 -0.669873 0.0908086 0
M  V30 2241 H 211.932 -1.84436 0.90402 0
M  V30 2242 H 210.162 -3.79426 -0.746489 0
M  V30 2243 H 211.851 -4.03862 -0.406275 0
M  V30 2244 H 212.617 -4.39476 2.05149 0
M  V30 2245 H 208.496 -4.53408 0.833215 0
M  V30 2246 H 212.04 -5.64198 4.10277 0
M  V30 2247 H 207.937 -5.77902 2.87574 0
M  V30 2248 H 208.705 -6.66283 4.75404 0
M  V30 2249 N 211.368 -0.403325 -1.52352 0
M  V30 2250 C 212.3 0.4603 -2.2453 0
M  V30 2251 C 213.313 1.01505 -1.27282 0
M  V30 2252 O 214.502 0.914982 -1.53266 0
M  V30 2253 C 211.602 1.65208 -2.95905 0
M  V30 2254 C 210.775 1.22224 -4.19976 0
M  V30 2255 C 209.834 2.28028 -4.74226 0
M  V30 2256 O 208.86 1.88857 -5.36956 0
M  V30 2257 N 210.062 3.6012 -4.55295 0
M  V30 2258 H 212.827 -0.158156 -2.99282 0
M  V30 2259 H 210.388 -0.230402 -1.60252 0
M  V30 2260 H 212.38 2.35541 -3.29093 0
M  V30 2261 H 210.95 2.17658 -2.24374 0
M  V30 2262 H 210.17 0.34725 -3.92668 0
M  V30 2263 H 211.458 0.911924 -5.00561 0
M  V30 2264 H 210.856 3.94698 -4.05253 0
M  V30 2265 H 209.413 4.26447 -4.92936 0
M  V30 2266 N 212.846 1.57033 -0.133567 0
M  V30 2267 C 214.095 1.94861 0.520768 0
M  V30 2268 C 214.408 1.02012 1.66892 0
M  V30 2269 O 215.614 1.29365 2.38699 0
M  V30 2270 C 214.07 3.46362 0.977809 0
M  V30 2271 C 213.678 4.47773 -0.142674 0
M  V30 2272 C 215.422 3.93083 1.60269 0
M  V30 2273 C 213.329 5.90468 0.331883 0
M  V30 2274 H 212.259 0.727453 0.198315 0
M  V30 2275 H 214.91 1.82227 -0.215759 0
M  V30 2276 H 213.292 3.54282 1.7692 0
M  V30 2277 H 214.466 4.51536 -0.919317 0
M  V30 2278 H 212.781 4.10891 -0.675124 0
M  V30 2279 H 215.378 4.97121 1.96914 0
M  V30 2280 H 215.721 3.33876 2.48662 0
M  V30 2281 H 216.254 3.88025 0.876453 0
M  V30 2282 H 212.993 6.53463 -0.516341 0
M  V30 2283 H 212.513 5.90094 1.07469 0
M  V30 2284 H 214.192 6.42179 0.788332 0
M  V30 2285 N 214.325 -0.140222 1.56975 0
M  V30 2286 C 215.272 -1.17292 1.98774 0
M  V30 2287 C 216.242 -1.4232 0.856408 0
M  V30 2288 O 217.427 -1.54541 1.119 0
M  V30 2289 C 214.567 -2.49973 2.37923 0
M  V30 2290 C 213.68 -2.32062 3.64378 0
M  V30 2291 C 212.815 -3.57825 3.926 0
M  V30 2292 C 211.854 -3.3498 5.12303 0
M  V30 2293 N 210.991 -4.52891 5.36502 0
M  V30 2294 H 215.831 -0.809472 2.86795 0
M  V30 2295 H 213.368 -0.388237 1.41884 0
M  V30 2296 H 215.326 -3.27346 2.58652 0
M  V30 2297 H 213.956 -2.84252 1.52972 0
M  V30 2298 H 213.008 -1.45711 3.51387 0
M  V30 2299 H 214.32 -2.11145 4.51906 0
M  V30 2300 H 213.474 -4.43624 4.13863 0
M  V30 2301 H 212.213 -3.81753 3.03506 0
M  V30 2302 H 211.218 -2.4757 4.90906 0
M  V30 2303 H 212.443 -3.12444 6.02956 0
M  V30 2304 H 210.389 -4.76979 4.50363 0
M  V30 2305 H 210.306 -4.35001 6.18312 0
M  V30 2306 H 211.574 -5.39884 5.62268 0
M  V30 2307 N 215.803 -1.52179 -0.40978 0
M  V30 2308 C 217.052 -1.65434 -1.15388 0
M  V30 2309 C 217.365 -0.390056 -1.91671 0
M  V30 2310 O 218.571 -0.402399 -2.68501 0
M  V30 2311 C 217.027 -2.92279 -2.10003 0
M  V30 2312 C 216.635 -4.25813 -1.39239 0
M  V30 2313 C 218.379 -3.14897 -2.84675 0
M  V30 2314 C 216.286 -5.43782 -2.32498 0
M  V30 2315 H 215.216 -0.616267 -0.434432 0
M  V30 2316 H 217.867 -1.78666 -0.418401 0
M  V30 2317 H 216.249 -2.72744 -2.871 0
M  V30 2318 H 217.423 -4.55828 -0.675099 0
M  V30 2319 H 215.738 -4.09292 -0.766097 0
M  V30 2320 H 218.335 -4.0021 -3.54593 0
M  V30 2321 H 218.678 -2.29103 -3.47588 0
M  V30 2322 H 219.211 -3.34901 -2.14677 0
M  V30 2323 H 215.95 -6.3192 -1.74233 0
M  V30 2324 H 215.47 -5.18106 -3.02201 0
M  V30 2325 H 217.149 -5.76834 -2.93038 0
M  V30 2326 N 217.281 0.66697 -1.42791 0
M  V30 2327 C 218.213 1.7925 -1.42836 0
M  V30 2328 C 219.226 1.59496 -0.326333 0
M  V30 2329 O 220.415 1.6847 -0.589916 0
M  V30 2330 C 217.515 3.16476 -1.21229 0
M  V30 2331 C 216.688 3.63011 -2.44013 0
M  V30 2332 C 215.747 4.78993 -2.17834 0
M  V30 2333 O 214.773 4.89137 -2.91091 0
M  V30 2334 N 215.975 5.68248 -1.18635 0
M  V30 2335 H 218.74 1.79695 -2.39854 0
M  V30 2336 H 216.301 0.850338 -1.37771 0
M  V30 2337 H 218.293 3.91734 -1.01621 0
M  V30 2338 H 216.863 3.10884 -0.32706 0
M  V30 2339 H 216.083 2.78346 -2.79137 0
M  V30 2340 H 217.371 3.90845 -3.25757 0
M  V30 2341 H 216.769 5.62712 -0.580615 0
M  V30 2342 H 215.326 6.43285 -1.05013 0
M  V30 2343 N 218.759 1.29093 0.90403 0
M  V30 2344 C 219.989 1.19516 1.68522 0
M  V30 2345 C 220.397 -0.24738 1.87576 0
M  V30 2346 O 219.74 -1.17798 1.40959 0
M  V30 2347 C 219.802 1.83249 3.0929 0
M  V30 2348 C 219.466 3.32531 3.13484 0
M  V30 2349 C 220.463 4.28821 2.93953 0
M  V30 2350 C 218.148 3.73656 3.35688 0
M  V30 2351 C 220.142 5.64212 2.96553 0
M  V30 2352 C 217.829 5.0917 3.37919 0
M  V30 2353 C 218.827 6.04258 3.18373 0
M  V30 2354 O 218.515 7.37298 3.20385 0
M  V30 2355 H 218.247 0.415467 0.533257 0
M  V30 2356 H 220.801 1.70912 1.13922 0
M  V30 2357 H 219.031 1.26358 3.65473 0
M  V30 2358 H 220.72 1.68054 3.69476 0
M  V30 2359 H 221.486 3.98382 2.76616 0
M  V30 2360 H 217.365 3.00101 3.49943 0
M  V30 2361 H 220.909 6.38407 2.81216 0
M  V30 2362 H 216.806 5.39256 3.54787 0
M  V30 2363 H 217.574 7.46048 3.36681 0
M  V30 2364 N 220.237 -1.11381 1.11499 0
M  V30 2365 C 221.169 -2.17207 0.731704 0
M  V30 2366 C 222.182 -1.61066 -0.236957 0
M  V30 2367 O 223.371 -1.78489 -0.0197591 0
M  V30 2368 C 220.471 -3.38846 0.0607624 0
M  V30 2369 C 219.644 -4.24451 1.0564 0
M  V30 2370 C 218.703 -5.24562 0.4149 0
M  V30 2371 O 217.729 -5.59071 1.069 0
M  V30 2372 N 218.931 -5.74651 -0.821943 0
M  V30 2373 H 221.696 -2.50699 1.64225 0
M  V30 2374 H 219.257 -1.26908 1.00529 0
M  V30 2375 H 221.249 -4.02911 -0.380139 0
M  V30 2376 H 219.819 -3.03411 -0.752376 0
M  V30 2377 H 219.039 -3.56833 1.67524 0
M  V30 2378 H 220.327 -4.78486 1.72998 0
M  V30 2379 H 219.725 -5.48797 -1.37252 0
M  V30 2380 H 218.282 -6.40549 -1.20582 0
M  V30 2381 N 221.715 -0.905404 -1.28997 0
M  V30 2382 C 223.131 -0.60233 -1.47798 0
M  V30 2383 C 223.331 0.854645 -1.82478 0
M  V30 2384 O 222.387 1.63439 -1.92468 0
M  V30 2385 C 223.7 -1.53306 -2.58685 0
M  V30 2386 C 225.248 -1.53887 -2.72558 0
M  V30 2387 C 225.723 -2.45602 -3.86579 0
M  V30 2388 N 227.214 -2.43681 -3.93921 0
M  V30 2389 C 227.949 -3.11347 -4.81509 0
M  V30 2390 N 227.445 -3.88313 -5.73746 0
M  V30 2391 N 229.238 -3.00476 -4.75048 0
M  V30 2392 H 221.389 -1.84765 -1.04764 0
M  V30 2393 H 223.652 -0.792025 -0.520961 0
M  V30 2394 H 223.358 -2.57141 -2.39941 0
M  V30 2395 H 223.232 -1.25787 -3.55609 0
M  V30 2396 H 225.619 -0.507941 -2.90696 0
M  V30 2397 H 225.7 -1.85447 -1.76191 0
M  V30 2398 H 225.344 -3.48792 -3.69197 0
M  V30 2399 H 225.274 -2.11349 -4.82327 0
M  V30 2400 H 227.765 -1.87767 -3.27951 0
M  V30 2401 H 228.078 -4.36985 -6.37389 0
M  V30 2402 H 226.423 -3.92419 -5.73614 0
M  V30 2403 H 229.614 -2.39858 -4.01977 0
M  V30 2404 H 229.787 -3.53485 -5.43095 0
M  V30 2405 N 223.193 1.4272 -0.668489 0
M  V30 2406 C 224.103 2.34596 0.0139753 0
M  V30 2407 C 225.119 1.5474 0.795703 0
M  V30 2408 O 226.295 1.87334 0.739466 0
M  V30 2409 C 223.36 3.33202 0.957982 0
M  V30 2410 C 222.421 4.28957 0.17149 0
M  V30 2411 C 221.654 5.22853 1.07053 0
M  V30 2412 O 221.877 5.21531 2.31001 0
M  V30 2413 O 220.811 5.9952 0.534727 0
M  V30 2414 H 224.637 2.9448 -0.742661 0
M  V30 2415 H 222.222 1.43117 -0.428705 0
M  V30 2416 H 224.104 3.93796 1.50008 0
M  V30 2417 H 222.779 2.758 1.69458 0
M  V30 2418 H 221.686 3.71796 -0.414558 0
M  V30 2419 H 223.019 4.89383 -0.52586 0
M  V30 2420 N 224.671 0.411399 1.52136 0
M  V30 2421 C 225.619 -0.427633 2.28635 0
M  V30 2422 C 226.613 -1.04383 1.33419 0
M  V30 2423 O 227.819 -0.981772 1.50868 0
M  V30 2424 H 224.194 -0.156689 0.735495 0
M  V30 2425 H 226.165 0.238761 2.97443 0
M  V30 2426 C 224.914 -1.53082 3.12188 0
M  V30 2427 H 224.237 -1.06601 3.85326 0
M  V30 2428 H 225.677 -2.09167 3.68816 0
M  V30 2429 C 224.136 -2.49946 2.25895 0
M  V30 2430 O 224.666 -3.53884 1.90076 0
M  V30 2431 N 222.872 -2.2021 1.8962 0
M  V30 2432 H 222.419 -1.35719 2.18948 0
M  V30 2433 H 222.377 -2.85266 1.32176 0
M  V30 2434 N 226.149 -1.5696 0.141893 0
M  V30 2435 C 227.56 -1.82797 -0.379776 0
M  V30 2436 C 227.911 -1.06033 -1.6508 0
M  V30 2437 O 227.036 -0.304011 -2.14254 0
M  V30 2438 C 227.631 -3.31578 -0.695802 0
M  V30 2439 C 226.19 -3.58014 -1.16201 0
M  V30 2440 C 225.337 -2.76699 -0.182455 0
M  V30 2441 H 228.288 -1.54406 0.366675 0
M  V30 2442 H 228.309 -3.47454 -1.55099 0
M  V30 2443 H 227.821 -3.87421 0.229449 0
M  V30 2444 H 225.922 -3.07553 -2.10338 0
M  V30 2445 H 226.035 -4.66501 -1.09151 0
M  V30 2446 H 224.399 -2.45618 -0.674072 0
M  V30 2447 H 225.182 -3.35311 0.736297 0
M  V30 2448 N 227.627 0.131896 -1.57047 0
M  V30 2449 C 228.855 0.856461 -1.88341 0
M  V30 2450 C 229.27 1.74042 -0.731757 0
M  V30 2451 O 228.627 1.80051 0.297945 0
M  V30 2452 C 228.678 1.70064 -3.18999 0
M  V30 2453 O 228.399 0.852278 -4.2973 0
M  V30 2454 C 229.9 2.53148 -3.63911 0
M  V30 2455 H 227.12 0.246885 -0.62393 0
M  V30 2456 H 229.664 0.120152 -2.04147 0
M  V30 2457 H 227.819 2.38984 -3.04902 0
M  V30 2458 H 228.233 1.43329 -5.04537 0
M  V30 2459 H 229.707 3.07931 -4.58129 0
M  V30 2460 H 230.184 3.29901 -2.89935 0
M  V30 2461 H 230.79 1.89492 -3.80753 0
M  V30 2462 N 229.106 1.52395 0.401703 0
M  V30 2463 C 230.016 1.7917 1.51444 0
M  V30 2464 C 231.032 0.677691 1.6026 0
M  V30 2465 O 232.208 0.963909 1.76835 0
M  V30 2466 C 229.273 1.94347 2.87107 0
M  V30 2467 C 228.334 3.18257 2.88116 0
M  V30 2468 C 227.567 3.32701 4.17308 0
M  V30 2469 O 227.79 2.52238 5.11598 0
M  V30 2470 O 226.724 4.25891 4.25324 0
M  V30 2471 H 230.55 2.73633 1.31752 0
M  V30 2472 H 228.135 1.3733 0.588296 0
M  V30 2473 H 230.017 2.06109 3.67555 0
M  V30 2474 H 228.692 1.03073 3.06851 0
M  V30 2475 H 227.599 3.11947 2.06494 0
M  V30 2476 H 228.932 4.09336 2.73322 0
M  V30 2477 N 230.584 -0.659388 1.43143 0
M  V30 2478 C 231.531 -1.77249 1.47822 0
M  V30 2479 C 232.501 -1.62818 0.328558 0
M  V30 2480 O 233.686 -1.83151 0.534838 0
M  V30 2481 C 230.826 -3.15371 1.40126 0
M  V30 2482 C 229.939 -3.4098 2.65249 0
M  V30 2483 C 229.074 -4.68915 2.49584 0
M  V30 2484 C 228.113 -4.87608 3.70006 0
M  V30 2485 N 227.25 -6.06796 3.53189 0
M  V30 2486 H 232.09 -1.72584 2.42938 0
M  V30 2487 H 229.627 -0.842297 1.20598 0
M  V30 2488 H 231.585 -3.9521 1.33659 0
M  V30 2489 H 230.215 -3.19121 0.485964 0
M  V30 2490 H 229.267 -2.55282 2.8202 0
M  V30 2491 H 230.579 -3.50681 3.54717 0
M  V30 2492 H 229.733 -5.56871 2.4079 0
M  V30 2493 H 228.472 -4.61524 1.5763 0
M  V30 2494 H 227.477 -3.9809 3.79215 0
M  V30 2495 H 228.702 -4.96834 4.62961 0
M  V30 2496 H 226.648 -6.00549 2.63965 0
M  V30 2497 H 226.565 -6.17428 4.36255 0
M  V30 2498 H 227.833 -6.9739 3.48236 0
M  V30 2499 N 232.062 -1.29571 -0.897171 0
M  V30 2500 C 233.31 -1.17456 -1.64464 0
M  V30 2501 C 233.631 0.273698 -1.9307 0
M  V30 2502 O 232.901 1.18684 -1.55855 0
M  V30 2503 H 231.481 -0.431706 -0.609622 0
M  V30 2504 H 234.143 -1.62531 -1.07562 0
M  V30 2505 H 233.239 -1.72648 -2.59998 0
M  V30 2506 N 233.54 1.10788 -1.12088 0
M  V30 2507 C 234.47 2.19083 -0.807755 0
M  V30 2508 C 235.451 1.6858 0.226859 0
M  V30 2509 O 236.636 1.93997 0.0888475 0
M  V30 2510 C 233.766 3.46344 -0.257576 0
M  V30 2511 C 232.72 4.101 -1.22483 0
M  V30 2512 C 232.046 5.32016 -0.535052 0
M  V30 2513 C 233.346 4.54236 -2.57811 0
M  V30 2514 H 235.04 2.45534 -1.71328 0
M  V30 2515 H 232.586 1.1801 -0.825205 0
M  V30 2516 H 234.539 4.21392 -0.0262679 0
M  V30 2517 H 233.263 3.19373 0.683278 0
M  V30 2518 H 231.922 3.37054 -1.44189 0
M  V30 2519 H 231.57 5.01319 0.410827 0
M  V30 2520 H 231.27 5.75625 -1.18024 0
M  V30 2521 H 232.794 6.09799 -0.312695 0
M  V30 2522 H 234.208 5.20575 -2.40155 0
M  V30 2523 H 232.605 5.08682 -3.18375 0
M  V30 2524 H 233.675 3.6734 -3.16528 0
M  V30 2525 N 235.018 0.912232 1.28515 0
M  V30 2526 C 236.295 0.463597 1.90027 0
M  V30 2527 C 236.675 -1.05753 1.82701 0
M  V30 2528 O 236.023 -1.90492 1.26194 0
M  V30 2529 C 236.233 0.992253 3.34597 0
M  V30 2530 C 237.581 1.04344 4.11579 0
M  V30 2531 O 238.605 0.94079 3.43551 0
M  V30 2532 O 237.464 1.1995 5.33174 0
M  V30 2533 H 234.558 0.146666 0.813891 0
M  V30 2534 H 237.104 1.00292 1.36893 0
M  V30 2535 H 235.876 2.03623 3.34146 0
M  V30 2536 H 235.499 0.433672 3.95228 0
M  V30 2537 N 236.496 -1.42363 0.676048 0
M  V30 2538 C 237.743 -2.01522 0.19883 0
M  V30 2539 C 238.071 -1.53456 -1.19505 0
M  V30 2540 O 237.326 -0.727967 -1.81657 0
M  V30 2541 C 237.625 -3.56929 0.183431 0
M  V30 2542 C 237.291 -4.24431 1.52215 0
M  V30 2543 C 235.953 -4.42585 1.8887 0
M  V30 2544 C 238.305 -4.62459 2.40377 0
M  V30 2545 C 235.633 -4.96039 3.13309 0
M  V30 2546 C 237.985 -5.17294 3.64129 0
M  V30 2547 C 236.649 -5.33661 4.00951 0
M  V30 2548 H 235.919 -0.737419 0.0727571 0
M  V30 2549 H 238.566 -1.70531 0.871281 0
M  V30 2550 H 236.871 -3.87594 -0.572532 0
M  V30 2551 H 238.568 -4.00486 -0.203035 0
M  V30 2552 H 235.158 -4.10661 1.22701 0
M  V30 2553 H 239.342 -4.48105 2.13343 0
M  V30 2554 H 234.598 -5.06896 3.41857 0
M  V30 2555 H 238.772 -5.45704 4.32644 0
M  V30 2556 H 236.399 -5.74845 4.9745 0
M  V30 2557 N 237.974 -0.419461 -1.51915 0
M  V30 2558 C 238.921 0.400927 -2.27291 0
M  V30 2559 C 239.891 1.03224 -1.30131 0
M  V30 2560 O 241.076 1.05455 -1.59009 0
M  V30 2561 C 238.216 1.50603 -3.10504 0
M  V30 2562 C 237.329 0.89462 -4.22635 0
M  V30 2563 C 236.464 1.97328 -4.93189 0
M  V30 2564 C 235.503 1.33935 -5.97267 0
M  V30 2565 N 234.64 2.3586 -6.61298 0
M  V30 2566 H 239.48 -0.248251 -2.96964 0
M  V30 2567 H 237.017 -0.134266 -1.46486 0
M  V30 2568 H 238.975 2.15783 -3.57062 0
M  V30 2569 H 237.605 2.12509 -2.42981 0
M  V30 2570 H 236.657 0.131583 -3.80172 0
M  V30 2571 H 237.969 0.391641 -4.9726 0
M  V30 2572 H 237.123 2.70211 -5.43204 0
M  V30 2573 H 235.862 2.50994 -4.18155 0
M  V30 2574 H 234.867 0.595896 -5.46561 0
M  V30 2575 H 236.092 0.810252 -6.74249 0
M  V30 2576 H 234.038 2.88639 -5.89087 0
M  V30 2577 H 233.955 1.90403 -7.3163 0
M  V30 2578 H 235.223 3.08282 -7.15949 0
M  V30 2579 N 239.452 1.56882 -0.150215 0
M  V30 2580 C 240.382 2.19935 0.784284 0
M  V30 2581 C 241.363 1.14854 1.25469 0
M  V30 2582 O 242.548 1.43209 1.31168 0
M  V30 2583 C 239.678 2.82349 2.02229 0
M  V30 2584 C 238.632 3.93285 1.68853 0
M  V30 2585 C 237.958 4.42649 2.99944 0
M  V30 2586 C 239.258 5.13904 0.932714 0
M  V30 2587 H 240.952 2.9828 0.258781 0
M  V30 2588 H 238.498 1.43473 0.123029 0
M  V30 2589 H 240.451 3.25126 2.68088 0
M  V30 2590 H 239.175 2.0134 2.57157 0
M  V30 2591 H 237.834 3.5113 1.05371 0
M  V30 2592 H 237.482 3.58458 3.52869 0
M  V30 2593 H 237.182 5.17476 2.78374 0
M  V30 2594 H 238.706 4.88099 3.66868 0
M  V30 2595 H 240.12 5.53506 1.49345 0
M  V30 2596 H 238.517 5.94515 0.81684 0
M  V30 2597 H 239.587 4.84842 -0.0749568 0
M  V30 2598 N 240.93 -0.123565 1.57115 0
M  V30 2599 C 242.16 -0.845233 1.88519 0
M  V30 2600 C 242.568 -1.74168 0.739064 0
M  V30 2601 O 241.911 -1.81244 -0.299355 0
M  V30 2602 C 241.973 -1.73452 3.14888 0
M  V30 2603 C 241.637 -1.01285 4.45635 0
M  V30 2604 C 242.634 -0.355774 5.18681 0
M  V30 2605 C 240.319 -0.99538 4.92339 0
M  V30 2606 C 242.313 0.309114 6.3665 0
M  V30 2607 C 240 -0.32669 6.10226 0
M  V30 2608 C 240.998 0.324406 6.82229 0
M  V30 2609 O 240.686 0.982437 7.97874 0
M  V30 2610 H 240.418 -0.248534 0.628655 0
M  V30 2611 H 242.972 -0.113907 2.05084 0
M  V30 2612 H 241.202 -2.50737 2.94394 0
M  V30 2613 H 242.891 -2.33021 3.32349 0
M  V30 2614 H 243.657 -0.360918 4.83655 0
M  V30 2615 H 239.536 -1.49159 4.36202 0
M  V30 2616 H 243.08 0.8179 6.92789 0
M  V30 2617 H 238.977 -0.319294 6.4471 0
M  V30 2618 H 239.745 0.886454 8.13686 0
M  V30 2619 N 242.408 -1.52605 -0.393616 0
M  V30 2620 C 243.654 -1.68624 -1.13743 0
M  V30 2621 C 244.009 -0.418687 -1.87789 0
M  V30 2622 O 243.302 0.58747 -1.82371 0
M  V30 2623 C 243.496 -2.85721 -2.14705 0
M  V30 2624 C 243.325 -4.23742 -1.50575 0
M  V30 2625 C 242.095 -4.89033 -1.2718 0
M  V30 2626 C 244.293 -5.05293 -0.958311 0
M  V30 2627 N 242.275 -6.11048 -0.591058 0
M  V30 2628 C 243.646 -6.18673 -0.405367 0
M  V30 2629 C 245.701 -4.90517 -0.854274 0
M  V30 2630 C 244.404 -7.18895 0.241434 0
M  V30 2631 C 246.43 -5.90986 -0.221301 0
M  V30 2632 C 245.792 -7.03669 0.320894 0
M  V30 2633 H 241.891 -0.670556 -0.402342 0
M  V30 2634 H 244.475 -1.89946 -0.427607 0
M  V30 2635 H 242.646 -2.65987 -2.83029 0
M  V30 2636 H 244.378 -2.90699 -2.8156 0
M  V30 2637 H 241.133 -4.47672 -1.54554 0
M  V30 2638 H 241.557 -6.76474 -0.266862 0
M  V30 2639 H 246.199 -4.03612 -1.25926 0
M  V30 2640 H 243.917 -8.05413 0.658448 0
M  V30 2641 H 247.503 -5.81626 -0.142111 0
M  V30 2642 H 246.383 -7.80078 0.802956 0
M  V30 2643 N 243.887 0.651787 -1.4349 0
M  V30 2644 C 245.115 1.43937 -1.48626 0
M  V30 2645 C 245.53 1.8851 -0.104587 0
M  V30 2646 O 244.887 1.5958 0.885464 0
M  V30 2647 C 244.938 2.6734 -2.43334 0
M  V30 2648 O 244.659 2.24631 -3.76128 0
M  V30 2649 C 246.16 3.60683 -2.57726 0
M  V30 2650 H 243.38 0.44213 -0.504739 0
M  V30 2651 H 245.924 0.798944 -1.88248 0
M  V30 2652 H 244.079 3.2752 -2.06904 0
M  V30 2653 H 244.493 3.04485 -4.2707 0
M  V30 2654 H 245.967 4.43933 -3.28067 0
M  V30 2655 H 246.444 4.08126 -1.62265 0
M  V30 2656 H 247.05 3.06384 -2.94973 0
M  V30 2657 N 245.365 1.30045 0.890287 0
M  V30 2658 C 246.642 1.09227 1.62262 0
M  V30 2659 C 247.022 -0.360305 2.08002 0
M  V30 2660 O 246.37 -1.35084 1.84295 0
M  V30 2661 C 246.58 2.08835 2.79623 0
M  V30 2662 C 247.928 2.40266 3.50082 0
M  V30 2663 O 248.952 2.07104 2.89804 0
M  V30 2664 O 247.811 2.96967 4.58773 0
M  V30 2665 H 244.905 0.419132 0.712922 0
M  V30 2666 H 247.451 1.41451 0.937529 0
M  V30 2667 H 246.223 3.06633 2.43089 0
M  V30 2668 H 245.846 1.77397 3.55832 0
M  V30 2669 N 246.843 -1.10192 1.12674 0
M  V30 2670 C 248.068 -1.86523 0.906853 0
M  V30 2671 C 248.493 -1.80221 -0.538711 0
M  V30 2672 O 247.851 -1.17396 -1.38158 0
M  V30 2673 C 247.899 -3.32758 1.3894 0
M  V30 2674 O 247.003 -4.08449 0.5695 0
M  V30 2675 H 246.344 -0.578678 0.325619 0
M  V30 2676 H 248.874 -1.39203 1.49946 0
M  V30 2677 H 248.884 -3.83608 1.38958 0
M  V30 2678 H 247.559 -3.36661 2.44197 0
M  V30 2679 H 246.136 -3.67427 0.636528 0
M  V30 2680 N 248.321 -0.919034 -1.28029 0
M  V30 2681 C 249.253 -0.368762 -2.26214 0
M  V30 2682 C 250.266 0.495716 -1.55069 0
M  V30 2683 O 251.455 0.30974 -1.75792 0
M  V30 2684 C 248.555 0.491049 -3.35324 0
M  V30 2685 C 247.728 -0.352133 -4.3598 0
M  V30 2686 C 246.787 0.443622 -5.24327 0
M  V30 2687 O 245.813 -0.14566 -5.69014 0
M  V30 2688 N 247.015 1.74545 -5.53637 0
M  V30 2689 H 249.78 -1.21273 -2.74068 0
M  V30 2690 H 247.341 -0.785541 -1.41566 0
M  V30 2691 H 249.333 1.03026 -3.91366 0
M  V30 2692 H 247.903 1.23574 -2.87138 0
M  V30 2693 H 247.123 -1.07269 -3.79324 0
M  V30 2694 H 248.411 -0.928883 -5.00249 0
M  V30 2695 H 247.809 2.24666 -5.19174 0
M  V30 2696 H 246.366 2.23138 -6.12416 0
M  V30 2697 N 249.799 1.42003 -0.683588 0
M  V30 2698 C 250.747 2.326 0.000815408 0
M  V30 2699 C 251.741 1.50308 0.781278 0
M  V30 2700 O 252.947 1.66322 0.688251 0
M  V30 2701 H 249.322 0.751758 0.0190616 0
M  V30 2702 H 251.293 2.88011 -0.780528 0
M  V30 2703 C 250.042 3.34978 0.93195 0
M  V30 2704 H 249.365 3.98345 0.340817 0
M  V30 2705 H 250.805 4.00936 1.37936 0
M  V30 2706 C 249.264 2.67925 2.04249 0
M  V30 2707 O 249.794 2.51788 3.12995 0
M  V30 2708 N 248 2.2681 1.81675 0
M  V30 2709 H 247.547 2.40135 0.932363 0
M  V30 2710 H 247.505 1.8228 2.56167 0
M  V30 2711 N 251.277 0.427512 1.51691 0
M  V30 2712 C 252.224 -0.388867 2.275 0
M  V30 2713 C 253.194 -1.02532 1.30677 0
M  V30 2714 O 254.379 -1.0461 1.59566 0
M  V30 2715 C 251.519 -1.48954 3.11298 0
M  V30 2716 C 250.632 -0.872194 4.23104 0
M  V30 2717 C 249.767 -1.94709 4.94228 0
M  V30 2718 C 248.806 -1.30766 5.97969 0
M  V30 2719 N 247.943 -2.32349 6.62539 0
M  V30 2720 H 252.783 0.263997 2.96828 0
M  V30 2721 H 250.32 0.142033 1.46413 0
M  V30 2722 H 252.278 -2.13887 3.58201 0
M  V30 2723 H 250.908 -2.11217 2.44105 0
M  V30 2724 H 249.96 -0.111419 3.80237 0
M  V30 2725 H 251.272 -0.365264 4.97461 0
M  V30 2726 H 250.426 -2.67327 5.44629 0
M  V30 2727 H 249.165 -2.48773 4.1948 0
M  V30 2728 H 248.17 -0.566902 5.4687 0
M  V30 2729 H 249.395 -0.774483 6.74669 0
M  V30 2730 H 247.341 -2.85511 5.90609 0
M  V30 2731 H 247.258 -1.8652 7.3263 0
M  V30 2732 H 248.526 -3.04481 7.17574 0
M  V30 2733 N 252.755 -1.56801 0.158532 0
M  V30 2734 C 253.702 -2.17337 -0.776729 0
M  V30 2735 C 254.672 -1.1096 -1.23601 0
M  V30 2736 O 255.857 -1.39054 -1.30647 0
M  V30 2737 C 252.997 -2.80822 -2.00582 0
M  V30 2738 C 252.11 -4.01624 -1.59129 0
M  V30 2739 C 251.245 -4.53072 -2.77306 0
M  V30 2740 C 250.284 -5.66314 -2.32282 0
M  V30 2741 N 249.421 -6.12329 -3.43508 0
M  V30 2742 H 254.261 -2.96918 -0.253701 0
M  V30 2743 H 251.798 -1.46661 -0.113504 0
M  V30 2744 H 253.756 -3.15779 -2.72652 0
M  V30 2745 H 252.386 -2.03866 -2.50277 0
M  V30 2746 H 251.438 -3.72571 -0.767806 0
M  V30 2747 H 252.75 -4.83633 -1.2207 0
M  V30 2748 H 251.904 -4.90145 -3.57551 0
M  V30 2749 H 250.643 -3.70095 -3.17617 0
M  V30 2750 H 249.648 -5.28806 -1.5048 0
M  V30 2751 H 250.873 -6.51085 -1.93043 0
M  V30 2752 H 248.819 -5.32284 -3.83418 0
M  V30 2753 H 248.736 -6.89293 -3.105 0
M  V30 2754 H 250.004 -6.5405 -4.24075 0
M  V30 2755 N 254.233 0.115231 -1.57178 0
M  V30 2756 C 255.143 1.15994 -2.03918 0
M  V30 2757 C 256.159 1.45103 -0.960268 0
M  V30 2758 O 257.335 1.56144 -1.27204 0
M  V30 2759 C 254.4 2.46568 -2.43732 0
M  V30 2760 C 253.461 2.24822 -3.65723 0
M  V30 2761 C 252.694 3.4917 -4.03629 0
M  V30 2762 O 252.917 4.56623 -3.41835 0
M  V30 2763 O 251.851 3.39949 -4.96708 0
M  V30 2764 H 255.677 0.793019 -2.93164 0
M  V30 2765 H 253.262 0.3263 -1.45793 0
M  V30 2766 H 255.144 3.23492 -2.70057 0
M  V30 2767 H 253.819 2.82726 -1.57631 0
M  V30 2768 H 252.726 1.45744 -3.44542 0
M  V30 2769 H 254.059 1.93566 -4.52541 0
M  V30 2770 N 255.711 1.52812 0.385517 0
M  V30 2771 C 256.957 1.68275 1.13188 0
M  V30 2772 C 257.29 0.423179 1.89533 0
M  V30 2773 O 256.565 -0.579113 1.85679 0
M  V30 2774 C 256.848 2.92001 2.1073 0
M  V30 2775 C 256.701 4.28067 1.38125 0
M  V30 2776 C 258.02 3.11283 3.11113 0
M  V30 2777 H 255.139 0.612352 0.410115 0
M  V30 2778 H 257.781 1.85415 0.414869 0
M  V30 2779 H 255.931 2.77519 2.71874 0
M  V30 2780 H 257.603 4.54324 0.799187 0
M  V30 2781 H 255.846 4.28388 0.683092 0
M  V30 2782 H 256.517 5.10733 2.09417 0
M  V30 2783 H 258.993 3.2482 2.6006 0
M  V30 2784 H 257.869 3.99325 3.76605 0
M  V30 2785 H 258.13 2.25656 3.80173 0
M  V30 2786 N 257.189 -0.644168 1.43834 0
M  V30 2787 C 258.438 -1.39985 1.45214 0
M  V30 2788 C 258.751 -1.95421 0.0835494 0
M  V30 2789 O 259.957 -2.71488 -0.0251748 0
M  V30 2790 C 258.413 -2.53384 2.55587 0
M  V30 2791 C 258.021 -2.04517 3.98594 0
M  V30 2792 C 259.765 -3.30685 2.66172 0
M  V30 2793 C 257.672 -3.1518 5.00416 0
M  V30 2794 H 256.602 -0.526005 0.540218 0
M  V30 2795 H 259.253 -0.694367 1.69855 0
M  V30 2796 H 257.635 -3.26446 2.24163 0
M  V30 2797 H 258.809 -1.38405 4.39523 0
M  V30 2798 H 257.124 -1.40068 3.92135 0
M  V30 2799 H 259.721 -4.13158 3.39418 0
M  V30 2800 H 260.064 -3.79312 1.71546 0
M  V30 2801 H 260.597 -2.64708 2.96942 0
M  V30 2802 H 257.336 -2.71511 5.96625 0
M  V30 2803 H 256.856 -3.79974 4.64091 0
M  V30 2804 H 258.535 -3.80166 5.23529 0
M  V30 2805 N 258.668 -1.30515 -0.883378 0
M  V30 2806 C 259.893 -1.22487 -1.67367 0
M  V30 2807 C 260.318 0.208767 -1.86938 0
M  V30 2808 O 259.676 1.15015 -1.40148 0
M  V30 2809 C 259.724 -1.96041 -3.02655 0
M  V30 2810 O 258.828 -1.28859 -3.91751 0
M  V30 2811 H 258.169 -0.423573 -0.511353 0
M  V30 2812 H 260.699 -1.72362 -1.10239 0
M  V30 2813 H 260.709 -2.05124 -3.52687 0
M  V30 2814 H 259.384 -3.00307 -2.8773 0
M  V30 2815 H 257.961 -1.28141 -3.50192 0
M  V30 2816 N 260.146 1.09593 -1.13257 0
M  V30 2817 C 261.371 1.8604 -0.916732 0
M  V30 2818 C 261.796 1.80504 0.529146 0
M  V30 2819 O 261.154 1.18127 1.37534 0
M  V30 2820 C 261.202 3.32017 -1.40703 0
M  V30 2821 O 260.306 4.08141 -0.591153 0
M  V30 2822 H 259.647 0.576943 -0.328683 0
M  V30 2823 H 262.177 1.38405 -1.50682 0
M  V30 2824 H 262.187 3.82865 -1.4099 0
M  V30 2825 H 260.862 3.35361 -2.45979 0
M  V30 2826 H 259.439 3.67084 -0.656005 0
M  V30 2827 N 261.624 0.925811 1.2754 0
M  V30 2828 C 262.901 0.483726 1.89524 0
M  V30 2829 C 263.281 -1.03809 1.83812 0
M  V30 2830 O 262.629 -1.89143 1.28207 0
M  V30 2831 C 262.839 1.02769 3.33526 0
M  V30 2832 C 264.187 1.08703 4.10449 0
M  V30 2833 O 265.211 0.977175 3.42534 0
M  V30 2834 O 264.07 1.25599 5.31871 0
M  V30 2835 H 261.164 0.15529 0.812289 0
M  V30 2836 H 263.71 1.01738 1.35822 0
M  V30 2837 H 262.482 2.07155 3.31967 0
M  V30 2838 H 262.105 0.475567 3.94746 0
M  V30 2839 N 263.102 -1.41638 0.69111 0
M  V30 2840 C 264.05 -2.32597 0.0115199 0
M  V30 2841 C 265.044 -1.5072 -0.773296 0
M  V30 2842 O 266.25 -1.66685 -0.67942 0
M  V30 2843 H 262.625 -0.751849 -0.0150746 0
M  V30 2844 H 264.596 -2.87593 0.795791 0
M  V30 2845 C 263.345 -3.35467 -0.914172 0
M  V30 2846 H 262.668 -3.9852 -0.319687 0
M  V30 2847 H 264.108 -4.01662 -1.35808 0
M  V30 2848 C 262.567 -2.69004 -2.02826 0
M  V30 2849 O 263.097 -2.53444 -3.11655 0
M  V30 2850 N 261.303 -2.2777 -1.80469 0
M  V30 2851 H 260.85 -2.40626 -0.919615 0
M  V30 2852 H 260.808 -1.83635 -2.55197 0
M  V30 2853 N 264.58 -0.43555 -1.51462 0
M  V30 2854 C 265.51 0.367376 -2.30592 0
M  V30 2855 C 266.491 1.02263 -1.35928 0
M  V30 2856 O 267.676 1.02661 -1.64847 0
M  V30 2857 C 264.806 1.46983 -3.14664 0
M  V30 2858 C 263.76 0.938161 -4.17591 0
M  V30 2859 C 263.086 2.13622 -4.90173 0
M  V30 2860 C 264.386 -0.0261621 -5.22293 0
M  V30 2861 H 266.08 -0.292969 -2.97963 0
M  V30 2862 H 263.626 -0.14234 -1.43295 0
M  V30 2863 H 265.579 2.03873 -3.688 0
M  V30 2864 H 264.303 2.15843 -2.4511 0
M  V30 2865 H 262.962 0.391481 -3.64504 0
M  V30 2866 H 262.61 2.81098 -4.17124 0
M  V30 2867 H 262.31 1.78688 -5.59772 0
M  V30 2868 H 263.834 2.7107 -5.47132 0
M  V30 2869 H 265.248 0.452384 -5.71512 0
M  V30 2870 H 263.645 -0.287992 -5.99409 0
M  V30 2871 H 264.715 -0.963391 -4.75233 0
M  V30 2872 N 266.058 1.56714 -0.166846 0
M  V30 2873 C 266.99 2.14914 0.796537 0
M  V30 2874 C 268.003 1.10357 1.19688 0
M  V30 2875 O 269.192 1.37561 1.13751 0
M  V30 2876 C 266.292 2.67326 2.08303 0
M  V30 2877 C 265.465 3.96493 1.84696 0
M  V30 2878 C 264.524 4.34014 2.97521 0
M  V30 2879 O 263.55 5.01973 2.6835 0
M  V30 2880 N 264.752 3.95208 4.25196 0
M  V30 2881 H 267.517 2.98205 0.299006 0
M  V30 2882 H 265.078 1.61892 0.0160839 0
M  V30 2883 H 267.07 2.89428 2.82867 0
M  V30 2884 H 265.64 1.88649 2.4926 0
M  V30 2885 H 264.86 3.82814 0.940602 0
M  V30 2886 H 266.148 4.8086 1.66285 0
M  V30 2887 H 265.546 3.40487 4.51758 0
M  V30 2888 H 264.103 4.2232 4.96477 0
M  V30 2889 N 267.536 -0.106894 1.57237 0
M  V30 2890 C 268.466 -1.13148 2.04254 0
M  V30 2891 C 269.447 -1.42476 0.929224 0
M  V30 2892 O 270.632 -1.52709 1.19973 0
M  V30 2893 C 267.762 -2.4545 2.45706 0
M  V30 2894 C 266.716 -2.30558 3.60592 0
M  V30 2895 C 266.042 -3.67931 3.87983 0
M  V30 2896 C 267.342 -1.75597 4.91897 0
M  V30 2897 H 269.036 -0.740374 2.90101 0
M  V30 2898 H 266.582 -0.354696 1.39563 0
M  V30 2899 H 268.535 -3.17389 2.77205 0
M  V30 2900 H 267.259 -2.86475 1.56843 0
M  V30 2901 H 265.918 -1.61067 3.29322 0
M  V30 2902 H 265.566 -4.06462 2.96306 0
M  V30 2903 H 265.266 -3.58817 4.65322 0
M  V30 2904 H 266.79 -4.41356 4.21945 0
M  V30 2905 H 268.204 -2.37364 5.21854 0
M  V30 2906 H 266.601 -1.77272 5.73319 0
M  V30 2907 H 267.671 -0.714451 4.79608 0
M  V30 2908 N 269.014 -1.53014 -0.377408 0
M  V30 2909 C 270.425 -1.60438 -0.954798 0
M  V30 2910 C 270.776 -0.464418 -1.90624 0
M  V30 2911 O 269.901 0.41087 -2.12464 0
M  V30 2912 C 270.496 -2.90797 -1.73847 0
M  V30 2913 C 269.055 -3.00595 -2.26538 0
M  V30 2914 C 268.202 -2.55645 -1.07429 0
M  V30 2915 H 271.153 -1.57926 -0.156575 0
M  V30 2916 H 271.174 -2.77935 -2.5987 0
M  V30 2917 H 270.686 -3.73746 -1.04574 0
M  V30 2918 H 268.787 -2.22208 -2.99089 0
M  V30 2919 H 268.9 -4.05456 -2.5523 0
M  V30 2920 H 267.264 -2.10239 -1.43777 0
M  V30 2921 H 268.047 -3.41 -0.396728 0
M  V30 2922 N 270.492 0.636531 -1.44174 0
M  V30 2923 C 271.402 1.77754 -1.53103 0
M  V30 2924 C 272.418 1.68928 -0.417034 0
M  V30 2925 O 273.594 1.89801 -0.6736 0
M  V30 2926 C 270.659 3.14115 -1.46741 0
M  V30 2927 C 269.72 3.34612 -2.68948 0
M  V30 2928 C 268.953 4.64467 -2.6288 0
M  V30 2929 O 269.176 5.44919 -1.68581 0
M  V30 2930 O 268.11 4.87049 -3.53648 0
M  V30 2931 H 271.936 1.73174 -2.49489 0
M  V30 2932 H 269.521 0.79709 -1.2636 0
M  V30 2933 H 271.403 3.95412 -1.45696 0
M  V30 2934 H 270.078 3.19249 -0.534975 0
M  V30 2935 H 268.985 2.53014 -2.75562 0
M  V30 2936 H 270.318 3.34336 -3.61221 0
M  V30 2937 N 271.97 1.30982 0.876444 0
M  V30 2938 C 272.9 1.20668 1.99903 0
M  V30 2939 C 273.881 0.095354 1.69833 0
M  V30 2940 O 275.066 0.27885 1.92188 0
M  V30 2941 C 272.196 0.90655 3.3526 0
M  V30 2942 C 271.15 1.97675 3.79617 0
M  V30 2943 C 270.476 1.52943 5.1236 0
M  V30 2944 C 271.776 3.389 3.97422 0
M  V30 2945 H 273.47 2.14586 2.0879 0
M  V30 2946 H 271.016 1.03308 1.00317 0
M  V30 2947 H 272.969 0.821025 4.13324 0
M  V30 2948 H 271.693 -0.0682969 3.26529 0
M  V30 2949 H 270.352 2.05205 3.03787 0
M  V30 2950 H 270 0.54262 5.00065 0
M  V30 2951 H 269.7 2.24532 5.43009 0
M  V30 2952 H 271.224 1.45786 5.92941 0
M  V30 2953 H 272.638 3.34081 4.659 0
M  V30 2954 H 271.035 4.0865 4.3946 0
M  V30 2955 H 272.105 3.80163 3.01006 0
M  V30 2956 N 273.449 -1.08991 1.13837 0
M  V30 2957 C 274.396 -2.15748 0.819835 0
M  V30 2958 C 275.366 -1.64636 -0.220026 0
M  V30 2959 O 276.551 -1.90582 -0.0912757 0
M  V30 2960 C 273.691 -3.4382 0.296913 0
M  V30 2961 C 272.804 -4.0881 1.39636 0
M  V30 2962 C 271.939 -5.24655 0.831314 0
M  V30 2963 C 270.978 -5.81575 1.90886 0
M  V30 2964 N 270.115 -6.88774 1.36142 0
M  V30 2965 H 274.955 -2.42338 1.73426 0
M  V30 2966 H 272.492 -1.18935 0.865613 0
M  V30 2967 H 274.45 -4.17193 -0.0244339 0
M  V30 2968 H 273.08 -3.17535 -0.580628 0
M  V30 2969 H 272.132 -3.33258 1.83422 0
M  V30 2970 H 273.444 -4.47141 2.21058 0
M  V30 2971 H 272.598 -6.04942 0.461515 0
M  V30 2972 H 271.337 -4.87698 -0.013932 0
M  V30 2973 H 270.342 -4.99946 2.28767 0
M  V30 2974 H 271.567 -6.20592 2.75758 0
M  V30 2975 H 269.513 -6.53788 0.538254 0
M  V30 2976 H 269.43 -7.25898 2.11208 0
M  V30 2977 H 270.698 -7.72806 1.01933 0
M  V30 2978 N 274.927 -0.932562 -1.27047 0
M  V30 2979 C 275.859 -0.392734 -2.2581 0
M  V30 2980 C 276.872 0.479241 -1.55586 0
M  V30 2981 O 278.061 0.291078 -1.76111 0
M  V30 2982 C 275.161 0.455456 -3.35826 0
M  V30 2983 C 274.334 -0.398355 -4.35582 0
M  V30 2984 C 273.393 0.387985 -5.24768 0
M  V30 2985 O 272.419 -0.206003 -5.68827 0
M  V30 2986 N 273.621 1.68664 -5.55457 0
M  V30 2987 H 276.386 -1.24173 -2.72766 0
M  V30 2988 H 273.947 -0.800511 -1.40725 0
M  V30 2989 H 275.939 0.988692 -3.92437 0
M  V30 2990 H 274.509 1.20522 -2.88432 0
M  V30 2991 H 273.729 -1.11286 -3.78165 0
M  V30 2992 H 275.017 -0.981889 -4.99236 0
M  V30 2993 H 274.415 2.19147 -5.21528 0
M  V30 2994 H 272.972 2.1663 -6.14748 0
M  V30 2995 N 276.405 1.4127 -0.698611 0
M  V30 2996 C 277.352 2.30773 -0.0352094 0
M  V30 2997 C 278.322 1.47273 0.768111 0
M  V30 2998 O 279.507 1.76053 0.735524 0
M  V30 2999 C 276.647 3.33346 0.893 0
M  V30 3000 C 275.76 4.31924 0.0809695 0
M  V30 3001 C 274.895 5.21566 1.0071 0
M  V30 3002 C 273.934 6.11811 0.188155 0
M  V30 3003 N 273.071 6.93926 1.06825 0
M  V30 3004 H 277.911 2.86943 -0.804207 0
M  V30 3005 H 275.448 1.4132 -0.408294 0
M  V30 3006 H 277.406 3.91368 1.44523 0
M  V30 3007 H 276.036 2.78719 1.62836 0
M  V30 3008 H 275.088 3.75825 -0.588224 0
M  V30 3009 H 276.4 4.95716 -0.553801 0
M  V30 3010 H 275.554 5.84437 1.62845 0
M  V30 3011 H 274.293 4.58008 1.67572 0
M  V30 3012 H 273.298 5.47986 -0.446254 0
M  V30 3013 H 274.523 6.77425 -0.476716 0
M  V30 3014 H 272.469 6.32973 1.72283 0
M  V30 3015 H 272.386 7.54416 0.489123 0
M  V30 3016 H 273.654 7.61262 1.67632 0
M  V30 3017 N 277.883 0.443576 1.51229 0
M  V30 3018 C 279.108 -0.121648 2.07043 0
M  V30 3019 C 279.533 -1.35156 1.30823 0
M  V30 3020 O 278.891 -1.7793 0.347934 0
M  V30 3021 C 278.939 -0.41624 3.5819 0
M  V30 3022 O 278.043 -1.50163 3.8409 0
M  V30 3023 H 277.384 0.000871367 0.663999 0
M  V30 3024 H 279.914 0.626706 1.94765 0
M  V30 3025 H 279.924 -0.664867 4.02546 0
M  V30 3026 H 278.599 0.482653 4.1309 0
M  V30 3027 H 277.176 -1.24248 3.51592 0
M  V30 3028 N 279.361 -1.56624 0.175154 0
M  V30 3029 C 280.586 -2.01813 -0.478137 0
M  V30 3030 C 281.011 -1.05457 -1.55757 0
M  V30 3031 O 280.369 -0.0347439 -1.81267 0
M  V30 3032 C 280.417 -3.45581 -1.02987 0
M  V30 3033 O 279.521 -3.52305 -2.14371 0
M  V30 3034 H 278.862 -0.65413 -0.114059 0
M  V30 3035 H 281.392 -2.02673 0.280173 0
M  V30 3036 H 281.402 -3.84965 -1.35151 0
M  V30 3037 H 280.077 -4.1521 -0.239556 0
M  V30 3038 H 278.654 -3.24783 -1.83222 0
M  V30 3039 N 280.839 0.0985539 -1.57292 0
M  V30 3040 C 281.787 1.1387 -2.02821 0
M  V30 3041 C 282.781 1.41676 -0.928666 0
M  V30 3042 O 283.987 1.41398 -1.11385 0
M  V30 3043 H 280.362 0.384419 -0.646317 0
M  V30 3044 H 282.333 0.728347 -2.89375 0
M  V30 3045 C 281.082 2.45166 -2.46554 0
M  V30 3046 H 280.405 2.24613 -3.3074 0
M  V30 3047 H 281.845 3.16456 -2.8219 0
M  V30 3048 C 280.304 3.09216 -1.33742 0
M  V30 3049 O 280.834 3.96163 -0.66464 0
M  V30 3050 N 279.04 2.69413 -1.08928 0
M  V30 3051 H 278.587 1.98801 -1.63817 0
M  V30 3052 H 278.545 3.12594 -0.336458 0
M  V30 3053 N 282.317 1.53212 0.369288 0
M  V30 3054 C 283.542 1.73423 1.1375 0
M  V30 3055 C 283.967 0.460404 1.82378 0
M  V30 3056 O 283.325 -0.585298 1.71592 0
M  V30 3057 C 283.373 2.89769 2.1463 0
M  V30 3058 O 282.477 2.58119 3.21634 0
M  V30 3059 H 281.818 0.576061 0.330227 0
M  V30 3060 H 284.348 2.00083 0.427547 0
M  V30 3061 H 284.358 3.15829 2.58294 0
M  V30 3062 H 283.033 3.8217 1.64071 0
M  V30 3063 H 281.61 2.42864 2.82969 0
M  V30 3064 N 283.795 -0.628877 1.44509 0
M  V30 3065 C 285.211 -0.947305 1.28446 0
M  V30 3066 C 285.411 -2.00275 0.221872 0
M  V30 3067 O 284.467 -2.49447 -0.391471 0
M  V30 3068 C 285.78 -1.40843 2.65676 0
M  V30 3069 C 287.328 -1.52379 2.73404 0
M  V30 3070 C 287.803 -2.01875 4.11109 0
M  V30 3071 N 289.294 -2.09142 4.13296 0
M  V30 3072 C 290.029 -2.48615 5.16699 0
M  V30 3073 N 289.525 -2.87209 6.30462 0
M  V30 3074 N 291.318 -2.48768 5.04054 0
M  V30 3075 H 283.469 0.0690977 2.12288 0
M  V30 3076 H 285.732 -0.0317164 0.947469 0
M  V30 3077 H 285.438 -0.707206 3.44516 0
M  V30 3078 H 285.312 -2.37902 2.92716 0
M  V30 3079 H 287.699 -2.21598 1.9488 0
M  V30 3080 H 287.78 -0.536898 2.50102 0
M  V30 3081 H 287.424 -1.3325 4.90109 0
M  V30 3082 H 287.354 -3.0144 4.31789 0
M  V30 3083 H 289.845 -1.81991 3.31191 0
M  V30 3084 H 290.158 -3.16149 7.05174 0
M  V30 3085 H 288.503 -2.84955 6.33897 0
M  V30 3086 H 291.694 -2.18009 4.14234 0
M  V30 3087 H 291.867 -2.79207 5.84763 0
M  V30 3088 N 285.273 -1.31445 -0.869486 0
M  V30 3089 C 286.22 -1.19135 -1.97675 0
M  V30 3090 C 287.19 -0.0770266 -1.65921 0
M  V30 3091 O 288.375 -0.249972 -1.89155 0
M  V30 3092 C 285.515 -0.905149 -3.33018 0
M  V30 3093 C 284.628 -2.10285 -3.77365 0
M  V30 3094 C 283.763 -1.75339 -5.01427 0
M  V30 3095 C 282.802 -2.91515 -5.38224 0
M  V30 3096 N 281.939 -2.56762 -6.53466 0
M  V30 3097 H 286.779 -2.13853 -2.07535 0
M  V30 3098 H 284.316 -1.06379 -1.01597 0
M  V30 3099 H 286.274 -0.719765 -4.10944 0
M  V30 3100 H 284.904 0.00519624 -3.228 0
M  V30 3101 H 283.956 -2.39899 -2.95216 0
M  V30 3102 H 285.268 -2.97237 -4.00564 0
M  V30 3103 H 284.422 -1.53266 -5.87022 0
M  V30 3104 H 283.161 -0.855801 -4.80133 0
M  V30 3105 H 282.166 -3.14237 -4.51149 0
M  V30 3106 H 283.391 -3.81985 -5.61484 0
M  V30 3107 H 281.337 -1.69526 -6.33717 0
M  V30 3108 H 281.254 -3.37243 -6.76612 0
M  V30 3109 H 282.522 -2.38083 -7.42251 0
M  V30 3110 N 286.751 1.08385 -1.14413 0
M  V30 3111 C 287.698 2.15311 -0.831265 0
M  V30 3112 C 288.668 1.64751 0.211292 0
M  V30 3113 O 289.853 1.90627 0.0811674 0
M  V30 3114 C 286.993 3.43658 -0.315143 0
M  V30 3115 C 286.106 4.08064 -1.41802 0
M  V30 3116 C 285.241 5.24207 -0.859126 0
M  V30 3117 C 284.28 5.80554 -1.93967 0
M  V30 3118 N 283.417 6.88042 -1.39793 0
M  V30 3119 H 288.257 2.41415 -1.74708 0
M  V30 3120 H 285.794 1.18474 -0.871909 0
M  V30 3121 H 287.752 4.172 0.00230884 0
M  V30 3122 H 286.382 3.17839 0.56378 0
M  V30 3123 H 285.434 3.3228 -1.85187 0
M  V30 3124 H 286.746 4.45962 -2.23427 0
M  V30 3125 H 285.9 6.04689 -0.49359 0
M  V30 3126 H 284.639 4.87699 -0.011932 0
M  V30 3127 H 283.644 4.98725 -2.31415 0
M  V30 3128 H 284.869 6.19121 -2.79046 0
M  V30 3129 H 282.815 6.53493 -0.572919 0
M  V30 3130 H 282.732 7.24767 -2.15054 0
M  V30 3131 H 284 7.72255 -1.0603 0
M  V30 3132 N 288.23 0.939286 1.26551 0
M  V30 3133 C 289.646 0.641304 1.46149 0
M  V30 3134 C 289.846 -0.805964 1.84679 0
M  V30 3135 O 288.902 -1.58278 1.96734 0
M  V30 3136 C 290.215 1.6011 2.54529 0
M  V30 3137 C 291.763 1.6106 2.68382 0
M  V30 3138 C 292.238 2.55765 3.79932 0
M  V30 3139 N 293.729 2.5404 3.87322 0
M  V30 3140 C 294.464 3.24004 4.73085 0
M  V30 3141 N 293.96 4.03388 5.63249 0
M  V30 3142 N 295.753 3.12965 4.66914 0
M  V30 3143 H 287.904 1.87478 0.998285 0
M  V30 3144 H 290.167 0.805559 0.499779 0
M  V30 3145 H 289.873 2.63412 2.33039 0
M  V30 3146 H 289.747 1.35171 3.52149 0
M  V30 3147 H 292.134 0.584835 2.89247 0
M  V30 3148 H 292.215 1.90053 1.71212 0
M  V30 3149 H 291.859 3.58458 3.5982 0
M  V30 3150 H 291.789 2.24063 4.76554 0
M  V30 3151 H 294.28 1.96396 3.22858 0
M  V30 3152 H 294.593 4.5373 6.25579 0
M  V30 3153 H 292.938 4.07489 5.63008 0
M  V30 3154 H 296.129 2.50432 3.95476 0
M  V30 3155 H 296.302 3.67759 5.33533 0
M  V30 3156 N 289.708 -1.40897 0.706093 0
M  V30 3157 C 290.933 -2.05895 0.249435 0
M  V30 3158 C 291.358 -1.52823 -1.09666 0
M  V30 3159 O 290.716 -0.659589 -1.68876 0
M  V30 3160 C 290.764 -3.59872 0.22904 0
M  V30 3161 O 289.868 -4.04708 -0.792784 0
M  V30 3162 H 289.209 -0.653206 0.119241 0
M  V30 3163 H 291.739 -1.80471 0.96391 0
M  V30 3164 H 291.749 -4.07951 0.0634791 0
M  V30 3165 H 290.424 -3.97866 1.21141 0
M  V30 3166 H 289.001 -3.68111 -0.59572 0
M  V30 3167 N 291.186 -0.45159 -1.50991 0
M  V30 3168 C 292.414 0.108334 -2.06616 0
M  V30 3169 C 292.829 1.35224 -1.31757 0
M  V30 3170 O 292.186 1.78475 -0.381174 0
M  V30 3171 C 292.237 0.41619 -3.59096 0
M  V30 3172 O 291.958 -0.778361 -4.3113 0
M  V30 3173 C 293.459 1.02523 -4.31282 0
M  V30 3174 H 290.679 0.00159995 -0.670998 0
M  V30 3175 H 293.223 -0.634771 -1.94399 0
M  V30 3176 H 291.378 1.10921 -3.71181 0
M  V30 3177 H 291.792 -0.511181 -5.22003 0
M  V30 3178 H 293.266 1.19053 -5.39009 0
M  V30 3179 H 293.743 2.01013 -3.905 0
M  V30 3180 H 294.349 0.371173 -4.23677 0
M  V30 3181 N 292.664 1.56529 -0.183458 0
M  V30 3182 C 293.889 2.02064 0.467428 0
M  V30 3183 C 294.314 1.06282 1.55196 0
M  V30 3184 O 293.672 0.0443565 1.81246 0
M  V30 3185 C 293.72 3.46122 1.01153 0
M  V30 3186 O 292.824 3.53437 2.12499 0
M  V30 3187 H 292.165 0.654726 0.110588 0
M  V30 3188 H 294.695 2.02521 -0.290917 0
M  V30 3189 H 294.705 3.85676 1.33108 0
M  V30 3190 H 293.38 4.15331 0.217533 0
M  V30 3191 H 291.957 3.2575 1.81497 0
M  V30 3192 N 294.142 -0.090211 1.57342 0
M  V30 3193 C 295.105 -1.09335 2.01441 0
M  V30 3194 C 296.105 -1.32666 0.908641 0
M  V30 3195 O 297.295 -1.28697 1.174 0
M  V30 3196 C 294.427 -2.44136 2.3793 0
M  V30 3197 H 295.62 -0.713662 2.91285 0
M  V30 3198 H 293.173 -0.335404 1.52659 0
M  V30 3199 H 293.908 -2.86972 1.51055 0
M  V30 3200 H 293.693 -2.28548 3.18603 0
M  V30 3201 H 295.183 -3.16277 2.72688 0
M  V30 3202 N 295.62 -1.53406 -0.361157 0
M  V30 3203 C 296.868 -1.69467 -1.10115 0
M  V30 3204 C 297.189 -0.451352 -1.89705 0
M  V30 3205 O 296.459 0.534636 -1.88463 0
M  V30 3206 H 295.039 -0.624749 -0.409508 0
M  V30 3207 H 297.701 -1.90609 -0.406699 0
M  V30 3208 H 296.797 -2.55774 -1.78847 0
M  V30 3209 N 297.098 0.621204 -1.44841 0
M  V30 3210 C 298.509 1.20298 -1.42777 0
M  V30 3211 C 298.86 1.95639 -0.148259 0
M  V30 3212 O 297.985 2.02955 0.750892 0
M  V30 3213 C 298.58 2.1882 -2.58657 0
M  V30 3214 C 297.139 2.72403 -2.59756 0
M  V30 3215 C 296.286 1.4757 -2.34773 0
M  V30 3216 H 299.237 0.411297 -1.53278 0
M  V30 3217 H 299.258 3.01607 -2.31977 0
M  V30 3218 H 298.77 1.63957 -3.51766 0
M  V30 3219 H 296.871 3.31242 -1.70615 0
M  V30 3220 H 296.984 3.17765 -3.58556 0
M  V30 3221 H 295.348 1.76051 -1.8406 0
M  V30 3222 H 296.131 0.945954 -3.3001 0
M  V30 3223 N 298.576 1.31904 0.862503 0
M  V30 3224 C 299.804 1.24998 1.64873 0
M  V30 3225 C 300.219 -0.183425 1.87907 0
M  V30 3226 O 299.576 -1.11794 1.44251 0
M  V30 3227 C 299.627 1.99829 3.01248 0
M  V30 3228 O 299.348 3.37575 2.79239 0
M  V30 3229 C 300.849 1.99852 3.95694 0
M  V30 3230 H 298.069 0.431599 0.513773 0
M  V30 3231 H 300.613 1.73901 1.07604 0
M  V30 3232 H 298.768 1.54668 3.55185 0
M  V30 3233 H 299.182 3.75776 3.65914 0
M  V30 3234 H 300.656 2.56709 4.88676 0
M  V30 3235 H 301.133 0.982852 4.28062 0
M  V30 3236 H 301.739 2.44926 3.47694 0
M  V30 3237 N 300.054 -1.07777 1.14986 0
M  V30 3238 C 301.3 -1.80557 0.923422 0
M  V30 3239 C 301.633 -1.86298 -0.548337 0
M  V30 3240 O 300.908 -1.34354 -1.40639 0
M  V30 3241 C 301.191 -3.25839 1.53299 0
M  V30 3242 C 301.044 -3.28269 3.07505 0
M  V30 3243 C 302.363 -4.22991 1.21518 0
M  V30 3244 H 299.482 -0.655493 0.336894 0
M  V30 3245 H 302.124 -1.26144 1.42083 0
M  V30 3246 H 300.274 -3.72306 1.10999 0
M  V30 3247 H 301.946 -2.90079 3.58681 0
M  V30 3248 H 300.189 -2.67355 3.4162 0
M  V30 3249 H 300.86 -4.30691 3.45266 0
M  V30 3250 H 303.336 -3.84894 1.581 0
M  V30 3251 H 302.212 -5.22945 1.66793 0
M  V30 3252 H 302.473 -4.41904 0.131505 0
M  V30 3253 N 301.532 -0.945985 -1.26051 0
M  V30 3254 C 302.943 -0.638096 -1.75457 0
M  V30 3255 C 303.294 0.846672 -1.76991 0
M  V30 3256 O 302.419 1.66262 -1.38513 0
M  V30 3257 C 303.014 -1.15157 -3.18629 0
M  V30 3258 C 301.573 -0.894004 -3.65629 0
M  V30 3259 C 300.72 -1.29967 -2.44957 0
M  V30 3260 H 303.671 -1.12376 -1.1206 0
M  V30 3261 H 303.692 -0.507615 -3.77099 0
M  V30 3262 H 303.204 -2.23222 -3.1748 0
M  V30 3263 H 301.305 0.172057 -3.72203 0
M  V30 3264 H 301.418 -1.52439 -4.54202 0
M  V30 3265 H 299.782 -0.718078 -2.44368 0
M  V30 3266 H 300.565 -2.38935 -2.46505 0
M  V30 3267 N 303.011 1.40521 -0.713556 0
M  V30 3268 C 304.288 1.94775 -0.17943 0
M  V30 3269 C 304.668 1.65184 1.31444 0
M  V30 3270 O 304.016 0.968429 2.06963 0
M  V30 3271 C 304.226 3.45543 -0.489986 0
M  V30 3272 C 305.574 4.22442 -0.427536 0
M  V30 3273 O 306.598 3.53644 -0.425929 0
M  V30 3274 O 305.457 5.4501 -0.403292 0
M  V30 3275 H 302.551 0.826606 -0.0255192 0
M  V30 3276 H 305.097 1.5014 -0.790949 0
M  V30 3277 H 303.869 3.60432 -1.5233 0
M  V30 3278 H 303.492 3.97311 0.151598 0
M  V30 3279 N 304.489 0.459591 1.5075 0
M  V30 3280 C 305.905 0.113092 1.59199 0
M  V30 3281 C 306.105 -1.37951 1.46874 0
M  V30 3282 O 305.161 -2.15168 1.32132 0
M  V30 3283 C 306.474 0.653043 2.93523 0
M  V30 3284 C 308.022 0.615449 3.0689 0
M  V30 3285 C 308.497 1.13275 4.43771 0
M  V30 3286 N 309.988 1.09167 4.50152 0
M  V30 3287 C 310.723 1.46256 5.54434 0
M  V30 3288 N 310.219 1.90739 6.66026 0
M  V30 3289 N 312.012 1.37932 5.44914 0
M  V30 3290 H 304.163 1.43049 1.57005 0
M  V30 3291 H 306.426 0.590861 0.741341 0
M  V30 3292 H 306.132 1.69822 3.07983 0
M  V30 3293 H 306.006 0.0902132 3.77092 0
M  V30 3294 H 308.393 -0.420793 2.92084 0
M  V30 3295 H 308.474 1.21495 2.25106 0
M  V30 3296 H 308.118 2.16757 4.59324 0
M  V30 3297 H 308.048 0.509576 5.24129 0
M  V30 3298 H 310.539 0.76528 3.7007 0
M  V30 3299 H 310.852 2.17218 7.41644 0
M  V30 3300 H 309.197 1.94683 6.67176 0
M  V30 3301 H 312.388 1.0303 4.56621 0
M  V30 3302 H 312.561 1.67164 6.26067 0
M  V30 3303 N 305.967 -1.56429 0.191757 0
M  V30 3304 C 307.244 -1.89224 -0.495332 0
M  V30 3305 C 307.624 -1.10478 -1.79883 0
M  V30 3306 O 306.972 -0.204852 -2.2758 0
M  V30 3307 C 307.182 -3.41548 -0.717367 0
M  V30 3308 C 308.53 -4.11711 -1.03823 0
M  V30 3309 O 309.554 -3.4698 -0.805204 0
M  V30 3310 O 308.413 -5.2611 -1.47887 0
M  V30 3311 H 305.507 -0.785788 -0.25781 0
M  V30 3312 H 308.053 -1.68111 0.231721 0
M  V30 3313 H 306.825 -3.90772 0.203287 0
M  V30 3314 H 306.448 -3.68342 -1.497 0
M  V30 3315 N 307.445 0.0818655 -1.57387 0
M  V30 3316 C 308.393 1.11712 -2.04018 0
M  V30 3317 C 309.387 1.40683 -0.94364 0
M  V30 3318 O 310.593 1.40209 -1.12878 0
M  V30 3319 H 306.968 0.377542 -0.650358 0
M  V30 3320 H 308.939 0.697614 -2.90131 0
M  V30 3321 C 307.688 2.42537 -2.49141 0
M  V30 3322 H 307.011 2.21092 -3.33104 0
M  V30 3323 H 308.451 3.13446 -2.85531 0
M  V30 3324 C 306.91 3.0778 -1.37014 0
M  V30 3325 O 307.44 3.95436 -0.706621 0
M  V30 3326 N 305.646 2.68242 -1.11779 0
M  V30 3327 H 305.193 1.97052 -1.65917 0
M  V30 3328 H 305.151 3.1222 -0.369594 0
M  V30 3329 N 308.923 1.53595 0.353017 0
M  V30 3330 C 310.2 1.61002 1.11075 0
M  V30 3331 C 310.58 0.425356 2.0677 0
M  V30 3332 O 309.928 -0.583267 2.2093 0
M  V30 3333 C 310.138 2.96631 1.83877 0
M  V30 3334 C 311.486 3.51653 2.37961 0
M  V30 3335 O 312.51 2.98743 1.93987 0
M  V30 3336 O 311.369 4.44177 3.18386 0
M  V30 3337 H 308.463 0.650825 0.510251 0
M  V30 3338 H 311.009 1.6594 0.35527 0
M  V30 3339 H 309.781 3.74293 1.14108 0
M  V30 3340 H 309.404 2.95242 2.66304 0
M  V30 3341 N 310.401 -0.613514 1.45168 0
M  V30 3342 C 311.649 -1.36997 1.48581 0
M  V30 3343 C 311.97 -1.94589 0.126545 0
M  V30 3344 O 311.24 -1.76816 -0.843372 0
M  V30 3345 H 309.82 -0.508558 0.547154 0
M  V30 3346 H 312.482 -0.720853 1.81079 0
M  V30 3347 H 311.578 -2.1924 2.22127 0
M  V30 3348 N 311.879 -1.3236 -0.855495 0
M  V30 3349 C 313.128 -1.22226 -1.60448 0
M  V30 3350 C 313.441 0.214733 -1.94418 0
M  V30 3351 O 314.647 0.437917 -2.67945 0
M  V30 3352 C 313.103 -2.14063 -2.89318 0
M  V30 3353 C 312.711 -3.62839 -2.62777 0
M  V30 3354 C 314.455 -2.12764 -3.67331 0
M  V30 3355 C 312.362 -4.4664 -3.87643 0
M  V30 3356 H 311.292 -0.453904 -0.602069 0
M  V30 3357 H 313.943 -1.57314 -0.944698 0
M  V30 3358 H 312.325 -1.71889 -3.5675 0
M  V30 3359 H 313.499 -4.1335 -2.03662 0
M  V30 3360 H 311.814 -3.66261 -1.98096 0
M  V30 3361 H 314.411 -2.72611 -4.59987 0
M  V30 3362 H 314.754 -1.11841 -4.00995 0
M  V30 3363 H 315.287 -2.53214 -3.06802 0
M  V30 3364 H 312.026 -5.48373 -3.5912 0
M  V30 3365 H 311.546 -4.0088 -4.46156 0
M  V30 3366 H 313.225 -4.59597 -4.55389 0
M  V30 3367 N 313.357 1.07166 -1.15556 0
M  V30 3368 C 314.768 1.6127 -0.940693 0
M  V30 3369 C 315.119 1.89251 0.517551 0
M  V30 3370 O 314.244 1.65937 1.38903 0
M  V30 3371 C 314.839 2.92993 -1.7012 0
M  V30 3372 C 313.398 3.43832 -1.53156 0
M  V30 3373 C 312.545 2.1786 -1.71558 0
M  V30 3374 H 315.496 0.90229 -1.30554 0
M  V30 3375 H 315.517 3.62007 -1.17181 0
M  V30 3376 H 315.029 2.72596 -2.76248 0
M  V30 3377 H 313.13 3.69307 -0.494294 0
M  V30 3378 H 313.243 4.19747 -2.30975 0
M  V30 3379 H 311.607 2.2765 -1.14225 0
M  V30 3380 H 312.39 1.99956 -2.79056 0
M  V30 3381 N 314.835 0.952656 1.25548 0
M  V30 3382 C 316.112 0.523818 1.88456 0
M  V30 3383 C 316.492 -0.998871 1.85973 0
M  V30 3384 O 315.84 -1.86381 1.3219 0
M  V30 3385 C 316.05 1.0982 3.31271 0
M  V30 3386 C 317.398 1.17385 4.08051 0
M  V30 3387 O 318.422 1.04961 3.40384 0
M  V30 3388 O 317.281 1.36852 5.29088 0
M  V30 3389 H 314.375 0.172485 0.808813 0
M  V30 3390 H 316.921 1.04596 1.33633 0
M  V30 3391 H 315.693 2.1415 3.27499 0
M  V30 3392 H 315.316 0.559191 3.93648 0
M  V30 3393 N 316.313 -1.40141 0.720998 0
M  V30 3394 C 317.538 -2.05618 0.271258 0
M  V30 3395 C 317.963 -1.53978 -1.08039 0
M  V30 3396 O 317.321 -0.677463 -1.68167 0
M  V30 3397 C 317.369 -3.59609 0.267197 0
M  V30 3398 O 316.473 -4.05526 -0.749814 0
M  V30 3399 H 315.814 -0.651904 0.126162 0
M  V30 3400 H 318.344 -1.79439 0.982997 0
M  V30 3401 H 318.354 -4.0786 0.106744 0
M  V30 3402 H 317.029 -3.96559 1.25354 0
M  V30 3403 H 315.606 -3.68722 -0.556644 0
M  V30 3404 N 317.792 -0.46758 -1.50504 0
M  V30 3405 C 318.722 0.318381 -2.31319 0
M  V30 3406 C 319.703 0.993564 -1.38066 0
M  V30 3407 O 320.888 0.991411 -1.66987 0
M  V30 3408 C 318.018 1.40275 -3.17711 0
M  V30 3409 C 316.972 0.849373 -4.19487 0
M  V30 3410 C 316.298 2.03177 -4.94594 0
M  V30 3411 C 317.598 -0.136942 -5.2212 0
M  V30 3412 H 319.292 -0.356106 -2.97275 0
M  V30 3413 H 316.838 -0.172703 -1.42961 0
M  V30 3414 H 318.791 1.96004 -3.73042 0
M  V30 3415 H 317.515 2.10596 -2.49634 0
M  V30 3416 H 316.174 0.314076 -3.65252 0
M  V30 3417 H 315.822 2.72187 -4.22993 0
M  V30 3418 H 315.522 1.66774 -5.63436 0
M  V30 3419 H 317.046 2.59403 -5.52759 0
M  V30 3420 H 318.46 0.331056 -5.72343 0
M  V30 3421 H 316.857 -0.41507 -5.98663 0
M  V30 3422 H 317.927 -1.06398 -4.73083 0
M  V30 3423 N 319.27 1.56325 -0.20005 0
M  V30 3424 C 320.18 2.22931 0.730668 0
M  V30 3425 C 321.196 1.22997 1.23076 0
M  V30 3426 O 322.372 1.55748 1.27689 0
M  V30 3427 C 319.437 2.87948 1.93098 0
M  V30 3428 C 318.498 4.03166 1.47497 0
M  V30 3429 C 317.731 4.65073 2.61807 0
M  V30 3430 O 317.954 4.25913 3.79413 0
M  V30 3431 O 316.888 5.54452 2.34237 0
M  V30 3432 H 320.714 3.03084 0.193391 0
M  V30 3433 H 318.299 1.49371 0.0294621 0
M  V30 3434 H 320.181 3.29063 2.6324 0
M  V30 3435 H 318.856 2.10771 2.45677 0
M  V30 3436 H 317.763 3.66664 0.742201 0
M  V30 3437 H 319.096 4.82022 0.995796 0
M  V30 3438 N 320.748 -0.0735177 1.57428 0
M  V30 3439 C 321.994 -0.774145 1.87443 0
M  V30 3440 C 322.327 -1.77311 0.792103 0
M  V30 3441 O 321.602 -1.93492 -0.197793 0
M  V30 3442 C 321.885 -1.48367 3.28115 0
M  V30 3443 C 321.738 -0.501227 4.46999 0
M  V30 3444 C 323.057 -2.429 3.66998 0
M  V30 3445 H 320.176 -0.279971 0.681752 0
M  V30 3446 H 322.818 -0.0373616 1.89963 0
M  V30 3447 H 320.968 -2.11171 3.26097 0
M  V30 3448 H 322.64 0.121468 4.6114 0
M  V30 3449 H 320.883 0.183593 4.33411 0
M  V30 3450 H 321.554 -1.03526 5.42205 0
M  V30 3451 H 324.03 -1.90175 3.70098 0
M  V30 3452 H 322.906 -2.89549 4.66318 0
M  V30 3453 H 323.167 -3.27628 2.96837 0
M  V30 3454 N 322.226 -1.5378 -0.344866 0
M  V30 3455 C 323.136 -1.84667 -1.4469 0
M  V30 3456 C 324.152 -0.736704 -1.57635 0
M  V30 3457 O 325.328 -1.02888 -1.73136 0
M  V30 3458 C 322.393 -2.04869 -2.79696 0
M  V30 3459 C 321.454 -3.28731 -2.76106 0
M  V30 3460 C 320.687 -3.4796 -4.04673 0
M  V30 3461 O 320.91 -2.71052 -5.01883 0
M  V30 3462 O 319.844 -4.41383 -4.09224 0
M  V30 3463 H 323.67 -2.78334 -1.21506 0
M  V30 3464 H 321.255 -1.39418 -0.536921 0
M  V30 3465 H 323.137 -2.19609 -3.59652 0
M  V30 3466 H 321.812 -1.14391 -3.02814 0
M  V30 3467 H 320.719 -3.19396 -1.94774 0
M  V30 3468 H 322.052 -4.19198 -2.57941 0
M  V30 3469 N 323.704 0.605807 -1.45491 0
M  V30 3470 C 324.952 1.36207 -1.49305 0
M  V30 3471 C 325.273 1.94519 -0.136863 0
M  V30 3472 O 324.543 1.77261 0.833983 0
M  V30 3473 H 323.123 0.50565 -0.549843 0
M  V30 3474 H 325.785 0.711239 -1.81459 0
M  V30 3475 H 324.881 2.18058 -2.23287 0
M  V30 3476 N 325.182 1.32811 0.848464 0
M  V30 3477 C 326.412 1.26556 1.63301 0
M  V30 3478 C 326.82 -0.1676 1.88456 0
M  V30 3479 O 326.163 -1.11713 1.45828 0
M  V30 3480 C 326.225 1.96202 3.01239 0
M  V30 3481 C 325.889 3.45528 2.99098 0
M  V30 3482 C 326.886 4.40903 2.75501 0
M  V30 3483 C 324.571 3.87558 3.19537 0
M  V30 3484 C 326.565 5.76282 2.72356 0
M  V30 3485 C 324.252 5.23044 3.16019 0
M  V30 3486 C 325.25 6.17217 2.92458 0
M  V30 3487 O 324.938 7.50223 2.88825 0
M  V30 3488 H 324.67 0.43771 0.515156 0
M  V30 3489 H 327.224 1.7559 1.0657 0
M  V30 3490 H 325.454 1.41746 3.59785 0
M  V30 3491 H 327.143 1.83573 3.62016 0
M  V30 3492 H 327.909 4.09756 2.5947 0
M  V30 3493 H 323.788 3.14674 3.369 0
M  V30 3494 H 327.332 6.4976 2.53886 0
M  V30 3495 H 323.229 5.53818 3.31596 0
M  V30 3496 H 323.997 7.59657 3.04735 0
M  V30 3497 N 326.66 -1.06551 1.16123 0
M  V30 3498 C 327.888 -1.83005 0.965237 0
M  V30 3499 C 328.303 -1.82423 -0.486542 0
M  V30 3500 O 327.66 -1.24152 -1.33763 0
M  V30 3501 C 327.711 -3.29733 1.48183 0
M  V30 3502 O 327.432 -3.30416 2.87674 0
M  V30 3503 C 328.933 -4.22926 1.32848 0
M  V30 3504 H 326.153 -0.577118 0.342309 0
M  V30 3505 H 328.697 -1.3445 1.54089 0
M  V30 3506 H 326.852 -3.75609 0.948517 0
M  V30 3507 H 327.266 -4.22149 3.11272 0
M  V30 3508 H 328.74 -5.23916 1.73827 0
M  V30 3509 H 329.217 -4.38346 0.273692 0
M  V30 3510 H 329.823 -3.82894 1.85127 0
M  V30 3511 N 328.138 -0.959301 -1.25041 0
M  V30 3512 C 329.384 -0.617525 -1.9317 0
M  V30 3513 C 329.717 0.843981 -1.74902 0
M  V30 3514 O 328.992 1.60615 -1.09696 0
M  V30 3515 C 329.275 -0.982736 -3.46431 0
M  V30 3516 C 329.128 -2.50032 -3.73904 0
M  V30 3517 C 330.447 -0.511176 -4.37121 0
M  V30 3518 H 327.566 -0.22582 -0.701552 0
M  V30 3519 H 330.208 -1.19679 -1.4757 0
M  V30 3520 H 328.358 -0.489806 -3.854 0
M  V30 3521 H 330.03 -3.06737 -3.44544 0
M  V30 3522 H 328.273 -2.93598 -3.19348 0
M  V30 3523 H 328.944 -2.70635 -4.81103 0
M  V30 3524 H 331.42 -0.934075 -4.0548 0
M  V30 3525 H 330.296 -0.795361 -5.43107 0
M  V30 3526 H 330.557 0.588834 -4.38161 0
M  V30 3527 N 329.616 1.39756 -0.72842 0
M  V30 3528 C 330.893 1.94574 -0.200079 0
M  V30 3529 C 331.273 1.66569 1.29684 0
M  V30 3530 O 330.621 0.990326 2.05924 0
M  V30 3531 C 330.831 3.45004 -0.526608 0
M  V30 3532 C 332.179 4.21965 -0.472318 0
M  V30 3533 O 333.203 3.53173 -0.463413 0
M  V30 3534 O 332.062 5.44552 -0.461075 0
M  V30 3535 H 329.156 0.826289 -0.0342851 0
M  V30 3536 H 331.702 1.49293 -0.806829 0
M  V30 3537 H 330.474 3.58796 -1.56144 0
M  V30 3538 H 330.097 3.97449 0.109449 0
M  V30 3539 N 331.094 0.475555 1.50254 0
M  V30 3540 C 332.34 -0.0780073 2.0265 0
M  V30 3541 C 332.673 -1.38968 1.35652 0
M  V30 3542 O 331.948 -1.8839 0.483691 0
M  V30 3543 C 332.231 -0.257161 3.59181 0
M  V30 3544 C 332.084 1.07585 4.36744 0
M  V30 3545 C 333.403 -1.00965 4.28362 0
M  V30 3546 H 330.522 -0.0268758 0.73651 0
M  V30 3547 H 333.164 0.622015 1.7953 0
M  V30 3548 H 331.314 -0.853412 3.79011 0
M  V30 3549 H 332.986 1.70902 4.28474 0
M  V30 3550 H 331.229 1.6714 4.00308 0
M  V30 3551 H 331.9 0.904088 5.44546 0
M  V30 3552 H 334.376 -0.504214 4.13034 0
M  V30 3553 H 333.252 -1.10381 5.37687 0
M  V30 3554 H 333.513 -2.04731 3.91839 0
M  V30 3555 N 332.573 -1.56217 0.208337 0
M  V30 3556 C 333.52 -2.19699 -0.707192 0
M  V30 3557 C 334.49 -1.14836 -1.20008 0
M  V30 3558 O 335.675 -1.4314 -1.26157 0
M  V30 3559 C 332.815 -2.87061 -1.91546 0
M  V30 3560 C 331.928 -4.06483 -1.46271 0
M  V30 3561 C 331.063 -4.61665 -2.62752 0
M  V30 3562 C 330.102 -5.73417 -2.14147 0
M  V30 3563 N 329.239 -6.22948 -3.23853 0
M  V30 3564 H 334.079 -2.97575 -0.159111 0
M  V30 3565 H 331.616 -1.46948 -0.0667874 0
M  V30 3566 H 333.574 -3.24294 -2.62468 0
M  V30 3567 H 332.204 -2.11725 -2.43664 0
M  V30 3568 H 331.256 -3.74825 -0.648886 0
M  V30 3569 H 332.568 -4.87271 -1.06622 0
M  V30 3570 H 331.722 -5.01272 -3.41776 0
M  V30 3571 H 330.461 -3.80013 -3.05682 0
M  V30 3572 H 329.466 -5.33326 -1.33581 0
M  V30 3573 H 330.691 -6.56897 -1.72232 0
M  V30 3574 H 328.637 -5.44213 -3.6629 0
M  V30 3575 H 328.554 -6.98823 -2.88414 0
M  V30 3576 H 329.822 -6.6721 -4.03052 0
M  V30 3577 N 334.051 0.0651679 -1.57465 0
M  V30 3578 C 334.999 1.09542 -2.05191 0
M  V30 3579 C 335.993 1.39675 -0.958509 0
M  V30 3580 O 337.199 1.39003 -1.14359 0
M  V30 3581 H 333.574 0.370623 -0.654326 0
M  V30 3582 H 335.545 0.666802 -2.90854 0
M  V30 3583 C 334.294 2.39881 -2.51699 0
M  V30 3584 H 333.617 2.17547 -3.3543 0
M  V30 3585 H 335.057 3.104 -2.88839 0
M  V30 3586 C 333.516 3.0631 -1.40271 0
M  V30 3587 O 334.046 3.94664 -0.748523 0
M  V30 3588 N 332.252 2.67041 -1.14618 0
M  V30 3589 H 331.799 1.95281 -1.67997 0
M  V30 3590 H 331.757 3.1181 -0.402688 0
M  V30 3591 N 335.529 1.53961 0.336706 0
M  V30 3592 C 336.476 1.82428 1.41381 0
M  V30 3593 C 337.446 0.670444 1.51968 0
M  V30 3594 O 338.631 0.915565 1.67398 0
M  V30 3595 C 335.771 2.04564 2.77934 0
M  V30 3596 C 334.884 3.32267 2.76084 0
M  V30 3597 C 334.019 3.44434 4.04399 0
M  V30 3598 C 333.058 4.66061 3.96804 0
M  V30 3599 N 332.195 4.75224 5.16823 0
M  V30 3600 H 337.035 2.74324 1.16405 0
M  V30 3601 H 334.572 1.35869 0.563752 0
M  V30 3602 H 336.53 2.15388 3.57301 0
M  V30 3603 H 335.16 1.15974 3.01247 0
M  V30 3604 H 334.212 3.3025 1.88784 0
M  V30 3605 H 335.524 4.21733 2.66351 0
M  V30 3606 H 334.678 3.54728 4.92192 0
M  V30 3607 H 333.417 2.53037 4.16921 0
M  V30 3608 H 332.422 4.55838 3.07396 0
M  V30 3609 H 333.647 5.58829 3.85858 0
M  V30 3610 H 331.593 3.86739 5.29876 0
M  V30 3611 H 331.51 5.58636 5.09374 0
M  V30 3612 H 332.778 4.89835 6.06367 0
M  V30 3613 N 337.007 -0.598083 1.45811 0
M  V30 3614 C 338.423 -0.919847 1.30426 0
M  V30 3615 C 338.623 -1.99759 0.264303 0
M  V30 3616 O 337.679 -2.50221 -0.338472 0
M  V30 3617 C 338.992 -1.35176 2.68603 0
M  V30 3618 C 340.54 -1.46546 2.76574 0
M  V30 3619 C 341.015 -1.9311 4.15298 0
M  V30 3620 N 342.506 -2.00328 4.1764 0
M  V30 3621 C 343.241 -2.37599 5.21856 0
M  V30 3622 N 342.737 -2.73771 6.36413 0
M  V30 3623 N 344.53 -2.38021 5.09218 0
M  V30 3624 H 336.681 0.114111 2.12093 0
M  V30 3625 H 338.944 -0.0116121 0.947929 0
M  V30 3626 H 338.65 -0.633969 3.45939 0
M  V30 3627 H 338.524 -2.3164 2.97696 0
M  V30 3628 H 340.911 -2.17415 1.99537 0
M  V30 3629 H 340.992 -0.483727 2.51185 0
M  V30 3630 H 340.636 -1.22824 4.92825 0
M  V30 3631 H 340.566 -2.92213 4.38086 0
M  V30 3632 H 343.057 -1.74925 3.34977 0
M  V30 3633 H 343.37 -3.0112 7.11721 0
M  V30 3634 H 341.715 -2.71445 6.39799 0
M  V30 3635 H 344.906 -2.09174 4.18765 0
M  V30 3636 H 345.079 -2.66741 5.90554 0
M  V30 3637 N 338.485 -1.33259 -0.841409 0
M  V30 3638 C 339.713 -1.27605 -1.62864 0
M  V30 3639 C 340.128 0.153507 -1.88175 0
M  V30 3640 O 339.485 1.09485 -1.46011 0
M  V30 3641 C 339.536 -2.04596 -2.98031 0
M  V30 3642 O 339.257 -3.41975 -2.73834 0
M  V30 3643 C 340.758 -2.06122 -3.92465 0
M  V30 3644 H 337.978 -0.439718 -0.506842 0
M  V30 3645 H 340.522 -1.75591 -1.04824 0
M  V30 3646 H 338.677 -1.60299 -3.5268 0
M  V30 3647 H 339.091 -3.81549 -3.59889 0
M  V30 3648 H 340.565 -2.64451 -4.84531 0
M  V30 3649 H 341.042 -1.05083 -4.26444 0
M  V30 3650 H 341.648 -2.50427 -3.43753 0
M  V30 3651 N 339.963 1.05934 -1.16686 0
M  V30 3652 C 341.21 1.788 -0.950622 0
M  V30 3653 C 341.538 1.87384 0.521305 0
M  V30 3654 O 340.793 1.36438 1.40297 0
M  V30 3655 C 341.092 3.23105 -1.52767 0
M  V30 3656 C 340.758 3.34594 -3.02254 0
M  V30 3657 C 339.42 3.37437 -3.43059 0
M  V30 3658 C 341.772 3.36219 -3.98254 0
M  V30 3659 C 339.1 3.39525 -4.78477 0
M  V30 3660 C 341.452 3.39845 -5.33562 0
M  V30 3661 C 340.116 3.40971 -5.73842 0
M  V30 3662 H 339.386 0.654275 -0.347857 0
M  V30 3663 H 342.033 1.24555 -1.45459 0
M  V30 3664 H 340.338 3.80227 -0.94524 0
M  V30 3665 H 342.035 3.7809 -1.336 0
M  V30 3666 H 338.625 3.3309 -2.6972 0
M  V30 3667 H 342.809 3.33231 -3.67792 0
M  V30 3668 H 338.065 3.38703 -5.09009 0
M  V30 3669 H 342.239 3.4005 -6.07733 0
M  V30 3670 H 339.866 3.42342 -6.78753 0
M  V30 3671 N 341.441 0.965919 1.2453 0
M  V30 3672 C 342.371 0.513476 2.27784 0
M  V30 3673 C 343.352 -0.445974 1.6415 0
M  V30 3674 O 344.537 -0.342485 1.91156 0
M  V30 3675 C 341.667 -0.198839 3.4673 0
M  V30 3676 C 340.621 0.676456 4.2262 0
M  V30 3677 C 339.947 -0.167248 5.34438 0
M  V30 3678 C 341.247 1.96017 4.84123 0
M  V30 3679 H 342.941 1.3765 2.65881 0
M  V30 3680 H 340.487 0.663321 1.27813 0
M  V30 3681 H 342.44 -0.526567 4.18097 0
M  V30 3682 H 341.164 -1.0962 3.07654 0
M  V30 3683 H 339.823 0.98743 3.53052 0
M  V30 3684 H 339.471 -1.0647 4.91603 0
M  V30 3685 H 339.171 0.415181 5.86131 0
M  V30 3686 H 340.695 -0.489688 6.08633 0
M  V30 3687 H 342.109 1.69814 5.47573 0
M  V30 3688 H 340.506 2.48918 5.4604 0
M  V30 3689 H 341.576 2.65622 4.05676 0
M  V30 3690 N 342.919 -1.39368 0.735821 0
M  V30 3691 C 344.144 -2.05319 0.293052 0
M  V30 3692 C 344.569 -1.55115 -1.064 0
M  V30 3693 O 343.927 -0.695261 -1.67439 0
M  V30 3694 C 343.975 -3.59305 0.305323 0
M  V30 3695 O 343.079 -4.06299 -0.706761 0
M  V30 3696 H 342.42 -0.650529 0.13307 0
M  V30 3697 H 344.95 -1.78386 1.00197 0
M  V30 3698 H 344.96 -4.07724 0.149997 0
M  V30 3699 H 343.635 -3.95207 1.29553 0
M  V30 3700 H 342.212 -3.69292 -0.517504 0
M  V30 3701 N 344.397 -0.483516 -1.5 0
M  V30 3702 C 345.808 -0.0314176 -1.86674 0
M  V30 3703 C 346.159 1.37728 -1.39733 0
M  V30 3704 O 345.284 2.02327 -0.767635 0
M  V30 3705 C 345.879 -0.0502376 -3.38763 0
M  V30 3706 C 344.438 0.346442 -3.74802 0
M  V30 3707 C 343.585 -0.430366 -2.7394 0
M  V30 3708 H 346.536 -0.697182 -1.42566 0
M  V30 3709 H 346.557 0.749116 -3.73053 0
M  V30 3710 H 346.069 -1.07563 -3.72897 0
M  V30 3711 H 344.17 1.37572 -3.46273 0
M  V30 3712 H 344.283 0.0391486 -4.79084 0
M  V30 3713 H 342.647 0.117557 -2.54429 0
M  V30 3714 H 343.43 -1.4555 -3.10918 0
M  V30 3715 N 345.875 1.56104 -0.216619 0
M  V30 3716 C 347.121 1.99219 0.410301 0
M  V30 3717 C 347.476 1.10169 1.57735 0
M  V30 3718 O 346.769 0.150598 1.91007 0
M  V30 3719 C 346.963 3.45923 0.898464 0
M  V30 3720 C 346.792 4.49163 -0.219748 0
M  V30 3721 C 345.562 5.00642 -0.684516 0
M  V30 3722 C 347.76 5.03751 -1.03629 0
M  V30 3723 N 345.742 5.87579 -1.7783 0
M  V30 3724 C 347.113 5.87566 -1.97904 0
M  V30 3725 C 349.168 4.86128 -1.07629 0
M  V30 3726 C 347.871 6.5564 -2.95851 0
M  V30 3727 C 349.897 5.54958 -2.04392 0
M  V30 3728 C 349.259 6.38536 -2.97407 0
M  V30 3729 H 345.358 0.773206 0.11695 0
M  V30 3730 H 347.942 1.9193 -0.327258 0
M  V30 3731 H 346.113 3.53669 1.6054 0
M  V30 3732 H 347.845 3.75963 1.49779 0
M  V30 3733 H 344.6 4.72807 -0.27399 0
M  V30 3734 H 345.024 6.3575 -2.32705 0
M  V30 3735 H 349.666 4.21168 -0.371099 0
M  V30 3736 H 347.384 7.19785 -3.67335 0
M  V30 3737 H 350.97 5.43289 -2.08154 0
M  V30 3738 H 349.85 6.90858 -3.71059 0
M  V30 3739 N 347.353 -0.0568162 1.57498 0
M  V30 3740 C 348.602 -0.752001 1.87157 0
M  V30 3741 C 348.915 -1.77978 0.811375 0
M  V30 3742 O 350.121 -2.52559 0.996293 0
M  V30 3743 C 348.577 -1.38844 3.3204 0
M  V30 3744 C 348.185 -0.398456 4.46225 0
M  V30 3745 C 349.929 -2.06512 3.70882 0
M  V30 3746 C 347.836 -1.04166 5.82154 0
M  V30 3747 H 346.766 -0.28461 0.698222 0
M  V30 3748 H 349.417 -0.00561272 1.83499 0
M  V30 3749 H 347.799 -2.1836 3.30356 0
M  V30 3750 H 348.973 0.367977 4.59328 0
M  V30 3751 H 347.288 0.174592 4.16034 0
M  V30 3752 H 349.885 -2.55437 4.6974 0
M  V30 3753 H 350.228 -2.87117 3.01445 0
M  V30 3754 H 350.761 -1.33808 3.7462 0
M  V30 3755 H 347.5 -0.275614 6.5492 0
M  V30 3756 H 347.02 -1.7786 5.72823 0
M  V30 3757 H 348.699 -1.55715 6.27982 0
M  V30 3758 N 348.832 -1.54138 -0.328536 0
M  V30 3759 C 350.057 -1.76378 -1.09112 0
M  V30 3760 C 350.482 -0.508596 -1.81094 0
M  V30 3761 O 349.84 0.539598 -1.73084 0
M  V30 3762 C 349.888 -2.95358 -2.06872 0
M  V30 3763 O 348.992 -2.66556 -3.14677 0
M  V30 3764 H 348.333 -0.584614 -0.314838 0
M  V30 3765 H 350.863 -2.01146 -0.374348 0
M  V30 3766 H 350.873 -3.22566 -2.4983 0
M  V30 3767 H 349.548 -3.86385 -1.5388 0
M  V30 3768 H 348.125 -2.50282 -2.7643 0
M  V30 3769 N 350.31 0.590341 -1.46126 0
M  V30 3770 C 351.258 1.72105 -1.5647 0
M  V30 3771 C 352.252 1.63756 -0.433612 0
M  V30 3772 O 353.458 1.69342 -0.610194 0
M  V30 3773 H 349.833 0.568889 -0.491802 0
M  V30 3774 H 351.804 1.6051 -2.51553 0
M  V30 3775 C 350.553 3.10493 -1.56491 0
M  V30 3776 H 349.876 3.17583 -2.4286 0
M  V30 3777 H 351.316 3.8939 -1.67785 0
M  V30 3778 C 349.775 3.3563 -0.292231 0
M  V30 3779 O 350.305 3.96875 0.620739 0
M  V30 3780 N 348.511 2.90026 -0.182523 0
M  V30 3781 H 348.058 2.40367 -0.926356 0
M  V30 3782 H 348.016 3.07218 0.668152 0
M  V30 3783 N 351.788 1.33704 0.83433 0
M  V30 3784 C 353.037 1.24763 1.58484 0
M  V30 3785 C 353.35 -0.183775 1.94735 0
M  V30 3786 O 354.556 -0.395234 2.68608 0
M  V30 3787 C 353.012 2.18638 2.85876 0
M  V30 3788 C 352.62 3.66974 2.56971 0
M  V30 3789 C 354.364 2.18581 3.63899 0
M  V30 3790 C 352.271 4.5275 3.80488 0
M  V30 3791 H 351.201 0.463425 0.594772 0
M  V30 3792 H 353.852 1.58797 0.919551 0
M  V30 3793 H 352.234 1.77542 3.5397 0
M  V30 3794 H 353.408 4.16538 1.9706 0
M  V30 3795 H 351.723 3.69366 1.92244 0
M  V30 3796 H 354.32 2.79894 4.55591 0
M  V30 3797 H 354.663 1.18207 3.99165 0
M  V30 3798 H 355.196 2.58062 3.02735 0
M  V30 3799 H 351.935 5.54017 3.5035 0
M  V30 3800 H 351.455 4.07927 4.39722 0
M  V30 3801 H 353.134 4.66784 4.4802 0
M  V30 3802 N 353.266 -1.05314 1.17247 0
M  V30 3803 C 354.216 -2.11313 0.856196 0
M  V30 3804 C 355.2 -1.60013 -0.168694 0
M  V30 3805 O 356.392 -1.76968 0.0335624 0
M  V30 3806 C 353.521 -3.41301 0.369917 0
M  V30 3807 C 352.607 -3.99401 1.42616 0
M  V30 3808 N 352.998 -4.31481 2.63928 0
M  V30 3809 C 351.296 -4.27126 1.28373 0
M  V30 3810 C 351.997 -4.77799 3.31787 0
M  V30 3811 N 350.973 -4.77843 2.59166 0
M  V30 3812 H 354.775 -2.33976 1.77856 0
M  V30 3813 H 352.289 -1.2295 1.06099 0
M  V30 3814 H 354.286 -4.16713 0.124897 0
M  V30 3815 H 352.946 -3.20072 -0.546253 0
M  V30 3816 H 353.957 -4.21519 3.00902 0
M  V30 3817 H 350.634 -4.15289 0.429111 0
M  V30 3818 H 352.024 -5.11743 4.35395 0
M  V30 3819 N 354.744 -0.972509 -1.24016 0
M  V30 3820 C 355.654 -0.5143 -2.28893 0
M  V30 3821 C 356.67 0.427078 -1.68677 0
M  V30 3822 O 357.846 0.298939 -1.99169 0
M  V30 3823 C 354.911 0.183598 -3.46214 0
M  V30 3824 C 353.972 -0.798202 -4.21814 0
M  V30 3825 C 353.205 -0.133514 -5.33533 0
M  V30 3826 O 353.428 1.07714 -5.60137 0
M  V30 3827 O 352.362 -0.828103 -5.96176 0
M  V30 3828 H 356.188 -1.38629 -2.70214 0
M  V30 3829 H 353.773 -0.739769 -1.29799 0
M  V30 3830 H 355.655 0.575433 -4.17453 0
M  V30 3831 H 354.33 1.03048 -3.0686 0
M  V30 3832 H 353.237 -1.24059 -3.52931 0
M  V30 3833 H 354.57 -1.61364 -4.64997 0
M  V30 3834 N 356.222 1.38976 -0.743202 0
M  V30 3835 C 357.169 2.30544 -0.10861 0
M  V30 3836 C 358.139 1.49642 0.720869 0
M  V30 3837 O 359.324 1.78304 0.679142 0
M  V30 3838 C 356.464 3.36018 0.786496 0
M  V30 3839 C 355.577 4.31963 -0.0564849 0
M  V30 3840 C 354.712 5.24506 0.840657 0
M  V30 3841 C 353.751 6.121 -0.00658363 0
M  V30 3842 N 352.888 6.96973 0.846943 0
M  V30 3843 H 357.728 2.8424 -0.895088 0
M  V30 3844 H 355.265 1.3995 -0.453048 0
M  V30 3845 H 357.223 3.95768 1.31999 0
M  V30 3846 H 355.853 2.83758 1.53887 0
M  V30 3847 H 354.905 3.73763 -0.707492 0
M  V30 3848 H 356.217 4.93703 -0.711229 0
M  V30 3849 H 355.371 5.89322 1.4417 0
M  V30 3850 H 354.11 4.63107 1.52916 0
M  V30 3851 H 353.115 5.46289 -0.620366 0
M  V30 3852 H 354.34 6.75565 -0.691992 0
M  V30 3853 H 352.286 6.38133 1.52059 0
M  V30 3854 H 352.203 7.5559 0.248864 0
M  V30 3855 H 353.471 7.6621 1.43328 0
M  V30 3856 N 357.7 0.491464 1.49741 0
M  V30 3857 C 358.647 -0.292027 2.28945 0
M  V30 3858 C 359.617 -0.968973 1.34908 0
M  V30 3859 O 360.802 -0.97748 1.6386 0
M  V30 3860 C 357.942 -1.35617 3.17336 0
M  V30 3861 C 357.055 -0.691957 4.26422 0
M  V30 3862 C 356.19 -1.73572 5.02042 0
M  V30 3863 C 355.229 -1.05286 6.02977 0
M  V30 3864 N 354.366 -2.0404 6.71798 0
M  V30 3865 H 359.206 0.389654 2.95442 0
M  V30 3866 H 356.743 0.204003 1.45679 0
M  V30 3867 H 358.701 -1.98502 3.66951 0
M  V30 3868 H 357.331 -2.00674 2.52844 0
M  V30 3869 H 356.383 0.0499523 3.80367 0
M  V30 3870 H 357.695 -0.153946 4.98562 0
M  V30 3871 H 356.849 -2.43987 5.55478 0
M  V30 3872 H 355.588 -2.30757 4.29654 0
M  V30 3873 H 354.593 -0.334446 5.48782 0
M  V30 3874 H 355.818 -0.487636 6.77347 0
M  V30 3875 H 353.764 -2.60205 6.02187 0
M  V30 3876 H 353.681 -1.55279 7.39881 0
M  V30 3877 H 354.949 -2.73772 7.29842 0
M  V30 3878 N 359.178 -1.55987 0.224894 0
M  V30 3879 C 360.426 -1.97998 -0.405099 0
M  V30 3880 C 360.747 -1.11387 -1.60056 0
M  V30 3881 O 360.017 -0.191645 -1.9496 0
M  V30 3882 H 358.597 -0.731235 -0.152658 0
M  V30 3883 H 361.259 -1.92279 0.318567 0
M  V30 3884 H 360.355 -3.03463 -0.729167 0
M  V30 3885 N 360.656 0.0484629 -1.57525 0
M  V30 3886 C 361.586 1.0549 -2.08313 0
M  V30 3887 C 362.567 1.38929 -0.981463 0
M  V30 3888 O 363.752 1.48151 -1.25558 0
M  V30 3889 C 360.882 2.36162 -2.54646 0
M  V30 3890 C 359.836 2.17016 -3.68901 0
M  V30 3891 C 359.162 3.53278 -4.01371 0
M  V30 3892 C 360.462 1.57219 -4.98076 0
M  V30 3893 H 362.156 0.632195 -2.92649 0
M  V30 3894 H 359.702 0.302654 -1.40784 0
M  V30 3895 H 361.655 3.06882 -2.88793 0
M  V30 3896 H 360.379 2.80456 -1.67368 0
M  V30 3897 H 359.038 1.48733 -3.35073 0
M  V30 3898 H 358.686 3.95185 -3.11188 0
M  V30 3899 H 358.386 3.41299 -4.78318 0
M  V30 3900 H 359.91 4.25391 -4.38035 0
M  V30 3901 H 361.324 2.17832 -5.30304 0
M  V30 3902 H 359.721 1.55871 -5.79503 0
M  V30 3903 H 360.791 0.535956 -4.81929 0
M  V30 3904 N 362.134 1.5431 0.320358 0
M  V30 3905 C 363.362 1.76636 1.07738 0
M  V30 3906 C 363.777 0.51649 1.81598 0
M  V30 3907 O 363.134 -0.512942 1.75143 0
M  V30 3908 C 363.185 2.96158 2.07299 0
M  V30 3909 O 362.906 4.16313 1.36438 0
M  V30 3910 C 364.407 3.3072 2.95193 0
M  V30 3911 H 361.627 0.589597 0.320339 0
M  V30 3912 H 364.171 2.01207 0.36551 0
M  V30 3913 H 362.326 2.73851 2.74016 0
M  V30 3914 H 362.74 4.83565 2.03138 0
M  V30 3915 H 364.214 4.17643 3.60941 0
M  V30 3916 H 364.691 2.48026 3.62463 0
M  V30 3917 H 365.297 3.55117 2.34034 0
M  V30 3918 N 363.613 -0.582584 1.46437 0
M  V30 3919 C 364.56 -1.69164 1.5701 0
M  V30 3920 C 365.53 -1.60847 0.414403 0
M  V30 3921 O 366.715 -1.80058 0.631171 0
M  V30 3922 C 363.855 -3.075 1.56646 0
M  V30 3923 C 362.968 -3.2644 2.82951 0
M  V30 3924 C 362.103 -4.55026 2.7409 0
M  V30 3925 C 361.142 -4.6731 3.95333 0
M  V30 3926 N 360.279 -5.87221 3.84858 0
M  V30 3927 H 365.119 -1.59464 2.51744 0
M  V30 3928 H 362.656 -0.777186 1.24893 0
M  V30 3929 H 364.614 -3.8757 1.5442 0
M  V30 3930 H 363.244 -3.16096 0.654439 0
M  V30 3931 H 362.296 -2.39974 2.95155 0
M  V30 3932 H 363.608 -3.31385 3.72808 0
M  V30 3933 H 362.762 -5.43324 2.6997 0
M  V30 3934 H 361.501 -4.52519 1.81873 0
M  V30 3935 H 360.506 -3.77429 3.99784 0
M  V30 3936 H 361.731 -4.71595 4.88646 0
M  V30 3937 H 359.677 -5.85712 2.95427 0
M  V30 3938 H 359.594 -5.93435 4.6837 0
M  V30 3939 H 360.862 -6.7795 3.84713 0
M  V30 3940 N 365.091 -1.34144 -0.827227 0
M  V30 3941 C 366.321 -1.29138 -1.61267 0
M  V30 3942 C 366.729 0.137597 -1.88699 0
M  V30 3943 O 366.072 1.09379 -1.47587 0
M  V30 3944 C 366.134 -2.0097 -2.9808 0
M  V30 3945 C 365.798 -3.50242 -2.93563 0
M  V30 3946 C 366.795 -4.4523 -2.68452 0
M  V30 3947 C 364.48 -3.92592 -3.13331 0
M  V30 3948 C 366.474 -5.80542 -2.63154 0
M  V30 3949 C 364.161 -5.28005 -3.07658 0
M  V30 3950 C 365.159 -6.21792 -2.82602 0
M  V30 3951 O 364.847 -7.54723 -2.76853 0
M  V30 3952 H 364.579 -0.445851 -0.508127 0
M  V30 3953 H 367.133 -1.77263 -1.03763 0
M  V30 3954 H 365.363 -1.47451 -3.57484 0
M  V30 3955 H 367.052 -1.89309 -3.5905 0
M  V30 3956 H 367.818 -4.13832 -2.52919 0
M  V30 3957 H 363.697 -3.19994 -3.31851 0
M  V30 3958 H 367.241 -6.53717 -2.43516 0
M  V30 3959 H 363.138 -5.59023 -3.22743 0
M  V30 3960 H 363.906 -7.64409 -2.92611 0
M  V30 3961 N 366.569 1.04691 -1.17803 0
M  V30 3962 C 367.516 2.12557 -0.899343 0
M  V30 3963 C 368.486 1.65339 0.158771 0
M  V30 3964 O 369.671 1.90789 0.0204797 0
M  V30 3965 C 366.811 3.42481 -0.424315 0
M  V30 3966 C 365.924 4.03346 -1.54713 0
M  V30 3967 C 365.059 5.21208 -1.02546 0
M  V30 3968 C 364.098 5.74089 -2.12339 0
M  V30 3969 N 363.235 6.83247 -1.61612 0
M  V30 3970 H 368.075 2.35734 -1.823 0
M  V30 3971 H 365.612 1.1564 -0.909159 0
M  V30 3972 H 367.57 4.16996 -0.130421 0
M  V30 3973 H 366.2 3.19471 0.462377 0
M  V30 3974 H 365.252 3.2622 -1.95664 0
M  V30 3975 H 366.564 4.38628 -2.37501 0
M  V30 3976 H 365.718 6.02812 -0.685718 0
M  V30 3977 H 364.457 4.87414 -0.167084 0
M  V30 3978 H 363.462 4.91111 -2.47165 0
M  V30 3979 H 364.687 6.0993 -2.98601 0
M  V30 3980 H 362.633 6.5134 -0.780533 0
M  V30 3981 H 362.55 7.17559 -2.38003 0
M  V30 3982 H 363.818 7.68491 -1.30545 0
M  V30 3983 N 368.047 0.979072 1.23499 0
M  V30 3984 C 369.272 0.664845 1.96455 0
M  V30 3985 C 369.697 -0.761287 1.72006 0
M  V30 3986 O 369.055 -1.51837 0.990713 0
M  V30 3987 C 369.103 0.959479 3.47601 0
M  V30 3988 O 368.207 0.0508168 4.12369 0
M  V30 3989 H 367.548 0.250185 0.615064 0
M  V30 3990 H 370.078 1.31231 1.5697 0
M  V30 3991 H 370.088 0.895642 3.98048 0
M  V30 3992 H 368.763 1.99876 3.64723 0
M  V30 3993 H 367.34 0.16895 3.72517 0
M  V30 3994 N 369.525 -1.3858 0.750561 0
M  V30 3995 C 370.75 -2.04997 0.314812 0
M  V30 3996 C 371.175 -1.56235 -1.04749 0
M  V30 3997 O 370.533 -0.712981 -1.66692 0
M  V30 3998 C 370.581 -3.58961 0.343415 0
M  V30 3999 O 369.685 -4.07025 -0.663628 0
M  V30 4000 H 369.026 -0.649081 0.139962 0
M  V30 4001 H 371.556 -1.77313 1.02084 0
M  V30 4002 H 371.566 -4.07542 0.193233 0
M  V30 4003 H 370.241 -3.93811 1.33738 0
M  V30 4004 H 368.818 -3.6982 -0.478307 0
M  V30 4005 N 371.003 -0.499398 -1.49478 0
M  V30 4006 C 372.414 -0.051215 -1.8663 0
M  V30 4007 C 372.765 1.36238 -1.41186 0
M  V30 4008 O 371.89 2.01502 -0.789051 0
M  V30 4009 C 372.485 -0.0861651 -3.3869 0
M  V30 4010 C 371.044 0.30667 -3.75149 0
M  V30 4011 C 370.191 -0.459397 -2.73468 0
M  V30 4012 H 373.142 -0.712264 -1.41818 0
M  V30 4013 H 373.163 0.709507 -3.73826 0
M  V30 4014 H 372.675 -1.11512 -3.71735 0
M  V30 4015 H 370.776 1.33892 -3.47712 0
M  V30 4016 H 370.889 -0.0116669 -4.79099 0
M  V30 4017 H 369.253 0.0905645 -2.54539 0
M  V30 4018 H 370.036 -1.4884 -3.09357 0
M  V30 4019 N 372.481 1.55866 -0.233164 0
M  V30 4020 C 373.391 2.24431 0.683217 0
M  V30 4021 C 374.407 1.2558 1.2044 0
M  V30 4022 O 375.583 1.58422 1.24356 0
M  V30 4023 C 372.648 2.91979 1.86947 0
M  V30 4024 C 371.709 4.06204 1.38912 0
M  V30 4025 C 370.942 4.70522 2.51883 0
M  V30 4026 O 371.165 4.33865 3.70293 0
M  V30 4027 O 370.099 5.59296 2.22423 0
M  V30 4028 H 373.925 3.03426 0.129059 0
M  V30 4029 H 371.51 1.494 -0.0022283 0
M  V30 4030 H 373.392 3.34573 2.56201 0
M  V30 4031 H 372.067 2.15935 2.41151 0
M  V30 4032 H 370.974 3.68155 0.664259 0
M  V30 4033 H 372.307 4.84025 0.893328 0
M  V30 4034 N 373.959 -0.0401083 1.57549 0
M  V30 4035 C 374.906 -1.04413 2.05831 0
M  V30 4036 C 375.876 -1.36585 0.945184 0
M  V30 4037 O 377.061 -1.47112 1.21502 0
M  V30 4038 C 374.201 -2.34336 2.53339 0
M  V30 4039 C 373.314 -2.08419 3.78398 0
M  V30 4040 C 372.449 -3.32133 4.14561 0
M  V30 4041 C 371.488 -3.01721 5.3257 0
M  V30 4042 N 370.625 -4.17855 5.64218 0
M  V30 4043 H 375.465 -0.625442 2.91363 0
M  V30 4044 H 373.002 -0.297218 1.44066 0
M  V30 4045 H 374.96 -3.10234 2.78946 0
M  V30 4046 H 373.59 -2.73948 1.7074 0
M  V30 4047 H 372.642 -1.23069 3.59942 0
M  V30 4048 H 373.954 -1.81978 4.64419 0
M  V30 4049 H 373.108 -4.16406 4.41238 0
M  V30 4050 H 371.847 -3.61678 3.2717 0
M  V30 4051 H 370.852 -2.15849 5.05657 0
M  V30 4052 H 372.077 -2.73466 6.21605 0
M  V30 4053 H 370.023 -4.47372 4.79786 0
M  V30 4054 H 369.94 -3.94798 6.44725 0
M  V30 4055 H 371.208 -5.03033 5.95465 0
M  V30 4056 N 375.437 -1.54477 -0.31217 0
M  V30 4057 C 376.683 -1.74417 -1.04644 0
M  V30 4058 C 377.038 -0.517641 -1.85306 0
M  V30 4059 O 376.331 0.489973 -1.85229 0
M  V30 4060 C 376.525 -2.967 -1.99258 0
M  V30 4061 C 376.354 -4.31128 -1.27901 0
M  V30 4062 C 375.124 -4.95087 -1.01079 0
M  V30 4063 C 377.322 -5.09662 -0.689119 0
M  V30 4064 N 375.304 -6.13322 -0.266323 0
M  V30 4065 C 376.675 -6.19952 -0.0768523 0
M  V30 4066 C 378.73 -4.94355 -0.593061 0
M  V30 4067 C 377.433 -7.16604 0.622165 0
M  V30 4068 C 379.459 -5.91328 0.0922792 0
M  V30 4069 C 378.821 -7.00978 0.693443 0
M  V30 4070 H 374.92 -0.69094 -0.366231 0
M  V30 4071 H 377.504 -1.91946 -0.326319 0
M  V30 4072 H 375.675 -2.80616 -2.68532 0
M  V30 4073 H 377.407 -3.05216 -2.65755 0
M  V30 4074 H 374.162 -4.55235 -1.30607 0
M  V30 4075 H 374.586 -6.76937 0.0920973 0
M  V30 4076 H 379.228 -4.09719 -1.04355 0
M  V30 4077 H 376.946 -8.0079 1.08445 0
M  V30 4078 H 380.532 -5.81562 0.166396 0
M  V30 4079 H 379.412 -7.74725 1.21533 0
M  V30 4080 N 376.915 0.57481 -1.46744 0
M  V30 4081 C 378.14 1.36341 -1.56288 0
M  V30 4082 C 378.565 1.86954 -0.207347 0
M  V30 4083 O 377.923 1.62006 0.813871 0
M  V30 4084 C 377.971 2.52147 -2.57787 0
M  V30 4085 O 377.075 3.53834 -2.11838 0
M  V30 4086 H 376.416 0.405713 -0.525636 0
M  V30 4087 H 378.946 0.696453 -1.92382 0
M  V30 4088 H 378.956 2.98958 -2.77648 0
M  V30 4089 H 377.631 2.14663 -3.5622 0
M  V30 4090 H 376.208 3.1345 -2.01999 0
M  V30 4091 N 378.394 1.34581 0.820102 0
M  V30 4092 C 379.622 1.3018 1.60813 0
M  V30 4093 C 380.037 -0.123551 1.88395 0
M  V30 4094 O 379.394 -1.07148 1.47735 0
M  V30 4095 C 379.445 2.09312 2.94739 0
M  V30 4096 O 379.166 3.46288 2.68358 0
M  V30 4097 C 380.667 2.1234 3.89136 0
M  V30 4098 H 377.887 0.447726 0.499782 0
M  V30 4099 H 380.431 1.77237 1.02017 0
M  V30 4100 H 378.586 1.65889 3.50085 0
M  V30 4101 H 379 3.87227 3.53774 0
M  V30 4102 H 380.474 2.72126 4.80262 0
M  V30 4103 H 380.951 1.11854 4.24718 0
M  V30 4104 H 381.557 2.55864 3.39726 0
M  V30 4105 N 379.872 -1.04064 1.18357 0
M  V30 4106 C 380.835 -2.10243 0.912707 0
M  V30 4107 C 381.835 -1.60477 -0.101928 0
M  V30 4108 O 383.025 -1.73703 0.131517 0
M  V30 4109 C 380.157 -3.38893 0.369387 0
M  V30 4110 H 381.35 -2.35706 1.85426 0
M  V30 4111 H 378.903 -1.20489 0.995594 0
M  V30 4112 H 379.638 -3.19094 -0.578776 0
M  V30 4113 H 379.423 -3.76331 1.1008 0
M  V30 4114 H 380.913 -4.17128 0.198575 0
M  V30 4115 N 381.35 -0.985608 -1.22978 0
M  V30 4116 C 382.575 -0.675254 -1.961 0
M  V30 4117 C 383 0.752154 -1.72407 0
M  V30 4118 O 382.358 1.5131 -0.998751 0
M  V30 4119 C 382.406 -0.977899 -3.47087 0
M  V30 4120 O 381.51 -0.072685 -4.12336 0
M  V30 4121 H 380.851 -0.253443 -0.613728 0
M  V30 4122 H 383.381 -1.32061 -1.56272 0
M  V30 4123 H 383.391 -0.916739 -3.97567 0
M  V30 4124 H 382.066 -2.01807 -3.63657 0
M  V30 4125 H 380.643 -0.188703 -3.72422 0
M  V30 4126 N 382.828 1.3818 -0.7579 0
M  V30 4127 C 384.105 1.94106 -0.241306 0
M  V30 4128 C 384.485 1.69282 1.26122 0
M  V30 4129 O 383.833 1.03378 2.03777 0
M  V30 4130 C 384.043 3.43809 -0.59967 0
M  V30 4131 C 385.391 4.20868 -0.561717 0
M  V30 4132 O 386.415 3.5211 -0.538222 0
M  V30 4133 O 385.274 5.43451 -0.576478 0
M  V30 4134 H 382.368 0.825376 -0.0518042 0
M  V30 4135 H 384.914 1.47548 -0.838315 0
M  V30 4136 H 383.686 3.55403 -1.6372 0
M  V30 4137 H 383.309 3.97592 0.0251197 0
M  V30 4138 N 384.306 0.507319 1.49211 0
M  V30 4139 C 385.717 0.0611118 1.866 0
M  V30 4140 C 386.068 -1.35488 1.41907 0
M  V30 4141 O 385.193 -2.0108 0.799726 0
M  V30 4142 C 385.788 0.104125 3.3864 0
M  V30 4143 C 384.347 -0.28677 3.75306 0
M  V30 4144 C 383.494 0.473893 2.73221 0
M  V30 4145 H 386.445 0.719775 1.41439 0
M  V30 4146 H 386.466 -0.689672 3.74198 0
M  V30 4147 H 385.978 1.13482 3.71138 0
M  V30 4148 H 384.079 -1.32046 3.48417 0
M  V30 4149 H 384.192 0.0370745 4.79086 0
M  V30 4150 H 382.556 -0.0770644 2.54583 0
M  V30 4151 H 383.339 1.50478 3.08563 0
M  V30 4152 N 385.784 -1.5574 0.241426 0
M  V30 4153 C 387.014 -2.02913 -0.38857 0
M  V30 4154 C 387.422 -1.12014 -1.52478 0
M  V30 4155 O 386.765 -0.125903 -1.83268 0
M  V30 4156 C 386.827 -3.4636 -0.963075 0
M  V30 4157 C 386.491 -4.56982 0.0401916 0
M  V30 4158 C 387.488 -5.12941 0.847766 0
M  V30 4159 C 385.173 -5.0203 0.164699 0
M  V30 4160 C 387.167 -6.12437 1.76636 0
M  V30 4161 C 384.854 -6.01358 1.0868 0
M  V30 4162 C 385.852 -6.5644 1.88616 0
M  V30 4163 O 385.54 -7.53831 2.79273 0
M  V30 4164 H 385.272 -0.668983 -0.0971452 0
M  V30 4165 H 387.826 -2.02198 0.361248 0
M  V30 4166 H 386.056 -3.44206 -1.76235 0
M  V30 4167 H 387.745 -3.77065 -1.50257 0
M  V30 4168 H 388.511 -4.78974 0.762133 0
M  V30 4169 H 384.39 -4.58824 -0.447411 0
M  V30 4170 H 387.934 -6.55355 2.39071 0
M  V30 4171 H 383.831 -6.34746 1.17338 0
M  V30 4172 H 384.599 -7.71428 2.73572 0
M  V30 4173 N 387.262 0.0317525 -1.57568 0
M  V30 4174 C 388.487 0.738664 -1.938 0
M  V30 4175 C 388.912 1.68242 -0.841208 0
M  V30 4176 O 388.27 1.80157 0.203267 0
M  V30 4177 C 388.318 1.47417 -3.29091 0
M  V30 4178 O 387.422 2.5872 -3.2115 0
M  V30 4179 H 386.763 0.198856 -0.633524 0
M  V30 4180 H 389.293 -0.0119713 -2.04596 0
M  V30 4181 H 389.303 1.84468 -3.63917 0
M  V30 4182 H 387.978 0.781988 -4.08482 0
M  V30 4183 H 386.555 2.24231 -2.97951 0
M  V30 4184 N 388.74 1.54641 0.303973 0
M  V30 4185 C 390.017 1.64455 1.05896 0
M  V30 4186 C 390.397 0.490923 2.05312 0
M  V30 4187 O 389.745 -0.512685 2.22674 0
M  V30 4188 C 389.955 3.02331 1.74347 0
M  V30 4189 C 391.303 3.59045 2.26653 0
M  V30 4190 O 392.327 3.04764 1.84384 0
M  V30 4191 O 391.186 4.54081 3.04093 0
M  V30 4192 H 388.28 0.666729 0.489287 0
M  V30 4193 H 390.826 1.66986 0.302298 0
M  V30 4194 H 389.598 3.77734 1.02142 0
M  V30 4195 H 389.221 3.03565 2.56777 0
M  V30 4196 N 390.218 -0.567019 1.47046 0
M  V30 4197 C 391.465 -1.32462 1.53167 0
M  V30 4198 C 391.793 -1.93571 0.189841 0
M  V30 4199 O 391.048 -1.77865 -0.816243 0
M  V30 4200 C 391.347 -2.4623 2.59047 0
M  V30 4201 C 391.013 -2.03014 4.02612 0
M  V30 4202 C 389.675 -1.90944 4.41694 0
M  V30 4203 C 392.027 -1.69895 4.92732 0
M  V30 4204 C 389.355 -1.44035 5.68745 0
M  V30 4205 C 391.707 -1.2446 6.20236 0
M  V30 4206 C 390.371 -1.10979 6.5821 0
M  V30 4207 H 389.641 -0.484713 0.560477 0
M  V30 4208 H 392.288 -0.636888 1.80599 0
M  V30 4209 H 390.593 -3.20517 2.25335 0
M  V30 4210 H 392.29 -3.04427 2.61008 0
M  V30 4211 H 388.88 -2.13348 3.71726 0
M  V30 4212 H 393.064 -1.78098 4.63244 0
M  V30 4213 H 388.32 -1.32254 5.96925 0
M  V30 4214 H 392.494 -0.978924 6.89485 0
M  V30 4215 H 390.121 -0.744078 7.5655 0
M  V30 4216 N 391.696 -1.35014 -0.812953 0
M  V30 4217 C 392.606 -1.2951 -1.95613 0
M  V30 4218 C 393.622 -0.20107 -1.72834 0
M  V30 4219 O 394.798 -0.42932 -1.96771 0
M  V30 4220 C 391.863 -1.06033 -3.30088 0
M  V30 4221 C 390.924 -2.24688 -3.65805 0
M  V30 4222 C 390.157 -2.02322 -4.93864 0
M  V30 4223 O 390.38 -0.986464 -5.61805 0
M  V30 4224 O 389.314 -2.89525 -5.27692 0
M  V30 4225 H 393.14 -2.25705 -2.03202 0
M  V30 4226 H 390.725 -1.15321 -0.949811 0
M  V30 4227 H 392.607 -0.94763 -4.10607 0
M  V30 4228 H 391.282 -0.128852 -3.23443 0
M  V30 4229 H 390.189 -2.41521 -2.85689 0
M  V30 4230 H 391.522 -3.16261 -3.77147 0
M  V30 4231 N 393.175 1.03435 -1.18907 0
M  V30 4232 C 394.122 2.11591 -0.921837 0
M  V30 4233 C 395.092 1.65499 0.141226 0
M  V30 4234 O 396.277 1.908 0.000242829 0
M  V30 4235 C 393.417 3.42012 -0.460616 0
M  V30 4236 C 392.53 4.01682 -1.58982 0
M  V30 4237 C 391.665 5.20091 -1.08069 0
M  V30 4238 C 390.704 5.71805 -2.18416 0
M  V30 4239 N 389.841 6.81494 -1.68849 0
M  V30 4240 H 394.681 2.33787 -1.8479 0
M  V30 4241 H 392.218 1.1467 -0.921373 0
M  V30 4242 H 394.176 4.16834 -0.174642 0
M  V30 4243 H 392.806 3.19944 0.428467 0
M  V30 4244 H 391.858 3.24127 -1.99113 0
M  V30 4245 H 393.17 4.36084 -2.4214 0
M  V30 4246 H 392.324 6.02051 -0.749615 0
M  V30 4247 H 391.063 4.87209 -0.218771 0
M  V30 4248 H 390.068 4.88461 -2.5236 0
M  V30 4249 H 391.293 6.06728 -3.05054 0
M  V30 4250 H 389.239 6.50475 -0.849572 0
M  V30 4251 H 389.156 7.14994 -2.45601 0
M  V30 4252 H 390.424 7.67063 -1.38689 0
M  V30 4253 N 394.653 0.992116 1.22453 0
M  V30 4254 C 395.899 0.668523 1.91464 0
M  V30 4255 C 396.232 -0.797313 1.77078 0
M  V30 4256 O 395.507 -1.5765 1.13916 0
M  V30 4257 C 395.79 1.07424 3.43703 0
M  V30 4258 C 395.643 2.59857 3.67143 0
M  V30 4259 C 396.962 0.626891 4.35612 0
M  V30 4260 H 394.081 0.244341 0.695318 0
M  V30 4261 H 396.723 1.2355 1.44345 0
M  V30 4262 H 394.873 0.591816 3.83966 0
M  V30 4263 H 396.545 3.15764 3.3629 0
M  V30 4264 H 394.788 3.01961 3.11451 0
M  V30 4265 H 395.459 2.83296 4.73759 0
M  V30 4266 H 397.935 1.04125 4.02861 0
M  V30 4267 H 396.811 0.939076 5.40807 0
M  V30 4268 H 397.072 -0.472457 4.39568 0
M  V30 4269 N 396.131 -1.37776 0.765217 0
M  V30 4270 C 397.359 -2.04124 0.337767 0
M  V30 4271 C 397.774 -1.57715 -1.03785 0
M  V30 4272 O 397.131 -0.755447 -1.6613 0
M  V30 4273 C 397.182 -3.59658 0.364442 0
M  V30 4274 O 396.903 -4.04367 1.68579 0
M  V30 4275 C 398.404 -4.43236 -0.0754221 0
M  V30 4276 H 395.624 -0.655696 0.142491 0
M  V30 4277 H 398.168 -1.76238 1.03732 0
M  V30 4278 H 396.323 -3.86339 -0.286471 0
M  V30 4279 H 396.737 -4.98857 1.61993 0
M  V30 4280 H 398.211 -5.52 -0.00560067 0
M  V30 4281 H 398.688 -4.2455 -1.12491 0
M  V30 4282 H 399.294 -4.21767 0.547055 0
M  V30 4283 N 397.609 -0.515225 -1.4894 0
M  V30 4284 C 398.857 0.0241671 -2.02086 0
M  V30 4285 C 399.178 1.3616 -1.3959 0
M  V30 4286 O 398.448 1.87841 -0.556121 0
M  V30 4287 H 397.028 0.0119203 -0.746905 0
M  V30 4288 H 399.69 -0.675702 -1.82812 0
M  V30 4289 H 398.786 0.143385 -3.1177 0
M  V30 4290 N 399.087 1.5561 -0.249682 0
M  V30 4291 C 400.503 1.59254 0.105103 0
M  V30 4292 C 400.703 1.26685 1.56694 0
M  V30 4293 O 399.759 1.0155 2.31179 0
M  V30 4294 C 401.072 2.99687 -0.246592 0
M  V30 4295 C 402.62 3.12416 -0.191118 0
M  V30 4296 C 403.095 4.55074 -0.516885 0
M  V30 4297 N 404.586 4.60835 -0.467489 0
M  V30 4298 C 405.321 5.69201 -0.69268 0
M  V30 4299 N 404.817 6.85817 -0.981146 0
M  V30 4300 N 406.61 5.58635 -0.623198 0
M  V30 4301 H 398.761 1.75049 -1.20298 0
M  V30 4302 H 401.024 0.815003 -0.484225 0
M  V30 4303 H 400.73 3.28267 -1.26228 0
M  V30 4304 H 400.604 3.74798 0.424962 0
M  V30 4305 H 402.991 2.83615 0.815247 0
M  V30 4306 H 403.072 2.39573 -0.896563 0
M  V30 4307 H 402.716 4.84596 -1.52082 0
M  V30 4308 H 402.646 5.26181 0.210068 0
M  V30 4309 H 405.137 3.7705 -0.253373 0
M  V30 4310 H 405.45 7.64341 -1.14032 0
M  V30 4311 H 403.795 6.87494 -1.01865 0
M  V30 4312 H 406.986 4.66406 -0.397863 0
M  V30 4313 H 407.159 6.43017 -0.802093 0
M  V30 4314 N 400.565 -0.0233959 1.57583 0
M  V30 4315 C 401.814 -0.712133 1.8871 0
M  V30 4316 C 402.127 -1.76217 0.848944 0
M  V30 4317 O 403.333 -2.50389 1.04964 0
M  V30 4318 C 401.789 -1.3177 3.3491 0
M  V30 4319 C 401.397 -0.303715 4.46969 0
M  V30 4320 C 403.141 -1.98598 3.75179 0
M  V30 4321 C 401.048 -0.917945 5.84233 0
M  V30 4322 H 399.978 -0.269735 0.704101 0
M  V30 4323 H 402.629 0.0333114 1.8347 0
M  V30 4324 H 401.011 -2.11304 3.34913 0
M  V30 4325 H 402.185 0.465325 4.58445 0
M  V30 4326 H 400.5 0.2628 4.1557 0
M  V30 4327 H 403.097 -2.45416 4.75053 0
M  V30 4328 H 403.44 -2.80659 3.07468 0
M  V30 4329 H 403.973 -1.25831 3.77374 0
M  V30 4330 H 400.712 -0.136633 6.55358 0
M  V30 4331 H 400.232 -1.65669 5.76467 0
M  V30 4332 H 401.911 -1.4236 6.31144 0
M  V30 4333 N 402.043 -1.548 -0.295768 0
M  V30 4334 C 403.32 -1.65014 -1.05023 0
M  V30 4335 C 403.7 -0.501805 -2.05049 0
M  V30 4336 O 403.048 0.500869 -2.22943 0
M  V30 4337 C 403.258 -3.03252 -1.72741 0
M  V30 4338 C 404.606 -3.60242 -2.24746 0
M  V30 4339 O 405.63 -3.05737 -1.82765 0
M  V30 4340 O 404.489 -4.55687 -3.01681 0
M  V30 4341 H 401.583 -0.669314 -0.485744 0
M  V30 4342 H 404.129 -1.67144 -0.293438 0
M  V30 4343 H 402.901 -3.7827 -1.00138 0
M  V30 4344 H 402.524 -3.04922 -2.55163 0
M  V30 4345 N 403.521 0.559213 -1.47345 0
M  V30 4346 C 404.468 1.66645 -1.59682 0
M  V30 4347 C 405.438 1.60168 -0.43994 0
M  V30 4348 O 406.623 1.79031 -0.659736 0
M  V30 4349 C 403.763 3.04969 -1.61518 0
M  V30 4350 C 402.876 3.21897 -2.88108 0
M  V30 4351 C 402.011 4.50608 -2.81294 0
M  V30 4352 C 401.05 4.60961 -4.02717 0
M  V30 4353 N 400.187 5.81024 -3.94151 0
M  V30 4354 H 405.027 1.55439 -2.54249 0
M  V30 4355 H 402.564 0.757219 -1.26113 0
M  V30 4356 H 404.522 3.85064 -1.60566 0
M  V30 4357 H 403.152 3.15015 -0.704645 0
M  V30 4358 H 402.204 2.35248 -2.98936 0
M  V30 4359 H 403.516 3.25412 -3.78032 0
M  V30 4360 H 402.67 5.3896 -2.7858 0
M  V30 4361 H 401.409 4.49568 -1.89049 0
M  V30 4362 H 400.414 3.71021 -4.05738 0
M  V30 4363 H 401.639 4.63761 -4.96087 0
M  V30 4364 H 399.585 5.80938 -3.04708 0
M  V30 4365 H 399.502 5.85909 -4.77752 0
M  V30 4366 H 400.77 6.71744 -3.9545 0
M  V30 4367 N 404.999 1.35443 0.805782 0
M  V30 4368 C 405.947 1.28465 1.93906 0
M  V30 4369 C 406.941 0.17943 1.68447 0
M  V30 4370 O 408.147 0.345459 1.76654 0
M  V30 4371 H 404.522 0.399528 0.637088 0
M  V30 4372 H 406.493 2.24206 1.96912 0
M  V30 4373 C 405.242 1.07432 3.30687 0
M  V30 4374 H 404.565 1.91716 3.50835 0
M  V30 4375 H 406.005 1.06591 4.10383 0
M  V30 4376 C 404.464 -0.22179 3.36169 0
M  V30 4377 O 404.994 -1.21731 3.82811 0
M  V30 4378 N 403.2 -0.260841 2.89427 0
M  V30 4379 H 402.747 0.549884 2.51663 0
M  V30 4380 H 402.705 -1.12777 2.93477 0
M  V30 4381 N 406.477 -1.02803 1.19454 0
M  V30 4382 C 407.723 -1.76478 0.999171 0
M  V30 4383 C 408.056 -1.88456 -0.468828 0
M  V30 4384 O 407.331 -1.40198 -1.34814 0
M  V30 4385 C 407.614 -3.19044 1.66981 0
M  V30 4386 C 407.467 -3.14932 3.21151 0
M  V30 4387 C 408.786 -4.17456 1.39349 0
M  V30 4388 H 405.905 -0.640614 0.364393 0
M  V30 4389 H 408.547 -1.20005 1.47305 0
M  V30 4390 H 406.697 -3.67263 1.2669 0
M  V30 4391 H 408.369 -2.74605 3.70661 0
M  V30 4392 H 406.612 -2.52625 3.52652 0
M  V30 4393 H 407.283 -4.1566 3.63223 0
M  V30 4394 H 409.759 -3.77842 1.74283 0
M  V30 4395 H 408.635 -5.154 1.88823 0
M  V30 4396 H 408.896 -4.40949 0.318813 0
M  V30 4397 N 407.956 -0.998596 -1.21925 0
M  V30 4398 C 409.181 -0.696015 -1.95372 0
M  V30 4399 C 409.606 0.733826 -1.73195 0
M  V30 4400 O 408.964 1.50242 -1.01474 0
M  V30 4401 C 409.012 -1.01466 -3.4603 0
M  V30 4402 O 408.116 -0.116415 -4.12236 0
M  V30 4403 H 407.457 -0.259938 -0.611006 0
M  V30 4404 H 409.987 -1.33711 -1.54863 0
M  V30 4405 H 409.997 -0.958855 -3.96573 0
M  V30 4406 H 408.672 -2.05653 -3.61497 0
M  V30 4407 H 407.249 -0.228193 -3.72201 0
M  V30 4408 N 409.434 1.37368 -0.772513 0
M  V30 4409 C 410.845 1.8231 -0.402493 0
M  V30 4410 C 411.196 1.6436 1.07146 0
M  V30 4411 O 410.321 1.15514 1.82991 0
M  V30 4412 C 410.916 3.30979 -0.723776 0
M  V30 4413 C 409.475 3.74195 -0.406802 0
M  V30 4414 C 408.622 2.59885 -0.967218 0
M  V30 4415 H 411.573 1.25829 -0.967099 0
M  V30 4416 H 411.594 3.80499 -0.00870832 0
M  V30 4417 H 411.106 3.44011 -1.7966 0
M  V30 4418 H 409.207 3.66732 0.658673 0
M  V30 4419 H 409.32 4.7027 -0.915588 0
M  V30 4420 H 407.684 2.51674 -0.391416 0
M  V30 4421 H 408.467 2.7571 -2.04546 0
M  V30 4422 N 410.912 0.523116 1.48665 0
M  V30 4423 C 411.822 -0.247406 2.33292 0
M  V30 4424 C 412.838 -0.945769 1.46052 0
M  V30 4425 O 414.014 -0.922253 1.79043 0
M  V30 4426 C 411.079 -1.28487 3.22012 0
M  V30 4427 C 410.14 -0.597592 4.2512 0
M  V30 4428 C 409.373 -1.58563 5.09601 0
M  V30 4429 O 409.596 -2.81763 4.95949 0
M  V30 4430 O 408.53 -1.12879 5.91221 0
M  V30 4431 H 412.356 0.445869 3.00409 0
M  V30 4432 H 409.941 0.284128 1.46673 0
M  V30 4433 H 411.823 -1.88459 3.7691 0
M  V30 4434 H 410.498 -1.96068 2.57564 0
M  V30 4435 H 409.405 0.0424407 3.74076 0
M  V30 4436 H 410.738 0.0361517 4.92187 0
M  V30 4437 N 412.39 -1.55475 0.257931 0
M  V30 4438 C 413.353 -2.20551 -0.623706 0
M  V30 4439 C 414.353 -1.17809 -1.09443 0
M  V30 4440 O 415.543 -1.42823 -0.997362 0
M  V30 4441 C 412.675 -2.85784 -1.8585 0
M  V30 4442 H 413.868 -2.99848 -0.0557743 0
M  V30 4443 H 411.421 -1.56298 0.0084422 0
M  V30 4444 H 412.156 -2.10453 -2.46739 0
M  V30 4445 H 411.941 -3.61057 -1.52907 0
M  V30 4446 H 413.431 -3.35553 -2.48584 0
M  V30 4447 N 413.868 0.0150385 -1.57593 0
M  V30 4448 C 415.284 0.370907 -1.5523 0
M  V30 4449 C 415.484 1.75735 -0.985882 0
M  V30 4450 O 414.54 2.44944 -0.613077 0
M  V30 4451 C 415.853 0.259908 -2.99575 0
M  V30 4452 C 417.401 0.335959 -3.11192 0
M  V30 4453 C 417.876 0.254253 -4.57294 0
M  V30 4454 N 419.367 0.312618 -4.62144 0
M  V30 4455 C 420.102 0.272505 -5.72752 0
M  V30 4456 N 419.598 0.183864 -6.92556 0
M  V30 4457 N 421.391 0.323267 -5.6117 0
M  V30 4458 H 413.542 -0.892104 -1.92757 0
M  V30 4459 H 415.805 -0.340563 -0.884715 0
M  V30 4460 H 415.511 -0.693403 -3.44797 0
M  V30 4461 H 415.385 1.048 -3.62349 0
M  V30 4462 H 417.772 1.27971 -2.65909 0
M  V30 4463 H 417.853 -0.481739 -2.51223 0
M  V30 4464 H 417.497 -0.685887 -5.03247 0
M  V30 4465 H 417.427 1.09024 -5.15191 0
M  V30 4466 H 419.918 0.38307 -3.75953 0
M  V30 4467 H 420.231 0.15874 -7.72637 0
M  V30 4468 H 418.576 0.149708 -6.94839 0
M  V30 4469 H 421.767 0.390607 -4.66467 0
M  V30 4470 H 421.94 0.288539 -6.47357 0
M  V30 4471 N 415.346 1.54954 0.287554 0
M  V30 4472 C 416.296 1.8322 1.357 0
M  V30 4473 C 417.28 0.690152 1.45347 0
M  V30 4474 O 418.472 0.951137 1.49273 0
M  V30 4475 C 415.601 2.09481 2.71979 0
M  V30 4476 C 414.687 3.29906 2.66502 0
M  V30 4477 N 415.078 4.50154 2.30641 0
M  V30 4478 C 413.376 3.32203 2.97585 0
M  V30 4479 C 414.077 5.32209 2.34794 0
M  V30 4480 N 413.053 4.70258 2.72688 0
M  V30 4481 H 416.855 2.73746 1.0696 0
M  V30 4482 H 414.369 1.54635 0.496167 0
M  V30 4483 H 416.366 2.27882 3.49107 0
M  V30 4484 H 415.026 1.2023 3.0162 0
M  V30 4485 H 416.037 4.76515 2.02865 0
M  V30 4486 H 412.714 2.53101 3.32034 0
M  V30 4487 H 414.104 6.38321 2.09753 0
M  V30 4488 N 416.824 -0.551391 1.4764 0
M  V30 4489 C 418.235 -1.13349 1.48354 0
M  V30 4490 C 418.586 -1.94709 0.241432 0
M  V30 4491 O 417.711 -2.06306 -0.653205 0
M  V30 4492 C 418.306 -2.0623 2.68802 0
M  V30 4493 C 416.865 -2.597 2.72457 0
M  V30 4494 C 416.012 -1.36201 2.41546 0
M  V30 4495 H 418.963 -0.337698 1.55065 0
M  V30 4496 H 418.984 -2.90196 2.46103 0
M  V30 4497 H 418.496 -1.46987 3.59188 0
M  V30 4498 H 416.597 -3.22724 1.86225 0
M  V30 4499 H 416.71 -3.00296 3.73308 0
M  V30 4500 H 415.074 -1.67068 1.9225 0
M  V30 4501 H 415.857 -0.787425 3.34147 0
M  V30 4502 N 418.302 -1.35869 -0.798587 0
M  V30 4503 C 419.232 -1.32118 -1.92528 0
M  V30 4504 C 420.213 -0.194209 -1.68988 0
M  V30 4505 O 421.398 -0.390426 -1.90235 0
M  V30 4506 C 418.528 -1.10047 -3.29404 0
M  V30 4507 C 417.482 -2.19471 -3.67446 0
M  V30 4508 C 416.808 -1.82555 -5.02571 0
M  V30 4509 C 418.108 -3.61495 -3.76987 0
M  V30 4510 H 419.802 -2.26394 -1.95924 0
M  V30 4511 H 417.348 -1.08981 -0.94123 0
M  V30 4512 H 419.301 -1.06061 -4.07835 0
M  V30 4513 H 418.025 -0.122195 -3.26371 0
M  V30 4514 H 416.684 -2.22568 -2.91306 0
M  V30 4515 H 416.332 -0.833249 -4.9605 0
M  V30 4516 H 416.032 -2.5581 -5.28995 0
M  V30 4517 H 417.556 -1.80108 -5.83432 0
M  V30 4518 H 418.97 -3.60676 -4.4563 0
M  V30 4519 H 417.367 -4.33577 -4.14887 0
M  V30 4520 H 418.437 -3.97065 -2.78329 0
M  V30 4521 N 419.78 1.02168 -1.19998 0
M  V30 4522 C 421.026 1.75945 -1.00852 0
M  V30 4523 C 421.359 1.88702 0.458828 0
M  V30 4524 O 420.634 1.40911 1.34069 0
M  V30 4525 C 420.917 3.18154 -1.68671 0
M  V30 4526 C 420.77 3.13224 -3.22817 0
M  V30 4527 C 422.089 4.16711 -1.41561 0
M  V30 4528 H 419.208 0.638673 -0.367785 0
M  V30 4529 H 421.85 1.19222 -1.4794 0
M  V30 4530 H 420 3.66586 -1.28636 0
M  V30 4531 H 421.672 2.72635 -3.72112 0
M  V30 4532 H 419.915 2.50751 -3.53986 0
M  V30 4533 H 420.586 4.13728 -3.65422 0
M  V30 4534 H 423.062 3.76913 -1.76284 0
M  V30 4535 H 421.938 5.14391 -1.91553 0
M  V30 4536 H 422.199 4.40774 -0.342193 0
M  V30 4537 N 421.258 1.00505 1.21394 0
M  V30 4538 C 422.221 0.570459 2.21987 0
M  V30 4539 C 423.221 -0.353211 1.56873 0
M  V30 4540 O 424.411 -0.14349 1.73608 0
M  V30 4541 C 421.543 -0.168555 3.40483 0
M  V30 4542 H 422.736 1.46021 2.6195 0
M  V30 4543 H 420.289 0.793565 1.34656 0
M  V30 4544 H 421.024 -1.07374 3.06009 0
M  V30 4545 H 420.809 0.494823 3.88965 0
M  V30 4546 H 422.299 -0.460362 4.15055 0
M  V30 4547 N 422.737 -1.36956 0.779787 0
M  V30 4548 C 423.7 -2.2851 0.177662 0
M  V30 4549 C 424.7 -1.48393 -0.619377 0
M  V30 4550 O 425.89 -1.68505 -0.441785 0
M  V30 4551 C 423.022 -3.32428 -0.755279 0
M  V30 4552 H 424.215 -2.83269 0.984823 0
M  V30 4553 H 421.768 -1.46358 0.548544 0
M  V30 4554 H 422.503 -2.82808 -1.58714 0
M  V30 4555 H 422.288 -3.91659 -0.185817 0
M  V30 4556 H 423.778 -4.00824 -1.17174 0
M  V30 4557 N 424.215 -0.530993 -1.48385 0
M  V30 4558 C 425.445 -0.00133928 -2.066 0
M  V30 4559 C 425.853 1.28599 -1.38777 0
M  V30 4560 O 425.196 1.77599 -0.469495 0
M  V30 4561 C 425.258 0.292137 -3.58311 0
M  V30 4562 C 424.922 -0.901864 -4.48013 0
M  V30 4563 C 425.919 -1.80053 -4.87726 0
M  V30 4564 C 423.604 -1.10915 -4.89901 0
M  V30 4565 C 425.598 -2.89038 -5.68098 0
M  V30 4566 C 423.285 -2.20213 -5.70043 0
M  V30 4567 C 424.283 -3.09107 -6.0905 0
M  V30 4568 O 423.971 -4.16514 -6.87583 0
M  V30 4569 H 423.703 -0.0308475 -0.675296 0
M  V30 4570 H 426.257 -0.736335 -1.91748 0
M  V30 4571 H 424.487 1.08112 -3.7128 0
M  V30 4572 H 426.176 0.763994 -3.98645 0
M  V30 4573 H 426.942 -1.65234 -4.55986 0
M  V30 4574 H 422.821 -0.426498 -4.59023 0
M  V30 4575 H 426.365 -3.58451 -5.98464 0
M  V30 4576 H 422.262 -2.35016 -6.01197 0
M  V30 4577 H 423.03 -4.14237 -7.05939 0
M  V30 4578 N 425.693 1.55336 -0.266172 0
M  V30 4579 C 427.104 1.85236 0.233315 0
M  V30 4580 C 427.455 1.18816 1.56132 0
M  V30 4581 O 426.58 0.473307 2.11161 0
M  V30 4582 C 427.175 3.36059 0.430113 0
M  V30 4583 C 425.734 3.66116 0.873842 0
M  V30 4584 C 424.881 2.77274 -0.0380016 0
M  V30 4585 H 427.832 1.51004 -0.488214 0
M  V30 4586 H 427.853 3.58681 1.26998 0
M  V30 4587 H 427.365 3.84373 -0.536588 0
M  V30 4588 H 425.466 3.23295 1.85233 0
M  V30 4589 H 425.579 4.73699 0.717358 0
M  V30 4590 H 423.943 2.50198 0.476759 0
M  V30 4591 H 424.726 3.284 -1.00042 0
M  V30 4592 N 427.171 -0.0066808 1.57599 0
M  V30 4593 C 428.42 -0.692078 1.89455 0
M  V30 4594 C 428.733 -1.75306 0.867586 0
M  V30 4595 O 429.939 -2.49262 1.07614 0
M  V30 4596 C 428.395 -1.2821 3.36289 0
M  V30 4597 C 428.003 -0.256291 4.47266 0
M  V30 4598 C 429.747 -1.94608 3.77264 0
M  V30 4599 C 427.654 -0.855927 5.85173 0
M  V30 4600 H 426.584 -0.262252 0.706923 0
M  V30 4601 H 429.235 0.052769 1.83424 0
M  V30 4602 H 427.617 -2.0774 3.37135 0
M  V30 4603 H 428.791 0.513923 4.57925 0
M  V30 4604 H 427.106 0.306862 4.15268 0
M  V30 4605 H 429.703 -2.40364 4.77629 0
M  V30 4606 H 430.046 -2.77382 3.10427 0
M  V30 4607 H 430.579 -1.21822 3.78688 0
M  V30 4608 H 427.318 -0.0671161 6.55466 0
M  V30 4609 H 426.838 -1.59546 5.78191 0
M  V30 4610 H 428.517 -1.35658 6.32618 0
M  V30 4611 N 428.649 -1.55105 -0.279332 0
M  V30 4612 C 429.895 -1.75672 -1.01327 0
M  V30 4613 C 430.228 -0.552739 -1.86168 0
M  V30 4614 O 429.503 0.449827 -1.89227 0
M  V30 4615 C 429.786 -3.05825 -1.90114 0
M  V30 4616 C 429.639 -4.36565 -1.08309 0
M  V30 4617 C 430.958 -3.31975 -2.8893 0
M  V30 4618 H 428.077 -0.639149 -0.366957 0
M  V30 4619 H 430.719 -1.87833 -0.286154 0
M  V30 4620 H 428.869 -2.95588 -2.52111 0
M  V30 4621 H 430.541 -4.58751 -0.484314 0
M  V30 4622 H 428.784 -4.32076 -0.386362 0
M  V30 4623 H 429.455 -5.23946 -1.73737 0
M  V30 4624 H 431.931 -3.41963 -2.37067 0
M  V30 4625 H 430.807 -4.2432 -3.48201 0
M  V30 4626 H 431.068 -2.51309 -3.63725 0
M  V30 4627 N 430.127 0.543554 -1.4793 0
M  V30 4628 C 431.077 1.64527 -1.57844 0
M  V30 4629 C 432.061 1.54869 -0.436408 0
M  V30 4630 O 433.253 1.63119 -0.687101 0
M  V30 4631 C 430.382 3.03281 -1.6086 0
M  V30 4632 C 429.468 3.18093 -2.80495 0
M  V30 4633 N 429.859 3.02923 -4.05057 0
M  V30 4634 C 428.157 3.49121 -2.77543 0
M  V30 4635 C 428.858 3.20791 -4.85251 0
M  V30 4636 N 427.834 3.47749 -4.17818 0
M  V30 4637 H 431.636 1.51388 -2.5191 0
M  V30 4638 H 429.15 0.748671 -1.44113 0
M  V30 4639 H 431.147 3.82403 -1.66054 0
M  V30 4640 H 429.807 3.17521 -0.678996 0
M  V30 4641 H 430.818 2.79966 -4.35705 0
M  V30 4642 H 427.495 3.69804 -1.93781 0
M  V30 4643 H 428.885 3.13915 -5.9406 0
M  V30 4644 N 431.605 1.3629 0.791371 0
M  V30 4645 C 432.851 1.30605 1.55146 0
M  V30 4646 C 433.184 -0.115042 1.93859 0
M  V30 4647 O 432.459 -1.06798 1.62556 0
M  V30 4648 C 432.742 2.22692 2.82985 0
M  V30 4649 C 432.595 3.73489 2.50651 0
M  V30 4650 C 433.914 2.13588 3.84796 0
M  V30 4651 H 431.033 0.475761 0.562868 0
M  V30 4652 H 433.675 1.66825 0.909358 0
M  V30 4653 H 431.825 1.91933 3.37778 0
M  V30 4654 H 433.497 4.14758 2.01924 0
M  V30 4655 H 431.74 3.93021 1.83622 0
M  V30 4656 H 432.411 4.3333 3.41949 0
M  V30 4657 H 434.887 2.40659 3.39445 0
M  V30 4658 H 433.763 2.80195 4.71998 0
M  V30 4659 H 434.024 1.12256 4.27611 0
M  V30 4660 N 433.083 -1.0153 1.20538 0
M  V30 4661 C 434.36 -1.72327 0.925343 0
M  V30 4662 C 434.74 -2.03383 -0.565547 0
M  V30 4663 O 434.088 -1.69934 -1.52757 0
M  V30 4664 C 434.298 -2.9902 1.79967 0
M  V30 4665 C 435.646 -3.72258 2.04228 0
M  V30 4666 O 436.67 -3.08979 1.77231 0
M  V30 4667 O 435.529 -4.86053 2.4983 0
M  V30 4668 H 432.623 -0.751099 0.346092 0
M  V30 4669 H 435.169 -1.07366 1.31417 0
M  V30 4670 H 433.941 -2.72402 2.80915 0
M  V30 4671 H 433.564 -3.71721 1.41099 0
M  V30 4672 N 434.561 -1.01147 -1.20859 0
M  V30 4673 C 435.494 -0.522108 -2.22147 0
M  V30 4674 C 436.472 0.427686 -1.56874 0
M  V30 4675 O 437.656 0.34889 -1.85243 0
M  V30 4676 C 434.783 0.240819 -3.37843 0
M  V30 4677 C 433.829 -0.657752 -4.21398 0
M  V30 4678 S 434.662 -2.12393 -4.91578 0
M  V30 4679 C 435.818 -1.37102 -6.10699 0
M  V30 4680 H 436.051 -1.38035 -2.63313 0
M  V30 4681 H 433.584 -0.819941 -1.30829 0
M  V30 4682 H 435.542 0.674908 -4.04914 0
M  V30 4683 H 434.203 1.07457 -2.95147 0
M  V30 4684 H 433.396 -0.0697456 -5.03952 0
M  V30 4685 H 432.998 -1.0294 -3.59555 0
M  V30 4686 H 435.29 -0.648315 -6.74391 0
M  V30 4687 H 436.233 -2.17252 -6.73949 0
M  V30 4688 H 436.641 -0.876154 -5.57659 0
M  V30 4689 N 436.039 1.36541 -0.78704 0
M  V30 4690 C 436.949 2.3387 -0.184896 0
M  V30 4691 C 437.965 1.60927 0.661697 0
M  V30 4692 O 439.141 1.92927 0.57804 0
M  V30 4693 C 436.206 3.40122 0.672145 0
M  V30 4694 C 435.267 4.28867 -0.19267 0
M  V30 4695 C 434.5 5.30045 0.623561 0
M  V30 4696 O 434.723 5.39232 1.8597 0
M  V30 4697 O 433.657 6.01895 0.0247068 0
M  V30 4698 H 437.483 2.87126 -0.989562 0
M  V30 4699 H 435.068 1.38969 -0.548455 0
M  V30 4700 H 436.95 4.05093 1.16094 0
M  V30 4701 H 435.625 2.89169 1.45474 0
M  V30 4702 H 434.532 3.66945 -0.728166 0
M  V30 4703 H 435.865 4.83165 -0.938722 0
M  V30 4704 N 437.518 0.538854 1.48102 0
M  V30 4705 C 438.466 -0.232325 2.31437 0
M  V30 4706 C 439.46 -0.927004 1.41785 0
M  V30 4707 O 440.666 -0.850378 1.58646 0
M  V30 4708 H 437.041 -0.0937916 0.746128 0
M  V30 4709 H 439.012 0.489986 2.9435 0
M  V30 4710 C 437.761 -1.26074 3.24038 0
M  V30 4711 H 437.084 -0.735609 3.92974 0
M  V30 4712 H 438.524 -1.77157 3.85216 0
M  V30 4713 C 436.983 -2.29902 2.46265 0
M  V30 4714 O 437.513 -3.36502 2.19384 0
M  V30 4715 N 435.719 -2.03348 2.07601 0
M  V30 4716 H 435.266 -1.16675 2.29662 0
M  V30 4717 H 435.224 -2.73038 1.55877 0
M  V30 4718 N 438.996 -1.55193 0.274407 0
M  V30 4719 C 440.245 -1.98758 -0.343213 0
M  V30 4720 C 440.558 -1.16624 -1.5703 0
M  V30 4721 O 441.764 -1.5033 -2.26082 0
M  V30 4722 C 440.22 -3.53759 -0.661996 0
M  V30 4723 C 439.828 -4.4467 0.54524 0
M  V30 4724 C 441.572 -4.05916 -1.24228 0
M  V30 4725 C 439.479 -5.91058 0.201084 0
M  V30 4726 H 438.409 -0.742353 -0.132014 0
M  V30 4727 H 441.06 -1.79545 0.378948 0
M  V30 4728 H 439.442 -3.68772 -1.44304 0
M  V30 4729 H 440.616 -4.41426 1.32212 0
M  V30 4730 H 438.931 -4.03143 1.04232 0
M  V30 4731 H 441.528 -5.12831 -1.51357 0
M  V30 4732 H 441.871 -3.54908 -2.17592 0
M  V30 4733 H 442.404 -3.9434 -0.523542 0
M  V30 4734 H 439.143 -6.46161 1.10258 0
M  V30 4735 H 438.663 -5.97373 -0.539045 0
M  V30 4736 H 440.342 -6.46669 -0.206954 0
M  V30 4737 N 440.474 -0.00167713 -1.576 0
M  V30 4738 C 441.723 0.682021 -1.89819 0
M  V30 4739 C 442.036 1.74844 -0.876871 0
M  V30 4740 O 443.242 2.48688 -1.08934 0
M  V30 4741 C 441.698 1.26425 -3.36964 0
M  V30 4742 C 441.306 0.232568 -4.47396 0
M  V30 4743 C 443.05 1.92604 -3.78291 0
M  V30 4744 C 440.957 0.824882 -5.85619 0
M  V30 4745 H 439.887 0.258499 -0.708304 0
M  V30 4746 H 442.538 -0.0624957 -1.83394 0
M  V30 4747 H 440.92 2.05949 -3.38232 0
M  V30 4748 H 442.094 -0.5382 -4.57646 0
M  V30 4749 H 440.409 -0.32888 -4.15099 0
M  V30 4750 H 443.006 2.37827 -4.78897 0
M  V30 4751 H 443.349 2.75732 -3.11894 0
M  V30 4752 H 443.882 1.19812 -3.79328 0
M  V30 4753 H 440.621 0.0323542 -6.55492 0
M  V30 4754 H 440.141 1.56477 -5.79029 0
M  V30 4755 H 441.82 1.32301 -6.33329 0
M  V30 4756 N 441.952 1.55251 0.271103 0
M  V30 4757 C 442.882 1.9127 1.33933 0
M  V30 4758 C 443.863 0.77478 1.5143 0
M  V30 4759 O 445.048 1.03307 1.64442 0
M  V30 4760 C 442.178 2.18627 2.69851 0
M  V30 4761 C 441.132 3.34442 2.67081 0
M  V30 4762 C 440.458 3.47284 4.06569 0
M  V30 4763 C 441.758 4.70784 2.26185 0
M  V30 4764 H 443.452 2.80744 1.04035 0
M  V30 4765 H 440.998 1.35077 0.499017 0
M  V30 4766 H 442.951 2.42413 3.44694 0
M  V30 4767 H 441.675 1.25955 3.01335 0
M  V30 4768 H 440.334 3.10627 1.94695 0
M  V30 4769 H 439.982 2.52074 4.35279 0
M  V30 4770 H 439.682 4.25152 4.0561 0
M  V30 4771 H 441.206 3.73363 4.83148 0
M  V30 4772 H 442.62 4.94102 2.90751 0
M  V30 4773 H 441.017 5.51582 2.36384 0
M  V30 4774 H 442.087 4.69478 1.21319 0
M  V30 4775 N 443.43 -0.535701 1.48216 0
M  V30 4776 C 444.655 -1.32149 1.59848 0
M  V30 4777 C 445.08 -1.86338 0.256842 0
M  V30 4778 O 444.438 -1.64107 -0.770632 0
M  V30 4779 C 444.486 -2.45224 2.64381 0
M  V30 4780 O 443.59 -3.48093 2.21144 0
M  V30 4781 H 442.931 -0.391634 0.536208 0
M  V30 4782 H 445.461 -0.645202 1.94161 0
M  V30 4783 H 445.471 -2.91491 2.85476 0
M  V30 4784 H 444.146 -2.05143 3.61786 0
M  V30 4785 H 442.723 -3.07984 2.10239 0
M  V30 4786 N 444.908 -1.36708 -0.784132 0
M  V30 4787 C 445.855 -1.31466 -1.89698 0
M  V30 4788 C 446.825 -0.18239 -1.65096 0
M  V30 4789 O 448.01 -0.369762 -1.87183 0
M  V30 4790 C 445.15 -1.1151 -3.26588 0
M  V30 4791 C 444.263 -2.33859 -3.63227 0
M  V30 4792 C 443.398 -2.06873 -4.89262 0
M  V30 4793 C 442.437 -3.25154 -5.18595 0
M  V30 4794 N 441.574 -2.978 -6.35814 0
M  V30 4795 H 446.414 -2.26619 -1.93515 0
M  V30 4796 H 443.951 -1.12625 -0.946256 0
M  V30 4797 H 445.909 -0.979653 -4.05535 0
M  V30 4798 H 444.539 -0.200103 -3.22179 0
M  V30 4799 H 443.591 -2.58188 -2.79362 0
M  V30 4800 H 444.903 -3.22109 -3.8085 0
M  V30 4801 H 444.057 -1.90289 -5.76086 0
M  V30 4802 H 442.796 -1.15942 -4.73718 0
M  V30 4803 H 441.801 -3.42292 -4.30251 0
M  V30 4804 H 443.026 -4.1692 -5.36055 0
M  V30 4805 H 440.972 -2.09485 -6.21653 0
M  V30 4806 H 440.889 -3.7959 -6.53794 0
M  V30 4807 H 442.157 -2.84805 -7.25607 0
M  V30 4808 N 446.386 1.0089 -1.21074 0
M  V30 4809 C 447.334 2.11707 -0.963476 0
M  V30 4810 C 448.328 1.69172 0.0879032 0
M  V30 4811 O 449.534 1.79889 -0.0631415 0
M  V30 4812 H 445.909 0.692026 -0.294287 0
M  V30 4813 H 447.88 2.29743 -1.90422 0
M  V30 4814 C 446.629 3.43473 -0.540509 0
M  V30 4815 H 445.952 3.76634 -1.34114 0
M  V30 4816 H 447.392 4.22044 -0.406777 0
M  V30 4817 C 445.851 3.2849 0.748079 0
M  V30 4818 O 446.381 3.58883 1.8046 0
M  V30 4819 N 444.587 2.81715 0.713081 0
M  V30 4820 H 444.134 2.5718 -0.146973 0
M  V30 4821 H 444.092 2.72071 1.57558 0
M  V30 4822 N 447.864 1.01787 1.20321 0
M  V30 4823 C 448.774 0.598898 2.26827 0
M  V30 4824 C 449.79 -0.36418 1.70146 0
M  V30 4825 O 450.966 -0.224812 2.00141 0
M  V30 4826 C 448.031 -0.0549769 3.46656 0
M  V30 4827 C 447.092 0.954205 4.18561 0
M  V30 4828 C 446.325 0.331439 5.3267 0
M  V30 4829 O 446.548 -0.86851 5.63749 0
M  V30 4830 O 445.482 1.0488 5.92692 0
M  V30 4831 H 449.308 1.48562 2.64883 0
M  V30 4832 H 446.893 0.787434 1.26964 0
M  V30 4833 H 448.775 -0.420102 4.19301 0
M  V30 4834 H 447.45 -0.915876 3.10473 0
M  V30 4835 H 446.357 1.37072 3.48083 0
M  V30 4836 H 447.69 1.78511 4.58688 0
M  V30 4837 N 449.342 -1.36122 0.79427 0
M  V30 4838 C 450.619 -1.93398 0.292685 0
M  V30 4839 C 450.999 -1.72567 -1.21589 0
M  V30 4840 O 450.347 -1.08745 -2.00965 0
M  V30 4841 C 450.557 -3.42099 0.690614 0
M  V30 4842 C 451.905 -4.19231 0.673105 0
M  V30 4843 O 452.929 -3.50559 0.631389 0
M  V30 4844 O 451.788 -5.41732 0.720362 0
M  V30 4845 H 448.882 -0.823712 0.0736693 0
M  V30 4846 H 451.428 -1.45273 0.87714 0
M  V30 4847 H 450.2 -3.50938 1.73085 0
M  V30 4848 H 449.823 -3.97519 0.0803036 0
M  V30 4849 N 450.82 -0.546701 -1.47814 0
M  V30 4850 C 451.752 0.244196 -2.27895 0
M  V30 4851 C 452.765 0.88911 -1.36377 0
M  V30 4852 O 453.954 0.764733 -1.61289 0
M  V30 4853 C 451.054 1.36252 -3.10304 0
M  V30 4854 C 450.227 0.816382 -4.29714 0
M  V30 4855 C 449.286 1.81789 -4.93801 0
M  V30 4856 O 448.312 1.36818 -5.52512 0
M  V30 4857 N 449.514 3.15085 -4.87547 0
M  V30 4858 H 452.279 -0.442694 -2.96412 0
M  V30 4859 H 449.84 -0.382095 -1.57327 0
M  V30 4860 H 451.832 2.03102 -3.50045 0
M  V30 4861 H 450.402 1.95281 -2.44099 0
M  V30 4862 H 449.622 -0.0285981 -3.9419 0
M  V30 4863 H 450.91 0.430668 -5.06974 0
M  V30 4864 H 450.308 3.54275 -4.41028 0
M  V30 4865 H 448.865 3.77522 -5.31339 0
M  V30 4866 N 452.299 1.55045 -0.282633 0
M  V30 4867 C 453.524 2.04628 0.337977 0
M  V30 4868 C 453.949 1.15937 1.48123 0
M  V30 4869 O 453.307 0.159532 1.80597 0
M  V30 4870 C 453.355 3.51854 0.78936 0
M  V30 4871 O 452.459 3.66236 1.89592 0
M  V30 4872 H 451.8 0.660434 0.0687261 0
M  V30 4873 H 454.33 2.00261 -0.419124 0
M  V30 4874 H 454.34 3.93361 1.08311 0
M  V30 4875 H 453.015 4.15873 -0.0470419 0
M  V30 4876 H 451.592 3.36633 1.60413 0
M  V30 4877 N 453.777 0.010035 1.57597 0
M  V30 4878 C 455.005 -0.683413 1.95287 0
M  V30 4879 C 455.42 -1.66747 0.885481 0
M  V30 4880 O 454.777 -1.82003 -0.134629 0
M  V30 4881 C 454.828 -1.40652 3.33015 0
M  V30 4882 O 454.549 -0.461916 4.35658 0
M  V30 4883 C 456.05 -2.19356 3.85225 0
M  V30 4884 H 453.27 -0.189708 0.643624 0
M  V30 4885 H 455.814 0.0641359 2.04399 0
M  V30 4886 H 453.969 -2.10562 3.2518 0
M  V30 4887 H 454.383 -0.973215 5.15392 0
M  V30 4888 H 455.857 -2.65433 4.83993 0
M  V30 4889 H 456.334 -3.02457 3.18459 0
M  V30 4890 H 456.94 -1.54442 3.96267 0
M  V30 4891 N 455.255 -1.55392 -0.262866 0
M  V30 4892 C 456.187 -1.85392 -1.34768 0
M  V30 4893 C 457.2 -0.739069 -1.45057 0
M  V30 4894 O 458.389 -1.01703 -1.46693 0
M  V30 4895 C 455.489 -2.01088 -2.72795 0
M  V30 4896 C 454.662 -3.31828 -2.84972 0
M  V30 4897 C 453.721 -3.37464 -4.03738 0
M  V30 4898 O 452.747 -4.10778 -3.94018 0
M  V30 4899 N 453.949 -2.65599 -5.16176 0
M  V30 4900 H 456.714 -2.79029 -1.09375 0
M  V30 4901 H 454.275 -1.55434 -0.452981 0
M  V30 4902 H 456.267 -2.02217 -3.50557 0
M  V30 4903 H 454.837 -1.1427 -2.90966 0
M  V30 4904 H 454.057 -3.43152 -1.94012 0
M  V30 4905 H 455.345 -4.18032 -2.90045 0
M  V30 4906 H 454.743 -2.05736 -5.26962 0
M  V30 4907 H 453.3 -2.72439 -5.92132 0
M  V30 4908 N 456.733 0.527833 -1.48498 0
M  V30 4909 C 457.681 1.65313 -1.63628 0
M  V30 4910 C 458.675 1.6177 -0.502676 0
M  V30 4911 O 459.881 1.66601 -0.681469 0
M  V30 4912 H 456.256 0.547518 -0.515488 0
M  V30 4913 H 458.227 1.49696 -2.58135 0
M  V30 4914 C 456.976 3.03576 -1.6952 0
M  V30 4915 H 456.299 3.06997 -2.56111 0
M  V30 4916 H 457.739 3.81923 -1.84149 0
M  V30 4917 C 456.198 3.34089 -0.43432 0
M  V30 4918 O 456.728 3.99151 0.451852 0
M  V30 4919 N 454.934 2.88991 -0.305368 0
M  V30 4920 H 454.481 2.36222 -1.02747 0
M  V30 4921 H 454.439 3.09776 0.537249 0
M  V30 4922 N 458.211 1.37122 0.776871 0
M  V30 4923 C 459.439 1.3523 1.5659 0
M  V30 4924 C 459.854 -0.0635518 1.88693 0
M  V30 4925 O 459.211 -1.02394 1.51069 0
M  V30 4926 C 459.262 2.18583 2.8793 0
M  V30 4927 O 458.983 3.5465 2.57206 0
M  V30 4928 C 460.484 2.24612 3.82183 0
M  V30 4929 H 457.704 0.4634 0.485285 0
M  V30 4930 H 460.248 1.80392 0.963266 0
M  V30 4931 H 458.403 1.76943 3.4463 0
M  V30 4932 H 458.817 3.98286 3.41275 0
M  V30 4933 H 460.291 2.87267 4.71361 0
M  V30 4934 H 460.768 1.25309 4.20944 0
M  V30 4935 H 461.374 2.66543 3.31414 0
M  V30 4936 N 459.689 -1.00246 1.21608 0
M  V30 4937 C 460.966 -1.71336 0.943568 0
M  V30 4938 C 461.346 -2.03972 -0.543943 0
M  V30 4939 O 460.694 -1.71545 -1.50946 0
M  V30 4940 C 460.904 -2.97094 1.83128 0
M  V30 4941 C 462.252 -3.70071 2.08165 0
M  V30 4942 O 463.276 -3.07081 1.80498 0
M  V30 4943 O 462.135 -4.83376 2.54971 0
M  V30 4944 H 459.229 -0.747386 0.354039 0
M  V30 4945 H 461.775 -1.05967 1.32549 0
M  V30 4946 H 460.547 -2.69407 2.83788 0
M  V30 4947 H 460.17 -3.70204 1.45034 0
M  V30 4948 N 461.167 -1.02423 -1.1978 0
M  V30 4949 C 462.392 -0.7373 -1.93852 0
M  V30 4950 C 462.817 0.696923 -1.74713 0
M  V30 4951 O 462.175 1.48056 -1.04638 0
M  V30 4952 C 462.223 -1.08783 -3.438 0
M  V30 4953 O 461.327 -0.20383 -4.11896 0
M  V30 4954 H 460.668 -0.27284 -0.605355 0
M  V30 4955 H 463.198 -1.36966 -1.51992 0
M  V30 4956 H 463.208 -1.04276 -3.9445 0
M  V30 4957 H 461.883 -2.13274 -3.57053 0
M  V30 4958 H 460.46 -0.307091 -3.71633 0
M  V30 4959 N 462.645 1.35699 -0.801477 0
M  V30 4960 C 463.577 2.28598 -0.166028 0
M  V30 4961 C 464.59 1.50044 0.631721 0
M  V30 4962 O 465.779 1.72339 0.464921 0
M  V30 4963 C 462.879 3.29625 0.787451 0
M  V30 4964 C 462.052 4.37384 0.037171 0
M  V30 4965 C 461.111 5.183 0.908375 0
M  V30 4966 O 460.137 5.68053 0.361189 0
M  V30 4967 N 461.339 5.35912 2.23112 0
M  V30 4968 H 464.104 2.83771 -0.964071 0
M  V30 4969 H 461.665 1.47994 -0.656469 0
M  V30 4970 H 463.657 3.80648 1.37439 0
M  V30 4971 H 462.227 2.75004 1.48632 0
M  V30 4972 H 461.447 3.87364 -0.730935 0
M  V30 4973 H 462.735 5.0653 -0.480109 0
M  V30 4974 H 462.133 4.97125 2.69968 0
M  V30 4975 H 460.69 5.90133 2.76741 0
M  V30 4976 N 464.123 0.554532 1.47522 0
M  V30 4977 C 465.351 0.034257 2.06872 0
M  V30 4978 C 465.766 -1.25826 1.40759 0
M  V30 4979 O 465.123 -1.75425 0.503217 0
M  V30 4980 C 465.174 -0.167827 3.6111 0
M  V30 4981 O 464.895 1.07351 4.24744 0
M  V30 4982 C 466.396 -0.72569 4.3732 0
M  V30 4983 H 463.616 0.0446275 0.669514 0
M  V30 4984 H 466.16 0.767181 1.89564 0
M  V30 4985 H 464.315 -0.850872 3.7794 0
M  V30 4986 H 464.729 0.869563 5.17242 0
M  V30 4987 H 466.203 -0.816394 5.45929 0
M  V30 4988 H 466.68 -1.73635 4.0342 0
M  V30 4989 H 467.286 -0.0784292 4.25228 0
M  V30 4990 N 465.601 -1.54893 0.290851 0
M  V30 4991 C 467.017 -1.59476 -0.0628432 0
M  V30 4992 C 467.217 -1.30795 -1.5328 0
M  V30 4993 O 466.273 -1.07644 -2.28406 0
M  V30 4994 C 467.586 -2.98928 0.325962 0
M  V30 4995 C 469.134 -3.11799 0.273882 0
M  V30 4996 C 469.609 -4.53544 0.637359 0
M  V30 4997 N 471.1 -4.59433 0.589507 0
M  V30 4998 C 471.835 -5.67164 0.84335 0
M  V30 4999 N 471.331 -6.82975 1.16263 0
M  V30 5000 N 473.124 -5.56786 0.771091 0
M  V30 5001 H 465.275 -1.71798 1.24896 0
M  V30 5002 H 467.538 -0.801879 0.505663 0
M  V30 5003 H 467.244 -3.24805 1.34887 0
M  V30 5004 H 467.118 -3.75793 -0.325441 0
M  V30 5005 H 469.505 -2.85677 -0.739765 0
M  V30 5006 H 469.586 -2.37112 0.959766 0
M  V30 5007 H 469.23 -4.80394 1.64877 0
M  V30 5008 H 469.16 -5.26553 -0.0704866 0
M  V30 5009 H 471.651 -3.76245 0.353252 0
M  V30 5010 H 471.964 -7.61048 1.34257 0
M  V30 5011 H 470.309 -6.84552 1.20057 0
M  V30 5012 H 473.5 -4.65187 0.521383 0
M  V30 5013 H 473.673 -6.40664 0.972295 0
M  V30 5014 N 467.08 -0.0183926 -1.57589 0
M  V30 5015 C 468.308 0.673046 -1.95647 0
M  V30 5016 C 468.723 1.66275 -0.894312 0
M  V30 5017 O 468.08 1.82072 0.124975 0
M  V30 5018 C 468.131 1.38884 -3.33756 0
M  V30 5019 O 467.852 0.438806 -4.35897 0
M  V30 5020 C 469.353 2.1731 -3.86383 0
M  V30 5021 H 466.573 0.186292 -0.644621 0
M  V30 5022 H 469.117 -0.0749748 -2.04363 0
M  V30 5023 H 467.272 2.08835 -3.26293 0
M  V30 5024 H 467.686 0.945869 -5.15901 0
M  V30 5025 H 469.16 2.62863 -4.85394 0
M  V30 5026 H 469.637 3.00764 -3.20059 0
M  V30 5027 H 470.243 1.52339 -3.97081 0
M  V30 5028 N 468.558 1.5553 0.254621 0
M  V30 5029 C 469.807 1.76202 0.981612 0
M  V30 5030 C 470.12 0.580883 1.86776 0
M  V30 5031 O 471.326 0.670448 2.63092 0
M  V30 5032 C 469.782 3.11921 1.79537 0
M  V30 5033 C 469.39 4.37659 0.956991 0
M  V30 5034 C 471.134 3.41936 2.51555 0
M  V30 5035 C 469.041 5.64411 1.76619 0
M  V30 5036 H 467.971 0.656841 0.370237 0
M  V30 5037 H 470.622 1.81969 0.236556 0
M  V30 5038 H 469.004 3.00241 2.58208 0
M  V30 5039 H 470.178 4.60307 0.21315 0
M  V30 5040 H 468.493 4.14922 0.350497 0
M  V30 5041 H 471.09 4.33849 3.12536 0
M  V30 5042 H 471.433 2.62905 3.22779 0
M  V30 5043 H 471.966 3.54797 1.799 0
M  V30 5044 H 468.705 6.46241 1.09783 0
M  V30 5045 H 468.225 5.45877 2.48551 0
M  V30 5046 H 469.904 6.03386 2.33527 0
M  V30 5047 N 470.036 -0.519951 1.48776 0
M  V30 5048 C 471.261 -1.30447 1.6124 0
M  V30 5049 C 471.686 -1.86055 0.276591 0
M  V30 5050 O 471.044 -1.64915 -0.753183 0
M  V30 5051 C 471.092 -2.42406 2.66967 0
M  V30 5052 O 470.196 -3.45728 2.24824 0
M  V30 5053 H 469.537 -0.385924 0.540332 0
M  V30 5054 H 472.067 -0.624572 1.94834 0
M  V30 5055 H 472.077 -2.88447 2.88552 0
M  V30 5056 H 470.752 -2.01294 3.63941 0
M  V30 5057 H 469.329 -3.05737 2.13494 0
M  V30 5058 N 471.514 -1.37532 -0.769588 0
M  V30 5059 C 472.461 -1.3347 -1.88293 0
M  V30 5060 C 473.431 -0.199891 -1.64893 0
M  V30 5061 O 474.616 -0.389594 -1.8678 0
M  V30 5062 C 471.756 -1.14968 -3.25387 0
M  V30 5063 C 470.869 -2.37698 -3.60727 0
M  V30 5064 C 470.004 -2.12051 -4.8704 0
M  V30 5065 C 469.043 -3.30636 -5.15117 0
M  V30 5066 N 468.18 -3.04527 -6.3262 0
M  V30 5067 H 473.02 -2.28658 -1.911 0
M  V30 5068 H 470.557 -1.13622 -0.934257 0
M  V30 5069 H 472.515 -1.02261 -4.04473 0
M  V30 5070 H 471.145 -0.234263 -3.21949 0
M  V30 5071 H 470.197 -2.61137 -2.76608 0
M  V30 5072 H 471.509 -3.26131 -3.77413 0
M  V30 5073 H 470.663 -1.96388 -5.74035 0
M  V30 5074 H 469.402 -1.20959 -4.72462 0
M  V30 5075 H 468.407 -3.46836 -4.26597 0
M  V30 5076 H 469.632 -4.22582 -5.31603 0
M  V30 5077 H 467.578 -2.16067 -6.19396 0
M  V30 5078 H 467.495 -3.86503 -6.49732 0
M  V30 5079 H 468.763 -2.92485 -7.22546 0
M  V30 5080 N 472.992 0.995999 -1.22138 0
M  V30 5081 C 473.94 2.10673 -0.985876 0
M  V30 5082 C 474.934 1.69255 0.0699553 0
M  V30 5083 O 476.14 1.79812 -0.0822176 0
M  V30 5084 H 472.515 0.688865 -0.30161 0
M  V30 5085 H 474.486 2.27711 -1.92848 0
M  V30 5086 C 473.235 3.42881 -0.576909 0
M  V30 5087 H 472.558 3.75191 -1.38101 0
M  V30 5088 H 473.998 4.21589 -0.451518 0
M  V30 5089 C 472.457 3.29265 0.713196 0
M  V30 5090 O 472.987 3.60777 1.76643 0
M  V30 5091 N 471.193 2.82456 0.683162 0
M  V30 5092 H 470.74 2.5701 -0.174242 0
M  V30 5093 H 470.698 2.73727 1.54663 0
M  V30 5094 N 474.47 1.03057 1.19235 0
M  V30 5095 C 475.698 0.747697 1.92917 0
M  V30 5096 C 476.113 -0.69372 1.75593 0
M  V30 5097 O 475.47 -1.47191 1.07894 0
M  V30 5098 C 475.521 1.09159 3.44625 0
M  V30 5099 O 475.242 2.47641 3.61394 0
M  V30 5100 C 476.743 0.831763 4.35427 0
M  V30 5101 H 473.963 0.273453 0.612751 0
M  V30 5102 H 476.507 1.37552 1.51327 0
M  V30 5103 H 474.662 0.508919 3.84043 0
M  V30 5104 H 475.076 2.60499 4.55237 0
M  V30 5105 H 476.55 1.12233 5.4047 0
M  V30 5106 H 477.027 -0.233769 4.38577 0
M  V30 5107 H 477.633 1.39725 4.01693 0
M  V30 5108 N 475.948 -1.35272 0.808662 0
M  V30 5109 C 477.173 -2.03477 0.401475 0
M  V30 5110 C 477.598 -1.60537 -0.980279 0
M  V30 5111 O 476.956 -0.78304 -1.63518 0
M  V30 5112 C 477.004 -3.57181 0.495354 0
M  V30 5113 O 476.108 -4.09474 -0.490397 0
M  V30 5114 H 475.449 -0.642561 0.167366 0
M  V30 5115 H 477.979 -1.72824 1.09512 0
M  V30 5116 H 477.989 -4.06356 0.365912 0
M  V30 5117 H 476.664 -3.87784 1.5032 0
M  V30 5118 H 475.241 -3.71516 -0.321023 0
M  V30 5119 N 477.426 -0.562348 -1.47226 0
M  V30 5120 C 478.654 -0.0452275 -2.06851 0
M  V30 5121 C 479.069 1.25078 -1.41424 0
M  V30 5122 O 478.426 1.75156 -0.512513 0
M  V30 5123 C 478.477 0.148674 -3.61194 0
M  V30 5124 O 478.198 -1.09602 -4.24169 0
M  V30 5125 C 479.699 0.702488 -4.37699 0
M  V30 5126 H 476.919 -0.0481775 -0.669268 0
M  V30 5127 H 479.463 -0.777223 -1.89155 0
M  V30 5128 H 477.618 0.830817 -3.78386 0
M  V30 5129 H 478.032 -0.896982 -5.16773 0
M  V30 5130 H 479.506 0.78743 -5.46355 0
M  V30 5131 H 479.983 1.71493 -4.04335 0
M  V30 5132 H 480.589 0.0558772 -4.25263 0
M  V30 5133 N 478.904 1.54736 -0.299062 0
M  V30 5134 C 480.129 2.04975 0.316254 0
M  V30 5135 C 480.554 1.17501 1.46885 0
M  V30 5136 O 479.912 0.178678 1.80417 0
M  V30 5137 C 479.96 3.52672 0.751997 0
M  V30 5138 O 479.064 3.68226 1.85697 0
M  V30 5139 H 478.405 0.661126 0.0617175 0
M  V30 5140 H 480.935 1.99805 -0.440341 0
M  V30 5141 H 480.945 3.94488 1.04133 0
M  V30 5142 H 479.62 4.158 -0.0911482 0
M  V30 5143 H 478.197 3.38316 1.56834 0
M  V30 5144 N 480.382 0.0267497 1.57577 0
M  V30 5145 C 481.798 -0.32962 1.56159 0
M  V30 5146 C 481.998 -1.73059 1.03213 0
M  V30 5147 O 481.054 -2.43233 0.677804 0
M  V30 5148 C 482.367 -0.18039 3.00158 0
M  V30 5149 C 483.915 -0.253334 3.11973 0
M  V30 5150 C 484.39 -0.132921 4.57807 0
M  V30 5151 N 485.881 -0.189979 4.6281 0
M  V30 5152 C 486.616 -0.120554 5.73273 0
M  V30 5153 N 486.112 -0.000180315 6.928 0
M  V30 5154 N 487.905 -0.174369 5.61829 0
M  V30 5155 H 480.056 0.942896 1.90324 0
M  V30 5156 H 482.319 0.3639 0.875375 0
M  V30 5157 H 482.025 0.784576 3.42837 0
M  V30 5158 H 481.899 -0.951565 3.65 0
M  V30 5159 H 484.286 -1.20876 2.69208 0
M  V30 5160 H 484.367 0.548177 2.49857 0
M  V30 5161 H 484.011 0.819073 5.01252 0
M  V30 5162 H 483.941 -0.953264 5.179 0
M  V30 5163 H 486.432 -0.283257 3.76837 0
M  V30 5164 H 486.745 0.0461666 7.72786 0
M  V30 5165 H 485.09 0.034569 6.94991 0
M  V30 5166 H 488.281 -0.266794 4.67339 0
M  V30 5167 H 488.454 -0.116802 6.47895 0
M  V30 5168 N 481.861 -1.55662 -0.24637 0
M  V30 5169 C 483.089 -1.81575 -0.991876 0
M  V30 5170 C 483.504 -0.602545 -1.78927 0
M  V30 5171 O 482.861 0.428795 -1.77391 0
M  V30 5172 C 482.912 -3.05711 -1.92933 0
M  V30 5173 O 482.633 -4.22348 -1.1642 0
M  V30 5174 C 484.134 -3.44428 -2.79078 0
M  V30 5175 H 481.354 -0.604209 -0.291844 0
M  V30 5176 H 483.898 -2.02722 -0.269095 0
M  V30 5177 H 482.053 -2.86612 -2.60638 0
M  V30 5178 H 482.467 -4.92706 -1.79835 0
M  V30 5179 H 483.941 -4.34388 -3.40603 0
M  V30 5180 H 484.418 -2.65037 -3.50217 0
M  V30 5181 H 485.024 -3.65879 -2.16824 0
M  V30 5182 N 483.339 0.512053 -1.4905 0
M  V30 5183 C 484.289 1.61142 -1.61298 0
M  V30 5184 C 485.273 1.53908 -0.46916 0
M  V30 5185 O 486.465 1.61625 -0.721547 0
M  V30 5186 C 483.594 2.998 -1.67256 0
M  V30 5187 C 482.68 3.12072 -2.87179 0
M  V30 5188 N 483.071 2.94263 -4.11391 0
M  V30 5189 C 481.369 3.43156 -2.84886 0
M  V30 5190 C 482.07 3.10426 -4.91946 0
M  V30 5191 N 481.046 3.38808 -4.251 0
M  V30 5192 H 484.848 1.46011 -2.55065 0
M  V30 5193 H 482.362 0.717934 -1.45669 0
M  V30 5194 H 484.359 3.78794 -1.74128 0
M  V30 5195 H 483.019 3.1601 -0.746195 0
M  V30 5196 H 484.03 2.70661 -4.41546 0
M  V30 5197 H 480.707 3.65611 -2.01581 0
M  V30 5198 H 482.097 3.01243 -6.00585 0
M  V30 5199 N 484.817 1.37938 0.762283 0
M  V30 5200 C 486.045 1.36883 1.55147 0
M  V30 5201 C 486.46 -0.0435348 1.8875 0
M  V30 5202 O 485.817 -1.00786 1.52146 0
M  V30 5203 C 485.868 2.21624 2.85596 0
M  V30 5204 O 485.589 3.57358 2.5343 0
M  V30 5205 C 487.09 2.28653 3.7978 0
M  V30 5206 H 484.31 0.468521 0.480343 0
M  V30 5207 H 486.854 1.81404 0.944079 0
M  V30 5208 H 485.009 1.80588 3.42734 0
M  V30 5209 H 485.423 4.01883 3.37032 0
M  V30 5210 H 486.897 2.9225 4.68288 0
M  V30 5211 H 487.374 1.29767 4.19592 0
M  V30 5212 H 487.98 2.70043 3.28568 0
M  V30 5213 N 486.295 -0.989507 1.22664 0
M  V30 5214 C 487.52 -1.77031 1.08051 0
M  V30 5215 C 487.945 -1.84535 -0.364483 0
M  V30 5216 O 487.303 -1.3003 -1.2634 0
M  V30 5217 C 487.351 -3.18 1.70024 0
M  V30 5218 O 486.455 -4.01161 0.956216 0
M  V30 5219 H 485.796 -0.545008 0.379292 0
M  V30 5220 H 488.326 -1.24277 1.62531 0
M  V30 5221 H 488.336 -3.68616 1.74888 0
M  V30 5222 H 487.011 -3.11853 2.75174 0
M  V30 5223 H 485.588 -3.59687 0.98384 0
M  V30 5224 N 487.773 -1.03688 -1.18687 0
M  V30 5225 C 488.683 -0.634908 -2.25845 0
M  V30 5226 C 489.699 0.337065 -1.70704 0
M  V30 5227 O 490.875 0.192943 -2.00474 0
M  V30 5228 C 487.94 -0.000180054 -3.467 0
M  V30 5229 C 487.001 -1.02067 -4.1699 0
M  V30 5230 C 486.234 -0.41614 -5.32075 0
M  V30 5231 O 486.457 0.778712 -5.65059 0
M  V30 5232 O 485.391 -1.14296 -5.90948 0
M  V30 5233 H 489.217 -1.52757 -2.62486 0
M  V30 5234 H 486.802 -0.807533 -1.25695 0
M  V30 5235 H 488.684 0.353342 -4.19916 0
M  V30 5236 H 487.359 0.866367 -3.11891 0
M  V30 5237 H 486.266 -1.42592 -3.45859 0
M  V30 5238 H 487.599 -1.85786 -4.5579 0
M  V30 5239 N 489.251 1.34841 -0.815825 0
M  V30 5240 C 490.497 1.98793 -0.401129 0
M  V30 5241 C 490.83 1.64548 1.03139 0
M  V30 5242 O 490.105 0.913487 1.71714 0
M  V30 5243 C 490.388 3.55143 -0.595409 0
M  V30 5244 C 490.241 3.99155 -2.07352 0
M  V30 5245 C 491.56 4.40092 -0.0268823 0
M  V30 5246 H 488.679 0.722146 -0.14722 0
M  V30 5247 H 491.321 1.59847 -1.02707 0
M  V30 5248 H 489.471 3.8845 -0.0625779 0
M  V30 5249 H 491.143 3.76216 -2.66945 0
M  V30 5250 H 489.386 3.49726 -2.56659 0
M  V30 5251 H 490.057 5.07971 -2.1603 0
M  V30 5252 H 492.533 4.13298 -0.482042 0
M  V30 5253 H 491.409 5.48562 -0.19267 0
M  V30 5254 H 491.67 4.29016 1.06759 0
M  V30 5255 N 490.729 0.570148 1.46925 0
M  V30 5256 C 491.679 -0.190921 2.27199 0
M  V30 5257 C 492.663 -0.873457 1.35128 0
M  V30 5258 O 493.855 -0.769627 1.59392 0
M  V30 5259 C 490.984 -1.21204 3.21192 0
M  V30 5260 C 490.07 -0.532261 4.20747 0
M  V30 5261 N 490.461 0.405038 5.04176 0
M  V30 5262 C 488.759 -0.784582 4.39045 0
M  V30 5263 C 489.46 0.801149 5.76157 0
M  V30 5264 N 488.436 0.153082 5.43384 0
M  V30 5265 H 492.238 0.529535 2.8909 0
M  V30 5266 H 489.752 0.391019 1.57622 0
M  V30 5267 H 491.749 -1.77135 3.77398 0
M  V30 5268 H 490.409 -1.93345 2.6086 0
M  V30 5269 H 491.42 0.779903 5.11994 0
M  V30 5270 H 488.097 -1.49352 3.89872 0
M  V30 5271 H 489.487 1.57208 6.5325 0
M  V30 5272 N 492.207 -1.54576 0.307264 0
M  V30 5273 C 493.455 -1.99867 -0.299574 0
M  V30 5274 C 493.776 -1.19714 -1.53927 0
M  V30 5275 O 493.046 -0.29472 -1.9367 0
M  V30 5276 H 491.626 -0.738299 -0.113683 0
M  V30 5277 H 494.288 -1.9032 0.420042 0
M  V30 5278 H 493.384 -3.06901 -0.567283 0
M  V30 5279 N 493.685 -0.035106 -1.57561 0
M  V30 5280 C 494.633 0.962707 -2.11742 0
M  V30 5281 C 495.627 1.33296 -1.0454 0
M  V30 5282 O 496.833 1.31449 -1.22968 0
M  V30 5283 H 493.208 0.32826 -0.676572 0
M  V30 5284 H 495.179 0.48048 -2.94506 0
M  V30 5285 C 493.928 2.23388 -2.66445 0
M  V30 5286 H 493.251 1.95774 -3.48587 0
M  V30 5287 H 494.691 2.91402 -3.07995 0
M  V30 5288 C 493.15 2.96769 -1.59467 0
M  V30 5289 O 493.68 3.89105 -0.998 0
M  V30 5290 N 491.886 2.59212 -1.31369 0
M  V30 5291 H 491.433 1.84202 -1.80076 0
M  V30 5292 H 491.391 3.08618 -0.600173 0
M  V30 5293 N 495.163 1.55791 0.238111 0
M  V30 5294 C 496.126 1.90239 1.27835 0
M  V30 5295 C 497.126 0.779552 1.4064 0
M  V30 5296 O 498.316 1.04747 1.3919 0
M  V30 5297 C 495.448 2.13859 2.65475 0
M  V30 5298 H 496.641 2.83262 0.985034 0
M  V30 5299 H 494.194 1.48818 0.477799 0
M  V30 5300 H 494.929 1.23334 2.99932 0
M  V30 5301 H 494.714 2.95643 2.57561 0
M  V30 5302 H 496.204 2.41664 3.40571 0
M  V30 5303 N 496.642 -0.504142 1.49319 0
M  V30 5304 C 497.552 -1.63248 1.68486 0
M  V30 5305 C 498.568 -1.64488 0.567432 0
M  V30 5306 O 499.744 -1.82966 0.841749 0
M  V30 5307 C 496.809 -2.99627 1.74426 0
M  V30 5308 C 495.87 -3.09039 2.97982 0
M  V30 5309 C 495.103 -4.38913 3.0363 0
M  V30 5310 O 495.326 -5.27528 2.16958 0
M  V30 5311 O 494.26 -4.53231 3.96062 0
M  V30 5312 H 498.086 -1.50008 2.64067 0
M  V30 5313 H 495.671 -0.680086 1.33023 0
M  V30 5314 H 497.553 -3.80689 1.80705 0
M  V30 5315 H 496.228 -3.13136 0.820233 0
M  V30 5316 H 495.135 -2.27177 2.97223 0
M  V30 5317 H 496.468 -3.00456 3.89855 0
M  V30 5318 N 498.12 -1.38341 -0.754957 0
M  V30 5319 C 499.366 -1.34672 -1.51628 0
M  V30 5320 C 499.699 0.0636036 -1.94096 0
M  V30 5321 O 498.974 1.0245 -1.6533 0
M  V30 5322 C 499.257 -2.30116 -2.76981 0
M  V30 5323 C 499.11 -3.80003 -2.4066 0
M  V30 5324 C 500.429 -2.23715 -3.78998 0
M  V30 5325 H 497.548 -0.490517 -0.550056 0
M  V30 5326 H 500.19 -1.69178 -0.864807 0
M  V30 5327 H 498.34 -2.00821 -3.3257 0
M  V30 5328 H 500.012 -4.19966 -1.90856 0
M  V30 5329 H 498.255 -3.97751 -1.73137 0
M  V30 5330 H 498.926 -4.42244 -3.30339 0
M  V30 5331 H 501.402 -2.49574 -3.32945 0
M  V30 5332 H 500.278 -2.9261 -4.64403 0
M  V30 5333 H 500.539 -1.23554 -4.24484 0
M  V30 5334 N 499.598 0.982988 -1.23187 0
M  V30 5335 C 500.548 2.05962 -0.977942 0
M  V30 5336 C 501.532 1.60725 0.0751148 0
M  V30 5337 O 502.724 1.76471 -0.136683 0
M  V30 5338 C 499.853 3.38564 -0.568276 0
M  V30 5339 C 498.939 3.90407 -1.6566 0
M  V30 5340 N 499.33 4.15359 -2.88635 0
M  V30 5341 C 497.628 4.18915 -1.53058 0
M  V30 5342 C 498.329 4.57642 -3.5908 0
M  V30 5343 N 497.305 4.6192 -2.86584 0
M  V30 5344 H 501.107 2.23208 -1.91195 0
M  V30 5345 H 498.621 1.16555 -1.13087 0
M  V30 5346 H 500.618 4.15276 -0.36764 0
M  V30 5347 H 499.278 3.22712 0.358713 0
M  V30 5348 H 500.289 4.03258 -3.24966 0
M  V30 5349 H 496.966 4.12081 -0.670506 0
M  V30 5350 H 498.356 4.85488 -4.6449 0
M  V30 5351 N 501.076 1.04316 1.18135 0
M  V30 5352 C 502.039 0.640794 2.2006 0
M  V30 5353 C 503.039 -0.303124 1.57917 0
M  V30 5354 O 504.229 -0.0881855 1.73977 0
M  V30 5355 C 501.361 -0.060148 3.40847 0
M  V30 5356 H 502.554 1.54281 2.57172 0
M  V30 5357 H 500.107 0.836004 1.32063 0
M  V30 5358 H 500.842 -0.975845 3.0927 0
M  V30 5359 H 500.627 0.618319 3.87194 0
M  V30 5360 H 502.117 -0.328082 4.16309 0
M  V30 5361 N 502.554 -1.34406 0.822964 0
M  V30 5362 C 503.779 -2.0304 0.423034 0
M  V30 5363 C 504.204 -1.61568 -0.963196 0
M  V30 5364 O 503.562 -0.800339 -1.62678 0
M  V30 5365 C 503.61 -3.56636 0.53321 0
M  V30 5366 O 502.714 -4.09971 -0.446939 0
M  V30 5367 H 502.055 -0.64075 0.174171 0
M  V30 5368 H 504.585 -1.71653 1.11339 0
M  V30 5369 H 504.595 -4.05945 0.408991 0
M  V30 5370 H 503.27 -3.86168 1.54425 0
M  V30 5371 H 501.847 -3.71835 -0.281601 0
M  V30 5372 N 504.032 -0.577932 -1.46621 0
M  V30 5373 C 505.279 -0.0616879 -2.02406 0
M  V30 5374 C 505.607 1.29638 -1.44997 0
M  V30 5375 O 504.862 1.86176 -0.60308 0
M  V30 5376 C 505.161 0.0590832 -3.57351 0
M  V30 5377 C 504.827 -1.23077 -4.33777 0
M  V30 5378 C 503.489 -1.58416 -4.54376 0
M  V30 5379 C 505.841 -2.08457 -4.77698 0
M  V30 5380 C 503.169 -2.78943 -5.16147 0
M  V30 5381 C 505.521 -3.28204 -5.408 0
M  V30 5382 C 504.185 -3.63832 -5.59627 0
M  V30 5383 H 503.455 -0.0225732 -0.740656 0
M  V30 5384 H 506.102 -0.753609 -1.76048 0
M  V30 5385 H 504.407 0.834104 -3.82818 0
M  V30 5386 H 506.104 0.474202 -3.98186 0
M  V30 5387 H 502.694 -0.945652 -4.18038 0
M  V30 5388 H 506.878 -1.82459 -4.61544 0
M  V30 5389 H 502.134 -3.06689 -5.28916 0
M  V30 5390 H 506.308 -3.94634 -5.73792 0
M  V30 5391 H 503.935 -4.57315 -6.07262 0
M  V30 5392 N 505.51 1.54411 -0.315457 0
M  V30 5393 C 506.757 2.00419 0.289543 0
M  V30 5394 C 507.085 1.20373 1.52776 0
M  V30 5395 O 506.34 0.271769 1.93804 0
M  V30 5396 C 506.639 3.50936 0.676652 0
M  V30 5397 C 506.305 4.48532 -0.461472 0
M  V30 5398 C 504.967 4.74936 -0.773879 0
M  V30 5399 C 507.319 5.06567 -1.22637 0
M  V30 5400 C 504.647 5.56634 -1.85405 0
M  V30 5401 C 506.999 5.89441 -2.29657 0
M  V30 5402 C 505.663 6.1415 -2.61488 0
M  V30 5403 H 504.933 0.733386 0.105951 0
M  V30 5404 H 507.58 1.86434 -0.437554 0
M  V30 5405 H 505.885 3.62606 1.48405 0
M  V30 5406 H 507.582 3.83971 1.15618 0
M  V30 5407 H 504.172 4.28096 -0.207893 0
M  V30 5408 H 508.356 4.86157 -0.998271 0
M  V30 5409 H 503.612 5.74012 -2.10523 0
M  V30 5410 H 507.786 6.33432 -2.89374 0
M  V30 5411 H 505.413 6.77245 -3.45317 0
M  V30 5412 N 506.988 0.0434614 1.5754 0
M  V30 5413 C 508.265 -0.671479 1.83713 0
M  V30 5414 C 508.645 -1.89495 0.930315 0
M  V30 5415 O 507.993 -2.28498 -0.0105639 0
M  V30 5416 C 508.203 -1.0361 3.33266 0
M  V30 5417 C 509.551 -1.42167 4.00092 0
M  V30 5418 O 510.575 -1.12866 3.37846 0
M  V30 5419 O 509.434 -1.96817 5.09829 0
M  V30 5420 H 506.528 -0.330726 0.75799 0
M  V30 5421 H 509.074 0.0722373 1.69546 0
M  V30 5422 H 507.846 -0.165938 3.90948 0
M  V30 5423 H 507.469 -1.83751 3.52592 0
M  V30 5424 N 508.466 -1.55915 -0.229846 0
M  V30 5425 C 509.715 -1.77742 -0.953455 0
M  V30 5426 C 510.028 -0.610524 -1.85828 0
M  V30 5427 O 511.234 -0.712219 -2.61992 0
M  V30 5428 C 509.69 -3.14738 -1.74551 0
M  V30 5429 C 509.298 -4.39126 -0.887242 0
M  V30 5430 C 511.042 -3.45895 -2.46084 0
M  V30 5431 C 508.949 -5.67149 -1.67617 0
M  V30 5432 H 507.879 -0.662648 -0.359741 0
M  V30 5433 H 510.53 -1.82322 -0.207576 0
M  V30 5434 H 508.912 -3.04311 -2.53399 0
M  V30 5435 H 510.086 -4.60588 -0.139892 0
M  V30 5436 H 508.401 -4.15427 -0.284443 0
M  V30 5437 H 510.998 -4.38767 -3.05594 0
M  V30 5438 H 511.341 -2.68007 -3.18556 0
M  V30 5439 H 511.874 -3.57614 -1.74233 0
M  V30 5440 H 508.613 -6.47906 -0.994881 0
M  V30 5441 H 508.133 -5.49763 -2.39836 0
M  V30 5442 H 509.812 -6.07025 -2.23898 0
M  V30 5443 N 509.944 0.496216 -1.49584 0
M  V30 5444 C 511.192 1.24756 -1.58998 0
M  V30 5445 C 511.513 1.92968 -0.280775 0
M  V30 5446 O 510.783 1.82959 0.700198 0
M  V30 5447 H 509.363 0.463471 -0.585836 0
M  V30 5448 H 512.025 0.574678 -1.86235 0
M  V30 5449 H 511.121 2.00895 -2.38847 0
M  V30 5450 N 511.423 1.38739 0.74761 0
M  V30 5451 C 512.671 1.35007 1.50391 0
M  V30 5452 C 512.992 -0.0574274 1.94915 0
M  V30 5453 O 512.262 -1.00628 1.6808 0
M  V30 5454 H 510.842 0.496784 0.557866 0
M  V30 5455 H 513.504 1.73479 0.888319 0
M  V30 5456 H 512.6 2.00474 2.392 0
M  V30 5457 N 512.901 -0.976442 1.23707 0
M  V30 5458 C 514.126 -1.75875 1.09922 0
M  V30 5459 C 514.551 -1.84911 -0.34489 0
M  V30 5460 O 513.909 -1.31363 -1.24954 0
M  V30 5461 C 513.957 -3.16179 1.73388 0
M  V30 5462 O 513.061 -4.00124 0.99871 0
M  V30 5463 H 512.402 -0.540954 0.385052 0
M  V30 5464 H 514.932 -1.22546 1.6384 0
M  V30 5465 H 514.942 -3.66741 1.78788 0
M  V30 5466 H 513.617 -3.08917 2.78466 0
M  V30 5467 H 512.194 -3.58624 1.02193 0
M  V30 5468 N 514.379 -1.04941 -1.1758 0
M  V30 5469 C 515.625 -0.759112 -1.88057 0
M  V30 5470 C 515.958 0.711918 -1.8068 0
M  V30 5471 O 515.233 1.52035 -1.21308 0
M  V30 5472 C 515.516 -1.237 -3.38187 0
M  V30 5473 C 515.369 -2.77078 -3.54327 0
M  V30 5474 C 516.688 -0.834014 -4.32125 0
M  V30 5475 H 513.807 -0.277237 -0.682868 0
M  V30 5476 H 516.449 -1.30296 -1.38286 0
M  V30 5477 H 514.599 -0.774337 -3.80705 0
M  V30 5478 H 516.271 -3.31449 -3.20842 0
M  V30 5479 H 514.514 -3.16477 -2.96689 0
M  V30 5480 H 515.185 -3.05577 -4.59703 0
M  V30 5481 H 517.661 -1.23228 -3.97434 0
M  V30 5482 H 516.537 -1.19603 -5.35711 0
M  V30 5483 H 516.798 0.262195 -4.41322 0
M  V30 5484 N 515.857 1.33968 -0.830081 0
M  V30 5485 C 517.082 2.02813 -0.433796 0
M  V30 5486 C 517.507 1.62076 0.954614 0
M  V30 5487 O 516.865 0.808955 1.62252 0
M  V30 5488 C 516.913 3.56348 -0.552115 0
M  V30 5489 O 516.017 4.10202 0.425191 0
M  V30 5490 H 515.358 0.639817 -0.177567 0
M  V30 5491 H 517.888 1.7106 -1.12248 0
M  V30 5492 H 517.898 4.05722 -0.430513 0
M  V30 5493 H 516.573 3.85344 -1.56471 0
M  V30 5494 H 515.15 3.71979 0.261878 0
M  V30 5495 N 517.335 0.585699 1.46312 0
M  V30 5496 C 518.298 -0.135673 2.28798 0
M  V30 5497 C 519.298 -0.815988 1.38558 0
M  V30 5498 O 520.488 -0.667487 1.60904 0
M  V30 5499 C 517.62 -1.20163 3.1902 0
M  V30 5500 H 518.813 0.589257 2.94054 0
M  V30 5501 H 516.366 0.343794 1.52472 0
M  V30 5502 H 517.101 -1.95804 2.58517 0
M  V30 5503 H 516.886 -0.718282 3.85465 0
M  V30 5504 H 518.376 -1.70749 3.81096 0
M  V30 5505 N 518.813 -1.54241 0.323641 0
M  V30 5506 C 520.061 -2.00174 -0.278359 0
M  V30 5507 C 520.382 -1.2134 -1.52648 0
M  V30 5508 O 519.652 -0.315244 -1.93347 0
M  V30 5509 H 518.232 -0.739463 -0.105845 0
M  V30 5510 H 520.894 -1.89864 0.440204 0
M  V30 5511 H 519.99 -3.07486 -0.5347 0
M  V30 5512 N 520.291 -0.0518155 -1.57515 0
M  V30 5513 C 521.538 0.621823 -1.92716 0
M  V30 5514 C 521.866 1.70813 -0.930229 0
M  V30 5515 O 521.121 1.95616 0.0573708 0
M  V30 5516 C 521.42 1.25607 -3.34601 0
M  V30 5517 C 521.086 0.297901 -4.49915 0
M  V30 5518 C 519.748 0.034243 -4.81188 0
M  V30 5519 C 522.1 -0.358738 -5.19964 0
M  V30 5520 C 519.428 -0.893479 -5.79857 0
M  V30 5521 C 521.78 -1.27466 -6.19625 0
M  V30 5522 C 520.444 -1.54698 -6.49326 0
M  V30 5523 H 519.714 0.227541 -0.705199 0
M  V30 5524 H 522.361 -0.118432 -1.91133 0
M  V30 5525 H 520.666 2.07161 -3.32553 0
M  V30 5526 H 522.363 1.78424 -3.59118 0
M  V30 5527 H 518.953 0.513581 -4.25512 0
M  V30 5528 H 523.137 -0.168133 -4.96015 0
M  V30 5529 H 518.393 -1.11193 -6.01204 0
M  V30 5530 H 522.567 -1.78953 -6.73015 0
M  V30 5531 H 520.194 -2.26748 -7.25596 0
M  V30 5532 N 521.769 1.56035 0.221574 0
M  V30 5533 C 522.994 1.83476 0.967026 0
M  V30 5534 C 523.419 0.632139 1.7716 0
M  V30 5535 O 522.777 -0.419082 1.7639 0
M  V30 5536 C 522.825 3.08907 1.86034 0
M  V30 5537 O 521.929 2.876 2.95567 0
M  V30 5538 H 521.27 0.604913 0.273817 0
M  V30 5539 H 523.8 2.03247 0.234893 0
M  V30 5540 H 523.81 3.3901 2.27016 0
M  V30 5541 H 522.485 3.96068 1.26898 0
M  V30 5542 H 521.062 2.6873 2.58532 0
M  V30 5543 N 523.247 -0.488276 1.49845 0
M  V30 5544 C 524.195 -1.60917 1.67954 0
M  V30 5545 C 525.189 -1.6038 0.54539 0
M  V30 5546 O 526.395 -1.64736 0.7254 0
M  V30 5547 H 522.77 -0.533658 0.529824 0
M  V30 5548 H 524.741 -1.428 2.62013 0
M  V30 5549 C 523.49 -2.98975 1.77509 0
M  V30 5550 H 522.813 -3.00099 2.6416 0
M  V30 5551 H 524.253 -3.76906 1.9421 0
M  V30 5552 C 522.712 -3.3282 0.522745 0
M  V30 5553 O 523.242 -4.00208 -0.345866 0
M  V30 5554 N 521.448 -2.8808 0.381882 0
M  V30 5555 H 520.995 -2.33415 1.08974 0
M  V30 5556 H 520.953 -3.11091 -0.454929 0
M  V30 5557 N 524.725 -1.39134 -0.740242 0
M  V30 5558 C 525.95 -1.39518 -1.53459 0
M  V30 5559 C 526.375 0.00968883 -1.88098 0
M  V30 5560 O 525.733 0.995312 -1.51536 0
M  V30 5561 C 525.781 -2.26981 -2.802 0
M  V30 5562 O 524.885 -1.69609 -3.75908 0
M  V30 5563 H 524.226 -0.475328 -0.463637 0
M  V30 5564 H 526.756 -1.83064 -0.913717 0
M  V30 5565 H 526.766 -2.41309 -3.28989 0
M  V30 5566 H 525.441 -3.29081 -2.5432 0
M  V30 5567 H 524.018 -1.64495 -3.34658 0
M  V30 5568 N 526.204 0.969867 -1.24223 0
M  V30 5569 C 527.152 2.08535 -1.03034 0
M  V30 5570 C 528.146 1.69366 0.0340379 0
M  V30 5571 O 529.352 1.79597 -0.12034 0
M  V30 5572 H 525.727 0.682313 -0.316154 0
M  V30 5573 H 527.698 2.23569 -1.97635 0
M  V30 5574 C 526.447 3.4158 -0.649509 0
M  V30 5575 H 525.77 3.72177 -1.46028 0
M  V30 5576 H 527.21 4.20536 -0.540841 0
M  V30 5577 C 525.669 3.30703 0.643194 0
M  V30 5578 O 526.199 3.64443 1.68951 0
M  V30 5579 N 524.405 2.83841 0.623095 0
M  V30 5580 H 523.952 2.56583 -0.228719 0
M  V30 5581 H 523.91 2.76946 1.48823 0
M  V30 5582 N 527.682 1.05563 1.17022 0
M  V30 5583 C 528.907 0.788437 1.91829 0
M  V30 5584 C 529.332 -0.650356 1.76499 0
M  V30 5585 O 528.69 -1.45229 1.08527 0
M  V30 5586 C 528.738 1.1786 3.40795 0
M  V30 5587 O 527.842 0.312965 4.11211 0
M  V30 5588 H 527.183 0.288794 0.597908 0
M  V30 5589 H 529.713 1.40948 1.48307 0
M  V30 5590 H 529.723 1.14697 3.91546 0
M  V30 5591 H 528.398 2.22666 3.51273 0
M  V30 5592 H 526.975 0.405515 3.70689 0
M  V30 5593 N 529.16 -1.33526 0.837174 0
M  V30 5594 C 530.385 -2.0258 0.444545 0
M  V30 5595 C 530.81 -1.6258 -0.946006 0
M  V30 5596 O 530.168 -0.817548 -1.6182 0
M  V30 5597 C 530.216 -3.5605 0.571006 0
M  V30 5598 O 529.32 -4.10422 -0.403431 0
M  V30 5599 H 528.661 -0.638866 0.180958 0
M  V30 5600 H 531.191 -1.70462 1.13154 0
M  V30 5601 H 531.201 -4.05488 0.452024 0
M  V30 5602 H 529.876 -3.84509 1.58512 0
M  V30 5603 H 528.453 -3.72113 -0.242147 0
M  V30 5604 N 530.638 -0.59345 -1.46 0
M  V30 5605 C 531.866 -0.0890934 -2.06708 0
M  V30 5606 C 532.281 1.2205 -1.44046 0
M  V30 5607 O 531.638 1.74029 -0.549551 0
M  V30 5608 C 531.689 0.0720263 -3.61428 0
M  V30 5609 O 531.41 -1.18574 -4.21748 0
M  V30 5610 C 532.911 0.609487 -4.3909 0
M  V30 5611 H 530.131 -0.0623628 -0.668096 0
M  V30 5612 H 532.675 -0.817171 -1.87464 0
M  V30 5613 H 530.83 0.750369 -3.80063 0
M  V30 5614 H 531.244 -1.0064 -5.14754 0
M  V30 5615 H 532.718 0.671363 -5.47902 0
M  V30 5616 H 533.195 1.62878 -4.07882 0
M  V30 5617 H 533.801 -0.03434 -4.25286 0
M  V30 5618 N 532.116 1.54067 -0.331816 0
M  V30 5619 C 533.362 2.01012 0.268667 0
M  V30 5620 C 533.695 1.2195 1.51136 0
M  V30 5621 O 532.97 0.303972 1.9211 0
M  V30 5622 C 533.253 3.55158 0.59456 0
M  V30 5623 C 533.106 4.4494 -0.659409 0
M  V30 5624 C 534.425 4.16939 1.4089 0
M  V30 5625 H 531.544 0.730698 0.0961756 0
M  V30 5626 H 534.186 1.84593 -0.450031 0
M  V30 5627 H 532.336 3.6928 1.20685 0
M  V30 5628 H 534.008 4.42675 -1.29756 0
M  V30 5629 H 532.251 4.1428 -1.28665 0
M  V30 5630 H 532.922 5.50643 -0.386804 0
M  V30 5631 H 535.398 4.06443 0.891272 0
M  V30 5632 H 534.274 5.24889 1.60569 0
M  V30 5633 H 534.535 3.70798 2.40752 0
M  V30 5634 N 533.594 0.0601682 1.57485 0
M  V30 5635 C 534.557 -0.896373 2.10945 0
M  V30 5636 C 535.557 -1.23402 1.03095 0
M  V30 5637 O 536.747 -1.16921 1.29132 0
M  V30 5638 C 533.879 -2.20346 2.60116 0
M  V30 5639 H 535.072 -0.432778 2.96761 0
M  V30 5640 H 532.625 -0.188372 1.55161 0
M  V30 5641 H 533.36 -2.71268 1.7772 0
M  V30 5642 H 533.145 -1.9714 3.38937 0
M  V30 5643 H 534.635 -2.88846 3.01592 0
M  V30 5644 N 535.072 -1.5615 -0.213296 0
M  V30 5645 C 536.321 -1.78743 -0.93455 0
M  V30 5646 C 536.634 -0.630199 -1.8517 0
M  V30 5647 O 537.84 -0.739966 -2.61222 0
M  V30 5648 C 536.296 -3.16571 -1.71203 0
M  V30 5649 C 535.904 -4.40043 -0.840617 0
M  V30 5650 C 537.648 -3.48485 -2.42401 0
M  V30 5651 C 535.555 -5.68895 -1.61592 0
M  V30 5652 H 534.485 -0.666426 -0.352692 0
M  V30 5653 H 537.136 -1.82532 -0.188227 0
M  V30 5654 H 535.518 -3.06981 -2.50157 0
M  V30 5655 H 536.692 -4.6071 -0.0910326 0
M  V30 5656 H 535.007 -4.15706 -0.240365 0
M  V30 5657 H 537.604 -4.41983 -3.00924 0
M  V30 5658 H 537.947 -2.71371 -3.15695 0
M  V30 5659 H 538.48 -3.59442 -1.7043 0
M  V30 5660 H 535.219 -6.48925 -0.926106 0
M  V30 5661 H 534.739 -5.52275 -2.33991 0
M  V30 5662 H 536.418 -6.09365 -2.17447 0
M  V30 5663 N 536.55 0.480323 -1.50102 0
M  V30 5664 C 537.827 1.24159 -1.51142 0
M  V30 5665 C 538.207 2.09605 -0.250818 0
M  V30 5666 O 537.555 2.15274 0.766118 0
M  V30 5667 C 537.765 2.08057 -2.80202 0
M  V30 5668 C 539.113 2.66556 -3.30504 0
M  V30 5669 O 540.137 2.18308 -2.81461 0
M  V30 5670 O 538.996 3.54442 -4.15973 0
M  V30 5671 H 536.09 0.562928 -0.605839 0
M  V30 5672 H 538.636 0.492899 -1.62384 0
M  V30 5673 H 537.408 1.45032 -3.6343 0
M  V30 5674 H 537.031 2.90079 -2.71919 0
M  V30 5675 N 538.028 1.39524 0.732853 0
M  V30 5676 C 538.978 1.34905 1.83806 0
M  V30 5677 C 539.962 0.229546 1.59254 0
M  V30 5678 O 541.154 0.467255 1.70721 0
M  V30 5679 C 538.283 1.19699 3.21756 0
M  V30 5680 C 537.369 2.36359 3.5213 0
M  V30 5681 N 537.76 3.61834 3.53426 0
M  V30 5682 C 536.058 2.29363 3.82503 0
M  V30 5683 C 536.759 4.38992 3.81655 0
M  V30 5684 N 535.735 3.68606 3.99538 0
M  V30 5685 H 539.537 2.29882 1.83116 0
M  V30 5686 H 537.051 1.33051 0.931194 0
M  V30 5687 H 539.048 1.14472 4.00876 0
M  V30 5688 H 537.708 0.256739 3.23683 0
M  V30 5689 H 538.719 3.95228 3.34686 0
M  V30 5690 H 535.396 1.43612 3.92023 0
M  V30 5691 H 536.786 5.47763 3.89108 0
M  V30 5692 N 539.506 -0.963266 1.24736 0
M  V30 5693 C 540.731 -1.74699 1.11781 0
M  V30 5694 C 541.156 -1.85267 -0.325258 0
M  V30 5695 O 540.514 -1.32681 -1.23553 0
M  V30 5696 C 540.562 -3.14322 1.76731 0
M  V30 5697 O 539.666 -3.99043 1.04109 0
M  V30 5698 H 539.007 -0.53684 0.390767 0
M  V30 5699 H 541.537 -1.20801 1.65131 0
M  V30 5700 H 541.547 -3.64824 1.82668 0
M  V30 5701 H 540.222 -3.05946 2.81726 0
M  V30 5702 H 538.799 -3.5752 1.05991 0
M  V30 5703 N 540.985 -1.06182 -1.16461 0
M  V30 5704 C 541.915 -0.692861 -2.22984 0
M  V30 5705 C 542.896 0.314122 -1.67174 0
M  V30 5706 O 544.081 0.189499 -1.93273 0
M  V30 5707 C 541.211 -0.07732 -3.47214 0
M  V30 5708 C 540.165 -1.01015 -4.15909 0
M  V30 5709 C 539.491 -0.257973 -5.34077 0
M  V30 5710 C 540.791 -2.33868 -4.67015 0
M  V30 5711 H 542.485 -1.58343 -2.54102 0
M  V30 5712 H 540.031 -0.76279 -1.22137 0
M  V30 5713 H 541.984 0.19266 -4.20959 0
M  V30 5714 H 540.708 0.848254 -3.15392 0
M  V30 5715 H 539.367 -1.26486 -3.44088 0
M  V30 5716 H 539.015 0.670684 -4.98509 0
M  V30 5717 H 538.715 -0.879638 -5.80979 0
M  V30 5718 H 540.239 0.00448788 -6.106 0
M  V30 5719 H 541.653 -2.1279 -5.32347 0
M  V30 5720 H 540.05 -2.91522 -5.24533 0
M  V30 5721 H 541.12 -2.97019 -3.83286 0
M  V30 5722 N 542.463 1.3308 -0.844243 0
M  V30 5723 C 543.688 2.02341 -0.455282 0
M  V30 5724 C 544.113 1.6308 0.93737 0
M  V30 5725 O 543.471 0.826118 1.61385 0
M  V30 5726 C 543.519 3.55743 -0.58988 0
M  V30 5727 O 542.623 4.1063 0.38166 0
M  V30 5728 H 541.964 0.637898 -0.184343 0
M  V30 5729 H 544.494 1.6986 -1.14056 0
M  V30 5730 H 544.504 4.05243 -0.473522 0
M  V30 5731 H 543.179 3.83662 -1.60549 0
M  V30 5732 H 541.756 3.72236 0.22241 0
M  V30 5733 N 543.941 0.601185 1.45683 0
M  V30 5734 C 544.871 -0.108824 2.33246 0
M  V30 5735 C 545.852 -0.865223 1.46451 0
M  V30 5736 O 547.037 -0.83704 1.75235 0
M  V30 5737 C 544.167 -1.11101 3.2905 0
M  V30 5738 C 543.121 -0.468244 4.25431 0
M  V30 5739 C 542.447 -1.57822 5.10878 0
M  V30 5740 C 543.747 0.606469 5.18767 0
M  V30 5741 H 545.441 0.622306 2.92861 0
M  V30 5742 H 542.987 0.300714 1.40825 0
M  V30 5743 H 544.94 -1.61622 3.89174 0
M  V30 5744 H 543.664 -1.87265 2.67581 0
M  V30 5745 H 542.323 0.0160484 3.66596 0
M  V30 5746 H 541.971 -2.32998 4.45781 0
M  V30 5747 H 541.671 -1.15369 5.76163 0
M  V30 5748 H 543.195 -2.08583 5.73869 0
M  V30 5749 H 544.609 0.185589 5.73 0
M  V30 5750 H 543.006 0.952381 5.92494 0
M  V30 5751 H 544.076 1.48559 4.61582 0
M  V30 5752 N 545.419 -1.53889 0.339982 0
M  V30 5753 C 546.382 -2.23547 -0.50592 0
M  V30 5754 C 547.382 -1.23445 -1.03044 0
M  V30 5755 O 548.572 -1.47909 -0.920253 0
M  V30 5756 C 545.704 -2.95234 -1.7044 0
M  V30 5757 H 546.897 -2.99722 0.103247 0
M  V30 5758 H 544.45 -1.56033 0.0912804 0
M  V30 5759 H 545.185 -2.23236 -2.35236 0
M  V30 5760 H 544.97 -3.68654 -1.33553 0
M  V30 5761 H 546.46 -3.48258 -2.30447 0
M  V30 5762 N 546.897 -0.0685191 -1.57451 0
M  V30 5763 C 548.145 0.60016 -1.92983 0
M  V30 5764 C 548.466 1.70348 -0.949028 0
M  V30 5765 O 547.736 1.959 0.00335647 0
M  V30 5766 H 546.316 0.224682 -0.712409 0
M  V30 5767 H 548.978 -0.125605 -1.94495 0
M  V30 5768 H 548.074 1.02759 -2.94698 0
M  V30 5769 N 548.375 1.56261 0.205012 0
M  V30 5770 C 549.285 1.96944 1.27476 0
M  V30 5771 C 550.301 0.875636 1.50362 0
M  V30 5772 O 551.477 1.18058 1.6317 0
M  V30 5773 C 548.542 2.29219 2.60115 0
M  V30 5774 C 547.603 3.52255 2.45387 0
M  V30 5775 C 546.836 3.8298 3.71701 0
M  V30 5776 O 547.059 3.15138 4.75441 0
M  V30 5777 O 545.993 4.76435 3.67823 0
M  V30 5778 H 549.819 2.88144 0.959527 0
M  V30 5779 H 547.404 1.43686 0.409217 0
M  V30 5780 H 549.286 2.51098 3.3842 0
M  V30 5781 H 547.961 1.4119 2.91285 0
M  V30 5782 H 546.868 3.35635 1.65227 0
M  V30 5783 H 548.201 4.40719 2.19152 0
M  V30 5784 N 549.853 -0.472356 1.50355 0
M  V30 5785 C 551.269 -0.806001 1.37753 0
M  V30 5786 C 551.469 -1.968 0.432649 0
M  V30 5787 O 550.525 -2.52189 -0.12519 0
M  V30 5788 C 551.838 -1.11926 2.79093 0
M  V30 5789 C 553.386 -1.22579 2.87999 0
M  V30 5790 C 553.861 -1.57218 4.3017 0
M  V30 5791 N 555.352 -1.64212 4.33115 0
M  V30 5792 C 556.087 -1.92517 5.40116 0
M  V30 5793 N 555.583 -2.1885 6.57325 0
M  V30 5794 N 557.376 -1.94008 5.27558 0
M  V30 5795 H 549.527 0.293451 2.10363 0
M  V30 5796 H 551.79 0.0687672 0.945503 0
M  V30 5797 H 551.496 -0.338504 3.50067 0
M  V30 5798 H 551.37 -2.05577 3.16256 0
M  V30 5799 H 553.757 -1.99722 2.17245 0
M  V30 5800 H 553.838 -0.269107 2.54381 0
M  V30 5801 H 553.482 -0.806154 5.01461 0
M  V30 5802 H 553.412 -2.54034 4.61275 0
M  V30 5803 H 555.903 -1.45906 3.48597 0
M  V30 5804 H 556.216 -2.39718 7.3468 0
M  V30 5805 H 554.561 -2.16245 6.60502 0
M  V30 5806 H 557.752 -1.72931 4.34986 0
M  V30 5807 H 557.925 -2.15731 6.11035 0
M  V30 5808 N 551.331 -1.39911 -0.725443 0
M  V30 5809 C 552.559 -1.40949 -1.51463 0
M  V30 5810 C 552.974 -0.0065242 -1.88799 0
M  V30 5811 O 552.331 0.967163 -1.54765 0
M  V30 5812 C 552.382 -2.29119 -2.79619 0
M  V30 5813 O 552.103 -3.63952 -2.43866 0
M  V30 5814 C 553.604 -2.38642 -3.73584 0
M  V30 5815 H 550.824 -0.481091 -0.467752 0
M  V30 5816 H 553.368 -1.83843 -0.895651 0
M  V30 5817 H 551.523 -1.89612 -3.37826 0
M  V30 5818 H 551.937 -4.10677 -3.26258 0
M  V30 5819 H 553.411 -3.04563 -4.60375 0
M  V30 5820 H 553.888 -1.40846 -4.16004 0
M  V30 5821 H 554.494 -2.78659 -3.21293 0
M  V30 5822 N 552.809 0.956637 -1.25245 0
M  V30 5823 C 554.055 1.70413 -1.11044 0
M  V30 5824 C 554.41 1.89275 0.345377 0
M  V30 5825 O 553.703 1.45116 1.25107 0
M  V30 5826 C 553.897 3.08996 -1.79601 0
M  V30 5827 C 553.726 3.03654 -3.317 0
M  V30 5828 C 552.496 3.07521 -4.00947 0
M  V30 5829 C 554.694 2.84975 -4.28128 0
M  V30 5830 N 552.676 2.92316 -5.39838 0
M  V30 5831 C 554.047 2.7818 -5.5409 0
M  V30 5832 C 556.102 2.6964 -4.18568 0
M  V30 5833 C 554.805 2.57616 -6.71585 0
M  V30 5834 C 556.831 2.50447 -5.35752 0
M  V30 5835 C 556.193 2.4437 -6.60653 0
M  V30 5836 H 552.292 0.631642 -0.461035 0
M  V30 5837 H 554.876 1.13331 -1.58317 0
M  V30 5838 H 553.047 3.64248 -1.34826 0
M  V30 5839 H 554.779 3.72515 -1.58161 0
M  V30 5840 H 551.534 3.16635 -3.52192 0
M  V30 5841 H 551.958 2.87923 -6.12723 0
M  V30 5842 H 556.6 2.73113 -3.22752 0
M  V30 5843 H 554.318 2.52885 -7.67512 0
M  V30 5844 H 557.904 2.39509 -5.30214 0
M  V30 5845 H 556.784 2.29712 -7.49801 0
M  V30 5846 N 554.287 1.06798 1.15896 0
M  V30 5847 C 555.25 0.687328 2.18651 0
M  V30 5848 C 556.25 -0.269559 1.58524 0
M  V30 5849 O 557.44 -0.0512627 1.74125 0
M  V30 5850 C 554.572 0.0121642 3.40898 0
M  V30 5851 H 555.765 1.59701 2.53842 0
M  V30 5852 H 553.318 0.863828 1.3026 0
M  V30 5853 H 554.053 -0.910025 3.1127 0
M  V30 5854 H 553.838 0.700309 3.85795 0
M  V30 5855 H 555.328 -0.239703 4.16911 0
M  V30 5856 N 555.766 -1.3263 0.851289 0
M  V30 5857 C 556.676 -2.32722 0.296268 0
M  V30 5858 C 557.692 -1.63901 -0.584162 0
M  V30 5859 O 558.868 -1.95465 -0.485334 0
M  V30 5860 C 555.933 -3.42942 -0.509103 0
M  V30 5861 C 554.994 -4.2746 0.397069 0
M  V30 5862 C 554.227 -5.32416 -0.36996 0
M  V30 5863 O 554.45 -5.47491 -1.6003 0
M  V30 5864 O 553.384 -6.01327 0.262493 0
M  V30 5865 H 557.21 -2.82078 1.12543 0
M  V30 5866 H 554.795 -1.36194 0.614135 0
M  V30 5867 H 556.677 -4.1017 -0.96634 0
M  V30 5868 H 555.352 -2.95781 -1.31512 0
M  V30 5869 H 554.259 -3.63053 0.902411 0
M  V30 5870 H 555.592 -4.78136 1.16818 0
M  V30 5871 N 557.244 -0.608902 -1.45362 0
M  V30 5872 C 558.472 -0.111013 -2.06602 0
M  V30 5873 C 558.887 1.20516 -1.45332 0
M  V30 5874 O 558.244 1.73437 -0.567978 0
M  V30 5875 C 558.295 0.033688 -3.61484 0
M  V30 5876 O 558.016 -1.23041 -4.20467 0
M  V30 5877 C 559.517 0.562882 -4.39712 0
M  V30 5878 H 556.737 -0.0694453 -0.667397 0
M  V30 5879 H 559.281 -0.837008 -1.86586 0
M  V30 5880 H 557.436 0.710016 -3.80838 0
M  V30 5881 H 557.85 -1.06094 -5.13658 0
M  V30 5882 H 559.324 0.613213 -5.48583 0
M  V30 5883 H 559.801 1.58543 -4.09586 0
M  V30 5884 H 560.407 -0.0794454 -4.25226 0
M  V30 5885 N 558.722 1.53707 -0.348139 0
M  V30 5886 C 559.655 2.21481 0.549667 0
M  V30 5887 C 560.633 1.20046 1.09671 0
M  V30 5888 O 561.817 1.48883 1.15612 0
M  V30 5889 C 558.944 2.89585 1.75664 0
M  V30 5890 C 557.99 4.04948 1.33864 0
M  V30 5891 S 558.823 5.34325 0.354577 0
M  V30 5892 C 559.979 6.05934 1.56828 0
M  V30 5893 H 560.212 2.97289 -0.0259755 0
M  V30 5894 H 557.745 1.53833 -0.132216 0
M  V30 5895 H 559.703 3.29441 2.44906 0
M  V30 5896 H 558.364 2.13535 2.30351 0
M  V30 5897 H 557.557 4.51552 2.23868 0
M  V30 5898 H 557.159 3.66893 0.725651 0
M  V30 5899 H 559.451 6.29606 2.50205 0
M  V30 5900 H 560.394 6.98799 1.14395 0
M  V30 5901 H 560.802 5.36151 1.76642 0
M  V30 5902 N 560.2 0.0768682 1.57412 0
M  V30 5903 C 561.448 -0.589918 1.93299 0
M  V30 5904 C 561.769 -1.69842 0.958049 0
M  V30 5905 O 561.039 -1.95899 0.00703261 0
M  V30 5906 H 559.619 -0.220901 0.713591 0
M  V30 5907 H 562.281 0.135917 1.94425 0
M  V30 5908 H 561.377 -1.01195 2.95239 0
M  V30 5909 N 561.678 -1.56367 -0.196722 0
M  V30 5910 C 562.608 -1.97442 -1.24655 0
M  V30 5911 C 563.589 -0.846147 -1.47561 0
M  V30 5912 O 564.774 -1.11035 -1.59326 0
M  V30 5913 C 561.904 -2.31253 -2.59112 0
M  V30 5914 C 560.858 -3.46804 -2.50821 0
M  V30 5915 C 560.184 -3.66286 -3.89536 0
M  V30 5916 C 561.484 -4.8104 -2.03465 0
M  V30 5917 H 563.178 -2.85388 -0.905216 0
M  V30 5918 H 560.724 -1.37304 -0.434002 0
M  V30 5919 H 562.677 -2.58583 -3.32736 0
M  V30 5920 H 561.401 -1.40188 -2.94983 0
M  V30 5921 H 560.06 -3.19563 -1.79653 0
M  V30 5922 H 559.708 -2.72555 -4.22756 0
M  V30 5923 H 559.408 -4.4402 -3.84864 0
M  V30 5924 H 560.932 -3.9599 -4.64784 0
M  V30 5925 H 562.346 -5.07411 -2.66846 0
M  V30 5926 H 560.743 -5.62232 -2.09798 0
M  V30 5927 H 561.813 -4.74732 -0.98781 0
M  V30 5928 N 563.156 0.464375 -1.50603 0
M  V30 5929 C 564.104 1.58224 -1.70493 0
M  V30 5930 C 565.098 1.59492 -0.570836 0
M  V30 5931 O 566.304 1.63561 -0.751517 0
M  V30 5932 H 562.679 0.525161 -0.538247 0
M  V30 5933 H 564.65 1.38613 -2.64252 0
M  V30 5934 C 563.399 2.96113 -1.82243 0
M  V30 5935 H 562.722 2.95858 -2.68901 0
M  V30 5936 H 564.162 3.73769 -2.00182 0
M  V30 5937 C 562.621 3.31946 -0.575628 0
M  V30 5938 O 563.151 4.00708 0.282152 0
M  V30 5939 N 561.357 2.87436 -0.427665 0
M  V30 5940 H 560.904 2.31652 -1.12674 0
M  V30 5941 H 560.862 3.11776 0.405379 0
M  V30 5942 N 564.634 1.40294 0.718013 0
M  V30 5943 C 565.862 1.4175 1.50714 0
M  V30 5944 C 566.277 0.0165366 1.88793 0
M  V30 5945 O 565.634 -0.958942 1.55276 0
M  V30 5946 C 565.685 2.30598 2.784 0
M  V30 5947 O 565.406 3.6524 2.41932 0
M  V30 5948 C 566.907 2.4062 3.72313 0
M  V30 5949 H 564.127 0.483565 0.465194 0
M  V30 5950 H 566.671 1.84316 0.885889 0
M  V30 5951 H 564.826 1.91401 3.36815 0
M  V30 5952 H 565.24 4.12402 3.24076 0
M  V30 5953 H 566.714 3.07001 4.58753 0
M  V30 5954 H 567.191 1.4305 4.15251 0
M  V30 5955 H 567.797 2.80359 3.19811 0
M  V30 5956 N 566.112 -0.949982 1.2575 0
M  V30 5957 C 567.075 -2.02894 1.06615 0
M  V30 5958 C 568.075 -1.60791 0.0173905 0
M  V30 5959 O 569.265 -1.72249 0.260003 0
M  V30 5960 C 566.397 -3.35219 0.619751 0
M  V30 5961 H 567.59 -2.21302 2.02399 0
M  V30 5962 H 565.143 -1.12772 1.08223 0
M  V30 5963 H 565.878 -3.22508 -0.340486 0
M  V30 5964 H 565.663 -3.67129 1.37692 0
M  V30 5965 H 567.153 -4.14505 0.507443 0
M  V30 5966 N 567.59 -1.07411 -1.15328 0
M  V30 5967 C 568.867 -0.710732 -1.82231 0
M  V30 5968 C 569.247 0.806732 -1.95077 0
M  V30 5969 O 568.595 1.72139 -1.50268 0
M  V30 5970 C 568.805 -1.42586 -3.18544 0
M  V30 5971 C 570.153 -1.57836 -3.94174 0
M  V30 5972 O 571.177 -1.38669 -3.281 0
M  V30 5973 O 570.036 -1.8938 -5.12638 0
M  V30 5974 H 567.13 -0.25297 -0.78736 0
M  V30 5975 H 569.676 -1.17508 -1.22434 0
M  V30 5976 H 568.448 -2.46008 -3.04296 0
M  V30 5977 H 568.071 -0.952332 -3.86026 0
M  V30 5978 N 569.068 1.32177 -0.85831 0
M  V30 5979 C 570.296 2.01313 -0.477582 0
M  V30 5980 C 570.711 1.6449 0.926736 0
M  V30 5981 O 570.068 0.868096 1.60531 0
M  V30 5982 C 570.119 3.56293 -0.611337 0
M  V30 5983 O 569.84 3.91794 -1.96034 0
M  V30 5984 C 571.341 4.42702 -0.230093 0
M  V30 5985 H 568.561 0.644323 -0.187322 0
M  V30 5986 H 571.105 1.68674 -1.15626 0
M  V30 5987 H 569.26 3.87395 0.0196494 0
M  V30 5988 H 569.674 4.86513 -1.95973 0
M  V30 5989 H 571.148 5.50727 -0.374674 0
M  V30 5990 H 571.625 4.3129 0.829779 0
M  V30 5991 H 572.231 4.16997 -0.836302 0
M  V30 5992 N 570.547 0.616602 1.45037 0
M  V30 5993 C 571.51 -0.0871112 2.29034 0
M  V30 5994 C 572.51 -0.786414 1.40258 0
M  V30 5995 O 573.7 -0.633207 1.62284 0
M  V30 5996 C 570.832 -1.13369 3.21497 0
M  V30 5997 H 572.025 0.651497 2.92738 0
M  V30 5998 H 569.578 0.376058 1.51709 0
M  V30 5999 H 570.313 -1.90277 2.62612 0
M  V30 6000 H 570.098 -0.636358 3.86902 0
M  V30 6001 H 571.588 -1.62627 3.84633 0
M  V30 6002 N 572.025 -1.5352 0.356285 0
M  V30 6003 C 573.441 -1.59599 0.00485267 0
M  V30 6004 C 573.641 -1.37179 -1.47595 0
M  V30 6005 O 572.697 -1.17234 -2.23635 0
M  V30 6006 C 574.01 -2.97277 0.452454 0
M  V30 6007 C 575.558 -3.10357 0.405881 0
M  V30 6008 C 576.033 -4.50432 0.829148 0
M  V30 6009 N 577.524 -4.5652 0.783838 0
M  V30 6010 C 578.259 -5.63077 1.08315 0
M  V30 6011 N 577.755 -6.77429 1.45126 0
M  V30 6012 N 579.548 -5.53014 1.00655 0
M  V30 6013 H 571.699 -1.66346 1.32071 0
M  V30 6014 H 573.962 -0.77971 0.539218 0
M  V30 6015 H 573.668 -3.18792 1.48542 0
M  V30 6016 H 573.542 -3.76836 -0.165762 0
M  V30 6017 H 575.929 -2.88558 -0.617934 0
M  V30 6018 H 576.01 -2.32828 1.05947 0
M  V30 6019 H 575.654 -4.72968 1.85103 0
M  V30 6020 H 575.584 -5.26378 0.152906 0
M  V30 6021 H 578.075 -3.74408 0.512513 0
M  V30 6022 H 578.388 -7.54669 1.66415 0
M  V30 6023 H 576.733 -6.78844 1.48983 0
M  V30 6024 H 579.924 -4.62557 0.718215 0
M  V30 6025 H 580.097 -6.35964 1.24315 0
M  V30 6026 N 573.503 -0.0852151 -1.57369 0
M  V30 6027 C 574.433 0.874556 -2.16503 0
M  V30 6028 C 575.414 1.30111 -1.09568 0
M  V30 6029 O 576.599 1.36977 -1.37662 0
M  V30 6030 C 573.729 2.13731 -2.73745 0
M  V30 6031 C 572.683 1.84971 -3.85966 0
M  V30 6032 C 572.009 3.17991 -4.29867 0
M  V30 6033 C 573.309 1.14442 -5.09608 0
M  V30 6034 H 575.003 0.381899 -2.96954 0
M  V30 6035 H 572.549 0.18225 -1.42842 0
M  V30 6036 H 574.502 2.81302 -3.13763 0
M  V30 6037 H 573.226 2.65263 -1.90534 0
M  V30 6038 H 571.885 1.19801 -3.46473 0
M  V30 6039 H 571.533 3.6739 -3.4356 0
M  V30 6040 H 571.233 2.99534 -5.05523 0
M  V30 6041 H 572.757 3.86737 -4.72511 0
M  V30 6042 H 574.171 1.72105 -5.46857 0
M  V30 6043 H 572.568 1.06197 -5.90629 0
M  V30 6044 H 573.638 0.12559 -4.84737 0
M  V30 6045 N 574.981 1.5647 0.188427 0
M  V30 6046 C 575.929 1.95971 1.25293 0
M  V30 6047 C 576.923 0.846047 1.4676 0
M  V30 6048 O 578.129 1.03109 1.47542 0
M  V30 6049 H 574.504 0.623253 0.420784 0
M  V30 6050 H 576.475 2.84731 0.892792 0
M  V30 6051 C 575.224 2.32116 2.58877 0
M  V30 6052 H 574.547 3.17341 2.43176 0
M  V30 6053 H 575.987 2.63613 3.3209 0
M  V30 6054 C 574.446 1.15823 3.16365 0
M  V30 6055 O 574.976 0.436785 3.99318 0
M  V30 6056 N 573.182 0.933278 2.75206 0
M  V30 6057 H 572.729 1.52169 2.07852 0
M  V30 6058 H 572.687 0.156976 3.14008 0
M  V30 6059 N 576.459 -0.456382 1.50847 0
M  V30 6060 C 577.422 -1.53493 1.70213 0
M  V30 6061 C 578.422 -1.50264 0.572481 0
M  V30 6062 O 579.612 -1.52623 0.839751 0
M  V30 6063 C 576.744 -2.93091 1.741 0
M  V30 6064 H 577.937 -1.37633 2.66453 0
M  V30 6065 H 575.49 -0.683776 1.4055 0
M  V30 6066 H 576.225 -3.14378 0.796063 0
M  V30 6067 H 576.01 -2.9684 2.5618 0
M  V30 6068 H 577.5 -3.71368 1.90987 0
M  V30 6069 N 577.937 -1.40673 -0.710563 0
M  V30 6070 C 578.885 -1.41517 -1.84596 0
M  V30 6071 C 579.879 -0.295043 -1.66811 0
M  V30 6072 O 581.085 -0.466331 -1.73854 0
M  V30 6073 H 577.46 -0.442467 -0.608052 0
M  V30 6074 H 579.431 -2.37238 -1.80999 0
M  V30 6075 C 578.18 -1.29957 -3.225 0
M  V30 6076 H 577.503 -2.15429 -3.36794 0
M  V30 6077 H 578.943 -1.34608 -4.02066 0
M  V30 6078 C 577.402 -0.0103164 -3.36898 0
M  V30 6079 O 577.932 0.950707 -3.90288 0
M  V30 6080 N 576.138 0.0608409 -2.90536 0
M  V30 6081 H 575.685 -0.721943 -2.47277 0
M  V30 6082 H 575.643 0.92292 -3.00549 0
M  V30 6083 N 579.415 0.9433 -1.26252 0
M  V30 6084 C 580.664 1.68369 -1.11062 0
M  V30 6085 C 580.977 1.92514 0.346104 0
M  V30 6086 O 582.183 2.64358 0.618646 0
M  V30 6087 C 580.639 3.03171 -1.93946 0
M  V30 6088 C 580.247 2.86782 -3.4418 0
M  V30 6089 C 581.991 3.80916 -1.87359 0
M  V30 6090 C 579.898 4.17044 -4.19319 0
M  V30 6091 H 578.828 0.631469 -0.412023 0
M  V30 6092 H 581.479 1.04922 -1.50544 0
M  V30 6093 H 579.861 3.67587 -1.47296 0
M  V30 6094 H 581.035 2.31229 -3.98585 0
M  V30 6095 H 579.35 2.22482 -3.51981 0
M  V30 6096 H 581.947 4.77417 -2.40784 0
M  V30 6097 H 582.29 4.07658 -0.843857 0
M  V30 6098 H 582.823 3.2327 -2.31821 0
M  V30 6099 H 579.562 3.95487 -5.22753 0
M  V30 6100 H 579.082 4.72319 -3.69696 0
M  V30 6101 H 580.761 4.85513 -4.27651 0
M  V30 6102 N 580.893 1.08022 1.14757 0
M  V30 6103 C 582.309 0.807072 1.3769 0
M  V30 6104 C 582.509 -0.585504 1.92806 0
M  V30 6105 O 581.565 -1.34301 2.13821 0
M  V30 6106 C 582.878 1.88651 2.34161 0
M  V30 6107 C 584.426 1.91206 2.47809 0
M  V30 6108 C 584.901 2.98253 3.47576 0
M  V30 6109 N 586.392 2.974 3.55117 0
M  V30 6110 C 587.127 3.76872 4.32152 0
M  V30 6111 N 586.623 4.66212 5.12463 0
M  V30 6112 N 588.416 3.6519 4.27309 0
M  V30 6113 H 580.567 1.97824 0.77326 0
M  V30 6114 H 582.83 0.85826 0.402608 0
M  V30 6115 H 582.536 2.88749 2.00791 0
M  V30 6116 H 582.41 1.75244 3.3402 0
M  V30 6117 H 584.797 0.917564 2.80472 0
M  V30 6118 H 584.878 2.08691 1.47925 0
M  V30 6119 H 584.522 3.97907 3.15646 0
M  V30 6120 H 584.452 2.78014 4.47231 0
M  V30 6121 H 586.943 2.32643 2.97801 0
M  V30 6122 H 587.256 5.23468 5.68508 0
M  V30 6123 H 585.601 4.70257 5.11745 0
M  V30 6124 H 588.792 2.94765 3.63636 0
M  V30 6125 H 588.965 4.27366 4.87095 0
M  V30 6126 N 582.371 -1.3172 0.865308 0
M  V30 6127 C 583.601 -2.00765 0.487543 0
M  V30 6128 C 584.009 -1.65145 -0.92325 0
M  V30 6129 O 583.352 -0.874294 -1.61561 0
M  V30 6130 C 583.414 -3.55122 0.559369 0
M  V30 6131 C 583.078 -4.14202 1.93095 0
M  V30 6132 C 584.075 -4.3165 2.89784 0
M  V30 6133 C 581.76 -4.50036 2.23099 0
M  V30 6134 C 583.754 -4.84114 4.14623 0
M  V30 6135 C 581.441 -5.02203 3.48189 0
M  V30 6136 C 582.439 -5.19192 4.43767 0
M  V30 6137 O 582.127 -5.70241 5.6664 0
M  V30 6138 H 581.859 -0.649066 0.188915 0
M  V30 6139 H 584.413 -1.69032 1.16694 0
M  V30 6140 H 582.643 -3.86295 -0.176926 0
M  V30 6141 H 584.332 -4.05428 0.195694 0
M  V30 6142 H 585.098 -4.04288 2.6791 0
M  V30 6143 H 580.977 -4.36091 1.49485 0
M  V30 6144 H 584.521 -4.9729 4.89233 0
M  V30 6145 H 580.418 -5.28997 3.69908 0
M  V30 6146 H 581.186 -5.88617 5.68746 0
M  V30 6147 N 583.85 -0.624285 -1.44708 0
M  V30 6148 C 585.096 -0.126237 -2.02407 0
M  V30 6149 C 585.428 1.24618 -1.48943 0
M  V30 6150 O 584.704 1.82569 -0.670742 0
M  V30 6151 C 584.986 -0.105449 -3.59946 0
M  V30 6152 C 584.84 -1.50972 -4.23707 0
M  V30 6153 C 586.159 0.573629 -4.36346 0
M  V30 6154 H 583.278 -0.0473472 -0.735478 0
M  V30 6155 H 585.92 -0.799452 -1.72362 0
M  V30 6156 H 584.07 0.46783 -3.85673 0
M  V30 6157 H 585.742 -2.13136 -4.0911 0
M  V30 6158 H 583.985 -2.0656 -3.81465 0
M  V30 6159 H 584.656 -1.44727 -5.32689 0
M  V30 6160 H 587.132 0.0861787 -4.16011 0
M  V30 6161 H 586.008 0.557338 -5.46063 0
M  V30 6162 H 586.269 1.64276 -4.10446 0
M  V30 6163 N 585.328 1.53329 -0.364422 0
M  V30 6164 C 586.276 2.27212 0.497737 0
M  V30 6165 C 587.27 1.30146 1.08437 0
M  V30 6166 O 588.476 1.47778 1.0277 0
M  V30 6167 H 584.851 0.730329 0.179232 0
M  V30 6168 H 586.822 2.98037 -0.147182 0
M  V30 6169 C 585.571 3.07333 1.6261 0
M  V30 6170 H 584.894 3.81866 1.184 0
M  V30 6171 H 586.334 3.62209 2.20409 0
M  V30 6172 C 584.793 2.18102 2.56775 0
M  V30 6173 O 585.323 1.79104 3.59562 0
M  V30 6174 N 583.529 1.82759 2.25937 0
M  V30 6175 H 583.076 2.14671 1.42387 0
M  V30 6176 H 583.034 1.23342 2.89196 0
M  V30 6177 N 586.806 0.0935595 1.57322 0
M  V30 6178 C 588.034 -0.578934 1.98635 0
M  V30 6179 C 588.449 -1.61819 0.972626 0
M  V30 6180 O 587.806 -1.82461 -0.0379638 0
M  V30 6181 C 587.857 -1.22802 3.40003 0
M  V30 6182 O 587.578 -0.230334 4.37494 0
M  V30 6183 C 589.079 -1.98627 3.96311 0
M  V30 6184 H 586.299 -0.155324 0.652775 0
M  V30 6185 H 588.843 0.172393 2.03772 0
M  V30 6186 H 586.998 -1.93029 3.35885 0
M  V30 6187 H 587.412 -0.698649 5.19826 0
M  V30 6188 H 588.886 -2.39405 4.97382 0
M  V30 6189 H 589.363 -2.85151 3.34044 0
M  V30 6190 H 589.969 -1.3322 4.03897 0
M  V30 6191 N 588.284 -1.56567 -0.180126 0
M  V30 6192 C 589.532 -1.81133 -0.896392 0
M  V30 6193 C 589.853 -0.669114 -1.83161 0
M  V30 6194 O 589.123 0.311616 -1.93406 0
M  V30 6195 H 587.703 -0.668172 -0.333999 0
M  V30 6196 H 590.365 -1.94048 -0.182051 0
M  V30 6197 H 589.461 -2.74854 -1.47857 0
M  V30 6198 N 589.762 0.448376 -1.51087 0
M  V30 6199 C 590.99 1.22143 -1.66999 0
M  V30 6200 C 591.405 1.85283 -0.362699 0
M  V30 6201 O 590.762 1.70236 0.65772 0
M  V30 6202 C 590.813 2.31357 -2.7777 0
M  V30 6203 O 590.534 1.70801 -4.03434 0
M  V30 6204 C 592.035 3.21836 -3.04855 0
M  V30 6205 H 589.255 0.368558 -0.560719 0
M  V30 6206 H 591.799 0.532618 -1.97442 0
M  V30 6207 H 589.954 2.95973 -2.49958 0
M  V30 6208 H 590.368 2.42895 -4.64868 0
M  V30 6209 H 591.842 3.94627 -3.85971 0
M  V30 6210 H 592.319 3.81949 -2.16821 0
M  V30 6211 H 592.925 2.62933 -3.34285 0
M  V30 6212 N 591.24 1.41047 0.703093 0
M  V30 6213 C 592.203 1.42036 1.79884 0
M  V30 6214 C 593.203 0.312153 1.57741 0
M  V30 6215 O 594.393 0.571672 1.64553 0
M  V30 6216 C 591.525 1.22437 3.18154 0
M  V30 6217 H 592.718 2.39572 1.80403 0
M  V30 6218 H 590.271 1.27079 0.909977 0
M  V30 6219 H 591.006 0.257112 3.23279 0
M  V30 6220 H 590.791 2.02723 3.35627 0
M  V30 6221 H 592.281 1.25946 3.98155 0
M  V30 6222 N 592.718 -0.936591 1.26751 0
M  V30 6223 C 594.129 -1.49816 1.1141 0
M  V30 6224 C 594.48 -1.9383 -0.304015 0
M  V30 6225 O 593.605 -1.80346 -1.196 0
M  V30 6226 C 594.2 -2.72271 2.01629 0
M  V30 6227 C 592.759 -3.2468 1.9042 0
M  V30 6228 C 591.906 -1.97444 1.94708 0
M  V30 6229 H 594.857 -0.751604 1.39773 0
M  V30 6230 H 594.878 -3.46741 1.56688 0
M  V30 6231 H 594.39 -2.40205 3.04833 0
M  V30 6232 H 592.491 -3.61525 0.901674 0
M  V30 6233 H 592.604 -3.91476 2.76195 0
M  V30 6234 H 590.968 -2.13545 1.38818 0
M  V30 6235 H 591.751 -1.67703 2.9955 0
M  V30 6236 N 594.196 -1.08629 -1.14182 0
M  V30 6237 C 595.445 -0.812271 -1.84621 0
M  V30 6238 C 595.758 0.664313 -1.83973 0
M  V30 6239 O 596.964 1.05357 -2.50224 0
M  V30 6240 C 595.42 -1.4031 -3.31423 0
M  V30 6241 C 595.028 -2.91164 -3.40481 0
M  V30 6242 C 596.772 -1.20767 -4.06959 0
M  V30 6243 C 594.679 -3.43373 -4.81507 0
M  V30 6244 H 593.609 -0.30019 -0.691666 0
M  V30 6245 H 596.26 -1.30798 -1.28701 0
M  V30 6246 H 594.642 -0.835096 -3.87094 0
M  V30 6247 H 595.816 -3.5412 -2.94848 0
M  V30 6248 H 594.131 -3.09646 -2.78403 0
M  V30 6249 H 596.728 -1.57237 -5.11058 0
M  V30 6250 H 597.071 -0.147664 -4.16038 0
M  V30 6251 H 597.604 -1.74274 -3.57594 0
M  V30 6252 H 594.343 -4.48958 -4.77616 0
M  V30 6253 H 593.863 -2.85176 -5.27669 0
M  V30 6254 H 595.542 -3.40095 -5.50404 0
M  V30 6255 N 595.674 1.31259 -0.872281 0
M  V30 6256 C 596.904 2.00504 -0.498183 0
M  V30 6257 C 597.312 1.65632 0.914479 0
M  V30 6258 O 596.655 0.882849 1.61095 0
M  V30 6259 C 596.717 3.5482 -0.578194 0
M  V30 6260 C 596.381 4.13172 -1.95289 0
M  V30 6261 C 597.378 4.30107 -2.92069 0
M  V30 6262 C 595.063 4.48846 -2.25483 0
M  V30 6263 C 597.057 4.81908 -4.17185 0
M  V30 6264 C 594.744 5.00349 -3.50847 0
M  V30 6265 C 595.742 5.16831 -4.46514 0
M  V30 6266 O 595.43 5.67228 -5.69656 0
M  V30 6267 H 595.162 0.648055 -0.192354 0
M  V30 6268 H 597.716 1.6841 -1.17589 0
M  V30 6269 H 595.946 3.86383 0.156438 0
M  V30 6270 H 597.635 4.05318 -0.217192 0
M  V30 6271 H 598.401 4.02862 -2.7005 0
M  V30 6272 H 594.28 4.35292 -1.51795 0
M  V30 6273 H 597.824 4.94688 -4.91863 0
M  V30 6274 H 593.721 5.27028 -3.72708 0
M  V30 6275 H 594.489 5.85592 -5.7186 0
M  V30 6276 N 597.152 0.631951 1.44375 0
M  V30 6277 C 598.1 -0.0846693 2.32446 0
M  V30 6278 C 599.094 -0.834957 1.47393 0
M  V30 6279 O 600.3 -0.747764 1.63733 0
M  V30 6280 H 596.675 -0.0461508 0.750583 0
M  V30 6281 H 598.646 0.67619 2.90638 0
M  V30 6282 C 597.395 -1.05211 3.314 0
M  V30 6283 H 596.718 -0.484203 3.96857 0
M  V30 6284 H 598.158 -1.523 3.95703 0
M  V30 6285 C 596.617 -2.13776 2.60387 0
M  V30 6286 O 597.147 -3.21869 2.4034 0
M  V30 6287 N 595.353 -1.89733 2.20113 0
M  V30 6288 H 594.9 -1.01833 2.36618 0
M  V30 6289 H 594.858 -2.62572 1.72926 0
M  V30 6290 N 598.631 -1.53133 0.372548 0
M  V30 6291 C 599.877 -2.01654 -0.215277 0
M  V30 6292 C 600.21 -1.25914 -1.47849 0
M  V30 6293 O 599.485 -0.3548 -1.91237 0
M  V30 6294 C 599.768 -3.56609 -0.500187 0
M  V30 6295 C 599.621 -4.43036 0.777145 0
M  V30 6296 C 600.94 -4.20528 -1.29786 0
M  V30 6297 H 598.059 -0.732991 -0.0767686 0
M  V30 6298 H 600.701 -1.83335 0.498814 0
M  V30 6299 H 598.851 -3.7235 -1.10852 0
M  V30 6300 H 600.523 -4.39079 1.41447 0
M  V30 6301 H 598.766 -4.10723 1.39604 0
M  V30 6302 H 599.437 -5.49424 0.532662 0
M  V30 6303 H 601.913 -4.08663 -0.783198 0
M  V30 6304 H 600.789 -5.28962 -1.46596 0
M  V30 6305 H 601.05 -3.77051 -2.30836 0
M  V30 6306 N 600.109 -0.101901 -1.5727 0
M  V30 6307 C 601.039 0.851544 -2.17419 0
M  V30 6308 C 602.02 1.28942 -1.10941 0
M  V30 6309 O 603.205 1.35509 -1.39107 0
M  V30 6310 C 600.335 2.10816 -2.75996 0
M  V30 6311 C 599.289 1.80867 -3.87906 0
M  V30 6312 C 598.615 3.13413 -4.33216 0
M  V30 6313 C 599.915 1.0903 -5.10793 0
M  V30 6314 H 601.609 0.350381 -2.97343 0
M  V30 6315 H 599.155 0.16709 -1.43027 0
M  V30 6316 H 601.108 2.77959 -3.16729 0
M  V30 6317 H 599.832 2.63227 -1.93337 0
M  V30 6318 H 598.491 1.16119 -3.47724 0
M  V30 6319 H 598.139 3.63725 -3.47438 0
M  V30 6320 H 597.839 2.94155 -5.08671 0
M  V30 6321 H 599.363 3.81704 -4.76586 0
M  V30 6322 H 600.777 1.66295 -5.48652 0
M  V30 6323 H 599.174 0.99927 -5.91722 0
M  V30 6324 H 600.244 0.0741704 -4.84843 0
M  V30 6325 N 601.587 1.56661 0.17182 0
M  V30 6326 C 602.998 1.71652 0.734329 0
M  V30 6327 C 603.349 0.712335 1.82812 0
M  V30 6328 O 602.474 -0.126401 2.16031 0
M  V30 6329 C 603.069 3.11226 1.3388 0
M  V30 6330 C 601.628 3.27904 1.84813 0
M  V30 6331 C 600.775 2.67603 0.726917 0
M  V30 6332 H 603.726 1.5861 -0.0535665 0
M  V30 6333 H 603.747 3.09849 2.20849 0
M  V30 6334 H 603.259 3.8429 0.54249 0
M  V30 6335 H 601.36 2.59796 2.6709 0
M  V30 6336 H 601.473 4.35637 1.99392 0
M  V30 6337 H 599.837 2.274 1.14723 0
M  V30 6338 H 600.62 3.43252 -0.0575334 0
M  V30 6339 N 603.065 -0.440357 1.51323 0
M  V30 6340 C 604.293 -1.21255 1.67645 0
M  V30 6341 C 604.708 -1.85088 0.37252 0
M  V30 6342 O 604.065 -1.70582 -0.648683 0
M  V30 6343 C 604.116 -2.29881 2.78993 0
M  V30 6344 O 603.837 -1.68659 4.04334 0
M  V30 6345 C 605.338 -3.20214 3.06558 0
M  V30 6346 H 602.558 -0.36558 0.562666 0
M  V30 6347 H 605.102 -0.52214 1.97722 0
M  V30 6348 H 603.257 -2.94643 2.51524 0
M  V30 6349 H 603.671 -2.40426 4.6615 0
M  V30 6350 H 605.145 -3.92575 3.88058 0
M  V30 6351 H 605.622 -3.80794 2.18844 0
M  V30 6352 H 606.228 -2.61156 3.35675 0
M  V30 6353 N 604.543 -1.41418 -0.695603 0
M  V30 6354 C 605.771 -1.4413 -1.48439 0
M  V30 6355 C 606.186 -0.0465698 -1.88743 0
M  V30 6356 O 605.543 0.934117 -1.56782 0
M  V30 6357 C 605.594 -2.34998 -2.74696 0
M  V30 6358 O 605.315 -3.69043 -2.36091 0
M  V30 6359 C 606.816 -2.46513 -3.68438 0
M  V30 6360 H 604.036 -0.490905 -0.457442 0
M  V30 6361 H 606.58 -1.85702 -0.856454 0
M  V30 6362 H 604.735 -1.96735 -3.33728 0
M  V30 6363 H 605.149 -4.17505 -3.17474 0
M  V30 6364 H 606.623 -3.1426 -4.53811 0
M  V30 6365 H 607.1 -1.49638 -4.12922 0
M  V30 6366 H 607.706 -2.85412 -3.1531 0
M  V30 6367 N 606.021 0.929856 -1.27246 0
M  V30 6368 C 607.246 1.71674 -1.16374 0
M  V30 6369 C 607.671 1.86064 0.276024 0
M  V30 6370 O 607.029 1.3591 1.19992 0
M  V30 6371 C 607.077 3.09526 -1.85003 0
M  V30 6372 O 606.181 3.96142 -1.14653 0
M  V30 6373 H 605.522 0.52629 -0.404863 0
M  V30 6374 H 608.052 1.16381 -1.68276 0
M  V30 6375 H 608.062 3.59852 -1.92276 0
M  V30 6376 H 606.737 2.98369 -2.89739 0
M  V30 6377 H 605.314 3.54584 -1.15433 0
M  V30 6378 N 607.499 1.09233 1.13605 0
M  V30 6379 C 608.429 0.751738 2.21068 0
M  V30 6380 C 609.41 -0.269688 1.67948 0
M  V30 6381 O 610.595 -0.13819 1.93708 0
M  V30 6382 C 607.725 0.16935 3.46887 0
M  V30 6383 C 606.679 1.12007 4.13084 0
M  V30 6384 C 606.005 0.399483 5.33206 0
M  V30 6385 C 607.305 2.46168 4.6065 0
M  V30 6386 H 608.999 1.65024 2.49815 0
M  V30 6387 H 606.545 0.794905 1.20072 0
M  V30 6388 H 608.498 -0.0809824 4.21322 0
M  V30 6389 H 607.222 -0.764335 3.1753 0
M  V30 6390 H 605.881 1.35564 3.40614 0
M  V30 6391 H 605.529 -0.538277 5.00112 0
M  V30 6392 H 605.229 1.03337 5.78442 0
M  V30 6393 H 606.753 0.157403 6.10397 0
M  V30 6394 H 608.167 2.26829 5.26518 0
M  V30 6395 H 606.564 3.05326 5.1662 0
M  V30 6396 H 607.634 3.07076 3.75276 0
M  V30 6397 N 608.977 -1.30795 0.87923 0
M  V30 6398 C 610.223 -1.96653 0.495519 0
M  V30 6399 C 610.556 -1.69282 -0.951703 0
M  V30 6400 O 609.831 -0.994374 -1.6716 0
M  V30 6401 C 610.114 -3.51898 0.764174 0
M  V30 6402 C 609.967 -3.88808 2.2616 0
M  V30 6403 C 611.286 -4.39462 0.236825 0
M  V30 6404 H 608.405 -0.7143 0.181507 0
M  V30 6405 H 611.047 -1.54765 1.10217 0
M  V30 6406 H 609.197 -3.87709 0.247841 0
M  V30 6407 H 610.869 -3.63051 2.8459 0
M  V30 6408 H 609.112 -3.37082 2.73053 0
M  V30 6409 H 609.783 -4.97086 2.4002 0
M  V30 6410 H 612.259 -4.10528 0.678683 0
M  V30 6411 H 611.135 -5.47018 0.454176 0
M  V30 6412 H 611.396 -4.33621 -0.861683 0
M  V30 6413 N 610.455 -0.639598 -1.44038 0
M  V30 6414 C 611.385 0.0469443 -2.33453 0
M  V30 6415 C 612.366 0.82609 -1.48694 0
M  V30 6416 O 613.551 0.790285 -1.77393 0
M  V30 6417 C 610.681 1.02338 -3.3188 0
M  V30 6418 C 609.635 0.355284 -4.26523 0
M  V30 6419 C 608.961 1.44221 -5.14883 0
M  V30 6420 C 610.261 -0.743798 -5.16977 0
M  V30 6421 H 611.955 -0.699735 -2.91108 0
M  V30 6422 H 609.501 -0.337946 -1.39978 0
M  V30 6423 H 611.454 1.51247 -3.93322 0
M  V30 6424 H 610.178 1.80105 -2.72451 0
M  V30 6425 H 608.837 -0.113239 -3.66425 0
M  V30 6426 H 608.485 2.21097 -4.51802 0
M  V30 6427 H 608.185 1.00052 -5.79019 0
M  V30 6428 H 609.709 1.93295 -5.79197 0
M  V30 6429 H 611.123 -0.337444 -5.72306 0
M  V30 6430 H 609.52 -1.10914 -5.89761 0
M  V30 6431 H 610.59 -1.60745 -4.57481 0
M  V30 6432 N 611.933 1.52934 -0.380664 0
M  V30 6433 C 613.181 2.01069 0.203874 0
M  V30 6434 C 613.502 1.26922 1.4804 0
M  V30 6435 O 612.772 0.386787 1.92044 0
M  V30 6436 H 611.352 0.742882 0.0783279 0
M  V30 6437 H 614.014 1.88099 -0.510368 0
M  V30 6438 H 613.11 3.09258 0.42021 0
M  V30 6439 N 613.412 0.11024 1.57214 0
M  V30 6440 C 614.359 -0.843195 2.14846 0
M  V30 6441 C 615.329 -1.26954 1.07107 0
M  V30 6442 O 616.514 -1.34861 1.34971 0
M  V30 6443 C 613.654 -2.09123 2.74521 0
M  V30 6444 C 612.767 -1.71404 3.96541 0
M  V30 6445 C 611.902 -2.91107 4.44331 0
M  V30 6446 C 610.941 -2.49586 5.58903 0
M  V30 6447 N 610.078 -3.62175 6.01477 0
M  V30 6448 H 614.918 -0.344886 2.95998 0
M  V30 6449 H 612.455 -0.15855 1.46243 0
M  V30 6450 H 614.413 -2.82234 3.07246 0
M  V30 6451 H 613.043 -2.56427 1.96074 0
M  V30 6452 H 612.095 -0.88201 3.70033 0
M  V30 6453 H 613.407 -1.36884 4.7965 0
M  V30 6454 H 612.561 -3.72454 4.78919 0
M  V30 6455 H 611.3 -3.28848 3.60153 0
M  V30 6456 H 610.305 -1.6667 5.23929 0
M  V30 6457 H 611.53 -2.12973 6.4484 0
M  V30 6458 H 609.476 -3.99605 5.20242 0
M  V30 6459 H 609.393 -3.3155 6.79419 0
M  V30 6460 H 610.661 -4.43987 6.407 0
M  V30 6461 N 614.89 -1.56749 -0.16351 0
M  V30 6462 C 615.838 -1.97939 -1.22159 0
M  V30 6463 C 616.832 -0.869288 -1.45395 0
M  V30 6464 O 618.038 -1.05443 -1.45883 0
M  V30 6465 H 614.413 -0.629869 -0.410815 0
M  V30 6466 H 616.384 -2.86115 -0.847381 0
M  V30 6467 C 615.133 -2.36206 -2.55151 0
M  V30 6468 H 614.456 -3.2117 -2.38097 0
M  V30 6469 H 615.896 -2.68863 -3.27854 0
M  V30 6470 C 614.355 -1.20841 -3.14482 0
M  V30 6471 O 614.885 -0.500258 -3.98573 0
M  V30 6472 N 613.091 -0.976943 -2.73686 0
M  V30 6473 H 612.638 -1.55457 -2.05404 0
M  V30 6474 H 612.596 -0.206912 -3.13718 0
M  V30 6475 N 616.368 0.432326 -1.51554 0
M  V30 6476 C 617.3 1.54357 -1.6943 0
M  V30 6477 C 618.313 1.52311 -0.574897 0
M  V30 6478 O 619.502 1.56997 -0.849369 0
M  V30 6479 C 616.602 2.93273 -1.69836 0
M  V30 6480 C 615.775 3.19768 -2.98442 0
M  V30 6481 C 614.834 4.38433 -2.90969 0
M  V30 6482 O 613.86 4.36842 -3.64908 0
M  V30 6483 N 615.062 5.42276 -2.07163 0
M  V30 6484 H 617.827 1.39426 -2.65293 0
M  V30 6485 H 615.388 0.621331 -1.49503 0
M  V30 6486 H 617.38 3.70687 -1.62399 0
M  V30 6487 H 615.95 3.01777 -0.815456 0
M  V30 6488 H 615.17 2.30607 -3.19709 0
M  V30 6489 H 616.458 3.343 -3.83563 0
M  V30 6490 H 615.856 5.46407 -1.46477 0
M  V30 6491 H 614.413 6.18524 -2.05601 0
M  V30 6492 N 617.846 1.41785 0.688094 0
M  V30 6493 C 619.074 1.44915 1.47673 0
M  V30 6494 C 619.489 0.0565786 1.88715 0
M  V30 6495 O 618.846 -0.92579 1.57275 0
M  V30 6496 C 618.897 2.36452 2.73446 0
M  V30 6497 O 618.618 3.7029 2.34131 0
M  V30 6498 C 620.119 2.48463 3.67125 0
M  V30 6499 H 617.339 0.493324 0.454832 0
M  V30 6500 H 619.883 1.86153 0.846594 0
M  V30 6501 H 618.038 1.98502 3.3268 0
M  V30 6502 H 618.452 4.19183 3.15255 0
M  V30 6503 H 619.926 3.16662 4.52138 0
M  V30 6504 H 620.403 1.51826 4.12123 0
M  V30 6505 H 621.009 2.8708 3.13792 0
M  V30 6506 N 619.324 -0.923095 1.27737 0
M  V30 6507 C 620.254 -2.04124 1.13383 0
M  V30 6508 C 621.235 -1.70066 0.0340658 0
M  V30 6509 O 622.42 -1.93068 0.209383 0
M  V30 6510 C 619.55 -3.3831 0.785097 0
M  V30 6511 C 618.504 -3.86496 1.8386 0
M  V30 6512 C 617.83 -5.1754 1.34373 0
M  V30 6513 C 619.13 -4.09381 3.24353 0
M  V30 6514 H 620.824 -2.1639 2.06919 0
M  V30 6515 H 618.37 -1.03976 0.996243 0
M  V30 6516 H 620.323 -4.16016 0.671485 0
M  V30 6517 H 619.047 -3.2607 -0.185969 0
M  V30 6518 H 617.706 -3.10987 1.9412 0
M  V30 6519 H 617.354 -5.01696 0.361989 0
M  V30 6520 H 617.054 -5.50751 2.04811 0
M  V30 6521 H 618.578 -5.97811 1.24315 0
M  V30 6522 H 619.992 -4.77641 3.17067 0
M  V30 6523 H 618.389 -4.53906 3.92542 0
M  V30 6524 H 619.459 -3.14515 3.69064 0
M  V30 6525 N 620.802 -1.09834 -1.13024 0
M  V30 6526 C 621.765 -0.745058 -2.16752 0
M  V30 6527 C 622.765 0.227435 -1.59183 0
M  V30 6528 O 623.955 0.0050786 -1.74199 0
M  V30 6529 C 621.087 -0.102543 -3.40746 0
M  V30 6530 H 622.28 -1.66375 -2.49518 0
M  V30 6531 H 619.833 -0.898061 -1.27924 0
M  V30 6532 H 620.568 0.827177 -3.13573 0
M  V30 6533 H 620.353 -0.80235 -3.83803 0
M  V30 6534 H 621.843 0.129082 -4.174 0
M  V30 6535 N 622.28 1.30327 -0.886154 0
M  V30 6536 C 623.508 2.00254 -0.520176 0
M  V30 6537 C 623.923 1.66419 0.891637 0
M  V30 6538 O 623.28 0.901951 1.58654 0
M  V30 6539 C 623.331 3.54916 -0.686775 0
M  V30 6540 O 623.052 3.87547 -2.04301 0
M  V30 6541 C 624.553 4.42115 -0.323945 0
M  V30 6542 H 621.773 0.640204 -0.200947 0
M  V30 6543 H 624.317 1.66183 -1.19178 0
M  V30 6544 H 622.472 3.8735 -0.0625273 0
M  V30 6545 H 622.886 4.82247 -2.06249 0
M  V30 6546 H 624.36 5.49808 -0.491407 0
M  V30 6547 H 624.837 4.32953 0.73811 0
M  V30 6548 H 625.443 4.15129 -0.924565 0
M  V30 6549 N 623.758 0.647228 1.43697 0
M  V30 6550 C 625.007 0.155552 2.01099 0
M  V30 6551 C 625.32 -1.23569 1.51624 0
M  V30 6552 O 626.526 -1.82226 2.01261 0
M  V30 6553 C 624.982 0.227296 3.59182 0
M  V30 6554 C 624.59 1.62086 4.17651 0
M  V30 6555 C 626.334 -0.207085 4.23995 0
M  V30 6556 C 624.241 1.64685 5.68008 0
M  V30 6557 H 623.171 0.0543895 0.752036 0
M  V30 6558 H 625.822 0.808386 1.64734 0
M  V30 6559 H 624.204 -0.492937 3.9292 0
M  V30 6560 H 625.378 2.36597 3.95422 0
M  V30 6561 H 623.693 2.0007 3.65186 0
M  V30 6562 H 626.29 -0.207426 5.34298 0
M  V30 6563 H 626.633 -1.23742 3.97484 0
M  V30 6564 H 627.166 0.461193 3.95118 0
M  V30 6565 H 623.905 2.65608 5.99277 0
M  V30 6566 H 623.425 0.944914 5.9231 0
M  V30 6567 H 625.104 1.38792 6.31938 0
M  V30 6568 N 625.236 -1.5273 0.388769 0
M  V30 6569 C 626.183 -2.26437 -0.446639 0
M  V30 6570 C 627.153 -1.28025 -1.05824 0
M  V30 6571 O 628.338 -1.56852 -1.08637 0
M  V30 6572 C 625.478 -3.07407 -1.56828 0
M  V30 6573 C 624.591 -4.20747 -0.979589 0
M  V30 6574 C 623.726 -4.89113 -2.07224 0
M  V30 6575 C 622.765 -5.94447 -1.45942 0
M  V30 6576 N 621.902 -6.56411 -2.49135 0
M  V30 6577 H 626.742 -2.97404 0.18837 0
M  V30 6578 H 624.279 -1.46727 0.104725 0
M  V30 6579 H 626.237 -3.52642 -2.22934 0
M  V30 6580 H 624.867 -2.3865 -2.17361 0
M  V30 6581 H 623.919 -3.7983 -0.208151 0
M  V30 6582 H 625.231 -4.9637 -0.491747 0
M  V30 6583 H 624.385 -5.3765 -2.81101 0
M  V30 6584 H 623.124 -4.13013 -2.59368 0
M  V30 6585 H 622.129 -5.4525 -0.705894 0
M  V30 6586 H 623.354 -6.7248 -0.945932 0
M  V30 6587 H 621.3 -5.83152 -3.00449 0
M  V30 6588 H 621.217 -7.27645 -2.05105 0
M  V30 6589 H 622.485 -7.09592 -3.22644 0
M  V30 6590 N 626.714 -0.118576 -1.57153 0
M  V30 6591 C 627.677 0.817464 -2.14127 0
M  V30 6592 C 628.677 1.1949 -1.07604 0
M  V30 6593 O 629.867 1.12048 -1.33382 0
M  V30 6594 C 626.999 2.10541 -2.68115 0
M  V30 6595 H 628.192 0.322339 -2.98163 0
M  V30 6596 H 625.745 0.130655 -1.55753 0
M  V30 6597 H 626.48 2.64485 -1.87665 0
M  V30 6598 H 626.265 1.84425 -3.4602 0
M  V30 6599 H 627.755 2.77453 -3.12105 0
M  V30 6600 N 628.193 1.56834 0.155195 0
M  V30 6601 C 629.14 1.97646 1.19184 0
M  V30 6602 C 630.11 0.842788 1.4313 0
M  V30 6603 O 631.295 1.1042 1.55602 0
M  V30 6604 C 628.435 2.35527 2.52232 0
M  V30 6605 C 627.548 3.62147 2.35529 0
M  V30 6606 C 626.683 3.89167 3.61555 0
M  V30 6607 C 625.722 5.09084 3.39853 0
M  V30 6608 N 624.859 5.32156 4.5799 0
M  V30 6609 H 629.699 2.8601 0.836802 0
M  V30 6610 H 627.236 1.41507 0.401758 0
M  V30 6611 H 629.194 2.55516 3.29799 0
M  V30 6612 H 627.824 1.50253 2.85699 0
M  V30 6613 H 626.876 3.4998 1.49057 0
M  V30 6614 H 628.188 4.49871 2.15448 0
M  V30 6615 H 627.342 4.09611 4.47553 0
M  V30 6616 H 626.081 2.9985 3.84632 0
M  V30 6617 H 625.086 4.88522 2.52243 0
M  V30 6618 H 626.311 5.99947 3.18183 0
M  V30 6619 H 624.257 4.45791 4.81255 0
M  V30 6620 H 624.174 6.14133 4.40882 0
M  V30 6621 H 625.442 5.57091 5.45225 0
M  V30 6622 N 629.671 -0.424282 1.51781 0
M  V30 6623 C 630.581 -1.54087 1.76902 0
M  V30 6624 C 631.597 -1.61249 0.653826 0
M  V30 6625 O 632.773 -1.78247 0.937552 0
M  V30 6626 C 629.838 -2.8996 1.90063 0
M  V30 6627 C 628.899 -2.92809 3.13945 0
M  V30 6628 C 628.132 -4.22201 3.26469 0
M  V30 6629 O 628.355 -5.15286 2.44616 0
M  V30 6630 O 627.289 -4.31599 4.1953 0
M  V30 6631 H 631.115 -1.358 2.71647 0
M  V30 6632 H 628.7 -0.608618 1.36441 0
M  V30 6633 H 630.582 -3.70575 2.0063 0
M  V30 6634 H 629.257 -3.08347 0.985067 0
M  V30 6635 H 628.164 -2.11102 3.08847 0
M  V30 6636 H 629.497 -2.79369 4.05233 0
M  V30 6637 N 631.149 -1.42148 -0.680565 0
M  V30 6638 C 632.097 -1.45401 -1.81552 0
M  V30 6639 C 633.091 -0.33036 -1.66147 0
M  V30 6640 O 634.297 -0.503103 -1.72826 0
M  V30 6641 H 630.672 -0.455265 -0.59853 0
M  V30 6642 H 632.643 -2.41024 -1.75926 0
M  V30 6643 C 631.392 -1.36769 -3.19671 0
M  V30 6644 H 630.715 -2.22525 -3.32149 0
M  V30 6645 H 632.155 -1.43106 -3.9912 0
M  V30 6646 C 630.614 -0.0817752 -3.36801 0
M  V30 6647 O 631.144 0.867707 -3.92216 0
M  V30 6648 N 629.35 -0.000799811 -2.906 0
M  V30 6649 H 628.897 -0.774231 -2.4569 0
M  V30 6650 H 628.855 0.858961 -3.02439 0
M  V30 6651 N 632.627 0.916307 -1.28225 0
M  V30 6652 C 633.559 2.02303 -1.07732 0
M  V30 6653 C 634.572 1.62773 -0.0298421 0
M  V30 6654 O 635.761 1.76406 -0.272626 0
M  V30 6655 C 632.861 3.33282 -0.614504 0
M  V30 6656 C 632.034 4.01439 -1.73682 0
M  V30 6657 C 631.093 5.10698 -1.26781 0
M  V30 6658 O 630.119 5.34038 -1.96958 0
M  V30 6659 N 631.321 5.80355 -0.129624 0
M  V30 6660 H 634.086 2.20442 -2.03041 0
M  V30 6661 H 631.647 1.08744 -1.19943 0
M  V30 6662 H 633.639 4.03699 -0.284397 0
M  V30 6663 H 632.209 3.11633 0.245664 0
M  V30 6664 H 631.429 3.24604 -2.23665 0
M  V30 6665 H 632.717 4.43721 -2.48976 0
M  V30 6666 H 632.115 5.6386 0.455847 0
M  V30 6667 H 630.672 6.51647 0.141224 0
M  V30 6668 N 634.105 1.10431 1.1244 0
M  V30 6669 C 635.035 0.775143 2.20258 0
M  V30 6670 C 636.016 -0.25186 1.68225 0
M  V30 6671 O 637.201 -0.117637 1.93843 0
M  V30 6672 C 634.331 0.206133 3.46688 0
M  V30 6673 C 633.285 1.16382 4.11873 0
M  V30 6674 C 632.611 0.456014 5.32752 0
M  V30 6675 C 633.911 2.5104 4.58013 0
M  V30 6676 H 635.605 1.67665 2.4805 0
M  V30 6677 H 633.151 0.807595 1.19222 0
M  V30 6678 H 635.104 -0.036291 4.21384 0
M  V30 6679 H 633.828 -0.730614 3.18323 0
M  V30 6680 H 632.487 1.39169 3.39157 0
M  V30 6681 H 632.135 -0.485203 5.00654 0
M  V30 6682 H 631.835 1.09466 5.77314 0
M  V30 6683 H 633.359 0.222135 6.10196 0
M  V30 6684 H 634.773 2.32401 5.24083 0
M  V30 6685 H 633.17 3.10789 5.13352 0
M  V30 6686 H 634.24 3.11039 3.71998 0
M  V30 6687 N 635.583 -1.29855 0.893053 0
M  V30 6688 C 636.808 -2.00512 0.530066 0
M  V30 6689 C 637.233 -1.66446 -0.876199 0
M  V30 6690 O 636.591 -0.885446 -1.58207 0
M  V30 6691 C 636.639 -3.53308 0.721505 0
M  V30 6692 O 635.743 -4.11764 -0.228994 0
M  V30 6693 H 635.084 -0.630617 0.207891 0
M  V30 6694 H 637.614 -1.6551 1.20282 0
M  V30 6695 H 637.624 -4.03206 0.623599 0
M  V30 6696 H 636.299 -3.77439 1.74678 0
M  V30 6697 H 634.876 -3.72805 -0.0841034 0
M  V30 6698 N 637.061 -0.65484 -1.43351 0
M  V30 6699 C 637.993 0.0744757 -2.29079 0
M  V30 6700 C 639.006 0.7855 -1.42596 0
M  V30 6701 O 640.195 0.642986 -1.66517 0
M  V30 6702 C 637.295 1.12859 -3.19556 0
M  V30 6703 C 636.468 0.495381 -4.34586 0
M  V30 6704 C 635.527 1.44659 -5.05925 0
M  V30 6705 O 634.553 0.954567 -5.61139 0
M  V30 6706 N 635.755 2.78051 -5.09576 0
M  V30 6707 H 638.52 -0.661346 -2.92312 0
M  V30 6708 H 636.081 -0.497744 -1.54059 0
M  V30 6709 H 638.073 1.76577 -3.64147 0
M  V30 6710 H 636.643 1.76636 -2.57912 0
M  V30 6711 H 635.863 -0.32092 -3.92892 0
M  V30 6712 H 637.151 0.0534203 -5.08772 0
M  V30 6713 H 636.549 3.20584 -4.66093 0
M  V30 6714 H 635.106 3.37068 -5.57878 0
M  V30 6715 N 638.539 1.52521 -0.396863 0
M  V30 6716 C 639.788 2.00857 0.184184 0
M  V30 6717 C 640.101 1.28733 1.47265 0
M  V30 6718 O 641.307 1.67821 2.13421 0
M  V30 6719 C 639.763 3.57901 0.378787 0
M  V30 6720 C 639.371 4.38931 -0.896873 0
M  V30 6721 C 641.115 4.14504 0.915789 0
M  V30 6722 C 639.022 5.87591 -0.670133 0
M  V30 6723 H 637.952 0.750496 0.0726055 0
M  V30 6724 H 640.603 1.75965 -0.520425 0
M  V30 6725 H 638.985 3.79072 1.14543 0
M  V30 6726 H 640.159 4.29524 -1.66872 0
M  V30 6727 H 638.474 3.93586 -1.35938 0
M  V30 6728 H 641.071 5.23236 1.10126 0
M  V30 6729 H 641.414 3.71076 1.88701 0
M  V30 6730 H 641.947 3.97253 0.208523 0
M  V30 6731 H 638.686 6.35355 -1.61257 0
M  V30 6732 H 638.206 5.99767 0.0626368 0
M  V30 6733 H 639.885 6.46268 -0.307577 0
M  V30 6734 N 640.017 0.126909 1.57088 0
M  V30 6735 C 640.947 -0.816847 2.18746 0
M  V30 6736 C 641.928 -1.27161 1.12979 0
M  V30 6737 O 643.113 -1.33279 1.41246 0
M  V30 6738 C 640.243 -2.06398 2.79315 0
M  V30 6739 C 639.197 -1.74673 3.90735 0
M  V30 6740 C 638.523 -3.06482 4.38147 0
M  V30 6741 C 639.823 -1.0089 5.12463 0
M  V30 6742 H 641.517 -0.303032 2.97863 0
M  V30 6743 H 639.063 -0.144314 1.43275 0
M  V30 6744 H 641.016 -2.72885 3.2111 0
M  V30 6745 H 639.74 -2.60118 1.975 0
M  V30 6746 H 638.399 -1.10572 3.49527 0
M  V30 6747 H 638.047 -3.58152 3.5318 0
M  V30 6748 H 637.747 -2.86025 5.13287 0
M  V30 6749 H 639.271 -3.74073 4.82599 0
M  V30 6750 H 640.685 -1.57546 5.51228 0
M  V30 6751 H 639.082 -0.905006 5.93237 0
M  V30 6752 H 640.152 0.00297335 4.849 0
M  V30 6753 N 641.495 -1.56914 -0.146875 0
M  V30 6754 C 642.458 -1.97368 -1.16526 0
M  V30 6755 C 643.458 -0.860223 -1.35856 0
M  V30 6756 O 644.648 -1.12684 -1.32846 0
M  V30 6757 C 641.78 -2.28974 -2.52555 0
M  V30 6758 H 642.973 -2.88523 -0.818209 0
M  V30 6759 H 640.526 -1.5135 -0.390221 0
M  V30 6760 H 641.261 -1.40611 -2.92231 0
M  V30 6761 H 641.046 -3.10157 -2.39886 0
M  V30 6762 H 642.536 -2.61109 -3.25902 0
M  V30 6763 N 642.974 0.416227 -1.52004 0
M  V30 6764 C 644.385 0.995319 -1.57957 0
M  V30 6765 C 644.736 1.91744 -0.415754 0
M  V30 6766 O 643.861 2.11349 0.464808 0
M  V30 6767 C 644.456 1.81191 -2.86278 0
M  V30 6768 C 643.015 2.34115 -2.94732 0
M  V30 6769 C 642.162 1.139 -2.52828 0
M  V30 6770 H 645.113 0.196716 -1.57476 0
M  V30 6771 H 645.134 2.66859 -2.71231 0
M  V30 6772 H 644.646 1.14051 -3.70963 0
M  V30 6773 H 642.747 3.04647 -2.14525 0
M  V30 6774 H 642.86 2.65466 -3.98829 0
M  V30 6775 H 641.224 1.49081 -2.06511 0
M  V30 6776 H 642.007 0.483383 -3.3988 0
M  V30 6777 N 644.452 1.42507 0.673017 0
M  V30 6778 C 645.4 1.46362 1.80779 0
M  V30 6779 C 646.394 0.339166 1.6597 0
M  V30 6780 O 647.6 0.512262 1.72557 0
M  V30 6781 H 643.975 0.458433 0.596107 0
M  V30 6782 H 645.946 2.41953 1.74646 0
M  V30 6783 C 644.695 1.38462 3.18941 0
M  V30 6784 H 644.018 2.24283 3.30964 0
M  V30 6785 H 645.458 1.45221 3.98355 0
M  V30 6786 C 643.917 0.0996354 3.36753 0
M  V30 6787 O 644.447 -0.846894 3.92671 0
M  V30 6788 N 642.653 0.016211 2.90595 0
M  V30 6789 H 642.2 0.78725 2.45276 0
M  V30 6790 H 642.158 -0.84291 3.0289 0
M  V30 6791 N 645.93 -0.909495 1.28709 0
M  V30 6792 C 646.878 -2.03381 1.12866 0
M  V30 6793 C 647.872 -1.69335 0.0468074 0
M  V30 6794 O 649.078 -1.78819 0.205891 0
M  V30 6795 H 645.453 -0.666452 0.348348 0
M  V30 6796 H 647.424 -2.13885 2.08077 0
M  V30 6797 C 646.173 -3.38092 0.811742 0
M  V30 6798 H 645.496 -3.64786 1.63619 0
M  V30 6799 H 646.936 -4.17477 0.740869 0
M  V30 6800 C 645.395 -3.33395 -0.484679 0
M  V30 6801 O 645.925 -3.72089 -1.5137 0
M  V30 6802 N 644.131 -2.86491 -0.486961 0
M  V30 6803 H 643.678 -2.55199 0.350877 0
M  V30 6804 H 643.636 -2.83731 -1.3544 0
M  V30 6805 N 647.408 -1.11026 -1.11852 0
M  V30 6806 C 648.638 -0.877544 -1.87037 0
M  V30 6807 C 649.046 0.575925 -1.80221 0
M  V30 6808 O 648.389 1.40916 -1.17849 0
M  V30 6809 C 648.451 -1.25529 -3.36872 0
M  V30 6810 C 648.115 -2.71704 -3.67459 0
M  V30 6811 C 649.112 -3.69931 -3.65304 0
M  V30 6812 C 646.797 -3.08243 -3.966 0
M  V30 6813 C 648.791 -5.02717 -3.9186 0
M  V30 6814 C 646.478 -4.41215 -4.22815 0
M  V30 6815 C 647.476 -5.38262 -4.20432 0
M  V30 6816 O 647.164 -6.68839 -4.45992 0
M  V30 6817 H 646.896 -0.314374 -0.598452 0
M  V30 6818 H 649.45 -1.48015 -1.42411 0
M  V30 6819 H 647.68 -0.595808 -3.82082 0
M  V30 6820 H 649.369 -0.999064 -3.93413 0
M  V30 6821 H 650.135 -3.43047 -3.42846 0
M  V30 6822 H 646.014 -2.33326 -3.97593 0
M  V30 6823 H 649.558 -5.78456 -3.89916 0
M  V30 6824 H 645.455 -4.67835 -4.44748 0
M  V30 6825 H 646.223 -6.74563 -4.63581 0
M  V30 6826 N 648.886 1.2938 -0.899927 0
M  V30 6827 C 650.116 1.99402 -0.540601 0
M  V30 6828 C 650.524 1.67534 0.87914 0
M  V30 6829 O 649.867 0.916821 1.59186 0
M  V30 6830 C 649.929 3.53514 -0.653326 0
M  V30 6831 C 649.593 4.08937 -2.04009 0
M  V30 6832 C 650.59 4.23815 -3.01126 0
M  V30 6833 C 648.275 4.43962 -2.34953 0
M  V30 6834 C 650.269 4.72951 -4.27313 0
M  V30 6835 C 647.956 4.92795 -3.61382 0
M  V30 6836 C 648.954 5.07244 -4.57376 0
M  V30 6837 O 648.642 5.55017 -5.8156 0
M  V30 6838 H 648.374 0.64383 -0.206057 0
M  V30 6839 H 650.928 1.65878 -1.21134 0
M  V30 6840 H 649.158 3.86628 0.0744449 0
M  V30 6841 H 650.847 4.04767 -0.303118 0
M  V30 6842 H 651.613 3.97043 -2.78535 0
M  V30 6843 H 647.492 4.31974 -1.60994 0
M  V30 6844 H 651.036 4.84144 -5.02245 0
M  V30 6845 H 646.933 5.19004 -3.83804 0
M  V30 6846 H 647.701 5.73331 -5.84153 0
M  V30 6847 N 650.364 0.662433 1.43002 0
M  V30 6848 C 651.775 0.258315 1.84904 0
M  V30 6849 C 652.126 -1.19703 1.55453 0
M  V30 6850 O 651.251 -1.91484 1.00811 0
M  V30 6851 C 651.846 0.462047 3.35635 0
M  V30 6852 C 650.405 0.112165 3.76233 0
M  V30 6853 C 649.552 0.760479 2.66668 0
M  V30 6854 H 652.503 0.865467 1.33024 0
M  V30 6855 H 652.524 -0.289646 3.79396 0
M  V30 6856 H 652.036 1.52135 3.57039 0
M  V30 6857 H 650.137 -0.944179 3.60439 0
M  V30 6858 H 650.25 0.544058 4.76001 0
M  V30 6859 H 648.614 0.192887 2.53969 0
M  V30 6860 H 649.397 1.82299 2.90898 0
M  V30 6861 N 651.842 -1.52309 0.404946 0
M  V30 6862 C 653.067 -2.06666 -0.1743 0
M  V30 6863 C 653.492 -1.27341 -1.38441 0
M  V30 6864 O 652.85 -0.302539 -1.78758 0
M  V30 6865 C 652.898 -3.57014 -0.507262 0
M  V30 6866 O 652.002 -3.80144 -1.59889 0
M  V30 6867 H 651.343 -0.663807 -0.0160273 0
M  V30 6868 H 653.873 -1.96297 0.576937 0
M  V30 6869 H 653.883 -4.00724 -0.767098 0
M  V30 6870 H 652.558 -4.14184 0.377368 0
M  V30 6871 H 651.135 -3.48316 -1.33155 0
M  V30 6872 N 653.32 -0.135238 -1.57019 0
M  V30 6873 C 654.267 0.808908 -2.1616 0
M  V30 6874 C 655.237 1.25234 -1.09113 0
M  V30 6875 O 656.422 1.32697 -1.37099 0
M  V30 6876 C 653.562 2.04729 -2.77813 0
M  V30 6877 C 652.675 1.65074 -3.99218 0
M  V30 6878 C 651.81 2.84002 -4.48906 0
M  V30 6879 C 650.849 2.40663 -5.62803 0
M  V30 6880 N 649.986 3.5256 -6.07162 0
M  V30 6881 H 654.826 0.297751 -2.96509 0
M  V30 6882 H 652.363 0.135264 -1.46477 0
M  V30 6883 H 654.321 2.7731 -3.11697 0
M  V30 6884 H 652.951 2.53275 -2.00128 0
M  V30 6885 H 652.003 0.823029 -3.7139 0
M  V30 6886 H 653.315 1.29236 -4.81767 0
M  V30 6887 H 652.469 3.64788 -4.84783 0
M  V30 6888 H 651.208 3.23076 -3.65339 0
M  V30 6889 H 650.213 1.58314 -5.26514 0
M  V30 6890 H 651.438 2.02687 -6.48147 0
M  V30 6891 H 649.384 3.91278 -5.26534 0
M  V30 6892 H 649.301 3.20699 -6.84608 0
M  V30 6893 H 650.569 4.33738 -6.47682 0
M  V30 6894 N 654.798 1.5699 0.138552 0
M  V30 6895 C 655.746 1.99858 1.18994 0
M  V30 6896 C 656.74 0.89231 1.43994 0
M  V30 6897 O 657.946 1.0775 1.44187 0
M  V30 6898 H 654.321 0.636325 0.400743 0
M  V30 6899 H 656.292 2.87427 0.801755 0
M  V30 6900 C 655.041 2.40235 2.51361 0
M  V30 6901 H 654.364 3.24917 2.32957 0
M  V30 6902 H 655.804 2.74045 3.23535 0
M  V30 6903 C 654.263 1.25829 3.1252 0
M  V30 6904 O 654.793 0.563604 3.97727 0
M  V30 6905 N 652.999 1.02036 2.72097 0
M  V30 6906 H 652.546 1.58705 2.02905 0
M  V30 6907 H 652.504 0.256796 3.1335 0
M  V30 6908 N 656.276 -0.40816 1.52223 0
M  V30 6909 C 657.206 -1.5042 1.78595 0
M  V30 6910 C 658.187 -1.57723 0.636974 0
M  V30 6911 O 659.372 -1.72982 0.882664 0
M  V30 6912 C 656.502 -2.88232 1.93751 0
M  V30 6913 C 655.456 -2.95779 3.09352 0
M  V30 6914 C 654.782 -4.35855 3.09732 0
M  V30 6915 C 656.082 -2.67175 4.48793 0
M  V30 6916 H 657.776 -1.28601 2.70374 0
M  V30 6917 H 655.322 -0.617221 1.30101 0
M  V30 6918 H 657.275 -3.64895 2.10783 0
M  V30 6919 H 655.999 -3.11347 0.986443 0
M  V30 6920 H 654.658 -2.21561 2.92072 0
M  V30 6921 H 654.306 -4.55981 2.12346 0
M  V30 6922 H 654.006 -4.41829 3.87377 0
M  V30 6923 H 655.53 -5.14451 3.28895 0
M  V30 6924 H 656.944 -3.3356 4.66273 0
M  V30 6925 H 655.341 -2.84523 5.28362 0
M  V30 6926 H 656.411 -1.62609 4.56822 0
M  V30 6927 N 657.755 -1.42862 -0.66545 0
M  V30 6928 C 658.718 -1.46756 -1.76055 0
M  V30 6929 C 659.718 -0.353866 -1.56858 0
M  V30 6930 O 660.908 -0.615099 -1.62979 0
M  V30 6931 C 658.04 -1.30829 -3.14796 0
M  V30 6932 H 659.233 -2.44271 -1.73987 0
M  V30 6933 H 656.786 -1.29447 -0.875965 0
M  V30 6934 H 657.521 -0.342733 -3.22484 0
M  V30 6935 H 657.306 -2.11551 -3.30134 0
M  V30 6936 H 658.796 -1.36458 -3.94676 0
M  V30 6937 N 659.233 0.902656 -1.29189 0
M  V30 6938 C 660.644 1.46809 -1.15343 0
M  V30 6939 C 660.995 1.94568 0.252517 0
M  V30 6940 O 660.12 1.83454 1.14777 0
M  V30 6941 C 660.715 2.66829 -2.08776 0
M  V30 6942 C 659.274 3.19518 -1.98961 0
M  V30 6943 C 658.421 1.92212 -1.99874 0
M  V30 6944 H 661.372 0.714282 -1.41717 0
M  V30 6945 H 661.393 3.42465 -1.65826 0
M  V30 6946 H 660.905 2.32039 -3.11094 0
M  V30 6947 H 659.006 3.59008 -0.99721 0
M  V30 6948 H 659.119 3.84016 -2.86477 0
M  V30 6949 H 657.483 2.0979 -1.44431 0
M  V30 6950 H 658.266 1.59702 -3.03891 0
M  V30 6951 N 660.711 1.11618 1.11262 0
M  V30 6952 C 661.96 0.860934 1.82403 0
M  V30 6953 C 662.273 -0.615303 1.8567 0
M  V30 6954 O 663.479 -0.986861 2.52929 0
M  V30 6955 C 661.935 1.49048 3.27586 0
M  V30 6956 C 661.543 3.00089 3.32642 0
M  V30 6957 C 663.287 1.31515 4.03614 0
M  V30 6958 C 661.194 3.56019 4.72234 0
M  V30 6959 H 660.124 0.318423 0.683464 0
M  V30 6960 H 662.775 1.34165 1.25188 0
M  V30 6961 H 661.157 0.937434 3.84744 0
M  V30 6962 H 662.331 3.61813 2.85356 0
M  V30 6963 H 660.646 3.16919 2.70096 0
M  V30 6964 H 663.243 1.70732 5.0671 0
M  V30 6965 H 663.586 0.257917 4.155 0
M  V30 6966 H 664.119 1.83694 3.52848 0
M  V30 6967 H 660.858 4.61463 4.65545 0
M  V30 6968 H 660.378 2.99066 5.19923 0
M  V30 6969 H 662.057 3.54568 5.41193 0
M  V30 6970 N 662.189 -1.289 0.906776 0
M  V30 6971 C 663.152 -2.25777 0.394656 0
M  V30 6972 C 664.152 -1.53621 -0.475119 0
M  V30 6973 O 665.342 -1.71949 -0.279165 0
M  V30 6974 C 662.474 -3.38113 -0.43499 0
M  V30 6975 H 663.667 -2.72592 1.25033 0
M  V30 6976 H 661.22 -1.40463 0.685547 0
M  V30 6977 H 661.955 -2.96648 -1.31036 0
M  V30 6978 H 661.74 -3.91647 0.188334 0
M  V30 6979 H 663.23 -4.10168 -0.784365 0
M  V30 6980 N 663.667 -0.670007 -1.42649 0
M  V30 6981 C 664.597 -0.00258501 -2.335 0
M  V30 6982 C 665.578 0.794364 -1.50412 0
M  V30 6983 O 666.763 0.75248 -1.79029 0
M  V30 6984 C 663.893 0.952748 -3.33976 0
M  V30 6985 C 662.847 0.264733 -4.2718 0
M  V30 6986 C 662.173 1.33267 -5.17826 0
M  V30 6987 C 663.473 -0.853289 -5.15283 0
M  V30 6988 H 665.167 -0.761326 -2.89559 0
M  V30 6989 H 662.713 -0.367561 -1.3923 0
M  V30 6990 H 664.666 1.4287 -3.96442 0
M  V30 6991 H 663.39 1.74285 -2.7621 0
M  V30 6992 H 662.049 -0.190938 -3.66102 0
M  V30 6993 H 661.697 2.11464 -4.5639 0
M  V30 6994 H 661.397 0.877476 -5.81011 0
M  V30 6995 H 662.921 1.80965 -5.83167 0
M  V30 6996 H 664.335 -0.458763 -5.71462 0
M  V30 6997 H 662.732 -1.23398 -5.87276 0
M  V30 6998 H 663.802 -1.70412 -4.53969 0
M  V30 6999 N 665.145 1.52092 -0.413018 0
M  V30 7000 C 666.093 2.28681 0.425199 0
M  V30 7001 C 667.087 1.3353 1.04241 0
M  V30 7002 O 668.293 1.50973 0.980166 0
M  V30 7003 H 664.668 0.735661 0.155906 0
M  V30 7004 H 666.639 2.97418 -0.241926 0
M  V30 7005 C 665.388 3.1235 1.5275 0
M  V30 7006 H 664.711 3.85439 1.06191 0
M  V30 7007 H 666.151 3.69038 2.08774 0
M  V30 7008 C 664.61 2.26161 2.49706 0
M  V30 7009 O 665.14 1.90452 3.53682 0
M  V30 7010 N 663.346 1.89854 2.20008 0
M  V30 7011 H 662.893 2.19092 1.35486 0
M  V30 7012 H 662.851 1.3248 2.85125 0
M  V30 7013 N 666.623 0.143563 1.56945 0
M  V30 7014 C 667.586 -0.783295 2.154 0
M  V30 7015 C 668.586 -1.17763 1.09492 0
M  V30 7016 O 669.776 -1.09912 1.35148 0
M  V30 7017 C 666.908 -2.06248 2.7143 0
M  V30 7018 H 668.101 -0.274863 2.98638 0
M  V30 7019 H 665.654 -0.105859 1.55941 0
M  V30 7020 H 666.389 -2.61466 1.91849 0
M  V30 7021 H 666.174 -1.78897 3.4891 0
M  V30 7022 H 667.664 -2.72453 3.16479 0
M  V30 7023 N 668.101 -1.57061 -0.130224 0
M  V30 7024 C 669.033 -1.96147 -1.18571 0
M  V30 7025 C 670.046 -0.859347 -1.38272 0
M  V30 7026 O 671.235 -1.13769 -1.37545 0
M  V30 7027 C 668.335 -2.23484 -2.54771 0
M  V30 7028 C 667.508 -3.54786 -2.55824 0
M  V30 7029 C 666.567 -3.70467 -3.73686 0
M  V30 7030 O 665.593 -4.42693 -3.57787 0
M  V30 7031 N 666.795 -3.08389 -4.91809 0
M  V30 7032 H 669.56 -2.87295 -0.853333 0
M  V30 7033 H 667.121 -1.58714 -0.319621 0
M  V30 7034 H 669.113 -2.312 -3.32158 0
M  V30 7035 H 667.683 -1.38518 -2.80235 0
M  V30 7036 H 666.903 -3.5836 -1.64232 0
M  V30 7037 H 668.191 -4.4111 -2.53573 0
M  V30 7038 H 667.589 -2.49656 -5.0763 0
M  V30 7039 H 666.146 -3.21642 -5.66912 0
M  V30 7040 N 669.579 0.400081 -1.52437 0
M  V30 7041 C 670.856 1.15973 -1.57511 0
M  V30 7042 C 671.236 2.0798 -0.361572 0
M  V30 7043 O 670.584 2.19032 0.650929 0
M  V30 7044 C 670.794 1.92912 -2.90837 0
M  V30 7045 C 672.142 2.48662 -3.44169 0
M  V30 7046 O 673.166 2.03081 -2.92637 0
M  V30 7047 O 672.025 3.31894 -4.34176 0
M  V30 7048 H 669.119 0.530023 -0.634827 0
M  V30 7049 H 671.665 0.40613 -1.64769 0
M  V30 7050 H 670.437 1.25564 -3.70607 0
M  V30 7051 H 670.06 2.75257 -2.86913 0
M  V30 7052 N 671.057 1.43213 0.657864 0
M  V30 7053 C 672.334 1.35063 1.41483 0
M  V30 7054 C 672.714 -0.0038314 2.111 0
M  V30 7055 O 672.062 -1.02018 2.04462 0
M  V30 7056 C 672.272 2.53061 2.40335 0
M  V30 7057 C 673.62 2.9594 3.04474 0
M  V30 7058 O 674.644 2.53074 2.50663 0
M  V30 7059 O 673.503 3.70184 4.02027 0
M  V30 7060 H 670.597 0.533517 0.631893 0
M  V30 7061 H 673.143 1.55253 0.685162 0
M  V30 7062 H 671.915 3.43283 1.87809 0
M  V30 7063 H 671.538 2.34945 3.20759 0
M  V30 7064 N 672.536 -0.895792 1.29666 0
M  V30 7065 C 673.783 -1.64664 1.17864 0
M  V30 7066 C 674.111 -1.92631 -0.26902 0
M  V30 7067 O 673.366 -1.53787 -1.21029 0
M  V30 7068 C 673.665 -3.00075 1.94139 0
M  V30 7069 C 673.331 -2.91702 3.43833 0
M  V30 7070 C 671.993 -2.89126 3.84656 0
M  V30 7071 C 674.345 -2.80622 4.39205 0
M  V30 7072 C 671.673 -2.73293 5.1916 0
M  V30 7073 C 674.025 -2.66329 5.73805 0
M  V30 7074 C 672.689 -2.62121 6.1388 0
M  V30 7075 H 671.959 -0.602549 0.431295 0
M  V30 7076 H 674.606 -1.04234 1.60648 0
M  V30 7077 H 672.911 -3.64394 1.43958 0
M  V30 7078 H 674.608 -3.57111 1.82408 0
M  V30 7079 H 671.198 -2.94511 3.11386 0
M  V30 7080 H 675.382 -2.81686 4.08615 0
M  V30 7081 H 670.638 -2.68443 5.49316 0
M  V30 7082 H 674.812 -2.56727 6.47352 0
M  V30 7083 H 672.439 -2.49611 7.18052 0
M  V30 7084 N 674.014 -1.12206 -1.10668 0
M  V30 7085 C 675.239 -0.898938 -1.86906 0
M  V30 7086 C 675.664 0.546346 -1.79991 0
M  V30 7087 O 675.022 1.38655 -1.1681 0
M  V30 7088 C 675.07 -1.37529 -3.33344 0
M  V30 7089 O 674.174 -0.55218 -4.08687 0
M  V30 7090 H 673.515 -0.323163 -0.580053 0
M  V30 7091 H 676.045 -1.49355 -1.39837 0
M  V30 7092 H 676.055 -1.3733 -3.84193 0
M  V30 7093 H 674.73 -2.42767 -3.37693 0
M  V30 7094 H 673.307 -0.620947 -3.67694 0
M  V30 7095 N 675.492 1.28418 -0.913599 0
M  V30 7096 C 676.717 1.99643 -0.561899 0
M  V30 7097 C 677.142 1.67819 0.849608 0
M  V30 7098 O 676.5 0.910503 1.56779 0
M  V30 7099 C 676.548 3.52116 -0.777622 0
M  V30 7100 O 675.652 4.12076 0.163457 0
M  V30 7101 H 674.993 0.627229 -0.217898 0
M  V30 7102 H 677.523 1.63575 -1.229 0
M  V30 7103 H 677.533 4.02163 -0.687666 0
M  V30 7104 H 676.208 3.74613 -1.8066 0
M  V30 7105 H 674.785 3.72892 0.0247827 0
M  V30 7106 N 676.97 0.677563 1.42291 0
M  V30 7107 C 678.198 0.209459 2.05837 0
M  V30 7108 C 678.613 -1.13444 1.50917 0
M  V30 7109 O 677.97 -1.70529 0.65008 0
M  V30 7110 C 678.021 0.138819 3.61233 0
M  V30 7111 O 677.742 1.42962 4.14118 0
M  V30 7112 C 679.243 -0.352449 4.41897 0
M  V30 7113 H 676.463 0.101209 0.663323 0
M  V30 7114 H 679.007 0.925077 1.8238 0
M  V30 7115 H 677.162 -0.527505 3.83792 0
M  V30 7116 H 677.576 1.3048 5.08011 0
M  V30 7117 H 679.05 -0.350778 5.50884 0
M  V30 7118 H 679.527 -1.3882 4.16684 0
M  V30 7119 H 680.133 0.282236 4.24362 0
M  V30 7120 N 678.448 -1.51871 0.421078 0
M  V30 7121 C 679.859 -1.86644 -0.0457991 0
M  V30 7122 C 680.21 -1.33919 -1.43388 0
M  V30 7123 O 679.335 -0.683316 -2.05328 0
M  V30 7124 C 679.93 -3.38681 -0.0898844 0
M  V30 7125 C 678.489 -3.73049 -0.501127 0
M  V30 7126 C 677.636 -2.75485 0.316723 0
M  V30 7127 H 680.587 -1.45327 0.637635 0
M  V30 7128 H 680.608 -3.69636 -0.902734 0
M  V30 7129 H 680.12 -3.77025 0.920513 0
M  V30 7130 H 678.221 -3.40288 -1.51773 0
M  V30 7131 H 678.334 -4.78512 -0.237217 0
M  V30 7132 H 676.698 -2.53725 -0.222663 0
M  V30 7133 H 677.481 -3.16671 1.32569 0
M  V30 7134 N 679.926 -0.151884 -1.56866 0
M  V30 7135 C 681.175 0.497992 -1.95456 0
M  V30 7136 C 681.488 1.6569 -1.03953 0
M  V30 7137 O 682.694 2.37173 -1.32142 0
M  V30 7138 C 681.15 0.93732 -3.4748 0
M  V30 7139 C 680.758 -0.194921 -4.47576 0
M  V30 7140 C 682.502 1.55671 -3.94926 0
M  V30 7141 C 680.409 0.26295 -5.90815 0
M  V30 7142 H 679.339 0.189811 -0.729717 0
M  V30 7143 H 681.99 -0.237011 -1.81963 0
M  V30 7144 H 680.372 1.72773 -3.56322 0
M  V30 7145 H 681.546 -0.971951 -4.50433 0
M  V30 7146 H 679.861 -0.72303 -4.10075 0
M  V30 7147 H 682.458 1.91099 -4.99385 0
M  V30 7148 H 682.801 2.44748 -3.36755 0
M  V30 7149 H 683.334 0.831109 -3.89021 0
M  V30 7150 H 680.073 -0.592568 -6.52816 0
M  V30 7151 H 679.593 1.00575 -5.91308 0
M  V30 7152 H 681.272 0.713333 -6.43056 0
M  V30 7153 N 681.404 1.57128 0.121893 0
M  V30 7154 C 682.632 1.88883 0.844451 0
M  V30 7155 C 683.047 0.742824 1.73573 0
M  V30 7156 O 682.404 -0.286475 1.80238 0
M  V30 7157 C 682.455 3.20076 1.68029 0
M  V30 7158 O 682.176 4.30264 0.824898 0
M  V30 7159 C 683.677 3.65515 2.50826 0
M  V30 7160 H 680.897 0.62549 0.242907 0
M  V30 7161 H 683.441 2.04219 0.107151 0
M  V30 7162 H 681.596 3.06418 2.37038 0
M  V30 7163 H 682.01 5.05439 1.40113 0
M  V30 7164 H 683.484 4.60081 3.05008 0
M  V30 7165 H 683.961 2.92029 3.28048 0
M  V30 7166 H 684.567 3.81952 1.87064 0
M  V30 7167 N 682.882 -0.391992 1.52647 0
M  V30 7168 C 683.815 -1.50019 1.71958 0
M  V30 7169 C 684.793 -1.5238 0.567365 0
M  V30 7170 O 685.977 -1.70831 0.796806 0
M  V30 7171 C 683.104 -2.88496 1.77447 0
M  V30 7172 C 682.15 -3.03974 2.99169 0
M  V30 7173 S 682.983 -2.75487 4.59203 0
M  V30 7174 C 684.139 -4.16163 4.67503 0
M  V30 7175 H 684.372 -1.33413 2.65685 0
M  V30 7176 H 681.905 -0.584674 1.42902 0
M  V30 7177 H 683.863 -3.68296 1.81296 0
M  V30 7178 H 682.524 -3.02431 0.848188 0
M  V30 7179 H 681.717 -4.05328 2.99542 0
M  V30 7180 H 681.319 -2.32062 2.93297 0
M  V30 7181 H 683.611 -5.10048 4.45934 0
M  V30 7182 H 684.554 -4.20806 5.69498 0
M  V30 7183 H 684.962 -4.01933 3.96371 0
M  V30 7184 N 684.36 -1.4356 -0.65026 0
M  V30 7185 C 685.308 -1.49219 -1.78427 0
M  V30 7186 C 686.302 -0.365528 -1.65409 0
M  V30 7187 O 687.508 -0.539649 -1.7172 0
M  V30 7188 H 683.883 -0.467858 -0.588738 0
M  V30 7189 H 685.854 -2.44701 -1.70774 0
M  V30 7190 C 684.603 -1.43519 -3.16698 0
M  V30 7191 H 683.926 -2.2952 -3.27354 0
M  V30 7192 H 685.366 -1.5154 -3.95995 0
M  V30 7193 C 683.825 -0.153197 -3.36552 0
M  V30 7194 O 684.355 0.784317 -3.93969 0
M  V30 7195 N 682.561 -0.0624402 -2.90533 0
M  V30 7196 H 682.108 -0.826172 -2.43992 0
M  V30 7197 H 682.066 0.794616 -3.04193 0
M  V30 7198 N 685.838 0.888903 -1.30139 0
M  V30 7199 C 687.068 1.67115 -1.21474 0
M  V30 7200 C 687.476 1.87852 0.225472 0
M  V30 7201 O 686.819 1.42324 1.16145 0
M  V30 7202 C 686.881 3.0713 -1.86846 0
M  V30 7203 C 686.545 3.09582 -3.36167 0
M  V30 7204 C 687.542 2.88929 -4.32222 0
M  V30 7205 C 685.227 3.31304 -3.77549 0
M  V30 7206 C 687.221 2.89949 -5.67634 0
M  V30 7207 C 684.908 3.31954 -5.13079 0
M  V30 7208 C 685.906 3.113 -6.07932 0
M  V30 7209 O 685.594 3.11758 -7.40987 0
M  V30 7210 H 685.326 0.528372 -0.421662 0
M  V30 7211 H 687.88 1.11919 -1.7223 0
M  V30 7212 H 686.11 3.63973 -1.30615 0
M  V30 7213 H 687.799 3.6749 -1.72354 0
M  V30 7214 H 688.565 2.71948 -4.01584 0
M  V30 7215 H 684.444 3.46417 -3.04165 0
M  V30 7216 H 687.988 2.73746 -6.41645 0
M  V30 7217 H 683.885 3.48469 -5.43359 0
M  V30 7218 H 684.653 3.27951 -7.49927 0
M  V30 7219 N 687.317 1.12792 1.10072 0
M  V30 7220 C 688.265 0.794523 2.18609 0
M  V30 7221 C 689.259 -0.220271 1.67962 0
M  V30 7222 O 690.465 -0.0780938 1.79831 0
M  V30 7223 H 686.84 0.239123 0.712969 0
M  V30 7224 H 688.811 1.71823 2.43966 0
M  V30 7225 C 687.56 0.269548 3.46654 0
M  V30 7226 H 686.883 1.04171 3.8599 0
M  V30 7227 H 688.323 0.0746242 4.23934 0
M  V30 7228 C 686.782 -1.00333 3.21613 0
M  V30 7229 O 687.312 -2.08042 3.4363 0
M  V30 7230 N 685.518 -0.931763 2.75257 0
M  V30 7231 H 685.065 -0.0551197 2.57541 0
M  V30 7232 H 685.023 -1.78405 2.58881 0
M  V30 7233 N 688.795 -1.27931 0.920396 0
M  V30 7234 C 689.727 -2.26175 0.371169 0
M  V30 7235 C 690.74 -1.55122 -0.494065 0
M  V30 7236 O 691.929 -1.75825 -0.30787 0
M  V30 7237 C 689.029 -3.35376 -0.487481 0
M  V30 7238 C 688.202 -4.35943 0.356772 0
M  V30 7239 C 687.261 -5.24374 -0.438042 0
M  V30 7240 O 686.287 -5.68998 0.151715 0
M  V30 7241 N 687.489 -5.53823 -1.73956 0
M  V30 7242 H 690.254 -2.73938 1.21564 0
M  V30 7243 H 687.815 -1.41482 0.787047 0
M  V30 7244 H 689.807 -3.91476 -1.02609 0
M  V30 7245 H 688.377 -2.87269 -1.23269 0
M  V30 7246 H 687.597 -3.7921 1.07672 0
M  V30 7247 H 688.885 -5.0015 0.934206 0
M  V30 7248 H 688.283 -5.19413 -2.24114 0
M  V30 7249 H 686.84 -6.12653 -2.22486 0
M  V30 7250 N 690.273 -0.685099 -1.4193 0
M  V30 7251 C 691.52 -0.211658 -2.01391 0
M  V30 7252 C 691.848 1.18526 -1.54214 0
M  V30 7253 O 691.103 1.81189 -0.739519 0
M  V30 7254 C 691.402 -0.206154 -3.56805 0
M  V30 7255 C 691.068 -1.54915 -4.23453 0
M  V30 7256 C 689.73 -1.91684 -4.41373 0
M  V30 7257 C 692.082 -2.43317 -4.60919 0
M  V30 7258 C 689.41 -3.16461 -4.94034 0
M  V30 7259 C 691.762 -3.67415 -5.14965 0
M  V30 7260 C 690.426 -4.04341 -5.31098 0
M  V30 7261 H 689.696 -0.0774511 -0.736941 0
M  V30 7262 H 692.343 -0.882121 -1.69973 0
M  V30 7263 H 690.648 0.547841 -3.87951 0
M  V30 7264 H 692.345 0.17753 -4.00607 0
M  V30 7265 H 688.935 -1.25314 -4.09871 0
M  V30 7266 H 693.119 -2.16192 -4.46738 0
M  V30 7267 H 688.375 -3.45078 -5.04709 0
M  V30 7268 H 692.549 -4.3611 -5.42938 0
M  V30 7269 H 690.176 -5.01101 -5.71666 0
M  V30 7270 N 691.751 1.51645 -0.429126 0
M  V30 7271 C 692.681 2.30434 0.377148 0
M  V30 7272 C 693.662 1.35493 1.02838 0
M  V30 7273 O 694.847 1.6441 1.03359 0
M  V30 7274 C 691.977 3.14038 1.48315 0
M  V30 7275 C 690.931 4.1719 0.955855 0
M  V30 7276 C 690.257 4.89263 2.15698 0
M  V30 7277 C 691.557 5.223 -0.00402136 0
M  V30 7278 H 693.251 2.98085 -0.280336 0
M  V30 7279 H 690.797 1.43354 -0.136265 0
M  V30 7280 H 692.75 3.67933 2.05435 0
M  V30 7281 H 691.474 2.44193 2.16881 0
M  V30 7282 H 690.133 3.64335 0.406929 0
M  V30 7283 H 689.781 4.15929 2.82864 0
M  V30 7284 H 689.481 5.59009 1.81059 0
M  V30 7285 H 691.005 5.45978 2.73387 0
M  V30 7286 H 692.419 5.71315 0.476607 0
M  V30 7287 H 690.816 5.99525 -0.26258 0
M  V30 7288 H 691.886 4.75638 -0.943236 0
M  V30 7289 N 693.229 0.160201 1.56784 0
M  V30 7290 C 694.139 -0.787167 2.21 0
M  V30 7291 C 695.155 -1.26167 1.19825 0
M  V30 7292 O 696.331 -1.31611 1.52448 0
M  V30 7293 C 693.396 -2.00364 2.8294 0
M  V30 7294 C 692.457 -1.5771 3.99282 0
M  V30 7295 C 691.69 -2.73558 4.58259 0
M  V30 7296 O 691.913 -3.90129 4.16119 0
M  V30 7297 O 690.847 -2.48271 5.48311 0
M  V30 7298 H 694.673 -0.270462 3.02493 0
M  V30 7299 H 692.258 -0.0674666 1.49248 0
M  V30 7300 H 694.14 -2.71529 3.22257 0
M  V30 7301 H 692.815 -2.50961 2.04451 0
M  V30 7302 H 691.722 -0.835274 3.64656 0
M  V30 7303 H 693.055 -1.11815 4.79331 0
M  V30 7304 N 694.707 -1.5719 -0.113559 0
M  V30 7305 C 695.637 -2.03772 -1.14013 0
M  V30 7306 C 696.618 -0.923176 -1.42869 0
M  V30 7307 O 697.803 -1.19325 -1.53216 0
M  V30 7308 C 694.933 -2.44663 -2.4649 0
M  V30 7309 C 693.887 -3.59612 -2.32085 0
M  V30 7310 C 693.213 -3.8642 -3.69573 0
M  V30 7311 C 694.513 -4.91149 -1.7768 0
M  V30 7312 H 696.207 -2.89785 -0.752665 0
M  V30 7313 H 693.753 -1.39412 -0.360609 0
M  V30 7314 H 695.706 -2.75857 -3.18561 0
M  V30 7315 H 694.43 -1.55628 -2.87137 0
M  V30 7316 H 693.089 -3.28636 -1.62461 0
M  V30 7317 H 692.737 -2.94581 -4.07715 0
M  V30 7318 H 692.437 -4.63797 -3.60786 0
M  V30 7319 H 693.961 -4.2007 -4.4314 0
M  V30 7320 H 695.375 -5.20843 -2.39574 0
M  V30 7321 H 693.772 -5.72562 -1.79701 0
M  V30 7322 H 694.842 -4.79301 -0.734776 0
M  V30 7323 N 696.185 0.383891 -1.52853 0
M  V30 7324 C 697.095 1.49343 -1.80925 0
M  V30 7325 C 698.111 1.59458 -0.696348 0
M  V30 7326 O 699.287 1.75698 -0.984481 0
M  V30 7327 C 696.352 2.84819 -1.97684 0
M  V30 7328 C 695.413 2.84382 -3.21598 0
M  V30 7329 C 694.646 4.13397 -3.37548 0
M  V30 7330 O 694.869 5.08619 -2.58192 0
M  V30 7331 O 693.803 4.20325 -4.30826 0
M  V30 7332 H 697.629 1.2855 -2.75152 0
M  V30 7333 H 695.214 0.572229 -1.38007 0
M  V30 7334 H 697.096 3.65125 -2.10385 0
M  V30 7335 H 695.771 3.05627 -1.06647 0
M  V30 7336 H 694.678 2.0284 -3.14336 0
M  V30 7337 H 696.011 2.68526 -4.12498 0
M  V30 7338 N 697.663 1.43903 0.642637 0
M  V30 7339 C 698.61 1.49881 1.75512 0
M  V30 7340 C 699.58 0.347538 1.62423 0
M  V30 7341 O 700.765 0.556177 1.82514 0
M  V30 7342 C 697.905 1.43797 3.13714 0
M  V30 7343 C 697.018 2.6921 3.37861 0
M  V30 7344 C 696.153 2.5504 4.6597 0
M  V30 7345 C 695.192 3.75671 4.83257 0
M  V30 7346 N 694.329 3.60247 6.02633 0
M  V30 7347 H 699.169 2.44935 1.69737 0
M  V30 7348 H 696.706 1.21572 0.828165 0
M  V30 7349 H 698.664 1.38262 3.93624 0
M  V30 7350 H 697.294 0.523173 3.18532 0
M  V30 7351 H 696.346 2.8498 2.51973 0
M  V30 7352 H 697.658 3.58786 3.46517 0
M  V30 7353 H 696.812 2.47273 5.54023 0
M  V30 7354 H 695.551 1.63006 4.59653 0
M  V30 7355 H 694.556 3.83836 3.93637 0
M  V30 7356 H 695.781 4.68728 4.91397 0
M  V30 7357 H 693.727 2.70955 5.97427 0
M  V30 7358 H 693.644 4.43431 6.12295 0
M  V30 7359 H 694.912 3.56351 6.93278 0
M  V30 7360 N 699.141 -0.881989 1.30609 0
M  V30 7361 C 700.369 -1.66711 1.22536 0
M  V30 7362 C 700.784 -1.87614 -0.2113 0
M  V30 7363 O 700.141 -1.42576 -1.13923 0
M  V30 7364 C 700.192 -3.04182 1.95335 0
M  V30 7365 O 699.913 -2.8422 3.33393 0
M  V30 7366 C 701.414 -3.98617 1.93956 0
M  V30 7367 H 698.634 -0.520124 0.423925 0
M  V30 7368 H 701.178 -1.10174 1.72285 0
M  V30 7369 H 699.333 -3.57442 1.49378 0
M  V30 7370 H 699.747 -3.71452 3.70302 0
M  V30 7371 H 701.221 -4.92433 2.49426 0
M  V30 7372 H 701.698 -4.29473 0.919198 0
M  V30 7373 H 702.304 -3.51292 2.39738 0
M  V30 7374 N 700.619 -1.13374 -1.09472 0
M  V30 7375 C 701.566 -0.810682 -2.16094 0
M  V30 7376 C 702.536 0.227003 -1.64541 0
M  V30 7377 O 703.721 0.0993538 -1.90541 0
M  V30 7378 C 700.861 -0.282336 -3.43943 0
M  V30 7379 C 699.974 -1.37902 -4.09398 0
M  V30 7380 C 699.109 -0.809066 -5.25002 0
M  V30 7381 C 698.148 -1.88419 -5.82379 0
M  V30 7382 N 697.285 -1.33221 -6.89345 0
M  V30 7383 H 702.125 -1.72397 -2.43071 0
M  V30 7384 H 699.662 -0.860564 -1.19301 0
M  V30 7385 H 701.62 0.0421189 -4.17179 0
M  V30 7386 H 700.25 0.594083 -3.17286 0
M  V30 7387 H 699.302 -1.82008 -3.34032 0
M  V30 7388 H 700.614 -2.19161 -4.48074 0
M  V30 7389 H 699.768 -0.435867 -6.05132 0
M  V30 7390 H 698.507 0.0346058 -4.87688 0
M  V30 7391 H 697.512 -2.26646 -5.00911 0
M  V30 7392 H 698.737 -2.73125 -6.21755 0
M  V30 7393 H 696.683 -0.510535 -6.5401 0
M  V30 7394 H 696.6 -2.08129 -7.26786 0
M  V30 7395 H 697.868 -0.986565 -7.73232 0
M  V30 7396 N 702.098 1.27442 -0.927168 0
M  V30 7397 C 703.03 2.25975 -0.383158 0
M  V30 7398 C 704.043 1.55382 0.485832 0
M  V30 7399 O 705.232 1.75986 0.298541 0
M  V30 7400 C 702.332 3.35629 0.469688 0
M  V30 7401 C 701.505 4.35747 -0.379886 0
M  V30 7402 C 700.564 5.24598 0.410227 0
M  V30 7403 O 699.59 5.68909 -0.181888 0
M  V30 7404 N 700.792 5.54737 1.71017 0
M  V30 7405 H 703.557 2.7329 -1.23015 0
M  V30 7406 H 701.118 1.41063 -0.794539 0
M  V30 7407 H 703.11 3.92015 1.00532 0
M  V30 7408 H 701.68 2.87919 1.21744 0
M  V30 7409 H 700.9 3.78634 -1.09682 0
M  V30 7410 H 702.188 4.99648 -0.960717 0
M  V30 7411 H 701.586 5.20594 2.21356 0
M  V30 7412 H 700.143 6.13824 2.19234 0
M  V30 7413 N 703.576 0.692616 1.41565 0
M  V30 7414 C 704.506 0.0397325 2.33466 0
M  V30 7415 C 705.487 -0.770334 1.51657 0
M  V30 7416 O 706.672 -0.723903 1.80203 0
M  V30 7417 C 703.802 -0.899495 3.3545 0
M  V30 7418 C 702.756 -0.196738 4.27548 0
M  V30 7419 C 702.082 -1.25012 5.19881 0
M  V30 7420 C 703.382 0.935158 5.1386 0
M  V30 7421 H 705.076 0.807296 2.88311 0
M  V30 7422 H 702.622 0.389665 1.38628 0
M  V30 7423 H 704.575 -1.36545 3.98665 0
M  V30 7424 H 703.299 -1.69869 2.78948 0
M  V30 7425 H 701.958 0.249158 3.65752 0
M  V30 7426 H 701.606 -2.04177 4.59696 0
M  V30 7427 H 701.306 -0.784931 5.82334 0
M  V30 7428 H 702.83 -1.71665 5.85972 0
M  V30 7429 H 704.244 0.549619 5.70659 0
M  V30 7430 H 702.641 1.32726 5.85238 0
M  V30 7431 H 703.711 1.77613 4.512 0
M  V30 7432 N 705.054 -1.51416 0.437162 0
M  V30 7433 C 706.47 -1.59349 0.0894459 0
M  V30 7434 C 706.67 -1.44809 -1.40116 0
M  V30 7435 O 705.726 -1.28924 -2.17106 0
M  V30 7436 C 707.039 -2.9446 0.609398 0
M  V30 7437 C 708.587 -3.07769 0.569824 0
M  V30 7438 C 709.062 -4.45404 1.06675 0
M  V30 7439 N 710.553 -4.51723 1.02473 0
M  V30 7440 C 711.288 -5.56544 1.3801 0
M  V30 7441 N 710.784 -6.68784 1.80831 0
M  V30 7442 N 712.577 -5.46901 1.29828 0
M  V30 7443 H 704.728 -1.59112 1.40703 0
M  V30 7444 H 706.991 -0.750031 0.579791 0
M  V30 7445 H 706.697 -3.1047 1.65231 0
M  V30 7446 H 706.571 -3.77184 0.0342236 0
M  V30 7447 H 708.958 -2.91428 -0.464107 0
M  V30 7448 H 709.039 -2.26885 1.1814 0
M  V30 7449 H 708.683 -4.62492 2.09914 0
M  V30 7450 H 708.613 -5.24827 0.431712 0
M  V30 7451 H 711.104 -3.71165 0.710258 0
M  V30 7452 H 711.417 -7.44787 2.06185 0
M  V30 7453 H 709.762 -6.69992 1.84757 0
M  V30 7454 H 712.953 -4.581 0.962397 0
M  V30 7455 H 713.126 -6.2848 1.57851 0
M  V30 7456 N 706.532 -0.168513 -1.56696 0
M  V30 7457 C 707.462 0.758563 -2.20835 0
M  V30 7458 C 708.443 1.24121 -1.1631 0
M  V30 7459 O 709.628 1.29487 -1.4473 0
M  V30 7460 C 706.758 1.9892 -2.8469 0
M  V30 7461 C 705.712 1.64252 -3.95228 0
M  V30 7462 C 705.038 2.94757 -4.46119 0
M  V30 7463 C 706.338 0.872675 -5.14958 0
M  V30 7464 H 708.032 0.223953 -2.98561 0
M  V30 7465 H 705.578 0.106277 -1.43607 0
M  V30 7466 H 707.531 2.64275 -3.28233 0
M  V30 7467 H 706.255 2.5479 -2.04327 0
M  V30 7468 H 704.914 1.01266 -3.52336 0
M  V30 7469 H 704.562 3.48662 -3.62552 0
M  V30 7470 H 704.262 2.72316 -5.2069 0
M  V30 7471 H 705.786 3.61147 -4.92347 0
M  V30 7472 H 707.2 1.42875 -5.55211 0
M  V30 7473 H 705.597 0.747402 -5.95428 0
M  V30 7474 H 706.667 -0.131535 -4.84722 0
M  V30 7475 N 708.01 1.57248 0.105221 0
M  V30 7476 C 709.287 1.76566 0.841647 0
M  V30 7477 C 709.667 0.747566 1.9742 0
M  V30 7478 O 709.015 -0.225886 2.27381 0
M  V30 7479 C 709.225 3.22016 1.3456 0
M  V30 7480 C 710.573 3.84911 1.79244 0
M  V30 7481 O 711.597 3.25703 1.44207 0
M  V30 7482 O 710.456 4.89008 2.43995 0
M  V30 7483 H 707.55 0.723443 0.400698 0
M  V30 7484 H 710.096 1.69472 0.0878893 0
M  V30 7485 H 708.868 3.87644 0.533685 0
M  V30 7486 H 708.491 3.33703 2.16167 0
M  V30 7487 N 709.488 -0.375779 1.53054 0
M  V30 7488 C 710.716 -1.14036 1.72637 0
M  V30 7489 C 711.131 -1.83342 0.450687 0
M  V30 7490 O 710.488 -1.7318 -0.575749 0
M  V30 7491 C 710.539 -2.17841 2.88492 0
M  V30 7492 O 710.26 -1.51358 4.11123 0
M  V30 7493 C 711.761 -3.06924 3.19863 0
M  V30 7494 H 708.981 -0.341386 0.577665 0
M  V30 7495 H 711.525 -0.437809 1.99759 0
M  V30 7496 H 709.68 -2.8371 2.63794 0
M  V30 7497 H 710.094 -2.20439 4.75928 0
M  V30 7498 H 711.568 -3.75763 4.04359 0
M  V30 7499 H 712.045 -3.71169 2.34798 0
M  V30 7500 H 712.651 -2.46684 3.46449 0
M  V30 7501 N 710.966 -1.44241 -0.634997 0
M  V30 7502 C 712.243 -1.37296 -1.39317 0
M  V30 7503 C 712.623 -0.0297532 -2.11079 0
M  V30 7504 O 711.971 0.987524 -2.06059 0
M  V30 7505 C 712.181 -2.56853 -2.36279 0
M  V30 7506 C 713.529 -3.00747 -2.99728 0
M  V30 7507 O 714.553 -2.5703 -2.46605 0
M  V30 7508 O 713.412 -3.76533 -3.96087 0
M  V30 7509 H 710.506 -0.543503 -0.623325 0
M  V30 7510 H 713.052 -1.56324 -0.660376 0
M  V30 7511 H 711.824 -3.46228 -1.82324 0
M  V30 7512 H 711.447 -2.40019 -3.16981 0
M  V30 7513 N 712.444 0.87505 -1.31075 0
M  V30 7514 C 713.376 1.98773 -1.14114 0
M  V30 7515 C 714.389 1.62595 -0.0816119 0
M  V30 7516 O 715.578 1.75449 -0.32861 0
M  V30 7517 C 712.678 3.31159 -0.720224 0
M  V30 7518 C 711.851 3.9571 -1.86366 0
M  V30 7519 C 710.91 5.06407 -1.42965 0
M  V30 7520 O 709.936 5.27501 -2.13848 0
M  V30 7521 N 711.138 5.79649 -0.314194 0
M  V30 7522 H 713.903 2.1387 -2.09951 0
M  V30 7523 H 711.464 1.04873 -1.23342 0
M  V30 7524 H 713.456 4.0259 -0.412687 0
M  V30 7525 H 712.026 3.12257 0.146396 0
M  V30 7526 H 711.246 3.17324 -2.33879 0
M  V30 7527 H 712.534 4.35576 -2.62966 0
M  V30 7528 H 711.932 5.65025 0.276228 0
M  V30 7529 H 710.489 6.51766 -0.0661641 0
M  V30 7530 N 713.922 1.13953 1.08869 0
M  V30 7531 C 715.168 0.906151 1.8143 0
M  V30 7532 C 715.501 -0.566089 1.85766 0
M  V30 7533 O 714.776 -1.41915 1.33006 0
M  V30 7534 C 715.059 1.50183 3.27287 0
M  V30 7535 C 714.912 3.04359 3.31189 0
M  V30 7536 C 716.231 1.17477 4.24131 0
M  V30 7537 H 713.35 0.330624 0.658678 0
M  V30 7538 H 715.992 1.40873 1.27495 0
M  V30 7539 H 714.142 1.07442 3.73348 0
M  V30 7540 H 715.814 3.55896 2.93488 0
M  V30 7541 H 714.057 3.39053 2.70602 0
M  V30 7542 H 714.728 3.41141 4.33966 0
M  V30 7543 H 717.204 1.5442 3.86385 0
M  V30 7544 H 716.08 1.61795 5.24513 0
M  V30 7545 H 716.341 0.0893312 4.4201 0
M  V30 7546 N 715.4 -1.26948 0.933913 0
M  V30 7547 C 716.63 -1.97898 0.593279 0
M  V30 7548 C 717.038 -1.69806 -0.834412 0
M  V30 7549 O 716.381 -0.958704 -1.56699 0
M  V30 7550 C 716.443 -3.51657 0.746825 0
M  V30 7551 C 716.107 -4.03384 2.14779 0
M  V30 7552 C 717.104 -4.15682 3.12257 0
M  V30 7553 C 714.789 -4.37577 2.46641 0
M  V30 7554 C 716.783 -4.61455 4.39702 0
M  V30 7555 C 714.47 -4.8304 3.7432 0
M  V30 7556 C 715.468 -4.94939 4.70664 0
M  V30 7557 O 715.156 -5.39403 5.96071 0
M  V30 7558 H 714.888 -0.63814 0.223055 0
M  V30 7559 H 717.442 -1.62608 1.2549 0
M  V30 7560 H 715.672 -3.8669 0.0280889 0
M  V30 7561 H 717.361 -4.03821 0.410328 0
M  V30 7562 H 718.127 -3.89519 2.88964 0
M  V30 7563 H 714.006 -4.27554 1.72391 0
M  V30 7564 H 717.55 -4.70658 5.14905 0
M  V30 7565 H 713.447 -5.08646 3.97429 0
M  V30 7566 H 714.215 -5.57641 5.99148 0
M  V30 7567 N 716.879 -0.700114 -1.41195 0
M  V30 7568 C 718.127 -0.232546 -2.00758 0
M  V30 7569 C 718.448 1.1734 -1.55745 0
M  V30 7570 O 717.718 1.79262 -0.790058 0
M  V30 7571 H 716.298 -0.0829845 -0.742376 0
M  V30 7572 H 718.96 -0.902289 -1.72756 0
M  V30 7573 H 718.056 -0.253521 -3.11069 0
M  V30 7574 N 718.357 1.51182 -0.445186 0
M  V30 7575 C 719.305 2.29531 0.376597 0
M  V30 7576 C 720.299 1.35711 1.01385 0
M  V30 7577 O 721.505 1.53018 0.947922 0
M  V30 7578 H 717.88 0.738803 0.140267 0
M  V30 7579 H 719.851 2.96838 -0.304958 0
M  V30 7580 C 718.6 3.1552 1.4609 0
M  V30 7581 H 717.923 3.87605 0.979912 0
M  V30 7582 H 719.363 3.73384 2.009 0
M  V30 7583 C 717.822 2.31406 2.44852 0
M  V30 7584 O 718.352 1.97912 3.49562 0
M  V30 7585 N 716.558 1.94478 2.15932 0
M  V30 7586 H 716.105 2.21917 1.30808 0
M  V30 7587 H 716.063 1.38498 2.82251 0
M  V30 7588 N 719.835 0.176821 1.56605 0
M  V30 7589 C 721.084 -0.466833 1.96223 0
M  V30 7590 C 721.397 -1.64015 1.06576 0
M  V30 7591 O 722.603 -2.3504 1.35898 0
M  V30 7592 C 721.059 -0.881921 3.48927 0
M  V30 7593 C 720.667 0.266102 4.47209 0
M  V30 7594 C 722.411 -1.49368 3.97353 0
M  V30 7595 C 720.318 -0.168923 5.91159 0
M  V30 7596 H 719.248 -0.178178 0.732645 0
M  V30 7597 H 721.899 0.265929 1.81563 0
M  V30 7598 H 720.281 -1.67082 3.59026 0
M  V30 7599 H 721.455 1.04349 4.4883 0
M  V30 7600 H 719.77 0.788178 4.08872 0
M  V30 7601 H 722.367 -1.8313 5.02362 0
M  V30 7602 H 722.71 -2.3936 3.40606 0
M  V30 7603 H 723.243 -0.769114 3.90294 0
M  V30 7604 H 719.982 0.696351 6.51791 0
M  V30 7605 H 719.502 -0.911552 5.92833 0
M  V30 7606 H 721.181 -0.610938 6.44109 0
M  V30 7607 N 721.313 -1.57302 -0.09688 0
M  V30 7608 C 722.276 -2.00976 -1.10188 0
M  V30 7609 C 723.276 -0.903009 -1.3305 0
M  V30 7610 O 724.466 -1.16853 -1.29194 0
M  V30 7611 C 721.598 -2.36893 -2.45142 0
M  V30 7612 H 722.791 -2.9098 -0.726003 0
M  V30 7613 H 720.344 -1.52515 -0.341872 0
M  V30 7614 H 721.079 -1.49837 -2.8761 0
M  V30 7615 H 720.864 -3.17632 -2.29897 0
M  V30 7616 H 722.354 -2.71345 -3.1743 0
M  V30 7617 N 722.791 0.367657 -1.53252 0
M  V30 7618 C 724.019 1.13119 -1.73239 0
M  V30 7619 C 724.434 1.831 -0.460404 0
M  V30 7620 O 723.791 1.73483 0.566557 0
M  V30 7621 C 723.842 2.16308 -2.89643 0
M  V30 7622 O 723.563 1.49175 -4.1192 0
M  V30 7623 C 725.064 3.05224 -3.21486 0
M  V30 7624 H 722.284 0.338318 -0.579467 0
M  V30 7625 H 724.828 0.42721 -1.99988 0
M  V30 7626 H 722.983 2.82307 -2.65295 0
M  V30 7627 H 723.397 2.17912 -4.7709 0
M  V30 7628 H 724.871 3.73613 -4.06346 0
M  V30 7629 H 725.348 3.69919 -2.36763 0
M  V30 7630 H 725.954 2.44843 -3.47753 0
M  V30 7631 N 724.269 1.44576 0.627338 0
M  V30 7632 C 725.499 1.50829 1.41189 0
M  V30 7633 C 725.907 0.133083 1.88731 0
M  V30 7634 O 725.25 -0.87199 1.61685 0
M  V30 7635 C 725.312 2.41449 2.66351 0
M  V30 7636 C 724.976 3.88549 2.40579 0
M  V30 7637 C 725.973 4.78981 2.0217 0
M  V30 7638 C 723.658 4.33287 2.54102 0
M  V30 7639 C 725.652 6.12153 1.77618 0
M  V30 7640 C 723.339 5.66505 2.29163 0
M  V30 7641 C 724.337 6.55756 1.9098 0
M  V30 7642 O 724.025 7.86506 1.66321 0
M  V30 7643 H 723.757 0.513797 0.439304 0
M  V30 7644 H 726.311 1.90256 0.774059 0
M  V30 7645 H 724.541 1.96955 3.32784 0
M  V30 7646 H 726.23 2.38608 3.28361 0
M  V30 7647 H 726.996 4.45689 1.91277 0
M  V30 7648 H 722.875 3.64074 2.82792 0
M  V30 7649 H 726.419 6.81776 1.47739 0
M  V30 7650 H 722.316 5.99358 2.39668 0
M  V30 7651 H 723.084 7.98341 1.80536 0
M  V30 7652 N 725.747 -0.868086 1.31537 0
M  V30 7653 C 726.695 -1.99688 1.1928 0
M  V30 7654 C 727.689 -1.69101 0.100656 0
M  V30 7655 O 728.895 -1.78073 0.262677 0
M  V30 7656 H 725.27 -0.655032 0.369374 0
M  V30 7657 H 727.241 -2.07157 2.14776 0
M  V30 7658 C 725.99 -3.35338 0.918892 0
M  V30 7659 H 725.313 -3.59396 1.75142 0
M  V30 7660 H 726.753 -4.14909 0.873311 0
M  V30 7661 C 725.212 -3.34769 -0.378366 0
M  V30 7662 O 725.742 -3.76716 -1.39456 0
M  V30 7663 N 723.948 -2.87895 -0.39557 0
M  V30 7664 H 723.495 -2.53954 0.431889 0
M  V30 7665 H 723.453 -2.87897 -1.26344 0
M  V30 7666 N 727.225 -1.14528 -1.08264 0
M  V30 7667 C 728.472 -0.914405 -1.80679 0
M  V30 7668 C 728.8 0.558952 -1.86295 0
M  V30 7669 O 728.055 1.43017 -1.33584 0
M  V30 7670 C 728.354 -1.46226 -3.26117 0
M  V30 7671 C 728.02 -2.95451 -3.40616 0
M  V30 7672 C 726.682 -3.36191 -3.4428 0
M  V30 7673 C 729.034 -3.91399 -3.44175 0
M  V30 7674 C 726.362 -4.71539 -3.49096 0
M  V30 7675 C 728.714 -5.26606 -3.50526 0
M  V30 7676 C 727.378 -5.66856 -3.52464 0
M  V30 7677 H 726.648 -0.334604 -0.661151 0
M  V30 7678 H 729.295 -1.4292 -1.27461 0
M  V30 7679 H 727.6 -0.868442 -3.82054 0
M  V30 7680 H 729.297 -1.25955 -3.80705 0
M  V30 7681 H 725.887 -2.62955 -3.38456 0
M  V30 7682 H 730.071 -3.61004 -3.40573 0
M  V30 7683 H 725.327 -5.02082 -3.4889 0
M  V30 7684 H 729.501 -6.00758 -3.52225 0
M  V30 7685 H 727.128 -6.71718 -3.55948 0
M  V30 7686 N 728.703 1.26451 -0.940633 0
M  V30 7687 C 729.613 2.30128 -0.455881 0
M  V30 7688 C 730.629 1.67536 0.469867 0
M  V30 7689 O 731.805 1.98344 0.349529 0
M  V30 7690 C 728.87 3.45634 0.271648 0
M  V30 7691 C 727.931 4.23709 -0.690594 0
M  V30 7692 C 727.164 5.337 0.00231047 0
M  V30 7693 O 727.387 5.57215 1.21935 0
M  V30 7694 O 726.321 5.98091 -0.676111 0
M  V30 7695 H 730.147 2.73655 -1.31707 0
M  V30 7696 H 727.732 1.3164 -0.706497 0
M  V30 7697 H 729.614 4.15853 0.681486 0
M  V30 7698 H 728.289 3.04138 1.10824 0
M  V30 7699 H 727.196 3.55974 -1.15037 0
M  V30 7700 H 728.529 4.68953 -1.49478 0
M  V30 7701 N 730.181 0.707592 1.40822 0
M  V30 7702 C 731.129 0.0386643 2.32568 0
M  V30 7703 C 732.123 -0.755653 1.51612 0
M  V30 7704 O 733.329 -0.659921 1.67467 0
M  V30 7705 H 729.704 -0.00629912 0.751974 0
M  V30 7706 H 731.675 0.8293 2.86645 0
M  V30 7707 C 730.424 -0.87496 3.36511 0
M  V30 7708 H 729.747 -0.273157 3.98866 0
M  V30 7709 H 731.187 -1.31111 4.03219 0
M  V30 7710 C 729.646 -1.99672 2.71353 0
M  V30 7711 O 730.176 -3.08676 2.57064 0
M  V30 7712 N 728.382 -1.77799 2.29861 0
M  V30 7713 H 727.929 -0.89147 2.41683 0
M  V30 7714 H 727.887 -2.53036 1.86601 0
M  V30 7715 N 731.66 -1.50943 0.453197 0
M  V30 7716 C 732.908 -2.01813 -0.107709 0
M  V30 7717 C 733.229 -1.33841 -1.41816 0
M  V30 7718 O 732.499 -0.477973 -1.8998 0
M  V30 7719 H 731.079 -0.745773 -0.0427948 0
M  V30 7720 H 733.741 -1.8545 0.599531 0
M  V30 7721 H 732.837 -3.10911 -0.27218 0
M  V30 7722 N 733.138 -0.185124 -1.56509 0
M  V30 7723 C 734.554 0.170865 -1.58683 0
M  V30 7724 C 734.754 1.61799 -1.20098 0
M  V30 7725 O 733.81 2.35181 -0.919038 0
M  V30 7726 C 735.123 -0.122459 -3.00451 0
M  V30 7727 C 736.671 -0.0617699 -3.12939 0
M  V30 7728 C 737.146 -0.328269 -4.56822 0
M  V30 7729 N 738.637 -0.276533 -4.62374 0
M  V30 7730 C 739.372 -0.456722 -5.71578 0
M  V30 7731 N 738.868 -0.69672 -6.89288 0
M  V30 7732 N 740.661 -0.391669 -5.60734 0
M  V30 7733 H 732.812 -1.12956 -1.79874 0
M  V30 7734 H 735.075 -0.45011 -0.834329 0
M  V30 7735 H 734.781 -1.12546 -3.33206 0
M  V30 7736 H 734.655 0.579578 -3.72721 0
M  V30 7737 H 737.042 0.931826 -2.80002 0
M  V30 7738 H 737.123 -0.796732 -2.43076 0
M  V30 7739 H 736.767 -1.31914 -4.9047 0
M  V30 7740 H 736.697 0.427465 -5.24862 0
M  V30 7741 H 739.188 -0.0972458 -3.77775 0
M  V30 7742 H 739.501 -0.823291 -7.68402 0
M  V30 7743 H 737.846 -0.733497 -6.91119 0
M  V30 7744 H 741.037 -0.204663 -4.67652 0
M  V30 7745 H 741.21 -0.535518 -6.45783 0
M  V30 7746 N 734.616 1.57351 0.0885366 0
M  V30 7747 C 735.862 1.86696 0.791996 0
M  V30 7748 C 736.195 0.775148 1.78059 0
M  V30 7749 O 735.47 -0.216247 1.93294 0
M  V30 7750 C 735.753 3.26684 1.51491 0
M  V30 7751 C 735.606 4.465 0.543858 0
M  V30 7752 C 736.925 3.64664 2.46391 0
M  V30 7753 H 734.044 0.679049 0.286463 0
M  V30 7754 H 736.686 1.89919 0.0554866 0
M  V30 7755 H 734.836 3.24067 2.14273 0
M  V30 7756 H 736.508 4.61235 -0.0774597 0
M  V30 7757 H 734.751 4.33567 -0.142228 0
M  V30 7758 H 735.422 5.41192 1.08696 0
M  V30 7759 H 737.898 3.68267 1.93698 0
M  V30 7760 H 736.774 4.63534 2.93986 0
M  V30 7761 H 737.035 2.93698 3.30445 0
M  V30 7762 N 736.094 -0.359525 1.53444 0
M  V30 7763 C 737.51 -0.701599 1.43352 0
M  V30 7764 C 737.71 -1.93049 0.577439 0
M  V30 7765 O 736.766 -2.52423 0.0622224 0
M  V30 7766 C 738.079 -0.90915 2.86627 0
M  V30 7767 C 739.627 -1.00878 2.96298 0
M  V30 7768 C 740.102 -1.24876 4.40647 0
M  V30 7769 N 741.593 -1.31632 4.44103 0
M  V30 7770 C 742.328 -1.51922 5.52908 0
M  V30 7771 N 741.824 -1.69489 6.71748 0
M  V30 7772 N 743.617 -1.54341 5.40496 0
M  V30 7773 H 735.768 0.448685 2.07607 0
M  V30 7774 H 738.031 0.138713 0.937797 0
M  V30 7775 H 737.737 -0.0778997 3.51614 0
M  V30 7776 H 737.611 -1.81551 3.30634 0
M  V30 7777 H 739.998 -1.83057 2.31461 0
M  V30 7778 H 740.079 -0.0796721 2.55676 0
M  V30 7779 H 739.723 -0.431961 5.0606 0
M  V30 7780 H 739.653 -2.19118 4.78848 0
M  V30 7781 H 742.144 -1.19646 3.5846 0
M  V30 7782 H 742.457 -1.84561 7.50438 0
M  V30 7783 H 740.802 -1.66655 6.74723 0
M  V30 7784 H 743.993 -1.40188 4.46615 0
M  V30 7785 H 744.166 -1.69812 6.25354 0
M  V30 7786 N 737.572 -1.44907 -0.619662 0
M  V30 7787 C 738.818 -1.48512 -1.38102 0
M  V30 7788 C 739.151 -0.121686 -1.93818 0
M  V30 7789 O 738.426 0.862256 -1.74343 0
M  V30 7790 C 738.709 -2.55469 -2.53787 0
M  V30 7791 C 738.562 -4.01212 -2.03345 0
M  V30 7792 C 739.881 -2.58821 -3.55949 0
M  V30 7793 H 737 -0.540712 -0.500799 0
M  V30 7794 H 739.642 -1.7665 -0.69962 0
M  V30 7795 H 737.792 -2.31606 -3.11915 0
M  V30 7796 H 739.464 -4.36245 -1.49959 0
M  V30 7797 H 737.707 -4.12443 -1.34438 0
M  V30 7798 H 738.378 -4.71717 -2.86683 0
M  V30 7799 H 740.854 -2.80172 -3.07641 0
M  V30 7800 H 739.73 -3.35542 -4.34399 0
M  V30 7801 H 739.991 -1.63451 -4.10775 0
M  V30 7802 N 739.05 0.861098 -1.31996 0
M  V30 7803 C 740.327 1.59788 -1.12814 0
M  V30 7804 C 740.707 2.08753 0.313882 0
M  V30 7805 O 740.055 1.87258 1.30946 0
M  V30 7806 C 740.265 2.74901 -2.15012 0
M  V30 7807 C 741.613 3.44643 -2.48004 0
M  V30 7808 O 742.637 2.85119 -2.13508 0
M  V30 7809 O 741.496 4.52044 -3.07113 0
M  V30 7810 H 738.59 0.703408 -0.434909 0
M  V30 7811 H 741.136 0.905788 -1.43505 0
M  V30 7812 H 739.908 2.36198 -3.11971 0
M  V30 7813 H 739.531 3.51792 -1.85279 0
M  V30 7814 N 740.528 1.15101 1.07655 0
M  V30 7815 C 741.756 0.947731 1.83918 0
M  V30 7816 C 742.171 -0.503927 1.81951 0
M  V30 7817 O 741.528 -1.34941 1.2287 0
M  V30 7818 C 741.579 1.4503 3.31132 0
M  V30 7819 O 741.3 2.84508 3.33146 0
M  V30 7820 C 742.801 1.28806 4.24174 0
M  V30 7821 H 740.021 0.336786 0.580358 0
M  V30 7822 H 742.565 1.52799 1.35914 0
M  V30 7823 H 740.72 0.912632 3.76497 0
M  V30 7824 H 741.134 3.0723 4.251 0
M  V30 7825 H 742.608 1.6882 5.25551 0
M  V30 7826 H 743.085 0.231851 4.38588 0
M  V30 7827 H 743.691 1.81465 3.84643 0
M  V30 7828 N 742.006 -1.2595 0.947325 0
M  V30 7829 C 743.254 -1.93081 0.596996 0
M  V30 7830 C 743.575 -1.74632 -0.867672 0
M  V30 7831 O 742.845 -1.1056 -1.6172 0
M  V30 7832 H 741.425 -0.714542 0.217805 0
M  V30 7833 H 744.087 -1.53265 1.20398 0
M  V30 7834 H 743.183 -3.01134 0.82004 0
M  V30 7835 N 743.484 -0.715051 -1.40445 0
M  V30 7836 C 744.709 -0.26254 -2.05732 0
M  V30 7837 C 745.134 1.08691 -1.53519 0
M  V30 7838 O 744.492 1.68453 -0.670328 0
M  V30 7839 C 744.54 -0.25195 -3.59719 0
M  V30 7840 O 743.644 0.766998 -4.05205 0
M  V30 7841 H 742.985 -0.123398 -0.652433 0
M  V30 7842 H 745.515 -0.975382 -1.79854 0
M  V30 7843 H 745.525 -0.0894537 -4.07902 0
M  V30 7844 H 744.2 -1.23672 -3.97087 0
M  V30 7845 H 742.777 0.572269 -3.68483 0
M  V30 7846 N 744.962 1.50701 -0.461195 0
M  V30 7847 C 745.91 2.29918 0.352231 0
M  V30 7848 C 746.904 1.36778 0.999403 0
M  V30 7849 O 748.11 1.54015 0.931639 0
M  V30 7850 H 744.485 0.740249 0.132423 0
M  V30 7851 H 746.456 2.96497 -0.336424 0
M  V30 7852 C 745.205 3.17052 1.42736 0
M  V30 7853 H 744.528 3.88623 0.938747 0
M  V30 7854 H 745.968 3.75493 1.96928 0
M  V30 7855 C 744.427 2.3399 2.42384 0
M  V30 7856 O 744.957 2.01608 3.47444 0
M  V30 7857 N 743.163 1.96758 2.13857 0
M  V30 7858 H 742.71 2.23292 1.28447 0
M  V30 7859 H 742.668 1.41484 2.80766 0
M  V30 7860 N 746.441 0.193421 1.56409 0
M  V30 7861 C 747.687 -0.43983 1.98588 0
M  V30 7862 C 748.042 -1.59353 1.07816 0
M  V30 7863 O 747.335 -1.9121 0.122226 0
M  V30 7864 C 747.529 -0.949718 3.44551 0
M  V30 7865 C 747.358 0.153045 4.49439 0
M  V30 7866 C 746.128 0.610119 5.01603 0
M  V30 7867 C 748.326 0.961397 5.05234 0
M  V30 7868 N 746.308 1.69088 5.90155 0
M  V30 7869 C 747.679 1.8916 5.90439 0
M  V30 7870 C 749.734 1.004 4.87672 0
M  V30 7871 C 748.437 2.86086 6.5996 0
M  V30 7872 C 750.463 1.96131 5.57931 0
M  V30 7873 C 749.825 2.87895 6.42881 0
M  V30 7874 H 745.924 -0.128415 0.771384 0
M  V30 7875 H 748.508 0.29873 1.92395 0
M  V30 7876 H 746.679 -1.65772 3.51246 0
M  V30 7877 H 748.411 -1.55344 3.73698 0
M  V30 7878 H 745.166 0.203771 4.73161 0
M  V30 7879 H 745.59 2.23241 6.39134 0
M  V30 7880 H 750.232 0.308536 4.21673 0
M  V30 7881 H 747.95 3.56609 7.25159 0
M  V30 7882 H 751.536 2.00066 5.46319 0
M  V30 7883 H 750.416 3.60763 6.9629 0
M  V30 7884 N 747.919 -1.57396 -0.0801906 0
M  V30 7885 C 749.144 -1.91437 -0.797909 0
M  V30 7886 C 749.569 -0.789075 -1.70749 0
M  V30 7887 O 748.927 0.25857 -1.79447 0
M  V30 7888 C 748.975 -3.24402 -1.57467 0
M  V30 7889 O 748.079 -3.13043 -2.68473 0
M  V30 7890 H 747.42 -0.627109 -0.218243 0
M  V30 7891 H 749.95 -2.04537 -0.050949 0
M  V30 7892 H 749.96 -3.58072 -1.95571 0
M  V30 7893 H 748.635 -4.05884 -0.907229 0
M  V30 7894 H 747.212 -2.90915 -2.33287 0
M  V30 7895 N 749.397 0.351382 -1.53633 0
M  V30 7896 C 750.307 1.45471 -1.84052 0
M  V30 7897 C 751.323 1.57945 -0.730015 0
M  V30 7898 O 752.499 1.73571 -1.02153 0
M  V30 7899 C 749.564 2.80562 -2.03681 0
M  V30 7900 C 748.625 2.77497 -3.27558 0
M  V30 7901 C 747.858 4.06144 -3.46241 0
M  V30 7902 O 748.081 5.03028 -2.68922 0
M  V30 7903 O 747.015 4.11092 -4.39645 0
M  V30 7904 H 750.841 1.22684 -2.77817 0
M  V30 7905 H 748.426 0.542827 -1.3919 0
M  V30 7906 H 750.308 3.6058 -2.18082 0
M  V30 7907 H 748.983 3.03296 -1.13106 0
M  V30 7908 H 747.89 1.96126 -3.18568 0
M  V30 7909 H 749.223 2.59716 -4.18101 0
M  V30 7910 N 750.875 1.45233 0.611969 0
M  V30 7911 C 752.121 1.49242 1.37312 0
M  V30 7912 C 752.454 0.131963 1.93751 0
M  V30 7913 O 751.729 -0.852999 1.74798 0
M  V30 7914 C 752.012 2.56811 2.52428 0
M  V30 7915 C 751.865 4.02284 2.01215 0
M  V30 7916 C 753.184 2.60705 3.54572 0
M  V30 7917 H 750.303 0.54336 0.497925 0
M  V30 7918 H 752.945 1.77019 0.690242 0
M  V30 7919 H 751.095 2.33256 3.10683 0
M  V30 7920 H 752.767 4.37035 1.47643 0
M  V30 7921 H 751.01 4.1315 1.32248 0
M  V30 7922 H 751.681 4.7323 2.84178 0
M  V30 7923 H 754.157 2.81799 3.06151 0
M  V30 7924 H 753.033 3.37841 4.32614 0
M  V30 7925 H 753.294 1.65627 4.09903 0
M  V30 7926 N 752.353 -0.854086 1.3245 0
M  V30 7927 C 753.283 -1.97827 1.24044 0
M  V30 7928 C 754.264 -1.69646 0.124166 0
M  V30 7929 O 755.449 -1.91687 0.31143 0
M  V30 7930 C 752.579 -3.33673 0.963324 0
M  V30 7931 C 751.533 -3.76207 2.04089 0
M  V30 7932 C 750.859 -5.0969 1.61618 0
M  V30 7933 C 752.159 -3.91612 3.45597 0
M  V30 7934 H 753.853 -2.05118 2.18099 0
M  V30 7935 H 751.399 -0.985489 1.04996 0
M  V30 7936 H 753.352 -4.11871 0.891061 0
M  V30 7937 H 752.076 -3.26597 -0.0128649 0
M  V30 7938 H 750.735 -3.0026 2.10332 0
M  V30 7939 H 750.383 -4.99072 0.627418 0
M  V30 7940 H 750.083 -5.3912 2.33717 0
M  V30 7941 H 751.607 -5.90381 1.55829 0
M  V30 7942 H 753.021 -4.60163 3.4194 0
M  V30 7943 H 751.418 -4.3246 4.16051 0
M  V30 7944 H 752.488 -2.9451 3.85217 0
M  V30 7945 N 753.831 -1.1567 -1.07043 0
M  V30 7946 C 755.242 -0.942408 -1.61169 0
M  V30 7947 C 755.593 0.515537 -1.89306 0
M  V30 7948 O 754.718 1.38726 -1.66084 0
M  V30 7949 C 755.313 -1.70431 -2.92812 0
M  V30 7950 C 753.872 -1.53521 -3.43669 0
M  V30 7951 C 753.019 -1.7179 -2.17678 0
M  V30 7952 H 755.97 -1.3065 -0.9009 0
M  V30 7953 H 755.991 -1.17566 -3.61882 0
M  V30 7954 H 755.503 -2.76538 -2.72302 0
M  V30 7955 H 753.604 -0.498224 -3.69254 0
M  V30 7956 H 753.717 -2.31422 -4.19501 0
M  V30 7957 H 752.081 -1.14468 -2.27529 0
M  V30 7958 H 752.864 -2.79269 -1.99659 0
M  V30 7959 N 755.309 1.25446 -0.953992 0
M  V30 7960 C 756.241 2.25111 -0.431004 0
M  V30 7961 C 757.254 1.56377 0.452764 0
M  V30 7962 O 758.443 1.76579 0.261144 0
M  V30 7963 C 755.543 3.3655 0.39839 0
M  V30 7964 C 754.716 4.34843 -0.472229 0
M  V30 7965 C 753.775 5.25351 0.29886 0
M  V30 7966 O 752.801 5.68396 -0.302522 0
M  V30 7967 N 754.003 5.5824 1.59211 0
M  V30 7968 H 756.768 2.70619 -1.28785 0
M  V30 7969 H 754.329 1.39346 -0.824281 0
M  V30 7970 H 756.321 3.94059 0.921941 0
M  V30 7971 H 754.891 2.90436 1.15609 0
M  V30 7972 H 754.111 3.76222 -1.17689 0
M  V30 7973 H 755.399 4.97497 -1.06648 0
M  V30 7974 H 754.797 5.25172 2.10264 0
M  V30 7975 H 753.354 6.18336 2.06164 0
M  V30 7976 N 756.787 0.722489 1.40064 0
M  V30 7977 C 758.036 0.261932 1.99992 0
M  V30 7978 C 758.349 -1.15358 1.57961 0
M  V30 7979 O 759.555 -1.71301 2.10637 0
M  V30 7980 C 758.011 0.41737 3.57472 0
M  V30 7981 C 757.619 1.83997 4.08472 0
M  V30 7982 C 759.363 0.0179561 4.24496 0
M  V30 7983 C 757.27 1.94563 5.5848 0
M  V30 7984 H 756.2 0.0941768 0.748095 0
M  V30 7985 H 758.851 0.894572 1.60218 0
M  V30 7986 H 757.233 -0.283965 3.94981 0
M  V30 7987 H 758.407 2.57224 3.82325 0
M  V30 7988 H 756.722 2.19147 3.54067 0
M  V30 7989 H 759.319 0.076085 5.34646 0
M  V30 7990 H 759.662 -1.02498 4.03485 0
M  V30 7991 H 760.195 0.669988 3.92117 0
M  V30 7992 H 756.934 2.97001 5.84355 0
M  V30 7993 H 756.454 1.25756 5.86469 0
M  V30 7994 H 758.133 1.72095 6.23692 0
M  V30 7995 N 758.265 -1.50454 0.469181 0
M  V30 7996 C 759.197 -2.26319 -0.362247 0
M  V30 7997 C 760.21 -1.31574 -0.958751 0
M  V30 7998 O 761.399 -1.57099 -0.847482 0
M  V30 7999 C 758.499 -3.02808 -1.52187 0
M  V30 8000 C 757.672 -4.24893 -1.03849 0
M  V30 8001 C 756.731 -4.83691 -2.07194 0
M  V30 8002 O 755.757 -5.44659 -1.65333 0
M  V30 8003 N 756.959 -4.70522 -3.39985 0
M  V30 8004 H 759.724 -2.98312 0.288124 0
M  V30 8005 H 757.285 -1.59099 0.299856 0
M  V30 8006 H 759.277 -3.39023 -2.21011 0
M  V30 8007 H 757.847 -2.33625 -2.07697 0
M  V30 8008 H 757.067 -3.93806 -0.176203 0
M  V30 8009 H 758.355 -5.04053 -0.693435 0
M  V30 8010 H 757.753 -4.2203 -3.76706 0
M  V30 8011 H 756.31 -5.11011 -4.04612 0
M  V30 8012 N 759.743 -0.201713 -1.56304 0
M  V30 8013 C 760.653 0.728296 -2.23009 0
M  V30 8014 C 761.669 1.22945 -1.23128 0
M  V30 8015 O 762.845 1.27523 -1.55884 0
M  V30 8016 C 759.91 1.92792 -2.88153 0
M  V30 8017 C 758.971 1.47068 -4.03323 0
M  V30 8018 C 758.204 2.61312 -4.65351 0
M  V30 8019 O 758.427 3.7896 -4.26317 0
M  V30 8020 O 757.361 2.33646 -5.54701 0
M  V30 8021 H 761.187 0.190166 -3.03104 0
M  V30 8022 H 758.772 0.0278725 -1.49374 0
M  V30 8023 H 760.654 2.6289 -3.29343 0
M  V30 8024 H 759.329 2.45452 -2.11033 0
M  V30 8025 H 758.236 0.738299 -3.66742 0
M  V30 8026 H 759.569 0.990666 -4.82127 0
M  V30 8027 N 761.222 1.57436 0.0718424 0
M  V30 8028 C 762.45 1.91474 0.783932 0
M  V30 8029 C 762.865 0.797669 1.71122 0
M  V30 8030 O 762.222 -0.228989 1.81058 0
M  V30 8031 C 762.273 3.25259 1.57761 0
M  V30 8032 O 761.994 4.3267 0.687596 0
M  V30 8033 C 763.495 3.7331 2.3907 0
M  V30 8034 H 760.715 0.632901 0.222885 0
M  V30 8035 H 763.259 2.04457 0.0421262 0
M  V30 8036 H 761.414 3.13804 2.27169 0
M  V30 8037 H 761.828 5.09641 1.23962 0
M  V30 8038 H 763.302 4.69551 2.90216 0
M  V30 8039 H 763.779 3.02318 3.18591 0
M  V30 8040 H 764.385 3.8771 1.74818 0
M  V30 8041 N 762.7 -0.34323 1.53817 0
M  V30 8042 C 763.928 -1.10348 1.75017 0
M  V30 8043 C 764.343 -1.82345 0.489475 0
M  V30 8044 O 763.7 -1.74362 -0.538886 0
M  V30 8045 C 763.751 -2.11672 2.93048 0
M  V30 8046 O 763.472 -1.42603 4.14241 0
M  V30 8047 C 764.973 -3.0007 3.26301 0
M  V30 8048 H 762.193 -0.329056 0.584776 0
M  V30 8049 H 764.737 -0.395339 2.00642 0
M  V30 8050 H 762.892 -2.78051 2.69753 0
M  V30 8051 H 763.306 -2.10294 4.80496 0
M  V30 8052 H 764.78 -3.67101 4.12239 0
M  V30 8053 H 765.257 -3.66105 2.42618 0
M  V30 8054 H 765.863 -2.3928 3.51604 0
M  V30 8055 N 764.178 -1.45556 -0.604258 0
M  V30 8056 C 765.141 -1.54091 -1.69672 0
M  V30 8057 C 766.141 -0.420076 -1.55216 0
M  V30 8058 O 767.331 -0.683671 -1.60224 0
M  V30 8059 C 764.463 -1.44063 -3.08964 0
M  V30 8060 H 765.656 -2.51431 -1.6347 0
M  V30 8061 H 763.209 -1.33046 -0.820273 0
M  V30 8062 H 763.944 -0.479201 -3.2074 0
M  V30 8063 H 763.729 -2.25362 -3.20865 0
M  V30 8064 H 765.219 -1.53075 -3.88533 0
M  V30 8065 N 765.656 0.84705 -1.32902 0
M  V30 8066 C 767.072 1.13645 -1.12058 0
M  V30 8067 C 767.272 2.01281 0.093937 0
M  V30 8068 O 766.328 2.4026 0.776608 0
M  V30 8069 C 767.641 1.80644 -2.40392 0
M  V30 8070 C 769.189 1.93246 -2.46221 0
M  V30 8071 C 769.664 2.6366 -3.74496 0
M  V30 8072 N 771.155 2.71179 -3.75521 0
M  V30 8073 C 771.89 3.26332 -4.71482 0
M  V30 8074 N 771.386 3.82236 -5.77813 0
M  V30 8075 N 773.179 3.24507 -4.58968 0
M  V30 8076 H 765.33 0.263612 -2.10758 0
M  V30 8077 H 767.593 0.17944 -0.930863 0
M  V30 8078 H 767.299 1.23708 -3.29225 0
M  V30 8079 H 767.173 2.80736 -2.51926 0
M  V30 8080 H 769.56 2.49338 -1.57843 0
M  V30 8081 H 769.641 0.921272 -2.38634 0
M  V30 8082 H 769.285 2.08229 -4.63253 0
M  V30 8083 H 769.215 3.65234 -3.79357 0
M  V30 8084 H 771.706 2.31527 -2.9867 0
M  V30 8085 H 772.019 4.22499 -6.47082 0
M  V30 8086 H 770.364 3.80546 -5.81558 0
M  V30 8087 H 773.555 2.80085 -3.7506 0
M  V30 8088 H 773.728 3.67188 -5.33926 0
M  V30 8089 N 767.134 1.16236 1.06428 0
M  V30 8090 C 768.383 0.937523 1.78587 0
M  V30 8091 C 768.696 -0.536 1.88113 0
M  V30 8092 O 769.902 -0.878697 2.56887 0
M  V30 8093 C 768.358 1.62808 3.2097 0
M  V30 8094 C 767.966 3.13927 3.19615 0
M  V30 8095 C 769.71 1.48515 3.97673 0
M  V30 8096 C 767.617 3.75727 4.56709 0
M  V30 8097 H 766.547 0.347125 0.669343 0
M  V30 8098 H 769.198 1.39353 1.19385 0
M  V30 8099 H 767.58 1.09977 3.80422 0
M  V30 8100 H 768.754 3.7359 2.69753 0
M  V30 8101 H 767.069 3.28089 2.56411 0
M  V30 8102 H 769.666 1.92069 4.99013 0
M  V30 8103 H 770.009 0.433913 4.14032 0
M  V30 8104 H 770.542 1.98494 3.44739 0
M  V30 8105 H 767.281 4.80793 4.45554 0
M  V30 8106 H 766.801 3.20849 5.0677 0
M  V30 8107 H 768.48 3.77203 5.25668 0
M  V30 8108 N 768.612 -1.24939 0.960631 0
M  V30 8109 C 769.861 -1.92118 0.614298 0
M  V30 8110 C 770.174 -1.75998 -0.853474 0
M  V30 8111 O 771.38 -2.37804 -1.31003 0
M  V30 8112 C 769.836 -3.44303 1.04801 0
M  V30 8113 C 769.444 -3.69123 2.53875 0
M  V30 8114 C 771.188 -4.17375 0.774497 0
M  V30 8115 C 769.095 -5.14843 2.91016 0
M  V30 8116 H 768.025 -0.719319 0.226045 0
M  V30 8117 H 770.676 -1.41701 1.16589 0
M  V30 8118 H 769.058 -3.93715 0.42479 0
M  V30 8119 H 770.232 -3.30339 3.21267 0
M  V30 8120 H 768.547 -3.09323 2.78762 0
M  V30 8121 H 771.144 -5.24723 1.02808 0
M  V30 8122 H 771.487 -4.15294 -0.289192 0
M  V30 8123 H 772.02 -3.7389 1.35835 0
M  V30 8124 H 768.759 -5.2204 3.96427 0
M  V30 8125 H 768.279 -5.54652 2.28302 0
M  V30 8126 H 769.958 -5.83017 2.80535 0
M  V30 8127 N 770.09 -0.729906 -1.39679 0
M  V30 8128 C 771.337 -0.275622 -2.00615 0
M  V30 8129 C 771.665 1.13559 -1.57907 0
M  V30 8130 O 770.92 1.78745 -0.796789 0
M  V30 8131 C 771.219 -0.319564 -3.55968 0
M  V30 8132 C 770.885 -1.68308 -4.1831 0
M  V30 8133 C 769.547 -2.05629 -4.35052 0
M  V30 8134 C 771.899 -2.57857 -4.52945 0
M  V30 8135 C 769.227 -3.32018 -4.83716 0
M  V30 8136 C 771.579 -3.83613 -5.03015 0
M  V30 8137 C 770.243 -4.21033 -5.17965 0
M  V30 8138 H 769.513 -0.100857 -0.734104 0
M  V30 8139 H 772.16 -0.93575 -1.67081 0
M  V30 8140 H 770.465 0.42414 -3.89497 0
M  V30 8141 H 772.162 0.0499905 -4.00969 0
M  V30 8142 H 768.752 -1.3829 -4.05677 0
M  V30 8143 H 772.936 -2.30295 -4.39634 0
M  V30 8144 H 768.192 -3.6096 -4.93475 0
M  V30 8145 H 772.366 -4.53162 -5.28788 0
M  V30 8146 H 769.993 -5.19034 -5.55435 0
M  V30 8147 N 771.568 1.50203 -0.477153 0
M  V30 8148 C 772.516 2.30278 0.327826 0
M  V30 8149 C 773.51 1.37831 0.984839 0
M  V30 8150 O 774.716 1.54994 0.915251 0
M  V30 8151 H 771.091 0.741612 0.124564 0
M  V30 8152 H 773.062 2.96124 -0.367853 0
M  V30 8153 C 771.811 3.18548 1.39365 0
M  V30 8154 H 771.134 3.89596 0.897475 0
M  V30 8155 H 772.574 3.77561 1.92934 0
M  V30 8156 C 771.033 2.36548 2.39889 0
M  V30 8157 O 771.563 2.05282 3.45286 0
M  V30 8158 N 769.769 1.99015 2.11758 0
M  V30 8159 H 769.316 2.24641 1.26071 0
M  V30 8160 H 769.274 1.44454 2.7925 0
M  V30 8161 N 773.046 0.209999 1.56195 0
M  V30 8162 C 774.294 -0.423974 1.97603 0
M  V30 8163 C 774.615 -1.61112 1.09854 0
M  V30 8164 O 773.885 -1.95134 0.173032 0
M  V30 8165 H 772.465 -0.159629 0.729745 0
M  V30 8166 H 775.127 0.300205 1.92574 0
M  V30 8167 H 774.223 -0.75809 3.02753 0
M  V30 8168 N 774.524 -1.57472 -0.0634922 0
M  V30 8169 C 775.471 -2.04258 -1.07457 0
M  V30 8170 C 776.441 -0.924804 -1.37973 0
M  V30 8171 O 777.626 -1.19305 -1.48899 0
M  V30 8172 C 774.766 -2.49832 -2.38071 0
M  V30 8173 C 773.879 -3.75263 -2.14014 0
M  V30 8174 C 773.014 -4.09585 -3.38251 0
M  V30 8175 C 772.053 -5.28032 -3.09594 0
M  V30 8176 N 771.19 -5.57953 -4.26185 0
M  V30 8177 H 776.03 -2.90402 -0.668626 0
M  V30 8178 H 773.567 -1.43609 -0.318572 0
M  V30 8179 H 775.525 -2.7431 -3.14341 0
M  V30 8180 H 774.155 -1.66654 -2.76453 0
M  V30 8181 H 773.207 -3.58075 -1.28399 0
M  V30 8182 H 774.519 -4.61667 -1.88852 0
M  V30 8183 H 773.673 -4.35008 -4.2291 0
M  V30 8184 H 772.412 -3.21765 -3.66495 0
M  V30 8185 H 771.417 -5.02397 -2.23332 0
M  V30 8186 H 772.642 -6.17477 -2.82663 0
M  V30 8187 H 770.588 -4.73092 -4.54445 0
M  V30 8188 H 770.505 -6.38793 -4.04326 0
M  V30 8189 H 771.773 -5.87931 -5.11817 0
M  V30 8190 N 776.003 0.335068 -1.53997 0
M  V30 8191 C 777.28 1.09188 -1.62288 0
M  V30 8192 C 777.66 2.0626 -0.449458 0
M  V30 8193 O 777.008 2.21596 0.557444 0
M  V30 8194 C 777.218 1.80403 -2.98757 0
M  V30 8195 C 778.566 2.33841 -3.54406 0
M  V30 8196 O 779.59 1.90487 -3.00987 0
M  V30 8197 O 778.449 3.1318 -4.47862 0
M  V30 8198 H 775.543 0.502621 -0.656736 0
M  V30 8199 H 778.089 0.33588 -1.66343 0
M  V30 8200 H 776.861 1.09732 -3.75599 0
M  V30 8201 H 776.484 2.62841 -2.9833 0
M  V30 8202 N 777.481 1.45874 0.596531 0
M  V30 8203 C 778.411 1.5824 1.71705 0
M  V30 8204 C 779.392 0.433366 1.64487 0
M  V30 8205 O 780.577 0.657895 1.82717 0
M  V30 8206 C 777.707 1.55927 3.10329 0
M  V30 8207 C 776.661 2.69659 3.32367 0
M  V30 8208 C 775.987 2.52403 4.71377 0
M  V30 8209 C 777.287 4.11591 3.21544 0
M  V30 8210 H 778.981 2.52035 1.61613 0
M  V30 8211 H 776.527 1.21297 0.776082 0
M  V30 8212 H 778.48 1.63173 3.88526 0
M  V30 8213 H 777.204 0.586674 3.21288 0
M  V30 8214 H 775.863 2.61859 2.56564 0
M  V30 8215 H 775.511 1.53258 4.79083 0
M  V30 8216 H 775.211 3.28679 4.87077 0
M  V30 8217 H 776.735 2.6152 5.5176 0
M  V30 8218 H 778.149 4.20576 3.89601 0
M  V30 8219 H 776.546 4.88344 3.4877 0
M  V30 8220 H 777.616 4.32719 2.1882 0
M  V30 8221 N 778.959 -0.83999 1.33349 0
M  V30 8222 C 779.907 -1.97113 1.23488 0
M  V30 8223 C 780.901 -1.68849 0.136503 0
M  V30 8224 O 782.107 -1.77476 0.300389 0
M  V30 8225 H 778.482 -0.647049 0.383185 0
M  V30 8226 H 780.453 -2.02554 2.19122 0
M  V30 8227 C 779.202 -3.33314 0.989815 0
M  V30 8228 H 778.525 -3.556 1.82726 0
M  V30 8229 H 779.965 -4.12963 0.961123 0
M  V30 8230 C 778.424 -3.35496 -0.307272 0
M  V30 8231 O 778.954 -3.79589 -1.31434 0
M  V30 8232 N 777.16 -2.88669 -0.334414 0
M  V30 8233 H 776.707 -2.5298 0.485659 0
M  V30 8234 H 776.665 -2.90512 -1.20209 0
M  V30 8235 N 780.437 -1.16799 -1.0581 0
M  V30 8236 C 781.367 -0.902241 -2.15364 0
M  V30 8237 C 782.348 0.153351 -1.69407 0
M  V30 8238 O 783.533 0.00442032 -1.94199 0
M  V30 8239 C 780.663 -0.407911 -3.44896 0
M  V30 8240 C 779.617 -1.40197 -4.04387 0
M  V30 8241 C 778.943 -0.765848 -5.29187 0
M  V30 8242 C 780.243 -2.77316 -4.42598 0
M  V30 8243 H 781.937 -1.81841 -2.37853 0
M  V30 8244 H 779.483 -0.875731 -1.14311 0
M  V30 8245 H 781.436 -0.20945 -4.20879 0
M  V30 8246 H 780.16 0.54378 -3.22041 0
M  V30 8247 H 778.819 -1.58707 -3.30466 0
M  V30 8248 H 778.467 0.192482 -5.02632 0
M  V30 8249 H 778.167 -1.42939 -5.69949 0
M  V30 8250 H 779.691 -0.577519 -6.07863 0
M  V30 8251 H 781.105 -2.62561 -5.09642 0
M  V30 8252 H 779.502 -3.4019 -4.94359 0
M  V30 8253 H 780.572 -3.32199 -3.53231 0
M  V30 8254 N 781.915 1.24427 -0.967243 0
M  V30 8255 C 783.161 1.92772 -0.629812 0
M  V30 8256 C 783.494 1.75436 0.832827 0
M  V30 8257 O 782.769 1.10716 1.59913 0
M  V30 8258 C 783.052 3.45798 -1.00477 0
M  V30 8259 C 782.905 3.72304 -2.52407 0
M  V30 8260 C 784.224 4.36787 -0.538999 0
M  V30 8261 H 781.343 0.700099 -0.230282 0
M  V30 8262 H 783.985 1.46805 -1.20616 0
M  V30 8263 H 782.135 3.8508 -0.514336 0
M  V30 8264 H 783.807 3.42584 -3.08924 0
M  V30 8265 H 782.05 3.17472 -2.95625 0
M  V30 8266 H 782.721 4.7937 -2.73693 0
M  V30 8267 H 785.197 4.04877 -0.959874 0
M  V30 8268 H 784.073 5.4259 -0.829926 0
M  V30 8269 H 784.334 4.38527 0.560923 0
M  V30 8270 N 783.393 0.737304 1.3929 0
M  V30 8271 C 784.303 0.100464 2.34385 0
M  V30 8272 C 785.319 -0.719282 1.58437 0
M  V30 8273 O 786.495 -0.647216 1.90717 0
M  V30 8274 C 783.56 -0.794325 3.37478 0
M  V30 8275 C 782.621 0.0379345 4.29283 0
M  V30 8276 C 781.854 -0.814241 5.27452 0
M  V30 8277 O 782.077 -2.05288 5.32177 0
M  V30 8278 O 781.011 -0.241679 6.01415 0
M  V30 8279 H 784.837 0.885407 2.90507 0
M  V30 8280 H 782.422 0.497999 1.40856 0
M  V30 8281 H 784.304 -1.30622 4.00644 0
M  V30 8282 H 782.979 -1.55804 2.83737 0
M  V30 8283 H 781.886 0.595405 3.69331 0
M  V30 8284 H 783.219 0.763926 4.86236 0
M  V30 8285 N 784.871 -1.49948 0.485112 0
M  V30 8286 C 786.287 -1.58984 0.140096 0
M  V30 8287 C 786.487 -1.49194 -1.35438 0
M  V30 8288 O 785.543 -1.35765 -2.12894 0
M  V30 8289 C 786.856 -2.92372 0.702769 0
M  V30 8290 C 788.404 -3.05801 0.66745 0
M  V30 8291 C 788.879 -4.41785 1.20791 0
M  V30 8292 N 790.37 -4.48234 1.16792 0
M  V30 8293 C 791.105 -5.51871 1.55646 0
M  V30 8294 N 790.601 -6.62692 2.02016 0
M  V30 8295 N 792.394 -5.42494 1.47161 0
M  V30 8296 H 784.545 -1.54555 1.45693 0
M  V30 8297 H 786.808 -0.731206 0.603359 0
M  V30 8298 H 786.514 -3.05056 1.75025 0
M  V30 8299 H 786.388 -3.76885 0.154205 0
M  V30 8300 H 788.775 -2.92757 -0.371157 0
M  V30 8301 H 788.856 -2.23011 1.25298 0
M  V30 8302 H 788.5 -4.55579 2.24522 0
M  V30 8303 H 788.43 -5.23188 0.598464 0
M  V30 8304 H 790.921 -3.68718 0.827982 0
M  V30 8305 H 791.234 -7.3785 2.29775 0
M  V30 8306 H 789.579 -6.63775 2.05979 0
M  V30 8307 H 792.77 -4.54806 1.10765 0
M  V30 8308 H 792.943 -6.2314 1.77766 0
M  V30 8309 N 786.349 -0.21828 -1.56081 0
M  V30 8310 C 787.765 0.137168 -1.59009 0
M  V30 8311 C 787.965 1.59215 -1.23503 0
M  V30 8312 O 787.021 2.33178 -0.968716 0
M  V30 8313 C 788.334 -0.186162 -3.00123 0
M  V30 8314 C 789.882 -0.128135 -3.12738 0
M  V30 8315 C 790.357 -0.425094 -4.56023 0
M  V30 8316 N 791.848 -0.374547 -4.61683 0
M  V30 8317 C 792.583 -0.57786 -5.70481 0
M  V30 8318 N 792.079 -0.842771 -6.87655 0
M  V30 8319 N 793.872 -0.510521 -5.59777 0
M  V30 8320 H 786.023 -1.16746 -1.77437 0
M  V30 8321 H 788.286 -0.467706 -0.824594 0
M  V30 8322 H 787.992 -1.19589 -3.30744 0
M  V30 8323 H 787.866 0.500388 -3.73866 0
M  V30 8324 H 790.253 0.872224 -2.81915 0
M  V30 8325 H 790.334 -0.848112 -2.41331 0
M  V30 8326 H 789.978 -1.42288 -4.87562 0
M  V30 8327 H 789.908 0.316038 -5.25651 0
M  V30 8328 H 792.399 -0.177356 -3.77484 0
M  V30 8329 H 792.712 -0.986095 -7.66483 0
M  V30 8330 H 791.057 -0.879929 -6.89407 0
M  V30 8331 H 794.248 -0.303813 -4.67113 0
M  V30 8332 H 794.421 -0.672378 -6.44502 0
M  V30 8333 N 787.827 1.57504 0.0551401 0
M  V30 8334 C 789.076 1.87237 0.750009 0
M  V30 8335 C 789.389 0.813268 1.77891 0
M  V30 8336 O 790.595 0.99898 2.52453 0
M  V30 8337 C 789.051 3.32187 1.38491 0
M  V30 8338 C 788.659 4.46267 0.393707 0
M  V30 8339 C 790.403 3.71101 2.06117 0
M  V30 8340 C 788.31 5.82265 1.03547 0
M  V30 8341 H 787.24 0.698524 0.283866 0
M  V30 8342 H 789.891 1.835 0.00365997 0
M  V30 8343 H 788.273 3.30588 2.18008 0
M  V30 8344 H 789.447 4.59289 -0.372865 0
M  V30 8345 H 787.762 4.16015 -0.17902 0
M  V30 8346 H 790.359 4.70012 2.54937 0
M  V30 8347 H 790.702 3.01751 2.86796 0
M  V30 8348 H 791.235 3.74762 1.33409 0
M  V30 8349 H 787.974 6.54949 0.268644 0
M  V30 8350 H 787.494 5.73012 1.7725 0
M  V30 8351 H 789.173 6.28148 1.55047 0
M  V30 8352 N 789.305 -0.326896 1.54172 0
M  V30 8353 C 790.268 -1.38515 1.8261 0
M  V30 8354 C 791.268 -1.44872 0.697771 0
M  V30 8355 O 792.458 -1.44957 0.966078 0
M  V30 8356 C 789.59 -2.77281 1.98313 0
M  V30 8357 H 790.783 -1.14556 2.77159 0
M  V30 8358 H 788.336 -0.562199 1.45839 0
M  V30 8359 H 789.071 -3.065 1.05964 0
M  V30 8360 H 788.856 -2.74061 2.80416 0
M  V30 8361 H 790.346 -3.53845 2.21773 0
M  V30 8362 N 790.784 -1.46188 -0.588786 0
M  V30 8363 C 791.747 -1.55882 -1.68029 0
M  V30 8364 C 792.747 -0.436515 -1.54762 0
M  V30 8365 O 793.937 -0.700626 -1.59489 0
M  V30 8366 C 791.069 -1.47332 -3.07418 0
M  V30 8367 H 792.262 -2.5315 -1.60795 0
M  V30 8368 H 789.815 -1.33908 -0.806116 0
M  V30 8369 H 790.55 -0.513193 -3.20214 0
M  V30 8370 H 790.335 -2.28753 -3.18456 0
M  V30 8371 H 791.825 -1.57187 -3.86887 0
M  V30 8372 N 792.262 0.832906 -1.33792 0
M  V30 8373 C 793.508 1.59089 -1.25772 0
M  V30 8374 C 793.841 1.93414 0.174601 0
M  V30 8375 O 793.116 1.59195 1.11746 0
M  V30 8376 C 793.399 2.89699 -2.13885 0
M  V30 8377 C 793.252 2.62017 -3.65605 0
M  V30 8378 C 794.571 3.91182 -2.01654 0
M  V30 8379 H 791.69 0.577232 -0.458227 0
M  V30 8380 H 794.332 0.960227 -1.6395 0
M  V30 8381 H 792.482 3.4352 -1.81456 0
M  V30 8382 H 794.154 2.14582 -4.08353 0
M  V30 8383 H 792.397 1.95621 -3.87189 0
M  V30 8384 H 793.068 3.55112 -4.2261 0
M  V30 8385 H 795.544 3.46684 -2.30107 0
M  V30 8386 H 794.42 4.80391 -2.65548 0
M  V30 8387 H 794.681 4.30861 -0.990536 0
M  V30 8388 N 793.74 1.17359 1.05189 0
M  V30 8389 C 794.688 0.886527 2.15043 0
M  V30 8390 C 795.682 -0.148834 1.68745 0
M  V30 8391 O 796.888 -0.00175123 1.8 0
M  V30 8392 H 793.263 0.269147 0.702185 0
M  V30 8393 H 795.234 1.82016 2.36459 0
M  V30 8394 C 793.983 0.416333 3.45198 0
M  V30 8395 H 793.306 1.20449 3.81225 0
M  V30 8396 H 794.746 0.254362 4.23236 0
M  V30 8397 C 793.205 -0.866016 3.25579 0
M  V30 8398 O 793.735 -1.9328 3.52144 0
M  V30 8399 N 791.941 -0.814179 2.78961 0
M  V30 8400 H 791.488 0.0541618 2.57543 0
M  V30 8401 H 791.446 -1.67264 2.66214 0
M  V30 8402 N 795.218 -1.23913 0.973828 0
M  V30 8403 C 796.629 -1.73992 0.677021 0
M  V30 8404 C 796.98 -1.78833 -0.807036 0
M  V30 8405 O 796.105 -1.42183 -1.63135 0
M  V30 8406 C 796.7 -3.15985 1.22226 0
M  V30 8407 C 795.259 -3.63547 0.975228 0
M  V30 8408 C 794.406 -2.42001 1.35392 0
M  V30 8409 H 797.357 -1.09529 1.14844 0
M  V30 8410 H 797.378 -3.75875 0.591489 0
M  V30 8411 H 796.89 -3.12429 2.30238 0
M  V30 8412 H 794.991 -3.72493 -0.0891047 0
M  V30 8413 H 795.104 -4.50693 1.62518 0
M  V30 8414 H 793.468 -2.42708 0.772334 0
M  V30 8415 H 794.251 -2.41122 2.44367 0
M  V30 8416 N 796.696 -0.74468 -1.38897 0
M  V30 8417 C 797.921 -0.306119 -2.05128 0
M  V30 8418 C 798.346 1.0541 -1.55789 0
M  V30 8419 O 797.704 1.66993 -0.705909 0
M  V30 8420 C 797.752 -0.328195 -3.59103 0
M  V30 8421 O 796.856 0.680876 -4.06741 0
M  V30 8422 H 796.197 -0.137209 -0.649669 0
M  V30 8423 H 798.727 -1.01331 -1.77745 0
M  V30 8424 H 798.737 -0.175956 -4.0762 0
M  V30 8425 H 797.412 -1.32067 -3.94374 0
M  V30 8426 H 795.989 0.49398 -3.69614 0
M  V30 8427 N 798.174 1.49689 -0.493057 0
M  V30 8428 C 799.451 1.9525 0.116907 0
M  V30 8429 C 799.831 1.43429 1.54892 0
M  V30 8430 O 799.179 0.644621 2.19219 0
M  V30 8431 C 799.389 3.4898 0.037705 0
M  V30 8432 C 800.737 4.24052 0.215621 0
M  V30 8433 O 801.761 3.5602 0.113266 0
M  V30 8434 O 800.62 5.44847 0.42477 0
M  V30 8435 H 797.714 0.820973 0.099662 0
M  V30 8436 H 800.26 1.60367 -0.555029 0
M  V30 8437 H 799.032 3.79309 -0.961251 0
M  V30 8438 H 798.655 3.9046 0.750137 0
M  V30 8439 N 799.652 0.226554 1.55963 0
M  V30 8440 C 801.063 -0.280381 1.84583 0
M  V30 8441 C 801.414 -1.59105 1.14804 0
M  V30 8442 O 800.539 -2.12297 0.419414 0
M  V30 8443 C 801.134 -0.515499 3.34855 0
M  V30 8444 C 799.693 -0.966733 3.63774 0
M  V30 8445 C 798.84 -0.0325753 2.77281 0
M  V30 8446 H 801.791 0.449626 1.52197 0
M  V30 8447 H 801.812 -1.36085 3.55332 0
M  V30 8448 H 801.324 0.438594 3.85614 0
M  V30 8449 H 799.425 -1.93401 3.18476 0
M  V30 8450 H 799.538 -0.837679 4.7172 0
M  V30 8451 H 797.902 -0.540279 2.48904 0
M  V30 8452 H 798.685 0.916524 3.30839 0
M  V30 8453 N 801.13 -1.57531 -0.0467866 0
M  V30 8454 C 802.06 -2.08425 -1.05268 0
M  V30 8455 C 803.041 -0.982941 -1.38825 0
M  V30 8456 O 804.226 -1.25716 -1.48018 0
M  V30 8457 C 801.356 -2.54897 -2.35891 0
M  V30 8458 C 800.31 -3.69132 -2.16623 0
M  V30 8459 C 799.636 -4.01747 -3.52851 0
M  V30 8460 C 800.936 -4.98243 -1.56689 0
M  V30 8461 H 802.63 -2.92716 -0.62908 0
M  V30 8462 H 800.176 -1.40816 -0.301156 0
M  V30 8463 H 802.129 -2.8912 -3.06574 0
M  V30 8464 H 800.853 -1.67666 -2.80278 0
M  V30 8465 H 799.512 -3.35231 -1.48377 0
M  V30 8466 H 799.16 -3.11608 -3.94853 0
M  V30 8467 H 798.86 -4.78681 -3.4079 0
M  V30 8468 H 800.384 -4.38487 -4.24925 0
M  V30 8469 H 801.798 -5.30535 -2.17268 0
M  V30 8470 H 800.195 -5.79669 -1.55255 0
M  V30 8471 H 801.265 -4.81986 -0.530827 0
M  V30 8472 N 802.608 0.318715 -1.54344 0
M  V30 8473 C 803.518 1.41535 -1.87097 0
M  V30 8474 C 804.534 1.56361 -0.763353 0
M  V30 8475 O 805.71 1.71365 -1.05811 0
M  V30 8476 C 802.775 2.76178 -2.09587 0
M  V30 8477 C 801.836 2.70486 -3.3337 0
M  V30 8478 C 801.069 3.98708 -3.54778 0
M  V30 8479 O 801.292 4.9721 -2.79532 0
M  V30 8480 O 800.226 4.01674 -4.48266 0
M  V30 8481 H 804.052 1.16764 -2.80357 0
M  V30 8482 H 801.637 0.51318 -1.4031 0
M  V30 8483 H 803.519 3.55873 -2.25682 0
M  V30 8484 H 802.194 3.00829 -1.19514 0
M  V30 8485 H 801.101 1.89325 -3.22656 0
M  V30 8486 H 802.434 2.50789 -4.23516 0
M  V30 8487 N 804.086 1.46499 0.581025 0
M  V30 8488 C 805.314 1.5547 1.36517 0
M  V30 8489 C 805.729 0.196407 1.87776 0
M  V30 8490 O 805.086 -0.806577 1.63709 0
M  V30 8491 C 805.137 2.56084 2.55154 0
M  V30 8492 O 804.858 3.86637 2.06018 0
M  V30 8493 C 806.359 2.75011 3.47683 0
M  V30 8494 H 803.579 0.525703 0.416986 0
M  V30 8495 H 806.123 1.9192 0.706177 0
M  V30 8496 H 804.278 2.22633 3.17039 0
M  V30 8497 H 804.692 4.41413 2.83292 0
M  V30 8498 H 806.166 3.49329 4.27403 0
M  V30 8499 H 806.643 1.81978 3.99726 0
M  V30 8500 H 807.249 3.09565 2.91632 0
M  V30 8501 N 805.565 -0.825799 1.34232 0
M  V30 8502 C 806.793 -1.61363 1.29497 0
M  V30 8503 C 807.208 -1.88341 -0.131536 0
M  V30 8504 O 806.565 -1.47279 -1.07773 0
M  V30 8505 C 806.616 -2.95623 2.08061 0
M  V30 8506 O 806.337 -2.69824 3.45147 0
M  V30 8507 C 807.838 -3.90032 2.10688 0
M  V30 8508 H 805.058 -0.501676 0.445603 0
M  V30 8509 H 807.602 -1.02767 1.76803 0
M  V30 8510 H 805.757 -3.50785 1.64404 0
M  V30 8511 H 806.171 -3.55412 3.85723 0
M  V30 8512 H 807.645 -4.81411 2.70087 0
M  V30 8513 H 808.122 -4.25188 1.10052 0
M  V30 8514 H 808.728 -3.40807 2.54422 0
M  V30 8515 N 807.043 -1.17915 -1.04565 0
M  V30 8516 C 807.99 -0.901605 -2.12461 0
M  V30 8517 C 808.96 0.157011 -1.65356 0
M  V30 8518 O 810.145 0.0184494 -1.90791 0
M  V30 8519 C 807.285 -0.42796 -3.42436 0
M  V30 8520 C 806.398 -1.55142 -4.03181 0
M  V30 8521 C 805.533 -1.03101 -5.21098 0
M  V30 8522 C 804.572 -2.1295 -5.73863 0
M  V30 8523 N 803.709 -1.62339 -6.83074 0
M  V30 8524 H 808.549 -1.82551 -2.3554 0
M  V30 8525 H 806.086 -0.910389 -1.15544 0
M  V30 8526 H 808.044 -0.134859 -4.16982 0
M  V30 8527 H 806.674 0.458977 -3.1952 0
M  V30 8528 H 805.726 -1.96011 -3.26012 0
M  V30 8529 H 807.038 -2.37968 -4.38375 0
M  V30 8530 H 806.192 -0.692132 -6.02739 0
M  V30 8531 H 804.931 -0.17227 -4.87396 0
M  V30 8532 H 803.936 -2.47687 -4.90847 0
M  V30 8533 H 805.161 -2.9925 -6.09611 0
M  V30 8534 H 803.107 -0.787464 -6.51256 0
M  V30 8535 H 803.024 -2.38767 -7.17305 0
M  V30 8536 H 804.292 -1.31363 -7.68351 0
M  V30 8537 N 808.521 1.23394 -0.980386 0
M  V30 8538 C 809.932 1.73631 -0.686239 0
M  V30 8539 C 810.283 1.79259 0.797541 0
M  V30 8540 O 809.408 1.43046 1.62379 0
M  V30 8541 C 810.003 3.15332 -1.239 0
M  V30 8542 C 808.562 3.63024 -0.994494 0
M  V30 8543 C 807.709 2.41279 -1.36673 0
M  V30 8544 H 810.66 1.08918 -1.15423 0
M  V30 8545 H 810.681 3.75556 -0.611414 0
M  V30 8546 H 810.193 3.11204 -2.31892 0
M  V30 8547 H 808.294 3.72535 0.0693492 0
M  V30 8548 H 808.407 4.49825 -1.64906 0
M  V30 8549 H 806.771 2.42295 -0.785195 0
M  V30 8550 H 807.554 2.39822 -2.45642 0
M  V30 8551 N 809.999 0.752036 1.385 0
M  V30 8552 C 811.276 0.233075 1.94206 0
M  V30 8553 C 811.656 -1.26838 1.68746 0
M  V30 8554 O 811.004 -2.04214 1.02513 0
M  V30 8555 C 811.214 0.58509 3.44061 0
M  V30 8556 C 812.562 0.543871 4.21102 0
M  V30 8557 O 813.586 0.523291 3.52335 0
M  V30 8558 O 812.445 0.553436 5.4369 0
M  V30 8559 H 809.539 0.0483049 0.825588 0
M  V30 8560 H 812.085 0.832053 1.47902 0
M  V30 8561 H 810.857 1.62212 3.56094 0
M  V30 8562 H 810.48 -0.0419738 3.97578 0
M  V30 8563 N 811.477 -1.49425 0.500989 0
M  V30 8564 C 812.41 -2.25887 -0.324087 0
M  V30 8565 C 813.388 -1.30469 -0.970388 0
M  V30 8566 O 814.572 -1.59758 -1.00049 0
M  V30 8567 C 811.699 -3.05787 -1.45643 0
M  V30 8568 C 810.745 -4.16359 -0.924508 0
M  V30 8569 S 811.578 -5.35181 0.184707 0
M  V30 8570 C 812.734 -6.18636 -0.950806 0
M  V30 8571 H 812.967 -2.95519 0.324891 0
M  V30 8572 H 810.5 -1.51723 0.286289 0
M  V30 8573 H 812.458 -3.52405 -2.10525 0
M  V30 8574 H 811.119 -2.35624 -2.07703 0
M  V30 8575 H 810.312 -4.71781 -1.77311 0
M  V30 8576 H 809.914 -3.72331 -0.352907 0
M  V30 8577 H 812.206 -6.51581 -1.85603 0
M  V30 8578 H 813.149 -7.06761 -0.435212 0
M  V30 8579 H 813.557 -5.512 -1.21813 0
M  V30 8580 N 812.955 -0.234822 -1.55841 0
M  V30 8581 C 814.183 0.397745 -2.03041 0
M  V30 8582 C 814.598 1.52405 -1.11437 0
M  V30 8583 O 813.955 1.82061 -0.126466 0
M  V30 8584 C 814.006 0.916919 -3.49678 0
M  V30 8585 O 813.727 -0.164493 -4.37791 0
M  V30 8586 C 815.228 1.62139 -4.12584 0
M  V30 8587 H 812.448 0.0959214 -0.664108 0
M  V30 8588 H 814.992 -0.355156 -2.01392 0
M  V30 8589 H 813.147 1.62004 -3.519 0
M  V30 8590 H 813.561 0.227794 -5.24005 0
M  V30 8591 H 815.035 1.93651 -5.16917 0
M  V30 8592 H 815.512 2.53918 -3.58361 0
M  V30 8593 H 816.118 0.963145 -4.14251 0
M  V30 8594 N 814.433 1.57553 0.0384317 0
M  V30 8595 C 815.363 2.0898 1.04161 0
M  V30 8596 C 816.344 0.99029 1.38301 0
M  V30 8597 O 817.529 1.26499 1.47349 0
M  V30 8598 C 814.659 2.56145 2.34536 0
M  V30 8599 C 813.613 3.70275 2.14663 0
M  V30 8600 C 812.939 4.03612 3.50715 0
M  V30 8601 C 814.239 4.99067 1.54045 0
M  V30 8602 H 815.933 2.93046 0.613548 0
M  V30 8603 H 813.479 1.40973 0.293684 0
M  V30 8604 H 815.432 2.90741 3.05037 0
M  V30 8605 H 814.156 1.6915 2.79385 0
M  V30 8606 H 812.815 3.36013 1.46597 0
M  V30 8607 H 812.463 3.13698 3.93195 0
M  V30 8608 H 812.163 4.80482 3.38247 0
M  V30 8609 H 813.687 4.40735 4.22593 0
M  V30 8610 H 815.101 5.3168 2.14451 0
M  V30 8611 H 813.498 5.80484 1.52178 0
M  V30 8612 H 814.568 4.8226 0.505259 0
M  V30 8613 N 815.911 -0.310526 1.54511 0
M  V30 8614 C 816.858 -1.38264 1.84802 0
M  V30 8615 C 817.828 -1.50808 0.696141 0
M  V30 8616 O 819.013 -1.6582 0.943846 0
M  V30 8617 C 816.153 -2.74422 2.09252 0
M  V30 8618 C 815.266 -2.70405 3.36906 0
M  V30 8619 C 814.401 -3.98495 3.51248 0
M  V30 8620 C 813.44 -3.88836 4.72729 0
M  V30 8621 N 812.577 -5.08683 4.83928 0
M  V30 8622 H 817.417 -1.11732 2.76261 0
M  V30 8623 H 814.954 -0.540609 1.36806 0
M  V30 8624 H 816.912 -3.53593 2.21422 0
M  V30 8625 H 815.542 -2.99235 1.2107 0
M  V30 8626 H 814.594 -1.83151 3.33406 0
M  V30 8627 H 815.906 -2.59155 4.26193 0
M  V30 8628 H 815.06 -4.861 3.63031 0
M  V30 8629 H 813.799 -4.12567 2.60077 0
M  V30 8630 H 812.804 -2.99615 4.60989 0
M  V30 8631 H 814.029 -3.76318 5.65298 0
M  V30 8632 H 811.975 -5.23236 3.95677 0
M  V30 8633 H 811.892 -4.99819 5.67201 0
M  V30 8634 H 813.16 -5.97966 5.00057 0
M  V30 8635 N 817.389 -1.46805 -0.573248 0
M  V30 8636 C 818.299 -1.60687 -1.70929 0
M  V30 8637 C 819.315 -0.490084 -1.66956 0
M  V30 8638 O 820.491 -0.755482 -1.86693 0
M  V30 8639 C 817.556 -1.60259 -3.07438 0
M  V30 8640 C 816.617 -2.83242 -3.22603 0
M  V30 8641 C 815.85 -2.82825 -4.52599 0
M  V30 8642 O 816.073 -1.92113 -5.37074 0
M  V30 8643 O 815.007 -3.74489 -4.71213 0
M  V30 8644 H 818.833 -2.56782 -1.62163 0
M  V30 8645 H 816.418 -1.29706 -0.741399 0
M  V30 8646 H 818.3 -1.6275 -3.88704 0
M  V30 8647 H 816.975 -0.673268 -3.16621 0
M  V30 8648 H 815.882 -2.86302 -2.40794 0
M  V30 8649 H 817.215 -3.75415 -3.18315 0
M  V30 8650 N 818.867 0.818669 -1.34668 0
M  V30 8651 C 819.83 1.9114 -1.26483 0
M  V30 8652 C 820.83 1.598 -0.179044 0
M  V30 8653 O 822.02 1.6876 -0.431952 0
M  V30 8654 C 819.152 3.27285 -0.95381 0
M  V30 8655 H 820.345 1.9982 -2.23634 0
M  V30 8656 H 817.898 1.01314 -1.19018 0
M  V30 8657 H 818.633 3.24297 0.0143428 0
M  V30 8658 H 818.418 3.51416 -1.73924 0
M  V30 8659 H 819.908 4.07299 -0.921827 0
M  V30 8660 N 820.346 1.18468 1.03938 0
M  V30 8661 C 821.276 0.936389 2.13902 0
M  V30 8662 C 822.257 -0.126381 1.6963 0
M  V30 8663 O 823.442 0.0264757 1.94182 0
M  V30 8664 C 820.572 0.462729 3.44204 0
M  V30 8665 C 819.526 1.46613 4.02105 0
M  V30 8666 C 818.852 0.84994 5.27902 0
M  V30 8667 C 820.152 2.84323 4.3813 0
M  V30 8668 H 821.846 1.85602 2.3493 0
M  V30 8669 H 819.392 0.893806 1.12903 0
M  V30 8670 H 821.345 0.276382 4.20493 0
M  V30 8671 H 820.069 -0.492477 3.22866 0
M  V30 8672 H 818.728 1.63944 3.27899 0
M  V30 8673 H 818.376 -0.112493 5.02874 0
M  V30 8674 H 818.076 1.51988 5.67603 0
M  V30 8675 H 819.6 0.674152 6.06867 0
M  V30 8676 H 821.014 2.70636 5.054 0
M  V30 8677 H 819.411 3.48012 4.88884 0
M  V30 8678 H 820.481 3.37776 3.47901 0
M  V30 8679 N 821.824 -1.22873 0.986916 0
M  V30 8680 C 822.771 -2.2458 0.532215 0
M  V30 8681 C 823.741 -1.60375 -0.432322 0
M  V30 8682 O 824.926 -1.87775 -0.338416 0
M  V30 8683 C 822.066 -3.44761 -0.152864 0
M  V30 8684 C 821.179 -4.23501 0.852704 0
M  V30 8685 C 820.314 -5.31011 0.14176 0
M  V30 8686 C 819.353 -6.01464 1.1361 0
M  V30 8687 N 818.49 -7.00631 0.453871 0
M  V30 8688 H 823.33 -2.62838 1.40428 0
M  V30 8689 H 820.867 -1.29185 0.703543 0
M  V30 8690 H 822.825 -4.1333 -0.566926 0
M  V30 8691 H 821.455 -3.07284 -0.988756 0
M  V30 8692 H 820.507 -3.54286 1.38512 0
M  V30 8693 H 821.819 -4.72097 1.61014 0
M  V30 8694 H 820.973 -6.05805 -0.329337 0
M  V30 8695 H 819.712 -4.83373 -0.648229 0
M  V30 8696 H 818.717 -5.25456 1.61789 0
M  V30 8697 H 819.942 -6.5119 1.92686 0
M  V30 8698 H 817.888 -6.55235 -0.316791 0
M  V30 8699 H 817.805 -7.47204 1.14986 0
M  V30 8700 H 819.073 -7.795 0.00537823 0
M  V30 8701 N 823.302 -0.75937 -1.38099 0
M  V30 8702 C 824.551 -0.314864 -1.99227 0
M  V30 8703 C 824.864 1.1113 -1.60964 0
M  V30 8704 O 826.07 1.65657 -2.15105 0
M  V30 8705 C 824.526 -0.512001 -3.56239 0
M  V30 8706 C 824.134 -1.94762 -4.0345 0
M  V30 8707 C 825.878 -0.130497 -4.24299 0
M  V30 8708 C 823.785 -2.09301 -5.53125 0
M  V30 8709 H 822.715 -0.113978 -0.745335 0
M  V30 8710 H 825.366 -0.936736 -1.57789 0
M  V30 8711 H 823.748 0.179144 -3.95595 0
M  V30 8712 H 824.922 -2.67271 -3.75371 0
M  V30 8713 H 823.237 -2.28457 -3.48133 0
M  V30 8714 H 825.834 -0.21781 -5.34256 0
M  V30 8715 H 826.177 0.917644 -4.0606 0
M  V30 8716 H 826.71 -0.773716 -3.90203 0
M  V30 8717 H 823.449 -3.1239 -5.76275 0
M  V30 8718 H 822.969 -1.41261 -5.82928 0
M  V30 8719 H 824.648 -1.88571 -6.1891 0
M  V30 8720 N 824.78 1.49157 -0.508906 0
M  V30 8721 C 825.743 2.27784 0.25434 0
M  V30 8722 C 826.743 1.34132 0.88686 0
M  V30 8723 O 827.933 1.5722 0.750168 0
M  V30 8724 C 825.065 3.12347 1.36573 0
M  V30 8725 H 826.258 2.96718 -0.435714 0
M  V30 8726 H 823.811 1.54052 -0.264128 0
M  V30 8727 H 824.546 2.47997 2.08969 0
M  V30 8728 H 824.331 3.81213 0.917543 0
M  V30 8729 H 825.821 3.71712 1.90315 0
M  V30 8730 N 826.258 0.243083 1.55714 0
M  V30 8731 C 827.505 -0.38272 1.9885 0
M  V30 8732 C 827.833 -1.58225 1.13115 0
M  V30 8733 O 827.088 -1.94861 0.181067 0
M  V30 8734 C 827.387 -0.839621 3.47398 0
M  V30 8735 C 827.053 0.251737 4.50197 0
M  V30 8736 C 825.715 0.551487 4.78029 0
M  V30 8737 C 828.067 0.988728 5.11736 0
M  V30 8738 C 825.395 1.59237 5.64677 0
M  V30 8739 C 827.747 2.0191 5.99512 0
M  V30 8740 C 826.411 2.32554 6.2568 0
M  V30 8741 H 825.681 -0.140047 0.727645 0
M  V30 8742 H 828.328 0.35011 1.88272 0
M  V30 8743 H 826.633 -1.65159 3.55288 0
M  V30 8744 H 828.33 -1.33404 3.78159 0
M  V30 8745 H 824.92 0.00796741 4.28599 0
M  V30 8746 H 829.104 0.7704 4.90284 0
M  V30 8747 H 824.36 1.83517 5.83208 0
M  V30 8748 H 828.534 2.59511 6.46241 0
M  V30 8749 H 826.161 3.13349 6.92616 0
M  V30 8750 N 827.736 -1.57571 -0.0300757 0
M  V30 8751 C 828.984 -1.88852 -0.719666 0
M  V30 8752 C 829.305 -0.840645 -1.75949 0
M  V30 8753 O 828.575 0.125854 -1.95495 0
M  V30 8754 H 827.155 -0.696965 -0.268792 0
M  V30 8755 H 829.817 -1.949 0.00373285 0
M  V30 8756 H 828.913 -2.87695 -1.20987 0
M  V30 8757 N 829.214 0.302327 -1.54673 0
M  V30 8758 C 830.461 1.0377 -1.73891 0
M  V30 8759 C 830.789 1.87309 -0.523979 0
M  V30 8760 O 830.044 1.8936 0.494084 0
M  V30 8761 C 830.343 1.97365 -2.97963 0
M  V30 8762 C 830.009 1.29812 -4.3181 0
M  V30 8763 C 828.671 1.11121 -4.68194 0
M  V30 8764 C 831.023 0.815073 -5.14787 0
M  V30 8765 C 828.351 0.428077 -5.85136 0
M  V30 8766 C 830.703 0.145665 -6.32432 0
M  V30 8767 C 829.367 -0.0532098 -6.67479 0
M  V30 8768 H 828.637 0.379721 -0.636312 0
M  V30 8769 H 831.284 0.312708 -1.8893 0
M  V30 8770 H 829.589 2.76387 -2.777 0
M  V30 8771 H 831.286 2.54331 -3.10027 0
M  V30 8772 H 827.876 1.45366 -4.03196 0
M  V30 8773 H 832.06 0.947191 -4.87178 0
M  V30 8774 H 827.316 0.262995 -6.10834 0
M  V30 8775 H 831.49 -0.236533 -6.95998 0
M  V30 8776 H 829.117 -0.58456 -7.57949 0
M  V30 8777 N 830.692 1.47107 0.565454 0
M  V30 8778 C 831.64 1.59368 1.69424 0
M  V30 8779 C 832.634 0.461344 1.62997 0
M  V30 8780 O 833.84 0.638849 1.68282 0
M  V30 8781 H 830.215 0.501387 0.560459 0
M  V30 8782 H 832.186 2.54242 1.56217 0
M  V30 8783 C 830.935 1.61739 3.07792 0
M  V30 8784 H 830.258 2.48215 3.13416 0
M  V30 8785 H 831.698 1.7437 3.86486 0
M  V30 8786 C 830.157 0.349156 3.35086 0
M  V30 8787 O 830.687 -0.553287 3.97871 0
M  V30 8788 N 828.893 0.231723 2.89675 0
M  V30 8789 H 828.44 0.967021 2.3876 0
M  V30 8790 H 828.398 -0.615911 3.08308 0
M  V30 8791 N 832.17 -0.811516 1.35101 0
M  V30 8792 C 833.08 -1.95475 1.29718 0
M  V30 8793 C 834.096 -1.72813 0.202909 0
M  V30 8794 O 835.272 -1.96725 0.431414 0
M  V30 8795 C 832.337 -3.29975 1.06385 0
M  V30 8796 C 831.398 -3.65566 2.25077 0
M  V30 8797 C 830.631 -4.93648 2.02848 0
M  V30 8798 O 830.854 -5.617 0.992442 0
M  V30 8799 O 829.788 -5.27384 2.90087 0
M  V30 8800 H 833.614 -2.02961 2.25921 0
M  V30 8801 H 831.199 -0.948583 1.15422 0
M  V30 8802 H 833.081 -4.10506 0.951999 0
M  V30 8803 H 831.756 -3.2343 0.132294 0
M  V30 8804 H 830.663 -2.85432 2.41825 0
M  V30 8805 H 831.996 -3.7681 3.16662 0
M  V30 8806 N 833.648 -1.19017 -1.03309 0
M  V30 8807 C 835.059 -0.993206 -1.5809 0
M  V30 8808 C 835.41 0.45505 -1.9085 0
M  V30 8809 O 834.535 1.33372 -1.70414 0
M  V30 8810 C 835.13 -1.79661 -2.87241 0
M  V30 8811 C 833.689 -1.64377 -3.38611 0
M  V30 8812 C 832.836 -1.78628 -2.12102 0
M  V30 8813 H 835.787 -1.3345 -0.858879 0
M  V30 8814 H 835.808 -1.29019 -3.57958 0
M  V30 8815 H 835.32 -2.85061 -2.63366 0
M  V30 8816 H 833.421 -0.615447 -3.67482 0
M  V30 8817 H 833.534 -2.44651 -4.11926 0
M  V30 8818 H 831.898 -1.21648 -2.23772 0
M  V30 8819 H 832.681 -2.8548 -1.90673 0
M  V30 8820 N 835.127 1.22348 -0.993418 0
M  V30 8821 C 836.075 2.26315 -0.537052 0
M  V30 8822 C 837.069 1.643 0.412545 0
M  V30 8823 O 838.275 1.77729 0.285008 0
M  V30 8824 H 834.65 0.735792 -0.155286 0
M  V30 8825 H 836.621 2.62157 -1.42535 0
M  V30 8826 C 835.37 3.47449 0.132118 0
M  V30 8827 H 834.693 3.9543 -0.589519 0
M  V30 8828 H 836.133 4.21965 0.414884 0
M  V30 8829 C 834.592 3.07893 1.36761 0
M  V30 8830 O 835.122 3.17338 2.46291 0
M  V30 8831 N 833.328 2.62672 1.24305 0
M  V30 8832 H 832.875 2.55186 0.351826 0
M  V30 8833 H 832.833 2.36574 2.07076 0
M  V30 8834 N 836.605 0.766683 1.37694 0
M  V30 8835 C 837.853 0.328065 1.9942 0
M  V30 8836 C 838.174 -1.09775 1.61166 0
M  V30 8837 O 837.444 -1.75288 0.874686 0
M  V30 8838 H 836.024 0.11831 0.737572 0
M  V30 8839 H 838.686 0.983686 1.68255 0
M  V30 8840 H 837.782 0.401647 3.09505 0
M  V30 8841 N 838.083 -1.48885 0.516809 0
M  V30 8842 C 839.031 -2.31066 -0.266656 0
M  V30 8843 C 840.025 -1.40393 -0.94795 0
M  V30 8844 O 841.231 -1.57366 -0.873836 0
M  V30 8845 H 837.606 -0.744654 -0.104858 0
M  V30 8846 H 839.577 -2.95045 0.446236 0
M  V30 8847 C 838.326 -3.22131 -1.3087 0
M  V30 8848 H 837.649 -3.91839 -0.793865 0
M  V30 8849 H 839.089 -3.82544 -1.82856 0
M  V30 8850 C 837.548 -2.42825 -2.33533 0
M  V30 8851 O 838.078 -2.14364 -3.39722 0
M  V30 8852 N 836.284 -2.04559 -2.06407 0
M  V30 8853 H 835.831 -2.27905 -1.20071 0
M  V30 8854 H 835.789 -1.51807 -2.75322 0
M  V30 8855 N 839.561 -0.251338 -1.55583 0
M  V30 8856 C 840.491 0.640437 -2.24545 0
M  V30 8857 C 841.472 1.17781 -1.22726 0
M  V30 8858 O 842.657 1.21633 -1.5139 0
M  V30 8859 C 839.787 1.8355 -2.94834 0
M  V30 8860 C 838.741 1.4307 -4.03379 0
M  V30 8861 C 838.067 2.70695 -4.61116 0
M  V30 8862 C 839.367 0.59848 -5.1886 0
M  V30 8863 H 841.061 0.0653772 -2.99329 0
M  V30 8864 H 838.607 0.0300042 -1.43969 0
M  V30 8865 H 840.56 2.46505 -3.4178 0
M  V30 8866 H 839.284 2.43601 -2.17546 0
M  V30 8867 H 837.943 0.824474 -3.57209 0
M  V30 8868 H 837.591 3.28954 -3.80524 0
M  V30 8869 H 837.291 2.44332 -5.34393 0
M  V30 8870 H 838.815 3.34541 -5.10798 0
M  V30 8871 H 840.229 1.13244 -5.62004 0
M  V30 8872 H 838.626 0.430728 -5.98552 0
M  V30 8873 H 839.696 -0.38829 -4.83343 0
M  V30 8874 N 841.039 1.57585 0.0217189 0
M  V30 8875 C 841.971 2.03849 1.04777 0
M  V30 8876 C 842.984 0.952558 1.32023 0
M  V30 8877 O 844.173 1.22974 1.29381 0
M  V30 8878 C 841.273 2.40504 2.3877 0
M  V30 8879 C 840.446 3.71566 2.30775 0
M  V30 8880 C 839.505 3.95329 3.47277 0
M  V30 8881 O 838.531 4.66289 3.26441 0
M  V30 8882 N 839.733 3.41536 4.69397 0
M  V30 8883 H 842.498 2.92491 0.653395 0
M  V30 8884 H 840.059 1.60538 0.209527 0
M  V30 8885 H 842.051 2.53532 3.15442 0
M  V30 8886 H 840.621 1.57494 2.70027 0
M  V30 8887 H 839.841 3.68822 1.39155 0
M  V30 8888 H 841.129 4.5753 2.22584 0
M  V30 8889 H 840.527 2.84033 4.89226 0
M  V30 8890 H 839.084 3.59932 5.43408 0
M  V30 8891 N 842.517 -0.29412 1.54831 0
M  V30 8892 C 843.747 -1.04572 1.7818 0
M  V30 8893 C 844.155 -1.81187 0.544776 0
M  V30 8894 O 843.498 -1.769 -0.495169 0
M  V30 8895 C 843.56 -2.06748 2.94101 0
M  V30 8896 C 843.224 -1.49265 4.31936 0
M  V30 8897 C 844.221 -0.919136 5.11711 0
M  V30 8898 C 841.906 -1.52621 4.78552 0
M  V30 8899 C 843.9 -0.386824 6.36225 0
M  V30 8900 C 841.587 -0.990031 6.03027 0
M  V30 8901 C 842.585 -0.421315 6.81699 0
M  V30 8902 O 842.273 0.106713 8.03829 0
M  V30 8903 H 842.005 -0.31559 0.597812 0
M  V30 8904 H 844.559 -0.336817 2.0262 0
M  V30 8905 H 842.789 -2.81339 2.65303 0
M  V30 8906 H 844.478 -2.67865 3.04964 0
M  V30 8907 H 845.244 -0.886062 4.76837 0
M  V30 8908 H 841.123 -1.95826 4.17341 0
M  V30 8909 H 844.667 0.0577248 6.97576 0
M  V30 8910 H 840.564 -1.02027 6.37386 0
M  V30 8911 H 841.332 -0.00593526 8.185 0
M  V30 8912 N 843.995 -1.47404 -0.557645 0
M  V30 8913 C 844.927 -1.55917 -1.67995 0
M  V30 8914 C 845.94 -0.445411 -1.56588 0
M  V30 8915 O 847.129 -0.714999 -1.63554 0
M  V30 8916 C 844.229 -1.44697 -3.06457 0
M  V30 8917 C 843.402 -2.70633 -3.43622 0
M  V30 8918 C 842.461 -2.53256 -4.61246 0
M  V30 8919 O 841.487 -3.27068 -4.65849 0
M  V30 8920 N 842.689 -1.61053 -5.57711 0
M  V30 8921 H 845.454 -2.52694 -1.61139 0
M  V30 8922 H 843.015 -1.43778 -0.744271 0
M  V30 8923 H 845.007 -1.30806 -3.82978 0
M  V30 8924 H 843.577 -0.560039 -3.07542 0
M  V30 8925 H 842.797 -2.99288 -2.56555 0
M  V30 8926 H 844.085 -3.5424 -3.65228 0
M  V30 8927 H 843.483 -1.00235 -5.56749 0
M  V30 8928 H 842.04 -1.53115 -6.33561 0
M  V30 8929 N 845.473 0.80434 -1.35529 0
M  V30 8930 C 846.721 1.55845 -1.28673 0
M  V30 8931 C 847.042 1.94511 0.137976 0
M  V30 8932 O 846.312 1.63775 1.07492 0
M  V30 8933 H 844.892 0.577931 -0.473291 0
M  V30 8934 H 847.554 0.959293 -1.69657 0
M  V30 8935 H 846.65 2.47285 -1.90411 0
M  V30 8936 N 846.951 1.19563 1.02676 0
M  V30 8937 C 847.898 0.935291 2.11 0
M  V30 8938 C 848.868 -0.130685 1.65585 0
M  V30 8939 O 850.053 0.0119062 1.90796 0
M  V30 8940 C 847.193 0.482384 3.41712 0
M  V30 8941 C 846.306 1.61537 4.00662 0
M  V30 8942 C 845.441 1.11378 5.19392 0
M  V30 8943 C 844.48 2.22052 5.70403 0
M  V30 8944 N 843.617 1.73185 6.80405 0
M  V30 8945 H 848.457 1.86275 2.32606 0
M  V30 8946 H 845.994 0.928656 1.14081 0
M  V30 8947 H 847.952 0.20118 4.16715 0
M  V30 8948 H 846.582 -0.408086 3.2021 0
M  V30 8949 H 845.634 2.01173 3.22852 0
M  V30 8950 H 846.946 2.44912 4.34534 0
M  V30 8951 H 846.1 0.787935 6.01562 0
M  V30 8952 H 844.839 0.249789 4.8706 0
M  V30 8953 H 843.844 2.55465 4.86845 0
M  V30 8954 H 845.069 3.08911 6.04774 0
M  V30 8955 H 843.015 0.890973 6.49921 0
M  V30 8956 H 842.932 2.50148 7.13416 0
M  V30 8957 H 844.2 1.4357 7.66164 0
M  V30 8958 N 848.429 -1.21819 0.999893 0
M  V30 8959 C 849.706 -1.86318 0.595384 0
M  V30 8960 C 850.086 -1.8965 -0.927143 0
M  V30 8961 O 849.434 -1.3921 -1.81199 0
M  V30 8962 C 849.644 -3.26837 1.22387 0
M  V30 8963 C 850.992 -4.03272 1.32878 0
M  V30 8964 O 852.016 -3.36129 1.1788 0
M  V30 8965 O 850.875 -5.23477 1.56952 0
M  V30 8966 H 847.969 -0.801638 0.203238 0
M  V30 8967 H 850.515 -1.29542 1.09622 0
M  V30 8968 H 849.287 -3.19084 2.26497 0
M  V30 8969 H 848.91 -3.91226 0.709069 0
M  V30 8970 N 849.908 -0.773975 -1.37286 0
M  V30 8971 C 851.157 -0.335977 -1.98882 0
M  V30 8972 C 851.47 1.09416 -1.62134 0
M  V30 8973 O 852.676 1.63366 -2.1685 0
M  V30 8974 C 851.132 -0.549756 -3.55676 0
M  V30 8975 C 850.74 -1.9903 -4.01361 0
M  V30 8976 C 852.484 -0.175493 -4.24137 0
M  V30 8977 C 850.391 -2.15156 -5.50874 0
M  V30 8978 H 849.321 -0.121877 -0.744085 0
M  V30 8979 H 851.972 -0.953419 -1.56787 0
M  V30 8980 H 850.354 0.137175 -3.95762 0
M  V30 8981 H 851.528 -2.71237 -3.72515 0
M  V30 8982 H 849.843 -2.32137 -3.4569 0
M  V30 8983 H 852.44 -0.274463 -5.33995 0
M  V30 8984 H 852.783 0.874524 -4.07011 0
M  V30 8985 H 853.316 -0.815058 -3.89361 0
M  V30 8986 H 850.055 -3.18485 -5.72929 0
M  V30 8987 H 849.575 -1.47435 -5.81397 0
M  V30 8988 H 851.254 -1.95124 -6.16876 0
M  V30 8989 N 851.386 1.48609 -0.524698 0
M  V30 8990 C 852.614 2.06899 0.00742946 0
M  V30 8991 C 853.029 1.38196 1.28637 0
M  V30 8992 O 852.386 0.467771 1.76403 0
M  V30 8993 C 852.437 3.60699 0.240548 0
M  V30 8994 O 852.158 4.26821 -0.987715 0
M  V30 8995 C 853.659 4.35769 0.813652 0
M  V30 8996 H 850.879 0.670278 -0.0311294 0
M  V30 8997 H 853.423 1.91071 -0.728832 0
M  V30 8998 H 851.578 3.76149 0.926845 0
M  V30 8999 H 851.992 5.18889 -0.765175 0
M  V30 9000 H 853.466 5.44174 0.926219 0
M  V30 9001 H 853.943 3.9984 1.81728 0
M  V30 9002 H 854.549 4.24983 0.164086 0
M  V30 9003 N 852.864 0.259585 1.55447 0
M  V30 9004 C 853.774 -0.645026 2.25558 0
M  V30 9005 C 854.79 -1.18291 1.27606 0
M  V30 9006 O 855.966 -1.21649 1.6051 0
M  V30 9007 C 853.031 -1.81964 2.9511 0
M  V30 9008 C 852.092 -1.31997 4.08504 0
M  V30 9009 C 851.325 -2.43861 4.74729 0
M  V30 9010 O 851.548 -3.62876 4.40088 0
M  V30 9011 O 850.482 -2.12898 5.6299 0
M  V30 9012 H 854.308 -0.0775399 3.03601 0
M  V30 9013 H 851.893 0.0275859 1.49375 0
M  V30 9014 H 853.775 -2.50485 3.38873 0
M  V30 9015 H 852.45 -2.37451 2.19997 0
M  V30 9016 H 851.357 -0.601676 3.6923 0
M  V30 9017 H 852.69 -0.811045 4.85472 0
M  V30 9018 N 854.342 -1.57594 -0.0133615 0
M  V30 9019 C 855.589 -1.8998 -0.70098 0
M  V30 9020 C 855.917 -0.858802 -1.74513 0
M  V30 9021 O 855.172 0.138209 -1.95211 0
M  V30 9022 C 855.471 -3.29121 -1.39336 0
M  V30 9023 C 855.137 -4.48298 -0.483687 0
M  V30 9024 C 853.799 -4.80635 -0.233186 0
M  V30 9025 C 856.151 -5.21003 0.143426 0
M  V30 9026 C 853.479 -5.83055 0.652943 0
M  V30 9027 C 855.831 -6.24366 1.01735 0
M  V30 9028 C 854.495 -6.55168 1.27716 0
M  V30 9029 H 853.765 -0.695187 -0.256507 0
M  V30 9030 H 856.412 -1.9146 0.0392965 0
M  V30 9031 H 854.717 -3.23703 -2.20735 0
M  V30 9032 H 856.414 -3.51433 -1.93121 0
M  V30 9033 H 853.004 -4.23024 -0.689092 0
M  V30 9034 H 857.188 -4.96286 -0.0371139 0
M  V30 9035 H 852.444 -6.05288 0.862379 0
M  V30 9036 H 856.618 -6.79839 1.5097 0
M  V30 9037 H 854.245 -7.34351 1.9655 0
M  V30 9038 N 855.82 0.285905 -1.54985 0
M  V30 9039 C 857.097 1.0397 -1.65679 0
M  V30 9040 C 857.477 2.04725 -0.514851 0
M  V30 9041 O 856.825 2.23257 0.486663 0
M  V30 9042 C 857.035 1.70807 -3.04345 0
M  V30 9043 C 858.383 2.22447 -3.61666 0
M  V30 9044 O 859.407 1.80815 -3.06895 0
M  V30 9045 O 858.266 2.98773 -4.57599 0
M  V30 9046 H 855.36 0.481473 -0.672394 0
M  V30 9047 H 857.906 0.282789 -1.67327 0
M  V30 9048 H 856.678 0.977271 -3.789 0
M  V30 9049 H 856.301 2.53217 -3.06541 0
M  V30 9050 N 857.298 1.47698 0.54982 0
M  V30 9051 C 858.545 1.54702 1.30665 0
M  V30 9052 C 858.873 0.212418 1.93337 0
M  V30 9053 O 858.128 -0.79543 1.78805 0
M  V30 9054 C 858.427 2.61903 2.4319 0
M  V30 9055 C 858.093 4.04953 1.98302 0
M  V30 9056 C 856.755 4.43893 1.85776 0
M  V30 9057 C 859.107 4.94682 1.64133 0
M  V30 9058 C 856.435 5.70387 1.37388 0
M  V30 9059 C 858.787 6.21646 1.17214 0
M  V30 9060 C 857.451 6.5946 1.0329 0
M  V30 9061 H 856.721 0.566096 0.478139 0
M  V30 9062 H 859.368 1.8133 0.615767 0
M  V30 9063 H 857.673 2.2906 3.17866 0
M  V30 9064 H 859.37 2.64543 3.0136 0
M  V30 9065 H 855.96 3.74191 2.08995 0
M  V30 9066 H 860.144 4.65291 1.72679 0
M  V30 9067 H 855.4 5.98427 1.25278 0
M  V30 9068 H 859.574 6.90581 0.898391 0
M  V30 9069 H 857.201 7.57367 0.655735 0
M  V30 9070 N 858.776 -0.797141 1.35954 0
M  V30 9071 C 859.724 -1.93084 1.29697 0
M  V30 9072 C 860.718 -1.68329 0.190152 0
M  V30 9073 O 861.924 -1.7643 0.3567 0
M  V30 9074 H 858.299 -0.634531 0.403577 0
M  V30 9075 H 860.27 -1.95481 2.25455 0
M  V30 9076 C 859.019 -3.29996 1.09536 0
M  V30 9077 H 858.342 -3.49607 1.93946 0
M  V30 9078 H 859.782 -4.09696 1.09202 0
M  V30 9079 C 858.241 -3.36304 -0.200381 0
M  V30 9080 O 858.771 -3.83579 -1.19291 0
M  V30 9081 N 856.977 -2.89587 -0.242406 0
M  V30 9082 H 856.524 -2.51307 0.565897 0
M  V30 9083 H 856.482 -2.94189 -1.10906 0
M  V30 9084 N 860.254 -1.20106 -1.0204 0
M  V30 9085 C 861.501 -1.00889 -1.75578 0
M  V30 9086 C 861.829 0.459415 -1.88996 0
M  V30 9087 O 861.084 1.35735 -1.40977 0
M  V30 9088 C 861.383 -1.63308 -3.17908 0
M  V30 9089 C 861.049 -3.13091 -3.24476 0
M  V30 9090 C 859.711 -3.53968 -3.25976 0
M  V30 9091 C 862.063 -4.09093 -3.22944 0
M  V30 9092 C 859.391 -4.89381 -3.2361 0
M  V30 9093 C 861.743 -5.44447 -3.22119 0
M  V30 9094 C 860.407 -5.84742 -3.2192 0
M  V30 9095 H 859.677 -0.36918 -0.642485 0
M  V30 9096 H 862.324 -1.49475 -1.19706 0
M  V30 9097 H 860.629 -1.06974 -3.76914 0
M  V30 9098 H 862.326 -1.45958 -3.73493 0
M  V30 9099 H 858.916 -2.80526 -3.24042 0
M  V30 9100 H 863.1 -3.78549 -3.20958 0
M  V30 9101 H 858.356 -5.1987 -3.21785 0
M  V30 9102 H 862.53 -6.18584 -3.19885 0
M  V30 9103 H 860.157 -6.89642 -3.19841 0
M  V30 9104 N 861.732 1.21287 -1.00634 0
M  V30 9105 C 863.009 1.86 -0.605257 0
M  V30 9106 C 863.389 1.90139 0.917072 0
M  V30 9107 O 862.737 1.40169 1.80458 0
M  V30 9108 C 862.947 3.26183 -1.24119 0
M  V30 9109 C 864.295 4.02562 -1.35015 0
M  V30 9110 O 865.319 3.35499 -1.19661 0
M  V30 9111 O 864.178 5.22638 -1.59726 0
M  V30 9112 H 861.272 0.800549 -0.207486 0
M  V30 9113 H 863.818 1.28959 -1.10307 0
M  V30 9114 H 862.59 3.17878 -2.28186 0
M  V30 9115 H 862.213 3.90845 -0.729807 0
M  V30 9116 N 863.21 0.781244 1.36873 0
M  V30 9117 C 864.142 0.132075 2.28819 0
M  V30 9118 C 865.155 -0.653925 1.49089 0
M  V30 9119 O 866.344 -0.490453 1.7163 0
M  V30 9120 C 863.444 -0.836297 3.28419 0
M  V30 9121 C 862.617 -0.102097 4.37281 0
M  V30 9122 C 861.676 -0.985217 5.16894 0
M  V30 9123 O 860.702 -0.445478 5.67454 0
M  V30 9124 N 861.904 -2.31043 5.3254 0
M  V30 9125 H 864.669 0.921838 2.85171 0
M  V30 9126 H 862.23 0.634427 1.48952 0
M  V30 9127 H 864.222 -1.43074 3.78566 0
M  V30 9128 H 862.792 -1.52698 2.72767 0
M  V30 9129 H 862.012 0.67335 3.88407 0
M  V30 9130 H 863.3 0.404862 5.07187 0
M  V30 9131 H 862.698 -2.77318 4.93063 0
M  V30 9132 H 861.255 -2.85472 5.8596 0
M  V30 9133 N 864.689 -1.48329 0.532571 0
M  V30 9134 C 865.621 -2.27652 -0.265931 0
M  V30 9135 C 866.634 -1.35522 -0.902083 0
M  V30 9136 O 867.823 -1.60552 -0.780088 0
M  V30 9137 C 864.923 -3.0899 -1.39207 0
M  V30 9138 C 864.096 -4.28915 -0.857349 0
M  V30 9139 C 863.155 -4.92044 -1.86493 0
M  V30 9140 O 862.181 -5.51181 -1.42084 0
M  V30 9141 N 863.383 -4.84518 -3.19723 0
M  V30 9142 H 866.148 -2.96821 0.414389 0
M  V30 9143 H 863.709 -1.57684 0.367066 0
M  V30 9144 H 865.701 -3.48091 -2.06433 0
M  V30 9145 H 864.271 -2.42224 -1.97601 0
M  V30 9146 H 863.491 -3.94199 -0.00901765 0
M  V30 9147 H 864.779 -5.0654 -0.479025 0
M  V30 9148 H 864.177 -4.37628 -3.58467 0
M  V30 9149 H 862.734 -5.27712 -3.82575 0
M  V30 9150 N 866.167 -0.267825 -1.55308 0
M  V30 9151 C 867.395 0.354587 -2.03839 0
M  V30 9152 C 867.81 1.50007 -1.14644 0
M  V30 9153 O 867.167 1.81752 -0.165055 0
M  V30 9154 C 867.218 0.84254 -3.51544 0
M  V30 9155 O 866.939 -0.257318 -4.37344 0
M  V30 9156 C 868.44 1.53351 -4.15931 0
M  V30 9157 H 865.66 0.0818131 -0.665994 0
M  V30 9158 H 868.204 -0.397795 -2.00594 0
M  V30 9159 H 866.359 1.54503 -3.55257 0
M  V30 9160 H 866.773 0.116593 -5.2437 0
M  V30 9161 H 868.247 1.82643 -5.20908 0
M  V30 9162 H 868.724 2.4626 -3.63666 0
M  V30 9163 H 869.33 0.87506 -4.162 0
M  V30 9164 N 867.645 1.57599 0.00500368 0
M  V30 9165 C 868.87 1.95026 0.705663 0
M  V30 9166 C 869.295 0.869643 1.6679 0
M  V30 9167 O 868.653 -0.172659 1.80476 0
M  V30 9168 C 868.701 3.31545 1.4181 0
M  V30 9169 O 867.805 3.25495 2.53232 0
M  V30 9170 H 867.146 0.636808 0.188074 0
M  V30 9171 H 869.676 2.04547 -0.046696 0
M  V30 9172 H 869.686 3.66996 1.78265 0
M  V30 9173 H 868.361 4.09751 0.712543 0
M  V30 9174 H 866.938 3.01714 2.19142 0
M  V30 9175 N 869.123 -0.277682 1.55134 0
M  V30 9176 C 870.055 -1.36531 1.84098 0
M  V30 9177 C 871.068 -1.45756 0.725194 0
M  V30 9178 O 872.257 -1.47656 1.00299 0
M  V30 9179 C 869.357 -2.74701 1.98476 0
M  V30 9180 C 868.53 -2.88125 3.29094 0
M  V30 9181 C 867.589 -4.0694 3.33596 0
M  V30 9182 O 866.615 -3.9792 4.06999 0
M  V30 9183 N 867.817 -5.18687 2.60661 0
M  V30 9184 H 870.582 -1.12032 2.77973 0
M  V30 9185 H 868.143 -0.467793 1.54995 0
M  V30 9186 H 870.135 -3.52471 1.98863 0
M  V30 9187 H 868.705 -2.92043 1.11488 0
M  V30 9188 H 867.925 -1.97277 3.41285 0
M  V30 9189 H 869.213 -2.94021 4.15246 0
M  V30 9190 H 868.611 -5.28901 2.00699 0
M  V30 9191 H 867.168 -5.94705 2.66776 0
M  V30 9192 N 870.601 -1.47988 -0.541979 0
M  V30 9193 C 871.549 -1.62044 -1.66867 0
M  V30 9194 C 872.543 -0.487217 -1.62242 0
M  V30 9195 O 873.749 -0.66554 -1.67244 0
M  V30 9196 H 870.124 -0.51024 -0.552412 0
M  V30 9197 H 872.095 -2.56695 -1.52153 0
M  V30 9198 C 870.844 -1.66615 -3.0518 0
M  V30 9199 H 870.167 -2.5317 -3.09427 0
M  V30 9200 H 871.607 -1.80496 -3.83663 0
M  V30 9201 C 870.066 -0.402421 -3.34488 0
M  V30 9202 O 870.596 0.48992 -3.98701 0
M  V30 9203 N 868.802 -0.277778 -2.89269 0
M  V30 9204 H 868.349 -1.00488 -2.37192 0
M  V30 9205 H 868.307 0.566784 -3.09249 0
M  V30 9206 N 872.079 0.78992 -1.36375 0
M  V30 9207 C 873.328 1.54296 -1.29906 0
M  V30 9208 C 873.641 1.95234 0.119651 0
M  V30 9209 O 874.847 2.69762 0.306708 0
M  V30 9210 C 873.303 2.78533 -2.27919 0
M  V30 9211 C 872.911 2.44767 -3.75224 0
M  V30 9212 C 874.655 3.56516 -2.30427 0
M  V30 9213 C 872.562 3.65397 -4.65015 0
M  V30 9214 H 871.492 0.579214 -0.482729 0
M  V30 9215 H 874.143 0.866845 -1.61735 0
M  V30 9216 H 872.525 3.47941 -1.89084 0
M  V30 9217 H 873.699 1.83259 -4.22792 0
M  V30 9218 H 872.014 1.79996 -3.75487 0
M  V30 9219 H 874.611 4.46143 -2.94722 0
M  V30 9220 H 874.954 3.95063 -1.31266 0
M  V30 9221 H 875.487 2.94087 -2.67876 0
M  V30 9222 H 872.226 3.31946 -5.65236 0
M  V30 9223 H 871.746 4.26072 -4.22164 0
M  V30 9224 H 873.425 4.32431 -4.81261 0
M  V30 9225 N 873.557 1.20646 1.01402 0
M  V30 9226 C 874.504 0.957618 2.09996 0
M  V30 9227 C 875.474 -0.113115 1.65714 0
M  V30 9228 O 876.659 0.032142 1.90773 0
M  V30 9229 C 873.799 0.5186 3.41181 0
M  V30 9230 C 872.912 1.65777 3.98926 0
M  V30 9231 C 872.047 1.16881 5.18182 0
M  V30 9232 C 871.086 2.2809 5.68015 0
M  V30 9233 N 870.223 1.80392 6.7853 0
M  V30 9234 H 875.063 1.88732 2.30617 0
M  V30 9235 H 872.6 0.940703 1.13089 0
M  V30 9236 H 874.558 0.245367 4.16478 0
M  V30 9237 H 873.188 -0.3741 3.20625 0
M  V30 9238 H 872.24 2.04586 3.207 0
M  V30 9239 H 873.552 2.49507 4.31912 0
M  V30 9240 H 872.706 0.851694 6.00692 0
M  V30 9241 H 871.445 0.301434 4.86768 0
M  V30 9242 H 870.45 2.60614 4.84108 0
M  V30 9243 H 871.675 3.15308 6.01463 0
M  V30 9244 H 869.621 0.959856 6.4894 0
M  V30 9245 H 869.538 2.57701 7.10722 0
M  V30 9246 H 870.806 1.51688 7.64598 0
M  V30 9247 N 875.035 -1.20752 1.01276 0
M  V30 9248 C 875.983 -2.25432 0.572989 0
M  V30 9249 C 876.977 -1.64935 -0.386354 0
M  V30 9250 O 878.183 -1.7816 -0.256696 0
M  V30 9251 H 874.558 -0.733229 0.166972 0
M  V30 9252 H 876.529 -2.59856 1.46687 0
M  V30 9253 C 875.278 -3.47615 -0.0768249 0
M  V30 9254 H 874.601 -3.94442 0.652354 0
M  V30 9255 H 876.041 -4.22572 -0.3477 0
M  V30 9256 C 874.5 -3.1003 -1.31845 0
M  V30 9257 O 875.03 -3.21216 -2.41211 0
M  V30 9258 N 873.236 -2.64616 -1.20111 0
M  V30 9259 H 872.783 -2.55714 -0.311184 0
M  V30 9260 H 872.741 -2.39838 -2.03286 0
M  V30 9261 N 876.513 -0.788492 -1.36457 0
M  V30 9262 C 877.445 -0.144208 -2.28746 0
M  V30 9263 C 878.458 0.646009 -1.49434 0
M  V30 9264 O 879.647 0.481344 -1.71888 0
M  V30 9265 C 876.747 0.818869 -3.28858 0
M  V30 9266 C 875.92 0.0789055 -4.37329 0
M  V30 9267 C 874.979 0.957791 -5.1741 0
M  V30 9268 O 874.005 0.415378 -5.67682 0
M  V30 9269 N 875.207 2.28216 -5.33758 0
M  V30 9270 H 877.972 -0.936949 -2.84678 0
M  V30 9271 H 875.533 -0.642317 -1.48613 0
M  V30 9272 H 877.525 1.41065 -3.79319 0
M  V30 9273 H 876.095 1.51249 -2.73573 0
M  V30 9274 H 875.315 -0.693939 -3.88044 0
M  V30 9275 H 876.603 -0.431753 -5.06965 0
M  V30 9276 H 876.001 2.747 -4.94527 0
M  V30 9277 H 874.558 2.8236 -5.87466 0
M  V30 9278 N 877.991 1.48044 -0.54043 0
M  V30 9279 C 878.921 2.32597 0.205178 0
M  V30 9280 C 879.902 1.42748 0.925041 0
M  V30 9281 O 881.087 1.71624 0.908784 0
M  V30 9282 C 878.217 3.24175 1.24612 0
M  V30 9283 C 877.171 4.23131 0.64376 0
M  V30 9284 C 876.497 5.03915 1.78812 0
M  V30 9285 C 877.797 5.20831 -0.39144 0
M  V30 9286 H 879.491 2.95184 -0.500676 0
M  V30 9287 H 877.037 1.41948 -0.242225 0
M  V30 9288 H 878.99 3.82158 1.77576 0
M  V30 9289 H 877.714 2.59608 1.98169 0
M  V30 9290 H 876.373 3.66349 0.135554 0
M  V30 9291 H 876.021 4.35765 2.51232 0
M  V30 9292 H 875.721 5.709 1.39094 0
M  V30 9293 H 877.245 5.64753 2.32134 0
M  V30 9294 H 878.659 5.73277 0.0515064 0
M  V30 9295 H 877.056 5.95926 -0.706569 0
M  V30 9296 H 878.126 4.6733 -1.29345 0
M  V30 9297 N 879.47 0.276058 1.55163 0
M  V30 9298 C 880.433 -0.597924 2.21263 0
M  V30 9299 C 881.433 -1.0806 1.19078 0
M  V30 9300 O 882.623 -0.980626 1.43977 0
M  V30 9301 C 879.755 -1.82503 2.87933 0
M  V30 9302 H 880.948 -0.0207769 2.99893 0
M  V30 9303 H 878.501 0.0266823 1.56277 0
M  V30 9304 H 879.236 -2.44266 2.13318 0
M  V30 9305 H 879.021 -1.48683 3.62816 0
M  V30 9306 H 880.511 -2.44651 3.38431 0
M  V30 9307 N 880.948 -1.576 0.00335426 0
M  V30 9308 C 881.858 -2.12067 -1.00322 0
M  V30 9309 C 882.874 -1.06672 -1.37467 0
M  V30 9310 O 884.05 -1.38592 -1.46131 0
M  V30 9311 C 881.115 -2.61593 -2.27531 0
M  V30 9312 C 880.176 -3.81602 -1.96668 0
M  V30 9313 C 879.409 -4.28756 -3.17811 0
M  V30 9314 O 879.632 -3.75222 -4.2961 0
M  V30 9315 O 878.566 -5.20877 -3.01613 0
M  V30 9316 H 882.392 -2.98299 -0.570199 0
M  V30 9317 H 879.977 -1.47835 -0.215682 0
M  V30 9318 H 881.859 -2.93631 -3.02256 0
M  V30 9319 H 880.534 -1.78457 -2.70065 0
M  V30 9320 H 879.441 -3.54531 -1.19408 0
M  V30 9321 H 880.774 -4.65822 -1.58968 0
M  V30 9322 N 882.426 0.269451 -1.5528 0
M  V30 9323 C 883.356 1.33729 -1.91413 0
M  V30 9324 C 884.337 1.51348 -0.776391 0
M  V30 9325 O 885.522 1.64332 -1.03482 0
M  V30 9326 C 882.652 2.69618 -2.18914 0
M  V30 9327 C 881.606 2.66725 -3.34726 0
M  V30 9328 C 880.932 4.06199 -3.47716 0
M  V30 9329 C 882.232 2.25684 -4.71025 0
M  V30 9330 H 883.926 1.03736 -2.80854 0
M  V30 9331 H 881.472 0.497579 -1.3513 0
M  V30 9332 H 883.425 3.44436 -2.42779 0
M  V30 9333 H 882.149 3.01201 -1.26275 0
M  V30 9334 H 880.808 1.94365 -3.10834 0
M  V30 9335 H 880.456 4.3501 -2.52537 0
M  V30 9336 H 880.156 4.05157 -4.25583 0
M  V30 9337 H 881.68 4.8275 -3.73877 0
M  V30 9338 H 883.094 2.90225 -4.94411 0
M  V30 9339 H 881.491 2.35797 -5.51833 0
M  V30 9340 H 882.561 1.20819 -4.69607 0
M  V30 9341 N 883.904 1.48273 0.534124 0
M  V30 9342 C 884.852 1.62926 1.66005 0
M  V30 9343 C 885.846 0.495814 1.61982 0
M  V30 9344 O 887.052 0.6744 1.66889 0
M  V30 9345 H 883.427 0.513163 0.549698 0
M  V30 9346 H 885.398 2.57498 1.50789 0
M  V30 9347 C 884.147 1.68231 3.04292 0
M  V30 9348 H 883.47 2.54807 3.0808 0
M  V30 9349 H 884.91 1.82528 3.827 0
M  V30 9350 C 883.369 0.420154 3.3427 0
M  V30 9351 O 883.899 -0.468769 3.98955 0
M  V30 9352 N 882.105 0.293115 2.89118 0
M  V30 9353 H 881.652 1.01745 2.36655 0
M  V30 9354 H 881.61 -0.550376 3.09545 0
M  V30 9355 N 885.382 -0.782676 1.36792 0
M  V30 9356 C 886.345 -1.8772 1.31507 0
M  V30 9357 C 887.345 -1.59269 0.221349 0
M  V30 9358 O 888.535 -1.67555 0.476544 0
M  V30 9359 C 885.667 -3.24641 1.04025 0
M  V30 9360 H 886.86 -1.9382 2.28853 0
M  V30 9361 H 884.413 -0.981226 1.21662 0
M  V30 9362 H 885.148 -3.24221 0.0716439 0
M  V30 9363 H 884.933 -3.46681 1.8318 0
M  V30 9364 H 886.423 -4.04711 1.02949 0
M  V30 9365 N 886.86 -1.21182 -1.00761 0
M  V30 9366 C 888.088 -1.05335 -1.78079 0
M  V30 9367 C 888.503 0.396988 -1.84579 0
M  V30 9368 O 887.86 1.27548 -1.30529 0
M  V30 9369 C 887.911 -1.64089 -3.22113 0
M  V30 9370 O 887.632 -3.03448 -3.15992 0
M  V30 9371 C 889.133 -1.53318 -4.15943 0
M  V30 9372 H 886.353 -0.37005 -0.559736 0
M  V30 9373 H 888.897 -1.60463 -1.26775 0
M  V30 9374 H 887.052 -1.13059 -3.70535 0
M  V30 9375 H 887.466 -3.31492 -4.06465 0
M  V30 9376 H 888.94 -1.99174 -5.14814 0
M  V30 9377 H 889.417 -0.487166 -4.3649 0
M  V30 9378 H 890.023 -2.03582 -3.73409 0
M  V30 9379 N 888.338 1.20213 -1.01915 0
M  V30 9380 C 889.286 2.25125 -0.584936 0
M  V30 9381 C 890.28 1.65138 0.377602 0
M  V30 9382 O 891.486 1.78294 0.247245 0
M  V30 9383 H 887.861 0.732333 -0.170858 0
M  V30 9384 H 889.832 2.59075 -1.48063 0
M  V30 9385 C 888.581 3.47651 0.058389 0
M  V30 9386 H 887.904 3.9409 -0.673263 0
M  V30 9387 H 889.344 4.2275 0.325285 0
M  V30 9388 C 887.803 3.10725 1.30199 0
M  V30 9389 O 888.333 3.22491 2.39505 0
M  V30 9390 N 886.539 2.6525 1.18706 0
M  V30 9391 H 886.086 2.55875 0.297618 0
M  V30 9392 H 886.044 2.40913 2.02011 0
M  V30 9393 N 889.816 0.795718 1.36037 0
M  V30 9394 C 891.065 0.367575 1.98322 0
M  V30 9395 C 891.378 -1.06823 1.63854 0
M  V30 9396 O 892.584 -1.59895 2.19421 0
M  V30 9397 C 891.04 0.606272 3.54757 0
M  V30 9398 C 890.648 2.0539 3.98144 0
M  V30 9399 C 892.392 0.242947 4.23804 0
M  V30 9400 C 890.299 2.23893 5.47381 0
M  V30 9401 H 889.229 0.133699 0.742052 0
M  V30 9402 H 891.88 0.978242 1.5525 0
M  V30 9403 H 890.262 -0.0741957 3.9593 0
M  V30 9404 H 891.436 2.77129 3.68152 0
M  V30 9405 H 889.751 2.37607 3.41953 0
M  V30 9406 H 892.348 0.359382 5.33491 0
M  V30 9407 H 892.691 -0.809661 4.08351 0
M  V30 9408 H 893.224 0.876899 3.88015 0
M  V30 9409 H 889.963 3.27559 5.6779 0
M  V30 9410 H 889.483 1.56666 5.78978 0
M  V30 9411 H 891.162 2.04914 6.13693 0
M  V30 9412 N 891.294 -1.47756 0.548274 0
M  V30 9413 C 892.524 -2.06584 0.0254503 0
M  V30 9414 C 892.932 -1.40268 -1.26971 0
M  V30 9415 O 892.275 -0.49019 -1.77039 0
M  V30 9416 C 892.337 -3.58628 -0.250301 0
M  V30 9417 C 892.001 -4.4693 0.954087 0
M  V30 9418 C 892.998 -4.85592 1.85733 0
M  V30 9419 C 890.683 -4.88573 1.16624 0
M  V30 9420 C 892.677 -5.64686 2.95648 0
M  V30 9421 C 890.364 -5.67435 2.2685 0
M  V30 9422 C 891.362 -6.05401 3.16194 0
M  V30 9423 O 891.05 -6.82676 4.24511 0
M  V30 9424 H 890.782 -0.67489 0.0387264 0
M  V30 9425 H 893.336 -1.90876 0.758663 0
M  V30 9426 H 891.566 -3.72516 -1.03771 0
M  V30 9427 H 893.255 -3.9951 -0.717419 0
M  V30 9428 H 894.021 -4.54026 1.70544 0
M  V30 9429 H 889.9 -4.58494 0.480039 0
M  V30 9430 H 893.444 -5.9424 3.65411 0
M  V30 9431 H 889.341 -5.98413 2.42016 0
M  V30 9432 H 890.109 -7.01057 4.22447 0
M  V30 9433 N 892.772 -0.284283 -1.55015 0
M  V30 9434 C 894 0.332948 -2.04203 0
M  V30 9435 C 894.415 1.48783 -1.16229 0
M  V30 9436 O 893.772 1.81567 -0.184323 0
M  V30 9437 C 893.823 0.805207 -3.52418 0
M  V30 9438 O 893.544 -0.303689 -4.37046 0
M  V30 9439 C 895.045 1.48931 -4.17534 0
M  V30 9440 H 892.265 0.0747447 -0.666824 0
M  V30 9441 H 894.809 -0.419048 -2.00161 0
M  V30 9442 H 892.964 1.50727 -3.56876 0
M  V30 9443 H 893.378 0.0609703 -5.24465 0
M  V30 9444 H 894.852 1.77108 -5.22816 0
M  V30 9445 H 895.329 2.42389 -3.66257 0
M  V30 9446 H 895.935 0.830867 -4.17105 0
M  V30 9447 N 894.251 1.57596 -0.0117121 0
M  V30 9448 C 895.497 1.91355 0.671661 0
M  V30 9449 C 895.83 0.886818 1.72769 0
M  V30 9450 O 895.105 -0.0928813 1.94278 0
M  V30 9451 C 895.388 3.35657 1.30409 0
M  V30 9452 C 895.241 4.49055 0.2588 0
M  V30 9453 C 896.56 3.79595 2.22701 0
M  V30 9454 H 893.679 0.695893 0.242698 0
M  V30 9455 H 896.321 1.89887 -0.0654071 0
M  V30 9456 H 894.471 3.37038 1.9323 0
M  V30 9457 H 896.143 4.59809 -0.370631 0
M  V30 9458 H 894.386 4.31785 -0.417672 0
M  V30 9459 H 895.057 5.4701 0.740578 0
M  V30 9460 H 897.533 3.7984 1.69885 0
M  V30 9461 H 896.409 4.81292 2.63912 0
M  V30 9462 H 896.67 3.14118 3.11098 0
M  V30 9463 N 895.729 -0.261212 1.5542 0
M  V30 9464 C 896.659 -1.32712 1.92119 0
M  V30 9465 C 897.64 -1.50934 0.784406 0
M  V30 9466 O 898.825 -1.63781 1.04352 0
M  V30 9467 C 895.955 -2.68453 2.20341 0
M  V30 9468 C 894.909 -2.64947 3.36136 0
M  V30 9469 C 894.235 -4.04349 3.49865 0
M  V30 9470 C 895.535 -2.23182 4.72215 0
M  V30 9471 H 897.229 -1.02245 2.81401 0
M  V30 9472 H 894.775 -0.490406 1.35392 0
M  V30 9473 H 896.728 -3.43144 2.44603 0
M  V30 9474 H 895.452 -3.00527 1.27871 0
M  V30 9475 H 894.111 -1.92714 3.11861 0
M  V30 9476 H 893.759 -4.33665 2.5484 0
M  V30 9477 H 893.459 -4.02895 4.27726 0
M  V30 9478 H 894.983 -4.80761 3.76432 0
M  V30 9479 H 896.397 -2.87599 4.95943 0
M  V30 9480 H 894.794 -2.32867 5.53076 0
M  V30 9481 H 895.864 -1.18327 4.70241 0
M  V30 9482 N 897.207 -1.48554 -0.526253 0
M  V30 9483 C 898.484 -1.47252 -1.28748 0
M  V30 9484 C 898.864 -0.186245 -2.10277 0
M  V30 9485 O 898.212 0.831954 -2.12816 0
M  V30 9486 C 898.422 -2.73672 -2.16575 0
M  V30 9487 C 899.77 -3.22151 -2.76593 0
M  V30 9488 O 900.794 -2.74614 -2.2686 0
M  V30 9489 O 899.653 -4.04877 -3.67066 0
M  V30 9490 H 896.747 -0.588242 -0.581292 0
M  V30 9491 H 899.293 -1.60792 -0.5426 0
M  V30 9492 H 898.065 -3.58798 -1.56139 0
M  V30 9493 H 897.688 -2.6287 -2.98304 0
M  V30 9494 N 898.685 0.775411 -1.37205 0
M  V30 9495 C 899.632 1.88857 -1.32671 0
M  V30 9496 C 900.602 1.64976 -0.192899 0
M  V30 9497 O 901.787 1.86944 -0.381673 0
M  V30 9498 C 898.927 3.25871 -1.13588 0
M  V30 9499 C 898.04 3.61731 -2.36167 0
M  V30 9500 C 897.175 4.87934 -2.09985 0
M  V30 9501 C 896.214 5.16514 -3.2845 0
M  V30 9502 N 895.351 6.33905 -3.01842 0
M  V30 9503 H 900.191 1.92068 -2.27846 0
M  V30 9504 H 897.728 0.939066 -1.13225 0
M  V30 9505 H 899.686 4.04903 -1.00546 0
M  V30 9506 H 898.316 3.22045 -0.220613 0
M  V30 9507 H 897.368 2.77712 -2.59962 0
M  V30 9508 H 898.68 3.78792 -3.24528 0
M  V30 9509 H 897.834 5.74863 -1.93953 0
M  V30 9510 H 896.573 4.7297 -1.18956 0
M  V30 9511 H 895.578 4.28063 -3.45025 0
M  V30 9512 H 896.803 5.33389 -4.20325 0
M  V30 9513 H 894.749 6.20306 -2.13439 0
M  V30 9514 H 894.666 6.51364 -3.83746 0
M  V30 9515 H 895.934 7.23779 -2.8942 0
M  V30 9516 N 900.163 1.21714 1.00117 0
M  V30 9517 C 901.412 1.03087 1.73367 0
M  V30 9518 C 901.725 -0.435532 1.90689 0
M  V30 9519 O 902.931 -0.741291 2.61184 0
M  V30 9520 C 901.387 1.79593 3.11888 0
M  V30 9521 C 900.995 3.30428 3.02525 0
M  V30 9522 C 902.739 1.69386 3.89241 0
M  V30 9523 C 900.646 3.99408 4.3615 0
M  V30 9524 H 899.576 0.382117 0.650002 0
M  V30 9525 H 902.227 1.45486 1.11831 0
M  V30 9526 H 900.609 1.29988 3.74058 0
M  V30 9527 H 901.783 3.87364 2.49571 0
M  V30 9528 H 900.098 3.4122 2.38659 0
M  V30 9529 H 902.695 2.18251 4.8813 0
M  V30 9530 H 903.038 0.652773 4.1115 0
M  V30 9531 H 903.571 2.16489 3.33733 0
M  V30 9532 H 900.31 5.03735 4.19442 0
M  V30 9533 H 899.83 3.47261 4.8905 0
M  V30 9534 H 901.509 4.04537 5.04934 0
M  V30 9535 N 901.641 -1.19671 1.02551 0
M  V30 9536 C 902.588 -2.22773 0.603394 0
M  V30 9537 C 903.558 -1.61669 -0.381081 0
M  V30 9538 O 904.743 -1.88756 -0.278505 0
M  V30 9539 C 901.883 -3.45073 -0.0431034 0
M  V30 9540 C 900.996 -4.20574 0.987006 0
M  V30 9541 C 900.131 -5.30291 0.310626 0
M  V30 9542 C 899.17 -5.97545 1.32688 0
M  V30 9543 N 898.307 -6.98833 0.676542 0
M  V30 9544 H 903.147 -2.58238 1.48719 0
M  V30 9545 H 900.684 -1.26881 0.744286 0
M  V30 9546 H 902.642 -4.14925 -0.435141 0
M  V30 9547 H 901.272 -3.10274 -0.890495 0
M  V30 9548 H 900.324 -3.497 1.49713 0
M  V30 9549 H 901.636 -4.66736 1.75952 0
M  V30 9550 H 900.79 -6.06547 -0.136438 0
M  V30 9551 H 899.529 -4.8519 -0.49412 0
M  V30 9552 H 898.534 -5.20043 1.78424 0
M  V30 9553 H 899.759 -6.4473 2.13306 0
M  V30 9554 H 897.705 -6.55911 -0.108172 0
M  V30 9555 H 897.622 -7.43168 1.38699 0
M  V30 9556 H 898.89 -7.79088 0.253367 0
M  V30 9557 N 903.119 -0.802921 -1.35613 0
M  V30 9558 C 904.049 -0.225131 -2.32412 0
M  V30 9559 C 905.03 0.647383 -1.57299 0
M  V30 9560 O 906.215 0.578414 -1.85386 0
M  V30 9561 C 903.345 0.630085 -3.41537 0
M  V30 9562 C 902.299 -0.143635 -4.27759 0
M  V30 9563 C 901.625 0.833046 -5.28171 0
M  V30 9564 C 902.925 -1.34054 -5.04804 0
M  V30 9565 H 904.619 -1.03385 -2.80984 0
M  V30 9566 H 902.165 -0.498593 -1.35093 0
M  V30 9567 H 904.118 1.04433 -4.08254 0
M  V30 9568 H 902.842 1.47165 -2.91565 0
M  V30 9569 H 901.501 -0.539015 -3.62616 0
M  V30 9570 H 901.149 1.67001 -4.74468 0
M  V30 9571 H 900.849 0.319697 -5.8673 0
M  V30 9572 H 902.373 1.24558 -5.97761 0
M  V30 9573 H 903.787 -1.00136 -5.64487 0
M  V30 9574 H 902.184 -1.78812 -5.72841 0
M  V30 9575 H 903.254 -2.12906 -4.35659 0
M  V30 9576 N 904.597 1.47463 -0.556102 0
M  V30 9577 C 905.545 2.31692 0.205299 0
M  V30 9578 C 906.539 1.42857 0.910394 0
M  V30 9579 O 907.745 1.59628 0.831806 0
M  V30 9580 H 904.12 0.747172 0.0850775 0
M  V30 9581 H 906.091 2.93758 -0.524305 0
M  V30 9582 C 904.84 3.25487 1.22283 0
M  V30 9583 H 904.163 3.93806 0.689697 0
M  V30 9584 H 905.603 3.87257 1.7265 0
M  V30 9585 C 904.062 2.48931 2.27013 0
M  V30 9586 O 904.592 2.23296 3.33919 0
M  V30 9587 N 902.798 2.0996 2.00911 0
M  V30 9588 H 902.345 2.31008 1.13986 0
M  V30 9589 H 902.303 1.59053 2.712 0
M  V30 9590 N 906.075 0.2925 1.54862 0
M  V30 9591 C 907.038 -0.574423 2.21885 0
M  V30 9592 C 908.038 -1.06791 1.20218 0
M  V30 9593 O 909.228 -0.9653 1.45009 0
M  V30 9594 C 906.36 -1.79438 2.89853 0
M  V30 9595 H 907.553 0.0110319 2.99898 0
M  V30 9596 H 905.106 0.043256 1.5624 0
M  V30 9597 H 905.841 -2.4199 2.15897 0
M  V30 9598 H 905.626 -1.44827 3.64373 0
M  V30 9599 H 907.116 -2.41048 3.41007 0
M  V30 9600 N 907.553 -1.57587 0.0200696 0
M  V30 9601 C 908.5 -2.09667 -0.964791 0
M  V30 9602 C 909.47 -0.99664 -1.32877 0
M  V30 9603 O 910.655 -1.2703 -1.42366 0
M  V30 9604 C 907.795 -2.62101 -2.24493 0
M  V30 9605 C 906.908 -3.8608 -1.93821 0
M  V30 9606 C 906.043 -4.26939 -3.16064 0
M  V30 9607 C 905.082 -5.43701 -2.81169 0
M  V30 9608 N 904.219 -5.79759 -3.9601 0
M  V30 9609 H 909.059 -2.93538 -0.513751 0
M  V30 9610 H 906.596 -1.45096 -0.242 0
M  V30 9611 H 908.554 -2.90587 -2.99358 0
M  V30 9612 H 907.184 -1.81074 -2.6723 0
M  V30 9613 H 906.236 -3.64378 -1.09237 0
M  V30 9614 H 907.548 -4.71028 -1.64115 0
M  V30 9615 H 906.702 -4.56814 -3.99257 0
M  V30 9616 H 905.441 -3.40739 -3.48924 0
M  V30 9617 H 904.446 -5.13529 -1.96387 0
M  V30 9618 H 905.671 -6.31593 -2.49535 0
M  V30 9619 H 903.617 -4.96516 -4.28729 0
M  V30 9620 H 903.534 -6.59327 -3.69896 0
M  V30 9621 H 904.802 -6.14235 -4.79933 0
M  V30 9622 N 909.032 0.252966 -1.55557 0
M  V30 9623 C 909.965 1.33928 -1.84766 0
M  V30 9624 C 910.943 1.46653 -0.702254 0
M  V30 9625 O 912.127 1.62963 -0.947375 0
M  V30 9626 C 909.254 2.71348 -2.02701 0
M  V30 9627 C 908.3 2.75804 -3.25322 0
M  V30 9628 S 909.133 2.33025 -4.82141 0
M  V30 9629 C 910.289 3.72382 -5.03073 0
M  V30 9630 H 910.522 1.08951 -2.76617 0
M  V30 9631 H 908.055 0.45364 -1.47585 0
M  V30 9632 H 910.013 3.50478 -2.13718 0
M  V30 9633 H 908.674 2.93566 -1.11703 0
M  V30 9634 H 907.867 3.76713 -3.34819 0
M  V30 9635 H 907.469 2.04713 -3.12999 0
M  V30 9636 H 909.761 4.67828 -4.90044 0
M  V30 9637 H 910.704 3.67824 -6.05071 0
M  V30 9638 H 911.112 3.64614 -4.30949 0
M  V30 9639 N 910.51 1.48831 0.518367 0
M  V30 9640 C 911.458 1.64678 1.64268 0
M  V30 9641 C 912.452 0.512967 1.61447 0
M  V30 9642 O 913.658 0.692063 1.66164 0
M  V30 9643 H 910.033 0.518964 0.544224 0
M  V30 9644 H 912.004 2.59083 1.4805 0
M  V30 9645 C 910.753 1.71449 3.0249 0
M  V30 9646 H 910.076 2.58061 3.0536 0
M  V30 9647 H 911.516 1.86577 3.80743 0
M  V30 9648 C 909.975 0.455584 3.33805 0
M  V30 9649 O 910.505 -0.426428 3.9943 0
M  V30 9650 N 908.711 0.323763 2.88791 0
M  V30 9651 H 908.258 1.04249 2.35563 0
M  V30 9652 H 908.216 -0.517514 3.10112 0
M  V30 9653 N 911.988 -0.768124 1.37614 0
M  V30 9654 C 913.237 -1.5221 1.32345 0
M  V30 9655 C 913.55 -1.95399 -0.0885761 0
M  V30 9656 O 914.756 -2.70216 -0.263752 0
M  V30 9657 C 913.212 -2.74872 2.32322 0
M  V30 9658 C 912.82 -2.38767 3.79071 0
M  V30 9659 C 914.564 -3.52805 2.36069 0
M  V30 9660 C 912.471 -3.57953 4.7077 0
M  V30 9661 H 911.401 -0.571461 0.491883 0
M  V30 9662 H 914.052 -0.841004 1.63093 0
M  V30 9663 H 912.434 -3.44889 1.94596 0
M  V30 9664 H 913.608 -1.7651 4.25654 0
M  V30 9665 H 911.923 -1.74 3.78303 0
M  V30 9666 H 914.52 -4.41397 3.01782 0
M  V30 9667 H 914.863 -3.92925 1.37535 0
M  V30 9668 H 915.396 -2.89788 2.72521 0
M  V30 9669 H 912.135 -3.22911 5.70446 0
M  V30 9670 H 911.655 -4.19302 4.28889 0
M  V30 9671 H 913.334 -4.2472 4.8808 0
M  V30 9672 N 913.466 -1.22244 -0.994698 0
M  V30 9673 C 914.396 -1.01513 -2.10279 0
M  V30 9674 C 915.377 0.0633365 -1.69982 0
M  V30 9675 O 916.562 -0.0985268 -1.9395 0
M  V30 9676 C 913.692 -0.59016 -3.42249 0
M  V30 9677 C 912.646 -1.61436 -3.96387 0
M  V30 9678 C 911.972 -1.04528 -5.24383 0
M  V30 9679 C 913.272 -3.00388 -4.27276 0
M  V30 9680 H 914.966 -1.94194 -2.2788 0
M  V30 9681 H 912.512 -0.935094 -1.09508 0
M  V30 9682 H 914.465 -0.432254 -4.19177 0
M  V30 9683 H 913.189 0.372308 -3.24471 0
M  V30 9684 H 911.848 -1.76001 -3.21589 0
M  V30 9685 H 911.496 -0.0742225 -5.02945 0
M  V30 9686 H 911.196 -1.72949 -5.61571 0
M  V30 9687 H 912.72 -0.898922 -6.03947 0
M  V30 9688 H 914.134 -2.89207 -4.95007 0
M  V30 9689 H 912.531 -3.65916 -4.75631 0
M  V30 9690 H 913.601 -3.50456 -3.35125 0
M  V30 9691 N 914.944 1.19125 -1.03184 0
M  V30 9692 C 916.193 1.8821 -0.725264 0
M  V30 9693 C 916.506 1.80674 0.749411 0
M  V30 9694 O 917.712 2.45037 1.16915 0
M  V30 9695 C 916.168 3.37607 -1.24697 0
M  V30 9696 C 915.776 3.53693 -2.74964 0
M  V30 9697 C 917.52 4.12149 -1.01652 0
M  V30 9698 C 915.427 4.97001 -3.20538 0
M  V30 9699 H 914.357 0.704916 -0.267599 0
M  V30 9700 H 917.008 1.34663 -1.24652 0
M  V30 9701 H 915.39 3.90569 -0.653614 0
M  V30 9702 H 916.564 3.11046 -3.39981 0
M  V30 9703 H 914.879 2.92544 -2.96322 0
M  V30 9704 H 917.476 5.17837 -1.33226 0
M  V30 9705 H 917.819 4.16274 0.0465712 0
M  V30 9706 H 918.352 3.65334 -1.57403 0
M  V30 9707 H 915.091 4.9804 -4.26189 0
M  V30 9708 H 914.611 5.40398 -2.60251 0
M  V30 9709 H 916.29 5.65669 -3.14049 0
M  V30 9710 N 916.422 0.810101 1.35185 0
M  V30 9711 C 917.838 0.494269 1.51754 0
M  V30 9712 C 918.038 -0.983907 1.75845 0
M  V30 9713 O 917.094 -1.76882 1.80191 0
M  V30 9714 C 918.407 1.34268 2.69059 0
M  V30 9715 C 919.955 1.33848 2.82938 0
M  V30 9716 C 920.43 2.17109 4.03271 0
M  V30 9717 N 921.921 2.14664 4.10456 0
M  V30 9718 C 922.656 2.75843 5.02691 0
M  V30 9719 N 922.152 3.45962 6.00235 0
M  V30 9720 N 923.945 2.65465 4.95464 0
M  V30 9721 H 916.096 1.76736 1.17805 0
M  V30 9722 H 918.359 0.752429 0.576676 0
M  V30 9723 H 918.065 2.39183 2.57845 0
M  V30 9724 H 917.939 0.998362 3.63748 0
M  V30 9725 H 920.326 0.29716 2.936 0
M  V30 9726 H 920.407 1.72269 1.89095 0
M  V30 9727 H 920.051 3.21283 3.93369 0
M  V30 9728 H 919.981 1.76046 4.96302 0
M  V30 9729 H 922.472 1.63648 3.40628 0
M  V30 9730 H 922.785 3.89922 6.67219 0
M  V30 9731 H 921.13 3.50067 6.00398 0
M  V30 9732 H 924.321 2.1027 4.18215 0
M  V30 9733 H 924.494 3.13433 5.67154 0
M  V30 9734 N 917.9 -1.47166 0.563914 0
M  V30 9735 C 919.177 -1.95586 -0.0236172 0
M  V30 9736 C 919.557 -1.50655 -1.47872 0
M  V30 9737 O 918.905 -0.748479 -2.15894 0
M  V30 9738 C 919.115 -3.48762 0.128841 0
M  V30 9739 C 920.463 -4.24598 -0.0130544 0
M  V30 9740 O 921.487 -3.56155 0.0567242 0
M  V30 9741 O 920.346 -5.46253 -0.164332 0
M  V30 9742 H 917.44 -0.824793 -0.0603789 0
M  V30 9743 H 919.986 -1.57536 0.63091 0
M  V30 9744 H 918.758 -3.74291 1.14113 0
M  V30 9745 H 918.381 -3.93594 -0.56299 0
M  V30 9746 N 919.378 -0.300708 -1.54705 0
M  V30 9747 C 920.325 0.57552 -2.23509 0
M  V30 9748 C 921.295 1.12979 -1.21758 0
M  V30 9749 O 922.48 1.17437 -1.50377 0
M  V30 9750 C 919.62 1.74167 -2.97926 0
M  V30 9751 C 918.733 1.21882 -4.1445 0
M  V30 9752 C 917.868 2.34881 -4.7645 0
M  V30 9753 C 916.907 1.79729 -5.85119 0
M  V30 9754 N 916.044 2.863 -6.41075 0
M  V30 9755 H 920.884 -0.0178257 -2.97995 0
M  V30 9756 H 918.421 -0.0205666 -1.47086 0
M  V30 9757 H 920.379 2.42753 -3.39303 0
M  V30 9758 H 919.009 2.30665 -2.25817 0
M  V30 9759 H 918.061 0.425227 -3.78016 0
M  V30 9760 H 919.373 0.775065 -4.92741 0
M  V30 9761 H 918.527 3.11415 -5.20678 0
M  V30 9762 H 917.266 2.82584 -3.97489 0
M  V30 9763 H 916.271 1.01684 -5.40315 0
M  V30 9764 H 917.496 1.32931 -6.65963 0
M  V30 9765 H 915.442 3.33337 -5.64998 0
M  V30 9766 H 915.359 2.46419 -7.14712 0
M  V30 9767 H 916.627 3.62732 -6.89961 0
M  V30 9768 N 920.856 1.57574 -0.0284266 0
M  V30 9769 C 922.272 1.56194 0.327958 0
M  V30 9770 C 922.472 1.03397 1.72949 0
M  V30 9771 O 921.528 0.680392 2.4316 0
M  V30 9772 C 922.841 3.00177 0.177196 0
M  V30 9773 C 924.389 3.12 0.250014 0
M  V30 9774 C 924.864 4.57821 0.128049 0
M  V30 9775 N 926.355 4.6283 0.185054 0
M  V30 9776 C 927.09 5.73286 0.114454 0
M  V30 9777 N 926.586 6.928 -0.00719225 0
M  V30 9778 N 928.379 5.61848 0.16839 0
M  V30 9779 H 920.53 1.90224 -0.944921 0
M  V30 9780 H 922.793 0.874987 -0.364832 0
M  V30 9781 H 922.499 3.42753 -0.788224 0
M  V30 9782 H 922.373 3.65101 0.94768 0
M  V30 9783 H 924.76 2.69337 1.20589 0
M  V30 9784 H 924.841 2.49799 -0.550835 0
M  V30 9785 H 924.485 5.01165 -0.824407 0
M  V30 9786 H 924.415 5.18001 0.947753 0
M  V30 9787 H 926.906 3.76867 0.279247 0
M  V30 9788 H 927.219 7.72781 -0.0543903 0
M  V30 9789 H 925.564 6.94987 -0.0419648 0
M  V30 9790 H 928.755 4.67367 0.261821 0
M  V30 9791 H 928.928 6.47907 0.109908 0
M  V30 9792 N 922.334 -0.244713 1.55689 0
M  V30 9793 C 923.581 -0.972446 1.77622 0
M  V30 9794 C 923.909 -1.85235 0.593137 0
M  V30 9795 O 923.164 -1.91064 -0.423464 0
M  V30 9796 C 923.463 -1.8617 3.05083 0
M  V30 9797 C 923.129 -1.13696 4.3633 0
M  V30 9798 C 921.791 -0.936679 4.71996 0
M  V30 9799 C 924.143 -0.623451 5.17458 0
M  V30 9800 C 921.471 -0.210612 5.86322 0
M  V30 9801 C 923.823 0.0891587 6.32537 0
M  V30 9802 C 922.487 0.300904 6.66821 0
M  V30 9803 H 921.757 -0.355843 0.649967 0
M  V30 9804 H 924.404 -0.242372 1.8996 0
M  V30 9805 H 922.709 -2.6589 2.87767 0
M  V30 9806 H 924.406 -2.4265 3.19253 0
M  V30 9807 H 920.996 -1.30301 4.08313 0
M  V30 9808 H 925.18 -0.765725 4.90357 0
M  V30 9809 H 920.436 -0.0361062 6.11389 0
M  V30 9810 H 924.61 0.494685 6.94641 0
M  V30 9811 H 922.237 0.865466 7.55257 0
M  V30 9812 N 923.813 -1.49104 -0.510467 0
M  V30 9813 C 924.763 -1.6147 -1.6097 0
M  V30 9814 C 925.747 -0.470797 -1.53858 0
M  V30 9815 O 926.939 -0.723266 -1.61548 0
M  V30 9816 C 924.068 -1.67575 -2.99622 0
M  V30 9817 C 923.154 -2.87511 -3.11766 0
M  V30 9818 N 923.545 -4.11704 -2.93826 0
M  V30 9819 C 921.843 -2.85251 -3.42852 0
M  V30 9820 C 922.544 -4.92276 -3.09902 0
M  V30 9821 N 921.52 -4.2546 -3.38355 0
M  V30 9822 H 925.322 -2.5522 -1.45739 0
M  V30 9823 H 922.836 -1.45745 -0.716383 0
M  V30 9824 H 924.833 -1.74531 -3.78609 0
M  V30 9825 H 923.493 -0.749557 -3.1593 0
M  V30 9826 H 924.504 -4.41834 -2.70191 0
M  V30 9827 H 921.181 -2.0197 -3.65396 0
M  V30 9828 H 922.571 -6.00905 -3.00604 0
M  V30 9829 N 925.291 0.760815 -1.38019 0
M  V30 9830 C 926.521 1.54776 -1.3685 0
M  V30 9831 C 926.929 1.89146 0.0453971 0
M  V30 9832 O 926.272 1.52746 1.0205 0
M  V30 9833 C 926.334 2.87923 -2.15269 0
M  V30 9834 C 925.998 2.76131 -3.64144 0
M  V30 9835 C 926.995 2.46417 -4.57794 0
M  V30 9836 C 924.68 2.9381 -4.07408 0
M  V30 9837 C 926.674 2.34525 -5.92686 0
M  V30 9838 C 924.361 2.81539 -5.42383 0
M  V30 9839 C 925.359 2.51938 -6.34836 0
M  V30 9840 O 925.047 2.39713 -7.67329 0
M  V30 9841 H 924.779 0.485776 -0.470104 0
M  V30 9842 H 927.333 0.949939 -1.82113 0
M  V30 9843 H 925.563 3.49867 -1.64712 0
M  V30 9844 H 927.252 3.49389 -2.06596 0
M  V30 9845 H 928.018 2.32433 -4.25676 0
M  V30 9846 H 923.897 3.15849 -3.35799 0
M  V30 9847 H 927.441 2.11342 -6.64816 0
M  V30 9848 H 923.338 2.95093 -5.741 0
M  V30 9849 H 924.106 2.5498 -7.77771 0
M  V30 9850 N 926.769 1.22769 0.988202 0
M  V30 9851 C 928.046 0.9635 1.70223 0
M  V30 9852 C 928.426 -0.520102 2.04593 0
M  V30 9853 O 927.774 -1.48934 1.73295 0
M  V30 9854 C 927.984 1.86583 2.94937 0
M  V30 9855 C 929.332 2.12469 3.67616 0
M  V30 9856 O 930.356 1.84069 3.04954 0
M  V30 9857 O 929.215 2.60595 4.80367 0
M  V30 9858 H 926.309 0.362737 0.743203 0
M  V30 9859 H 928.855 1.33776 1.04412 0
M  V30 9860 H 927.627 2.86913 2.66077 0
M  V30 9861 H 927.25 1.49344 3.68486 0
M  V30 9862 N 928.247 -1.18576 1.03814 0
M  V30 9863 C 929.663 -1.4051 0.756909 0
M  V30 9864 C 929.863 -1.9057 -0.654631 0
M  V30 9865 O 928.919 -2.0884 -1.41922 0
M  V30 9866 C 930.232 -2.4081 1.80087 0
M  V30 9867 C 931.78 -2.54541 1.82148 0
M  V30 9868 C 932.255 -3.58102 2.85529 0
M  V30 9869 N 933.746 -3.65607 2.84404 0
M  V30 9870 C 934.481 -4.45458 3.61047 0
M  V30 9871 N 933.977 -5.28937 4.47434 0
M  V30 9872 N 935.77 -4.40196 3.49548 0
M  V30 9873 H 927.921 -0.844075 1.94908 0
M  V30 9874 H 930.184 -0.433287 0.843188 0
M  V30 9875 H 929.89 -2.1107 2.81322 0
M  V30 9876 H 929.764 -3.4012 1.63089 0
M  V30 9877 H 932.151 -2.83598 0.815855 0
M  V30 9878 H 932.232 -1.55352 2.03223 0
M  V30 9879 H 931.876 -3.29786 3.86269 0
M  V30 9880 H 931.806 -4.56963 2.6171 0
M  V30 9881 H 934.297 -3.05994 2.21756 0
M  V30 9882 H 934.61 -5.8701 5.02632 0
M  V30 9883 H 932.955 -5.28366 4.51503 0
M  V30 9884 H 936.146 -3.74026 2.81464 0
M  V30 9885 H 936.319 -5.02186 4.09528 0
M  V30 9886 N 929.725 -0.817259 -1.34754 0
M  V30 9887 C 930.673 -0.223352 -2.31525 0
M  V30 9888 C 931.667 0.632785 -1.57137 0
M  V30 9889 O 932.873 0.524757 -1.72181 0
M  V30 9890 H 929.248 -0.0534765 -0.750096 0
M  V30 9891 H 931.219 -1.05446 -2.79148 0
M  V30 9892 C 929.968 0.604784 -3.424 0
M  V30 9893 H 929.291 -0.0446664 -3.99775 0
M  V30 9894 H 930.731 0.986543 -4.12363 0
M  V30 9895 C 929.19 1.77478 -2.86362 0
M  V30 9896 O 929.72 2.87273 -2.8078 0
M  V30 9897 N 927.926 1.58971 -2.43263 0
M  V30 9898 H 927.473 0.696598 -2.48003 0
M  V30 9899 H 927.431 2.37408 -2.06119 0
M  V30 9900 N 931.203 1.46865 -0.571711 0
M  V30 9901 C 932.151 2.31897 0.180714 0
M  V30 9902 C 933.145 1.43815 0.895191 0
M  V30 9903 O 934.351 1.60501 0.814828 0
M  V30 9904 H 930.726 0.748032 0.077148 0
M  V30 9905 H 932.697 2.93185 -0.555432 0
M  V30 9906 C 931.446 3.26766 1.18824 0
M  V30 9907 H 930.769 3.94515 0.64789 0
M  V30 9908 H 932.209 3.89067 1.68532 0
M  V30 9909 C 930.668 2.51325 2.2436 0
M  V30 9910 O 931.198 2.26825 3.31532 0
M  V30 9911 N 929.404 2.12079 1.98673 0
M  V30 9912 H 928.951 2.32204 1.1153 0
M  V30 9913 H 928.909 1.61921 2.69498 0
M  V30 9914 N 932.681 0.308908 1.54543 0
M  V30 9915 C 933.93 -0.298854 1.99474 0
M  V30 9916 C 934.243 -1.54393 1.20093 0
M  V30 9917 O 935.449 -2.22677 1.55329 0
M  V30 9918 C 933.905 -0.58303 3.55146 0
M  V30 9919 C 933.513 0.644157 4.43345 0
M  V30 9920 C 935.257 -1.15155 4.08582 0
M  V30 9921 C 933.164 0.332694 5.90463 0
M  V30 9922 H 932.094 -0.115445 0.74511 0
M  V30 9923 H 934.745 0.418848 1.78656 0
M  V30 9924 H 933.127 -1.36053 3.71894 0
M  V30 9925 H 934.301 1.42012 4.38371 0
M  V30 9926 H 932.616 1.13186 4.00722 0
M  V30 9927 H 935.213 -1.39896 5.16075 0
M  V30 9928 H 935.556 -2.09632 3.59667 0
M  V30 9929 H 936.089 -0.435571 3.95408 0
M  V30 9930 H 932.828 1.24624 6.43544 0
M  V30 9931 H 932.348 -0.405844 5.98425 0
M  V30 9932 H 934.027 -0.0628545 6.46969 0
M  V30 9933 N 934.159 -1.57557 0.0367827 0
M  V30 9934 C 935.122 -2.09591 -0.927589 0
M  V30 9935 C 936.122 -1.01252 -1.24919 0
M  V30 9936 O 937.312 -1.27382 -1.18825 0
M  V30 9937 C 934.444 -2.56816 -2.24184 0
M  V30 9938 H 935.637 -2.96086 -0.476784 0
M  V30 9939 H 933.19 -1.54864 -0.211385 0
M  V30 9940 H 933.925 -1.73673 -2.73876 0
M  V30 9941 H 933.71 -3.35973 -2.0215 0
M  V30 9942 H 935.2 -2.97271 -2.93291 0
M  V30 9943 N 935.637 0.236453 -1.55816 0
M  V30 9944 C 936.883 0.964439 -1.784 0
M  V30 9945 C 937.216 1.84573 -0.603868 0
M  V30 9946 O 936.491 1.90395 0.397473 0
M  V30 9947 C 936.774 1.81608 -3.10951 0
M  V30 9948 C 936.627 0.962283 -4.39386 0
M  V30 9949 C 937.946 2.79665 -3.39817 0
M  V30 9950 H 935.065 0.349192 -0.649026 0
M  V30 9951 H 937.707 0.234247 -1.8855 0
M  V30 9952 H 935.857 2.43864 -3.02428 0
M  V30 9953 H 937.529 0.35762 -4.59912 0
M  V30 9954 H 935.772 0.267062 -4.32977 0
M  V30 9955 H 936.443 1.59222 -5.28538 0
M  V30 9956 H 938.919 2.27546 -3.4837 0
M  V30 9957 H 937.795 3.36367 -4.33761 0
M  V30 9958 H 938.056 3.56657 -2.61244 0
M  V30 9959 N 937.115 1.49373 0.502552 0
M  V30 9960 C 938.363 1.58467 1.25429 0
M  V30 9961 C 938.684 0.272593 1.93085 0
M  V30 9962 O 937.954 -0.707947 1.82661 0
M  V30 9963 H 936.534 0.583866 0.46595 0
M  V30 9964 H 939.196 1.8599 0.582568 0
M  V30 9965 H 938.292 2.37993 2.01906 0
M  V30 9966 N 938.594 -0.753485 1.38421 0
M  V30 9967 C 939.557 -1.84888 1.35459 0
M  V30 9968 C 940.557 -1.58764 0.255083 0
M  V30 9969 O 941.747 -1.66507 0.511978 0
M  V30 9970 C 938.879 -3.22361 1.10888 0
M  V30 9971 H 940.072 -1.88922 2.32913 0
M  V30 9972 H 937.625 -0.955199 1.23716 0
M  V30 9973 H 938.36 -3.23996 0.1404 0
M  V30 9974 H 938.145 -3.42717 1.90492 0
M  V30 9975 H 939.635 -4.02437 1.1151 0
M  V30 9976 N 940.072 -1.23292 -0.981677 0
M  V30 9977 C 941.349 -0.972514 -1.6971 0
M  V30 9978 C 941.729 0.509244 -2.04866 0
M  V30 9979 O 941.077 1.48013 -1.74082 0
M  V30 9980 C 941.287 -1.88144 -2.93943 0
M  V30 9981 C 942.635 -2.14416 -3.66485 0
M  V30 9982 O 943.659 -1.85684 -3.03974 0
M  V30 9983 O 942.518 -2.63139 -4.78978 0
M  V30 9984 H 939.612 -0.366673 -0.741269 0
M  V30 9985 H 942.158 -1.34328 -1.03701 0
M  V30 9986 H 940.93 -2.8832 -2.64551 0
M  V30 9987 H 940.553 -1.51296 -3.67689 0
M  V30 9988 N 941.55 1.18024 -1.04442 0
M  V30 9989 C 942.46 2.25436 -0.649276 0
M  V30 9990 C 943.476 1.70915 0.326189 0
M  V30 9991 O 944.652 2.00592 0.180174 0
M  V30 9992 C 941.717 3.46693 -0.0222558 0
M  V30 9993 C 940.778 4.16332 -1.0472 0
M  V30 9994 C 940.011 5.31799 -0.450011 0
M  V30 9995 O 940.234 5.65544 0.742717 0
M  V30 9996 O 939.168 5.90209 -1.18056 0
M  V30 9997 H 942.994 2.61508 -1.54426 0
M  V30 9998 H 940.579 1.25178 -0.81552 0
M  V30 9999 H 942.461 4.20132 0.326597 0
M  V30 10000 H 941.136 3.12436 0.84649 0
M  V30 10001 H 940.043 3.44944 -1.44792 0
M  V30 10002 H 941.376 4.54598 -1.88684 0
M  V30 10003 N 943.028 0.824394 1.34319 0
M  V30 10004 C 944.253 0.425194 2.02995 0
M  V30 10005 C 944.678 -0.961476 1.6167 0
M  V30 10006 O 944.036 -1.62593 0.80207 0
M  V30 10007 C 944.084 0.537004 3.56579 0
M  V30 10008 O 943.188 -0.442576 4.10018 0
M  V30 10009 H 942.529 0.174853 0.640564 0
M  V30 10010 H 945.059 1.11522 1.71534 0
M  V30 10011 H 945.069 0.413311 4.05901 0
M  V30 10012 H 943.744 1.54836 3.86004 0
M  V30 10013 H 942.321 -0.277644 3.71865 0
M  V30 10014 N 944.506 -1.46559 0.579492 0
M  V30 10015 C 945.752 -2.02699 0.0639363 0
M  V30 10016 C 946.085 -1.4504 -1.29139 0
M  V30 10017 O 945.36 -0.614284 -1.84545 0
M  V30 10018 C 945.643 -3.601 -0.00528618 0
M  V30 10019 C 945.496 -4.28149 1.37871 0
M  V30 10020 C 946.815 -4.34375 -0.707537 0
M  V30 10021 H 943.934 -0.736586 0.0247085 0
M  V30 10022 H 946.576 -1.74739 0.746071 0
M  V30 10023 H 944.726 -3.84052 -0.586206 0
M  V30 10024 H 946.398 -4.1547 2.00455 0
M  V30 10025 H 944.641 -3.87636 1.94732 0
M  V30 10026 H 945.312 -5.36888 1.28278 0
M  V30 10027 H 947.788 -4.15549 -0.214064 0
M  V30 10028 H 946.664 -5.44091 -0.724992 0
M  V30 10029 H 946.925 -4.052 -1.7682 0
M  V30 10030 N 945.984 -0.3171 -1.54377 0
M  V30 10031 C 947.23 0.287836 -2.00747 0
M  V30 10032 C 947.563 1.52292 -1.20502 0
M  V30 10033 O 946.838 1.92391 -0.285626 0
M  V30 10034 C 947.121 0.628423 -3.54574 0
M  V30 10035 C 946.974 -0.616922 -4.45549 0
M  V30 10036 C 948.293 1.44862 -4.15575 0
M  V30 10037 H 945.412 0.103144 -0.729747 0
M  V30 10038 H 948.054 -0.432396 -1.85014 0
M  V30 10039 H 946.204 1.24203 -3.68111 0
M  V30 10040 H 947.876 -1.25526 -4.43893 0
M  V30 10041 H 946.119 -1.24706 -4.15489 0
M  V30 10042 H 946.79 -0.334243 -5.50987 0
M  V30 10043 H 949.266 0.930015 -4.05574 0
M  V30 10044 H 948.142 1.6557 -5.23333 0
M  V30 10045 H 948.403 2.44279 -3.68484 0
M  V30 10046 N 947.462 1.57535 -0.0451378 0
M  V30 10047 C 948.409 2.11176 0.931313 0
M  V30 10048 C 949.379 1.01765 1.31275 0
M  V30 10049 O 950.564 1.29279 1.40327 0
M  V30 10050 C 947.704 2.65639 2.20295 0
M  V30 10051 C 946.817 3.89114 1.87654 0
M  V30 10052 C 945.952 4.31914 3.09232 0
M  V30 10053 C 944.991 5.48105 2.72484 0
M  V30 10054 N 944.128 5.85986 3.86736 0
M  V30 10055 H 948.968 2.94318 0.466986 0
M  V30 10056 H 946.505 1.45462 0.218886 0
M  V30 10057 H 948.463 2.95312 2.94697 0
M  V30 10058 H 947.093 1.85303 2.64316 0
M  V30 10059 H 946.145 3.6607 1.03427 0
M  V30 10060 H 947.457 4.7358 1.56601 0
M  V30 10061 H 946.611 4.63108 3.91939 0
M  V30 10062 H 945.35 3.46247 3.43459 0
M  V30 10063 H 944.355 5.16589 1.88192 0
M  V30 10064 H 945.58 6.35482 2.39455 0
M  V30 10065 H 943.526 5.03273 4.20775 0
M  V30 10066 H 943.443 6.65129 3.5936 0
M  V30 10067 H 944.711 6.21793 4.701 0
M  V30 10068 N 948.94 -0.228186 1.55939 0
M  V30 10069 C 949.85 -1.30386 1.9503 0
M  V30 10070 C 950.866 -1.51645 0.853218 0
M  V30 10071 O 952.042 -1.64904 1.15623 0
M  V30 10072 C 949.107 -2.63489 2.25332 0
M  V30 10073 C 948.168 -2.5059 3.48573 0
M  V30 10074 C 947.401 -3.77345 3.7742 0
M  V30 10075 O 947.624 -4.80067 3.08045 0
M  V30 10076 O 946.558 -3.74855 4.70922 0
M  V30 10077 H 950.384 -1.0022 2.86687 0
M  V30 10078 H 947.969 -0.430503 1.43063 0
M  V30 10079 H 949.851 -3.4211 2.46046 0
M  V30 10080 H 948.526 -2.93349 1.3685 0
M  V30 10081 H 947.433 -1.70191 3.33145 0
M  V30 10082 H 948.766 -2.2567 4.37417 0
M  V30 10083 N 950.418 -1.49637 -0.494624 0
M  V30 10084 C 951.381 -1.66252 -1.57775 0
M  V30 10085 C 952.381 -0.534054 -1.51672 0
M  V30 10086 O 953.571 -0.800637 -1.54711 0
M  V30 10087 C 950.703 -1.66584 -2.97426 0
M  V30 10088 H 951.896 -2.62864 -1.4437 0
M  V30 10089 H 949.449 -1.38764 -0.719323 0
M  V30 10090 H 950.184 -0.715798 -3.16302 0
M  V30 10091 H 949.969 -2.48543 -3.03264 0
M  V30 10092 H 951.459 -1.81474 -3.76108 0
M  V30 10093 N 951.896 0.746133 -1.38819 0
M  V30 10094 C 952.846 1.85085 -1.33145 0
M  V30 10095 C 953.83 1.59466 -0.214339 0
M  V30 10096 O 955.022 1.71159 -0.450943 0
M  V30 10097 C 952.151 3.22884 -1.16623 0
M  V30 10098 C 951.237 3.54369 -2.32988 0
M  V30 10099 N 951.628 3.56863 -3.58445 0
M  V30 10100 C 949.926 3.84674 -2.25703 0
M  V30 10101 C 950.627 3.85827 -4.3533 0
M  V30 10102 N 949.603 4.03037 -3.64777 0
M  V30 10103 H 953.405 1.85301 -2.28124 0
M  V30 10104 H 950.919 0.943847 -1.32156 0
M  V30 10105 H 952.916 4.0195 -1.10642 0
M  V30 10106 H 951.576 3.23914 -0.225841 0
M  V30 10107 H 952.587 3.38443 -3.92017 0
M  V30 10108 H 949.264 3.93375 -1.39864 0
M  V30 10109 H 950.654 3.94317 -5.44025 0
M  V30 10110 N 953.375 1.23811 0.975125 0
M  V30 10111 C 954.791 1.0019 1.24234 0
M  V30 10112 C 954.991 -0.293811 1.99346 0
M  V30 10113 O 954.047 -1.01189 2.31337 0
M  V30 10114 C 955.36 2.21218 2.03674 0
M  V30 10115 C 956.908 2.25764 2.16793 0
M  V30 10116 C 957.383 3.46394 2.99626 0
M  V30 10117 N 958.874 3.46665 3.07209 0
M  V30 10118 C 959.609 4.3666 3.71639 0
M  V30 10119 N 959.105 5.36899 4.37849 0
M  V30 10120 N 960.898 4.2439 3.68578 0
M  V30 10121 H 953.049 2.07087 0.472076 0
M  V30 10122 H 955.312 0.90838 0.271201 0
M  V30 10123 H 955.018 3.15277 1.55862 0
M  V30 10124 H 954.892 2.22733 3.04417 0
M  V30 10125 H 957.279 1.32242 2.63811 0
M  V30 10126 H 957.36 2.28279 1.15422 0
M  V30 10127 H 957.004 4.40227 2.53304 0
M  V30 10128 H 956.934 3.41121 4.01178 0
M  V30 10129 H 959.425 2.74142 2.60105 0
M  V30 10130 H 959.738 6.01816 4.84807 0
M  V30 10131 H 958.083 5.40793 4.36541 0
M  V30 10132 H 961.274 3.4532 3.16025 0
M  V30 10133 H 961.447 4.94727 4.18508 0
M  V30 10134 N 954.853 -1.17469 1.05066 0
M  V30 10135 C 955.763 -2.25089 0.661222 0
M  V30 10136 C 956.779 -1.71086 -0.31712 0
M  V30 10137 O 957.955 -2.00685 -0.169534 0
M  V30 10138 C 955.02 -3.46676 0.0406415 0
M  V30 10139 C 954.081 -4.15771 1.06927 0
M  V30 10140 C 953.314 -5.31553 0.478208 0
M  V30 10141 O 953.537 -5.6593 -0.712714 0
M  V30 10142 O 952.471 -5.89574 1.21185 0
M  V30 10143 H 956.297 -2.60685 1.5581 0
M  V30 10144 H 953.882 -1.24744 0.822147 0
M  V30 10145 H 955.764 -4.203 -0.304312 0
M  V30 10146 H 954.439 -3.1288 -0.829909 0
M  V30 10147 H 953.346 -3.44171 1.46619 0
M  V30 10148 H 954.679 -4.53591 1.91092 0
M  V30 10149 N 956.331 -0.831506 -1.3388 0
M  V30 10150 C 957.577 -0.424302 -1.98312 0
M  V30 10151 C 957.91 1.01211 -1.65741 0
M  V30 10152 O 957.185 1.70636 -0.933464 0
M  V30 10153 C 957.468 -0.636815 -3.54424 0
M  V30 10154 C 957.321 -2.11997 -3.96708 0
M  V30 10155 C 958.64 -0.0782411 -4.4003 0
M  V30 10156 H 955.759 -0.155637 -0.720379 0
M  V30 10157 H 958.401 -1.04566 -1.58638 0
M  V30 10158 H 956.551 -0.107907 -3.8835 0
M  V30 10159 H 958.223 -2.71317 -3.73075 0
M  V30 10160 H 956.466 -2.60723 -3.46707 0
M  V30 10161 H 957.137 -2.21944 -5.05416 0
M  V30 10162 H 959.613 -0.530243 -4.12708 0
M  V30 10163 H 958.489 -0.256676 -5.483 0
M  V30 10164 H 958.75 1.01745 -4.30233 0
M  V30 10165 N 957.809 1.4625 -0.587256 0
M  V30 10166 C 959.058 2.01571 -0.0722643 0
M  V30 10167 C 959.371 1.46385 1.29733 0
M  V30 10168 O 960.577 1.93554 1.90392 0
M  V30 10169 C 959.033 3.59814 -0.078579 0
M  V30 10170 C 958.641 4.23996 -1.44678 0
M  V30 10171 C 960.385 4.22776 0.382231 0
M  V30 10172 C 958.292 5.74332 -1.41057 0
M  V30 10173 H 957.222 0.753642 -0.0232461 0
M  V30 10174 H 959.873 1.67936 -0.739577 0
M  V30 10175 H 958.255 3.90546 0.654988 0
M  V30 10176 H 959.429 4.04867 -2.20043 0
M  V30 10177 H 957.744 3.73147 -1.84799 0
M  V30 10178 H 960.341 5.32983 0.428182 0
M  V30 10179 H 960.684 3.92027 1.40072 0
M  V30 10180 H 961.217 3.96687 -0.297417 0
M  V30 10181 H 957.956 6.09747 -2.40601 0
M  V30 10182 H 957.476 5.95711 -0.699185 0
M  V30 10183 H 959.155 6.37137 -1.12543 0
M  V30 10184 N 959.287 0.325282 1.54207 0
M  V30 10185 C 960.235 -0.5554 2.25872 0
M  V30 10186 C 961.229 -1.11714 1.27344 0
M  V30 10187 O 962.435 -1.06498 1.45115 0
M  V30 10188 H 958.81 -0.19776 0.725531 0
M  V30 10189 H 960.781 0.0712858 2.98315 0
M  V30 10190 C 959.53 -1.70379 3.03095 0
M  V30 10191 H 958.853 -1.2808 3.78729 0
M  V30 10192 H 960.293 -2.29556 3.56483 0
M  V30 10193 C 958.752 -2.62242 2.11496 0
M  V30 10194 O 959.282 -3.64003 1.69895 0
M  V30 10195 N 957.488 -2.30515 1.7695 0
M  V30 10196 H 957.035 -1.47805 2.10978 0
M  V30 10197 H 956.993 -2.92241 1.15942 0
M  V30 10198 N 960.765 -1.57509 0.0534917 0
M  V30 10199 C 961.99 -1.97511 -0.632794 0
M  V30 10200 C 962.415 -0.930947 -1.63447 0
M  V30 10201 O 961.773 0.105558 -1.80992 0
M  V30 10202 C 961.821 -3.3658 -1.29407 0
M  V30 10203 O 960.925 -3.3467 -2.40977 0
M  V30 10204 H 960.266 -0.643349 -0.16431 0
M  V30 10205 H 962.796 -2.04232 0.12258 0
M  V30 10206 H 962.806 -3.73359 -1.64521 0
M  V30 10207 H 961.481 -4.12113 -0.559976 0
M  V30 10208 H 960.058 -3.09639 -2.07793 0
M  V30 10209 N 962.243 0.219913 -1.56058 0
M  V30 10210 C 963.468 0.965073 -1.83579 0
M  V30 10211 C 963.893 1.77092 -0.634024 0
M  V30 10212 O 963.251 1.76434 0.417205 0
M  V30 10213 C 963.299 1.85705 -3.09105 0
M  V30 10214 O 962.403 2.95261 -2.87914 0
M  V30 10215 H 961.744 0.273173 -0.605204 0
M  V30 10216 H 964.274 0.23273 -2.03272 0
M  V30 10217 H 964.284 2.26655 -3.39252 0
M  V30 10218 H 962.959 1.26476 -3.96203 0
M  V30 10219 H 961.536 2.58246 -2.69005 0
M  V30 10220 N 963.721 1.49897 0.486681 0
M  V30 10221 C 964.949 1.63837 1.26353 0
M  V30 10222 C 965.364 0.315428 1.86146 0
M  V30 10223 O 964.721 -0.700831 1.68507 0
M  V30 10224 C 964.772 2.71792 2.38351 0
M  V30 10225 O 964.493 3.98956 1.81013 0
M  V30 10226 C 965.994 2.96566 3.2949 0
M  V30 10227 H 963.214 0.551158 0.382709 0
M  V30 10228 H 965.758 1.96023 0.582694 0
M  V30 10229 H 963.913 2.42344 3.02238 0
M  V30 10230 H 964.327 4.58536 2.54647 0
M  V30 10231 H 965.801 3.75803 4.04322 0
M  V30 10232 H 966.278 2.07031 3.87343 0
M  V30 10233 H 966.884 3.27485 2.71355 0
M  V30 10234 N 965.199 -0.738761 1.39212 0
M  V30 10235 C 966.109 -1.88324 1.39897 0
M  V30 10236 C 967.125 -1.71494 0.294229 0
M  V30 10237 O 968.301 -1.94162 0.535087 0
M  V30 10238 C 965.366 -3.23871 1.23726 0
M  V30 10239 C 964.427 -3.53121 2.44139 0
M  V30 10240 C 963.66 -4.82202 2.2873 0
M  V30 10241 O 963.883 -5.55649 1.28879 0
M  V30 10242 O 962.817 -5.11265 3.17634 0
M  V30 10243 H 966.643 -1.90701 2.36362 0
M  V30 10244 H 964.228 -0.886067 1.20288 0
M  V30 10245 H 966.11 -4.04882 1.16826 0
M  V30 10246 H 964.785 -3.22274 0.303551 0
M  V30 10247 H 963.692 -2.72212 2.56615 0
M  V30 10248 H 965.025 -3.59495 3.36191 0
M  V30 10249 N 966.677 -1.24326 -0.968545 0
M  V30 10250 C 967.925 -1.08032 -1.70803 0
M  V30 10251 C 968.246 0.381728 -1.91227 0
M  V30 10252 O 967.516 1.27253 -1.48942 0
M  V30 10253 H 966.096 -0.396777 -0.632912 0
M  V30 10254 H 968.758 -1.56232 -1.16523 0
M  V30 10255 H 967.854 -1.57769 -2.69287 0
M  V30 10256 N 968.156 1.1691 -1.05688 0
M  V30 10257 C 969.086 2.23275 -0.683402 0
M  V30 10258 C 970.067 1.6704 0.321206 0
M  V30 10259 O 971.252 1.93191 0.197691 0
M  V30 10260 C 968.382 3.47244 -0.0626006 0
M  V30 10261 C 967.336 4.16333 -0.992513 0
M  V30 10262 C 966.662 5.34182 -0.23533 0
M  V30 10263 C 967.962 4.68002 -2.31886 0
M  V30 10264 H 969.656 2.54771 -1.57264 0
M  V30 10265 H 967.202 1.2246 -0.757606 0
M  V30 10266 H 969.155 4.20874 0.210503 0
M  V30 10267 H 967.879 3.1503 0.861616 0
M  V30 10268 H 966.538 3.44622 -1.25026 0
M  V30 10269 H 966.186 4.9822 0.69181 0
M  V30 10270 H 965.886 5.81346 -0.855002 0
M  V30 10271 H 967.41 6.10592 0.0303717 0
M  V30 10272 H 968.824 5.33244 -2.10531 0
M  V30 10273 H 967.221 5.25764 -2.89296 0
M  V30 10274 H 968.291 3.84541 -2.95391 0
M  V30 10275 N 969.634 0.838594 1.33437 0
M  V30 10276 C 970.564 0.286672 2.31734 0
M  V30 10277 C 971.545 -0.605451 1.5896 0
M  V30 10278 O 972.73 -0.529059 1.86854 0
M  V30 10279 C 969.86 -0.539311 3.43087 0
M  V30 10280 C 968.814 0.256997 4.27228 0
M  V30 10281 C 968.14 -0.692718 5.30194 0
M  V30 10282 C 969.44 1.47391 5.01072 0
M  V30 10283 H 971.134 1.10798 2.78144 0
M  V30 10284 H 968.68 0.534235 1.33723 0
M  V30 10285 H 970.633 -0.935724 4.1088 0
M  V30 10286 H 969.357 -1.39383 2.95364 0
M  V30 10287 H 968.016 0.634967 3.61059 0
M  V30 10288 H 967.664 -1.54363 4.78729 0
M  V30 10289 H 967.364 -0.164023 5.87371 0
M  V30 10290 H 968.888 -1.08665 6.00853 0
M  V30 10291 H 970.302 1.15067 5.61634 0
M  V30 10292 H 968.699 1.93937 5.67898 0
M  V30 10293 H 969.769 2.24382 4.29861 0
M  V30 10294 N 971.112 -1.45937 0.595003 0
M  V30 10295 C 972.042 -2.33198 -0.11871 0
M  V30 10296 C 973.023 -1.46083 -0.871423 0
M  V30 10297 O 974.208 -1.74879 -0.844461 0
M  V30 10298 C 971.338 -3.28576 -1.12495 0
M  V30 10299 C 970.292 -4.25229 -0.486275 0
M  V30 10300 C 969.618 -5.10204 -1.59986 0
M  V30 10301 C 970.918 -5.19019 0.584473 0
M  V30 10302 H 972.612 -2.93122 0.609886 0
M  V30 10303 H 970.158 -1.40951 0.294742 0
M  V30 10304 H 972.111 -3.88485 -1.6327 0
M  V30 10305 H 970.835 -2.66784 -1.88398 0
M  V30 10306 H 969.494 -3.666 0.000507962 0
M  V30 10307 H 969.142 -4.44789 -2.34886 0
M  V30 10308 H 968.842 -5.75669 -1.1781 0
M  V30 10309 H 970.366 -5.7298 -2.11014 0
M  V30 10310 H 971.78 -5.73073 0.161297 0
M  V30 10311 H 970.177 -5.92893 0.927256 0
M  V30 10312 H 971.247 -4.62208 1.46601 0
M  V30 10313 N 972.59 -0.333456 -1.54032 0
M  V30 10314 C 973.538 0.543414 -2.26163 0
M  V30 10315 C 974.532 1.11037 -1.27934 0
M  V30 10316 O 975.738 1.05727 -1.45677 0
M  V30 10317 H 972.113 0.19391 -0.726569 0
M  V30 10318 H 974.084 -0.0871052 -2.98273 0
M  V30 10319 C 972.833 1.68769 -3.03994 0
M  V30 10320 H 972.156 1.26069 -3.79403 0
M  V30 10321 H 973.596 2.27662 -3.57695 0
M  V30 10322 C 972.055 2.61117 -2.12884 0
M  V30 10323 O 972.585 3.63097 -1.71823 0
M  V30 10324 N 970.791 2.29573 -1.7817 0
M  V30 10325 H 970.338 1.46684 -2.11759 0
M  V30 10326 H 970.296 2.91622 -1.1749 0
M  V30 10327 N 974.068 1.57479 -0.061844 0
M  V30 10328 C 975.317 1.92285 0.609055 0
M  V30 10329 C 975.63 0.942983 1.71369 0
M  V30 10330 O 976.836 1.18349 2.44348 0
M  V30 10331 C 975.292 3.41545 1.13468 0
M  V30 10332 C 974.9 4.47958 0.0615926 0
M  V30 10333 C 976.644 3.85368 1.78022 0
M  V30 10334 C 974.551 5.88341 0.600705 0
M  V30 10335 H 973.481 0.717656 0.23127 0
M  V30 10336 H 976.132 1.83021 -0.132466 0
M  V30 10337 H 974.514 3.45848 1.92886 0
M  V30 10338 H 975.688 4.55258 -0.712527 0
M  V30 10339 H 974.003 4.13541 -0.487116 0
M  V30 10340 H 976.6 4.87627 2.19371 0
M  V30 10341 H 976.943 3.22193 2.63623 0
M  V30 10342 H 977.476 3.83626 1.05242 0
M  V30 10343 H 974.215 6.55138 -0.217922 0
M  V30 10344 H 973.735 5.84581 1.34257 0
M  V30 10345 H 975.414 6.37918 1.08025 0
M  V30 10346 N 975.546 -0.211634 1.56173 0
M  V30 10347 C 976.823 -0.959467 1.70451 0
M  V30 10348 C 977.203 -2.02036 0.611942 0
M  V30 10349 O 976.551 -2.25325 -0.37959 0
M  V30 10350 C 976.761 -1.56092 3.12148 0
M  V30 10351 C 978.109 -2.04939 3.71867 0
M  V30 10352 O 979.133 -1.65966 3.15172 0
M  V30 10353 O 977.992 -2.766 4.71333 0
M  V30 10354 H 975.086 -0.448844 0.6946 0
M  V30 10355 H 977.632 -0.202633 1.68486 0
M  V30 10356 H 976.404 -0.79538 3.83131 0
M  V30 10357 H 976.027 -2.38303 3.18273 0
M  V30 10358 N 977.024 -1.50153 -0.478725 0
M  V30 10359 C 977.971 -1.68458 -1.57767 0
M  V30 10360 C 978.941 -0.5259 -1.57555 0
M  V30 10361 O 980.126 -0.755574 -1.75202 0
M  V30 10362 C 977.266 -1.77772 -2.95789 0
M  V30 10363 C 976.379 -3.05092 -3.05848 0
M  V30 10364 C 975.514 -3.05247 -4.34739 0
M  V30 10365 C 974.553 -4.27053 -4.38512 0
M  V30 10366 N 973.69 -4.24991 -5.58862 0
M  V30 10367 H 978.53 -2.62282 -1.41464 0
M  V30 10368 H 976.067 -1.30023 -0.687921 0
M  V30 10369 H 978.025 -1.81152 -3.75819 0
M  V30 10370 H 976.655 -0.873944 -3.10744 0
M  V30 10371 H 975.707 -3.11219 -2.1874 0
M  V30 10372 H 977.019 -3.95075 -3.04495 0
M  V30 10373 H 976.173 -3.07314 -5.23109 0
M  V30 10374 H 974.912 -2.13081 -4.38689 0
M  V30 10375 H 973.917 -4.25206 -3.4854 0
M  V30 10376 H 975.142 -5.20437 -4.36259 0
M  V30 10377 H 973.088 -3.35674 -5.63612 0
M  V30 10378 H 973.005 -5.08734 -5.59219 0
M  V30 10379 H 974.273 -4.31193 -6.49379 0
M  V30 10380 N 978.502 0.731368 -1.39602 0
M  V30 10381 C 979.779 1.48308 -1.27531 0
M  V30 10382 C 980.159 2.10795 0.113482 0
M  V30 10383 O 979.507 1.98886 1.12501 0
M  V30 10384 C 979.717 2.53156 -2.40235 0
M  V30 10385 C 981.065 3.19436 -2.79725 0
M  V30 10386 O 982.089 2.6347 -2.39712 0
M  V30 10387 O 980.948 4.20714 -3.48801 0
M  V30 10388 H 978.042 0.658753 -0.499973 0
M  V30 10389 H 980.588 0.764884 -1.51485 0
M  V30 10390 H 979.36 2.05387 -3.33064 0
M  V30 10391 H 978.983 3.3253 -2.17966 0
M  V30 10392 N 979.98 1.24838 0.961938 0
M  V30 10393 C 981.229 1.0855 1.69999 0
M  V30 10394 C 981.542 -0.374645 1.91979 0
M  V30 10395 O 982.748 -0.657822 2.6341 0
M  V30 10396 C 981.204 1.89424 3.06017 0
M  V30 10397 C 980.812 3.39885 2.9186 0
M  V30 10398 C 982.556 1.81684 3.83655 0
M  V30 10399 C 980.463 4.13082 4.23223 0
M  V30 10400 H 979.393 0.402603 0.637516 0
M  V30 10401 H 982.044 1.4897 1.07146 0
M  V30 10402 H 980.426 1.41823 3.69733 0
M  V30 10403 H 981.6 3.95108 2.37121 0
M  V30 10404 H 979.915 3.4864 2.27683 0
M  V30 10405 H 982.512 2.3367 4.80939 0
M  V30 10406 H 982.855 0.783247 4.08865 0
M  V30 10407 H 983.388 2.26997 3.26676 0
M  V30 10408 H 980.127 5.16824 4.03204 0
M  V30 10409 H 979.647 3.62644 4.77755 0
M  V30 10410 H 981.326 4.20397 4.91808 0
M  V30 10411 N 981.458 -1.16348 1.06306 0
M  V30 10412 C 982.874 -1.38873 0.786543 0
M  V30 10413 C 983.074 -1.91915 -0.614061 0
M  V30 10414 O 982.13 -2.11804 -1.3746 0
M  V30 10415 C 983.443 -2.36936 1.85154 0
M  V30 10416 C 984.991 -2.5062 1.87506 0
M  V30 10417 C 985.466 -3.51965 2.9306 0
M  V30 10418 N 986.957 -3.59492 2.92095 0
M  V30 10419 C 987.692 -4.37699 3.70415 0
M  V30 10420 N 987.188 -5.19327 4.58553 0
M  V30 10421 N 988.981 -4.32683 3.58806 0
M  V30 10422 H 981.132 -0.802542 1.96655 0
M  V30 10423 H 983.395 -0.415304 0.852189 0
M  V30 10424 H 983.101 -2.05056 2.85736 0
M  V30 10425 H 982.975 -3.36585 1.70267 0
M  V30 10426 H 985.362 -2.81804 0.875827 0
M  V30 10427 H 985.443 -1.51006 2.06472 0
M  V30 10428 H 985.087 -3.21518 3.93177 0
M  V30 10429 H 985.017 -4.51309 2.71344 0
M  V30 10430 H 987.508 -3.01222 2.28197 0
M  V30 10431 H 987.821 -5.76216 5.1497 0
M  V30 10432 H 986.166 -5.1867 4.62608 0
M  V30 10433 H 989.357 -3.67971 2.89335 0
M  V30 10434 H 989.53 -4.93386 4.20088 0
M  V30 10435 N 982.937 -0.845659 -1.3299 0
M  V30 10436 C 983.884 -0.281761 -2.29074 0
M  V30 10437 C 984.854 0.606237 -1.54641 0
M  V30 10438 O 986.039 0.543063 -1.82908 0
M  V30 10439 C 983.179 0.531451 -3.40983 0
M  V30 10440 C 982.292 -0.381328 -4.30314 0
M  V30 10441 C 981.427 0.443643 -5.29344 0
M  V30 10442 C 980.466 -0.467101 -6.10315 0
M  V30 10443 N 979.603 0.320148 -7.0137 0
M  V30 10444 H 984.443 -1.10641 -2.76699 0
M  V30 10445 H 981.98 -0.55706 -1.36144 0
M  V30 10446 H 983.938 1.01848 -4.04577 0
M  V30 10447 H 982.568 1.32101 -2.94532 0
M  V30 10448 H 981.62 -0.986701 -3.6738 0
M  V30 10449 H 982.932 -1.08067 -4.86953 0
M  V30 10450 H 982.086 0.994212 -5.98498 0
M  V30 10451 H 980.825 1.17639 -4.73299 0
M  V30 10452 H 979.83 -1.02963 -5.40073 0
M  V30 10453 H 981.055 -1.19832 -6.68444 0
M  V30 10454 H 979.001 1.03615 -6.47765 0
M  V30 10455 H 978.918 -0.320338 -7.55321 0
M  V30 10456 H 980.186 0.852735 -7.74822 0
M  V30 10457 N 984.415 1.45619 -0.602734 0
M  V30 10458 C 985.664 2.01483 -0.0936395 0
M  V30 10459 C 985.977 1.47753 1.28173 0
M  V30 10460 O 987.183 1.95562 1.88329 0
M  V30 10461 C 985.639 3.59711 -0.116738 0
M  V30 10462 C 985.247 4.22437 -1.49166 0
M  V30 10463 C 986.991 4.23157 0.337368 0
M  V30 10464 C 984.898 5.72803 -1.47141 0
M  V30 10465 H 983.828 0.753353 -0.0312382 0
M  V30 10466 H 986.479 1.67142 -0.757347 0
M  V30 10467 H 984.861 3.91218 0.613529 0
M  V30 10468 H 986.035 4.02511 -2.24325 0
M  V30 10469 H 984.35 3.71166 -1.88746 0
M  V30 10470 H 986.947 5.33407 0.371628 0
M  V30 10471 H 987.29 3.93491 1.35906 0
M  V30 10472 H 987.823 3.96349 -0.339474 0
M  V30 10473 H 984.562 6.07161 -2.47055 0
M  V30 10474 H 984.082 5.94936 -0.762329 0
M  V30 10475 H 985.761 6.35907 -1.19294 0
M  V30 10476 N 985.893 0.34162 1.53853 0
M  V30 10477 C 986.823 -0.508431 2.27897 0
M  V30 10478 C 987.804 -1.10425 1.29384 0
M  V30 10479 O 988.989 -1.126 1.58224 0
M  V30 10480 C 986.119 -1.66048 3.05034 0
M  V30 10481 C 985.073 -1.19309 4.11035 0
M  V30 10482 C 984.399 -2.4335 4.76114 0
M  V30 10483 C 985.699 -0.294952 5.21467 0
M  V30 10484 H 987.393 0.109251 2.99201 0
M  V30 10485 H 984.939 0.0539847 1.43899 0
M  V30 10486 H 986.892 -2.26158 3.5557 0
M  V30 10487 H 985.616 -2.30503 2.31379 0
M  V30 10488 H 984.275 -0.614809 3.61408 0
M  V30 10489 H 983.923 -3.06208 3.99056 0
M  V30 10490 H 983.623 -2.1276 5.47729 0
M  V30 10491 H 985.147 -3.0419 5.29434 0
M  V30 10492 H 986.561 -0.80285 5.67651 0
M  V30 10493 H 984.958 -0.0810221 6.00045 0
M  V30 10494 H 986.028 0.669433 4.80257 0
M  V30 10495 N 987.371 -1.57444 0.0701946 0
M  V30 10496 C 988.596 -1.98171 -0.61181 0
M  V30 10497 C 989.021 -0.94823 -1.62451 0
M  V30 10498 O 988.379 0.0863553 -1.81094 0
M  V30 10499 C 988.427 -3.37934 -1.2583 0
M  V30 10500 O 987.531 -3.37207 -2.37414 0
M  V30 10501 H 986.872 -0.645056 -0.157477 0
M  V30 10502 H 989.402 -2.04091 0.144235 0
M  V30 10503 H 989.412 -3.75083 -1.60552 0
M  V30 10504 H 988.087 -4.12684 -0.516234 0
M  V30 10505 H 986.664 -3.11826 -2.04497 0
M  V30 10506 N 988.849 0.203349 -1.56283 0
M  V30 10507 C 990.097 0.923183 -1.79782 0
M  V30 10508 C 990.418 1.84134 -0.64185 0
M  V30 10509 O 989.688 1.92922 0.340292 0
M  V30 10510 H 988.268 0.343881 -0.66314 0
M  V30 10511 H 990.93 0.210837 -1.93756 0
M  V30 10512 H 990.026 1.51921 -2.72629 0
M  V30 10513 N 990.327 1.50405 0.470755 0
M  V30 10514 C 991.557 1.64928 1.24428 0
M  V30 10515 C 991.965 0.332139 1.86262 0
M  V30 10516 O 991.308 -0.695919 1.70008 0
M  V30 10517 C 991.37 2.6829 2.39293 0
M  V30 10518 C 991.034 4.11835 1.98093 0
M  V30 10519 C 992.031 4.97693 1.50326 0
M  V30 10520 C 989.716 4.57753 2.06803 0
M  V30 10521 C 991.71 6.27516 1.11813 0
M  V30 10522 C 989.397 5.87582 1.67902 0
M  V30 10523 C 990.395 6.72289 1.20485 0
M  V30 10524 O 990.083 7.99694 0.821219 0
M  V30 10525 H 989.815 0.557418 0.382442 0
M  V30 10526 H 992.369 1.97382 0.568292 0
M  V30 10527 H 990.599 2.31079 3.10063 0
M  V30 10528 H 992.288 2.7203 3.01255 0
M  V30 10529 H 993.054 4.63434 1.43018 0
M  V30 10530 H 988.933 3.91966 2.42659 0
M  V30 10531 H 992.477 6.93586 0.747317 0
M  V30 10532 H 988.374 6.21362 1.74869 0
M  V30 10533 H 989.142 8.12968 0.950038 0
M  V30 10534 N 991.805 -0.723954 1.39988 0
M  V30 10535 C 993.054 -1.47922 1.3712 0
M  V30 10536 C 993.367 -1.95582 -0.0263665 0
M  V30 10537 O 994.573 -2.70918 -0.177652 0
M  V30 10538 C 993.029 -2.67342 2.40949 0
M  V30 10539 C 992.637 -2.26586 3.86475 0
M  V30 10540 C 994.381 -3.45116 2.47174 0
M  V30 10541 C 992.288 -3.42794 4.81919 0
M  V30 10542 H 991.218 -0.555522 0.509815 0
M  V30 10543 H 993.869 -0.788692 1.65686 0
M  V30 10544 H 992.251 -3.38524 2.0547 0
M  V30 10545 H 993.425 -1.62878 4.31054 0
M  V30 10546 H 991.74 -1.61876 3.83647 0
M  V30 10547 H 994.337 -4.31573 3.15672 0
M  V30 10548 H 994.68 -3.8835 1.49966 0
M  V30 10549 H 995.213 -2.80971 2.81602 0
M  V30 10550 H 991.952 -3.046 5.8043 0
M  V30 10551 H 991.472 -4.05445 4.42012 0
M  V30 10552 H 993.151 -4.08977 5.01345 0
M  V30 10553 N 993.283 -1.25346 -0.955304 0
M  V30 10554 C 994.529 -1.10218 -1.70235 0
M  V30 10555 C 994.862 0.356124 -1.90907 0
M  V30 10556 O 994.137 1.26253 -1.47954 0
M  V30 10557 C 994.42 -1.85627 -3.08569 0
M  V30 10558 C 994.273 -3.39281 -2.95311 0
M  V30 10559 C 995.592 -1.63886 -4.08448 0
M  V30 10560 H 992.711 -0.401781 -0.617852 0
M  V30 10561 H 995.353 -1.5417 -1.11048 0
M  V30 10562 H 993.503 -1.48269 -3.59094 0
M  V30 10563 H 995.175 -3.8631 -2.52116 0
M  V30 10564 H 993.418 -3.67027 -2.31244 0
M  V30 10565 H 994.089 -3.87258 -3.93364 0
M  V30 10566 H 996.565 -1.96406 -3.6683 0
M  V30 10567 H 995.441 -2.19087 -5.03281 0
M  V30 10568 H 995.702 -0.580021 -4.38279 0
M  V30 10569 N 994.761 1.15782 -1.06922 0
M  V30 10570 C 995.671 2.24008 -0.696948 0
M  V30 10571 C 996.687 1.71569 0.289862 0
M  V30 10572 O 997.863 2.00929 0.137585 0
M  V30 10573 C 994.928 3.46568 -0.0957895 0
M  V30 10574 C 993.989 4.14017 -1.13528 0
M  V30 10575 C 993.222 5.30725 -0.562713 0
M  V30 10576 O 993.445 5.66992 0.62259 0
M  V30 10577 O 992.379 5.87572 -1.30549 0
M  V30 10578 H 996.205 2.58174 -1.59938 0
M  V30 10579 H 993.79 1.2342 -0.841889 0
M  V30 10580 H 995.672 4.20731 0.237407 0
M  V30 10581 H 994.347 3.14161 0.780027 0
M  V30 10582 H 993.254 3.41795 -1.52076 0
M  V30 10583 H 994.587 4.50493 -1.98285 0
M  V30 10584 N 996.239 0.8527 1.3254 0
M  V30 10585 C 997.488 0.45136 1.96585 0
M  V30 10586 C 997.801 -0.997773 1.68237 0
M  V30 10587 O 999.007 -1.50445 2.26006 0
M  V30 10588 C 997.463 0.75619 3.51866 0
M  V30 10589 C 997.071 2.22092 3.89075 0
M  V30 10590 C 998.815 0.422478 4.22392 0
M  V30 10591 C 996.722 2.46908 5.37392 0
M  V30 10592 H 995.652 0.165052 0.735713 0
M  V30 10593 H 998.303 1.04321 1.50962 0
M  V30 10594 H 996.685 0.0937988 3.95889 0
M  V30 10595 H 997.859 2.92494 3.56067 0
M  V30 10596 H 996.174 2.51896 3.31568 0
M  V30 10597 H 998.771 0.58533 5.31487 0
M  V30 10598 H 999.114 -0.635737 4.11417 0
M  V30 10599 H 999.647 1.04068 3.83946 0
M  V30 10600 H 996.386 3.51346 5.53386 0
M  V30 10601 H 995.906 1.81082 5.71812 0
M  V30 10602 H 997.585 2.30758 6.0445 0
M  V30 10603 N 997.718 -1.45297 0.610449 0
M  V30 10604 C 998.628 -2.34349 -0.108475 0
M  V30 10605 C 999.644 -1.51409 -0.857397 0
M  V30 10606 O 1000.82 -1.84202 -0.814337 0
M  V30 10607 C 997.885 -3.29072 -1.09144 0
M  V30 10608 C 996.946 -4.27918 -0.344165 0
M  V30 10609 C 996.179 -5.18116 -1.28031 0
M  V30 10610 O 996.402 -5.11802 -2.51824 0
M  V30 10611 O 995.336 -5.96879 -0.775821 0
M  V30 10612 H 999.162 -2.97232 0.623421 0
M  V30 10613 H 996.747 -1.44728 0.3707 0
M  V30 10614 H 998.629 -3.87433 -1.65751 0
M  V30 10615 H 997.304 -2.68749 -1.80431 0
M  V30 10616 H 996.211 -3.73164 0.264437 0
M  V30 10617 H 997.544 -4.91104 0.328275 0
M  V30 10618 N 999.196 -0.349774 -1.5367 0
M  V30 10619 C 1000.47 0.300419 -1.93279 0
M  V30 10620 C 1000.85 1.67721 -1.28191 0
M  V30 10621 O 1000.2 2.24319 -0.435127 0
M  V30 10622 C 1000.41 0.366466 -3.47071 0
M  V30 10623 C 1001.76 0.614349 -4.20132 0
M  V30 10624 O 1002.78 0.448327 -3.53367 0
M  V30 10625 O 1001.64 0.936421 -5.38417 0
M  V30 10626 H 998.736 0.176599 -0.807924 0
M  V30 10627 H 1001.28 -0.401405 -1.64884 0
M  V30 10628 H 1000.05 -0.599455 -3.86681 0
M  V30 10629 H 999.677 1.11482 -3.81651 0
M  V30 10630 N 1000.67 1.57404 -0.0785433 0
M  V30 10631 C 1001.9 1.98074 0.597862 0
M  V30 10632 C 1002.32 0.95714 1.6274 0
M  V30 10633 O 1001.67 -0.0553728 1.82416 0
M  V30 10634 C 1001.72 3.38815 1.26041 0
M  V30 10635 O 1001.45 4.37254 0.27207 0
M  V30 10636 C 1002.95 3.94397 2.024 0
M  V30 10637 H 1000.17 0.651263 0.161546 0
M  V30 10638 H 1002.71 2.03927 -0.152941 0
M  V30 10639 H 1000.87 3.34028 1.96225 0
M  V30 10640 H 1001.28 5.19136 0.74822 0
M  V30 10641 H 1002.75 4.95075 2.4414 0
M  V30 10642 H 1003.23 3.31308 2.88326 0
M  V30 10643 H 1003.84 4.02607 1.37068 0
M  V30 10644 N 1002.15 -0.195058 1.56388 0
M  V30 10645 C 1003.06 -1.26219 1.97752 0
M  V30 10646 C 1004.08 -1.49801 0.885192 0
M  V30 10647 O 1005.25 -1.62415 1.19094 0
M  V30 10648 C 1002.32 -2.5865 2.3087 0
M  V30 10649 C 1001.38 -2.4314 3.5381 0
M  V30 10650 C 1000.61 -3.69255 3.85339 0
M  V30 10651 O 1000.84 -4.73425 3.18159 0
M  V30 10652 O 999.77 -3.64782 4.78767 0
M  V30 10653 H 1003.6 -0.941161 2.88749 0
M  V30 10654 H 1001.18 -0.40006 1.43944 0
M  V30 10655 H 1003.06 -3.36814 2.53247 0
M  V30 10656 H 1001.74 -2.9038 1.43042 0
M  V30 10657 H 1000.64 -1.63086 3.3668 0
M  V30 10658 H 1001.98 -2.16341 4.42105 0
M  V30 10659 N 1003.63 -1.50653 -0.462772 0
M  V30 10660 C 1004.88 -1.61737 -1.21184 0
M  V30 10661 C 1005.2 -0.32369 -1.92295 0
M  V30 10662 O 1004.47 0.659269 -1.84473 0
M  V30 10663 H 1003.05 -0.596015 -0.450306 0
M  V30 10664 H 1005.71 -1.87469 -0.533051 0
M  V30 10665 H 1004.81 -2.43262 -1.95525 0
M  V30 10666 N 1005.11 0.71652 -1.4037 0
M  V30 10667 C 1006.04 1.84345 -1.43315 0
M  V30 10668 C 1007.02 1.67537 -0.294186 0
M  V30 10669 O 1008.2 1.87582 -0.502671 0
M  V30 10670 C 1005.33 3.2229 -1.29408 0
M  V30 10671 C 1004.29 3.53769 -2.40897 0
M  V30 10672 C 1003.61 4.90847 -2.12068 0
M  V30 10673 C 1004.91 3.54862 -3.83237 0
M  V30 10674 H 1006.61 1.82138 -2.37626 0
M  V30 10675 H 1004.15 0.874873 -1.14376 0
M  V30 10676 H 1006.11 4.00819 -1.30085 0
M  V30 10677 H 1004.83 3.2507 -0.31573 0
M  V30 10678 H 1003.49 2.77579 -2.39469 0
M  V30 10679 H 1003.14 4.90229 -1.12626 0
M  V30 10680 H 1002.84 5.12875 -2.86762 0
M  V30 10681 H 1004.36 5.71711 -2.14426 0
M  V30 10682 H 1005.78 4.23432 -3.86494 0
M  V30 10683 H 1004.17 3.88416 -4.57442 0
M  V30 10684 H 1005.24 2.54266 -4.12888 0
M  V30 10685 N 1006.59 1.25851 0.948643 0
M  V30 10686 C 1007.53 1.06759 2.04625 0
M  V30 10687 C 1008.5 -0.0251144 1.66081 0
M  V30 10688 O 1009.69 0.133221 1.90334 0
M  V30 10689 C 1006.83 0.698724 3.37952 0
M  V30 10690 C 1005.94 1.8669 3.89578 0
M  V30 10691 C 1005.08 1.44184 5.11258 0
M  V30 10692 C 1004.12 2.57878 5.55126 0
M  V30 10693 N 1003.25 2.16106 6.68014 0
M  V30 10694 H 1008.09 2.00691 2.20289 0
M  V30 10695 H 1005.63 0.999327 1.07944 0
M  V30 10696 H 1007.59 0.465788 4.14592 0
M  V30 10697 H 1006.22 -0.203618 3.22157 0
M  V30 10698 H 1005.27 2.21298 3.09405 0
M  V30 10699 H 1006.58 2.72051 4.18079 0
M  V30 10700 H 1005.74 1.16891 5.95333 0
M  V30 10701 H 1004.47 0.559035 4.84485 0
M  V30 10702 H 1003.48 2.85909 4.69612 0
M  V30 10703 H 1004.7 3.46747 5.83904 0
M  V30 10704 H 1002.65 1.3025 6.42939 0
M  V30 10705 H 1002.57 2.95012 6.96063 0
M  V30 10706 H 1003.84 1.92005 7.55483 0
M  V30 10707 N 1008.06 -1.15214 1.07534 0
M  V30 10708 C 1008.97 -2.23636 0.708818 0
M  V30 10709 C 1009.99 -1.7172 -0.280759 0
M  V30 10710 O 1011.17 -2.01 -0.126927 0
M  V30 10711 C 1008.23 -3.46512 0.114167 0
M  V30 10712 C 1007.29 -4.13409 1.15722 0
M  V30 10713 C 1006.53 -5.30419 0.59085 0
M  V30 10714 O 1006.75 -5.67314 -0.592512 0
M  V30 10715 O 1005.68 -5.86871 1.33663 0
M  V30 10716 H 1009.51 -2.57322 1.61305 0
M  V30 10717 H 1007.09 -1.22972 0.848422 0
M  V30 10718 H 1008.98 -4.20851 -0.215091 0
M  V30 10719 H 1007.65 -3.1457 -0.763356 0
M  V30 10720 H 1006.56 -3.40984 1.53886 0
M  V30 10721 H 1007.89 -4.49435 2.00671 0
M  V30 10722 N 1009.54 -0.859717 -1.32086 0
M  V30 10723 C 1010.79 -0.466271 -1.97367 0
M  V30 10724 C 1011.12 0.976728 -1.6785 0
M  V30 10725 O 1010.4 1.68618 -0.969449 0
M  V30 10726 C 1010.68 -0.711851 -3.52994 0
M  V30 10727 C 1010.53 -2.20364 -3.92122 0
M  V30 10728 C 1011.85 -0.17156 -4.39765 0
M  V30 10729 H 1008.97 -0.170883 -0.716916 0
M  V30 10730 H 1011.61 -1.07907 -1.56384 0
M  V30 10731 H 1009.76 -0.190258 -3.88034 0
M  V30 10732 H 1011.43 -2.7917 -3.67236 0
M  V30 10733 H 1009.68 -2.68019 -3.41099 0
M  V30 10734 H 1010.35 -2.32615 -5.00594 0
M  V30 10735 H 1012.82 -0.617665 -4.1149 0
M  V30 10736 H 1011.7 -0.372921 -5.47632 0
M  V30 10737 H 1011.96 0.925959 -4.32294 0
M  V30 10738 N 1011.02 1.44971 -0.618145 0
M  V30 10739 C 1012.27 2.01372 -0.115004 0
M  V30 10740 C 1012.58 1.49104 1.26599 0
M  V30 10741 O 1013.79 1.97549 1.86244 0
M  V30 10742 C 1012.24 3.59567 -0.154883 0
M  V30 10743 C 1011.85 4.20832 -1.53639 0
M  V30 10744 C 1013.6 4.23491 0.292468 0
M  V30 10745 C 1011.5 5.7121 -1.53208 0
M  V30 10746 H 1010.43 0.752979 -0.0392267 0
M  V30 10747 H 1013.08 1.66329 -0.775032 0
M  V30 10748 H 1011.47 3.91847 0.572001 0
M  V30 10749 H 1012.64 4.00109 -2.28582 0
M  V30 10750 H 1010.96 3.69143 -1.92672 0
M  V30 10751 H 1013.55 5.33771 0.315032 0
M  V30 10752 H 1013.9 3.9491 1.31725 0
M  V30 10753 H 1014.43 3.95967 -0.381493 0
M  V30 10754 H 1011.17 6.04506 -2.53481 0
M  V30 10755 H 1010.69 5.94094 -0.825387 0
M  V30 10756 H 1012.37 6.34606 -1.26032 0
M  V30 10757 N 1012.5 0.357919 1.53482 0
M  V30 10758 C 1013.45 -0.507364 2.26999 0
M  V30 10759 C 1014.44 -1.08987 1.29685 0
M  V30 10760 O 1015.65 -1.03396 1.47341 0
M  V30 10761 H 1012.02 -0.182326 0.729562 0
M  V30 10762 H 1013.99 0.134547 2.98097 0
M  V30 10763 C 1012.74 -1.63911 3.06641 0
M  V30 10764 H 1012.06 -1.20017 3.81361 0
M  V30 10765 H 1013.5 -2.21943 3.61272 0
M  V30 10766 C 1011.96 -2.57697 2.17011 0
M  V30 10767 O 1012.49 -3.60318 1.77578 0
M  V30 10768 N 1010.7 -2.2671 1.818 0
M  V30 10769 H 1010.25 -1.43296 2.14065 0
M  V30 10770 H 1010.2 -2.89716 1.22115 0
M  V30 10771 N 1013.98 -1.5736 0.0868897 0
M  V30 10772 C 1015.25 -1.85495 -0.620561 0
M  V30 10773 C 1015.63 -0.982218 -1.86857 0
M  V30 10774 O 1014.98 -0.0524529 -2.2844 0
M  V30 10775 C 1015.19 -3.35996 -0.943798 0
M  V30 10776 C 1016.54 -4.03861 -1.31079 0
M  V30 10777 O 1017.56 -3.4083 -1.03507 0
M  V30 10778 O 1016.42 -5.15062 -1.82683 0
M  V30 10779 H 1013.52 -0.766822 -0.309697 0
M  V30 10780 H 1016.06 -1.69282 0.118966 0
M  V30 10781 H 1014.83 -3.91257 -0.0580628 0
M  V30 10782 H 1014.46 -3.57525 -1.73958 0
M  V30 10783 N 1015.45 0.186762 -1.56489 0
M  V30 10784 C 1016.87 0.537933 -1.50261 0
M  V30 10785 C 1017.07 1.85435 -0.788414 0
M  V30 10786 O 1016.13 2.50168 -0.342377 0
M  V30 10787 C 1017.44 0.584965 -2.94955 0
M  V30 10788 C 1018.99 0.673228 -3.05674 0
M  V30 10789 C 1019.46 0.751294 -4.51796 0
M  V30 10790 N 1020.95 0.814599 -4.55981 0
M  V30 10791 C 1021.69 0.895313 -5.66367 0
M  V30 10792 N 1021.18 0.937814 -6.86423 0
M  V30 10793 N 1022.98 0.933145 -5.543 0
M  V30 10794 H 1015.13 -0.676636 -2.01334 0
M  V30 10795 H 1017.39 -0.242079 -0.916571 0
M  V30 10796 H 1017.1 -0.313361 -3.50301 0
M  V30 10797 H 1016.97 1.4368 -3.48763 0
M  V30 10798 H 1019.36 1.56198 -2.50372 0
M  V30 10799 H 1019.44 -0.204976 -2.54977 0
M  V30 10800 H 1019.08 -0.133143 -5.07725 0
M  V30 10801 H 1019.01 1.64542 -5.00233 0
M  V30 10802 H 1021.5 0.790662 -3.69536 0
M  V30 10803 H 1021.82 1.00015 -7.66301 0
M  V30 10804 H 1020.16 0.906351 -6.89065 0
M  V30 10805 H 1023.35 0.896836 -4.59428 0
M  V30 10806 H 1023.53 0.992588 -6.40353 0
M  V30 10807 N 1016.93 1.50896 0.454776 0
M  V30 10808 C 1018.16 1.66239 1.22671 0
M  V30 10809 C 1018.57 0.351876 1.85899 0
M  V30 10810 O 1017.91 -0.677848 1.70736 0
M  V30 10811 C 1017.98 2.70812 2.36434 0
M  V30 10812 C 1017.64 4.13913 1.93714 0
M  V30 10813 C 1018.64 4.99259 1.45039 0
M  V30 10814 C 1016.32 4.59921 2.01937 0
M  V30 10815 C 1018.32 6.28667 1.05151 0
M  V30 10816 C 1016 5.89329 1.6166 0
M  V30 10817 C 1017 6.73529 1.13347 0
M  V30 10818 O 1016.69 8.0052 0.736354 0
M  V30 10819 H 1016.42 0.561443 0.376508 0
M  V30 10820 H 1018.97 1.97974 0.547325 0
M  V30 10821 H 1017.2 2.34355 3.07595 0
M  V30 10822 H 1018.89 2.7521 2.98353 0
M  V30 10823 H 1019.66 4.64925 1.38095 0
M  V30 10824 H 1015.54 3.94518 2.38488 0
M  V30 10825 H 1019.08 6.94339 0.673711 0
M  V30 10826 H 1014.98 6.23182 1.68269 0
M  V30 10827 H 1015.75 8.1393 0.863759 0
M  V30 10828 N 1018.41 -0.709066 1.40748 0
M  V30 10829 C 1019.69 -1.4626 1.29874 0
M  V30 10830 C 1020.07 -2.10949 -0.0799322 0
M  V30 10831 O 1019.42 -2.00651 -1.09323 0
M  V30 10832 C 1019.63 -2.49302 2.44232 0
M  V30 10833 C 1020.97 -3.14945 2.84771 0
M  V30 10834 O 1022 -2.59623 2.43873 0
M  V30 10835 O 1020.86 -4.15111 3.5545 0
M  V30 10836 H 1017.95 -0.650716 0.51039 0
M  V30 10837 H 1020.5 -0.740687 1.52682 0
M  V30 10838 H 1019.27 -2.00063 3.36289 0
M  V30 10839 H 1018.89 -3.29021 2.23229 0
M  V30 10840 N 1019.89 -1.26353 -0.941956 0
M  V30 10841 C 1020.82 -1.02163 -2.04054 0
M  V30 10842 C 1021.8 0.0533514 -1.62512 0
M  V30 10843 O 1022.98 -0.0889063 -1.8829 0
M  V30 10844 C 1020.11 -0.546908 -3.34255 0
M  V30 10845 C 1019.16 -1.61433 -3.94768 0
M  V30 10846 S 1019.99 -3.20306 -4.29144 0
M  V30 10847 C 1021.15 -2.746 -5.62446 0
M  V30 10848 H 1021.38 -1.9518 -2.24259 0
M  V30 10849 H 1018.91 -1.10024 -1.08324 0
M  V30 10850 H 1020.87 -0.279673 -4.09546 0
M  V30 10851 H 1019.53 0.36297 -3.11996 0
M  V30 10852 H 1018.72 -1.23315 -4.88681 0
M  V30 10853 H 1018.33 -1.8329 -3.26007 0
M  V30 10854 H 1020.62 -2.19015 -6.41123 0
M  V30 10855 H 1021.56 -3.67202 -6.05449 0
M  V30 10856 H 1021.97 -2.1419 -5.22286 0
M  V30 10857 N 1021.37 1.14642 -1.08144 0
M  V30 10858 C 1022.3 2.21775 -0.730609 0
M  V30 10859 C 1023.28 1.67683 0.285702 0
M  V30 10860 O 1024.46 1.93567 0.156667 0
M  V30 10861 C 1021.59 3.47033 -0.136242 0
M  V30 10862 C 1020.55 4.14134 -1.0806 0
M  V30 10863 C 1019.87 5.33563 -0.348585 0
M  V30 10864 C 1021.17 4.62978 -2.41761 0
M  V30 10865 H 1022.87 2.51378 -1.62633 0
M  V30 10866 H 1020.41 1.20825 -0.783411 0
M  V30 10867 H 1022.37 4.21226 0.121182 0
M  V30 10868 H 1021.09 3.16786 0.7946 0
M  V30 10869 H 1019.75 3.41892 -1.32308 0
M  V30 10870 H 1019.4 4.99575 0.585974 0
M  V30 10871 H 1019.1 5.79402 -0.978122 0
M  V30 10872 H 1020.62 6.10519 -0.0991508 0
M  V30 10873 H 1022.04 5.28659 -2.21795 0
M  V30 10874 H 1020.43 5.1951 -3.00383 0
M  V30 10875 H 1021.5 3.78189 -3.03482 0
M  V30 10876 N 1022.85 0.866709 1.31628 0
M  V30 10877 C 1023.79 0.309128 2.30537 0
M  V30 10878 C 1024.79 -0.574028 1.59378 0
M  V30 10879 O 1025.99 -0.460491 1.7401 0
M  V30 10880 H 1022.37 0.081279 0.747595 0
M  V30 10881 H 1024.34 1.15734 2.75042 0
M  V30 10882 C 1023.09 -0.477287 3.44409 0
M  V30 10883 H 1022.41 0.19301 3.99334 0
M  V30 10884 H 1023.85 -0.832818 4.1574 0
M  V30 10885 C 1022.31 -1.66727 2.92752 0
M  V30 10886 O 1022.84 -2.76654 2.91248 0
M  V30 10887 N 1021.05 -1.49833 2.48995 0
M  V30 10888 H 1020.59 -0.604073 2.50417 0
M  V30 10889 H 1020.55 -2.29594 2.14788 0
M  V30 10890 N 1024.32 -1.44642 0.625825 0
M  V30 10891 C 1025.57 -2.01308 0.125682 0
M  V30 10892 C 1025.89 -1.49773 -1.25807 0
M  V30 10893 O 1027.09 -1.98533 -1.85194 0
M  V30 10894 C 1025.55 -3.59479 0.17395 0
M  V30 10895 C 1025.16 -4.20011 1.55868 0
M  V30 10896 C 1026.9 -4.2364 -0.270005 0
M  V30 10897 C 1024.81 -5.7039 1.56235 0
M  V30 10898 H 1023.74 -0.75276 0.0432194 0
M  V30 10899 H 1026.39 -1.65916 0.783842 0
M  V30 10900 H 1024.77 -3.92145 -0.551212 0
M  V30 10901 H 1025.94 -3.98891 2.307 0
M  V30 10902 H 1024.26 -3.68116 1.94627 0
M  V30 10903 H 1026.86 -5.33931 -0.28672 0
M  V30 10904 H 1027.2 -3.95603 -1.29629 0
M  V30 10905 H 1027.73 -3.95759 0.402487 0
M  V30 10906 H 1024.47 -6.03154 2.56683 0
M  V30 10907 H 1023.99 -5.93648 0.856881 0
M  V30 10908 H 1025.67 -6.33929 1.29396 0
M  V30 10909 N 1025.8 -0.366053 -1.5329 0
M  V30 10910 C 1027.03 0.226839 -2.06156 0
M  V30 10911 C 1027.45 1.41637 -1.23776 0
M  V30 10912 O 1026.81 1.7947 -0.256948 0
M  V30 10913 C 1026.86 0.597956 -3.55608 0
M  V30 10914 O 1025.96 1.69512 -3.75951 0
M  V30 10915 H 1025.3 0.0329156 -0.663184 0
M  V30 10916 H 1027.83 -0.526793 -1.97702 0
M  V30 10917 H 1027.84 0.868831 -3.98642 0
M  V30 10918 H 1026.52 -0.271838 -4.15011 0
M  V30 10919 H 1025.09 1.41976 -3.44815 0
M  V30 10920 N 1027.28 1.57312 -0.0952337 0
M  V30 10921 C 1028.5 1.99119 0.580206 0
M  V30 10922 C 1028.93 0.973955 1.60922 0
M  V30 10923 O 1028.29 -0.0575338 1.81209 0
M  V30 10924 C 1028.34 3.39893 1.20438 0
M  V30 10925 O 1027.44 3.40941 2.32019 0
M  V30 10926 H 1026.78 0.64748 0.147195 0
M  V30 10927 H 1029.31 2.03836 -0.176686 0
M  V30 10928 H 1029.32 3.7759 1.54564 0
M  V30 10929 H 1028 4.13453 0.450514 0
M  V30 10930 H 1026.57 3.1504 1.9951 0
M  V30 10931 N 1028.76 -0.17846 1.56586 0
M  V30 10932 C 1029.69 -1.22342 1.98884 0
M  V30 10933 C 1030.67 -1.46564 0.86331 0
M  V30 10934 O 1031.85 -1.58019 1.12887 0
M  V30 10935 C 1028.98 -2.56396 2.34261 0
M  V30 10936 C 1027.94 -2.46756 3.49708 0
M  V30 10937 C 1027.26 -3.85235 3.70807 0
M  V30 10938 C 1028.56 -1.97838 4.83381 0
M  V30 10939 H 1030.26 -0.871848 2.86425 0
M  V30 10940 H 1027.8 -0.417948 1.37801 0
M  V30 10941 H 1029.76 -3.29695 2.62448 0
M  V30 10942 H 1028.48 -2.93327 1.43621 0
M  V30 10943 H 1027.14 -1.75912 3.21637 0
M  V30 10944 H 1026.79 -4.19547 2.7747 0
M  V30 10945 H 1026.49 -3.79655 4.48481 0
M  V30 10946 H 1028.01 -4.60131 4.01387 0
M  V30 10947 H 1029.43 -2.60906 5.10491 0
M  V30 10948 H 1027.82 -2.03223 5.64642 0
M  V30 10949 H 1028.89 -0.932339 4.75852 0
M  V30 10950 N 1030.24 -1.51135 -0.446768 0
M  V30 10951 C 1031.65 -1.39101 -0.782504 0
M  V30 10952 C 1031.85 -0.46599 -1.96038 0
M  V30 10953 O 1030.91 0.0823679 -2.52366 0
M  V30 10954 C 1032.22 -2.80953 -1.07173 0
M  V30 10955 C 1033.77 -2.90038 -1.17673 0
M  V30 10956 C 1034.24 -4.32777 -1.49894 0
M  V30 10957 N 1035.73 -4.3584 -1.56837 0
M  V30 10958 C 1036.47 -5.43305 -1.83322 0
M  V30 10959 N 1035.97 -6.60945 -2.07662 0
M  V30 10960 N 1037.76 -5.30775 -1.85026 0
M  V30 10961 H 1029.91 -2.09835 0.329114 0
M  V30 10962 H 1032.17 -0.944199 0.0848054 0
M  V30 10963 H 1031.88 -3.50591 -0.279037 0
M  V30 10964 H 1031.75 -3.197 -2.00179 0
M  V30 10965 H 1034.14 -2.20603 -1.96005 0
M  V30 10966 H 1034.22 -2.54801 -0.225892 0
M  V30 10967 H 1033.86 -5.02757 -0.720924 0
M  V30 10968 H 1033.79 -4.6552 -2.46168 0
M  V30 10969 H 1036.29 -3.51023 -1.39968 0
M  V30 10970 H 1036.6 -7.38643 -2.27214 0
M  V30 10971 H 1034.94 -6.64077 -2.05003 0
M  V30 10972 H 1038.13 -4.37858 -1.65523 0
M  V30 10973 H 1038.31 -6.14609 -2.05329 0
M  V30 10974 N 1031.71 0.701592 -1.41122 0
M  V30 10975 C 1032.65 1.8268 -1.38422 0
M  V30 10976 C 1033.66 1.60244 -0.287342 0
M  V30 10977 O 1034.85 1.69859 -0.548658 0
M  V30 10978 C 1031.95 3.19338 -1.13475 0
M  V30 10979 C 1031.12 3.68853 -2.35088 0
M  V30 10980 C 1030.18 4.84163 -2.06089 0
M  V30 10981 O 1029.21 4.9609 -2.79077 0
M  V30 10982 N 1030.41 5.70972 -1.04743 0
M  V30 10983 H 1033.17 1.8549 -2.35401 0
M  V30 10984 H 1030.73 0.883682 -1.35656 0
M  V30 10985 H 1032.73 3.94095 -0.920377 0
M  V30 10986 H 1031.3 3.11589 -0.251152 0
M  V30 10987 H 1030.52 2.8507 -2.72266 0
M  V30 10988 H 1031.8 3.98673 -3.16129 0
M  V30 10989 H 1031.2 5.63961 -0.443221 0
M  V30 10990 H 1029.76 6.45654 -0.892949 0
M  V30 10991 N 1033.19 1.2685 0.935242 0
M  V30 10992 C 1034.47 1.03483 1.65984 0
M  V30 10993 C 1034.85 -0.432859 2.06614 0
M  V30 10994 O 1034.2 -1.4145 1.79455 0
M  V30 10995 C 1034.41 1.98924 2.86758 0
M  V30 10996 C 1035.75 2.2787 3.58274 0
M  V30 10997 O 1036.78 1.96838 2.96873 0
M  V30 10998 O 1035.64 2.80734 4.68882 0
M  V30 10999 H 1032.73 0.393932 0.72715 0
M  V30 11000 H 1035.28 1.38085 0.986445 0
M  V30 11001 H 1034.05 2.9794 2.53668 0
M  V30 11002 H 1033.67 1.64839 3.6182 0
M  V30 11003 N 1034.67 -1.14067 1.0875 0
M  V30 11004 C 1035.92 -1.84819 0.817698 0
M  V30 11005 C 1036.24 -1.83545 -0.658488 0
M  V30 11006 O 1035.51 -1.28633 -1.47751 0
M  V30 11007 H 1034.09 -0.68433 0.299502 0
M  V30 11008 H 1036.75 -1.38208 1.37421 0
M  V30 11009 H 1035.85 -2.89541 1.16501 0
M  V30 11010 N 1036.15 -0.873678 -1.31166 0
M  V30 11011 C 1037.1 -0.330288 -2.28424 0
M  V30 11012 C 1038.07 0.573299 -1.55893 0
M  V30 11013 O 1039.25 0.504143 -1.84019 0
M  V30 11014 C 1036.39 0.459004 -3.42034 0
M  V30 11015 C 1035.5 -0.472519 -4.29408 0
M  V30 11016 C 1034.64 0.331261 -5.30166 0
M  V30 11017 C 1033.68 -0.596453 -6.09187 0
M  V30 11018 N 1032.81 0.171305 -7.01891 0
M  V30 11019 H 1037.65 -1.16485 -2.7429 0
M  V30 11020 H 1035.19 -0.585813 -1.34932 0
M  V30 11021 H 1037.15 0.932432 -4.06647 0
M  V30 11022 H 1035.78 1.25824 -2.97268 0
M  V30 11023 H 1034.83 -1.06441 -3.65205 0
M  V30 11024 H 1036.14 -1.18372 -4.84551 0
M  V30 11025 H 1035.3 0.867038 -6.00473 0
M  V30 11026 H 1034.04 1.07573 -4.75688 0
M  V30 11027 H 1033.04 -1.14395 -5.37767 0
M  V30 11028 H 1034.27 -1.33983 -6.65752 0
M  V30 11029 H 1032.21 0.89852 -6.49817 0
M  V30 11030 H 1032.13 -0.480481 -7.54472 0
M  V30 11031 H 1033.4 0.688192 -7.76456 0
M  V30 11032 N 1037.63 1.44308 -0.633487 0
M  V30 11033 C 1038.85 2.06384 -0.146063 0
M  V30 11034 C 1039.27 1.47357 1.18031 0
M  V30 11035 O 1038.63 0.597334 1.72448 0
M  V30 11036 C 1038.68 3.61489 -0.0276722 0
M  V30 11037 O 1038.4 4.18318 -1.3016 0
M  V30 11038 C 1039.9 4.40604 0.488168 0
M  V30 11039 H 1037.12 0.666122 -0.0807632 0
M  V30 11040 H 1039.66 1.85139 -0.868557 0
M  V30 11041 H 1037.82 3.81988 0.645273 0
M  V30 11042 H 1038.23 5.11783 -1.14797 0
M  V30 11043 H 1039.71 5.49545 0.520013 0
M  V30 11044 H 1040.18 4.12218 1.51568 0
M  V30 11045 H 1040.79 4.2503 -0.151608 0
M  V30 11046 N 1039.1 0.374177 1.53094 0
M  V30 11047 C 1040.35 -0.212816 2.01379 0
M  V30 11048 C 1040.68 -1.48069 1.26118 0
M  V30 11049 O 1039.93 -1.92625 0.345561 0
M  V30 11050 C 1040.23 -0.542179 3.53264 0
M  V30 11051 C 1039.9 0.632375 4.46444 0
M  V30 11052 C 1038.56 0.954635 4.71636 0
M  V30 11053 C 1040.91 1.41887 5.01515 0
M  V30 11054 C 1038.24 2.06521 5.4915 0
M  V30 11055 C 1040.59 2.51993 5.80243 0
M  V30 11056 C 1039.26 2.84744 6.03719 0
M  V30 11057 H 1038.53 -0.0778749 0.736897 0
M  V30 11058 H 1041.17 0.508412 1.84628 0
M  V30 11059 H 1039.48 -1.34454 3.68007 0
M  V30 11060 H 1041.18 -1.00874 3.88105 0
M  V30 11061 H 1037.77 0.371179 4.2699 0
M  V30 11062 H 1041.95 1.18315 4.81991 0
M  V30 11063 H 1037.21 2.32284 5.65557 0
M  V30 11064 H 1041.38 3.13346 6.21922 0
M  V30 11065 H 1039.01 3.70921 6.63568 0
M  V30 11066 N 1040.58 -1.57259 0.103575 0
M  V30 11067 C 1041.83 -1.93832 -0.55786 0
M  V30 11068 C 1042.14 -0.988087 -1.68808 0
M  V30 11069 O 1043.35 -1.24786 -2.41124 0
M  V30 11070 C 1041.81 -3.44433 -1.04373 0
M  V30 11071 C 1041.41 -4.47963 0.0571971 0
M  V30 11072 C 1043.16 -3.89953 -1.67742 0
M  V30 11073 C 1041.07 -5.89727 -0.444505 0
M  V30 11074 H 1040 -0.723536 -0.212161 0
M  V30 11075 H 1042.65 -1.82606 0.180944 0
M  V30 11076 H 1041.03 -3.50841 -1.83648 0
M  V30 11077 H 1042.2 -4.53209 0.83298 0
M  V30 11078 H 1040.52 -4.12104 0.596588 0
M  V30 11079 H 1043.11 -4.93272 -2.06365 0
M  V30 11080 H 1043.46 -3.2907 -2.54988 0
M  V30 11081 H 1043.99 -3.86281 -0.950342 0
M  V30 11082 H 1040.73 -6.5433 0.391543 0
M  V30 11083 H 1040.25 -5.87935 -1.18711 0
M  V30 11084 H 1041.93 -6.40558 -0.910739 0
M  V30 11085 N 1042.06 0.170153 -1.56679 0
M  V30 11086 C 1043.34 0.913938 -1.72935 0
M  V30 11087 C 1043.72 2.00342 -0.665293 0
M  V30 11088 O 1043.07 2.26252 0.319715 0
M  V30 11089 C 1043.28 1.47761 -3.16177 0
M  V30 11090 C 1044.62 1.95007 -3.7717 0
M  V30 11091 O 1045.65 1.57552 -3.19462 0
M  V30 11092 O 1044.51 2.64007 -4.78501 0
M  V30 11093 H 1041.6 0.43027 -0.706256 0
M  V30 11094 H 1044.15 0.157891 -1.68964 0
M  V30 11095 H 1042.92 0.69352 -3.85105 0
M  V30 11096 H 1042.54 2.2978 -3.24479 0
M  V30 11097 N 1043.54 1.5137 0.438746 0
M  V30 11098 C 1044.79 1.63969 1.1883 0
M  V30 11099 C 1045.11 0.355245 1.91228 0
M  V30 11100 O 1044.37 -0.660605 1.84213 0
M  V30 11101 C 1044.67 2.79221 2.23093 0
M  V30 11102 C 1044.33 4.18547 1.67717 0
M  V30 11103 C 1043 4.5645 1.52337 0
M  V30 11104 C 1045.35 5.05494 1.26986 0
M  V30 11105 C 1042.68 5.79007 0.946996 0
M  V30 11106 C 1045.03 6.28628 0.707785 0
M  V30 11107 C 1043.69 6.65305 0.540881 0
M  V30 11108 H 1042.96 0.600003 0.43483 0
M  V30 11109 H 1045.61 1.85398 0.479565 0
M  V30 11110 H 1043.91 2.52008 2.99999 0
M  V30 11111 H 1045.61 2.86168 2.80907 0
M  V30 11112 H 1042.2 3.88663 1.80663 0
M  V30 11113 H 1046.38 4.76818 1.37689 0
M  V30 11114 H 1041.64 6.06072 0.805432 0
M  V30 11115 H 1045.81 6.95342 0.38366 0
M  V30 11116 H 1043.44 7.60144 0.0921324 0
M  V30 11117 N 1045.02 -0.694098 1.41492 0
M  V30 11118 C 1045.96 -1.80801 1.43456 0
M  V30 11119 C 1046.93 -1.63571 0.288757 0
M  V30 11120 O 1048.12 -1.844 0.490017 0
M  V30 11121 C 1045.26 -3.18694 1.32394 0
M  V30 11122 C 1044.37 -3.47346 2.56855 0
M  V30 11123 C 1043.51 -4.74862 2.38075 0
M  V30 11124 C 1042.55 -4.96486 3.58005 0
M  V30 11125 N 1041.68 -6.15229 3.38287 0
M  V30 11126 H 1046.52 -1.78457 2.38657 0
M  V30 11127 H 1044.06 -0.871455 1.18508 0
M  V30 11128 H 1046.02 -3.98352 1.23982 0
M  V30 11129 H 1044.65 -3.20211 0.407999 0
M  V30 11130 H 1043.7 -2.62083 2.75711 0
M  V30 11131 H 1045.01 -3.59226 3.4606 0
M  V30 11132 H 1044.17 -5.62577 2.27139 0
M  V30 11133 H 1042.9 -4.6523 1.46329 0
M  V30 11134 H 1041.91 -4.07219 3.69395 0
M  V30 11135 H 1043.13 -5.07976 4.50708 0
M  V30 11136 H 1041.08 -6.06807 2.49242 0
M  V30 11137 H 1041 -6.27883 4.21069 0
M  V30 11138 H 1042.27 -7.05674 3.31126 0
M  V30 11139 N 1046.49 -1.27344 -0.928501 0
M  V30 11140 C 1047.44 -1.10001 -2.029 0
M  V30 11141 C 1048.41 -0.00131084 -1.661 0
M  V30 11142 O 1049.6 -0.163485 -1.90098 0
M  V30 11143 C 1046.74 -0.7524 -3.36798 0
M  V30 11144 C 1045.85 -1.92865 -3.86558 0
M  V30 11145 C 1044.98 -1.52299 -5.08899 0
M  V30 11146 C 1044.02 -2.66677 -5.50953 0
M  V30 11147 N 1043.16 -2.26706 -6.64491 0
M  V30 11148 H 1048 -2.0417 -2.17068 0
M  V30 11149 H 1045.54 -1.01637 -1.0634 0
M  V30 11150 H 1047.5 -0.531687 -4.13798 0
M  V30 11151 H 1046.13 0.15234 -3.2244 0
M  V30 11152 H 1045.18 -2.26192 -3.05845 0
M  V30 11153 H 1046.49 -2.78668 -4.13698 0
M  V30 11154 H 1045.64 -1.26348 -5.93398 0
M  V30 11155 H 1044.38 -0.636042 -4.83535 0
M  V30 11156 H 1043.39 -2.93344 -4.65004 0
M  V30 11157 H 1044.61 -3.55992 -5.78313 0
M  V30 11158 H 1042.56 -1.40462 -6.40786 0
M  V30 11159 H 1042.48 -3.06049 -6.91281 0
M  V30 11160 H 1043.74 -2.04 -7.52333 0
M  V30 11161 N 1047.97 1.13488 -1.09353 0
M  V30 11162 C 1049.2 1.88319 -0.849681 0
M  V30 11163 C 1049.61 1.79347 0.602616 0
M  V30 11164 O 1048.95 1.15744 1.4265 0
M  V30 11165 C 1049.02 3.38698 -1.20514 0
M  V30 11166 C 1048.68 3.71452 -2.66219 0
M  V30 11167 C 1049.68 3.70755 -3.64467 0
M  V30 11168 C 1047.36 4.01132 -3.02321 0
M  V30 11169 C 1049.36 3.9928 -4.96845 0
M  V30 11170 C 1047.04 4.29318 -4.3489 0
M  V30 11171 C 1048.04 4.28376 -5.31961 0
M  V30 11172 O 1047.73 4.55872 -6.62145 0
M  V30 11173 H 1047.46 0.603053 -0.305455 0
M  V30 11174 H 1050.01 1.44592 -1.45884 0
M  V30 11175 H 1048.24 3.82925 -0.539022 0
M  V30 11176 H 1049.93 3.94852 -0.940552 0
M  V30 11177 H 1050.7 3.47901 -3.3792 0
M  V30 11178 H 1046.58 4.01013 -2.27398 0
M  V30 11179 H 1050.12 3.9846 -5.72604 0
M  V30 11180 H 1046.02 4.51644 -4.61181 0
M  V30 11181 H 1046.79 4.73544 -6.67607 0
M  V30 11182 N 1049.45 0.880621 1.30701 0
M  V30 11183 C 1050.4 0.333562 2.30196 0
M  V30 11184 C 1051.39 -0.557092 1.59978 0
M  V30 11185 O 1052.6 -0.442009 1.74489 0
M  V30 11186 H 1048.97 0.0892036 0.746691 0
M  V30 11187 H 1050.95 1.18644 2.73799 0
M  V30 11188 C 1049.69 -0.440731 3.44895 0
M  V30 11189 H 1049.02 0.235353 3.99107 0
M  V30 11190 H 1050.46 -0.788676 4.166 0
M  V30 11191 C 1048.92 -1.63613 2.94504 0
M  V30 11192 O 1049.45 -2.73549 2.94166 0
M  V30 11193 N 1047.65 -1.47183 2.5057 0
M  V30 11194 H 1047.2 -0.577479 2.51044 0
M  V30 11195 H 1047.16 -2.27303 2.17211 0
M  V30 11196 N 1050.93 -1.4397 0.641131 0
M  V30 11197 C 1052.21 -1.95436 0.0800918 0
M  V30 11198 C 1052.59 -1.58282 -1.39678 0
M  V30 11199 O 1051.93 -0.861867 -2.11623 0
M  V30 11200 C 1052.14 -3.47589 0.313531 0
M  V30 11201 C 1053.49 -4.2407 0.212034 0
M  V30 11202 O 1054.52 -3.55353 0.245434 0
M  V30 11203 O 1053.38 -5.46356 0.125455 0
M  V30 11204 H 1050.47 -0.826834 -0.0165735 0
M  V30 11205 H 1053.02 -1.5397 0.71353 0
M  V30 11206 H 1051.79 -3.67716 1.33793 0
M  V30 11207 H 1051.41 -3.96025 -0.353563 0
M  V30 11208 N 1052.41 -0.382291 -1.52893 0
M  V30 11209 C 1053.35 0.456234 -2.26246 0
M  V30 11210 C 1054.32 1.06366 -1.27575 0
M  V30 11211 O 1055.51 1.09301 -1.5639 0
M  V30 11212 C 1052.65 1.5813 -3.06739 0
M  V30 11213 C 1051.76 0.997416 -4.20328 0
M  V30 11214 C 1050.9 2.09296 -4.8823 0
M  V30 11215 C 1049.94 1.4846 -5.93823 0
M  V30 11216 N 1049.07 2.51916 -6.55349 0
M  V30 11217 H 1053.91 -0.175761 -2.97481 0
M  V30 11218 H 1051.45 -0.0985046 -1.4677 0
M  V30 11219 H 1053.41 2.24426 -3.51694 0
M  V30 11220 H 1052.04 2.18371 -2.37727 0
M  V30 11221 H 1051.09 0.224251 -3.79738 0
M  V30 11222 H 1052.4 0.512784 -4.96157 0
M  V30 11223 H 1051.56 2.83377 -5.36453 0
M  V30 11224 H 1050.3 2.61116 -4.1191 0
M  V30 11225 H 1049.3 0.729001 -5.44946 0
M  V30 11226 H 1050.53 0.97443 -6.72073 0
M  V30 11227 H 1048.47 3.02919 -5.81873 0
M  V30 11228 H 1048.39 2.08188 -7.26769 0
M  V30 11229 H 1049.66 3.25649 -7.08218 0
M  V30 11230 N 1053.89 1.57202 -0.111913 0
M  V30 11231 C 1054.82 2.17957 0.837683 0
M  V30 11232 C 1055.8 1.1176 1.28233 0
M  V30 11233 O 1056.98 1.39967 1.34621 0
M  V30 11234 C 1054.11 2.77333 2.09054 0
M  V30 11235 C 1053.07 3.8905 1.78393 0
M  V30 11236 C 1052.39 4.35203 3.10649 0
M  V30 11237 C 1053.69 5.11477 1.05775 0
M  V30 11238 H 1055.39 2.9756 0.331441 0
M  V30 11239 H 1052.93 1.43131 0.157979 0
M  V30 11240 H 1054.88 3.18492 2.75936 0
M  V30 11241 H 1053.61 1.95009 2.6199 0
M  V30 11242 H 1052.27 3.48456 1.13903 0
M  V30 11243 H 1051.92 3.49747 3.61506 0
M  V30 11244 H 1051.62 5.10534 2.9091 0
M  V30 11245 H 1053.14 4.79007 3.78661 0
M  V30 11246 H 1054.55 5.497 1.62798 0
M  V30 11247 H 1052.95 5.92346 0.961573 0
M  V30 11248 H 1054.02 4.84881 0.043297 0
M  V30 11249 N 1055.36 -0.161842 1.56767 0
M  V30 11250 C 1056.77 -0.723385 1.72116 0
M  V30 11251 C 1057.13 -1.82355 0.723961 0
M  V30 11252 O 1056.25 -2.16107 -0.112643 0
M  V30 11253 C 1056.85 -1.31895 3.12072 0
M  V30 11254 C 1055.4 -1.82722 3.29074 0
M  V30 11255 C 1054.55 -0.709863 2.6806 0
M  V30 11256 H 1057.5 0.0636647 1.58572 0
M  V30 11257 H 1057.52 -2.18871 3.11249 0
M  V30 11258 H 1057.04 -0.51801 3.84627 0
M  V30 11259 H 1055.14 -2.6543 2.61491 0
M  V30 11260 H 1055.25 -1.96614 4.36898 0
M  V30 11261 H 1053.61 -1.13273 2.28126 0
M  V30 11262 H 1054.4 0.0793884 3.43208 0
M  V30 11263 N 1056.84 -1.516 -0.430713 0
M  V30 11264 C 1057.77 -1.76342 -1.53054 0
M  V30 11265 C 1058.75 -0.61349 -1.58652 0
M  V30 11266 O 1059.94 -0.856888 -1.74273 0
M  V30 11267 C 1057.07 -1.8945 -2.91077 0
M  V30 11268 C 1056.02 -3.04928 -3.00339 0
M  V30 11269 C 1055.35 -3.03228 -4.40405 0
M  V30 11270 C 1056.65 -4.44777 -2.73808 0
M  V30 11271 H 1058.34 -2.68435 -1.326 0
M  V30 11272 H 1055.89 -1.29171 -0.636466 0
M  V30 11273 H 1057.84 -2.05343 -3.67984 0
M  V30 11274 H 1056.56 -0.940114 -3.12777 0
M  V30 11275 H 1055.22 -2.88751 -2.25872 0
M  V30 11276 H 1054.87 -2.05553 -4.59083 0
M  V30 11277 H 1054.57 -3.80776 -4.47531 0
M  V30 11278 H 1056.1 -3.21222 -5.19277 0
M  V30 11279 H 1057.51 -4.6127 -3.40445 0
M  V30 11280 H 1055.91 -5.2408 -2.92335 0
M  V30 11281 H 1056.98 -4.54358 -1.69372 0
M  V30 11282 N 1058.32 0.686584 -1.41858 0
M  V30 11283 C 1059.55 1.47305 -1.44862 0
M  V30 11284 C 1059.96 1.8912 -0.0549286 0
M  V30 11285 O 1059.3 1.57941 0.938101 0
M  V30 11286 C 1059.36 2.76107 -2.30229 0
M  V30 11287 C 1059.03 2.5644 -3.78269 0
M  V30 11288 C 1060.02 2.21803 -4.70212 0
M  V30 11289 C 1057.71 2.71801 -4.22409 0
M  V30 11290 C 1059.7 2.02778 -6.04284 0
M  V30 11291 C 1057.39 2.52392 -5.56544 0
M  V30 11292 C 1058.39 2.17933 -6.47298 0
M  V30 11293 O 1058.08 1.98701 -7.78956 0
M  V30 11294 H 1057.81 0.460174 -0.495193 0
M  V30 11295 H 1060.36 0.852069 -1.86893 0
M  V30 11296 H 1058.59 3.40644 -1.83026 0
M  V30 11297 H 1060.28 3.37947 -2.24826 0
M  V30 11298 H 1061.05 2.09542 -4.37398 0
M  V30 11299 H 1056.93 2.97605 -3.52069 0
M  V30 11300 H 1060.47 1.75805 -6.75084 0
M  V30 11301 H 1056.37 2.64246 -5.88935 0
M  V30 11302 H 1057.13 2.13393 -7.90193 0
M  V30 11303 N 1059.8 1.27835 0.921735 0
M  V30 11304 C 1061.05 1.13904 1.6646 0
M  V30 11305 C 1061.36 -0.313379 1.93073 0
M  V30 11306 O 1062.57 -0.573687 2.6537 0
M  V30 11307 C 1061.02 1.99064 2.99836 0
M  V30 11308 C 1060.63 3.48998 2.80899 0
M  V30 11309 C 1062.37 1.93797 3.77681 0
M  V30 11310 C 1060.28 4.26337 4.09867 0
M  V30 11311 H 1059.21 0.422681 0.624385 0
M  V30 11312 H 1061.86 1.52303 1.02352 0
M  V30 11313 H 1060.24 1.53514 3.65034 0
M  V30 11314 H 1061.42 4.02452 2.24431 0
M  V30 11315 H 1059.73 3.55707 2.16476 0
M  V30 11316 H 1062.33 2.48852 4.73262 0
M  V30 11317 H 1062.67 0.912928 4.06167 0
M  V30 11318 H 1063.21 2.37275 3.19289 0
M  V30 11319 H 1059.94 5.2939 3.86557 0
M  V30 11320 H 1059.46 3.77659 4.65976 0
M  V30 11321 H 1061.14 4.3583 4.78185 0
M  V30 11322 N 1061.28 -1.12907 1.09954 0
M  V30 11323 C 1062.5 -1.88679 0.861099 0
M  V30 11324 C 1062.93 -1.78853 -0.582499 0
M  V30 11325 O 1062.28 -1.13992 -1.4098 0
M  V30 11326 C 1062.33 -3.36047 1.30785 0
M  V30 11327 O 1061.44 -4.09716 0.469728 0
M  V30 11328 H 1060.78 -0.586447 0.31141 0
M  V30 11329 H 1063.31 -1.42818 1.46507 0
M  V30 11330 H 1063.32 -3.86882 1.29562 0
M  V30 11331 H 1061.99 -3.42516 2.35914 0
M  V30 11332 H 1060.57 -3.6887 0.54674 0
M  V30 11333 N 1062.75 -0.88754 -1.30232 0
M  V30 11334 C 1063.7 -0.345765 -2.30016 0
M  V30 11335 C 1064.7 0.5486 -1.60271 0
M  V30 11336 O 1065.9 0.43275 -1.74721 0
M  V30 11337 H 1062.28 -0.0931623 -0.746207 0
M  V30 11338 H 1064.25 -1.20095 -2.73166 0
M  V30 11339 C 1063 0.422435 -3.45124 0
M  V30 11340 H 1062.32 -0.256516 -3.98976 0
M  V30 11341 H 1063.76 0.766572 -4.17013 0
M  V30 11342 C 1062.22 1.62049 -2.95367 0
M  V30 11343 O 1062.75 2.71985 -2.95613 0
M  V30 11344 N 1060.95 1.45852 -2.51347 0
M  V30 11345 H 1060.5 0.564158 -2.51346 0
M  V30 11346 H 1060.46 2.26148 -2.18413 0
M  V30 11347 N 1064.23 1.43628 -0.648757 0
M  V30 11348 C 1065.64 1.85142 -0.24066 0
M  V30 11349 C 1065.99 1.54304 1.21181 0
M  V30 11350 O 1065.12 0.989792 1.92437 0
M  V30 11351 C 1065.71 3.3606 -0.429999 0
M  V30 11352 C 1064.27 3.76323 -0.0762588 0
M  V30 11353 C 1063.42 2.67382 -0.734999 0
M  V30 11354 H 1066.37 1.33844 -0.852734 0
M  V30 11355 H 1066.39 3.79102 0.325836 0
M  V30 11356 H 1065.9 3.58474 -1.48721 0
M  V30 11357 H 1064.01 3.59521 0.978529 0
M  V30 11358 H 1064.12 4.76498 -0.498612 0
M  V30 11359 H 1062.48 2.54141 -0.168644 0
M  V30 11360 H 1063.27 2.92625 -1.79515 0
M  V30 11361 N 1065.71 0.390394 1.52688 0
M  V30 11362 C 1066.66 -0.4591 2.28024 0
M  V30 11363 C 1067.65 -1.06212 1.31967 0
M  V30 11364 O 1068.86 -1.00247 1.49501 0
M  V30 11365 H 1065.23 -0.16681 0.733266 0
M  V30 11366 H 1067.2 0.197747 2.97744 0
M  V30 11367 C 1065.95 -1.5737 3.10048 0
M  V30 11368 H 1065.28 -1.11901 3.83821 0
M  V30 11369 H 1066.72 -2.1423 3.65898 0
M  V30 11370 C 1065.18 -2.53036 2.22429 0
M  V30 11371 O 1065.71 -3.5647 1.85181 0
M  V30 11372 N 1063.91 -2.22802 1.86567 0
M  V30 11373 H 1063.46 -1.38723 2.17057 0
M  V30 11374 H 1063.42 -2.87061 1.28233 0
M  V30 11375 N 1067.19 -1.57141 0.120249 0
M  V30 11376 C 1068.42 -1.993 -0.544346 0
M  V30 11377 C 1068.83 -0.998858 -1.60684 0
M  V30 11378 O 1068.17 0.0162197 -1.83693 0
M  V30 11379 C 1068.23 -3.37874 -1.22808 0
M  V30 11380 C 1067.9 -4.55924 -0.313374 0
M  V30 11381 C 1068.89 -5.17962 0.448501 0
M  V30 11382 C 1066.58 -5.018 -0.224082 0
M  V30 11383 C 1068.57 -6.24264 1.28739 0
M  V30 11384 C 1066.26 -6.07963 0.618437 0
M  V30 11385 C 1067.26 -6.69061 1.3728 0
M  V30 11386 O 1066.94 -7.73173 2.20133 0
M  V30 11387 H 1066.68 -0.659466 -0.148596 0
M  V30 11388 H 1069.23 -2.04387 0.203779 0
M  V30 11389 H 1067.46 -3.29545 -2.02329 0
M  V30 11390 H 1069.15 -3.64314 -1.7897 0
M  V30 11391 H 1069.92 -4.83434 0.389395 0
M  V30 11392 H 1065.79 -4.53989 -0.80094 0
M  V30 11393 H 1069.34 -6.71883 1.87667 0
M  V30 11394 H 1065.24 -6.4192 0.678932 0
M  V30 11395 H 1066 -7.90276 2.13088 0
M  V30 11396 N 1068.67 0.153526 -1.5685 0
M  V30 11397 C 1069.61 1.18973 -1.97773 0
M  V30 11398 C 1070.58 1.43041 -0.844311 0
M  V30 11399 O 1071.77 1.55484 -1.10586 0
M  V30 11400 C 1068.91 2.51981 -2.35795 0
M  V30 11401 C 1068.02 2.35143 -3.62397 0
M  V30 11402 C 1067.16 3.61141 -3.89552 0
M  V30 11403 C 1066.2 3.39311 -5.09445 0
M  V30 11404 N 1065.33 4.57423 -5.32643 0
M  V30 11405 H 1070.17 0.833758 -2.86099 0
M  V30 11406 H 1067.71 0.400252 -1.4155 0
M  V30 11407 H 1069.67 3.29527 -2.55867 0
M  V30 11408 H 1068.3 2.85539 -1.50557 0
M  V30 11409 H 1067.35 1.48684 -3.50139 0
M  V30 11410 H 1068.66 2.14969 -4.501 0
M  V30 11411 H 1067.82 4.47117 -4.10087 0
M  V30 11412 H 1066.55 3.84312 -3.00259 0
M  V30 11413 H 1065.56 2.51723 -4.8879 0
M  V30 11414 H 1066.78 3.17545 -6.00285 0
M  V30 11415 H 1064.73 4.8078 -4.46303 0
M  V30 11416 H 1064.65 4.40228 -6.14602 0
M  V30 11417 H 1065.92 5.44632 -5.57671 0
M  V30 11418 N 1070.14 1.51827 0.422667 0
M  V30 11419 C 1071.39 1.65464 1.17258 0
M  V30 11420 C 1071.72 0.376834 1.90509 0
M  V30 11421 O 1071 -0.624219 1.84211 0
M  V30 11422 C 1071.28 2.86776 2.17788 0
M  V30 11423 C 1071.13 4.24571 1.48523 0
M  V30 11424 C 1072.45 3.03603 3.18611 0
M  V30 11425 H 1069.57 0.602169 0.424925 0
M  V30 11426 H 1072.21 1.84349 0.45996 0
M  V30 11427 H 1070.36 2.70806 2.78561 0
M  V30 11428 H 1072.04 4.5224 0.909739 0
M  V30 11429 H 1070.28 4.26595 0.787354 0
M  V30 11430 H 1070.95 5.05475 2.2181 0
M  V30 11431 H 1073.43 3.18381 2.67904 0
M  V30 11432 H 1072.3 3.90022 3.8623 0
M  V30 11433 H 1072.56 2.16318 3.85563 0
M  V30 11434 N 1071.62 -0.679052 1.4222 0
M  V30 11435 C 1072.57 -1.81398 1.45594 0
M  V30 11436 C 1073.56 -1.66112 0.332127 0
M  V30 11437 O 1074.77 -1.72772 0.504942 0
M  V30 11438 H 1071.15 -0.598045 0.455902 0
M  V30 11439 H 1073.12 -1.7567 2.41211 0
M  V30 11440 C 1071.87 -3.19525 1.37109 0
M  V30 11441 H 1071.19 -3.31912 2.22878 0
M  V30 11442 H 1072.63 -3.98967 1.43531 0
M  V30 11443 C 1071.09 -3.36792 0.0853593 0
M  V30 11444 O 1071.62 -3.92309 -0.863532 0
M  V30 11445 N 1069.82 -2.906 0.00389229 0
M  V30 11446 H 1069.37 -2.45607 0.776846 0
M  V30 11447 H 1069.33 -3.0253 -0.855742 0
M  V30 11448 N 1073.1 -1.28322 -0.914942 0
M  V30 11449 C 1074.35 -1.15578 -1.66642 0
M  V30 11450 C 1074.68 0.295209 -1.91943 0
M  V30 11451 O 1073.95 1.21482 -1.51896 0
M  V30 11452 C 1074.24 -1.9535 -3.02507 0
M  V30 11453 C 1074.09 -3.48504 -2.84367 0
M  V30 11454 C 1075.41 -1.76798 -4.03027 0
M  V30 11455 H 1072.53 -0.421234 -0.604757 0
M  V30 11456 H 1075.17 -1.57625 -1.06087 0
M  V30 11457 H 1073.32 -1.59619 -3.54195 0
M  V30 11458 H 1074.99 -3.94135 -2.39699 0
M  V30 11459 H 1073.24 -3.74198 -2.1945 0
M  V30 11460 H 1073.91 -3.99576 -3.80845 0
M  V30 11461 H 1076.38 -2.07977 -3.60395 0
M  V30 11462 H 1075.26 -2.34987 -4.96057 0
M  V30 11463 H 1075.52 -0.719162 -4.36211 0
M  V30 11464 N 1074.58 1.12322 -1.10551 0
M  V30 11465 C 1075.81 1.87407 -0.869607 0
M  V30 11466 C 1076.22 1.79976 0.58356 0
M  V30 11467 O 1075.56 1.1725 1.41415 0
M  V30 11468 C 1075.62 3.37401 -1.24099 0
M  V30 11469 C 1075.29 3.68607 -2.70144 0
M  V30 11470 C 1076.28 3.66869 -3.68379 0
M  V30 11471 C 1073.97 3.97903 -3.06559 0
M  V30 11472 C 1075.96 3.93987 -5.01052 0
M  V30 11473 C 1073.65 4.24681 -4.39419 0
M  V30 11474 C 1074.65 4.2271 -5.36475 0
M  V30 11475 O 1074.33 4.48823 -6.66943 0
M  V30 11476 H 1074.07 0.59978 -0.311834 0
M  V30 11477 H 1076.62 1.43037 -1.4741 0
M  V30 11478 H 1074.85 3.82332 -0.579606 0
M  V30 11479 H 1076.54 3.93833 -0.982378 0
M  V30 11480 H 1077.31 3.44297 -3.41591 0
M  V30 11481 H 1073.18 3.98578 -2.31638 0
M  V30 11482 H 1076.73 3.92364 -5.76798 0
M  V30 11483 H 1072.63 4.46727 -4.65945 0
M  V30 11484 H 1073.39 4.66436 -6.72592 0
M  V30 11485 N 1076.06 0.894434 1.2976 0
M  V30 11486 C 1077.02 0.373094 2.26143 0
M  V30 11487 C 1078.02 -0.489756 1.5316 0
M  V30 11488 O 1079.21 -0.29556 1.71674 0
M  V30 11489 C 1076.34 -0.467234 3.37683 0
M  V30 11490 H 1077.53 1.22427 2.73773 0
M  V30 11491 H 1075.09 0.672112 1.41111 0
M  V30 11492 H 1075.82 -1.33861 2.95384 0
M  V30 11493 H 1075.61 0.150954 3.91809 0
M  V30 11494 H 1077.1 -0.823469 4.094 0
M  V30 11495 N 1077.53 -1.43282 0.656365 0
M  V30 11496 C 1078.78 -2.02075 0.171293 0
M  V30 11497 C 1079.11 -1.51682 -1.21269 0
M  V30 11498 O 1078.39 -0.711243 -1.81029 0
M  V30 11499 C 1078.67 -3.59621 0.185602 0
M  V30 11500 C 1078.52 -4.20239 1.60373 0
M  V30 11501 C 1079.84 -4.37515 -0.476289 0
M  V30 11502 H 1076.96 -0.73424 0.0637185 0
M  V30 11503 H 1079.6 -1.70539 0.837648 0
M  V30 11504 H 1077.75 -3.86619 -0.381804 0
M  V30 11505 H 1079.43 -4.0426 2.22197 0
M  V30 11506 H 1077.67 -3.76769 2.15006 0
M  V30 11507 H 1078.34 -5.29333 1.56557 0
M  V30 11508 H 1080.82 -4.16099 0.00651073 0
M  V30 11509 H 1079.69 -5.47169 -0.435562 0
M  V30 11510 H 1079.95 -4.14003 -1.55093 0
M  V30 11511 N 1079.01 -0.398486 -1.52479 0
M  V30 11512 C 1080.24 0.180557 -2.06111 0
M  V30 11513 C 1080.66 1.39751 -1.26945 0
M  V30 11514 O 1080.01 1.79699 -0.318497 0
M  V30 11515 C 1080.06 0.541573 -3.5742 0
M  V30 11516 O 1079.79 -0.627043 -4.33589 0
M  V30 11517 C 1081.29 1.17549 -4.27431 0
M  V30 11518 H 1078.51 0.0250754 -0.670531 0
M  V30 11519 H 1081.05 -0.566368 -1.96501 0
M  V30 11520 H 1079.21 1.23839 -3.67073 0
M  V30 11521 H 1079.62 -0.328233 -5.23472 0
M  V30 11522 H 1081.09 1.37839 -5.34513 0
M  V30 11523 H 1081.57 2.14553 -3.83228 0
M  V30 11524 H 1082.18 0.51918 -4.22119 0
M  V30 11525 N 1080.49 1.57075 -0.12858 0
M  V30 11526 C 1081.44 2.15816 0.818064 0
M  V30 11527 C 1082.41 1.08581 1.25696 0
M  V30 11528 O 1083.59 1.36535 1.33277 0
M  V30 11529 C 1080.73 2.76943 2.05905 0
M  V30 11530 C 1079.85 3.98514 1.66764 0
M  V30 11531 C 1078.98 4.47698 2.85902 0
M  V30 11532 C 1078.02 5.61778 2.43047 0
M  V30 11533 N 1077.16 6.05662 3.5513 0
M  V30 11534 H 1082 2.9638 0.310318 0
M  V30 11535 H 1079.53 1.46418 0.141472 0
M  V30 11536 H 1081.49 3.10519 2.78629 0
M  V30 11537 H 1080.12 1.99053 2.54122 0
M  V30 11538 H 1079.17 3.71038 0.838766 0
M  V30 11539 H 1080.49 4.81215 1.31277 0
M  V30 11540 H 1079.64 4.83233 3.66839 0
M  V30 11541 H 1078.38 3.63967 3.24622 0
M  V30 11542 H 1077.38 5.25838 1.60544 0
M  V30 11543 H 1078.61 6.47282 2.05433 0
M  V30 11544 H 1076.56 5.2487 3.93506 0
M  V30 11545 H 1076.47 6.83242 3.23598 0
M  V30 11546 H 1077.74 6.45838 4.36479 0
M  V30 11547 N 1081.97 -0.145205 1.5693 0
M  V30 11548 C 1082.88 -1.19864 2.01667 0
M  V30 11549 C 1083.9 -1.46909 0.932402 0
M  V30 11550 O 1085.07 -1.58543 1.24201 0
M  V30 11551 C 1082.14 -2.51174 2.38982 0
M  V30 11552 C 1081.2 -2.3176 3.61366 0
M  V30 11553 C 1080.43 -3.56809 3.96892 0
M  V30 11554 O 1080.65 -4.63063 3.33059 0
M  V30 11555 O 1079.59 -3.49366 4.9013 0
M  V30 11556 H 1083.41 -0.848821 2.91597 0
M  V30 11557 H 1081 -0.354063 1.45144 0
M  V30 11558 H 1082.88 -3.28587 2.63835 0
M  V30 11559 H 1081.56 -2.85683 1.52207 0
M  V30 11560 H 1080.46 -1.52293 3.41698 0
M  V30 11561 H 1081.8 -2.02167 4.48764 0
M  V30 11562 N 1083.45 -1.52049 -0.414609 0
M  V30 11563 C 1084.4 -1.75603 -1.52533 0
M  V30 11564 C 1085.39 -0.622965 -1.57529 0
M  V30 11565 O 1086.6 -0.804886 -1.61002 0
M  V30 11566 H 1082.97 -0.555222 -0.507181 0
M  V30 11567 H 1084.94 -2.68666 -1.2985 0
M  V30 11568 C 1083.69 -1.9188 -2.89961 0
M  V30 11569 H 1083.01 -2.78483 -2.86857 0
M  V30 11570 H 1084.45 -2.12363 -3.66985 0
M  V30 11571 C 1082.91 -0.684453 -3.29874 0
M  V30 11572 O 1083.44 0.150256 -4.01419 0
M  V30 11573 N 1081.65 -0.521936 -2.85874 0
M  V30 11574 H 1081.2 -1.20229 -2.27822 0
M  V30 11575 H 1081.15 0.302655 -3.1294 0
M  V30 11576 N 1084.93 0.6715 -1.42579 0
M  V30 11577 C 1086.15 1.45972 -1.46628 0
M  V30 11578 C 1086.57 1.88636 -0.0785986 0
M  V30 11579 O 1085.93 1.58345 0.907372 0
M  V30 11580 C 1085.98 2.70668 -2.39627 0
M  V30 11581 O 1085.7 2.29793 -3.72997 0
M  V30 11582 C 1087.2 3.64201 -2.52731 0
M  V30 11583 H 1084.42 0.449044 -0.498598 0
M  V30 11584 H 1086.96 0.824811 -1.87129 0
M  V30 11585 H 1085.12 3.3034 -2.02371 0
M  V30 11586 H 1085.53 3.10341 -4.22834 0
M  V30 11587 H 1087.01 4.48412 -3.21918 0
M  V30 11588 H 1087.48 4.10323 -1.56626 0
M  V30 11589 H 1088.09 3.1042 -2.90722 0
M  V30 11590 N 1086.4 1.28806 0.908124 0
M  V30 11591 C 1087.65 1.15663 1.65242 0
M  V30 11592 C 1087.97 -0.292883 1.93395 0
M  V30 11593 O 1089.17 -0.545509 2.65963 0
M  V30 11594 C 1087.63 2.02233 2.97707 0
M  V30 11595 C 1087.24 3.51958 2.77181 0
M  V30 11596 C 1088.98 1.97792 3.75604 0
M  V30 11597 C 1086.89 4.3066 4.05322 0
M  V30 11598 H 1085.82 0.42928 0.619867 0
M  V30 11599 H 1088.47 1.5338 1.00731 0
M  V30 11600 H 1086.85 1.57377 3.63385 0
M  V30 11601 H 1088.02 4.0481 2.20149 0
M  V30 11602 H 1086.34 3.57983 2.12691 0
M  V30 11603 H 1088.94 2.53858 4.70596 0
M  V30 11604 H 1089.28 0.955956 4.05175 0
M  V30 11605 H 1089.81 2.40648 3.16755 0
M  V30 11606 H 1086.55 5.3346 3.8092 0
M  V30 11607 H 1086.07 3.8258 4.61944 0
M  V30 11608 H 1087.75 4.40878 4.73535 0
M  V30 11609 N 1087.88 -1.11734 1.11145 0
M  V30 11610 C 1089.13 -1.82766 0.853194 0
M  V30 11611 C 1089.44 -1.85408 -0.623168 0
M  V30 11612 O 1090.65 -2.52509 -0.997574 0
M  V30 11613 C 1089.11 -3.28215 1.47658 0
M  V30 11614 C 1088.71 -3.33911 2.98676 0
M  V30 11615 C 1090.46 -4.04168 1.29803 0
M  V30 11616 C 1088.36 -4.73739 3.54013 0
M  V30 11617 H 1087.29 -0.684807 0.315523 0
M  V30 11618 H 1089.95 -1.25756 1.33633 0
M  V30 11619 H 1088.33 -3.85138 0.921116 0
M  V30 11620 H 1089.5 -2.86887 3.606 0
M  V30 11621 H 1087.82 -2.71437 3.15771 0
M  V30 11622 H 1090.41 -5.07429 1.68582 0
M  V30 11623 H 1090.76 -4.15606 0.240302 0
M  V30 11624 H 1091.29 -3.53623 1.82196 0
M  V30 11625 H 1088.03 -4.67497 4.59485 0
M  V30 11626 H 1087.55 -5.21186 2.9686 0
M  V30 11627 H 1089.23 -5.42691 3.52271 0
M  V30 11628 N 1089.36 -0.901303 -1.29284 0
M  V30 11629 C 1090.31 -0.370142 -2.29636 0
M  V30 11630 C 1091.3 0.53157 -1.60844 0
M  V30 11631 O 1092.51 0.414194 -1.7517 0
M  V30 11632 H 1088.88 -0.101072 -0.745177 0
M  V30 11633 H 1090.85 -1.22985 -2.71877 0
M  V30 11634 C 1089.6 0.385806 -3.45553 0
M  V30 11635 H 1088.93 -0.298818 -3.98682 0
M  V30 11636 H 1090.37 0.722299 -4.17802 0
M  V30 11637 C 1088.82 1.58907 -2.97069 0
M  V30 11638 O 1089.35 2.68835 -2.98481 0
M  V30 11639 N 1087.56 1.43178 -2.5288 0
M  V30 11640 H 1087.11 0.537467 -2.51931 0
M  V30 11641 H 1087.07 2.23819 -2.208 0
M  V30 11642 N 1090.84 1.42931 -0.663954 0
M  V30 11643 C 1092.25 1.84877 -0.260283 0
M  V30 11644 C 1092.6 1.5558 1.19538 0
M  V30 11645 O 1091.72 1.01015 1.91377 0
M  V30 11646 C 1092.32 3.35585 -0.465618 0
M  V30 11647 C 1090.88 3.76221 -0.116169 0
M  V30 11648 C 1090.03 2.66587 -0.763317 0
M  V30 11649 H 1092.98 1.32932 -0.866882 0
M  V30 11650 H 1093 3.79427 0.285608 0
M  V30 11651 H 1092.51 3.56877 -1.52515 0
M  V30 11652 H 1090.61 3.60539 0.940342 0
M  V30 11653 H 1090.72 4.75943 -0.549123 0
M  V30 11654 H 1089.09 2.53948 -0.19559 0
M  V30 11655 H 1089.87 2.90704 -1.82609 0
M  V30 11656 N 1092.32 0.406567 1.52266 0
M  V30 11657 C 1093.54 -0.172101 2.06685 0
M  V30 11658 C 1093.97 -1.38306 1.27488 0
M  V30 11659 O 1093.32 -1.78726 0.304441 0
M  V30 11660 C 1093.37 -0.503463 3.57068 0
M  V30 11661 O 1092.48 -1.59485 3.80314 0
M  V30 11662 H 1091.82 -0.0153209 0.663823 0
M  V30 11663 H 1094.35 0.579025 1.96236 0
M  V30 11664 H 1094.36 -0.762833 4.00805 0
M  V30 11665 H 1093.03 0.381775 4.14144 0
M  V30 11666 H 1091.61 -1.32784 3.48458 0
M  V30 11667 N 1093.79 -1.57004 0.136909 0
M  V30 11668 C 1094.7 -2.19807 -0.819887 0
M  V30 11669 C 1095.72 -1.17939 -1.27932 0
M  V30 11670 O 1096.9 -1.50478 -1.3386 0
M  V30 11671 C 1093.96 -2.79935 -2.04542 0
M  V30 11672 C 1093.02 -3.96897 -1.6362 0
M  V30 11673 C 1092.26 -4.54148 -2.80331 0
M  V30 11674 O 1092.48 -4.10282 -3.96264 0
M  V30 11675 O 1091.41 -5.44565 -2.56384 0
M  V30 11676 H 1095.24 -3.02058 -0.315337 0
M  V30 11677 H 1092.82 -1.49131 -0.0896151 0
M  V30 11678 H 1094.71 -3.18191 -2.76283 0
M  V30 11679 H 1093.38 -2.00703 -2.53969 0
M  V30 11680 H 1092.29 -3.63376 -0.889316 0
M  V30 11681 H 1093.62 -4.77618 -1.18918 0
M  V30 11682 N 1095.27 0.136881 -1.57004 0
M  V30 11683 C 1096.22 1.18782 -1.99984 0
M  V30 11684 C 1097.21 1.43899 -0.893841 0
M  V30 11685 O 1098.42 1.44072 -1.07904 0
M  V30 11686 H 1094.8 0.400065 -0.636751 0
M  V30 11687 H 1096.77 0.798696 -2.87512 0
M  V30 11688 C 1095.52 2.51105 -2.40502 0
M  V30 11689 H 1094.84 2.32611 -3.25165 0
M  V30 11690 H 1096.28 3.23244 -2.74389 0
M  V30 11691 C 1094.74 3.12386 -1.26161 0
M  V30 11692 O 1095.27 3.97666 -0.567836 0
M  V30 11693 N 1093.47 2.71989 -1.02326 0
M  V30 11694 H 1093.02 2.02736 -1.58921 0
M  V30 11695 H 1092.98 3.13322 -0.26013 0
M  V30 11696 N 1096.75 1.52266 0.40654 0
M  V30 11697 C 1098 1.66123 1.15097 0
M  V30 11698 C 1098.32 0.394836 1.90961 0
M  V30 11699 O 1097.59 -0.590349 1.86793 0
M  V30 11700 H 1096.17 0.612317 0.427875 0
M  V30 11701 H 1098.83 1.89318 0.463106 0
M  V30 11702 H 1097.93 2.50351 1.86361 0
M  V30 11703 N 1098.23 -0.663929 1.42933 0
M  V30 11704 C 1099.51 -1.42054 1.34462 0
M  V30 11705 C 1099.89 -2.11096 -0.0127801 0
M  V30 11706 O 1099.23 -2.04027 -1.02884 0
M  V30 11707 C 1099.44 -2.41406 2.5204 0
M  V30 11708 C 1100.79 -3.05726 2.94647 0
M  V30 11709 O 1101.82 -2.51733 2.52009 0
M  V30 11710 O 1100.67 -4.03593 3.68477 0
M  V30 11711 H 1097.77 -0.634149 0.530834 0
M  V30 11712 H 1100.31 -0.691738 1.54962 0
M  V30 11713 H 1099.09 -1.89263 3.42484 0
M  V30 11714 H 1098.71 -3.21752 2.33584 0
M  V30 11715 N 1099.71 -1.29285 -0.901281 0
M  V30 11716 C 1100.93 -1.20048 -1.68511 0
M  V30 11717 C 1101.35 0.239128 -1.8728 0
M  V30 11718 O 1100.71 1.16027 -1.40869 0
M  V30 11719 C 1100.76 -1.90798 -3.07048 0
M  V30 11720 O 1100.48 -3.29137 -2.89138 0
M  V30 11721 C 1101.98 -1.88017 -4.01453 0
M  V30 11722 H 1099.2 -0.416157 -0.52636 0
M  V30 11723 H 1101.74 -1.7063 -1.12719 0
M  V30 11724 H 1099.9 -1.44055 -3.5962 0
M  V30 11725 H 1100.31 -3.64747 -3.76908 0
M  V30 11726 H 1101.79 -2.42088 -4.96082 0
M  V30 11727 H 1102.26 -0.855341 -4.30791 0
M  V30 11728 H 1102.87 -2.34497 -3.54812 0
M  V30 11729 N 1101.18 1.11143 -1.11736 0
M  V30 11730 C 1102.41 1.87285 -0.891007 0
M  V30 11731 C 1102.83 1.79758 0.553971 0
M  V30 11732 O 1102.19 1.16221 1.39149 0
M  V30 11733 C 1102.24 3.33924 -1.36114 0
M  V30 11734 O 1101.34 4.08917 -0.534851 0
M  V30 11735 H 1100.69 0.581418 -0.320701 0
M  V30 11736 H 1103.22 1.40469 -1.4876 0
M  V30 11737 H 1103.23 3.84772 -1.35701 0
M  V30 11738 H 1101.9 3.38719 -2.41334 0
M  V30 11739 H 1100.48 3.67954 -0.605355 0
M  V30 11740 N 1102.66 0.908147 1.28804 0
M  V30 11741 C 1103.89 0.55409 1.99343 0
M  V30 11742 C 1104.31 -0.863262 1.67908 0
M  V30 11743 O 1103.66 -1.571 0.92875 0
M  V30 11744 C 1103.71 0.746916 3.537 0
M  V30 11745 O 1103.43 2.10849 3.84024 0
M  V30 11746 C 1104.94 0.398939 4.41501 0
M  V30 11747 H 1102.16 0.211784 0.636701 0
M  V30 11748 H 1104.7 1.21981 1.64137 0
M  V30 11749 H 1102.85 0.128264 3.87188 0
M  V30 11750 H 1103.27 2.14404 4.78676 0
M  V30 11751 H 1104.74 0.584656 5.48895 0
M  V30 11752 H 1105.22 -0.664517 4.34144 0
M  V30 11753 H 1105.83 0.994892 4.135 0
M  V30 11754 N 1104.14 -1.42577 0.671525 0
M  V30 11755 C 1105.09 -2.32591 -0.0205354 0
M  V30 11756 C 1106.08 -1.4964 -0.793993 0
M  V30 11757 O 1107.29 -1.65733 -0.702327 0
M  V30 11758 H 1103.66 -0.75157 -0.0254344 0
M  V30 11759 H 1105.63 -2.88662 0.756082 0
M  V30 11760 C 1104.38 -3.34175 -0.960316 0
M  V30 11761 H 1103.71 -3.98041 -0.374577 0
M  V30 11762 H 1105.15 -3.99752 -1.4133 0
M  V30 11763 C 1103.61 -2.66184 -2.06513 0
M  V30 11764 O 1104.14 -2.49125 -3.15119 0
M  V30 11765 N 1102.34 -2.25261 -1.83591 0
M  V30 11766 H 1101.89 -2.39336 -0.952689 0
M  V30 11767 H 1101.85 -1.80101 -2.57703 0
M  V30 11768 N 1105.62 -0.414636 -1.52048 0
M  V30 11769 C 1106.87 0.159034 -2.01473 0
M  V30 11770 C 1107.19 1.45176 -1.30188 0
M  V30 11771 O 1106.46 1.91134 -0.429469 0
M  V30 11772 H 1105.04 0.0617604 -0.744443 0
M  V30 11773 H 1107.7 -0.552141 -1.86916 0
M  V30 11774 H 1106.8 0.351217 -3.10118 0
M  V30 11775 N 1107.1 1.56929 -0.145233 0
M  V30 11776 C 1108.35 1.95243 0.506273 0
M  V30 11777 C 1108.66 1.0325 1.66129 0
M  V30 11778 O 1109.86 1.31135 2.37731 0
M  V30 11779 C 1108.32 3.47079 0.952042 0
M  V30 11780 C 1107.93 4.47654 -0.175947 0
M  V30 11781 C 1109.67 3.94263 1.57344 0
M  V30 11782 C 1107.58 5.90698 0.287993 0
M  V30 11783 H 1106.51 0.728906 0.192903 0
M  V30 11784 H 1109.16 1.82062 -0.229295 0
M  V30 11785 H 1107.54 3.55587 1.74282 0
M  V30 11786 H 1108.72 4.50841 -0.952848 0
M  V30 11787 H 1107.03 4.10377 -0.70564 0
M  V30 11788 H 1109.63 4.9857 1.93214 0
M  V30 11789 H 1109.97 3.35714 2.46174 0
M  V30 11790 H 1110.5 3.88665 0.847593 0
M  V30 11791 H 1107.24 6.53061 -0.564889 0
M  V30 11792 H 1106.76 5.90876 1.03081 0
M  V30 11793 H 1108.44 6.42747 0.740586 0
M  V30 11794 N 1108.58 -0.128553 1.57075 0
M  V30 11795 C 1109.52 -1.15812 1.9964 0
M  V30 11796 C 1110.49 -1.41679 0.86696 0
M  V30 11797 O 1111.68 -1.53705 1.13046 0
M  V30 11798 C 1108.82 -2.48198 2.39774 0
M  V30 11799 C 1107.93 -2.29348 3.66092 0
M  V30 11800 C 1107.07 -3.54898 3.95248 0
M  V30 11801 C 1106.1 -3.31164 5.14779 0
M  V30 11802 N 1105.24 -4.48891 5.39853 0
M  V30 11803 H 1110.08 -0.788136 2.87389 0
M  V30 11804 H 1107.62 -0.377682 1.42169 0
M  V30 11805 H 1109.58 -3.25414 2.61077 0
M  V30 11806 H 1108.21 -2.83108 1.5508 0
M  V30 11807 H 1107.26 -1.43095 3.5246 0
M  V30 11808 H 1108.57 -2.07781 4.53463 0
M  V30 11809 H 1107.72 -4.40536 4.17148 0
M  V30 11810 H 1106.46 -3.79487 3.06335 0
M  V30 11811 H 1105.47 -2.43915 4.92733 0
M  V30 11812 H 1106.69 -3.07954 6.05261 0
M  V30 11813 H 1104.64 -4.73619 4.53895 0
M  V30 11814 H 1104.56 -4.30394 6.21528 0
M  V30 11815 H 1105.82 -5.35691 5.66265 0
M  V30 11816 N 1110.05 -1.5248 -0.398459 0
M  V30 11817 C 1111 -1.76585 -1.48615 0
M  V30 11818 C 1111.97 -0.608677 -1.54546 0
M  V30 11819 O 1113.16 -0.847383 -1.7095 0
M  V30 11820 C 1110.3 -1.93201 -2.8595 0
M  V30 11821 C 1109.41 -3.20875 -2.89246 0
M  V30 11822 C 1108.54 -3.27862 -4.17947 0
M  V30 11823 C 1107.58 -4.49697 -4.15258 0
M  V30 11824 N 1106.72 -4.54017 -5.35549 0
M  V30 11825 H 1111.56 -2.69412 -1.27362 0
M  V30 11826 H 1109.1 -1.33487 -0.618031 0
M  V30 11827 H 1111.05 -2.00819 -3.65688 0
M  V30 11828 H 1109.68 -1.03743 -3.05675 0
M  V30 11829 H 1108.74 -3.22376 -2.01935 0
M  V30 11830 H 1110.05 -4.1066 -2.83125 0
M  V30 11831 H 1109.2 -3.34611 -5.06083 0
M  V30 11832 H 1107.94 -2.36035 -4.26777 0
M  V30 11833 H 1106.95 -4.43083 -3.25511 0
M  V30 11834 H 1108.17 -5.42831 -4.08059 0
M  V30 11835 H 1106.12 -3.65078 -5.45027 0
M  V30 11836 H 1106.03 -5.37661 -5.31466 0
M  V30 11837 H 1107.3 -4.65009 -6.25609 0
M  V30 11838 N 1111.53 0.65634 -1.43283 0
M  V30 11839 C 1112.78 1.41212 -1.44021 0
M  V30 11840 C 1113.09 1.95485 -0.0669783 0
M  V30 11841 O 1114.3 2.71457 0.0481909 0
M  V30 11842 C 1112.76 2.55541 -2.5343 0
M  V30 11843 C 1112.36 2.07889 -3.96845 0
M  V30 11844 C 1114.11 3.3293 -2.63359 0
M  V30 11845 C 1112.01 3.19411 -4.97726 0
M  V30 11846 H 1110.94 0.530566 -0.535739 0
M  V30 11847 H 1113.6 0.708743 -1.6926 0
M  V30 11848 H 1111.98 3.28335 -2.21387 0
M  V30 11849 H 1113.15 1.42127 -4.38334 0
M  V30 11850 H 1111.47 1.43388 -3.90933 0
M  V30 11851 H 1114.06 4.1602 -3.35903 0
M  V30 11852 H 1114.41 3.80753 -1.68324 0
M  V30 11853 H 1114.94 2.67216 -2.94687 0
M  V30 11854 H 1111.68 2.7656 -5.94302 0
M  V30 11855 H 1111.2 3.83895 -4.60853 0
M  V30 11856 H 1112.88 3.84591 -5.20287 0
M  V30 11857 N 1113.01 1.29761 0.894412 0
M  V30 11858 C 1113.94 1.17902 2.01547 0
M  V30 11859 C 1114.92 0.0719402 1.69948 0
M  V30 11860 O 1116.11 0.252338 1.92554 0
M  V30 11861 C 1113.24 0.860262 3.36477 0
M  V30 11862 C 1112.19 1.92424 3.82305 0
M  V30 11863 C 1111.52 1.45868 5.14419 0
M  V30 11864 C 1112.82 3.33391 4.02054 0
M  V30 11865 H 1114.51 2.11688 2.11727 0
M  V30 11866 H 1112.06 1.01916 1.01731 0
M  V30 11867 H 1114.01 0.763987 4.14417 0
M  V30 11868 H 1112.73 -0.113289 3.26403 0
M  V30 11869 H 1111.39 2.00999 3.06586 0
M  V30 11870 H 1111.04 0.473654 5.00765 0
M  V30 11871 H 1110.74 2.17028 5.46052 0
M  V30 11872 H 1112.26 1.37601 5.94894 0
M  V30 11873 H 1113.68 3.27628 4.7046 0
M  V30 11874 H 1112.07 4.02555 4.4505 0
M  V30 11875 H 1113.14 3.75978 3.06216 0
M  V30 11876 N 1114.49 -1.10549 1.12324 0
M  V30 11877 C 1115.74 -1.81851 0.872531 0
M  V30 11878 C 1116.05 -1.86058 -0.603468 0
M  V30 11879 O 1117.26 -2.53553 -0.970736 0
M  V30 11880 C 1115.71 -3.26631 1.51131 0
M  V30 11881 C 1115.32 -3.30725 3.02201 0
M  V30 11882 C 1117.06 -4.02768 1.34082 0
M  V30 11883 C 1114.97 -4.69957 3.59018 0
M  V30 11884 H 1113.9 -0.681422 0.322769 0
M  V30 11885 H 1116.55 -1.24332 1.34959 0
M  V30 11886 H 1114.93 -3.8414 0.961913 0
M  V30 11887 H 1116.11 -2.83046 3.63623 0
M  V30 11888 H 1114.42 -2.68072 3.18632 0
M  V30 11889 H 1117.02 -5.05612 1.73955 0
M  V30 11890 H 1117.36 -4.15328 0.284369 0
M  V30 11891 H 1117.9 -3.51671 1.85937 0
M  V30 11892 H 1114.63 -4.62597 4.64418 0
M  V30 11893 H 1114.15 -5.18008 3.02371 0
M  V30 11894 H 1115.83 -5.38925 3.58007 0
M  V30 11895 N 1115.97 -0.914965 -1.28321 0
M  V30 11896 C 1117.21 -0.548749 -1.94923 0
M  V30 11897 C 1117.54 0.907776 -1.72016 0
M  V30 11898 O 1116.8 1.66097 -1.03491 0
M  V30 11899 C 1117.09 -0.805805 -3.48198 0
M  V30 11900 C 1116.76 -2.24207 -3.91206 0
M  V30 11901 C 1115.42 -2.63475 -4.02659 0
M  V30 11902 C 1117.77 -3.17667 -4.13204 0
M  V30 11903 C 1115.1 -3.95353 -4.3349 0
M  V30 11904 C 1117.45 -4.4911 -4.45514 0
M  V30 11905 C 1116.12 -4.8823 -4.55179 0
M  V30 11906 H 1115.39 -0.200801 -0.713274 0
M  V30 11907 H 1118.04 -1.15652 -1.52633 0
M  V30 11908 H 1116.34 -0.115244 -3.9163 0
M  V30 11909 H 1118.04 -0.501609 -3.9785 0
M  V30 11910 H 1114.63 -1.92737 -3.82819 0
M  V30 11911 H 1118.81 -2.88537 -4.03807 0
M  V30 11912 H 1114.07 -4.25362 -4.39178 0
M  V30 11913 H 1118.24 -5.21542 -4.61483 0
M  V30 11914 H 1115.87 -5.90451 -4.78823 0
M  V30 11915 N 1117.44 1.42219 -0.679077 0
M  V30 11916 C 1118.67 2.06333 -0.210097 0
M  V30 11917 C 1119.09 1.50703 1.12562 0
M  V30 11918 O 1118.45 0.627241 1.70104 0
M  V30 11919 C 1118.5 3.60243 -0.160322 0
M  V30 11920 O 1117.6 4.03122 0.869872 0
M  V30 11921 H 1116.94 0.655362 -0.106754 0
M  V30 11922 H 1119.47 1.82278 -0.929294 0
M  V30 11923 H 1119.48 4.07997 0.014384 0
M  V30 11924 H 1118.16 4.00106 -1.13526 0
M  V30 11925 H 1116.74 3.66907 0.66586 0
M  V30 11926 N 1118.92 0.422693 1.51826 0
M  V30 11927 C 1119.87 -0.396088 2.27376 0
M  V30 11928 C 1120.84 -1.02946 1.30351 0
M  V30 11929 O 1122.02 -1.05116 1.59233 0
M  V30 11930 C 1119.16 -1.49942 3.10824 0
M  V30 11931 C 1118.28 -0.885623 4.22825 0
M  V30 11932 C 1117.41 -1.96278 4.93608 0
M  V30 11933 C 1116.45 -1.32664 5.97551 0
M  V30 11934 N 1115.59 -2.34452 6.61798 0
M  V30 11935 H 1120.43 0.254571 2.96911 0
M  V30 11936 H 1117.96 0.137383 1.46457 0
M  V30 11937 H 1119.92 -2.15023 3.57521 0
M  V30 11938 H 1118.55 -2.11991 2.43433 0
M  V30 11939 H 1117.6 -0.123491 3.80199 0
M  V30 11940 H 1118.92 -0.381057 4.97342 0
M  V30 11941 H 1118.07 -2.69055 5.43778 0
M  V30 11942 H 1116.81 -2.50103 4.18688 0
M  V30 11943 H 1115.81 -0.584262 5.46687 0
M  V30 11944 H 1117.04 -0.7959 6.7442 0
M  V30 11945 H 1114.99 -2.87385 5.897 0
M  V30 11946 H 1114.9 -1.88845 7.32034 0
M  V30 11947 H 1116.17 -3.06757 7.16603 0
M  V30 11948 N 1120.4 -1.5685 0.153553 0
M  V30 11949 C 1121.35 -2.1709 -0.783626 0
M  V30 11950 C 1122.32 -1.10567 -1.23952 0
M  V30 11951 O 1123.5 -1.38638 -1.31088 0
M  V30 11952 C 1120.64 -2.80183 -2.01473 0
M  V30 11953 C 1119.75 -4.01117 -1.60403 0
M  V30 11954 C 1118.89 -4.5219 -2.78743 0
M  V30 11955 C 1117.93 -5.65574 -2.34079 0
M  V30 11956 N 1117.07 -6.11235 -3.4545 0
M  V30 11957 H 1121.91 -2.96836 -0.263127 0
M  V30 11958 H 1119.44 -1.46625 -0.11816 0
M  V30 11959 H 1121.4 -3.14912 -2.73654 0
M  V30 11960 H 1120.03 -2.03071 -2.50923 0
M  V30 11961 H 1119.08 -3.72325 -0.779631 0
M  V30 11962 H 1120.39 -4.83243 -1.23605 0
M  V30 11963 H 1119.55 -4.89008 -3.59105 0
M  V30 11964 H 1118.29 -3.69085 -3.18791 0
M  V30 11965 H 1117.29 -5.28326 -1.52158 0
M  V30 11966 H 1118.52 -6.50468 -1.95109 0
M  V30 11967 H 1116.46 -5.31064 -3.85106 0
M  V30 11968 H 1116.38 -6.88304 -3.12687 0
M  V30 11969 H 1117.65 -6.527 -4.26149 0
M  V30 11970 N 1121.88 0.120221 -1.57141 0
M  V30 11971 C 1123.13 0.826586 -1.84423 0
M  V30 11972 C 1123.45 1.80473 -0.738553 0
M  V30 11973 O 1122.72 1.94454 0.23755 0
M  V30 11974 H 1121.3 0.308246 -0.680436 0
M  V30 11975 H 1123.96 0.107835 -1.94601 0
M  V30 11976 H 1123.05 1.37256 -2.80298 0
M  V30 11977 N 1123.36 1.52689 0.390367 0
M  V30 11978 C 1124.59 1.71292 1.1551 0
M  V30 11979 C 1124.99 0.430405 1.84239 0
M  V30 11980 O 1124.34 -0.604823 1.73458 0
M  V30 11981 C 1124.4 2.80597 2.24735 0
M  V30 11982 C 1124.06 4.21757 1.75984 0
M  V30 11983 C 1125.06 5.04961 1.23733 0
M  V30 11984 C 1122.75 4.68071 1.82248 0
M  V30 11985 C 1124.74 6.32561 0.783926 0
M  V30 11986 C 1122.43 5.95656 1.36519 0
M  V30 11987 C 1123.42 6.7773 0.846786 0
M  V30 11988 O 1123.11 8.02923 0.396164 0
M  V30 11989 H 1122.84 0.576906 0.352356 0
M  V30 11990 H 1125.4 2.00117 0.462865 0
M  V30 11991 H 1123.63 2.4719 2.97378 0
M  V30 11992 H 1125.32 2.87616 2.86412 0
M  V30 11993 H 1126.08 4.70363 1.18251 0
M  V30 11994 H 1121.96 4.04278 2.21541 0
M  V30 11995 H 1125.51 6.96572 0.378612 0
M  V30 11996 H 1121.4 6.29758 1.41686 0
M  V30 11997 H 1122.17 8.16861 0.517766 0
M  V30 11998 N 1124.83 -0.648732 1.43629 0
M  V30 11999 C 1125.74 -1.79046 1.51591 0
M  V30 12000 C 1126.76 -1.69276 0.402697 0
M  V30 12001 O 1127.94 -1.90366 0.657484 0
M  V30 12002 C 1125 -3.15347 1.44073 0
M  V30 12003 C 1124.06 -3.3688 2.66102 0
M  V30 12004 C 1123.3 -4.66679 2.58933 0
M  V30 12005 O 1123.52 -5.46328 1.63956 0
M  V30 12006 O 1122.45 -4.9003 3.49506 0
M  V30 12007 H 1126.28 -1.75283 2.48011 0
M  V30 12008 H 1123.86 -0.807774 1.2568 0
M  V30 12009 H 1125.75 -3.96633 1.42339 0
M  V30 12010 H 1124.42 -3.19691 0.50789 0
M  V30 12011 H 1123.33 -2.55341 2.73407 0
M  V30 12012 H 1124.66 -3.37386 3.58373 0
M  V30 12013 N 1126.31 -1.30234 -0.887518 0
M  V30 12014 C 1127.56 -1.18277 -1.63381 0
M  V30 12015 C 1127.87 0.262079 -1.93836 0
M  V30 12016 O 1129.08 0.503127 -2.66797 0
M  V30 12017 C 1127.54 -2.06944 -2.94452 0
M  V30 12018 C 1127.14 -3.56323 -2.71547 0
M  V30 12019 C 1128.89 -2.03743 -3.7241 0
M  V30 12020 C 1126.8 -4.37054 -3.98419 0
M  V30 12021 H 1125.73 -0.439087 -0.612959 0
M  V30 12022 H 1128.38 -1.54964 -0.982779 0
M  V30 12023 H 1126.76 -1.63138 -3.60835 0
M  V30 12024 H 1127.93 -4.08261 -2.13681 0
M  V30 12025 H 1126.25 -3.61321 -2.06969 0
M  V30 12026 H 1128.84 -2.61312 -4.66497 0
M  V30 12027 H 1129.19 -1.02029 -4.03603 0
M  V30 12028 H 1129.72 -2.45657 -3.12886 0
M  V30 12029 H 1126.46 -5.39453 -3.72385 0
M  V30 12030 H 1125.98 -3.89881 -4.55799 0
M  V30 12031 H 1127.66 -4.48356 -4.66462 0
M  V30 12032 N 1127.79 1.09952 -1.12909 0
M  V30 12033 C 1129.04 1.81657 -0.885729 0
M  V30 12034 C 1129.36 1.85863 0.589913 0
M  V30 12035 O 1128.63 1.34028 1.42875 0
M  V30 12036 H 1127.21 0.672743 -0.324694 0
M  V30 12037 H 1129.87 1.33013 -1.42456 0
M  V30 12038 H 1128.97 2.85018 -1.27167 0
M  V30 12039 O 1129.31 1.05328 1.22427 0
M  V30 12040 H 1130 0.730081 1.79414 0
M  V30 END ATOM
M  V30 BEGIN BOND
M  V30 END BOND
M  V30 END CTAB
M  END
$$$$
