drugbank_target|P13498 Cytochrome b-245 light chain (DB00514)
 OpenBabel12092121003D

  0  0  0     0  0            999 V3000
M  V30 BEGIN CTAB
M  V30 COUNTS 3003 3046 0 0 0
M  V30 BEGIN ATOM
M  V30 1 H -0.908 1.98254 -0.117106 0
M  V30 2 N 0 1.576 0 0
M  V30 3 C 0.933 2.03868 1.02534 0
M  V30 4 C 1.911 0.928543 1.3348 0
M  V30 5 O 3.095 1.19667 1.45644 0
M  V30 6 C 0.222 2.43627 2.35294 0
M  V30 7 C -0.732 3.65373 2.2001 0
M  V30 8 S 0.101 5.13292 1.52614 0
M  V30 9 C 1.257 5.56322 2.86805 0
M  V30 10 H 1.49 2.90518 0.631377 0
M  V30 11 H -0.977 1.52953 0.210867 0
M  V30 12 H 0.981 2.67203 3.11629 0
M  V30 13 H -0.358 1.57376 2.7183 0
M  V30 14 H -1.165 3.90944 3.18086 0
M  V30 15 H -1.563 3.418 1.51819 0
M  V30 16 H 0.729 5.58782 3.83104 0
M  V30 17 H 1.672 6.56266 2.65933 0
M  V30 18 H 2.08 4.83886 2.90714 0
M  V30 19 N 1.4781 -0.272755 1.55222 0
M  V30 20 C 2.7261 -1.00234 1.75492 0
M  V30 21 C 3.0471 -1.8681 0.5592 0
M  V30 22 O 2.3171 -1.91215 -0.425882 0
M  V30 23 H 0.8971 -0.373076 0.647166 0
M  V30 24 H 3.5591 -0.296926 1.92625 0
M  V30 25 H 2.6551 -1.63913 2.65592 0
M  V30 26 N 2.9562 -1.48159 -0.537278 0
M  V30 27 C 3.8882 -1.58218 -1.65831 0
M  V30 28 C 4.9012 -0.466948 -1.5596 0
M  V30 29 O 6.0902 -0.73747 -1.62553 0
M  V30 30 C 3.1902 -1.48906 -3.04434 0
M  V30 31 C 2.3632 -2.75343 -3.3986 0
M  V30 32 C 1.4222 -2.59588 -4.57712 0
M  V30 33 O 0.4482 -3.33457 -4.61297 0
M  V30 34 N 1.6502 -1.68724 -5.55439 0
M  V30 35 H 4.4152 -2.54891 -1.57641 0
M  V30 36 H 1.9762 -1.4479 -0.724386 0
M  V30 37 H 3.9682 -1.36072 -3.81139 0
M  V30 38 H 2.5382 -0.602368 -3.06741 0
M  V30 39 H 1.7582 -3.02795 -2.52406 0
M  V30 40 H 3.0462 -3.5924 -3.60311 0
M  V30 41 H 2.4442 -1.07898 -5.55315 0
M  V30 42 H 1.0012 -1.61832 -6.3139 0
M  V30 43 N 4.4343 0.785586 -1.36625 0
M  V30 44 C 5.6833 1.53883 -1.30396 0
M  V30 45 C 5.9963 1.95271 0.113452 0
M  V30 46 O 7.2023 2.69858 0.298142 0
M  V30 47 C 5.6583 2.77808 -2.28802 0
M  V30 48 C 5.2663 2.43574 -3.75999 0
M  V30 49 C 7.0103 3.55783 -2.31558 0
M  V30 50 C 4.9173 3.63919 -4.66173 0
M  V30 51 H 3.8473 0.577678 -0.484566 0
M  V30 52 H 6.4983 0.861705 -1.62009 0
M  V30 53 H 4.8803 3.47339 -1.90188 0
M  V30 54 H 6.0543 1.81916 -4.23371 0
M  V30 55 H 4.3693 1.78803 -3.76056 0
M  V30 56 H 6.9663 4.45205 -2.96137 0
M  V30 57 H 7.3093 3.94644 -1.3252 0
M  V30 58 H 7.8423 2.93235 -2.68809 0
M  V30 59 H 4.5813 3.3015 -5.66287 0
M  V30 60 H 4.1013 4.2473 -4.23515 0
M  V30 61 H 5.7803 4.30901 -4.82632 0
M  V30 62 N 5.9124 1.20967 1.01018 0
M  V30 63 C 6.8224 0.980157 2.13143 0
M  V30 64 C 7.8384 -0.0660665 1.73875 0
M  V30 65 O 9.0144 0.122821 2.01025 0
M  V30 66 C 6.0794 0.54216 3.42435 0
M  V30 67 C 5.1404 1.65999 3.95908 0
M  V30 68 C 4.3734 1.2428 5.19028 0
M  V30 69 O 4.5964 0.114196 5.70286 0
M  V30 70 O 3.5304 2.05271 5.65816 0
M  V30 71 H 7.3564 1.91913 2.35379 0
M  V30 72 H 4.9414 0.994099 1.11526 0
M  V30 73 H 6.8234 0.30744 4.20277 0
M  V30 74 H 5.4984 -0.36815 3.216 0
M  V30 75 H 4.4054 1.94906 3.19316 0
M  V30 76 H 5.7384 2.54753 4.21143 0
M  V30 77 N 7.3905 -1.2043 1.01659 0
M  V30 78 C 8.6365 -1.90356 0.716674 0
M  V30 79 C 8.9915 -1.77367 -0.745557 0
M  V30 80 O 8.2845 -1.1471 -1.53467 0
M  V30 81 C 8.4785 -3.40464 1.08714 0
M  V30 82 C 8.3075 -3.6806 2.58384 0
M  V30 83 C 7.0775 -3.86775 3.25167 0
M  V30 84 C 9.2755 -3.70623 3.56572 0
M  V30 85 N 7.2575 -4.01889 4.64067 0
M  V30 86 C 8.6285 -3.91161 4.81034 0
M  V30 87 C 10.6835 -3.53586 3.50544 0
M  V30 88 C 9.3865 -3.96428 6.00198 0
M  V30 89 C 11.4125 -3.60125 4.6911 0
M  V30 90 C 10.7745 -3.81135 5.92381 0
M  V30 91 H 6.8735 -0.716226 0.313918 0
M  V30 92 H 9.4575 -1.44815 1.30141 0
M  V30 93 H 7.6285 -3.84757 0.530745 0
M  V30 94 H 9.3605 -3.97863 0.740763 0
M  V30 95 H 6.1155 -3.85156 2.75594 0
M  V30 96 H 6.5395 -4.13323 5.36184 0
M  V30 97 H 11.1815 -3.36308 2.56235 0
M  V30 98 H 8.8995 -4.12502 6.94887 0
M  V30 99 H 12.4855 -3.4825 4.66062 0
M  V30 100 H 11.3655 -3.86054 6.82592 0
M  V30 101 N 8.8686 -0.792821 -1.36206 0
M  V30 102 C 9.8316 -0.199459 -2.2833 0
M  V30 103 C 10.8316 0.605189 -1.48977 0
M  V30 104 O 12.0216 0.425685 -1.68919 0
M  V30 105 C 9.1536 0.723523 -3.33134 0
M  V30 106 H 10.3466 -1.01181 -2.82316 0
M  V30 107 H 7.8996 -0.562485 -1.45828 0
M  V30 108 H 8.6346 1.56008 -2.84309 0
M  V30 109 H 8.4196 0.148436 -3.91819 0
M  V30 110 H 9.9096 1.13344 -4.01924 0
M  V30 111 N 10.3467 1.47872 -0.545128 0
M  V30 112 C 11.2797 2.2675 0.256885 0
M  V30 113 C 12.2577 1.33293 0.931228 0
M  V30 114 O 13.4417 1.62657 0.95262 0
M  V30 115 C 10.5687 3.09976 1.36501 0
M  V30 116 C 9.6147 4.1892 0.800496 0
M  V30 117 S 10.4477 5.34397 -0.343505 0
M  V30 118 C 11.6037 6.21186 0.766733 0
M  V30 119 H 11.8367 2.94425 -0.412479 0
M  V30 120 H 9.3697 1.50806 -0.331204 0
M  V30 121 H 11.3277 3.585 1.9997 0
M  V30 122 H 9.9887 2.41686 2.00616 0
M  V30 123 H 9.1817 4.76836 1.63227 0
M  V30 124 H 8.7837 3.73215 0.242217 0
M  V30 125 H 11.0757 6.56804 1.66178 0
M  V30 126 H 12.0187 7.07742 0.225204 0
M  V30 127 H 12.4267 5.54574 1.05396 0
M  V30 128 N 11.8248 0.280983 1.55075 0
M  V30 129 C 13.0708 -0.327573 2.00745 0
M  V30 130 C 13.4258 -1.53045 1.16598 0
M  V30 131 O 12.7188 -1.90221 0.229451 0
M  V30 132 C 12.9128 -0.754656 3.49342 0
M  V30 133 C 12.7418 0.40529 4.4787 0
M  V30 134 C 11.5118 0.890947 4.97383 0
M  V30 135 C 13.7098 1.24371 4.99035 0
M  V30 136 N 11.6918 2.01975 5.79724 0
M  V30 137 C 13.0628 2.22031 5.7888 0
M  V30 138 C 15.1178 1.27638 4.81262 0
M  V30 139 C 13.8208 3.22709 6.42846 0
M  V30 140 C 15.8468 2.27164 5.46031 0
M  V30 141 C 15.2088 3.23556 6.25692 0
M  V30 142 H 11.3078 -0.0848774 0.77738 0
M  V30 143 H 13.8918 0.406342 1.90413 0
M  V30 144 H 12.0628 -1.45778 3.60005 0
M  V30 145 H 13.7948 -1.34105 3.81835 0
M  V30 146 H 10.5498 0.469262 4.71269 0
M  V30 147 H 10.9738 2.58794 6.25584 0
M  V30 148 H 15.6158 0.544936 4.19274 0
M  V30 149 H 13.3338 3.96784 7.0398 0
M  V30 150 H 16.9198 2.30441 5.34217 0
M  V30 151 H 15.7998 3.99309 6.74924 0
M  V30 152 N 13.3029 -1.57598 0.00835791 0
M  V30 153 C 14.2659 -2.07884 -0.965242 0
M  V30 154 C 15.2659 -0.989825 -1.26725 0
M  V30 155 O 16.4559 -1.25218 -1.21104 0
M  V30 156 C 13.5879 -2.52731 -2.28779 0
M  V30 157 H 14.7809 -2.95178 -0.530112 0
M  V30 158 H 12.3339 -1.54458 -0.239283 0
M  V30 159 H 13.0689 -1.68705 -2.76964 0
M  V30 160 H 12.8539 -3.32272 -2.08177 0
M  V30 161 H 14.3439 -2.91933 -2.98605 0
M  V30 162 N 14.781 0.264519 -1.55364 0
M  V30 163 C 15.729 1.34702 -1.89626 0
M  V30 164 C 16.723 1.50712 -0.773459 0
M  V30 165 O 17.929 1.52395 -0.957897 0
M  V30 166 H 14.304 0.450682 -0.601988 0
M  V30 167 H 16.275 1.0306 -2.80038 0
M  V30 168 C 15.024 2.6989 -2.19214 0
M  V30 169 H 14.347 2.58365 -3.05103 0
M  V30 170 H 15.787 3.44553 -2.47102 0
M  V30 171 C 14.246 3.21637 -1.00254 0
M  V30 172 O 14.776 4.00973 -0.241501 0
M  V30 173 N 12.982 2.7943 -0.797938 0
M  V30 174 H 12.529 2.15026 -1.4185 0
M  V30 175 H 12.487 3.144 -0.00363422 0
M  V30 176 N 16.2591 1.48442 0.529413 0
M  V30 177 C 17.1691 1.6569 1.66084 0
M  V30 178 C 18.1851 0.539432 1.65427 0
M  V30 179 O 19.3611 0.810572 1.84368 0
M  V30 180 C 16.4261 1.69315 3.02545 0
M  V30 181 C 15.4871 2.92694 3.14052 0
M  V30 182 C 14.7201 2.96137 4.44003 0
M  V30 183 O 14.9431 2.07973 5.31134 0
M  V30 184 O 13.8771 3.88312 4.59888 0
M  V30 185 H 17.7031 2.61483 1.54469 0
M  V30 186 H 15.2881 1.3185 0.702567 0
M  V30 187 H 17.1701 1.74217 3.83701 0
M  V30 188 H 15.8451 0.766966 3.14483 0
M  V30 189 H 14.7521 2.93324 2.32189 0
M  V30 190 H 16.0851 3.84699 3.0703 0
M  V30 191 N 17.7372 -0.778329 1.37039 0
M  V30 192 C 18.6692 -1.90034 1.2814 0
M  V30 193 C 19.6822 -1.61585 0.198558 0
M  V30 194 O 20.8712 -1.72625 0.454175 0
M  V30 195 C 17.9712 -3.25108 0.956968 0
M  V30 196 C 17.1442 -3.81253 2.14394 0
M  V30 197 C 16.2032 -4.94789 1.79082 0
M  V30 198 O 15.2292 -5.10721 2.51301 0
M  V30 199 N 16.4312 -5.75878 0.731043 0
M  V30 200 H 19.1962 -1.98186 2.24816 0
M  V30 201 H 16.7572 -0.957129 1.30578 0
M  V30 202 H 18.7492 -3.9857 0.701701 0
M  V30 203 H 17.3192 -3.125 0.0789812 0
M  V30 204 H 16.5392 -2.99647 2.56135 0
M  V30 205 H 17.8272 -4.15495 2.93668 0
M  V30 206 H 17.2252 -5.65547 0.131618 0
M  V30 207 H 15.7822 -6.49596 0.535622 0
M  V30 208 N 19.2153 -1.21501 -1.00376 0
M  V30 209 C 20.1783 -0.976927 -2.07337 0
M  V30 210 C 21.1783 0.0525322 -1.60714 0
M  V30 211 O 22.3683 -0.184869 -1.73216 0
M  V30 212 C 19.5003 -0.473423 -3.37597 0
M  V30 213 H 20.6933 -1.92587 -2.29892 0
M  V30 214 H 18.2463 -1.03217 -1.17371 0
M  V30 215 H 18.9813 0.480379 -3.20722 0
M  V30 216 H 18.7663 -1.216 -3.72768 0
M  V30 217 H 20.2563 -0.32675 -4.1632 0
M  V30 218 N 20.6934 1.19889 -1.02296 0
M  V30 219 C 21.6234 2.25141 -0.619174 0
M  V30 220 C 22.6044 1.66051 0.368915 0
M  V30 221 O 23.7894 1.92546 0.252941 0
M  V30 222 C 20.9194 3.4728 0.0368783 0
M  V30 223 C 19.8734 4.19005 -0.872865 0
M  V30 224 C 19.1994 5.34637 -0.0822402 0
M  V30 225 C 20.4994 4.74452 -2.18387 0
M  V30 226 H 22.1934 2.59171 -1.49903 0
M  V30 227 H 19.7394 1.24579 -0.722222 0
M  V30 228 H 21.6924 4.20098 0.330958 0
M  V30 229 H 20.4164 3.12433 0.95149 0
M  V30 230 H 19.0754 3.48061 -1.15105 0
M  V30 231 H 18.7234 4.96034 0.83422 0
M  V30 232 H 18.4234 5.83557 -0.688149 0
M  V30 233 H 19.9474 6.10255 0.205238 0
M  V30 234 H 21.3614 5.39055 -1.95172 0
M  V30 235 H 19.7584 5.33834 -2.74119 0
M  V30 236 H 20.8284 3.92844 -2.84257 0
M  V30 237 N 22.1715 0.800033 1.35784 0
M  V30 238 C 23.1345 0.211565 2.28221 0
M  V30 239 C 24.1345 -0.59728 1.49296 0
M  V30 240 O 25.3245 -0.416721 1.69142 0
M  V30 241 C 22.4565 -0.705846 3.33513 0
M  V30 242 H 23.6495 1.02677 2.81776 0
M  V30 243 H 21.2025 0.570211 1.45528 0
M  V30 244 H 21.9375 -1.54498 2.85133 0
M  V30 245 H 21.7225 -0.127655 3.91892 0
M  V30 246 H 23.2125 -1.11211 4.02519 0
M  V30 247 N 23.6496 -1.47581 0.552962 0
M  V30 248 C 24.8746 -2.07378 0.0300593 0
M  V30 249 C 25.2996 -1.40355 -1.25229 0
M  V30 250 O 24.6576 -0.477099 -1.7491 0
M  V30 251 C 24.7056 -3.60274 -0.153231 0
M  V30 252 O 23.8096 -3.94041 -1.21678 0
M  V30 253 H 23.1506 -0.662158 0.0494182 0
M  V30 254 H 25.6806 -1.89662 0.767434 0
M  V30 255 H 25.6906 -4.0633 -0.368761 0
M  V30 256 H 24.3656 -4.08455 0.783397 0
M  V30 257 H 22.9426 -3.59735 -0.982079 0
M  V30 258 N 25.1277 -0.289203 -1.54924 0
M  V30 259 C 26.3757 0.322879 -1.99504 0
M  V30 260 C 26.6967 1.55313 -1.1791 0
M  V30 261 O 25.9667 1.94001 -0.272097 0
M  V30 262 H 24.5467 0.122291 -0.736922 0
M  V30 263 H 27.2087 -0.397802 -1.90797 0
M  V30 264 H 26.3047 0.603061 -3.06218 0
M  V30 265 N 26.6058 1.57591 -0.0167156 0
M  V30 266 C 27.5358 2.12496 0.967858 0
M  V30 267 C 28.5168 1.03807 1.34752 0
M  V30 268 O 29.7018 1.31577 1.42833 0
M  V30 269 C 26.8318 2.64194 2.25431 0
M  V30 270 C 25.7858 3.77559 2.01576 0
M  V30 271 C 25.1118 4.15636 3.36379 0
M  V30 272 C 26.4118 5.04151 1.36489 0
M  V30 273 H 28.1058 2.95013 0.510643 0
M  V30 274 H 25.6518 1.41915 0.244181 0
M  V30 275 H 27.6048 3.01236 2.94678 0
M  V30 276 H 26.3288 1.78821 2.73296 0
M  V30 277 H 24.9878 3.40937 1.34751 0
M  V30 278 H 24.6358 3.27263 3.81979 0
M  V30 279 H 24.3358 4.92022 3.21229 0
M  V30 280 H 25.8598 4.5525 4.06915 0
M  V30 281 H 27.2738 5.38857 1.95718 0
M  V30 282 H 25.6708 5.85453 1.31776 0
M  V30 283 H 26.7408 4.83733 0.336219 0
M  V30 284 N 28.0839 -0.256276 1.55502 0
M  V30 285 C 29.3329 -0.983486 1.76098 0
M  V30 286 C 29.6459 -1.86837 0.578896 0
M  V30 287 O 30.8519 -2.63163 0.667648 0
M  V30 288 C 29.3079 -1.79868 3.1173 0
M  V30 289 C 28.9159 -0.961648 4.37557 0
M  V30 290 C 30.6599 -2.51919 3.41668 0
M  V30 291 C 28.5669 -1.77219 5.64223 0
M  V30 292 H 27.4969 -0.370936 0.656447 0
M  V30 293 H 30.1479 -0.238492 1.81944 0
M  V30 294 H 28.5299 -2.58527 2.99966 0
M  V30 295 H 29.7039 -0.218048 4.60284 0
M  V30 296 H 28.0189 -0.354913 4.14885 0
M  V30 297 H 30.6159 -3.12998 4.33516 0
M  V30 298 H 30.9589 -3.23059 2.62562 0
M  V30 299 H 31.4919 -1.80278 3.54605 0
M  V30 300 H 28.2309 -1.10471 6.46124 0
M  V30 301 H 27.7509 -2.49132 5.45613 0
M  V30 302 H 29.4299 -2.34169 6.03137 0
M  V30 303 N 29.562 -1.4872 -0.521534 0
M  V30 304 C 30.492 -1.66771 -1.63431 0
M  V30 305 C 31.473 -0.516499 -1.62069 0
M  V30 306 O 32.658 -0.750013 -1.79132 0
M  V30 307 C 29.788 -1.71515 -3.01993 0
M  V30 308 C 28.742 -2.86222 -3.18216 0
M  V30 309 C 28.068 -2.76061 -4.57924 0
M  V30 310 C 29.368 -4.27419 -3.00184 0
M  V30 311 H 31.062 -2.59932 -1.48579 0
M  V30 312 H 28.608 -1.25089 -0.713358 0
M  V30 313 H 30.561 -1.82731 -3.7972 0
M  V30 314 H 29.285 -0.749393 -3.17886 0
M  V30 315 H 27.944 -2.74575 -2.42908 0
M  V30 316 H 27.592 -1.77437 -4.70665 0
M  V30 317 H 27.292 -3.53037 -4.69722 0
M  V30 318 H 28.816 -2.89256 -5.37739 0
M  V30 319 H 30.23 -4.39855 -3.67697 0
M  V30 320 H 28.627 -5.05458 -3.2347 0
M  V30 321 H 29.697 -4.43293 -1.96518 0
M  V30 322 N 31.0401 0.771051 -1.3745 0
M  V30 323 C 32.2891 1.52491 -1.3202 0
M  V30 324 C 32.6021 1.9538 0.0927347 0
M  V30 325 O 33.8081 2.70159 0.269503 0
M  V30 326 C 32.2641 2.75366 -2.31736 0
M  V30 327 C 31.8721 2.39573 -3.78562 0
M  V30 328 C 33.6161 3.53307 -2.35318 0
M  V30 329 C 31.5231 3.58954 -4.70007 0
M  V30 330 H 30.4531 0.572506 -0.490666 0
M  V30 331 H 33.1041 0.844474 -1.62914 0
M  V30 332 H 31.4861 3.45303 -1.93861 0
M  V30 333 H 32.6601 1.77415 -4.25277 0
M  V30 334 H 30.9751 1.74805 -3.77932 0
M  V30 335 H 33.5721 4.42039 -3.00842 0
M  V30 336 H 33.9151 3.93217 -1.36698 0
M  V30 337 H 34.4481 2.90367 -2.71904 0
M  V30 338 H 31.1871 3.24125 -5.69757 0
M  V30 339 H 30.7071 4.20214 -4.27996 0
M  V30 340 H 32.3861 4.25758 -4.87175 0
M  V30 341 N 32.5182 1.22032 0.997298 0
M  V30 342 C 33.7462 1.06841 1.7718 0
M  V30 343 C 34.1612 -0.381325 1.84909 0
M  V30 344 O 33.5182 -1.26437 1.31605 0
M  V30 345 C 33.5692 1.66814 3.20711 0
M  V30 346 O 33.2902 3.06116 3.13408 0
M  V30 347 C 34.7912 1.56838 4.14628 0
M  V30 348 H 32.0112 0.374782 0.556578 0
M  V30 349 H 34.5552 1.61532 1.2541 0
M  V30 350 H 32.7102 1.16196 3.69564 0
M  V30 351 H 33.1242 3.34926 4.0364 0
M  V30 352 H 34.5982 2.03532 5.13107 0
M  V30 353 H 35.0752 0.524155 4.36061 0
M  V30 354 H 35.6812 2.06741 3.7167 0
M  V30 355 N 33.9963 -1.19345 1.0293 0
M  V30 356 C 35.2443 -1.88665 0.724574 0
M  V30 357 C 35.5653 -1.80036 -0.749144 0
M  V30 358 O 34.8353 -1.2111 -1.53978 0
M  V30 359 H 33.4153 -0.698406 0.265025 0
M  V30 360 H 36.0773 -1.44885 1.30362 0
M  V30 361 H 35.1733 -2.94987 1.01926 0
M  V30 362 N 35.4744 -0.807222 -1.35358 0
M  V30 363 C 36.7224 -0.387122 -1.98358 0
M  V30 364 C 37.0434 1.04942 -1.64354 0
M  V30 365 O 36.3134 1.72615 -0.926339 0
M  V30 366 H 34.8934 -0.140154 -0.733734 0
M  V30 367 H 37.5554 -1.0332 -1.6526 0
M  V30 368 H 36.6514 -0.493352 -3.08176 0
M  V30 369 N 36.9525 1.47285 -0.560781 0
M  V30 370 C 38.2015 2.01668 -0.035895 0
M  V30 371 C 38.5145 1.44021 1.32353 0
M  V30 372 O 39.7205 1.90088 1.93853 0
M  V30 373 C 38.1765 3.59897 -0.0136659 0
M  V30 374 C 37.7845 4.26536 -1.37006 0
M  V30 375 C 39.5285 4.22017 0.458425 0
M  V30 376 C 37.4355 5.76782 -1.30675 0
M  V30 377 H 36.3655 0.753938 -0.00964879 0
M  V30 378 H 39.0165 1.69243 -0.709166 0
M  V30 379 H 37.3985 3.89301 0.725325 0
M  V30 380 H 38.5725 4.0877 -2.12705 0
M  V30 381 H 36.8875 3.76419 -1.78038 0
M  V30 382 H 39.4845 5.32124 0.524247 0
M  V30 383 H 39.8275 3.89437 1.4712 0
M  V30 384 H 40.3605 3.97159 -0.225818 0
M  V30 385 H 37.0995 6.13988 -2.29564 0
M  V30 386 H 36.6195 5.96875 -0.591622 0
M  V30 387 H 38.2985 6.39063 -1.01033 0
M  V30 388 N 38.4306 0.297415 1.54768 0
M  V30 389 C 39.6766 -0.313376 2.00364 0
M  V30 390 C 40.0096 -1.53815 1.18553 0
M  V30 391 O 39.2846 -1.92739 0.261103 0
M  V30 392 C 39.5676 -0.673525 3.53745 0
M  V30 393 C 39.4206 0.560133 4.46299 0
M  V30 394 C 40.7396 -1.50143 4.13697 0
M  V30 395 H 37.8586 -0.112428 0.728374 0
M  V30 396 H 40.5006 0.4088 1.8555 0
M  V30 397 H 38.6506 -1.28881 3.665 0
M  V30 398 H 40.3226 1.19863 4.45455 0
M  V30 399 H 38.5656 1.19405 4.17043 0
M  V30 400 H 39.2366 0.26405 5.51368 0
M  V30 401 H 41.7126 -0.981588 4.04356 0
M  V30 402 H 40.5886 -1.72221 5.21182 0
M  V30 403 H 40.8496 -2.48952 3.65343 0
M  V30 404 N 39.9087 -1.5758 0.0250728 0
M  V30 405 C 40.8717 -2.08896 -0.943139 0
M  V30 406 C 41.8717 -1.00321 -1.25668 0
M  V30 407 O 43.0617 -1.26495 -1.19769 0
M  V30 408 C 40.1937 -2.55143 -2.26086 0
M  V30 409 H 41.3867 -2.95723 -0.498775 0
M  V30 410 H 38.9397 -1.54703 -0.222888 0
M  V30 411 H 39.6747 -1.71633 -2.75159 0
M  V30 412 H 39.4597 -3.34461 -2.04641 0
M  V30 413 H 40.9497 -2.95083 -2.95492 0
M  V30 414 N 41.3868 0.248026 -1.55636 0
M  V30 415 C 42.6148 0.993808 -1.81469 0
M  V30 416 C 43.0298 1.78991 -0.60064 0
M  V30 417 O 42.3868 1.77345 0.430682 0
M  V30 418 C 42.4378 1.93258 -3.05506 0
M  V30 419 O 42.1588 1.16869 -4.22224 0
M  V30 420 C 43.6598 2.79444 -3.4413 0
M  V30 421 H 40.8798 0.292486 -0.603898 0
M  V30 422 H 43.4238 0.271253 -2.02693 0
M  V30 423 H 41.5788 2.60943 -2.86335 0
M  V30 424 H 41.9928 1.80359 -4.92515 0
M  V30 425 H 43.4668 3.41066 -4.34026 0
M  V30 426 H 43.9438 3.50499 -2.64665 0
M  V30 427 H 44.5498 2.17214 -3.65648 0
M  V30 428 N 42.8649 1.48995 0.513639 0
M  V30 429 C 43.8279 1.64229 1.59879 0
M  V30 430 C 44.8279 0.514696 1.5234 0
M  V30 431 O 46.0179 0.78087 1.55718 0
M  V30 432 C 43.1499 1.62783 2.99524 0
M  V30 433 H 44.3429 2.61004 1.47705 0
M  V30 434 H 41.8959 1.37837 0.736936 0
M  V30 435 H 42.6309 0.675461 3.17188 0
M  V30 436 H 42.4159 2.4466 3.06404 0
M  V30 437 H 43.9059 1.76669 3.78388 0
M  V30 438 N 44.343 -0.763751 1.37857 0
M  V30 439 C 45.591 -1.51957 1.33243 0
M  V30 440 C 45.912 -1.94835 -0.0801709 0
M  V30 441 O 45.182 -1.66894 -1.02582 0
M  V30 442 H 43.762 -0.563626 0.49024 0
M  V30 443 H 46.424 -0.908504 1.7243 0
M  V30 444 H 45.52 -2.41523 1.97669 0
M  V30 445 N 45.8211 -1.22559 -0.990812 0
M  V30 446 C 47.2371 -0.985996 -1.255 0
M  V30 447 C 47.4371 0.319173 -1.98956 0
M  V30 448 O 46.4931 1.04127 -2.3003 0
M  V30 449 C 47.8061 -2.18607 -2.06474 0
M  V30 450 C 49.3541 -2.22985 -2.19651 0
M  V30 451 C 49.8291 -3.4255 -3.04012 0
M  V30 452 N 51.3201 -3.42725 -3.11599 0
M  V30 453 C 52.0551 -4.31892 -3.7717 0
M  V30 454 N 51.5511 -5.31279 -4.44651 0
M  V30 455 N 53.3441 -4.19662 -3.73952 0
M  V30 456 H 45.4951 -2.06469 -0.49841 0
M  V30 457 H 47.7581 -0.904853 -0.282747 0
M  V30 458 H 47.4641 -3.13267 -1.59865 0
M  V30 459 H 47.3381 -2.18838 -3.07229 0
M  V30 460 H 49.7251 -1.28871 -2.65474 0
M  V30 461 H 49.8061 -2.26791 -1.18319 0
M  V30 462 H 49.4501 -4.36965 -2.58889 0
M  V30 463 H 49.3801 -3.35984 -4.0549 0
M  V30 464 H 51.8711 -2.70807 -2.63575 0
M  V30 465 H 52.1841 -5.95593 -4.92431 0
M  V30 466 H 50.5291 -5.3519 -4.43392 0
M  V30 467 H 53.7201 -3.41268 -3.20396 0
M  V30 468 H 53.8931 -4.89358 -4.24774 0
M  V30 469 N 47.2992 1.18797 -1.03562 0
M  V30 470 C 48.5462 1.8865 -0.736023 0
M  V30 471 C 48.8742 1.80041 0.735889 0
M  V30 472 O 48.1292 1.19179 1.55225 0
M  V30 473 C 48.4282 3.38692 -1.14117 0
M  V30 474 C 48.0942 3.67504 -2.6125 0
M  V30 475 C 46.7562 3.75078 -3.01447 0
M  V30 476 C 49.1082 3.80293 -3.56408 0
M  V30 477 C 46.4362 3.92915 -4.35701 0
M  V30 478 C 48.7882 3.99645 -4.90374 0
M  V30 479 C 47.4522 4.05453 -5.30249 0
M  V30 480 H 46.7222 0.690321 -0.26933 0
M  V30 481 H 49.3692 1.40641 -1.29971 0
M  V30 482 H 47.6742 3.88645 -0.496202 0
M  V30 483 H 49.3712 3.91072 -0.886789 0
M  V30 484 H 45.9612 3.62223 -2.29113 0
M  V30 485 H 50.1452 3.73779 -3.26501 0
M  V30 486 H 45.4012 3.95653 -4.66121 0
M  V30 487 H 49.5752 4.08482 -5.64017 0
M  V30 488 H 47.2022 4.19027 -6.34288 0
M  V30 489 N 48.7773 0.814389 1.34928 0
M  V30 490 C 50.0053 0.411136 2.02774 0
M  V30 491 C 50.4203 -0.980316 1.61354 0
M  V30 492 O 49.7773 -1.63299 0.814847 0
M  V30 493 C 49.8283 0.493865 3.58111 0
M  V30 494 O 49.5493 1.83047 3.98027 0
M  V30 495 C 51.0503 0.0844174 4.4322 0
M  V30 496 H 48.2703 0.166037 0.650133 0
M  V30 497 H 50.8143 1.10018 1.72384 0
M  V30 498 H 48.9693 -0.147006 3.87121 0
M  V30 499 H 49.3833 1.79872 4.92693 0
M  V30 500 H 50.8573 0.193404 5.51661 0
M  V30 501 H 51.3343 -0.97113 4.28329 0
M  V30 502 H 51.9403 0.69875 4.19521 0
M  V30 503 N 50.2554 -1.46986 0.568584 0
M  V30 504 C 51.1874 -2.28233 -0.210337 0
M  V30 505 C 52.2004 -1.37682 -0.868767 0
M  V30 506 O 53.3894 -1.62406 -0.740705 0
M  V30 507 C 50.4894 -3.12293 -1.3163 0
M  V30 508 C 49.6624 -4.30878 -0.7525 0
M  V30 509 C 48.7214 -4.96445 -1.74439 0
M  V30 510 O 47.7474 -5.54482 -1.286 0
M  V30 511 N 48.9494 -4.92171 -3.07812 0
M  V30 512 H 51.7144 -2.95723 0.486648 0
M  V30 513 H 49.2754 -1.56742 0.405409 0
M  V30 514 H 51.2674 -3.53022 -1.97883 0
M  V30 515 H 49.8374 -2.46971 -1.91636 0
M  V30 516 H 49.0574 -3.94104 0.0871128 0
M  V30 517 H 50.3454 -5.07558 -0.35536 0
M  V30 518 H 49.7434 -4.46239 -3.47688 0
M  V30 519 H 48.3004 -5.36884 -3.69592 0
M  V30 520 N 51.7335 -0.305618 -1.54608 0
M  V30 521 C 52.9795 0.295595 -2.01241 0
M  V30 522 C 53.3345 1.51171 -1.19018 0
M  V30 523 O 52.6275 1.89832 -0.259684 0
M  V30 524 C 52.8215 0.698983 -3.50498 0
M  V30 525 C 52.6505 -0.476491 -4.47168 0
M  V30 526 C 51.4205 -0.969963 -4.95903 0
M  V30 527 C 53.6185 -1.32294 -4.96994 0
M  V30 528 N 51.6005 -2.11172 -5.76437 0
M  V30 529 C 52.9715 -2.31212 -5.75275 0
M  V30 530 C 55.0265 -1.35278 -4.7917 0
M  V30 531 C 53.7295 -3.32896 -6.37631 0
M  V30 532 C 55.7555 -2.35823 -5.42348 0
M  V30 533 C 55.1175 -3.33469 -6.20466 0
M  V30 534 H 51.2165 0.0724992 -0.778632 0
M  V30 535 H 53.8005 -0.436583 -1.89742 0
M  V30 536 H 51.9715 1.40032 -3.62278 0
M  V30 537 H 53.7035 1.28013 -3.8392 0
M  V30 538 H 50.4585 -0.544178 -4.70463 0
M  V30 539 H 50.8825 -2.68714 -6.21387 0
M  V30 540 H 55.5245 -0.61157 -4.18354 0
M  V30 541 H 53.2425 -4.07933 -6.97579 0
M  V30 542 H 56.8285 -2.38911 -5.30484 0
M  V30 543 H 55.7085 -4.09996 -6.68485 0
M  V30 544 N 53.2116 1.57565 -0.0334293 0
M  V30 545 C 54.4416 1.95996 0.653398 0
M  V30 546 C 54.8496 0.908749 1.65947 0
M  V30 547 O 54.1926 -0.117471 1.83324 0
M  V30 548 C 54.2546 3.30589 1.41249 0
M  V30 549 C 53.9186 4.53503 0.564263 0
M  V30 550 C 54.9156 5.19647 -0.16225 0
M  V30 551 C 52.6006 4.99801 0.500398 0
M  V30 552 C 54.5946 6.30412 -0.941255 0
M  V30 553 C 52.2816 6.10448 -0.282308 0
M  V30 554 C 53.2796 6.75612 -1.00184 0
M  V30 555 O 52.9676 7.84134 -1.77171 0
M  V30 556 H 52.6996 0.65027 0.184728 0
M  V30 557 H 55.2536 2.05199 -0.0907841 0
M  V30 558 H 53.4836 3.17888 2.20191 0
M  V30 559 H 55.1726 3.53892 1.98784 0
M  V30 560 H 55.9386 4.84846 -0.12227 0
M  V30 561 H 51.8176 4.48883 1.05002 0
M  V30 562 H 55.3616 6.81208 -1.50339 0
M  V30 563 H 51.2586 6.44686 -0.323989 0
M  V30 564 H 52.0266 8.00822 -1.69194 0
M  V30 565 N 54.6897 -0.239769 1.55765 0
M  V30 566 C 55.9367 -0.966801 1.7793 0
M  V30 567 C 56.2647 -1.85046 0.599015 0
M  V30 568 O 55.5197 -1.91197 -0.417395 0
M  V30 569 C 55.8187 -1.852 3.05672 0
M  V30 570 C 55.4847 -1.1231 4.36689 0
M  V30 571 C 54.1467 -0.921689 4.72291 0
M  V30 572 C 56.4987 -0.607019 5.17653 0
M  V30 573 C 53.8267 -0.191996 5.86386 0
M  V30 574 C 56.1787 0.109241 6.32506 0
M  V30 575 C 54.8427 0.322073 6.66723 0
M  V30 576 H 54.1127 -0.353778 0.651093 0
M  V30 577 H 56.7597 -0.23634 1.90036 0
M  V30 578 H 55.0647 -2.64975 2.8861 0
M  V30 579 H 56.7617 -2.41635 3.20021 0
M  V30 580 H 53.3517 -1.29004 4.08725 0
M  V30 581 H 57.5357 -0.750153 4.90598 0
M  V30 582 H 52.7917 -0.0166949 6.11398 0
M  V30 583 H 56.9657 0.516737 6.9448 0
M  V30 584 H 54.5927 0.88944 7.54979 0
M  V30 585 N 56.1678 -1.49265 -0.50573 0
M  V30 586 C 57.4158 -1.582 -1.25766 0
M  V30 587 C 57.7368 -0.268482 -1.93143 0
M  V30 588 O 57.0068 0.711833 -1.8251 0
M  V30 589 H 55.5868 -0.582873 -0.467191 0
M  V30 590 H 58.2488 -1.85865 -0.586525 0
M  V30 591 H 57.3448 -2.37563 -2.02412 0
M  V30 592 N 57.6459 0.756429 -1.3826 0
M  V30 593 C 58.6089 1.85176 -1.35065 0
M  V30 594 C 59.6089 1.58818 -0.251703 0
M  V30 595 O 60.7989 1.66615 -0.508433 0
M  V30 596 C 57.9309 3.22596 -1.10201 0
M  V30 597 H 59.1239 1.89417 -2.3251 0
M  V30 598 H 56.6769 0.95783 -1.23512 0
M  V30 599 H 57.4119 3.24025 -0.133504 0
M  V30 600 H 57.1969 3.43122 -1.89762 0
M  V30 601 H 58.6869 4.02673 -1.10654 0
M  V30 602 N 59.124 1.23083 0.984299 0
M  V30 603 C 60.354 1.08556 1.75781 0
M  V30 604 C 60.762 -0.366171 1.85623 0
M  V30 605 O 60.105 -1.26524 1.33182 0
M  V30 606 C 60.167 1.63208 3.20318 0
M  V30 607 C 59.831 3.11922 3.33997 0
M  V30 608 C 60.828 4.09259 3.2063 0
M  V30 609 C 58.513 3.51552 3.58771 0
M  V30 610 C 60.507 5.4421 3.31835 0
M  V30 611 C 58.194 4.86649 3.69616 0
M  V30 612 C 59.192 5.82787 3.56157 0
M  V30 613 O 58.88 7.15431 3.66626 0
M  V30 614 H 58.612 0.380713 0.5586 0
M  V30 615 H 61.166 1.63321 1.2456 0
M  V30 616 H 59.396 1.0286 3.72769 0
M  V30 617 H 61.085 1.44216 3.79416 0
M  V30 618 H 61.851 3.79984 3.01392 0
M  V30 619 H 57.73 2.77239 3.6832 0
M  V30 620 H 61.274 6.1923 3.21247 0
M  V30 621 H 57.171 5.15601 3.88363 0
M  V30 622 H 57.939 7.23127 3.83445 0
M  V30 623 N 60.6021 -1.18246 1.0419 0
M  V30 624 C 61.8271 -1.92736 0.765996 0
M  V30 625 C 62.2521 -1.75728 -0.67091 0
M  V30 626 O 61.6101 -1.06825 -1.46486 0
M  V30 627 C 61.6581 -3.42148 1.13875 0
M  V30 628 O 60.7621 -4.11548 0.264954 0
M  V30 629 H 60.1031 -0.601238 0.281797 0
M  V30 630 H 62.6331 -1.49942 1.39207 0
M  V30 631 H 62.6431 -3.92858 1.1012 0
M  V30 632 H 61.3181 -3.53848 2.18551 0
M  V30 633 H 59.8951 -3.71137 0.362226 0
M  V30 634 N 62.0802 -0.821533 -1.34494 0
M  V30 635 C 63.3292 -0.405355 -1.97585 0
M  V30 636 C 63.6422 1.03677 -1.65863 0
M  V30 637 O 64.8482 1.55679 -2.22433 0
M  V30 638 C 63.3042 -0.673861 -3.53535 0
M  V30 639 C 62.9122 -2.12951 -3.94152 0
M  V30 640 C 64.6562 -0.32378 -4.23263 0
M  V30 641 C 62.5632 -2.34298 -5.43009 0
M  V30 642 H 61.4932 -0.147836 -0.739365 0
M  V30 643 H 64.1442 -1.00769 -1.53355 0
M  V30 644 H 62.5262 -0.00137554 -3.96 0
M  V30 645 H 63.7002 -2.84104 -3.62797 0
M  V30 646 H 62.0152 -2.44089 -3.37356 0
M  V30 647 H 64.6122 -0.461126 -5.32708 0
M  V30 648 H 64.9552 0.731586 -4.09821 0
M  V30 649 H 65.4882 -0.950786 -3.8627 0
M  V30 650 H 62.2272 -3.38335 -5.61435 0
M  V30 651 H 61.7472 -1.67687 -5.75883 0
M  V30 652 H 63.4262 -2.16588 -6.09671 0
M  V30 653 N 63.5583 1.46682 -0.576371 0
M  V30 654 C 64.8043 2.02712 -0.0596221 0
M  V30 655 C 65.1373 1.44765 1.29448 0
M  V30 656 O 64.4123 0.610355 1.84675 0
M  V30 657 C 64.6953 3.60098 0.0129503 0
M  V30 658 C 64.5483 4.28441 -1.3696 0
M  V30 659 C 65.8673 4.34224 0.71678 0
M  V30 660 H 62.9863 0.736637 -0.0231407 0
M  V30 661 H 65.6283 1.74898 -0.742351 0
M  V30 662 H 63.7783 3.83926 0.594378 0
M  V30 663 H 65.4503 4.15896 -1.9957 0
M  V30 664 H 63.6933 3.8805 -1.93907 0
M  V30 665 H 64.3643 5.3716 -1.27135 0
M  V30 666 H 66.8403 4.15503 0.222908 0
M  V30 667 H 65.7163 5.43936 0.73657 0
M  V30 668 H 65.9773 4.04823 1.77682 0
M  V30 669 N 65.0364 0.313813 1.54444 0
M  V30 670 C 65.9994 -0.54379 2.22656 0
M  V30 671 C 66.9994 -1.05124 1.21678 0
M  V30 672 O 68.1894 -0.945225 1.46325 0
M  V30 673 C 65.3214 -1.75427 2.92298 0
M  V30 674 H 66.5144 0.0523599 2.99854 0
M  V30 675 H 64.0674 0.0647834 1.56166 0
M  V30 676 H 64.8024 -2.38991 2.19211 0
M  V30 677 H 64.5874 -1.39791 3.66334 0
M  V30 678 H 66.0774 -2.36325 3.44297 0
M  V30 679 N 66.5145 -1.57545 0.0417849 0
M  V30 680 C 67.7625 -1.91937 -0.632829 0
M  V30 681 C 68.0835 -0.919978 -1.71934 0
M  V30 682 O 67.3535 0.0366064 -1.95866 0
M  V30 683 H 65.9335 -0.708493 -0.236742 0
M  V30 684 H 68.5955 -1.9468 0.0925745 0
M  V30 685 H 67.6915 -2.92912 -1.07746 0
M  V30 686 N 67.9926 0.231505 -1.5589 0
M  V30 687 C 69.2386 0.95877 -1.78705 0
M  V30 688 C 69.5716 1.8438 -0.609725 0
M  V30 689 O 68.8466 1.90521 0.391426 0
M  V30 690 C 69.1296 1.8062 -3.11526 0
M  V30 691 C 68.9826 0.948328 -4.39689 0
M  V30 692 C 70.3016 2.78585 -3.40703 0
M  V30 693 H 67.4206 0.347129 -0.650131 0
M  V30 694 H 70.0626 0.228259 -1.88624 0
M  V30 695 H 68.2126 2.42902 -3.03201 0
M  V30 696 H 69.8846 0.343016 -4.60023 0
M  V30 697 H 68.1276 0.253314 -4.3306 0
M  V30 698 H 68.7986 1.57543 -5.29041 0
M  V30 699 H 71.2746 2.26439 -3.49091 0
M  V30 700 H 70.1506 3.34988 -4.34826 0
M  V30 701 H 70.4116 3.55825 -2.62375 0
M  V30 702 N 69.4707 1.49531 0.497807 0
M  V30 703 C 70.7177 1.59179 1.25173 0
M  V30 704 C 71.0457 0.279932 1.92475 0
M  V30 705 O 70.3007 -0.732383 1.81479 0
M  V30 706 C 70.5997 2.70252 2.33878 0
M  V30 707 C 70.2657 4.11644 1.84012 0
M  V30 708 C 68.9277 4.50121 1.70132 0
M  V30 709 C 71.2797 5.00121 1.46725 0
M  V30 710 C 68.6077 5.74845 1.17348 0
M  V30 711 C 70.9597 6.25366 0.95392 0
M  V30 712 C 69.6237 6.6267 0.801538 0
M  V30 713 H 68.8937 0.582478 0.45804 0
M  V30 714 H 71.5407 1.83373 0.551948 0
M  V30 715 H 69.8457 2.40041 3.09657 0
M  V30 716 H 71.5427 2.74925 2.9192 0
M  V30 717 H 68.1327 3.81274 1.95775 0
M  V30 718 H 72.3167 4.71048 1.56294 0
M  V30 719 H 67.5727 6.02444 1.04264 0
M  V30 720 H 71.7467 6.93301 0.656225 0
M  V30 721 H 69.3737 7.59197 0.390351 0
M  V30 722 N 70.9488 -0.749086 1.3866 0
M  V30 723 C 72.1948 -1.51056 1.35314 0
M  V30 724 C 72.5278 -1.94121 -0.0553751 0
M  V30 725 O 71.8028 -1.65763 -1.01749 0
M  V30 726 C 72.0858 -2.76003 2.31288 0
M  V30 727 C 71.9388 -2.39047 3.8102 0
M  V30 728 C 73.2578 -3.78046 2.2532 0
M  V30 729 H 70.3768 -0.547972 0.492844 0
M  V30 730 H 73.0188 -0.857628 1.69543 0
M  V30 731 H 71.1688 -3.31716 2.02229 0
M  V30 732 H 72.8408 -1.89074 4.20771 0
M  V30 733 H 71.0838 -1.71449 3.98482 0
M  V30 734 H 71.7548 -3.28462 4.4364 0
M  V30 735 H 74.2308 -3.31884 2.50983 0
M  V30 736 H 73.1068 -4.63159 2.94576 0
M  V30 737 H 73.3678 -4.23957 1.25352 0
M  V30 738 N 72.4269 -1.23603 -0.977757 0
M  V30 739 C 73.6669 -1.08148 -1.73446 0
M  V30 740 C 74.0309 0.374785 -1.88307 0
M  V30 741 O 75.2319 0.650588 -2.60808 0
M  V30 742 C 73.5029 -1.78991 -3.0935 0
M  V30 743 S 75.0619 -1.79141 -4.00567 0
M  V30 744 H 71.8799 -0.386987 -0.596458 0
M  V30 745 H 74.4819 -1.5678 -1.16792 0
M  V30 746 H 73.1859 -2.8408 -2.96187 0
M  V30 747 H 72.7169 -1.30651 -3.71071 0
M  V30 748 H 74.7319 -0.851892 -4.88833 0
M  V30 749 N 73.905 1.17692 -1.04816 0
M  V30 750 C 74.835 2.23777 -0.666791 0
M  V30 751 C 75.816 1.66796 0.33361 0
M  V30 752 O 77.001 1.93039 0.212042 0
M  V30 753 C 74.131 3.47281 -0.0367933 0
M  V30 754 C 73.085 4.17059 -0.961546 0
M  V30 755 C 72.411 5.34342 -0.195626 0
M  V30 756 C 73.711 4.69713 -2.28402 0
M  V30 757 H 75.405 2.55933 -1.55367 0
M  V30 758 H 72.951 1.23019 -0.748484 0
M  V30 759 H 74.904 4.20706 0.241775 0
M  V30 760 H 73.628 3.14381 0.885004 0
M  V30 761 H 72.287 3.45541 -1.22462 0
M  V30 762 H 71.935 4.97692 0.728816 0
M  V30 763 H 71.635 5.81966 -0.811775 0
M  V30 764 H 73.159 6.10553 0.0757473 0
M  V30 765 H 74.573 5.34794 -2.06563 0
M  V30 766 H 72.97 5.279 -2.8538 0
M  V30 767 H 74.04 3.86726 -2.92525 0
M  V30 768 N 75.3831 0.828654 1.34056 0
M  V30 769 C 76.3131 0.269443 2.3194 0
M  V30 770 C 77.2941 -0.617247 1.58506 0
M  V30 771 O 78.4791 -0.542931 1.86456 0
M  V30 772 C 75.6091 -0.564793 3.42677 0
M  V30 773 C 74.5631 0.225241 4.27407 0
M  V30 774 C 73.8891 -0.7321 5.29664 0
M  V30 775 C 75.1891 1.43663 5.02154 0
M  V30 776 H 76.8831 1.08728 2.7896 0
M  V30 777 H 74.4291 0.524283 1.34117 0
M  V30 778 H 76.3821 -0.966233 4.10173 0
M  V30 779 H 75.1061 -1.41574 2.9432 0
M  V30 780 H 73.7651 0.608117 3.61521 0
M  V30 781 H 73.4131 -1.57916 4.77568 0
M  V30 782 H 73.1131 -0.20767 5.87233 0
M  V30 783 H 74.6371 -1.13128 6.00029 0
M  V30 784 H 76.0511 1.1089 5.62473 0
M  V30 785 H 74.4481 1.89711 5.69324 0
M  V30 786 H 75.5181 2.21181 4.31517 0
M  V30 787 N 76.8612 -1.46375 0.584142 0
M  V30 788 C 77.7712 -2.34115 -0.150728 0
M  V30 789 C 78.7872 -1.49838 -0.884567 0
M  V30 790 O 79.9632 -1.82704 -0.847429 0
M  V30 791 C 77.0282 -3.2705 -1.15062 0
M  V30 792 C 76.0892 -4.27228 -0.421293 0
M  V30 793 C 75.3222 -5.15722 -1.37355 0
M  V30 794 O 75.5452 -5.07176 -2.61014 0
M  V30 795 O 74.4792 -5.95383 -0.883355 0
M  V30 796 H 78.3052 -2.98309 0.569708 0
M  V30 797 H 75.8902 -1.45373 0.344535 0
M  V30 798 H 77.7722 -3.84381 -1.72712 0
M  V30 799 H 76.4472 -2.65451 -1.8525 0
M  V30 800 H 75.3542 -3.7358 0.197085 0
M  V30 801 H 76.6872 -4.91616 0.239641 0
M  V30 802 N 78.3393 -0.321999 -1.54275 0
M  V30 803 C 79.5693 0.282642 -2.04658 0
M  V30 804 C 79.9773 1.46453 -1.19784 0
M  V30 805 O 79.3203 1.82367 -0.220932 0
M  V30 806 C 79.3823 0.781857 -3.50895 0
M  V30 807 C 79.0463 -0.277517 -4.56157 0
M  V30 808 C 80.0433 -1.11307 -5.07845 0
M  V30 809 C 77.7283 -0.425256 -5.00497 0
M  V30 810 C 79.7223 -2.08211 -6.02434 0
M  V30 811 C 77.4093 -1.39771 -5.94901 0
M  V30 812 C 78.4073 -2.2246 -6.45756 0
M  V30 813 O 78.0953 -3.18054 -7.38307 0
M  V30 814 H 77.8273 0.0622636 -0.673126 0
M  V30 815 H 80.3813 -0.465792 -2.00049 0
M  V30 816 H 78.6113 1.58118 -3.52896 0
M  V30 817 H 80.3003 1.30467 -3.84361 0
M  V30 818 H 81.0663 -1.00991 -4.74369 0
M  V30 819 H 76.9453 0.20847 -4.60528 0
M  V30 820 H 80.4893 -2.72791 -6.42052 0
M  V30 821 H 76.3863 -1.50152 -6.27794 0
M  V30 822 H 77.1543 -3.13275 -7.56175 0
M  V30 823 N 79.8174 1.5752 -0.0501392 0
M  V30 824 C 81.2284 1.80271 0.485705 0
M  V30 825 C 81.5794 0.96228 1.70981 0
M  V30 826 O 80.7044 0.178578 2.15662 0
M  V30 827 C 81.2994 3.26957 0.887938 0
M  V30 828 C 79.8584 3.5063 1.36877 0
M  V30 829 C 79.0054 2.75165 0.343468 0
M  V30 830 H 81.9564 1.56281 -0.276028 0
M  V30 831 H 81.9774 3.37821 1.75093 0
M  V30 832 H 81.4894 3.881 -0.0031809 0
M  V30 833 H 79.5904 2.94766 2.27911 0
M  V30 834 H 79.7034 4.59343 1.36164 0
M  V30 835 H 78.0674 2.4127 0.816128 0
M  V30 836 H 78.8504 3.39034 -0.539548 0
M  V30 837 N 81.2955 -0.223234 1.56011 0
M  V30 838 C 82.7115 -0.572856 1.48965 0
M  V30 839 C 82.9115 -1.87225 0.74492 0
M  V30 840 O 81.9675 -2.50899 0.283896 0
M  V30 841 C 83.2805 -0.653646 2.9351 0
M  V30 842 C 84.8285 -0.744386 3.0402 0
M  V30 843 C 85.3035 -0.856535 4.49919 0
M  V30 844 N 86.7945 -0.9208 4.53955 0
M  V30 845 C 87.5295 -1.02726 5.64123 0
M  V30 846 N 87.0255 -1.09777 6.84047 0
M  V30 847 N 88.8185 -1.06226 5.51971 0
M  V30 848 H 80.9695 0.629462 2.02858 0
M  V30 849 H 83.2325 0.220621 0.921971 0
M  V30 850 H 82.9385 0.231518 3.50937 0
M  V30 851 H 82.8125 -1.51781 3.45315 0
M  V30 852 H 85.1995 -1.61999 2.46658 0
M  V30 853 H 85.2805 0.14541 2.55386 0
M  V30 854 H 84.9245 0.0146069 5.07898 0
M  V30 855 H 84.8545 -1.76172 4.96257 0
M  V30 856 H 87.3455 -0.876694 3.6759 0
M  V30 857 H 87.6585 -1.17872 7.63758 0
M  V30 858 H 86.0035 -1.06693 6.86762 0
M  V30 859 H 89.1945 -1.00382 4.5721 0
M  V30 860 H 89.3675 -1.14177 6.37862 0
M  V30 861 N 82.7736 -1.49793 -0.48987 0
M  V30 862 C 84.0216 -1.59525 -1.24081 0
M  V30 863 C 84.3426 -0.288953 -1.92847 0
M  V30 864 O 83.6126 0.692436 -1.83254 0
M  V30 865 H 82.1926 -0.587796 -0.460983 0
M  V30 866 H 84.8546 -1.86477 -0.566778 0
M  V30 867 H 83.9506 -2.39696 -1.99881 0
M  V30 868 N 84.2517 0.741722 -1.39055 0
M  V30 869 C 85.1987 1.85566 -1.37237 0
M  V30 870 C 86.1687 1.64457 -0.233072 0
M  V30 871 O 87.3537 1.85957 -0.427147 0
M  V30 872 C 84.4937 3.23004 -1.215 0
M  V30 873 C 83.6067 3.55864 -2.44918 0
M  V30 874 C 82.7417 4.82669 -2.21821 0
M  V30 875 C 81.7807 5.08351 -3.40948 0
M  V30 876 N 80.9177 6.26356 -3.17211 0
M  V30 877 H 85.7577 1.86455 -2.32462 0
M  V30 878 H 83.2947 0.911176 -1.15482 0
M  V30 879 H 85.2527 4.02331 -1.10389 0
M  V30 880 H 83.8827 3.21411 -0.29908 0
M  V30 881 H 82.9347 2.7129 -2.66657 0
M  V30 882 H 84.2467 3.70765 -3.33668 0
M  V30 883 H 83.4007 5.69962 -2.07914 0
M  V30 884 H 82.1397 4.69929 -1.30454 0
M  V30 885 H 81.1447 4.19522 -3.55361 0
M  V30 886 H 82.3697 5.22981 -4.33207 0
M  V30 887 H 80.3157 6.14917 -2.28502 0
M  V30 888 H 80.2327 6.41813 -3.99515 0
M  V30 889 H 81.5007 7.16506 -3.06984 0
M  V30 890 N 85.7298 1.2412 0.971189 0
M  V30 891 C 87.1458 1.00584 1.23916 0
M  V30 892 C 87.3458 -0.287481 1.99439 0
M  V30 893 O 86.4018 -1.00454 2.31658 0
M  V30 894 C 87.7148 2.21864 2.0297 0
M  V30 895 C 89.2628 2.26452 2.16076 0
M  V30 896 C 89.7378 3.47343 2.98524 0
M  V30 897 N 91.2288 3.47639 3.06107 0
M  V30 898 C 91.9638 4.37837 3.70251 0
M  V30 899 N 91.4598 5.38286 4.36142 0
M  V30 900 N 93.2528 4.25558 3.67228 0
M  V30 901 H 85.4038 2.07236 0.465499 0
M  V30 902 H 87.6668 0.909236 0.268315 0
M  V30 903 H 87.3728 3.15771 1.54861 0
M  V30 904 H 87.2468 2.23698 3.03709 0
M  V30 905 H 89.6338 1.33078 2.6339 0
M  V30 906 H 89.7148 2.28645 1.14696 0
M  V30 907 H 89.3588 4.41029 2.51905 0
M  V30 908 H 89.2888 3.42393 4.00093 0
M  V30 909 H 91.7798 2.74966 2.59233 0
M  V30 910 H 92.0928 6.03352 4.82894 0
M  V30 911 H 90.4378 5.42176 4.34822 0
M  V30 912 H 93.6288 3.46322 3.14927 0
M  V30 913 H 93.8018 4.96054 4.16935 0
M  V30 914 N 87.2079 -1.17134 1.05439 0
M  V30 915 C 88.1549 -2.21235 0.657539 0
M  V30 916 C 89.1249 -1.62551 -0.341543 0
M  V30 917 O 90.3099 -1.89379 -0.232393 0
M  V30 918 C 87.4499 -3.45076 0.0410575 0
M  V30 919 C 86.5629 -4.18042 1.08927 0
M  V30 920 C 85.6979 -5.29376 0.439848 0
M  V30 921 C 84.7369 -5.94132 1.4722 0
M  V30 922 N 83.8739 -6.96975 0.846756 0
M  V30 923 H 88.7139 -2.54534 1.54972 0
M  V30 924 H 86.2509 -1.25028 0.775006 0
M  V30 925 H 88.2089 -4.15862 -0.33383 0
M  V30 926 H 86.8389 -3.12353 -0.814568 0
M  V30 927 H 85.8909 -3.45945 1.58196 0
M  V30 928 H 87.2029 -4.62306 1.87282 0
M  V30 929 H 86.3569 -6.06699 0.0115125 0
M  V30 930 H 85.0959 -4.86251 -0.375656 0
M  V30 931 H 84.1009 -5.15538 1.91052 0
M  V30 932 H 85.3259 -6.39337 2.28965 0
M  V30 933 H 83.2719 -6.5598 0.0518075 0
M  V30 934 H 83.1889 -7.39565 1.5678 0
M  V30 935 H 84.4569 -7.78239 0.443277 0
M  V30 936 N 88.686 -0.835752 -1.33615 0
M  V30 937 C 89.633 -0.26473 -2.29277 0
M  V30 938 C 90.603 0.617712 -1.54187 0
M  V30 939 O 91.788 0.556641 -1.825 0
M  V30 940 C 88.928 0.556777 -3.40579 0
M  V30 941 C 88.041 -0.349339 -4.30585 0
M  V30 942 C 87.176 0.482969 -5.29 0
M  V30 943 C 86.215 -0.421732 -6.10645 0
M  V30 944 N 85.352 0.372262 -7.01112 0
M  V30 945 H 90.192 -1.08582 -2.77514 0
M  V30 946 H 87.729 -0.546927 -1.36554 0
M  V30 947 H 89.687 1.04852 -4.03809 0
M  V30 948 H 88.317 1.34286 -2.93542 0
M  V30 949 H 87.369 -0.959372 -3.68104 0
M  V30 950 H 88.681 -1.04445 -4.87742 0
M  V30 951 H 87.835 1.03866 -5.97743 0
M  V30 952 H 86.574 1.21153 -4.72412 0
M  V30 953 H 85.579 -0.989464 -5.40823 0
M  V30 954 H 86.804 -1.14861 -6.69316 0
M  V30 955 H 84.75 1.08426 -6.46977 0
M  V30 956 H 84.667 -0.264198 -7.55538 0
M  V30 957 H 85.935 0.910293 -7.74167 0
M  V30 958 N 90.1641 1.46063 -0.591896 0
M  V30 959 C 91.4121 2.01938 -0.0808391 0
M  V30 960 C 91.7331 1.46475 1.28725 0
M  V30 961 O 91.0031 0.652944 1.84698 0
M  V30 962 H 89.5831 0.746516 -0.0268938 0
M  V30 963 H 92.2451 1.79055 -0.769752 0
M  V30 964 H 91.3411 3.12094 -0.0187578 0
M  V30 965 N 91.6422 0.330177 1.54103 0
M  V30 966 C 92.8672 -0.274893 2.0557 0
M  V30 967 C 93.2922 -1.44487 1.20437 0
M  V30 968 O 92.6502 -1.80021 0.214991 0
M  V30 969 C 92.6982 -0.68079 3.54115 0
M  V30 970 O 91.8022 -1.7824 3.71893 0
M  V30 971 H 91.1432 -0.0483849 0.662235 0
M  V30 972 H 93.6732 0.480508 1.98878 0
M  V30 973 H 93.6832 -0.961635 3.96505 0
M  V30 974 H 92.3582 0.174903 4.15532 0
M  V30 975 H 90.9352 -1.49985 3.41407 0
M  V30 976 N 93.1203 -1.57491 0.0584922 0
M  V30 977 C 94.3483 -1.97296 -0.623037 0
M  V30 978 C 94.7633 -0.936338 -1.63946 0
M  V30 979 O 94.1203 0.0785981 -1.82331 0
M  V30 980 C 94.1713 -3.37183 -1.30345 0
M  V30 981 O 93.8923 -4.36872 -0.32773 0
M  V30 982 C 95.3933 -3.91788 -2.07406 0
M  V30 983 H 92.6133 -0.649153 -0.169826 0
M  V30 984 H 95.1573 -2.04106 0.12696 0
M  V30 985 H 93.3123 -3.31502 -2.00463 0
M  V30 986 H 93.7263 -5.18141 -0.814269 0
M  V30 987 H 95.2003 -4.91926 -2.50425 0
M  V30 988 H 95.6773 -3.27609 -2.92521 0
M  V30 989 H 96.2833 -4.00829 -1.42184 0
M  V30 990 N 94.5984 0.214957 -1.56127 0
M  V30 991 C 95.5314 1.29382 -1.87977 0
M  V30 992 C 96.5094 1.44897 -0.737807 0
M  V30 993 O 97.6934 1.60605 -0.986833 0
M  V30 994 C 94.8204 2.66325 -2.09258 0
M  V30 995 C 93.8664 2.67789 -3.31951 0
M  V30 996 S 94.6994 2.21198 -4.8768 0
M  V30 997 C 95.8554 3.60003 -5.12004 0
M  V30 998 H 96.0884 1.02173 -2.79192 0
M  V30 999 H 93.6214 0.417516 -1.48648 0
M  V30 1000 H 95.5794 3.45162 -2.22201 0
M  V30 1001 H 94.2404 2.90755 -1.18829 0
M  V30 1002 H 93.4334 3.68436 -3.43906 0
M  V30 1003 H 93.0354 1.9702 -3.17898 0
M  V30 1004 H 95.3274 4.55739 -5.01307 0
M  V30 1005 H 96.2704 3.52959 -6.13861 0
M  V30 1006 H 96.6784 3.53996 -4.39712 0
M  V30 1007 N 96.0765 1.50051 0.48192 0
M  V30 1008 C 96.9865 1.7089 1.60728 0
M  V30 1009 C 98.0025 0.591788 1.63627 0
M  V30 1010 O 99.1785 0.868817 1.81696 0
M  V30 1011 C 96.2435 1.78855 2.97005 0
M  V30 1012 C 95.3045 3.02537 3.04581 0
M  V30 1013 C 94.5375 3.10112 4.34357 0
M  V30 1014 O 94.7605 2.24765 5.24249 0
M  V30 1015 O 93.6945 4.02747 4.47301 0
M  V30 1016 H 97.5205 2.66264 1.46072 0
M  V30 1017 H 95.1055 1.34018 0.660264 0
M  V30 1018 H 96.9875 1.86336 3.77964 0
M  V30 1019 H 95.6625 0.866628 3.11883 0
M  V30 1020 H 94.5695 3.00563 2.22739 0
M  V30 1021 H 95.9025 3.94272 2.94636 0
M  V30 1022 N 97.5546 -0.734337 1.39446 0
M  V30 1023 C 98.9706 -1.03997 1.21065 0
M  V30 1024 C 99.1706 -2.01369 0.0727019 0
M  V30 1025 O 98.2266 -2.45856 -0.575426 0
M  V30 1026 C 99.5396 -1.60163 2.54496 0
M  V30 1027 C 101.088 -1.7224 2.61347 0
M  V30 1028 C 101.563 -2.31814 3.95002 0
M  V30 1029 N 103.054 -2.39223 3.96644 0
M  V30 1030 C 103.789 -2.86258 4.96834 0
M  V30 1031 N 103.285 -3.33184 6.07421 0
M  V30 1032 N 105.078 -2.85473 4.84213 0
M  V30 1033 H 97.2286 -0.0885624 2.12215 0
M  V30 1034 H 99.4916 -0.10191 0.942506 0
M  V30 1035 H 99.1976 -0.960811 3.38321 0
M  V30 1036 H 99.0716 -2.5896 2.74262 0
M  V30 1037 H 101.459 -2.35443 1.77906 0
M  V30 1038 H 101.54 -0.720939 2.4543 0
M  V30 1039 H 101.184 -1.69238 4.78875 0
M  V30 1040 H 101.114 -3.32638 4.08239 0
M  V30 1041 H 103.605 -2.06057 3.16779 0
M  V30 1042 H 103.918 -3.67586 6.7978 0
M  V30 1043 H 102.263 -3.31191 6.11013 0
M  V30 1044 H 105.454 -2.48136 3.96921 0
M  V30 1045 H 105.627 -3.21814 5.62441 0
M  V30 1046 N 99.0327 -1.24633 -0.964593 0
M  V30 1047 C 100.279 -1.09957 -1.71117 0
M  V30 1048 C 100.634 0.357422 -1.89051 0
M  V30 1049 O 99.9267 1.26029 -1.44317 0
M  V30 1050 C 100.121 -1.7763 -3.10133 0
M  V30 1051 C 99.9497 -3.29759 -3.05759 0
M  V30 1052 C 98.7197 -3.98981 -3.10068 0
M  V30 1053 C 100.918 -4.26305 -2.87695 0
M  V30 1054 N 98.8997 -5.37966 -2.95747 0
M  V30 1055 C 100.271 -5.52308 -2.81702 0
M  V30 1056 C 102.326 -4.16842 -2.72299 0
M  V30 1057 C 101.029 -6.69931 -2.61887 0
M  V30 1058 C 103.055 -5.34147 -2.53853 0
M  V30 1059 C 102.417 -6.59084 -2.48572 0
M  V30 1060 H 98.5157 -0.457003 -0.634564 0
M  V30 1061 H 101.1 -1.57592 -1.14337 0
M  V30 1062 H 99.2707 -1.32504 -3.65099 0
M  V30 1063 H 101.003 -1.55786 -3.73514 0
M  V30 1064 H 97.7577 -3.50169 -3.18871 0
M  V30 1065 H 98.1817 -6.10877 -2.91818 0
M  V30 1066 H 102.824 -3.21007 -2.75163 0
M  V30 1067 H 100.542 -7.65886 -2.57767 0
M  V30 1068 H 104.128 -5.28678 -2.4288 0
M  V30 1069 H 103.008 -7.48324 -2.34481 0
M  V30 1070 N 100.511 1.16574 -1.06058 0
M  V30 1071 C 101.759 1.86677 -0.77434 0
M  V30 1072 C 102.08 1.81959 0.701147 0
M  V30 1073 O 101.35 1.2515 1.50713 0
M  V30 1074 H 99.9298 0.691134 -0.283449 0
M  V30 1075 H 102.592 1.41378 -1.34158 0
M  V30 1076 H 101.688 2.92181 -1.09711 0
M  V30 1077 N 101.989 0.842826 1.3317 0
M  V30 1078 C 102.921 0.236245 2.27979 0
M  V30 1079 C 103.934 -0.585282 1.51915 0
M  V30 1080 O 105.123 -0.411705 1.73687 0
M  V30 1081 C 102.223 -0.685717 3.3189 0
M  V30 1082 C 101.396 0.0973448 4.37292 0
M  V30 1083 C 100.455 -0.748565 5.20848 0
M  V30 1084 O 99.4809 -0.186339 5.68895 0
M  V30 1085 N 100.683 -2.06527 5.42519 0
M  V30 1086 H 103.448 1.05088 2.80672 0
M  V30 1087 H 101.009 0.701667 1.45905 0
M  V30 1088 H 103.001 -1.25669 3.84694 0
M  V30 1089 H 101.571 -1.40105 2.79445 0
M  V30 1090 H 100.791 0.849706 3.84933 0
M  V30 1091 H 102.079 0.635643 5.04814 0
M  V30 1092 H 101.477 -2.54554 5.05192 0
M  V30 1093 H 100.034 -2.58464 5.98364 0
M  V30 1094 N 103.467 -1.45747 0.599634 0
M  V30 1095 C 104.414 -2.30467 -0.123849 0
M  V30 1096 C 105.384 -1.41632 -0.86774 0
M  V30 1097 O 106.569 -1.70568 -0.855056 0
M  V30 1098 C 103.709 -3.26402 -1.12051 0
M  V30 1099 C 102.822 -4.3034 -0.37832 0
M  V30 1100 C 101.957 -5.13389 -1.364 0
M  V30 1101 C 100.996 -6.09061 -0.609171 0
M  V30 1102 N 100.133 -6.84918 -1.54374 0
M  V30 1103 H 104.973 -2.91802 0.604627 0
M  V30 1104 H 102.51 -1.43797 0.309972 0
M  V30 1105 H 104.468 -3.80482 -1.7114 0
M  V30 1106 H 103.098 -2.66839 -1.8165 0
M  V30 1107 H 102.15 -3.78984 0.327929 0
M  V30 1108 H 103.462 -4.98354 0.210997 0
M  V30 1109 H 102.616 -5.7183 -2.02719 0
M  V30 1110 H 101.355 -4.45376 -1.98725 0
M  V30 1111 H 100.36 -5.49758 0.0676979 0
M  V30 1112 H 101.585 -6.79099 0.00891991 0
M  V30 1113 H 99.531 -6.19601 -2.15478 0
M  V30 1114 H 99.448 -7.49254 -1.00766 0
M  V30 1115 H 100.716 -7.47906 -2.19676 0
M  V30 1116 N 104.945 -0.338344 -1.53925 0
M  V30 1117 C 106.175 0.260919 -2.04946 0
M  V30 1118 C 106.583 1.45174 -1.2133 0
M  V30 1119 O 105.926 1.82122 -0.240262 0
M  V30 1120 C 105.988 0.744596 -3.51704 0
M  V30 1121 C 105.652 -0.325883 -4.55837 0
M  V30 1122 C 106.649 -1.16687 -5.06636 0
M  V30 1123 C 104.334 -0.478317 -5.00017 0
M  V30 1124 C 106.328 -2.14588 -6.00192 0
M  V30 1125 C 104.015 -1.46073 -5.93385 0
M  V30 1126 C 105.013 -2.29297 -6.4336 0
M  V30 1127 O 104.701 -3.25867 -7.34892 0
M  V30 1128 H 104.433 0.0551207 -0.673749 0
M  V30 1129 H 106.987 -0.486984 -1.99544 0
M  V30 1130 H 105.217 1.54366 -3.54553 0
M  V30 1131 H 106.906 1.26383 -3.85723 0
M  V30 1132 H 107.672 -1.06016 -4.73271 0
M  V30 1133 H 103.551 0.159613 -4.60724 0
M  V30 1134 H 107.095 -2.79585 -6.39123 0
M  V30 1135 H 102.992 -1.56802 -6.26166 0
M  V30 1136 H 103.76 -3.21278 -7.5281 0
M  V30 1137 N 106.423 1.57458 -0.0668435 0
M  V30 1138 C 107.356 2.08033 0.93795 0
M  V30 1139 C 108.334 0.984321 1.29421 0
M  V30 1140 O 109.518 1.25736 1.40437 0
M  V30 1141 C 106.645 2.53388 2.24749 0
M  V30 1142 C 105.691 3.74376 2.04315 0
M  V30 1143 S 106.524 5.19303 1.30706 0
M  V30 1144 C 107.68 5.67986 2.62951 0
M  V30 1145 H 107.913 2.92935 0.50759 0
M  V30 1146 H 105.446 1.5371 0.145804 0
M  V30 1147 H 107.404 2.8018 3.00016 0
M  V30 1148 H 106.065 1.68763 2.64911 0
M  V30 1149 H 105.258 4.04083 3.01218 0
M  V30 1150 H 104.86 3.47931 1.37186 0
M  V30 1151 H 107.152 5.74528 3.5906 0
M  V30 1152 H 108.095 6.66955 2.3786 0
M  V30 1153 H 108.503 4.95781 2.69929 0
M  V30 1154 N 107.901 -0.206675 1.56239 0
M  V30 1155 C 109.129 -0.945345 1.8404 0
M  V30 1156 C 109.544 -1.77336 0.647885 0
M  V30 1157 O 108.901 -1.78425 -0.383511 0
M  V30 1158 C 108.952 -1.8509 3.10522 0
M  V30 1159 O 108.673 -1.05634 4.25174 0
M  V30 1160 C 110.174 -2.70222 3.51418 0
M  V30 1161 H 107.394 -0.276372 0.61144 0
M  V30 1162 H 109.938 -0.217417 2.03341 0
M  V30 1163 H 108.093 -2.53259 2.93153 0
M  V30 1164 H 108.507 -1.67238 4.97124 0
M  V30 1165 H 109.981 -3.29438 4.42916 0
M  V30 1166 H 110.458 -3.43358 2.73864 0
M  V30 1167 H 111.064 -2.07443 3.71278 0
M  V30 1168 N 109.379 -1.50304 -0.473955 0
M  V30 1169 C 110.342 -1.6841 -1.55469 0
M  V30 1170 C 111.342 -0.554905 -1.50922 0
M  V30 1171 O 112.532 -0.821882 -1.53593 0
M  V30 1172 C 109.664 -1.70667 -2.95102 0
M  V30 1173 H 110.857 -2.64828 -1.40733 0
M  V30 1174 H 108.41 -1.39742 -0.700132 0
M  V30 1175 H 109.145 -0.75932 -3.15285 0
M  V30 1176 H 108.93 -2.52698 -2.9981 0
M  V30 1177 H 110.42 -1.8664 -3.73571 0
M  V30 1178 N 110.857 0.726932 -1.39834 0
M  V30 1179 C 112.103 1.48884 -1.377 0
M  V30 1180 C 112.436 1.94185 0.0244852 0
M  V30 1181 O 111.711 1.67361 0.990986 0
M  V30 1182 C 111.994 2.72288 -2.3565 0
M  V30 1183 C 111.847 2.32956 -3.84775 0
M  V30 1184 C 113.166 3.74414 -2.31306 0
M  V30 1185 H 110.285 0.540062 -0.5015 0
M  V30 1186 H 112.927 0.830547 -1.70886 0
M  V30 1187 H 111.077 3.28457 -2.07481 0
M  V30 1188 H 112.749 1.82356 -4.23726 0
M  V30 1189 H 110.992 1.65088 -4.01159 0
M  V30 1190 H 111.663 3.21362 -4.4881 0
M  V30 1191 H 114.139 3.27849 -2.56231 0
M  V30 1192 H 113.015 4.58414 -3.01907 0
M  V30 1193 H 113.276 4.21909 -1.32081 0
M  V30 1194 N 112.336 1.25143 0.95797 0
M  V30 1195 C 113.582 1.09855 1.70469 0
M  V30 1196 C 113.915 -0.360187 1.90831 0
M  V30 1197 O 113.19 -1.26568 1.47685 0
M  V30 1198 C 113.473 1.8497 3.08963 0
M  V30 1199 C 113.326 3.38652 2.96032 0
M  V30 1200 C 114.645 1.63016 4.08795 0
M  V30 1201 H 111.764 0.400465 0.618706 0
M  V30 1202 H 114.406 1.53933 1.11376 0
M  V30 1203 H 112.556 1.47505 3.59409 0
M  V30 1204 H 114.228 3.85772 2.52938 0
M  V30 1205 H 112.471 3.66534 2.32025 0
M  V30 1206 H 113.142 3.8642 3.94187 0
M  V30 1207 H 115.618 1.95625 3.67247 0
M  V30 1208 H 114.494 2.18015 5.03747 0
M  V30 1209 H 114.755 0.570692 4.38401 0
M  V30 1210 N 113.814 -1.1601 1.06675 0
M  V30 1211 C 114.761 -2.20525 0.680967 0
M  V30 1212 C 115.731 -1.62904 -0.324283 0
M  V30 1213 O 116.916 -1.89615 -0.212294 0
M  V30 1214 C 114.056 -3.45013 0.0776551 0
M  V30 1215 C 113.169 -4.16863 1.13355 0
M  V30 1216 C 112.304 -5.2888 0.49597 0
M  V30 1217 C 111.343 -5.92537 1.53513 0
M  V30 1218 N 110.48 -6.96038 0.920631 0
M  V30 1219 H 115.32 -2.52876 1.57663 0
M  V30 1220 H 112.857 -1.24199 0.788223 0
M  V30 1221 H 114.815 -4.16193 -0.289704 0
M  V30 1222 H 113.445 -3.132 -0.781393 0
M  V30 1223 H 112.497 -3.44248 1.61857 0
M  V30 1224 H 113.809 -4.60294 1.92174 0
M  V30 1225 H 112.963 -6.06653 0.0758604 0
M  V30 1226 H 111.702 -4.86622 -0.324062 0
M  V30 1227 H 110.707 -5.13482 1.9651 0
M  V30 1228 H 111.932 -6.36873 2.35733 0
M  V30 1229 H 109.878 -6.55888 0.12138 0
M  V30 1230 H 109.795 -7.3786 1.64616 0
M  V30 1231 H 111.063 -7.77725 0.525795 0
M  V30 1232 N 115.292 -0.849877 -1.32721 0
M  V30 1233 C 116.222 -0.306308 -2.31482 0
M  V30 1234 C 117.203 0.591952 -1.59468 0
M  V30 1235 O 118.388 0.513199 -1.87296 0
M  V30 1236 C 115.518 0.510204 -3.43532 0
M  V30 1237 C 114.472 -0.293209 -4.26994 0
M  V30 1238 C 113.798 0.647743 -5.30762 0
M  V30 1239 C 115.098 -1.51634 -4.99804 0
M  V30 1240 H 116.792 -1.13153 -2.77195 0
M  V30 1241 H 114.338 -0.545553 -1.33266 0
M  V30 1242 H 116.291 0.900856 -4.11658 0
M  V30 1243 H 115.015 1.36874 -2.96535 0
M  V30 1244 H 113.674 -0.665555 -3.60508 0
M  V30 1245 H 113.322 1.50299 -4.8002 0
M  V30 1246 H 113.022 0.11422 -5.87489 0
M  V30 1247 H 114.546 1.03567 -6.01753 0
M  V30 1248 H 115.96 -1.19824 -5.60638 0
M  V30 1249 H 114.357 -1.98745 -5.66234 0
M  V30 1250 H 115.427 -2.28018 -4.27943 0
M  V30 1251 N 116.77 1.45427 -0.607355 0
M  V30 1252 C 118.017 2.02241 -0.102455 0
M  V30 1253 C 118.345 1.4758 1.26691 0
M  V30 1254 O 117.6 0.640468 1.84923 0
M  V30 1255 C 117.899 3.57398 -0.0129263 0
M  V30 1256 C 117.565 4.3121 -1.31792 0
M  V30 1257 C 116.227 4.51092 -1.67539 0
M  V30 1258 C 118.579 4.73401 -2.18039 0
M  V30 1259 C 115.907 5.10422 -2.89285 0
M  V30 1260 C 118.259 5.34078 -3.39034 0
M  V30 1261 C 116.923 5.52184 -3.75033 0
M  V30 1262 H 116.193 0.740051 -0.037491 0
M  V30 1263 H 118.84 1.74494 -0.788926 0
M  V30 1264 H 117.145 3.84421 0.756806 0
M  V30 1265 H 118.842 3.99061 0.393881 0
M  V30 1266 H 115.432 4.16047 -1.02968 0
M  V30 1267 H 119.616 4.57774 -1.91721 0
M  V30 1268 H 114.872 5.22629 -3.17283 0
M  V30 1269 H 119.046 5.65724 -4.06115 0
M  V30 1270 H 116.673 5.97925 -4.69457 0
M  V30 1271 N 118.248 0.346503 1.53744 0
M  V30 1272 C 119.496 -0.248612 2.00565 0
M  V30 1273 C 119.817 -1.5083 1.23593 0
M  V30 1274 O 119.087 -1.92858 0.343912 0
M  V30 1275 H 117.667 -0.0948564 0.740953 0
M  V30 1276 H 120.329 0.468341 1.89189 0
M  V30 1277 H 119.425 -0.488994 3.08245 0
M  V30 1278 N 119.726 -1.57421 0.075193 0
M  V30 1279 C 121.137 -1.81021 -0.456964 0
M  V30 1280 C 121.488 -0.98936 -1.69429 0
M  V30 1281 O 120.613 -0.212865 -2.15351 0
M  V30 1282 C 121.208 -3.28329 -0.83581 0
M  V30 1283 C 119.767 -3.52764 -1.31281 0
M  V30 1284 C 118.914 -2.75676 -0.299648 0
M  V30 1285 H 121.865 -1.55822 0.300856 0
M  V30 1286 H 121.886 -3.40564 -1.69696 0
M  V30 1287 H 121.398 -3.88046 0.0649238 0
M  V30 1288 H 119.499 -2.98355 -2.23193 0
M  V30 1289 H 119.612 -4.61451 -1.28839 0
M  V30 1290 H 117.976 -2.42538 -0.777641 0
M  V30 1291 H 118.759 -3.38132 0.593417 0
M  V30 1292 N 121.204 0.198386 -1.56346 0
M  V30 1293 C 122.451 0.919286 -1.80431 0
M  V30 1294 C 122.779 1.83393 -0.647866 0
M  V30 1295 O 122.034 1.92236 0.366556 0
M  V30 1296 C 122.333 1.77031 -3.10475 0
M  V30 1297 C 121.999 1.00693 -4.39513 0
M  V30 1298 C 120.661 0.796145 -4.74568 0
M  V30 1299 C 123.013 0.469559 -5.19081 0
M  V30 1300 C 120.341 0.0364588 -5.86689 0
M  V30 1301 C 122.693 -0.2769 -6.31994 0
M  V30 1302 C 121.357 -0.49873 -6.65634 0
M  V30 1303 H 120.627 0.336391 -0.660244 0
M  V30 1304 H 123.274 0.185872 -1.90596 0
M  V30 1305 H 121.579 2.5723 -2.95533 0
M  V30 1306 H 123.276 2.33065 -3.26315 0
M  V30 1307 H 119.866 1.18122 -4.12001 0
M  V30 1308 H 124.05 0.619816 -4.92414 0
M  V30 1309 H 119.306 -0.145412 -6.11227 0
M  V30 1310 H 123.48 -0.700684 -6.92866 0
M  V30 1311 H 121.107 -1.0893 -7.52355 0
M  V30 1312 N 122.682 1.50554 0.465978 0
M  V30 1313 C 123.91 1.65563 1.24083 0
M  V30 1314 C 124.325 0.341051 1.85694 0
M  V30 1315 O 123.682 -0.677543 1.69457 0
M  V30 1316 C 123.733 2.75051 2.34583 0
M  V30 1317 O 123.454 4.01413 1.75497 0
M  V30 1318 C 124.955 3.01078 3.25372 0
M  V30 1319 H 122.175 0.55638 0.375077 0
M  V30 1320 H 124.719 1.96807 0.555624 0
M  V30 1321 H 122.874 2.46486 2.9887 0
M  V30 1322 H 123.288 4.62002 2.48303 0
M  V30 1323 H 124.762 3.81339 3.99105 0
M  V30 1324 H 125.239 2.12349 3.84453 0
M  V30 1325 H 125.845 3.31194 2.66816 0
M  V30 1326 N 124.16 -0.719506 1.40217 0
M  V30 1327 C 125.576 -1.02707 1.22161 0
M  V30 1328 C 125.776 -2.0128 0.0940557 0
M  V30 1329 O 124.832 -2.46452 -0.549318 0
M  V30 1330 C 126.145 -1.57454 2.56181 0
M  V30 1331 C 127.693 -1.69458 2.63159 0
M  V30 1332 C 128.168 -2.27611 3.97438 0
M  V30 1333 N 129.659 -2.35002 3.99159 0
M  V30 1334 C 130.394 -2.80972 4.99842 0
M  V30 1335 N 129.89 -3.26723 6.10921 0
M  V30 1336 N 131.683 -2.80321 4.87213 0
M  V30 1337 H 123.834 -0.0660492 2.12297 0
M  V30 1338 H 126.097 -0.0919077 0.943534 0
M  V30 1339 H 125.803 -0.924873 3.39321 0
M  V30 1340 H 125.677 -2.56036 2.76993 0
M  V30 1341 H 128.064 -2.33543 1.80393 0
M  V30 1342 H 128.145 -0.694867 2.46181 0
M  V30 1343 H 127.789 -1.6415 4.80643 0
M  V30 1344 H 127.719 -3.2829 4.11744 0
M  V30 1345 H 130.21 -2.02685 3.18947 0
M  V30 1346 H 130.523 -3.60355 6.8364 0
M  V30 1347 H 128.868 -3.24692 6.14492 0
M  V30 1348 H 132.059 -2.43912 3.9953 0
M  V30 1349 H 132.232 -3.15831 5.65822 0
M  V30 1350 N 125.638 -1.25649 -0.95132 0
M  V30 1351 C 126.586 -1.06118 -2.06982 0
M  V30 1352 C 127.58 0.00889169 -1.69398 0
M  V30 1353 O 128.786 -0.146988 -1.79399 0
M  V30 1354 H 125.161 -0.326248 -0.677544 0
M  V30 1355 H 127.132 -2.00932 -2.2061 0
M  V30 1356 C 125.881 -0.700145 -3.40578 0
M  V30 1357 H 125.204 -1.51537 -3.69968 0
M  V30 1358 H 126.644 -0.603211 -4.19687 0
M  V30 1359 C 125.103 0.59403 -3.31622 0
M  V30 1360 O 125.633 1.63522 -3.66911 0
M  V30 1361 N 123.839 0.58089 -2.84735 0
M  V30 1362 H 123.386 -0.266783 -2.56215 0
M  V30 1363 H 123.344 1.44695 -2.79125 0
M  V30 1364 N 127.117 1.15442 -1.07289 0
M  V30 1365 C 128.347 1.89821 -0.815576 0
M  V30 1366 C 128.755 1.7823 0.634867 0
M  V30 1367 O 128.098 1.13152 1.44715 0
M  V30 1368 C 128.16 3.40817 -1.14385 0
M  V30 1369 C 127.824 3.76193 -2.59476 0
M  V30 1370 C 128.821 3.77269 -3.57721 0
M  V30 1371 C 126.506 4.0652 -2.95037 0
M  V30 1372 C 128.5 4.08176 -4.89562 0
M  V30 1373 C 126.187 4.37092 -4.27076 0
M  V30 1374 C 127.185 4.37902 -5.24148 0
M  V30 1375 O 126.873 4.67741 -6.53815 0
M  V30 1376 H 126.605 0.608465 -0.294528 0
M  V30 1377 H 129.159 1.472 -1.43252 0
M  V30 1378 H 127.389 3.83835 -0.469865 0
M  V30 1379 H 129.078 3.96485 -0.869179 0
M  V30 1380 H 129.844 3.5394 -3.3159 0
M  V30 1381 H 125.723 4.05049 -2.20128 0
M  V30 1382 H 129.267 4.08723 -5.65324 0
M  V30 1383 H 125.164 4.59889 -4.5296 0
M  V30 1384 H 125.932 4.85509 -6.58957 0
M  V30 1385 N 128.595 0.856903 1.32268 0
M  V30 1386 C 129.825 0.47475 2.01071 0
M  V30 1387 C 130.233 -0.933746 1.64553 0
M  V30 1388 O 129.576 -1.62114 0.863989 0
M  V30 1389 C 129.638 0.536746 3.55471 0
M  V30 1390 C 129.302 1.90453 4.15423 0
M  V30 1391 C 130.299 2.87029 4.33486 0
M  V30 1392 C 127.984 2.20229 4.51447 0
M  V30 1393 C 129.978 4.11532 4.86744 0
M  V30 1394 C 127.665 3.44984 5.0441 0
M  V30 1395 C 128.663 4.40452 5.22007 0
M  V30 1396 O 128.351 5.62998 5.73837 0
M  V30 1397 H 128.083 0.184778 0.650256 0
M  V30 1398 H 130.637 1.15615 1.69771 0
M  V30 1399 H 128.867 -0.20152 3.86175 0
M  V30 1400 H 130.556 0.169875 4.05544 0
M  V30 1401 H 131.322 2.6533 4.05986 0
M  V30 1402 H 127.201 1.46705 4.37034 0
M  V30 1403 H 130.745 4.86056 5.00395 0
M  V30 1404 H 126.642 3.66532 5.31342 0
M  V30 1405 H 127.41 5.64987 5.92226 0
M  V30 1406 N 130.073 -1.45103 0.615059 0
M  V30 1407 C 131.319 -2.02483 0.113347 0
M  V30 1408 C 131.652 -1.48146 -1.25564 0
M  V30 1409 O 130.927 -0.659104 -1.82992 0
M  V30 1410 C 131.21 -3.60005 0.0825278 0
M  V30 1411 C 131.063 -4.2466 1.48271 0
M  V30 1412 C 132.382 -4.35972 -0.601401 0
M  V30 1413 H 129.501 -0.735764 0.0426632 0
M  V30 1414 H 132.143 -1.72868 0.788461 0
M  V30 1415 H 130.293 -3.85367 -0.492378 0
M  V30 1416 H 131.965 -4.10458 2.10527 0
M  V30 1417 H 130.208 -3.82772 2.04127 0
M  V30 1418 H 130.879 -5.336 1.41332 0
M  V30 1419 H 133.355 -4.15947 -0.112666 0
M  V30 1420 H 132.231 -5.45697 -0.592097 0
M  V30 1421 H 132.492 -4.09391 -1.66887 0
M  V30 1422 N 131.551 -0.354651 -1.53558 0
M  V30 1423 C 132.967 -0.00315426 -1.596 0
M  V30 1424 C 133.167 1.47741 -1.37021 0
M  V30 1425 O 132.223 2.23759 -1.16996 0
M  V30 1426 C 133.536 -0.44929 -2.97325 0
M  V30 1427 C 135.084 -0.402578 -3.104 0
M  V30 1428 C 135.559 -0.824355 -4.5052 0
M  V30 1429 N 137.05 -0.778979 -4.56603 0
M  V30 1430 C 137.785 -1.07715 -5.63192 0
M  V30 1431 N 137.281 -1.44405 -6.77583 0
M  V30 1432 N 139.074 -1.00066 -5.53121 0
M  V30 1433 H 131.225 -1.31893 -1.66487 0
M  V30 1434 H 133.488 -0.538388 -0.780284 0
M  V30 1435 H 133.194 -1.48202 -3.1895 0
M  V30 1436 H 133.068 0.169772 -3.76818 0
M  V30 1437 H 135.455 0.621004 -2.88492 0
M  V30 1438 H 135.536 -1.05699 -2.32941 0
M  V30 1439 H 135.18 -1.846 -4.73165 0
M  V30 1440 H 135.11 -0.147304 -5.26394 0
M  V30 1441 H 137.601 -0.508528 -3.74463 0
M  V30 1442 H 137.914 -1.65612 -7.54846 0
M  V30 1443 H 136.259 -1.4826 -6.79002 0
M  V30 1444 H 139.45 -0.713293 -4.62633 0
M  V30 1445 H 139.623 -1.23638 -6.36096 0
M  V30 1446 N 133.029 1.57378 -0.0835403 0
M  V30 1447 C 133.992 2.12252 0.864959 0
M  V30 1448 C 134.992 1.04916 1.21858 0
M  V30 1449 O 136.182 1.30853 1.14991 0
M  V30 1450 C 133.314 2.63358 2.16461 0
M  V30 1451 H 134.507 2.97371 0.388676 0
M  V30 1452 H 132.06 1.55423 0.165317 0
M  V30 1453 H 132.795 1.81727 2.686 0
M  V30 1454 H 132.58 3.41826 1.92087 0
M  V30 1455 H 134.07 3.05847 2.84337 0
M  V30 1456 N 134.507 -0.190092 1.56449 0
M  V30 1457 C 135.753 -0.911052 1.81184 0
M  V30 1458 C 136.086 -1.82699 0.658396 0
M  V30 1459 O 135.361 -1.91491 -0.340775 0
M  V30 1460 C 135.644 -1.72297 3.16205 0
M  V30 1461 C 135.497 -0.831419 4.42049 0
M  V30 1462 C 136.816 -2.69454 3.47969 0
M  V30 1463 H 133.935 -0.32977 0.659106 0
M  V30 1464 H 136.577 -0.178169 1.89163 0
M  V30 1465 H 134.727 -2.34778 3.09534 0
M  V30 1466 H 136.399 -0.220929 4.60771 0
M  V30 1467 H 134.642 -0.138406 4.33579 0
M  V30 1468 H 135.313 -1.43461 5.33032 0
M  V30 1469 H 137.789 -2.17104 3.54972 0
M  V30 1470 H 136.665 -3.23342 4.43555 0
M  V30 1471 H 136.926 -3.48744 2.71717 0
M  V30 1472 N 135.985 -1.50799 -0.457987 0
M  V30 1473 C 136.915 -1.73553 -1.5621 0
M  V30 1474 C 137.896 -0.584774 -1.59732 0
M  V30 1475 O 139.081 -0.825314 -1.7579 0
M  V30 1476 C 136.211 -1.84169 -2.94447 0
M  V30 1477 C 135.165 -2.99461 -3.0579 0
M  V30 1478 C 134.491 -2.95235 -4.45803 0
M  V30 1479 C 135.791 -4.39766 -2.81786 0
M  V30 1480 H 137.485 -2.66 -1.37421 0
M  V30 1481 H 135.031 -1.28002 -0.659662 0
M  V30 1482 H 136.984 -1.98672 -3.71628 0
M  V30 1483 H 135.708 -0.883545 -3.14422 0
M  V30 1484 H 134.367 -2.8463 -2.31044 0
M  V30 1485 H 134.015 -1.97239 -4.62715 0
M  V30 1486 H 133.715 -3.72642 -4.54326 0
M  V30 1487 H 135.239 -3.11803 -5.24987 0
M  V30 1488 H 136.653 -4.55054 -3.4871 0
M  V30 1489 H 135.05 -5.18722 -3.0174 0
M  V30 1490 H 136.12 -4.51229 -1.7754 0
M  V30 1491 N 137.463 0.71206 -1.40597 0
M  V30 1492 C 138.413 1.81783 -1.37619 0
M  V30 1493 C 139.397 1.58896 -0.253162 0
M  V30 1494 O 140.589 1.70009 -0.492547 0
M  V30 1495 C 137.718 3.19944 -1.24462 0
M  V30 1496 C 136.804 3.48582 -2.4156 0
M  V30 1497 N 137.195 3.48016 -3.67041 0
M  V30 1498 C 135.493 3.79056 -2.35016 0
M  V30 1499 C 136.194 3.75096 -4.44609 0
M  V30 1500 N 135.17 3.94022 -3.74497 0
M  V30 1501 H 138.972 1.79683 -2.32575 0
M  V30 1502 H 136.486 0.91134 -1.34419 0
M  V30 1503 H 138.483 3.99133 -1.20411 0
M  V30 1504 H 137.143 3.23267 -0.304762 0
M  V30 1505 H 138.154 3.28782 -4.00153 0
M  V30 1506 H 134.831 3.89848 -1.49415 0
M  V30 1507 H 136.221 3.80934 -5.53479 0
M  V30 1508 N 138.941 1.26152 0.944643 0
M  V30 1509 C 139.871 1.09902 2.06019 0
M  V30 1510 C 140.852 0.00519538 1.70099 0
M  V30 1511 O 142.037 0.176583 1.93396 0
M  V30 1512 C 139.167 0.727562 3.39594 0
M  V30 1513 C 138.121 1.77274 3.89561 0
M  V30 1514 C 137.447 1.25569 5.19747 0
M  V30 1515 C 138.747 3.17357 4.14827 0
M  V30 1516 H 140.441 2.03217 2.19871 0
M  V30 1517 H 137.987 0.978452 1.05652 0
M  V30 1518 H 139.94 0.600777 4.17095 0
M  V30 1519 H 138.664 -0.241287 3.25707 0
M  V30 1520 H 137.323 1.88814 3.14237 0
M  V30 1521 H 136.971 0.276783 5.02238 0
M  V30 1522 H 136.671 1.95433 5.54148 0
M  V30 1523 H 138.195 1.1415 5.99835 0
M  V30 1524 H 139.609 3.08914 4.82954 0
M  V30 1525 H 138.006 3.84781 4.60504 0
M  V30 1526 H 139.076 3.63673 3.20734 0
M  V30 1527 N 140.419 -1.14872 1.07899 0
M  V30 1528 C 141.349 -2.2193 0.725887 0
M  V30 1529 C 142.33 -1.67622 -0.28927 0
M  V30 1530 O 143.515 -1.93533 -0.160787 0
M  V30 1531 C 140.645 -3.47061 0.128856 0
M  V30 1532 C 139.599 -4.14363 1.07178 0
M  V30 1533 C 138.925 -5.33636 0.337229 0
M  V30 1534 C 140.225 -4.63492 2.40775 0
M  V30 1535 H 141.919 -2.51724 1.62097 0
M  V30 1536 H 139.465 -1.20991 0.780838 0
M  V30 1537 H 141.418 -4.21199 -0.130147 0
M  V30 1538 H 140.142 -3.16617 -0.80134 0
M  V30 1539 H 138.801 -3.42173 1.3158 0
M  V30 1540 H 138.449 -4.99449 -0.596606 0
M  V30 1541 H 138.149 -5.79609 0.965788 0
M  V30 1542 H 139.673 -6.10539 0.0861567 0
M  V30 1543 H 141.087 -5.2913 2.20669 0
M  V30 1544 H 139.484 -5.20148 2.99276 0
M  V30 1545 H 140.554 -3.78834 3.02676 0
M  V30 1546 N 141.898 -0.863906 -1.31812 0
M  V30 1547 C 142.828 -0.330843 -2.31144 0
M  V30 1548 C 143.809 0.575005 -1.60087 0
M  V30 1549 O 144.994 0.493304 -1.8783 0
M  V30 1550 C 142.124 0.47374 -3.44054 0
M  V30 1551 C 141.078 -0.338481 -4.26659 0
M  V30 1552 C 140.404 0.591412 -5.31419 0
M  V30 1553 C 141.704 -1.56926 -4.98168 0
M  V30 1554 H 143.398 -1.16086 -2.75979 0
M  V30 1555 H 140.944 -0.559657 -1.32679 0
M  V30 1556 H 142.897 0.857143 -4.12591 0
M  V30 1557 H 141.621 1.33721 -2.9797 0
M  V30 1558 H 140.28 -0.703754 -3.59782 0
M  V30 1559 H 139.928 1.45199 -4.81587 0
M  V30 1560 H 139.628 0.0519022 -5.87577 0
M  V30 1561 H 141.152 0.97179 -6.02817 0
M  V30 1562 H 142.566 -1.25764 -5.59336 0
M  V30 1563 H 140.963 -2.04739 -5.64094 0
M  V30 1564 H 142.033 -2.32544 -4.25501 0
M  V30 1565 N 143.376 1.44774 -0.622745 0
M  V30 1566 C 144.601 2.06999 -0.128968 0
M  V30 1567 C 145.026 1.4617 1.1839 0
M  V30 1568 O 144.384 0.560007 1.72434 0
M  V30 1569 C 144.432 3.60595 -0.0188351 0
M  V30 1570 O 143.536 3.99398 1.02739 0
M  V30 1571 H 142.877 0.659047 -0.0809544 0
M  V30 1572 H 145.407 1.85784 -0.85705 0
M  V30 1573 H 145.417 4.07627 0.174476 0
M  V30 1574 H 144.092 4.04252 -0.977384 0
M  V30 1575 H 142.669 3.64011 0.809326 0
M  V30 1576 N 144.854 0.36279 1.53368 0
M  V30 1577 C 146.1 -0.228113 2.01513 0
M  V30 1578 C 146.433 -1.48648 1.2497 0
M  V30 1579 O 145.708 -1.91459 0.342616 0
M  V30 1580 C 145.991 -0.522884 3.56284 0
M  V30 1581 C 145.844 0.74892 4.43521 0
M  V30 1582 C 147.163 -1.32461 4.19693 0
M  V30 1583 H 144.282 -0.0814343 0.732487 0
M  V30 1584 H 146.924 0.48713 1.83649 0
M  V30 1585 H 145.074 -1.1322 3.71636 0
M  V30 1586 H 146.746 1.38648 4.39971 0
M  V30 1587 H 144.989 1.36986 4.11603 0
M  V30 1588 H 145.66 0.497667 5.49752 0
M  V30 1589 H 148.136 -0.809203 4.08156 0
M  V30 1590 H 147.012 -1.49961 5.28018 0
M  V30 1591 H 147.273 -2.33232 3.75573 0
M  V30 1592 N 146.332 -1.57332 0.0918853 0
M  V30 1593 C 147.743 -1.81496 -0.437739 0
M  V30 1594 C 148.094 -1.00727 -1.6837 0
M  V30 1595 O 147.219 -0.235694 -2.15113 0
M  V30 1596 C 147.814 -3.29197 -0.800939 0
M  V30 1597 C 146.373 -3.54136 -1.27532 0
M  V30 1598 C 145.52 -2.75979 -0.270392 0
M  V30 1599 H 148.471 -1.55494 0.317366 0
M  V30 1600 H 148.492 -3.42344 -1.66074 0
M  V30 1601 H 148.004 -3.87955 0.106078 0
M  V30 1602 H 146.105 -3.00705 -2.20016 0
M  V30 1603 H 146.218 -4.62792 -1.23938 0
M  V30 1604 H 144.582 -2.43349 -0.751872 0
M  V30 1605 H 145.365 -3.37484 0.629248 0
M  V30 1606 N 147.81 0.181792 -1.56548 0
M  V30 1607 C 148.773 1.20894 -1.94724 0
M  V30 1608 C 149.773 1.37738 -0.829747 0
M  V30 1609 O 150.963 1.35323 -1.09697 0
M  V30 1610 C 148.095 2.57593 -2.23291 0
M  V30 1611 H 149.288 0.882275 -2.86629 0
M  V30 1612 H 146.841 0.423838 -1.50444 0
M  V30 1613 H 147.576 2.95291 -1.34067 0
M  V30 1614 H 147.361 2.46735 -3.04736 0
M  V30 1615 H 148.851 3.31637 -2.53785 0
M  V30 1616 N 149.288 1.51039 0.449983 0
M  V30 1617 C 150.536 1.62759 1.19808 0
M  V30 1618 C 150.857 0.339981 1.92013 0
M  V30 1619 O 150.127 -0.643606 1.85026 0
M  V30 1620 H 148.707 0.599811 0.445237 0
M  V30 1621 H 151.369 1.87914 0.517138 0
M  V30 1622 H 150.465 2.44911 1.93455 0
M  V30 1623 N 150.766 -0.704594 1.40972 0
M  V30 1624 C 152.013 -1.46458 1.39844 0
M  V30 1625 C 152.341 -1.94499 0.00447594 0
M  V30 1626 O 151.596 -1.69275 -0.982057 0
M  V30 1627 C 151.895 -2.698 2.34399 0
M  V30 1628 C 151.561 -2.40464 3.81429 0
M  V30 1629 C 150.223 -2.32174 4.21484 0
M  V30 1630 C 152.575 -2.16086 4.74296 0
M  V30 1631 C 149.903 -1.97589 5.52427 0
M  V30 1632 C 152.255 -1.83011 6.05549 0
M  V30 1633 C 150.919 -1.7321 6.44635 0
M  V30 1634 H 150.189 -0.535927 0.511725 0
M  V30 1635 H 152.836 -0.806124 1.73706 0
M  V30 1636 H 151.141 -3.40536 1.93759 0
M  V30 1637 H 152.838 -3.27919 2.30804 0
M  V30 1638 H 149.428 -2.47808 3.49699 0
M  V30 1639 H 153.612 -2.2144 4.4416 0
M  V30 1640 H 148.868 -1.88547 5.81601 0
M  V30 1641 H 153.042 -1.63164 6.77016 0
M  V30 1642 H 150.669 -1.46179 7.46013 0
M  V30 1643 N 152.244 -1.26651 -0.937939 0
M  V30 1644 C 153.174 -1.10993 -2.05433 0
M  V30 1645 C 154.155 -0.0142161 -1.70094 0
M  V30 1646 O 155.34 -0.186837 -1.93299 0
M  V30 1647 C 152.47 -0.745561 -3.39203 0
M  V30 1648 C 151.424 -1.79337 -3.88616 0
M  V30 1649 C 150.75 -1.28324 -5.19073 0
M  V30 1650 C 152.05 -3.19553 -4.13138 0
M  V30 1651 H 153.744 -2.0438 -2.1879 0
M  V30 1652 H 151.29 -0.984041 -1.05131 0
M  V30 1653 H 153.243 -0.622888 -4.16771 0
M  V30 1654 H 151.967 0.22401 -3.25831 0
M  V30 1655 H 150.626 -1.90477 -3.13231 0
M  V30 1656 H 150.274 -0.303414 -5.02084 0
M  V30 1657 H 149.974 -1.98369 -5.53103 0
M  V30 1658 H 151.498 -1.1733 -5.99221 0
M  V30 1659 H 152.912 -3.11471 -4.81309 0
M  V30 1660 H 151.309 -3.87218 -4.58457 0
M  V30 1661 H 152.379 -3.65368 -3.18801 0
M  V30 1662 N 153.722 1.14298 -1.08507 0
M  V30 1663 C 154.652 2.21542 -0.737646 0
M  V30 1664 C 155.633 1.67773 0.280377 0
M  V30 1665 O 156.818 1.93616 0.150521 0
M  V30 1666 C 153.948 3.46988 -0.147259 0
M  V30 1667 C 152.902 4.13789 -1.09374 0
M  V30 1668 C 152.228 5.33449 -0.365524 0
M  V30 1669 C 153.528 4.62208 -2.4323 0
M  V30 1670 H 155.222 2.5086 -1.6343 0
M  V30 1671 H 152.768 1.20576 -0.787243 0
M  V30 1672 H 154.721 4.21262 0.107808 0
M  V30 1673 H 153.445 3.17037 0.784538 0
M  V30 1674 H 152.104 3.4147 -1.33393 0
M  V30 1675 H 151.752 4.99759 0.57011 0
M  V30 1676 H 151.452 5.79088 -0.996512 0
M  V30 1677 H 152.976 6.10485 -0.118534 0
M  V30 1678 H 154.39 5.27952 -2.23472 0
M  V30 1679 H 152.787 5.18553 -3.02031 0
M  V30 1680 H 153.857 3.77224 -3.04681 0
M  V30 1681 N 155.201 0.870884 1.31352 0
M  V30 1682 C 156.164 0.332243 2.26779 0
M  V30 1683 C 157.164 -0.517302 1.52252 0
M  V30 1684 O 158.354 -0.326477 1.71113 0
M  V30 1685 C 155.486 -0.528066 3.36785 0
M  V30 1686 H 156.679 1.17469 2.75937 0
M  V30 1687 H 154.232 0.64655 1.423 0
M  V30 1688 H 154.967 -1.39167 2.92922 0
M  V30 1689 H 154.752 0.0802582 3.92018 0
M  V30 1690 H 156.242 -0.897179 4.07849 0
M  V30 1691 N 156.679 -1.44442 0.630414 0
M  V30 1692 C 157.907 -2.06414 0.141671 0
M  V30 1693 C 158.322 -1.47105 -1.18345 0
M  V30 1694 O 157.679 -0.593662 -1.72574 0
M  V30 1695 C 157.73 -3.61494 0.0199784 0
M  V30 1696 O 157.451 -4.18594 1.29269 0
M  V30 1697 C 158.952 -4.40499 -0.497544 0
M  V30 1698 H 156.172 -0.666292 0.0793452 0
M  V30 1699 H 158.716 -1.85323 0.864614 0
M  V30 1700 H 156.871 -3.8185 -0.653402 0
M  V30 1701 H 157.285 -5.12026 1.13707 0
M  V30 1702 H 158.759 -5.49433 -0.531708 0
M  V30 1703 H 159.236 -4.11895 -1.52445 0
M  V30 1704 H 159.842 -4.25061 0.142562 0
M  V30 1705 N 158.157 -0.370918 -1.53173 0
M  V30 1706 C 159.406 0.218249 -2.00516 0
M  V30 1707 C 159.719 1.49429 -1.26215 0
M  V30 1708 O 160.925 2.16239 -1.64174 0
M  V30 1709 C 159.381 0.43948 -3.57207 0
M  V30 1710 C 158.989 -0.822244 -4.4039 0
M  V30 1711 C 160.733 0.986012 -4.1289 0
M  V30 1712 C 158.64 -0.570304 -5.88644 0
M  V30 1713 H 157.57 0.0853333 -0.749156 0
M  V30 1714 H 160.221 -0.490483 -1.76823 0
M  V30 1715 H 158.603 1.20961 -3.77074 0
M  V30 1716 H 159.777 -1.59557 -4.32294 0
M  V30 1717 H 158.092 -1.29238 -3.95836 0
M  V30 1718 H 160.689 1.18991 -5.21292 0
M  V30 1719 H 161.032 1.94972 -3.6782 0
M  V30 1720 H 161.565 0.27592 -3.96842 0
M  V30 1721 H 158.304 -1.50449 -6.38001 0
M  V30 1722 H 157.824 0.164427 -5.99575 0
M  V30 1723 H 159.503 -0.19784 -6.46697 0
M  V30 1724 N 159.635 1.57281 -0.100228 0
M  V30 1725 C 160.565 2.17328 0.853857 0
M  V30 1726 C 161.546 1.10804 1.2906 0
M  V30 1727 O 162.731 1.38963 1.35657 0
M  V30 1728 C 159.861 2.75772 2.11109 0
M  V30 1729 C 158.815 3.87713 1.81279 0
M  V30 1730 C 158.141 4.32882 3.13874 0
M  V30 1731 C 159.441 5.10677 1.09574 0
M  V30 1732 H 161.135 2.97305 0.353545 0
M  V30 1733 H 158.681 1.43009 0.168612 0
M  V30 1734 H 160.634 3.16433 2.78296 0
M  V30 1735 H 159.358 1.93057 2.63432 0
M  V30 1736 H 158.017 3.476 1.16489 0
M  V30 1737 H 157.665 3.47051 3.64095 0
M  V30 1738 H 157.365 5.08358 2.94696 0
M  V30 1739 H 158.889 4.7618 3.82211 0
M  V30 1740 H 160.303 5.48474 1.66879 0
M  V30 1741 H 158.7 5.91615 1.00557 0
M  V30 1742 H 159.77 4.84835 0.0793299 0
M  V30 1743 N 161.113 -0.173488 1.56642 0
M  V30 1744 C 162.361 -0.888706 1.81512 0
M  V30 1745 C 162.682 -1.82875 0.676872 0
M  V30 1746 O 161.952 -1.93536 -0.303414 0
M  V30 1747 H 160.532 -0.331164 0.669582 0
M  V30 1748 H 163.194 -0.173823 1.94123 0
M  V30 1749 H 162.29 -1.46691 2.75478 0
M  V30 1750 N 162.591 -1.51276 -0.441967 0
M  V30 1751 C 163.819 -1.67516 -1.21434 0
M  V30 1752 C 164.234 -0.37055 -1.85128 0
M  V30 1753 O 163.591 0.650498 -1.70513 0
M  V30 1754 C 163.642 -2.78748 -2.30177 0
M  V30 1755 O 163.363 -4.04154 -1.69089 0
M  V30 1756 C 164.864 -3.06217 -3.20541 0
M  V30 1757 H 162.084 -0.562276 -0.366178 0
M  V30 1758 H 164.628 -1.97666 -0.524244 0
M  V30 1759 H 162.783 -2.5121 -2.94911 0
M  V30 1760 H 163.197 -4.65894 -2.40922 0
M  V30 1761 H 164.671 -3.8764 -3.92987 0
M  V30 1762 H 165.148 -2.18439 -3.81026 0
M  V30 1763 H 165.754 -3.35397 -2.61513 0
M  V30 1764 N 164.069 0.697108 -1.41344 0
M  V30 1765 C 165.032 1.79281 -1.42797 0
M  V30 1766 C 166.032 1.57607 -0.318837 0
M  V30 1767 O 167.222 1.64309 -0.578642 0
M  V30 1768 C 164.354 3.17632 -1.23785 0
M  V30 1769 H 165.547 1.79385 -2.40335 0
M  V30 1770 H 163.1 0.904582 -1.27464 0
M  V30 1771 H 163.835 3.23167 -0.270814 0
M  V30 1772 H 163.62 3.34765 -2.04144 0
M  V30 1773 H 165.11 3.97617 -1.27633 0
M  V30 1774 N 165.547 1.27147 0.931209 0
M  V30 1775 C 166.787 1.14511 1.69312 0
M  V30 1776 C 167.151 -0.304638 1.89568 0
M  V30 1777 O 168.352 -0.553343 2.63043 0
M  V30 1778 C 166.623 1.90349 3.02493 0
M  V30 1779 S 168.182 1.93884 3.93642 0
M  V30 1780 H 165 0.408858 0.581684 0
M  V30 1781 H 167.602 1.61006 1.10893 0
M  V30 1782 H 166.306 2.94877 2.85439 0
M  V30 1783 H 165.837 1.44333 3.65966 0
M  V30 1784 H 167.852 1.03273 4.85334 0
M  V30 1785 N 167.025 -1.13721 1.09112 0
M  V30 1786 C 167.955 -2.21148 0.749385 0
M  V30 1787 C 168.936 -1.6792 -0.271475 0
M  V30 1788 O 170.121 -1.93693 -0.140251 0
M  V30 1789 C 167.251 -3.46905 0.165659 0
M  V30 1790 C 166.205 -4.13203 1.11567 0
M  V30 1791 C 165.531 -5.33248 0.393809 0
M  V30 1792 C 166.831 -4.60912 2.45678 0
M  V30 1793 H 168.525 -2.4999 1.64758 0
M  V30 1794 H 166.071 -1.20156 0.793626 0
M  V30 1795 H 168.024 -4.21313 -0.085466 0
M  V30 1796 H 166.748 -3.17449 -0.767714 0
M  V30 1797 H 165.407 -3.40758 1.35202 0
M  V30 1798 H 165.055 -5.00054 -0.543599 0
M  V30 1799 H 164.755 -5.78552 1.02721 0
M  V30 1800 H 166.279 -6.10413 0.150908 0
M  V30 1801 H 167.693 -5.26759 2.26269 0
M  V30 1802 H 166.09 -5.16944 3.04776 0
M  V30 1803 H 167.16 -3.75603 3.06677 0
M  V30 1804 N 168.503 -0.877838 -1.30888 0
M  V30 1805 C 169.466 -0.344265 -2.266 0
M  V30 1806 C 170.466 0.50922 -1.52524 0
M  V30 1807 O 171.656 0.317398 -1.71284 0
M  V30 1808 C 168.788 0.510198 -3.37061 0
M  V30 1809 H 169.981 -1.1893 -2.7531 0
M  V30 1810 H 167.534 -0.654088 -1.41956 0
M  V30 1811 H 168.269 1.37612 -2.93655 0
M  V30 1812 H 168.054 -0.101047 -3.9197 0
M  V30 1813 H 169.544 0.875537 -4.08319 0
M  V30 1814 N 169.982 1.44106 -0.638065 0
M  V30 1815 C 171.231 2.01194 -0.142744 0
M  V30 1816 C 171.544 1.50835 1.24532 0
M  V30 1817 O 172.75 2.00096 1.83504 0
M  V30 1818 C 171.206 3.59319 -0.20442 0
M  V30 1819 C 170.814 4.18674 -1.59423 0
M  V30 1820 C 172.558 4.23854 0.234079 0
M  V30 1821 C 170.465 5.69045 -1.61065 0
M  V30 1822 H 169.395 0.752367 -0.0495998 0
M  V30 1823 H 172.046 1.65246 -0.797881 0
M  V30 1824 H 170.428 3.92598 0.517946 0
M  V30 1825 H 171.602 3.96921 -2.34074 0
M  V30 1826 H 169.917 3.66453 -1.97741 0
M  V30 1827 H 172.514 5.34155 0.241443 0
M  V30 1828 H 172.857 3.96688 1.2627 0
M  V30 1829 H 173.39 3.95403 -0.436025 0
M  V30 1830 H 170.129 6.00956 -2.61787 0
M  V30 1831 H 169.649 5.929 -0.90718 0
M  V30 1832 H 171.328 6.32809 -1.34766 0
M  V30 1833 N 171.46 0.379036 1.52974 0
M  V30 1834 C 172.423 -0.448865 2.24762 0
M  V30 1835 C 173.423 -0.998689 1.26027 0
M  V30 1836 O 174.613 -0.882313 1.50203 0
M  V30 1837 C 171.745 -1.62872 2.99476 0
M  V30 1838 H 172.938 0.179491 2.99362 0
M  V30 1839 H 170.491 0.13096 1.5575 0
M  V30 1840 H 171.226 -2.29479 2.29151 0
M  V30 1841 H 171.011 -1.24128 3.71934 0
M  V30 1842 H 172.501 -2.2151 3.5401 0
M  V30 1843 N 172.938 -1.57226 0.108567 0
M  V30 1844 C 174.163 -1.99604 -0.563303 0
M  V30 1845 C 174.588 -0.987563 -1.6009 0
M  V30 1846 O 173.946 0.0421687 -1.81251 0
M  V30 1847 C 173.994 -3.40902 -1.17552 0
M  V30 1848 O 173.098 -3.42896 -2.2912 0
M  V30 1849 H 172.439 -0.648704 -0.1417 0
M  V30 1850 H 174.969 -2.03679 0.193961 0
M  V30 1851 H 174.979 -3.78886 -1.51357 0
M  V30 1852 H 173.654 -4.1382 -0.415445 0
M  V30 1853 H 172.231 -3.1672 -1.96832 0
M  V30 1854 N 174.416 0.165178 -1.56732 0
M  V30 1855 C 175.664 0.879068 -1.8198 0
M  V30 1856 C 175.985 1.82514 -0.686561 0
M  V30 1857 O 175.255 1.93694 0.293146 0
M  V30 1858 H 173.835 0.327608 -0.671329 0
M  V30 1859 H 176.497 0.163526 -1.94213 0
M  V30 1860 H 175.593 1.45228 -2.76252 0
M  V30 1861 N 175.894 1.51508 0.433938 0
M  V30 1862 C 177.143 1.63578 1.18005 0
M  V30 1863 C 177.456 0.359514 1.92268 0
M  V30 1864 O 178.662 0.359632 2.69108 0
M  V30 1865 C 177.118 2.88901 2.14626 0
M  V30 1866 C 176.726 4.23544 1.45995 0
M  V30 1867 C 178.47 3.10328 2.89649 0
M  V30 1868 C 176.377 5.40014 2.4112 0
M  V30 1869 H 175.307 0.609277 0.444182 0
M  V30 1870 H 177.958 1.77978 0.446773 0
M  V30 1871 H 176.34 2.68142 2.91403 0
M  V30 1872 H 177.514 4.54696 0.747532 0
M  V30 1873 H 175.829 4.08021 0.831115 0
M  V30 1874 H 178.426 3.94518 3.60915 0
M  V30 1875 H 178.769 2.23544 3.51189 0
M  V30 1876 H 179.302 3.31443 2.19978 0
M  V30 1877 H 176.041 6.29068 1.84264 0
M  V30 1878 H 175.561 5.13233 3.10406 0
M  V30 1879 H 177.24 5.72099 3.02177 0
M  V30 1880 N 177.372 -0.689602 1.41712 0
M  V30 1881 C 178.602 -1.47613 1.44548 0
M  V30 1882 C 179.01 -1.89132 0.0509034 0
M  V30 1883 O 178.353 -1.57741 -0.94146 0
M  V30 1884 C 178.415 -2.76596 2.2964 0
M  V30 1885 C 178.079 -2.57245 3.77722 0
M  V30 1886 C 179.076 -2.22804 4.69739 0
M  V30 1887 C 176.761 -2.727 4.2183 0
M  V30 1888 C 178.755 -2.04064 6.03851 0
M  V30 1889 C 176.442 -2.53576 5.56006 0
M  V30 1890 C 177.44 -2.1931 6.46832 0
M  V30 1891 O 177.128 -2.00359 7.78532 0
M  V30 1892 H 176.86 -0.461227 0.494212 0
M  V30 1893 H 179.414 -0.856045 1.86711 0
M  V30 1894 H 177.644 -3.41033 1.82301 0
M  V30 1895 H 179.333 -3.38424 2.24107 0
M  V30 1896 H 180.099 -2.10473 4.36951 0
M  V30 1897 H 175.978 -2.98353 3.51435 0
M  V30 1898 H 179.522 -1.77241 6.74708 0
M  V30 1899 H 175.419 -2.65499 5.88371 0
M  V30 1900 H 176.187 -2.15075 7.89737 0
M  V30 1901 N 178.85 -1.27639 -0.924453 0
M  V30 1902 C 179.78 -1.13166 -2.04244 0
M  V30 1903 C 180.761 -0.032256 -1.70069 0
M  V30 1904 O 181.946 -0.207328 -1.9309 0
M  V30 1905 C 179.076 -0.781496 -3.38393 0
M  V30 1906 C 178.03 -1.83449 -3.86692 0
M  V30 1907 C 177.356 -1.33822 -5.17683 0
M  V30 1908 C 178.656 -3.23917 -4.09726 0
M  V30 1909 H 180.35 -2.06689 -2.1661 0
M  V30 1910 H 177.896 -0.995136 -1.04082 0
M  V30 1911 H 179.849 -0.667057 -4.16087 0
M  V30 1912 H 178.573 0.189439 -3.2605 0
M  V30 1913 H 177.232 -1.93789 -3.11193 0
M  V30 1914 H 176.88 -0.35665 -5.01734 0
M  V30 1915 H 176.58 -2.04224 -5.50968 0
M  V30 1916 H 178.104 -1.23679 -5.97943 0
M  V30 1917 H 179.518 -3.16559 -4.77978 0
M  V30 1918 H 177.915 -3.92059 -4.54324 0
M  V30 1919 H 178.985 -3.68729 -3.14908 0
M  V30 1920 N 180.328 1.1314 -1.09713 0
M  V30 1921 C 181.258 2.20748 -0.761102 0
M  V30 1922 C 182.239 1.68061 0.262566 0
M  V30 1923 O 183.424 1.93765 0.129977 0
M  V30 1924 C 180.554 3.46812 -0.184054 0
M  V30 1925 C 179.508 4.12606 -1.13757 0
M  V30 1926 C 178.834 5.33031 -0.422083 0
M  V30 1927 C 180.134 4.59603 -2.48118 0
M  V30 1928 H 181.828 2.49113 -1.66082 0
M  V30 1929 H 179.374 1.19734 -0.799987 0
M  V30 1930 H 181.327 4.21353 0.0631215 0
M  V30 1931 H 180.051 3.17851 0.750868 0
M  V30 1932 H 178.71 3.40036 -1.37007 0
M  V30 1933 H 178.358 5.00335 0.517072 0
M  V30 1934 H 178.058 5.77999 -1.05788 0
M  V30 1935 H 179.582 6.10325 -0.183277 0
M  V30 1936 H 180.996 5.25552 -2.29059 0
M  V30 1937 H 179.393 5.15321 -3.07514 0
M  V30 1938 H 180.463 3.73971 -3.08665 0
M  V30 1939 N 181.806 0.884767 1.30421 0
M  V30 1940 C 182.769 0.356277 2.26414 0
M  V30 1941 C 183.769 -0.501124 1.52792 0
M  V30 1942 O 184.959 -0.30831 1.7145 0
M  V30 1943 C 182.091 -0.492316 3.37326 0
M  V30 1944 H 183.284 1.20389 2.74675 0
M  V30 1945 H 180.837 0.661607 1.41607 0
M  V30 1946 H 181.572 -1.36052 2.94381 0
M  V30 1947 H 181.357 0.121832 3.91911 0
M  V30 1948 H 182.847 -0.853871 4.08777 0
M  V30 1949 N 183.284 -1.43765 0.645699 0
M  V30 1950 C 184.247 -2.29163 -0.0409488 0
M  V30 1951 C 185.247 -1.41813 -0.757996 0
M  V30 1952 O 186.437 -1.63527 -0.600382 0
M  V30 1953 C 183.569 -3.23716 -1.06869 0
M  V30 1954 H 184.762 -2.91366 0.710345 0
M  V30 1955 H 182.315 -1.5092 0.406547 0
M  V30 1956 H 183.05 -2.66393 -1.84947 0
M  V30 1957 H 182.835 -3.88105 -0.558277 0
M  V30 1958 H 184.325 -3.87831 -1.54845 0
M  V30 1959 N 184.763 -0.387143 -1.52771 0
M  V30 1960 C 186.009 0.196025 -2.0185 0
M  V30 1961 C 186.342 1.46641 -1.27319 0
M  V30 1962 O 185.617 1.90889 -0.373032 0
M  V30 1963 C 185.9 0.466136 -3.5707 0
M  V30 1964 C 185.753 -0.819385 -4.42274 0
M  V30 1965 C 187.072 1.25768 -4.21747 0
M  V30 1966 H 184.191 0.0697708 -0.73369 0
M  V30 1967 H 186.833 -0.516286 -1.82851 0
M  V30 1968 H 184.983 1.07293 -3.7339 0
M  V30 1969 H 186.655 -1.4563 -4.37709 0
M  V30 1970 H 184.898 -1.43517 -4.09372 0
M  V30 1971 H 185.569 -0.585065 -5.48891 0
M  V30 1972 H 188.045 0.744167 -4.09391 0
M  V30 1973 H 186.921 1.41541 -5.30337 0
M  V30 1974 H 187.182 2.27228 -3.79236 0
M  V30 1975 N 186.241 1.57166 -0.116904 0
M  V30 1976 C 187.657 1.5779 0.239693 0
M  V30 1977 C 187.857 1.1295 1.66867 0
M  V30 1978 O 186.913 0.81592 2.38954 0
M  V30 1979 C 188.226 3.00699 0.00828202 0
M  V30 1980 C 189.774 3.12912 0.0743438 0
M  V30 1981 C 190.249 4.57817 -0.129348 0
M  V30 1982 N 191.74 4.63139 -0.075247 0
M  V30 1983 C 192.475 5.73023 -0.207788 0
M  V30 1984 N 191.971 6.91665 -0.396382 0
M  V30 1985 N 193.764 5.61906 -0.14751 0
M  V30 1986 H 185.915 1.84615 -1.05029 0
M  V30 1987 H 188.178 0.85311 -0.41341 0
M  V30 1988 H 187.884 3.37784 -0.979531 0
M  V30 1989 H 187.758 3.69848 0.741077 0
M  V30 1990 H 190.145 2.75686 1.05268 0
M  V30 1991 H 190.226 2.4631 -0.690297 0
M  V30 1992 H 189.87 4.95742 -1.10465 0
M  V30 1993 H 189.8 5.22507 0.655253 0
M  V30 1994 H 192.291 3.7784 0.0670898 0
M  V30 1995 H 192.604 7.71255 -0.488437 0
M  V30 1996 H 190.949 6.93654 -0.432329 0
M  V30 1997 H 194.14 4.681 -0.00115036 0
M  V30 1998 H 194.313 6.47501 -0.254247 0
M  V30 1999 N 187.719 -0.156864 1.56817 0
M  V30 2000 C 188.967 -0.869404 1.82444 0
M  V30 2001 C 189.288 -1.82147 0.69623 0
M  V30 2002 O 188.558 -1.93847 -0.28287 0
M  V30 2003 H 187.138 -0.324043 0.673056 0
M  V30 2004 H 189.8 -0.153224 1.94297 0
M  V30 2005 H 188.896 -1.43761 2.77019 0
M  V30 2006 N 189.197 -1.51736 -0.425897 0
M  V30 2007 C 190.107 -1.76738 -1.54275 0
M  V30 2008 C 191.123 -0.65211 -1.61318 0
M  V30 2009 O 192.299 -0.935654 -1.78346 0
M  V30 2010 C 189.364 -1.89755 -2.90162 0
M  V30 2011 C 188.425 -3.13633 -2.93143 0
M  V30 2012 C 187.658 -3.2602 -4.22548 0
M  V30 2013 O 187.881 -2.44067 -5.15546 0
M  V30 2014 O 186.815 -4.19071 -4.32046 0
M  V30 2015 H 190.641 -2.71502 -1.36089 0
M  V30 2016 H 188.226 -1.36376 -0.610069 0
M  V30 2017 H 190.108 -2.00236 -3.70788 0
M  V30 2018 H 188.783 -0.981785 -3.08452 0
M  V30 2019 H 187.69 -3.08622 -2.11431 0
M  V30 2020 H 189.023 -4.04936 -2.798 0
M  V30 2021 N 190.675 0.682077 -1.42076 0
M  V30 2022 C 191.607 1.80755 -1.40926 0
M  V30 2023 C 192.62 1.59833 -0.309398 0
M  V30 2024 O 193.809 1.69087 -0.572014 0
M  V30 2025 C 190.909 3.17744 -1.17865 0
M  V30 2026 C 190.082 3.65578 -2.40149 0
M  V30 2027 C 189.141 4.81277 -2.12742 0
M  V30 2028 O 188.167 4.92197 -2.85887 0
M  V30 2029 N 189.369 5.69474 -1.12602 0
M  V30 2030 H 192.134 1.82229 -2.37935 0
M  V30 2031 H 189.695 0.864903 -1.36861 0
M  V30 2032 H 191.687 3.9279 -0.9746 0
M  V30 2033 H 190.257 3.11214 -0.294068 0
M  V30 2034 H 189.477 2.81291 -2.76169 0
M  V30 2035 H 190.765 3.94278 -3.21593 0
M  V30 2036 H 190.163 5.63297 -0.520899 0
M  V30 2037 H 188.72 6.44363 -0.981842 0
M  V30 2038 N 192.153 1.28127 0.917671 0
M  V30 2039 C 193.399 1.16232 1.66918 0
M  V30 2040 C 193.754 -0.28701 1.90247 0
M  V30 2041 O 193.047 -1.20586 1.48895 0
M  V30 2042 C 193.241 1.89018 3.03327 0
M  V30 2043 C 193.07 3.4088 2.9331 0
M  V30 2044 C 191.84 4.10214 2.95047 0
M  V30 2045 C 194.038 4.36689 2.71675 0
M  V30 2046 N 192.02 5.48571 2.75577 0
M  V30 2047 C 193.391 5.62382 2.6101 0
M  V30 2048 C 195.446 4.26661 2.56641 0
M  V30 2049 C 194.149 6.79189 2.36843 0
M  V30 2050 C 196.175 5.432 2.33853 0
M  V30 2051 C 195.537 6.67855 2.23939 0
M  V30 2052 H 191.636 0.48024 0.617166 0
M  V30 2053 H 194.22 1.61727 1.08409 0
M  V30 2054 H 192.391 1.45963 3.59929 0
M  V30 2055 H 194.123 1.69541 3.67475 0
M  V30 2056 H 190.878 3.61762 3.05655 0
M  V30 2057 H 191.302 6.21287 2.68945 0
M  V30 2058 H 195.944 3.30998 2.63059 0
M  V30 2059 H 193.662 7.74926 2.29164 0
M  V30 2060 H 197.248 5.37328 2.23091 0
M  V30 2061 H 196.128 7.56511 2.06546 0
M  V30 2062 N 193.631 -1.12557 1.10312 0
M  V30 2063 C 194.859 -1.87864 0.866873 0
M  V30 2064 C 195.274 -1.79588 -0.582557 0
M  V30 2065 O 194.631 -1.16887 -1.40156 0
M  V30 2066 C 194.682 -3.37125 1.30496 0
M  V30 2067 O 194.403 -3.45201 2.69755 0
M  V30 2068 C 195.904 -4.29373 1.10243 0
M  V30 2069 H 193.124 -0.594452 0.311236 0
M  V30 2070 H 195.668 -1.42429 1.46745 0
M  V30 2071 H 193.823 -3.80109 0.748081 0
M  V30 2072 H 194.237 -4.38056 2.88457 0
M  V30 2073 H 195.711 -5.32394 1.45811 0
M  V30 2074 H 196.188 -4.39181 0.0409492 0
M  V30 2075 H 196.794 -3.92169 1.64571 0
M  V30 2076 N 195.109 -0.891671 -1.2995 0
M  V30 2077 C 196.52 -0.563104 -1.78006 0
M  V30 2078 C 196.871 0.920978 -1.73241 0
M  V30 2079 O 195.996 1.71987 -1.31337 0
M  V30 2080 C 196.591 -1.01539 -3.23226 0
M  V30 2081 C 195.15 -0.738124 -3.69092 0
M  V30 2082 C 194.297 -1.19461 -2.50249 0
M  V30 2083 H 197.248 -1.07522 -1.16725 0
M  V30 2084 H 197.269 -0.347217 -3.78912 0
M  V30 2085 H 196.781 -2.09555 -3.26662 0
M  V30 2086 H 194.882 0.329766 -3.71138 0
M  V30 2087 H 194.995 -1.33037 -4.60259 0
M  V30 2088 H 193.359 -0.613787 -2.47194 0
M  V30 2089 H 194.142 -2.28265 -2.56417 0
M  V30 2090 N 196.587 1.43421 -0.653314 0
M  V30 2091 C 197.836 2.01032 -0.164076 0
M  V30 2092 C 198.149 1.52147 1.22926 0
M  V30 2093 O 199.355 2.02031 1.81371 0
M  V30 2094 C 197.811 3.59082 -0.24252 0
M  V30 2095 C 197.419 4.1696 -1.63855 0
M  V30 2096 C 199.163 4.24079 0.18911 0
M  V30 2097 C 197.07 5.67304 -1.67092 0
M  V30 2098 H 196 0.751798 -0.0575769 0
M  V30 2099 H 198.651 1.6439 -0.815362 0
M  V30 2100 H 197.033 3.93125 0.476276 0
M  V30 2101 H 198.207 3.94416 -2.38271 0
M  V30 2102 H 196.522 3.64335 -2.01616 0
M  V30 2103 H 199.119 5.34381 0.184775 0
M  V30 2104 H 199.462 3.98005 1.22056 0
M  V30 2105 H 199.995 3.94918 -0.477938 0
M  V30 2106 H 196.734 5.98145 -2.68146 0
M  V30 2107 H 196.254 5.91904 -0.970014 0
M  V30 2108 H 197.933 6.31344 -1.4147 0
M  V30 2109 N 198.065 0.39524 1.52563 0
M  V30 2110 C 198.975 -0.444232 2.30356 0
M  V30 2111 C 199.991 -1.06615 1.37511 0
M  V30 2112 O 201.167 -1.07067 1.70583 0
M  V30 2113 C 198.232 -1.55315 3.09964 0
M  V30 2114 C 197.293 -0.955734 4.18526 0
M  V30 2115 C 196.526 -2.01181 4.9433 0
M  V30 2116 O 196.749 -3.22781 4.70285 0
M  V30 2117 O 195.683 -1.62579 5.79527 0
M  V30 2118 H 199.509 0.189667 3.03107 0
M  V30 2119 H 197.094 0.1588 1.48554 0
M  V30 2120 H 198.976 -2.19724 3.59582 0
M  V30 2121 H 197.651 -2.17191 2.4002 0
M  V30 2122 H 196.558 -0.274743 3.7309 0
M  V30 2123 H 197.891 -0.381109 4.90722 0
M  V30 2124 N 199.544 -1.57102 0.125237 0
M  V30 2125 C 200.955 -1.82384 -0.399142 0
M  V30 2126 C 201.306 -1.04276 -1.66195 0
M  V30 2127 O 200.431 -0.281269 -2.14564 0
M  V30 2128 C 201.026 -3.30821 -0.730932 0
M  V30 2129 C 199.585 -3.56762 -1.19992 0
M  V30 2130 C 198.732 -2.7649 -0.211792 0
M  V30 2131 H 201.683 -1.54786 0.350277 0
M  V30 2132 H 201.704 -3.4579 -1.58775 0
M  V30 2133 H 201.216 -3.87643 0.188345 0
M  V30 2134 H 199.317 -3.05305 -2.13588 0
M  V30 2135 H 199.43 -4.65317 -1.14093 0
M  V30 2136 H 197.794 -2.4489 -0.700085 0
M  V30 2137 H 198.577 -3.36073 0.700691 0
M  V30 2138 N 201.022 0.148545 -1.56898 0
M  V30 2139 C 201.969 1.18345 -1.98149 0
M  V30 2140 C 202.939 1.42772 -0.848848 0
M  V30 2141 O 204.124 1.55132 -1.11079 0
M  V30 2142 C 201.264 2.51231 -2.36594 0
M  V30 2143 C 200.377 2.33991 -3.63142 0
M  V30 2144 C 199.512 3.59902 -3.90697 0
M  V30 2145 C 198.551 3.37692 -5.1052 0
M  V30 2146 N 197.688 4.5573 -5.34092 0
M  V30 2147 H 202.528 0.82467 -2.86362 0
M  V30 2148 H 200.065 0.395756 -1.41676 0
M  V30 2149 H 202.023 3.28713 -2.56912 0
M  V30 2150 H 200.653 2.85059 -1.51463 0
M  V30 2151 H 199.705 1.47572 -3.50609 0
M  V30 2152 H 201.017 2.13539 -4.5078 0
M  V30 2153 H 200.171 4.45813 -4.11505 0
M  V30 2154 H 198.91 3.83357 -3.01477 0
M  V30 2155 H 197.915 2.5017 -4.89587 0
M  V30 2156 H 199.14 3.15637 -6.0129 0
M  V30 2157 H 197.086 4.79361 -4.47827 0
M  V30 2158 H 197.003 4.38274 -6.15996 0
M  V30 2159 H 198.271 5.42858 -5.59397 0
M  V30 2160 N 202.5 1.5196 0.417844 0
M  V30 2161 C 203.911 1.57851 0.997 0
M  V30 2162 C 204.262 0.413714 1.91789 0
M  V30 2163 O 203.387 -0.467057 2.113 0
M  V30 2164 C 203.982 2.86085 1.81496 0
M  V30 2165 C 202.541 2.94483 2.34428 0
M  V30 2166 C 201.688 2.52707 1.14169 0
M  V30 2167 H 204.639 1.57455 0.198392 0
M  V30 2168 H 204.66 2.70947 2.67148 0
M  V30 2169 H 204.172 3.70842 1.14446 0
M  V30 2170 H 202.273 2.142 3.04875 0
M  V30 2171 H 202.386 3.98546 2.65891 0
M  V30 2172 H 200.75 2.06353 1.49301 0
M  V30 2173 H 201.533 3.39828 0.486999 0
M  V30 2174 N 203.978 -0.674533 1.42435 0
M  V30 2175 C 205.394 -0.98769 1.25367 0
M  V30 2176 C 205.594 -2.00879 0.158044 0
M  V30 2177 O 204.65 -2.48075 -0.470633 0
M  V30 2178 C 205.963 -1.49224 2.6106 0
M  V30 2179 C 207.511 -1.61 2.68417 0
M  V30 2180 C 207.986 -2.14852 4.04478 0
M  V30 2181 N 209.477 -2.22185 4.06434 0
M  V30 2182 C 210.212 -2.64928 5.08528 0
M  V30 2183 N 209.708 -3.07121 6.21006 0
M  V30 2184 N 211.501 -2.64679 4.95885 0
M  V30 2185 H 203.652 0.00152503 2.124 0
M  V30 2186 H 205.915 -0.0618434 0.945981 0
M  V30 2187 H 205.621 -0.816453 3.42092 0
M  V30 2188 H 205.495 -2.47094 2.84999 0
M  V30 2189 H 207.882 -2.27686 1.87732 0
M  V30 2190 H 207.963 -0.616195 2.48267 0
M  V30 2191 H 207.607 -1.48775 4.85622 0
M  V30 2192 H 207.537 -3.15024 4.2198 0
M  V30 2193 H 210.028 -1.92435 3.25234 0
M  V30 2194 H 210.341 -3.38423 6.94759 0
M  V30 2195 H 208.686 -3.04978 6.24511 0
M  V30 2196 H 211.877 -2.31078 4.07088 0
M  V30 2197 H 212.05 -2.9767 5.75584 0
M  V30 2198 N 205.456 -1.28612 -0.910864 0
M  V30 2199 C 206.366 -1.14643 -2.0468 0
M  V30 2200 C 207.382 -0.0723121 -1.7385 0
M  V30 2201 O 208.558 -0.282178 -1.99413 0
M  V30 2202 C 205.623 -0.812561 -3.37044 0
M  V30 2203 C 204.684 -1.96935 -3.81465 0
M  V30 2204 C 203.917 -1.65131 -5.07511 0
M  V30 2205 O 204.14 -0.567013 -5.67575 0
M  V30 2206 O 203.074 -2.49585 -5.47714 0
M  V30 2207 H 206.9 -2.1001 -2.19384 0
M  V30 2208 H 204.485 -1.07958 -1.03274 0
M  V30 2209 H 206.367 -0.640441 -4.16505 0
M  V30 2210 H 205.042 0.111426 -3.23508 0
M  V30 2211 H 203.949 -2.19664 -3.02818 0
M  V30 2212 H 205.282 -2.87414 -3.99567 0
M  V30 2213 N 206.934 1.1197 -1.10907 0
M  V30 2214 C 208.35 1.35591 -0.841852 0
M  V30 2215 C 208.55 1.94233 0.536246 0
M  V30 2216 O 207.606 2.1717 1.28816 0
M  V30 2217 C 208.919 2.29284 -1.94549 0
M  V30 2218 C 210.467 2.42862 -1.97451 0
M  V30 2219 C 210.942 3.39873 -3.07002 0
M  V30 2220 N 212.433 3.47433 -3.06341 0
M  V30 2221 C 213.168 4.22421 -3.87748 0
M  V30 2222 N 212.664 5.00432 -4.79103 0
M  V30 2223 N 214.457 4.17876 -3.75946 0
M  V30 2224 H 206.608 0.722664 -1.99728 0
M  V30 2225 H 208.871 0.380635 -0.868229 0
M  V30 2226 H 208.577 1.93378 -2.93765 0
M  V30 2227 H 208.451 3.29452 -1.83688 0
M  V30 2228 H 210.838 2.78046 -0.988645 0
M  V30 2229 H 210.919 1.42566 -2.12388 0
M  V30 2230 H 210.563 3.05417 -4.05811 0
M  V30 2231 H 210.493 4.40011 -2.89306 0
M  V30 2232 H 212.984 2.91784 -2.40147 0
M  V30 2233 H 213.297 5.55002 -5.37766 0
M  V30 2234 H 211.642 4.99612 -4.83128 0
M  V30 2235 H 214.833 3.56016 -3.03924 0
M  V30 2236 H 215.006 4.76061 -4.39624 0
M  V30 2237 N 208.412 0.89855 1.29475 0
M  V30 2238 C 209.823 0.572537 1.77705 0
M  V30 2239 C 210.174 -0.911778 1.73727 0
M  V30 2240 O 209.299 -1.71288 1.32247 0
M  V30 2241 C 209.894 1.03252 3.22683 0
M  V30 2242 C 208.453 0.757687 3.68695 0
M  V30 2243 C 207.6 1.20787 2.49612 0
M  V30 2244 H 210.551 1.08139 1.16153 0
M  V30 2245 H 210.572 0.367307 3.78723 0
M  V30 2246 H 210.084 2.11285 3.25546 0
M  V30 2247 H 208.185 -0.310079 3.71308 0
M  V30 2248 H 208.298 1.35476 4.59547 0
M  V30 2249 H 206.662 0.626888 2.46865 0
M  V30 2250 H 207.445 2.29622 2.55203 0
M  V30 2251 N 209.89 -1.43072 0.660911 0
M  V30 2252 C 210.822 -2.29108 -0.0647641 0
M  V30 2253 C 211.835 -1.42928 -0.779448 0
M  V30 2254 O 213.024 -1.66788 -0.635921 0
M  V30 2255 C 210.124 -3.20032 -1.11503 0
M  V30 2256 C 209.297 -4.34792 -0.476955 0
M  V30 2257 C 208.356 -5.06534 -1.42513 0
M  V30 2258 O 207.382 -5.61538 -0.930771 0
M  V30 2259 N 208.584 -5.1075 -2.75889 0
M  V30 2260 H 211.349 -2.92029 0.673731 0
M  V30 2261 H 208.91 -1.53846 0.50427 0
M  V30 2262 H 210.902 -3.64892 -1.75032 0
M  V30 2263 H 209.472 -2.58658 -1.75541 0
M  V30 2264 H 208.692 -3.92752 0.337572 0
M  V30 2265 H 209.98 -5.0879 -0.0318525 0
M  V30 2266 H 209.378 -4.67447 -3.18606 0
M  V30 2267 H 207.935 -5.59302 -3.347 0
M  V30 2268 N 211.368 -0.403325 -1.52352 0
M  V30 2269 C 212.617 0.175668 -2.00934 0
M  V30 2270 C 212.93 1.46718 -1.29356 0
M  V30 2271 O 214.136 2.12708 -1.68724 0
M  V30 2272 C 212.592 0.363612 -3.58058 0
M  V30 2273 C 212.2 -0.915472 -4.38547 0
M  V30 2274 C 213.944 0.89821 -4.14888 0
M  V30 2275 C 211.851 -0.695035 -5.87302 0
M  V30 2276 H 210.781 0.0694234 -0.750797 0
M  V30 2277 H 213.432 -0.527879 -1.75743 0
M  V30 2278 H 211.814 1.12935 -3.79555 0
M  V30 2279 H 212.988 -1.68691 -4.28812 0
M  V30 2280 H 211.303 -1.37606 -3.93006 0
M  V30 2281 H 213.9 1.07907 -5.23699 0
M  V30 2282 H 214.243 1.87126 -3.71873 0
M  V30 2283 H 214.776 0.191681 -3.97338 0
M  V30 2284 H 211.515 -1.63948 -6.34666 0
M  V30 2285 H 211.035 0.0372116 -5.99788 0
M  V30 2286 H 212.714 -0.33497 -6.46132 0
M  V30 2287 N 212.846 1.57033 -0.133567 0
M  V30 2288 C 214.094 1.953 0.519848 0
M  V30 2289 C 214.415 1.01866 1.66278 0
M  V30 2290 O 213.685 0.0776513 1.95746 0
M  V30 2291 H 212.265 0.721091 0.195032 0
M  V30 2292 H 214.927 1.93809 -0.205921 0
M  V30 2293 H 214.023 2.98695 0.904854 0
M  V30 2294 N 214.325 -0.140222 1.56975 0
M  V30 2295 C 215.573 -0.850005 1.83356 0
M  V30 2296 C 215.894 -1.81399 0.71551 0
M  V30 2297 O 215.164 -1.94136 -0.262294 0
M  V30 2298 H 213.744 -0.316886 0.676456 0
M  V30 2299 H 216.406 -0.132608 1.94448 0
M  V30 2300 H 215.502 -1.40814 2.78528 0
M  V30 2301 N 215.803 -1.52179 -0.40978 0
M  V30 2302 C 217.031 -1.70054 -1.17853 0
M  V30 2303 C 217.446 -0.409735 -1.843 0
M  V30 2304 O 216.803 0.614183 -1.71855 0
M  V30 2305 C 216.854 -2.83568 -2.24213 0
M  V30 2306 O 216.575 -4.0765 -1.60478 0
M  V30 2307 C 218.076 -3.12947 -3.13973 0
M  V30 2308 H 215.296 -0.569917 -0.354169 0
M  V30 2309 H 217.84 -1.98734 -0.482198 0
M  V30 2310 H 215.995 -2.57409 -2.89516 0
M  V30 2311 H 216.409 -4.70899 -2.30986 0
M  V30 2312 H 217.883 -3.95889 -3.84677 0
M  V30 2313 H 218.36 -2.26472 -3.76307 0
M  V30 2314 H 218.966 -3.40868 -2.5434 0
M  V30 2315 N 217.281 0.66697 -1.42791 0
M  V30 2316 C 218.53 1.42278 -1.42968 0
M  V30 2317 C 218.843 1.9553 -0.0524489 0
M  V30 2318 O 220.049 2.71414 0.068363 0
M  V30 2319 C 218.505 2.57418 -2.51524 0
M  V30 2320 C 218.113 2.10832 -3.9529 0
M  V30 2321 C 219.857 3.34878 -2.60877 0
M  V30 2322 C 217.764 3.23101 -4.95338 0
M  V30 2323 H 216.694 0.534533 -0.531781 0
M  V30 2324 H 219.345 0.721302 -1.68729 0
M  V30 2325 H 217.727 3.29971 -2.18941 0
M  V30 2326 H 218.901 1.4538 -4.37266 0
M  V30 2327 H 217.216 1.46289 -3.89857 0
M  V30 2328 H 219.813 4.18505 -3.32802 0
M  V30 2329 H 220.156 3.81993 -1.6549 0
M  V30 2330 H 220.689 2.69398 -2.92693 0
M  V30 2331 H 217.428 2.80969 -5.9223 0
M  V30 2332 H 216.948 3.87309 -4.57987 0
M  V30 2333 H 218.627 3.88447 -5.17415 0
M  V30 2334 N 218.759 1.29093 0.90403 0
M  V30 2335 C 219.706 1.13853 2.00764 0
M  V30 2336 C 220.676 0.0330084 1.66067 0
M  V30 2337 O 221.861 0.199733 1.89752 0
M  V30 2338 C 219.001 0.816537 3.35301 0
M  V30 2339 C 218.114 2.00206 3.82807 0
M  V30 2340 C 217.249 1.61983 5.059 0
M  V30 2341 C 216.288 2.77143 5.45764 0
M  V30 2342 N 215.425 2.39346 6.60044 0
M  V30 2343 H 220.265 2.08276 2.13132 0
M  V30 2344 H 217.802 1.03648 1.04381 0
M  V30 2345 H 219.76 0.610557 4.12708 0
M  V30 2346 H 218.39 -0.090779 3.22672 0
M  V30 2347 H 217.442 2.31988 3.01473 0
M  V30 2348 H 218.754 2.86512 4.08304 0
M  V30 2349 H 217.908 1.37649 5.90879 0
M  V30 2350 H 216.647 0.728202 4.82233 0
M  V30 2351 H 215.652 3.02165 4.59322 0
M  V30 2352 H 216.877 3.66964 5.71414 0
M  V30 2353 H 214.823 1.52665 6.37989 0
M  V30 2354 H 214.74 3.19185 6.85315 0
M  V30 2355 H 216.008 2.1832 7.48303 0
M  V30 2356 N 220.237 -1.11381 1.11499 0
M  V30 2357 C 221.169 -2.17207 0.731704 0
M  V30 2358 C 222.182 -1.61066 -0.236957 0
M  V30 2359 O 223.371 -1.78489 -0.0197591 0
M  V30 2360 C 220.471 -3.38846 0.0607624 0
M  V30 2361 C 219.644 -4.24451 1.0564 0
M  V30 2362 C 218.703 -5.24562 0.4149 0
M  V30 2363 O 217.729 -5.59071 1.069 0
M  V30 2364 N 218.931 -5.74651 -0.821943 0
M  V30 2365 H 221.696 -2.50699 1.64225 0
M  V30 2366 H 219.257 -1.26908 1.00529 0
M  V30 2367 H 221.249 -4.02911 -0.380139 0
M  V30 2368 H 219.819 -3.03411 -0.752376 0
M  V30 2369 H 219.039 -3.56833 1.67524 0
M  V30 2370 H 220.327 -4.78486 1.72998 0
M  V30 2371 H 219.725 -5.48797 -1.37252 0
M  V30 2372 H 218.282 -6.40549 -1.20582 0
M  V30 2373 N 221.715 -0.905404 -1.28997 0
M  V30 2374 C 223.126 -0.581953 -1.77398 0
M  V30 2375 C 223.477 0.902552 -1.74208 0
M  V30 2376 O 222.602 1.70584 -1.33154 0
M  V30 2377 C 223.197 -1.04961 -3.22131 0
M  V30 2378 C 221.756 -0.777229 -3.68288 0
M  V30 2379 C 220.903 -1.22109 -2.48967 0
M  V30 2380 H 223.854 -1.08754 -1.15578 0
M  V30 2381 H 223.875 -0.387387 -3.78523 0
M  V30 2382 H 223.387 -2.13008 -3.24421 0
M  V30 2383 H 221.488 0.290383 -3.71467 0
M  V30 2384 H 221.601 -1.37911 -4.58822 0
M  V30 2385 H 219.965 -0.639971 -2.46529 0
M  V30 2386 H 220.748 -2.30972 -2.53982 0
M  V30 2387 N 223.193 1.4272 -0.668489 0
M  V30 2388 C 224.604 1.84793 -0.266151 0
M  V30 2389 C 224.955 1.55959 1.19043 0
M  V30 2390 O 224.08 1.01622 1.91055 0
M  V30 2391 C 224.675 3.35436 -0.476271 0
M  V30 2392 C 223.234 3.76182 -0.128113 0
M  V30 2393 C 222.381 2.66344 -0.771777 0
M  V30 2394 H 225.332 1.32656 -0.871098 0
M  V30 2395 H 225.353 3.79515 0.273561 0
M  V30 2396 H 224.865 3.5639 -1.53647 0
M  V30 2397 H 222.966 3.60836 0.928891 0
M  V30 2398 H 223.079 4.75766 -0.564231 0
M  V30 2399 H 221.443 2.53885 -0.203652 0
M  V30 2400 H 222.226 2.90123 -1.83531 0
M  V30 2401 N 224.671 0.411399 1.52136 0
M  V30 2402 C 225.896 -0.165538 2.06738 0
M  V30 2403 C 226.321 -1.379 1.27926 0
M  V30 2404 O 225.679 -1.78628 0.310114 0
M  V30 2405 C 225.727 -0.492124 3.57226 0
M  V30 2406 O 224.831 -1.58276 3.80818 0
M  V30 2407 H 224.172 -0.0132132 0.663869 0
M  V30 2408 H 226.702 0.585253 1.96051 0
M  V30 2409 H 226.712 -0.750104 4.01045 0
M  V30 2410 H 225.387 0.394922 4.14021 0
M  V30 2411 H 223.964 -1.31677 3.48877 0
M  V30 2412 N 226.149 -1.5696 0.141893 0
M  V30 2413 C 227.097 -2.17784 -0.816874 0
M  V30 2414 C 228.091 -1.1334 -1.25899 0
M  V30 2415 O 229.297 -1.316 -1.22806 0
M  V30 2416 H 225.672 -0.697278 -0.281615 0
M  V30 2417 H 227.643 -2.97087 -0.279621 0
M  V30 2418 C 226.392 -2.80983 -2.04802 0
M  V30 2419 H 225.715 -3.61062 -1.7168 0
M  V30 2420 H 227.155 -3.2705 -2.69841 0
M  V30 2421 C 225.614 -1.79228 -2.8527 0
M  V30 2422 O 226.144 -1.25962 -3.8144 0
M  V30 2423 N 224.35 -1.48647 -2.49704 0
M  V30 2424 H 223.897 -1.92155 -1.71564 0
M  V30 2425 H 223.855 -0.808115 -3.03837 0
M  V30 2426 N 227.627 0.131896 -1.57047 0
M  V30 2427 C 229.038 0.690407 -1.73465 0
M  V30 2428 C 229.389 1.8094 -0.758629 0
M  V30 2429 O 228.514 2.16282 0.0713813 0
M  V30 2430 C 229.109 1.25916 -3.14532 0
M  V30 2431 C 227.668 1.76409 -3.32501 0
M  V30 2432 C 226.815 0.658579 -2.69366 0
M  V30 2433 H 229.766 -0.0939144 -1.58422 0
M  V30 2434 H 229.787 2.12892 -3.15369 0
M  V30 2435 H 229.299 0.444515 -3.85546 0
M  V30 2436 H 227.4 2.60391 -2.66509 0
M  V30 2437 H 227.513 1.88241 -4.4057 0
M  V30 2438 H 225.877 1.08899 -2.30246 0
M  V30 2439 H 226.66 -0.14487 -3.42994 0
M  V30 2440 N 229.106 1.52395 0.401703 0
M  V30 2441 C 230.517 1.58899 0.980202 0
M  V30 2442 C 230.868 0.434032 1.91339 0
M  V30 2443 O 229.993 -0.444619 2.11783 0
M  V30 2444 C 230.588 2.87994 1.78451 0
M  V30 2445 C 229.147 2.96953 2.31292 0
M  V30 2446 C 228.294 2.53903 1.11483 0
M  V30 2447 H 231.245 1.57657 0.18168 0
M  V30 2448 H 231.266 2.73765 2.64259 0
M  V30 2449 H 230.778 3.72035 1.10506 0
M  V30 2450 H 228.879 2.17422 3.02586 0
M  V30 2451 H 228.992 4.01344 2.61649 0
M  V30 2452 H 227.356 2.07925 1.47104 0
M  V30 2453 H 228.139 3.40326 0.450928 0
M  V30 2454 N 230.584 -0.659388 1.43143 0
M  V30 2455 C 231.995 -1.24041 1.39537 0
M  V30 2456 C 232.346 -1.95963 0.0963364 0
M  V30 2457 O 231.471 -2.00892 -0.804438 0
M  V30 2458 C 232.066 -2.25601 2.52764 0
M  V30 2459 C 230.625 -2.79195 2.52443 0
M  V30 2460 C 229.772 -1.53743 2.30778 0
M  V30 2461 H 232.723 -0.451792 1.52133 0
M  V30 2462 H 232.744 -3.07651 2.23899 0
M  V30 2463 H 232.256 -1.73226 3.47296 0
M  V30 2464 H 230.357 -3.35649 1.61773 0
M  V30 2465 H 230.47 -3.2716 3.50004 0
M  V30 2466 H 228.834 -1.80869 1.79328 0
M  V30 2467 H 229.617 -1.03312 3.27386 0
M  V30 2468 N 232.062 -1.29571 -0.897171 0
M  V30 2469 C 233.478 -1.07637 -1.17841 0
M  V30 2470 C 233.678 0.170713 -2.00776 0
M  V30 2471 O 232.734 0.867768 -2.3712 0
M  V30 2472 C 234.047 -2.3332 -1.8969 0
M  V30 2473 C 235.595 -2.38664 -2.02505 0
M  V30 2474 C 236.07 -3.64157 -2.77765 0
M  V30 2475 N 237.561 -3.64894 -2.85318 0
M  V30 2476 C 238.296 -4.58679 -3.44094 0
M  V30 2477 N 237.792 -5.62799 -4.04017 0
M  V30 2478 N 239.585 -4.46245 -3.41793 0
M  V30 2479 H 231.736 -2.09598 -0.343883 0
M  V30 2480 H 233.999 -0.923333 -0.214848 0
M  V30 2481 H 233.705 -3.24262 -1.36187 0
M  V30 2482 H 233.579 -2.41025 -2.9015 0
M  V30 2483 H 235.966 -1.48208 -2.55183 0
M  V30 2484 H 236.047 -2.34943 -1.01171 0
M  V30 2485 H 235.691 -4.54965 -2.25763 0
M  V30 2486 H 235.621 -3.65137 -3.7945 0
M  V30 2487 H 238.112 -2.89613 -2.42761 0
M  V30 2488 H 238.425 -6.3048 -4.46895 0
M  V30 2489 H 236.77 -5.66605 -4.02472 0
M  V30 2490 H 239.961 -3.64094 -2.94199 0
M  V30 2491 H 240.134 -5.19518 -3.87304 0
M  V30 2492 N 233.54 1.10788 -1.12088 0
M  V30 2493 C 234.951 1.64181 -0.88891 0
M  V30 2494 C 235.302 1.87508 0.577498 0
M  V30 2495 O 234.427 1.61434 1.44112 0
M  V30 2496 C 235.022 2.98257 -1.60712 0
M  V30 2497 C 233.581 3.4853 -1.42139 0
M  V30 2498 C 232.728 2.23208 -1.6454 0
M  V30 2499 H 235.679 0.943368 -1.27618 0
M  V30 2500 H 235.7 3.65552 -1.05604 0
M  V30 2501 H 235.212 2.81246 -2.67436 0
M  V30 2502 H 233.313 3.70692 -0.376552 0
M  V30 2503 H 233.426 4.26882 -2.17505 0
M  V30 2504 H 231.79 2.31169 -1.06925 0
M  V30 2505 H 232.573 2.08733 -2.72554 0
M  V30 2506 N 235.018 0.912232 1.28515 0
M  V30 2507 C 236.429 0.591352 1.77087 0
M  V30 2508 C 236.78 -0.8933 1.74684 0
M  V30 2509 O 235.905 -1.69876 1.34056 0
M  V30 2510 C 236.5 1.06668 3.2157 0
M  V30 2511 C 235.059 0.79675 3.67871 0
M  V30 2512 C 234.206 1.23427 2.48316 0
M  V30 2513 H 237.157 1.09365 1.15 0
M  V30 2514 H 237.178 0.407455 3.78312 0
M  V30 2515 H 236.69 2.14726 3.23287 0
M  V30 2516 H 234.791 -0.270679 3.71616 0
M  V30 2517 H 234.904 1.40343 4.58084 0
M  V30 2518 H 233.268 0.653036 2.46186 0
M  V30 2519 H 234.051 2.32316 2.52753 0
M  V30 2520 N 236.496 -1.42363 0.676048 0
M  V30 2521 C 237.459 -2.29199 0.00766941 0
M  V30 2522 C 238.459 -1.43389 -0.727745 0
M  V30 2523 O 239.649 -1.64764 -0.56556 0
M  V30 2524 C 236.781 -3.2591 -0.999785 0
M  V30 2525 H 237.974 -2.89794 0.771988 0
M  V30 2526 H 235.527 -1.50024 0.438468 0
M  V30 2527 H 236.262 -2.70256 -1.79255 0
M  V30 2528 H 236.047 -3.89202 -0.475829 0
M  V30 2529 H 237.537 -3.91028 -1.46583 0
M  V30 2530 N 237.974 -0.419461 -1.51915 0
M  V30 2531 C 238.884 0.407528 -2.31033 0
M  V30 2532 C 239.9 1.04413 -1.3919 0
M  V30 2533 O 241.076 1.0434 -1.72265 0
M  V30 2534 C 238.141 1.50365 -3.12396 0
M  V30 2535 C 237.202 0.889029 -4.19994 0
M  V30 2536 C 236.435 1.93291 -4.97468 0
M  V30 2537 O 236.658 3.15259 -4.75361 0
M  V30 2538 O 235.592 1.53339 -5.8204 0
M  V30 2539 H 239.418 -0.237865 -3.02767 0
M  V30 2540 H 237.003 -0.182413 -1.48282 0
M  V30 2541 H 238.885 2.13975 -3.63032 0
M  V30 2542 H 237.56 2.13345 -2.43445 0
M  V30 2543 H 236.467 0.215353 -3.7348 0
M  V30 2544 H 237.8 0.302991 -4.91267 0
M  V30 2545 N 239.452 1.56882 -0.150215 0
M  V30 2546 C 240.415 2.1573 0.774157 0
M  V30 2547 C 241.415 1.0999 1.17298 0
M  V30 2548 O 242.605 1.35613 1.09338 0
M  V30 2549 C 239.737 2.72302 2.05096 0
M  V30 2550 H 240.93 2.98752 0.262201 0
M  V30 2551 H 238.483 1.55985 0.099248 0
M  V30 2552 H 239.218 1.92956 2.6065 0
M  V30 2553 H 239.003 3.49665 1.77416 0
M  V30 2554 H 240.493 3.17632 2.71109 0
M  V30 2555 N 240.93 -0.123565 1.57115 0
M  V30 2556 C 242.346 -0.476961 1.52306 0
M  V30 2557 C 242.546 -1.82109 0.86248 0
M  V30 2558 O 241.602 -2.48586 0.442884 0
M  V30 2559 C 242.915 -0.465661 2.97073 0
M  V30 2560 C 244.463 -0.549534 3.08138 0
M  V30 2561 C 244.938 -0.568669 4.54456 0
M  V30 2562 N 246.429 -0.630237 4.58892 0
M  V30 2563 C 247.164 -0.666415 5.69514 0
M  V30 2564 N 246.66 -0.660514 6.89644 0
M  V30 2565 N 248.453 -0.709077 5.5761 0
M  V30 2566 H 240.604 0.757198 1.98445 0
M  V30 2567 H 242.867 0.278808 0.906074 0
M  V30 2568 H 242.573 0.454232 3.48754 0
M  V30 2569 H 242.447 -1.29513 3.54269 0
M  V30 2570 H 244.834 -1.45985 2.56461 0
M  V30 2571 H 244.915 0.307532 2.53945 0
M  V30 2572 H 244.559 0.337581 5.06777 0
M  V30 2573 H 244.489 -1.44256 5.06456 0
M  V30 2574 H 246.98 -0.641146 3.72421 0
M  V30 2575 H 247.293 -0.690616 7.69708 0
M  V30 2576 H 245.638 -0.628012 6.92157 0
M  V30 2577 H 248.829 -0.711019 4.62668 0
M  V30 2578 H 249.002 -0.733804 6.43832 0
M  V30 2579 N 242.408 -1.52605 -0.393616 0
M  V30 2580 C 243.355 -1.77055 -1.48054 0
M  V30 2581 C 244.325 -0.61358 -1.54352 0
M  V30 2582 O 245.51 -0.852806 -1.70681 0
M  V30 2583 C 242.65 -1.94108 -2.85335 0
M  V30 2584 C 241.763 -3.21792 -2.88226 0
M  V30 2585 C 240.898 -3.29188 -4.16904 0
M  V30 2586 C 239.937 -4.51013 -4.13828 0
M  V30 2587 N 239.074 -4.55716 -5.34105 0
M  V30 2588 H 243.914 -2.69815 -1.26506 0
M  V30 2589 H 241.451 -1.33683 -0.61379 0
M  V30 2590 H 243.409 -2.01979 -3.65049 0
M  V30 2591 H 242.039 -1.04713 -3.05344 0
M  V30 2592 H 241.091 -3.23015 -2.00911 0
M  V30 2593 H 242.403 -4.11557 -2.8182 0
M  V30 2594 H 241.557 -3.36216 -5.05018 0
M  V30 2595 H 240.296 -2.37389 -4.26026 0
M  V30 2596 H 239.301 -4.44115 -3.24102 0
M  V30 2597 H 240.526 -5.44123 -4.06333 0
M  V30 2598 H 238.472 -3.66807 -5.43865 0
M  V30 2599 H 238.389 -5.39346 -5.29756 0
M  V30 2600 H 239.657 -4.66993 -6.2413 0
M  V30 2601 N 243.887 0.651787 -1.4349 0
M  V30 2602 C 244.834 1.76462 -1.4876 0
M  V30 2603 C 245.804 1.62641 -0.337189 0
M  V30 2604 O 246.989 1.82864 -0.544544 0
M  V30 2605 C 244.129 3.14623 -1.41796 0
M  V30 2606 C 243.242 3.39568 -2.67053 0
M  V30 2607 C 242.377 4.67585 -2.52068 0
M  V30 2608 C 241.416 4.85639 -3.72587 0
M  V30 2609 N 240.553 6.04915 -3.56402 0
M  V30 2610 H 245.393 1.71293 -2.43849 0
M  V30 2611 H 242.93 0.835889 -1.21043 0
M  V30 2612 H 244.888 3.94496 -1.35753 0
M  V30 2613 H 243.518 3.18859 -0.50288 0
M  V30 2614 H 242.57 2.53783 -2.8337 0
M  V30 2615 H 243.882 3.48795 -3.56572 0
M  V30 2616 H 243.036 5.55586 -2.4374 0
M  V30 2617 H 241.775 4.60681 -1.60075 0
M  V30 2618 H 240.78 3.96073 -3.81321 0
M  V30 2619 H 242.005 4.94372 -4.65589 0
M  V30 2620 H 239.951 5.9914 -2.67146 0
M  V30 2621 H 239.868 6.15106 -4.39524 0
M  V30 2622 H 241.136 6.95533 -3.51929 0
M  V30 2623 N 245.365 1.30045 0.890287 0
M  V30 2624 C 246.776 1.16738 1.45702 0
M  V30 2625 C 247.127 -0.233939 1.948 0
M  V30 2626 O 246.252 -1.13021 1.84541 0
M  V30 2627 C 246.847 2.11313 2.64825 0
M  V30 2628 C 245.406 2.02001 3.17604 0
M  V30 2629 C 244.553 2.01699 1.90296 0
M  V30 2630 H 247.504 1.42392 0.700726 0
M  V30 2631 H 247.525 1.69086 3.40867 0
M  V30 2632 H 247.037 3.13294 2.2906 0
M  V30 2633 H 245.138 1.03142 3.5804 0
M  V30 2634 H 245.251 2.90128 3.81264 0
M  V30 2635 H 243.615 1.46427 2.08402 0
M  V30 2636 H 244.398 3.05402 1.56795 0
M  V30 2637 N 246.843 -1.10192 1.12674 0
M  V30 2638 C 248.068 -1.86523 0.906853 0
M  V30 2639 C 248.493 -1.80221 -0.538711 0
M  V30 2640 O 247.851 -1.17396 -1.38158 0
M  V30 2641 C 247.899 -3.32758 1.3894 0
M  V30 2642 O 247.003 -4.08449 0.5695 0
M  V30 2643 H 246.344 -0.578678 0.325619 0
M  V30 2644 H 248.874 -1.39203 1.49946 0
M  V30 2645 H 248.884 -3.83608 1.38958 0
M  V30 2646 H 247.559 -3.36661 2.44197 0
M  V30 2647 H 246.136 -3.67427 0.636528 0
M  V30 2648 N 248.321 -0.919034 -1.28029 0
M  V30 2649 C 249.231 -0.416756 -2.30869 0
M  V30 2650 C 250.247 0.498235 -1.66714 0
M  V30 2651 O 251.423 0.383144 -1.97722 0
M  V30 2652 C 248.488 0.330274 -3.45123 0
M  V30 2653 C 247.549 -0.618578 -4.2482 0
M  V30 2654 C 246.782 0.0928959 -5.33619 0
M  V30 2655 O 247.005 1.31375 -5.55065 0
M  V30 2656 O 245.939 -0.574499 -5.99152 0
M  V30 2657 H 249.765 -1.27043 -2.75851 0
M  V30 2658 H 247.35 -0.684052 -1.3282 0
M  V30 2659 H 249.232 0.751972 -4.14636 0
M  V30 2660 H 247.907 1.1597 -3.02213 0
M  V30 2661 H 246.814 -1.08978 -3.57875 0
M  V30 2662 H 248.147 -1.41497 -4.71423 0
M  V30 2663 N 249.799 1.42003 -0.683588 0
M  V30 2664 C 250.709 2.34597 -0.0109075 0
M  V30 2665 C 251.725 1.55576 0.779245 0
M  V30 2666 O 252.901 1.88107 0.719555 0
M  V30 2667 C 249.966 3.34199 0.922588 0
M  V30 2668 C 249.027 4.29115 0.125984 0
M  V30 2669 C 248.26 5.23959 1.01502 0
M  V30 2670 O 248.483 5.23952 2.25456 0
M  V30 2671 O 247.417 6.00053 0.47111 0
M  V30 2672 H 251.243 2.93675 -0.773853 0
M  V30 2673 H 248.828 1.42654 -0.443861 0
M  V30 2674 H 250.71 3.95365 1.45823 0
M  V30 2675 H 249.385 2.77582 1.66523 0
M  V30 2676 H 248.292 3.71335 -0.453969 0
M  V30 2677 H 249.625 4.88798 -0.577736 0
M  V30 2678 N 251.277 0.427512 1.51691 0
M  V30 2679 C 252.187 -0.39527 2.31246 0
M  V30 2680 C 253.203 -1.03674 1.39742 0
M  V30 2681 O 254.379 -1.03425 1.72816 0
M  V30 2682 C 251.444 -1.48706 3.13189 0
M  V30 2683 C 250.505 -0.866743 4.20459 0
M  V30 2684 C 249.738 -1.90651 4.98486 0
M  V30 2685 O 249.961 -3.12733 4.77026 0
M  V30 2686 O 248.895 -1.5025 5.82845 0
M  V30 2687 H 252.721 0.253918 3.02637 0
M  V30 2688 H 250.306 0.190274 1.48183 0
M  V30 2689 H 252.188 -2.12047 3.64162 0
M  V30 2690 H 250.863 -2.12051 2.44573 0
M  V30 2691 H 249.77 -0.195544 3.73589 0
M  V30 2692 H 251.103 -0.276934 4.9142 0
M  V30 2693 N 252.755 -1.56801 0.158532 0
M  V30 2694 C 253.718 -2.16138 -0.762705 0
M  V30 2695 C 254.718 -1.1061 -1.16713 0
M  V30 2696 O 255.908 -1.36191 -1.08617 0
M  V30 2697 C 253.04 -2.73386 -2.03649 0
M  V30 2698 H 254.233 -2.98886 -0.246354 0
M  V30 2699 H 251.786 -1.56035 -0.0909744 0
M  V30 2700 H 252.521 -1.94335 -2.59623 0
M  V30 2701 H 252.306 -3.50601 -1.75559 0
M  V30 2702 H 253.796 -3.19065 -2.6942 0
M  V30 2703 N 254.233 0.115231 -1.57178 0
M  V30 2704 C 255.196 1.12526 -1.99676 0
M  V30 2705 C 256.196 1.34095 -0.88742 0
M  V30 2706 O 257.386 1.30548 -1.15337 0
M  V30 2707 C 254.518 2.4789 -2.34015 0
M  V30 2708 H 255.711 0.759912 -2.90113 0
M  V30 2709 H 253.264 0.359648 -1.52106 0
M  V30 2710 H 253.999 2.89339 -1.4647 0
M  V30 2711 H 253.784 2.33588 -3.14927 0
M  V30 2712 H 255.274 3.20575 -2.67622 0
M  V30 2713 N 255.711 1.52812 0.385517 0
M  V30 2714 C 256.957 1.68275 1.13188 0
M  V30 2715 C 257.29 0.423179 1.89533 0
M  V30 2716 O 256.565 -0.579113 1.85679 0
M  V30 2717 C 256.848 2.92001 2.1073 0
M  V30 2718 C 256.701 4.28067 1.38125 0
M  V30 2719 C 258.02 3.11283 3.11113 0
M  V30 2720 H 255.139 0.612352 0.410115 0
M  V30 2721 H 257.781 1.85415 0.414869 0
M  V30 2722 H 255.931 2.77519 2.71874 0
M  V30 2723 H 257.603 4.54324 0.799187 0
M  V30 2724 H 255.846 4.28388 0.683092 0
M  V30 2725 H 256.517 5.10733 2.09417 0
M  V30 2726 H 258.993 3.2482 2.6006 0
M  V30 2727 H 257.869 3.99325 3.76605 0
M  V30 2728 H 258.13 2.25656 3.80173 0
M  V30 2729 N 257.189 -0.644168 1.43834 0
M  V30 2730 C 258.152 -1.73857 1.49353 0
M  V30 2731 C 259.152 -1.56315 0.377112 0
M  V30 2732 O 260.342 -1.62048 0.639226 0
M  V30 2733 C 257.474 -3.12819 1.35488 0
M  V30 2734 H 258.667 -1.70342 2.46827 0
M  V30 2735 H 256.22 -0.856652 1.30733 0
M  V30 2736 H 256.955 -3.2194 0.390569 0
M  V30 2737 H 256.74 -3.26958 2.16428 0
M  V30 2738 H 258.23 -3.92606 1.42302 0
M  V30 2739 N 258.668 -1.30515 -0.883378 0
M  V30 2740 C 259.631 -1.1701 -1.97082 0
M  V30 2741 C 260.631 -0.10089 -1.60483 0
M  V30 2742 O 261.821 -0.349127 -1.70666 0
M  V30 2743 C 258.953 -0.793045 -3.31547 0
M  V30 2744 H 260.146 -2.13622 -2.10489 0
M  V30 2745 H 257.699 -1.13935 -1.06998 0
M  V30 2746 H 258.434 0.172499 -3.23841 0
M  V30 2747 H 258.219 -1.56576 -3.5948 0
M  V30 2748 H 259.709 -0.722073 -4.1131 0
M  V30 2749 N 260.146 1.09593 -1.13257 0
M  V30 2750 C 261.394 1.81375 -0.891492 0
M  V30 2751 C 261.715 1.86049 0.584009 0
M  V30 2752 O 260.985 1.34481 1.42449 0
M  V30 2753 H 259.565 0.671708 -0.326828 0
M  V30 2754 H 262.227 1.3256 -1.42877 0
M  V30 2755 H 261.323 2.84612 -1.28071 0
M  V30 2756 N 261.624 0.925811 1.2754 0
M  V30 2757 C 262.872 0.564138 1.94067 0
M  V30 2758 C 263.193 -0.897188 1.73134 0
M  V30 2759 O 262.463 -1.63573 1.07799 0
M  V30 2760 H 261.043 0.205645 0.718136 0
M  V30 2761 H 263.705 1.1778 1.55287 0
M  V30 2762 H 262.801 0.76881 3.02483 0
M  V30 2763 N 263.102 -1.41638 0.69111 0
M  V30 2764 C 264.513 -1.84346 0.295517 0
M  V30 2765 C 264.864 -1.57833 -1.16547 0
M  V30 2766 O 263.989 -1.04648 -1.89414 0
M  V30 2767 C 264.584 -3.34636 0.529575 0
M  V30 2768 C 263.143 -3.7593 0.187944 0
M  V30 2769 C 262.29 -2.65082 0.814052 0
M  V30 2770 H 265.241 -1.31253 0.892092 0
M  V30 2771 H 265.262 -3.79903 -0.213148 0
M  V30 2772 H 264.774 -3.53901 1.59297 0
M  V30 2773 H 262.875 -3.62268 -0.871367 0
M  V30 2774 H 262.988 -4.74808 0.63985 0
M  V30 2775 H 261.352 -2.53528 0.244017 0
M  V30 2776 H 262.135 -2.87167 1.88123 0
M  V30 2777 N 264.58 -0.43555 -1.51462 0
M  V30 2778 C 265.991 0.0279871 -1.86679 0
M  V30 2779 C 266.342 1.42104 -1.35281 0
M  V30 2780 O 265.467 2.04667 -0.702878 0
M  V30 2781 C 266.062 0.0575626 -3.38751 0
M  V30 2782 C 264.621 0.465507 -3.7351 0
M  V30 2783 C 263.768 -0.342996 -2.75171 0
M  V30 2784 H 266.719 -0.651473 -1.44712 0
M  V30 2785 H 266.74 0.867421 -3.70481 0
M  V30 2786 H 266.252 -0.956448 -3.7613 0
M  V30 2787 H 264.353 1.48519 -3.41721 0
M  V30 2788 H 264.466 0.191546 -4.78717 0
M  V30 2789 H 262.83 0.198442 -2.53926 0
M  V30 2790 H 263.613 -1.35585 -3.15391 0
M  V30 2791 N 266.058 1.56714 -0.166846 0
M  V30 2792 C 267.306 1.96358 0.478305 0
M  V30 2793 C 267.627 1.0537 1.6408 0
M  V30 2794 O 266.897 0.119154 1.95537 0
M  V30 2795 H 265.477 0.725065 0.179692 0
M  V30 2796 H 268.139 1.93329 -0.246985 0
M  V30 2797 H 267.235 3.00547 0.841292 0
M  V30 2798 N 267.536 -0.106894 1.57237 0
M  V30 2799 C 268.784 -0.810921 1.85117 0
M  V30 2800 C 269.105 -1.7984 0.753827 0
M  V30 2801 O 268.375 -1.94649 -0.221056 0
M  V30 2802 H 266.955 -0.302466 0.683025 0
M  V30 2803 H 269.617 -0.0913324 1.94686 0
M  V30 2804 H 268.713 -1.34875 2.81452 0
M  V30 2805 N 269.014 -1.53014 -0.377408 0
M  V30 2806 C 270.425 -1.60438 -0.954798 0
M  V30 2807 C 270.776 -0.464418 -1.90624 0
M  V30 2808 O 269.901 0.41087 -2.12464 0
M  V30 2809 C 270.496 -2.90797 -1.73847 0
M  V30 2810 C 269.055 -3.00595 -2.26538 0
M  V30 2811 C 268.202 -2.55645 -1.07429 0
M  V30 2812 H 271.153 -1.57926 -0.156575 0
M  V30 2813 H 271.174 -2.77935 -2.5987 0
M  V30 2814 H 270.686 -3.73746 -1.04574 0
M  V30 2815 H 268.787 -2.22208 -2.99089 0
M  V30 2816 H 268.9 -4.05456 -2.5523 0
M  V30 2817 H 267.264 -2.10239 -1.43777 0
M  V30 2818 H 268.047 -3.41 -0.396728 0
M  V30 2819 N 270.492 0.636531 -1.44174 0
M  V30 2820 C 271.424 1.7618 -1.46606 0
M  V30 2821 C 272.437 1.58768 -0.360091 0
M  V30 2822 O 273.626 1.67181 -0.625518 0
M  V30 2823 C 270.726 3.13833 -1.27915 0
M  V30 2824 C 269.899 3.57753 -2.51658 0
M  V30 2825 C 268.958 4.74265 -2.27945 0
M  V30 2826 O 267.984 4.82852 -3.01401 0
M  V30 2827 N 269.186 5.65604 -1.30662 0
M  V30 2828 H 271.951 1.74567 -2.43612 0
M  V30 2829 H 269.512 0.820924 -1.39544 0
M  V30 2830 H 271.504 3.8949 -1.09907 0
M  V30 2831 H 270.074 3.10121 -0.39293 0
M  V30 2832 H 269.294 2.72362 -2.84978 0
M  V30 2833 H 270.582 3.83847 -3.33974 0
M  V30 2834 H 269.98 5.61354 -0.699844 0
M  V30 2835 H 268.537 6.40913 -1.18634 0
M  V30 2836 N 271.97 1.30982 0.876444 0
M  V30 2837 C 273.216 1.20474 1.63138 0
M  V30 2838 C 273.549 -0.238096 1.92735 0
M  V30 2839 O 272.824 -1.1692 1.55435 0
M  V30 2840 C 273.107 2.04244 2.96574 0
M  V30 2841 C 272.96 3.56793 2.73896 0
M  V30 2842 C 274.279 1.88684 3.97601 0
M  V30 2843 H 271.398 0.439001 0.591985 0
M  V30 2844 H 274.04 1.60704 1.01361 0
M  V30 2845 H 272.19 1.70063 3.493 0
M  V30 2846 H 273.862 4.01077 2.27892 0
M  V30 2847 H 272.105 3.80548 2.08245 0
M  V30 2848 H 272.776 4.10706 3.68815 0
M  V30 2849 H 275.252 2.18584 3.54062 0
M  V30 2850 H 274.128 2.4961 4.88862 0
M  V30 2851 H 274.389 0.848343 4.33884 0
M  V30 2852 N 273.449 -1.08991 1.13837 0
M  V30 2853 C 274.397 -2.17841 0.815347 0
M  V30 2854 C 275.391 -1.68164 -0.204233 0
M  V30 2855 O 276.597 -1.79897 -0.0609304 0
M  V30 2856 H 272.972 -0.710654 0.245915 0
M  V30 2857 H 274.943 -2.42315 1.74143 0
M  V30 2858 C 273.692 -3.46381 0.302614 0
M  V30 2859 H 273.015 -3.84979 1.0785 0
M  V30 2860 H 274.455 -4.23844 0.115074 0
M  V30 2861 C 272.914 -3.22556 -0.972591 0
M  V30 2862 O 273.444 -3.45599 -2.04754 0
M  V30 2863 N 271.65 -2.76134 -0.905455 0
M  V30 2864 H 271.197 -2.57582 -0.0305421 0
M  V30 2865 H 271.155 -2.60571 -1.75926 0
M  V30 2866 N 274.927 -0.932562 -1.27047 0
M  V30 2867 C 276.338 -0.619451 -1.76124 0
M  V30 2868 C 276.689 0.865397 -1.76083 0
M  V30 2869 O 275.814 1.67722 -1.36742 0
M  V30 2870 C 276.409 -1.11771 -3.19832 0
M  V30 2871 C 274.968 -0.855174 -3.66557 0
M  V30 2872 C 274.115 -1.27362 -2.46321 0
M  V30 2873 H 277.066 -1.11181 -1.13245 0
M  V30 2874 H 277.087 -0.46759 -3.77616 0
M  V30 2875 H 276.599 -2.19842 -3.1983 0
M  V30 2876 H 274.7 0.211524 -3.71999 0
M  V30 2877 H 274.813 -1.47613 -4.55793 0
M  V30 2878 H 273.177 -0.692119 -2.45116 0
M  V30 2879 H 273.96 -2.36307 -2.49025 0
M  V30 2880 N 276.405 1.4127 -0.698611 0
M  V30 2881 C 277.654 2.00408 -0.227949 0
M  V30 2882 C 277.967 1.55981 1.18023 0
M  V30 2883 O 279.173 2.07699 1.74852 0
M  V30 2884 C 277.629 3.58129 -0.356636 0
M  V30 2885 C 277.237 4.11536 -1.77037 0
M  V30 2886 C 278.981 4.24466 0.0540969 0
M  V30 2887 C 276.888 5.61701 -1.85055 0
M  V30 2888 H 275.818 0.749586 -0.0814657 0
M  V30 2889 H 278.469 1.61713 -0.867249 0
M  V30 2890 H 276.851 3.94442 0.350965 0
M  V30 2891 H 278.025 3.86636 -2.50698 0
M  V30 2892 H 276.34 3.57736 -2.13105 0
M  V30 2893 H 278.937 5.34698 0.0146723 0
M  V30 2894 H 279.28 4.01687 1.09332 0
M  V30 2895 H 279.813 3.93198 -0.603337 0
M  V30 2896 H 276.552 5.89312 -2.8704 0
M  V30 2897 H 276.072 5.88519 -1.15783 0
M  V30 2898 H 277.751 6.26524 -1.61484 0
M  V30 2899 N 277.883 0.443576 1.51229 0
M  V30 2900 C 279.294 -0.0180867 1.86691 0
M  V30 2901 C 279.645 -1.41384 1.36033 0
M  V30 2902 O 278.77 -2.04291 0.713722 0
M  V30 2903 C 279.365 -0.039597 3.38777 0
M  V30 2904 C 277.924 -0.445692 3.73752 0
M  V30 2905 C 277.071 0.357584 2.74985 0
M  V30 2906 H 280.022 0.659138 1.44364 0
M  V30 2907 H 280.043 -0.847761 3.70936 0
M  V30 2908 H 279.555 0.976382 3.75617 0
M  V30 2909 H 277.656 -1.46704 3.42503 0
M  V30 2910 H 277.769 -0.166155 4.78812 0
M  V30 2911 H 276.133 -0.184973 2.54027 0
M  V30 2912 H 276.916 1.37256 3.14668 0
M  V30 2913 N 279.361 -1.56624 0.175154 0
M  V30 2914 C 280.607 -1.9729 -0.469506 0
M  V30 2915 C 280.94 -1.06128 -1.62636 0
M  V30 2916 O 280.215 -0.109183 -1.94193 0
M  V30 2917 C 280.498 -3.47375 -0.948804 0
M  V30 2918 C 280.351 -4.49317 0.208491 0
M  V30 2919 C 281.67 -4.00652 -1.82116 0
M  V30 2920 H 278.789 -0.717317 -0.16919 0
M  V30 2921 H 281.431 -1.88184 0.262062 0
M  V30 2922 H 279.581 -3.55267 -1.57219 0
M  V30 2923 H 281.253 -4.53482 0.845682 0
M  V30 2924 H 279.496 -4.25121 0.863395 0
M  V30 2925 H 280.167 -5.51741 -0.169059 0
M  V30 2926 H 282.643 -3.95416 -1.2956 0
M  V30 2927 H 281.519 -5.06075 -2.12554 0
M  V30 2928 H 281.78 -3.44699 -2.7683 0
M  V30 2929 N 280.839 0.0985539 -1.57292 0
M  V30 2930 C 282.067 0.816318 -1.90115 0
M  V30 2931 C 282.482 1.72451 -0.768509 0
M  V30 2932 O 281.839 1.80643 0.259687 0
M  V30 2933 C 281.89 1.63259 -3.22535 0
M  V30 2934 O 281.611 0.760934 -4.31441 0
M  V30 2935 C 283.112 2.45372 -3.69199 0
M  V30 2936 H 280.332 0.233595 -0.629027 0
M  V30 2937 H 282.876 0.0768229 -2.04356 0
M  V30 2938 H 281.031 2.32463 -3.09903 0
M  V30 2939 H 281.445 1.32595 -5.07463 0
M  V30 2940 H 282.919 2.98144 -4.64558 0
M  V30 2941 H 283.396 3.23677 -2.96867 0
M  V30 2942 H 284.002 1.81373 -3.84687 0
M  V30 2943 N 282.317 1.53212 0.369288 0
M  V30 2944 C 283.594 1.59815 1.12776 0
M  V30 2945 C 283.974 0.403402 2.0721 0
M  V30 2946 O 283.322 -0.606667 2.20299 0
M  V30 2947 C 283.532 2.94664 1.87013 0
M  V30 2948 C 284.88 3.49109 2.41677 0
M  V30 2949 O 285.904 2.96669 1.97144 0
M  V30 2950 O 284.763 4.40775 3.23079 0
M  V30 2951 H 281.857 0.645376 0.517125 0
M  V30 2952 H 284.403 1.65553 0.37285 0
M  V30 2953 H 283.175 3.73061 1.18071 0
M  V30 2954 H 282.798 2.92401 2.69421 0
M  V30 2955 N 283.795 -0.628877 1.44509 0
M  V30 2956 C 284.705 -1.7694 1.54044 0
M  V30 2957 C 285.721 -1.68705 0.425987 0
M  V30 2958 O 286.897 -1.89442 0.683656 0
M  V30 2959 C 283.962 -3.13332 1.48405 0
M  V30 2960 C 283.023 -3.33181 2.70719 0
M  V30 2961 C 282.256 -4.63067 2.6534 0
M  V30 2962 O 282.479 -5.44017 1.71469 0
M  V30 2963 O 281.413 -4.85167 3.56226 0
M  V30 2964 H 285.239 -1.71848 2.50403 0
M  V30 2965 H 282.824 -0.790378 1.26781 0
M  V30 2966 H 284.706 -3.94634 1.47791 0
M  V30 2967 H 283.381 -3.1896 0.551898 0
M  V30 2968 H 282.288 -2.51549 2.769 0
M  V30 2969 H 283.621 -3.32416 3.62988 0
M  V30 2970 N 285.273 -1.31445 -0.869486 0
M  V30 2971 C 286.519 -1.21337 -1.62496 0
M  V30 2972 C 286.852 0.227872 -1.92858 0
M  V30 2973 O 286.127 1.16094 -1.56053 0
M  V30 2974 C 286.41 -2.05814 -2.95487 0
M  V30 2975 C 286.263 -3.5824 -2.72 0
M  V30 2976 C 287.582 -1.9079 -3.96594 0
M  V30 2977 H 284.701 -0.442135 -0.589649 0
M  V30 2978 H 287.343 -1.6124 -1.00507 0
M  V30 2979 H 285.493 -1.71913 -3.48394 0
M  V30 2980 H 287.165 -4.0228 -2.25762 0
M  V30 2981 H 285.408 -3.81647 -2.06224 0
M  V30 2982 H 286.079 -4.12657 -3.66631 0
M  V30 2983 H 288.555 -2.20459 -3.52898 0
M  V30 2984 H 287.431 -2.52199 -4.87531 0
M  V30 2985 H 287.692 -0.871341 -4.33428 0
M  V30 2986 N 286.751 1.08385 -1.14413 0
M  V30 2987 C 287.997 1.81044 -0.913834 0
M  V30 2988 C 288.33 1.86004 0.558209 0
M  V30 2989 O 287.605 1.33606 1.4135 0
M  V30 2990 C 287.888 3.26648 -1.51569 0
M  V30 2991 C 287.741 3.29895 -3.0576 0
M  V30 2992 C 289.06 4.23629 -1.19273 0
M  V30 2993 H 286.179 0.65727 -0.333414 0
M  V30 2994 H 288.821 1.26896 -1.41412 0
M  V30 2995 H 286.971 3.72889 -1.09023 0
M  V30 2996 H 288.643 2.91977 -3.57137 0
M  V30 2997 H 286.886 2.69163 -3.40197 0
M  V30 2998 H 287.557 4.32516 -3.42977 0
M  V30 2999 H 290.033 3.85727 -1.56057 0
M  V30 3000 H 288.909 5.23822 -1.64017 0
M  V30 3001 H 289.17 4.41968 -0.108068 0
M  V30 3002 O 288.268 1.07005 1.20964 0
M  V30 3003 H 288.959 0.754737 1.78391 0
M  V30 END ATOM
M  V30 BEGIN BOND
M  V30 END BOND
M  V30 END CTAB
M  END
$$$$
