drugbank_target|P13568 Multidrug resistance protein (DB11638)
 OpenBabel12092121093D

  0  0  0     0  0            999 V3000
M  V30 BEGIN CTAB
M  V30 COUNTS 22964 23168 0 0 0
M  V30 BEGIN ATOM
M  V30 1 H -0.908 1.98254 -0.117106 0
M  V30 2 N 0 1.576 0 0
M  V30 3 C 0.933 2.03868 1.02534 0
M  V30 4 C 1.911 0.928543 1.3348 0
M  V30 5 O 3.095 1.19667 1.45644 0
M  V30 6 C 0.222 2.43627 2.35294 0
M  V30 7 C -0.732 3.65373 2.2001 0
M  V30 8 S 0.101 5.13292 1.52614 0
M  V30 9 C 1.257 5.56322 2.86805 0
M  V30 10 H 1.49 2.90518 0.631377 0
M  V30 11 H -0.977 1.52953 0.210867 0
M  V30 12 H 0.981 2.67203 3.11629 0
M  V30 13 H -0.358 1.57376 2.7183 0
M  V30 14 H -1.165 3.90944 3.18086 0
M  V30 15 H -1.563 3.418 1.51819 0
M  V30 16 H 0.729 5.58782 3.83104 0
M  V30 17 H 1.672 6.56266 2.65933 0
M  V30 18 H 2.08 4.83886 2.90714 0
M  V30 19 N 1.4781 -0.272755 1.55222 0
M  V30 20 C 2.7261 -1.00234 1.75492 0
M  V30 21 C 3.0471 -1.8681 0.5592 0
M  V30 22 O 2.3171 -1.91215 -0.425882 0
M  V30 23 H 0.8971 -0.373076 0.647166 0
M  V30 24 H 3.5591 -0.296926 1.92625 0
M  V30 25 H 2.6551 -1.63913 2.65592 0
M  V30 26 N 2.9562 -1.48159 -0.537278 0
M  V30 27 C 3.9032 -1.62138 -1.64256 0
M  V30 28 C 4.8732 -0.463668 -1.59497 0
M  V30 29 O 6.0582 -0.686241 -1.78032 0
M  V30 30 C 3.1982 -1.66028 -3.02537 0
M  V30 31 C 2.3112 -2.92855 -3.17585 0
M  V30 32 C 1.4462 -2.87952 -4.46382 0
M  V30 33 C 0.4852 -4.09516 -4.54932 0
M  V30 34 N -0.3778 -4.02733 -5.75109 0
M  V30 35 H 4.4622 -2.56529 -1.51647 0
M  V30 36 H 1.9992 -1.27224 -0.738414 0
M  V30 37 H 3.9572 -1.66265 -3.82638 0
M  V30 38 H 2.5872 -0.751331 -3.13934 0
M  V30 39 H 1.6392 -3.02395 -2.30784 0
M  V30 40 H 2.9512 -3.82822 -3.19764 0
M  V30 41 H 2.1052 -2.8655 -5.34765 0
M  V30 42 H 0.8442 -1.95702 -4.46712 0
M  V30 43 H -0.1508 -4.11201 -3.64957 0
M  V30 44 H 1.0742 -5.02917 -4.56346 0
M  V30 45 H -0.9798 -3.13299 -5.76351 0
M  V30 46 H -1.0628 -4.86397 -5.78752 0
M  V30 47 H 0.2052 -4.05379 -6.65799 0
M  V30 48 N 4.4343 0.785586 -1.36625 0
M  V30 49 C 5.3443 1.92964 -1.33425 0
M  V30 50 C 6.3603 1.72394 -0.235851 0
M  V30 51 O 7.5363 1.95866 -0.468878 0
M  V30 52 C 4.6013 3.27884 -1.12662 0
M  V30 53 C 3.6623 3.61204 -2.32013 0
M  V30 54 C 2.8953 4.89687 -2.12231 0
M  V30 55 O 3.1183 5.59704 -1.09945 0
M  V30 56 O 2.0523 5.21752 -3.00098 0
M  V30 57 H 5.8783 1.98613 -2.29753 0
M  V30 58 H 3.4633 0.926384 -1.17211 0
M  V30 59 H 5.3453 4.08614 -1.03016 0
M  V30 60 H 4.0203 3.23118 -0.193991 0
M  V30 61 H 2.9273 2.80765 -2.47228 0
M  V30 62 H 4.2603 3.70698 -3.23796 0
M  V30 63 N 5.9124 1.20967 1.01018 0
M  V30 64 C 6.8444 0.922059 2.09835 0
M  V30 65 C 7.8574 -0.0927106 1.62536 0
M  V30 66 O 9.0464 0.139127 1.77957 0
M  V30 67 C 6.1464 0.362004 3.36961 0
M  V30 68 C 5.3194 1.42986 4.13369 0
M  V30 69 C 4.3784 0.879976 5.1879 0
M  V30 70 O 3.4044 1.56219 5.47343 0
M  V30 71 N 4.6064 -0.307396 5.79686 0
M  V30 72 H 7.3714 1.8588 2.35093 0
M  V30 73 H 4.9324 1.11422 1.1746 0
M  V30 74 H 6.9244 -0.0201474 4.04695 0
M  V30 75 H 5.4944 -0.479437 3.08902 0
M  V30 76 H 4.7144 1.98608 3.40512 0
M  V30 77 H 6.0024 2.14885 4.61196 0
M  V30 78 H 5.4004 -0.878796 5.58832 0
M  V30 79 H 3.9574 -0.631115 6.48737 0
M  V30 80 N 7.3905 -1.2043 1.01659 0
M  V30 81 C 8.3375 -2.23215 0.586822 0
M  V30 82 C 9.3075 -1.61382 -0.393085 0
M  V30 83 O 10.4925 -1.88544 -0.292525 0
M  V30 84 C 7.6325 -3.45032 -0.0687464 0
M  V30 85 C 6.7455 -4.21296 0.955724 0
M  V30 86 C 5.8805 -5.30507 0.271208 0
M  V30 87 C 4.9195 -5.98515 1.28244 0
M  V30 88 N 4.0565 -6.99316 0.62459 0
M  V30 89 H 8.8965 -2.59336 1.46796 0
M  V30 90 H 6.4335 -1.27431 0.734836 0
M  V30 91 H 8.3915 -4.1459 -0.465965 0
M  V30 92 H 7.0215 -3.09604 -0.913529 0
M  V30 93 H 6.0735 -3.50803 1.4711 0
M  V30 94 H 7.3855 -4.6803 1.72479 0
M  V30 95 H 6.5395 -6.06428 -0.18151 0
M  V30 96 H 5.2785 -4.8481 -0.530163 0
M  V30 97 H 4.2835 -5.21355 1.74554 0
M  V30 98 H 5.5085 -6.46298 2.08509 0
M  V30 99 H 3.4545 -6.55812 -0.156914 0
M  V30 100 H 3.3715 -7.44178 1.33172 0
M  V30 101 H 4.6395 -7.79255 0.195462 0
M  V30 102 N 8.8686 -0.792821 -1.36206 0
M  V30 103 C 9.7786 -0.194808 -2.3379 0
M  V30 104 C 10.7946 0.654869 -1.61206 0
M  V30 105 O 11.9706 0.569856 -1.9317 0
M  V30 106 C 9.0356 0.657721 -3.40404 0
M  V30 107 C 8.0966 -0.210849 -4.28782 0
M  V30 108 C 7.3296 0.601086 -5.30304 0
M  V30 109 O 7.5526 1.83682 -5.40016 0
M  V30 110 O 6.4866 -0.000808277 -6.019 0
M  V30 111 H 10.3126 -1.00172 -2.86704 0
M  V30 112 H 7.8976 -0.554341 -1.38735 0
M  V30 113 H 9.7796 1.14375 -4.05581 0
M  V30 114 H 8.4546 1.44247 -2.89784 0
M  V30 115 H 7.3616 -0.743714 -3.66633 0
M  V30 116 H 8.6946 -0.959195 -4.82763 0
M  V30 117 N 10.3467 1.47872 -0.545128 0
M  V30 118 C 11.2937 2.29849 0.2093 0
M  V30 119 C 12.2637 1.38313 0.919707 0
M  V30 120 O 13.4487 1.67277 0.917772 0
M  V30 121 C 10.5887 3.22019 1.24088 0
M  V30 122 C 9.7017 4.2864 0.537778 0
M  V30 123 C 8.8367 5.07973 1.5536 0
M  V30 124 C 7.8757 6.06381 0.8348 0
M  V30 125 N 7.0127 6.78717 1.79688 0
M  V30 126 H 11.8527 2.93845 -0.49591 0
M  V30 127 H 9.3897 1.44848 -0.256389 0
M  V30 128 H 11.3477 3.73868 1.85144 0
M  V30 129 H 9.9777 2.59914 1.91428 0
M  V30 130 H 9.0297 3.7994 -0.187046 0
M  V30 131 H 10.3417 4.98793 -0.0258907 0
M  V30 132 H 9.4957 5.63912 2.23803 0
M  V30 133 H 8.2347 4.37693 2.15118 0
M  V30 134 H 7.2397 5.49631 0.136388 0
M  V30 135 H 8.4647 6.78665 0.24313 0
M  V30 136 H 6.4107 6.11177 2.38326 0
M  V30 137 H 6.3277 7.44998 1.28505 0
M  V30 138 H 7.5957 7.39237 2.47282 0
M  V30 139 N 11.8248 0.280983 1.55075 0
M  V30 140 C 12.7718 -0.603937 2.22758 0
M  V30 141 C 13.7418 -1.1452 1.20309 0
M  V30 142 O 14.9268 -1.19343 1.48869 0
M  V30 143 C 12.0668 -1.77947 2.95684 0
M  V30 144 C 11.1798 -1.2715 4.12864 0
M  V30 145 C 10.3148 -2.4093 4.7342 0
M  V30 146 C 9.3538 -1.87165 5.82783 0
M  V30 147 N 8.4908 -2.94441 6.37377 0
M  V30 148 H 13.3308 -0.020124 2.97993 0
M  V30 149 H 10.8678 0.00183425 1.471 0
M  V30 150 H 12.8258 -2.47055 3.36184 0
M  V30 151 H 11.4558 -2.33522 2.22861 0
M  V30 152 H 10.5078 -0.473331 3.77444 0
M  V30 153 H 11.8198 -0.837751 4.91715 0
M  V30 154 H 10.9738 -3.18021 5.1667 0
M  V30 155 H 9.7128 -2.87623 3.93859 0
M  V30 156 H 8.7178 -1.08556 5.38976 0
M  V30 157 H 9.9428 -1.41401 6.64216 0
M  V30 158 H 7.8888 -3.40505 5.60707 0
M  V30 159 H 7.8058 -2.55501 7.11516 0
M  V30 160 H 9.0738 -3.71489 6.85285 0
M  V30 161 N 13.3029 -1.57598 0.00835791 0
M  V30 162 C 14.5799 -1.82172 -0.712235 0
M  V30 163 C 14.9599 -0.887873 -1.9152 0
M  V30 164 O 14.3079 0.06146 -2.28417 0
M  V30 165 C 14.5179 -3.30875 -1.11008 0
M  V30 166 C 15.8659 -3.96826 -1.51044 0
M  V30 167 O 16.8899 -3.35248 -1.20364 0
M  V30 168 O 15.7489 -5.05318 -2.08125 0
M  V30 169 H 12.8429 -0.750435 -0.347529 0
M  V30 170 H 15.3889 -1.69665 0.0344523 0
M  V30 171 H 14.1609 -3.90481 -0.252982 0
M  V30 172 H 13.7839 -3.48412 -1.9156 0
M  V30 173 N 14.781 0.264519 -1.55364 0
M  V30 174 C 16.029 0.993021 -1.76021 0
M  V30 175 C 16.35 1.86511 -0.569099 0
M  V30 176 O 15.62 1.91438 0.415735 0
M  V30 177 H 14.2 0.369639 -0.649135 0
M  V30 178 H 16.862 0.286707 -1.9278 0
M  V30 179 H 15.958 1.62502 -2.66457 0
M  V30 180 N 16.2591 1.48442 0.529413 0
M  V30 181 C 17.2071 1.63452 1.65487 0
M  V30 182 C 18.2011 0.500955 1.61823 0
M  V30 183 O 19.4071 0.679695 1.66674 0
M  V30 184 H 15.7821 0.514905 0.548066 0
M  V30 185 H 17.7531 2.57975 1.49971 0
M  V30 186 C 16.5021 1.69196 3.03756 0
M  V30 187 H 15.8251 2.55784 3.07269 0
M  V30 188 H 17.2651 1.83743 3.82119 0
M  V30 189 C 15.7241 0.430765 3.34135 0
M  V30 190 O 16.2541 -0.4561 3.99102 0
M  V30 191 N 14.4601 0.302293 2.89023 0
M  V30 192 H 14.0071 1.02496 2.36331 0
M  V30 193 H 13.9651 -0.540546 3.09718 0
M  V30 194 N 17.7372 -0.778329 1.37039 0
M  V30 195 C 18.6672 -1.90546 1.34962 0
M  V30 196 C 19.6482 -1.68681 0.219274 0
M  V30 197 O 20.8332 -1.89634 0.418624 0
M  V30 198 C 17.9632 -3.27734 1.14925 0
M  V30 199 C 16.9172 -3.64147 2.24902 0
M  V30 200 C 16.2432 -4.99806 1.89996 0
M  V30 201 C 17.5432 -3.71579 3.67051 0
M  V30 202 H 19.2372 -1.92541 2.29277 0
M  V30 203 H 16.7832 -0.924948 1.10366 0
M  V30 204 H 18.7362 -4.06215 1.12104 0
M  V30 205 H 17.4602 -3.26154 0.170631 0
M  V30 206 H 16.1192 -2.8797 2.26868 0
M  V30 207 H 15.7672 -4.94759 0.906796 0
M  V30 208 H 15.4672 -5.25139 2.63634 0
M  V30 209 H 16.9912 -5.80694 1.88749 0
M  V30 210 H 18.4052 -4.40227 3.67251 0
M  V30 211 H 16.8022 -4.08405 4.39688 0
M  V30 212 H 17.8722 -2.72404 4.01154 0
M  V30 213 N 19.2153 -1.21501 -1.00376 0
M  V30 214 C 20.4403 -1.05977 -1.78279 0
M  V30 215 C 20.8653 0.385994 -1.84097 0
M  V30 216 O 20.2233 1.27849 -1.28547 0
M  V30 217 C 20.2713 -1.66302 -3.19963 0
M  V30 218 O 19.3753 -0.909333 -4.0225 0
M  V30 219 H 18.7163 -0.372906 -0.549397 0
M  V30 220 H 21.2463 -1.6107 -1.26165 0
M  V30 221 H 21.2563 -1.70574 -3.70632 0
M  V30 222 H 19.9313 -2.71515 -3.15043 0
M  V30 223 H 18.5083 -0.941795 -3.60811 0
M  V30 224 N 20.6934 1.19889 -1.02296 0
M  V30 225 C 21.9424 1.88743 -0.711257 0
M  V30 226 C 22.2554 1.80112 0.762817 0
M  V30 227 O 23.4614 2.44161 1.18733 0
M  V30 228 C 21.9174 3.38525 -1.22185 0
M  V30 229 C 21.5254 3.55727 -2.72328 0
M  V30 230 C 23.2694 4.12893 -0.985864 0
M  V30 231 C 21.1764 4.99369 -3.16835 0
M  V30 232 H 20.1064 0.706885 -0.262353 0
M  V30 233 H 22.7574 1.35586 -1.23648 0
M  V30 234 H 21.1394 3.91044 -0.624571 0
M  V30 235 H 22.3134 3.13564 -3.3766 0
M  V30 236 H 20.6284 2.94739 -2.9414 0
M  V30 237 H 23.2254 5.18813 -1.29374 0
M  V30 238 H 23.5684 4.16228 0.0775055 0
M  V30 239 H 24.1014 3.66494 -1.54684 0
M  V30 240 H 20.8404 5.01193 -4.22476 0
M  V30 241 H 20.3604 5.42317 -2.56228 0
M  V30 242 H 22.0394 5.67988 -3.09837 0
M  V30 243 N 22.1715 0.800033 1.35784 0
M  V30 244 C 23.1185 0.203848 2.29898 0
M  V30 245 C 24.0885 -0.658375 1.52495 0
M  V30 246 O 25.2735 -0.604832 1.8096 0
M  V30 247 C 22.4135 -0.64688 3.38983 0
M  V30 248 C 21.5265 0.235054 4.3136 0
M  V30 249 C 20.6615 -0.623054 5.27533 0
M  V30 250 C 19.7005 0.259682 6.11549 0
M  V30 251 N 18.8375 -0.558019 6.99879 0
M  V30 252 H 23.6775 1.01186 2.80295 0
M  V30 253 H 21.2145 0.51053 1.37957 0
M  V30 254 H 23.1725 -1.15521 4.00887 0
M  V30 255 H 21.8025 -1.42021 2.89879 0
M  V30 256 H 20.8545 0.861438 3.70518 0
M  V30 257 H 22.1665 0.914768 4.9034 0
M  V30 258 H 21.3205 -1.19678 5.94779 0
M  V30 259 H 20.0595 -1.33636 4.69034 0
M  V30 260 H 19.0645 0.845726 5.43256 0
M  V30 261 H 20.2895 0.970748 6.72126 0
M  V30 262 H 18.2355 -1.25542 6.43875 0
M  V30 263 H 18.1525 0.0637872 7.55973 0
M  V30 264 H 19.4205 -1.11523 7.71481 0
M  V30 265 N 23.6496 -1.47581 0.552962 0
M  V30 266 C 24.5596 -2.33743 -0.200353 0
M  V30 267 C 25.5756 -1.47928 -0.916151 0
M  V30 268 O 26.7516 -1.80865 -0.885993 0
M  V30 269 C 23.8166 -3.24536 -1.21973 0
M  V30 270 C 22.8776 -4.26238 -0.511819 0
M  V30 271 C 22.1106 -5.12693 -1.48263 0
M  V30 272 O 22.3336 -5.01525 -2.71714 0
M  V30 273 O 21.2676 -5.93375 -1.00945 0
M  V30 274 H 25.0936 -2.9945 0.506304 0
M  V30 275 H 22.6786 -1.46071 0.313622 0
M  V30 276 H 24.5606 -3.80631 -1.80827 0
M  V30 277 H 23.2356 -2.61462 -1.90839 0
M  V30 278 H 22.1426 -3.73914 0.117799 0
M  V30 279 H 23.4756 -4.92014 0.135308 0
M  V30 280 N 25.1277 -0.289203 -1.54924 0
M  V30 281 C 26.0377 0.601863 -2.26748 0
M  V30 282 C 27.0537 1.15834 -1.2984 0
M  V30 283 O 28.2297 1.18564 -1.62802 0
M  V30 284 C 25.2947 1.76299 -2.98529 0
M  V30 285 C 24.3557 1.24178 -4.10948 0
M  V30 286 C 23.5887 2.34757 -4.79296 0
M  V30 287 O 23.8117 3.54411 -4.46933 0
M  V30 288 O 22.7457 2.02115 -5.66951 0
M  V30 289 H 26.5717 0.0195879 -3.03694 0
M  V30 290 H 24.1567 -0.0560868 -1.49295 0
M  V30 291 H 26.0387 2.43973 -3.43592 0
M  V30 292 H 24.7137 2.33209 -2.24488 0
M  V30 293 H 23.6207 0.531104 -3.70311 0
M  V30 294 H 24.9537 0.718252 -4.86931 0
M  V30 295 N 26.6058 1.57591 -0.0167156 0
M  V30 296 C 27.8518 1.91567 0.665582 0
M  V30 297 C 28.1848 0.892298 1.72487 0
M  V30 298 O 27.4598 -0.0867127 1.94307 0
M  V30 299 C 27.7428 3.36069 1.29342 0
M  V30 300 C 27.5958 4.49135 0.244541 0
M  V30 301 C 28.9148 3.803 2.21495 0
M  V30 302 H 26.0338 0.69666 0.240488 0
M  V30 303 H 28.6758 1.89866 -0.0714356 0
M  V30 304 H 26.8258 3.3765 1.92158 0
M  V30 305 H 28.4978 4.59689 -0.385228 0
M  V30 306 H 26.7408 4.3165 -0.431379 0
M  V30 307 H 27.4118 5.47242 0.723207 0
M  V30 308 H 29.8878 3.80377 1.68678 0
M  V30 309 H 28.7638 4.82127 2.62382 0
M  V30 310 H 29.0248 3.15104 3.101 0
M  V30 311 N 28.0839 -0.256276 1.55502 0
M  V30 312 C 28.9939 -1.33882 1.92647 0
M  V30 313 C 30.0099 -1.53159 0.825727 0
M  V30 314 O 31.1859 -1.66963 1.12629 0
M  V30 315 C 28.2509 -2.6751 2.20543 0
M  V30 316 C 27.3119 -2.56836 3.43997 0
M  V30 317 C 26.5449 -3.84092 3.70553 0
M  V30 318 O 26.7679 -4.85545 2.99336 0
M  V30 319 O 25.7019 -3.83288 4.64084 0
M  V30 320 H 29.5279 -1.05374 2.84833 0
M  V30 321 H 27.1129 -0.456237 1.42263 0
M  V30 322 H 28.9949 -3.46492 2.39835 0
M  V30 323 H 27.6699 -2.9577 1.31536 0
M  V30 324 H 26.5769 -1.76172 3.30021 0
M  V30 325 H 27.9099 -2.33523 4.33275 0
M  V30 326 N 29.562 -1.4872 -0.521534 0
M  V30 327 C 30.509 -1.63871 -1.62527 0
M  V30 328 C 31.479 -0.480559 -1.58996 0
M  V30 329 O 32.664 -0.705085 -1.77294 0
M  V30 330 C 29.804 -1.69227 -3.00759 0
M  V30 331 C 28.917 -2.96207 -3.14461 0
M  V30 332 C 28.052 -2.92671 -4.43303 0
M  V30 333 C 27.091 -4.14318 -4.50563 0
M  V30 334 N 26.228 -4.0881 -5.70805 0
M  V30 335 H 31.068 -2.58123 -1.48918 0
M  V30 336 H 28.605 -1.28 -0.724878 0
M  V30 337 H 30.563 -1.70314 -3.80853 0
M  V30 338 H 29.193 -0.784586 -3.1312 0
M  V30 339 H 28.245 -3.04826 -2.27564 0
M  V30 340 H 29.557 -3.86192 -3.15686 0
M  V30 341 H 28.711 -2.92206 -5.31696 0
M  V30 342 H 27.45 -2.00429 -4.44612 0
M  V30 343 H 26.455 -4.15049 -3.60575 0
M  V30 344 H 27.68 -5.07729 -4.50986 0
M  V30 345 H 25.626 -3.19394 -5.72995 0
M  V30 346 H 25.543 -4.92509 -5.7356 0
M  V30 347 H 26.811 -4.12418 -6.61462 0
M  V30 348 N 31.0401 0.771051 -1.3745 0
M  V30 349 C 31.9501 1.91538 -1.35464 0
M  V30 350 C 32.9661 1.72134 -0.254123 0
M  V30 351 O 34.1421 1.95358 -0.489626 0
M  V30 352 C 31.2071 3.26671 -1.16134 0
M  V30 353 C 30.2681 3.58723 -2.35831 0
M  V30 354 C 29.5011 4.87409 -2.17413 0
M  V30 355 O 29.7241 5.58506 -1.15876 0
M  V30 356 O 28.6581 5.18539 -3.05615 0
M  V30 357 H 32.4841 1.96165 -2.31847 0
M  V30 358 H 30.0691 0.9139 -1.18187 0
M  V30 359 H 31.9511 4.07499 -1.07345 0
M  V30 360 H 30.6261 3.22894 -0.228251 0
M  V30 361 H 29.5331 2.78127 -2.50192 0
M  V30 362 H 30.8661 3.67243 -3.27709 0
M  V30 363 N 32.5182 1.22032 0.997298 0
M  V30 364 C 33.4482 1.01065 2.10495 0
M  V30 365 C 34.4292 -0.0669542 1.69968 0
M  V30 366 O 35.6142 0.0943987 1.9397 0
M  V30 367 C 32.7442 0.582874 3.42374 0
M  V30 368 C 31.6982 1.60592 3.96729 0
M  V30 369 C 31.0242 1.03412 5.24605 0
M  V30 370 C 32.3242 2.99478 4.27914 0
M  V30 371 H 34.0182 1.93708 2.28292 0
M  V30 372 H 31.5642 0.932761 1.09707 0
M  V30 373 H 33.5172 0.423332 4.19268 0
M  V30 374 H 32.2412 -0.379213 3.24391 0
M  V30 375 H 30.9002 1.75316 3.21963 0
M  V30 376 H 30.5482 0.063518 5.0296 0
M  V30 377 H 30.2482 1.71754 5.61938 0
M  V30 378 H 31.7722 0.886066 6.04137 0
M  V30 379 H 33.1862 2.88153 4.95622 0
M  V30 380 H 31.5832 3.64903 4.76409 0
M  V30 381 H 32.6532 3.49742 3.3587 0
M  V30 382 N 33.9963 -1.19345 1.0293 0
M  V30 383 C 34.9443 -2.24621 0.604001 0
M  V30 384 C 35.9383 -1.65452 -0.363587 0
M  V30 385 O 37.1443 -1.78497 -0.23212 0
M  V30 386 H 33.5193 -0.730858 0.177061 0
M  V30 387 H 35.4903 -2.5781 1.50255 0
M  V30 388 C 34.2393 -3.47688 -0.0289127 0
M  V30 389 H 33.5623 -3.93505 0.706651 0
M  V30 390 H 35.0023 -4.23011 -0.289432 0
M  V30 391 C 33.4613 -3.11817 -1.2756 0
M  V30 392 O 33.9913 -3.2451 -2.36762 0
M  V30 393 N 32.1973 -2.66246 -1.16453 0
M  V30 394 H 31.7443 -2.56118 -0.275914 0
M  V30 395 H 31.7023 -2.42617 -1.99961 0
M  V30 396 N 35.4744 -0.807222 -1.35358 0
M  V30 397 C 36.4214 -0.216037 -2.29787 0
M  V30 398 C 37.3914 0.650278 -1.52842 0
M  V30 399 O 38.5764 0.595227 -1.81278 0
M  V30 400 C 35.7164 0.628893 -3.39321 0
M  V30 401 C 34.8294 -0.257927 -4.31229 0
M  V30 402 C 33.9644 0.595069 -5.27856 0
M  V30 403 C 33.0034 -0.292111 -6.11403 0
M  V30 404 N 32.1404 0.520895 -7.00165 0
M  V30 405 H 36.9804 -1.02671 -2.79755 0
M  V30 406 H 34.5174 -0.517839 -1.37684 0
M  V30 407 H 36.4754 1.13393 -4.01494 0
M  V30 408 H 35.1054 1.40482 -2.90628 0
M  V30 409 H 34.1574 -0.881076 -3.70056 0
M  V30 410 H 35.4694 -0.940759 -4.89848 0
M  V30 411 H 34.6234 1.16522 -5.95405 0
M  V30 412 H 33.3624 1.31146 -4.69736 0
M  V30 413 H 32.3674 -0.874525 -5.428 0
M  V30 414 H 33.5924 -1.00638 -6.71602 0
M  V30 415 H 31.5384 1.22125 -6.44532 0
M  V30 416 H 31.4554 -0.103877 -7.55929 0
M  V30 417 H 32.7234 1.0743 -7.72062 0
M  V30 418 N 36.9525 1.47285 -0.560781 0
M  V30 419 C 37.8995 2.30058 0.18491 0
M  V30 420 C 38.8695 1.39281 0.904986 0
M  V30 421 O 40.0545 1.68241 0.899979 0
M  V30 422 C 37.1945 3.23317 1.20666 0
M  V30 423 C 36.3075 4.29186 0.492285 0
M  V30 424 C 35.4425 5.09592 1.49964 0
M  V30 425 C 34.4815 6.07232 0.770439 0
M  V30 426 N 33.6185 6.80584 1.72479 0
M  V30 427 H 38.4585 2.93302 -0.527048 0
M  V30 428 H 35.9955 1.44568 -0.271738 0
M  V30 429 H 37.9535 3.75811 1.81168 0
M  V30 430 H 36.5835 2.61929 1.88661 0
M  V30 431 H 35.6355 3.7972 -0.227333 0
M  V30 432 H 36.9475 4.98738 -0.0787929 0
M  V30 433 H 36.1015 5.66254 2.17809 0
M  V30 434 H 34.8405 4.3995 2.10464 0
M  V30 435 H 33.8455 5.49745 0.0780846 0
M  V30 436 H 35.0705 6.78884 0.171134 0
M  V30 437 H 33.0165 6.1367 2.3183 0
M  V30 438 H 32.9335 7.46319 1.20596 0
M  V30 439 H 34.2015 7.41818 2.39428 0
M  V30 440 N 38.4306 0.297415 1.54768 0
M  V30 441 C 39.6556 -0.318435 2.04941 0
M  V30 442 C 40.0806 -1.4701 1.17345 0
M  V30 443 O 39.4386 -1.80436 0.176758 0
M  V30 444 C 39.4866 -0.755749 3.52592 0
M  V30 445 O 38.5906 -1.86088 3.68028 0
M  V30 446 H 37.9316 -0.062421 0.661059 0
M  V30 447 H 40.4616 0.438215 1.99852 0
M  V30 448 H 40.4716 -1.04552 3.94376 0
M  V30 449 H 39.1466 0.0867233 4.1581 0
M  V30 450 H 37.7236 -1.57193 3.38149 0
M  V30 451 N 39.9087 -1.5758 0.0250728 0
M  V30 452 C 41.1367 -1.9593 -0.664747 0
M  V30 453 C 41.5517 -0.901352 -1.65895 0
M  V30 454 O 40.9087 0.117255 -1.82123 0
M  V30 455 C 40.9597 -3.34342 -1.37468 0
M  V30 456 O 40.6807 -4.36079 -0.420324 0
M  V30 457 C 42.1817 -3.873 -2.1567 0
M  V30 458 H 39.4017 -0.645405 -0.183557 0
M  V30 459 H 41.9457 -2.04329 0.0836372 0
M  V30 460 H 40.1007 -3.27175 -2.0745 0
M  V30 461 H 40.5147 -5.16297 -0.923991 0
M  V30 462 H 41.9887 -4.86504 -2.60803 0
M  V30 463 H 42.4657 -3.21331 -2.99405 0
M  V30 464 H 43.0717 -3.97723 -1.50654 0
M  V30 465 N 41.3868 0.248026 -1.55636 0
M  V30 466 C 42.3498 1.29044 -1.89421 0
M  V30 467 C 43.3498 1.41134 -0.770581 0
M  V30 468 O 44.5398 1.39854 -1.03858 0
M  V30 469 C 41.6718 2.66831 -2.12165 0
M  V30 470 H 42.8648 1.00305 -2.82629 0
M  V30 471 H 40.4178 0.487265 -1.48511 0
M  V30 472 H 41.1528 3.00711 -1.21422 0
M  V30 473 H 40.9378 2.59438 -2.93997 0
M  V30 474 H 42.4278 3.42103 -2.3949 0
M  V30 475 N 42.8649 1.48995 0.513639 0
M  V30 476 C 43.7749 1.67443 1.64317 0
M  V30 477 C 44.7909 0.556947 1.64846 0
M  V30 478 O 45.9669 0.830082 1.83498 0
M  V30 479 C 43.0319 1.72515 3.00732 0
M  V30 480 C 42.0929 2.96009 3.1093 0
M  V30 481 C 41.3259 3.00829 4.40837 0
M  V30 482 O 41.5489 2.13594 5.28898 0
M  V30 483 O 40.4829 3.93168 4.55744 0
M  V30 484 H 44.3089 2.63106 1.51687 0
M  V30 485 H 41.8939 1.32588 0.688543 0
M  V30 486 H 43.7759 1.78277 3.81831 0
M  V30 487 H 42.4509 0.800278 3.13651 0
M  V30 488 H 41.3579 2.9577 2.29065 0
M  V30 489 H 42.6909 3.87934 3.02933 0
M  V30 490 N 44.343 -0.763751 1.37857 0
M  V30 491 C 45.273 -1.89103 1.36975 0
M  V30 492 C 46.254 -1.68439 0.237152 0
M  V30 493 O 47.439 -1.8918 0.438713 0
M  V30 494 C 44.569 -3.26496 1.18395 0
M  V30 495 C 43.523 -3.61741 2.28751 0
M  V30 496 C 42.849 -4.97762 1.95286 0
M  V30 497 C 44.149 -3.67665 3.70972 0
M  V30 498 H 45.843 -1.90099 2.31307 0
M  V30 499 H 43.389 -0.91319 1.11341 0
M  V30 500 H 45.342 -4.05003 1.16406 0
M  V30 501 H 44.066 -3.25955 0.205215 0
M  V30 502 H 42.725 -2.85547 2.29909 0
M  V30 503 H 42.373 -4.93769 0.959221 0
M  V30 504 H 42.073 -5.22313 2.69189 0
M  V30 505 H 43.597 -5.7866 1.94898 0
M  V30 506 H 45.011 -4.36307 3.719 0
M  V30 507 H 43.408 -4.03718 4.43995 0
M  V30 508 H 44.478 -2.68134 4.0402 0
M  V30 509 N 45.8211 -1.22559 -0.990812 0
M  V30 510 C 47.0681 -1.05141 -1.73065 0
M  V30 511 C 47.3961 0.413191 -1.9006 0
M  V30 512 O 46.6511 1.32257 -1.44245 0
M  V30 513 C 46.9501 -1.71011 -3.13831 0
M  V30 514 C 46.6161 -3.20911 -3.16745 0
M  V30 515 C 45.2781 -3.61812 -3.17247 0
M  V30 516 C 47.6301 -4.16846 -3.12872 0
M  V30 517 C 44.9581 -4.97127 -3.1158 0
M  V30 518 C 47.3101 -5.5214 -3.08746 0
M  V30 519 C 45.9741 -5.92419 -3.07565 0
M  V30 520 H 45.2441 -0.384738 -0.633291 0
M  V30 521 H 47.8911 -1.5235 -1.16025 0
M  V30 522 H 46.1961 -1.16133 -3.74193 0
M  V30 523 H 47.8931 -1.55023 -3.69823 0
M  V30 524 H 44.4831 -2.88344 -3.17105 0
M  V30 525 H 48.6671 -3.86263 -3.11632 0
M  V30 526 H 43.9231 -5.27562 -3.09012 0
M  V30 527 H 48.0971 -6.26201 -3.04705 0
M  V30 528 H 45.7241 -6.97236 -3.02929 0
M  V30 529 N 47.2992 1.18797 -1.03562 0
M  V30 530 C 48.7152 1.40671 -0.753917 0
M  V30 531 C 48.9152 1.9043 0.658686 0
M  V30 532 O 47.9712 2.08538 1.42366 0
M  V30 533 C 49.2842 2.41192 -1.79574 0
M  V30 534 C 50.8322 2.54928 -1.81606 0
M  V30 535 C 51.3072 3.58709 -2.84766 0
M  V30 536 N 52.7982 3.66212 -2.83625 0
M  V30 537 C 53.5332 4.46225 -3.60098 0
M  V30 538 N 53.0292 5.29888 -4.46308 0
M  V30 539 N 54.8222 4.40939 -3.4861 0
M  V30 540 H 46.9732 0.848221 -1.94728 0
M  V30 541 H 49.2362 0.435081 -0.842264 0
M  V30 542 H 48.9422 2.11669 -2.80872 0
M  V30 543 H 48.8162 3.40467 -1.62365 0
M  V30 544 H 51.2032 2.83771 -0.809817 0
M  V30 545 H 51.2842 1.55784 -2.02891 0
M  V30 546 H 50.9282 3.30607 -3.85566 0
M  V30 547 H 50.8582 4.57519 -2.60737 0
M  V30 548 H 53.3492 3.06466 -2.21105 0
M  V30 549 H 53.6622 5.88078 -5.01382 0
M  V30 550 H 52.0072 5.29326 -4.50377 0
M  V30 551 H 55.1982 3.74624 -2.80668 0
M  V30 552 H 55.3712 5.03056 -4.08459 0
M  V30 553 N 48.7773 0.814389 1.34928 0
M  V30 554 C 49.7243 0.22822 2.29669 0
M  V30 555 C 50.6943 -0.642164 1.53184 0
M  V30 556 O 51.8793 -0.585605 1.81591 0
M  V30 557 C 49.0193 -0.61089 3.3965 0
M  V30 558 C 48.1323 0.280792 4.31086 0
M  V30 559 C 47.2673 -0.567067 5.28165 0
M  V30 560 C 46.3063 0.324531 6.11239 0
M  V30 561 N 45.4433 -0.483756 7.00431 0
M  V30 562 H 50.2833 1.04153 2.79206 0
M  V30 563 H 47.8203 0.525133 1.37407 0
M  V30 564 H 49.7783 -1.11263 4.0209 0
M  V30 565 H 48.4083 -1.38939 2.91369 0
M  V30 566 H 47.4603 0.900688 3.69583 0
M  V30 567 H 48.7723 0.966723 4.89342 0
M  V30 568 H 47.9263 -1.13363 5.96015 0
M  V30 569 H 46.6653 -1.28654 4.70425 0
M  V30 570 H 45.6703 0.903298 5.42329 0
M  V30 571 H 46.8953 1.04198 6.71059 0
M  V30 572 H 44.8413 -1.18706 6.45171 0
M  V30 573 H 44.7583 0.143965 7.55863 0
M  V30 574 H 46.0263 -1.03334 7.7262 0
M  V30 575 N 50.2554 -1.46986 0.568584 0
M  V30 576 C 51.5044 -2.01646 0.0465894 0
M  V30 577 C 51.8174 -1.44721 -1.31587 0
M  V30 578 O 53.0234 -1.91113 -1.92842 0
M  V30 579 C 51.4794 -3.59885 0.032752 0
M  V30 580 C 51.0874 -4.25804 1.39266 0
M  V30 581 C 52.8314 -4.22255 -0.436038 0
M  V30 582 C 50.7384 -5.76081 1.33732 0
M  V30 583 H 49.6684 -0.753876 0.013647 0
M  V30 584 H 52.3194 -1.68864 0.718131 0
M  V30 585 H 50.7014 -3.8968 -0.704669 0
M  V30 586 H 51.8754 -4.07637 2.1487 0
M  V30 587 H 50.1904 -3.7547 1.80032 0
M  V30 588 H 52.7874 -5.32394 -0.49602 0
M  V30 589 H 53.1304 -3.90212 -1.45053 0
M  V30 590 H 53.6634 -3.97033 0.246877 0
M  V30 591 H 50.4024 -6.12761 2.32817 0
M  V30 592 H 49.9224 -5.96553 0.623267 0
M  V30 593 H 51.6014 -6.38518 1.0442 0
M  V30 594 N 51.7335 -0.305618 -1.54608 0
M  V30 595 C 52.6805 0.568421 -2.23691 0
M  V30 596 C 53.6505 1.12592 -1.22116 0
M  V30 597 O 54.8355 1.16959 -1.50749 0
M  V30 598 C 51.9755 1.7322 -2.98477 0
M  V30 599 C 51.0885 1.20566 -4.14835 0
M  V30 600 C 50.2235 2.33368 -4.77193 0
M  V30 601 C 49.2625 1.7787 -5.85686 0
M  V30 602 N 48.3995 2.84263 -6.4198 0
M  V30 603 H 53.2395 -0.0272867 -2.97988 0
M  V30 604 H 50.7765 -0.0252363 -1.47078 0
M  V30 605 H 52.7345 2.41675 -3.40072 0
M  V30 606 H 51.3645 2.29947 -2.26548 0
M  V30 607 H 50.4165 0.413223 -3.78149 0
M  V30 608 H 51.7285 0.759417 -4.92985 0
M  V30 609 H 50.8825 3.09761 -5.21664 0
M  V30 610 H 49.6215 2.8132 -3.98385 0
M  V30 611 H 48.6265 0.99968 -5.40635 0
M  V30 612 H 49.8515 1.30816 -6.66381 0
M  V30 613 H 47.7975 3.31541 -5.66053 0
M  V30 614 H 47.7145 2.44149 -7.15491 0
M  V30 615 H 48.9825 3.6054 -6.91109 0
M  V30 616 N 53.2116 1.57565 -0.0334293 0
M  V30 617 C 54.1596 2.1164 0.96496 0
M  V30 618 C 55.1536 1.04398 1.33407 0
M  V30 619 O 56.3596 1.22828 1.3158 0
M  V30 620 H 52.7346 0.676222 0.32898 0
M  V30 621 H 54.7056 2.94455 0.483614 0
M  V30 622 C 53.4546 2.66207 2.23672 0
M  V30 623 H 52.7776 3.48378 1.96145 0
M  V30 624 H 54.2176 3.07685 2.9173 0
M  V30 625 C 52.6766 1.59151 2.96939 0
M  V30 626 O 53.2066 0.993858 3.89211 0
M  V30 627 N 51.4126 1.31093 2.59351 0
M  V30 628 H 50.9596 1.7988 1.84393 0
M  V30 629 H 50.9176 0.596889 3.08682 0
M  V30 630 N 54.6897 -0.239769 1.55765 0
M  V30 631 C 55.5997 -1.31831 1.94056 0
M  V30 632 C 56.6157 -1.52275 0.841925 0
M  V30 633 O 57.7917 -1.65759 1.14394 0
M  V30 634 C 54.8567 -2.65156 2.23368 0
M  V30 635 C 53.9177 -2.53173 3.46701 0
M  V30 636 C 53.1507 -3.8014 3.74606 0
M  V30 637 O 53.3737 -4.82343 3.04469 0
M  V30 638 O 52.3077 -3.78344 4.68123 0
M  V30 639 H 56.1337 -1.02347 2.85935 0
M  V30 640 H 53.7187 -0.441123 1.42739 0
M  V30 641 H 55.6007 -3.43929 2.43497 0
M  V30 642 H 54.2757 -2.94358 1.34666 0
M  V30 643 H 53.1827 -1.72662 3.31871 0
M  V30 644 H 54.5157 -2.28915 4.35728 0
M  V30 645 N 56.1678 -1.49265 -0.50573 0
M  V30 646 C 57.1148 -1.65585 -1.6078 0
M  V30 647 C 58.0848 -0.497396 -1.58478 0
M  V30 648 O 59.2698 -0.72385 -1.76536 0
M  V30 649 C 56.4098 -1.72408 -2.98948 0
M  V30 650 C 55.5228 -2.99525 -3.11301 0
M  V30 651 C 54.6578 -2.97356 -4.40174 0
M  V30 652 C 53.6968 -4.19074 -4.46143 0
M  V30 653 N 52.8338 -4.14841 -5.66437 0
M  V30 654 H 57.6738 -2.59688 -1.46172 0
M  V30 655 H 55.2108 -1.28761 -0.711261 0
M  V30 656 H 57.1688 -1.74344 -3.79025 0
M  V30 657 H 55.7988 -0.817753 -3.1227 0
M  V30 658 H 54.8508 -3.07222 -2.24318 0
M  V30 659 H 56.1628 -3.89518 -3.11572 0
M  V30 660 H 55.3168 -2.97829 -5.28567 0
M  V30 661 H 54.0558 -2.05133 -4.42461 0
M  V30 662 H 53.0608 -4.1885 -3.56153 0
M  V30 663 H 54.2858 -5.12483 -4.45575 0
M  V30 664 H 52.2318 -3.25453 -5.69575 0
M  V30 665 H 52.1488 -4.98564 -5.68304 0
M  V30 666 H 53.4168 -4.1941 -6.57051 0
M  V30 667 N 57.6459 0.756429 -1.3826 0
M  V30 668 C 58.8949 1.51082 -1.3363 0
M  V30 669 C 59.2079 1.95467 0.0720068 0
M  V30 670 O 60.4139 2.7043 0.240834 0
M  V30 671 C 58.8699 2.72893 -2.34644 0
M  V30 672 C 58.4779 2.35544 -3.81081 0
M  V30 673 C 60.2219 3.50791 -2.39052 0
M  V30 674 C 58.1289 3.53948 -4.73787 0
M  V30 675 H 57.0589 0.56727 -0.49671 0
M  V30 676 H 59.7099 0.827147 -1.638 0
M  V30 677 H 58.0919 3.43227 -1.97513 0
M  V30 678 H 59.2659 1.72894 -4.27135 0
M  V30 679 H 57.5809 1.70786 -3.79764 0
M  V30 680 H 60.1779 4.38823 -3.05513 0
M  V30 681 H 60.5209 3.91745 -1.40861 0
M  V30 682 H 61.0539 2.87467 -2.74968 0
M  V30 683 H 57.7929 3.18064 -5.73163 0
M  V30 684 H 57.3129 4.15651 -4.32428 0
M  V30 685 H 58.9919 4.20566 -4.91663 0
M  V30 686 N 59.124 1.23083 0.984299 0
M  V30 687 C 60.349 1.088 1.76571 0
M  V30 688 C 60.774 -0.356657 1.84688 0
M  V30 689 O 60.132 -1.25788 1.30565 0
M  V30 690 C 60.18 1.71371 3.17277 0
M  V30 691 O 59.284 0.973213 4.00752 0
M  V30 692 H 58.625 0.381599 0.543395 0
M  V30 693 H 61.155 1.63057 1.23587 0
M  V30 694 H 61.165 1.76449 3.67872 0
M  V30 695 H 59.84 2.76493 3.10684 0
M  V30 696 H 58.417 0.999078 3.59267 0
M  V30 697 N 60.6021 -1.18246 1.0419 0
M  V30 698 C 61.8491 -1.88257 0.746017 0
M  V30 699 C 62.1771 -1.80429 -0.726331 0
M  V30 700 O 61.4321 -1.2 -1.54591 0
M  V30 701 C 61.7311 -3.38082 1.15911 0
M  V30 702 C 61.3971 -3.66114 2.63195 0
M  V30 703 C 60.0591 -3.73474 3.03432 0
M  V30 704 C 62.4111 -3.78398 3.5842 0
M  V30 705 C 59.7391 -3.90599 4.37778 0
M  V30 706 C 62.0911 -3.97039 4.92487 0
M  V30 707 C 60.7551 -4.02635 5.32392 0
M  V30 708 H 60.0251 -0.688883 0.272987 0
M  V30 709 H 62.6721 -1.3995 1.30715 0
M  V30 710 H 60.9771 -3.88377 0.516806 0
M  V30 711 H 62.6741 -3.90596 0.907516 0
M  V30 712 H 59.2641 -3.61003 2.3103 0
M  V30 713 H 63.4481 -3.72042 3.28479 0
M  V30 714 H 58.7041 -3.93175 4.68213 0
M  V30 715 H 62.8781 -4.05486 5.66175 0
M  V30 716 H 60.5051 -4.15657 6.36501 0
M  V30 717 N 62.0802 -0.821533 -1.34494 0
M  V30 718 C 63.3272 -0.408946 -1.98328 0
M  V30 719 C 63.6552 1.02764 -1.65136 0
M  V30 720 O 62.9102 1.73026 -0.914349 0
M  V30 721 C 63.2092 -0.556512 -3.53041 0
M  V30 722 C 62.8752 -1.95861 -4.0614 0
M  V30 723 C 61.5372 -2.34217 -4.20352 0
M  V30 724 C 63.8892 -2.87523 -4.34718 0
M  V30 725 C 61.2172 -3.63572 -4.6047 0
M  V30 726 C 63.5692 -4.1634 -4.76281 0
M  V30 727 C 62.2332 -4.54675 -4.88699 0
M  V30 728 H 61.5032 -0.149644 -0.725732 0
M  V30 729 H 64.1502 -1.04521 -1.6046 0
M  V30 730 H 62.4552 0.163148 -3.9146 0
M  V30 731 H 64.1522 -0.217826 -4.00408 0
M  V30 732 H 60.7422 -1.65066 -3.95539 0
M  V30 733 H 64.9262 -2.59133 -4.23277 0
M  V30 734 H 60.1822 -3.93101 -4.68275 0
M  V30 735 H 64.3562 -4.87455 -4.97354 0
M  V30 736 H 61.9832 -5.54959 -5.19542 0
M  V30 737 N 63.5583 1.46682 -0.576371 0
M  V30 738 C 64.4883 2.33028 0.148397 0
M  V30 739 C 65.4693 1.44961 0.889956 0
M  V30 740 O 66.6543 1.73789 0.866662 0
M  V30 741 C 63.7843 3.27117 1.1667 0
M  V30 742 C 62.7383 4.24575 0.540386 0
M  V30 743 C 62.0643 5.08126 1.6647 0
M  V30 744 C 63.3643 5.19722 -0.518331 0
M  V30 745 H 65.0583 2.93875 -0.572509 0
M  V30 746 H 62.6043 1.41315 -0.276768 0
M  V30 747 H 64.5573 3.86374 1.68204 0
M  V30 748 H 63.2813 2.64364 1.9178 0
M  V30 749 H 61.9403 3.66571 0.0461769 0
M  V30 750 H 61.5883 4.41762 2.40531 0
M  V30 751 H 61.2883 5.74122 1.25131 0
M  V30 752 H 62.8123 5.70246 2.18293 0
M  V30 753 H 64.2263 5.73232 -0.0883058 0
M  V30 754 H 62.6233 5.94026 -0.851679 0
M  V30 755 H 63.6933 4.64037 -1.40703 0
M  V30 756 N 65.0364 0.313813 1.54444 0
M  V30 757 C 66.4474 -0.176243 1.85866 0
M  V30 758 C 66.7984 -1.52405 1.23561 0
M  V30 759 O 65.9234 -2.09605 0.538016 0
M  V30 760 C 66.5184 -0.32657 3.37222 0
M  V30 761 C 65.0774 -0.760846 3.6863 0
M  V30 762 C 64.2244 0.123247 2.77026 0
M  V30 763 H 67.1754 0.534418 1.49431 0
M  V30 764 H 67.1964 -1.15908 3.62416 0
M  V30 765 H 66.7084 0.654531 3.82541 0
M  V30 766 H 64.8094 -1.75204 3.28838 0
M  V30 767 H 64.9224 -0.571353 4.75681 0
M  V30 768 H 63.2864 -0.399597 2.51546 0
M  V30 769 H 64.0694 1.10094 3.25168 0
M  V30 770 N 66.5145 -1.57545 0.0417849 0
M  V30 771 C 67.7615 -1.92317 -0.634082 0
M  V30 772 C 68.0895 -0.919334 -1.71402 0
M  V30 773 O 67.3445 0.0698253 -1.95575 0
M  V30 774 C 67.6435 -3.33794 -1.27735 0
M  V30 775 C 67.3095 -4.49716 -0.326543 0
M  V30 776 C 65.9715 -4.81156 -0.0648814 0
M  V30 777 C 68.3235 -5.20182 0.325623 0
M  V30 778 C 65.6515 -5.80414 0.856539 0
M  V30 779 C 68.0035 -6.20424 1.23518 0
M  V30 780 C 66.6675 -6.50298 1.5056 0
M  V30 781 H 65.9375 -0.703736 -0.232027 0
M  V30 782 H 68.5845 -1.91205 0.106259 0
M  V30 783 H 66.8895 -3.31228 -2.09274 0
M  V30 784 H 68.5865 -3.57975 -1.80707 0
M  V30 785 H 65.1765 -4.25176 -0.540665 0
M  V30 786 H 69.3605 -4.96112 0.136546 0
M  V30 787 H 64.6165 -6.019 1.07363 0
M  V30 788 H 68.7905 -6.74141 1.74664 0
M  V30 789 H 66.4175 -7.27025 2.22123 0
M  V30 790 N 67.9926 0.231505 -1.5589 0
M  V30 791 C 68.9396 1.28682 -1.91598 0
M  V30 792 C 69.9096 1.47071 -0.771974 0
M  V30 793 O 71.0946 1.60802 -1.027 0
M  V30 794 C 68.2346 2.6342 -2.22944 0
M  V30 795 C 67.3476 2.52912 -3.50228 0
M  V30 796 C 66.4826 3.80106 -3.7107 0
M  V30 797 C 65.5216 3.64279 -4.91902 0
M  V30 798 N 64.6586 4.834 -5.09184 0
M  V30 799 H 69.4986 0.975305 -2.81588 0
M  V30 800 H 67.0356 0.470299 -1.39379 0
M  V30 801 H 68.9936 3.41869 -2.39126 0
M  V30 802 H 67.6236 2.92687 -1.36139 0
M  V30 803 H 66.6756 1.6595 -3.42294 0
M  V30 804 H 67.9876 2.37133 -4.38827 0
M  V30 805 H 67.1416 4.66999 -3.87295 0
M  V30 806 H 65.8806 3.98799 -2.80733 0
M  V30 807 H 64.8856 2.7577 -4.75637 0
M  V30 808 H 66.1106 3.47067 -5.83714 0
M  V30 809 H 64.0566 5.02425 -4.21788 0
M  V30 810 H 63.9736 4.70311 -5.91898 0
M  V30 811 H 65.2416 5.71747 -5.29835 0
M  V30 812 N 69.4707 1.49531 0.497807 0
M  V30 813 C 70.7107 1.60799 1.26187 0
M  V30 814 C 71.0747 0.289627 1.89803 0
M  V30 815 O 72.2757 0.277512 2.67364 0
M  V30 816 C 70.5467 2.73729 2.29798 0
M  V30 817 S 72.1057 3.04968 3.155 0
M  V30 818 H 68.9237 0.567145 0.428798 0
M  V30 819 H 71.5257 1.87204 0.563477 0
M  V30 820 H 70.2297 3.68036 1.81597 0
M  V30 821 H 69.7607 2.49328 3.04301 0
M  V30 822 H 71.7757 2.46735 4.30507 0
M  V30 823 N 70.9488 -0.749086 1.3866 0
M  V30 824 C 71.8788 -1.8764 1.38973 0
M  V30 825 C 72.8598 -1.68178 0.255004 0
M  V30 826 O 74.0448 -1.88704 0.458754 0
M  V30 827 C 71.1748 -3.25222 1.21851 0
M  V30 828 C 70.1288 -3.59295 2.32575 0
M  V30 829 C 69.4548 -4.95663 2.00555 0
M  V30 830 C 70.7548 -3.63709 3.7485 0
M  V30 831 H 72.4488 -1.87635 2.3331 0
M  V30 832 H 69.9948 -0.901329 1.12303 0
M  V30 833 H 71.9478 -4.03746 1.20695 0
M  V30 834 H 70.6718 -3.25719 0.239775 0
M  V30 835 H 69.3308 -2.83093 2.32925 0
M  V30 836 H 68.9788 -4.92724 1.01154 0
M  V30 837 H 68.6788 -5.19429 2.74714 0
M  V30 838 H 70.2028 -5.7656 2.01024 0
M  V30 839 H 71.6168 -4.32338 3.76506 0
M  V30 840 H 70.0138 -3.98986 4.48252 0
M  V30 841 H 71.0838 -2.63834 4.06841 0
M  V30 842 N 72.4269 -1.23603 -0.977757 0
M  V30 843 C 73.8379 -1.06424 -1.53398 0
M  V30 844 C 74.1889 0.367578 -1.92726 0
M  V30 845 O 73.3139 1.25465 -1.76316 0
M  V30 846 C 73.9089 -1.92568 -2.78753 0
M  V30 847 C 72.4679 -1.79642 -3.30765 0
M  V30 848 C 71.6149 -1.88111 -2.03739 0
M  V30 849 H 74.5659 -1.37227 -0.797152 0
M  V30 850 H 74.5869 -1.45203 -3.51705 0
M  V30 851 H 74.0989 -2.96771 -2.50098 0
M  V30 852 H 72.1999 -0.782325 -3.64294 0
M  V30 853 H 72.3129 -2.63174 -4.00345 0
M  V30 854 H 70.6769 -1.31723 -2.17994 0
M  V30 855 H 71.4599 -2.93875 -1.77461 0
M  V30 856 N 73.905 1.17692 -1.04816 0
M  V30 857 C 74.868 2.19787 -0.650117 0
M  V30 858 C 75.868 1.58044 0.296427 0
M  V30 859 O 77.058 1.74012 0.0808097 0
M  V30 860 C 74.19 3.40869 0.0456987 0
M  V30 861 H 75.383 2.56516 -1.5537 0
M  V30 862 H 72.936 1.31708 -0.841594 0
M  V30 863 H 73.671 3.09681 0.962726 0
M  V30 864 H 73.456 3.86928 -0.634727 0
M  V30 865 H 74.946 4.16445 0.310432 0
M  V30 866 N 75.3831 0.828654 1.34056 0
M  V30 867 C 76.3151 0.212052 2.28217 0
M  V30 868 C 77.3281 -0.601362 1.51286 0
M  V30 869 O 78.5171 -0.430104 1.73241 0
M  V30 870 C 75.6171 -0.72088 3.31144 0
M  V30 871 C 74.7901 0.0509587 4.3737 0
M  V30 872 C 73.8491 -0.803766 5.20025 0
M  V30 873 O 72.8751 -0.246667 5.68665 0
M  V30 874 N 74.0771 -2.1227 5.40298 0
M  V30 875 H 76.8421 1.02105 2.81771 0
M  V30 876 H 74.4031 0.686153 1.46641 0
M  V30 877 H 76.3951 -1.29742 3.8334 0
M  V30 878 H 74.9651 -1.43061 2.77943 0
M  V30 879 H 74.1851 0.808831 3.85813 0
M  V30 880 H 75.4731 0.582065 5.0546 0
M  V30 881 H 74.8711 -2.59898 5.02464 0
M  V30 882 H 73.4281 -2.64796 5.95589 0
M  V30 883 N 76.8612 -1.46375 0.584142 0
M  V30 884 C 77.8112 -2.27371 -0.169232 0
M  V30 885 C 78.7952 -1.35955 -0.860523 0
M  V30 886 O 79.9872 -1.60119 -0.754382 0
M  V30 887 C 77.1162 -3.22334 -1.18134 0
M  V30 888 C 76.2022 -4.21235 -0.492088 0
M  V30 889 N 76.5932 -5.03766 0.453129 0
M  V30 890 C 74.8912 -4.39773 -0.742652 0
M  V30 891 C 75.5922 -5.75366 0.85609 0
M  V30 892 N 74.5682 -5.43214 0.204926 0
M  V30 893 H 78.3702 -2.88572 0.557097 0
M  V30 894 H 75.8842 -1.57242 0.406042 0
M  V30 895 H 77.8812 -3.79071 -1.73525 0
M  V30 896 H 76.5412 -2.62693 -1.90847 0
M  V30 897 H 77.5522 -5.11227 0.828723 0
M  V30 898 H 74.2292 -3.91279 -1.45625 0
M  V30 899 H 75.6192 -6.5172 1.63434 0
M  V30 900 N 78.3393 -0.321999 -1.54275 0
M  V30 901 C 79.7553 0.0306999 -1.5957 0
M  V30 902 C 79.9553 1.50614 -1.33857 0
M  V30 903 O 79.0113 2.2619 -1.12223 0
M  V30 904 C 80.3243 -0.386122 -2.98211 0
M  V30 905 C 81.8723 -0.336647 -3.11184 0
M  V30 906 C 82.3473 -0.728607 -4.52167 0
M  V30 907 N 83.8383 -0.681952 -4.58152 0
M  V30 908 C 84.5733 -0.957449 -5.6535 0
M  V30 909 N 84.0693 -1.3 -6.80494 0
M  V30 910 N 85.8623 -0.883113 -5.55119 0
M  V30 911 H 78.0133 -1.28332 -1.69247 0
M  V30 912 H 80.2763 -0.521716 -0.791528 0
M  V30 913 H 79.9823 -1.41404 -3.22022 0
M  V30 914 H 79.8563 0.249662 -3.76373 0
M  V30 915 H 82.2433 0.682058 -2.8711 0
M  V30 916 H 82.3243 -1.00734 -2.3513 0
M  V30 917 H 81.9683 -1.74522 -4.76974 0
M  V30 918 H 81.8983 -0.0356152 -5.26588 0
M  V30 919 H 84.3893 -0.428985 -3.75457 0
M  V30 920 H 84.7023 -1.49563 -7.58189 0
M  V30 921 H 83.0473 -1.33824 -6.81994 0
M  V30 922 H 86.2383 -0.615001 -4.64042 0
M  V30 923 H 86.4113 -1.10118 -6.38575 0
M  V30 924 N 79.8174 1.5752 -0.0501392 0
M  V30 925 C 80.7644 2.1147 0.924603 0
M  V30 926 C 81.7344 1.02182 1.30951 0
M  V30 927 O 82.9194 1.29723 1.39916 0
M  V30 928 C 80.0594 2.66337 2.19451 0
M  V30 929 C 79.1724 3.89708 1.86418 0
M  V30 930 C 78.3074 4.32893 3.07859 0
M  V30 931 C 77.3464 5.48967 2.70742 0
M  V30 932 N 76.4834 5.87211 3.84874 0
M  V30 933 H 81.3234 2.94465 0.457639 0
M  V30 934 H 78.8604 1.45531 0.214266 0
M  V30 935 H 80.8184 2.96247 2.93758 0
M  V30 936 H 79.4484 1.86141 2.63726 0
M  V30 937 H 78.5004 3.66396 1.02264 0
M  V30 938 H 79.8124 4.74074 1.55096 0
M  V30 939 H 78.9664 4.6435 3.90466 0
M  V30 940 H 77.7054 3.47336 3.42358 0
M  V30 941 H 76.7104 5.17183 1.86551 0
M  V30 942 H 77.9354 6.3624 2.37436 0
M  V30 943 H 75.8814 5.04607 4.19175 0
M  V30 944 H 75.7984 6.66266 3.57247 0
M  V30 945 H 77.0664 6.23282 4.68123 0
M  V30 946 N 81.2955 -0.223234 1.56011 0
M  V30 947 C 82.2255 -1.27988 1.95298 0
M  V30 948 C 83.2065 -1.48976 0.820979 0
M  V30 949 O 84.3915 -1.61188 1.08315 0
M  V30 950 C 81.5215 -2.63 2.26822 0
M  V30 951 C 80.4755 -2.56671 3.42497 0
M  V30 952 C 79.8015 -3.95697 3.59622 0
M  V30 953 C 81.1015 -2.11601 4.77517 0
M  V30 954 H 82.7955 -0.953525 2.8381 0
M  V30 955 H 80.3415 -0.457244 1.36548 0
M  V30 956 H 82.2945 -3.37077 2.52898 0
M  V30 957 H 81.0185 -2.9732 1.35161 0
M  V30 958 H 79.6775 -1.85051 3.16467 0
M  V30 959 H 79.3255 -4.27322 2.6534 0
M  V30 960 H 79.0255 -3.92345 4.37424 0
M  V30 961 H 80.5495 -4.71438 3.88044 0
M  V30 962 H 81.9635 -2.7542 5.02809 0
M  V30 963 H 80.3605 -2.19311 5.5859 0
M  V30 964 H 81.4305 -1.06824 4.72987 0
M  V30 965 N 82.7736 -1.49793 -0.48987 0
M  V30 966 C 83.7036 -1.70201 -1.59856 0
M  V30 967 C 84.6846 -0.55076 -1.60937 0
M  V30 968 O 85.8696 -0.787841 -1.77501 0
M  V30 969 C 82.9996 -1.77882 -2.98287 0
M  V30 970 C 81.9536 -2.92907 -3.12073 0
M  V30 971 C 81.2796 -2.85712 -4.51965 0
M  V30 972 C 82.5796 -4.3369 -2.91051 0
M  V30 973 H 84.2736 -2.63025 -1.43032 0
M  V30 974 H 81.8196 -1.26574 -0.686664 0
M  V30 975 H 83.7726 -1.90744 -3.75759 0
M  V30 976 H 82.4966 -0.816653 -3.16225 0
M  V30 977 H 81.1556 -2.79665 -2.37029 0
M  V30 978 H 80.8036 -1.8738 -4.66795 0
M  V30 979 H 80.5036 -3.62921 -4.62128 0
M  V30 980 H 82.0276 -3.00598 -5.31482 0
M  V30 981 H 83.4416 -4.47555 -3.58284 0
M  V30 982 H 81.8386 -5.12205 -3.12675 0
M  V30 983 H 82.9086 -4.47362 -1.87071 0
M  V30 984 N 84.2517 0.741722 -1.39055 0
M  V30 985 C 85.4987 1.50114 -1.35912 0
M  V30 986 C 85.8267 1.94443 0.0470937 0
M  V30 987 O 85.0817 1.66612 1.02659 0
M  V30 988 C 85.3807 2.7592 -2.27163 0
M  V30 989 C 85.0467 2.50493 -3.74919 0
M  V30 990 C 83.7087 2.43267 -4.1518 0
M  V30 991 C 86.0607 2.28585 -4.684 0
M  V30 992 C 83.3887 2.12166 -5.46994 0
M  V30 993 C 85.7407 1.99002 -6.00484 0
M  V30 994 C 84.4047 1.90241 -6.39816 0
M  V30 995 H 83.6747 0.549306 -0.497336 0
M  V30 996 H 86.3217 0.851896 -1.71508 0
M  V30 997 H 84.6267 3.45553 -1.84663 0
M  V30 998 H 86.3237 3.33923 -2.22028 0
M  V30 999 H 82.9137 2.56992 -3.43006 0
M  V30 1000 H 87.0977 2.33139 -4.38132 0
M  V30 1001 H 82.3537 2.03901 -5.76398 0
M  V30 1002 H 86.5277 1.81057 -6.72452 0
M  V30 1003 H 84.1547 1.65907 -7.41875 0
M  V30 1004 N 85.7298 1.2412 0.971189 0
M  V30 1005 C 86.9788 1.07284 1.70801 0
M  V30 1006 C 87.2918 -0.388902 1.91695 0
M  V30 1007 O 88.4978 -0.677379 2.62914 0
M  V30 1008 C 86.9538 1.87145 3.07416 0
M  V30 1009 C 86.5618 3.37707 2.94377 0
M  V30 1010 C 88.3058 1.78828 3.84995 0
M  V30 1011 C 86.2128 4.09925 4.26281 0
M  V30 1012 H 85.1428 0.397854 0.64049 0
M  V30 1013 H 87.7938 1.4817 1.0825 0
M  V30 1014 H 86.1758 1.39071 3.70777 0
M  V30 1015 H 87.3498 3.93335 2.4005 0
M  V30 1016 H 85.6648 3.46938 2.30267 0
M  V30 1017 H 88.2618 2.30089 4.82662 0
M  V30 1018 H 88.6048 0.75284 4.09436 0
M  V30 1019 H 89.1378 2.24563 3.28354 0
M  V30 1020 H 85.8768 5.13813 4.07033 0
M  V30 1021 H 85.3968 3.59083 4.80437 0
M  V30 1022 H 87.0758 4.1673 4.94919 0
M  V30 1023 N 87.2079 -1.17134 1.05439 0
M  V30 1024 C 88.4329 -1.91913 0.786396 0
M  V30 1025 C 88.8579 -1.7643 -0.652234 0
M  V30 1026 O 88.2159 -1.08372 -1.45345 0
M  V30 1027 C 88.2639 -3.40921 1.17497 0
M  V30 1028 O 87.3679 -4.11244 0.308589 0
M  V30 1029 H 86.7089 -0.598215 0.288158 0
M  V30 1030 H 89.2389 -1.48457 1.4079 0
M  V30 1031 H 89.2489 -3.91668 1.14281 0
M  V30 1032 H 87.9239 -3.5151 2.22292 0
M  V30 1033 H 86.5009 -3.70731 0.40157 0
M  V30 1034 N 88.686 -0.835752 -1.33615 0
M  V30 1035 C 89.933 -0.429959 -1.97883 0
M  V30 1036 C 90.261 1.01006 -1.66217 0
M  V30 1037 O 89.516 1.72047 -0.93265 0
M  V30 1038 C 89.815 -0.593925 -3.52431 0
M  V30 1039 C 89.481 -2.00158 -4.04039 0
M  V30 1040 C 88.143 -2.38662 -4.17844 0
M  V30 1041 C 90.495 -2.92117 -4.31644 0
M  V30 1042 C 87.823 -3.68435 -4.56588 0
M  V30 1043 C 90.175 -4.21368 -4.71838 0
M  V30 1044 C 88.839 -4.59833 -4.83849 0
M  V30 1045 H 88.109 -0.157333 -0.724104 0
M  V30 1046 H 90.756 -1.06217 -1.59343 0
M  V30 1047 H 89.061 0.121619 -3.91611 0
M  V30 1048 H 90.758 -0.260282 -4.00154 0
M  V30 1049 H 87.348 -1.69252 -3.93766 0
M  V30 1050 H 91.532 -2.63608 -4.20505 0
M  V30 1051 H 86.788 -3.98046 -4.64079 0
M  V30 1052 H 90.962 -4.92703 -4.92155 0
M  V30 1053 H 88.589 -5.60438 -5.13627 0
M  V30 1054 N 90.1641 1.46063 -0.591896 0
M  V30 1055 C 91.4101 2.02638 -0.0811191 0
M  V30 1056 C 91.7431 1.4613 1.27905 0
M  V30 1057 O 91.0181 0.629908 1.84017 0
M  V30 1058 C 91.3011 3.60091 -0.0252436 0
M  V30 1059 C 91.1541 4.26965 -1.41496 0
M  V30 1060 C 92.4731 4.3496 0.670685 0
M  V30 1061 H 89.5921 0.73635 -0.0309524 0
M  V30 1062 H 92.2341 1.741 -0.760859 0
M  V30 1063 H 90.3841 3.84535 0.553624 0
M  V30 1064 H 92.0561 4.13756 -2.0397 0
M  V30 1065 H 90.2991 3.85971 -1.98011 0
M  V30 1066 H 90.9701 5.35781 -1.32825 0
M  V30 1067 H 93.4461 4.15716 0.178825 0
M  V30 1068 H 92.3221 5.44686 0.678837 0
M  V30 1069 H 92.5831 4.06685 1.73379 0
M  V30 1070 N 91.6422 0.330177 1.54103 0
M  V30 1071 C 92.8822 -0.270916 2.02597 0
M  V30 1072 C 93.2462 -1.48826 1.21304 0
M  V30 1073 O 94.4472 -2.16266 1.59633 0
M  V30 1074 C 92.7182 -0.590328 3.52491 0
M  V30 1075 S 94.2772 -1.17014 4.2291 0
M  V30 1076 H 91.0952 -0.0815379 0.706309 0
M  V30 1077 H 93.6972 0.464835 1.89893 0
M  V30 1078 H 92.4012 0.303691 4.09275 0
M  V30 1079 H 91.9322 -1.3561 3.69288 0
M  V30 1080 H 93.9472 -2.45662 4.3112 0
M  V30 1081 N 93.1203 -1.57491 0.0584922 0
M  V30 1082 C 94.0833 -2.1085 -0.898617 0
M  V30 1083 C 95.0833 -1.02964 -1.23511 0
M  V30 1084 O 96.2733 -1.29007 -1.17059 0
M  V30 1085 C 93.4053 -2.59881 -2.20623 0
M  V30 1086 H 94.5983 -2.96715 -0.435936 0
M  V30 1087 H 92.1513 -1.55141 -0.190023 0
M  V30 1088 H 92.8863 -1.77431 -2.71457 0
M  V30 1089 H 92.6713 -3.38727 -1.97501 0
M  V30 1090 H 94.1613 -3.01285 -2.89166 0
M  V30 1091 N 94.5984 0.214957 -1.56127 0
M  V30 1092 C 95.8444 0.939762 -1.79712 0
M  V30 1093 C 96.1774 1.83723 -0.629247 0
M  V30 1094 O 95.4524 1.90925 0.371197 0
M  V30 1095 C 95.7354 1.77306 -3.13424 0
M  V30 1096 C 95.5884 0.90164 -4.40671 0
M  V30 1097 C 96.9074 2.74956 -3.43638 0
M  V30 1098 H 94.0264 0.340214 -0.653776 0
M  V30 1099 H 96.6684 0.20824 -1.88855 0
M  V30 1100 H 94.8184 2.39673 -3.0576 0
M  V30 1101 H 96.4904 0.294206 -4.60361 0
M  V30 1102 H 94.7334 0.207368 -4.33304 0
M  V30 1103 H 95.4044 1.51923 -5.30682 0
M  V30 1104 H 97.8804 2.22724 -3.51473 0
M  V30 1105 H 96.7564 3.30358 -4.38355 0
M  V30 1106 H 97.0174 3.53023 -2.66134 0
M  V30 1107 N 96.0765 1.50051 0.48192 0
M  V30 1108 C 97.0065 1.71046 1.58951 0
M  V30 1109 C 97.9875 0.559288 1.60642 0
M  V30 1110 O 99.1725 0.797243 1.77081 0
M  V30 1111 C 96.3025 1.79462 2.97339 0
M  V30 1112 C 95.2565 2.94558 3.10515 0
M  V30 1113 C 94.5825 2.88105 4.50444 0
M  V30 1114 C 95.8825 4.35227 2.88747 0
M  V30 1115 H 97.5765 2.6378 1.41635 0
M  V30 1116 H 95.1225 1.26936 0.679942 0
M  V30 1117 H 97.0755 1.92734 3.74742 0
M  V30 1118 H 95.7995 0.833412 3.15788 0
M  V30 1119 H 94.4585 2.80918 2.35543 0
M  V30 1120 H 94.1065 1.89853 4.65795 0
M  V30 1121 H 93.8065 3.65366 4.60197 0
M  V30 1122 H 95.3305 3.03412 5.29881 0
M  V30 1123 H 96.7445 4.49449 3.55905 0
M  V30 1124 H 95.1415 5.13856 3.09955 0
M  V30 1125 H 96.2115 4.48347 1.84696 0
M  V30 1126 N 97.5546 -0.734337 1.39446 0
M  V30 1127 C 98.7796 -1.52866 1.40167 0
M  V30 1128 C 99.2046 -1.881 -0.00171513 0
M  V30 1129 O 98.5626 -1.51957 -0.988879 0
M  V30 1130 C 98.6106 -2.79235 2.28167 0
M  V30 1131 O 97.7146 -3.75185 1.71201 0
M  V30 1132 H 97.0556 -0.461618 0.477289 0
M  V30 1133 H 99.5856 -0.905949 1.8345 0
M  V30 1134 H 99.5956 -3.27963 2.42702 0
M  V30 1135 H 98.2706 -2.52923 3.30156 0
M  V30 1136 H 96.8476 -3.33958 1.65912 0
M  V30 1137 N 99.0327 -1.24633 -0.964593 0
M  V30 1138 C 100.281 -1.08573 -1.70459 0
M  V30 1139 C 100.602 0.375655 -1.91347 0
M  V30 1140 O 99.8717 1.26779 -1.49345 0
M  V30 1141 H 98.4517 -0.398784 -0.631649 0
M  V30 1142 H 101.114 -1.56601 -1.16026 0
M  V30 1143 H 100.21 -1.58623 -2.68785 0
M  V30 1144 N 100.511 1.16574 -1.06058 0
M  V30 1145 C 101.759 1.86677 -0.77434 0
M  V30 1146 C 102.08 1.81959 0.701147 0
M  V30 1147 O 101.35 1.2515 1.50713 0
M  V30 1148 H 99.9298 0.691134 -0.283449 0
M  V30 1149 H 102.592 1.41378 -1.34158 0
M  V30 1150 H 101.688 2.92181 -1.09711 0
M  V30 1151 N 101.989 0.842826 1.3317 0
M  V30 1152 C 103.217 0.454055 2.01856 0
M  V30 1153 C 103.632 -0.94587 1.63397 0
M  V30 1154 O 102.989 -1.61534 0.849302 0
M  V30 1155 C 103.04 0.569715 3.56982 0
M  V30 1156 O 102.761 1.91448 3.94055 0
M  V30 1157 C 104.262 0.178412 4.42941 0
M  V30 1158 H 101.482 0.17979 0.646465 0
M  V30 1159 H 104.026 1.1365 1.70012 0
M  V30 1160 H 102.181 -0.0648587 3.87346 0
M  V30 1161 H 102.595 1.90282 4.88767 0
M  V30 1162 H 104.069 0.310376 5.51127 0
M  V30 1163 H 104.546 -0.880056 4.30293 0
M  V30 1164 H 105.152 0.787579 4.17944 0
M  V30 1165 N 103.467 -1.45747 0.599634 0
M  V30 1166 C 104.397 -2.33235 -0.111306 0
M  V30 1167 C 105.378 -1.46359 -0.866781 0
M  V30 1168 O 106.563 -1.75146 -0.838904 0
M  V30 1169 C 103.693 -3.28932 -1.11451 0
M  V30 1170 C 102.647 -4.25381 -0.472772 0
M  V30 1171 C 101.973 -5.1071 -1.58365 0
M  V30 1172 C 103.273 -5.18831 0.600948 0
M  V30 1173 H 104.967 -2.92927 0.61919 0
M  V30 1174 H 102.513 -1.40857 0.299215 0
M  V30 1175 H 104.466 -3.89002 -1.62036 0
M  V30 1176 H 103.19 -2.67381 -1.8755 0
M  V30 1177 H 101.849 -3.66598 0.0121472 0
M  V30 1178 H 101.497 -4.45533 -2.33473 0
M  V30 1179 H 101.197 -5.7604 -1.15982 0
M  V30 1180 H 102.721 -5.73647 -2.09194 0
M  V30 1181 H 104.135 -5.73019 0.179491 0
M  V30 1182 H 102.532 -5.92595 0.946076 0
M  V30 1183 H 103.602 -4.6174 1.48068 0
M  V30 1184 N 104.945 -0.338344 -1.53925 0
M  V30 1185 C 106.356 0.146651 -1.86123 0
M  V30 1186 C 106.707 1.5042 -1.2597 0
M  V30 1187 O 105.832 2.08723 -0.571294 0
M  V30 1188 C 106.427 0.272879 -3.37699 0
M  V30 1189 C 104.986 0.702103 -3.69794 0
M  V30 1190 C 104.133 -0.167304 -2.76795 0
M  V30 1191 H 107.084 -0.558123 -1.48562 0
M  V30 1192 H 107.105 1.10128 -3.64214 0
M  V30 1193 H 106.617 -0.715307 -3.81451 0
M  V30 1194 H 104.718 1.6995 -3.31584 0
M  V30 1195 H 104.831 0.495604 -4.7653 0
M  V30 1196 H 103.195 0.359527 -2.5215 0
M  V30 1197 H 103.978 -1.15253 -3.23375 0
M  V30 1198 N 106.423 1.57458 -0.0668435 0
M  V30 1199 C 107.67 1.93301 0.603406 0
M  V30 1200 C 107.998 0.946486 1.69917 0
M  V30 1201 O 107.253 -0.0387021 1.95662 0
M  V30 1202 C 107.552 3.35784 1.22409 0
M  V30 1203 C 107.218 4.50179 0.254955 0
M  V30 1204 C 105.88 4.81199 -0.0116746 0
M  V30 1205 C 108.232 5.19598 -0.408338 0
M  V30 1206 C 105.56 5.78978 -0.94877 0
M  V30 1207 C 107.912 6.18381 -1.33372 0
M  V30 1208 C 106.576 6.47821 -1.60887 0
M  V30 1209 H 105.846 0.707338 0.220802 0
M  V30 1210 H 108.493 1.91012 -0.136665 0
M  V30 1211 H 106.798 3.34515 2.03978 0
M  V30 1212 H 108.495 3.60804 1.74989 0
M  V30 1213 H 105.085 4.25983 0.472954 0
M  V30 1214 H 109.269 4.95832 -0.215456 0
M  V30 1215 H 104.525 6.00115 -1.16925 0
M  V30 1216 H 108.699 6.71277 -1.85367 0
M  V30 1217 H 106.326 7.23399 -2.33661 0
M  V30 1218 N 107.901 -0.206675 1.56239 0
M  V30 1219 C 109.148 -0.928842 1.79941 0
M  V30 1220 C 109.476 -1.83734 0.638131 0
M  V30 1221 O 108.731 -1.92039 -0.376746 0
M  V30 1222 C 109.03 -1.78675 3.09532 0
M  V30 1223 C 108.696 -1.03022 4.38973 0
M  V30 1224 C 107.358 -0.821302 4.74139 0
M  V30 1225 C 109.71 -0.497081 5.18824 0
M  V30 1226 C 107.038 -0.0675719 5.86661 0
M  V30 1227 C 109.39 0.24338 6.32132 0
M  V30 1228 C 108.054 0.463422 6.65889 0
M  V30 1229 H 107.324 -0.339887 0.658451 0
M  V30 1230 H 109.971 -0.195977 1.90495 0
M  V30 1231 H 108.276 -2.58794 2.94165 0
M  V30 1232 H 109.973 -2.34792 3.25075 0
M  V30 1233 H 106.563 -1.20306 4.11369 0
M  V30 1234 H 110.747 -0.645921 4.92079 0
M  V30 1235 H 106.003 0.112995 6.11296 0
M  V30 1236 H 110.177 0.66393 6.93228 0
M  V30 1237 H 107.804 1.04938 7.52922 0
M  V30 1238 N 109.379 -1.50304 -0.473955 0
M  V30 1239 C 110.628 -1.60392 -1.22301 0
M  V30 1240 C 110.941 -0.308411 -1.93153 0
M  V30 1241 O 112.147 -0.288156 -2.69966 0
M  V30 1242 C 110.603 -2.83109 -2.2221 0
M  V30 1243 C 110.211 -4.19524 -1.57173 0
M  V30 1244 C 111.955 -3.0254 -2.97775 0
M  V30 1245 C 109.862 -5.33431 -2.55353 0
M  V30 1246 H 108.792 -0.597286 -0.460179 0
M  V30 1247 H 111.443 -1.76731 -0.493803 0
M  V30 1248 H 109.825 -2.60322 -2.9841 0
M  V30 1249 H 110.999 -4.52554 -0.867824 0
M  V30 1250 H 109.314 -4.05674 -0.939002 0
M  V30 1251 H 111.911 -3.84811 -3.71248 0
M  V30 1252 H 112.254 -2.14154 -3.56992 0
M  V30 1253 H 112.787 -3.25494 -2.28688 0
M  V30 1254 H 109.526 -6.23962 -2.00878 0
M  V30 1255 H 109.046 -5.04823 -3.23904 0
M  V30 1256 H 110.725 -5.63887 -3.17239 0
M  V30 1257 N 110.857 0.726932 -1.39834 0
M  V30 1258 C 112.082 1.52121 -1.40976 0
M  V30 1259 C 112.507 1.88098 -0.00826029 0
M  V30 1260 O 111.865 1.52479 0.980807 0
M  V30 1261 C 111.913 2.78021 -2.29644 0
M  V30 1262 O 111.017 3.74272 -1.73188 0
M  V30 1263 H 110.358 0.45908 -0.479731 0
M  V30 1264 H 112.888 0.896207 -1.83927 0
M  V30 1265 H 112.898 3.26671 -2.44438 0
M  V30 1266 H 111.573 2.51169 -3.31492 0
M  V30 1267 H 110.15 3.33073 -1.6768 0
M  V30 1268 N 112.336 1.25143 0.95797 0
M  V30 1269 C 113.582 1.09855 1.70469 0
M  V30 1270 C 113.915 -0.360187 1.90831 0
M  V30 1271 O 113.19 -1.26568 1.47685 0
M  V30 1272 C 113.473 1.8497 3.08963 0
M  V30 1273 C 113.326 3.38652 2.96032 0
M  V30 1274 C 114.645 1.63016 4.08795 0
M  V30 1275 H 111.764 0.400465 0.618706 0
M  V30 1276 H 114.406 1.53933 1.11376 0
M  V30 1277 H 112.556 1.47505 3.59409 0
M  V30 1278 H 114.228 3.85772 2.52938 0
M  V30 1279 H 112.471 3.66534 2.32025 0
M  V30 1280 H 113.142 3.8642 3.94187 0
M  V30 1281 H 115.618 1.95625 3.67247 0
M  V30 1282 H 114.494 2.18015 5.03747 0
M  V30 1283 H 114.755 0.570692 4.38401 0
M  V30 1284 N 113.814 -1.1601 1.06675 0
M  V30 1285 C 115.061 -1.86633 0.785781 0
M  V30 1286 C 115.389 -1.81929 -0.687896 0
M  V30 1287 O 114.644 -1.23253 -1.52011 0
M  V30 1288 C 114.943 -3.35547 1.23057 0
M  V30 1289 C 114.609 -3.60448 2.70902 0
M  V30 1290 C 113.271 -3.66954 3.11285 0
M  V30 1291 C 115.623 -3.7071 3.66365 0
M  V30 1292 C 112.951 -3.81225 4.45965 0
M  V30 1293 C 115.303 -3.86503 5.00797 0
M  V30 1294 C 113.967 -3.91252 5.40813 0
M  V30 1295 H 113.237 -0.682937 0.287538 0
M  V30 1296 H 115.884 -1.37146 1.33654 0
M  V30 1297 H 114.189 -3.87193 0.59907 0
M  V30 1298 H 115.886 -3.88583 0.990163 0
M  V30 1299 H 112.476 -3.56021 2.38636 0
M  V30 1300 H 116.66 -3.64991 3.36296 0
M  V30 1301 H 111.916 -3.83155 4.76447 0
M  V30 1302 H 116.09 -3.93385 5.74649 0
M  V30 1303 H 113.717 -4.02062 6.45174 0
M  V30 1304 N 115.292 -0.849877 -1.32721 0
M  V30 1305 C 116.54 -0.450032 -1.97026 0
M  V30 1306 C 116.861 0.996604 -1.67609 0
M  V30 1307 O 116.131 1.6958 -0.980786 0
M  V30 1308 H 114.711 -0.163426 -0.728904 0
M  V30 1309 H 117.373 -1.08526 -1.6189 0
M  V30 1310 H 116.469 -0.591146 -3.0645 0
M  V30 1311 N 116.77 1.45427 -0.607355 0
M  V30 1312 C 118.016 2.0254 -0.102607 0
M  V30 1313 C 118.349 1.47478 1.26348 0
M  V30 1314 O 117.624 0.64939 1.83339 0
M  V30 1315 C 117.907 3.60044 -0.0634347 0
M  V30 1316 C 117.76 4.2544 -1.46017 0
M  V30 1317 C 119.079 4.35646 0.624514 0
M  V30 1318 H 116.198 0.73598 -0.0387607 0
M  V30 1319 H 118.84 1.73284 -0.779282 0
M  V30 1320 H 116.99 3.85101 0.512808 0
M  V30 1321 H 118.662 4.11569 -2.08347 0
M  V30 1322 H 116.905 3.83849 -2.02094 0
M  V30 1323 H 117.576 5.34342 -1.385 0
M  V30 1324 H 120.052 4.15882 0.134723 0
M  V30 1325 H 118.928 5.45376 0.621028 0
M  V30 1326 H 119.189 4.08501 1.69055 0
M  V30 1327 N 118.248 0.346503 1.53744 0
M  V30 1328 C 119.497 -0.250122 2.00143 0
M  V30 1329 C 119.81 -1.51418 1.23822 0
M  V30 1330 O 121.016 -2.18823 1.60713 0
M  V30 1331 C 119.472 -0.496252 3.56462 0
M  V30 1332 C 119.08 0.752077 4.41642 0
M  V30 1333 C 120.824 -1.05157 4.11269 0
M  V30 1334 C 118.731 0.476583 5.89477 0
M  V30 1335 H 117.661 -0.0972409 0.747703 0
M  V30 1336 H 120.312 0.46229 1.77581 0
M  V30 1337 H 118.694 -1.26944 3.75102 0
M  V30 1338 H 119.868 1.5266 4.34778 0
M  V30 1339 H 118.183 1.22925 3.97842 0
M  V30 1340 H 120.78 -1.27269 5.19333 0
M  V30 1341 H 121.123 -2.00799 3.64672 0
M  V30 1342 H 121.656 -0.339019 3.96353 0
M  V30 1343 H 118.395 1.4028 6.40314 0
M  V30 1344 H 117.915 -0.259794 5.99237 0
M  V30 1345 H 119.594 0.0949315 6.4693 0
M  V30 1346 N 119.726 -1.57421 0.075193 0
M  V30 1347 C 120.656 -2.15942 -0.888324 0
M  V30 1348 C 121.637 -1.08737 -1.30806 0
M  V30 1349 O 122.822 -1.36787 -1.37851 0
M  V30 1350 C 119.952 -2.72379 -2.1547 0
M  V30 1351 C 118.906 -3.8478 -1.87425 0
M  V30 1352 C 118.232 -4.27834 -3.20721 0
M  V30 1353 C 119.532 -5.08869 -1.17684 0
M  V30 1354 H 121.226 -2.96705 -0.400799 0
M  V30 1355 H 118.772 -1.42723 -0.191342 0
M  V30 1356 H 120.725 -3.11965 -2.83295 0
M  V30 1357 H 119.449 -1.88841 -2.6647 0
M  V30 1358 H 118.108 -3.45703 -1.22004 0
M  V30 1359 H 117.756 -3.41214 -3.6957 0
M  V30 1360 H 117.456 -5.03605 -3.02746 0
M  V30 1361 H 118.98 -4.70039 -3.89738 0
M  V30 1362 H 120.394 -5.4575 -1.75584 0
M  V30 1363 H 118.791 -5.8994 -1.09956 0
M  V30 1364 H 119.861 -4.84648 -0.156453 0
M  V30 1365 N 121.204 0.198386 -1.56346 0
M  V30 1366 C 122.151 1.24589 -1.94284 0
M  V30 1367 C 123.121 1.454 -0.802997 0
M  V30 1368 O 124.306 1.58588 -1.06087 0
M  V30 1369 C 121.446 2.58631 -2.28482 0
M  V30 1370 C 120.559 2.45426 -3.55514 0
M  V30 1371 C 119.694 3.7215 -3.79049 0
M  V30 1372 C 118.733 3.53763 -4.99518 0
M  V30 1373 N 117.87 4.72491 -5.19323 0
M  V30 1374 H 122.71 0.915356 -2.83593 0
M  V30 1375 H 120.247 0.440629 -1.40346 0
M  V30 1376 H 122.205 3.3672 -2.46324 0
M  V30 1377 H 120.835 2.89734 -1.42317 0
M  V30 1378 H 119.887 1.58652 -3.45737 0
M  V30 1379 H 121.199 2.27772 -4.43758 0
M  V30 1380 H 120.353 4.58679 -3.97113 0
M  V30 1381 H 119.092 3.92754 -2.89129 0
M  V30 1382 H 118.097 2.65619 -4.8138 0
M  V30 1383 H 119.322 3.34607 -5.90944 0
M  V30 1384 H 117.268 4.93365 -4.3235 0
M  V30 1385 H 117.185 4.5765 -6.01741 0
M  V30 1386 H 118.453 5.6038 -5.41843 0
M  V30 1387 N 122.682 1.50554 0.465978 0
M  V30 1388 C 123.63 1.70324 1.58406 0
M  V30 1389 C 124.624 0.569139 1.59553 0
M  V30 1390 O 125.83 0.749776 1.63641 0
M  V30 1391 H 122.205 0.537688 0.525734 0
M  V30 1392 H 124.176 2.64104 1.38894 0
M  V30 1393 C 122.925 1.81928 2.96307 0
M  V30 1394 H 122.248 2.68586 2.96144 0
M  V30 1395 H 123.688 1.99784 3.73982 0
M  V30 1396 C 122.147 0.572095 3.32007 0
M  V30 1397 O 122.677 -0.286416 4.00678 0
M  V30 1398 N 120.883 0.424606 2.87481 0
M  V30 1399 H 120.43 1.12427 2.31771 0
M  V30 1400 H 120.388 -0.408697 3.11732 0
M  V30 1401 N 124.16 -0.719506 1.40217 0
M  V30 1402 C 125.093 -1.84298 1.34571 0
M  V30 1403 C 126.071 -1.61149 0.216741 0
M  V30 1404 O 127.255 -1.84212 0.399756 0
M  V30 1405 C 124.382 -3.20568 1.09335 0
M  V30 1406 C 123.428 -3.62551 2.24631 0
M  V30 1407 S 124.261 -3.7012 3.87004 0
M  V30 1408 C 125.417 -5.09154 3.64024 0
M  V30 1409 H 125.65 -1.88807 2.2965 0
M  V30 1410 H 123.183 -0.885901 1.26456 0
M  V30 1411 H 125.141 -3.99246 0.954602 0
M  V30 1412 H 123.802 -3.13696 0.159164 0
M  V30 1413 H 122.995 -4.61483 2.02606 0
M  V30 1414 H 122.597 -2.91119 2.34789 0
M  V30 1415 H 124.889 -5.95955 3.22248 0
M  V30 1416 H 125.832 -5.36213 4.62473 0
M  V30 1417 H 126.24 -4.79562 2.97793 0
M  V30 1418 N 125.638 -1.25649 -0.95132 0
M  V30 1419 C 126.586 -1.06118 -2.06982 0
M  V30 1420 C 127.58 0.00889169 -1.69398 0
M  V30 1421 O 128.786 -0.146988 -1.79399 0
M  V30 1422 H 125.161 -0.326248 -0.677544 0
M  V30 1423 H 127.132 -2.00932 -2.2061 0
M  V30 1424 C 125.881 -0.700145 -3.40578 0
M  V30 1425 H 125.204 -1.51537 -3.69968 0
M  V30 1426 H 126.644 -0.603211 -4.19687 0
M  V30 1427 C 125.103 0.59403 -3.31622 0
M  V30 1428 O 125.633 1.63522 -3.66911 0
M  V30 1429 N 123.839 0.58089 -2.84735 0
M  V30 1430 H 123.386 -0.266783 -2.56215 0
M  V30 1431 H 123.344 1.44695 -2.79125 0
M  V30 1432 N 127.117 1.15442 -1.07289 0
M  V30 1433 C 128.047 2.22312 -0.714107 0
M  V30 1434 C 129.028 1.67467 0.298155 0
M  V30 1435 O 130.213 1.93445 0.171048 0
M  V30 1436 C 127.343 3.47124 -0.110448 0
M  V30 1437 C 126.297 4.14926 -1.04979 0
M  V30 1438 C 125.623 5.33807 -0.308924 0
M  V30 1439 C 126.923 4.64762 -2.38314 0
M  V30 1440 H 128.617 2.5258 -1.6076 0
M  V30 1441 H 126.163 1.21404 -0.77441 0
M  V30 1442 H 128.116 4.21124 0.152482 0
M  V30 1443 H 126.84 3.16187 0.81812 0
M  V30 1444 H 125.499 3.42866 -1.29764 0
M  V30 1445 H 125.147 4.99126 0.623084 0
M  V30 1446 H 124.847 5.80113 -0.935036 0
M  V30 1447 H 126.371 6.10576 -0.0537771 0
M  V30 1448 H 127.785 5.30292 -2.1786 0
M  V30 1449 H 126.182 5.21728 -2.96514 0
M  V30 1450 H 127.252 3.80434 -3.00663 0
M  V30 1451 N 128.595 0.856903 1.32268 0
M  V30 1452 C 129.843 0.460474 1.96784 0
M  V30 1453 C 130.164 -0.987701 1.68135 0
M  V30 1454 O 129.434 -1.69058 0.989765 0
M  V30 1455 H 128.014 0.167289 0.728027 0
M  V30 1456 H 130.676 1.09383 1.61312 0
M  V30 1457 H 129.772 0.60739 3.06133 0
M  V30 1458 N 130.073 -1.45103 0.615059 0
M  V30 1459 C 131.35 -1.95549 0.0448276 0
M  V30 1460 C 131.73 -1.55737 -1.4251 0
M  V30 1461 O 131.078 -0.823556 -2.13143 0
M  V30 1462 C 131.288 -3.48098 0.250785 0
M  V30 1463 C 132.636 -4.24384 0.135509 0
M  V30 1464 O 133.66 -3.55738 0.181299 0
M  V30 1465 O 132.519 -5.46493 0.0268878 0
M  V30 1466 H 129.613 -0.8264 -0.0314845 0
M  V30 1467 H 132.159 -1.55232 0.685642 0
M  V30 1468 H 130.931 -3.7007 1.27139 0
M  V30 1469 H 130.554 -3.95323 -0.424937 0
M  V30 1470 N 131.551 -0.354651 -1.53558 0
M  V30 1471 C 132.828 0.294281 -1.93374 0
M  V30 1472 C 133.208 1.67313 -1.28723 0
M  V30 1473 O 132.556 2.24179 -0.442247 0
M  V30 1474 C 132.766 0.355445 -3.47185 0
M  V30 1475 C 134.114 0.601007 -4.20325 0
M  V30 1476 O 135.138 0.437106 -3.53508 0
M  V30 1477 O 133.997 0.919322 -5.38712 0
M  V30 1478 H 131.091 0.174033 -0.808481 0
M  V30 1479 H 133.637 -0.406638 -1.64756 0
M  V30 1480 H 132.409 -0.611729 -3.86489 0
M  V30 1481 H 132.032 1.1027 -3.82003 0
M  V30 1482 N 133.029 1.57378 -0.0835403 0
M  V30 1483 C 134.278 1.93106 0.582498 0
M  V30 1484 C 134.591 0.96651 1.70053 0
M  V30 1485 O 135.797 1.21705 2.42693 0
M  V30 1486 C 134.253 3.43076 1.08751 0
M  V30 1487 C 133.861 4.48 -0.000146404 0
M  V30 1488 C 135.605 3.87785 1.72694 0
M  V30 1489 C 133.512 5.89113 0.519568 0
M  V30 1490 H 132.442 0.720775 0.221358 0
M  V30 1491 H 135.093 1.82821 -0.157675 0
M  V30 1492 H 133.475 3.48474 1.88101 0
M  V30 1493 H 134.649 4.54233 -0.775199 0
M  V30 1494 H 132.964 4.1283 -0.54406 0
M  V30 1495 H 135.561 4.90604 2.1263 0
M  V30 1496 H 135.904 3.25796 2.59158 0
M  V30 1497 H 136.437 3.8504 0.999457 0
M  V30 1498 H 133.176 6.54775 -0.308186 0
M  V30 1499 H 132.696 5.86376 1.26188 0
M  V30 1500 H 134.375 6.39346 0.992237 0
M  V30 1501 N 134.507 -0.190092 1.56449 0
M  V30 1502 C 135.455 -1.25501 1.95837 0
M  V30 1503 C 136.449 -1.4685 0.844485 0
M  V30 1504 O 137.655 -1.47651 1.02952 0
M  V30 1505 H 134.03 -0.421447 0.622805 0
M  V30 1506 H 136.001 -0.895821 2.84636 0
M  V30 1507 C 134.75 -2.59124 2.31841 0
M  V30 1508 H 134.073 -2.43514 3.17082 0
M  V30 1509 H 135.513 -3.32371 2.6326 0
M  V30 1510 C 133.972 -3.16488 1.15486 0
M  V30 1511 O 134.502 -3.99365 0.432535 0
M  V30 1512 N 132.708 -2.75305 0.930349 0
M  V30 1513 H 132.255 -2.08013 1.51948 0
M  V30 1514 H 132.213 -3.14024 0.153634 0
M  V30 1515 N 135.985 -1.50799 -0.457987 0
M  V30 1516 C 137.396 -1.55152 -1.0385 0
M  V30 1517 C 137.747 -0.362719 -1.92818 0
M  V30 1518 O 136.872 0.522915 -2.09987 0
M  V30 1519 C 137.467 -2.81173 -1.89017 0
M  V30 1520 C 136.026 -2.88164 -2.42154 0
M  V30 1521 C 135.173 -2.49591 -1.20829 0
M  V30 1522 H 138.124 -1.56874 -0.240068 0
M  V30 1523 H 138.145 -2.63769 -2.74238 0
M  V30 1524 H 137.657 -3.67677 -1.24238 0
M  V30 1525 H 135.758 -2.06042 -3.10447 0
M  V30 1526 H 135.871 -3.91356 -2.76364 0
M  V30 1527 H 134.235 -2.02322 -1.54719 0
M  V30 1528 H 135.018 -3.38418 -0.576927 0
M  V30 1529 N 137.463 0.71206 -1.40597 0
M  V30 1530 C 138.712 1.46754 -1.38369 0
M  V30 1531 C 139.025 1.95598 0.0097839 0
M  V30 1532 O 140.231 2.71059 0.154677 0
M  V30 1533 C 138.687 2.65289 -2.43207 0
M  V30 1534 C 138.295 2.23301 -3.88382 0
M  V30 1535 C 140.039 3.43008 -2.50091 0
M  V30 1536 C 137.946 3.38696 -4.84808 0
M  V30 1537 H 136.876 0.55118 -0.514506 0
M  V30 1538 H 139.527 0.774616 -1.66349 0
M  V30 1539 H 137.909 3.36769 -2.08332 0
M  V30 1540 H 139.083 1.59218 -4.32419 0
M  V30 1541 H 137.398 1.58618 -3.85006 0
M  V30 1542 H 139.995 4.28881 -3.1932 0
M  V30 1543 H 140.338 3.87065 -1.53253 0
M  V30 1544 H 140.871 2.78574 -2.83974 0
M  V30 1545 H 137.61 2.99668 -5.82992 0
M  V30 1546 H 137.13 4.01683 -4.45433 0
M  V30 1547 H 138.809 4.04712 -5.04794 0
M  V30 1548 N 138.941 1.26152 0.944643 0
M  V30 1549 C 140.19 1.10883 1.68487 0
M  V30 1550 C 140.503 -0.348153 1.92477 0
M  V30 1551 O 141.709 -0.621459 2.64292 0
M  V30 1552 C 140.165 1.93624 3.03377 0
M  V30 1553 C 139.773 3.43875 2.87148 0
M  V30 1554 C 141.517 1.86954 3.81115 0
M  V30 1555 C 139.424 4.18875 4.1749 0
M  V30 1556 H 138.354 0.41135 0.631907 0
M  V30 1557 H 141.005 1.50433 1.05082 0
M  V30 1558 H 139.387 1.46904 3.67743 0
M  V30 1559 H 140.561 3.98338 2.31653 0
M  V30 1560 H 138.876 3.51744 2.22856 0
M  V30 1561 H 141.473 2.40275 4.77673 0
M  V30 1562 H 141.816 0.839518 4.07747 0
M  V30 1563 H 142.349 2.31477 3.23517 0
M  V30 1564 H 139.088 5.22332 3.96043 0
M  V30 1565 H 138.608 3.69193 4.72712 0
M  V30 1566 H 140.287 4.27134 4.85968 0
M  V30 1567 N 140.419 -1.14872 1.07899 0
M  V30 1568 C 141.349 -2.2193 0.725887 0
M  V30 1569 C 142.33 -1.67622 -0.28927 0
M  V30 1570 O 143.515 -1.93533 -0.160787 0
M  V30 1571 C 140.645 -3.47061 0.128856 0
M  V30 1572 C 139.599 -4.14363 1.07178 0
M  V30 1573 C 138.925 -5.33636 0.337229 0
M  V30 1574 C 140.225 -4.63492 2.40775 0
M  V30 1575 H 141.919 -2.51724 1.62097 0
M  V30 1576 H 139.465 -1.20991 0.780838 0
M  V30 1577 H 141.418 -4.21199 -0.130147 0
M  V30 1578 H 140.142 -3.16617 -0.80134 0
M  V30 1579 H 138.801 -3.42173 1.3158 0
M  V30 1580 H 138.449 -4.99449 -0.596606 0
M  V30 1581 H 138.149 -5.79609 0.965788 0
M  V30 1582 H 139.673 -6.10539 0.0861567 0
M  V30 1583 H 141.087 -5.2913 2.20669 0
M  V30 1584 H 139.484 -5.20148 2.99276 0
M  V30 1585 H 140.554 -3.78834 3.02676 0
M  V30 1586 N 141.898 -0.863906 -1.31812 0
M  V30 1587 C 143.123 -0.48527 -2.01643 0
M  V30 1588 C 143.548 0.913058 -1.64453 0
M  V30 1589 O 142.906 1.6014 -0.849985 0
M  V30 1590 C 142.954 -0.642625 -3.54828 0
M  V30 1591 O 142.058 0.320659 -4.11151 0
M  V30 1592 H 141.399 -0.193793 -0.635091 0
M  V30 1593 H 143.929 -1.16565 -1.68148 0
M  V30 1594 H 143.939 -0.533628 -4.04495 0
M  V30 1595 H 142.614 -1.66227 -3.81237 0
M  V30 1596 H 141.191 0.167126 -3.72525 0
M  V30 1597 N 143.376 1.44774 -0.622745 0
M  V30 1598 C 144.306 2.33382 0.0741861 0
M  V30 1599 C 145.287 1.47719 0.843387 0
M  V30 1600 O 146.472 1.76458 0.810934 0
M  V30 1601 C 143.602 3.30663 1.06204 0
M  V30 1602 C 142.556 4.26079 0.405037 0
M  V30 1603 C 141.882 5.13165 1.5022 0
M  V30 1604 C 143.182 5.1781 -0.683414 0
M  V30 1605 H 144.876 2.91905 -0.665713 0
M  V30 1606 H 142.422 1.40363 -0.321587 0
M  V30 1607 H 144.375 3.9153 1.55827 0
M  V30 1608 H 143.099 2.70331 1.83272 0
M  V30 1609 H 141.758 3.66532 -0.0704683 0
M  V30 1610 H 141.406 4.49191 2.26355 0
M  V30 1611 H 141.106 5.77812 1.06803 0
M  V30 1612 H 142.63 5.76902 2.00041 0
M  V30 1613 H 144.044 5.72661 -0.270631 0
M  V30 1614 H 142.441 5.91015 -1.04023 0
M  V30 1615 H 143.511 4.59326 -1.55395 0
M  V30 1616 N 144.854 0.36279 1.53368 0
M  V30 1617 C 146.1 -0.228113 2.01513 0
M  V30 1618 C 146.433 -1.48648 1.2497 0
M  V30 1619 O 145.708 -1.91459 0.342616 0
M  V30 1620 C 145.991 -0.522884 3.56284 0
M  V30 1621 C 145.844 0.74892 4.43521 0
M  V30 1622 C 147.163 -1.32461 4.19693 0
M  V30 1623 H 144.282 -0.0814343 0.732487 0
M  V30 1624 H 146.924 0.48713 1.83649 0
M  V30 1625 H 145.074 -1.1322 3.71636 0
M  V30 1626 H 146.746 1.38648 4.39971 0
M  V30 1627 H 144.989 1.36986 4.11603 0
M  V30 1628 H 145.66 0.497667 5.49752 0
M  V30 1629 H 148.136 -0.809203 4.08156 0
M  V30 1630 H 147.012 -1.49961 5.28018 0
M  V30 1631 H 147.273 -2.33232 3.75573 0
M  V30 1632 N 146.332 -1.57332 0.0918853 0
M  V30 1633 C 147.557 -1.98995 -0.584442 0
M  V30 1634 C 147.982 -0.970528 -1.61128 0
M  V30 1635 O 147.34 0.0613904 -1.81196 0
M  V30 1636 C 147.388 -3.39636 -1.21161 0
M  V30 1637 O 146.492 -3.40447 -2.32744 0
M  V30 1638 H 145.833 -0.647165 -0.148572 0
M  V30 1639 H 148.363 -2.03873 0.172347 0
M  V30 1640 H 148.373 -3.7726 -1.55367 0
M  V30 1641 H 147.048 -4.13356 -0.459313 0
M  V30 1642 H 145.625 -3.14614 -2.0018 0
M  V30 1643 N 147.81 0.181792 -1.56548 0
M  V30 1644 C 149.059 0.898348 -1.8059 0
M  V30 1645 C 149.372 1.83862 -0.667379 0
M  V30 1646 O 150.578 2.59678 -0.792446 0
M  V30 1647 C 149.034 1.64791 -3.19956 0
M  V30 1648 C 148.642 0.751789 -4.41647 0
M  V30 1649 C 150.386 2.35331 -3.53298 0
M  V30 1650 C 148.293 1.50098 -5.72035 0
M  V30 1651 H 147.223 0.339194 -0.673397 0
M  V30 1652 H 149.874 0.151413 -1.82874 0
M  V30 1653 H 148.256 2.43921 -3.11959 0
M  V30 1654 H 149.43 -0.0018076 -4.608 0
M  V30 1655 H 147.745 0.156562 -4.16106 0
M  V30 1656 H 150.342 2.91958 -4.47956 0
M  V30 1657 H 150.685 3.10164 -2.77676 0
M  V30 1658 H 151.218 1.63154 -3.62803 0
M  V30 1659 H 147.957 0.795175 -6.50659 0
M  V30 1660 H 147.477 2.22817 -5.56878 0
M  V30 1661 H 149.156 2.05125 -6.13622 0
M  V30 1662 N 149.288 1.51039 0.449983 0
M  V30 1663 C 150.536 1.62759 1.19808 0
M  V30 1664 C 150.857 0.339981 1.92013 0
M  V30 1665 O 150.127 -0.643606 1.85026 0
M  V30 1666 H 148.707 0.599811 0.445237 0
M  V30 1667 H 151.369 1.87914 0.517138 0
M  V30 1668 H 150.465 2.44911 1.93455 0
M  V30 1669 N 150.766 -0.704594 1.40972 0
M  V30 1670 C 151.696 -1.83124 1.44872 0
M  V30 1671 C 152.677 -1.67281 0.30838 0
M  V30 1672 O 153.862 -1.87149 0.518556 0
M  V30 1673 C 150.992 -3.21181 1.32136 0
M  V30 1674 C 149.946 -3.51714 2.43888 0
M  V30 1675 C 149.272 -4.89032 2.16222 0
M  V30 1676 C 150.572 -3.516 3.86232 0
M  V30 1677 H 152.266 -1.80117 2.39161 0
M  V30 1678 H 149.812 -0.865145 1.15114 0
M  V30 1679 H 151.765 -3.99702 1.33479 0
M  V30 1680 H 150.489 -3.24791 0.343279 0
M  V30 1681 H 149.148 -2.75539 2.41813 0
M  V30 1682 H 148.796 -4.89256 1.16778 0
M  V30 1683 H 148.496 -5.10426 2.911 0
M  V30 1684 H 150.02 -5.69873 2.19265 0
M  V30 1685 H 151.434 -4.2014 3.9007 0
M  V30 1686 H 149.831 -3.84523 4.60719 0
M  V30 1687 H 150.901 -2.50757 4.15029 0
M  V30 1688 N 152.244 -1.26651 -0.937939 0
M  V30 1689 C 153.49 -1.12553 -1.687 0
M  V30 1690 C 153.823 0.329782 -1.91379 0
M  V30 1691 O 153.098 1.24202 -1.4968 0
M  V30 1692 C 153.381 -1.89862 -3.05981 0
M  V30 1693 C 153.234 -3.43318 -2.90607 0
M  V30 1694 C 154.553 -1.69499 -4.0615 0
M  V30 1695 H 151.672 -0.410257 -0.612257 0
M  V30 1696 H 154.314 -1.55685 -1.08913 0
M  V30 1697 H 152.464 -1.53204 -3.57017 0
M  V30 1698 H 154.136 -3.89747 -2.46769 0
M  V30 1699 H 152.379 -3.70179 -2.26164 0
M  V30 1700 H 153.05 -3.92642 -3.8799 0
M  V30 1701 H 155.526 -2.01442 -3.64088 0
M  V30 1702 H 154.402 -2.26002 -5.00214 0
M  V30 1703 H 154.663 -0.640365 -4.37438 0
M  V30 1704 N 153.722 1.14298 -1.08507 0
M  V30 1705 C 154.654 2.1907 -0.673859 0
M  V30 1706 C 155.667 1.60381 0.279577 0
M  V30 1707 O 156.856 1.78374 0.0670754 0
M  V30 1708 C 153.956 3.38888 0.0290979 0
M  V30 1709 C 153.129 4.27103 -0.943494 0
M  V30 1710 C 152.188 5.25477 -0.275676 0
M  V30 1711 O 151.214 5.61709 -0.920401 0
M  V30 1712 N 152.416 5.7227 0.974013 0
M  V30 1713 H 155.181 2.54965 -1.57521 0
M  V30 1714 H 152.742 1.29528 -0.971287 0
M  V30 1715 H 154.734 4.01761 0.48683 0
M  V30 1716 H 153.304 3.01309 0.832555 0
M  V30 1717 H 152.524 3.61149 -1.58004 0
M  V30 1718 H 153.812 4.82905 -1.60251 0
M  V30 1719 H 153.21 5.44965 1.51755 0
M  V30 1720 H 151.767 6.37127 1.37522 0
M  V30 1721 N 155.201 0.870884 1.31352 0
M  V30 1722 C 156.448 0.482273 1.96673 0
M  V30 1723 C 156.776 -0.965638 1.68836 0
M  V30 1724 O 156.031 -1.69514 0.977937 0
M  V30 1725 C 156.33 0.687157 3.50732 0
M  V30 1726 C 155.996 2.108 3.9859 0
M  V30 1727 C 154.658 2.49656 4.1137 0
M  V30 1728 C 157.01 3.03459 4.23748 0
M  V30 1729 C 154.338 3.80412 4.46659 0
M  V30 1730 C 156.69 4.3373 4.60501 0
M  V30 1731 C 155.354 4.725 4.71487 0
M  V30 1732 H 154.624 0.176476 0.719679 0
M  V30 1733 H 157.271 1.10405 1.56471 0
M  V30 1734 H 155.576 -0.0177476 3.91796 0
M  V30 1735 H 157.273 0.366284 3.99324 0
M  V30 1736 H 153.863 1.79633 3.8914 0
M  V30 1737 H 158.047 2.74665 4.13368 0
M  V30 1738 H 153.303 4.1021 4.53362 0
M  V30 1739 H 157.477 5.05578 4.78919 0
M  V30 1740 H 155.104 5.73859 4.98588 0
M  V30 1741 N 156.679 -1.44442 0.630414 0
M  V30 1742 C 157.928 -2.01267 0.132073 0
M  V30 1743 C 158.241 -1.50172 -1.25331 0
M  V30 1744 O 159.447 -1.9912 -1.84562 0
M  V30 1745 C 157.903 -3.59422 0.185362 0
M  V30 1746 C 157.511 -4.19514 1.57201 0
M  V30 1747 C 159.255 -4.23724 -0.256553 0
M  V30 1748 C 157.162 -5.69891 1.58045 0
M  V30 1749 H 156.092 -0.752619 0.0456092 0
M  V30 1750 H 158.743 -1.65666 0.789106 0
M  V30 1751 H 157.125 -3.92318 -0.538759 0
M  V30 1752 H 158.299 -3.98156 2.31966 0
M  V30 1753 H 156.614 -3.67496 1.95795 0
M  V30 1754 H 159.211 -5.34019 -0.269767 0
M  V30 1755 H 159.554 -3.96013 -1.28372 0
M  V30 1756 H 160.087 -3.95629 0.41505 0
M  V30 1757 H 156.826 -6.02336 2.58597 0
M  V30 1758 H 156.346 -5.93373 0.875725 0
M  V30 1759 H 158.025 -6.33515 1.31408 0
M  V30 1760 N 158.157 -0.370918 -1.53173 0
M  V30 1761 C 159.087 0.464847 -2.28826 0
M  V30 1762 C 160.068 1.07936 -1.31468 0
M  V30 1763 O 161.253 1.0956 -1.60344 0
M  V30 1764 C 158.383 1.60196 -3.08147 0
M  V30 1765 C 157.337 1.11443 -4.13237 0
M  V30 1766 C 156.663 2.3422 -4.80672 0
M  V30 1767 C 157.963 0.195384 -5.21934 0
M  V30 1768 H 159.657 -0.166329 -2.98938 0
M  V30 1769 H 157.203 -0.0814359 -1.4377 0
M  V30 1770 H 159.156 2.19332 -3.59822 0
M  V30 1771 H 157.88 2.26045 -2.35735 0
M  V30 1772 H 156.539 0.545727 -3.62515 0
M  V30 1773 H 156.187 2.98537 -4.04827 0
M  V30 1774 H 155.887 2.02269 -5.51689 0
M  V30 1775 H 157.411 2.94032 -5.35143 0
M  V30 1776 H 158.825 0.694375 -5.69079 0
M  V30 1777 H 157.222 -0.0335027 -6.00091 0
M  V30 1778 H 158.292 -0.760961 -4.78892 0
M  V30 1779 N 159.635 1.57281 -0.100228 0
M  V30 1780 C 160.86 1.99302 0.573881 0
M  V30 1781 C 161.285 0.979059 1.60611 0
M  V30 1782 O 160.643 -0.0517803 1.81226 0
M  V30 1783 C 160.691 3.40274 1.19358 0
M  V30 1784 O 159.795 3.41676 2.30935 0
M  V30 1785 H 159.136 0.647944 0.145138 0
M  V30 1786 H 161.666 2.03779 -0.183156 0
M  V30 1787 H 161.676 3.78078 1.53365 0
M  V30 1788 H 160.351 4.13594 0.437385 0
M  V30 1789 H 158.928 3.15672 1.98509 0
M  V30 1790 N 161.113 -0.173488 1.56642 0
M  V30 1791 C 162.046 -1.24353 1.91342 0
M  V30 1792 C 163.024 -1.4289 0.775965 0
M  V30 1793 O 164.208 -1.57932 1.02907 0
M  V30 1794 C 161.335 -2.60683 2.16245 0
M  V30 1795 C 160.381 -2.58894 3.38934 0
M  V30 1796 S 161.214 -2.0819 4.93373 0
M  V30 1797 C 162.37 -3.46302 5.21369 0
M  V30 1798 H 162.603 -0.947345 2.81803 0
M  V30 1799 H 160.136 -0.377958 1.49703 0
M  V30 1800 H 162.094 -3.39149 2.31275 0
M  V30 1801 H 160.755 -2.87502 1.26496 0
M  V30 1802 H 159.948 -3.59188 3.53553 0
M  V30 1803 H 159.55 -1.88522 3.2301 0
M  V30 1804 H 161.842 -4.42287 5.13214 0
M  V30 1805 H 162.785 -3.3656 6.23003 0
M  V30 1806 H 163.193 -3.42214 4.48943 0
M  V30 1807 N 162.591 -1.51276 -0.441967 0
M  V30 1808 C 163.84 -1.6295 -1.18871 0
M  V30 1809 C 164.153 -0.349312 -1.92456 0
M  V30 1810 O 165.359 -0.345355 -2.69295 0
M  V30 1811 C 163.815 -2.87759 -2.16155 0
M  V30 1812 C 163.423 -4.22764 -1.48239 0
M  V30 1813 C 165.167 -3.08788 -2.91291 0
M  V30 1814 C 163.074 -5.38728 -2.4398 0
M  V30 1815 H 162.004 -0.606913 -0.447406 0
M  V30 1816 H 164.655 -1.77739 -0.456205 0
M  V30 1817 H 163.037 -2.66593 -2.92821 0
M  V30 1818 H 164.211 -4.54293 -0.771635 0
M  V30 1819 H 162.526 -4.07575 -0.852741 0
M  V30 1820 H 165.123 -3.92599 -3.63002 0
M  V30 1821 H 165.466 -2.21679 -3.5237 0
M  V30 1822 H 165.999 -3.30272 -2.21733 0
M  V30 1823 H 162.738 -6.28082 -1.87598 0
M  V30 1824 H 162.258 -5.1158 -3.13123 0
M  V30 1825 H 163.937 -5.70489 -3.05207 0
M  V30 1826 N 164.069 0.697108 -1.41344 0
M  V30 1827 C 165.294 1.49096 -1.44171 0
M  V30 1828 C 165.719 1.88038 -0.0481568 0
M  V30 1829 O 165.077 1.54525 0.948243 0
M  V30 1830 C 165.125 2.73088 -2.3549 0
M  V30 1831 O 164.229 3.70514 -1.81088 0
M  V30 1832 H 163.57 0.448801 -0.489361 0
M  V30 1833 H 166.1 0.856992 -1.85787 0
M  V30 1834 H 166.11 3.21413 -2.51312 0
M  V30 1835 H 164.785 2.44081 -3.36745 0
M  V30 1836 H 163.362 3.29441 -1.74708 0
M  V30 1837 N 165.547 1.27147 0.931209 0
M  V30 1838 C 166.772 1.16191 1.71797 0
M  V30 1839 C 167.197 -0.278004 1.86034 0
M  V30 1840 O 166.555 -1.20137 1.35782 0
M  V30 1841 C 166.603 1.84673 3.09723 0
M  V30 1842 O 165.707 1.14231 3.96264 0
M  V30 1843 H 165.048 0.404303 0.526721 0
M  V30 1844 H 167.578 1.68152 1.1656 0
M  V30 1845 H 167.588 1.91893 3.60057 0
M  V30 1846 H 166.263 2.89421 2.98677 0
M  V30 1847 H 164.84 1.15056 3.54706 0
M  V30 1848 N 167.025 -1.13721 1.09112 0
M  V30 1849 C 168.255 -1.88499 0.845671 0
M  V30 1850 C 168.663 -1.79218 -0.606432 0
M  V30 1851 O 168.006 -1.1544 -1.42896 0
M  V30 1852 C 168.068 -3.38954 1.19793 0
M  V30 1853 C 167.732 -3.72018 2.65428 0
M  V30 1854 C 168.729 -3.7153 3.63677 0
M  V30 1855 C 166.414 -4.01775 3.01467 0
M  V30 1856 C 168.408 -4.00336 4.95994 0
M  V30 1857 C 166.095 -4.30243 4.33975 0
M  V30 1858 C 167.093 -4.29508 5.31048 0
M  V30 1859 O 166.781 -4.5728 6.61173 0
M  V30 1860 H 166.513 -0.603702 0.304171 0
M  V30 1861 H 169.067 -1.44903 1.45576 0
M  V30 1862 H 167.297 -3.83039 0.530871 0
M  V30 1863 H 168.986 -3.95052 0.932146 0
M  V30 1864 H 169.752 -3.4862 3.37179 0
M  V30 1865 H 165.631 -4.01496 2.26544 0
M  V30 1866 H 169.175 -3.99678 5.71755 0
M  V30 1867 H 165.072 -4.52625 4.60219 0
M  V30 1868 H 165.84 -4.74964 6.66597 0
M  V30 1869 N 168.503 -0.877838 -1.30888 0
M  V30 1870 C 169.743 -0.499301 -1.98208 0
M  V30 1871 C 170.107 0.932649 -1.67826 0
M  V30 1872 O 171.308 1.41694 -2.28421 0
M  V30 1873 C 169.579 -0.758221 -3.49265 0
M  V30 1874 S 171.138 -0.480719 -4.36159 0
M  V30 1875 H 167.956 -0.186062 -0.686223 0
M  V30 1876 H 170.558 -1.13556 -1.59139 0
M  V30 1877 H 169.262 -1.79903 -3.68867 0
M  V30 1878 H 168.793 -0.109247 -3.93248 0
M  V30 1879 H 170.808 0.683698 -4.91467 0
M  V30 1880 N 169.982 1.44106 -0.638065 0
M  V30 1881 C 170.915 2.27924 0.112161 0
M  V30 1882 C 171.893 1.38945 0.844574 0
M  V30 1883 O 173.077 1.68386 0.847248 0
M  V30 1884 C 170.204 3.18029 1.16512 0
M  V30 1885 C 169.25 4.23163 0.532458 0
M  V30 1886 S 170.083 5.31131 -0.682666 0
M  V30 1887 C 171.239 6.24805 0.37013 0
M  V30 1888 H 171.472 2.91205 -0.598887 0
M  V30 1889 H 169.005 1.48394 -0.426441 0
M  V30 1890 H 170.963 3.70492 1.76766 0
M  V30 1891 H 169.624 2.53955 1.8484 0
M  V30 1892 H 168.817 4.86252 1.32571 0
M  V30 1893 H 168.419 3.74 0.00437644 0
M  V30 1894 H 170.711 6.66042 1.24071 0
M  V30 1895 H 171.654 7.07741 -0.225349 0
M  V30 1896 H 172.062 5.60154 0.699141 0
M  V30 1897 N 171.46 0.379036 1.52974 0
M  V30 1898 C 172.737 -0.263479 1.93817 0
M  V30 1899 C 173.117 -1.65244 1.31368 0
M  V30 1900 O 172.465 -2.23448 0.477856 0
M  V30 1901 C 172.675 -0.300166 3.47707 0
M  V30 1902 C 174.023 -0.534061 4.21228 0
M  V30 1903 O 175.047 -0.38081 3.54159 0
M  V30 1904 O 173.906 -0.833501 5.40106 0
M  V30 1905 H 171 -0.161149 0.811147 0
M  V30 1906 H 173.546 0.432798 1.64088 0
M  V30 1907 H 172.318 0.673138 3.85467 0
M  V30 1908 H 171.941 -1.04179 3.83709 0
M  V30 1909 N 172.938 -1.57226 0.108567 0
M  V30 1910 C 174.184 -1.95121 -0.552761 0
M  V30 1911 C 174.517 -0.991345 -1.66991 0
M  V30 1912 O 173.792 -0.0267211 -1.94482 0
M  V30 1913 C 174.075 -3.43039 -1.09528 0
M  V30 1914 C 173.928 -4.49797 0.0177332 0
M  V30 1915 C 175.247 -3.92567 -1.98945 0
M  V30 1916 H 172.366 -0.709496 -0.199461 0
M  V30 1917 H 175.008 -1.89126 0.182011 0
M  V30 1918 H 173.158 -3.48279 -1.72146 0
M  V30 1919 H 174.83 -4.56661 0.652584 0
M  V30 1920 H 173.073 -4.284 0.682309 0
M  V30 1921 H 173.744 -5.50528 -0.402919 0
M  V30 1922 H 176.22 -3.89565 -1.46214 0
M  V30 1923 H 175.096 -4.96605 -2.33827 0
M  V30 1924 H 175.357 -3.32648 -2.91201 0
M  V30 1925 N 174.416 0.165178 -1.56732 0
M  V30 1926 C 175.665 0.879143 -1.81532 0
M  V30 1927 C 175.978 1.83144 -0.686842 0
M  V30 1928 O 177.184 2.58823 -0.819944 0
M  V30 1929 C 175.64 1.61388 -3.21686 0
M  V30 1930 C 175.248 0.704904 -4.4242 0
M  V30 1931 C 176.992 2.3157 -3.55774 0
M  V30 1932 C 174.899 1.44022 -5.73595 0
M  V30 1933 H 173.829 0.332033 -0.676957 0
M  V30 1934 H 176.48 0.132008 -1.83025 0
M  V30 1935 H 174.862 2.40599 -3.14529 0
M  V30 1936 H 176.036 -0.0506815 -4.60772 0
M  V30 1937 H 174.351 0.112419 -4.16248 0
M  V30 1938 H 176.948 2.8719 -4.51028 0
M  V30 1939 H 177.291 3.07201 -2.8095 0
M  V30 1940 H 177.824 1.59297 -3.64513 0
M  V30 1941 H 174.563 0.72612 -6.51466 0
M  V30 1942 H 174.083 2.16898 -5.5921 0
M  V30 1943 H 175.762 1.98606 -6.15764 0
M  V30 1944 N 175.894 1.51508 0.433938 0
M  V30 1945 C 177.122 1.68157 1.20543 0
M  V30 1946 C 177.537 0.380362 1.84929 0
M  V30 1947 O 176.894 -0.641446 1.70856 0
M  V30 1948 C 176.945 2.79965 2.28696 0
M  V30 1949 O 176.666 4.05045 1.66943 0
M  V30 1950 C 178.167 3.07912 3.18912 0
M  V30 1951 H 175.387 0.56421 0.363191 0
M  V30 1952 H 177.931 1.97941 0.513754 0
M  V30 1953 H 176.086 2.5277 2.93574 0
M  V30 1954 H 176.5 4.67165 2.38448 0
M  V30 1955 H 177.974 3.89719 3.90926 0
M  V30 1956 H 178.451 2.20456 3.79863 0
M  V30 1957 H 179.057 3.36779 2.59731 0
M  V30 1958 N 177.372 -0.689602 1.41712 0
M  V30 1959 C 178.597 -1.48329 1.44959 0
M  V30 1960 C 179.022 -1.8801 0.0581283 0
M  V30 1961 O 178.38 -1.55026 -0.940035 0
M  V30 1962 C 178.428 -2.71835 2.36935 0
M  V30 1963 O 177.532 -3.69549 1.8305 0
M  V30 1964 H 176.873 -0.446199 0.491734 0
M  V30 1965 H 179.403 -0.847127 1.86239 0
M  V30 1966 H 179.413 -3.20076 2.53013 0
M  V30 1967 H 178.088 -2.42291 3.38035 0
M  V30 1968 H 176.665 -3.2851 1.76452 0
M  V30 1969 N 178.85 -1.27639 -0.924453 0
M  V30 1970 C 179.797 -1.10644 -2.0255 0
M  V30 1971 C 180.767 -0.00658438 -1.66099 0
M  V30 1972 O 181.952 -0.16952 -1.90045 0
M  V30 1973 C 179.092 -0.76309 -3.36557 0
M  V30 1974 C 178.205 -1.94091 -3.85944 0
M  V30 1975 C 177.34 -1.53914 -5.08413 0
M  V30 1976 C 176.379 -2.68425 -5.50104 0
M  V30 1977 N 175.516 -2.28815 -6.63768 0
M  V30 1978 H 180.356 -2.04858 -2.16419 0
M  V30 1979 H 177.893 -1.01974 -1.06017 0
M  V30 1980 H 179.851 -0.544822 -4.13627 0
M  V30 1981 H 178.481 0.142102 -3.22487 0
M  V30 1982 H 177.533 -2.27162 -3.05125 0
M  V30 1983 H 178.845 -2.7998 -4.12811 0
M  V30 1984 H 177.999 -1.28231 -5.92994 0
M  V30 1985 H 176.738 -0.651391 -4.8333 0
M  V30 1986 H 175.743 -2.94819 -4.64071 0
M  V30 1987 H 176.968 -3.57826 -5.7718 0
M  V30 1988 H 174.914 -1.42495 -6.40337 0
M  V30 1989 H 174.831 -3.08242 -6.90306 0
M  V30 1990 H 176.099 -2.06387 -7.51681 0
M  V30 1991 N 180.328 1.1314 -1.09713 0
M  V30 1992 C 181.577 1.83838 -0.829851 0
M  V30 1993 C 181.89 1.84599 0.646728 0
M  V30 1994 O 183.096 2.51218 1.02965 0
M  V30 1995 C 181.552 3.30069 -1.43466 0
M  V30 1996 C 181.16 3.37688 -2.94399 0
M  V30 1997 C 182.904 4.05788 -1.24645 0
M  V30 1998 C 180.811 4.78209 -3.47952 0
M  V30 1999 H 179.741 0.68877 -0.306777 0
M  V30 2000 H 182.392 1.27448 -1.3202 0
M  V30 2001 H 180.774 3.8628 -0.871996 0
M  V30 2002 H 181.948 2.91456 -3.56918 0
M  V30 2003 H 180.263 2.75436 -3.12289 0
M  V30 2004 H 182.86 5.09535 -1.62107 0
M  V30 2005 H 183.203 4.15878 -0.187357 0
M  V30 2006 H 183.736 3.55915 -1.77678 0
M  V30 2007 H 180.475 4.73311 -4.53495 0
M  V30 2008 H 179.995 5.24924 -2.90198 0
M  V30 2009 H 181.674 5.47133 -3.45332 0
M  V30 2010 N 181.806 0.884767 1.30421 0
M  V30 2011 C 182.736 0.367574 2.30589 0
M  V30 2012 C 183.717 -0.549464 1.60981 0
M  V30 2013 O 184.902 -0.46336 1.88591 0
M  V30 2014 C 182.032 -0.418944 3.44764 0
M  V30 2015 C 180.986 0.406316 4.26067 0
M  V30 2016 C 180.312 -0.506793 5.32293 0
M  V30 2017 C 181.612 1.64832 4.95608 0
M  V30 2018 H 183.306 1.20462 2.74097 0
M  V30 2019 H 180.852 0.580695 1.31772 0
M  V30 2020 H 182.805 -0.791395 4.13902 0
M  V30 2021 H 181.529 -1.28964 3.0006 0
M  V30 2022 H 180.188 0.760903 3.58617 0
M  V30 2023 H 179.836 -1.37519 4.83836 0
M  V30 2024 H 179.536 0.0415828 5.87585 0
M  V30 2025 H 181.06 -0.875764 6.04287 0
M  V30 2026 H 182.474 1.34646 5.57264 0
M  V30 2027 H 180.871 2.13688 5.60765 0
M  V30 2028 H 181.941 2.39284 4.21748 0
M  V30 2029 N 183.284 -1.43765 0.645699 0
M  V30 2030 C 184.231 -2.30745 -0.0504648 0
M  V30 2031 C 185.201 -1.4432 -0.822241 0
M  V30 2032 O 186.386 -1.73202 -0.800358 0
M  V30 2033 C 183.526 -3.29802 -1.0161 0
M  V30 2034 C 182.639 -4.31326 -0.241219 0
M  V30 2035 C 181.774 -5.17469 -1.19998 0
M  V30 2036 C 180.813 -6.10691 -0.415094 0
M  V30 2037 N 179.95 -6.89483 -1.32506 0
M  V30 2038 H 184.79 -2.8973 0.697155 0
M  V30 2039 H 182.327 -1.42738 0.355563 0
M  V30 2040 H 184.285 -3.85734 -1.58949 0
M  V30 2041 H 182.915 -2.72483 -1.73069 0
M  V30 2042 H 181.967 -3.77749 0.448334 0
M  V30 2043 H 183.279 -4.9743 0.369437 0
M  V30 2044 H 182.433 -5.7799 -1.84424 0
M  V30 2045 H 181.172 -4.51473 -1.84455 0
M  V30 2046 H 180.177 -5.49265 0.242565 0
M  V30 2047 H 181.402 -6.78727 0.224966 0
M  V30 2048 H 179.348 -6.26142 -1.95657 0
M  V30 2049 H 179.265 -7.52081 -0.768783 0
M  V30 2050 H 180.533 -7.54516 -1.9577 0
M  V30 2051 N 184.763 -0.387143 -1.52771 0
M  V30 2052 C 185.991 0.195869 -2.05971 0
M  V30 2053 C 186.406 1.40691 -1.25903 0
M  V30 2054 O 185.763 1.79931 -0.305134 0
M  V30 2055 C 185.814 0.56812 -3.57008 0
M  V30 2056 O 185.535 -0.594803 -4.34043 0
M  V30 2057 C 187.036 1.20723 -4.26545 0
M  V30 2058 H 184.256 0.0300578 -0.670326 0
M  V30 2059 H 186.8 -0.551749 -1.96916 0
M  V30 2060 H 184.955 1.26564 -3.66143 0
M  V30 2061 H 185.369 -0.289322 -5.23701 0
M  V30 2062 H 186.843 1.41807 -5.33474 0
M  V30 2063 H 187.32 2.17395 -3.81623 0
M  V30 2064 H 187.926 0.550535 -4.21722 0
M  V30 2065 N 186.241 1.57166 -0.116904 0
M  V30 2066 C 187.171 2.18222 0.830759 0
M  V30 2067 C 188.152 1.12167 1.27877 0
M  V30 2068 O 189.337 1.40394 1.34176 0
M  V30 2069 C 186.467 2.77996 2.08172 0
M  V30 2070 C 185.421 3.89614 1.77157 0
M  V30 2071 C 184.747 4.36187 3.09265 0
M  V30 2072 C 186.047 5.1181 1.04151 0
M  V30 2073 H 187.741 2.97664 0.321992 0
M  V30 2074 H 185.287 1.4318 0.153434 0
M  V30 2075 H 187.24 3.19366 2.74924 0
M  V30 2076 H 185.964 1.9584 2.6137 0
M  V30 2077 H 184.623 3.48816 1.12796 0
M  V30 2078 H 184.271 3.50893 3.60393 0
M  V30 2079 H 183.971 5.11455 2.89288 0
M  V30 2080 H 185.495 4.80207 3.77139 0
M  V30 2081 H 186.909 5.50214 1.61052 0
M  V30 2082 H 185.306 5.92648 0.942762 0
M  V30 2083 H 186.376 4.84892 0.0279022 0
M  V30 2084 N 187.719 -0.156864 1.56817 0
M  V30 2085 C 188.666 -1.19394 1.97519 0
M  V30 2086 C 189.636 -1.4322 0.841265 0
M  V30 2087 O 190.821 -1.55719 1.10255 0
M  V30 2088 C 187.961 -2.52483 2.35258 0
M  V30 2089 C 187.074 -2.35914 3.61896 0
M  V30 2090 C 186.209 -3.61969 3.88782 0
M  V30 2091 C 185.248 -3.40395 5.08722 0
M  V30 2092 N 184.385 -4.58556 5.31668 0
M  V30 2093 H 189.225 -0.839845 2.85921 0
M  V30 2094 H 186.762 -0.403264 1.41464 0
M  V30 2095 H 188.72 -3.30071 2.55165 0
M  V30 2096 H 187.35 -2.85859 1.49949 0
M  V30 2097 H 186.402 -1.49429 3.49821 0
M  V30 2098 H 187.714 -2.15926 4.49641 0
M  V30 2099 H 186.868 -4.47989 4.09135 0
M  V30 2100 H 185.607 -3.84951 2.9944 0
M  V30 2101 H 184.612 -2.52763 4.88253 0
M  V30 2102 H 185.837 -3.18822 5.99608 0
M  V30 2103 H 183.783 -4.81729 4.45279 0
M  V30 2104 H 183.7 -4.41535 6.13664 0
M  V30 2105 H 184.968 -5.45817 5.5651 0
M  V30 2106 N 189.197 -1.51736 -0.425897 0
M  V30 2107 C 190.127 -1.76827 -1.52494 0
M  V30 2108 C 191.108 -0.618524 -1.58456 0
M  V30 2109 O 192.293 -0.862416 -1.74 0
M  V30 2110 C 189.423 -1.90374 -2.90474 0
M  V30 2111 C 188.377 -3.0588 -2.99369 0
M  V30 2112 C 187.703 -3.04625 -4.3944 0
M  V30 2113 C 189.003 -4.45644 -2.72394 0
M  V30 2114 H 190.697 -2.68855 -1.31748 0
M  V30 2115 H 188.243 -1.29372 -0.632362 0
M  V30 2116 H 190.196 -2.0651 -3.6733 0
M  V30 2117 H 188.92 -0.95004 -3.12477 0
M  V30 2118 H 187.579 -2.89467 -2.24954 0
M  V30 2119 H 187.227 -2.0701 -4.58428 0
M  V30 2120 H 186.927 -3.82195 -4.46319 0
M  V30 2121 H 188.451 -3.22869 -5.18255 0
M  V30 2122 H 189.865 -4.62348 -3.38979 0
M  V30 2123 H 188.262 -5.25006 -2.9067 0
M  V30 2124 H 189.332 -4.54893 -1.67929 0
M  V30 2125 N 190.675 0.682077 -1.42076 0
M  V30 2126 C 191.585 1.82535 -1.47371 0
M  V30 2127 C 192.601 1.7017 -0.363079 0
M  V30 2128 O 193.777 1.91848 -0.612875 0
M  V30 2129 C 190.842 3.18624 -1.36674 0
M  V30 2130 C 189.903 3.42999 -2.58167 0
M  V30 2131 C 189.136 4.72595 -2.4797 0
M  V30 2132 O 189.359 5.50006 -1.5116 0
M  V30 2133 O 188.293 4.98054 -3.37974 0
M  V30 2134 H 192.119 1.81023 -2.43853 0
M  V30 2135 H 189.704 0.836887 -1.2376 0
M  V30 2136 H 191.586 3.99847 -1.33043 0
M  V30 2137 H 190.261 3.20789 -0.433138 0
M  V30 2138 H 189.168 2.61653 -2.67373 0
M  V30 2139 H 190.501 3.45659 -3.50401 0
M  V30 2140 N 192.153 1.28127 0.917671 0
M  V30 2141 C 193.383 1.17722 1.6978 0
M  V30 2142 C 193.791 -0.267261 1.87303 0
M  V30 2143 O 193.134 -1.19286 1.39702 0
M  V30 2144 C 193.196 1.79958 3.11216 0
M  V30 2145 C 192.86 3.29187 3.16993 0
M  V30 2146 C 193.857 4.25679 2.98485 0
M  V30 2147 C 191.542 3.70075 3.39632 0
M  V30 2148 C 193.536 5.61035 3.02521 0
M  V30 2149 C 191.223 5.05557 3.433 0
M  V30 2150 C 192.221 6.00847 3.24764 0
M  V30 2151 O 191.909 7.33859 3.28187 0
M  V30 2152 H 191.641 0.409788 0.537634 0
M  V30 2153 H 194.195 1.69694 1.15728 0
M  V30 2154 H 192.425 1.22475 3.66793 0
M  V30 2155 H 194.114 1.64125 3.71238 0
M  V30 2156 H 194.88 3.95426 2.80826 0
M  V30 2157 H 190.759 2.96373 3.53106 0
M  V30 2158 H 194.303 6.35388 2.87971 0
M  V30 2159 H 190.2 5.35462 3.60486 0
M  V30 2160 H 190.968 7.42436 3.44575 0
M  V30 2161 N 193.631 -1.12557 1.10312 0
M  V30 2162 C 194.561 -2.20341 0.772798 0
M  V30 2163 C 195.542 -1.68198 -0.25365 0
M  V30 2164 O 196.727 -1.93831 -0.119699 0
M  V30 2165 C 193.857 -3.46709 0.202443 0
M  V30 2166 C 192.811 -4.11996 1.15943 0
M  V30 2167 C 192.137 -5.328 0.450345 0
M  V30 2168 C 193.437 -4.5828 2.50552 0
M  V30 2169 H 195.131 -2.48229 1.674 0
M  V30 2170 H 192.677 -1.19308 0.806326 0
M  V30 2171 H 194.63 -4.2138 -0.0407752 0
M  V30 2172 H 193.354 -3.18245 -0.734001 0
M  V30 2173 H 192.013 -3.39305 1.38808 0
M  V30 2174 H 191.661 -5.00602 -0.490531 0
M  V30 2175 H 191.361 -5.7743 1.08851 0
M  V30 2176 H 192.885 -6.10219 0.215642 0
M  V30 2177 H 194.299 -5.2433 2.31843 0
M  V30 2178 H 192.696 -5.13683 3.10242 0
M  V30 2179 H 193.766 -3.72329 3.10643 0
M  V30 2180 N 195.109 -0.891671 -1.2995 0
M  V30 2181 C 196.525 -0.58662 -1.48428 0
M  V30 2182 C 196.725 0.873951 -1.81561 0
M  V30 2183 O 195.781 1.65471 -1.90724 0
M  V30 2184 C 197.094 -1.50553 -2.60296 0
M  V30 2185 C 198.642 -1.50988 -2.74175 0
M  V30 2186 C 199.117 -2.41488 -3.89163 0
M  V30 2187 N 200.608 -2.39489 -3.96483 0
M  V30 2188 C 201.343 -3.06223 -4.84784 0
M  V30 2189 N 200.839 -3.82206 -5.77833 0
M  V30 2190 N 202.632 -2.95421 -4.78208 0
M  V30 2191 H 194.783 -1.83644 -1.06718 0
M  V30 2192 H 197.046 -0.786455 -0.529332 0
M  V30 2193 H 196.752 -2.54581 -2.42654 0
M  V30 2194 H 196.626 -1.22008 -3.56923 0
M  V30 2195 H 199.013 -0.47708 -2.91218 0
M  V30 2196 H 199.094 -1.83567 -1.78148 0
M  V30 2197 H 198.738 -3.44857 -3.72876 0
M  V30 2198 H 198.668 -2.06222 -4.84541 0
M  V30 2199 H 201.159 -1.84278 -3.29924 0
M  V30 2200 H 201.472 -4.302 -6.41988 0
M  V30 2201 H 199.817 -3.86313 -5.77743 0
M  V30 2202 H 203.008 -2.35581 -4.04499 0
M  V30 2203 H 203.181 -3.47704 -5.46814 0
M  V30 2204 N 196.587 1.43421 -0.653314 0
M  V30 2205 C 197.812 2.06678 -0.172846 0
M  V30 2206 C 198.237 1.48648 1.15262 0
M  V30 2207 O 197.595 0.596457 1.71208 0
M  V30 2208 C 197.643 3.60474 -0.0953184 0
M  V30 2209 O 196.747 4.01487 0.942442 0
M  V30 2210 H 196.088 0.657181 -0.0949155 0
M  V30 2211 H 198.618 1.83925 -0.896265 0
M  V30 2212 H 198.628 4.07905 0.0879728 0
M  V30 2213 H 197.303 4.02088 -1.06291 0
M  V30 2214 H 195.88 3.65646 0.731932 0
M  V30 2215 N 198.065 0.39524 1.52563 0
M  V30 2216 C 199.311 -0.185318 2.01952 0
M  V30 2217 C 199.644 -1.45964 1.28095 0
M  V30 2218 O 198.919 -1.90689 0.38315 0
M  V30 2219 C 199.202 -0.447193 3.57312 0
M  V30 2220 C 199.055 0.842828 4.41833 0
M  V30 2221 C 200.374 -1.23529 4.22408 0
M  V30 2222 H 197.493 -0.0658788 0.73405 0
M  V30 2223 H 200.135 0.525975 1.82575 0
M  V30 2224 H 198.285 -1.05312 3.73954 0
M  V30 2225 H 199.957 1.4795 4.36931 0
M  V30 2226 H 198.2 1.45686 4.08605 0
M  V30 2227 H 198.871 0.614165 5.48573 0
M  V30 2228 H 201.347 -0.722445 4.0978 0
M  V30 2229 H 200.223 -1.38727 5.3108 0
M  V30 2230 H 200.484 -2.25213 3.80436 0
M  V30 2231 N 199.544 -1.57102 0.125237 0
M  V30 2232 C 200.791 -1.95407 -0.531248 0
M  V30 2233 C 201.119 -1.0089 -1.66287 0
M  V30 2234 O 200.374 -0.0339431 -1.95671 0
M  V30 2235 C 200.673 -3.40096 -1.09862 0
M  V30 2236 C 200.339 -4.50815 -0.0876989 0
M  V30 2237 C 199.001 -4.80824 0.19026 0
M  V30 2238 C 201.353 -5.17724 0.600902 0
M  V30 2239 C 198.681 -5.75058 1.163 0
M  V30 2240 C 201.033 -6.13005 1.56231 0
M  V30 2241 C 199.697 -6.41403 1.8482 0
M  V30 2242 H 198.967 -0.715046 -0.194397 0
M  V30 2243 H 201.614 -1.90373 0.207463 0
M  V30 2244 H 199.919 -3.41855 -1.91422 0
M  V30 2245 H 201.616 -3.6705 -1.61478 0
M  V30 2246 H 198.206 -4.27444 -0.314528 0
M  V30 2247 H 202.39 -4.94691 0.399333 0
M  V30 2248 H 197.646 -5.95362 1.39117 0
M  V30 2249 H 201.82 -6.63934 2.10153 0
M  V30 2250 H 199.447 -7.14229 2.60349 0
M  V30 2251 N 201.022 0.148545 -1.56898 0
M  V30 2252 C 202.252 0.875118 -1.8715 0
M  V30 2253 C 202.66 1.75322 -0.711262 0
M  V30 2254 O 202.003 1.80745 0.328151 0
M  V30 2255 C 202.065 1.7844 -3.12089 0
M  V30 2256 C 201.729 1.08361 -4.43967 0
M  V30 2257 C 202.726 0.438247 -5.1805 0
M  V30 2258 C 200.411 1.07358 -4.90693 0
M  V30 2259 C 202.405 -0.20779 -6.37061 0
M  V30 2260 C 200.092 0.42373 -6.09629 0
M  V30 2261 C 201.09 -0.215829 -6.82659 0
M  V30 2262 O 200.778 -0.855378 -7.99336 0
M  V30 2263 H 200.51 0.258504 -0.624621 0
M  V30 2264 H 203.064 0.14652 -2.04877 0
M  V30 2265 H 201.294 2.55389 -2.90367 0
M  V30 2266 H 202.983 2.38279 -3.286 0
M  V30 2267 H 203.749 0.437817 -4.8302 0
M  V30 2268 H 199.628 1.5608 -4.33774 0
M  V30 2269 H 203.172 -0.70758 -6.94002 0
M  V30 2270 H 199.069 0.421822 -6.4412 0
M  V30 2271 H 199.837 -0.756892 -8.14993 0
M  V30 2272 N 202.5 1.5196 0.417844 0
M  V30 2273 C 203.432 1.70895 1.52733 0
M  V30 2274 C 204.445 0.589405 1.51756 0
M  V30 2275 O 205.634 0.864312 1.56179 0
M  V30 2276 C 202.734 1.72627 2.91639 0
M  V30 2277 C 201.907 3.01479 3.16905 0
M  V30 2278 C 200.966 2.95139 4.35637 0
M  V30 2279 O 199.992 3.69059 4.3334 0
M  V30 2280 N 201.194 2.12328 5.40275 0
M  V30 2281 H 203.959 2.66612 1.36888 0
M  V30 2282 H 201.52 1.50089 0.607037 0
M  V30 2283 H 203.512 1.65928 3.6912 0
M  V30 2284 H 202.082 0.844216 3.00985 0
M  V30 2285 H 201.302 3.21895 2.27546 0
M  V30 2286 H 202.59 3.86736 3.30625 0
M  V30 2287 H 201.988 1.51685 5.44985 0
M  V30 2288 H 200.545 2.11494 6.16534 0
M  V30 2289 N 203.978 -0.674533 1.42435 0
M  V30 2290 C 205.255 -1.4305 1.33402 0
M  V30 2291 C 205.635 -2.11081 -0.0284674 0
M  V30 2292 O 204.983 -2.03257 -1.04397 0
M  V30 2293 C 205.193 -2.43272 2.50239 0
M  V30 2294 C 206.541 -3.07907 2.92367 0
M  V30 2295 O 207.565 -2.53599 2.50132 0
M  V30 2296 O 206.424 -4.0632 3.65467 0
M  V30 2297 H 203.518 -0.638076 0.526106 0
M  V30 2298 H 206.064 -0.703235 1.54443 0
M  V30 2299 H 204.836 -1.91803 3.41068 0
M  V30 2300 H 204.459 -3.23479 2.31186 0
M  V30 2301 N 205.456 -1.28612 -0.910864 0
M  V30 2302 C 206.704 -1.15705 -1.65701 0
M  V30 2303 C 207.025 0.29416 -1.92769 0
M  V30 2304 O 206.295 1.20331 -1.54588 0
M  V30 2305 H 204.875 -0.425216 -0.614167 0
M  V30 2306 H 207.537 -1.61381 -1.0928 0
M  V30 2307 H 206.633 -1.6988 -2.61815 0
M  V30 2308 N 206.934 1.1197 -1.10907 0
M  V30 2309 C 207.866 2.17592 -0.720175 0
M  V30 2310 C 208.879 1.60938 0.245495 0
M  V30 2311 O 210.068 1.78476 0.0292245 0
M  V30 2312 C 207.168 3.38873 -0.0427917 0
M  V30 2313 C 206.341 4.25006 -1.03388 0
M  V30 2314 C 205.4 5.24774 -0.387075 0
M  V30 2315 O 204.426 5.59631 -1.03934 0
M  V30 2316 N 205.628 5.74208 0.852407 0
M  V30 2317 H 208.393 2.51567 -1.62893 0
M  V30 2318 H 205.954 1.27439 -0.998543 0
M  V30 2319 H 207.946 4.02703 0.401501 0
M  V30 2320 H 206.516 3.03007 0.768456 0
M  V30 2321 H 205.736 3.57716 -1.65629 0
M  V30 2322 H 207.024 4.79397 -1.70458 0
M  V30 2323 H 206.422 5.48062 1.40161 0
M  V30 2324 H 204.979 6.39901 1.23977 0
M  V30 2325 N 208.412 0.89855 1.29475 0
M  V30 2326 C 209.659 0.523882 1.95606 0
M  V30 2327 C 209.987 -0.929608 1.70847 0
M  V30 2328 O 209.242 -1.67401 1.01367 0
M  V30 2329 C 209.541 0.761398 3.49195 0
M  V30 2330 C 209.207 2.19207 3.94029 0
M  V30 2331 C 207.869 2.58326 4.05982 0
M  V30 2332 C 210.221 3.12379 4.17216 0
M  V30 2333 C 207.549 3.898 4.38489 0
M  V30 2334 C 209.901 4.43401 4.51197 0
M  V30 2335 C 208.565 4.82394 4.61359 0
M  V30 2336 H 207.835 0.191702 0.715773 0
M  V30 2337 H 210.482 1.13699 1.54094 0
M  V30 2338 H 208.787 0.0653622 3.91745 0
M  V30 2339 H 210.484 0.450904 3.98457 0
M  V30 2340 H 207.074 1.87846 3.85242 0
M  V30 2341 H 211.258 2.83371 4.07449 0
M  V30 2342 H 206.514 4.19734 4.44559 0
M  V30 2343 H 210.688 5.15623 4.68087 0
M  V30 2344 H 208.315 5.84306 4.86303 0
M  V30 2345 N 209.89 -1.43072 0.660911 0
M  V30 2346 C 210.84 -2.27948 -0.04847 0
M  V30 2347 C 211.824 -1.40325 -0.787246 0
M  V30 2348 O 213.016 -1.63893 -0.668446 0
M  V30 2349 C 210.145 -3.28143 -1.00881 0
M  V30 2350 C 209.231 -4.23252 -0.268108 0
M  V30 2351 N 209.622 -5.00656 0.719528 0
M  V30 2352 C 207.92 -4.43092 -0.508493 0
M  V30 2353 C 208.621 -5.70019 1.15988 0
M  V30 2354 N 207.597 -5.41364 0.492584 0
M  V30 2355 H 211.399 -2.85213 0.709279 0
M  V30 2356 H 208.913 -1.54869 0.488822 0
M  V30 2357 H 210.91 -3.87736 -1.53188 0
M  V30 2358 H 209.57 -2.7244 -1.76654 0
M  V30 2359 H 210.581 -5.06115 1.09855 0
M  V30 2360 H 207.258 -3.98449 -1.24679 0
M  V30 2361 H 208.648 -6.4214 1.97751 0
M  V30 2362 N 211.368 -0.403325 -1.52352 0
M  V30 2363 C 212.645 0.232611 -1.94212 0
M  V30 2364 C 213.025 1.63133 -1.33981 0
M  V30 2365 O 212.373 2.22659 -0.513344 0
M  V30 2366 C 212.583 0.244811 -3.4814 0
M  V30 2367 C 213.931 0.46698 -4.22024 0
M  V30 2368 O 214.955 0.324419 -3.5472 0
M  V30 2369 O 213.814 0.74747 -5.41364 0
M  V30 2370 H 210.908 0.148223 -0.813609 0
M  V30 2371 H 213.454 -0.458848 -1.63379 0
M  V30 2372 H 212.226 -0.734378 -3.84347 0
M  V30 2373 H 211.849 0.980611 -3.85318 0
M  V30 2374 N 212.846 1.57033 -0.133567 0
M  V30 2375 C 213.794 2.17348 0.828412 0
M  V30 2376 C 214.788 1.12671 1.26498 0
M  V30 2377 O 215.994 1.30947 1.23502 0
M  V30 2378 H 212.369 0.695775 0.285309 0
M  V30 2379 H 214.34 2.96935 0.295372 0
M  V30 2380 C 213.089 2.79893 2.06289 0
M  V30 2381 H 212.412 3.60147 1.73592 0
M  V30 2382 H 213.852 3.25615 2.71572 0
M  V30 2383 C 212.311 1.77713 2.86216 0
M  V30 2384 O 212.841 1.23937 3.82103 0
M  V30 2385 N 211.047 1.47321 2.50489 0
M  V30 2386 H 210.594 1.91243 1.7258 0
M  V30 2387 H 210.552 0.79199 3.04261 0
M  V30 2388 N 214.325 -0.140222 1.56975 0
M  V30 2389 C 215.273 -1.19207 1.99731 0
M  V30 2390 C 216.267 -1.44089 0.890777 0
M  V30 2391 O 217.473 -1.44301 1.07597 0
M  V30 2392 H 213.848 -0.40142 0.635898 0
M  V30 2393 H 215.819 -0.804813 2.87342 0
M  V30 2394 C 214.568 -2.51617 2.39967 0
M  V30 2395 H 213.891 -2.33303 3.24669 0
M  V30 2396 H 215.331 -3.23827 2.73701 0
M  V30 2397 C 213.79 -3.12654 1.25496 0
M  V30 2398 O 214.32 -3.97786 0.559371 0
M  V30 2399 N 212.526 -2.72206 1.01746 0
M  V30 2400 H 212.073 -2.03074 1.58489 0
M  V30 2401 H 212.031 -3.13377 0.253461 0
M  V30 2402 N 215.803 -1.52179 -0.40978 0
M  V30 2403 C 217.214 -1.58377 -0.988615 0
M  V30 2404 C 217.565 -0.423879 -1.91566 0
M  V30 2405 O 216.69 0.455844 -2.11544 0
M  V30 2406 C 217.285 -2.87044 -1.79976 0
M  V30 2407 C 215.844 -2.95722 -2.32863 0
M  V30 2408 C 214.991 -2.53309 -1.12828 0
M  V30 2409 H 217.942 -1.57558 -0.190039 0
M  V30 2410 H 217.963 -2.7236 -2.65707 0
M  V30 2411 H 217.475 -3.71444 -1.12478 0
M  V30 2412 H 215.576 -2.15814 -3.03735 0
M  V30 2413 H 215.689 -3.99951 -2.63773 0
M  V30 2414 H 214.053 -2.07142 -1.48204 0
M  V30 2415 H 214.836 -3.40082 -0.46897 0
M  V30 2416 N 217.281 0.66697 -1.42791 0
M  V30 2417 C 218.529 1.42417 -1.43394 0
M  V30 2418 C 218.85 1.94925 -0.0542373 0
M  V30 2419 O 218.12 1.73564 0.908415 0
M  V30 2420 H 216.7 0.528515 -0.527902 0
M  V30 2421 H 219.362 0.787562 -1.78279 0
M  V30 2422 H 218.458 2.27333 -2.13837 0
M  V30 2423 N 218.759 1.29093 0.90403 0
M  V30 2424 C 219.984 1.19809 1.69294 0
M  V30 2425 C 220.409 -0.238481 1.86582 0
M  V30 2426 O 219.767 -1.1723 1.383 0
M  V30 2427 C 219.815 1.91202 3.05736 0
M  V30 2428 O 218.919 1.22611 3.93752 0
M  V30 2429 H 218.26 0.415385 0.518027 0
M  V30 2430 H 220.79 1.70586 1.12967 0
M  V30 2431 H 220.8 1.99487 3.55906 0
M  V30 2432 H 219.475 2.95692 2.92471 0
M  V30 2433 H 218.052 1.22554 3.52186 0
M  V30 2434 N 220.237 -1.11381 1.11499 0
M  V30 2435 C 221.184 -2.17439 0.773887 0
M  V30 2436 C 222.154 -1.64132 -0.254899 0
M  V30 2437 O 223.339 -1.90345 -0.13168 0
M  V30 2438 C 220.479 -3.44373 0.223917 0
M  V30 2439 C 219.592 -4.1168 1.30934 0
M  V30 2440 C 218.727 -5.263 0.71984 0
M  V30 2441 C 217.766 -5.85493 1.78507 0
M  V30 2442 N 216.903 -6.91507 1.21502 0
M  V30 2443 H 221.743 -2.45962 1.68246 0
M  V30 2444 H 219.28 -1.20744 0.840191 0
M  V30 2445 H 221.238 -4.17047 -0.112921 0
M  V30 2446 H 219.868 -3.16232 -0.647851 0
M  V30 2447 H 218.92 -3.37073 1.76312 0
M  V30 2448 H 220.232 -4.51729 2.11524 0
M  V30 2449 H 219.386 -6.05785 0.333094 0
M  V30 2450 H 218.125 -4.87559 -0.117377 0
M  V30 2451 H 217.13 -5.04686 2.18111 0
M  V30 2452 H 218.355 -6.26301 2.62533 0
M  V30 2453 H 216.301 -6.54783 0.399455 0
M  V30 2454 H 216.218 -7.30214 1.95763 0
M  V30 2455 H 217.486 -7.74795 0.855181 0
M  V30 2456 N 221.715 -0.905404 -1.28997 0
M  V30 2457 C 222.645 -0.404212 -2.29975 0
M  V30 2458 C 223.626 0.523784 -1.61835 0
M  V30 2459 O 224.811 0.433298 -1.89304 0
M  V30 2460 C 221.941 0.364042 -3.45387 0
M  V30 2461 C 220.895 -0.474048 -4.25367 0
M  V30 2462 C 220.221 0.422045 -5.33032 0
M  V30 2463 C 221.521 -1.72696 -4.92923 0
M  V30 2464 H 223.215 -1.24807 -2.72146 0
M  V30 2465 H 220.761 -0.601585 -1.30832 0
M  V30 2466 H 222.714 0.725447 -4.15109 0
M  V30 2467 H 221.438 1.24174 -3.02074 0
M  V30 2468 H 220.097 -0.81786 -3.57361 0
M  V30 2469 H 219.745 1.29804 -4.85963 0
M  V30 2470 H 219.445 -0.135057 -5.87445 0
M  V30 2471 H 220.969 0.779517 -6.05604 0
M  V30 2472 H 222.383 -1.43495 -5.55051 0
M  V30 2473 H 220.78 -2.22582 -5.57295 0
M  V30 2474 H 221.85 -2.45964 -4.17887 0
M  V30 2475 N 223.193 1.4272 -0.668489 0
M  V30 2476 C 224.609 1.55992 -0.33745 0
M  V30 2477 C 224.809 1.64933 1.15756 0
M  V30 2478 O 223.865 1.61278 1.94282 0
M  V30 2479 C 225.178 2.81314 -1.06222 0
M  V30 2480 C 226.726 2.95078 -1.04394 0
M  V30 2481 C 227.201 4.23252 -1.74991 0
M  V30 2482 N 228.692 4.3015 -1.71829 0
M  V30 2483 C 229.427 5.28127 -2.23315 0
M  V30 2484 N 228.923 6.32293 -2.83156 0
M  V30 2485 N 230.716 5.19882 -2.13726 0
M  V30 2486 H 222.867 1.3516 -1.63846 0
M  V30 2487 H 225.13 0.650174 -0.689912 0
M  V30 2488 H 224.836 2.80823 -2.11734 0
M  V30 2489 H 224.71 3.72012 -0.62344 0
M  V30 2490 H 227.097 2.951 0.0028244 0
M  V30 2491 H 227.178 2.05627 -1.52155 0
M  V30 2492 H 226.822 4.2399 -2.79633 0
M  V30 2493 H 226.752 5.11626 -1.24685 0
M  V30 2494 H 229.243 3.55499 -1.28175 0
M  V30 2495 H 229.556 7.03398 -3.20079 0
M  V30 2496 H 227.901 6.32873 -2.87223 0
M  V30 2497 H 231.092 4.37423 -1.66669 0
M  V30 2498 H 231.265 5.96077 -2.54158 0
M  V30 2499 N 224.671 0.411399 1.52136 0
M  V30 2500 C 225.896 -0.165538 2.06738 0
M  V30 2501 C 226.321 -1.379 1.27926 0
M  V30 2502 O 225.679 -1.78628 0.310114 0
M  V30 2503 C 225.727 -0.492124 3.57226 0
M  V30 2504 O 224.831 -1.58276 3.80818 0
M  V30 2505 H 224.172 -0.0132132 0.663869 0
M  V30 2506 H 226.702 0.585253 1.96051 0
M  V30 2507 H 226.712 -0.750104 4.01045 0
M  V30 2508 H 225.387 0.394922 4.14021 0
M  V30 2509 H 223.964 -1.31677 3.48877 0
M  V30 2510 N 226.149 -1.5696 0.141893 0
M  V30 2511 C 227.426 -1.87553 -0.555281 0
M  V30 2512 C 227.806 -1.04699 -1.83306 0
M  V30 2513 O 227.154 -0.132346 -2.28116 0
M  V30 2514 C 227.364 -3.39093 -0.825664 0
M  V30 2515 C 228.712 -4.08199 -1.16869 0
M  V30 2516 O 229.736 -3.44242 -0.915185 0
M  V30 2517 O 228.595 -5.21139 -1.6455 0
M  V30 2518 H 225.689 -0.777188 -0.282679 0
M  V30 2519 H 228.235 -1.68763 0.17812 0
M  V30 2520 H 227.007 -3.91221 0.0788633 0
M  V30 2521 H 226.63 -3.63393 -1.61343 0
M  V30 2522 N 227.627 0.131896 -1.57047 0
M  V30 2523 C 228.557 1.16384 -2.02428 0
M  V30 2524 C 229.538 1.43936 -0.90644 0
M  V30 2525 O 230.723 1.54599 -1.17528 0
M  V30 2526 C 227.853 2.49328 -2.4177 0
M  V30 2527 C 226.807 2.36266 -3.56879 0
M  V30 2528 C 226.133 3.74057 -3.8208 0
M  V30 2529 C 227.433 1.834 -4.89042 0
M  V30 2530 H 229.127 0.786433 -2.88887 0
M  V30 2531 H 226.673 0.376855 -1.38981 0
M  V30 2532 H 228.626 3.21759 -2.7212 0
M  V30 2533 H 227.35 2.88934 -1.52266 0
M  V30 2534 H 226.009 1.66286 -3.26718 0
M  V30 2535 H 225.657 4.11125 -2.89803 0
M  V30 2536 H 225.357 3.66174 -4.59554 0
M  V30 2537 H 226.881 4.48012 -4.1487 0
M  V30 2538 H 228.295 2.45636 -5.18011 0
M  V30 2539 H 226.692 1.8637 -5.70426 0
M  V30 2540 H 227.762 0.790662 -4.7841 0
M  V30 2541 N 229.106 1.52395 0.401703 0
M  V30 2542 C 230.383 1.57387 1.16141 0
M  V30 2543 C 230.763 0.359359 2.08019 0
M  V30 2544 O 230.111 -0.65326 2.18963 0
M  V30 2545 C 230.321 2.90631 1.93221 0
M  V30 2546 C 231.669 3.43904 2.49028 0
M  V30 2547 O 232.693 2.92421 2.03393 0
M  V30 2548 O 231.552 4.33823 3.32356 0
M  V30 2549 H 228.646 0.634262 0.530698 0
M  V30 2550 H 231.192 1.64725 0.407883 0
M  V30 2551 H 229.964 3.70473 1.25958 0
M  V30 2552 H 229.587 2.8662 2.75563 0
M  V30 2553 N 230.584 -0.659388 1.43143 0
M  V30 2554 C 231.831 -1.41935 1.44433 0
M  V30 2555 C 232.159 -1.94387 0.0663522 0
M  V30 2556 O 231.414 -1.72314 -0.927706 0
M  V30 2557 C 231.713 -2.62206 2.42864 0
M  V30 2558 C 231.379 -2.28208 3.88886 0
M  V30 2559 C 230.041 -2.18647 4.28657 0
M  V30 2560 C 232.393 -2.00887 4.8093 0
M  V30 2561 C 229.721 -1.79914 5.58433 0
M  V30 2562 C 232.073 -1.63653 6.11065 0
M  V30 2563 C 230.737 -1.52614 6.49819 0
M  V30 2564 H 230.007 -0.519376 0.528517 0
M  V30 2565 H 232.654 -0.750453 1.76183 0
M  V30 2566 H 230.959 -3.34199 2.04495 0
M  V30 2567 H 232.656 -3.2041 2.41119 0
M  V30 2568 H 229.246 -2.36557 3.57406 0
M  V30 2569 H 233.43 -2.07198 4.5098 0
M  V30 2570 H 228.686 -1.69948 5.87305 0
M  V30 2571 H 232.86 -1.41543 6.81864 0
M  V30 2572 H 230.487 -1.22371 7.50286 0
M  V30 2573 N 232.062 -1.29571 -0.897171 0
M  V30 2574 C 233.292 -1.20408 -1.67886 0
M  V30 2575 C 233.7 0.237429 -1.87704 0
M  V30 2576 O 233.043 1.17048 -1.41582 0
M  V30 2577 C 233.105 -1.84887 -3.08314 0
M  V30 2578 C 232.769 -3.34189 -3.11716 0
M  V30 2579 C 233.766 -4.30374 -2.91675 0
M  V30 2580 C 231.451 -3.75431 -3.33701 0
M  V30 2581 C 233.445 -5.65776 -2.93557 0
M  V30 2582 C 231.132 -5.10955 -3.35214 0
M  V30 2583 C 232.13 -6.05938 -3.15164 0
M  V30 2584 O 231.818 -7.38987 -3.1647 0
M  V30 2585 H 231.55 -0.418289 -0.531046 0
M  V30 2586 H 234.104 -1.71514 -1.13014 0
M  V30 2587 H 232.334 -1.28295 -3.64798 0
M  V30 2588 H 234.023 -1.70011 -3.6858 0
M  V30 2589 H 234.789 -3.99844 -2.74499 0
M  V30 2590 H 230.668 -3.01953 -3.48347 0
M  V30 2591 H 234.212 -6.39889 -2.77826 0
M  V30 2592 H 230.109 -5.4113 -3.51922 0
M  V30 2593 H 230.877 -7.47823 -3.3272 0
M  V30 2594 N 233.54 1.10788 -1.12088 0
M  V30 2595 C 234.47 2.19083 -0.807755 0
M  V30 2596 C 235.451 1.6858 0.226859 0
M  V30 2597 O 236.636 1.93997 0.0888475 0
M  V30 2598 C 233.766 3.46344 -0.257576 0
M  V30 2599 C 232.72 4.101 -1.22483 0
M  V30 2600 C 232.046 5.32016 -0.535052 0
M  V30 2601 C 233.346 4.54236 -2.57811 0
M  V30 2602 H 235.04 2.45534 -1.71328 0
M  V30 2603 H 232.586 1.1801 -0.825205 0
M  V30 2604 H 234.539 4.21392 -0.0262679 0
M  V30 2605 H 233.263 3.19373 0.683278 0
M  V30 2606 H 231.922 3.37054 -1.44189 0
M  V30 2607 H 231.57 5.01319 0.410827 0
M  V30 2608 H 231.27 5.75625 -1.18024 0
M  V30 2609 H 232.794 6.09799 -0.312695 0
M  V30 2610 H 234.208 5.20575 -2.40155 0
M  V30 2611 H 232.605 5.08682 -3.18375 0
M  V30 2612 H 233.675 3.6734 -3.16528 0
M  V30 2613 N 235.018 0.912232 1.28515 0
M  V30 2614 C 235.928 0.404506 2.31086 0
M  V30 2615 C 236.944 -0.50707 1.66448 0
M  V30 2616 O 238.12 -0.393624 1.97516 0
M  V30 2617 C 235.185 -0.348572 3.44943 0
M  V30 2618 C 234.246 0.59604 4.25142 0
M  V30 2619 C 233.479 -0.121194 5.33562 0
M  V30 2620 O 233.702 -1.34317 5.5436 0
M  V30 2621 O 232.636 0.542716 5.99448 0
M  V30 2622 H 236.462 1.25579 2.76521 0
M  V30 2623 H 234.047 0.676998 1.33181 0
M  V30 2624 H 235.929 -0.77395 4.14232 0
M  V30 2625 H 234.604 -1.17571 3.01594 0
M  V30 2626 H 233.511 1.07079 3.58448 0
M  V30 2627 H 234.844 1.38995 4.72167 0
M  V30 2628 N 236.496 -1.42363 0.676048 0
M  V30 2629 C 237.428 -2.29164 -0.0404605 0
M  V30 2630 C 238.441 -1.43747 -0.764245 0
M  V30 2631 O 239.63 -1.67453 -0.618195 0
M  V30 2632 C 236.73 -3.21196 -1.08103 0
M  V30 2633 C 235.903 -4.35273 -0.430812 0
M  V30 2634 C 234.962 -5.08017 -1.37133 0
M  V30 2635 O 233.988 -5.62494 -0.87116 0
M  V30 2636 N 235.19 -5.13647 -2.70456 0
M  V30 2637 H 237.955 -2.91298 0.704667 0
M  V30 2638 H 235.516 -1.53303 0.520559 0
M  V30 2639 H 237.508 -3.66728 -1.71152 0
M  V30 2640 H 236.078 -2.60505 -1.72788 0
M  V30 2641 H 235.298 -3.92372 0.379209 0
M  V30 2642 H 236.586 -5.08795 0.0221132 0
M  V30 2643 H 235.984 -4.708 -3.1363 0
M  V30 2644 H 234.541 -5.62821 -3.28749 0
M  V30 2645 N 237.974 -0.419461 -1.51915 0
M  V30 2646 C 239.22 0.153166 -2.02221 0
M  V30 2647 C 239.553 1.43907 -1.30401 0
M  V30 2648 O 238.828 1.90055 -0.413438 0
M  V30 2649 C 239.111 0.390291 -3.57979 0
M  V30 2650 C 238.964 -0.913014 -4.40436 0
M  V30 2651 C 240.283 1.16794 -4.2432 0
M  V30 2652 H 237.402 0.0541924 -0.735005 0
M  V30 2653 H 240.044 -0.554955 -1.81715 0
M  V30 2654 H 238.194 0.993491 -3.75582 0
M  V30 2655 H 239.866 -1.54882 -4.34522 0
M  V30 2656 H 238.109 -1.52168 -4.06236 0
M  V30 2657 H 238.78 -0.701361 -5.47526 0
M  V30 2658 H 241.256 0.657161 -4.10878 0
M  V30 2659 H 240.132 1.3026 -5.3322 0
M  V30 2660 H 240.393 2.19132 -3.83971 0
M  V30 2661 N 239.452 1.56882 -0.150215 0
M  V30 2662 C 240.677 2.01027 0.510184 0
M  V30 2663 C 241.102 1.02966 1.57415 0
M  V30 2664 O 240.46 0.00590158 1.81299 0
M  V30 2665 C 240.508 3.43899 1.08472 0
M  V30 2666 O 239.612 3.4885 2.19948 0
M  V30 2667 H 238.953 0.652233 0.124451 0
M  V30 2668 H 241.483 2.03093 -0.247894 0
M  V30 2669 H 241.493 3.82766 1.41259 0
M  V30 2670 H 240.168 4.14776 0.305582 0
M  V30 2671 H 238.745 3.21827 1.88366 0
M  V30 2672 N 240.93 -0.123565 1.57115 0
M  V30 2673 C 242.155 -0.850398 1.89164 0
M  V30 2674 C 242.58 -1.7286 0.741688 0
M  V30 2675 O 241.938 -1.78665 -0.307958 0
M  V30 2676 C 241.986 -1.66353 3.19936 0
M  V30 2677 O 241.09 -2.77004 3.0552 0
M  V30 2678 H 240.431 -0.235454 0.620852 0
M  V30 2679 H 242.961 -0.107335 2.04318 0
M  V30 2680 H 242.971 -2.05372 3.52543 0
M  V30 2681 H 241.646 -1.01881 4.03228 0
M  V30 2682 H 240.223 -2.41221 2.84371 0
M  V30 2683 N 242.408 -1.52605 -0.393616 0
M  V30 2684 C 243.656 -1.67093 -1.13685 0
M  V30 2685 C 243.977 -0.411011 -1.90619 0
M  V30 2686 O 243.247 0.574491 -1.87287 0
M  V30 2687 H 241.827 -0.615923 -0.422668 0
M  V30 2688 H 244.489 -1.89704 -0.447039 0
M  V30 2689 H 243.585 -2.51922 -1.84232 0
M  V30 2690 N 243.887 0.651787 -1.4349 0
M  V30 2691 C 245.136 1.40754 -1.44469 0
M  V30 2692 C 245.449 1.95463 -0.0731845 0
M  V30 2693 O 246.655 2.71471 0.0395721 0
M  V30 2694 C 245.111 2.54735 -2.5424 0
M  V30 2695 C 244.719 2.06628 -3.97504 0
M  V30 2696 C 246.463 3.32092 -2.64414 0
M  V30 2697 C 244.37 3.17829 -4.98737 0
M  V30 2698 H 243.3 0.528862 -0.53742 0
M  V30 2699 H 245.951 0.703365 -1.69485 0
M  V30 2700 H 244.333 3.2763 -2.22428 0
M  V30 2701 H 245.507 1.40734 -4.38783 0
M  V30 2702 H 243.822 1.42146 -3.91387 0
M  V30 2703 H 246.419 4.14952 -3.37223 0
M  V30 2704 H 246.762 3.80217 -1.69532 0
M  V30 2705 H 247.295 2.66279 -2.95534 0
M  V30 2706 H 244.034 2.74671 -5.95177 0
M  V30 2707 H 243.554 3.82429 -4.62069 0
M  V30 2708 H 245.233 3.82937 -5.21505 0
M  V30 2709 N 245.365 1.30045 0.890287 0
M  V30 2710 C 246.613 1.18327 1.63839 0
M  V30 2711 C 246.934 -0.263455 1.93212 0
M  V30 2712 O 246.204 -1.17856 1.56482 0
M  V30 2713 H 244.784 0.434933 0.607324 0
M  V30 2714 H 247.446 1.631 1.06698 0
M  V30 2715 H 246.542 1.74024 2.59079 0
M  V30 2716 N 246.843 -1.10192 1.12674 0
M  V30 2717 C 248.071 -1.85983 0.906527 0
M  V30 2718 C 248.486 -1.80783 -0.544333 0
M  V30 2719 O 247.843 -1.19834 -1.37645 0
M  V30 2720 C 247.894 -3.34281 1.37618 0
M  V30 2721 O 247.615 -3.39401 2.77017 0
M  V30 2722 C 249.116 -4.26938 1.19325 0
M  V30 2723 H 246.336 -0.587716 0.323775 0
M  V30 2724 H 248.88 -1.39284 1.49734 0
M  V30 2725 H 247.035 -3.78436 0.828539 0
M  V30 2726 H 247.449 -4.31838 2.97684 0
M  V30 2727 H 248.923 -5.29181 1.57071 0
M  V30 2728 H 249.4 -4.38995 0.134097 0
M  V30 2729 H 250.006 -3.8859 1.72852 0
M  V30 2730 N 248.321 -0.919034 -1.28029 0
M  V30 2731 C 249.268 -0.410005 -2.27129 0
M  V30 2732 C 250.238 0.518405 -1.57803 0
M  V30 2733 O 251.423 0.439451 -1.8567 0
M  V30 2734 C 248.563 0.339054 -3.4343 0
M  V30 2735 C 247.676 -0.622468 -4.27492 0
M  V30 2736 C 246.811 0.145567 -5.31001 0
M  V30 2737 C 245.85 -0.809226 -6.06727 0
M  V30 2738 N 244.987 -0.0743728 -7.02061 0
M  V30 2739 H 249.827 -1.26011 -2.70047 0
M  V30 2740 H 247.364 -0.632663 -1.328 0
M  V30 2741 H 249.322 0.789586 -4.0966 0
M  V30 2742 H 247.952 1.15346 -3.01488 0
M  V30 2743 H 247.004 -1.19153 -3.61257 0
M  V30 2744 H 248.316 -1.35252 -4.80113 0
M  V30 2745 H 247.47 0.656417 -6.03139 0
M  V30 2746 H 246.209 0.908643 -4.79161 0
M  V30 2747 H 245.214 -1.3314 -5.33436 0
M  V30 2748 H 246.439 -1.57194 -6.60656 0
M  V30 2749 H 244.385 0.670616 -6.52563 0
M  V30 2750 H 244.302 -0.744157 -7.52329 0
M  V30 2751 H 245.57 0.416109 -7.78389 0
M  V30 2752 N 249.799 1.42003 -0.683588 0
M  V30 2753 C 251.046 2.01413 -0.209514 0
M  V30 2754 C 251.374 1.54088 1.1869 0
M  V30 2755 O 250.629 0.737591 1.81268 0
M  V30 2756 C 250.928 3.56827 -0.202357 0
M  V30 2757 C 250.594 4.23617 -1.54464 0
M  V30 2758 C 249.256 4.41577 -1.91215 0
M  V30 2759 C 251.608 4.61178 -2.42826 0
M  V30 2760 C 248.936 4.9437 -3.15935 0
M  V30 2761 C 251.288 5.15355 -3.66867 0
M  V30 2762 C 249.952 5.31528 -4.03776 0
M  V30 2763 H 249.222 0.737023 -0.0766668 0
M  V30 2764 H 251.869 1.70067 -0.880312 0
M  V30 2765 H 250.174 3.87892 0.551969 0
M  V30 2766 H 251.871 4.00588 0.181793 0
M  V30 2767 H 248.461 4.10004 -1.24877 0
M  V30 2768 H 252.645 4.46968 -2.15717 0
M  V30 2769 H 247.901 5.05076 -3.44541 0
M  V30 2770 H 252.075 5.43402 -4.35531 0
M  V30 2771 H 249.702 5.72199 -5.00492 0
M  V30 2772 N 251.277 0.427512 1.51691 0
M  V30 2773 C 252.526 -0.143679 2.01188 0
M  V30 2774 C 252.839 -1.44642 1.31674 0
M  V30 2775 O 254.045 -2.09997 1.72086 0
M  V30 2776 C 252.501 -0.306602 3.58592 0
M  V30 2777 C 252.109 0.985125 4.37035 0
M  V30 2778 C 253.853 -0.832091 4.16265 0
M  V30 2779 C 251.76 0.788382 5.86122 0
M  V30 2780 H 250.69 -0.0574701 0.751807 0
M  V30 2781 H 253.341 0.555772 1.74881 0
M  V30 2782 H 251.723 -1.06882 3.81303 0
M  V30 2783 H 252.897 1.75492 4.26074 0
M  V30 2784 H 251.212 1.4384 3.90767 0
M  V30 2785 H 253.809 -0.995617 5.25349 0
M  V30 2786 H 254.152 -1.81186 3.74803 0
M  V30 2787 H 254.685 -0.128444 3.97593 0
M  V30 2788 H 251.424 1.74025 6.31978 0
M  V30 2789 H 250.944 0.0582143 5.99772 0
M  V30 2790 H 252.623 0.437722 6.45518 0
M  V30 2791 N 252.755 -1.56801 0.158532 0
M  V30 2792 C 253.983 -2.00859 -0.496303 0
M  V30 2793 C 254.398 -1.03871 -1.57659 0
M  V30 2794 O 253.755 -0.0375165 -1.82461 0
M  V30 2795 C 253.806 -3.4479 -1.08638 0
M  V30 2796 O 253.527 -4.38072 -0.0492322 0
M  V30 2797 C 255.028 -4.04185 -1.8207 0
M  V30 2798 H 252.248 -0.65864 -0.128199 0
M  V30 2799 H 254.792 -2.02885 0.256506 0
M  V30 2800 H 252.947 -3.43579 -1.78975 0
M  V30 2801 H 253.361 -5.2227 -0.483102 0
M  V30 2802 H 254.835 -5.06857 -2.18633 0
M  V30 2803 H 255.312 -3.45549 -2.71095 0
M  V30 2804 H 255.918 -4.0906 -1.16405 0
M  V30 2805 N 254.233 0.115231 -1.57178 0
M  V30 2806 C 255.482 0.820945 -1.84237 0
M  V30 2807 C 255.795 1.80866 -0.744761 0
M  V30 2808 O 257.001 2.56083 -0.901871 0
M  V30 2809 C 255.457 1.51072 -3.26658 0
M  V30 2810 C 255.065 0.563795 -4.44438 0
M  V30 2811 C 256.809 2.20134 -3.62962 0
M  V30 2812 C 254.716 1.25701 -5.77887 0
M  V30 2813 H 253.646 0.310328 -0.687177 0
M  V30 2814 H 256.297 0.0737134 -1.83352 0
M  V30 2815 H 254.679 2.30471 -3.22024 0
M  V30 2816 H 255.853 -0.197247 -4.60378 0
M  V30 2817 H 254.168 -0.0200638 -4.16395 0
M  V30 2818 H 256.765 2.72696 -4.59936 0
M  V30 2819 H 257.108 2.98107 -2.90582 0
M  V30 2820 H 257.641 1.47619 -3.69396 0
M  V30 2821 H 254.38 0.518493 -6.53446 0
M  V30 2822 H 253.9 1.98997 -5.65827 0
M  V30 2823 H 255.579 1.78915 -6.2177 0
M  V30 2824 N 255.711 1.52812 0.385517 0
M  V30 2825 C 256.958 1.68026 1.1302 0
M  V30 2826 C 257.286 0.421934 1.89868 0
M  V30 2827 O 256.541 -0.595749 1.86412 0
M  V30 2828 C 256.84 2.86856 2.13187 0
M  V30 2829 C 256.506 4.24159 1.5297 0
M  V30 2830 C 255.168 4.61501 1.36274 0
M  V30 2831 C 257.52 5.09627 1.09223 0
M  V30 2832 C 254.848 5.81966 0.743837 0
M  V30 2833 C 257.2 6.30719 0.487411 0
M  V30 2834 C 255.864 6.6679 0.307777 0
M  V30 2835 H 255.134 0.614849 0.413571 0
M  V30 2836 H 257.781 1.86962 0.414405 0
M  V30 2837 H 256.086 2.6235 2.90998 0
M  V30 2838 H 257.783 2.95821 2.70722 0
M  V30 2839 H 254.373 3.94746 1.66954 0
M  V30 2840 H 258.557 4.81343 1.20922 0
M  V30 2841 H 253.813 6.08519 0.592891 0
M  V30 2842 H 257.987 6.96259 0.140143 0
M  V30 2843 H 255.614 7.60001 -0.173879 0
M  V30 2844 N 257.189 -0.644168 1.43834 0
M  V30 2845 C 258.417 -1.43147 1.49387 0
M  V30 2846 C 258.832 -1.88452 0.114583 0
M  V30 2847 O 258.189 -1.60047 -0.876989 0
M  V30 2848 C 258.24 -2.66046 2.44748 0
M  V30 2849 O 257.961 -2.22633 3.77314 0
M  V30 2850 C 259.462 -3.59311 2.59635 0
M  V30 2851 H 256.682 -0.439447 0.507077 0
M  V30 2852 H 259.226 -0.78895 1.88669 0
M  V30 2853 H 257.381 -3.26418 2.08638 0
M  V30 2854 H 257.795 -3.02216 4.28679 0
M  V30 2855 H 259.269 -4.42187 3.30416 0
M  V30 2856 H 259.746 -4.07259 1.64427 0
M  V30 2857 H 260.352 -3.04816 2.96593 0
M  V30 2858 N 258.668 -1.30515 -0.883378 0
M  V30 2859 C 259.898 -1.22182 -1.66599 0
M  V30 2860 C 260.306 0.217507 -1.87946 0
M  V30 2861 O 259.649 1.1554 -1.42815 0
M  V30 2862 C 259.711 -1.88146 -3.06335 0
M  V30 2863 C 259.375 -3.37476 -3.08154 0
M  V30 2864 C 260.372 -4.33443 -2.87094 0
M  V30 2865 C 258.057 -3.7895 -3.29701 0
M  V30 2866 C 260.051 -5.68858 -2.8754 0
M  V30 2867 C 257.738 -5.14482 -3.29776 0
M  V30 2868 C 258.736 -6.09246 -3.0872 0
M  V30 2869 O 258.424 -7.42302 -3.08615 0
M  V30 2870 H 258.156 -0.423898 -0.52658 0
M  V30 2871 H 260.71 -1.72703 -1.11188 0
M  V30 2872 H 258.94 -1.32157 -3.63416 0
M  V30 2873 H 260.629 -1.7391 -3.66756 0
M  V30 2874 H 261.395 -4.02733 -2.70243 0
M  V30 2875 H 257.274 -3.05631 -3.45124 0
M  V30 2876 H 260.818 -6.428 -2.71024 0
M  V30 2877 H 256.715 -5.44832 -3.46163 0
M  V30 2878 H 257.483 -7.5131 -3.24769 0
M  V30 2879 N 260.146 1.09593 -1.13257 0
M  V30 2880 C 261.109 2.14359 -0.811358 0
M  V30 2881 C 262.109 1.59808 0.178377 0
M  V30 2882 O 263.299 1.74132 -0.0484911 0
M  V30 2883 C 260.431 3.40269 -0.207276 0
M  V30 2884 H 261.624 2.44284 -1.73969 0
M  V30 2885 H 259.177 1.25102 -0.936973 0
M  V30 2886 H 259.912 3.15969 0.73036 0
M  V30 2887 H 259.697 3.81154 -0.919992 0
M  V30 2888 H 261.187 4.176 0.000667944 0
M  V30 2889 N 261.624 0.925811 1.2754 0
M  V30 2890 C 262.849 0.580924 1.99098 0
M  V30 2891 C 263.274 -0.833555 1.68622 0
M  V30 2892 O 262.632 -1.55903 0.925422 0
M  V30 2893 C 262.68 0.811186 3.51358 0
M  V30 2894 O 261.784 -0.124129 4.12213 0
M  V30 2895 H 261.125 0.223873 0.625122 0
M  V30 2896 H 263.655 1.24455 1.62395 0
M  V30 2897 H 263.665 0.72601 4.01489 0
M  V30 2898 H 262.34 1.84227 3.72872 0
M  V30 2899 H 260.917 0.0108006 3.72898 0
M  V30 2900 N 263.102 -1.41638 0.69111 0
M  V30 2901 C 264.327 -2.06148 0.227583 0
M  V30 2902 C 264.752 -1.51652 -1.11281 0
M  V30 2903 O 264.11 -0.64164 -1.69566 0
M  V30 2904 C 264.158 -3.60095 0.190858 0
M  V30 2905 O 263.262 -4.03845 -0.835664 0
M  V30 2906 H 262.603 -0.654434 0.112306 0
M  V30 2907 H 265.133 -1.81484 0.944714 0
M  V30 2908 H 265.143 -4.07995 0.020207 0
M  V30 2909 H 263.818 -3.99129 1.16915 0
M  V30 2910 H 262.395 -3.67458 -0.63473 0
M  V30 2911 N 264.58 -0.43555 -1.51462 0
M  V30 2912 C 265.827 0.131514 -2.02072 0
M  V30 2913 C 266.155 1.42868 -1.31981 0
M  V30 2914 O 265.41 1.91076 -0.422883 0
M  V30 2915 C 265.709 0.39942 -3.55161 0
M  V30 2916 C 265.375 -0.81172 -4.43533 0
M  V30 2917 C 264.037 -1.14387 -4.67407 0
M  V30 2918 C 266.389 -1.61976 -4.95392 0
M  V30 2919 C 263.717 -2.28477 -5.40384 0
M  V30 2920 C 266.069 -2.75164 -5.6962 0
M  V30 2921 C 264.733 -3.08835 -5.91758 0
M  V30 2922 H 264.003 0.0481244 -0.739436 0
M  V30 2923 H 266.65 -0.58238 -1.8243 0
M  V30 2924 H 264.955 1.19519 -3.73125 0
M  V30 2925 H 266.652 0.85157 -3.91854 0
M  V30 2926 H 263.242 -0.542898 -4.25148 0
M  V30 2927 H 267.426 -1.37637 -4.76833 0
M  V30 2928 H 262.682 -2.5488 -5.55739 0
M  V30 2929 H 266.856 -3.38147 -6.08793 0
M  V30 2930 H 264.483 -3.97353 -6.48086 0
M  V30 2931 N 266.058 1.56714 -0.166846 0
M  V30 2932 C 266.988 2.20754 0.760913 0
M  V30 2933 C 267.969 1.16178 1.24244 0
M  V30 2934 O 269.154 1.44592 1.29641 0
M  V30 2935 C 266.284 2.84478 1.99223 0
M  V30 2936 C 265.238 3.95053 1.64672 0
M  V30 2937 C 264.564 4.45805 2.95232 0
M  V30 2938 C 265.864 5.14865 0.878155 0
M  V30 2939 H 267.558 2.98537 0.22713 0
M  V30 2940 H 265.104 1.43596 0.107805 0
M  V30 2941 H 267.057 3.27951 2.64624 0
M  V30 2942 H 265.781 2.04056 2.55007 0
M  V30 2943 H 264.44 3.52228 1.01641 0
M  V30 2944 H 264.088 3.62181 3.49047 0
M  V30 2945 H 263.788 5.204 2.7287 0
M  V30 2946 H 265.312 4.91962 3.6167 0
M  V30 2947 H 266.726 5.55059 1.43466 0
M  V30 2948 H 265.123 5.95348 0.753738 0
M  V30 2949 H 266.193 4.84735 -0.126377 0
M  V30 2950 N 267.536 -0.106894 1.57237 0
M  V30 2951 C 268.784 -0.810921 1.85117 0
M  V30 2952 C 269.105 -1.7984 0.753827 0
M  V30 2953 O 268.375 -1.94649 -0.221056 0
M  V30 2954 H 266.955 -0.302466 0.683025 0
M  V30 2955 H 269.617 -0.0913324 1.94686 0
M  V30 2956 H 268.713 -1.34875 2.81452 0
M  V30 2957 N 269.014 -1.53014 -0.377408 0
M  V30 2958 C 269.944 -1.81589 -1.46791 0
M  V30 2959 C 270.925 -0.668622 -1.56408 0
M  V30 2960 O 272.11 -0.917337 -1.71168 0
M  V30 2961 C 269.24 -1.99519 -2.8427 0
M  V30 2962 C 268.194 -3.15249 -2.89486 0
M  V30 2963 C 267.52 -3.18451 -4.29527 0
M  V30 2964 C 268.82 -4.54084 -2.58079 0
M  V30 2965 H 270.514 -2.7291 -1.23127 0
M  V30 2966 H 268.06 -1.31319 -0.590883 0
M  V30 2967 H 270.013 -2.18092 -3.60575 0
M  V30 2968 H 268.737 -1.04897 -3.09296 0
M  V30 2969 H 267.396 -2.96477 -2.15631 0
M  V30 2970 H 267.044 -2.2149 -4.5161 0
M  V30 2971 H 266.744 -3.962 -4.33934 0
M  V30 2972 H 268.268 -3.39193 -5.07721 0
M  V30 2973 H 269.682 -4.72899 -3.24098 0
M  V30 2974 H 268.079 -5.33987 -2.7382 0
M  V30 2975 H 269.149 -4.60006 -1.53372 0
M  V30 2976 N 270.492 0.636531 -1.44174 0
M  V30 2977 C 271.722 1.42146 -1.49927 0
M  V30 2978 C 272.13 1.88812 -0.121063 0
M  V30 2979 O 271.473 1.61126 0.882267 0
M  V30 2980 C 271.535 2.67883 -2.39748 0
M  V30 2981 C 271.199 2.43048 -3.8701 0
M  V30 2982 C 272.196 2.05216 -4.77684 0
M  V30 2983 C 269.881 2.56856 -4.3166 0
M  V30 2984 C 271.875 1.81512 -6.11009 0
M  V30 2985 C 269.562 2.32766 -5.65034 0
M  V30 2986 C 270.56 1.95152 -6.54526 0
M  V30 2987 O 270.248 1.71326 -7.85431 0
M  V30 2988 H 269.98 0.442567 -0.51099 0
M  V30 2989 H 272.534 0.786158 -1.8976 0
M  V30 2990 H 270.764 3.34032 -1.94832 0
M  V30 2991 H 272.453 3.29874 -2.36513 0
M  V30 2992 H 273.219 1.94111 -4.44462 0
M  V30 2993 H 269.098 2.85104 -3.62266 0
M  V30 2994 H 272.642 1.52077 -6.80822 0
M  V30 2995 H 268.539 2.43479 -5.97819 0
M  V30 2996 H 269.307 1.85616 -7.97176 0
M  V30 2997 N 271.97 1.30982 0.876444 0
M  V30 2998 C 273.219 1.19658 1.62373 0
M  V30 2999 C 273.532 -0.245636 1.94052 0
M  V30 3000 O 274.738 -0.48049 2.67214 0
M  V30 3001 C 273.194 2.09433 2.92687 0
M  V30 3002 C 272.802 3.58613 2.68516 0
M  V30 3003 C 274.546 2.06893 3.70669 0
M  V30 3004 C 272.453 4.40416 3.94699 0
M  V30 3005 H 271.383 0.444268 0.609214 0
M  V30 3006 H 274.034 1.55791 0.969605 0
M  V30 3007 H 272.416 1.66191 3.59439 0
M  V30 3008 H 273.59 4.10058 2.10212 0
M  V30 3009 H 271.905 3.63063 2.03898 0
M  V30 3010 H 274.502 2.65258 4.64265 0
M  V30 3011 H 274.845 1.05448 4.02724 0
M  V30 3012 H 275.378 2.48301 3.10792 0
M  V30 3013 H 272.117 5.42591 3.67798 0
M  V30 3014 H 271.637 3.93731 4.52477 0
M  V30 3015 H 273.316 4.52294 4.62644 0
M  V30 3016 N 273.449 -1.08991 1.13837 0
M  V30 3017 C 274.695 -1.81699 0.91417 0
M  V30 3018 C 275.05 -1.84264 -0.553594 0
M  V30 3019 O 274.343 -1.30313 -1.4046 0
M  V30 3020 C 274.537 -3.27042 1.44147 0
M  V30 3021 C 274.366 -3.38637 2.95897 0
M  V30 3022 C 273.136 -3.50177 3.64286 0
M  V30 3023 C 275.334 -3.30791 3.93804 0
M  V30 3024 N 273.316 -3.50501 5.04006 0
M  V30 3025 C 274.687 -3.38037 5.19741 0
M  V30 3026 C 276.742 -3.14488 3.86007 0
M  V30 3027 C 275.445 -3.30659 6.38793 0
M  V30 3028 C 277.471 -3.08438 5.04599 0
M  V30 3029 C 276.833 -3.1628 6.29402 0
M  V30 3030 H 272.932 -0.678967 0.387979 0
M  V30 3031 H 275.516 -1.30224 1.4474 0
M  V30 3032 H 273.687 -3.76976 0.935091 0
M  V30 3033 H 275.419 -3.87785 1.1578 0
M  V30 3034 H 272.174 -3.53815 3.1482 0
M  V30 3035 H 272.598 -3.54236 5.76928 0
M  V30 3036 H 277.24 -3.07291 2.90399 0
M  V30 3037 H 274.958 -3.36618 7.34652 0
M  V30 3038 H 278.544 -2.96952 5.0031 0
M  V30 3039 H 277.424 -3.1162 7.19627 0
M  V30 3040 N 274.927 -0.932562 -1.27047 0
M  V30 3041 C 276.152 -0.591474 -1.98787 0
M  V30 3042 C 276.577 0.824601 -1.69062 0
M  V30 3043 O 275.935 1.5541 -0.933677 0
M  V30 3044 C 275.983 -0.829808 -3.50922 0
M  V30 3045 O 275.087 0.102266 -4.12273 0
M  V30 3046 H 274.428 -0.227185 -0.623926 0
M  V30 3047 H 276.958 -1.25314 -1.61733 0
M  V30 3048 H 276.968 -0.747292 -4.01098 0
M  V30 3049 H 275.643 -1.86201 -3.7189 0
M  V30 3050 H 274.22 -0.0305761 -3.72887 0
M  V30 3051 N 276.405 1.4127 -0.698611 0
M  V30 3052 C 277.335 2.33447 -0.049629 0
M  V30 3053 C 278.316 1.51982 0.763898 0
M  V30 3054 O 279.501 1.80509 0.716257 0
M  V30 3055 C 276.631 3.35828 0.885267 0
M  V30 3056 C 275.585 4.27627 0.178613 0
M  V30 3057 C 274.911 5.20406 1.22807 0
M  V30 3058 C 276.211 5.13459 -0.956933 0
M  V30 3059 H 277.905 2.87966 -0.81951 0
M  V30 3060 H 275.451 1.38461 -0.395538 0
M  V30 3061 H 277.404 3.9924 1.34854 0
M  V30 3062 H 276.128 2.79666 1.68685 0
M  V30 3063 H 274.787 3.65643 -0.26466 0
M  V30 3064 H 274.435 4.60558 2.02226 0
M  V30 3065 H 274.135 5.82661 0.760239 0
M  V30 3066 H 275.659 5.86695 1.69179 0
M  V30 3067 H 277.073 5.70421 -0.573805 0
M  V30 3068 H 275.47 5.8467 -1.35205 0
M  V30 3069 H 276.54 4.50443 -1.79524 0
M  V30 3070 N 277.883 0.443576 1.51229 0
M  V30 3071 C 279.132 -0.122332 2.01329 0
M  V30 3072 C 279.445 -1.43237 1.33201 0
M  V30 3073 O 280.651 -2.0816 1.74304 0
M  V30 3074 C 279.107 -0.268551 3.58897 0
M  V30 3075 C 278.715 1.03142 4.35965 0
M  V30 3076 C 280.459 -0.787894 4.17124 0
M  V30 3077 C 278.366 0.850504 5.85252 0
M  V30 3078 H 277.296 -0.0494929 0.752374 0
M  V30 3079 H 279.947 0.574289 1.74282 0
M  V30 3080 H 278.329 -1.02832 3.82415 0
M  V30 3081 H 279.503 1.80001 4.24189 0
M  V30 3082 H 277.818 1.47977 3.89219 0
M  V30 3083 H 280.415 -0.939841 5.26375 0
M  V30 3084 H 280.758 -1.77201 3.76703 0
M  V30 3085 H 281.291 -0.0862669 3.97706 0
M  V30 3086 H 278.03 1.80718 6.30096 0
M  V30 3087 H 277.55 0.121825 5.99676 0
M  V30 3088 H 279.229 0.506163 6.45017 0
M  V30 3089 N 279.361 -1.56624 0.175154 0
M  V30 3090 C 280.308 -2.18149 -0.753634 0
M  V30 3091 C 281.278 -1.12265 -1.22417 0
M  V30 3092 O 282.463 -1.40432 -1.29165 0
M  V30 3093 C 279.603 -2.82933 -1.97592 0
M  V30 3094 C 278.716 -4.03289 -1.5486 0
M  V30 3095 C 277.851 -4.55988 -2.72485 0
M  V30 3096 C 276.89 -5.68746 -2.26262 0
M  V30 3097 N 276.027 -6.15938 -3.36994 0
M  V30 3098 H 280.867 -2.9717 -0.222195 0
M  V30 3099 H 278.404 -1.46774 -0.0979422 0
M  V30 3100 H 280.362 -3.18653 -2.69288 0
M  V30 3101 H 278.992 -2.06509 -2.481 0
M  V30 3102 H 278.044 -3.73364 -0.728246 0
M  V30 3103 H 279.356 -4.849 -1.16933 0
M  V30 3104 H 278.51 -4.9391 -3.52332 0
M  V30 3105 H 277.249 -3.73443 -3.13674 0
M  V30 3106 H 276.254 -5.30372 -1.44863 0
M  V30 3107 H 277.479 -6.53095 -1.86127 0
M  V30 3108 H 275.425 -5.36321 -3.77751 0
M  V30 3109 H 275.342 -6.92548 -3.03172 0
M  V30 3110 H 276.61 -6.58511 -4.17114 0
M  V30 3111 N 280.839 0.0985539 -1.57292 0
M  V30 3112 C 281.787 1.1387 -2.02821 0
M  V30 3113 C 282.781 1.41676 -0.928666 0
M  V30 3114 O 283.987 1.41398 -1.11385 0
M  V30 3115 H 280.362 0.384419 -0.646317 0
M  V30 3116 H 282.333 0.728347 -2.89375 0
M  V30 3117 C 281.082 2.45166 -2.46554 0
M  V30 3118 H 280.405 2.24613 -3.3074 0
M  V30 3119 H 281.845 3.16456 -2.8219 0
M  V30 3120 C 280.304 3.09216 -1.33742 0
M  V30 3121 O 280.834 3.96163 -0.66464 0
M  V30 3122 N 279.04 2.69413 -1.08928 0
M  V30 3123 H 278.587 1.98801 -1.63817 0
M  V30 3124 H 278.545 3.12594 -0.336458 0
M  V30 3125 N 282.317 1.53212 0.369288 0
M  V30 3126 C 283.28 1.7872 1.43498 0
M  V30 3127 C 284.28 0.657554 1.46741 0
M  V30 3128 O 285.47 0.925736 1.47566 0
M  V30 3129 C 282.602 1.90591 2.82645 0
M  V30 3130 H 283.795 2.73894 1.22156 0
M  V30 3131 H 281.348 1.44233 0.602203 0
M  V30 3132 H 282.083 0.974709 3.09306 0
M  V30 3133 H 281.868 2.72751 2.8169 0
M  V30 3134 H 283.358 2.11931 3.59826 0
M  V30 3135 N 283.795 -0.628877 1.44509 0
M  V30 3136 C 285.211 -0.947305 1.28446 0
M  V30 3137 C 285.411 -2.00275 0.221872 0
M  V30 3138 O 284.467 -2.49447 -0.391471 0
M  V30 3139 C 285.78 -1.40843 2.65676 0
M  V30 3140 C 287.328 -1.52379 2.73404 0
M  V30 3141 C 287.803 -2.01875 4.11109 0
M  V30 3142 N 289.294 -2.09142 4.13296 0
M  V30 3143 C 290.029 -2.48615 5.16699 0
M  V30 3144 N 289.525 -2.87209 6.30462 0
M  V30 3145 N 291.318 -2.48768 5.04054 0
M  V30 3146 H 283.469 0.0690977 2.12288 0
M  V30 3147 H 285.732 -0.0317164 0.947469 0
M  V30 3148 H 285.438 -0.707206 3.44516 0
M  V30 3149 H 285.312 -2.37902 2.92716 0
M  V30 3150 H 287.699 -2.21598 1.9488 0
M  V30 3151 H 287.78 -0.536898 2.50102 0
M  V30 3152 H 287.424 -1.3325 4.90109 0
M  V30 3153 H 287.354 -3.0144 4.31789 0
M  V30 3154 H 289.845 -1.81991 3.31191 0
M  V30 3155 H 290.158 -3.16149 7.05174 0
M  V30 3156 H 288.503 -2.84955 6.33897 0
M  V30 3157 H 291.694 -2.18009 4.14234 0
M  V30 3158 H 291.867 -2.79207 5.84763 0
M  V30 3159 N 285.273 -1.31445 -0.869486 0
M  V30 3160 C 286.203 -1.21727 -1.99261 0
M  V30 3161 C 287.184 -0.104359 -1.6978 0
M  V30 3162 O 288.369 -0.289038 -1.92037 0
M  V30 3163 C 285.499 -0.924317 -3.34774 0
M  V30 3164 C 284.453 -1.99685 -3.78563 0
M  V30 3165 C 283.779 -1.55658 -5.11541 0
M  V30 3166 C 285.079 -3.41003 -3.95619 0
M  V30 3167 H 286.773 -2.1569 -2.07649 0
M  V30 3168 H 284.319 -1.03839 -0.997675 0
M  V30 3169 H 286.272 -0.842934 -4.12883 0
M  V30 3170 H 284.996 0.0509793 -3.2656 0
M  V30 3171 H 283.655 -2.06813 -3.02694 0
M  V30 3172 H 283.303 -0.569132 -4.9977 0
M  V30 3173 H 283.003 -2.27409 -5.41811 0
M  V30 3174 H 284.527 -1.48928 -5.92159 0
M  V30 3175 H 285.941 -3.36547 -4.64122 0
M  V30 3176 H 284.338 -4.10975 -4.37286 0
M  V30 3177 H 285.408 -3.81754 -2.98985 0
M  V30 3178 N 286.751 1.08385 -1.14413 0
M  V30 3179 C 287.979 1.84517 -0.936001 0
M  V30 3180 C 288.394 1.81626 0.515503 0
M  V30 3181 O 287.751 1.22008 1.35721 0
M  V30 3182 C 287.802 3.32049 -1.42918 0
M  V30 3183 O 287.523 3.34951 -2.82381 0
M  V30 3184 C 289.024 4.24986 -1.26103 0
M  V30 3185 H 286.244 0.582491 -0.333084 0
M  V30 3186 H 288.788 1.36885 -1.5193 0
M  V30 3187 H 286.943 3.7707 -0.888641 0
M  V30 3188 H 287.357 4.27048 -3.04517 0
M  V30 3189 H 288.831 5.26615 -1.6547 0
M  V30 3190 H 289.308 4.38726 -0.20392 0
M  V30 3191 H 289.914 3.85791 -1.79012 0
M  V30 3192 N 288.23 0.939286 1.26551 0
M  V30 3193 C 289.16 0.465044 2.28822 0
M  V30 3194 C 290.141 -0.480692 1.63167 0
M  V30 3195 O 291.326 -0.382955 1.90387 0
M  V30 3196 C 288.456 -0.27234 3.46231 0
M  V30 3197 C 287.41 0.58666 4.2396 0
M  V30 3198 C 286.736 -0.280573 5.33963 0
M  V30 3199 C 288.036 1.85704 4.88171 0
M  V30 3200 H 289.73 1.31979 2.68741 0
M  V30 3201 H 287.276 0.636061 1.29191 0
M  V30 3202 H 289.229 -0.615133 4.16886 0
M  V30 3203 H 287.953 -1.16121 3.0526 0
M  V30 3204 H 286.612 0.91232 3.55067 0
M  V30 3205 H 286.26 -1.16874 4.89234 0
M  V30 3206 H 285.96 0.29076 5.8688 0
M  V30 3207 H 287.484 -0.618678 6.07458 0
M  V30 3208 H 288.898 1.58161 5.51052 0
M  V30 3209 H 287.295 2.37279 5.51197 0
M  V30 3210 H 288.365 2.56957 4.11219 0
M  V30 3211 N 289.708 -1.40897 0.706093 0
M  V30 3212 C 290.948 -2.02916 0.245827 0
M  V30 3213 C 291.312 -1.54751 -1.13649 0
M  V30 3214 O 292.513 -2.08768 -1.69321 0
M  V30 3215 C 290.784 -3.56031 0.312537 0
M  V30 3216 S 292.343 -4.38741 -0.0721388 0
M  V30 3217 H 289.161 -0.704186 0.0982007 0
M  V30 3218 H 291.763 -1.72168 0.926207 0
M  V30 3219 H 290.467 -3.88579 1.32039 0
M  V30 3220 H 289.998 -3.91495 -0.386641 0
M  V30 3221 H 292.013 -4.78952 -1.29692 0
M  V30 3222 N 291.186 -0.45159 -1.50991 0
M  V30 3223 C 292.435 0.111653 -2.01391 0
M  V30 3224 C 292.748 1.42529 -1.33959 0
M  V30 3225 O 293.954 2.07232 -1.75405 0
M  V30 3226 C 292.41 0.249514 -3.59034 0
M  V30 3227 C 292.018 -1.05453 -4.35412 0
M  V30 3228 C 293.762 0.765762 -4.17536 0
M  V30 3229 C 291.669 -0.881529 -5.84793 0
M  V30 3230 H 290.599 0.0455022 -0.752626 0
M  V30 3231 H 293.25 -0.583524 -1.73975 0
M  V30 3232 H 291.632 1.00803 -3.82955 0
M  V30 3233 H 292.806 -1.82248 -4.23229 0
M  V30 3234 H 291.121 -1.50039 -3.88429 0
M  V30 3235 H 293.718 0.911913 -5.26866 0
M  V30 3236 H 294.061 1.75201 -3.77638 0
M  V30 3237 H 294.594 0.0651744 -3.97747 0
M  V30 3238 H 291.333 -1.84057 -6.29129 0
M  V30 3239 H 290.853 -0.153625 -5.99603 0
M  V30 3240 H 292.532 -0.540363 -6.4474 0
M  V30 3241 N 292.664 1.56529 -0.183458 0
M  V30 3242 C 293.892 2.01623 0.464285 0
M  V30 3243 C 294.307 1.06366 1.55986 0
M  V30 3244 O 293.664 0.0665398 1.82379 0
M  V30 3245 C 293.715 3.46475 1.03139 0
M  V30 3246 O 293.436 4.38095 -0.0204675 0
M  V30 3247 C 294.937 4.0703 1.75617 0
M  V30 3248 H 292.157 0.660596 0.117704 0
M  V30 3249 H 294.701 2.02451 -0.288751 0
M  V30 3250 H 292.856 3.46383 1.73486 0
M  V30 3251 H 293.27 5.22973 0.399952 0
M  V30 3252 H 294.744 5.10271 2.10542 0
M  V30 3253 H 295.221 3.49819 2.65563 0
M  V30 3254 H 295.827 4.1086 1.09882 0
M  V30 3255 N 294.142 -0.090211 1.57342 0
M  V30 3256 C 295.382 -0.798365 1.88163 0
M  V30 3257 C 295.746 -1.75662 0.775046 0
M  V30 3258 O 296.947 -2.50849 0.965816 0
M  V30 3259 C 295.218 -1.50376 3.24225 0
M  V30 3260 S 296.777 -2.24952 3.76752 0
M  V30 3261 H 293.595 -0.265883 0.659414 0
M  V30 3262 H 296.197 -0.055264 1.95422 0
M  V30 3263 H 294.901 -0.792286 4.0268 0
M  V30 3264 H 294.432 -2.28666 3.20118 0
M  V30 3265 H 296.447 -3.51173 3.5056 0
M  V30 3266 N 295.62 -1.53406 -0.361157 0
M  V30 3267 C 296.866 -1.70054 -1.10496 0
M  V30 3268 C 297.199 -0.453278 -1.88836 0
M  V30 3269 O 296.474 0.5495 -1.86576 0
M  V30 3270 C 296.757 -2.95317 -2.06058 0
M  V30 3271 C 296.61 -4.3021 -1.31298 0
M  V30 3272 C 297.929 -3.16193 -3.06121 0
M  V30 3273 H 295.048 -0.618799 -0.400321 0
M  V30 3274 H 297.69 -1.86052 -0.385318 0
M  V30 3275 H 295.84 -2.81809 -2.67425 0
M  V30 3276 H 297.512 -4.55538 -0.726807 0
M  V30 3277 H 295.755 -4.29421 -0.614853 0
M  V30 3278 H 296.426 -5.14 -2.01265 0
M  V30 3279 H 298.902 -3.28916 -2.5486 0
M  V30 3280 H 297.778 -4.05266 -3.70204 0
M  V30 3281 H 298.039 -2.31676 -3.76535 0
M  V30 3282 N 297.098 0.621204 -1.44841 0
M  V30 3283 C 298.345 1.38055 -1.48145 0
M  V30 3284 C 298.673 1.94143 -0.117867 0
M  V30 3285 O 297.928 1.74713 0.881694 0
M  V30 3286 C 298.227 2.55675 -2.4973 0
M  V30 3287 C 297.893 2.17817 -3.94799 0
M  V30 3288 C 296.555 2.07205 -4.34303 0
M  V30 3289 C 298.907 1.88065 -4.86087 0
M  V30 3290 C 296.235 1.65045 -5.63007 0
M  V30 3291 C 298.587 1.47394 -6.15189 0
M  V30 3292 C 297.251 1.35331 -6.53637 0
M  V30 3293 H 296.521 0.505181 -0.542101 0
M  V30 3294 H 299.168 0.703477 -1.78111 0
M  V30 3295 H 297.473 3.2866 -2.13284 0
M  V30 3296 H 299.17 3.13904 -2.4953 0
M  V30 3297 H 295.76 2.26998 -3.63552 0
M  V30 3298 H 299.944 1.95168 -4.56315 0
M  V30 3299 H 295.2 1.54317 -5.91605 0
M  V30 3300 H 299.374 1.23415 -6.85377 0
M  V30 3301 H 297.001 1.02435 -7.53267 0
M  V30 3302 N 298.576 1.31904 0.862503 0
M  V30 3303 C 299.987 1.19803 1.43193 0
M  V30 3304 C 300.338 -0.192567 1.95253 0
M  V30 3305 O 299.463 -1.09081 1.86896 0
M  V30 3306 C 300.058 2.16883 2.60283 0
M  V30 3307 C 298.617 2.08692 3.13248 0
M  V30 3308 C 297.764 2.05691 1.85975 0
M  V30 3309 H 300.715 1.43846 0.670365 0
M  V30 3310 H 300.736 1.76278 3.37204 0
M  V30 3311 H 300.248 3.18083 2.22363 0
M  V30 3312 H 298.349 1.10713 3.55771 0
M  V30 3313 H 298.462 2.9815 3.75025 0
M  V30 3314 H 296.826 1.50814 2.05249 0
M  V30 3315 H 297.609 3.08659 1.50282 0
M  V30 3316 N 300.054 -1.07777 1.14986 0
M  V30 3317 C 300.984 -2.16865 0.865557 0
M  V30 3318 C 301.965 -1.69123 -0.182083 0
M  V30 3319 O 303.15 -1.94164 -0.0373815 0
M  V30 3320 C 300.28 -3.45539 0.349313 0
M  V30 3321 C 299.234 -4.06708 1.33313 0
M  V30 3322 C 298.56 -5.30411 0.675918 0
M  V30 3323 C 299.86 -4.47241 2.69764 0
M  V30 3324 H 301.554 -2.40905 1.77778 0
M  V30 3325 H 299.1 -1.15781 0.856203 0
M  V30 3326 H 301.053 -4.21174 0.137983 0
M  V30 3327 H 299.777 -3.21072 -0.598362 0
M  V30 3328 H 298.436 -3.33112 1.53075 0
M  V30 3329 H 298.084 -5.02232 -0.277767 0
M  V30 3330 H 297.784 -5.72293 1.33244 0
M  V30 3331 H 299.308 -6.08755 0.474262 0
M  V30 3332 H 300.722 -5.14025 2.53873 0
M  V30 3333 H 299.119 -5.00062 3.3175 0
M  V30 3334 H 300.189 -3.58818 3.26156 0
M  V30 3335 N 301.532 -0.945985 -1.26051 0
M  V30 3336 C 302.781 -0.591836 -1.92822 0
M  V30 3337 C 303.094 0.873956 -1.7499 0
M  V30 3338 O 304.3 1.33769 -2.36259 0
M  V30 3339 C 302.756 -1.00776 -3.45503 0
M  V30 3340 C 302.364 -2.4955 -3.7206 0
M  V30 3341 C 304.108 -0.725735 -4.1825 0
M  V30 3342 C 302.015 -2.84988 -5.18205 0
M  V30 3343 H 300.945 -0.217635 -0.721908 0
M  V30 3344 H 303.596 -1.14927 -1.43052 0
M  V30 3345 H 301.978 -0.378812 -3.94184 0
M  V30 3346 H 303.152 -3.1739 -3.34066 0
M  V30 3347 H 301.467 -2.75133 -3.12555 0
M  V30 3348 H 304.064 -0.966771 -5.25887 0
M  V30 3349 H 304.407 0.337639 -4.14929 0
M  V30 3350 H 304.94 -1.31463 -3.7545 0
M  V30 3351 H 301.679 -3.90307 -5.26631 0
M  V30 3352 H 301.199 -2.21813 -5.57278 0
M  V30 3353 H 302.878 -2.73712 -5.86252 0
M  V30 3354 N 303.011 1.40521 -0.713556 0
M  V30 3355 C 304.241 2.0494 -0.261395 0
M  V30 3356 C 304.649 1.53861 1.10107 0
M  V30 3357 O 303.992 0.689321 1.70276 0
M  V30 3358 C 304.054 3.59138 -0.161227 0
M  V30 3359 C 303.718 4.33096 -1.45865 0
M  V30 3360 C 304.715 4.61182 -2.40016 0
M  V30 3361 C 302.4 4.72043 -1.71701 0
M  V30 3362 C 304.394 5.27196 -3.58251 0
M  V30 3363 C 302.081 5.37789 -2.90218 0
M  V30 3364 C 303.079 5.65295 -3.83315 0
M  V30 3365 O 302.767 6.29683 -4.99754 0
M  V30 3366 H 302.499 0.666041 -0.115608 0
M  V30 3367 H 305.053 1.80954 -0.971849 0
M  V30 3368 H 303.283 3.81936 0.605153 0
M  V30 3369 H 304.972 4.05091 0.256105 0
M  V30 3370 H 305.738 4.31559 -2.21318 0
M  V30 3371 H 301.617 4.50003 -1.00092 0
M  V30 3372 H 305.161 5.48582 -4.30934 0
M  V30 3373 H 301.058 5.66831 -3.08825 0
M  V30 3374 H 301.826 6.4818 -4.99805 0
M  V30 3375 N 304.489 0.459591 1.5075 0
M  V30 3376 C 305.735 -0.0994966 2.02556 0
M  V30 3377 C 306.068 -1.40399 1.3417 0
M  V30 3378 O 305.343 -1.88892 0.463683 0
M  V30 3379 C 305.626 -0.295242 3.58888 0
M  V30 3380 C 305.479 1.02947 4.37861 0
M  V30 3381 C 306.798 -1.05502 4.27267 0
M  V30 3382 H 303.917 -0.034686 0.736183 0
M  V30 3383 H 306.559 0.602938 1.8018 0
M  V30 3384 H 304.709 -0.893563 3.78084 0
M  V30 3385 H 306.381 1.66348 4.30263 0
M  V30 3386 H 304.624 1.62885 4.02058 0
M  V30 3387 H 305.295 0.846281 5.45474 0
M  V30 3388 H 307.771 -0.547993 4.12476 0
M  V30 3389 H 306.647 -1.16077 5.36486 0
M  V30 3390 H 306.908 -2.08875 3.89645 0
M  V30 3391 N 305.967 -1.56429 0.191757 0
M  V30 3392 C 307.207 -1.99383 -0.450099 0
M  V30 3393 C 307.571 -1.07581 -1.59029 0
M  V30 3394 O 308.772 -1.39758 -2.29611 0
M  V30 3395 C 307.043 -3.45841 -0.901611 0
M  V30 3396 S 308.602 -4.10822 -1.54177 0
M  V30 3397 H 305.42 -0.696253 -0.144057 0
M  V30 3398 H 308.022 -1.93276 0.294036 0
M  V30 3399 H 306.726 -4.10354 -0.0616596 0
M  V30 3400 H 306.257 -3.55757 -1.67929 0
M  V30 3401 H 308.272 -4.07553 -2.83046 0
M  V30 3402 N 307.445 0.0818655 -1.57387 0
M  V30 3403 C 308.693 0.781368 -1.86384 0
M  V30 3404 C 309.014 1.78618 -0.782342 0
M  V30 3405 O 308.284 1.94976 0.190061 0
M  V30 3406 H 306.864 0.291562 -0.687751 0
M  V30 3407 H 309.526 0.060348 -1.94807 0
M  V30 3408 H 308.622 1.3038 -2.83562 0
M  V30 3409 N 308.923 1.53595 0.353017 0
M  V30 3410 C 310.169 1.70638 1.09593 0
M  V30 3411 C 310.502 0.463286 1.88593 0
M  V30 3412 O 309.777 -0.539597 1.86865 0
M  V30 3413 C 310.06 2.96406 2.04489 0
M  V30 3414 C 309.913 4.30901 1.29014 0
M  V30 3415 C 311.232 3.17812 3.0444 0
M  V30 3416 H 308.351 0.620913 0.397034 0
M  V30 3417 H 310.993 1.86254 0.375446 0
M  V30 3418 H 309.143 2.83223 2.65927 0
M  V30 3419 H 310.815 4.55917 0.702638 0
M  V30 3420 H 309.058 4.29741 0.592071 0
M  V30 3421 H 309.729 5.1506 1.98537 0
M  V30 3422 H 312.205 3.30263 2.53112 0
M  V30 3423 H 311.081 4.07223 3.6805 0
M  V30 3424 H 311.342 2.33669 3.75301 0
M  V30 3425 N 310.401 -0.613514 1.45168 0
M  V30 3426 C 311.65 -1.36874 1.4815 0
M  V30 3427 C 311.963 -1.952 0.124982 0
M  V30 3428 O 313.169 -2.71481 0.0324176 0
M  V30 3429 C 311.625 -2.47905 2.60904 0
M  V30 3430 C 311.233 -1.96016 4.02842 0
M  V30 3431 C 312.977 -3.24965 2.73126 0
M  V30 3432 C 310.884 -3.04494 5.06988 0
M  V30 3433 H 309.814 -0.514428 0.551253 0
M  V30 3434 H 312.465 -0.658182 1.7129 0
M  V30 3435 H 310.847 -3.21618 2.31037 0
M  V30 3436 H 312.021 -1.29051 4.4236 0
M  V30 3437 H 310.336 -1.31719 3.95018 0
M  V30 3438 H 312.933 -4.05865 3.48106 0
M  V30 3439 H 313.276 -3.75588 1.79553 0
M  V30 3440 H 313.809 -2.5835 3.0249 0
M  V30 3441 H 310.548 -2.58795 6.0225 0
M  V30 3442 H 310.068 -3.70044 4.72046 0
M  V30 3443 H 311.747 -3.68976 5.31475 0
M  V30 3444 N 311.879 -1.3236 -0.855495 0
M  V30 3445 C 313.119 -1.24187 -1.62348 0
M  V30 3446 C 313.483 0.193597 -1.91021 0
M  V30 3447 O 314.684 0.39904 -2.65822 0
M  V30 3448 C 312.955 -2.07661 -2.90881 0
M  V30 3449 S 314.514 -2.16505 -3.81669 0
M  V30 3450 H 311.332 -0.442076 -0.556857 0
M  V30 3451 H 313.934 -1.67198 -1.01317 0
M  V30 3452 H 312.638 -3.11018 -2.67761 0
M  V30 3453 H 312.169 -1.65425 -3.56929 0
M  V30 3454 H 314.184 -1.31394 -4.78487 0
M  V30 3455 N 313.357 1.07166 -1.15556 0
M  V30 3456 C 314.305 2.16517 -0.8499 0
M  V30 3457 C 315.299 1.68468 0.177454 0
M  V30 3458 O 316.505 1.79971 0.0323026 0
M  V30 3459 H 312.88 0.706652 -0.25719 0
M  V30 3460 H 314.851 2.39514 -1.77976 0
M  V30 3461 C 313.6 3.45855 -0.357682 0
M  V30 3462 H 312.923 3.83214 -1.13961 0
M  V30 3463 H 314.363 4.23607 -0.182489 0
M  V30 3464 C 312.822 3.24062 0.921152 0
M  V30 3465 O 313.352 3.48813 1.9923 0
M  V30 3466 N 311.558 2.77539 0.86141 0
M  V30 3467 H 311.105 2.57598 -0.0104408 0
M  V30 3468 H 311.063 2.63337 1.71758 0
M  V30 3469 N 314.835 0.952656 1.25548 0
M  V30 3470 C 315.782 0.47008 2.25962 0
M  V30 3471 C 316.752 -0.476384 1.59122 0
M  V30 3472 O 317.937 -0.39007 1.8677 0
M  V30 3473 C 315.077 -0.247881 3.44209 0
M  V30 3474 C 314.19 0.735591 4.25691 0
M  V30 3475 C 313.325 -0.0047306 5.312 0
M  V30 3476 C 312.364 0.969805 6.04368 0
M  V30 3477 N 311.501 0.260486 7.01617 0
M  V30 3478 H 316.341 1.33126 2.66611 0
M  V30 3479 H 313.878 0.66765 1.31076 0
M  V30 3480 H 315.836 -0.680695 4.1161 0
M  V30 3481 H 314.466 -1.07312 3.0444 0
M  V30 3482 H 313.518 1.28689 3.57971 0
M  V30 3483 H 314.83 1.47934 4.76358 0
M  V30 3484 H 313.984 -0.496275 6.04667 0
M  V30 3485 H 312.723 -0.781282 4.81401 0
M  V30 3486 H 311.728 1.47237 5.29718 0
M  V30 3487 H 312.953 1.74655 6.56256 0
M  V30 3488 H 310.899 -0.497364 6.54112 0
M  V30 3489 H 310.816 0.943362 7.50091 0
M  V30 3490 H 312.084 -0.209587 7.79218 0
M  V30 3491 N 316.313 -1.40141 0.720998 0
M  V30 3492 C 317.26 -2.30688 0.071919 0
M  V30 3493 C 318.23 -1.48476 -0.744584 0
M  V30 3494 O 319.415 -1.77201 -0.707423 0
M  V30 3495 C 316.555 -3.34724 -0.839855 0
M  V30 3496 C 315.668 -4.31998 -0.0122438 0
M  V30 3497 C 314.803 -5.23102 -0.923995 0
M  V30 3498 C 313.842 -6.12033 -0.0907969 0
M  V30 3499 N 312.979 -6.95537 -0.957718 0
M  V30 3500 H 317.819 -2.85628 0.849755 0
M  V30 3501 H 315.356 -1.40653 0.430726 0
M  V30 3502 H 317.314 -3.93618 -1.38279 0
M  V30 3503 H 315.944 -2.81274 -1.58381 0
M  V30 3504 H 314.996 -3.74841 0.64794 0
M  V30 3505 H 316.308 -4.94772 0.632595 0
M  V30 3506 H 315.462 -5.86953 -1.53527 0
M  V30 3507 H 314.201 -4.60615 -1.60264 0
M  V30 3508 H 313.206 -5.47207 0.533377 0
M  V30 3509 H 314.431 -6.76581 0.584428 0
M  V30 3510 H 312.377 -6.35633 -1.62192 0
M  V30 3511 H 312.294 -7.55099 -0.36904 0
M  V30 3512 H 313.562 -7.63832 -1.555 0
M  V30 3513 N 317.792 -0.46758 -1.50504 0
M  V30 3514 C 319.038 0.0887532 -2.02606 0
M  V30 3515 C 319.371 1.39686 -1.34913 0
M  V30 3516 O 318.646 1.88644 -0.473694 0
M  V30 3517 C 318.929 0.276206 -3.59039 0
M  V30 3518 C 318.782 -1.05267 -4.37309 0
M  V30 3519 C 320.101 1.03235 -4.27821 0
M  V30 3520 H 317.22 0.0307814 -0.736357 0
M  V30 3521 H 319.862 -0.612485 -1.79857 0
M  V30 3522 H 318.012 0.8735 -3.78553 0
M  V30 3523 H 319.684 -1.68628 -4.29374 0
M  V30 3524 H 317.927 -1.65015 -4.01189 0
M  V30 3525 H 318.598 -0.875197 -5.45018 0
M  V30 3526 H 321.074 0.526111 -4.12761 0
M  V30 3527 H 319.95 1.1323 -5.37094 0
M  V30 3528 H 320.211 2.06806 -3.90748 0
M  V30 3529 N 319.27 1.56325 -0.20005 0
M  V30 3530 C 320.217 2.1932 0.718833 0
M  V30 3531 C 321.187 1.14198 1.20615 0
M  V30 3532 O 322.372 1.42469 1.26914 0
M  V30 3533 C 319.512 2.86041 1.93066 0
M  V30 3534 C 318.625 4.05702 1.48425 0
M  V30 3535 C 317.76 4.60266 2.65196 0
M  V30 3536 C 316.799 5.72273 2.17185 0
M  V30 3537 N 315.936 6.21221 3.27152 0
M  V30 3538 H 320.776 2.97486 0.17489 0
M  V30 3539 H 318.313 1.46911 0.0745794 0
M  V30 3540 H 320.271 3.22897 2.64184 0
M  V30 3541 H 318.901 2.1043 2.44783 0
M  V30 3542 H 317.953 3.74475 0.668755 0
M  V30 3543 H 319.265 4.86699 1.09204 0
M  V30 3544 H 318.419 4.99453 3.4443 0
M  V30 3545 H 317.158 3.78386 3.07693 0
M  V30 3546 H 316.163 5.3261 1.36407 0
M  V30 3547 H 317.388 6.55974 1.75713 0
M  V30 3548 H 315.334 5.42263 3.69171 0
M  V30 3549 H 315.251 6.97284 2.92116 0
M  V30 3550 H 316.519 6.65063 4.06585 0
M  V30 3551 N 320.748 -0.0735177 1.57428 0
M  V30 3552 C 321.678 -1.0879 2.06608 0
M  V30 3553 C 322.659 -1.40473 0.959237 0
M  V30 3554 O 323.844 -1.5013 1.23185 0
M  V30 3555 C 320.974 -2.40183 2.50857 0
M  V30 3556 C 319.928 -2.22858 3.65402 0
M  V30 3557 C 319.254 -3.59619 3.957 0
M  V30 3558 C 320.554 -1.65123 4.95511 0
M  V30 3559 H 322.248 -0.678673 2.91607 0
M  V30 3560 H 319.794 -0.325013 1.40284 0
M  V30 3561 H 321.747 -3.11437 2.83874 0
M  V30 3562 H 320.471 -2.83083 1.62885 0
M  V30 3563 H 319.13 -1.54045 3.32664 0
M  V30 3564 H 318.778 -4.00086 3.04861 0
M  V30 3565 H 318.478 -3.48866 4.72828 0
M  V30 3566 H 320.002 -4.32306 4.31212 0
M  V30 3567 H 321.416 -2.26241 5.26771 0
M  V30 3568 H 319.813 -1.65071 5.7695 0
M  V30 3569 H 320.883 -0.612559 4.81015 0
M  V30 3570 N 322.226 -1.5378 -0.344866 0
M  V30 3571 C 323.174 -1.82373 -1.4437 0
M  V30 3572 C 324.168 -0.694128 -1.54526 0
M  V30 3573 O 325.374 -0.877442 -1.57165 0
M  V30 3574 H 321.749 -0.577765 -0.481344 0
M  V30 3575 H 323.72 -2.74306 -1.17468 0
M  V30 3576 C 322.469 -2.04898 -2.80913 0
M  V30 3577 H 321.792 -2.9127 -2.73865 0
M  V30 3578 H 323.232 -2.28871 -3.56923 0
M  V30 3579 C 321.691 -0.834116 -3.26411 0
M  V30 3580 O 322.221 -0.0328885 -4.01687 0
M  V30 3581 N 320.427 -0.65171 -2.83198 0
M  V30 3582 H 319.974 -1.30489 -2.22104 0
M  V30 3583 H 319.932 0.159686 -3.13994 0
M  V30 3584 N 323.704 0.605807 -1.45491 0
M  V30 3585 C 324.651 1.7164 -1.54299 0
M  V30 3586 C 325.621 1.61486 -0.388761 0
M  V30 3587 O 326.806 1.81039 -0.602445 0
M  V30 3588 C 323.946 3.09953 -1.51734 0
M  V30 3589 C 323.059 3.309 -2.77721 0
M  V30 3590 C 322.194 4.59329 -2.66816 0
M  V30 3591 C 321.233 4.7354 -3.87848 0
M  V30 3592 N 320.37 5.9327 -3.75467 0
M  V30 3593 H 325.21 1.63449 -2.49176 0
M  V30 3594 H 322.747 0.796957 -1.23641 0
M  V30 3595 H 324.705 3.89977 -1.48235 0
M  V30 3596 H 323.335 3.17098 -0.604068 0
M  V30 3597 H 322.387 2.44639 -2.913 0
M  V30 3598 H 323.699 3.37274 -3.67488 0
M  V30 3599 H 322.853 5.4755 -2.61292 0
M  V30 3600 H 321.592 4.55355 -1.74651 0
M  V30 3601 H 320.597 3.83741 -3.93729 0
M  V30 3602 H 321.822 4.79309 -4.81082 0
M  V30 3603 H 319.768 5.90338 -2.86072 0
M  V30 3604 H 319.685 6.00811 -4.5887 0
M  V30 3605 H 320.953 6.83984 -3.73879 0
M  V30 3606 N 325.182 1.32811 0.848464 0
M  V30 3607 C 326.129 1.22265 1.95755 0
M  V30 3608 C 327.099 0.103413 1.65778 0
M  V30 3609 O 328.284 0.280033 1.88734 0
M  V30 3610 C 325.424 0.958014 3.31536 0
M  V30 3611 C 324.537 2.16262 3.73971 0
M  V30 3612 C 323.672 1.83295 4.98575 0
M  V30 3613 C 322.711 3.00041 5.33518 0
M  V30 3614 N 321.848 2.67125 6.49299 0
M  V30 3615 H 326.688 2.17128 2.04107 0
M  V30 3616 H 324.225 1.07982 0.998913 0
M  V30 3617 H 326.183 0.785052 4.09747 0
M  V30 3618 H 324.813 0.046159 3.22767 0
M  V30 3619 H 323.865 2.44565 2.91362 0
M  V30 3620 H 325.177 3.03572 3.95785 0
M  V30 3621 H 324.331 1.62586 5.84509 0
M  V30 3622 H 323.07 0.932078 4.7871 0
M  V30 3623 H 322.075 3.21374 4.46093 0
M  V30 3624 H 323.3 3.90869 5.55336 0
M  V30 3625 H 321.246 1.79586 6.3094 0
M  V30 3626 H 321.163 3.47965 6.71161 0
M  V30 3627 H 322.431 2.49861 7.3837 0
M  V30 3628 N 326.66 -1.06551 1.16123 0
M  V30 3629 C 327.888 -1.83005 0.965237 0
M  V30 3630 C 328.303 -1.82423 -0.486542 0
M  V30 3631 O 327.66 -1.24152 -1.33763 0
M  V30 3632 C 327.711 -3.29733 1.48183 0
M  V30 3633 O 327.432 -3.30416 2.87674 0
M  V30 3634 C 328.933 -4.22926 1.32848 0
M  V30 3635 H 326.153 -0.577118 0.342309 0
M  V30 3636 H 328.697 -1.3445 1.54089 0
M  V30 3637 H 326.852 -3.75609 0.948517 0
M  V30 3638 H 327.266 -4.22149 3.11272 0
M  V30 3639 H 328.74 -5.23916 1.73827 0
M  V30 3640 H 329.217 -4.38346 0.273692 0
M  V30 3641 H 329.823 -3.82894 1.85127 0
M  V30 3642 N 328.138 -0.959301 -1.25041 0
M  V30 3643 C 329.363 -0.633507 -1.97488 0
M  V30 3644 C 329.788 0.788555 -1.70773 0
M  V30 3645 O 329.146 1.53394 -0.966431 0
M  V30 3646 C 329.194 -0.904057 -3.49083 0
M  V30 3647 O 328.298 0.0147939 -4.12397 0
M  V30 3648 H 327.639 -0.240368 -0.618966 0
M  V30 3649 H 330.169 -1.28717 -1.59038 0
M  V30 3650 H 330.179 -0.832203 -3.99423 0
M  V30 3651 H 328.854 -1.94048 -3.67856 0
M  V30 3652 H 327.431 -0.109664 -3.72739 0
M  V30 3653 N 329.616 1.39756 -0.72842 0
M  V30 3654 C 330.546 2.33289 -0.0991354 0
M  V30 3655 C 331.527 1.53568 0.731489 0
M  V30 3656 O 332.712 1.81987 0.677807 0
M  V30 3657 C 329.842 3.3763 0.813834 0
M  V30 3658 C 328.796 4.2791 0.0878663 0
M  V30 3659 C 328.122 5.22894 1.11741 0
M  V30 3660 C 329.422 5.11314 -1.06563 0
M  V30 3661 H 331.116 2.86163 -0.880408 0
M  V30 3662 H 328.662 1.37591 -0.424819 0
M  V30 3663 H 330.615 4.0201 1.26355 0
M  V30 3664 H 329.339 2.83181 1.62715 0
M  V30 3665 H 327.998 3.65 -0.342159 0
M  V30 3666 H 327.646 4.64744 1.92412 0
M  V30 3667 H 327.346 5.84143 0.636477 0
M  V30 3668 H 328.87 5.90151 1.56697 0
M  V30 3669 H 330.284 5.69076 -0.694671 0
M  V30 3670 H 328.681 5.81671 -1.47577 0
M  V30 3671 H 329.751 4.46534 -1.89038 0
M  V30 3672 N 331.094 0.475555 1.50254 0
M  V30 3673 C 332.024 -0.30611 2.31485 0
M  V30 3674 C 333.005 -0.986228 1.38591 0
M  V30 3675 O 334.19 -0.982541 1.67511 0
M  V30 3676 C 331.32 -1.38588 3.1845 0
M  V30 3677 C 330.274 -0.827115 4.19932 0
M  V30 3678 C 329.6 -2.00551 4.95665 0
M  V30 3679 C 330.9 0.16463 5.2204 0
M  V30 3680 H 332.594 0.371866 2.97082 0
M  V30 3681 H 330.14 0.180282 1.42867 0
M  V30 3682 H 332.093 -1.94023 3.74076 0
M  V30 3683 H 330.817 -2.09269 2.50747 0
M  V30 3684 H 329.476 -0.294702 3.65414 0
M  V30 3685 H 329.124 -2.6994 4.2443 0
M  V30 3686 H 328.824 -1.63784 5.64313 0
M  V30 3687 H 330.348 -2.56468 5.54127 0
M  V30 3688 H 331.762 -0.300699 5.72511 0
M  V30 3689 H 330.159 0.446813 5.98434 0
M  V30 3690 H 331.229 1.08905 4.72512 0
M  V30 3691 N 332.573 -1.56217 0.208337 0
M  V30 3692 C 333.803 -2.02043 -0.431523 0
M  V30 3693 C 334.211 -1.08755 -1.54819 0
M  V30 3694 O 333.554 -0.0870009 -1.83494 0
M  V30 3695 C 333.616 -3.44239 -1.03633 0
M  V30 3696 C 333.28 -4.56965 -0.0567502 0
M  V30 3697 C 334.277 -5.14624 0.738773 0
M  V30 3698 C 331.962 -5.02266 0.0581736 0
M  V30 3699 C 333.956 -6.16045 1.63605 0
M  V30 3700 C 331.643 -6.03528 0.959001 0
M  V30 3701 C 332.641 -6.60293 1.7465 0
M  V30 3702 O 332.329 -7.59586 2.6322 0
M  V30 3703 H 332.061 -0.666772 -0.111313 0
M  V30 3704 H 334.615 -2.02919 0.318277 0
M  V30 3705 H 332.845 -3.40391 -1.83497 0
M  V30 3706 H 334.534 -3.73793 -1.58221 0
M  V30 3707 H 335.3 -4.80483 0.660364 0
M  V30 3708 H 331.179 -4.57771 -0.544633 0
M  V30 3709 H 334.723 -6.60279 2.25116 0
M  V30 3710 H 330.62 -6.37092 1.03848 0
M  V30 3711 H 331.388 -7.77057 2.57148 0
M  V30 3712 N 334.051 0.0651679 -1.57465 0
M  V30 3713 C 334.999 1.09542 -2.05191 0
M  V30 3714 C 335.993 1.39675 -0.958509 0
M  V30 3715 O 337.199 1.39003 -1.14359 0
M  V30 3716 H 333.574 0.370623 -0.654326 0
M  V30 3717 H 335.545 0.666802 -2.90854 0
M  V30 3718 C 334.294 2.39881 -2.51699 0
M  V30 3719 H 333.617 2.17547 -3.3543 0
M  V30 3720 H 335.057 3.104 -2.88839 0
M  V30 3721 C 333.516 3.0631 -1.40271 0
M  V30 3722 O 334.046 3.94664 -0.748523 0
M  V30 3723 N 332.252 2.67041 -1.14618 0
M  V30 3724 H 331.799 1.95281 -1.67997 0
M  V30 3725 H 331.757 3.1181 -0.402688 0
M  V30 3726 N 335.529 1.53961 0.336706 0
M  V30 3727 C 336.477 1.83136 1.43401 0
M  V30 3728 C 337.471 0.702313 1.54156 0
M  V30 3729 O 338.677 0.885765 1.56698 0
M  V30 3730 H 335.052 0.580309 0.478273 0
M  V30 3731 H 337.023 2.74925 1.16012 0
M  V30 3732 C 335.772 2.06385 2.79822 0
M  V30 3733 H 335.095 2.92718 2.72316 0
M  V30 3734 H 336.535 2.30761 3.55704 0
M  V30 3735 C 334.994 0.851414 3.25964 0
M  V30 3736 O 335.524 0.0541904 4.01663 0
M  V30 3737 N 333.73 0.66672 2.82848 0
M  V30 3738 H 333.277 1.31665 2.21409 0
M  V30 3739 H 333.235 -0.143032 3.14074 0
M  V30 3740 N 337.007 -0.598083 1.45811 0
M  V30 3741 C 337.955 -1.72932 1.55555 0
M  V30 3742 C 338.949 -1.63984 0.424921 0
M  V30 3743 O 340.155 -1.69663 0.601205 0
M  V30 3744 H 336.53 -0.571489 0.488779 0
M  V30 3745 H 338.501 -1.61842 2.50699 0
M  V30 3746 C 337.25 -3.11318 1.54843 0
M  V30 3747 H 336.573 -3.18867 2.41172 0
M  V30 3748 H 338.013 -3.90274 1.65717 0
M  V30 3749 C 336.472 -3.3578 0.274427 0
M  V30 3750 O 337.002 -3.9654 -0.641778 0
M  V30 3751 N 335.208 -2.90119 0.167139 0
M  V30 3752 H 334.755 -2.40855 0.913596 0
M  V30 3753 H 334.713 -3.0686 -0.684435 0
M  V30 3754 N 338.485 -1.33259 -0.841409 0
M  V30 3755 C 339.713 -1.27605 -1.62864 0
M  V30 3756 C 340.128 0.153507 -1.88175 0
M  V30 3757 O 339.485 1.09485 -1.46011 0
M  V30 3758 C 339.536 -2.04596 -2.98031 0
M  V30 3759 O 339.257 -3.41975 -2.73834 0
M  V30 3760 C 340.758 -2.06122 -3.92465 0
M  V30 3761 H 337.978 -0.439718 -0.506842 0
M  V30 3762 H 340.522 -1.75591 -1.04824 0
M  V30 3763 H 338.677 -1.60299 -3.5268 0
M  V30 3764 H 339.091 -3.81549 -3.59889 0
M  V30 3765 H 340.565 -2.64451 -4.84531 0
M  V30 3766 H 341.042 -1.05083 -4.26444 0
M  V30 3767 H 341.648 -2.50427 -3.43753 0
M  V30 3768 N 339.963 1.05934 -1.16686 0
M  V30 3769 C 340.896 2.1295 -0.820225 0
M  V30 3770 C 341.874 1.61242 0.209722 0
M  V30 3771 O 343.058 1.88271 0.0929688 0
M  V30 3772 C 340.185 3.3797 -0.22223 0
M  V30 3773 C 339.231 4.08488 -1.22637 0
M  V30 3774 S 340.064 4.58015 -2.77457 0
M  V30 3775 C 341.22 5.86292 -2.19117 0
M  V30 3776 H 341.453 2.42025 -1.72659 0
M  V30 3777 H 338.986 1.18423 -0.990722 0
M  V30 3778 H 340.944 4.10335 0.116322 0
M  V30 3779 H 339.605 3.07045 0.66196 0
M  V30 3780 H 338.798 4.98291 -0.756455 0
M  V30 3781 H 338.4 3.42154 -1.51019 0
M  V30 3782 H 340.692 6.59246 -1.56209 0
M  V30 3783 H 341.635 6.38019 -3.07144 0
M  V30 3784 H 342.043 5.40497 -1.62858 0
M  V30 3785 N 341.441 0.965919 1.2453 0
M  V30 3786 C 342.666 0.643971 1.97149 0
M  V30 3787 C 343.091 -0.779487 1.71189 0
M  V30 3788 O 342.449 -1.5288 0.974553 0
M  V30 3789 C 342.497 0.922557 3.48599 0
M  V30 3790 O 341.601 0.00707672 4.12399 0
M  V30 3791 H 340.942 0.243647 0.617683 0
M  V30 3792 H 343.472 1.29558 1.58353 0
M  V30 3793 H 343.482 0.853373 3.98976 0
M  V30 3794 H 342.157 1.95996 3.66822 0
M  V30 3795 H 340.734 0.12943 3.72675 0
M  V30 3796 N 342.919 -1.39368 0.735821 0
M  V30 3797 C 344.168 -1.99733 0.281004 0
M  V30 3798 C 344.481 -1.59055 -1.13846 0
M  V30 3799 O 345.687 -2.12262 -1.69284 0
M  V30 3800 C 344.143 -3.57057 0.451462 0
M  V30 3801 C 343.751 -4.06697 1.87886 0
M  V30 3802 C 345.495 -4.2446 0.0584616 0
M  V30 3803 C 343.402 -5.56598 1.99883 0
M  V30 3804 H 342.332 -0.747163 0.101311 0
M  V30 3805 H 344.983 -1.59357 0.909819 0
M  V30 3806 H 343.365 -3.95234 -0.246263 0
M  V30 3807 H 344.539 -3.79853 2.60861 0
M  V30 3808 H 342.854 -3.5196 2.22515 0
M  V30 3809 H 345.451 -5.34549 0.127099 0
M  V30 3810 H 345.794 -4.04444 -0.986433 0
M  V30 3811 H 346.327 -3.9146 0.707374 0
M  V30 3812 H 343.066 -5.81494 3.02564 0
M  V30 3813 H 342.586 -5.85242 1.31346 0
M  V30 3814 H 344.265 -6.22022 1.78039 0
M  V30 3815 N 344.397 -0.483516 -1.5 0
M  V30 3816 C 345.646 0.0689102 -2.01582 0
M  V30 3817 C 345.959 1.39655 -1.36952 0
M  V30 3818 O 347.165 2.03465 -1.79762 0
M  V30 3819 C 345.621 0.173302 -3.59483 0
M  V30 3820 C 345.229 -1.14665 -4.33077 0
M  V30 3821 C 346.973 0.677024 -4.19066 0
M  V30 3822 C 344.88 -1.00537 -5.82792 0
M  V30 3823 H 343.81 0.0295277 -0.753422 0
M  V30 3824 H 346.461 -0.620295 -1.72698 0
M  V30 3825 H 344.843 0.926569 -3.85007 0
M  V30 3826 H 346.017 -1.91184 -4.19268 0
M  V30 3827 H 344.332 -1.58244 -3.85159 0
M  V30 3828 H 346.929 0.799952 -5.28682 0
M  V30 3829 H 347.272 1.67151 -3.81269 0
M  V30 3830 H 347.805 -0.0192083 -3.97795 0
M  V30 3831 H 344.544 -1.9736 -6.25083 0
M  V30 3832 H 344.064 -0.280776 -5.99142 0
M  V30 3833 H 345.743 -0.677 -6.43448 0
M  V30 3834 N 345.875 1.56104 -0.216619 0
M  V30 3835 C 346.785 2.23694 0.706982 0
M  V30 3836 C 347.801 1.24295 1.21765 0
M  V30 3837 O 348.977 1.57094 1.2603 0
M  V30 3838 C 346.042 2.8998 1.90033 0
M  V30 3839 C 345.103 4.04708 1.43213 0
M  V30 3840 C 344.336 4.67824 2.56859 0
M  V30 3841 O 344.559 4.29913 3.74874 0
M  V30 3842 O 343.493 5.56905 2.28343 0
M  V30 3843 H 347.319 3.03272 0.161235 0
M  V30 3844 H 344.904 1.49394 0.0136177 0
M  V30 3845 H 346.786 3.31837 2.59735 0
M  V30 3846 H 345.461 2.13365 2.43428 0
M  V30 3847 H 344.368 3.6743 0.70327 0
M  V30 3848 H 345.701 4.83051 0.944615 0
M  V30 3849 N 347.353 -0.0568162 1.57498 0
M  V30 3850 C 348.263 -1.08346 2.08083 0
M  V30 3851 C 349.279 -1.41439 1.01346 0
M  V30 3852 O 350.455 -1.51316 1.32912 0
M  V30 3853 C 347.52 -2.37352 2.52715 0
M  V30 3854 C 346.581 -2.11093 3.73816 0
M  V30 3855 C 345.814 -3.33949 4.1631 0
M  V30 3856 O 346.037 -4.43622 3.58547 0
M  V30 3857 O 344.971 -3.21279 5.08983 0
M  V30 3858 H 348.797 -0.683667 2.95905 0
M  V30 3859 H 346.382 -0.271965 1.46904 0
M  V30 3860 H 348.264 -3.13246 2.81877 0
M  V30 3861 H 346.939 -2.76681 1.68016 0
M  V30 3862 H 345.846 -1.32856 3.49714 0
M  V30 3863 H 347.179 -1.76637 4.59413 0
M  V30 3864 N 348.832 -1.54138 -0.328536 0
M  V30 3865 C 349.795 -1.82462 -1.38709 0
M  V30 3866 C 350.795 -0.696229 -1.44946 0
M  V30 3867 O 351.985 -0.964535 -1.4506 0
M  V30 3868 C 349.117 -1.98018 -2.77492 0
M  V30 3869 H 350.31 -2.77037 -1.14851 0
M  V30 3870 H 347.863 -1.45779 -0.563751 0
M  V30 3871 H 348.598 -1.05637 -3.06613 0
M  V30 3872 H 348.383 -2.80124 -2.74359 0
M  V30 3873 H 349.873 -2.21396 -3.54081 0
M  V30 3874 N 350.31 0.590341 -1.46126 0
M  V30 3875 C 351.24 1.71032 -1.58966 0
M  V30 3876 C 352.221 1.64302 -0.440335 0
M  V30 3877 O 353.406 1.82436 -0.665634 0
M  V30 3878 C 350.536 3.09665 -1.57241 0
M  V30 3879 C 349.49 3.31221 -2.71066 0
M  V30 3880 C 348.816 4.70303 -2.54399 0
M  V30 3881 C 350.116 3.19796 -4.1295 0
M  V30 3882 H 351.81 1.60543 -2.52718 0
M  V30 3883 H 349.356 0.770933 -1.21625 0
M  V30 3884 H 351.309 3.87831 -1.64819 0
M  V30 3885 H 350.033 3.21036 -0.600289 0
M  V30 3886 H 348.692 2.55452 -2.62944 0
M  V30 3887 H 348.34 4.78429 -1.55288 0
M  V30 3888 H 348.04 4.85679 -3.30741 0
M  V30 3889 H 349.564 5.50647 -2.63857 0
M  V30 3890 H 350.978 3.87815 -4.22223 0
M  V30 3891 H 349.375 3.46696 -4.89818 0
M  V30 3892 H 350.445 2.16983 -4.33643 0
M  V30 3893 N 351.788 1.33704 0.83433 0
M  V30 3894 C 352.721 1.18675 1.94914 0
M  V30 3895 C 353.699 0.0811145 1.62398 0
M  V30 3896 O 354.883 0.244186 1.86912 0
M  V30 3897 C 352.01 0.821231 3.28593 0
M  V30 3898 C 351.056 1.93501 3.80079 0
M  V30 3899 S 351.889 3.54671 4.01209 0
M  V30 3900 C 353.045 3.20136 5.37833 0
M  V30 3901 H 353.278 2.13043 2.07364 0
M  V30 3902 H 350.811 1.18598 0.988624 0
M  V30 3903 H 352.769 0.617123 4.05835 0
M  V30 3904 H 351.43 -0.103927 3.13928 0
M  V30 3905 H 350.623 1.63273 4.76821 0
M  V30 3906 H 350.225 2.09601 3.09747 0
M  V30 3907 H 352.517 2.71242 6.20833 0
M  V30 3908 H 353.46 4.15975 5.73036 0
M  V30 3909 H 353.868 2.56613 5.02802 0
M  V30 3910 N 353.266 -1.05314 1.17247 0
M  V30 3911 C 354.514 -1.77941 0.958194 0
M  V30 3912 C 354.835 -1.88089 -0.514556 0
M  V30 3913 O 354.105 -1.39676 -1.37359 0
M  V30 3914 H 352.685 -0.659116 0.351533 0
M  V30 3915 H 355.347 -1.27166 1.47699 0
M  V30 3916 H 354.443 -2.79663 1.38546 0
M  V30 3917 N 354.744 -0.972509 -1.24016 0
M  V30 3918 C 355.993 -0.632603 -1.91523 0
M  V30 3919 C 356.306 0.836641 -1.76804 0
M  V30 3920 O 357.512 1.28728 -2.39043 0
M  V30 3921 C 355.968 -1.08082 -3.43287 0
M  V30 3922 C 355.576 -2.57386 -3.66683 0
M  V30 3923 C 357.32 -0.814288 -4.16617 0
M  V30 3924 C 355.227 -2.95915 -5.12043 0
M  V30 3925 H 354.157 -0.232898 -0.717129 0
M  V30 3926 H 356.808 -1.17936 -1.40582 0
M  V30 3927 H 355.19 -0.462339 -3.93292 0
M  V30 3928 H 356.364 -3.24405 -3.27258 0
M  V30 3929 H 354.679 -2.81701 -3.06649 0
M  V30 3930 H 357.276 -1.0781 -5.23718 0
M  V30 3931 H 357.619 0.24955 -4.15551 0
M  V30 3932 H 358.152 -1.39397 -3.72577 0
M  V30 3933 H 354.891 -4.0139 -5.18234 0
M  V30 3934 H 354.411 -2.33584 -5.52448 0
M  V30 3935 H 356.09 -2.86086 -5.80314 0
M  V30 3936 N 356.222 1.38976 -0.743202 0
M  V30 3937 C 357.638 1.53984 -0.419664 0
M  V30 3938 C 357.838 1.70837 1.0685 0
M  V30 3939 O 356.894 1.7135 1.8546 0
M  V30 3940 C 358.207 2.75287 -1.20985 0
M  V30 3941 C 359.755 2.89129 -1.19889 0
M  V30 3942 C 360.23 4.13381 -1.97181 0
M  V30 3943 N 361.721 4.20437 -1.94389 0
M  V30 3944 C 362.456 5.15547 -2.50996 0
M  V30 3945 N 361.952 6.16395 -3.16274 0
M  V30 3946 N 363.745 5.07822 -2.40984 0
M  V30 3947 H 355.896 1.26285 -1.7078 0
M  V30 3948 H 358.159 0.612689 -0.723406 0
M  V30 3949 H 357.865 2.69204 -2.26323 0
M  V30 3950 H 357.739 3.68184 -0.819759 0
M  V30 3951 H 360.126 2.947 -0.153606 0
M  V30 3952 H 360.207 1.97272 -1.62841 0
M  V30 3953 H 359.851 4.08572 -3.01714 0
M  V30 3954 H 359.781 5.04298 -1.51629 0
M  V30 3955 H 362.272 3.48205 -1.46839 0
M  V30 3956 H 362.585 6.85443 -3.56915 0
M  V30 3957 H 360.93 6.16758 -3.20367 0
M  V30 3958 H 364.121 4.27973 -1.89622 0
M  V30 3959 H 364.294 5.81767 -2.85397 0
M  V30 3960 N 357.7 0.491464 1.49741 0
M  V30 3961 C 358.928 -0.0535151 2.06831 0
M  V30 3962 C 359.343 -1.31683 1.35296 0
M  V30 3963 O 358.7 -1.77402 0.42836 0
M  V30 3964 C 358.751 -0.320835 3.60073 0
M  V30 3965 O 358.472 0.892394 4.28915 0
M  V30 3966 C 359.973 -0.910519 4.33848 0
M  V30 3967 H 357.193 0.0161909 0.670805 0
M  V30 3968 H 359.737 0.68609 1.92647 0
M  V30 3969 H 357.892 -1.0104 3.73991 0
M  V30 3970 H 358.306 0.649401 5.20464 0
M  V30 3971 H 359.78 -1.04721 5.41976 0
M  V30 3972 H 360.257 -1.90589 3.95692 0
M  V30 3973 H 360.863 -0.258712 4.24512 0
M  V30 3974 N 359.178 -1.55987 0.224894 0
M  V30 3975 C 360.424 -1.98684 -0.406502 0
M  V30 3976 C 360.757 -1.11248 -1.59177 0
M  V30 3977 O 360.032 -0.170909 -1.93748 0
M  V30 3978 C 360.315 -3.50218 -0.837808 0
M  V30 3979 C 360.168 -4.48426 0.351332 0
M  V30 3980 C 361.487 -4.06243 -1.69278 0
M  V30 3981 H 358.606 -0.722337 -0.146283 0
M  V30 3982 H 361.248 -1.87255 0.321799 0
M  V30 3983 H 359.398 -3.60089 -1.45837 0
M  V30 3984 H 361.07 -4.50562 0.989526 0
M  V30 3985 H 359.313 -4.22159 0.998207 0
M  V30 3986 H 359.984 -5.52 0.00655905 0
M  V30 3987 H 362.46 -3.99337 -1.16914 0
M  V30 3988 H 361.336 -5.12581 -1.96346 0
M  V30 3989 H 361.597 -3.53332 -2.65723 0
M  V30 3990 N 360.656 0.0484629 -1.57525 0
M  V30 3991 C 361.619 1.03956 -2.04269 0
M  V30 3992 C 362.619 1.30211 -0.943496 0
M  V30 3993 O 363.809 1.25539 -1.20771 0
M  V30 3994 C 360.941 2.37742 -2.44319 0
M  V30 3995 H 362.134 0.636182 -2.93075 0
M  V30 3996 H 359.687 0.294811 -1.53494 0
M  V30 3997 H 360.422 2.82866 -1.5861 0
M  V30 3998 H 360.207 2.20021 -3.24551 0
M  V30 3999 H 361.697 3.08936 -2.80978 0
M  V30 4000 N 362.134 1.5431 0.320358 0
M  V30 4001 C 363.359 1.76954 1.08175 0
M  V30 4002 C 363.784 0.518193 1.80821 0
M  V30 4003 O 363.142 -0.530411 1.73368 0
M  V30 4004 C 363.19 2.96451 2.05303 0
M  V30 4005 O 362.294 2.68221 3.13259 0
M  V30 4006 H 361.635 0.586275 0.311733 0
M  V30 4007 H 364.165 2.01342 0.363676 0
M  V30 4008 H 364.175 3.23887 2.48116 0
M  V30 4009 H 362.85 3.87196 1.51829 0
M  V30 4010 H 361.427 2.51744 2.75099 0
M  V30 4011 N 363.613 -0.582584 1.46437 0
M  V30 4012 C 364.843 -1.36484 1.55099 0
M  V30 4013 C 365.251 -1.88233 0.191056 0
M  V30 4014 O 364.594 -1.6429 -0.821858 0
M  V30 4015 C 364.656 -2.588 2.49525 0
M  V30 4016 C 364.32 -2.28517 3.95764 0
M  V30 4017 C 365.317 -1.87346 4.84972 0
M  V30 4018 C 363.002 -2.40658 4.40896 0
M  V30 4019 C 364.996 -1.5871 6.17325 0
M  V30 4020 C 362.683 -2.11635 5.73284 0
M  V30 4021 C 363.681 -1.70725 6.61318 0
M  V30 4022 O 363.369 -1.42057 7.91249 0
M  V30 4023 H 363.101 -0.423297 0.527063 0
M  V30 4024 H 365.655 -0.715188 1.92547 0
M  V30 4025 H 363.885 -3.26571 2.07095 0
M  V30 4026 H 365.574 -3.20868 2.48593 0
M  V30 4027 H 366.34 -1.77481 4.5136 0
M  V30 4028 H 362.219 -2.71463 3.72598 0
M  V30 4029 H 365.763 -1.26704 6.85997 0
M  V30 4030 H 361.66 -2.21124 6.06444 0
M  V30 4031 H 362.428 -1.55901 8.03515 0
M  V30 4032 N 365.091 -1.34144 -0.827227 0
M  V30 4033 C 366.331 -1.27603 -1.59677 0
M  V30 4034 C 366.695 0.153035 -1.91389 0
M  V30 4035 O 367.896 0.342566 -2.66608 0
M  V30 4036 C 366.167 -2.13784 -2.86411 0
M  V30 4037 S 367.726 -2.24552 -3.76991 0
M  V30 4038 H 364.544 -0.453789 -0.547354 0
M  V30 4039 H 367.146 -1.69309 -0.977479 0
M  V30 4040 H 365.85 -3.16627 -2.61104 0
M  V30 4041 H 365.381 -1.72959 -3.5334 0
M  V30 4042 H 367.396 -1.41514 -4.75593 0
M  V30 4043 N 366.569 1.04691 -1.17803 0
M  V30 4044 C 367.817 1.7743 -0.967617 0
M  V30 4045 C 368.138 1.88359 0.504574 0
M  V30 4046 O 367.408 1.40402 1.36617 0
M  V30 4047 H 365.988 0.657242 -0.355024 0
M  V30 4048 H 368.65 1.2638 -1.48371 0
M  V30 4049 H 367.746 2.78924 -1.40027 0
M  V30 4050 N 368.047 0.979072 1.23499 0
M  V30 4051 C 368.957 0.526431 2.28617 0
M  V30 4052 C 369.973 -0.418126 1.68901 0
M  V30 4053 O 371.149 -0.288372 1.99325 0
M  V30 4054 C 368.214 -0.165235 3.46306 0
M  V30 4055 C 367.275 0.82056 4.21385 0
M  V30 4056 C 366.508 0.161807 5.33455 0
M  V30 4057 O 366.731 -1.04742 5.60701 0
M  V30 4058 O 365.665 0.859708 5.95729 0
M  V30 4059 H 369.491 1.4006 2.69475 0
M  V30 4060 H 367.076 0.746643 1.29405 0
M  V30 4061 H 368.958 -0.553287 4.17752 0
M  V30 4062 H 367.633 -1.01419 3.07402 0
M  V30 4063 H 366.54 1.25929 3.52268 0
M  V30 4064 H 367.873 1.63828 4.64135 0
M  V30 4065 N 369.525 -1.3858 0.750561 0
M  V30 4066 C 370.472 -2.30483 0.120835 0
M  V30 4067 C 371.442 -1.50022 -0.712923 0
M  V30 4068 O 372.627 -1.78662 -0.669676 0
M  V30 4069 C 369.767 -3.36431 -0.768666 0
M  V30 4070 C 368.88 -4.31927 0.0793922 0
M  V30 4071 C 368.015 -5.24944 -0.81283 0
M  V30 4072 C 367.054 -6.12088 0.0390447 0
M  V30 4073 N 366.191 -6.97412 -0.809969 0
M  V30 4074 H 371.031 -2.83761 0.91015 0
M  V30 4075 H 368.568 -1.39707 0.460463 0
M  V30 4076 H 370.526 -3.96462 -1.29898 0
M  V30 4077 H 369.156 -2.8457 -1.5238 0
M  V30 4078 H 368.208 -3.73382 0.727303 0
M  V30 4079 H 369.52 -4.93319 0.737401 0
M  V30 4080 H 368.674 -5.90078 -1.41042 0
M  V30 4081 H 367.413 -4.63911 -1.50458 0
M  V30 4082 H 366.418 -5.45952 0.649328 0
M  V30 4083 H 367.643 -6.75189 0.727809 0
M  V30 4084 H 365.589 -6.38931 -1.48672 0
M  V30 4085 H 365.506 -7.55712 -0.208789 0
M  V30 4086 H 366.774 -7.66959 -1.39263 0
M  V30 4087 N 371.003 -0.499398 -1.49478 0
M  V30 4088 C 372.231 0.0425456 -2.06856 0
M  V30 4089 C 372.646 1.30964 -1.35992 0
M  V30 4090 O 372.003 1.77172 -0.437762 0
M  V30 4091 C 372.054 0.301735 -3.60239 0
M  V30 4092 O 371.775 -0.915127 -4.28436 0
M  V30 4093 C 373.276 0.887499 -4.34325 0
M  V30 4094 H 370.496 -0.0197482 -0.670709 0
M  V30 4095 H 373.04 -0.696297 -1.92281 0
M  V30 4096 H 371.195 0.990556 -3.74522 0
M  V30 4097 H 371.609 -0.676993 -5.20113 0
M  V30 4098 H 373.083 1.01845 -5.42523 0
M  V30 4099 H 373.56 1.88488 -3.96698 0
M  V30 4100 H 374.166 0.236196 -4.24644 0
M  V30 4101 N 372.481 1.55866 -0.233164 0
M  V30 4102 C 373.73 1.97779 0.39579 0
M  V30 4103 C 374.043 1.12419 1.60066 0
M  V30 4104 O 375.249 1.44283 2.29988 0
M  V30 4105 C 373.705 3.5188 0.755556 0
M  V30 4106 C 373.313 4.45959 -0.427152 0
M  V30 4107 C 375.057 4.02479 1.34946 0
M  V30 4108 C 372.964 5.91383 -0.0443043 0
M  V30 4109 H 371.894 0.738592 0.15165 0
M  V30 4110 H 374.545 1.80486 -0.331212 0
M  V30 4111 H 372.927 3.64816 1.5403 0
M  V30 4112 H 374.101 4.44776 -1.20462 0
M  V30 4113 H 372.416 4.05765 -0.935068 0
M  V30 4114 H 375.013 5.08637 1.649 0
M  V30 4115 H 375.356 3.49014 2.26925 0
M  V30 4116 H 375.889 3.92813 0.62791 0
M  V30 4117 H 372.628 6.48857 -0.930874 0
M  V30 4118 H 372.148 5.95734 0.697238 0
M  V30 4119 H 373.827 6.45893 0.378334 0
M  V30 4120 N 373.959 -0.0401083 1.57549 0
M  V30 4121 C 374.889 -1.04384 2.08869 0
M  V30 4122 C 375.87 -1.38407 0.988817 0
M  V30 4123 O 377.055 -1.47483 1.26342 0
M  V30 4124 C 374.185 -2.34808 2.55895 0
M  V30 4125 C 373.139 -2.15057 3.70047 0
M  V30 4126 C 372.465 -3.51145 4.03239 0
M  V30 4127 C 373.765 -1.54576 4.98902 0
M  V30 4128 H 375.459 -0.616666 2.92981 0
M  V30 4129 H 373.005 -0.295184 1.40942 0
M  V30 4130 H 374.958 -3.05346 2.90417 0
M  V30 4131 H 373.682 -2.79565 1.68853 0
M  V30 4132 H 372.341 -1.46954 3.35857 0
M  V30 4133 H 371.989 -3.93529 3.13279 0
M  V30 4134 H 371.689 -3.38758 4.80122 0
M  V30 4135 H 373.213 -4.23062 4.40285 0
M  V30 4136 H 374.627 -2.15017 5.31451 0
M  V30 4137 H 373.024 -1.52796 5.80322 0
M  V30 4138 H 374.094 -0.51039 4.82206 0
M  V30 4139 N 375.437 -1.54477 -0.31217 0
M  V30 4140 C 376.385 -1.85395 -1.40469 0
M  V30 4141 C 377.379 -0.726749 -1.53019 0
M  V30 4142 O 378.585 -0.910582 -1.55269 0
M  V30 4143 H 374.96 -0.587845 -0.46898 0
M  V30 4144 H 376.931 -2.76736 -1.11623 0
M  V30 4145 C 375.68 -2.10811 -2.76503 0
M  V30 4146 H 375.003 -2.97014 -2.67625 0
M  V30 4147 H 376.443 -2.3639 -3.51988 0
M  V30 4148 C 374.902 -0.903165 -3.24568 0
M  V30 4149 O 375.432 -0.118085 -4.01526 0
M  V30 4150 N 373.638 -0.711634 -2.81752 0
M  V30 4151 H 373.185 -1.35171 -2.19286 0
M  V30 4152 H 373.143 0.0930473 -3.14262 0
M  V30 4153 N 376.915 0.57481 -1.46744 0
M  V30 4154 C 377.862 1.68329 -1.57905 0
M  V30 4155 C 378.832 1.60625 -0.422927 0
M  V30 4156 O 380.017 1.79721 -0.640711 0
M  V30 4157 C 377.157 3.06665 -1.58274 0
M  V30 4158 C 376.27 3.24935 -2.84678 0
M  V30 4159 C 375.405 4.53566 -2.76499 0
M  V30 4160 C 374.444 4.65207 -3.97806 0
M  V30 4161 N 373.581 5.85172 -3.87967 0
M  V30 4162 H 378.421 1.58127 -2.52587 0
M  V30 4163 H 375.958 0.770552 -1.25303 0
M  V30 4164 H 377.916 3.86745 -1.56473 0
M  V30 4165 H 376.546 3.15745 -0.671194 0
M  V30 4166 H 375.598 2.38405 -2.96424 0
M  V30 4167 H 376.91 3.29403 -3.7456 0
M  V30 4168 H 376.064 5.41885 -2.72848 0
M  V30 4169 H 374.803 4.51548 -1.8427 0
M  V30 4170 H 373.808 3.75304 -4.0178 0
M  V30 4171 H 375.033 4.68997 -4.9114 0
M  V30 4172 H 372.979 5.84137 -2.98529 0
M  V30 4173 H 372.896 5.90943 -4.71511 0
M  V30 4174 H 374.164 6.759 -3.88303 0
M  V30 4175 N 378.394 1.34581 0.820102 0
M  V30 4176 C 379.641 1.27096 1.57648 0
M  V30 4177 C 379.969 -0.158317 1.93855 0
M  V30 4178 O 379.224 -1.12028 1.60463 0
M  V30 4179 C 379.523 2.10997 2.8847 0
M  V30 4180 C 379.189 3.59966 2.71543 0
M  V30 4181 C 377.851 4.00575 2.66634 0
M  V30 4182 C 380.203 4.54548 2.55021 0
M  V30 4183 C 377.531 5.33953 2.43128 0
M  V30 4184 C 379.883 5.88109 2.33047 0
M  V30 4185 C 378.547 6.27878 2.26552 0
M  V30 4186 H 377.817 0.465078 0.576874 0
M  V30 4187 H 380.464 1.6635 0.948671 0
M  V30 4188 H 378.769 1.6458 3.55557 0
M  V30 4189 H 380.466 2.0255 3.46084 0
M  V30 4190 H 377.056 3.27733 2.76205 0
M  V30 4191 H 381.24 4.24069 2.57835 0
M  V30 4192 H 376.496 5.63781 2.3656 0
M  V30 4193 H 380.67 6.60985 2.19251 0
M  V30 4194 H 378.297 7.31162 2.081 0
M  V30 4195 N 379.872 -1.04064 1.18357 0
M  V30 4196 C 380.82 -2.14187 0.907007 0
M  V30 4197 C 381.814 -1.68879 -0.132725 0
M  V30 4198 O 383.02 -1.79993 0.0154248 0
M  V30 4199 H 379.395 -0.699585 0.275835 0
M  V30 4200 H 381.366 -2.34711 1.84264 0
M  V30 4201 C 380.115 -3.44785 0.449254 0
M  V30 4202 H 379.438 -3.80058 1.24081 0
M  V30 4203 H 380.878 -4.22974 0.294737 0
M  V30 4204 C 379.337 -3.26391 -0.834909 0
M  V30 4205 O 379.867 -3.53973 -1.89911 0
M  V30 4206 N 378.073 -2.79726 -0.787523 0
M  V30 4207 H 377.62 -2.5748 0.0787347 0
M  V30 4208 H 377.578 -2.67798 -1.64716 0
M  V30 4209 N 381.35 -0.985608 -1.22978 0
M  V30 4210 C 382.28 -0.549649 -2.26939 0
M  V30 4211 C 383.261 0.419803 -1.64838 0
M  V30 4212 O 384.446 0.31203 -1.91677 0
M  V30 4213 C 381.576 0.143652 -3.47003 0
M  V30 4214 C 380.53 -0.743606 -4.21491 0
M  V30 4215 C 379.856 0.0822027 -5.34637 0
M  V30 4216 C 381.156 -2.03694 -4.80943 0
M  V30 4217 H 382.85 -1.41862 -2.63658 0
M  V30 4218 H 380.396 -0.683571 -1.26741 0
M  V30 4219 H 382.349 0.459985 -4.18882 0
M  V30 4220 H 381.073 1.04711 -3.09359 0
M  V30 4221 H 379.732 -1.04347 -3.51436 0
M  V30 4222 H 379.38 0.986359 -4.93234 0
M  V30 4223 H 379.08 -0.508377 -5.85397 0
M  V30 4224 H 380.604 0.392797 -6.09335 0
M  V30 4225 H 382.018 -1.78504 -5.44802 0
M  V30 4226 H 380.415 -2.57573 -5.42011 0
M  V30 4227 H 381.485 -2.72042 -4.01399 0
M  V30 4228 N 382.828 1.3818 -0.7579 0
M  V30 4229 C 384.053 2.04827 -0.325679 0
M  V30 4230 C 384.478 1.56788 1.03919 0
M  V30 4231 O 383.836 0.721811 1.66312 0
M  V30 4232 C 383.884 3.58774 -0.362447 0
M  V30 4233 O 382.988 4.07372 0.642033 0
M  V30 4234 H 382.329 0.64833 -0.143402 0
M  V30 4235 H 384.859 1.7677 -1.03023 0
M  V30 4236 H 384.869 4.07434 -0.214844 0
M  V30 4237 H 383.544 3.93096 -1.35824 0
M  V30 4238 H 382.121 3.70068 0.458688 0
M  V30 4239 N 384.306 0.507319 1.49211 0
M  V30 4240 C 385.216 -0.272136 2.33016 0
M  V30 4241 C 386.232 -0.961206 1.45041 0
M  V30 4242 O 387.408 -0.941191 1.78055 0
M  V30 4243 C 384.473 -1.31895 3.20631 0
M  V30 4244 C 383.534 -0.642648 4.24463 0
M  V30 4245 C 382.767 -1.63959 5.07891 0
M  V30 4246 O 382.99 -2.87007 4.92933 0
M  V30 4247 O 381.924 -1.19143 5.8999 0
M  V30 4248 H 385.75 0.413982 3.00865 0
M  V30 4249 H 383.335 0.268556 1.46966 0
M  V30 4250 H 385.217 -1.92446 3.7489 0
M  V30 4251 H 383.892 -1.98788 2.5547 0
M  V30 4252 H 382.799 0.00276252 3.741 0
M  V30 4253 H 384.132 -0.0160534 4.92197 0
M  V30 4254 N 385.784 -1.5574 0.241426 0
M  V30 4255 C 387.012 -2.03208 -0.389134 0
M  V30 4256 C 387.427 -1.12082 -1.51931 0
M  V30 4257 O 386.784 -0.134183 -1.82006 0
M  V30 4258 C 386.835 -3.50064 -0.902087 0
M  V30 4259 O 386.556 -4.37717 0.18305 0
M  V30 4260 C 388.057 -4.13268 -1.60389 0
M  V30 4261 H 385.277 -0.664509 -0.0931053 0
M  V30 4262 H 387.821 -2.0124 0.36369 0
M  V30 4263 H 385.976 -3.52583 -1.60511 0
M  V30 4264 H 386.39 -5.24097 -0.205579 0
M  V30 4265 H 387.864 -5.17733 -1.91458 0
M  V30 4266 H 388.341 -3.59434 -2.52397 0
M  V30 4267 H 388.947 -4.14655 -0.945576 0
M  V30 4268 N 387.262 0.0317525 -1.57568 0
M  V30 4269 C 388.509 0.723104 -1.89149 0
M  V30 4270 C 388.837 1.75504 -0.838377 0
M  V30 4271 O 388.092 1.95037 0.160982 0
M  V30 4272 C 388.391 1.43167 -3.27472 0
M  V30 4273 C 388.057 0.535972 -4.47703 0
M  V30 4274 C 386.719 0.289262 -4.8033 0
M  V30 4275 C 389.071 -0.0826125 -5.21135 0
M  V30 4276 C 386.399 -0.584853 -5.83778 0
M  V30 4277 C 388.751 -0.944414 -6.25511 0
M  V30 4278 C 387.415 -1.20061 -6.56614 0
M  V30 4279 H 386.685 0.264602 -0.692146 0
M  V30 4280 H 389.332 -0.0169496 -1.91492 0
M  V30 4281 H 387.637 2.24497 -3.21105 0
M  V30 4282 H 389.334 1.97209 -3.49155 0
M  V30 4283 H 385.924 0.738414 -4.22191 0
M  V30 4284 H 390.108 0.0950302 -4.96209 0
M  V30 4285 H 385.364 -0.79168 -6.06253 0
M  V30 4286 H 389.538 -1.43026 -6.81554 0
M  V30 4287 H 387.165 -1.87967 -7.36595 0
M  V30 4288 N 388.74 1.54641 0.303973 0
M  V30 4289 C 389.97 1.77511 1.05705 0
M  V30 4290 C 390.378 0.533228 1.81531 0
M  V30 4291 O 389.721 -0.506423 1.76582 0
M  V30 4292 C 389.783 2.92779 2.08617 0
M  V30 4293 C 389.447 4.30977 1.52013 0
M  V30 4294 C 390.444 5.11115 0.9517 0
M  V30 4295 C 388.129 4.77571 1.55665 0
M  V30 4296 C 390.123 6.35966 0.427327 0
M  V30 4297 C 387.81 6.02384 1.02841 0
M  V30 4298 C 388.808 6.81417 0.464713 0
M  V30 4299 O 388.496 8.03881 -0.0555283 0
M  V30 4300 H 388.228 0.59579 0.319391 0
M  V30 4301 H 390.782 2.02401 0.349712 0
M  V30 4302 H 389.012 2.63506 2.83022 0
M  V30 4303 H 390.701 3.03252 2.69802 0
M  V30 4304 H 391.467 4.76264 0.916407 0
M  V30 4305 H 387.346 4.16085 1.9848 0
M  V30 4306 H 390.89 6.97599 -0.0133062 0
M  V30 4307 H 386.787 6.36723 1.06084 0
M  V30 4308 H 387.555 8.18479 0.0580522 0
M  V30 4309 N 390.218 -0.567019 1.47046 0
M  V30 4310 C 391.443 -1.3551 1.57009 0
M  V30 4311 C 391.868 -1.86841 0.217259 0
M  V30 4312 O 391.226 -1.62435 -0.805268 0
M  V30 4313 C 391.274 -2.50777 2.5912 0
M  V30 4314 O 390.378 -3.52706 2.13711 0
M  V30 4315 H 389.719 -0.402919 0.52778 0
M  V30 4316 H 392.249 -0.686241 1.92748 0
M  V30 4317 H 392.259 -2.97481 2.79229 0
M  V30 4318 H 390.934 -2.12771 3.57353 0
M  V30 4319 H 389.511 -3.12374 2.03659 0
M  V30 4320 N 391.696 -1.35014 -0.812953 0
M  V30 4321 C 392.643 -1.27412 -1.92444 0
M  V30 4322 C 393.613 -0.14733 -1.65445 0
M  V30 4323 O 394.798 -0.329974 -1.87925 0
M  V30 4324 C 391.938 -1.04558 -3.28879 0
M  V30 4325 C 391.051 -2.26101 -3.68106 0
M  V30 4326 C 390.186 -1.96449 -4.9354 0
M  V30 4327 C 389.225 -3.14081 -5.25376 0
M  V30 4328 N 388.362 -2.84246 -6.41988 0
M  V30 4329 H 393.202 -2.22463 -1.98278 0
M  V30 4330 H 390.739 -1.10593 -0.969933 0
M  V30 4331 H 392.697 -0.893413 -4.07522 0
M  V30 4332 H 391.327 -0.131719 -3.22531 0
M  V30 4333 H 390.379 -2.52204 -2.84775 0
M  V30 4334 H 391.691 -3.13959 -3.87597 0
M  V30 4335 H 390.845 -1.78026 -5.79993 0
M  V30 4336 H 389.584 -1.05867 -4.76071 0
M  V30 4337 H 388.589 -3.33089 -4.37415 0
M  V30 4338 H 389.814 -4.05455 -5.44778 0
M  V30 4339 H 387.76 -1.96252 -6.25956 0
M  V30 4340 H 387.677 -3.65637 -6.61699 0
M  V30 4341 H 388.945 -2.6935 -7.31485 0
M  V30 4342 N 393.175 1.03435 -1.18907 0
M  V30 4343 C 394.405 1.8012 -1.01195 0
M  V30 4344 C 394.813 1.8395 0.442613 0
M  V30 4345 O 394.156 1.27836 1.31923 0
M  V30 4346 C 394.218 3.26792 -1.49823 0
M  V30 4347 C 393.882 3.46609 -2.97844 0
M  V30 4348 C 394.879 3.37278 -3.95651 0
M  V30 4349 C 392.564 3.73001 -3.36416 0
M  V30 4350 C 394.558 3.54054 -5.30023 0
M  V30 4351 C 392.245 3.89423 -4.70949 0
M  V30 4352 C 393.243 3.79951 -5.67562 0
M  V30 4353 O 392.931 3.95895 -6.99659 0
M  V30 4354 H 392.663 0.573865 -0.357289 0
M  V30 4355 H 395.217 1.31207 -1.58031 0
M  V30 4356 H 393.447 3.76703 -0.873578 0
M  V30 4357 H 395.136 3.85055 -1.28404 0
M  V30 4358 H 395.902 3.16846 -3.67197 0
M  V30 4359 H 391.781 3.79469 -2.61772 0
M  V30 4360 H 395.325 3.46577 -6.05417 0
M  V30 4361 H 391.222 4.09351 -4.99101 0
M  V30 4362 H 391.99 4.13019 -7.06653 0
M  V30 4363 N 394.653 0.992116 1.22453 0
M  V30 4364 C 395.902 0.662992 1.90492 0
M  V30 4365 C 396.215 -0.808407 1.78113 0
M  V30 4366 O 397.421 -1.24908 2.41061 0
M  V30 4367 C 395.877 1.1353 3.41524 0
M  V30 4368 C 395.485 2.63187 3.62542 0
M  V30 4369 C 397.229 0.880465 4.15269 0
M  V30 4370 C 395.136 3.04024 5.0727 0
M  V30 4371 H 394.066 0.244278 0.713333 0
M  V30 4372 H 396.717 1.20157 1.38688 0
M  V30 4373 H 395.099 0.52485 3.92506 0
M  V30 4374 H 396.273 3.2957 3.22056 0
M  V30 4375 H 394.588 2.86543 3.02129 0
M  V30 4376 H 397.185 1.16128 5.21937 0
M  V30 4377 H 397.528 -0.183408 4.15896 0
M  V30 4378 H 398.061 1.45307 3.70312 0
M  V30 4379 H 394.8 4.09584 5.11782 0
M  V30 4380 H 394.32 2.42343 5.48662 0
M  V30 4381 H 395.999 2.95282 5.75689 0
M  V30 4382 N 396.131 -1.37776 0.765217 0
M  V30 4383 C 397.061 -2.32945 0.160953 0
M  V30 4384 C 398.042 -1.55454 -0.690516 0
M  V30 4385 O 399.227 -1.83721 -0.629318 0
M  V30 4386 C 396.357 -3.39669 -0.724031 0
M  V30 4387 C 395.311 -4.27992 0.0256173 0
M  V30 4388 C 394.637 -5.25673 -0.978383 0
M  V30 4389 C 395.937 -5.08309 1.20082 0
M  V30 4390 H 397.631 -2.83728 0.955969 0
M  V30 4391 H 395.177 -1.36416 0.461149 0
M  V30 4392 H 397.13 -4.05219 -1.15652 0
M  V30 4393 H 395.854 -2.87396 -1.5515 0
M  V30 4394 H 394.513 -3.63964 0.438812 0
M  V30 4395 H 394.161 -4.69682 -1.80022 0
M  V30 4396 H 393.861 -5.85625 -0.481378 0
M  V30 4397 H 395.385 -5.94098 -1.40995 0
M  V30 4398 H 396.799 -5.67034 0.845307 0
M  V30 4399 H 395.196 -5.77554 1.62947 0
M  V30 4400 H 396.266 -4.41365 2.00811 0
M  V30 4401 N 397.609 -0.515225 -1.4894 0
M  V30 4402 C 398.556 0.255567 -2.29381 0
M  V30 4403 C 399.526 0.947387 -1.36432 0
M  V30 4404 O 400.711 0.951288 -1.65394 0
M  V30 4405 C 397.851 1.30551 -3.19453 0
M  V30 4406 C 396.964 0.624029 -4.27469 0
M  V30 4407 C 396.099 1.65563 -5.0474 0
M  V30 4408 C 395.138 0.956802 -6.04576 0
M  V30 4409 N 394.275 1.93326 -6.74959 0
M  V30 4410 H 399.115 -0.436607 -2.94784 0
M  V30 4411 H 396.652 -0.227154 -1.45336 0
M  V30 4412 H 398.61 1.92639 -3.70062 0
M  V30 4413 H 397.24 1.96626 -2.56004 0
M  V30 4414 H 396.292 -0.110459 -3.8024 0
M  V30 4415 H 397.604 0.0746092 -4.98744 0
M  V30 4416 H 396.758 2.35119 -5.59289 0
M  V30 4417 H 395.497 2.23893 -4.3327 0
M  V30 4418 H 394.502 0.247097 -5.49244 0
M  V30 4419 H 395.727 0.379814 -6.78037 0
M  V30 4420 H 393.673 2.50591 -6.06251 0
M  V30 4421 H 393.59 1.43489 -7.42258 0
M  V30 4422 H 394.858 2.62126 -7.34105 0
M  V30 4423 N 399.087 1.5561 -0.249682 0
M  V30 4424 C 400.05 2.20217 0.635394 0
M  V30 4425 C 401.05 1.17227 1.10066 0
M  V30 4426 O 402.24 1.42292 1.00492 0
M  V30 4427 C 399.372 2.84794 1.87363 0
M  V30 4428 H 400.565 2.99814 0.0716752 0
M  V30 4429 H 398.118 1.563 -0.000153234 0
M  V30 4430 H 398.853 2.09142 2.47851 0
M  V30 4431 H 398.638 3.60241 1.5482 0
M  V30 4432 H 400.128 3.3423 2.5036 0
M  V30 4433 N 400.565 -0.0233959 1.57583 0
M  V30 4434 C 401.513 -1.04063 2.08023 0
M  V30 4435 C 402.507 -1.37084 0.995204 0
M  V30 4436 O 403.713 -1.35923 1.18004 0
M  V30 4437 H 400.088 -0.353144 0.663922 0
M  V30 4438 H 402.059 -0.589453 2.9252 0
M  V30 4439 C 400.808 -2.33123 2.57971 0
M  V30 4440 H 400.131 -2.08577 3.4108 0
M  V30 4441 H 401.571 -3.02632 2.96967 0
M  V30 4442 C 400.03 -3.02483 1.48342 0
M  V30 4443 O 400.56 -3.92541 0.852898 0
M  V30 4444 N 398.766 -2.63909 1.21658 0
M  V30 4445 H 398.313 -1.90758 1.73116 0
M  V30 4446 H 398.271 -3.10633 0.485218 0
M  V30 4447 N 402.043 -1.548 -0.295768 0
M  V30 4448 C 403.29 -1.74329 -1.03032 0
M  V30 4449 C 403.618 -0.531915 -1.87085 0
M  V30 4450 O 402.873 0.486052 -1.89568 0
M  V30 4451 C 403.172 -2.98797 -1.961 0
M  V30 4452 C 402.838 -4.32356 -1.2798 0
M  V30 4453 C 401.5 -4.68661 -1.09135 0
M  V30 4454 C 403.852 -5.15128 -0.793243 0
M  V30 4455 C 401.18 -5.85312 -0.403269 0
M  V30 4456 C 403.532 -6.32488 -0.118854 0
M  V30 4457 C 402.196 -6.6745 0.0815043 0
M  V30 4458 H 401.466 -0.637916 -0.37702 0
M  V30 4459 H 404.113 -1.8906 -0.304696 0
M  V30 4460 H 402.418 -2.78869 -2.75207 0
M  V30 4461 H 404.115 -3.11102 -2.53015 0
M  V30 4462 H 400.705 -4.03808 -1.43655 0
M  V30 4463 H 404.889 -4.87575 -0.92653 0
M  V30 4464 H 400.145 -6.1094 -0.237098 0
M  V30 4465 H 404.319 -6.95892 0.266035 0
M  V30 4466 H 401.946 -7.57695 0.616685 0
M  V30 4467 N 403.521 0.559213 -1.47345 0
M  V30 4468 C 404.767 1.31843 -1.54095 0
M  V30 4469 C 405.1 1.93149 -0.201726 0
M  V30 4470 O 404.375 1.77759 0.789428 0
M  V30 4471 C 404.658 2.43006 -2.65744 0
M  V30 4472 C 404.511 1.86581 -4.09277 0
M  V30 4473 C 405.83 3.44943 -2.73318 0
M  V30 4474 H 402.949 0.478012 -0.560957 0
M  V30 4475 H 405.591 0.625977 -1.79392 0
M  V30 4476 H 403.741 3.02072 -2.44305 0
M  V30 4477 H 405.413 1.31792 -4.42073 0
M  V30 4478 H 403.656 1.17268 -4.17649 0
M  V30 4479 H 404.327 2.66933 -4.83168 0
M  V30 4480 H 406.803 2.95793 -2.92653 0
M  V30 4481 H 405.679 4.20153 -3.53218 0
M  V30 4482 H 405.94 4.03665 -1.80296 0
M  V30 4483 N 404.999 1.35443 0.805782 0
M  V30 4484 C 405.909 1.30546 1.94923 0
M  V30 4485 C 406.925 0.210233 1.72725 0
M  V30 4486 O 408.101 0.43975 1.9654 0
M  V30 4487 C 405.166 1.07782 3.29521 0
M  V30 4488 C 404.227 2.26625 3.64609 0
M  V30 4489 C 403.46 2.04938 4.92784 0
M  V30 4490 O 403.683 1.01624 5.61274 0
M  V30 4491 O 402.617 2.9232 5.26149 0
M  V30 4492 H 406.443 2.26779 2.02002 0
M  V30 4493 H 404.028 1.15823 0.943682 0
M  V30 4494 H 405.91 0.969392 4.10098 0
M  V30 4495 H 404.585 0.146003 3.23371 0
M  V30 4496 H 403.492 2.43033 2.84404 0
M  V30 4497 H 404.825 3.18257 3.75464 0
M  V30 4498 N 406.477 -1.02803 1.19454 0
M  V30 4499 C 407.44 -2.09264 0.934955 0
M  V30 4500 C 408.44 -1.60576 -0.0849015 0
M  V30 4501 O 409.63 -1.73554 0.149933 0
M  V30 4502 C 406.762 -3.38482 0.40531 0
M  V30 4503 H 407.955 -2.33726 1.87916 0
M  V30 4504 H 405.508 -1.19426 1.00832 0
M  V30 4505 H 406.243 -3.19689 -0.544899 0
M  V30 4506 H 406.028 -3.75142 1.14065 0
M  V30 4507 H 407.518 -4.16894 0.242806 0
M  V30 4508 N 407.956 -0.998596 -1.21925 0
M  V30 4509 C 408.886 -0.573688 -2.26343 0
M  V30 4510 C 409.867 0.402296 -1.65274 0
M  V30 4511 O 411.052 0.291683 -1.91997 0
M  V30 4512 C 408.182 0.106839 -3.47136 0
M  V30 4513 C 407.136 -0.788269 -4.20678 0
M  V30 4514 C 406.462 0.0254927 -5.34694 0
M  V30 4515 C 407.762 -2.08784 -4.78755 0
M  V30 4516 H 409.456 -1.44651 -2.62138 0
M  V30 4517 H 407.002 -0.696975 -1.26009 0
M  V30 4518 H 408.955 0.415531 -4.19346 0
M  V30 4519 H 407.679 1.01424 -3.10452 0
M  V30 4520 H 406.338 -1.08069 -3.50309 0
M  V30 4521 H 405.986 0.933989 -4.94253 0
M  V30 4522 H 405.686 -0.570437 -5.84825 0
M  V30 4523 H 407.21 0.328147 -6.09718 0
M  V30 4524 H 408.624 -1.84272 -5.42878 0
M  V30 4525 H 407.021 -2.63307 -5.39249 0
M  V30 4526 H 408.091 -2.76284 -3.98491 0
M  V30 4527 N 409.434 1.37368 -0.772513 0
M  V30 4528 C 410.384 2.27613 -0.132823 0
M  V30 4529 C 411.368 1.46138 0.673247 0
M  V30 4530 O 412.56 1.68686 0.536095 0
M  V30 4531 C 409.689 3.35122 0.744864 0
M  V30 4532 C 408.775 4.24044 -0.0690771 0
M  V30 4533 N 409.166 4.93355 -1.1151 0
M  V30 4534 C 407.464 4.45731 0.154782 0
M  V30 4535 C 408.165 5.59 -1.60917 0
M  V30 4536 N 407.141 5.35737 -0.921222 0
M  V30 4537 H 410.943 2.78675 -0.933681 0
M  V30 4538 H 408.457 1.50494 -0.610342 0
M  V30 4539 H 410.454 3.98683 1.21892 0
M  V30 4540 H 409.114 2.85616 1.54446 0
M  V30 4541 H 410.125 4.95785 -1.49726 0
M  V30 4542 H 406.802 4.07096 0.926224 0
M  V30 4543 H 408.192 6.24395 -2.48153 0
M  V30 4544 N 410.912 0.523116 1.48665 0
M  V30 4545 C 412.161 -0.01544 2.01694 0
M  V30 4546 C 412.474 -1.35975 1.40606 0
M  V30 4547 O 413.68 -1.98627 1.85093 0
M  V30 4548 C 412.136 -0.0779303 3.59816 0
M  V30 4549 C 411.744 1.26107 4.29885 0
M  V30 4550 C 413.488 -0.565678 4.20714 0
M  V30 4551 C 411.395 1.15954 5.79921 0
M  V30 4552 H 410.325 -0.00954163 0.75394 0
M  V30 4553 H 412.976 0.665865 1.70993 0
M  V30 4554 H 411.358 -0.824165 3.87329 0
M  V30 4555 H 412.532 2.02233 4.14051 0
M  V30 4556 H 410.847 1.68401 3.80828 0
M  V30 4557 H 413.444 -0.6595 5.30617 0
M  V30 4558 H 413.787 -1.56984 3.85567 0
M  V30 4559 H 414.32 0.12467 3.97605 0
M  V30 4560 H 411.059 2.13864 6.19631 0
M  V30 4561 H 410.579 0.439529 5.98187 0
M  V30 4562 H 412.258 0.847361 6.41427 0
M  V30 4563 N 412.39 -1.55475 0.257931 0
M  V30 4564 C 413.638 -1.98813 -0.363009 0
M  V30 4565 C 413.959 -1.14757 -1.57657 0
M  V30 4566 O 413.229 -0.232956 -1.9451 0
M  V30 4567 H 411.809 -0.734308 -0.137113 0
M  V30 4568 H 414.471 -1.9156 0.359281 0
M  V30 4569 H 413.567 -3.04941 -0.664634 0
M  V30 4570 N 413.868 0.0150385 -1.57593 0
M  V30 4571 C 414.798 1.01047 -2.10503 0
M  V30 4572 C 415.779 1.36816 -1.01071 0
M  V30 4573 O 416.964 1.45455 -1.28672 0
M  V30 4574 C 414.094 2.30708 -2.59598 0
M  V30 4575 C 413.048 2.09142 -3.73421 0
M  V30 4576 C 412.374 3.44685 -4.08774 0
M  V30 4577 C 413.674 1.46619 -5.01298 0
M  V30 4578 H 415.368 0.569978 -2.93925 0
M  V30 4579 H 412.914 0.272724 -1.41394 0
M  V30 4580 H 414.867 3.00687 -2.95238 0
M  V30 4581 H 413.591 2.76843 -1.73279 0
M  V30 4582 H 412.25 1.41592 -3.38153 0
M  V30 4583 H 411.898 3.88495 -3.195 0
M  V30 4584 H 411.598 3.31077 -4.8545 0
M  V30 4585 H 413.122 4.16004 -4.4696 0
M  V30 4586 H 414.536 2.06535 -5.34805 0
M  V30 4587 H 412.933 1.43544 -5.82679 0
M  V30 4588 H 414.003 0.433611 -4.82957 0
M  V30 4589 N 415.346 1.54954 0.287554 0
M  V30 4590 C 416.595 1.74081 1.01877 0
M  V30 4591 C 416.908 0.541135 1.87966 0
M  V30 4592 O 418.114 0.614491 2.64455 0
M  V30 4593 C 416.57 3.08042 1.86113 0
M  V30 4594 C 416.178 4.35531 1.04961 0
M  V30 4595 C 417.922 3.36523 2.58752 0
M  V30 4596 C 415.829 5.60538 1.88551 0
M  V30 4597 H 414.759 0.64884 0.384087 0
M  V30 4598 H 417.41 1.81426 0.275101 0
M  V30 4599 H 415.792 2.94696 2.64519 0
M  V30 4600 H 416.966 4.59751 0.31074 0
M  V30 4601 H 415.281 4.14085 0.43843 0
M  V30 4602 H 417.878 4.27122 3.21668 0
M  V30 4603 H 418.221 2.56 3.28283 0
M  V30 4604 H 418.754 3.50901 1.87386 0
M  V30 4605 H 415.493 6.43767 1.23466 0
M  V30 4606 H 415.013 5.40483 2.60074 0
M  V30 4607 H 416.692 5.98297 2.46273 0
M  V30 4608 N 416.824 -0.551391 1.4764 0
M  V30 4609 C 417.772 -1.67896 1.60978 0
M  V30 4610 C 418.766 -1.62549 0.476877 0
M  V30 4611 O 419.972 -1.67664 0.654878 0
M  V30 4612 H 416.347 -0.555649 0.506713 0
M  V30 4613 H 418.318 -1.53784 2.55721 0
M  V30 4614 C 417.067 -3.06234 1.64669 0
M  V30 4615 H 416.39 -3.11033 2.51194 0
M  V30 4616 H 417.83 -3.84804 1.7805 0
M  V30 4617 C 416.289 -3.34737 0.381115 0
M  V30 4618 O 416.819 -3.98381 -0.515297 0
M  V30 4619 N 415.025 -2.8944 0.259354 0
M  V30 4620 H 414.572 -2.37827 0.98976 0
M  V30 4621 H 414.53 -3.08882 -0.586464 0
M  V30 4622 N 418.302 -1.35869 -0.798587 0
M  V30 4623 C 419.55 -1.29332 -1.55298 0
M  V30 4624 C 419.871 0.129729 -1.94568 0
M  V30 4625 O 419.141 1.06796 -1.6423 0
M  V30 4626 H 417.721 -0.475737 -0.57592 0
M  V30 4627 H 420.383 -1.70062 -0.952093 0
M  V30 4628 H 419.479 -1.91458 -2.46476 0
M  V30 4629 N 419.78 1.02168 -1.19998 0
M  V30 4630 C 420.71 2.12488 -0.96804 0
M  V30 4631 C 421.691 1.69799 0.101185 0
M  V30 4632 O 422.876 1.94121 -0.0552993 0
M  V30 4633 C 420.006 3.43479 -0.513776 0
M  V30 4634 C 418.96 3.99884 -1.52566 0
M  V30 4635 C 418.286 5.26582 -0.928214 0
M  V30 4636 C 419.586 4.33861 -2.90795 0
M  V30 4637 H 421.28 2.32149 -1.89069 0
M  V30 4638 H 418.826 1.11564 -0.910468 0
M  V30 4639 H 420.779 4.20036 -0.338774 0
M  V30 4640 H 419.503 3.23561 0.444493 0
M  V30 4641 H 418.162 3.25429 -1.68794 0
M  V30 4642 H 417.81 5.02986 0.0378289 0
M  V30 4643 H 417.51 5.65284 -1.60397 0
M  V30 4644 H 419.034 6.05799 -0.764167 0
M  V30 4645 H 420.448 5.01327 -2.78109 0
M  V30 4646 H 418.845 4.83664 -3.55231 0
M  V30 4647 H 419.915 3.42848 -3.42904 0
M  V30 4648 N 421.258 1.00505 1.21394 0
M  V30 4649 C 422.507 0.683159 1.89778 0
M  V30 4650 C 422.82 -0.789471 1.7896 0
M  V30 4651 O 424.026 -1.22344 2.42372 0
M  V30 4652 C 422.482 1.17146 3.40301 0
M  V30 4653 C 422.09 2.67017 3.5973 0
M  V30 4654 C 423.834 0.924461 4.14311 0
M  V30 4655 C 421.741 3.09387 5.04017 0
M  V30 4656 H 420.671 0.25183 0.710702 0
M  V30 4657 H 423.322 1.21622 1.37406 0
M  V30 4658 H 421.704 0.566451 3.91928 0
M  V30 4659 H 422.878 3.32968 3.18542 0
M  V30 4660 H 421.193 2.89732 2.99073 0
M  V30 4661 H 423.79 1.21658 5.20676 0
M  V30 4662 H 424.133 -0.139286 4.16067 0
M  V30 4663 H 424.666 1.49226 3.6875 0
M  V30 4664 H 421.405 4.14989 5.07409 0
M  V30 4665 H 420.925 2.48149 5.46061 0
M  V30 4666 H 422.604 3.01371 5.72525 0
M  V30 4667 N 422.737 -1.36956 0.779787 0
M  V30 4668 C 423.667 -2.32761 0.185651 0
M  V30 4669 C 424.648 -1.56177 -0.673989 0
M  V30 4670 O 425.833 -1.84378 -0.609797 0
M  V30 4671 C 422.963 -3.40418 -0.687964 0
M  V30 4672 C 421.917 -4.27941 0.0710102 0
M  V30 4673 C 421.243 -5.26681 -0.922573 0
M  V30 4674 C 422.543 -5.07006 1.25467 0
M  V30 4675 H 424.237 -2.82698 0.986008 0
M  V30 4676 H 421.783 -1.3592 0.475592 0
M  V30 4677 H 423.736 -4.06423 -1.11348 0
M  V30 4678 H 422.46 -2.89025 -1.52093 0
M  V30 4679 H 421.119 -3.63478 0.47739 0
M  V30 4680 H 420.767 -4.71565 -1.7503 0
M  V30 4681 H 420.467 -5.86103 -0.419237 0
M  V30 4682 H 421.991 -5.9556 -1.34686 0
M  V30 4683 H 423.405 -5.66105 0.905401 0
M  V30 4684 H 421.802 -5.75793 1.69063 0
M  V30 4685 H 422.872 -4.3921 2.05481 0
M  V30 4686 N 424.215 -0.530993 -1.48385 0
M  V30 4687 C 425.461 0.00274135 -2.028 0
M  V30 4688 C 425.794 1.33838 -1.40716 0
M  V30 4689 O 425.069 1.86465 -0.553277 0
M  V30 4690 C 425.352 0.123676 -3.59888 0
M  V30 4691 C 425.205 -1.2372 -4.3245 0
M  V30 4692 C 426.524 0.849967 -4.31814 0
M  V30 4693 H 423.643 -0.000477758 -0.737 0
M  V30 4694 H 426.285 -0.688217 -1.77098 0
M  V30 4695 H 424.435 0.712157 -3.81917 0
M  V30 4696 H 426.107 -1.86687 -4.21836 0
M  V30 4697 H 424.35 -1.81882 -3.93829 0
M  V30 4698 H 425.021 -1.10557 -5.40815 0
M  V30 4699 H 427.497 0.350572 -4.14621 0
M  V30 4700 H 426.373 0.903486 -5.41413 0
M  V30 4701 H 426.634 1.90047 -3.99167 0
M  V30 4702 N 425.693 1.55336 -0.266172 0
M  V30 4703 C 426.918 2.04258 0.359661 0
M  V30 4704 C 427.343 1.14359 1.49344 0
M  V30 4705 O 426.701 0.140369 1.80756 0
M  V30 4706 C 426.749 3.50997 0.826635 0
M  V30 4707 O 425.853 3.64204 1.93466 0
M  V30 4708 H 425.194 0.659668 0.075727 0
M  V30 4709 H 427.724 2.00694 -0.39786 0
M  V30 4710 H 427.734 3.9219 1.12477 0
M  V30 4711 H 426.409 4.159 -0.00293032 0
M  V30 4712 H 424.986 3.34913 1.63974 0
M  V30 4713 N 427.171 -0.0066808 1.57599 0
M  V30 4714 C 428.401 -0.703066 1.94269 0
M  V30 4715 C 428.809 -1.68206 0.866222 0
M  V30 4716 O 428.152 -1.82966 -0.164087 0
M  V30 4717 C 428.214 -1.49616 3.26887 0
M  V30 4718 C 427.878 -0.679494 4.5192 0
M  V30 4719 C 428.875 0.0299508 5.19891 0
M  V30 4720 C 426.56 -0.627433 4.98366 0
M  V30 4721 C 428.554 0.780514 6.32603 0
M  V30 4722 C 426.241 0.126861 6.10968 0
M  V30 4723 C 427.239 0.829574 6.77943 0
M  V30 4724 O 426.927 1.57157 7.88389 0
M  V30 4725 H 426.659 -0.201217 0.645359 0
M  V30 4726 H 429.213 0.0385326 2.05364 0
M  V30 4727 H 427.443 -2.28209 3.12182 0
M  V30 4728 H 429.132 -2.07726 3.48719 0
M  V30 4729 H 429.898 -0.00115963 4.85 0
M  V30 4730 H 425.777 -1.16392 4.46065 0
M  V30 4731 H 429.321 1.32954 6.84813 0
M  V30 4732 H 425.218 0.159815 6.45302 0
M  V30 4733 H 425.986 1.48758 8.04868 0
M  V30 4734 N 428.649 -1.55105 -0.279332 0
M  V30 4735 C 429.612 -1.86783 -1.32834 0
M  V30 4736 C 430.612 -0.74199 -1.42657 0
M  V30 4737 O 431.802 -1.0102 -1.41918 0
M  V30 4738 C 428.934 -2.06746 -2.71052 0
M  V30 4739 H 430.127 -2.8055 -1.05979 0
M  V30 4740 H 427.68 -1.47499 -0.517087 0
M  V30 4741 H 428.415 -1.15339 -3.03097 0
M  V30 4742 H 428.2 -2.88711 -2.65309 0
M  V30 4743 H 429.69 -2.32549 -3.46858 0
M  V30 4744 N 430.127 0.543554 -1.4793 0
M  V30 4745 C 431.374 1.30008 -1.55255 0
M  V30 4746 C 431.702 1.93245 -0.220612 0
M  V30 4747 O 430.957 1.79141 0.787843 0
M  V30 4748 C 431.256 2.42078 -2.62932 0
M  V30 4749 C 430.922 1.96583 -4.0579 0
M  V30 4750 C 429.584 1.83893 -4.44676 0
M  V30 4751 C 431.936 1.62034 -4.95373 0
M  V30 4752 C 429.264 1.34969 -5.70964 0
M  V30 4753 C 431.616 1.14577 -6.22137 0
M  V30 4754 C 430.28 1.00493 -6.59892 0
M  V30 4755 H 429.55 0.475735 -0.568117 0
M  V30 4756 H 432.197 0.608075 -1.81589 0
M  V30 4757 H 430.502 3.16892 -2.30406 0
M  V30 4758 H 432.199 3.00236 -2.65818 0
M  V30 4759 H 428.789 2.07407 -3.75074 0
M  V30 4760 H 432.973 1.70705 -4.66019 0
M  V30 4761 H 428.229 1.2274 -5.98953 0
M  V30 4762 H 432.403 0.869109 -6.90955 0
M  V30 4763 H 430.03 0.623624 -7.57638 0
M  V30 4764 N 431.605 1.3629 0.791371 0
M  V30 4765 C 432.853 1.30154 1.5461 0
M  V30 4766 C 433.174 -0.119409 1.94634 0
M  V30 4767 O 432.444 -1.05924 1.64794 0
M  V30 4768 H 431.024 0.478784 0.573389 0
M  V30 4769 H 433.686 1.70565 0.94306 0
M  V30 4770 H 432.782 1.92762 2.45457 0
M  V30 4771 N 433.083 -1.0153 1.20538 0
M  V30 4772 C 434.33 -1.75149 1.01633 0
M  V30 4773 C 434.658 -1.89189 -0.451399 0
M  V30 4774 O 433.913 -1.41551 -1.35136 0
M  V30 4775 C 434.212 -3.17213 1.64654 0
M  V30 4776 C 433.878 -3.23146 3.14464 0
M  V30 4777 C 432.54 -3.24472 3.55347 0
M  V30 4778 C 434.892 -3.21207 4.10458 0
M  V30 4779 C 432.22 -3.21532 4.90748 0
M  V30 4780 C 434.572 -3.19808 5.45807 0
M  V30 4781 C 433.236 -3.19439 5.86102 0
M  V30 4782 H 432.506 -0.640914 0.3719 0
M  V30 4783 H 435.153 -1.19071 1.49981 0
M  V30 4784 H 433.458 -3.76457 1.08571 0
M  V30 4785 H 435.155 -3.72871 1.4754 0
M  V30 4786 H 431.745 -3.2285 2.81897 0
M  V30 4787 H 435.929 -3.19351 3.79906 0
M  V30 4788 H 431.185 -3.19578 5.21229 0
M  V30 4789 H 435.359 -3.1726 6.19935 0
M  V30 4790 H 432.986 -3.16915 6.90991 0
M  V30 4791 N 434.561 -1.01147 -1.20859 0
M  V30 4792 C 435.807 -0.708598 -1.90658 0
M  V30 4793 C 436.162 0.753069 -1.7705 0
M  V30 4794 O 435.455 1.53952 -1.14059 0
M  V30 4795 C 435.649 -1.0727 -3.40922 0
M  V30 4796 C 435.478 -2.56821 -3.69152 0
M  V30 4797 C 434.248 -3.23524 -3.8815 0
M  V30 4798 C 436.446 -3.54997 -3.72131 0
M  V30 4799 N 434.428 -4.62359 -4.03853 0
M  V30 4800 C 435.799 -4.79371 -3.93196 0
M  V30 4801 C 437.854 -3.49042 -3.55069 0
M  V30 4802 C 436.557 -5.98512 -3.98969 0
M  V30 4803 C 438.583 -4.67579 -3.6211 0
M  V30 4804 C 437.945 -5.9076 -3.83643 0
M  V30 4805 H 434.044 -0.31088 -0.71755 0
M  V30 4806 H 436.628 -1.29526 -1.45366 0
M  V30 4807 H 434.799 -0.51443 -3.84978 0
M  V30 4808 H 436.531 -0.723891 -3.98173 0
M  V30 4809 H 433.286 -2.73958 -3.86321 0
M  V30 4810 H 433.71 -5.34427 -4.15592 0
M  V30 4811 H 438.352 -2.54808 -3.37391 0
M  V30 4812 H 436.07 -6.93132 -4.15444 0
M  V30 4813 H 439.656 -4.64581 -3.50222 0
M  V30 4814 H 438.536 -6.8095 -3.88944 0
M  V30 4815 N 436.039 1.36541 -0.78704 0
M  V30 4816 C 437.269 2.03266 -0.369662 0
M  V30 4817 C 437.677 1.59481 1.01796 0
M  V30 4818 O 437.02 0.778612 1.66383 0
M  V30 4819 C 437.082 3.57779 -0.351371 0
M  V30 4820 C 436.746 4.24756 -1.68617 0
M  V30 4821 C 437.743 4.47811 -2.64124 0
M  V30 4822 C 435.428 4.62277 -1.96481 0
M  V30 4823 C 437.422 5.07464 -3.85693 0
M  V30 4824 C 435.109 5.21649 -3.18317 0
M  V30 4825 C 436.107 5.44182 -4.12741 0
M  V30 4826 O 435.795 6.02307 -5.32429 0
M  V30 4827 H 435.527 0.658977 -0.150751 0
M  V30 4828 H 438.081 1.75548 -1.0664 0
M  V30 4829 H 436.311 3.84606 0.401847 0
M  V30 4830 H 438 4.05879 0.0410147 0
M  V30 4831 H 438.766 4.19221 -2.43883 0
M  V30 4832 H 434.645 4.44065 -1.23805 0
M  V30 4833 H 438.189 5.24968 -4.59407 0
M  V30 4834 H 434.086 5.49664 -3.38437 0
M  V30 4835 H 434.854 6.20775 -5.33461 0
M  V30 4836 N 437.518 0.538854 1.48102 0
M  V30 4837 C 438.766 0.00798599 2.02098 0
M  V30 4838 C 439.087 -1.33922 1.41739 0
M  V30 4839 O 438.357 -1.86932 0.585934 0
M  V30 4840 H 436.937 -3.62179e-05 0.747 0
M  V30 4841 H 439.599 0.7047 1.81714 0
M  V30 4842 H 438.695 -0.0937672 3.11959 0
M  V30 4843 N 438.996 -1.55193 0.274407 0
M  V30 4844 C 440.224 -2.03987 -0.345943 0
M  V30 4845 C 440.639 -1.15279 -1.4952 0
M  V30 4846 O 439.996 -0.172759 -1.8168 0
M  V30 4847 C 440.047 -3.51898 -0.827631 0
M  V30 4848 O 439.768 -4.37231 0.275855 0
M  V30 4849 C 441.269 -4.16577 -1.51587 0
M  V30 4850 H 438.489 -0.666335 -0.0789892 0
M  V30 4851 H 441.033 -2.00423 0.406294 0
M  V30 4852 H 439.188 -3.55909 -1.52996 0
M  V30 4853 H 439.602 -5.24415 -0.0943638 0
M  V30 4854 H 441.076 -5.21678 -1.80433 0
M  V30 4855 H 441.553 -3.64707 -2.44716 0
M  V30 4856 H 442.159 -4.16568 -0.857409 0
M  V30 4857 N 440.474 -0.00167713 -1.576 0
M  V30 4858 C 441.89 0.354422 -1.55615 0
M  V30 4859 C 442.09 1.74679 -1.00447 0
M  V30 4860 O 441.146 2.4428 -0.639022 0
M  V30 4861 C 442.459 0.22812 -2.99833 0
M  V30 4862 C 444.007 0.302934 -3.11531 0
M  V30 4863 C 444.482 0.205737 -4.57538 0
M  V30 4864 N 445.973 0.263584 -4.62449 0
M  V30 4865 C 446.708 0.211742 -5.73009 0
M  V30 4866 N 446.204 0.110399 -6.92712 0
M  V30 4867 N 447.997 0.263729 -5.61481 0
M  V30 4868 H 440.148 -0.912498 -1.918 0
M  V30 4869 H 442.411 -0.349928 -0.881053 0
M  V30 4870 H 442.117 -0.729934 -3.44042 0
M  V30 4871 H 441.991 1.00951 -3.6344 0
M  V30 4872 H 444.378 1.25143 -2.67251 0
M  V30 4873 H 444.459 -0.508357 -2.50698 0
M  V30 4874 H 444.103 -0.739225 -5.02492 0
M  V30 4875 H 444.033 1.03554 -5.16318 0
M  V30 4876 H 446.524 0.343173 -3.76339 0
M  V30 4877 H 446.837 0.0767828 -7.72762 0
M  V30 4878 H 445.182 0.0760025 -6.94958 0
M  V30 4879 H 448.373 0.34111 -4.66855 0
M  V30 4880 H 448.546 0.219862 -6.47627 0
M  V30 4881 N 441.952 1.55251 0.271103 0
M  V30 4882 C 443.201 1.75151 1.00025 0
M  V30 4883 C 443.514 0.561041 1.87381 0
M  V30 4884 O 444.72 0.642506 2.63788 0
M  V30 4885 C 443.176 3.09999 1.82835 0
M  V30 4886 C 442.784 4.3662 1.00336 0
M  V30 4887 C 444.528 3.39249 2.55168 0
M  V30 4888 C 442.435 5.62506 1.82595 0
M  V30 4889 H 441.365 0.652877 0.377183 0
M  V30 4890 H 444.016 1.81708 0.255843 0
M  V30 4891 H 442.398 2.97485 2.61378 0
M  V30 4892 H 443.572 4.60055 0.261959 0
M  V30 4893 H 441.887 4.14527 0.394486 0
M  V30 4894 H 444.484 4.3051 3.1712 0
M  V30 4895 H 444.827 2.59467 3.2555 0
M  V30 4896 H 445.36 3.52869 1.83653 0
M  V30 4897 H 442.099 6.45041 1.16631 0
M  V30 4898 H 441.619 5.43211 2.54327 0
M  V30 4899 H 443.298 6.00875 2.39913 0
M  V30 4900 N 443.43 -0.535701 1.48216 0
M  V30 4901 C 444.679 -1.28828 1.55197 0
M  V30 4902 C 444.992 -1.94263 0.228278 0
M  V30 4903 O 446.198 -2.70927 0.176278 0
M  V30 4904 C 444.654 -2.33727 2.73678 0
M  V30 4905 C 444.262 -1.74386 4.12666 0
M  V30 4906 C 446.006 -3.1003 2.89968 0
M  V30 4907 C 443.913 -2.77192 5.22416 0
M  V30 4908 H 442.843 -0.484484 0.577747 0
M  V30 4909 H 445.494 -0.56646 1.74538 0
M  V30 4910 H 443.876 -3.08919 2.4776 0
M  V30 4911 H 445.05 -1.05421 4.48579 0
M  V30 4912 H 443.365 -1.10595 4.01445 0
M  V30 4913 H 445.962 -3.86842 3.6913 0
M  V30 4914 H 446.305 -3.65542 1.9921 0
M  V30 4915 H 446.838 -2.41952 3.15759 0
M  V30 4916 H 443.577 -2.26507 6.15122 0
M  V30 4917 H 443.097 -3.44502 4.90998 0
M  V30 4918 H 444.776 -3.40285 5.50286 0
M  V30 4919 N 444.908 -1.36708 -0.784132 0
M  V30 4920 C 446.157 -1.30559 -1.53744 0
M  V30 4921 C 446.47 0.111374 -1.95283 0
M  V30 4922 O 447.676 0.29527 -2.6989 0
M  V30 4923 C 446.132 -2.29098 -2.77565 0
M  V30 4924 C 445.74 -3.76258 -2.43174 0
M  V30 4925 C 447.484 -2.31936 -3.55536 0
M  V30 4926 C 445.391 -4.6656 -3.63422 0
M  V30 4927 H 444.321 -0.48518 -0.577162 0
M  V30 4928 H 446.972 -1.62101 -0.859981 0
M  V30 4929 H 445.354 -1.90557 -3.47137 0
M  V30 4930 H 446.528 -4.23565 -1.81465 0
M  V30 4931 H 444.843 -3.76246 -1.78403 0
M  V30 4932 H 447.44 -2.9661 -4.44889 0
M  V30 4933 H 447.783 -1.3294 -3.94503 0
M  V30 4934 H 448.316 -2.6912 -2.92949 0
M  V30 4935 H 445.055 -5.66638 -3.29547 0
M  V30 4936 H 444.575 -4.23966 -4.24279 0
M  V30 4937 H 446.254 -4.8309 -4.30387 0
M  V30 4938 N 446.386 1.0089 -1.21074 0
M  V30 4939 C 447.334 2.11707 -0.963476 0
M  V30 4940 C 448.328 1.69172 0.0879032 0
M  V30 4941 O 449.534 1.79889 -0.0631415 0
M  V30 4942 H 445.909 0.692026 -0.294287 0
M  V30 4943 H 447.88 2.29743 -1.90422 0
M  V30 4944 C 446.629 3.43473 -0.540509 0
M  V30 4945 H 445.952 3.76634 -1.34114 0
M  V30 4946 H 447.392 4.22044 -0.406777 0
M  V30 4947 C 445.851 3.2849 0.748079 0
M  V30 4948 O 446.381 3.58883 1.8046 0
M  V30 4949 N 444.587 2.81715 0.713081 0
M  V30 4950 H 444.134 2.5718 -0.146973 0
M  V30 4951 H 444.092 2.72071 1.57558 0
M  V30 4952 N 447.864 1.01787 1.20321 0
M  V30 4953 C 449.089 0.727009 1.9424 0
M  V30 4954 C 449.514 -0.706179 1.74341 0
M  V30 4955 O 448.872 -1.48609 1.03852 0
M  V30 4956 C 448.92 1.06958 3.44372 0
M  V30 4957 O 448.024 0.181983 4.11998 0
M  V30 4958 H 447.365 0.269626 0.606793 0
M  V30 4959 H 449.895 1.36158 1.52716 0
M  V30 4960 H 449.905 1.02182 3.94997 0
M  V30 4961 H 448.58 2.11378 3.58179 0
M  V30 4962 H 447.157 0.287378 3.71791 0
M  V30 4963 N 449.342 -1.36122 0.79427 0
M  V30 4964 C 450.305 -2.28309 0.201889 0
M  V30 4965 C 451.305 -1.49041 -0.603603 0
M  V30 4966 O 452.495 -1.68964 -0.423888 0
M  V30 4967 C 449.627 -3.3321 -0.719978 0
M  V30 4968 H 450.82 -2.82208 1.01481 0
M  V30 4969 H 448.373 -1.45768 0.564037 0
M  V30 4970 H 449.108 -2.84475 -1.55706 0
M  V30 4971 H 448.893 -3.91835 -0.144266 0
M  V30 4972 H 450.383 -4.02044 -1.12916 0
M  V30 4973 N 450.82 -0.546701 -1.47814 0
M  V30 4974 C 452.048 -0.0232857 -2.06887 0
M  V30 4975 C 452.463 1.26571 -1.4009 0
M  V30 4976 O 451.82 1.7569 -0.493906 0
M  V30 4977 C 451.871 0.186975 -3.61016 0
M  V30 4978 O 451.592 -1.05097 -4.25307 0
M  V30 4979 C 453.093 0.748872 -4.36929 0
M  V30 4980 H 450.313 -0.0410763 -0.669742 0
M  V30 4981 H 452.857 -0.757117 -1.89968 0
M  V30 4982 H 451.012 0.870903 -3.77484 0
M  V30 4983 H 451.426 -0.842121 -5.17695 0
M  V30 4984 H 452.9 0.845334 -5.45489 0
M  V30 4985 H 453.377 1.75772 -4.02493 0
M  V30 4986 H 453.983 0.100979 -4.2518 0
M  V30 4987 N 452.299 1.55045 -0.282633 0
M  V30 4988 C 453.247 2.24254 0.617478 0
M  V30 4989 C 454.241 1.24215 1.15183 0
M  V30 4990 O 455.447 1.42123 1.10459 0
M  V30 4991 H 451.822 0.719801 0.217693 0
M  V30 4992 H 453.793 2.98398 0.0110076 0
M  V30 4993 C 452.542 2.98281 1.78672 0
M  V30 4994 H 451.865 3.75053 1.38475 0
M  V30 4995 H 453.305 3.50017 2.393 0
M  V30 4996 C 451.764 2.04184 2.67975 0
M  V30 4997 O 452.294 1.59792 3.6855 0
M  V30 4998 N 450.5 1.70526 2.35307 0
M  V30 4999 H 450.047 2.06821 1.53567 0
M  V30 5000 H 450.005 1.07839 2.95327 0
M  V30 5001 N 453.777 0.010035 1.57597 0
M  V30 5002 C 454.709 -1.00649 2.05918 0
M  V30 5003 C 455.722 -1.30077 0.978964 0
M  V30 5004 O 456.911 -1.26878 1.25556 0
M  V30 5005 C 454.011 -2.33876 2.45265 0
M  V30 5006 C 453.184 -2.23242 3.7614 0
M  V30 5007 C 452.243 -3.39242 4.02245 0
M  V30 5008 O 451.269 -3.1698 4.72771 0
M  V30 5009 N 452.471 -4.6242 3.50924 0
M  V30 5010 H 455.236 -0.594333 2.93748 0
M  V30 5011 H 452.797 -0.17714 1.60928 0
M  V30 5012 H 454.789 -3.1027 2.59836 0
M  V30 5013 H 453.359 -2.66799 1.62902 0
M  V30 5014 H 452.579 -1.31696 3.71551 0
M  V30 5015 H 453.867 -2.13321 4.61922 0
M  V30 5016 H 453.265 -4.83404 2.93832 0
M  V30 5017 H 451.822 -5.36046 3.70807 0
M  V30 5018 N 455.255 -1.55392 -0.262866 0
M  V30 5019 C 456.485 -1.80251 -1.00961 0
M  V30 5020 C 456.893 -0.58117 -1.80053 0
M  V30 5021 O 456.236 0.459427 -1.77862 0
M  V30 5022 C 456.298 -2.98207 -2.00781 0
M  V30 5023 C 455.962 -4.34856 -1.40533 0
M  V30 5024 C 456.959 -5.13459 -0.815853 0
M  V30 5025 C 454.644 -4.8153 -1.42948 0
M  V30 5026 C 456.638 -6.36875 -0.258562 0
M  V30 5027 C 454.325 -6.04899 -0.868334 0
M  V30 5028 C 455.323 -6.8241 -0.283884 0
M  V30 5029 O 455.011 -8.03451 0.268644 0
M  V30 5030 H 454.743 -0.604049 -0.303482 0
M  V30 5031 H 457.297 -2.03257 -0.295926 0
M  V30 5032 H 455.527 -2.70917 -2.75936 0
M  V30 5033 H 457.216 -3.10299 -2.61667 0
M  V30 5034 H 457.982 -4.78526 -0.789812 0
M  V30 5035 H 453.861 -4.21201 -1.87378 0
M  V30 5036 H 457.405 -6.97318 0.198257 0
M  V30 5037 H 453.302 -6.39312 -0.891649 0
M  V30 5038 H 454.07 -8.18346 0.158974 0
M  V30 5039 N 456.733 0.527833 -1.48498 0
M  V30 5040 C 458.144 1.10975 -1.50138 0
M  V30 5041 C 458.495 1.943 -0.272378 0
M  V30 5042 O 457.62 2.07319 0.620301 0
M  V30 5043 C 458.215 2.01927 -2.72049 0
M  V30 5044 C 456.774 2.55332 -2.76554 0
M  V30 5045 C 455.921 1.32341 -2.43683 0
M  V30 5046 H 458.872 0.312986 -1.55583 0
M  V30 5047 H 458.893 2.86244 -2.50689 0
M  V30 5048 H 458.405 1.41254 -3.61481 0
M  V30 5049 H 456.506 3.19721 -1.91336 0
M  V30 5050 H 456.619 2.94319 -3.78038 0
M  V30 5051 H 454.983 1.63989 -1.94884 0
M  V30 5052 H 455.766 0.734165 -3.35358 0
M  V30 5053 N 458.211 1.37122 0.776871 0
M  V30 5054 C 459.159 1.32549 1.91138 0
M  V30 5055 C 460.153 0.215119 1.68029 0
M  V30 5056 O 461.359 0.382852 1.75881 0
M  V30 5057 H 457.734 0.412952 0.62847 0
M  V30 5058 H 459.705 2.28332 1.92112 0
M  V30 5059 C 458.454 1.14422 3.28333 0
M  V30 5060 H 457.777 1.99115 3.46689 0
M  V30 5061 H 459.217 1.15272 4.0803 0
M  V30 5062 C 457.676 -0.150434 3.36564 0
M  V30 5063 O 458.206 -1.13584 3.85307 0
M  V30 5064 N 456.412 -0.19939 2.89915 0
M  V30 5065 H 455.959 0.603142 2.5044 0
M  V30 5066 H 455.917 -1.06526 2.95803 0
M  V30 5067 N 459.689 -1.00246 1.21608 0
M  V30 5068 C 460.637 -2.11193 0.97469 0
M  V30 5069 C 461.631 -1.69216 -0.0789303 0
M  V30 5070 O 462.837 -1.79853 0.0726806 0
M  V30 5071 H 459.212 -0.690455 0.297953 0
M  V30 5072 H 461.183 -2.2873 1.91638 0
M  V30 5073 C 459.932 -3.43182 0.558717 0
M  V30 5074 H 459.255 -3.75918 1.3611 0
M  V30 5075 H 460.695 -4.21823 0.429154 0
M  V30 5076 C 459.154 -3.28882 -0.730648 0
M  V30 5077 O 459.684 -3.59835 -1.78554 0
M  V30 5078 N 457.89 -2.8209 -0.698131 0
M  V30 5079 H 457.437 -2.57099 0.16061 0
M  V30 5080 H 457.395 -2.72903 -1.56113 0
M  V30 5081 N 461.167 -1.02423 -1.1978 0
M  V30 5082 C 462.444 -0.632802 -1.85081 0
M  V30 5083 C 462.824 0.888745 -1.9148 0
M  V30 5084 O 462.172 1.78357 -1.42832 0
M  V30 5085 C 462.382 -1.28947 -3.24305 0
M  V30 5086 C 463.73 -1.40976 -4.00513 0
M  V30 5087 O 464.754 -1.24628 -3.33686 0
M  V30 5088 O 463.613 -1.67467 -5.20209 0
M  V30 5089 H 460.707 -0.219348 -0.79738 0
M  V30 5090 H 463.253 -1.12209 -1.27307 0
M  V30 5091 H 462.025 -2.3288 -3.14456 0
M  V30 5092 H 461.648 -0.787748 -3.89718 0
M  V30 5093 N 462.645 1.35699 -0.801477 0
M  V30 5094 C 463.892 1.98913 -0.379459 0
M  V30 5095 C 464.22 1.63592 1.05204 0
M  V30 5096 O 463.475 0.888563 1.74365 0
M  V30 5097 C 463.774 3.53828 -0.504041 0
M  V30 5098 C 463.44 4.09002 -1.8981 0
M  V30 5099 C 462.102 4.23783 -2.27951 0
M  V30 5100 C 464.454 4.38939 -2.81038 0
M  V30 5101 C 461.782 4.65816 -3.56696 0
M  V30 5102 C 464.134 4.82409 -4.09224 0
M  V30 5103 C 462.798 4.95395 -4.4737 0
M  V30 5104 H 462.068 0.727874 -0.138854 0
M  V30 5105 H 464.715 1.61994 -1.02128 0
M  V30 5106 H 463.02 3.91175 0.221242 0
M  V30 5107 H 464.717 4.00687 -0.158361 0
M  V30 5108 H 461.307 3.97946 -1.59176 0
M  V30 5109 H 465.491 4.27077 -2.52821 0
M  V30 5110 H 460.747 4.74059 -3.86106 0
M  V30 5111 H 464.921 5.04535 -4.80018 0
M  V30 5112 H 462.548 5.27724 -5.47185 0
M  V30 5113 N 464.123 0.554532 1.47522 0
M  V30 5114 C 465.071 -0.207765 2.3167 0
M  V30 5115 C 466.065 -0.911914 1.4276 0
M  V30 5116 O 467.271 -0.833504 1.59539 0
M  V30 5117 H 463.646 -0.0858726 0.747081 0
M  V30 5118 H 465.617 0.521178 2.93813 0
M  V30 5119 C 464.366 -1.2263 3.25357 0
M  V30 5120 H 463.689 -0.693887 3.93732 0
M  V30 5121 H 465.129 -1.73062 3.87073 0
M  V30 5122 C 463.588 -2.27278 2.4869 0
M  V30 5123 O 464.118 -3.34156 2.22941 0
M  V30 5124 N 462.324 -2.01134 2.09746 0
M  V30 5125 H 461.871 -1.14232 2.30887 0
M  V30 5126 H 461.829 -2.71369 1.58765 0
M  V30 5127 N 465.601 -1.54893 0.290851 0
M  V30 5128 C 466.849 -1.99538 -0.320756 0
M  V30 5129 C 467.17 -1.18075 -1.55188 0
M  V30 5130 O 466.44 -0.274162 -1.93972 0
M  V30 5131 H 465.02 -0.737052 -0.121507 0
M  V30 5132 H 467.682 -1.90755 0.399832 0
M  V30 5133 H 466.778 -3.06282 -0.599802 0
M  V30 5134 N 467.08 -0.0183926 -1.57589 0
M  V30 5135 C 468.043 0.951986 -2.08494 0
M  V30 5136 C 469.043 1.26092 -0.997874 0
M  V30 5137 O 470.233 1.20304 -1.25987 0
M  V30 5138 C 467.365 2.27165 -2.54182 0
M  V30 5139 H 468.558 0.511307 -2.95509 0
M  V30 5140 H 466.111 0.229444 -1.54607 0
M  V30 5141 H 466.846 2.75884 -1.70465 0
M  V30 5142 H 466.631 2.06057 -3.33591 0
M  V30 5143 H 468.121 2.9674 -2.93828 0
M  V30 5144 N 468.558 1.5553 0.254621 0
M  V30 5145 C 469.783 1.81383 1.00573 0
M  V30 5146 C 470.208 0.594419 1.78461 0
M  V30 5147 O 469.566 -0.456403 1.75461 0
M  V30 5148 C 469.614 3.04892 1.92545 0
M  V30 5149 O 468.718 2.81266 3.01601 0
M  V30 5150 H 468.059 0.598969 0.286587 0
M  V30 5151 H 470.589 2.02703 0.277952 0
M  V30 5152 H 470.599 3.34119 2.34155 0
M  V30 5153 H 469.274 3.93287 1.3527 0
M  V30 5154 H 467.851 2.63185 2.64174 0
M  V30 5155 N 470.036 -0.519951 1.48776 0
M  V30 5156 C 471.282 -1.27711 1.57536 0
M  V30 5157 C 471.615 -1.92547 0.252866 0
M  V30 5158 O 470.89 -1.7979 -0.742021 0
M  V30 5159 C 471.173 -2.35875 2.72094 0
M  V30 5160 C 471.026 -1.75664 4.1408 0
M  V30 5161 C 472.345 -3.37575 2.82367 0
M  V30 5162 H 469.464 -0.462971 0.573434 0
M  V30 5163 H 472.106 -0.578194 1.80989 0
M  V30 5164 H 470.256 -2.95488 2.52228 0
M  V30 5165 H 471.928 -1.20025 4.45412 0
M  V30 5166 H 470.171 -1.06154 4.20611 0
M  V30 5167 H 470.842 -2.54029 4.90075 0
M  V30 5168 H 473.318 -2.87929 3.00393 0
M  V30 5169 H 472.194 -4.1064 3.64233 0
M  V30 5170 H 472.455 -3.98743 1.90936 0
M  V30 5171 N 471.514 -1.37532 -0.769588 0
M  V30 5172 C 472.763 -1.32183 -1.5235 0
M  V30 5173 C 473.076 0.0906555 -1.9539 0
M  V30 5174 O 474.282 0.266628 -2.70188 0
M  V30 5175 C 472.738 -2.32029 -2.75119 0
M  V30 5176 C 472.346 -3.78816 -2.3917 0
M  V30 5177 C 474.09 -2.35694 -3.53056 0
M  V30 5178 C 471.997 -4.70388 -3.58453 0
M  V30 5179 H 470.927 -0.491275 -0.571984 0
M  V30 5180 H 473.578 -1.63004 -0.842739 0
M  V30 5181 H 471.96 -1.94229 -3.45096 0
M  V30 5182 H 473.134 -4.25466 -1.76962 0
M  V30 5183 H 471.449 -3.78117 -1.74402 0
M  V30 5184 H 474.046 -3.01312 -4.41718 0
M  V30 5185 H 474.389 -1.37117 -3.93071 0
M  V30 5186 H 474.922 -2.72212 -2.90078 0
M  V30 5187 H 471.661 -5.70102 -3.23518 0
M  V30 5188 H 471.181 -4.28442 -4.19758 0
M  V30 5189 H 472.86 -4.87628 -4.25239 0
M  V30 5190 N 472.992 0.995999 -1.22138 0
M  V30 5191 C 474.217 1.77601 -1.0711 0
M  V30 5192 C 474.642 1.84339 0.374264 0
M  V30 5193 O 474 1.29359 1.27028 0
M  V30 5194 C 474.048 3.18897 -1.68336 0
M  V30 5195 O 473.152 4.01663 -0.934928 0
M  V30 5196 H 472.493 0.547011 -0.376397 0
M  V30 5197 H 475.023 1.25137 -1.6187 0
M  V30 5198 H 475.033 3.69539 -1.72931 0
M  V30 5199 H 473.708 3.13308 -2.73516 0
M  V30 5200 H 472.285 3.60204 -0.964751 0
M  V30 5201 N 474.47 1.03057 1.19235 0
M  V30 5202 C 475.719 0.72326 1.88287 0
M  V30 5203 C 476.032 -0.751333 1.80594 0
M  V30 5204 O 477.238 -1.17176 2.44912 0
M  V30 5205 C 475.694 1.24338 3.3774 0
M  V30 5206 C 475.302 2.74587 3.53986 0
M  V30 5207 C 477.046 1.01213 4.12257 0
M  V30 5208 C 474.953 3.20009 4.97341 0
M  V30 5209 H 473.883 0.266848 0.705201 0
M  V30 5210 H 476.534 1.24509 1.34795 0
M  V30 5211 H 474.916 0.649457 3.90638 0
M  V30 5212 H 476.09 3.39649 3.11408 0
M  V30 5213 H 474.405 2.9601 2.9286 0
M  V30 5214 H 477.002 1.32675 5.17978 0
M  V30 5215 H 477.345 -0.051001 4.16269 0
M  V30 5216 H 477.878 1.57014 3.65501 0
M  V30 5217 H 474.617 4.25659 4.98493 0
M  V30 5218 H 474.137 2.59676 5.40674 0
M  V30 5219 H 475.816 3.13447 5.66003 0
M  V30 5220 N 475.948 -1.35272 0.808662 0
M  V30 5221 C 476.878 -2.32315 0.234981 0
M  V30 5222 C 477.859 -1.57572 -0.64071 0
M  V30 5223 O 479.044 -1.8563 -0.570551 0
M  V30 5224 C 476.174 -3.41801 -0.615601 0
M  V30 5225 C 475.128 -4.27694 0.161767 0
M  V30 5226 C 474.454 -5.28519 -0.810649 0
M  V30 5227 C 475.754 -5.04231 1.36193 0
M  V30 5228 H 477.448 -2.80543 1.04575 0
M  V30 5229 H 474.994 -1.3488 0.504315 0
M  V30 5230 H 476.947 -4.08693 -1.02702 0
M  V30 5231 H 475.671 -2.92186 -1.45928 0
M  V30 5232 H 474.33 -3.62384 0.554382 0
M  V30 5233 H 473.978 -4.75171 -1.64988 0
M  V30 5234 H 473.678 -5.8686 -0.294822 0
M  V30 5235 H 475.202 -5.98283 -1.22023 0
M  V30 5236 H 476.616 -5.64058 1.02528 0
M  V30 5237 H 475.013 -5.72077 1.81239 0
M  V30 5238 H 476.083 -4.34753 2.14751 0
M  V30 5239 N 477.426 -0.562348 -1.47226 0
M  V30 5240 C 478.356 0.170627 -2.32876 0
M  V30 5241 C 479.337 0.903748 -1.44106 0
M  V30 5242 O 480.522 0.883206 -1.72954 0
M  V30 5243 C 477.652 1.19786 -3.25989 0
M  V30 5244 C 476.606 0.580875 -4.2404 0
M  V30 5245 C 475.932 1.71311 -5.06514 0
M  V30 5246 C 477.232 -0.468714 -5.20193 0
M  V30 5247 H 478.926 -0.544441 -2.94408 0
M  V30 5248 H 476.472 -0.263271 -1.41573 0
M  V30 5249 H 478.425 1.71884 -3.84752 0
M  V30 5250 H 477.149 1.94294 -2.62521 0
M  V30 5251 H 475.808 0.0811538 -3.6651 0
M  V30 5252 H 475.456 2.44736 -4.39447 0
M  V30 5253 H 475.156 1.30604 -5.72902 0
M  V30 5254 H 476.68 2.23725 -5.68137 0
M  V30 5255 H 478.094 -0.0336028 -5.7329 0
M  V30 5256 H 476.491 -0.794957 -5.94811 0
M  V30 5257 H 477.561 -1.36269 -4.65359 0
M  V30 5258 N 478.904 1.54736 -0.299062 0
M  V30 5259 C 480.152 1.99706 0.31017 0
M  V30 5260 C 480.473 1.18896 1.54559 0
M  V30 5261 O 479.743 0.284445 1.93824 0
M  V30 5262 H 478.323 0.737686 0.117596 0
M  V30 5263 H 480.985 1.9054 -0.409943 0
M  V30 5264 H 480.081 3.06596 0.58355 0
M  V30 5265 N 480.382 0.0267497 1.57577 0
M  V30 5266 C 481.628 -0.653371 1.91987 0
M  V30 5267 C 481.961 -1.71915 0.903263 0
M  V30 5268 O 481.236 -1.94358 -0.0743387 0
M  V30 5269 C 481.519 -1.272 3.36886 0
M  V30 5270 C 481.372 -0.215938 4.49281 0
M  V30 5271 C 482.691 -2.19069 3.81703 0
M  V30 5272 H 479.81 -0.236047 0.698177 0
M  V30 5273 H 482.452 0.0835236 1.89816 0
M  V30 5274 H 480.602 -1.90005 3.38866 0
M  V30 5275 H 482.274 0.41449 4.59434 0
M  V30 5276 H 480.517 0.458855 4.31366 0
M  V30 5277 H 481.188 -0.688347 5.47691 0
M  V30 5278 H 483.664 -1.66253 3.81444 0
M  V30 5279 H 482.54 -2.59307 4.83788 0
M  V30 5280 H 482.801 -3.08087 3.17072 0
M  V30 5281 N 481.861 -1.55662 -0.24637 0
M  V30 5282 C 482.791 -1.93377 -1.30873 0
M  V30 5283 C 483.772 -0.798773 -1.50179 0
M  V30 5284 O 484.957 -1.0591 -1.62778 0
M  V30 5285 C 482.087 -2.22893 -2.66338 0
M  V30 5286 C 481.041 -3.38649 -2.61727 0
M  V30 5287 C 480.367 -3.53708 -4.00992 0
M  V30 5288 C 481.667 -4.74323 -2.18666 0
M  V30 5289 H 483.361 -2.82363 -0.995552 0
M  V30 5290 H 480.907 -1.35854 -0.477464 0
M  V30 5291 H 482.86 -2.47866 -3.40794 0
M  V30 5292 H 481.584 -1.30733 -2.99293 0
M  V30 5293 H 480.243 -3.13685 -1.89729 0
M  V30 5294 H 479.891 -2.58967 -4.31214 0
M  V30 5295 H 479.591 -4.31551 -3.98795 0
M  V30 5296 H 481.115 -3.81003 -4.77147 0
M  V30 5297 H 482.529 -4.98665 -2.82854 0
M  V30 5298 H 480.926 -5.55273 -2.27579 0
M  V30 5299 H 481.996 -4.71349 -1.13834 0
M  V30 5300 N 483.339 0.512053 -1.4905 0
M  V30 5301 C 484.588 1.26343 -1.57227 0
M  V30 5302 C 484.901 1.93876 -0.259155 0
M  V30 5303 O 486.107 2.70612 -0.219358 0
M  V30 5304 C 484.563 2.29343 -2.77362 0
M  V30 5305 C 484.171 1.67799 -4.15388 0
M  V30 5306 C 485.915 3.05378 -2.94864 0
M  V30 5307 C 483.822 2.68845 -5.2676 0
M  V30 5308 H 482.752 0.475231 -0.585382 0
M  V30 5309 H 485.403 0.53862 -1.75417 0
M  V30 5310 H 483.785 3.04938 -2.52643 0
M  V30 5311 H 484.959 0.982715 -4.50199 0
M  V30 5312 H 483.274 1.04194 -4.03153 0
M  V30 5313 H 485.871 3.80921 -3.75238 0
M  V30 5314 H 486.214 3.62327 -2.05 0
M  V30 5315 H 486.747 2.36898 -3.19569 0
M  V30 5316 H 483.486 2.16692 -6.18647 0
M  V30 5317 H 483.006 3.36647 -4.96416 0
M  V30 5318 H 484.685 3.31487 -5.5563 0
M  V30 5319 N 484.817 1.37938 0.762283 0
M  V30 5320 C 486.042 1.37059 1.55659 0
M  V30 5321 C 486.467 -0.0396123 1.88058 0
M  V30 5322 O 485.825 -1.01929 1.49934 0
M  V30 5323 C 485.873 2.22494 2.83776 0
M  V30 5324 O 484.977 1.63607 3.78559 0
M  V30 5325 H 484.318 0.467892 0.47114 0
M  V30 5326 H 486.848 1.81587 0.942725 0
M  V30 5327 H 486.858 2.36045 3.32786 0
M  V30 5328 H 485.533 3.24993 2.59524 0
M  V30 5329 H 484.11 1.5915 3.37233 0
M  V30 5330 N 486.295 -0.989507 1.22664 0
M  V30 5331 C 487.228 -2.07805 0.942985 0
M  V30 5332 C 488.206 -1.6219 -0.115356 0
M  V30 5333 O 489.39 -1.88492 0.0169565 0
M  V30 5334 C 486.517 -3.361 0.418898 0
M  V30 5335 C 485.563 -4.00643 1.46244 0
M  V30 5336 S 486.396 -4.41059 3.03689 0
M  V30 5337 C 487.552 -5.7252 2.52927 0
M  V30 5338 H 487.785 -2.31547 1.86476 0
M  V30 5339 H 485.318 -1.12446 1.05808 0
M  V30 5340 H 487.276 -4.10315 0.123114 0
M  V30 5341 H 485.937 -3.10383 -0.481818 0
M  V30 5342 H 485.13 -4.93033 1.04569 0
M  V30 5343 H 484.732 -3.32767 1.7071 0
M  V30 5344 H 487.024 -6.49017 1.94379 0
M  V30 5345 H 487.967 -6.19026 3.4382 0
M  V30 5346 H 488.375 -5.30083 1.94094 0
M  V30 5347 N 487.773 -1.03688 -1.18687 0
M  V30 5348 C 489.02 -0.73803 -1.88572 0
M  V30 5349 C 489.348 0.733973 -1.8012 0
M  V30 5350 O 488.603 1.55098 -1.19344 0
M  V30 5351 C 488.902 -1.14477 -3.3857 0
M  V30 5352 C 488.568 -2.61641 -3.67226 0
M  V30 5353 C 487.23 -3.01846 -3.74757 0
M  V30 5354 C 489.582 -3.56812 -3.79914 0
M  V30 5355 C 486.91 -4.36118 -3.92451 0
M  V30 5356 C 489.262 -4.90799 -3.99123 0
M  V30 5357 C 487.926 -5.3068 -4.04888 0
M  V30 5358 H 487.196 -0.270064 -0.690034 0
M  V30 5359 H 489.843 -1.3012 -1.40503 0
M  V30 5360 H 488.148 -0.500337 -3.88592 0
M  V30 5361 H 489.845 -0.89095 -3.90977 0
M  V30 5362 H 486.435 -2.29498 -3.61979 0
M  V30 5363 H 490.619 -3.26899 -3.73431 0
M  V30 5364 H 485.875 -4.66542 -3.95157 0
M  V30 5365 H 490.049 -5.64451 -4.07882 0
M  V30 5366 H 487.676 -6.34733 -4.18351 0
M  V30 5367 N 489.251 1.34841 -0.815825 0
M  V30 5368 C 490.184 2.27504 -0.178062 0
M  V30 5369 C 491.162 1.48542 0.661373 0
M  V30 5370 O 492.346 1.77779 0.626653 0
M  V30 5371 C 489.473 3.30246 0.752002 0
M  V30 5372 C 488.519 4.26499 -0.00899172 0
M  V30 5373 S 489.352 5.18169 -1.35134 0
M  V30 5374 C 490.508 6.24449 -0.42596 0
M  V30 5375 H 490.741 2.81248 -0.963684 0
M  V30 5376 H 488.274 1.41781 -0.611355 0
M  V30 5377 H 490.232 3.89933 1.28308 0
M  V30 5378 H 488.893 2.75363 1.51109 0
M  V30 5379 H 488.086 4.99146 0.697766 0
M  V30 5380 H 487.688 3.7103 -0.470396 0
M  V30 5381 H 489.98 6.76404 0.385234 0
M  V30 5382 H 490.923 6.99156 -1.1219 0
M  V30 5383 H 491.331 5.64497 -0.0175461 0
M  V30 5384 N 490.729 0.570148 1.46925 0
M  V30 5385 C 491.659 -0.158274 2.32963 0
M  V30 5386 C 492.64 -0.896093 1.44583 0
M  V30 5387 O 493.825 -0.874022 1.7342 0
M  V30 5388 C 490.955 -1.18055 3.26619 0
M  V30 5389 C 489.909 -0.558379 4.24342 0
M  V30 5390 C 489.235 -1.68623 5.07415 0
M  V30 5391 C 490.535 0.496295 5.19937 0
M  V30 5392 H 492.229 0.560046 2.94115 0
M  V30 5393 H 489.775 0.270775 1.41431 0
M  V30 5394 H 491.728 -1.69841 3.85658 0
M  V30 5395 H 490.452 -1.92899 2.63548 0
M  V30 5396 H 489.111 -0.0617157 3.66548 0
M  V30 5397 H 488.759 -2.42402 4.40738 0
M  V30 5398 H 488.459 -1.27564 5.73586 0
M  V30 5399 H 489.983 -2.20709 5.69315 0
M  V30 5400 H 491.397 0.0640052 5.73264 0
M  V30 5401 H 489.794 0.82649 5.94381 0
M  V30 5402 H 490.864 1.38735 4.6463 0
M  V30 5403 N 492.207 -1.54576 0.307264 0
M  V30 5404 C 493.435 -2.04675 -0.302597 0
M  V30 5405 C 493.85 -1.18425 -1.47041 0
M  V30 5406 O 493.207 -0.211257 -1.81273 0
M  V30 5407 C 493.258 -3.53575 -0.752801 0
M  V30 5408 O 492.979 -4.36547 0.368536 0
M  V30 5409 C 494.48 -4.19699 -1.42717 0
M  V30 5410 H 491.7 -0.66786 -0.0648374 0
M  V30 5411 H 494.244 -1.99516 0.448716 0
M  V30 5412 H 492.399 -3.59074 -1.45412 0
M  V30 5413 H 492.813 -5.24497 0.0168937 0
M  V30 5414 H 494.287 -5.25388 -1.69327 0
M  V30 5415 H 494.764 -3.69815 -2.36925 0
M  V30 5416 H 495.37 -4.18293 -0.768856 0
M  V30 5417 N 493.685 -0.035106 -1.57561 0
M  V30 5418 C 494.934 0.641604 -1.91223 0
M  V30 5419 C 495.247 1.72944 -0.913761 0
M  V30 5420 O 496.453 2.46321 -1.14185 0
M  V30 5421 C 494.909 1.19249 -3.3957 0
M  V30 5422 C 494.517 0.137616 -4.47789 0
M  V30 5423 C 496.261 1.84537 -3.82291 0
M  V30 5424 C 494.168 0.700478 -5.87237 0
M  V30 5425 H 493.098 0.243417 -0.713627 0
M  V30 5426 H 495.749 -0.101382 -1.8322 0
M  V30 5427 H 494.131 1.98728 -3.42525 0
M  V30 5428 H 495.305 -0.635153 -4.56402 0
M  V30 5429 H 493.62 -0.416855 -4.14308 0
M  V30 5430 H 496.217 2.27616 -4.83834 0
M  V30 5431 H 496.56 2.69054 -3.17672 0
M  V30 5432 H 497.093 1.11739 -3.81784 0
M  V30 5433 H 493.832 -0.106693 -6.55413 0
M  V30 5434 H 493.352 1.4416 -5.82218 0
M  V30 5435 H 495.031 1.18837 -6.35993 0
M  V30 5436 N 495.163 1.55791 0.238111 0
M  V30 5437 C 496.412 1.77234 0.962868 0
M  V30 5438 C 496.725 0.600661 1.86149 0
M  V30 5439 O 497.931 0.698315 2.62366 0
M  V30 5440 C 496.387 3.13808 1.76218 0
M  V30 5441 C 495.995 4.3865 0.910518 0
M  V30 5442 C 497.739 3.44585 2.47914 0
M  V30 5443 C 495.646 5.66252 1.70623 0
M  V30 5444 H 494.576 0.660731 0.36325 0
M  V30 5445 H 497.227 1.8221 0.217242 0
M  V30 5446 H 495.609 3.02963 2.55009 0
M  V30 5447 H 496.783 4.60507 0.164316 0
M  V30 5448 H 495.098 4.15271 0.30647 0
M  V30 5449 H 497.695 4.3714 3.07917 0
M  V30 5450 H 498.038 2.66314 3.19973 0
M  V30 5451 H 498.571 3.56685 1.76127 0
M  V30 5452 H 495.31 6.47369 1.02923 0
M  V30 5453 H 494.83 5.48483 2.42748 0
M  V30 5454 H 496.509 6.05829 2.27114 0
M  V30 5455 N 496.642 -0.504142 1.49319 0
M  V30 5456 C 497.572 -1.61473 1.68667 0
M  V30 5457 C 498.553 -1.61455 0.535378 0
M  V30 5458 O 499.738 -1.78245 0.770868 0
M  V30 5459 C 496.868 -2.99971 1.75028 0
M  V30 5460 C 495.822 -3.14854 2.89916 0
M  V30 5461 C 495.148 -4.54671 2.81387 0
M  V30 5462 C 496.448 -2.95176 4.30893 0
M  V30 5463 H 498.142 -1.45535 2.61648 0
M  V30 5464 H 495.688 -0.698711 1.25913 0
M  V30 5465 H 497.641 -3.77562 1.8715 0
M  V30 5466 H 496.365 -3.1699 0.786441 0
M  V30 5467 H 495.024 -2.39687 2.77391 0
M  V30 5468 H 494.672 -4.68562 1.82917 0
M  V30 5469 H 494.372 -4.6557 3.58494 0
M  V30 5470 H 495.896 -5.34327 2.95512 0
M  V30 5471 H 497.31 -3.62538 4.44116 0
M  V30 5472 H 495.707 -3.17549 5.09198 0
M  V30 5473 H 496.777 -1.91332 4.45556 0
M  V30 5474 N 498.12 -1.38341 -0.754957 0
M  V30 5475 C 499.531 -1.30803 -1.3322 0
M  V30 5476 C 499.882 0.0368 -1.96165 0
M  V30 5477 O 499.007 0.938844 -1.94974 0
M  V30 5478 C 499.602 -2.3688 -2.42225 0
M  V30 5479 C 498.161 -2.32925 -2.95674 0
M  V30 5480 C 497.308 -2.19819 -1.69042 0
M  V30 5481 H 500.259 -1.48719 -0.553937 0
M  V30 5482 H 500.28 -2.02517 -3.22129 0
M  V30 5483 H 499.792 -3.34747 -1.96383 0
M  V30 5484 H 497.893 -1.38635 -3.45848 0
M  V30 5485 H 498.006 -3.27008 -3.50146 0
M  V30 5486 H 496.37 -1.66648 -1.92615 0
M  V30 5487 H 497.153 -3.19625 -1.25279 0
M  V30 5488 N 499.598 0.982988 -1.23187 0
M  V30 5489 C 500.546 2.09616 -1.00817 0
M  V30 5490 C 501.54 1.6932 0.0519995 0
M  V30 5491 O 502.746 1.79715 -0.101284 0
M  V30 5492 H 499.121 0.685628 -0.308899 0
M  V30 5493 H 501.092 2.25652 -1.95253 0
M  V30 5494 C 499.841 3.42249 -0.613243 0
M  V30 5495 H 499.164 3.73705 -1.42073 0
M  V30 5496 H 500.604 4.21086 -0.496208 0
M  V30 5497 C 499.063 3.30002 0.678233 0
M  V30 5498 O 499.593 3.6263 1.72807 0
M  V30 5499 N 497.799 2.83164 0.653165 0
M  V30 5500 H 497.346 2.56811 -0.201492 0
M  V30 5501 H 497.304 2.75352 1.51752 0
M  V30 5502 N 501.076 1.04316 1.18135 0
M  V30 5503 C 502.325 0.74319 1.87509 0
M  V30 5504 C 502.638 -0.732136 1.81381 0
M  V30 5505 O 503.844 -1.14572 2.46141 0
M  V30 5506 C 502.3 1.27913 3.36402 0
M  V30 5507 C 501.908 2.78326 3.51053 0
M  V30 5508 C 503.652 1.0558 4.11161 0
M  V30 5509 C 501.559 3.25266 4.93919 0
M  V30 5510 H 500.489 0.274313 0.702331 0
M  V30 5511 H 503.14 1.25931 1.33467 0
M  V30 5512 H 501.522 0.690853 3.89927 0
M  V30 5513 H 502.696 3.42933 3.07788 0
M  V30 5514 H 501.011 2.991 2.89704 0
M  V30 5515 H 503.608 1.38161 5.16542 0
M  V30 5516 H 503.951 -0.00684729 4.16299 0
M  V30 5517 H 504.484 1.60882 3.63816 0
M  V30 5518 H 501.223 4.30922 4.9395 0
M  V30 5519 H 500.743 2.65396 5.3789 0
M  V30 5520 H 502.422 3.19433 5.62647 0
M  V30 5521 N 502.554 -1.34406 0.822964 0
M  V30 5522 C 503.782 -2.02508 0.424039 0
M  V30 5523 C 504.197 -1.61975 -0.970022 0
M  V30 5524 O 503.554 -0.825228 -1.62777 0
M  V30 5525 C 503.605 -3.57789 0.516657 0
M  V30 5526 O 503.326 -3.96853 1.85577 0
M  V30 5527 C 504.827 -4.43157 0.112637 0
M  V30 5528 H 502.047 -0.649063 0.170173 0
M  V30 5529 H 504.591 -1.7168 1.11113 0
M  V30 5530 H 502.746 -3.87207 -0.122353 0
M  V30 5531 H 503.16 -4.91538 1.83005 0
M  V30 5532 H 504.634 -5.51527 0.228526 0
M  V30 5533 H 505.111 -4.28939 -0.943837 0
M  V30 5534 H 505.717 -4.19067 0.725449 0
M  V30 5535 N 504.032 -0.577932 -1.46621 0
M  V30 5536 C 504.942 0.160651 -2.34049 0
M  V30 5537 C 505.958 0.890911 -1.49462 0
M  V30 5538 O 507.134 0.855166 -1.82343 0
M  V30 5539 C 504.199 1.16447 -3.26559 0
M  V30 5540 C 503.26 0.4394 -4.27045 0
M  V30 5541 C 502.493 1.3954 -5.15135 0
M  V30 5542 O 502.716 2.63162 -5.06065 0
M  V30 5543 O 501.65 0.908585 -5.95003 0
M  V30 5544 H 505.476 -0.557057 -2.98547 0
M  V30 5545 H 503.061 -0.338369 -1.45518 0
M  V30 5546 H 504.943 1.7434 -3.83645 0
M  V30 5547 H 503.618 1.86373 -2.64663 0
M  V30 5548 H 502.525 -0.181247 -3.73661 0
M  V30 5549 H 503.858 -0.218799 -4.91713 0
M  V30 5550 N 505.51 1.54411 -0.315457 0
M  V30 5551 C 506.74 2.04536 0.291315 0
M  V30 5552 C 507.148 1.19162 1.4696 0
M  V30 5553 O 506.491 0.213199 1.82459 0
M  V30 5554 C 506.553 3.5056 0.796725 0
M  V30 5555 C 506.217 4.5627 -0.258178 0
M  V30 5556 C 507.214 5.08312 -1.09153 0
M  V30 5557 C 504.899 5.00672 -0.404036 0
M  V30 5558 C 506.893 6.03312 -2.05655 0
M  V30 5559 C 504.58 5.95488 -1.37248 0
M  V30 5560 C 505.578 6.46693 -2.19721 0
M  V30 5561 O 505.266 7.39648 -3.14921 0
M  V30 5562 H 504.998 0.672856 0.0651165 0
M  V30 5563 H 507.552 2.00244 -0.457308 0
M  V30 5564 H 505.782 3.52223 1.59612 0
M  V30 5565 H 507.471 3.83804 1.32096 0
M  V30 5566 H 508.237 4.74793 -0.98979 0
M  V30 5567 H 504.116 4.60436 0.22799 0
M  V30 5568 H 507.66 6.43203 -2.70067 0
M  V30 5569 H 503.557 6.28424 -1.47489 0
M  V30 5570 H 504.325 7.57496 -3.10067 0
M  V30 5571 N 506.988 0.0434614 1.5754 0
M  V30 5572 C 507.921 -0.968729 2.06618 0
M  V30 5573 C 508.899 -1.30868 0.965 0
M  V30 5574 O 510.083 -1.42288 1.23638 0
M  V30 5575 C 507.21 -2.28486 2.50023 0
M  V30 5576 C 506.256 -2.09851 3.71302 0
M  V30 5577 S 507.089 -1.38401 5.17306 0
M  V30 5578 C 508.245 -2.71354 5.64019 0
M  V30 5579 H 508.478 -0.551021 2.92149 0
M  V30 5580 H 506.011 -0.168607 1.53477 0
M  V30 5581 H 507.969 -3.04142 2.75695 0
M  V30 5582 H 506.63 -2.67387 1.64812 0
M  V30 5583 H 505.823 -3.07184 3.99567 0
M  V30 5584 H 505.425 -1.42336 3.45856 0
M  V30 5585 H 507.717 -3.67549 5.69134 0
M  V30 5586 H 508.66 -2.47734 6.6335 0
M  V30 5587 H 509.068 -2.77259 4.91719 0
M  V30 5588 N 508.466 -1.55915 -0.229846 0
M  V30 5589 C 509.413 -1.91734 -1.28478 0
M  V30 5590 C 510.383 -0.773539 -1.46988 0
M  V30 5591 O 511.568 -1.02871 -1.60693 0
M  V30 5592 C 508.708 -2.23224 -2.63182 0
M  V30 5593 C 507.821 -3.50497 -2.52539 0
M  V30 5594 C 506.956 -3.71474 -3.79711 0
M  V30 5595 C 505.995 -4.92289 -3.63755 0
M  V30 5596 N 505.132 -5.09698 -4.82858 0
M  V30 5597 H 509.972 -2.81692 -0.972308 0
M  V30 5598 H 507.509 -1.39429 -0.468815 0
M  V30 5599 H 509.467 -2.3949 -3.41614 0
M  V30 5600 H 508.097 -1.36451 -2.92542 0
M  V30 5601 H 507.149 -3.4247 -1.65585 0
M  V30 5602 H 508.461 -4.39079 -2.36666 0
M  V30 5603 H 507.615 -3.87791 -4.66586 0
M  V30 5604 H 506.354 -2.81157 -3.985 0
M  V30 5605 H 505.359 -4.7593 -2.75264 0
M  V30 5606 H 506.584 -5.84083 -3.46445 0
M  V30 5607 H 504.53 -4.22322 -5.01976 0
M  V30 5608 H 504.447 -5.92399 -4.69681 0
M  V30 5609 H 505.715 -5.30443 -5.71183 0
M  V30 5610 N 509.944 0.496216 -1.49584 0
M  V30 5611 C 510.907 1.57952 -1.66084 0
M  V30 5612 C 511.907 1.51729 -0.53244 0
M  V30 5613 O 513.097 1.54796 -0.79899 0
M  V30 5614 C 510.229 2.97604 -1.66268 0
M  V30 5615 H 511.422 1.44649 -2.6271 0
M  V30 5616 H 508.975 0.7208 -1.38687 0
M  V30 5617 H 509.71 3.16378 -0.712432 0
M  V30 5618 H 509.495 3.03528 -2.4822 0
M  V30 5619 H 510.985 3.76301 -1.81073 0
M  V30 5620 N 511.423 1.38739 0.74761 0
M  V30 5621 C 512.353 1.39173 1.87492 0
M  V30 5622 C 513.334 0.256794 1.6815 0
M  V30 5623 O 514.519 0.460762 1.88655 0
M  V30 5624 C 511.649 1.22197 3.25093 0
M  V30 5625 C 510.603 2.32957 3.59047 0
M  V30 5626 C 509.929 2.01082 4.95449 0
M  V30 5627 C 511.229 3.75237 3.6331 0
M  V30 5628 H 512.923 2.3351 1.87386 0
M  V30 5629 H 510.469 1.12399 0.900134 0
M  V30 5630 H 512.422 1.21124 4.03617 0
M  V30 5631 H 511.146 0.243241 3.25693 0
M  V30 5632 H 509.805 2.33226 2.82845 0
M  V30 5633 H 509.453 1.01678 4.92616 0
M  V30 5634 H 509.153 2.75267 5.19136 0
M  V30 5635 H 510.677 2.01638 5.76346 0
M  V30 5636 H 512.091 3.76966 4.31937 0
M  V30 5637 H 510.488 4.48677 3.98509 0
M  V30 5638 H 511.558 4.07122 2.634 0
M  V30 5639 N 512.901 -0.976442 1.23707 0
M  V30 5640 C 513.811 -2.10359 1.03856 0
M  V30 5641 C 514.827 -1.73991 -0.0180919 0
M  V30 5642 O 516.003 -2.0061 0.178211 0
M  V30 5643 C 513.068 -3.40809 0.636387 0
M  V30 5644 C 512.129 -3.91179 1.76854 0
M  V30 5645 C 511.362 -5.15404 1.38546 0
M  V30 5646 O 511.585 -5.69754 0.27142 0
M  V30 5647 O 510.519 -5.5994 2.20797 0
M  V30 5648 H 514.345 -2.29997 1.98331 0
M  V30 5649 H 511.93 -1.08742 1.02448 0
M  V30 5650 H 513.812 -4.19269 0.423223 0
M  V30 5651 H 512.487 -3.22493 -0.279322 0
M  V30 5652 H 511.394 -3.13819 2.03638 0
M  V30 5653 H 512.727 -4.13958 2.6627 0
M  V30 5654 N 514.379 -1.04941 -1.1758 0
M  V30 5655 C 515.342 -0.652456 -2.19717 0
M  V30 5656 C 516.342 0.294745 -1.58076 0
M  V30 5657 O 517.532 0.0789579 -1.74021 0
M  V30 5658 C 514.664 0.0420712 -3.40874 0
M  V30 5659 H 515.857 -1.55642 -2.5635 0
M  V30 5660 H 513.41 -0.842995 -1.31618 0
M  V30 5661 H 514.145 0.95943 -3.09783 0
M  V30 5662 H 513.93 -0.638844 -3.86861 0
M  V30 5663 H 515.42 0.306 -4.16477 0
M  V30 5664 N 515.857 1.33968 -0.830081 0
M  V30 5665 C 517.085 2.0228 -0.434773 0
M  V30 5666 C 517.5 1.62487 0.961419 0
M  V30 5667 O 516.857 0.833849 1.62337 0
M  V30 5668 C 516.908 3.5751 -0.535625 0
M  V30 5669 O 516.629 3.95864 -1.87679 0
M  V30 5670 C 518.13 4.43091 -0.136137 0
M  V30 5671 H 515.35 0.648151 -0.173613 0
M  V30 5672 H 517.894 1.71089 -1.12022 0
M  V30 5673 H 516.049 3.87266 0.101817 0
M  V30 5674 H 516.463 4.9056 -1.85609 0
M  V30 5675 H 517.937 5.51398 -0.257772 0
M  V30 5676 H 518.414 4.29433 0.921076 0
M  V30 5677 H 519.02 4.18677 -0.747662 0
M  V30 5678 N 517.335 0.585699 1.46312 0
M  V30 5679 C 518.283 -0.158577 2.32059 0
M  V30 5680 C 519.277 -0.881427 1.44662 0
M  V30 5681 O 520.483 -0.799476 1.61271 0
M  V30 5682 H 516.858 -0.0700066 0.748734 0
M  V30 5683 H 518.829 0.583383 2.92642 0
M  V30 5684 C 517.578 -1.15701 3.27885 0
M  V30 5685 H 516.901 -0.610215 3.95116 0
M  V30 5686 H 518.341 -1.64812 3.90657 0
M  V30 5687 C 516.8 -2.21951 2.53455 0
M  V30 5688 O 517.33 -3.29352 2.29978 0
M  V30 5689 N 515.536 -1.9664 2.13965 0
M  V30 5690 H 515.083 -1.09309 2.33258 0
M  V30 5691 H 515.041 -2.6794 1.64485 0
M  V30 5692 N 518.813 -1.54241 0.323641 0
M  V30 5693 C 520.038 -2.05452 -0.283605 0
M  V30 5694 C 520.463 -1.19823 -1.44997 0
M  V30 5695 O 519.821 -0.207358 -1.8011 0
M  V30 5696 C 519.869 -3.53823 -0.695795 0
M  V30 5697 O 518.973 -3.71134 -1.79815 0
M  V30 5698 H 518.314 -0.662024 -0.0511917 0
M  V30 5699 H 520.844 -1.99079 0.472073 0
M  V30 5700 H 520.854 -3.96094 -0.978434 0
M  V30 5701 H 519.529 -4.15602 0.157287 0
M  V30 5702 H 518.106 -3.40768 -1.51431 0
M  V30 5703 N 520.291 -0.0518155 -1.57515 0
M  V30 5704 C 521.221 0.920283 -2.146 0
M  V30 5705 C 522.202 1.32406 -1.06783 0
M  V30 5706 O 523.387 1.39866 -1.34726 0
M  V30 5707 C 520.517 2.1949 -2.6915 0
M  V30 5708 C 519.471 1.93116 -3.81956 0
M  V30 5709 C 518.797 3.27037 -4.23026 0
M  V30 5710 C 520.097 1.25225 -5.07066 0
M  V30 5711 H 521.791 0.444801 -2.96077 0
M  V30 5712 H 519.337 0.212508 -1.42423 0
M  V30 5713 H 521.29 2.87894 -3.07725 0
M  V30 5714 H 520.014 2.69244 -1.84865 0
M  V30 5715 H 518.673 1.27123 -3.43854 0
M  V30 5716 H 518.321 3.74595 -3.3569 0
M  V30 5717 H 518.021 3.10189 -4.99056 0
M  V30 5718 H 519.545 3.96673 -4.64202 0
M  V30 5719 H 520.959 1.83666 -5.43083 0
M  V30 5720 H 519.356 1.18702 -5.88243 0
M  V30 5721 H 520.426 0.228382 -4.84362 0
M  V30 5722 N 521.769 1.56035 0.221574 0
M  V30 5723 C 522.999 1.82864 0.961468 0
M  V30 5724 C 523.407 0.628703 1.78449 0
M  V30 5725 O 522.75 -0.412109 1.79018 0
M  V30 5726 C 522.812 3.03425 1.92804 0
M  V30 5727 C 522.476 4.38429 1.28954 0
M  V30 5728 C 523.473 5.15441 0.679431 0
M  V30 5729 C 521.158 4.85151 1.30131 0
M  V30 5730 C 523.152 6.37337 0.0896148 0
M  V30 5731 C 520.839 6.06989 0.707651 0
M  V30 5732 C 521.837 6.82923 0.102855 0
M  V30 5733 O 521.525 8.02456 -0.48157 0
M  V30 5734 H 521.257 0.611883 0.28736 0
M  V30 5735 H 523.811 2.0397 0.241932 0
M  V30 5736 H 522.041 2.78138 2.68656 0
M  V30 5737 H 523.73 3.17127 2.53348 0
M  V30 5738 H 524.496 4.80452 0.662661 0
M  V30 5739 H 520.375 4.26021 1.76145 0
M  V30 5740 H 523.919 6.96547 -0.383069 0
M  V30 5741 H 519.816 6.41451 0.721834 0
M  V30 5742 H 520.584 8.17636 -0.375887 0
M  V30 5743 N 523.247 -0.488276 1.49845 0
M  V30 5744 C 524.157 -1.61451 1.70207 0
M  V30 5745 C 525.173 -1.63877 0.584846 0
M  V30 5746 O 526.349 -1.82063 0.861107 0
M  V30 5747 C 523.414 -2.9776 1.77594 0
M  V30 5748 C 522.475 -3.05861 3.01243 0
M  V30 5749 C 521.708 -4.35668 3.08268 0
M  V30 5750 O 521.931 -5.25197 2.22541 0
M  V30 5751 O 520.865 -4.49005 4.00847 0
M  V30 5752 H 524.691 -1.47199 2.65643 0
M  V30 5753 H 522.276 -0.665939 1.33737 0
M  V30 5754 H 524.158 -3.7875 1.84732 0
M  V30 5755 H 522.833 -3.12248 0.8534 0
M  V30 5756 H 521.74 -2.24012 2.99616 0
M  V30 5757 H 523.073 -2.96304 3.9302 0
M  V30 5758 N 524.725 -1.39134 -0.740242 0
M  V30 5759 C 525.974 -1.35384 -1.49512 0
M  V30 5760 C 526.287 0.04919 -1.95538 0
M  V30 5761 O 527.493 0.209257 -2.70692 0
M  V30 5762 C 525.949 -2.37812 -2.70136 0
M  V30 5763 C 525.557 -3.83804 -2.31081 0
M  V30 5764 C 527.301 -2.4313 -3.47977 0
M  V30 5765 C 525.208 -4.77886 -3.48395 0
M  V30 5766 H 524.138 -0.503297 -0.561434 0
M  V30 5767 H 526.789 -1.64754 -0.807974 0
M  V30 5768 H 525.171 -2.01505 -3.40899 0
M  V30 5769 H 526.345 -4.29123 -1.67898 0
M  V30 5770 H 524.66 -3.81732 -1.66343 0
M  V30 5771 H 527.257 -3.10614 -4.35228 0
M  V30 5772 H 527.6 -1.45423 -3.90074 0
M  V30 5773 H 528.133 -2.78304 -2.84239 0
M  V30 5774 H 524.872 -5.76836 -3.11353 0
M  V30 5775 H 524.392 -4.3725 -4.10576 0
M  V30 5776 H 526.071 -4.96538 -4.148 0
M  V30 5777 N 526.204 0.969867 -1.24223 0
M  V30 5778 C 527.453 1.70687 -1.07466 0
M  V30 5779 C 527.766 1.91736 0.386861 0
M  V30 5780 O 528.972 2.62986 0.674581 0
M  V30 5781 C 527.428 3.07217 -1.87472 0
M  V30 5782 C 527.036 2.94018 -3.3802 0
M  V30 5783 C 528.78 3.84804 -1.79237 0
M  V30 5784 C 526.687 4.25844 -4.10379 0
M  V30 5785 H 525.617 0.640067 -0.398536 0
M  V30 5786 H 528.268 1.08092 -1.48285 0
M  V30 5787 H 526.65 3.70628 -1.39466 0
M  V30 5788 H 527.824 2.39632 -3.9359 0
M  V30 5789 H 526.139 2.29898 -3.47183 0
M  V30 5790 H 528.736 4.82417 -2.30603 0
M  V30 5791 H 529.079 4.09356 -0.757197 0
M  V30 5792 H 529.612 3.28115 -2.24912 0
M  V30 5793 H 526.351 4.06486 -5.14246 0
M  V30 5794 H 525.871 4.80054 -3.59594 0
M  V30 5795 H 527.55 4.94475 -4.17257 0
M  V30 5796 N 527.682 1.05563 1.17022 0
M  V30 5797 C 528.63 0.653887 2.2322 0
M  V30 5798 C 529.624 -0.326642 1.66221 0
M  V30 5799 O 530.83 -0.192301 1.7897 0
M  V30 5800 H 527.205 0.193297 0.726733 0
M  V30 5801 H 529.176 1.5596 2.54399 0
M  V30 5802 C 527.925 0.0485434 3.47666 0
M  V30 5803 H 527.248 0.79413 3.91834 0
M  V30 5804 H 528.688 -0.195133 4.23551 0
M  V30 5805 C 527.147 -1.20583 3.14581 0
M  V30 5806 O 527.677 -2.29475 3.29703 0
M  V30 5807 N 525.883 -1.10493 2.68774 0
M  V30 5808 H 525.43 -0.218795 2.56669 0
M  V30 5809 H 525.388 -1.94507 2.47011 0
M  V30 5810 N 529.16 -1.33526 0.837174 0
M  V30 5811 C 530.576 -1.50727 0.524743 0
M  V30 5812 C 530.776 -1.77792 -0.948279 0
M  V30 5813 O 529.832 -1.83719 -1.73216 0
M  V30 5814 C 531.145 -2.66299 1.39661 0
M  V30 5815 C 532.693 -2.80183 1.39521 0
M  V30 5816 C 533.168 -3.98815 2.25189 0
M  V30 5817 N 534.659 -4.06047 2.2289 0
M  V30 5818 C 535.394 -4.97032 2.85915 0
M  V30 5819 N 534.89 -5.93143 3.57985 0
M  V30 5820 N 536.683 -4.90015 2.75394 0
M  V30 5821 H 528.834 -1.1422 1.79074 0
M  V30 5822 H 531.097 -0.561399 0.763894 0
M  V30 5823 H 530.803 -2.52974 2.4433 0
M  V30 5824 H 530.677 -3.61663 1.07145 0
M  V30 5825 H 533.064 -2.92942 0.356253 0
M  V30 5826 H 533.145 -1.85586 1.76044 0
M  V30 5827 H 532.789 -3.86817 3.29143 0
M  V30 5828 H 532.719 -4.92654 1.86009 0
M  V30 5829 H 535.21 -3.37262 1.70478 0
M  V30 5830 H 535.523 -6.59227 4.03286 0
M  V30 5831 H 533.868 -5.93223 3.62093 0
M  V30 5832 H 537.059 -4.13894 2.18654 0
M  V30 5833 H 537.232 -5.60724 3.24796 0
M  V30 5834 N 530.638 -0.59345 -1.46 0
M  V30 5835 C 531.585 0.133618 -2.30413 0
M  V30 5836 C 532.555 0.873736 -1.41262 0
M  V30 5837 O 533.74 0.862279 -1.70204 0
M  V30 5838 C 530.88 1.13434 -3.25924 0
M  V30 5839 C 529.993 0.39656 -4.30176 0
M  V30 5840 C 529.128 1.38575 -5.12806 0
M  V30 5841 C 528.167 0.634984 -6.08797 0
M  V30 5842 N 527.304 1.57276 -6.84258 0
M  V30 5843 H 532.144 -0.592252 -2.92055 0
M  V30 5844 H 529.681 -0.303874 -1.43927 0
M  V30 5845 H 531.639 1.72752 -3.79753 0
M  V30 5846 H 530.269 1.82779 -2.66067 0
M  V30 5847 H 529.321 -0.311861 -3.79119 0
M  V30 5848 H 530.633 -0.189869 -4.98438 0
M  V30 5849 H 529.787 2.05141 -5.70966 0
M  V30 5850 H 528.526 2.00611 -4.44529 0
M  V30 5851 H 527.531 -0.0443925 -5.49782 0
M  V30 5852 H 528.756 0.0198678 -6.79097 0
M  V30 5853 H 526.702 2.18103 -6.18682 0
M  V30 5854 H 526.619 1.03941 -7.48821 0
M  V30 5855 H 527.887 2.22844 -7.46968 0
M  V30 5856 N 532.116 1.54067 -0.331816 0
M  V30 5857 C 533.527 1.86059 0.15454 0
M  V30 5858 C 533.878 1.25331 1.50952 0
M  V30 5859 O 533.003 0.562441 2.08963 0
M  V30 5860 C 533.598 3.37581 0.287192 0
M  V30 5861 C 532.157 3.69493 0.717773 0
M  V30 5862 C 531.304 2.76863 -0.155569 0
M  V30 5863 H 534.255 1.48797 -0.55182 0
M  V30 5864 H 534.276 3.63744 1.11671 0
M  V30 5865 H 533.788 3.81751 -0.699131 0
M  V30 5866 H 531.889 3.3086 1.71354 0
M  V30 5867 H 532.002 4.76315 0.5158 0
M  V30 5868 H 530.366 2.51995 0.370213 0
M  V30 5869 H 531.149 3.23861 -1.13881 0
M  V30 5870 N 533.594 0.0601682 1.57485 0
M  V30 5871 C 534.524 -0.90889 2.15085 0
M  V30 5872 C 535.505 -1.31838 1.07484 0
M  V30 5873 O 536.69 -1.3915 1.35466 0
M  V30 5874 C 533.82 -2.18059 2.7031 0
M  V30 5875 C 532.774 -1.91088 3.82974 0
M  V30 5876 C 532.1 -3.24789 4.24754 0
M  V30 5877 C 533.4 -1.22535 5.07723 0
M  V30 5878 H 535.094 -0.429093 2.96309 0
M  V30 5879 H 532.64 -0.204952 1.42534 0
M  V30 5880 H 534.593 -2.86258 3.09248 0
M  V30 5881 H 533.317 -2.6826 1.8629 0
M  V30 5882 H 531.976 -1.25297 3.44523 0
M  V30 5883 H 531.624 -3.72809 3.37672 0
M  V30 5884 H 531.324 -3.07538 5.00694 0
M  V30 5885 H 532.848 -3.94205 4.66299 0
M  V30 5886 H 534.262 -1.80783 5.4405 0
M  V30 5887 H 532.659 -1.1558 5.88864 0
M  V30 5888 H 533.729 -0.202692 4.84476 0
M  V30 5889 N 535.072 -1.5615 -0.213296 0
M  V30 5890 C 536.318 -1.79812 -0.937849 0
M  V30 5891 C 536.651 -0.631201 -1.83656 0
M  V30 5892 O 535.926 0.369165 -1.90964 0
M  V30 5893 C 536.209 -3.13613 -1.76972 0
M  V30 5894 C 536.062 -4.40766 -0.89695 0
M  V30 5895 C 537.381 -3.43931 -2.7459 0
M  V30 5896 H 534.5 -0.654138 -0.339518 0
M  V30 5897 H 537.142 -1.88877 -0.20623 0
M  V30 5898 H 535.292 -3.06015 -2.39347 0
M  V30 5899 H 536.964 -4.60392 -0.289306 0
M  V30 5900 H 535.207 -4.33326 -0.202756 0
M  V30 5901 H 535.878 -5.30843 -1.51358 0
M  V30 5902 H 538.354 -3.5171 -2.22349 0
M  V30 5903 H 537.23 -4.38706 -3.29891 0
M  V30 5904 H 537.491 -2.6651 -3.52739 0
M  V30 5905 N 536.55 0.480323 -1.50102 0
M  V30 5906 C 537.46 1.60547 -1.71061 0
M  V30 5907 C 538.476 1.63564 -0.593529 0
M  V30 5908 O 539.652 1.81604 -0.870751 0
M  V30 5909 C 536.717 2.96814 -1.79171 0
M  V30 5910 C 535.778 3.04259 -3.02861 0
M  V30 5911 C 535.011 4.34027 -3.10574 0
M  V30 5912 O 535.234 5.24009 -2.25323 0
M  V30 5913 O 534.168 4.46873 -4.03223 0
M  V30 5914 H 537.994 1.45788 -2.6642 0
M  V30 5915 H 535.579 0.658838 -1.34088 0
M  V30 5916 H 537.461 3.77765 -1.86738 0
M  V30 5917 H 536.136 3.11791 -0.869947 0
M  V30 5918 H 535.043 2.22419 -3.008 0
M  V30 5919 H 536.376 2.94216 -3.94586 0
M  V30 5920 N 538.028 1.39524 0.732853 0
M  V30 5921 C 538.976 1.38563 1.86824 0
M  V30 5922 C 539.97 0.268467 1.67259 0
M  V30 5923 O 541.176 0.438613 1.74574 0
M  V30 5924 H 537.551 0.432737 0.615014 0
M  V30 5925 H 539.522 2.34328 1.84751 0
M  V30 5926 C 538.271 1.2481 3.24527 0
M  V30 5927 H 537.594 2.10044 3.40179 0
M  V30 5928 H 539.034 1.28194 4.04156 0
M  V30 5929 C 537.493 -0.0432825 3.36872 0
M  V30 5930 O 538.023 -1.01268 3.88726 0
M  V30 5931 N 536.229 -0.107055 2.90403 0
M  V30 5932 H 535.776 0.682512 2.48394 0
M  V30 5933 H 535.734 -0.970618 2.99042 0
M  V30 5934 N 539.506 -0.963266 1.24736 0
M  V30 5935 C 540.454 -2.07985 1.04139 0
M  V30 5936 C 541.448 -1.69381 -0.0250556 0
M  V30 5937 O 542.654 -1.79531 0.129863 0
M  V30 5938 H 539.029 -0.680627 0.319768 0
M  V30 5939 H 541 -2.22517 1.98818 0
M  V30 5940 C 539.749 -3.4123 0.667615 0
M  V30 5941 H 539.072 -3.71397 1.48 0
M  V30 5942 H 540.512 -4.20244 0.563136 0
M  V30 5943 C 538.971 -3.3104 -0.625647 0
M  V30 5944 O 539.501 -3.65334 -1.67016 0
M  V30 5945 N 537.707 -2.84168 -0.608033 0
M  V30 5946 H 537.254 -2.56458 0.242323 0
M  V30 5947 H 537.212 -2.77732 -1.47352 0
M  V30 5948 N 540.985 -1.06182 -1.16461 0
M  V30 5949 C 542.262 -0.691364 -1.82974 0
M  V30 5950 C 542.642 0.827377 -1.9421 0
M  V30 5951 O 541.99 1.73723 -1.48434 0
M  V30 5952 C 542.2 -1.39199 -3.20038 0
M  V30 5953 C 543.548 -1.53647 -3.95825 0
M  V30 5954 O 544.572 -1.35181 -3.29552 0
M  V30 5955 O 543.431 -1.83932 -5.14618 0
M  V30 5956 H 540.525 -0.244605 -0.789998 0
M  V30 5957 H 543.071 -1.16203 -1.23673 0
M  V30 5958 H 541.843 -2.42766 -3.06888 0
M  V30 5959 H 541.466 -0.911335 -3.87015 0
M  V30 5960 N 542.463 1.3308 -0.844243 0
M  V30 5961 C 543.74 1.92178 -0.364261 0
M  V30 5962 C 544.12 1.76961 1.15101 0
M  V30 5963 O 543.468 1.16128 1.9679 0
M  V30 5964 C 543.678 3.393 -0.817106 0
M  V30 5965 C 545.026 4.16444 -0.828236 0
M  V30 5966 O 546.05 3.47975 -0.761062 0
M  V30 5967 O 544.909 5.38685 -0.920926 0
M  V30 5968 H 542.003 0.820411 -0.10419 0
M  V30 5969 H 544.549 1.41918 -0.930453 0
M  V30 5970 H 543.321 3.44272 -1.85991 0
M  V30 5971 H 542.944 3.96947 -0.227785 0
M  V30 5972 N 543.941 0.601185 1.45683 0
M  V30 5973 C 545.189 0.0936957 2.01883 0
M  V30 5974 C 545.51 -1.2779 1.47291 0
M  V30 5975 O 544.78 -1.84279 0.664691 0
M  V30 5976 H 543.36 0.0316466 0.746329 0
M  V30 5977 H 546.022 0.781137 1.78562 0
M  V30 5978 H 545.118 0.0386297 3.12076 0
M  V30 5979 N 545.419 -1.53889 0.339982 0
M  V30 5980 C 546.329 -2.28604 -0.526988 0
M  V30 5981 C 547.345 -1.33578 -1.11503 0
M  V30 5982 O 548.521 -1.66612 -1.13148 0
M  V30 5983 C 545.586 -3.04164 -1.66389 0
M  V30 5984 C 544.647 -4.14809 -1.10599 0
M  V30 5985 C 543.88 -4.86756 -2.18871 0
M  V30 5986 O 544.103 -4.58343 -3.39526 0
M  V30 5987 O 543.037 -5.73289 -1.83366 0
M  V30 5988 H 546.863 -3.03594 0.0802707 0
M  V30 5989 H 544.448 -1.4903 0.105141 0
M  V30 5990 H 546.33 -3.51427 -2.32544 0
M  V30 5991 H 545.005 -2.32035 -2.25703 0
M  V30 5992 H 543.912 -3.71857 -0.409067 0
M  V30 5993 H 545.245 -4.89029 -0.557771 0
M  V30 5994 N 546.897 -0.0685191 -1.57451 0
M  V30 5995 C 548.125 0.610462 -1.97689 0
M  V30 5996 C 548.54 1.63346 -0.946758 0
M  V30 5997 O 547.897 1.82377 0.0669868 0
M  V30 5998 C 547.948 1.28196 -3.38006 0
M  V30 5999 O 547.669 0.299906 -4.37072 0
M  V30 6000 C 549.17 2.04907 -3.931 0
M  V30 6001 H 546.39 0.165689 -0.650222 0
M  V30 6002 H 548.934 -0.139953 -2.04021 0
M  V30 6003 H 547.089 1.98348 -3.32771 0
M  V30 6004 H 547.503 0.78126 -5.18649 0
M  V30 6005 H 548.977 2.47287 -4.93511 0
M  V30 6006 H 549.454 2.9043 -3.29465 0
M  V30 6007 H 550.06 1.39629 -4.01726 0
M  V30 6008 N 548.375 1.56261 0.205012 0
M  V30 6009 C 549.305 1.96779 1.257 0
M  V30 6010 C 550.286 0.838309 1.48008 0
M  V30 6011 O 551.471 1.10189 1.59913 0
M  V30 6012 C 548.601 2.29876 2.60335 0
M  V30 6013 C 547.555 3.45469 2.52656 0
M  V30 6014 C 546.881 3.64215 3.91473 0
M  V30 6015 C 548.181 4.79954 2.06014 0
M  V30 6016 H 549.875 2.84904 0.920338 0
M  V30 6017 H 547.421 1.37072 0.441277 0
M  V30 6018 H 549.374 2.56814 3.34102 0
M  V30 6019 H 548.098 1.38622 2.95722 0
M  V30 6020 H 546.757 3.18605 1.81345 0
M  V30 6021 H 546.405 2.70309 4.24196 0
M  V30 6022 H 546.105 4.41973 3.87213 0
M  V30 6023 H 547.629 3.93519 4.66878 0
M  V30 6024 H 549.043 5.05989 2.69533 0
M  V30 6025 H 547.44 5.61111 2.12777 0
M  V30 6026 H 548.51 4.74201 1.01297 0
M  V30 6027 N 549.853 -0.472356 1.50355 0
M  V30 6028 C 551.264 -1.05326 1.54154 0
M  V30 6029 C 551.615 -1.93155 0.344303 0
M  V30 6030 O 550.74 -2.09479 -0.542928 0
M  V30 6031 C 551.335 -1.91691 2.79356 0
M  V30 6032 C 549.894 -2.44892 2.8584 0
M  V30 6033 C 549.041 -1.23205 2.48426 0
M  V30 6034 H 551.992 -0.255027 1.56637 0
M  V30 6035 H 552.013 -2.76742 2.6114 0
M  V30 6036 H 551.525 -1.27741 3.66475 0
M  V30 6037 H 549.626 -3.12399 2.0307 0
M  V30 6038 H 549.739 -2.80086 3.88701 0
M  V30 6039 H 548.103 -1.56643 2.00836 0
M  V30 6040 H 548.886 -0.609194 3.37852 0
M  V30 6041 N 551.331 -1.39911 -0.725443 0
M  V30 6042 C 552.279 -1.39552 -1.86086 0
M  V30 6043 C 553.273 -0.277334 -1.67114 0
M  V30 6044 O 554.479 -0.447865 -1.74339 0
M  V30 6045 H 550.854 -0.435993 -0.612711 0
M  V30 6046 H 552.825 -2.35305 -1.83505 0
M  V30 6047 C 551.574 -1.26529 -3.2386 0
M  V30 6048 H 550.897 -2.11845 -3.3906 0
M  V30 6049 H 552.337 -1.30336 -4.03471 0
M  V30 6050 C 550.796 0.0254168 -3.3689 0
M  V30 6051 O 551.326 0.992048 -3.89257 0
M  V30 6052 N 549.532 0.0916528 -2.90455 0
M  V30 6053 H 549.079 -0.695675 -2.48028 0
M  V30 6054 H 549.037 0.954745 -2.99553 0
M  V30 6055 N 552.809 0.956637 -1.25245 0
M  V30 6056 C 554.058 1.69537 -1.0927 0
M  V30 6057 C 554.371 1.92136 0.366503 0
M  V30 6058 O 555.577 2.63687 0.64665 0
M  V30 6059 C 554.033 3.05211 -1.9072 0
M  V30 6060 C 553.641 2.90416 -3.41119 0
M  V30 6061 C 555.385 3.82882 -1.83308 0
M  V30 6062 C 553.292 4.21468 -4.14872 0
M  V30 6063 H 552.222 0.635804 -0.405302 0
M  V30 6064 H 554.873 1.06513 -1.49423 0
M  V30 6065 H 553.255 3.69128 -1.43389 0
M  V30 6066 H 554.429 2.35444 -3.9611 0
M  V30 6067 H 552.744 2.26203 -3.49602 0
M  V30 6068 H 555.341 4.79944 -2.35706 0
M  V30 6069 H 555.684 4.0853 -0.800572 0
M  V30 6070 H 556.217 3.25711 -2.28379 0
M  V30 6071 H 552.956 4.01009 -5.18529 0
M  V30 6072 H 552.476 4.76213 -3.64665 0
M  V30 6073 H 554.155 4.90022 -4.22478 0
M  V30 6074 N 554.287 1.06798 1.15896 0
M  V30 6075 C 555.234 0.683314 2.20453 0
M  V30 6076 C 556.204 -0.32255 1.62938 0
M  V30 6077 O 557.389 -0.210276 1.89638 0
M  V30 6078 C 554.529 0.0813266 3.45004 0
M  V30 6079 C 553.642 1.13799 4.16742 0
M  V30 6080 C 552.777 0.501598 5.28826 0
M  V30 6081 C 551.816 1.54144 5.92373 0
M  V30 6082 N 550.953 0.928038 6.9594 0
M  V30 6083 H 555.793 1.57932 2.52708 0
M  V30 6084 H 553.33 0.789544 1.24115 0
M  V30 6085 H 555.288 -0.285274 4.16224 0
M  V30 6086 H 553.918 -0.77806 3.13283 0
M  V30 6087 H 552.97 1.62223 3.44075 0
M  V30 6088 H 554.282 1.92664 4.60089 0
M  V30 6089 H 553.436 0.0823162 6.06644 0
M  V30 6090 H 552.175 -0.318883 4.86656 0
M  V30 6091 H 551.18 1.97056 5.13273 0
M  V30 6092 H 552.405 2.3641 6.36621 0
M  V30 6093 H 550.351 0.12836 6.55874 0
M  V30 6094 H 550.268 1.65401 7.37685 0
M  V30 6095 H 551.536 0.534071 7.77668 0
M  V30 6096 N 555.766 -1.3263 0.851289 0
M  V30 6097 C 556.713 -2.28952 0.291469 0
M  V30 6098 C 557.683 -1.54897 -0.599676 0
M  V30 6099 O 558.868 -1.83137 -0.535305 0
M  V30 6100 C 556.008 -3.41206 -0.516992 0
M  V30 6101 C 555.121 -4.30148 0.399566 0
M  V30 6102 C 554.256 -5.29527 -0.4212 0
M  V30 6103 C 553.295 -6.10112 0.492969 0
M  V30 6104 N 552.432 -7.01499 -0.290414 0
M  V30 6105 H 557.272 -2.76228 1.11813 0
M  V30 6106 H 554.809 -1.35907 0.562826 0
M  V30 6107 H 556.767 -4.05005 -1.00132 0
M  V30 6108 H 555.397 -2.9509 -1.30851 0
M  V30 6109 H 554.449 -3.66959 1.00227 0
M  V30 6110 H 555.761 -4.8649 1.1013 0
M  V30 6111 H 554.915 -5.98914 -0.968832 0
M  V30 6112 H 553.654 -4.73794 -1.15632 0
M  V30 6113 H 552.659 -5.39632 1.05251 0
M  V30 6114 H 553.884 -6.6793 1.22664 0
M  V30 6115 H 551.83 -6.48199 -1.00868 0
M  V30 6116 H 551.747 -7.55178 0.352354 0
M  V30 6117 H 553.015 -7.75176 -0.819882 0
M  V30 6118 N 557.244 -0.608902 -1.45362 0
M  V30 6119 C 558.493 -0.10218 -2.01441 0
M  V30 6120 C 558.806 1.27546 -1.48295 0
M  V30 6121 O 560.012 1.87498 -1.96359 0
M  V30 6122 C 558.468 -0.131985 -3.59658 0
M  V30 6123 C 558.076 -1.50956 -4.21801 0
M  V30 6124 C 559.82 0.319427 -4.23296 0
M  V30 6125 C 557.727 -1.49568 -5.72174 0
M  V30 6126 H 556.657 -0.0344314 -0.753213 0
M  V30 6127 H 559.308 -0.764426 -1.6682 0
M  V30 6128 H 557.69 0.596939 -3.91475 0
M  V30 6129 H 558.864 -2.26029 -4.01556 0
M  V30 6130 H 557.179 -1.90318 -3.70362 0
M  V30 6131 H 559.776 0.349013 -5.3356 0
M  V30 6132 H 560.119 1.34237 -3.94064 0
M  V30 6133 H 560.652 -0.356273 -3.96201 0
M  V30 6134 H 557.391 -2.49626 -6.06108 0
M  V30 6135 H 556.911 -0.787542 -5.94607 0
M  V30 6136 H 558.59 -1.21989 -6.35396 0
M  V30 6137 N 558.722 1.53707 -0.348139 0
M  V30 6138 C 559.632 2.28881 0.514857 0
M  V30 6139 C 560.648 1.34168 1.10793 0
M  V30 6140 O 561.824 1.6721 1.12262 0
M  V30 6141 C 558.889 3.05042 1.64774 0
M  V30 6142 C 557.95 4.15389 1.08398 0
M  V30 6143 C 557.183 4.87909 2.16287 0
M  V30 6144 O 557.406 4.60137 3.3709 0
M  V30 6145 O 556.34 5.74254 1.80323 0
M  V30 6146 H 560.166 3.03547 -0.0963699 0
M  V30 6147 H 557.751 1.48972 -0.113043 0
M  V30 6148 H 559.633 3.52656 2.30677 0
M  V30 6149 H 558.308 2.33228 2.24469 0
M  V30 6150 H 557.215 3.72068 0.389341 0
M  V30 6151 H 558.548 4.89318 0.531829 0
M  V30 6152 N 560.2 0.0768682 1.57412 0
M  V30 6153 C 561.447 -0.591085 1.93681 0
M  V30 6154 C 561.775 -1.69311 0.957286 0
M  V30 6155 O 561.03 -1.95682 -0.0262428 0
M  V30 6156 C 561.329 -1.20268 3.36557 0
M  V30 6157 C 560.995 -0.226286 4.50332 0
M  V30 6158 C 559.657 0.0423142 4.81181 0
M  V30 6159 C 562.009 0.441415 5.19327 0
M  V30 6160 C 559.337 0.985616 5.78362 0
M  V30 6161 C 561.689 1.37307 6.17519 0
M  V30 6162 C 560.353 1.65009 6.46783 0
M  V30 6163 H 559.623 -0.216293 0.70873 0
M  V30 6164 H 562.27 0.148824 1.90921 0
M  V30 6165 H 560.575 -2.01844 3.35807 0
M  V30 6166 H 562.272 -1.72688 3.61911 0
M  V30 6167 H 558.862 -0.445821 4.26275 0
M  V30 6168 H 563.046 0.247023 4.95685 0
M  V30 6169 H 558.302 1.20743 5.99359 0
M  V30 6170 H 562.476 1.89637 6.70083 0
M  V30 6171 H 560.103 2.38263 7.21897 0
M  V30 6172 N 561.678 -1.56367 -0.196722 0
M  V30 6173 C 562.625 -1.94417 -1.24382 0
M  V30 6174 C 563.595 -0.804543 -1.45315 0
M  V30 6175 O 564.78 -1.06256 -1.58475 0
M  V30 6176 C 561.92 -2.28757 -2.58388 0
M  V30 6177 C 561.033 -3.55775 -2.45047 0
M  V30 6178 C 560.168 -3.79445 -3.71746 0
M  V30 6179 C 559.207 -4.99894 -3.53231 0
M  V30 6180 N 558.344 -5.19826 -4.71938 0
M  V30 6181 H 563.184 -2.83691 -0.912338 0
M  V30 6182 H 560.721 -1.40392 -0.439135 0
M  V30 6183 H 562.679 -2.46682 -3.36457 0
M  V30 6184 H 561.309 -1.42625 -2.89582 0
M  V30 6185 H 560.361 -3.45905 -1.58284 0
M  V30 6186 H 561.673 -4.44 -2.27299 0
M  V30 6187 H 560.827 -3.97601 -4.58256 0
M  V30 6188 H 559.566 -2.89546 -3.92446 0
M  V30 6189 H 558.571 -4.81662 -2.65107 0
M  V30 6190 H 559.796 -5.913 -3.33978 0
M  V30 6191 H 557.742 -4.32875 -4.92905 0
M  V30 6192 H 557.659 -6.02228 -4.57009 0
M  V30 6193 H 558.927 -5.42439 -5.59803 0
M  V30 6194 N 563.156 0.464375 -1.50603 0
M  V30 6195 C 564.104 1.58224 -1.70493 0
M  V30 6196 C 565.098 1.59492 -0.570836 0
M  V30 6197 O 566.304 1.63561 -0.751517 0
M  V30 6198 H 562.679 0.525161 -0.538247 0
M  V30 6199 H 564.65 1.38613 -2.64252 0
M  V30 6200 C 563.399 2.96113 -1.82243 0
M  V30 6201 H 562.722 2.95858 -2.68901 0
M  V30 6202 H 564.162 3.73769 -2.00182 0
M  V30 6203 C 562.621 3.31946 -0.575628 0
M  V30 6204 O 563.151 4.00708 0.282152 0
M  V30 6205 N 561.357 2.87436 -0.427665 0
M  V30 6206 H 560.904 2.31652 -1.12674 0
M  V30 6207 H 560.862 3.11776 0.405379 0
M  V30 6208 N 564.634 1.40294 0.718013 0
M  V30 6209 C 565.88 1.38645 1.48005 0
M  V30 6210 C 566.213 -0.0121202 1.94196 0
M  V30 6211 O 565.488 -0.980309 1.67989 0
M  V30 6212 C 565.771 2.37379 2.70782 0
M  V30 6213 C 565.624 3.8625 2.30501 0
M  V30 6214 C 566.943 2.33685 3.72933 0
M  V30 6215 H 564.062 0.504928 0.536858 0
M  V30 6216 H 566.704 1.71411 0.819649 0
M  V30 6217 H 564.854 2.09568 3.27129 0
M  V30 6218 H 566.526 4.24879 1.79655 0
M  V30 6219 H 564.769 4.02202 1.6253 0
M  V30 6220 H 565.44 4.50847 3.18498 0
M  V30 6221 H 567.916 2.58314 3.2621 0
M  V30 6222 H 566.792 3.0482 4.56482 0
M  V30 6223 H 567.053 1.34765 4.21059 0
M  V30 6224 N 566.112 -0.949982 1.2575 0
M  V30 6225 C 567.528 -1.22191 1.02672 0
M  V30 6226 C 567.728 -1.99898 -0.253588 0
M  V30 6227 O 566.784 -2.33329 -0.965076 0
M  V30 6228 C 568.097 -1.99175 2.25277 0
M  V30 6229 C 569.645 -2.12201 2.30087 0
M  V30 6230 C 570.12 -2.92586 3.5236 0
M  V30 6231 N 571.611 -3.00163 3.52784 0
M  V30 6232 C 572.346 -3.62766 4.44059 0
M  V30 6233 N 571.842 -4.26943 5.45611 0
M  V30 6234 N 573.635 -3.59953 4.3173 0
M  V30 6235 H 565.786 -0.430258 2.07996 0
M  V30 6236 H 568.049 -0.252844 0.91366 0
M  V30 6237 H 567.755 -1.49479 3.18354 0
M  V30 6238 H 567.629 -2.99868 2.28821 0
M  V30 6239 H 570.016 -2.61093 1.3753 0
M  V30 6240 H 570.097 -1.10799 2.30559 0
M  V30 6241 H 569.741 -2.44383 4.45241 0
M  V30 6242 H 569.671 -3.94224 3.49134 0
M  V30 6243 H 572.162 -2.54529 2.79327 0
M  V30 6244 H 572.475 -4.72583 6.11461 0
M  V30 6245 H 570.82 -4.25557 5.49478 0
M  V30 6246 H 574.011 -3.09003 3.51617 0
M  V30 6247 H 574.184 -4.08455 5.03059 0
M  V30 6248 N 567.59 -1.07411 -1.15328 0
M  V30 6249 C 568.837 -0.797649 -1.86128 0
M  V30 6250 C 569.165 0.676298 -1.82364 0
M  V30 6251 O 568.42 1.51223 -1.24218 0
M  V30 6252 C 568.719 -1.25191 -3.34757 0
M  V30 6253 C 568.385 -2.73191 -3.58716 0
M  V30 6254 C 567.047 -3.13616 -3.64964 0
M  V30 6255 C 569.399 -3.68718 -3.6837 0
M  V30 6256 C 566.727 -4.48383 -3.78377 0
M  V30 6257 C 569.079 -5.03248 -3.83306 0
M  V30 6258 C 567.743 -5.43293 -3.878 0
M  V30 6259 H 567.013 -0.29188 -0.681092 0
M  V30 6260 H 569.66 -1.34524 -1.36292 0
M  V30 6261 H 567.965 -0.623712 -3.86804 0
M  V30 6262 H 569.662 -1.01489 -3.87945 0
M  V30 6263 H 566.252 -2.40898 -3.54494 0
M  V30 6264 H 570.436 -3.38614 -3.62842 0
M  V30 6265 H 565.692 -4.78877 -3.80114 0
M  V30 6266 H 569.866 -5.77142 -3.89718 0
M  V30 6267 H 567.493 -6.47721 -3.97946 0
M  V30 6268 N 569.068 1.32177 -0.85831 0
M  V30 6269 C 570.018 2.26307 -0.277307 0
M  V30 6270 C 571.002 1.50123 0.578946 0
M  V30 6271 O 572.194 1.71754 0.427731 0
M  V30 6272 C 569.323 3.39181 0.530232 0
M  V30 6273 C 568.409 4.22746 -0.338613 0
M  V30 6274 N 568.8 4.85265 -1.4266 0
M  V30 6275 C 567.098 4.45813 -0.129 0
M  V30 6276 C 567.799 5.47634 -1.96142 0
M  V30 6277 N 566.775 5.28794 -1.26007 0
M  V30 6278 H 570.577 2.72173 -1.10902 0
M  V30 6279 H 568.091 1.46308 -0.704816 0
M  V30 6280 H 570.088 4.05628 0.962904 0
M  V30 6281 H 568.748 2.9486 1.35969 0
M  V30 6282 H 569.759 4.85259 -1.80953 0
M  V30 6283 H 566.436 4.12163 0.665451 0
M  V30 6284 H 567.826 6.0735 -2.8736 0
M  V30 6285 N 570.547 0.616602 1.45037 0
M  V30 6286 C 571.777 0.121791 2.06241 0
M  V30 6287 C 572.185 -1.20289 1.46038 0
M  V30 6288 O 571.528 -1.7456 0.572242 0
M  V30 6289 C 571.59 -0.0827345 3.59405 0
M  V30 6290 C 571.254 1.16153 4.41993 0
M  V30 6291 C 572.251 2.08183 4.76399 0
M  V30 6292 C 569.936 1.39288 4.82601 0
M  V30 6293 C 571.93 3.21668 5.5028 0
M  V30 6294 C 569.617 2.53073 5.56235 0
M  V30 6295 C 570.615 3.44091 5.89992 0
M  V30 6296 O 570.303 4.55894 6.6213 0
M  V30 6297 H 570.035 0.0701667 0.672349 0
M  V30 6298 H 572.589 0.846877 1.87129 0
M  V30 6299 H 570.819 -0.862812 3.76952 0
M  V30 6300 H 572.508 -0.530273 4.02421 0
M  V30 6301 H 573.274 1.91538 4.45576 0
M  V30 6302 H 569.153 0.693396 4.55755 0
M  V30 6303 H 572.697 3.92733 5.76547 0
M  V30 6304 H 568.594 2.69667 5.86472 0
M  V30 6305 H 569.362 4.5469 6.80587 0
M  V30 6306 N 572.025 -1.5352 0.356285 0
M  V30 6307 C 573.302 -1.93405 -0.292223 0
M  V30 6308 C 573.682 -1.28901 -1.67176 0
M  V30 6309 O 573.03 -0.444632 -2.24132 0
M  V30 6310 C 573.24 -3.47223 -0.35175 0
M  V30 6311 C 574.588 -4.20389 -0.596534 0
M  V30 6312 O 575.612 -3.53554 -0.433344 0
M  V30 6313 O 574.471 -5.3881 -0.913589 0
M  V30 6314 H 571.565 -0.808666 -0.173172 0
M  V30 6315 H 574.111 -1.64713 0.408391 0
M  V30 6316 H 572.883 -3.86423 0.615841 0
M  V30 6317 H 572.506 -3.8212 -1.09864 0
M  V30 6318 N 573.503 -0.0852151 -1.57369 0
M  V30 6319 C 574.731 0.58946 -1.98325 0
M  V30 6320 C 575.146 1.62333 -0.96403 0
M  V30 6321 O 574.503 1.82438 0.0476395 0
M  V30 6322 C 574.554 1.24604 -3.39347 0
M  V30 6323 O 574.275 0.253532 -4.37366 0
M  V30 6324 C 575.776 2.00726 -3.95252 0
M  V30 6325 H 572.996 0.158783 -0.651942 0
M  V30 6326 H 575.54 -0.161584 -2.03861 0
M  V30 6327 H 573.695 1.94808 -3.34856 0
M  V30 6328 H 574.109 0.726207 -5.19448 0
M  V30 6329 H 575.583 2.42039 -4.96106 0
M  V30 6330 H 576.06 2.86919 -3.32527 0
M  V30 6331 H 576.666 1.3536 -4.03185 0
M  V30 6332 N 574.981 1.5647 0.188427 0
M  V30 6333 C 576.397 1.50204 0.539532 0
M  V30 6334 C 576.597 0.78644 1.85519 0
M  V30 6335 O 575.653 0.339714 2.50204 0
M  V30 6336 C 576.966 2.94893 0.588103 0
M  V30 6337 C 578.514 3.05602 0.67648 0
M  V30 6338 C 578.989 4.51716 0.756101 0
M  V30 6339 N 580.48 4.55894 0.819451 0
M  V30 6340 C 581.215 5.66272 0.90134 0
M  V30 6341 N 580.711 6.86323 0.945118 0
M  V30 6342 N 582.504 5.54201 0.939043 0
M  V30 6343 H 574.655 2.01406 -0.674493 0
M  V30 6344 H 576.918 0.916828 -0.241103 0
M  V30 6345 H 576.624 3.50334 -0.309633 0
M  V30 6346 H 576.498 3.4861 1.44051 0
M  V30 6347 H 578.885 2.50206 1.56465 0
M  V30 6348 H 578.966 2.54999 -0.202262 0
M  V30 6349 H 578.61 5.07739 -0.12774 0
M  V30 6350 H 578.54 5.00058 1.65074 0
M  V30 6351 H 581.031 3.69452 0.794594 0
M  V30 6352 H 581.344 7.66194 1.0083 0
M  V30 6353 H 579.689 6.88968 0.913683 0
M  V30 6354 H 582.88 4.59333 0.901725 0
M  V30 6355 H 583.053 6.40247 0.999402 0
M  V30 6356 N 576.459 -0.456382 1.50847 0
M  V30 6357 C 577.406 -1.55249 1.70782 0
M  V30 6358 C 578.376 -1.56757 0.549231 0
M  V30 6359 O 579.561 -1.74061 0.7815 0
M  V30 6360 C 576.701 -2.93118 1.82143 0
M  V30 6361 C 575.814 -3.01285 3.09598 0
M  V30 6362 C 574.949 -4.30159 3.11667 0
M  V30 6363 C 573.988 -4.32124 4.33515 0
M  V30 6364 N 573.125 -5.52492 4.3324 0
M  V30 6365 H 577.965 -1.37555 2.64353 0
M  V30 6366 H 575.502 -0.668543 1.3103 0
M  V30 6367 H 577.46 -3.73088 1.86711 0
M  V30 6368 H 576.09 -3.09413 0.919978 0
M  V30 6369 H 575.142 -2.14096 3.14431 0
M  V30 6370 H 576.454 -2.98597 3.99551 0
M  V30 6371 H 575.608 -5.18489 3.15046 0
M  V30 6372 H 574.347 -4.35477 2.1957 0
M  V30 6373 H 573.352 -3.42189 4.30333 0
M  V30 6374 H 574.577 -4.28485 5.26856 0
M  V30 6375 H 572.523 -5.58567 3.44004 0
M  V30 6376 H 572.44 -5.51605 5.16979 0
M  V30 6377 H 573.708 -6.42906 4.40786 0
M  V30 6378 N 577.937 -1.40673 -0.710563 0
M  V30 6379 C 579.214 -1.29718 -1.46398 0
M  V30 6380 C 579.594 0.082177 -2.1094 0
M  V30 6381 O 578.942 1.09536 -2.00534 0
M  V30 6382 C 579.152 -2.43967 -2.49562 0
M  V30 6383 C 580.5 -2.84436 -3.15248 0
M  V30 6384 O 581.524 -2.43597 -2.59883 0
M  V30 6385 O 580.383 -3.55008 -4.1549 0
M  V30 6386 H 577.477 -0.509697 -0.651258 0
M  V30 6387 H 580.023 -1.52603 -0.742312 0
M  V30 6388 H 578.795 -3.36076 -2.0042 0
M  V30 6389 H 578.418 -2.22879 -3.29258 0
M  V30 6390 N 579.415 0.9433 -1.26252 0
M  V30 6391 C 580.661 1.69175 -1.11837 0
M  V30 6392 C 580.994 1.91238 0.337891 0
M  V30 6393 O 580.269 1.49152 1.24836 0
M  V30 6394 C 580.552 3.06783 -1.88563 0
M  V30 6395 C 580.405 2.9206 -3.42083 0
M  V30 6396 C 581.724 4.06865 -1.67776 0
M  V30 6397 H 578.843 0.61399 -0.407658 0
M  V30 6398 H 581.485 1.09572 -1.55222 0
M  V30 6399 H 579.635 3.57663 -1.51689 0
M  V30 6400 H 581.307 2.48419 -3.88698 0
M  V30 6401 H 579.55 2.27731 -3.69217 0
M  V30 6402 H 580.221 3.89651 -3.90994 0
M  V30 6403 H 582.697 3.64939 -1.99897 0
M  V30 6404 H 581.573 5.01168 -2.23879 0
M  V30 6405 H 581.834 4.37705 -0.621816 0
M  V30 6406 N 580.893 1.08022 1.14757 0
M  V30 6407 C 581.803 0.718292 2.23333 0
M  V30 6408 C 582.819 -0.273477 1.71837 0
M  V30 6409 O 583.995 -0.118406 2.01052 0
M  V30 6410 C 581.06 0.128855 3.4646 0
M  V30 6411 C 580.121 1.17473 4.12915 0
M  V30 6412 C 579.354 0.61333 5.30164 0
M  V30 6413 O 579.577 -0.568458 5.6756 0
M  V30 6414 O 578.511 1.3615 5.86299 0
M  V30 6415 H 582.337 1.62394 2.56636 0
M  V30 6416 H 579.922 0.853628 1.22611 0
M  V30 6417 H 581.804 -0.197249 4.20938 0
M  V30 6418 H 580.479 -0.750014 3.14891 0
M  V30 6419 H 579.386 1.5533 3.40328 0
M  V30 6420 H 580.719 2.02574 4.48581 0
M  V30 6421 N 582.371 -1.3172 0.865308 0
M  V30 6422 C 583.62 -1.96145 0.470098 0
M  V30 6423 C 583.933 -1.69182 -0.981674 0
M  V30 6424 O 585.139 -2.27431 -1.48281 0
M  V30 6425 C 583.595 -3.51129 0.789732 0
M  V30 6426 C 583.203 -3.86938 2.25795 0
M  V30 6427 C 584.947 -4.2197 0.462765 0
M  V30 6428 C 582.854 -5.35012 2.52024 0
M  V30 6429 H 581.784 -0.734105 0.172065 0
M  V30 6430 H 584.435 -1.49959 1.05757 0
M  V30 6431 H 582.817 -3.95781 0.131571 0
M  V30 6432 H 583.991 -3.5326 2.95879 0
M  V30 6433 H 582.306 -3.29149 2.55049 0
M  V30 6434 H 584.903 -5.30904 0.636019 0
M  V30 6435 H 585.246 -4.12005 -0.59645 0
M  V30 6436 H 585.779 -3.82936 1.07727 0
M  V30 6437 H 582.518 -5.50008 3.56611 0
M  V30 6438 H 582.038 -5.70058 1.8653 0
M  V30 6439 H 583.717 -6.0222 2.36515 0
M  V30 6440 N 583.85 -0.624285 -1.44708 0
M  V30 6441 C 585.08 -0.132726 -2.06173 0
M  V30 6442 C 585.488 1.19513 -1.46674 0
M  V30 6443 O 584.831 1.74254 -0.581491 0
M  V30 6444 C 584.893 0.0636732 -3.59444 0
M  V30 6445 C 584.557 -1.18496 -4.4137 0
M  V30 6446 C 585.553 -2.10706 -4.75288 0
M  V30 6447 C 583.239 -1.41846 -4.81856 0
M  V30 6448 C 585.233 -3.24582 -5.48567 0
M  V30 6449 C 582.92 -2.5602 -5.54885 0
M  V30 6450 C 583.918 -3.47215 -5.88159 0
M  V30 6451 O 583.606 -4.59399 -6.59703 0
M  V30 6452 H 583.338 -0.0737313 -0.671967 0
M  V30 6453 H 585.892 -0.856789 -1.86677 0
M  V30 6454 H 584.122 0.842809 -3.77404 0
M  V30 6455 H 585.811 0.508924 -4.02697 0
M  V30 6456 H 586.577 -1.93898 -4.44554 0
M  V30 6457 H 582.456 -0.717556 -4.55381 0
M  V30 6458 H 586 -3.95785 -5.74456 0
M  V30 6459 H 581.897 -2.72774 -5.85034 0
M  V30 6460 H 582.665 -4.58293 -6.78166 0
M  V30 6461 N 585.328 1.53329 -0.364422 0
M  V30 6462 C 586.275 2.25698 0.482607 0
M  V30 6463 C 587.245 1.26325 1.07848 0
M  V30 6464 O 588.43 1.55104 1.11119 0
M  V30 6465 C 585.57 3.04873 1.61699 0
M  V30 6466 C 584.683 4.19135 1.0464 0
M  V30 6467 C 583.818 4.85754 2.14979 0
M  V30 6468 C 582.857 5.9205 1.5538 0
M  V30 6469 N 581.994 6.52365 2.59547 0
M  V30 6470 H 586.834 2.97666 -0.141032 0
M  V30 6471 H 584.371 1.46875 -0.0813692 0
M  V30 6472 H 586.329 3.49051 2.28516 0
M  V30 6473 H 584.959 2.35162 2.2113 0
M  V30 6474 H 584.011 3.79451 0.268553 0
M  V30 6475 H 585.323 4.95525 0.570653 0
M  V30 6476 H 584.477 5.3311 2.89619 0
M  V30 6477 H 583.216 4.08834 2.65906 0
M  V30 6478 H 582.221 5.44058 0.792549 0
M  V30 6479 H 583.446 6.7089 1.0528 0
M  V30 6480 H 581.392 5.78298 3.09689 0
M  V30 6481 H 581.309 7.2429 2.16655 0
M  V30 6482 H 582.577 7.0437 3.33892 0
M  V30 6483 N 586.806 0.0935595 1.57322 0
M  V30 6484 C 588.083 -0.612692 1.85756 0
M  V30 6485 C 588.463 -1.86439 0.99013 0
M  V30 6486 O 587.811 -2.28416 0.0621362 0
M  V30 6487 C 588.021 -0.929547 3.36393 0
M  V30 6488 C 589.369 -1.29366 4.04413 0
M  V30 6489 O 590.393 -1.02061 3.41265 0
M  V30 6490 O 589.252 -1.80498 5.15832 0
M  V30 6491 H 586.346 -0.306444 0.768128 0
M  V30 6492 H 588.892 0.126141 1.69231 0
M  V30 6493 H 587.664 -0.0414766 3.91278 0
M  V30 6494 H 587.287 -1.72441 3.5826 0
M  V30 6495 N 588.284 -1.56567 -0.180126 0
M  V30 6496 C 589.214 -1.98753 -1.22553 0
M  V30 6497 C 590.195 -0.86175 -1.46656 0
M  V30 6498 O 591.38 -1.12719 -1.58139 0
M  V30 6499 C 588.51 -2.33988 -2.56645 0
M  V30 6500 C 587.464 -3.49445 -2.47128 0
M  V30 6501 C 586.79 -3.70397 -3.8563 0
M  V30 6502 C 588.09 -4.83171 -1.98352 0
M  V30 6503 H 589.784 -2.86332 -0.874896 0
M  V30 6504 H 587.33 -1.37757 -0.419414 0
M  V30 6505 H 589.283 -2.62097 -3.29974 0
M  V30 6506 H 588.007 -1.43309 -2.93479 0
M  V30 6507 H 586.666 -3.2145 -1.76254 0
M  V30 6508 H 586.314 -2.77023 -4.19842 0
M  V30 6509 H 586.014 -4.48077 -3.80132 0
M  V30 6510 H 587.538 -4.00897 -4.60558 0
M  V30 6511 H 588.952 -5.10213 -2.61449 0
M  V30 6512 H 587.349 -5.64425 -2.03823 0
M  V30 6513 H 588.419 -4.75753 -0.937402 0
M  V30 6514 N 589.762 0.448376 -1.51087 0
M  V30 6515 C 590.987 1.22605 -1.6728 0
M  V30 6516 C 591.412 1.84524 -0.365045 0
M  V30 6517 O 590.77 1.6832 0.673642 0
M  V30 6518 C 590.818 2.29393 -2.78229 0
M  V30 6519 O 589.922 3.34608 -2.41063 0
M  V30 6520 H 589.263 0.359705 -0.558129 0
M  V30 6521 H 591.793 0.530903 -1.97592 0
M  V30 6522 H 591.803 2.74352 -3.01986 0
M  V30 6523 H 590.478 1.83701 -3.73131 0
M  V30 6524 H 589.055 2.95202 -2.27838 0
M  V30 6525 N 591.24 1.41047 0.703093 0
M  V30 6526 C 592.487 1.4 1.46309 0
M  V30 6527 C 592.815 0.00654574 1.94499 0
M  V30 6528 O 592.07 -0.980255 1.6938 0
M  V30 6529 C 592.369 2.34686 2.6955 0
M  V30 6530 C 592.035 3.81684 2.40058 0
M  V30 6531 C 590.697 4.21731 2.31725 0
M  V30 6532 C 593.049 4.74525 2.15581 0
M  V30 6533 C 590.377 5.52637 1.97001 0
M  V30 6534 C 592.729 6.05744 1.82366 0
M  V30 6535 C 591.393 6.44819 1.72524 0
M  V30 6536 H 590.663 0.512295 0.535382 0
M  V30 6537 H 593.31 1.73792 0.804275 0
M  V30 6538 H 591.615 1.94122 3.40329 0
M  V30 6539 H 593.312 2.31152 3.27673 0
M  V30 6540 H 589.902 3.49963 2.47435 0
M  V30 6541 H 594.086 4.44395 2.20968 0
M  V30 6542 H 589.342 5.81802 1.87928 0
M  V30 6543 H 593.516 6.77189 1.62444 0
M  V30 6544 H 591.143 7.46168 1.45385 0
M  V30 6545 N 592.718 -0.936591 1.26751 0
M  V30 6546 C 593.946 -1.71758 1.15355 0
M  V30 6547 C 594.361 -1.86549 -0.290683 0
M  V30 6548 O 593.718 -1.37616 -1.19868 0
M  V30 6549 C 593.769 -3.12193 1.82258 0
M  V30 6550 O 593.49 -2.98105 3.21038 0
M  V30 6551 C 594.991 -4.06485 1.76875 0
M  V30 6552 H 592.211 -0.537636 0.401483 0
M  V30 6553 H 594.755 -1.17382 1.67457 0
M  V30 6554 H 592.91 -3.63456 1.34083 0
M  V30 6555 H 593.324 -3.86824 3.54214 0
M  V30 6556 H 594.798 -5.02569 2.28316 0
M  V30 6557 H 595.275 -4.32986 0.736216 0
M  V30 6558 H 595.881 -3.61144 2.24623 0
M  V30 6559 N 594.196 -1.08629 -1.14182 0
M  V30 6560 C 595.126 -0.740003 -2.21464 0
M  V30 6561 C 596.107 0.278591 -1.67803 0
M  V30 6562 O 597.292 0.148461 -1.93632 0
M  V30 6563 C 594.422 -0.150952 -3.46972 0
M  V30 6564 C 593.376 -1.09815 -4.13672 0
M  V30 6565 C 592.702 -0.3712 -5.3341 0
M  V30 6566 C 594.002 -2.43722 -4.61949 0
M  V30 6567 H 595.696 -1.63697 -2.50686 0
M  V30 6568 H 593.242 -0.788526 -1.20492 0
M  V30 6569 H 595.195 0.103325 -4.21273 0
M  V30 6570 H 593.919 0.781164 -3.1712 0
M  V30 6571 H 592.578 -1.33756 -3.41328 0
M  V30 6572 H 592.226 0.564792 -4.99819 0
M  V30 6573 H 591.926 -1.00267 -5.78982 0
M  V30 6574 H 593.45 -0.12503 -6.10472 0
M  V30 6575 H 594.864 -2.24034 -5.27714 0
M  V30 6576 H 593.261 -3.02582 -5.18232 0
M  V30 6577 H 594.331 -3.05082 -3.76899 0
M  V30 6578 N 595.674 1.31259 -0.872281 0
M  V30 6579 C 596.621 2.28459 -0.327857 0
M  V30 6580 C 597.591 1.55831 0.574957 0
M  V30 6581 O 598.776 1.83965 0.506101 0
M  V30 6582 C 595.916 3.41985 0.462644 0
M  V30 6583 C 595.029 4.29458 -0.467949 0
M  V30 6584 C 594.164 5.30131 0.336903 0
M  V30 6585 C 593.203 6.0925 -0.58997 0
M  V30 6586 N 592.34 7.01872 0.178775 0
M  V30 6587 H 597.18 2.74414 -1.16193 0
M  V30 6588 H 594.717 1.34994 -0.584376 0
M  V30 6589 H 596.675 4.06547 0.936759 0
M  V30 6590 H 595.305 2.97134 1.2614 0
M  V30 6591 H 594.357 3.65318 -1.06052 0
M  V30 6592 H 595.669 4.84677 -1.17856 0
M  V30 6593 H 594.823 6.0038 0.873427 0
M  V30 6594 H 593.562 4.75573 1.08079 0
M  V30 6595 H 592.567 5.37889 -1.13823 0
M  V30 6596 H 593.792 6.65894 -1.33275 0
M  V30 6597 H 591.738 6.49721 0.905435 0
M  V30 6598 H 591.655 7.54522 -0.472452 0
M  V30 6599 H 592.923 7.76382 0.696454 0
M  V30 6600 N 597.152 0.631951 1.44375 0
M  V30 6601 C 598.062 -0.073674 2.34484 0
M  V30 6602 C 599.078 -0.834825 1.52665 0
M  V30 6603 O 600.254 -0.786902 1.85391 0
M  V30 6604 C 597.319 -1.04247 3.30656 0
M  V30 6605 C 596.38 -0.280602 4.28382 0
M  V30 6606 C 595.613 -1.20325 5.19959 0
M  V30 6607 O 595.836 -2.44199 5.15484 0
M  V30 6608 O 594.77 -0.687128 5.97965 0
M  V30 6609 H 598.596 0.667477 2.96274 0
M  V30 6610 H 596.181 0.392144 1.44162 0
M  V30 6611 H 598.063 -1.59981 3.89851 0
M  V30 6612 H 596.738 -1.76422 2.71398 0
M  V30 6613 H 595.645 0.319804 3.72731 0
M  V30 6614 H 596.978 0.401144 4.90563 0
M  V30 6615 N 598.631 -1.53133 0.372548 0
M  V30 6616 C 599.879 -2.00958 -0.214534 0
M  V30 6617 C 600.2 -1.26135 -1.48711 0
M  V30 6618 O 599.47 -0.376597 -1.92246 0
M  V30 6619 H 598.05 -0.742456 -0.0822664 0
M  V30 6620 H 600.712 -1.88367 0.500385 0
M  V30 6621 H 599.808 -3.09031 -0.436605 0
M  V30 6622 N 600.109 -0.101901 -1.5727 0
M  V30 6623 C 601.056 0.854577 -2.14396 0
M  V30 6624 C 602.026 1.27521 -1.06432 0
M  V30 6625 O 603.211 1.35575 -1.34253 0
M  V30 6626 C 600.351 2.10576 -2.73408 0
M  V30 6627 C 599.464 1.73504 -3.95626 0
M  V30 6628 C 598.599 2.9346 -4.42781 0
M  V30 6629 C 597.638 2.52547 -5.57572 0
M  V30 6630 N 596.775 3.65359 -5.99547 0
M  V30 6631 H 601.615 0.360578 -2.9581 0
M  V30 6632 H 599.152 0.166303 -1.46157 0
M  V30 6633 H 601.11 2.83859 -3.05745 0
M  V30 6634 H 599.74 2.57463 -1.94711 0
M  V30 6635 H 598.792 0.901622 -3.6956 0
M  V30 6636 H 600.104 1.39426 -4.78917 0
M  V30 6637 H 599.258 3.74988 -4.76937 0
M  V30 6638 H 597.997 3.30753 -3.58404 0
M  V30 6639 H 597.002 1.69446 -5.23037 0
M  V30 6640 H 598.227 2.1639 -6.43702 0
M  V30 6641 H 596.173 4.02358 -5.18116 0
M  V30 6642 H 596.09 3.35148 -6.77652 0
M  V30 6643 H 597.358 4.47378 -6.38336 0
M  V30 6644 N 601.587 1.56661 0.17182 0
M  V30 6645 C 602.815 1.861 0.904115 0
M  V30 6646 C 603.23 0.687227 1.75848 0
M  V30 6647 O 602.587 -0.343671 1.79235 0
M  V30 6648 C 602.638 3.14568 1.78127 0
M  V30 6649 O 602.359 4.27422 0.961366 0
M  V30 6650 C 603.86 3.5735 2.62327 0
M  V30 6651 H 601.08 0.617445 0.262684 0
M  V30 6652 H 603.624 2.03775 0.172068 0
M  V30 6653 H 601.779 2.98721 2.46666 0
M  V30 6654 H 602.193 5.00725 1.56123 0
M  V30 6655 H 603.667 4.50144 3.1949 0
M  V30 6656 H 604.144 2.81445 3.37173 0
M  V30 6657 H 604.75 3.75807 1.99121 0
M  V30 6658 N 603.065 -0.440357 1.51323 0
M  V30 6659 C 604.295 -1.21079 1.67402 0
M  V30 6660 C 604.703 -1.85555 0.369599 0
M  V30 6661 O 604.046 -1.71375 -0.661525 0
M  V30 6662 C 604.108 -2.33839 2.73056 0
M  V30 6663 C 603.772 -1.89755 4.15743 0
M  V30 6664 C 604.769 -1.40268 5.0062 0
M  V30 6665 C 602.454 -1.97539 4.61826 0
M  V30 6666 C 604.448 -0.991474 6.29642 0
M  V30 6667 C 602.135 -1.56029 5.90845 0
M  V30 6668 C 603.133 -1.06915 6.7458 0
M  V30 6669 O 602.821 -0.659933 8.01187 0
M  V30 6670 H 602.553 -0.371133 0.56501 0
M  V30 6671 H 605.107 -0.528409 1.98487 0
M  V30 6672 H 603.337 -3.05345 2.37279 0
M  V30 6673 H 605.026 -2.95713 2.78044 0
M  V30 6674 H 605.792 -1.33652 4.66221 0
M  V30 6675 H 601.671 -2.34713 3.96776 0
M  V30 6676 H 605.215 -0.607425 6.9495 0
M  V30 6677 H 601.112 -1.62315 6.24759 0
M  V30 6678 H 601.88 -0.786052 8.14717 0
M  V30 6679 N 604.543 -1.41418 -0.695603 0
M  V30 6680 C 605.506 -1.42988 -1.79129 0
M  V30 6681 C 606.506 -0.320514 -1.57573 0
M  V30 6682 O 607.696 -0.58039 -1.64247 0
M  V30 6683 C 604.828 -1.24122 -3.175 0
M  V30 6684 H 606.021 -2.40526 -1.7913 0
M  V30 6685 H 603.574 -1.2756 -0.903225 0
M  V30 6686 H 604.309 -0.274253 -3.23138 0
M  V30 6687 H 604.094 -2.045 -3.34547 0
M  V30 6688 H 605.584 -1.28056 -3.97481 0
M  V30 6689 N 606.021 0.929856 -1.27246 0
M  V30 6690 C 607.268 1.67731 -1.13457 0
M  V30 6691 C 607.596 1.9185 0.319998 0
M  V30 6692 O 606.851 1.50524 1.25064 0
M  V30 6693 C 607.15 3.05116 -1.86115 0
M  V30 6694 C 606.816 3.00715 -3.35978 0
M  V30 6695 C 605.478 2.99222 -3.76855 0
M  V30 6696 C 607.83 2.92168 -4.3161 0
M  V30 6697 C 605.158 2.86962 -5.11732 0
M  V30 6698 C 607.51 2.81449 -5.66542 0
M  V30 6699 C 606.174 2.78305 -6.06715 0
M  V30 6700 H 605.444 0.613772 -0.415168 0
M  V30 6701 H 608.091 1.08456 -1.57827 0
M  V30 6702 H 606.396 3.68083 -1.34246 0
M  V30 6703 H 608.093 3.61822 -1.72876 0
M  V30 6704 H 604.683 3.02664 -3.03468 0
M  V30 6705 H 608.867 2.92421 -4.01003 0
M  V30 6706 H 604.123 2.82913 -5.42006 0
M  V30 6707 H 608.297 2.738 -6.40317 0
M  V30 6708 H 605.924 2.68561 -7.11181 0
M  V30 6709 N 607.499 1.09233 1.13605 0
M  V30 6710 C 608.745 0.828385 1.8511 0
M  V30 6711 C 609.078 -0.64437 1.83198 0
M  V30 6712 O 608.353 -1.47428 1.26867 0
M  V30 6713 C 608.636 1.36167 3.33363 0
M  V30 6714 C 608.489 2.90038 3.438 0
M  V30 6715 C 609.808 0.993819 4.28732 0
M  V30 6716 H 606.927 0.30239 0.672108 0
M  V30 6717 H 609.569 1.35339 1.33355 0
M  V30 6718 H 607.719 0.9151 3.77569 0
M  V30 6719 H 609.391 3.43128 3.08319 0
M  V30 6720 H 607.634 3.27271 2.84739 0
M  V30 6721 H 608.305 3.22428 4.48045 0
M  V30 6722 H 610.781 1.37893 3.92587 0
M  V30 6723 H 609.657 1.39403 5.30903 0
M  V30 6724 H 609.918 -0.0982206 4.41991 0
M  V30 6725 N 608.977 -1.30795 0.87923 0
M  V30 6726 C 610.225 -1.95974 0.493809 0
M  V30 6727 C 610.546 -1.69787 -0.959021 0
M  V30 6728 O 609.816 -1.01832 -1.67353 0
M  V30 6729 H 608.396 -0.725083 0.179622 0
M  V30 6730 H 611.058 -1.59432 1.12105 0
M  V30 6731 H 610.154 -3.05058 0.659263 0
M  V30 6732 N 610.455 -0.639598 -1.44038 0
M  V30 6733 C 611.365 0.0612377 -2.3452 0
M  V30 6734 C 612.381 0.826717 -1.53106 0
M  V30 6735 O 613.557 0.777059 -1.85806 0
M  V30 6736 C 610.622 1.02492 -3.31204 0
M  V30 6737 C 609.683 0.25788 -4.28525 0
M  V30 6738 C 608.916 1.17566 -5.2059 0
M  V30 6739 O 609.139 2.41461 -5.16771 0
M  V30 6740 O 608.073 0.655407 -5.98321 0
M  V30 6741 H 611.899 -0.68318 -2.95916 0
M  V30 6742 H 609.484 -0.399784 -1.43952 0
M  V30 6743 H 611.366 1.57911 -3.90694 0
M  V30 6744 H 610.041 1.7498 -2.7233 0
M  V30 6745 H 608.948 -0.339566 -3.72556 0
M  V30 6746 H 610.281 -0.427154 -4.90343 0
M  V30 6747 N 611.933 1.52934 -0.380664 0
M  V30 6748 C 613.158 2.06363 0.207157 0
M  V30 6749 C 613.583 1.25122 1.4045 0
M  V30 6750 O 612.941 0.274062 1.79217 0
M  V30 6751 C 612.989 3.56162 0.563996 0
M  V30 6752 O 612.093 3.77552 1.65917 0
M  V30 6753 H 611.434 0.663468 0.0265859 0
M  V30 6754 H 613.964 1.9719 -0.545635 0
M  V30 6755 H 613.974 3.99453 0.830752 0
M  V30 6756 H 612.649 4.14732 -0.311427 0
M  V30 6757 H 611.226 3.46154 1.3868 0
M  V30 6758 N 613.412 0.11024 1.57214 0
M  V30 6759 C 614.66 -0.548783 1.94506 0
M  V30 6760 C 614.981 -1.67772 0.99386 0
M  V30 6761 O 614.251 -1.9584 0.0485841 0
M  V30 6762 H 612.831 -0.205715 0.718116 0
M  V30 6763 H 615.493 0.177127 1.94093 0
M  V30 6764 H 614.589 -0.949096 2.97319 0
M  V30 6765 N 614.89 -1.56749 -0.16351 0
M  V30 6766 C 616.13 -1.84234 -0.885271 0
M  V30 6767 C 616.494 -0.692259 -1.79086 0
M  V30 6768 O 617.695 -0.847747 -2.55082 0
M  V30 6769 C 615.966 -3.16857 -1.65337 0
M  V30 6770 S 617.525 -3.65848 -2.42282 0
M  V30 6771 H 614.343 -0.646293 -0.296354 0
M  V30 6772 H 616.945 -1.94951 -0.146365 0
M  V30 6773 H 615.649 -3.98546 -0.979266 0
M  V30 6774 H 615.18 -3.09102 -2.4335 0
M  V30 6775 H 617.195 -3.33796 -3.67143 0
M  V30 6776 N 616.368 0.432326 -1.51554 0
M  V30 6777 C 617.616 1.17901 -1.64146 0
M  V30 6778 C 617.937 1.91604 -0.362367 0
M  V30 6779 O 617.207 1.85764 0.621968 0
M  V30 6780 H 615.787 0.438206 -0.604966 0
M  V30 6781 H 618.449 0.495172 -1.88505 0
M  V30 6782 H 617.545 1.90584 -2.47152 0
M  V30 6783 N 617.846 1.41785 0.688094 0
M  V30 6784 C 618.793 1.44221 1.80191 0
M  V30 6785 C 619.763 0.295688 1.63447 0
M  V30 6786 O 620.948 0.49783 1.84191 0
M  V30 6787 C 618.088 1.33743 3.1813 0
M  V30 6788 C 617.201 2.58325 3.46254 0
M  V30 6789 C 616.336 2.40086 4.73848 0
M  V30 6790 C 615.375 3.60107 4.94964 0
M  V30 6791 N 614.512 3.40892 6.13789 0
M  V30 6792 H 619.352 2.39411 1.77444 0
M  V30 6793 H 616.889 1.18876 0.866423 0
M  V30 6794 H 618.847 1.25669 3.97823 0
M  V30 6795 H 617.477 0.42157 3.20035 0
M  V30 6796 H 616.529 2.7682 2.60912 0
M  V30 6797 H 617.841 3.4758 3.57756 0
M  V30 6798 H 616.995 2.29522 5.61609 0
M  V30 6799 H 615.734 1.483 4.64606 0
M  V30 6800 H 614.739 3.71118 4.05649 0
M  V30 6801 H 615.964 4.52857 5.06061 0
M  V30 6802 H 613.91 2.51812 6.05745 0
M  V30 6803 H 613.827 4.23727 6.26092 0
M  V30 6804 H 615.095 3.34114 7.04264 0
M  V30 6805 N 619.324 -0.923095 1.27737 0
M  V30 6806 C 620.549 -1.71054 1.17283 0
M  V30 6807 C 620.974 -1.86208 -0.266153 0
M  V30 6808 O 620.332 -1.36545 -1.1927 0
M  V30 6809 C 620.38 -3.0854 1.86642 0
M  V30 6810 O 619.484 -3.95528 1.16752 0
M  V30 6811 H 618.825 -0.524136 0.407649 0
M  V30 6812 H 621.355 -1.15487 1.6889 0
M  V30 6813 H 621.365 -3.58828 1.94182 0
M  V30 6814 H 620.04 -2.96828 2.91317 0
M  V30 6815 H 618.617 -3.53967 1.17312 0
M  V30 6816 N 620.802 -1.09834 -1.13024 0
M  V30 6817 C 622.03 -0.858902 -1.8823 0
M  V30 6818 C 622.445 0.590164 -1.79339 0
M  V30 6819 O 621.802 1.4065 -1.16292 0
M  V30 6820 C 621.853 -1.29066 -3.37675 0
M  V30 6821 O 621.574 -2.6829 -3.46341 0
M  V30 6822 C 623.075 -1.08421 -4.29837 0
M  V30 6823 H 620.295 -0.308713 -0.595766 0
M  V30 6824 H 622.839 -1.4614 -1.4305 0
M  V30 6825 H 620.994 -0.731961 -3.80422 0
M  V30 6826 H 621.408 -2.86598 -4.39274 0
M  V30 6827 H 622.882 -1.43553 -5.33007 0
M  V30 6828 H 623.359 -0.0223315 -4.39194 0
M  V30 6829 H 623.965 -1.62907 -3.92863 0
M  V30 6830 N 622.28 1.30327 -0.886154 0
M  V30 6831 C 623.529 1.95373 -0.501243 0
M  V30 6832 C 623.842 1.70722 0.954634 0
M  V30 6833 O 625.048 2.29761 1.44644 0
M  V30 6834 C 623.504 3.49828 -0.845493 0
M  V30 6835 C 623.112 3.83296 -2.31922 0
M  V30 6836 C 624.856 4.2118 -0.529838 0
M  V30 6837 C 622.763 5.30935 -2.60504 0
M  V30 6838 H 621.693 0.731274 -0.183722 0
M  V30 6839 H 624.344 1.48258 -1.08129 0
M  V30 6840 H 622.726 3.95522 -0.19452 0
M  V30 6841 H 623.9 3.48508 -3.01461 0
M  V30 6842 H 622.215 3.2505 -2.60253 0
M  V30 6843 H 624.812 5.29825 -0.720401 0
M  V30 6844 H 625.155 4.12902 0.530828 0
M  V30 6845 H 625.688 3.81173 -1.13806 0
M  V30 6846 H 622.427 5.44265 -3.65316 0
M  V30 6847 H 621.947 5.67019 -1.95575 0
M  V30 6848 H 623.626 5.98381 -2.46066 0
M  V30 6849 N 623.758 0.647228 1.43697 0
M  V30 6850 C 624.688 -0.0345631 2.33474 0
M  V30 6851 C 625.669 -0.818193 1.4913 0
M  V30 6852 O 626.854 -0.780867 1.77809 0
M  V30 6853 C 623.984 -1.00576 3.32418 0
M  V30 6854 C 622.938 -0.33266 4.26705 0
M  V30 6855 C 622.264 -1.41489 5.1564 0
M  V30 6856 C 623.564 0.771204 5.16575 0
M  V30 6857 H 625.258 0.715163 2.90733 0
M  V30 6858 H 622.804 0.345364 1.39797 0
M  V30 6859 H 624.757 -1.49159 3.94119 0
M  V30 6860 H 623.481 -1.78657 2.73403 0
M  V30 6861 H 622.14 0.13267 3.6636 0
M  V30 6862 H 621.788 -2.18698 4.52968 0
M  V30 6863 H 621.488 -0.969799 5.79542 0
M  V30 6864 H 623.012 -1.9022 5.80214 0
M  V30 6865 H 624.426 0.36779 5.72119 0
M  V30 6866 H 622.823 1.1404 5.89165 0
M  V30 6867 H 623.893 1.63169 4.56622 0
M  V30 6868 N 625.236 -1.5273 0.388769 0
M  V30 6869 C 626.183 -2.26437 -0.446639 0
M  V30 6870 C 627.153 -1.28025 -1.05824 0
M  V30 6871 O 628.338 -1.56852 -1.08637 0
M  V30 6872 C 625.478 -3.07407 -1.56828 0
M  V30 6873 C 624.591 -4.20747 -0.979589 0
M  V30 6874 C 623.726 -4.89113 -2.07224 0
M  V30 6875 C 622.765 -5.94447 -1.45942 0
M  V30 6876 N 621.902 -6.56411 -2.49135 0
M  V30 6877 H 626.742 -2.97404 0.18837 0
M  V30 6878 H 624.279 -1.46727 0.104725 0
M  V30 6879 H 626.237 -3.52642 -2.22934 0
M  V30 6880 H 624.867 -2.3865 -2.17361 0
M  V30 6881 H 623.919 -3.7983 -0.208151 0
M  V30 6882 H 625.231 -4.9637 -0.491747 0
M  V30 6883 H 624.385 -5.3765 -2.81101 0
M  V30 6884 H 623.124 -4.13013 -2.59368 0
M  V30 6885 H 622.129 -5.4525 -0.705894 0
M  V30 6886 H 623.354 -6.7248 -0.945932 0
M  V30 6887 H 621.3 -5.83152 -3.00449 0
M  V30 6888 H 621.217 -7.27645 -2.05105 0
M  V30 6889 H 622.485 -7.09592 -3.22644 0
M  V30 6890 N 626.714 -0.118576 -1.57153 0
M  V30 6891 C 627.644 0.828436 -2.1831 0
M  V30 6892 C 628.625 1.27758 -1.12303 0
M  V30 6893 O 629.81 1.34026 -1.40537 0
M  V30 6894 C 626.94 2.07876 -2.78217 0
M  V30 6895 C 625.894 1.76742 -3.89803 0
M  V30 6896 C 625.22 3.08801 -4.36516 0
M  V30 6897 C 626.52 1.03606 -5.11921 0
M  V30 6898 H 628.214 0.318824 -2.97698 0
M  V30 6899 H 625.76 0.151911 -1.43196 0
M  V30 6900 H 627.713 2.74584 -3.19659 0
M  V30 6901 H 626.437 2.61161 -1.96118 0
M  V30 6902 H 625.096 1.12424 -3.48936 0
M  V30 6903 H 624.744 3.6002 -3.51276 0
M  V30 6904 H 624.444 2.88743 -5.11763 0
M  V30 6905 H 625.968 3.76627 -4.80608 0
M  V30 6906 H 627.382 1.60467 -5.50385 0
M  V30 6907 H 625.779 0.936454 -5.92748 0
M  V30 6908 H 626.849 0.0227421 -4.84895 0
M  V30 6909 N 628.193 1.56834 0.155195 0
M  V30 6910 C 629.442 1.82088 0.867567 0
M  V30 6911 C 629.755 0.69849 1.82703 0
M  V30 6912 O 630.961 0.836407 2.58295 0
M  V30 6913 C 629.417 3.22707 1.59336 0
M  V30 6914 C 629.025 4.42859 0.676719 0
M  V30 6915 C 630.769 3.57242 2.293 0
M  V30 6916 C 628.676 5.74501 1.40367 0
M  V30 6917 H 627.606 0.679057 0.327715 0
M  V30 6918 H 630.257 1.83105 0.120351 0
M  V30 6919 H 628.639 3.16054 2.38591 0
M  V30 6920 H 629.813 4.60731 -0.0800196 0
M  V30 6921 H 628.128 4.16311 0.0859129 0
M  V30 6922 H 630.725 4.52847 2.84312 0
M  V30 6923 H 631.068 2.82901 3.05406 0
M  V30 6924 H 631.601 3.6552 1.56972 0
M  V30 6925 H 628.34 6.51915 0.684623 0
M  V30 6926 H 627.86 5.60579 2.13332 0
M  V30 6927 H 629.539 6.17016 1.94681 0
M  V30 6928 N 629.671 -0.424282 1.51781 0
M  V30 6929 C 630.581 -1.54087 1.76902 0
M  V30 6930 C 631.597 -1.61249 0.653826 0
M  V30 6931 O 632.773 -1.78247 0.937552 0
M  V30 6932 C 629.838 -2.8996 1.90063 0
M  V30 6933 C 628.899 -2.92809 3.13945 0
M  V30 6934 C 628.132 -4.22201 3.26469 0
M  V30 6935 O 628.355 -5.15286 2.44616 0
M  V30 6936 O 627.289 -4.31599 4.1953 0
M  V30 6937 H 631.115 -1.358 2.71647 0
M  V30 6938 H 628.7 -0.608618 1.36441 0
M  V30 6939 H 630.582 -3.70575 2.0063 0
M  V30 6940 H 629.257 -3.08347 0.985067 0
M  V30 6941 H 628.164 -2.11102 3.08847 0
M  V30 6942 H 629.497 -2.79369 4.05233 0
M  V30 6943 N 631.149 -1.42148 -0.680565 0
M  V30 6944 C 632.565 -1.24947 -0.992995 0
M  V30 6945 C 632.765 -0.149527 -2.00944 0
M  V30 6946 O 631.821 0.481145 -2.47873 0
M  V30 6947 C 633.134 -2.60426 -1.5033 0
M  V30 6948 C 634.682 -2.67733 -1.62137 0
M  V30 6949 C 635.157 -4.03564 -2.16565 0
M  V30 6950 N 636.648 -4.05488 -2.23905 0
M  V30 6951 C 637.383 -5.07401 -2.67081 0
M  V30 6952 N 636.879 -6.19698 -3.09751 0
M  V30 6953 N 638.672 -4.94758 -2.66778 0
M  V30 6954 H 630.823 -2.12399 -0.0074788 0
M  V30 6955 H 633.086 -0.94571 -0.0658529 0
M  V30 6956 H 632.792 -3.41743 -0.830947 0
M  V30 6957 H 632.666 -2.83949 -2.483 0
M  V30 6958 H 635.053 -1.86765 -2.2848 0
M  V30 6959 H 635.134 -2.48004 -0.626713 0
M  V30 6960 H 634.778 -4.84987 -1.50833 0
M  V30 6961 H 634.708 -4.20641 -3.1681 0
M  V30 6962 H 637.199 -3.24415 -1.93812 0
M  V30 6963 H 637.512 -6.93318 -3.41365 0
M  V30 6964 H 635.857 -6.23212 -3.07623 0
M  V30 6965 H 639.048 -4.06105 -2.32801 0
M  V30 6966 H 639.221 -5.74317 -3.00107 0
M  V30 6967 N 632.627 0.916307 -1.28225 0
M  V30 6968 C 633.557 2.0352 -1.14464 0
M  V30 6969 C 634.538 1.70045 -0.0430844 0
M  V30 6970 O 635.723 1.92954 -0.219619 0
M  V30 6971 C 632.853 3.37889 -0.803027 0
M  V30 6972 C 631.807 3.85516 -1.85908 0
M  V30 6973 C 631.133 5.1682 -1.37116 0
M  V30 6974 C 632.433 4.07655 -3.26519 0
M  V30 6975 H 634.127 2.1529 -2.08064 0
M  V30 6976 H 631.673 1.03446 -1.00174 0
M  V30 6977 H 633.626 4.15654 -0.693537 0
M  V30 6978 H 632.35 3.26164 0.168674 0
M  V30 6979 H 631.009 3.09953 -1.95767 0
M  V30 6980 H 630.657 5.01497 -0.38859 0
M  V30 6981 H 630.357 5.49657 -2.07728 0
M  V30 6982 H 631.881 5.97143 -1.27484 0
M  V30 6983 H 633.295 4.75953 -3.19596 0
M  V30 6984 H 631.692 4.51818 -3.94943 0
M  V30 6985 H 632.762 3.12553 -3.70727 0
M  V30 6986 N 634.105 1.10431 1.1244 0
M  V30 6987 C 635.335 0.867612 1.87499 0
M  V30 6988 C 635.743 -0.585475 1.79913 0
M  V30 6989 O 635.086 -1.41539 1.171 0
M  V30 6990 C 635.148 1.2374 3.37533 0
M  V30 6991 C 634.812 2.69751 3.68895 0
M  V30 6992 C 635.809 3.67988 3.67261 0
M  V30 6993 C 633.494 3.06135 3.98229 0
M  V30 6994 C 635.488 5.00632 3.9452 0
M  V30 6995 C 633.175 4.38967 4.25149 0
M  V30 6996 C 634.173 5.36025 4.23281 0
M  V30 6997 O 633.861 6.66465 4.49533 0
M  V30 6998 H 633.593 0.311196 0.600111 0
M  V30 6999 H 636.147 1.47257 1.43194 0
M  V30 7000 H 634.377 0.575537 3.82393 0
M  V30 7001 H 636.066 0.978187 3.93937 0
M  V30 7002 H 636.832 3.41224 3.44661 0
M  V30 7003 H 632.711 2.31214 3.98825 0
M  V30 7004 H 636.255 5.7638 3.92978 0
M  V30 7005 H 632.152 4.6547 4.47223 0
M  V30 7006 H 632.92 6.72095 4.67152 0
M  V30 7007 N 635.583 -1.29855 0.893053 0
M  V30 7008 C 636.86 -1.90694 0.435336 0
M  V30 7009 C 637.24 -1.8111 -1.08454 0
M  V30 7010 O 636.588 -1.23352 -1.92345 0
M  V30 7011 C 636.798 -3.36033 0.942472 0
M  V30 7012 C 638.146 -4.13083 0.982226 0
M  V30 7013 O 639.17 -3.4491 0.889686 0
M  V30 7014 O 638.029 -5.34896 1.12022 0
M  V30 7015 H 635.123 -0.815978 0.134567 0
M  V30 7016 H 637.669 -1.38367 0.982484 0
M  V30 7017 H 636.441 -3.37132 1.9864 0
M  V30 7018 H 636.064 -3.95828 0.374952 0
M  V30 7019 N 637.061 -0.65484 -1.43351 0
M  V30 7020 C 638.472 -0.248506 -1.85039 0
M  V30 7021 C 638.823 1.20526 -1.54816 0
M  V30 7022 O 637.948 1.92016 -0.99794 0
M  V30 7023 C 638.543 -0.444241 -3.35875 0
M  V30 7024 C 637.102 -0.0922108 -3.76287 0
M  V30 7025 C 636.249 -0.746327 -2.67068 0
M  V30 7026 H 639.2 -0.8584 -1.33481 0
M  V30 7027 H 639.221 0.309762 -3.79237 0
M  V30 7028 H 638.733 -1.50239 -3.5784 0
M  V30 7029 H 636.834 0.96328 -3.59933 0
M  V30 7030 H 636.947 -0.518807 -4.76283 0
M  V30 7031 H 635.311 -0.179416 -2.54067 0
M  V30 7032 H 636.094 -1.80754 -2.91861 0
M  V30 7033 N 638.539 1.52521 -0.396863 0
M  V30 7034 C 639.767 2.06091 0.18275 0
M  V30 7035 C 640.182 1.26796 1.39886 0
M  V30 7036 O 639.539 0.316585 1.79733 0
M  V30 7037 C 639.59 3.57362 0.545377 0
M  V30 7038 O 639.311 4.33656 -0.622428 0
M  V30 7039 C 640.812 4.27305 1.18004 0
M  V30 7040 H 638.032 0.670504 0.025789 0
M  V30 7041 H 640.576 1.96561 -0.564276 0
M  V30 7042 H 638.731 3.66941 1.2423 0
M  V30 7043 H 639.145 5.23507 -0.322662 0
M  V30 7044 H 640.619 5.34366 1.38408 0
M  V30 7045 H 641.096 3.83 2.1496 0
M  V30 7046 H 641.702 4.22064 0.523671 0
M  V30 7047 N 640.017 0.126909 1.57088 0
M  V30 7048 C 640.927 -0.833867 2.1928 0
M  V30 7049 C 641.943 -1.2868 1.17122 0
M  V30 7050 O 643.119 -1.34815 1.49622 0
M  V30 7051 C 640.184 -2.0632 2.78627 0
M  V30 7052 C 639.245 -1.66143 3.95847 0
M  V30 7053 C 638.478 -2.83217 4.52354 0
M  V30 7054 O 638.701 -3.98868 4.0775 0
M  V30 7055 O 637.635 -2.59846 5.42922 0
M  V30 7056 H 641.461 -0.334564 3.01852 0
M  V30 7057 H 639.046 -0.0991091 1.49071 0
M  V30 7058 H 640.928 -2.78304 3.16425 0
M  V30 7059 H 639.603 -2.55242 1.99082 0
M  V30 7060 H 638.51 -0.912435 3.62802 0
M  V30 7061 H 639.843 -1.21957 4.76852 0
M  V30 7062 N 641.495 -1.56914 -0.146875 0
M  V30 7063 C 642.743 -1.82994 -0.85777 0
M  V30 7064 C 643.064 -0.707814 -1.817 0
M  V30 7065 O 642.334 0.270521 -1.94023 0
M  V30 7066 H 640.914 -0.675106 -0.319751 0
M  V30 7067 H 643.576 -1.9439 -0.140849 0
M  V30 7068 H 642.672 -2.77928 -1.41994 0
M  V30 7069 N 642.974 0.416227 -1.52004 0
M  V30 7070 C 644.251 1.17637 -1.56272 0
M  V30 7071 C 644.631 2.08352 -0.339493 0
M  V30 7072 O 643.979 2.1833 0.674124 0
M  V30 7073 C 644.189 1.95986 -2.88774 0
M  V30 7074 C 645.537 2.52299 -3.41512 0
M  V30 7075 O 646.561 2.06174 -2.90467 0
M  V30 7076 O 645.42 3.3648 -4.30631 0
M  V30 7077 H 642.514 0.536726 -0.629169 0
M  V30 7078 H 645.06 0.423583 -1.64329 0
M  V30 7079 H 643.832 1.29487 -3.69254 0
M  V30 7080 H 643.455 2.78285 -2.83978 0
M  V30 7081 N 644.452 1.42507 0.673017 0
M  V30 7082 C 645.701 1.42364 1.42883 0
M  V30 7083 C 646.014 0.0441598 1.9555 0
M  V30 7084 O 647.22 -0.0798679 2.71382 0
M  V30 7085 C 645.676 2.5043 2.58482 0
M  V30 7086 C 645.284 3.94392 2.12506 0
M  V30 7087 C 647.028 2.59455 3.35981 0
M  V30 7088 C 644.935 4.93964 3.25198 0
M  V30 7089 H 643.865 0.52951 0.536782 0
M  V30 7090 H 646.516 1.68422 0.728448 0
M  V30 7091 H 644.898 2.1754 3.30896 0
M  V30 7092 H 646.072 4.36645 1.47233 0
M  V30 7093 H 644.387 3.89233 1.4794 0
M  V30 7094 H 646.984 3.31025 4.19912 0
M  V30 7095 H 647.327 1.63869 3.82691 0
M  V30 7096 H 647.86 2.91549 2.70637 0
M  V30 7097 H 644.599 5.91034 2.83477 0
M  V30 7098 H 644.119 4.56341 3.89247 0
M  V30 7099 H 645.798 5.15763 3.90637 0
M  V30 7100 N 645.93 -0.909495 1.28709 0
M  V30 7101 C 647.179 -1.65365 1.15487 0
M  V30 7102 C 647.492 -1.93364 -0.294941 0
M  V30 7103 O 648.698 -2.65905 -0.548338 0
M  V30 7104 C 647.154 -2.97923 2.01916 0
M  V30 7105 C 646.762 -2.77556 3.51663 0
M  V30 7106 C 648.506 -3.75814 1.97393 0
M  V30 7107 C 646.413 -4.0578 4.30229 0
M  V30 7108 H 645.343 -0.620323 0.42862 0
M  V30 7109 H 647.994 -1.00894 1.53273 0
M  V30 7110 H 646.376 -3.63552 1.5699 0
M  V30 7111 H 647.55 -2.2058 4.04575 0
M  V30 7112 H 645.865 -2.13072 3.57756 0
M  V30 7113 H 648.462 -4.70866 2.53357 0
M  V30 7114 H 648.805 -4.05277 0.951643 0
M  V30 7115 H 649.338 -3.1701 2.40311 0
M  V30 7116 H 646.077 -3.81488 5.33055 0
M  V30 7117 H 645.597 -4.62351 3.82089 0
M  V30 7118 H 647.276 -4.74004 4.40374 0
M  V30 7119 N 647.408 -1.11026 -1.11852 0
M  V30 7120 C 648.654 -0.857729 -1.83768 0
M  V30 7121 C 648.987 0.615143 -1.842 0
M  V30 7122 O 648.262 1.45391 -1.29196 0
M  V30 7123 C 648.545 -1.41453 -3.31154 0
M  V30 7124 C 648.398 -2.95471 -3.39142 0
M  V30 7125 C 649.717 -1.0619 -4.27097 0
M  V30 7126 H 646.836 -0.313044 -0.667212 0
M  V30 7127 H 649.478 -1.37443 -1.31185 0
M  V30 7128 H 647.628 -0.975052 -3.76065 0
M  V30 7129 H 649.3 -3.4799 -3.02821 0
M  V30 7130 H 647.543 -3.31759 -2.79497 0
M  V30 7131 H 648.214 -3.29515 -4.42859 0
M  V30 7132 H 650.69 -1.44122 -3.90344 0
M  V30 7133 H 649.566 -1.47832 -5.28618 0
M  V30 7134 H 649.827 0.0278912 -4.42091 0
M  V30 7135 N 648.886 1.2938 -0.899927 0
M  V30 7136 C 649.834 2.29675 -0.367698 0
M  V30 7137 C 650.828 1.60787 0.533282 0
M  V30 7138 O 652.034 1.75126 0.416058 0
M  V30 7139 H 648.409 0.745284 -0.100279 0
M  V30 7140 H 650.38 2.72008 -1.22696 0
M  V30 7141 C 649.129 3.45512 0.389483 0
M  V30 7142 H 648.452 3.98713 -0.294575 0
M  V30 7143 H 649.892 4.17725 0.726744 0
M  V30 7144 C 648.351 2.969 1.59223 0
M  V30 7145 O 648.881 2.98195 2.69152 0
M  V30 7146 N 647.087 2.52728 1.43447 0
M  V30 7147 H 646.634 2.51873 0.540148 0
M  V30 7148 H 646.592 2.20561 2.24054 0
M  V30 7149 N 650.364 0.662433 1.43002 0
M  V30 7150 C 651.641 0.109096 1.95296 0
M  V30 7151 C 652.021 -1.37313 1.60338 0
M  V30 7152 O 651.369 -2.1032 0.893187 0
M  V30 7153 C 651.579 0.365096 3.47085 0
M  V30 7154 C 652.927 0.274964 4.23709 0
M  V30 7155 O 653.951 0.29816 3.5495 0
M  V30 7156 O 652.81 0.206549 5.4611 0
M  V30 7157 H 649.904 -0.00429724 0.826989 0
M  V30 7158 H 652.45 0.736308 1.52894 0
M  V30 7159 H 651.222 1.39237 3.65689 0
M  V30 7160 H 650.845 -0.294733 3.96506 0
M  V30 7161 N 651.842 -1.52309 0.404946 0
M  V30 7162 C 653.067 -2.06666 -0.1743 0
M  V30 7163 C 653.492 -1.27341 -1.38441 0
M  V30 7164 O 652.85 -0.302539 -1.78758 0
M  V30 7165 C 652.898 -3.57014 -0.507262 0
M  V30 7166 O 652.002 -3.80144 -1.59889 0
M  V30 7167 H 651.343 -0.663807 -0.0160273 0
M  V30 7168 H 653.873 -1.96297 0.576937 0
M  V30 7169 H 653.883 -4.00724 -0.767098 0
M  V30 7170 H 652.558 -4.14184 0.377368 0
M  V30 7171 H 651.135 -3.48316 -1.33155 0
M  V30 7172 N 653.32 -0.135238 -1.57019 0
M  V30 7173 C 654.27 0.820408 -2.12728 0
M  V30 7174 C 655.254 1.21735 -1.05211 0
M  V30 7175 O 656.446 1.18574 -1.31413 0
M  V30 7176 C 653.575 2.06414 -2.74314 0
M  V30 7177 C 652.661 1.69083 -3.88937 0
M  V30 7178 N 653.052 1.0251 -4.95303 0
M  V30 7179 C 651.35 1.98434 -3.99425 0
M  V30 7180 C 652.051 0.846749 -5.75504 0
M  V30 7181 N 651.027 1.3769 -5.25873 0
M  V30 7182 H 654.829 0.302426 -2.9234 0
M  V30 7183 H 652.343 0.0667009 -1.62263 0
M  V30 7184 H 654.34 2.75863 -3.12579 0
M  V30 7185 H 653 2.58741 -1.96171 0
M  V30 7186 H 654.011 0.687207 -5.1332 0
M  V30 7187 H 650.688 2.52693 -3.32344 0
M  V30 7188 H 652.078 0.322949 -6.71123 0
M  V30 7189 N 654.798 1.5699 0.138552 0
M  V30 7190 C 655.746 1.99858 1.18994 0
M  V30 7191 C 656.74 0.89231 1.43994 0
M  V30 7192 O 657.946 1.0775 1.44187 0
M  V30 7193 H 654.321 0.636325 0.400743 0
M  V30 7194 H 656.292 2.87427 0.801755 0
M  V30 7195 C 655.041 2.40235 2.51361 0
M  V30 7196 H 654.364 3.24917 2.32957 0
M  V30 7197 H 655.804 2.74045 3.23535 0
M  V30 7198 C 654.263 1.25829 3.1252 0
M  V30 7199 O 654.793 0.563604 3.97727 0
M  V30 7200 N 652.999 1.02036 2.72097 0
M  V30 7201 H 652.546 1.58705 2.02905 0
M  V30 7202 H 652.504 0.256796 3.1335 0
M  V30 7203 N 656.276 -0.40816 1.52223 0
M  V30 7204 C 657.206 -1.5042 1.78595 0
M  V30 7205 C 658.187 -1.57723 0.636974 0
M  V30 7206 O 659.372 -1.72982 0.882664 0
M  V30 7207 C 656.502 -2.88232 1.93751 0
M  V30 7208 C 655.456 -2.95779 3.09352 0
M  V30 7209 C 654.782 -4.35855 3.09732 0
M  V30 7210 C 656.082 -2.67175 4.48793 0
M  V30 7211 H 657.776 -1.28601 2.70374 0
M  V30 7212 H 655.322 -0.617221 1.30101 0
M  V30 7213 H 657.275 -3.64895 2.10783 0
M  V30 7214 H 655.999 -3.11347 0.986443 0
M  V30 7215 H 654.658 -2.21561 2.92072 0
M  V30 7216 H 654.306 -4.55981 2.12346 0
M  V30 7217 H 654.006 -4.41829 3.87377 0
M  V30 7218 H 655.53 -5.14451 3.28895 0
M  V30 7219 H 656.944 -3.3356 4.66273 0
M  V30 7220 H 655.341 -2.84523 5.28362 0
M  V30 7221 H 656.411 -1.62609 4.56822 0
M  V30 7222 N 657.755 -1.42862 -0.66545 0
M  V30 7223 C 658.702 -1.4707 -1.77874 0
M  V30 7224 C 659.672 -0.321654 -1.62956 0
M  V30 7225 O 660.857 -0.52707 -1.83376 0
M  V30 7226 C 657.997 -1.38788 -3.15962 0
M  V30 7227 C 657.11 -2.63801 -3.42101 0
M  V30 7228 C 656.245 -2.47594 -4.69969 0
M  V30 7229 C 655.284 -3.67936 -4.89172 0
M  V30 7230 N 654.421 -3.50614 -6.08288 0
M  V30 7231 H 659.261 -2.42204 -1.73613 0
M  V30 7232 H 656.798 -1.20239 -0.847401 0
M  V30 7233 H 658.756 -1.31982 -3.95773 0
M  V30 7234 H 657.386 -0.472431 -3.19324 0
M  V30 7235 H 656.438 -2.80935 -2.56475 0
M  V30 7236 H 657.75 -3.53228 -3.52181 0
M  V30 7237 H 656.904 -2.38427 -5.57886 0
M  V30 7238 H 655.643 -1.55672 -4.62188 0
M  V30 7239 H 654.648 -3.77525 -3.99694 0
M  V30 7240 H 655.873 -4.60851 -4.98792 0
M  V30 7241 H 653.819 -2.61417 -6.01662 0
M  V30 7242 H 653.736 -4.33634 -6.19272 0
M  V30 7243 H 655.004 -3.45276 -6.98859 0
M  V30 7244 N 659.233 0.902656 -1.29189 0
M  V30 7245 C 660.51 1.63296 -1.07674 0
M  V30 7246 C 660.89 2.07649 0.380137 0
M  V30 7247 O 660.238 1.82997 1.36837 0
M  V30 7248 C 660.448 2.81603 -2.06158 0
M  V30 7249 C 661.796 3.52359 -2.36914 0
M  V30 7250 O 662.82 2.91767 -2.04329 0
M  V30 7251 O 661.679 4.61586 -2.92576 0
M  V30 7252 H 658.773 0.716889 -0.41231 0
M  V30 7253 H 661.319 0.950984 -1.4055 0
M  V30 7254 H 660.091 2.46004 -3.04299 0
M  V30 7255 H 659.714 3.57508 -1.73993 0
M  V30 7256 N 660.711 1.11618 1.11262 0
M  V30 7257 C 661.96 0.860934 1.82403 0
M  V30 7258 C 662.273 -0.615303 1.8567 0
M  V30 7259 O 663.479 -0.986861 2.52929 0
M  V30 7260 C 661.935 1.49048 3.27586 0
M  V30 7261 C 661.543 3.00089 3.32642 0
M  V30 7262 C 663.287 1.31515 4.03614 0
M  V30 7263 C 661.194 3.56019 4.72234 0
M  V30 7264 H 660.124 0.318423 0.683464 0
M  V30 7265 H 662.775 1.34165 1.25188 0
M  V30 7266 H 661.157 0.937434 3.84744 0
M  V30 7267 H 662.331 3.61813 2.85356 0
M  V30 7268 H 660.646 3.16919 2.70096 0
M  V30 7269 H 663.243 1.70732 5.0671 0
M  V30 7270 H 663.586 0.257917 4.155 0
M  V30 7271 H 664.119 1.83694 3.52848 0
M  V30 7272 H 660.858 4.61463 4.65545 0
M  V30 7273 H 660.378 2.99066 5.19923 0
M  V30 7274 H 662.057 3.54568 5.41193 0
M  V30 7275 N 662.189 -1.289 0.906776 0
M  V30 7276 C 663.137 -2.29477 0.379873 0
M  V30 7277 C 664.131 -1.61068 -0.524747 0
M  V30 7278 O 665.337 -1.75344 -0.406765 0
M  V30 7279 H 661.712 -0.744742 0.10423 0
M  V30 7280 H 663.683 -2.71353 1.24137 0
M  V30 7281 C 662.432 -3.45713 -0.371154 0
M  V30 7282 H 661.755 -3.98551 0.315716 0
M  V30 7283 H 663.195 -4.18105 -0.704581 0
M  V30 7284 C 661.654 -2.9774 -1.57646 0
M  V30 7285 O 662.184 -2.99618 -2.67567 0
M  V30 7286 N 660.39 -2.53485 -1.42105 0
M  V30 7287 H 659.937 -2.52156 -0.526783 0
M  V30 7288 H 659.895 -2.21747 -2.22881 0
M  V30 7289 N 663.667 -0.670007 -1.42649 0
M  V30 7290 C 664.597 -0.00258501 -2.335 0
M  V30 7291 C 665.578 0.794364 -1.50412 0
M  V30 7292 O 666.763 0.75248 -1.79029 0
M  V30 7293 C 663.893 0.952748 -3.33976 0
M  V30 7294 C 662.847 0.264733 -4.2718 0
M  V30 7295 C 662.173 1.33267 -5.17826 0
M  V30 7296 C 663.473 -0.853289 -5.15283 0
M  V30 7297 H 665.167 -0.761326 -2.89559 0
M  V30 7298 H 662.713 -0.367561 -1.3923 0
M  V30 7299 H 664.666 1.4287 -3.96442 0
M  V30 7300 H 663.39 1.74285 -2.7621 0
M  V30 7301 H 662.049 -0.190938 -3.66102 0
M  V30 7302 H 661.697 2.11464 -4.5639 0
M  V30 7303 H 661.397 0.877476 -5.81011 0
M  V30 7304 H 662.921 1.80965 -5.83167 0
M  V30 7305 H 664.335 -0.458763 -5.71462 0
M  V30 7306 H 662.732 -1.23398 -5.87276 0
M  V30 7307 H 663.802 -1.70412 -4.53969 0
M  V30 7308 N 665.145 1.52092 -0.413018 0
M  V30 7309 C 666.092 2.27119 0.410558 0
M  V30 7310 C 667.062 1.29692 1.03774 0
M  V30 7311 O 668.247 1.58561 1.06128 0
M  V30 7312 C 665.387 3.09863 1.51918 0
M  V30 7313 C 664.5 4.22252 0.912528 0
M  V30 7314 C 663.635 4.92348 1.99417 0
M  V30 7315 C 662.674 5.96694 1.36466 0
M  V30 7316 N 661.811 6.60292 2.38661 0
M  V30 7317 H 666.651 2.97067 -0.235661 0
M  V30 7318 H 664.188 1.46542 -0.128055 0
M  V30 7319 H 666.146 3.56144 2.17295 0
M  V30 7320 H 664.776 2.42078 2.13537 0
M  V30 7321 H 663.828 3.80113 0.147697 0
M  V30 7322 H 665.14 4.9709 0.412717 0
M  V30 7323 H 664.294 5.42054 2.72512 0
M  V30 7324 H 663.033 4.17087 2.52764 0
M  V30 7325 H 662.038 5.46304 0.61906 0
M  V30 7326 H 663.263 6.73899 0.838827 0
M  V30 7327 H 661.209 5.87858 2.91134 0
M  V30 7328 H 661.126 7.30816 1.93503 0
M  V30 7329 H 662.394 7.14635 3.11314 0
M  V30 7330 N 666.623 0.143563 1.56945 0
M  V30 7331 C 667.869 -0.502787 1.97088 0
M  V30 7332 C 668.224 -1.62703 1.02691 0
M  V30 7333 O 667.517 -1.91502 0.0613323 0
M  V30 7334 C 667.711 -1.05885 3.41355 0
M  V30 7335 C 667.54 0.00998209 4.49699 0
M  V30 7336 C 666.31 0.450229 5.0329 0
M  V30 7337 C 668.508 0.800174 5.08037 0
M  V30 7338 N 666.49 1.50227 5.95235 0
M  V30 7339 C 667.861 1.70279 5.96158 0
M  V30 7340 C 669.916 0.848344 4.9062 0
M  V30 7341 C 668.619 2.64945 6.68728 0
M  V30 7342 C 670.645 1.78281 5.63888 0
M  V30 7343 C 670.007 2.67296 6.51715 0
M  V30 7344 H 666.106 -0.152891 0.766908 0
M  V30 7345 H 668.69 0.23737 1.93248 0
M  V30 7346 H 666.861 -1.76863 3.45795 0
M  V30 7347 H 668.593 -1.67154 3.68567 0
M  V30 7348 H 665.348 0.0531355 4.7357 0
M  V30 7349 H 665.772 2.02795 6.45913 0
M  V30 7350 H 670.414 0.174228 4.22441 0
M  V30 7351 H 668.132 3.33358 7.36137 0
M  V30 7352 H 671.718 1.82584 5.52408 0
M  V30 7353 H 670.598 3.38428 7.07415 0
M  V30 7354 N 668.101 -1.57061 -0.130224 0
M  V30 7355 C 669.347 -1.85412 -0.836295 0
M  V30 7356 C 669.702 -0.729831 -1.7802 0
M  V30 7357 O 668.995 0.271021 -1.89673 0
M  V30 7358 C 669.189 -3.17878 -1.63365 0
M  V30 7359 C 669.018 -4.43086 -0.768453 0
M  V30 7360 C 667.788 -5.03488 -0.427598 0
M  V30 7361 C 669.986 -5.14219 -0.0911495 0
M  V30 7362 N 667.968 -6.12253 0.449439 0
M  V30 7363 C 669.339 -6.16632 0.645341 0
M  V30 7364 C 671.394 -4.97898 -0.0135625 0
M  V30 7365 C 670.097 -7.0449 1.45212 0
M  V30 7366 C 672.123 -5.86234 0.780001 0
M  V30 7367 C 671.485 -6.88141 1.50472 0
M  V30 7368 H 667.584 -0.728875 -0.283311 0
M  V30 7369 H 670.168 -1.9444 -0.100662 0
M  V30 7370 H 668.339 -3.09967 -2.3404 0
M  V30 7371 H 670.071 -3.34076 -2.28419 0
M  V30 7372 H 666.826 -4.67344 -0.767264 0
M  V30 7373 H 667.25 -6.71263 0.879476 0
M  V30 7374 H 671.892 -4.19082 -0.559511 0
M  V30 7375 H 669.61 -7.82722 2.00926 0
M  V30 7376 H 673.196 -5.75671 0.842246 0
M  V30 7377 H 672.076 -7.55311 2.1089 0
M  V30 7378 N 669.579 0.400081 -1.52437 0
M  V30 7379 C 670.995 0.739359 -1.41441 0
M  V30 7380 C 671.195 1.94512 -0.526053 0
M  V30 7381 O 670.251 2.525 0.00472502 0
M  V30 7382 C 671.564 0.984824 -2.84116 0
M  V30 7383 C 673.112 1.08698 -2.93519 0
M  V30 7384 C 673.587 1.36515 -4.37181 0
M  V30 7385 N 675.078 1.43361 -4.40457 0
M  V30 7386 C 675.813 1.66528 -5.48686 0
M  V30 7387 N 675.309 1.87239 -6.67018 0
M  V30 7388 N 677.102 1.68617 -5.36213 0
M  V30 7389 H 669.253 -0.393484 -2.08723 0
M  V30 7390 H 671.516 -0.1138 -0.941145 0
M  V30 7391 H 671.222 0.171096 -3.51284 0
M  V30 7392 H 671.096 1.90253 -3.25705 0
M  V30 7393 H 673.483 1.89129 -2.26526 0
M  V30 7394 H 673.564 0.147432 -2.55375 0
M  V30 7395 H 673.208 0.565982 -5.04737 0
M  V30 7396 H 673.138 2.31737 -4.7287 0
M  V30 7397 H 675.629 1.29108 -3.55161 0
M  V30 7398 H 675.942 2.04392 -7.45281 0
M  V30 7399 H 674.287 1.84486 -6.70067 0
M  V30 7400 H 677.478 1.5198 -4.42741 0
M  V30 7401 H 677.651 1.86332 -6.20632 0
M  V30 7402 N 671.057 1.43213 0.657864 0
M  V30 7403 C 672.282 1.48227 1.45064 0
M  V30 7404 C 672.707 0.0999939 1.87834 0
M  V30 7405 O 672.065 -0.905269 1.57081 0
M  V30 7406 C 672.113 2.42931 2.6649 0
M  V30 7407 O 671.217 1.91237 3.6538 0
M  V30 7408 H 670.558 0.501551 0.435135 0
M  V30 7409 H 673.088 1.8808 0.805431 0
M  V30 7410 H 673.098 2.6008 3.1436 0
M  V30 7411 H 671.773 3.43348 2.34701 0
M  V30 7412 H 670.35 1.83726 3.24498 0
M  V30 7413 N 672.536 -0.895792 1.29666 0
M  V30 7414 C 673.483 -2.00035 1.15129 0
M  V30 7415 C 674.453 -1.66043 0.0435819 0
M  V30 7416 O 675.638 -1.89621 0.211811 0
M  V30 7417 C 672.778 -3.34774 0.83787 0
M  V30 7418 C 671.891 -3.81525 2.0264 0
M  V30 7419 C 671.026 -5.04858 1.65201 0
M  V30 7420 C 670.065 -5.43988 2.80612 0
M  V30 7421 N 669.202 -6.58507 2.43544 0
M  V30 7422 H 674.042 -2.11802 2.09628 0
M  V30 7423 H 671.579 -1.03719 1.04311 0
M  V30 7424 H 673.537 -4.12311 0.636824 0
M  V30 7425 H 672.167 -3.22724 -0.0702314 0
M  V30 7426 H 671.219 -2.9999 2.33903 0
M  V30 7427 H 672.531 -4.06472 2.89106 0
M  V30 7428 H 671.685 -5.8999 1.41408 0
M  V30 7429 H 670.424 -4.81759 0.758893 0
M  V30 7430 H 669.429 -4.57388 3.05083 0
M  V30 7431 H 670.654 -5.69066 3.70595 0
M  V30 7432 H 668.6 -6.37004 1.56724 0
M  V30 7433 H 668.517 -6.83269 3.23542 0
M  V30 7434 H 669.785 -7.46897 2.2308 0
M  V30 7435 N 674.014 -1.12206 -1.10668 0
M  V30 7436 C 675.263 -0.870595 -1.81944 0
M  V30 7437 C 675.576 0.605447 -1.85994 0
M  V30 7438 O 676.782 0.973433 -2.53449 0
M  V30 7439 C 675.238 -1.50783 -3.26791 0
M  V30 7440 C 674.846 -3.01849 -3.31046 0
M  V30 7441 C 676.59 -1.33653 -4.02911 0
M  V30 7442 C 674.497 -3.58518 -4.70339 0
M  V30 7443 H 673.427 -0.322043 -0.681765 0
M  V30 7444 H 676.078 -1.34827 -1.24475 0
M  V30 7445 H 674.46 -0.957825 -3.84242 0
M  V30 7446 H 675.634 -3.63321 -2.83433 0
M  V30 7447 H 673.949 -3.18346 -2.68411 0
M  V30 7448 H 676.546 -1.73416 -5.05797 0
M  V30 7449 H 676.889 -0.279949 -4.15358 0
M  V30 7450 H 677.422 -1.85562 -3.51868 0
M  V30 7451 H 674.161 -4.63925 -4.63091 0
M  V30 7452 H 673.681 -3.01819 -5.18329 0
M  V30 7453 H 675.36 -3.57434 -5.39305 0
M  V30 7454 N 675.492 1.28418 -0.913599 0
M  V30 7455 C 676.74 1.94596 -0.545594 0
M  V30 7456 C 677.061 1.7227 0.913668 0
M  V30 7457 O 676.331 1.06233 1.64595 0
M  V30 7458 H 674.911 0.720065 -0.198783 0
M  V30 7459 H 677.573 1.56404 -1.16292 0
M  V30 7460 H 676.669 3.03202 -0.739911 0
M  V30 7461 N 676.97 0.677563 1.42291 0
M  V30 7462 C 678.216 0.201272 2.01799 0
M  V30 7463 C 678.549 -1.19004 1.53465 0
M  V30 7464 O 677.824 -1.79953 0.738039 0
M  V30 7465 C 678.107 0.238968 3.59306 0
M  V30 7466 C 677.96 1.66594 4.17812 0
M  V30 7467 C 679.279 -0.411287 4.38174 0
M  V30 7468 H 676.398 0.0746114 0.733214 0
M  V30 7469 H 679.04 0.862872 1.69276 0
M  V30 7470 H 677.19 -0.324368 3.87144 0
M  V30 7471 H 678.862 2.28173 4.00917 0
M  V30 7472 H 677.105 2.20576 3.73536 0
M  V30 7473 H 677.776 1.64398 5.26951 0
M  V30 7474 H 680.252 0.0682804 4.16044 0
M  V30 7475 H 679.128 -0.354286 5.47755 0
M  V30 7476 H 679.389 -1.4893 4.1626 0
M  V30 7477 N 678.448 -1.51871 0.421078 0
M  V30 7478 C 679.694 -2.02237 -0.151014 0
M  V30 7479 C 680.027 -1.30554 -1.43768 0
M  V30 7480 O 679.302 -0.41546 -1.90011 0
M  V30 7481 C 679.585 -3.5802 -0.386482 0
M  V30 7482 C 679.438 -4.40339 0.9177 0
M  V30 7483 C 680.757 -4.24444 -1.16342 0
M  V30 7484 H 677.876 -0.735062 -0.0534102 0
M  V30 7485 H 680.518 -1.81656 0.556888 0
M  V30 7486 H 678.668 -3.75688 -0.989494 0
M  V30 7487 H 680.34 -4.34357 1.55344 0
M  V30 7488 H 678.583 -4.06073 1.526 0
M  V30 7489 H 679.254 -5.47451 0.707187 0
M  V30 7490 H 681.73 -4.10948 -0.652788 0
M  V30 7491 H 680.606 -5.33358 -1.29693 0
M  V30 7492 H 680.867 -3.84204 -2.18724 0
M  V30 7493 N 679.926 -0.151884 -1.56866 0
M  V30 7494 C 681.151 0.508044 -2.01081 0
M  V30 7495 C 681.576 1.57306 -1.03134 0
M  V30 7496 O 680.934 1.81298 -0.0078309 0
M  V30 7497 C 680.982 1.08106 -3.44014 0
M  V30 7498 O 680.086 2.19577 -3.49084 0
M  V30 7499 H 679.427 0.123757 -0.652365 0
M  V30 7500 H 681.957 -0.250055 -2.03066 0
M  V30 7501 H 681.967 1.40851 -3.82916 0
M  V30 7502 H 680.642 0.301168 -4.14808 0
M  V30 7503 H 679.219 1.88023 -3.22027 0
M  V30 7504 N 681.404 1.57128 0.121893 0
M  V30 7505 C 682.336 1.96773 1.17529 0
M  V30 7506 C 683.349 0.866668 1.37814 0
M  V30 7507 O 684.538 1.14497 1.3694 0
M  V30 7508 C 681.638 2.24832 2.53582 0
M  V30 7509 C 680.811 3.56138 2.53939 0
M  V30 7510 C 679.87 3.72443 3.71716 0
M  V30 7511 O 678.896 4.44584 3.55434 0
M  V30 7512 N 680.098 3.10993 4.90167 0
M  V30 7513 H 682.863 2.87743 0.838086 0
M  V30 7514 H 680.424 1.58881 0.311199 0
M  V30 7515 H 682.416 2.32958 3.30927 0
M  V30 7516 H 680.986 1.40002 2.79496 0
M  V30 7517 H 680.206 3.59226 1.62329 0
M  V30 7518 H 681.494 4.42448 2.51231 0
M  V30 7519 H 680.892 2.52345 5.06299 0
M  V30 7520 H 679.449 3.24644 5.65198 0
M  V30 7521 N 682.882 -0.391992 1.52647 0
M  V30 7522 C 684.159 -1.15136 1.58123 0
M  V30 7523 C 684.539 -2.07786 0.372597 0
M  V30 7524 O 683.887 -2.19374 -0.639304 0
M  V30 7525 C 684.097 -1.91367 2.91856 0
M  V30 7526 C 685.445 -2.46833 3.45483 0
M  V30 7527 O 686.469 -2.01527 2.9371 0
M  V30 7528 O 685.328 -3.29587 4.3593 0
M  V30 7529 H 682.422 -0.526649 0.637629 0
M  V30 7530 H 684.968 -0.397386 1.64982 0
M  V30 7531 H 683.74 -1.23597 3.71268 0
M  V30 7532 H 683.363 -2.73732 2.88369 0
M  V30 7533 N 684.36 -1.4356 -0.65026 0
M  V30 7534 C 685.771 -1.40324 -1.2315 0
M  V30 7535 C 686.122 -0.108812 -1.95898 0
M  V30 7536 O 685.247 0.79163 -2.01401 0
M  V30 7537 C 685.842 -2.54195 -2.23987 0
M  V30 7538 C 684.401 -2.54215 -2.77582 0
M  V30 7539 C 683.548 -2.31752 -1.5227 0
M  V30 7540 H 686.499 -1.52418 -0.442095 0
M  V30 7541 H 686.52 -2.25854 -3.0622 0
M  V30 7542 H 686.032 -3.48392 -1.71011 0
M  V30 7543 H 684.133 -1.63907 -3.34612 0
M  V30 7544 H 684.246 -3.52081 -3.24925 0
M  V30 7545 H 682.61 -1.80476 -1.79723 0
M  V30 7546 H 683.393 -3.28037 -1.01225 0
M  V30 7547 N 685.838 0.888903 -1.30139 0
M  V30 7548 C 686.768 2.01046 -1.18755 0
M  V30 7549 C 687.749 1.69916 -0.0791438 0
M  V30 7550 O 688.934 1.92445 -0.260498 0
M  V30 7551 C 686.064 3.36109 -0.874518 0
M  V30 7552 C 685.018 3.81486 -1.94043 0
M  V30 7553 C 684.344 5.13796 -1.48047 0
M  V30 7554 C 685.644 4.00637 -3.35093 0
M  V30 7555 H 687.338 2.10828 -2.12584 0
M  V30 7556 H 684.884 1.01298 -1.02346 0
M  V30 7557 H 686.837 4.14089 -0.781548 0
M  V30 7558 H 685.561 3.26449 0.0994519 0
M  V30 7559 H 684.22 3.05731 -2.02297 0
M  V30 7560 H 683.868 5.0056 -0.494878 0
M  V30 7561 H 683.568 5.45127 -2.19341 0
M  V30 7562 H 685.092 5.94305 -1.40121 0
M  V30 7563 H 686.506 4.69067 -3.2962 0
M  V30 7564 H 684.903 4.43339 -4.04438 0
M  V30 7565 H 685.973 3.0462 -3.77273 0
M  V30 7566 N 687.317 1.12792 1.10072 0
M  V30 7567 C 688.247 0.821688 2.18565 0
M  V30 7568 C 689.228 -0.21612 1.68721 0
M  V30 7569 O 690.413 -0.0764932 1.94049 0
M  V30 7570 C 687.543 0.279624 3.46172 0
M  V30 7571 C 686.497 1.25092 4.09312 0
M  V30 7572 C 685.823 0.568916 5.31665 0
M  V30 7573 C 687.123 2.60699 4.52585 0
M  V30 7574 H 688.817 1.72888 2.44438 0
M  V30 7575 H 686.363 0.832702 1.17482 0
M  V30 7576 H 688.316 0.053099 4.21367 0
M  V30 7577 H 687.04 -0.662929 3.19801 0
M  V30 7578 H 685.699 1.46332 3.36129 0
M  V30 7579 H 685.347 -0.378898 5.01571 0
M  V30 7580 H 685.047 1.21687 5.74862 0
M  V30 7581 H 686.571 0.351517 6.09587 0
M  V30 7582 H 687.985 2.43465 5.19035 0
M  V30 7583 H 686.382 3.21608 5.06644 0
M  V30 7584 H 687.452 3.1886 3.65317 0
M  V30 7585 N 688.795 -1.27931 0.920396 0
M  V30 7586 C 690.042 -1.94689 0.557007 0
M  V30 7587 C 690.37 -1.724 -0.900476 0
M  V30 7588 O 689.625 -1.04194 -1.65657 0
M  V30 7589 C 689.924 -3.47853 0.820558 0
M  V30 7590 C 689.59 -3.90252 2.25863 0
M  V30 7591 C 688.252 -4.01539 2.65179 0
M  V30 7592 C 690.604 -4.11853 3.19415 0
M  V30 7593 C 687.932 -4.3181 3.97187 0
M  V30 7594 C 690.284 -4.43606 4.50995 0
M  V30 7595 C 688.948 -4.53105 4.90155 0
M  V30 7596 H 688.218 -0.712416 0.203823 0
M  V30 7597 H 690.865 -1.52142 1.16298 0
M  V30 7598 H 689.17 -3.91578 0.131844 0
M  V30 7599 H 690.867 -3.97634 0.51847 0
M  V30 7600 H 687.457 -3.81999 1.94358 0
M  V30 7601 H 691.641 -4.0258 2.90246 0
M  V30 7602 H 686.897 -4.37371 4.2722 0
M  V30 7603 H 691.071 -4.59268 5.23494 0
M  V30 7604 H 688.698 -4.76315 5.92476 0
M  V30 7605 N 690.273 -0.685099 -1.4193 0
M  V30 7606 C 691.498 -0.218842 -2.06242 0
M  V30 7607 C 691.923 1.11923 -1.51178 0
M  V30 7608 O 691.281 1.69837 -0.634446 0
M  V30 7609 C 691.329 -0.175592 -3.60172 0
M  V30 7610 O 690.433 0.852776 -4.03487 0
M  V30 7611 H 689.774 -0.109531 -0.654904 0
M  V30 7612 H 692.304 -0.937013 -1.81882 0
M  V30 7613 H 692.314 -0.00291151 -4.08 0
M  V30 7614 H 690.989 -1.15222 -3.99621 0
M  V30 7615 H 689.566 0.650301 -3.67186 0
M  V30 7616 N 691.751 1.51645 -0.429126 0
M  V30 7617 C 692.699 2.29119 0.400921 0
M  V30 7618 C 693.693 1.34628 1.02819 0
M  V30 7619 O 694.899 1.52004 0.964098 0
M  V30 7620 H 691.274 0.737273 0.148095 0
M  V30 7621 H 693.245 2.97144 -0.273457 0
M  V30 7622 C 691.994 3.13953 1.49429 0
M  V30 7623 H 691.317 3.86544 1.02097 0
M  V30 7624 H 692.757 3.71232 2.04849 0
M  V30 7625 C 691.216 2.28796 2.47293 0
M  V30 7626 O 691.746 1.94193 3.51642 0
M  V30 7627 N 689.952 1.92177 2.17982 0
M  V30 7628 H 689.499 2.20517 1.33154 0
M  V30 7629 H 689.457 1.35497 2.83704 0
M  V30 7630 N 693.229 0.160201 1.56784 0
M  V30 7631 C 694.454 -0.497373 2.01348 0
M  V30 7632 C 694.879 -1.56757 1.03966 0
M  V30 7633 O 694.237 -1.81292 0.0174455 0
M  V30 7634 C 694.285 -1.0628 3.44582 0
M  V30 7635 O 693.389 -2.17723 3.50244 0
M  V30 7636 H 692.73 -0.120295 0.653012 0
M  V30 7637 H 695.26 0.260821 2.02931 0
M  V30 7638 H 695.27 -1.38819 3.83658 0
M  V30 7639 H 693.945 -0.279166 4.14962 0
M  V30 7640 H 692.522 -1.86313 3.2302 0
M  V30 7641 N 694.707 -1.5719 -0.113559 0
M  V30 7642 C 695.956 -1.84325 -0.818984 0
M  V30 7643 C 696.269 -0.746685 -1.80787 0
M  V30 7644 O 697.475 -0.904596 -2.55987 0
M  V30 7645 C 695.931 -3.26818 -1.50724 0
M  V30 7646 C 695.539 -4.44498 -0.559065 0
M  V30 7647 C 697.283 -3.63196 -2.19748 0
M  V30 7648 C 695.19 -5.7802 -1.25086 0
M  V30 7649 H 694.12 -0.687507 -0.309596 0
M  V30 7650 H 696.771 -1.8336 -0.0717621 0
M  V30 7651 H 695.153 -3.22269 -2.30128 0
M  V30 7652 H 696.327 -4.60356 0.202146 0
M  V30 7653 H 694.642 -4.16393 0.024495 0
M  V30 7654 H 697.239 -4.60226 -2.72206 0
M  V30 7655 H 697.582 -2.90899 -2.97798 0
M  V30 7656 H 698.115 -3.69553 -1.47226 0
M  V30 7657 H 694.854 -6.53501 -0.511539 0
M  V30 7658 H 694.374 -5.66038 -1.98395 0
M  V30 7659 H 696.053 -6.2196 -1.78253 0
M  V30 7660 N 696.185 0.383891 -1.52853 0
M  V30 7661 C 697.132 1.46924 -1.77995 0
M  V30 7662 C 698.102 1.53958 -0.623396 0
M  V30 7663 O 699.287 1.70134 -0.863657 0
M  V30 7664 C 696.427 2.84093 -1.95921 0
M  V30 7665 C 695.54 2.86171 -3.23621 0
M  V30 7666 C 694.675 4.14799 -3.31836 0
M  V30 7667 C 693.714 4.10948 -4.53639 0
M  V30 7668 N 692.851 5.31192 -4.59107 0
M  V30 7669 H 697.691 1.24786 -2.70615 0
M  V30 7670 H 695.228 0.605265 -1.34071 0
M  V30 7671 H 697.186 3.63755 -2.04299 0
M  V30 7672 H 695.816 3.04671 -1.06656 0
M  V30 7673 H 694.868 1.9885 -3.24288 0
M  V30 7674 H 696.18 2.79194 -4.13343 0
M  V30 7675 H 695.334 5.02867 -3.39425 0
M  V30 7676 H 694.073 4.24505 -2.40097 0
M  V30 7677 H 693.078 3.21268 -4.46169 0
M  V30 7678 H 694.303 4.0286 -5.467 0
M  V30 7679 H 692.249 5.41518 -3.70262 0
M  V30 7680 H 692.166 5.26311 -5.42708 0
M  V30 7681 H 693.434 6.21143 -4.70958 0
M  V30 7682 N 697.663 1.43903 0.642637 0
M  V30 7683 C 698.611 1.50164 1.77634 0
M  V30 7684 C 699.605 0.374294 1.65213 0
M  V30 7685 O 700.811 0.548748 1.71431 0
M  V30 7686 H 697.186 0.470974 0.586249 0
M  V30 7687 H 699.157 2.45603 1.69474 0
M  V30 7688 C 697.906 1.45196 3.15933 0
M  V30 7689 H 697.229 2.31253 3.26132 0
M  V30 7690 H 698.669 1.53638 3.95185 0
M  V30 7691 C 697.128 0.171043 3.36466 0
M  V30 7692 O 697.658 -0.763413 3.94379 0
M  V30 7693 N 695.864 0.077847 2.90496 0
M  V30 7694 H 695.411 0.8391 2.43551 0
M  V30 7695 H 695.369 -0.778473 3.0461 0
M  V30 7696 N 699.141 -0.881989 1.30609 0
M  V30 7697 C 700.089 -2.00942 1.17155 0
M  V30 7698 C 701.083 -1.69198 0.0827154 0
M  V30 7699 O 702.289 -1.78342 0.243775 0
M  V30 7700 H 698.664 -0.658913 0.362406 0
M  V30 7701 H 700.635 -2.09423 2.12567 0
M  V30 7702 C 699.384 -3.36294 0.883273 0
M  V30 7703 H 698.707 -3.61233 1.7132 0
M  V30 7704 H 700.147 -4.15812 0.829255 0
M  V30 7705 C 698.606 -3.34348 -0.413851 0
M  V30 7706 O 699.136 -3.75216 -1.43444 0
M  V30 7707 N 697.342 -2.87459 -0.426082 0
M  V30 7708 H 696.889 -2.54397 0.40493 0
M  V30 7709 H 696.847 -2.8654 -1.29391 0
M  V30 7710 N 700.619 -1.13374 -1.09472 0
M  V30 7711 C 701.868 -0.889844 -1.8101 0
M  V30 7712 C 702.181 0.585686 -1.86625 0
M  V30 7713 O 703.387 0.946497 -2.54467 0
M  V30 7714 C 701.843 -1.54241 -3.25174 0
M  V30 7715 C 701.451 -3.05343 -3.27826 0
M  V30 7716 C 703.195 -1.37919 -4.0147 0
M  V30 7717 C 701.102 -3.63486 -4.6651 0
M  V30 7718 H 700.032 -0.329256 -0.678311 0
M  V30 7719 H 702.683 -1.36139 -1.23038 0
M  V30 7720 H 701.065 -0.998525 -3.83204 0
M  V30 7721 H 702.239 -3.66307 -2.79563 0
M  V30 7722 H 700.554 -3.21175 -2.65019 0
M  V30 7723 H 703.151 -1.78771 -5.03929 0
M  V30 7724 H 703.494 -0.323987 -4.15037 0
M  V30 7725 H 704.027 -1.89284 -3.49881 0
M  V30 7726 H 700.766 -4.68811 -4.58145 0
M  V30 7727 H 700.286 -3.073 -5.15099 0
M  V30 7728 H 701.965 -3.63134 -5.35484 0
M  V30 7729 N 702.098 1.27442 -0.927168 0
M  V30 7730 C 703.045 2.26863 -0.424459 0
M  V30 7731 C 704.015 1.5813 0.508346 0
M  V30 7732 O 705.2 1.85946 0.42762 0
M  V30 7733 C 702.34 3.43639 0.31718 0
M  V30 7734 C 701.453 4.27087 -0.649675 0
M  V30 7735 C 700.588 5.31082 0.111753 0
M  V30 7736 C 699.627 6.062 -0.847843 0
M  V30 7737 N 698.764 7.01999 -0.119074 0
M  V30 7738 H 703.604 2.69239 -1.27728 0
M  V30 7739 H 701.141 1.32394 -0.641106 0
M  V30 7740 H 703.099 4.10155 0.763486 0
M  V30 7741 H 701.729 3.02217 1.13424 0
M  V30 7742 H 700.781 3.60491 -1.21451 0
M  V30 7743 H 702.093 4.79242 -1.38307 0
M  V30 7744 H 701.247 6.03544 0.618 0
M  V30 7745 H 699.986 4.7973 0.878114 0
M  V30 7746 H 698.991 5.32577 -1.36534 0
M  V30 7747 H 700.216 6.59642 -1.61398 0
M  V30 7748 H 698.162 6.52977 0.629051 0
M  V30 7749 H 698.079 7.5184 -0.792046 0
M  V30 7750 H 699.347 7.78638 0.366537 0
M  V30 7751 N 703.576 0.692616 1.41565 0
M  V30 7752 C 704.806 0.230943 2.05305 0
M  V30 7753 C 705.214 -1.12379 1.52209 0
M  V30 7754 O 704.557 -1.71281 0.663968 0
M  V30 7755 C 704.619 0.107894 3.59338 0
M  V30 7756 C 704.283 1.39419 4.35214 0
M  V30 7757 C 705.28 2.33143 4.64694 0
M  V30 7758 C 702.965 1.64674 4.74539 0
M  V30 7759 C 704.959 3.50385 5.32456 0
M  V30 7760 C 702.646 2.82202 5.42038 0
M  V30 7761 C 703.644 3.74881 5.70923 0
M  V30 7762 O 703.332 4.90351 6.37033 0
M  V30 7763 H 703.064 0.105708 0.667684 0
M  V30 7764 H 705.618 0.94488 1.82376 0
M  V30 7765 H 703.848 -0.661785 3.80995 0
M  V30 7766 H 705.537 -0.316213 4.04666 0
M  V30 7767 H 706.303 2.14887 4.34797 0
M  V30 7768 H 702.182 0.934007 4.51439 0
M  V30 7769 H 705.726 4.22743 5.54918 0
M  V30 7770 H 701.623 3.00376 5.71353 0
M  V30 7771 H 702.391 4.90128 6.55528 0
M  V30 7772 N 705.054 -1.51416 0.437162 0
M  V30 7773 C 706.279 -2.0699 -0.130424 0
M  V30 7774 C 706.704 -1.30249 -1.35709 0
M  V30 7775 O 706.062 -0.340388 -1.78076 0
M  V30 7776 C 706.11 -3.5801 -0.43142 0
M  V30 7777 O 705.214 -3.8345 -1.5179 0
M  V30 7778 H 704.555 -0.663997 -0.00194339 0
M  V30 7779 H 707.085 -1.95029 0.618445 0
M  V30 7780 H 707.095 -4.02261 -0.681926 0
M  V30 7781 H 705.77 -4.13291 0.465137 0
M  V30 7782 H 704.347 -3.51062 -1.25737 0
M  V30 7783 N 706.532 -0.168513 -1.56696 0
M  V30 7784 C 707.462 0.758563 -2.20835 0
M  V30 7785 C 708.443 1.24121 -1.1631 0
M  V30 7786 O 709.628 1.29487 -1.4473 0
M  V30 7787 C 706.758 1.9892 -2.8469 0
M  V30 7788 C 705.712 1.64252 -3.95228 0
M  V30 7789 C 705.038 2.94757 -4.46119 0
M  V30 7790 C 706.338 0.872675 -5.14958 0
M  V30 7791 H 708.032 0.223953 -2.98561 0
M  V30 7792 H 705.578 0.106277 -1.43607 0
M  V30 7793 H 707.531 2.64275 -3.28233 0
M  V30 7794 H 706.255 2.5479 -2.04327 0
M  V30 7795 H 704.914 1.01266 -3.52336 0
M  V30 7796 H 704.562 3.48662 -3.62552 0
M  V30 7797 H 704.262 2.72316 -5.2069 0
M  V30 7798 H 705.786 3.61147 -4.92347 0
M  V30 7799 H 707.2 1.42875 -5.55211 0
M  V30 7800 H 705.597 0.747402 -5.95428 0
M  V30 7801 H 706.667 -0.131535 -4.84722 0
M  V30 7802 N 708.01 1.57248 0.105221 0
M  V30 7803 C 709.24 1.89492 0.823175 0
M  V30 7804 C 709.648 0.75934 1.73294 0
M  V30 7805 O 708.991 -0.278182 1.81581 0
M  V30 7806 C 709.053 3.16891 1.69765 0
M  V30 7807 C 708.717 4.46787 0.960769 0
M  V30 7808 C 709.714 5.19061 0.295218 0
M  V30 7809 C 707.399 4.93467 0.937854 0
M  V30 7810 C 709.393 6.36246 -0.383393 0
M  V30 7811 C 707.08 6.10566 0.255452 0
M  V30 7812 C 708.078 6.81804 -0.404003 0
M  V30 7813 O 707.766 7.96673 -1.07549 0
M  V30 7814 H 707.498 0.631512 0.24118 0
M  V30 7815 H 710.052 2.05203 0.0899655 0
M  V30 7816 H 708.282 2.973 2.47285 0
M  V30 7817 H 709.971 3.35046 2.29126 0
M  V30 7818 H 710.737 4.84044 0.304448 0
M  V30 7819 H 706.616 4.37913 1.44058 0
M  V30 7820 H 710.16 6.91787 -0.898696 0
M  V30 7821 H 706.057 6.45039 0.244032 0
M  V30 7822 H 706.825 8.12596 -0.981355 0
M  V30 7823 N 709.488 -0.375779 1.53054 0
M  V30 7824 C 710.713 -1.14484 1.7294 0
M  V30 7825 C 711.138 -1.82572 0.452668 0
M  V30 7826 O 710.496 -1.71343 -0.592567 0
M  V30 7827 C 710.544 -2.15857 2.88857 0
M  V30 7828 O 709.648 -3.22725 2.56753 0
M  V30 7829 H 708.989 -0.332666 0.574656 0
M  V30 7830 H 711.519 -0.436025 1.999 0
M  V30 7831 H 711.529 -2.59631 3.14731 0
M  V30 7832 H 710.204 -1.65689 3.81471 0
M  V30 7833 H 708.781 -2.83996 2.41663 0
M  V30 7834 N 710.966 -1.44241 -0.634997 0
M  V30 7835 C 711.896 -1.53632 -1.7584 0
M  V30 7836 C 712.877 -0.389603 -1.65578 0
M  V30 7837 O 714.062 -0.609219 -1.84397 0
M  V30 7838 C 711.192 -1.47644 -3.14354 0
M  V30 7839 C 710.146 -2.60752 -3.394 0
M  V30 7840 C 709.472 -2.39817 -4.77904 0
M  V30 7841 C 710.772 -4.02921 -3.32343 0
M  V30 7842 H 712.466 -2.47662 -1.68238 0
M  V30 7843 H 710.012 -1.19197 -0.807969 0
M  V30 7844 H 711.965 -1.52815 -3.92716 0
M  V30 7845 H 710.689 -0.501284 -3.2273 0
M  V30 7846 H 709.348 -2.54965 -2.63417 0
M  V30 7847 H 708.996 -1.40502 -4.82978 0
M  V30 7848 H 708.696 -3.15649 -4.9562 0
M  V30 7849 H 710.22 -2.46799 -5.585 0
M  V30 7850 H 711.634 -4.10098 -4.00615 0
M  V30 7851 H 710.031 -4.78925 -3.61595 0
M  V30 7852 H 711.101 -4.26766 -2.30215 0
M  V30 7853 N 712.444 0.87505 -1.31075 0
M  V30 7854 C 713.391 1.98178 -1.18296 0
M  V30 7855 C 714.361 1.65952 -0.0699923 0
M  V30 7856 O 715.546 1.8926 -0.241951 0
M  V30 7857 C 712.686 3.33399 -0.891024 0
M  V30 7858 C 711.799 3.78253 -2.08684 0
M  V30 7859 C 710.934 5.02166 -1.73212 0
M  V30 7860 C 709.973 5.39455 -2.89231 0
M  V30 7861 N 709.11 6.54549 -2.53989 0
M  V30 7862 H 713.95 2.0844 -2.12971 0
M  V30 7863 H 711.487 1.02047 -1.05948 0
M  V30 7864 H 713.445 4.11246 -0.702338 0
M  V30 7865 H 712.075 3.22794 0.0188799 0
M  V30 7866 H 711.127 2.9623 -2.38646 0
M  V30 7867 H 712.439 4.01821 -2.95536 0
M  V30 7868 H 711.593 5.87666 -1.50777 0
M  V30 7869 H 710.332 4.80491 -0.83544 0
M  V30 7870 H 709.337 4.52477 -3.12321 0
M  V30 7871 H 710.562 5.63098 -3.79601 0
M  V30 7872 H 708.508 6.3443 -1.66838 0
M  V30 7873 H 708.425 6.78035 -3.34372 0
M  V30 7874 H 709.693 7.43254 -2.34934 0
M  V30 7875 N 713.922 1.13953 1.08869 0
M  V30 7876 C 715.199 0.815768 1.77777 0
M  V30 7877 C 715.579 -0.691624 1.99449 0
M  V30 7878 O 714.927 -1.63085 1.60049 0
M  V30 7879 C 715.137 1.60916 3.09689 0
M  V30 7880 C 716.485 1.80549 3.84301 0
M  V30 7881 O 717.509 1.57562 3.19457 0
M  V30 7882 O 716.368 2.18946 5.00724 0
M  V30 7883 H 713.462 0.298445 0.771271 0
M  V30 7884 H 716.008 1.24446 1.15374 0
M  V30 7885 H 714.78 2.6333 2.89435 0
M  V30 7886 H 714.403 1.17578 3.79817 0
M  V30 7887 N 715.4 -1.26948 0.933913 0
M  V30 7888 C 716.33 -2.29017 0.45534 0
M  V30 7889 C 717.311 -1.62961 -0.487605 0
M  V30 7890 O 718.496 -1.90223 -0.391022 0
M  V30 7891 C 715.626 -3.46112 -0.287015 0
M  V30 7892 C 714.58 -4.24205 0.568682 0
M  V30 7893 C 713.906 -5.3384 -0.303206 0
M  V30 7894 C 715.206 -4.88954 1.83633 0
M  V30 7895 H 716.9 -2.69298 1.30839 0
M  V30 7896 H 714.446 -1.29459 0.630579 0
M  V30 7897 H 716.399 -4.16622 -0.6328 0
M  V30 7898 H 715.123 -3.04765 -1.17414 0
M  V30 7899 H 713.782 -3.5545 0.897261 0
M  V30 7900 H 713.43 -4.88734 -1.18947 0
M  V30 7901 H 713.13 -5.86998 0.265879 0
M  V30 7902 H 714.654 -6.0719 -0.644423 0
M  V30 7903 H 716.068 -5.51717 1.55823 0
M  V30 7904 H 714.465 -5.52198 2.34941 0
M  V30 7905 H 715.535 -4.12305 2.55211 0
M  V30 7906 N 716.879 -0.700114 -1.41195 0
M  V30 7907 C 717.789 -0.0382854 -2.34569 0
M  V30 7908 C 718.805 0.761036 -1.56474 0
M  V30 7909 O 719.981 0.697553 -1.88934 0
M  V30 7910 C 717.046 0.883522 -3.35253 0
M  V30 7911 C 716.107 0.0758957 -4.29233 0
M  V30 7912 C 715.34 0.9538 -5.25108 0
M  V30 7913 O 715.563 2.19326 -5.26547 0
M  V30 7914 O 714.497 0.401049 -6.00562 0
M  V30 7915 H 718.323 -0.808073 -2.92752 0
M  V30 7916 H 715.908 -0.460479 -1.42127 0
M  V30 7917 H 717.79 1.41199 -3.9704 0
M  V30 7918 H 716.465 1.63272 -2.79506 0
M  V30 7919 H 715.372 -0.497274 -3.7078 0
M  V30 7920 H 716.705 -0.634741 -4.8809 0
M  V30 7921 N 718.357 1.51182 -0.445186 0
M  V30 7922 C 719.32 2.26501 0.350722 0
M  V30 7923 C 720.32 1.3025 0.942952 0
M  V30 7924 O 721.51 1.53897 0.816175 0
M  V30 7925 C 718.642 3.06274 1.49697 0
M  V30 7926 H 719.835 2.98299 -0.309474 0
M  V30 7927 H 717.388 1.55034 -0.198551 0
M  V30 7928 H 718.123 2.38911 2.19299 0
M  V30 7929 H 717.908 3.76979 1.0784 0
M  V30 7930 H 719.398 3.63306 2.05909 0
M  V30 7931 N 719.835 0.176821 1.56605 0
M  V30 7932 C 720.768 -0.790135 2.14084 0
M  V30 7933 C 721.746 -1.22219 1.07244 0
M  V30 7934 O 722.93 -1.31298 1.35252 0
M  V30 7935 C 720.057 -2.06475 2.68488 0
M  V30 7936 C 719.103 -1.77628 3.87751 0
M  V30 7937 S 719.936 -0.940612 5.27174 0
M  V30 7938 C 721.092 -2.22577 5.84988 0
M  V30 7939 H 721.325 -0.30144 2.95768 0
M  V30 7940 H 718.858 -0.0379279 1.54353 0
M  V30 7941 H 720.816 -2.79683 3.00479 0
M  V30 7942 H 719.477 -2.52457 1.8688 0
M  V30 7943 H 718.67 -2.72215 4.24164 0
M  V30 7944 H 718.272 -1.12512 3.56675 0
M  V30 7945 H 720.564 -3.17992 5.98237 0
M  V30 7946 H 721.507 -1.90624 6.81959 0
M  V30 7947 H 721.915 -2.34588 5.13448 0
M  V30 7948 N 721.313 -1.57302 -0.09688 0
M  V30 7949 C 722.223 -2.05258 -1.13606 0
M  V30 7950 C 723.239 -0.977137 -1.43972 0
M  V30 7951 O 724.415 -1.29018 -1.54649 0
M  V30 7952 C 721.48 -2.46593 -2.43706 0
M  V30 7953 C 720.541 -3.68322 -2.20538 0
M  V30 7954 C 719.774 -4.07676 -3.44435 0
M  V30 7955 O 719.997 -3.47141 -4.52603 0
M  V30 7956 O 718.931 -5.00641 -3.34129 0
M  V30 7957 H 722.757 -2.94069 -0.758752 0
M  V30 7958 H 720.342 -1.46164 -0.309263 0
M  V30 7959 H 722.224 -2.73814 -3.20318 0
M  V30 7960 H 720.899 -1.6092 -2.80867 0
M  V30 7961 H 719.806 -3.4622 -1.41713 0
M  V30 7962 H 721.139 -4.54769 -1.88271 0
M  V30 7963 N 722.791 0.367657 -1.53252 0
M  V30 7964 C 723.739 1.47061 -1.8021 0
M  V30 7965 C 724.733 1.55539 -0.671112 0
M  V30 7966 O 725.939 1.58451 -0.854014 0
M  V30 7967 H 722.314 0.489868 -0.570555 0
M  V30 7968 H 724.285 1.21527 -2.72532 0
M  V30 7969 C 723.034 2.83924 -2.00706 0
M  V30 7970 H 722.357 2.78158 -2.87172 0
M  V30 7971 H 723.797 3.60281 -2.23547 0
M  V30 7972 C 722.256 3.27613 -0.785568 0
M  V30 7973 O 722.786 4.01691 0.0267459 0
M  V30 7974 N 720.992 2.84134 -0.609597 0
M  V30 7975 H 720.539 2.24017 -1.27178 0
M  V30 7976 H 720.497 3.13723 0.206281 0
M  V30 7977 N 724.269 1.44576 0.627338 0
M  V30 7978 C 725.499 1.50829 1.41189 0
M  V30 7979 C 725.907 0.133083 1.88731 0
M  V30 7980 O 725.25 -0.87199 1.61685 0
M  V30 7981 C 725.312 2.41449 2.66351 0
M  V30 7982 C 724.976 3.88549 2.40579 0
M  V30 7983 C 725.973 4.78981 2.0217 0
M  V30 7984 C 723.658 4.33287 2.54102 0
M  V30 7985 C 725.652 6.12153 1.77618 0
M  V30 7986 C 723.339 5.66505 2.29163 0
M  V30 7987 C 724.337 6.55756 1.9098 0
M  V30 7988 O 724.025 7.86506 1.66321 0
M  V30 7989 H 723.757 0.513797 0.439304 0
M  V30 7990 H 726.311 1.90256 0.774059 0
M  V30 7991 H 724.541 1.96955 3.32784 0
M  V30 7992 H 726.23 2.38608 3.28361 0
M  V30 7993 H 726.996 4.45689 1.91277 0
M  V30 7994 H 722.875 3.64074 2.82792 0
M  V30 7995 H 726.419 6.81776 1.47739 0
M  V30 7996 H 722.316 5.99358 2.39668 0
M  V30 7997 H 723.084 7.98341 1.80536 0
M  V30 7998 N 725.747 -0.868086 1.31537 0
M  V30 7999 C 726.977 -1.65162 1.24118 0
M  V30 8000 C 727.385 -1.88187 -0.195558 0
M  V30 8001 O 726.728 -1.44154 -1.13866 0
M  V30 8002 C 726.79 -3.04119 1.91708 0
M  V30 8003 C 726.454 -3.04194 3.4105 0
M  V30 8004 C 727.451 -2.82016 4.36764 0
M  V30 8005 C 725.136 -3.25256 3.82772 0
M  V30 8006 C 727.13 -2.80881 5.72175 0
M  V30 8007 C 724.817 -3.23749 5.18295 0
M  V30 8008 C 725.815 -3.01589 6.12808 0
M  V30 8009 O 725.503 -2.9993 7.45853 0
M  V30 8010 H 725.235 -0.521597 0.430015 0
M  V30 8011 H 727.789 -1.09165 1.73989 0
M  V30 8012 H 726.019 -3.61849 1.36389 0
M  V30 8013 H 727.708 -3.64701 1.78179 0
M  V30 8014 H 728.474 -2.65525 4.05859 0
M  V30 8015 H 724.353 -3.41534 3.09638 0
M  V30 8016 H 727.897 -2.63503 6.45919 0
M  V30 8017 H 723.794 -3.39781 5.48834 0
M  V30 8018 H 724.562 -3.15979 7.55049 0
M  V30 8019 N 727.225 -1.14528 -1.08264 0
M  V30 8020 C 728.135 -0.84728 -2.18765 0
M  V30 8021 C 729.151 0.172826 -1.7314 0
M  V30 8022 O 730.327 0.000985336 -2.014 0
M  V30 8023 C 727.392 -0.330633 -3.4512 0
M  V30 8024 C 726.453 -1.41348 -4.05363 0
M  V30 8025 C 725.686 -0.921387 -5.25686 0
M  V30 8026 O 725.909 0.236587 -5.69909 0
M  V30 8027 O 724.843 -1.70101 -5.77364 0
M  V30 8028 H 728.669 -1.7708 -2.46731 0
M  V30 8029 H 726.254 -0.923661 -1.17426 0
M  V30 8030 H 728.136 -0.0485053 -4.21372 0
M  V30 8031 H 726.811 0.565147 -3.18728 0
M  V30 8032 H 725.718 -1.74908 -3.30693 0
M  V30 8033 H 727.051 -2.28383 -4.36007 0
M  V30 8034 N 728.703 1.26451 -0.940633 0
M  V30 8035 C 729.613 2.30128 -0.455881 0
M  V30 8036 C 730.629 1.67536 0.469867 0
M  V30 8037 O 731.805 1.98344 0.349529 0
M  V30 8038 C 728.87 3.45634 0.271648 0
M  V30 8039 C 727.931 4.23709 -0.690594 0
M  V30 8040 C 727.164 5.337 0.00231047 0
M  V30 8041 O 727.387 5.57215 1.21935 0
M  V30 8042 O 726.321 5.98091 -0.676111 0
M  V30 8043 H 730.147 2.73655 -1.31707 0
M  V30 8044 H 727.732 1.3164 -0.706497 0
M  V30 8045 H 729.614 4.15853 0.681486 0
M  V30 8046 H 728.289 3.04138 1.10824 0
M  V30 8047 H 727.196 3.55974 -1.15037 0
M  V30 8048 H 728.529 4.68953 -1.49478 0
M  V30 8049 N 730.181 0.707592 1.40822 0
M  V30 8050 C 731.129 0.0386643 2.32568 0
M  V30 8051 C 732.123 -0.755653 1.51612 0
M  V30 8052 O 733.329 -0.659921 1.67467 0
M  V30 8053 H 729.704 -0.00629912 0.751974 0
M  V30 8054 H 731.675 0.8293 2.86645 0
M  V30 8055 C 730.424 -0.87496 3.36511 0
M  V30 8056 H 729.747 -0.273157 3.98866 0
M  V30 8057 H 731.187 -1.31111 4.03219 0
M  V30 8058 C 729.646 -1.99672 2.71353 0
M  V30 8059 O 730.176 -3.08676 2.57064 0
M  V30 8060 N 728.382 -1.77799 2.29861 0
M  V30 8061 H 727.929 -0.89147 2.41683 0
M  V30 8062 H 727.887 -2.53036 1.86601 0
M  V30 8063 N 731.66 -1.50943 0.453197 0
M  V30 8064 C 732.888 -2.06628 -0.106135 0
M  V30 8065 C 733.303 -1.31901 -1.35084 0
M  V30 8066 O 732.66 -0.383074 -1.78434 0
M  V30 8067 C 732.711 -3.5914 -0.412368 0
M  V30 8068 O 732.432 -4.31047 0.782948 0
M  V30 8069 C 733.933 -4.31391 -1.02064 0
M  V30 8070 H 731.153 -0.670999 -0.000885896 0
M  V30 8071 H 733.697 -1.94331 0.63684 0
M  V30 8072 H 731.852 -3.71299 -1.10526 0
M  V30 8073 H 732.266 -5.21948 0.516736 0
M  V30 8074 H 733.74 -5.39135 -1.1848 0
M  V30 8075 H 734.217 -3.90714 -2.00598 0
M  V30 8076 H 734.823 -4.23716 -0.366664 0
M  V30 8077 N 733.138 -0.185124 -1.56509 0
M  V30 8078 C 734.086 0.756505 -2.19954 0
M  V30 8079 C 735.08 1.22725 -1.16769 0
M  V30 8080 O 736.286 1.1913 -1.34937 0
M  V30 8081 H 732.661 0.262279 -0.704779 0
M  V30 8082 H 734.632 0.197587 -2.97745 0
M  V30 8083 C 733.381 1.96975 -2.86524 0
M  V30 8084 H 732.704 1.61658 -3.65659 0
M  V30 8085 H 734.144 2.60719 -3.34367 0
M  V30 8086 C 732.603 2.80219 -1.87027 0
M  V30 8087 O 733.133 3.77821 -1.36433 0
M  V30 8088 N 731.339 2.4551 -1.55477 0
M  V30 8089 H 730.886 1.66199 -1.96813 0
M  V30 8090 H 730.844 3.01493 -0.891597 0
M  V30 8091 N 734.616 1.57351 0.0885366 0
M  V30 8092 C 735.893 1.77449 0.822873 0
M  V30 8093 C 736.273 0.768463 1.96616 0
M  V30 8094 O 735.621 -0.201757 2.27608 0
M  V30 8095 C 735.831 3.23425 1.31137 0
M  V30 8096 C 737.179 3.86791 1.75152 0
M  V30 8097 O 738.203 3.27215 1.40745 0
M  V30 8098 O 737.062 4.91568 2.38794 0
M  V30 8099 H 734.156 0.727653 0.393002 0
M  V30 8100 H 736.702 1.69556 0.0699095 0
M  V30 8101 H 735.474 3.88188 0.49254 0
M  V30 8102 H 735.097 3.35977 2.12615 0
M  V30 8103 N 736.094 -0.359525 1.53444 0
M  V30 8104 C 737.322 -1.12198 1.73837 0
M  V30 8105 C 737.737 -1.82854 0.470107 0
M  V30 8106 O 737.094 -1.73781 -0.557349 0
M  V30 8107 C 737.145 -2.14769 2.90786 0
M  V30 8108 O 736.866 -1.46989 4.12706 0
M  V30 8109 C 738.367 -3.03514 3.231 0
M  V30 8110 H 735.587 -0.33524 0.581253 0
M  V30 8111 H 738.131 -0.416598 2.00212 0
M  V30 8112 H 736.286 -2.80896 2.66788 0
M  V30 8113 H 736.7 -2.15378 4.78239 0
M  V30 8114 H 738.174 -3.71453 4.08322 0
M  V30 8115 H 738.651 -3.68658 2.38721 0
M  V30 8116 H 739.257 -2.42996 3.49046 0
M  V30 8117 N 737.572 -1.44907 -0.619662 0
M  V30 8118 C 738.802 -1.51575 -1.40387 0
M  V30 8119 C 739.21 -0.14309 -1.88658 0
M  V30 8120 O 738.553 0.863403 -1.62145 0
M  V30 8121 C 738.615 -2.42858 -2.65067 0
M  V30 8122 C 738.279 -3.8982 -2.38515 0
M  V30 8123 C 739.276 -4.80047 -1.99627 0
M  V30 8124 C 736.961 -4.34628 -2.51801 0
M  V30 8125 C 738.955 -6.13086 -1.74369 0
M  V30 8126 C 736.642 -5.67712 -2.26156 0
M  V30 8127 C 737.64 -6.56759 -1.875 0
M  V30 8128 O 737.328 -7.87377 -1.62148 0
M  V30 8129 H 737.06 -0.51612 -0.436573 0
M  V30 8130 H 739.614 -1.90664 -0.763959 0
M  V30 8131 H 737.844 -1.98717 -3.31735 0
M  V30 8132 H 739.533 -2.40346 -3.27091 0
M  V30 8133 H 740.299 -4.46697 -1.8891 0
M  V30 8134 H 736.178 -3.65568 -2.80857 0
M  V30 8135 H 739.722 -6.8255 -1.44122 0
M  V30 8136 H 735.619 -6.0062 -2.36486 0
M  V30 8137 H 736.387 -7.99288 -1.763 0
M  V30 8138 N 739.05 0.861098 -1.31996 0
M  V30 8139 C 739.96 2.00154 -1.22374 0
M  V30 8140 C 740.976 1.73447 -0.138631 0
M  V30 8141 O 742.152 1.98191 -0.358104 0
M  V30 8142 C 739.217 3.33696 -0.940645 0
M  V30 8143 C 738.278 3.73668 -2.11355 0
M  V30 8144 C 737.511 5.00837 -1.84386 0
M  V30 8145 O 737.734 5.64996 -0.783287 0
M  V30 8146 O 736.668 5.37787 -2.70313 0
M  V30 8147 H 740.494 2.11207 -2.18233 0
M  V30 8148 H 738.079 0.990768 -1.11822 0
M  V30 8149 H 739.961 4.13756 -0.798987 0
M  V30 8150 H 738.636 3.23698 -0.0121636 0
M  V30 8151 H 737.543 2.94211 -2.31065 0
M  V30 8152 H 738.876 3.88303 -3.02459 0
M  V30 8153 N 740.528 1.15101 1.07655 0
M  V30 8154 C 741.476 0.840714 2.16875 0
M  V30 8155 C 742.47 -0.184594 1.68391 0
M  V30 8156 O 743.676 -0.0399315 1.79956 0
M  V30 8157 H 740.051 0.254192 0.707736 0
M  V30 8158 H 742.022 1.76959 2.40266 0
M  V30 8159 C 740.771 0.343018 3.46004 0
M  V30 8160 H 740.094 1.12335 3.83694 0
M  V30 8161 H 741.534 0.16453 4.23681 0
M  V30 8162 C 739.993 -0.934881 3.23669 0
M  V30 8163 O 740.523 -2.00706 3.47965 0
M  V30 8164 N 738.729 -0.873167 2.77172 0
M  V30 8165 H 738.276 -0.000479072 2.576 0
M  V30 8166 H 738.234 -1.72873 2.62607 0
M  V30 8167 N 742.006 -1.2595 0.947325 0
M  V30 8168 C 742.953 -2.26159 0.460497 0
M  V30 8169 C 743.923 -1.58919 -0.483125 0
M  V30 8170 O 745.108 -1.86603 -0.397983 0
M  V30 8171 C 742.248 -3.441 -0.26247 0
M  V30 8172 C 741.361 -4.25999 0.717539 0
M  V30 8173 C 740.496 -5.31193 -0.0272486 0
M  V30 8174 C 739.535 -6.04774 0.944177 0
M  V30 8175 N 738.672 -7.01721 0.230741 0
M  V30 8176 H 743.512 -2.67173 1.31995 0
M  V30 8177 H 741.049 -1.31358 0.662088 0
M  V30 8178 H 743.007 -4.11317 -0.698137 0
M  V30 8179 H 741.637 -3.03983 -1.08602 0
M  V30 8180 H 740.689 -3.58513 1.27171 0
M  V30 8181 H 742.001 -4.76981 1.45913 0
M  V30 8182 H 741.155 -6.04451 -0.521903 0
M  V30 8183 H 739.894 -4.81066 -0.801682 0
M  V30 8184 H 738.899 -5.30338 1.4499 0
M  V30 8185 H 740.124 -6.56991 1.71872 0
M  V30 8186 H 738.07 -6.53895 -0.525088 0
M  V30 8187 H 737.987 -7.50484 0.911556 0
M  V30 8188 H 739.255 -7.79122 -0.242616 0
M  V30 8189 N 743.484 -0.715051 -1.40445 0
M  V30 8190 C 744.432 -0.0509974 -2.32544 0
M  V30 8191 C 745.426 0.747602 -1.52011 0
M  V30 8192 O 746.632 0.651031 -1.67814 0
M  V30 8193 H 743.007 0.00231113 -0.751996 0
M  V30 8194 H 744.978 -0.84449 -2.86201 0
M  V30 8195 C 743.727 0.857101 -3.3697 0
M  V30 8196 H 743.05 0.252 -3.99005 0
M  V30 8197 H 744.49 1.28971 -4.03909 0
M  V30 8198 C 742.949 1.98231 -2.72408 0
M  V30 8199 O 743.479 3.07309 -2.58697 0
M  V30 8200 N 741.685 1.76577 -2.308 0
M  V30 8201 H 741.232 0.878641 -2.42152 0
M  V30 8202 H 741.19 2.52043 -1.87941 0
M  V30 8203 N 744.962 1.50701 -0.461195 0
M  V30 8204 C 746.209 2.02267 0.0971971 0
M  V30 8205 C 746.537 1.34387 1.40608 0
M  V30 8206 O 745.792 0.455254 1.90331 0
M  V30 8207 C 746.091 3.55788 0.33908 0
M  V30 8208 C 745.757 4.42092 -0.886885 0
M  V30 8209 C 744.419 4.65398 -1.22304 0
M  V30 8210 C 746.771 4.92571 -1.70361 0
M  V30 8211 C 744.099 5.36429 -2.37616 0
M  V30 8212 C 746.451 5.64868 -2.84793 0
M  V30 8213 C 745.115 5.86431 -3.18834 0
M  V30 8214 H 744.385 0.740146 0.0355669 0
M  V30 8215 H 747.032 1.81415 -0.61326 0
M  V30 8216 H 745.337 3.751 1.13168 0
M  V30 8217 H 747.034 3.93243 0.784937 0
M  V30 8218 H 743.624 4.24165 -0.614981 0
M  V30 8219 H 747.808 4.74428 -1.4571 0
M  V30 8220 H 743.064 5.51333 -2.64276 0
M  V30 8221 H 747.238 6.02966 -3.48432 0
M  V30 8222 H 744.865 6.41248 -4.08296 0
M  V30 8223 N 746.441 0.193421 1.56409 0
M  V30 8224 C 747.666 -0.454552 2.02358 0
M  V30 8225 C 748.091 -1.54516 1.07268 0
M  V30 8226 O 747.449 -1.81214 0.0558962 0
M  V30 8227 C 747.497 -0.989469 3.46759 0
M  V30 8228 O 746.601 -2.10244 3.54783 0
M  V30 8229 H 745.942 -0.106417 0.655417 0
M  V30 8230 H 748.472 0.303807 2.02332 0
M  V30 8231 H 748.482 -1.30649 3.86516 0
M  V30 8232 H 747.157 -0.191083 4.15461 0
M  V30 8233 H 745.734 -1.79419 3.26899 0
M  V30 8234 N 747.919 -1.57396 -0.0801906 0
M  V30 8235 C 748.849 -2.06145 -1.09665 0
M  V30 8236 C 749.83 -0.953273 -1.40878 0
M  V30 8237 O 751.015 -1.22548 -1.50651 0
M  V30 8238 C 748.145 -2.49836 -2.41245 0
M  V30 8239 C 747.099 -3.64454 -2.24405 0
M  V30 8240 C 746.425 -3.94172 -3.61293 0
M  V30 8241 C 747.725 -4.94807 -1.67223 0
M  V30 8242 H 749.419 -2.91316 -0.691028 0
M  V30 8243 H 746.965 -1.40145 -0.330957 0
M  V30 8244 H 748.918 -2.82552 -3.12638 0
M  V30 8245 H 747.642 -1.61683 -2.83771 0
M  V30 8246 H 746.301 -3.32008 -1.55454 0
M  V30 8247 H 745.949 -3.03163 -4.01374 0
M  V30 8248 H 745.649 -4.71345 -3.50867 0
M  V30 8249 H 747.173 -4.29376 -4.3413 0
M  V30 8250 H 748.587 -5.25807 -2.28472 0
M  V30 8251 H 746.984 -5.76245 -1.67515 0
M  V30 8252 H 748.054 -4.80751 -0.632944 0
M  V30 8253 N 749.397 0.351382 -1.53633 0
M  V30 8254 C 750.646 1.08988 -1.69719 0
M  V30 8255 C 750.959 1.90043 -0.462948 0
M  V30 8256 O 752.165 2.66769 -0.504613 0
M  V30 8257 C 750.621 1.98691 -3.00083 0
M  V30 8258 C 750.229 1.22881 -4.30818 0
M  V30 8259 C 751.973 2.72446 -3.25536 0
M  V30 8260 C 749.88 2.11568 -5.52262 0
M  V30 8261 H 748.81 0.410588 -0.632403 0
M  V30 8262 H 751.461 0.349886 -1.80133 0
M  V30 8263 H 749.843 2.76478 -2.83506 0
M  V30 8264 H 751.017 0.500582 -4.58073 0
M  V30 8265 H 749.332 0.60928 -4.11918 0
M  V30 8266 H 751.929 3.39055 -4.13456 0
M  V30 8267 H 752.272 3.38588 -2.42206 0
M  V30 8268 H 752.805 2.01735 -3.42852 0
M  V30 8269 H 749.544 1.4998 -6.38111 0
M  V30 8270 H 749.064 2.82201 -5.29266 0
M  V30 8271 H 750.743 2.70802 -5.87601 0
M  V30 8272 N 750.875 1.45233 0.611969 0
M  V30 8273 C 752.1 1.52767 1.40274 0
M  V30 8274 C 752.525 0.159701 1.87421 0
M  V30 8275 O 751.883 -0.854837 1.59882 0
M  V30 8276 C 751.931 2.51286 2.58626 0
M  V30 8277 O 751.035 2.02764 3.59111 0
M  V30 8278 H 750.376 0.515141 0.418958 0
M  V30 8279 H 752.906 1.90547 0.745188 0
M  V30 8280 H 752.916 2.69949 3.05927 0
M  V30 8281 H 751.591 3.50641 2.23659 0
M  V30 8282 H 750.168 1.93957 3.18489 0
M  V30 8283 N 752.353 -0.854086 1.3245 0
M  V30 8284 C 753.301 -1.98411 1.21391 0
M  V30 8285 C 754.295 -1.68984 0.118586 0
M  V30 8286 O 755.501 -1.77784 0.281549 0
M  V30 8287 H 751.876 -0.651077 0.376301 0
M  V30 8288 H 753.847 -2.04867 2.16961 0
M  V30 8289 C 752.596 -3.34345 0.954407 0
M  V30 8290 H 751.919 -3.57518 1.78944 0
M  V30 8291 H 753.359 -4.13959 0.917269 0
M  V30 8292 C 751.818 -3.35151 -0.342838 0
M  V30 8293 O 752.348 -3.78174 -1.35452 0
M  V30 8294 N 750.554 -2.88298 -0.365012 0
M  V30 8295 H 750.101 -2.53481 0.4588 0
M  V30 8296 H 750.059 -2.8922 -1.23284 0
M  V30 8297 N 753.831 -1.1567 -1.07043 0
M  V30 8298 C 755.056 -0.957946 -1.83952 0
M  V30 8299 C 755.481 0.488807 -1.81638 0
M  V30 8300 O 754.839 1.34869 -1.21162 0
M  V30 8301 C 754.887 -1.48064 -3.288 0
M  V30 8302 O 753.991 -0.681921 -4.06723 0
M  V30 8303 H 753.332 -0.341453 -0.569479 0
M  V30 8304 H 755.862 -1.53728 -1.35015 0
M  V30 8305 H 755.872 -1.49484 -3.7963 0
M  V30 8306 H 754.547 -2.53388 -3.29799 0
M  V30 8307 H 753.124 -0.737612 -3.65532 0
M  V30 8308 N 755.309 1.25446 -0.953992 0
M  V30 8309 C 756.242 2.24341 -0.417912 0
M  V30 8310 C 757.22 1.54709 0.5004 0
M  V30 8311 O 758.404 1.83414 0.434923 0
M  V30 8312 C 755.531 3.36352 0.398155 0
M  V30 8313 C 754.577 4.24007 -0.460461 0
M  V30 8314 S 755.41 5.00951 -1.89231 0
M  V30 8315 C 756.566 6.1643 -1.08465 0
M  V30 8316 H 756.799 2.69465 -1.25602 0
M  V30 8317 H 754.332 1.34512 -0.758018 0
M  V30 8318 H 756.29 4.01325 0.863059 0
M  V30 8319 H 754.951 2.89813 1.21108 0
M  V30 8320 H 754.144 5.03728 0.165415 0
M  V30 8321 H 753.746 3.63965 -0.860549 0
M  V30 8322 H 756.038 6.76681 -0.333017 0
M  V30 8323 H 756.981 6.8335 -1.85577 0
M  V30 8324 H 757.389 5.61139 -0.615062 0
M  V30 8325 N 756.787 0.722489 1.40064 0
M  V30 8326 C 758.015 0.274838 2.05066 0
M  V30 8327 C 758.43 -1.08586 1.54449 0
M  V30 8328 O 757.787 -1.68375 0.704003 0
M  V30 8329 C 757.838 0.253673 3.60609 0
M  V30 8330 O 757.559 1.56064 4.0936 0
M  V30 8331 C 759.06 -0.211684 4.42794 0
M  V30 8332 H 756.28 0.12226 0.659768 0
M  V30 8333 H 758.824 0.982632 1.79345 0
M  V30 8334 H 756.979 -0.405137 3.85276 0
M  V30 8335 H 757.393 1.46576 5.03603 0
M  V30 8336 H 758.867 -0.175341 5.51721 0
M  V30 8337 H 759.344 -1.25493 4.2089 0
M  V30 8338 H 759.95 0.4171 4.2325 0
M  V30 8339 N 758.265 -1.50454 0.469181 0
M  V30 8340 C 759.49 -2.0722 -0.0864892 0
M  V30 8341 C 759.915 -1.33098 -1.32916 0
M  V30 8342 O 759.273 -0.378084 -1.77314 0
M  V30 8343 C 759.321 -3.58845 -0.355384 0
M  V30 8344 O 758.425 -3.86583 -1.43622 0
M  V30 8345 H 757.766 -0.663889 0.0121414 0
M  V30 8346 H 760.296 -1.93674 0.659674 0
M  V30 8347 H 760.306 -4.03617 -0.596447 0
M  V30 8348 H 758.981 -4.12211 0.552698 0
M  V30 8349 H 757.558 -3.5365 -1.18262 0
M  V30 8350 N 759.743 -0.201713 -1.56304 0
M  V30 8351 C 760.691 0.733133 -2.20744 0
M  V30 8352 C 761.685 1.2148 -1.18064 0
M  V30 8353 O 762.891 1.17692 -1.36193 0
M  V30 8354 H 759.266 0.254789 -0.707521 0
M  V30 8355 H 761.237 0.165996 -2.97938 0
M  V30 8356 C 759.986 1.93925 -2.88597 0
M  V30 8357 H 759.309 1.5777 -3.67353 0
M  V30 8358 H 760.749 2.57158 -3.37114 0
M  V30 8359 C 759.208 2.78219 -1.89989 0
M  V30 8360 O 759.738 3.76353 -1.40432 0
M  V30 8361 N 757.944 2.43847 -1.58072 0
M  V30 8362 H 757.491 1.64103 -1.98565 0
M  V30 8363 H 757.449 3.0053 -0.923524 0
M  V30 8364 N 761.222 1.57436 0.0718424 0
M  V30 8365 C 762.132 2.07039 1.10326 0
M  V30 8366 C 763.148 0.999918 1.424 0
M  V30 8367 O 764.324 1.31462 1.52577 0
M  V30 8368 C 761.389 2.50439 2.39752 0
M  V30 8369 C 760.45 3.71784 2.14651 0
M  V30 8370 C 759.683 4.13104 3.37906 0
M  V30 8371 O 759.906 3.54298 4.47023 0
M  V30 8372 O 758.84 5.05894 3.26121 0
M  V30 8373 H 762.666 2.95239 0.711872 0
M  V30 8374 H 760.251 1.46638 0.28597 0
M  V30 8375 H 762.133 2.78876 3.15921 0
M  V30 8376 H 760.808 1.65368 2.78271 0
M  V30 8377 H 759.715 3.48431 1.36187 0
M  V30 8378 H 761.048 4.57707 1.81012 0
M  V30 8379 N 762.7 -0.34323 1.53817 0
M  V30 8380 C 763.63 -1.42709 1.84814 0
M  V30 8381 C 764.611 -1.5488 0.703297 0
M  V30 8382 O 765.796 -1.69082 0.955237 0
M  V30 8383 C 762.926 -2.79756 2.05801 0
M  V30 8384 C 761.88 -2.82392 3.21619 0
M  V30 8385 C 761.206 -4.22326 3.2794 0
M  V30 8386 C 762.506 -2.479 4.59721 0
M  V30 8387 H 764.2 -1.17018 2.75585 0
M  V30 8388 H 761.746 -0.561485 1.32602 0
M  V30 8389 H 763.699 -3.55627 2.26069 0
M  V30 8390 H 762.423 -3.06883 1.11761 0
M  V30 8391 H 761.082 -2.08974 3.01207 0
M  V30 8392 H 760.73 -4.46564 2.31494 0
M  V30 8393 H 760.43 -4.25001 4.05768 0
M  V30 8394 H 761.954 -5.00039 3.50419 0
M  V30 8395 H 763.368 -3.13484 4.80001 0
M  V30 8396 H 761.765 -2.61857 5.39954 0
M  V30 8397 H 762.835 -1.43087 4.63308 0
M  V30 8398 N 764.178 -1.45556 -0.604258 0
M  V30 8399 C 765.108 -1.57327 -1.72541 0
M  V30 8400 C 766.089 -0.424637 -1.64714 0
M  V30 8401 O 767.274 -0.648196 -1.83063 0
M  V30 8402 C 764.404 -1.54279 -3.11152 0
M  V30 8403 C 763.358 -2.67893 -3.33792 0
M  V30 8404 C 762.684 -2.499 -4.72709 0
M  V30 8405 C 763.984 -4.0988 -3.23722 0
M  V30 8406 H 765.678 -2.51175 -1.62947 0
M  V30 8407 H 763.224 -1.20884 -0.782504 0
M  V30 8408 H 765.177 -1.6111 -3.89386 0
M  V30 8409 H 763.901 -0.569627 -3.21594 0
M  V30 8410 H 762.56 -2.60495 -2.57949 0
M  V30 8411 H 762.208 -1.50715 -4.79889 0
M  V30 8412 H 761.908 -3.26091 -4.88813 0
M  V30 8413 H 763.432 -2.5859 -5.5314 0
M  V30 8414 H 764.846 -4.18503 -3.91826 0
M  V30 8415 H 763.243 -4.86487 -3.51355 0
M  V30 8416 H 764.313 -4.31553 -2.21111 0
M  V30 8417 N 765.656 0.84705 -1.32902 0
M  V30 8418 C 766.566 1.98845 -1.2449 0
M  V30 8419 C 767.582 1.7329 -0.15702 0
M  V30 8420 O 768.758 1.978 -0.379104 0
M  V30 8421 C 765.823 3.32679 -0.975985 0
M  V30 8422 C 764.884 3.71405 -2.15306 0
M  V30 8423 C 764.117 4.98853 -1.89688 0
M  V30 8424 O 764.34 5.64134 -0.843168 0
M  V30 8425 O 763.274 5.34889 -2.76002 0
M  V30 8426 H 767.1 2.0888 -2.2046 0
M  V30 8427 H 764.685 0.978852 -1.12867 0
M  V30 8428 H 766.567 4.12885 -0.842826 0
M  V30 8429 H 765.242 3.23667 -0.0464954 0
M  V30 8430 H 764.149 2.91743 -2.34172 0
M  V30 8431 H 765.482 3.85073 -3.06561 0
M  V30 8432 N 767.134 1.16236 1.06428 0
M  V30 8433 C 768.067 0.81119 2.13295 0
M  V30 8434 C 769.045 -0.216555 1.61151 0
M  V30 8435 O 770.229 -0.100949 1.88229 0
M  V30 8436 C 767.356 0.207901 3.38061 0
M  V30 8437 C 766.402 1.20904 4.09004 0
M  V30 8438 S 767.235 2.75513 4.59187 0
M  V30 8439 C 768.391 2.1663 5.87216 0
M  V30 8440 H 768.624 1.71632 2.42755 0
M  V30 8441 H 766.157 0.985693 1.18842 0
M  V30 8442 H 768.115 -0.133715 4.10282 0
M  V30 8443 H 766.776 -0.67497 3.06762 0
M  V30 8444 H 765.969 0.735326 4.98607 0
M  V30 8445 H 765.571 1.49567 3.42791 0
M  V30 8446 H 767.863 1.53413 6.59902 0
M  V30 8447 H 768.806 3.04437 6.39315 0
M  V30 8448 H 769.214 1.60565 5.41183 0
M  V30 8449 N 768.612 -1.24939 0.960631 0
M  V30 8450 C 769.559 -2.25658 0.484459 0
M  V30 8451 C 770.529 -1.59422 -0.466242 0
M  V30 8452 O 771.714 -1.87015 -0.378169 0
M  V30 8453 C 768.854 -3.44359 -0.225958 0
M  V30 8454 C 767.967 -4.25214 0.762682 0
M  V30 8455 C 767.102 -5.31192 0.0290931 0
M  V30 8456 C 766.141 -6.03739 1.00827 0
M  V30 8457 N 765.278 -7.01437 0.305155 0
M  V30 8458 H 770.118 -2.65758 1.34821 0
M  V30 8459 H 767.655 -1.30648 0.675983 0
M  V30 8460 H 769.613 -4.12035 -0.654472 0
M  V30 8461 H 768.243 -3.05118 -1.05371 0
M  V30 8462 H 767.295 -3.57144 1.30966 0
M  V30 8463 H 768.607 -4.75406 1.50964 0
M  V30 8464 H 767.761 -6.04971 -0.457763 0
M  V30 8465 H 766.5 -4.81889 -0.750614 0
M  V30 8466 H 765.505 -5.2877 1.50607 0
M  V30 8467 H 766.73 -6.55131 1.7883 0
M  V30 8468 H 764.676 -6.54415 -0.455704 0
M  V30 8469 H 764.593 -7.49475 0.991104 0
M  V30 8470 H 765.861 -7.79336 -0.159966 0
M  V30 8471 N 770.09 -0.729906 -1.39679 0
M  V30 8472 C 771.037 -0.0866063 -2.30637 0
M  V30 8473 C 772.007 0.735115 -1.48947 0
M  V30 8474 O 773.192 0.696125 -1.77648 0
M  V30 8475 C 770.332 0.818524 -3.35252 0
M  V30 8476 C 769.445 -0.0152635 -4.31997 0
M  V30 8477 C 768.58 0.890669 -5.2368 0
M  V30 8478 C 767.619 0.0518246 -6.12078 0
M  V30 8479 N 766.756 0.913411 -6.96133 0
M  V30 8480 H 771.596 -0.867925 -2.85081 0
M  V30 8481 H 769.133 -0.439673 -1.40376 0
M  V30 8482 H 771.091 1.3577 -3.9449 0
M  V30 8483 H 769.721 1.56587 -2.82277 0
M  V30 8484 H 768.773 -0.671794 -3.74421 0
M  V30 8485 H 770.085 -0.664086 -4.9436 0
M  V30 8486 H 769.239 1.49787 -5.87919 0
M  V30 8487 H 767.978 1.57328 -4.61627 0
M  V30 8488 H 766.983 -0.568209 -5.46856 0
M  V30 8489 H 768.208 -0.627497 -6.76195 0
M  V30 8490 H 766.154 1.58141 -6.36653 0
M  V30 8491 H 766.071 0.320952 -7.55318 0
M  V30 8492 H 767.339 1.50633 -7.64807 0
M  V30 8493 N 771.568 1.50203 -0.477153 0
M  V30 8494 C 772.478 2.32421 0.319027 0
M  V30 8495 C 773.494 1.43075 0.990233 0
M  V30 8496 O 774.67 1.76123 0.976873 0
M  V30 8497 C 771.735 3.17909 1.38328 0
M  V30 8498 C 770.796 4.23082 0.728036 0
M  V30 8499 C 770.029 5.04484 1.74158 0
M  V30 8500 O 770.252 4.8705 2.96881 0
M  V30 8501 O 769.186 5.8747 1.31006 0
M  V30 8502 H 773.012 3.01638 -0.353281 0
M  V30 8503 H 770.597 1.47478 -0.238891 0
M  V30 8504 H 772.479 3.70937 1.9996 0
M  V30 8505 H 771.154 2.51413 2.03895 0
M  V30 8506 H 770.061 3.7403 0.07261 0
M  V30 8507 H 771.394 4.92065 0.115216 0
M  V30 8508 N 773.046 0.209999 1.56195 0
M  V30 8509 C 774.276 -0.429373 2.02089 0
M  V30 8510 C 774.684 -1.54703 1.0892 0
M  V30 8511 O 774.027 -1.83485 0.0889535 0
M  V30 8512 C 774.089 -1.03266 3.44349 0
M  V30 8513 C 773.753 -0.0518873 4.56971 0
M  V30 8514 C 774.75 0.744249 5.14545 0
M  V30 8515 C 772.435 0.0635185 5.0226 0
M  V30 8516 C 774.429 1.64261 6.15871 0
M  V30 8517 C 772.116 0.965423 6.03426 0
M  V30 8518 C 773.114 1.75352 6.60106 0
M  V30 8519 O 772.802 2.64029 7.59305 0
M  V30 8520 H 772.534 -0.110604 0.66689 0
M  V30 8521 H 775.088 0.320436 2.02885 0
M  V30 8522 H 773.318 -1.83134 3.40586 0
M  V30 8523 H 775.007 -1.57823 3.73961 0
M  V30 8524 H 775.773 0.665476 4.80413 0
M  V30 8525 H 771.652 -0.539762 4.57829 0
M  V30 8526 H 775.196 2.25819 6.60039 0
M  V30 8527 H 771.093 1.04526 6.36981 0
M  V30 8528 H 771.861 2.57974 7.76783 0
M  V30 8529 N 774.524 -1.57472 -0.0634922 0
M  V30 8530 C 775.456 -2.00999 -1.10145 0
M  V30 8531 C 776.469 -0.917219 -1.34503 0
M  V30 8532 O 777.658 -1.19501 -1.32596 0
M  V30 8533 C 774.758 -2.34089 -2.45063 0
M  V30 8534 C 773.931 -3.65317 -2.40546 0
M  V30 8535 C 772.99 -3.85982 -3.57637 0
M  V30 8536 O 772.016 -4.5747 -3.38689 0
M  V30 8537 N 773.218 -3.28971 -4.78287 0
M  V30 8538 H 775.983 -2.90656 -0.730714 0
M  V30 8539 H 773.544 -1.59926 -0.252017 0
M  V30 8540 H 775.536 -2.4508 -3.22053 0
M  V30 8541 H 774.106 -1.50279 -2.74107 0
M  V30 8542 H 773.326 -3.65003 -1.48885 0
M  V30 8543 H 774.614 -4.51468 -2.34636 0
M  V30 8544 H 774.012 -2.70962 -4.96584 0
M  V30 8545 H 772.569 -3.45398 -5.5276 0
M  V30 8546 N 776.003 0.335068 -1.53997 0
M  V30 8547 C 777.231 1.09418 -1.756 0
M  V30 8548 C 777.646 1.82083 -0.499138 0
M  V30 8549 O 777.003 1.74646 0.529631 0
M  V30 8550 C 777.054 2.10115 -2.94166 0
M  V30 8551 O 776.775 1.40404 -4.14992 0
M  V30 8552 C 778.276 2.98336 -3.27888 0
M  V30 8553 H 775.496 0.32595 -0.586513 0
M  V30 8554 H 778.04 0.384693 -2.00849 0
M  V30 8555 H 776.195 2.76616 -2.71224 0
M  V30 8556 H 776.609 2.07743 -4.81605 0
M  V30 8557 H 778.083 3.6491 -4.1418 0
M  V30 8558 H 778.56 3.64814 -2.44556 0
M  V30 8559 H 779.166 2.37412 -3.52868 0
M  V30 8560 N 777.481 1.45874 0.596531 0
M  V30 8561 C 778.73 1.49737 1.35135 0
M  V30 8562 C 779.043 0.147755 1.95041 0
M  V30 8563 O 780.249 0.0640984 2.71424 0
M  V30 8564 C 778.705 2.6378 2.44843 0
M  V30 8565 C 778.313 4.05102 1.91301 0
M  V30 8566 C 780.057 2.769 3.21755 0
M  V30 8567 C 777.964 5.10508 2.98557 0
M  V30 8568 H 776.894 0.557219 0.507959 0
M  V30 8569 H 779.545 1.72046 0.638147 0
M  V30 8570 H 777.927 2.34774 3.189 0
M  V30 8571 H 779.101 4.43836 1.2388 0
M  V30 8572 H 777.416 3.96528 1.271 0
M  V30 8573 H 780.013 3.52819 4.01775 0
M  V30 8574 H 780.356 1.83924 3.73467 0
M  V30 8575 H 780.889 3.05485 2.54802 0
M  V30 8576 H 777.628 6.0523 2.51749 0
M  V30 8577 H 777.148 4.76332 3.6451 0
M  V30 8578 H 778.827 5.35745 3.62748 0
M  V30 8579 N 778.959 -0.83999 1.33349 0
M  V30 8580 C 779.906 -1.94972 1.23509 0
M  V30 8581 C 780.876 -1.65709 0.113967 0
M  V30 8582 O 782.061 -1.88552 0.292045 0
M  V30 8583 C 779.201 -3.30919 0.979105 0
M  V30 8584 C 778.314 -3.72587 2.18639 0
M  V30 8585 C 777.449 -4.97397 1.86465 0
M  V30 8586 C 776.488 -5.31597 3.03432 0
M  V30 8587 N 775.625 -6.47584 2.71254 0
M  V30 8588 H 780.465 -2.0272 2.18423 0
M  V30 8589 H 778.002 -0.992017 1.08616 0
M  V30 8590 H 779.96 -4.09239 0.811126 0
M  V30 8591 H 778.59 -3.22731 0.0667099 0
M  V30 8592 H 777.642 -2.89799 2.46416 0
M  V30 8593 H 778.954 -3.93844 3.06086 0
M  V30 8594 H 778.108 -5.83462 1.66305 0
M  V30 8595 H 776.847 -4.78107 0.96254 0
M  V30 8596 H 775.852 -4.44037 3.24208 0
M  V30 8597 H 777.077 -5.52836 3.94397 0
M  V30 8598 H 775.023 -6.29783 1.836 0
M  V30 8599 H 774.94 -6.68931 3.52231 0
M  V30 8600 H 776.208 -7.36764 2.54558 0
M  V30 8601 N 780.437 -1.16799 -1.0581 0
M  V30 8602 C 781.714 -0.862616 -1.75551 0
M  V30 8603 C 782.094 0.6385 -2.01212 0
M  V30 8604 O 781.442 1.58784 -1.64317 0
M  V30 8605 C 781.652 -1.6907 -3.05314 0
M  V30 8606 C 783 -1.90675 -3.79379 0
M  V30 8607 O 784.024 -1.65976 -3.15167 0
M  V30 8608 O 782.883 -2.32145 -4.94743 0
M  V30 8609 H 779.977 -0.318789 -0.763088 0
M  V30 8610 H 782.523 -1.27461 -1.12034 0
M  V30 8611 H 781.295 -2.70912 -2.82352 0
M  V30 8612 H 780.918 -1.27606 -3.76567 0
M  V30 8613 N 781.915 1.24427 -0.967243 0
M  V30 8614 C 783.14 1.9708 -0.646069 0
M  V30 8615 C 783.565 1.71272 0.777665 0
M  V30 8616 O 782.923 0.976179 1.52776 0
M  V30 8617 C 782.971 3.48501 -0.926266 0
M  V30 8618 O 782.075 4.12398 -0.0114653 0
M  V30 8619 H 781.416 0.617423 -0.244304 0
M  V30 8620 H 783.946 1.58215 -1.29727 0
M  V30 8621 H 783.956 3.98885 -0.857619 0
M  V30 8622 H 782.631 3.66613 -1.96386 0
M  V30 8623 H 781.208 3.72661 -0.133396 0
M  V30 8624 N 783.393 0.737304 1.3929 0
M  V30 8625 C 784.67 0.212464 1.94443 0
M  V30 8626 C 785.05 -1.28621 1.67391 0
M  V30 8627 O 784.398 -2.0529 1.00342 0
M  V30 8628 C 784.608 0.548565 3.44662 0
M  V30 8629 C 785.956 0.499177 4.21656 0
M  V30 8630 O 786.98 0.485892 3.5287 0
M  V30 8631 O 785.839 0.495739 5.44247 0
M  V30 8632 H 782.933 0.0395457 0.826054 0
M  V30 8633 H 785.479 0.816319 1.48776 0
M  V30 8634 H 784.251 1.58426 3.57795 0
M  V30 8635 H 783.874 -0.0841399 3.97511 0
M  V30 8636 N 784.871 -1.49948 0.485112 0
M  V30 8637 C 786.117 -2.02695 -0.0651022 0
M  V30 8638 C 786.45 -1.36534 -1.38102 0
M  V30 8639 O 785.725 -0.495677 -1.88078 0
M  V30 8640 C 786.008 -3.59337 -0.234285 0
M  V30 8641 C 785.861 -4.3605 1.10364 0
M  V30 8642 C 787.18 -4.28996 -0.982351 0
M  V30 8643 H 784.299 -0.736666 -0.0221856 0
M  V30 8644 H 786.941 -1.7913 0.633433 0
M  V30 8645 H 785.091 -3.79546 -0.829262 0
M  V30 8646 H 786.763 -4.27377 1.73627 0
M  V30 8647 H 785.006 -3.99236 1.69686 0
M  V30 8648 H 785.677 -5.43959 0.938743 0
M  V30 8649 H 788.153 -4.13346 -0.477904 0
M  V30 8650 H 787.029 -5.38379 -1.06955 0
M  V30 8651 H 787.29 -3.93135 -2.02231 0
M  V30 8652 N 786.349 -0.21828 -1.56081 0
M  V30 8653 C 787.595 0.414921 -1.9851 0
M  V30 8654 C 787.928 1.59648 -1.10573 0
M  V30 8655 O 787.203 1.93818 -0.162695 0
M  V30 8656 C 787.486 0.852647 -3.4986 0
M  V30 8657 C 787.339 -0.33232 -4.48571 0
M  V30 8658 C 788.658 1.70998 -4.05521 0
M  V30 8659 H 785.777 0.149344 -0.72171 0
M  V30 8660 H 788.419 -0.313858 -1.8739 0
M  V30 8661 H 786.569 1.47362 -3.59467 0
M  V30 8662 H 788.241 -0.970418 -4.50977 0
M  V30 8663 H 786.484 -0.980302 -4.22578 0
M  V30 8664 H 787.155 0.0168407 -5.51997 0
M  V30 8665 H 789.631 1.18606 -3.98838 0
M  V30 8666 H 788.507 1.98517 -5.11744 0
M  V30 8667 H 788.768 2.67219 -3.52202 0
M  V30 8668 N 787.827 1.57504 0.0551401 0
M  V30 8669 C 789.104 1.79155 0.785048 0
M  V30 8670 C 789.484 0.809995 1.94942 0
M  V30 8671 O 788.832 -0.153432 2.27984 0
M  V30 8672 C 789.042 3.26134 1.24247 0
M  V30 8673 C 790.39 3.90419 1.66908 0
M  V30 8674 O 791.414 3.30126 1.33772 0
M  V30 8675 O 790.273 4.96523 2.28314 0
M  V30 8676 H 787.367 0.735825 0.377479 0
M  V30 8677 H 789.913 1.69666 0.0339285 0
M  V30 8678 H 788.685 3.89145 0.410089 0
M  V30 8679 H 788.308 3.40411 2.05441 0
M  V30 8680 N 789.305 -0.326896 1.54172 0
M  V30 8681 C 790.551 -1.06681 1.72473 0
M  V30 8682 C 790.884 -1.87779 0.49523 0
M  V30 8683 O 790.159 -1.87754 -0.507803 0
M  V30 8684 C 790.442 -1.99429 2.99834 0
M  V30 8685 C 790.295 -1.21682 4.33028 0
M  V30 8686 C 791.614 -2.99002 3.22933 0
M  V30 8687 H 788.733 -0.386438 0.627563 0
M  V30 8688 H 791.375 -0.343779 1.86864 0
M  V30 8689 H 789.525 -2.61081 2.87696 0
M  V30 8690 H 791.197 -0.625153 4.57044 0
M  V30 8691 H 789.44 -0.519045 4.30684 0
M  V30 8692 H 790.111 -1.89766 5.18356 0
M  V30 8693 H 792.587 -2.4747 3.34511 0
M  V30 8694 H 791.463 -3.61085 4.13412 0
M  V30 8695 H 791.724 -3.71281 2.40006 0
M  V30 8696 N 790.784 -1.46188 -0.588786 0
M  V30 8697 C 792.009 -1.5498 -1.37826 0
M  V30 8698 C 792.434 -0.189498 -1.87143 0
M  V30 8699 O 791.792 0.829293 -1.61222 0
M  V30 8700 C 791.84 -2.55369 -2.54596 0
M  V30 8701 O 790.944 -2.08452 -3.55839 0
M  V30 8702 H 790.285 -0.521741 -0.41071 0
M  V30 8703 H 792.815 -1.91708 -0.714779 0
M  V30 8704 H 792.825 -2.74782 -3.01594 0
M  V30 8705 H 791.5 -3.54155 -2.18052 0
M  V30 8706 H 790.077 -1.98999 -3.15363 0
M  V30 8707 N 792.262 0.832906 -1.33792 0
M  V30 8708 C 793.209 1.94314 -1.24541 0
M  V30 8709 C 794.179 1.65646 -0.122753 0
M  V30 8710 O 795.364 1.88394 -0.30204 0
M  V30 8711 C 792.504 3.30395 -0.996641 0
M  V30 8712 C 791.617 3.71422 -2.20612 0
M  V30 8713 C 790.752 4.96401 -1.89101 0
M  V30 8714 C 789.791 5.2998 -3.06247 0
M  V30 8715 N 788.928 6.46137 -2.74685 0
M  V30 8716 H 793.768 2.01559 -2.19495 0
M  V30 8717 H 791.305 0.986243 -1.09141 0
M  V30 8718 H 793.263 4.08803 -0.832817 0
M  V30 8719 H 791.893 3.22691 -0.0838242 0
M  V30 8720 H 790.945 2.88488 -2.47949 0
M  V30 8721 H 792.257 3.92215 -3.0817 0
M  V30 8722 H 791.411 5.82572 -1.69396 0
M  V30 8723 H 790.15 4.7759 -0.987882 0
M  V30 8724 H 789.155 4.42312 -3.26559 0
M  V30 8725 H 790.38 5.50737 -3.97323 0
M  V30 8726 H 788.326 6.28801 -1.86938 0
M  V30 8727 H 788.243 6.67054 -3.55774 0
M  V30 8728 H 789.511 7.35403 -2.58461 0
M  V30 8729 N 793.74 1.17359 1.05189 0
M  V30 8730 C 794.687 0.890325 2.12936 0
M  V30 8731 C 795.657 -0.165779 1.65271 0
M  V30 8732 O 796.842 -0.0285672 1.90779 0
M  V30 8733 C 793.982 0.409793 3.42658 0
M  V30 8734 C 793.095 1.53002 4.03998 0
M  V30 8735 C 792.23 1.00336 5.21638 0
M  V30 8736 C 791.269 2.09903 5.74984 0
M  V30 8737 N 790.406 1.58714 6.83926 0
M  V30 8738 H 795.246 1.81299 2.36505 0
M  V30 8739 H 792.783 0.904249 1.16025 0
M  V30 8740 H 794.741 0.112743 4.17048 0
M  V30 8741 H 793.371 -0.475915 3.19272 0
M  V30 8742 H 792.423 1.9428 3.27047 0
M  V30 8743 H 793.735 2.3564 4.39631 0
M  V30 8744 H 792.889 0.660158 6.03098 0
M  V30 8745 H 791.628 0.14642 4.8748 0
M  V30 8746 H 790.633 2.45081 4.92154 0
M  V30 8747 H 791.858 2.96013 6.1119 0
M  V30 8748 H 789.804 0.752915 6.51665 0
M  V30 8749 H 789.721 2.34959 7.18561 0
M  V30 8750 H 790.989 1.27287 7.69037 0
M  V30 8751 N 795.218 -1.23913 0.973828 0
M  V30 8752 C 796.464 -1.92436 0.640026 0
M  V30 8753 C 796.797 -1.75875 -0.823512 0
M  V30 8754 O 796.072 -1.11563 -1.59323 0
M  V30 8755 C 796.355 -3.4526 1.0231 0
M  V30 8756 C 796.208 -3.70961 2.54378 0
M  V30 8757 C 797.527 -4.36495 0.562155 0
M  V30 8758 H 794.646 -0.698868 0.233992 0
M  V30 8759 H 797.288 -1.46163 1.21393 0
M  V30 8760 H 795.438 -3.84802 0.534751 0
M  V30 8761 H 797.11 -3.40941 3.10737 0
M  V30 8762 H 795.353 -3.15899 2.97305 0
M  V30 8763 H 796.024 -4.77912 2.76232 0
M  V30 8764 H 798.5 -4.04363 0.981333 0
M  V30 8765 H 797.376 -5.42142 0.858689 0
M  V30 8766 H 797.637 -4.38818 -0.537659 0
M  V30 8767 N 796.696 -0.74468 -1.38897 0
M  V30 8768 C 797.626 -0.126355 -2.33158 0
M  V30 8769 C 798.607 0.713517 -1.54412 0
M  V30 8770 O 799.792 0.656523 -1.82766 0
M  V30 8771 C 796.922 0.774375 -3.38557 0
M  V30 8772 C 795.876 0.0379214 -4.27983 0
M  V30 8773 C 795.202 1.05631 -5.24162 0
M  V30 8774 C 796.502 -1.12523 -5.10035 0
M  V30 8775 H 798.196 -0.913744 -2.85116 0
M  V30 8776 H 795.742 -0.440847 -1.37086 0
M  V30 8777 H 797.695 1.21655 -4.03458 0
M  V30 8778 H 796.419 1.59399 -2.85061 0
M  V30 8779 H 795.078 -0.384733 -3.64576 0
M  V30 8780 H 794.726 1.86975 -4.66958 0
M  V30 8781 H 794.426 0.568261 -5.84846 0
M  V30 8782 H 795.95 1.49799 -5.9194 0
M  V30 8783 H 797.364 -0.761037 -5.68226 0
M  V30 8784 H 795.761 -1.54355 -5.79909 0
M  V30 8785 H 796.831 -1.94237 -4.44297 0
M  V30 8786 N 798.174 1.49689 -0.493057 0
M  V30 8787 C 799.423 2.01622 0.0560733 0
M  V30 8788 C 799.736 1.37838 1.3878 0
M  V30 8789 O 800.942 1.81054 2.02316 0
M  V30 8790 C 799.398 3.59586 0.150409 0
M  V30 8791 C 799.006 4.32338 -1.1742 0
M  V30 8792 C 800.75 4.19489 0.650327 0
M  V30 8793 C 798.657 5.8214 -1.04246 0
M  V30 8794 H 797.587 0.753594 0.0247297 0
M  V30 8795 H 800.238 1.723 -0.631279 0
M  V30 8796 H 798.62 3.8559 0.902035 0
M  V30 8797 H 799.794 4.18042 -1.9385 0
M  V30 8798 H 798.109 3.84144 -1.60694 0
M  V30 8799 H 800.706 5.29181 0.766272 0
M  V30 8800 H 801.049 3.82326 1.6472 0
M  V30 8801 H 801.582 3.97775 -0.0445371 0
M  V30 8802 H 798.321 6.23814 -2.01336 0
M  V30 8803 H 797.841 5.98952 -0.31892 0
M  V30 8804 H 799.52 6.43004 -0.717957 0
M  V30 8805 N 799.652 0.226554 1.55963 0
M  V30 8806 C 800.602 -0.694986 2.1715 0
M  V30 8807 C 801.586 -1.15394 1.12129 0
M  V30 8808 O 802.778 -1.1071 1.38102 0
M  V30 8809 C 799.907 -1.9007 2.85882 0
M  V30 8810 C 798.993 -1.46119 3.98133 0
M  V30 8811 N 799.384 -0.734584 5.00437 0
M  V30 8812 C 797.682 -1.74809 4.10314 0
M  V30 8813 C 798.383 -0.509773 5.79462 0
M  V30 8814 N 797.359 -1.06796 5.33006 0
M  V30 8815 H 801.161 -0.131469 2.93606 0
M  V30 8816 H 798.675 0.0280165 1.62376 0
M  V30 8817 H 800.672 -2.57169 3.28131 0
M  V30 8818 H 799.332 -2.46864 2.10923 0
M  V30 8819 H 800.343 -0.386757 5.16454 0
M  V30 8820 H 797.02 -2.32887 3.46511 0
M  V30 8821 H 798.41 0.0688847 6.71865 0
M  V30 8822 N 801.13 -1.57531 -0.0467866 0
M  V30 8823 C 802.407 -1.79568 -0.775536 0
M  V30 8824 C 802.787 -0.820322 -1.94509 0
M  V30 8825 O 802.135 0.14134 -2.28062 0
M  V30 8826 C 802.345 -3.26789 -1.22516 0
M  V30 8827 C 803.693 -3.91299 -1.64835 0
M  V30 8828 O 804.717 -3.30831 -1.3202 0
M  V30 8829 O 803.576 -4.97727 -2.25677 0
M  V30 8830 H 800.67 -0.737817 -0.373572 0
M  V30 8831 H 803.216 -1.69682 -0.0249302 0
M  V30 8832 H 801.988 -3.89357 -0.389446 0
M  V30 8833 H 801.611 -3.41496 -2.03633 0
M  V30 8834 N 802.608 0.318715 -1.54344 0
M  V30 8835 C 803.855 1.05608 -1.72781 0
M  V30 8836 C 804.183 1.87854 -0.504083 0
M  V30 8837 O 803.438 1.88826 0.51414 0
M  V30 8838 C 803.737 2.00514 -2.95853 0
M  V30 8839 C 803.403 1.34385 -4.30409 0
M  V30 8840 C 802.065 1.16081 -4.66989 0
M  V30 8841 C 804.417 0.869627 -5.13894 0
M  V30 8842 C 801.745 0.490114 -5.84649 0
M  V30 8843 C 804.097 0.212735 -6.32242 0
M  V30 8844 C 802.761 0.0175882 -6.67498 0
M  V30 8845 H 802.031 0.386449 -0.632249 0
M  V30 8846 H 804.678 0.332729 -1.88587 0
M  V30 8847 H 802.983 2.79317 -2.74753 0
M  V30 8848 H 804.68 2.57605 -3.07312 0
M  V30 8849 H 801.27 1.49634 -4.01631 0
M  V30 8850 H 805.454 0.998809 -4.86146 0
M  V30 8851 H 800.71 0.327767 -6.10521 0
M  V30 8852 H 804.884 -0.162699 -6.9621 0
M  V30 8853 H 802.511 -0.504137 -7.58527 0
M  V30 8854 N 804.086 1.46499 0.581025 0
M  V30 8855 C 805.332 1.52121 1.34116 0
M  V30 8856 C 805.665 0.173031 1.93428 0
M  V30 8857 O 804.94 -0.815729 1.76568 0
M  V30 8858 C 805.223 2.62108 2.46924 0
M  V30 8859 C 805.076 4.06462 1.92636 0
M  V30 8860 C 806.395 2.68167 3.48962 0
M  V30 8861 H 803.514 0.5538 0.486287 0
M  V30 8862 H 806.156 1.78443 0.652538 0
M  V30 8863 H 804.306 2.39794 3.05665 0
M  V30 8864 H 805.978 4.40068 1.3834 0
M  V30 8865 H 804.221 4.15862 1.23455 0
M  V30 8866 H 804.892 4.79152 2.74076 0
M  V30 8867 H 807.368 2.8823 3.00104 0
M  V30 8868 H 806.244 3.46942 4.2535 0
M  V30 8869 H 806.505 1.74284 4.06297 0
M  V30 8870 N 805.565 -0.825799 1.34232 0
M  V30 8871 C 806.79 -1.61883 1.29648 0
M  V30 8872 C 807.215 -1.87669 -0.127295 0
M  V30 8873 O 806.573 -1.45016 -1.08813 0
M  V30 8874 C 806.621 -2.93846 2.09014 0
M  V30 8875 O 805.725 -3.85778 1.4577 0
M  V30 8876 H 805.066 -0.492454 0.445405 0
M  V30 8877 H 807.596 -1.02641 1.76992 0
M  V30 8878 H 807.606 -3.43435 2.20264 0
M  V30 8879 H 806.281 -2.74401 3.12533 0
M  V30 8880 H 804.858 -3.4429 1.43245 0
M  V30 8881 N 807.043 -1.17915 -1.04565 0
M  V30 8882 C 808.268 -0.996749 -1.81878 0
M  V30 8883 C 808.693 0.450169 -1.82634 0
M  V30 8884 O 808.051 1.32268 -1.23995 0
M  V30 8885 C 808.099 -1.55005 -3.25585 0
M  V30 8886 O 807.203 -0.76804 -4.05185 0
M  V30 8887 H 806.544 -0.353456 -0.562108 0
M  V30 8888 H 809.074 -1.56557 -1.31723 0
M  V30 8889 H 809.084 -1.57503 -3.76373 0
M  V30 8890 H 807.759 -2.60327 -3.2435 0
M  V30 8891 H 806.336 -0.81498 -3.63885 0
M  V30 8892 N 808.521 1.23394 -0.980386 0
M  V30 8893 C 809.451 2.2717 -0.540024 0
M  V30 8894 C 810.432 1.64659 0.426787 0
M  V30 8895 O 811.617 1.91543 0.320153 0
M  V30 8896 C 808.747 3.46939 0.15836 0
M  V30 8897 C 807.701 4.21802 -0.725732 0
M  V30 8898 C 807.027 5.34597 0.104866 0
M  V30 8899 C 808.327 4.81802 -2.01654 0
M  V30 8900 H 810.021 2.64257 -1.40743 0
M  V30 8901 H 807.567 1.2703 -0.678193 0
M  V30 8902 H 809.52 4.18683 0.477737 0
M  V30 8903 H 808.244 3.08912 1.06022 0
M  V30 8904 H 806.903 3.51875 -1.02857 0
M  V30 8905 H 806.551 4.92812 1.00726 0
M  V30 8906 H 806.251 5.85607 -0.483557 0
M  V30 8907 H 807.775 6.09163 0.418624 0
M  V30 8908 H 809.189 5.45554 -1.76193 0
M  V30 8909 H 807.586 5.43098 -2.55273 0
M  V30 8910 H 808.656 4.02549 -2.70338 0
M  V30 8911 N 809.999 0.752036 1.385 0
M  V30 8912 C 811.41 0.375385 1.82887 0
M  V30 8913 C 811.761 -1.09575 1.62751 0
M  V30 8914 O 810.886 -1.84685 1.12785 0
M  V30 8915 C 811.481 0.674563 3.32017 0
M  V30 8916 C 810.04 0.351208 3.74758 0
M  V30 8917 C 809.187 0.928531 2.61292 0
M  V30 8918 H 812.138 0.948313 1.27251 0
M  V30 8919 H 812.159 -0.0477781 3.8047 0
M  V30 8920 H 811.671 1.74533 3.46641 0
M  V30 8921 H 809.772 -0.713042 3.65714 0
M  V30 8922 H 809.885 0.845675 4.71577 0
M  V30 8923 H 808.249 0.354012 2.52228 0
M  V30 8924 H 809.032 2.0043 2.78716 0
M  V30 8925 N 811.477 -1.49425 0.500989 0
M  V30 8926 C 812.754 -1.9531 -0.106551 0
M  V30 8927 C 813.134 -1.44248 -1.54129 0
M  V30 8928 O 812.482 -0.656237 -2.18874 0
M  V30 8929 C 812.692 -3.48995 -0.0191972 0
M  V30 8930 C 814.04 -4.24161 -0.193129 0
M  V30 8931 O 815.064 -3.56075 -0.0943843 0
M  V30 8932 O 813.923 -5.45064 -0.395869 0
M  V30 8933 H 811.017 -0.82149 -0.0953068 0
M  V30 8934 H 813.563 -1.6007 0.563526 0
M  V30 8935 H 812.335 -3.78794 0.981353 0
M  V30 8936 H 811.958 -3.90852 -0.72942 0
M  V30 8937 N 812.955 -0.234822 -1.55841 0
M  V30 8938 C 813.902 0.6698 -2.20867 0
M  V30 8939 C 814.872 1.18042 -1.16856 0
M  V30 8940 O 816.057 1.23709 -1.45261 0
M  V30 8941 C 813.197 1.86646 -2.90271 0
M  V30 8942 C 812.31 1.39351 -4.08908 0
M  V30 8943 C 811.445 2.54878 -4.66059 0
M  V30 8944 C 810.484 2.04384 -5.76969 0
M  V30 8945 N 809.621 3.13233 -6.28355 0
M  V30 8946 H 814.461 0.10858 -2.97802 0
M  V30 8947 H 811.998 0.041836 -1.4704 0
M  V30 8948 H 813.956 2.56926 -3.28702 0
M  V30 8949 H 812.586 2.40035 -2.15831 0
M  V30 8950 H 811.638 0.585173 -3.75872 0
M  V30 8951 H 812.95 0.983356 -4.89011 0
M  V30 8952 H 812.104 3.33219 -5.07001 0
M  V30 8953 H 810.843 2.99188 -3.85146 0
M  V30 8954 H 809.848 1.24509 -5.35516 0
M  V30 8955 H 811.073 1.61057 -6.59725 0
M  V30 8956 H 809.019 3.57 -5.50352 0
M  V30 8957 H 808.936 2.76511 -7.03618 0
M  V30 8958 H 810.204 3.91669 -6.73955 0
M  V30 8959 N 814.433 1.57553 0.0384317 0
M  V30 8960 C 815.663 1.92813 0.742064 0
M  V30 8961 C 816.071 0.832157 1.69917 0
M  V30 8962 O 815.414 -0.200917 1.82598 0
M  V30 8963 C 815.476 3.23806 1.56172 0
M  V30 8964 C 815.14 4.50459 0.770407 0
M  V30 8965 C 816.137 5.19846 0.0748006 0
M  V30 8966 C 813.822 4.97001 0.727714 0
M  V30 8967 C 815.816 6.34047 -0.652902 0
M  V30 8968 C 813.503 6.111 -0.00373992 0
M  V30 8969 C 814.501 6.79477 -0.692816 0
M  V30 8970 O 814.189 7.91395 -1.41241 0
M  V30 8971 H 813.921 0.641174 0.214179 0
M  V30 8972 H 816.475 2.054 0.00285095 0
M  V30 8973 H 814.705 3.0752 2.34453 0
M  V30 8974 H 816.394 3.44463 2.14709 0
M  V30 8975 H 817.16 4.84899 0.098875 0
M  V30 8976 H 813.039 4.43629 1.25355 0
M  V30 8977 H 816.583 6.87353 -1.1913 0
M  V30 8978 H 812.48 6.45493 -0.0297703 0
M  V30 8979 H 813.248 8.07702 -1.32512 0
M  V30 8980 N 815.911 -0.310526 1.54511 0
M  V30 8981 C 817.188 -1.06593 1.64004 0
M  V30 8982 C 817.568 -2.05519 0.482216 0
M  V30 8983 O 816.916 -2.22455 -0.52212 0
M  V30 8984 C 817.126 -1.75627 3.01589 0
M  V30 8985 C 818.474 -2.28173 3.58081 0
M  V30 8986 O 819.498 -1.85674 3.03979 0
M  V30 8987 O 818.357 -3.06015 4.52788 0
M  V30 8988 H 815.451 -0.492109 0.664649 0
M  V30 8989 H 817.997 -0.309374 1.66856 0
M  V30 8990 H 816.769 -1.03743 3.77297 0
M  V30 8991 H 816.392 -2.58061 3.02473 0
M  V30 8992 N 817.389 -1.46805 -0.573248 0
M  V30 8993 C 818.617 -1.56191 -1.3569 0
M  V30 8994 C 819.032 -0.206362 -1.87669 0
M  V30 8995 O 818.389 0.797883 -1.64134 0
M  V30 8996 C 818.44 -2.57433 -2.53792 0
M  V30 8997 O 818.161 -3.87724 -2.03965 0
M  V30 8998 C 819.662 -2.76851 -3.4622 0
M  V30 8999 H 816.882 -0.527907 -0.414192 0
M  V30 9000 H 819.426 -1.92292 -0.695989 0
M  V30 9001 H 817.581 -2.24311 -3.15854 0
M  V30 9002 H 817.995 -4.42909 -2.80948 0
M  V30 9003 H 819.469 -3.5159 -4.25545 0
M  V30 9004 H 819.946 -1.84095 -3.98755 0
M  V30 9005 H 820.552 -3.11107 -2.89987 0
M  V30 9006 N 818.867 0.818669 -1.34668 0
M  V30 9007 C 819.797 1.94468 -1.29245 0
M  V30 9008 C 820.778 1.69257 -0.169101 0
M  V30 9009 O 821.963 1.90794 -0.362143 0
M  V30 9010 C 819.093 3.31001 -1.05145 0
M  V30 9011 C 818.047 3.70663 -2.13992 0
M  V30 9012 C 817.373 5.05226 -1.75074 0
M  V30 9013 C 818.673 3.82312 -3.55858 0
M  V30 9014 H 820.367 1.99263 -2.2346 0
M  V30 9015 H 817.913 0.957304 -1.07572 0
M  V30 9016 H 819.866 4.09364 -0.999949 0
M  V30 9017 H 818.59 3.26517 -0.0737312 0
M  V30 9018 H 817.249 2.94578 -2.18219 0
M  V30 9019 H 816.897 4.97233 -0.759518 0
M  V30 9020 H 816.597 5.32734 -2.47928 0
M  V30 9021 H 818.121 5.86042 -1.71427 0
M  V30 9022 H 819.535 4.50935 -3.5402 0
M  V30 9023 H 817.932 4.21278 -4.2737 0
M  V30 9024 H 819.002 2.84193 -3.9289 0
M  V30 9025 N 820.346 1.18468 1.03938 0
M  V30 9026 C 821.592 0.982286 1.77423 0
M  V30 9027 C 821.925 -0.48679 1.88 0
M  V30 9028 O 821.2 -1.36146 1.38905 0
M  V30 9029 C 821.483 1.63929 3.20623 0
M  V30 9030 C 821.336 3.18132 3.17982 0
M  V30 9031 C 822.655 1.3536 4.18767 0
M  V30 9032 H 819.774 0.358264 0.644062 0
M  V30 9033 H 822.416 1.46154 1.21405 0
M  V30 9034 H 820.566 1.2318 3.68455 0
M  V30 9035 H 822.238 3.68024 2.78129 0
M  V30 9036 H 820.481 3.50225 2.55978 0
M  V30 9037 H 821.152 3.5924 4.19107 0
M  V30 9038 H 823.628 1.70669 3.79488 0
M  V30 9039 H 822.504 1.83896 5.17178 0
M  V30 9040 H 822.765 0.276722 4.41233 0
M  V30 9041 N 821.824 -1.22873 0.986916 0
M  V30 9042 C 823.072 -1.91084 0.658121 0
M  V30 9043 C 823.393 -1.77304 -0.811675 0
M  V30 9044 O 822.663 -1.15649 -1.58121 0
M  V30 9045 H 821.243 -0.707251 0.240427 0
M  V30 9046 H 823.905 -1.49357 1.25213 0
M  V30 9047 H 823.001 -2.98373 0.915428 0
M  V30 9048 N 823.302 -0.75937 -1.38099 0
M  V30 9049 C 824.527 -0.327859 -2.04792 0
M  V30 9050 C 824.952 1.03752 -1.56899 0
M  V30 9051 O 824.31 1.66235 -0.723581 0
M  V30 9052 C 824.358 -0.366264 -3.58735 0
M  V30 9053 O 823.462 0.637697 -4.0744 0
M  V30 9054 H 822.803 -0.144092 -0.648177 0
M  V30 9055 H 825.333 -1.03211 -1.7666 0
M  V30 9056 H 825.343 -0.219179 -4.07411 0
M  V30 9057 H 824.018 -1.36243 -3.92951 0
M  V30 9058 H 822.595 0.454749 -3.70117 0
M  V30 9059 N 824.78 1.49157 -0.508906 0
M  V30 9060 C 825.728 2.30922 0.278906 0
M  V30 9061 C 826.722 1.39889 0.955382 0
M  V30 9062 O 827.928 1.56901 0.882169 0
M  V30 9063 H 824.303 0.744087 0.108805 0
M  V30 9064 H 826.274 2.95277 -0.430583 0
M  V30 9065 C 825.023 3.21432 1.32576 0
M  V30 9066 H 824.346 3.91413 0.814634 0
M  V30 9067 H 825.786 3.81568 1.84882 0
M  V30 9068 C 824.245 2.41583 2.34817 0
M  V30 9069 O 824.775 2.1256 3.40854 0
M  V30 9070 N 822.981 2.03462 2.07489 0
M  V30 9071 H 822.528 2.27265 1.21278 0
M  V30 9072 H 822.486 1.50345 2.76123 0
M  V30 9073 N 826.258 0.243083 1.55714 0
M  V30 9074 C 827.221 -0.644723 2.19945 0
M  V30 9075 C 828.221 -1.10562 1.16759 0
M  V30 9076 O 829.411 -1.01095 1.41865 0
M  V30 9077 C 826.543 -1.88569 2.83997 0
M  V30 9078 H 827.736 -0.0843839 2.99781 0
M  V30 9079 H 825.289 -0.00647246 1.56299 0
M  V30 9080 H 826.024 -2.48736 2.08089 0
M  V30 9081 H 825.809 -1.56345 3.59581 0
M  V30 9082 H 827.299 -2.51774 3.33166 0
M  V30 9083 N 827.736 -1.57571 -0.0300757 0
M  V30 9084 C 828.961 -1.93879 -0.736601 0
M  V30 9085 C 829.386 -0.842998 -1.68152 0
M  V30 9086 O 828.744 0.20135 -1.80178 0
M  V30 9087 C 828.792 -3.29247 -1.47066 0
M  V30 9088 O 827.896 -3.21426 -2.58378 0
M  V30 9089 H 827.237 -0.633735 -0.198181 0
M  V30 9090 H 829.767 -2.04595 0.0141485 0
M  V30 9091 H 829.777 -3.64113 -1.84081 0
M  V30 9092 H 828.452 -4.08565 -0.77764 0
M  V30 9093 H 827.029 -2.98189 -2.23914 0
M  V30 9094 N 829.214 0.302327 -1.54673 0
M  V30 9095 C 830.161 1.37282 -1.85532 0
M  V30 9096 C 831.131 1.50437 -0.704129 0
M  V30 9097 O 832.316 1.65317 -0.952627 0
M  V30 9098 C 829.456 2.73309 -2.10704 0
M  V30 9099 C 828.569 2.68614 -3.38335 0
M  V30 9100 C 827.704 3.96626 -3.53357 0
M  V30 9101 C 826.743 3.86324 -4.74784 0
M  V30 9102 N 825.88 5.06109 -4.86619 0
M  V30 9103 H 830.72 1.10265 -2.76849 0
M  V30 9104 H 828.257 0.533346 -1.37091 0
M  V30 9105 H 830.215 3.52414 -2.23294 0
M  V30 9106 H 828.845 2.98589 -1.22656 0
M  V30 9107 H 827.897 1.81381 -3.34373 0
M  V30 9108 H 829.209 2.56891 -4.27561 0
M  V30 9109 H 828.363 4.84168 -3.65604 0
M  V30 9110 H 827.102 4.11182 -2.62261 0
M  V30 9111 H 826.107 2.97166 -4.62572 0
M  V30 9112 H 827.332 3.73315 -5.67286 0
M  V30 9113 H 825.278 5.2113 -3.98446 0
M  V30 9114 H 825.195 4.96804 -5.69844 0
M  V30 9115 H 826.463 5.95306 -5.03221 0
M  V30 9116 N 830.692 1.47107 0.565454 0
M  V30 9117 C 831.622 1.61846 1.68309 0
M  V30 9118 C 832.603 0.468159 1.63531 0
M  V30 9119 O 833.788 0.696504 1.8128 0
M  V30 9120 C 830.918 1.62474 3.06952 0
M  V30 9121 C 829.872 2.76649 3.26572 0
M  V30 9122 C 829.198 2.62345 4.65917 0
M  V30 9123 C 830.498 4.18319 3.12741 0
M  V30 9124 H 832.192 2.55407 1.5623 0
M  V30 9125 H 829.738 1.22916 0.750179 0
M  V30 9126 H 831.691 1.71378 3.84977 0
M  V30 9127 H 830.415 0.654692 3.19971 0
M  V30 9128 H 829.074 2.67242 2.50952 0
M  V30 9129 H 828.722 1.63386 4.75725 0
M  V30 9130 H 828.422 3.38936 4.79996 0
M  V30 9131 H 829.946 2.73165 5.46089 0
M  V30 9132 H 831.36 4.28745 3.80593 0
M  V30 9133 H 829.757 4.95632 3.38333 0
M  V30 9134 H 830.827 4.37263 2.09592 0
M  V30 9135 N 832.17 -0.811516 1.35101 0
M  V30 9136 C 833.395 -1.60499 1.31358 0
M  V30 9137 C 833.82 -1.87793 -0.107383 0
M  V30 9138 O 833.178 -1.46161 -1.07268 0
M  V30 9139 C 833.226 -2.91612 2.12119 0
M  V30 9140 O 832.33 -3.84211 1.49853 0
M  V30 9141 H 831.671 -0.487702 0.450603 0
M  V30 9142 H 834.201 -1.00758 1.7807 0
M  V30 9143 H 834.211 -3.4108 2.23894 0
M  V30 9144 H 832.886 -2.71071 3.15426 0
M  V30 9145 H 831.463 -3.42751 1.46889 0
M  V30 9146 N 833.648 -1.19017 -1.03309 0
M  V30 9147 C 834.896 -0.988258 -1.76289 0
M  V30 9148 C 835.217 0.482557 -1.88935 0
M  V30 9149 O 834.487 1.34969 -1.41987 0
M  V30 9150 H 833.067 -0.36267 -0.653054 0
M  V30 9151 H 835.729 -1.49836 -1.2464 0
M  V30 9152 H 834.825 -1.43273 -2.77271 0
M  V30 9153 N 835.127 1.22348 -0.993418 0
M  V30 9154 C 836.375 1.90733 -0.668246 0
M  V30 9155 C 836.696 1.77732 0.802261 0
M  V30 9156 O 835.966 1.16486 1.57505 0
M  V30 9157 H 834.546 0.705966 -0.244174 0
M  V30 9158 H 837.208 1.48691 -1.26004 0
M  V30 9159 H 836.304 2.97883 -0.931239 0
M  V30 9160 N 836.605 0.766683 1.37694 0
M  V30 9161 C 837.537 0.107798 2.28946 0
M  V30 9162 C 838.55 -0.669701 1.48387 0
M  V30 9163 O 839.739 -0.508629 1.711 0
M  V30 9164 C 836.839 -0.871084 3.27514 0
M  V30 9165 C 836.012 -0.148471 4.37148 0
M  V30 9166 C 835.071 -1.03998 5.1582 0
M  V30 9167 O 834.097 -0.505639 5.6695 0
M  V30 9168 N 835.299 -2.36679 5.3006 0
M  V30 9169 H 838.064 0.89154 2.86132 0
M  V30 9170 H 835.625 0.618593 1.49616 0
M  V30 9171 H 837.617 -1.47081 3.77027 0
M  V30 9172 H 836.187 -1.55582 2.71133 0
M  V30 9173 H 835.407 0.632117 3.89099 0
M  V30 9174 H 836.695 0.351045 5.07588 0
M  V30 9175 H 836.093 -2.82532 4.90094 0
M  V30 9176 H 834.65 -2.9167 5.82899 0
M  V30 9177 N 838.083 -1.48885 0.516809 0
M  V30 9178 C 839.03 -2.29408 -0.253125 0
M  V30 9179 C 840 -1.36533 -0.945935 0
M  V30 9180 O 841.185 -1.65495 -0.949527 0
M  V30 9181 C 838.325 -3.19592 -1.30211 0
M  V30 9182 C 837.438 -4.27535 -0.61948 0
M  V30 9183 C 836.573 -5.04916 -1.65026 0
M  V30 9184 C 835.612 -6.04677 -0.950368 0
M  V30 9185 N 834.749 -6.75164 -1.92608 0
M  V30 9186 H 839.589 -2.94738 0.439744 0
M  V30 9187 H 837.126 -1.45311 0.2287 0
M  V30 9188 H 839.084 -3.70267 -1.92245 0
M  V30 9189 H 837.714 -2.56213 -1.96353 0
M  V30 9190 H 836.766 -3.80228 0.114505 0
M  V30 9191 H 838.078 -4.98752 -0.0693016 0
M  V30 9192 H 837.232 -5.59539 -2.34523 0
M  V30 9193 H 835.971 -4.33508 -2.23432 0
M  V30 9194 H 834.976 -5.4927 -0.241252 0
M  V30 9195 H 836.201 -6.78077 -0.372599 0
M  V30 9196 H 834.147 -6.06517 -2.49946 0
M  V30 9197 H 834.064 -7.4241 -1.42699 0
M  V30 9198 H 835.332 -7.34384 -2.61345 0
M  V30 9199 N 839.561 -0.251338 -1.55583 0
M  V30 9200 C 840.493 0.679167 -2.18906 0
M  V30 9201 C 841.506 1.13545 -1.16667 0
M  V30 9202 O 842.695 1.06146 -1.4351 0
M  V30 9203 C 839.795 1.93544 -2.78198 0
M  V30 9204 C 838.968 1.62987 -4.05899 0
M  V30 9205 C 838.027 2.73618 -4.49466 0
M  V30 9206 O 837.053 2.40815 -5.15749 0
M  V30 9207 N 838.255 4.03204 -4.1762 0
M  V30 9208 H 841.02 0.137328 -2.99385 0
M  V30 9209 H 838.581 -0.0714754 -1.61742 0
M  V30 9210 H 840.573 2.66804 -3.04299 0
M  V30 9211 H 839.143 2.38695 -2.0185 0
M  V30 9212 H 838.363 0.732237 -3.8734 0
M  V30 9213 H 839.651 1.40041 -4.89148 0
M  V30 9214 H 839.049 4.32686 -3.64416 0
M  V30 9215 H 837.606 4.72916 -4.48547 0
M  V30 9216 N 841.039 1.57585 0.0217189 0
M  V30 9217 C 842.455 1.55072 0.377484 0
M  V30 9218 C 842.655 0.978423 1.76151 0
M  V30 9219 O 841.711 0.602688 2.45202 0
M  V30 9220 C 843.024 2.99462 0.272605 0
M  V30 9221 C 844.572 3.11047 0.349148 0
M  V30 9222 C 845.047 4.57182 0.273636 0
M  V30 9223 N 846.538 4.62007 0.332206 0
M  V30 9224 C 847.273 5.72631 0.296782 0
M  V30 9225 N 846.769 6.92472 0.21322 0
M  V30 9226 N 848.562 5.61028 0.347053 0
M  V30 9227 H 840.713 1.93133 -0.883925 0
M  V30 9228 H 842.976 0.886151 -0.33681 0
M  V30 9229 H 842.682 3.45088 -0.67878 0
M  V30 9230 H 842.556 3.61901 1.06335 0
M  V30 9231 H 844.943 2.65364 1.29097 0
M  V30 9232 H 845.024 2.51425 -0.471085 0
M  V30 9233 H 844.668 5.03534 -0.664548 0
M  V30 9234 H 844.598 5.14724 1.11207 0
M  V30 9235 H 847.089 3.75788 0.399003 0
M  V30 9236 H 847.402 7.72563 0.191492 0
M  V30 9237 H 845.747 6.94769 0.179161 0
M  V30 9238 H 848.938 4.66298 0.410378 0
M  V30 9239 H 849.111 6.47229 0.315979 0
M  V30 9240 N 842.517 -0.29412 1.54831 0
M  V30 9241 C 843.766 -1.02614 1.73647 0
M  V30 9242 C 844.079 -1.88193 0.533162 0
M  V30 9243 O 845.285 -2.64713 0.603275 0
M  V30 9244 C 843.741 -1.87417 3.07251 0
M  V30 9245 C 843.349 -1.06806 4.35082 0
M  V30 9246 C 845.093 -2.60176 3.35423 0
M  V30 9247 C 843 -1.90926 5.59733 0
M  V30 9248 H 841.93 -0.386834 0.647206 0
M  V30 9249 H 844.581 -0.282789 1.81308 0
M  V30 9250 H 842.963 -2.65765 2.93572 0
M  V30 9251 H 844.137 -0.330226 4.59615 0
M  V30 9252 H 842.452 -0.455979 4.13896 0
M  V30 9253 H 845.049 -3.23476 4.25755 0
M  V30 9254 H 845.392 -3.29365 2.54606 0
M  V30 9255 H 845.925 -1.88871 3.50103 0
M  V30 9256 H 842.664 -1.26194 6.43238 0
M  V30 9257 H 842.184 -2.62363 5.39375 0
M  V30 9258 H 843.863 -2.48807 5.97247 0
M  V30 9259 N 843.995 -1.47404 -0.557645 0
M  V30 9260 C 845.22 -1.57868 -1.34508 0
M  V30 9261 C 845.645 -0.229151 -1.86699 0
M  V30 9262 O 845.003 0.794908 -1.62944 0
M  V30 9263 C 845.051 -2.60712 -2.49122 0
M  V30 9264 O 844.155 -2.15952 -3.51338 0
M  V30 9265 H 843.496 -0.530335 -0.399551 0
M  V30 9266 H 846.026 -1.93181 -0.673954 0
M  V30 9267 H 846.036 -2.81118 -2.95697 0
M  V30 9268 H 844.711 -3.58701 -2.10491 0
M  V30 9269 H 843.288 -2.05644 -3.11071 0
M  V30 9270 N 845.473 0.80434 -1.35529 0
M  V30 9271 C 846.722 1.55665 -1.28263 0
M  V30 9272 C 847.035 1.95096 0.140352 0
M  V30 9273 O 848.241 2.69422 0.335303 0
M  V30 9274 C 846.697 2.80935 -2.24952 0
M  V30 9275 C 846.305 2.48733 -3.72607 0
M  V30 9276 C 848.049 3.5894 -2.26632 0
M  V30 9277 C 845.956 3.70308 -4.61114 0
M  V30 9278 H 844.886 0.584301 -0.476559 0
M  V30 9279 H 847.537 0.88395 -1.60806 0
M  V30 9280 H 845.919 3.49927 -1.85383 0
M  V30 9281 H 847.093 1.87733 -4.20824 0
M  V30 9282 H 845.408 1.83969 -3.73557 0
M  V30 9283 H 848.005 4.49244 -2.89973 0
M  V30 9284 H 848.348 3.96433 -1.27069 0
M  V30 9285 H 848.881 2.96912 -2.64742 0
M  V30 9286 H 845.62 3.37922 -5.61684 0
M  V30 9287 H 845.14 4.30526 -4.17621 0
M  V30 9288 H 846.819 4.37511 -4.76648 0
M  V30 9289 N 846.951 1.19563 1.02676 0
M  V30 9290 C 847.914 0.937182 2.09164 0
M  V30 9291 C 848.914 -0.0831927 1.60585 0
M  V30 9292 O 850.104 0.15178 1.73538 0
M  V30 9293 C 847.236 0.408912 3.38439 0
M  V30 9294 H 848.429 1.88164 2.33526 0
M  V30 9295 H 845.982 1.00959 1.19319 0
M  V30 9296 H 846.717 -0.541497 3.19747 0
M  V30 9297 H 846.502 1.14464 3.7502 0
M  V30 9298 H 847.992 0.247242 4.16867 0
M  V30 9299 N 848.429 -1.21819 0.999893 0
M  V30 9300 C 849.845 -1.42847 0.711824 0
M  V30 9301 C 850.045 -1.88391 -0.714928 0
M  V30 9302 O 849.101 -2.0422 -1.48494 0
M  V30 9303 C 850.414 -2.46417 1.72334 0
M  V30 9304 C 851.962 -2.60207 1.73958 0
M  V30 9305 C 852.437 -3.67005 2.73992 0
M  V30 9306 N 853.928 -3.7447 2.72628 0
M  V30 9307 C 854.663 -4.56718 3.46693 0
M  V30 9308 N 854.159 -5.42904 4.3038 0
M  V30 9309 N 855.952 -4.51094 3.35366 0
M  V30 9310 H 848.103 -0.905656 1.92124 0
M  V30 9311 H 850.366 -0.459893 0.828977 0
M  V30 9312 H 850.072 -2.19914 2.74465 0
M  V30 9313 H 849.946 -3.45137 1.52186 0
M  V30 9314 H 852.333 -2.8605 0.725217 0
M  V30 9315 H 852.414 -1.61739 1.98177 0
M  V30 9316 H 852.058 -3.41908 3.75582 0
M  V30 9317 H 851.988 -4.65058 2.4704 0
M  V30 9318 H 854.479 -3.12895 2.11909 0
M  V30 9319 H 854.792 -6.02704 4.83702 0
M  V30 9320 H 853.137 -5.42463 4.34464 0
M  V30 9321 H 856.328 -3.82791 2.69423 0
M  V30 9322 H 856.501 -5.1496 3.93344 0
M  V30 9323 N 849.908 -0.773975 -1.37286 0
M  V30 9324 C 850.871 -0.167974 -2.28584 0
M  V30 9325 C 851.871 0.625662 -1.48129 0
M  V30 9326 O 853.061 0.448924 -1.68316 0
M  V30 9327 C 850.193 0.769364 -3.32105 0
M  V30 9328 H 851.386 -0.972806 -2.83684 0
M  V30 9329 H 848.939 -0.542335 -1.46589 0
M  V30 9330 H 849.674 1.59912 -2.82132 0
M  V30 9331 H 849.459 0.202419 -3.91577 0
M  V30 9332 H 850.949 1.18872 -4.00324 0
M  V30 9333 N 851.386 1.48609 -0.524698 0
M  V30 9334 C 852.635 2.01696 0.0132937 0
M  V30 9335 C 852.948 1.40751 1.35825 0
M  V30 9336 O 854.154 1.85304 1.9843 0
M  V30 9337 C 852.61 3.59824 0.0741012 0
M  V30 9338 C 852.218 4.2975 -1.26564 0
M  V30 9339 C 853.962 4.20774 0.5612 0
M  V30 9340 C 851.869 5.79798 -1.16571 0
M  V30 9341 H 850.799 0.753949 0.00873931 0
M  V30 9342 H 853.45 1.70922 -0.667684 0
M  V30 9343 H 851.832 3.87416 0.820043 0
M  V30 9344 H 853.006 4.13836 -2.02674 0
M  V30 9345 H 851.321 3.80649 -1.68806 0
M  V30 9346 H 853.918 5.30687 0.653853 0
M  V30 9347 H 854.261 3.85734 1.56573 0
M  V30 9348 H 854.794 3.97591 -0.128901 0
M  V30 9349 H 851.533 6.19403 -2.14523 0
M  V30 9350 H 851.053 5.9814 -0.445894 0
M  V30 9351 H 852.732 6.41337 -0.854186 0
M  V30 9352 N 852.864 0.259585 1.55447 0
M  V30 9353 C 853.797 -0.675542 2.17972 0
M  V30 9354 C 854.775 -1.16362 1.13572 0
M  V30 9355 O 855.959 -1.23944 1.42021 0
M  V30 9356 C 853.086 -1.91952 2.79056 0
M  V30 9357 C 852.132 -1.56824 3.96621 0
M  V30 9358 S 852.965 -0.659846 5.31419 0
M  V30 9359 C 854.121 -1.91255 5.95963 0
M  V30 9360 H 854.354 -0.144236 2.9695 0
M  V30 9361 H 851.887 0.0439448 1.54337 0
M  V30 9362 H 853.845 -2.63362 3.14882 0
M  V30 9363 H 852.506 -2.42196 2 0
M  V30 9364 H 851.699 -2.49348 4.37997 0
M  V30 9365 H 851.301 -0.934472 3.62138 0
M  V30 9366 H 853.593 -2.85834 6.14252 0
M  V30 9367 H 854.536 -1.54207 6.91105 0
M  V30 9368 H 854.944 -2.07042 5.25161 0
M  V30 9369 N 854.342 -1.57594 -0.0133615 0
M  V30 9370 C 855.758 -1.5527 -0.369255 0
M  V30 9371 C 855.958 -0.987751 -1.7563 0
M  V30 9372 O 855.014 -0.615683 -2.44879 0
M  V30 9373 C 856.327 -2.99602 -0.25672 0
M  V30 9374 C 857.875 -3.11227 -0.332647 0
M  V30 9375 C 858.35 -4.57321 -0.249387 0
M  V30 9376 N 859.841 -4.62177 -0.3077 0
M  V30 9377 C 860.576 -5.72781 -0.26641 0
M  V30 9378 N 860.072 -6.92575 -0.176494 0
M  V30 9379 N 861.865 -5.61204 -0.317295 0
M  V30 9380 H 854.016 -1.92662 0.894154 0
M  V30 9381 H 856.279 -0.884352 0.341505 0
M  V30 9382 H 855.985 -3.44723 0.697072 0
M  V30 9383 H 855.859 -3.6246 -1.04415 0
M  V30 9384 H 858.246 -2.66045 -1.27688 0
M  V30 9385 H 858.327 -2.51171 0.484412 0
M  V30 9386 H 857.971 -5.03174 0.691242 0
M  V30 9387 H 857.901 -5.15306 -1.08476 0
M  V30 9388 H 860.392 -3.75994 -0.379069 0
M  V30 9389 H 860.705 -7.72653 -0.150518 0
M  V30 9390 H 859.05 -6.94854 -0.142314 0
M  V30 9391 H 862.241 -4.66509 -0.385643 0
M  V30 9392 H 862.414 -6.47388 -0.28165 0
M  V30 9393 N 855.82 0.285905 -1.54985 0
M  V30 9394 C 856.768 1.37302 -1.87752 0
M  V30 9395 C 857.762 1.51763 -0.752616 0
M  V30 9396 O 858.968 1.53701 -0.936805 0
M  V30 9397 H 855.343 0.458935 -0.59572 0
M  V30 9398 H 857.314 1.0691 -2.78591 0
M  V30 9399 C 856.063 2.72885 -2.15474 0
M  V30 9400 H 855.386 2.62545 -3.01513 0
M  V30 9401 H 856.826 3.47925 -2.42331 0
M  V30 9402 C 855.285 3.22989 -0.958124 0
M  V30 9403 O 855.815 4.01268 -0.186219 0
M  V30 9404 N 854.021 2.80503 -0.759354 0
M  V30 9405 H 853.568 2.16961 -1.38874 0
M  V30 9406 H 853.526 3.14375 0.0396937 0
M  V30 9407 N 857.298 1.47698 0.54982 0
M  V30 9408 C 858.709 1.48474 1.13191 0
M  V30 9409 C 859.06 0.243504 1.94683 0
M  V30 9410 O 858.185 -0.651009 2.06375 0
M  V30 9411 C 858.78 2.69022 2.05944 0
M  V30 9412 C 857.339 2.72733 2.5941 0
M  V30 9413 C 856.486 2.41691 1.35944 0
M  V30 9414 H 859.437 1.55101 0.336048 0
M  V30 9415 H 859.458 2.46412 2.89934 0
M  V30 9416 H 858.97 3.59345 1.46605 0
M  V30 9417 H 857.071 1.86568 3.22526 0
M  V30 9418 H 857.184 3.73628 2.99899 0
M  V30 9419 H 855.548 1.92428 1.66864 0
M  V30 9420 H 856.331 3.34231 0.783869 0
M  V30 9421 N 858.776 -0.797141 1.35954 0
M  V30 9422 C 859.723 -1.90944 1.2965 0
M  V30 9423 C 860.693 -1.65262 0.166628 0
M  V30 9424 O 861.878 -1.87527 0.351883 0
M  V30 9425 C 859.018 -3.27637 1.08389 0
M  V30 9426 C 858.131 -3.65442 2.30382 0
M  V30 9427 C 857.266 -4.91213 2.02195 0
M  V30 9428 C 856.305 -5.21674 3.20191 0
M  V30 9429 N 855.442 -6.38627 2.91719 0
M  V30 9430 H 860.282 -1.95668 2.24762 0
M  V30 9431 H 857.819 -0.95696 1.11717 0
M  V30 9432 H 859.777 -4.06451 0.940912 0
M  V30 9433 H 858.407 -3.22355 0.169351 0
M  V30 9434 H 857.459 -2.81813 2.55511 0
M  V30 9435 H 858.771 -3.83907 3.18461 0
M  V30 9436 H 857.925 -5.77876 1.84783 0
M  V30 9437 H 856.664 -4.74803 1.11416 0
M  V30 9438 H 855.669 -4.33498 3.38171 0
M  V30 9439 H 856.894 -5.40009 4.11786 0
M  V30 9440 H 854.84 -6.23623 2.03543 0
M  V30 9441 H 854.757 -6.57387 3.73334 0
M  V30 9442 H 856.025 -7.28292 2.77868 0
M  V30 9443 N 860.254 -1.20106 -1.0204 0
M  V30 9444 C 861.503 -1.00316 -1.74985 0
M  V30 9445 C 861.816 0.465814 -1.89972 0
M  V30 9446 O 863.022 0.782749 -2.59972 0
M  V30 9447 C 861.478 -1.74608 -3.14706 0
M  V30 9448 C 861.086 -3.25573 -3.07744 0
M  V30 9449 C 862.83 -1.63172 -3.91887 0
M  V30 9450 C 860.737 -3.92419 -4.42449 0
M  V30 9451 H 859.667 -0.371728 -0.655999 0
M  V30 9452 H 862.318 -1.43688 -1.14131 0
M  V30 9453 H 860.7 -1.24021 -3.76078 0
M  V30 9454 H 861.874 -3.83345 -2.55702 0
M  V30 9455 H 860.189 -3.3738 -2.44057 0
M  V30 9456 H 862.786 -2.10457 -4.9154 0
M  V30 9457 H 863.129 -0.58728 -4.12137 0
M  V30 9458 H 863.662 -2.11152 -3.37135 0
M  V30 9459 H 860.401 -4.96998 -4.27403 0
M  V30 9460 H 859.921 -3.39436 -4.94513 0
M  V30 9461 H 861.6 -3.96453 -5.11306 0
M  V30 9462 N 861.732 1.21287 -1.00634 0
M  V30 9463 C 862.662 2.25973 -0.588089 0
M  V30 9464 C 863.643 1.65527 0.391764 0
M  V30 9465 O 864.828 1.92179 0.279452 0
M  V30 9466 C 861.958 3.47197 0.0847336 0
M  V30 9467 C 860.912 4.20168 -0.815039 0
M  V30 9468 C 860.238 5.34699 -0.00855393 0
M  V30 9469 C 861.538 4.77416 -2.11828 0
M  V30 9470 H 863.232 2.61212 -1.46317 0
M  V30 9471 H 860.778 1.25563 -0.704985 0
M  V30 9472 H 862.731 4.19602 0.388821 0
M  V30 9473 H 861.455 3.11092 0.994456 0
M  V30 9474 H 860.114 3.49614 -1.10297 0
M  V30 9475 H 859.762 4.94837 0.902499 0
M  V30 9476 H 859.462 5.84449 -0.607664 0
M  V30 9477 H 860.986 6.09914 0.289317 0
M  V30 9478 H 862.4 5.41694 -1.87725 0
M  V30 9479 H 860.797 5.37561 -2.66736 0
M  V30 9480 H 861.867 3.96724 -2.78816 0
M  V30 9481 N 863.21 0.781244 1.36873 0
M  V30 9482 C 864.459 0.34652 1.98701 0
M  V30 9483 C 864.772 -1.08555 1.62712 0
M  V30 9484 O 865.978 -1.62213 2.17713 0
M  V30 9485 C 864.434 0.568611 3.5538 0
M  V30 9486 C 864.042 2.01156 4.003 0
M  V30 9487 C 865.786 0.197983 4.24038 0
M  V30 9488 C 863.693 2.18074 5.49725 0
M  V30 9489 H 862.623 0.125821 0.743428 0
M  V30 9490 H 865.274 0.961721 1.56279 0
M  V30 9491 H 863.656 -0.116185 3.9583 0
M  V30 9492 H 864.83 2.73209 3.71071 0
M  V30 9493 H 863.145 2.33967 3.44454 0
M  V30 9494 H 865.742 0.302778 5.33842 0
M  V30 9495 H 866.085 -0.852927 4.07469 0
M  V30 9496 H 866.618 0.835696 3.88923 0
M  V30 9497 H 863.357 3.21519 5.71232 0
M  V30 9498 H 862.877 1.50517 5.80607 0
M  V30 9499 H 864.556 1.98393 6.15832 0
M  V30 9500 N 864.689 -1.48329 0.532571 0
M  V30 9501 C 865.619 -2.32485 -0.217511 0
M  V30 9502 C 866.6 -1.42255 -0.932598 0
M  V30 9503 O 867.785 -1.7114 -0.917873 0
M  V30 9504 C 864.915 -3.23509 -1.26329 0
M  V30 9505 C 863.869 -4.22784 -0.666191 0
M  V30 9506 C 863.195 -5.0296 -1.81482 0
M  V30 9507 C 864.495 -5.21031 0.363813 0
M  V30 9508 H 866.189 -2.95445 0.485014 0
M  V30 9509 H 863.735 -1.42075 0.234694 0
M  V30 9510 H 865.688 -3.81211 -1.79601 0
M  V30 9511 H 864.412 -2.58554 -1.99543 0
M  V30 9512 H 863.071 -3.66272 -0.15498 0
M  V30 9513 H 862.719 -4.34427 -2.5354 0
M  V30 9514 H 862.419 -5.70154 -1.4212 0
M  V30 9515 H 863.943 -5.63514 -2.35126 0
M  V30 9516 H 865.357 -5.73241 -0.0819079 0
M  V30 9517 H 863.754 -5.96292 0.674956 0
M  V30 9518 H 864.824 -4.6801 1.26865 0
M  V30 9519 N 866.167 -0.267825 -1.55308 0
M  V30 9520 C 867.444 0.402449 -1.91415 0
M  V30 9521 C 867.824 1.7428 -1.1912 0
M  V30 9522 O 867.172 2.2631 -0.315609 0
M  V30 9523 C 867.382 0.549926 -3.4464 0
M  V30 9524 C 868.73 0.836188 -4.16285 0
M  V30 9525 O 869.754 0.635009 -3.50494 0
M  V30 9526 O 868.613 1.22051 -5.32697 0
M  V30 9527 H 865.707 0.219177 -0.797427 0
M  V30 9528 H 868.253 -0.313439 -1.6678 0
M  V30 9529 H 867.025 -0.393641 -3.89315 0
M  V30 9530 H 866.648 1.31556 -3.75205 0
M  V30 9531 N 867.645 1.57599 0.00500368 0
M  V30 9532 C 868.555 2.11532 1.01446 0
M  V30 9533 C 869.571 1.05941 1.3803 0
M  V30 9534 O 870.747 1.37815 1.46864 0
M  V30 9535 C 867.812 2.60382 2.28915 0
M  V30 9536 C 866.873 3.80554 1.98689 0
M  V30 9537 C 866.106 4.27064 3.20081 0
M  V30 9538 O 866.329 3.72939 4.31593 0
M  V30 9539 O 865.263 5.1927 3.04371 0
M  V30 9540 H 869.089 2.97993 0.586011 0
M  V30 9541 H 866.674 1.47718 0.223519 0
M  V30 9542 H 868.556 2.92024 3.03809 0
M  V30 9543 H 867.231 1.77022 2.71007 0
M  V30 9544 H 866.138 3.53893 1.21286 0
M  V30 9545 H 867.471 4.64972 1.61437 0
M  V30 9546 N 869.123 -0.277682 1.55134 0
M  V30 9547 C 870.086 -1.32635 1.86924 0
M  V30 9548 C 871.086 -1.42578 0.743507 0
M  V30 9549 O 872.276 -1.4181 1.01171 0
M  V30 9550 C 869.408 -2.70832 2.07034 0
M  V30 9551 H 870.601 -1.0568 2.80663 0
M  V30 9552 H 868.154 -0.515517 1.47554 0
M  V30 9553 H 868.889 -3.02974 1.15661 0
M  V30 9554 H 868.674 -2.65001 2.88993 0
M  V30 9555 H 870.164 -3.46611 2.32918 0
M  V30 9556 N 870.601 -1.47988 -0.541979 0
M  V30 9557 C 871.829 -1.59034 -1.32347 0
M  V30 9558 C 872.244 -0.246123 -1.87189 0
M  V30 9559 O 871.601 0.762889 -1.6579 0
M  V30 9560 C 871.652 -2.62759 -2.48274 0
M  V30 9561 O 871.373 -3.91963 -1.95695 0
M  V30 9562 C 872.874 -2.84133 -3.4027 0
M  V30 9563 H 870.094 -0.536574 -0.402901 0
M  V30 9564 H 872.638 -1.93725 -0.655045 0
M  V30 9565 H 870.793 -2.3096 -3.11025 0
M  V30 9566 H 871.207 -4.48769 -2.7149 0
M  V30 9567 H 872.681 -3.60538 -4.17991 0
M  V30 9568 H 873.158 -1.92512 -3.9476 0
M  V30 9569 H 873.764 -3.17188 -2.83322 0
M  V30 9570 N 872.079 0.78992 -1.36375 0
M  V30 9571 C 873.304 1.58389 -1.33895 0
M  V30 9572 C 873.729 1.8794 0.0774934 0
M  V30 9573 O 873.087 1.4785 1.0493 0
M  V30 9574 C 873.135 2.88201 -2.16732 0
M  V30 9575 O 872.239 3.81778 -1.55946 0
M  V30 9576 H 871.58 0.480471 -0.458305 0
M  V30 9577 H 874.11 0.979119 -1.79651 0
M  V30 9578 H 874.12 3.37475 -2.29292 0
M  V30 9579 H 872.795 2.66019 -3.19698 0
M  V30 9580 H 871.372 3.40371 -1.52323 0
M  V30 9581 N 873.557 1.20646 1.01402 0
M  V30 9582 C 874.782 1.04462 1.79172 0
M  V30 9583 C 875.207 -0.401588 1.83763 0
M  V30 9584 O 874.565 -1.28934 1.27459 0
M  V30 9585 C 874.613 1.63583 3.21361 0
M  V30 9586 O 873.717 0.875198 4.03006 0
M  V30 9587 H 873.058 0.368235 0.552539 0
M  V30 9588 H 875.588 1.59994 1.27526 0
M  V30 9589 H 875.598 1.67426 3.72065 0
M  V30 9590 H 874.273 2.68835 3.17334 0
M  V30 9591 H 872.85 0.911172 3.61597 0
M  V30 9592 N 875.035 -1.20752 1.01276 0
M  V30 9593 C 875.965 -2.25658 0.600064 0
M  V30 9594 C 876.946 -1.65733 -0.38298 0
M  V30 9595 O 878.131 -1.92324 -0.269256 0
M  V30 9596 C 875.261 -3.47237 -0.0663197 0
M  V30 9597 C 874.215 -4.1973 0.83731 0
M  V30 9598 C 873.541 -5.34687 0.0369102 0
M  V30 9599 C 874.841 -4.76286 2.14357 0
M  V30 9600 H 876.535 -2.60432 1.477 0
M  V30 9601 H 874.081 -1.25187 0.711634 0
M  V30 9602 H 876.034 -4.19803 -0.366563 0
M  V30 9603 H 874.758 -3.11615 -0.977944 0
M  V30 9604 H 873.417 -3.49024 1.1215 0
M  V30 9605 H 873.065 -4.95309 -0.876244 0
M  V30 9606 H 872.765 -5.84119 0.63865 0
M  V30 9607 H 874.289 -6.10059 -0.256968 0
M  V30 9608 H 875.703 -5.40691 1.90595 0
M  V30 9609 H 874.1 -5.36139 2.69583 0
M  V30 9610 H 875.17 -3.9524 2.80916 0
M  V30 9611 N 876.513 -0.788492 -1.36457 0
M  V30 9612 C 877.79 -0.284484 -1.9352 0
M  V30 9613 C 878.17 1.2232 -1.7205 0
M  V30 9614 O 877.518 2.01424 -1.07892 0
M  V30 9615 C 877.728 -0.676106 -3.42388 0
M  V30 9616 C 879.076 -0.655327 -4.19512 0
M  V30 9617 O 880.1 -0.616523 -3.50824 0
M  V30 9618 O 878.959 -0.697391 -5.42032 0
M  V30 9619 H 876.053 -0.0701769 -0.824017 0
M  V30 9620 H 878.599 -0.870974 -1.45644 0
M  V30 9621 H 877.371 -1.71596 -3.51668 0
M  V30 9622 H 876.994 -0.0634517 -3.97549 0
M  V30 9623 N 877.991 1.48044 -0.54043 0
M  V30 9624 C 878.939 2.31461 0.229862 0
M  V30 9625 C 879.933 1.41884 0.925495 0
M  V30 9626 O 881.139 1.58736 0.848689 0
M  V30 9627 H 877.514 0.746227 0.0929975 0
M  V30 9628 H 879.485 2.94297 -0.493118 0
M  V30 9629 C 878.234 3.24172 1.25729 0
M  V30 9630 H 877.557 3.93052 0.731426 0
M  V30 9631 H 878.997 3.85404 1.76747 0
M  V30 9632 C 877.456 2.4651 2.2964 0
M  V30 9633 O 877.986 2.19742 3.36268 0
M  V30 9634 N 876.192 2.07817 2.03127 0
M  V30 9635 H 875.739 2.29786 1.1643 0
M  V30 9636 H 875.697 1.56168 2.72872 0
M  V30 9637 N 879.47 0.276058 1.55163 0
M  V30 9638 C 880.417 -0.611006 2.22565 0
M  V30 9639 C 881.387 -1.14902 1.19945 0
M  V30 9640 O 882.572 -1.19815 1.48489 0
M  V30 9641 C 879.712 -1.78885 2.95117 0
M  V30 9642 C 878.825 -1.2846 4.12458 0
M  V30 9643 C 877.96 -2.42432 4.72652 0
M  V30 9644 C 876.999 -1.89015 5.82185 0
M  V30 9645 N 876.136 -2.96463 6.36439 0
M  V30 9646 H 880.976 -0.0295849 2.97985 0
M  V30 9647 H 878.513 -0.00283607 1.471 0
M  V30 9648 H 880.471 -2.48121 3.35398 0
M  V30 9649 H 879.101 -2.34229 2.22119 0
M  V30 9650 H 878.153 -0.485312 3.77292 0
M  V30 9651 H 879.465 -0.853358 4.91446 0
M  V30 9652 H 878.619 -3.19659 5.15658 0
M  V30 9653 H 877.358 -2.88872 3.92943 0
M  V30 9654 H 876.363 -1.10267 5.38629 0
M  V30 9655 H 877.588 -1.43509 6.63763 0
M  V30 9656 H 875.534 -3.42283 5.59623 0
M  V30 9657 H 875.451 -2.57759 7.10701 0
M  V30 9658 H 876.719 -3.73663 6.84103 0
M  V30 9659 N 880.948 -1.576 0.00335426 0
M  V30 9660 C 882.173 -1.95398 -0.695311 0
M  V30 9661 C 882.598 -0.878476 -1.66326 0
M  V30 9662 O 881.956 0.163086 -1.80565 0
M  V30 9663 C 882.004 -3.32293 -1.40049 0
M  V30 9664 O 881.108 -3.26834 -2.51502 0
M  V30 9665 H 880.449 -0.637796 -0.184694 0
M  V30 9666 H 882.979 -2.04519 0.057543 0
M  V30 9667 H 882.989 -3.67936 -1.76316 0
M  V30 9668 H 881.664 -4.10123 -0.690803 0
M  V30 9669 H 880.241 -3.02872 -2.17539 0
M  V30 9670 N 882.426 0.269451 -1.5528 0
M  V30 9671 C 883.336 1.35511 -1.91505 0
M  V30 9672 C 884.352 1.53854 -0.812712 0
M  V30 9673 O 885.528 1.67912 -1.1121 0
M  V30 9674 C 882.593 2.6937 -2.18267 0
M  V30 9675 C 881.654 2.59743 -3.41807 0
M  V30 9676 C 880.887 3.87219 -3.67283 0
M  V30 9677 O 881.11 4.88066 -2.95208 0
M  V30 9678 O 880.044 3.87209 -4.60818 0
M  V30 9679 H 883.87 1.07785 -2.8393 0
M  V30 9680 H 881.455 0.468282 -1.41871 0
M  V30 9681 H 883.337 3.48513 -2.36889 0
M  V30 9682 H 882.012 2.96874 -1.29024 0
M  V30 9683 H 880.919 1.78964 -3.28516 0
M  V30 9684 H 882.252 2.37188 -4.3128 0
M  V30 9685 N 883.904 1.48273 0.534124 0
M  V30 9686 C 885.134 1.59503 1.31311 0
M  V30 9687 C 885.542 0.25284 1.87503 0
M  V30 9688 O 884.885 -0.767399 1.66903 0
M  V30 9689 C 884.947 2.57899 2.50456 0
M  V30 9690 C 884.611 4.03063 2.15382 0
M  V30 9691 C 885.608 4.90869 1.713 0
M  V30 9692 C 883.293 4.4857 2.26032 0
M  V30 9693 C 885.287 6.22209 1.38328 0
M  V30 9694 C 882.974 5.79932 1.92672 0
M  V30 9695 C 883.972 6.66574 1.4889 0
M  V30 9696 O 883.66 7.95492 1.15966 0
M  V30 9697 H 883.392 0.540695 0.405739 0
M  V30 9698 H 885.946 1.94794 0.651497 0
M  V30 9699 H 884.176 2.1772 3.19585 0
M  V30 9700 H 885.865 2.59008 3.12522 0
M  V30 9701 H 886.631 4.56951 1.62545 0
M  V30 9702 H 882.51 3.81321 2.59066 0
M  V30 9703 H 886.054 6.89792 1.04082 0
M  V30 9704 H 881.951 6.13386 2.01066 0
M  V30 9705 H 882.719 8.08207 1.29399 0
M  V30 9706 N 885.382 -0.782676 1.36792 0
M  V30 9707 C 886.312 -1.90973 1.34356 0
M  V30 9708 C 887.293 -1.6875 0.213917 0
M  V30 9709 O 888.478 -1.89766 0.412601 0
M  V30 9710 C 885.608 -3.28097 1.13884 0
M  V30 9711 C 884.562 -3.6486 2.23744 0
M  V30 9712 C 883.888 -5.00406 1.88408 0
M  V30 9713 C 885.188 -3.72742 3.6587 0
M  V30 9714 H 886.882 -1.93268 2.28665 0
M  V30 9715 H 884.428 -0.928447 1.10072 0
M  V30 9716 H 886.381 -4.06569 1.10813 0
M  V30 9717 H 885.105 -3.26206 0.160275 0
M  V30 9718 H 883.764 -2.88689 2.25952 0
M  V30 9719 H 883.412 -4.95044 0.891083 0
M  V30 9720 H 883.112 -5.25973 2.61966 0
M  V30 9721 H 884.636 -5.81291 1.86905 0
M  V30 9722 H 886.05 -4.4139 3.65852 0
M  V30 9723 H 884.447 -4.09798 4.38389 0
M  V30 9724 H 885.517 -2.73676 4.00287 0
M  V30 9725 N 886.86 -1.21182 -1.00761 0
M  V30 9726 C 888.106 -1.02898 -1.74756 0
M  V30 9727 C 888.439 0.436774 -1.89225 0
M  V30 9728 O 887.714 1.32415 -1.42466 0
M  V30 9729 C 887.997 -1.72372 -3.16164 0
M  V30 9730 C 887.85 -3.2645 -3.09435 0
M  V30 9731 C 889.169 -1.46415 -4.15031 0
M  V30 9732 H 886.288 -0.375214 -0.634337 0
M  V30 9733 H 888.93 -1.49321 -1.17487 0
M  V30 9734 H 887.08 -1.32906 -3.65059 0
M  V30 9735 H 888.752 -3.75269 -2.68274 0
M  V30 9736 H 886.995 -3.56889 -2.46603 0
M  V30 9737 H 887.666 -3.70226 -4.09435 0
M  V30 9738 H 890.142 -1.80671 -3.7483 0
M  V30 9739 H 889.018 -1.97544 -5.12121 0
M  V30 9740 H 889.279 -0.39361 -4.40344 0
M  V30 9741 N 888.338 1.20213 -1.01915 0
M  V30 9742 C 889.27 2.2251 -0.549725 0
M  V30 9743 C 890.283 1.58558 0.369235 0
M  V30 9744 O 891.472 1.77715 0.167176 0
M  V30 9745 C 888.572 3.38189 0.219432 0
M  V30 9746 C 887.745 4.31729 -0.702066 0
M  V30 9747 C 886.804 5.26196 0.0199624 0
M  V30 9748 O 885.83 5.65993 -0.60339 0
M  V30 9749 N 887.032 5.65895 1.29397 0
M  V30 9750 H 889.797 2.63412 -1.42948 0
M  V30 9751 H 887.358 1.3478 -0.896987 0
M  V30 9752 H 889.35 3.98392 0.711763 0
M  V30 9753 H 887.92 2.96156 1.00051 0
M  V30 9754 H 887.14 3.69455 -1.37466 0
M  V30 9755 H 888.428 4.91145 -1.3287 0
M  V30 9756 H 887.826 5.35579 1.8213 0
M  V30 9757 H 886.383 6.28395 1.73098 0
M  V30 9758 N 889.816 0.795718 1.36037 0
M  V30 9759 C 890.763 0.196548 2.29962 0
M  V30 9760 C 891.733 -0.663213 1.52285 0
M  V30 9761 O 892.918 -0.610574 1.80767 0
M  V30 9762 C 890.058 -0.657639 3.38776 0
M  V30 9763 C 889.171 0.221358 4.31433 0
M  V30 9764 C 888.306 -0.6398 5.27333 0
M  V30 9765 C 887.345 0.240265 6.11628 0
M  V30 9766 N 886.482 -0.580237 6.99698 0
M  V30 9767 H 891.322 1.00295 2.80615 0
M  V30 9768 H 888.859 0.506147 1.38118 0
M  V30 9769 H 890.817 -1.16793 4.00519 0
M  V30 9770 H 889.447 -1.42941 2.89426 0
M  V30 9771 H 888.499 0.84967 3.70789 0
M  V30 9772 H 889.811 0.899195 4.90628 0
M  V30 9773 H 888.965 -1.21566 5.94396 0
M  V30 9774 H 887.704 -1.35124 4.68607 0
M  V30 9775 H 886.709 0.828474 5.43522 0
M  V30 9776 H 887.934 0.949403 6.72431 0
M  V30 9777 H 885.88 -1.27585 6.43473 0
M  V30 9778 H 885.797 0.0397853 7.5599 0
M  V30 9779 H 887.065 -1.13972 7.71123 0
M  V30 9780 N 891.294 -1.47756 0.548274 0
M  V30 9781 C 892.522 -2.06884 0.0254873 0
M  V30 9782 C 892.937 -1.40225 -1.26422 0
M  V30 9783 O 892.294 -0.495776 -1.75637 0
M  V30 9784 C 892.345 -3.61036 -0.183134 0
M  V30 9785 O 892.066 -4.25195 1.05549 0
M  V30 9786 C 893.567 -4.37008 -0.744222 0
M  V30 9787 H 890.787 -0.669697 0.041789 0
M  V30 9788 H 893.331 -1.89888 0.759138 0
M  V30 9789 H 891.486 -3.77576 -0.866886 0
M  V30 9790 H 891.9 -5.17606 0.847629 0
M  V30 9791 H 893.374 -5.45579 -0.839529 0
M  V30 9792 H 893.851 -4.0268 -1.75344 0
M  V30 9793 H 894.457 -4.25191 -0.0964542 0
M  V30 9794 N 892.772 -0.284283 -1.55015 0
M  V30 9795 C 894.021 0.33055 -1.98973 0
M  V30 9796 C 894.334 1.56284 -1.17621 0
M  V30 9797 O 895.54 2.2512 -1.51767 0
M  V30 9798 C 893.996 0.639457 -3.54174 0
M  V30 9799 C 893.604 -0.573543 -4.44313 0
M  V30 9800 C 895.348 1.21641 -4.06699 0
M  V30 9801 C 893.255 -0.238715 -5.90918 0
M  V30 9802 H 892.185 0.127285 -0.743179 0
M  V30 9803 H 894.836 -0.390372 -1.793 0
M  V30 9804 H 893.218 1.41953 -3.69683 0
M  V30 9805 H 894.392 -1.3502 -4.40575 0
M  V30 9806 H 892.707 -1.06797 -4.02472 0
M  V30 9807 H 895.304 1.48088 -5.13784 0
M  V30 9808 H 895.647 2.15328 -3.56286 0
M  V30 9809 H 896.18 0.498422 -3.94665 0
M  V30 9810 H 892.919 -1.1437 -6.45445 0
M  V30 9811 H 892.439 0.500997 -5.97704 0
M  V30 9812 H 894.118 0.165774 -6.46788 0
M  V30 9813 N 894.251 1.57596 -0.0117121 0
M  V30 9814 C 895.199 2.1029 0.994035 0
M  V30 9815 C 896.193 1.02549 1.34833 0
M  V30 9816 O 897.399 1.21003 1.3326 0
M  V30 9817 H 893.774 0.671624 0.338268 0
M  V30 9818 H 895.745 2.93761 0.524147 0
M  V30 9819 C 894.494 2.63099 2.27319 0
M  V30 9820 H 893.817 3.45642 2.00927 0
M  V30 9821 H 895.257 3.03635 2.95942 0
M  V30 9822 C 893.716 1.55044 2.99104 0
M  V30 9823 O 894.246 0.940127 3.90544 0
M  V30 9824 N 892.452 1.27506 2.61133 0
M  V30 9825 H 891.999 1.77322 1.86855 0
M  V30 9826 H 891.957 0.554292 3.09475 0
M  V30 9827 N 895.729 -0.261212 1.5542 0
M  V30 9828 C 896.677 -1.34298 1.89913 0
M  V30 9829 C 897.671 -1.50547 0.776665 0
M  V30 9830 O 898.877 -1.52191 0.961139 0
M  V30 9831 H 895.252 -0.4494 0.602946 0
M  V30 9832 H 897.223 -1.02464 2.80256 0
M  V30 9833 C 895.972 -2.69423 2.19788 0
M  V30 9834 H 895.295 -2.57715 3.05652 0
M  V30 9835 H 896.735 -3.44026 2.47835 0
M  V30 9836 C 895.194 -3.21423 1.00939 0
M  V30 9837 O 895.724 -4.00921 0.250034 0
M  V30 9838 N 893.93 -2.7926 0.803883 0
M  V30 9839 H 893.477 -2.14724 1.42308 0
M  V30 9840 H 893.435 -3.14398 0.0103257 0
M  V30 9841 N 897.207 -1.48554 -0.526253 0
M  V30 9842 C 898.137 -1.66252 -1.63959 0
M  V30 9843 C 899.118 -0.511351 -1.62232 0
M  V30 9844 O 900.303 -0.744322 -1.7937 0
M  V30 9845 C 897.433 -1.70556 -3.02536 0
M  V30 9846 C 896.387 -2.8521 -3.19123 0
M  V30 9847 C 895.713 -2.74606 -4.58798 0
M  V30 9848 C 897.013 -4.26463 -3.0154 0
M  V30 9849 H 898.707 -2.59459 -1.49404 0
M  V30 9850 H 896.253 -1.24862 -0.717326 0
M  V30 9851 H 898.206 -1.81524 -3.80298 0
M  V30 9852 H 896.93 -0.739297 -3.18123 0
M  V30 9853 H 895.589 -2.73802 -2.43779 0
M  V30 9854 H 895.237 -1.75941 -4.71226 0
M  V30 9855 H 894.937 -3.51544 -4.70841 0
M  V30 9856 H 896.461 -2.87548 -5.38655 0
M  V30 9857 H 897.875 -4.38685 -3.69091 0
M  V30 9858 H 896.272 -5.04428 -3.25073 0
M  V30 9859 H 897.342 -4.42667 -1.97925 0
M  V30 9860 N 898.685 0.775411 -1.37205 0
M  V30 9861 C 899.632 1.88857 -1.32671 0
M  V30 9862 C 900.602 1.64976 -0.192899 0
M  V30 9863 O 901.787 1.86944 -0.381673 0
M  V30 9864 C 898.927 3.25871 -1.13588 0
M  V30 9865 C 898.04 3.61731 -2.36167 0
M  V30 9866 C 897.175 4.87934 -2.09985 0
M  V30 9867 C 896.214 5.16514 -3.2845 0
M  V30 9868 N 895.351 6.33905 -3.01842 0
M  V30 9869 H 900.191 1.92068 -2.27846 0
M  V30 9870 H 897.728 0.939066 -1.13225 0
M  V30 9871 H 899.686 4.04903 -1.00546 0
M  V30 9872 H 898.316 3.22045 -0.220613 0
M  V30 9873 H 897.368 2.77712 -2.59962 0
M  V30 9874 H 898.68 3.78792 -3.24528 0
M  V30 9875 H 897.834 5.74863 -1.93953 0
M  V30 9876 H 896.573 4.7297 -1.18956 0
M  V30 9877 H 895.578 4.28063 -3.45025 0
M  V30 9878 H 896.803 5.33389 -4.20325 0
M  V30 9879 H 894.749 6.20306 -2.13439 0
M  V30 9880 H 894.666 6.51364 -3.83746 0
M  V30 9881 H 895.934 7.23779 -2.8942 0
M  V30 9882 N 900.163 1.21714 1.00117 0
M  V30 9883 C 901.411 1.03465 1.73607 0
M  V30 9884 C 901.732 -0.432295 1.90148 0
M  V30 9885 O 901.002 -1.31157 1.45515 0
M  V30 9886 H 899.582 0.379857 0.643209 0
M  V30 9887 H 902.244 1.53088 1.20624 0
M  V30 9888 H 901.34 1.50574 2.73375 0
M  V30 9889 N 901.641 -1.19671 1.02551 0
M  V30 9890 C 902.589 -2.24812 0.596867 0
M  V30 9891 C 903.583 -1.65336 -0.368839 0
M  V30 9892 O 904.789 -1.78422 -0.237786 0
M  V30 9893 H 901.164 -0.731417 0.174739 0
M  V30 9894 H 903.135 -2.58286 1.49435 0
M  V30 9895 C 901.884 -3.47677 -0.0399514 0
M  V30 9896 H 901.207 -3.93728 0.694153 0
M  V30 9897 H 902.647 -4.22917 -0.302861 0
M  V30 9898 C 901.106 -3.11411 -1.2855 0
M  V30 9899 O 901.636 -3.23757 -2.37791 0
M  V30 9900 N 899.842 -2.65875 -1.17297 0
M  V30 9901 H 899.389 -2.56029 -0.284045 0
M  V30 9902 H 899.347 -2.41981 -2.00731 0
M  V30 9903 N 903.119 -0.802921 -1.35613 0
M  V30 9904 C 904.029 -0.212177 -2.33639 0
M  V30 9905 C 905.045 0.642871 -1.61689 0
M  V30 9906 O 906.221 0.555485 -1.93588 0
M  V30 9907 C 903.286 0.632406 -3.40883 0
M  V30 9908 C 902.347 -0.242708 -4.28613 0
M  V30 9909 C 901.58 0.56166 -5.30736 0
M  V30 9910 O 901.803 1.79664 -5.41366 0
M  V30 9911 O 900.737 -0.0455387 -6.01883 0
M  V30 9912 H 904.563 -1.023 -2.85952 0
M  V30 9913 H 902.148 -0.564636 -1.38319 0
M  V30 9914 H 904.03 1.11358 -4.0642 0
M  V30 9915 H 902.705 1.42089 -2.90848 0
M  V30 9916 H 901.612 -0.77094 -3.6607 0
M  V30 9917 H 902.945 -0.995046 -4.82037 0
M  V30 9918 N 904.597 1.47463 -0.556102 0
M  V30 9919 C 905.545 2.31692 0.205299 0
M  V30 9920 C 906.539 1.42857 0.910394 0
M  V30 9921 O 907.745 1.59628 0.831806 0
M  V30 9922 H 904.12 0.747172 0.0850775 0
M  V30 9923 H 906.091 2.93758 -0.524305 0
M  V30 9924 C 904.84 3.25487 1.22283 0
M  V30 9925 H 904.163 3.93806 0.689697 0
M  V30 9926 H 905.603 3.87257 1.7265 0
M  V30 9927 C 904.062 2.48931 2.27013 0
M  V30 9928 O 904.592 2.23296 3.33919 0
M  V30 9929 N 902.798 2.0996 2.00911 0
M  V30 9930 H 902.345 2.31008 1.13986 0
M  V30 9931 H 902.303 1.59053 2.712 0
M  V30 9932 N 906.075 0.2925 1.54862 0
M  V30 9933 C 907.491 -0.0611461 1.59483 0
M  V30 9934 C 907.691 -1.53141 1.30958 0
M  V30 9935 O 906.747 -2.28291 1.07887 0
M  V30 9936 C 908.06 0.329143 2.98893 0
M  V30 9937 C 909.608 0.2772 3.1177 0
M  V30 9938 C 910.083 0.642185 4.53475 0
M  V30 9939 N 911.574 0.594396 4.5937 0
M  V30 9940 C 912.309 0.849385 5.67074 0
M  V30 9941 N 911.805 1.1699 6.82851 0
M  V30 9942 N 913.598 0.777016 5.56704 0
M  V30 9943 H 905.749 1.25079 1.71665 0
M  V30 9944 H 908.012 0.506516 0.80134 0
M  V30 9945 H 907.718 1.35233 3.24661 0
M  V30 9946 H 907.592 -0.321442 3.75828 0
M  V30 9947 H 909.979 -0.736725 2.85756 0
M  V30 9948 H 910.06 0.962289 2.3701 0
M  V30 9949 H 909.704 1.65388 4.80218 0
M  V30 9950 H 909.634 -0.0648831 5.2656 0
M  V30 9951 H 912.125 0.357256 3.76208 0
M  V30 9952 H 912.438 1.35067 7.60905 0
M  V30 9953 H 910.783 1.20785 6.84424 0
M  V30 9954 H 913.974 0.526333 4.65132 0
M  V30 9955 H 914.147 0.979113 6.4056 0
M  V30 9956 N 907.553 -1.57587 0.0200696 0
M  V30 9957 C 908.802 -1.90602 -0.659822 0
M  V30 9958 C 909.115 -0.897216 -1.73808 0
M  V30 9959 O 910.321 -1.11829 -2.47399 0
M  V30 9960 C 908.777 -3.38416 -1.22484 0
M  V30 9961 C 908.385 -4.47637 -0.180339 0
M  V30 9962 C 910.129 -3.80513 -1.88176 0
M  V30 9963 C 908.036 -5.86542 -0.756482 0
M  V30 9964 H 906.966 -0.711272 -0.250216 0
M  V30 9965 H 909.617 -1.83308 0.0838942 0
M  V30 9966 H 907.999 -3.40613 -2.01987 0
M  V30 9967 H 909.173 -4.56987 0.591573 0
M  V30 9968 H 907.488 -4.14687 0.377302 0
M  V30 9969 H 910.085 -4.8164 -2.32222 0
M  V30 9970 H 910.428 -3.15091 -2.72073 0
M  V30 9971 H 910.961 -3.80701 -1.15377 0
M  V30 9972 H 907.7 -6.55485 0.0441468 0
M  V30 9973 H 907.22 -5.80816 -1.49709 0
M  V30 9974 H 908.899 -6.3483 -1.249 0
M  V30 9975 N 909.032 0.252966 -1.55557 0
M  V30 9976 C 910.26 0.999565 -1.81153 0
M  V30 9977 C 910.675 1.79181 -0.594955 0
M  V30 9978 O 910.032 1.77208 0.436311 0
M  V30 9979 C 910.083 1.94227 -3.04891 0
M  V30 9980 O 909.804 1.18209 -4.21851 0
M  V30 9981 C 911.305 2.80536 -3.43241 0
M  V30 9982 H 908.525 0.294402 -0.602966 0
M  V30 9983 H 911.069 0.277686 -2.02606 0
M  V30 9984 H 909.224 2.6185 -2.85505 0
M  V30 9985 H 909.638 1.81922 -4.9194 0
M  V30 9986 H 911.112 3.42442 -4.32941 0
M  V30 9987 H 911.589 3.51337 -2.6355 0
M  V30 9988 H 912.195 2.18373 -3.64956 0
M  V30 9989 N 910.51 1.48831 0.518367 0
M  V30 9990 C 911.759 1.5669 1.27008 0
M  V30 9991 C 912.072 0.250934 1.93984 0
M  V30 9992 O 913.278 0.207884 2.70703 0
M  V30 9993 C 911.734 2.76387 2.30517 0
M  V30 9994 C 911.342 4.14673 1.69559 0
M  V30 9995 C 913.086 2.93566 3.06625 0
M  V30 9996 C 910.993 5.25616 2.71076 0
M  V30 9997 H 909.923 0.583362 0.477708 0
M  V30 9998 H 912.574 1.75187 0.546052 0
M  V30 9999 H 910.956 2.51348 3.06006 0
M  V30 10000 H 912.13 4.49779 1.00179 0
M  V30 10001 H 910.445 4.02708 1.05902 0
M  V30 10002 H 913.042 3.7362 3.82508 0
M  V30 10003 H 913.385 2.03462 3.63193 0
M  V30 10004 H 913.918 3.18562 2.38251 0
M  V30 10005 H 910.657 6.17723 2.19313 0
M  V30 10006 H 910.177 4.94985 3.38748 0
M  V30 10007 H 911.856 5.5422 3.3384 0
M  V30 10008 N 911.988 -0.768124 1.37614 0
M  V30 10009 C 913.237 -1.5221 1.32345 0
M  V30 10010 C 913.55 -1.95399 -0.0885761 0
M  V30 10011 O 914.756 -2.70216 -0.263752 0
M  V30 10012 C 913.212 -2.74872 2.32322 0
M  V30 10013 C 912.82 -2.38767 3.79071 0
M  V30 10014 C 914.564 -3.52805 2.36069 0
M  V30 10015 C 912.471 -3.57953 4.7077 0
M  V30 10016 H 911.401 -0.571461 0.491883 0
M  V30 10017 H 914.052 -0.841004 1.63093 0
M  V30 10018 H 912.434 -3.44889 1.94596 0
M  V30 10019 H 913.608 -1.7651 4.25654 0
M  V30 10020 H 911.923 -1.74 3.78303 0
M  V30 10021 H 914.52 -4.41397 3.01782 0
M  V30 10022 H 914.863 -3.92925 1.37535 0
M  V30 10023 H 915.396 -2.89788 2.72521 0
M  V30 10024 H 912.135 -3.22911 5.70446 0
M  V30 10025 H 911.655 -4.19302 4.28889 0
M  V30 10026 H 913.334 -4.2472 4.8808 0
M  V30 10027 N 913.466 -1.22244 -0.994698 0
M  V30 10028 C 914.715 -1.04005 -1.72817 0
M  V30 10029 C 915.028 0.425413 -1.90918 0
M  V30 10030 O 916.234 0.727429 -2.61574 0
M  V30 10031 C 914.69 -1.81244 -3.10932 0
M  V30 10032 C 914.298 -3.32028 -3.00768 0
M  V30 10033 C 916.042 -1.71448 -3.88337 0
M  V30 10034 C 913.949 -4.01716 -4.34026 0
M  V30 10035 H 912.879 -0.385559 -0.647966 0
M  V30 10036 H 915.53 -1.46077 -1.11058 0
M  V30 10037 H 913.912 -1.3197 -3.73363 0
M  V30 10038 H 915.086 -3.88682 -2.47513 0
M  V30 10039 H 913.401 -3.4248 -2.36846 0
M  V30 10040 H 915.998 -2.20836 -4.86965 0
M  V30 10041 H 916.341 -0.674568 -4.10798 0
M  V30 10042 H 916.874 -2.18256 -3.3258 0
M  V30 10043 H 913.613 -5.05952 -4.16765 0
M  V30 10044 H 913.133 -3.49849 -4.87202 0
M  V30 10045 H 914.812 -4.0721 -5.02782 0
M  V30 10046 N 914.944 1.19125 -1.03184 0
M  V30 10047 C 915.907 2.20662 -0.619766 0
M  V30 10048 C 916.907 1.57621 0.318179 0
M  V30 10049 O 918.097 1.73885 0.104783 0
M  V30 10050 C 915.229 3.40774 0.0926696 0
M  V30 10051 H 916.422 2.58633 -1.5182 0
M  V30 10052 H 913.975 1.32855 -0.823364 0
M  V30 10053 H 914.71 3.08324 1.00531 0
M  V30 10054 H 914.495 3.87766 -0.581344 0
M  V30 10055 H 915.985 4.15977 0.367792 0
M  V30 10056 N 916.422 0.810101 1.35185 0
M  V30 10057 C 917.372 0.195541 2.2716 0
M  V30 10058 C 918.356 -0.632691 1.47939 0
M  V30 10059 O 919.548 -0.489372 1.701 0
M  V30 10060 C 916.677 -0.652164 3.37049 0
M  V30 10061 C 915.763 0.185989 4.23692 0
M  V30 10062 N 916.154 1.25073 4.90092 0
M  V30 10063 C 914.452 -0.0318033 4.45989 0
M  V30 10064 C 915.153 1.76272 5.54349 0
M  V30 10065 N 914.129 1.06861 5.32993 0
M  V30 10066 H 917.931 1.01018 2.75994 0
M  V30 10067 H 915.445 0.651612 1.48754 0
M  V30 10068 H 917.442 -1.10851 4.01893 0
M  V30 10069 H 916.102 -1.46511 2.89767 0
M  V30 10070 H 917.113 1.63341 4.91467 0
M  V30 10071 H 913.79 -0.813607 4.09496 0
M  V30 10072 H 915.18 2.65278 6.17315 0
M  V30 10073 N 917.9 -1.47166 0.563914 0
M  V30 10074 C 919.316 -1.58018 0.224173 0
M  V30 10075 C 919.516 -1.56163 -1.27339 0
M  V30 10076 O 918.572 -1.4686 -2.05398 0
M  V30 10077 C 919.885 -2.88236 0.856762 0
M  V30 10078 C 921.433 -3.01833 0.82861 0
M  V30 10079 C 921.908 -4.34761 1.44039 0
M  V30 10080 N 923.399 -4.41413 1.40388 0
M  V30 10081 C 924.134 -5.42845 1.84681 0
M  V30 10082 N 923.63 -6.51052 2.3686 0
M  V30 10083 N 925.423 -5.33931 1.75711 0
M  V30 10084 H 917.574 -1.46615 1.53681 0
M  V30 10085 H 919.837 -0.698195 0.64127 0
M  V30 10086 H 919.543 -2.95349 1.90949 0
M  V30 10087 H 919.417 -3.75537 0.353766 0
M  V30 10088 H 921.804 -2.94312 -0.215451 0
M  V30 10089 H 921.885 -2.16056 1.36943 0
M  V30 10090 H 921.529 -4.43037 2.48355 0
M  V30 10091 H 921.459 -5.1928 0.874953 0
M  V30 10092 H 923.95 -3.63811 1.02227 0
M  V30 10093 H 924.263 -7.24633 2.68564 0
M  V30 10094 H 922.608 -6.51924 2.40875 0
M  V30 10095 H 925.799 -4.48295 1.34718 0
M  V30 10096 H 925.972 -6.12841 2.10547 0
M  V30 10097 N 919.378 -0.300708 -1.54705 0
M  V30 10098 C 920.308 0.568675 -2.26469 0
M  V30 10099 C 921.289 1.13817 -1.26411 0
M  V30 10100 O 922.474 1.16756 -1.55183 0
M  V30 10101 C 919.604 1.74077 -3.00524 0
M  V30 10102 C 918.558 1.30165 -4.07727 0
M  V30 10103 C 917.884 2.55888 -4.69495 0
M  V30 10104 C 919.184 0.433106 -5.20501 0
M  V30 10105 H 920.878 -0.0298851 -2.99385 0
M  V30 10106 H 918.424 -0.0158135 -1.43991 0
M  V30 10107 H 920.377 2.35506 -3.49449 0
M  V30 10108 H 919.101 2.36556 -2.25186 0
M  V30 10109 H 917.76 0.710414 -3.59651 0
M  V30 10110 H 917.408 3.16681 -3.90797 0
M  V30 10111 H 917.108 2.27207 -5.41895 0
M  V30 10112 H 918.632 3.18121 -5.21183 0
M  V30 10113 H 920.046 0.95307 -5.65322 0
M  V30 10114 H 918.443 0.240085 -5.9962 0
M  V30 10115 H 919.513 -0.541866 -4.81863 0
M  V30 10116 N 920.856 1.57574 -0.0284266 0
M  V30 10117 C 922.081 1.96479 0.664137 0
M  V30 10118 C 922.506 0.904826 1.64908 0
M  V30 10119 O 921.864 -0.134339 1.80802 0
M  V30 10120 C 921.912 3.34479 1.34745 0
M  V30 10121 O 921.016 3.30794 2.46271 0
M  V30 10122 H 920.357 0.640654 0.174524 0
M  V30 10123 H 922.887 2.04402 -0.0900729 0
M  V30 10124 H 922.897 3.70694 1.7044 0
M  V30 10125 H 921.572 4.1117 0.625468 0
M  V30 10126 H 920.149 3.06294 2.12693 0
M  V30 10127 N 922.334 -0.244713 1.55689 0
M  V30 10128 C 923.562 -0.989944 1.8168 0
M  V30 10129 C 923.977 -1.78863 0.604449 0
M  V30 10130 O 923.334 -1.77437 -0.426907 0
M  V30 10131 C 923.385 -1.92607 3.05916 0
M  V30 10132 O 923.106 -1.1597 4.22472 0
M  V30 10133 C 924.607 -2.78711 3.44724 0
M  V30 10134 H 921.827 -0.2912 0.604519 0
M  V30 10135 H 924.371 -0.266938 2.0275 0
M  V30 10136 H 922.526 -2.60333 2.8689 0
M  V30 10137 H 922.94 -1.79311 4.92898 0
M  V30 10138 H 924.414 -3.40141 4.34751 0
M  V30 10139 H 924.891 -3.49935 2.6541 0
M  V30 10140 H 925.497 -2.16435 3.66109 0
M  V30 10141 N 923.813 -1.49104 -0.510467 0
M  V30 10142 C 925.062 -1.57362 -1.26175 0
M  V30 10143 C 925.375 -0.261218 -1.93848 0
M  V30 10144 O 926.581 -0.222238 -2.70589 0
M  V30 10145 C 925.037 -2.77606 -2.29048 0
M  V30 10146 C 924.645 -4.15567 -1.67357 0
M  V30 10147 C 926.389 -2.95188 -3.05064 0
M  V30 10148 C 924.296 -5.27046 -2.68285 0
M  V30 10149 H 923.226 -0.585887 -0.474608 0
M  V30 10150 H 925.877 -1.75474 -0.536753 0
M  V30 10151 H 924.259 -2.52968 -3.04669 0
M  V30 10152 H 925.433 -4.50304 -0.977924 0
M  V30 10153 H 923.748 -4.03264 -1.03765 0
M  V30 10154 H 926.345 -3.75643 -3.80521 0
M  V30 10155 H 926.688 -2.05385 -3.62108 0
M  V30 10156 H 927.221 -3.19821 -2.36558 0
M  V30 10157 H 923.96 -6.18878 -2.16034 0
M  V30 10158 H 923.48 -4.96774 -3.36118 0
M  V30 10159 H 925.159 -5.55983 -3.30896 0
M  V30 10160 N 925.291 0.760815 -1.38019 0
M  V30 10161 C 926.707 1.06289 -1.19058 0
M  V30 10162 C 926.907 2.01471 -0.0342603 0
M  V30 10163 O 925.963 2.44713 0.62224 0
M  V30 10164 C 927.276 1.6499 -2.51394 0
M  V30 10165 C 928.824 1.77196 -2.58013 0
M  V30 10166 C 929.299 2.3931 -3.90506 0
M  V30 10167 N 930.79 2.46749 -3.92007 0
M  V30 10168 C 931.525 2.95687 -4.91281 0
M  V30 10169 N 931.021 3.44715 -6.00952 0
M  V30 10170 N 932.814 2.94661 -4.78677 0
M  V30 10171 H 924.965 0.129045 -2.12008 0
M  V30 10172 H 927.228 0.119878 -0.94039 0
M  V30 10173 H 926.934 1.0252 -3.36426 0
M  V30 10174 H 926.808 2.64146 -2.6927 0
M  V30 10175 H 929.195 2.38796 -1.7338 0
M  V30 10176 H 929.276 0.767645 -2.4401 0
M  V30 10177 H 928.92 1.78346 -4.75558 0
M  V30 10178 H 928.85 3.40369 -4.01817 0
M  V30 10179 H 931.341 2.12064 -3.12789 0
M  V30 10180 H 931.654 3.80492 -6.72641 0
M  V30 10181 H 929.999 3.42791 -6.04582 0
M  V30 10182 H 933.19 2.55665 -3.92113 0
M  V30 10183 H 933.363 3.32489 -5.56197 0
M  V30 10184 N 926.769 1.22769 0.988202 0
M  V30 10185 C 927.999 1.07998 1.76125 0
M  V30 10186 C 928.407 -0.372062 1.85506 0
M  V30 10187 O 927.75 -1.26946 1.3278 0
M  V30 10188 C 927.812 1.6219 3.20834 0
M  V30 10189 C 927.476 3.1086 3.34986 0
M  V30 10190 C 928.473 4.08239 3.21927 0
M  V30 10191 C 926.158 3.50411 3.59886 0
M  V30 10192 C 928.152 5.43154 3.33561 0
M  V30 10193 C 925.839 4.85473 3.71159 0
M  V30 10194 C 926.837 5.81653 3.58006 0
M  V30 10195 O 926.525 7.14263 3.68895 0
M  V30 10196 H 926.257 0.378937 0.559806 0
M  V30 10197 H 928.811 1.62925 1.25078 0
M  V30 10198 H 927.041 1.01676 3.73094 0
M  V30 10199 H 928.73 1.43011 3.79872 0
M  V30 10200 H 929.496 3.79025 3.02597 0
M  V30 10201 H 925.375 2.76068 3.69198 0
M  V30 10202 H 928.919 6.18207 3.23211 0
M  V30 10203 H 924.816 5.14365 3.89998 0
M  V30 10204 H 925.584 7.21906 3.85739 0
M  V30 10205 N 928.247 -1.18576 1.03814 0
M  V30 10206 C 929.21 -2.2033 0.63146 0
M  V30 10207 C 930.21 -1.57787 -0.309816 0
M  V30 10208 O 931.4 -1.73938 -0.0955598 0
M  V30 10209 C 928.532 -3.40818 -0.0745963 0
M  V30 10210 H 929.725 -2.57824 1.53189 0
M  V30 10211 H 927.278 -1.32416 0.830398 0
M  V30 10212 H 928.013 -3.08853 -0.988947 0
M  V30 10213 H 927.798 -3.87453 0.6019 0
M  V30 10214 H 929.288 -4.16166 -0.345727 0
M  V30 10215 N 929.725 -0.817259 -1.34754 0
M  V30 10216 C 930.673 -0.223352 -2.31525 0
M  V30 10217 C 931.667 0.632785 -1.57137 0
M  V30 10218 O 932.873 0.524757 -1.72181 0
M  V30 10219 H 929.248 -0.0534765 -0.750096 0
M  V30 10220 H 931.219 -1.05446 -2.79148 0
M  V30 10221 C 929.968 0.604784 -3.424 0
M  V30 10222 H 929.291 -0.0446664 -3.99775 0
M  V30 10223 H 930.731 0.986543 -4.12363 0
M  V30 10224 C 929.19 1.77478 -2.86362 0
M  V30 10225 O 929.72 2.87273 -2.8078 0
M  V30 10226 N 927.926 1.58971 -2.43263 0
M  V30 10227 H 927.473 0.696598 -2.48003 0
M  V30 10228 H 927.431 2.37408 -2.06119 0
M  V30 10229 N 931.203 1.46865 -0.571711 0
M  V30 10230 C 932.431 2.06818 -0.0583975 0
M  V30 10231 C 932.846 1.42218 1.24175 0
M  V30 10232 O 932.203 0.523655 1.74826 0
M  V30 10233 C 932.254 3.61281 0.125673 0
M  V30 10234 O 931.975 4.23462 -1.123 0
M  V30 10235 C 933.476 4.38137 0.674604 0
M  V30 10236 H 930.696 0.668948 -0.052438 0
M  V30 10237 H 933.24 1.88656 -0.789251 0
M  V30 10238 H 931.395 3.78908 0.806707 0
M  V30 10239 H 931.809 5.16192 -0.929869 0
M  V30 10240 H 933.283 5.46845 0.752626 0
M  V30 10241 H 933.76 4.05419 1.68915 0
M  V30 10242 H 934.366 4.2529 0.0287979 0
M  V30 10243 N 932.681 0.308908 1.54543 0
M  V30 10244 C 933.93 -0.298854 1.99474 0
M  V30 10245 C 934.243 -1.54393 1.20093 0
M  V30 10246 O 935.449 -2.22677 1.55329 0
M  V30 10247 C 933.905 -0.58303 3.55146 0
M  V30 10248 C 933.513 0.644157 4.43345 0
M  V30 10249 C 935.257 -1.15155 4.08582 0
M  V30 10250 C 933.164 0.332694 5.90463 0
M  V30 10251 H 932.094 -0.115445 0.74511 0
M  V30 10252 H 934.745 0.418848 1.78656 0
M  V30 10253 H 933.127 -1.36053 3.71894 0
M  V30 10254 H 934.301 1.42012 4.38371 0
M  V30 10255 H 932.616 1.13186 4.00722 0
M  V30 10256 H 935.213 -1.39896 5.16075 0
M  V30 10257 H 935.556 -2.09632 3.59667 0
M  V30 10258 H 936.089 -0.435571 3.95408 0
M  V30 10259 H 932.828 1.24624 6.43544 0
M  V30 10260 H 932.348 -0.405844 5.98425 0
M  V30 10261 H 934.027 -0.0628545 6.46969 0
M  V30 10262 N 934.159 -1.57557 0.0367827 0
M  V30 10263 C 935.406 -1.92114 -0.640185 0
M  V30 10264 C 935.734 -0.913887 -1.71693 0
M  V30 10265 O 934.989 0.0760343 -1.95552 0
M  V30 10266 C 935.288 -3.33387 -1.28794 0
M  V30 10267 C 934.954 -4.4961 -0.340819 0
M  V30 10268 C 933.616 -4.81133 -0.0801574 0
M  V30 10269 C 935.968 -5.20283 0.309106 0
M  V30 10270 C 933.296 -5.80683 0.838107 0
M  V30 10271 C 935.648 -6.20813 1.21547 0
M  V30 10272 C 934.312 -6.50773 1.48495 0
M  V30 10273 H 933.582 -0.702996 -0.23426 0
M  V30 10274 H 936.229 -1.91238 0.100188 0
M  V30 10275 H 934.534 -3.30561 -2.10324 0
M  V30 10276 H 936.231 -3.57399 -1.81843 0
M  V30 10277 H 932.821 -4.25002 -0.554161 0
M  V30 10278 H 937.005 -4.96153 0.120794 0
M  V30 10279 H 932.261 -6.02238 1.05451 0
M  V30 10280 H 936.435 -6.74692 1.72522 0
M  V30 10281 H 934.062 -7.27727 2.19814 0
M  V30 10282 N 935.637 0.236453 -1.55816 0
M  V30 10283 C 936.883 0.964439 -1.784 0
M  V30 10284 C 937.216 1.84573 -0.603868 0
M  V30 10285 O 936.491 1.90395 0.397473 0
M  V30 10286 C 936.774 1.81608 -3.10951 0
M  V30 10287 C 936.627 0.962283 -4.39386 0
M  V30 10288 C 937.946 2.79665 -3.39817 0
M  V30 10289 H 935.065 0.349192 -0.649026 0
M  V30 10290 H 937.707 0.234247 -1.8855 0
M  V30 10291 H 935.857 2.43864 -3.02428 0
M  V30 10292 H 937.529 0.35762 -4.59912 0
M  V30 10293 H 935.772 0.267062 -4.32977 0
M  V30 10294 H 936.443 1.59222 -5.28538 0
M  V30 10295 H 938.919 2.27546 -3.4837 0
M  V30 10296 H 937.795 3.36367 -4.33761 0
M  V30 10297 H 938.056 3.56657 -2.61244 0
M  V30 10298 N 937.115 1.49373 0.502552 0
M  V30 10299 C 938.045 1.68839 1.61294 0
M  V30 10300 C 939.026 0.537096 1.61398 0
M  V30 10301 O 940.211 0.772764 1.78163 0
M  V30 10302 C 937.341 1.75347 2.99784 0
M  V30 10303 C 936.295 2.90251 3.14545 0
M  V30 10304 C 935.621 2.8187 4.54371 0
M  V30 10305 C 936.921 4.31207 2.94717 0
M  V30 10306 H 938.615 2.61803 1.45257 0
M  V30 10307 H 936.161 1.25987 0.697371 0
M  V30 10308 H 938.114 1.87552 3.77362 0
M  V30 10309 H 936.838 0.789814 3.16906 0
M  V30 10310 H 935.497 2.77646 2.39392 0
M  V30 10311 H 935.145 1.83416 4.68367 0
M  V30 10312 H 934.845 3.5899 4.65188 0
M  V30 10313 H 936.369 2.96081 5.34012 0
M  V30 10314 H 937.783 4.44501 3.62065 0
M  V30 10315 H 936.18 5.09536 3.17007 0
M  V30 10316 H 937.25 4.45759 1.90857 0
M  V30 10317 N 938.594 -0.753485 1.38421 0
M  V30 10318 C 939.819 -1.54783 1.38047 0
M  V30 10319 C 940.244 -1.8808 -0.0276371 0
M  V30 10320 O 939.602 -1.5058 -1.00973 0
M  V30 10321 C 939.65 -2.82353 2.24297 0
M  V30 10322 O 938.754 -3.77509 1.66014 0
M  V30 10323 H 938.095 -0.468151 0.470883 0
M  V30 10324 H 940.625 -0.931144 1.82184 0
M  V30 10325 H 940.635 -3.31277 2.38159 0
M  V30 10326 H 939.31 -2.57449 3.26639 0
M  V30 10327 H 937.887 -3.36212 1.61294 0
M  V30 10328 N 940.072 -1.23292 -0.981677 0
M  V30 10329 C 941.02 -1.0104 -2.09508 0
M  V30 10330 C 942.014 0.0501977 -1.69326 0
M  V30 10331 O 943.22 -0.103197 -1.79704 0
M  V30 10332 H 939.595 -0.309629 -0.685298 0
M  V30 10333 H 941.566 -1.95493 -2.25444 0
M  V30 10334 C 940.315 -0.616885 -3.42184 0
M  V30 10335 H 939.638 -1.4247 -3.73554 0
M  V30 10336 H 941.078 -0.500688 -4.21033 0
M  V30 10337 C 939.537 0.674721 -3.30074 0
M  V30 10338 O 940.067 1.72421 -3.62814 0
M  V30 10339 N 938.273 0.650151 -2.83234 0
M  V30 10340 H 937.82 -0.204225 -2.56789 0
M  V30 10341 H 937.778 1.51458 -2.75514 0
M  V30 10342 N 941.55 1.18024 -1.04442 0
M  V30 10343 C 942.966 1.40107 -0.76435 0
M  V30 10344 C 943.166 1.90914 0.644516 0
M  V30 10345 O 942.222 2.0959 1.40813 0
M  V30 10346 C 943.535 2.39851 -1.81361 0
M  V30 10347 C 945.083 2.53571 -1.83496 0
M  V30 10348 C 945.558 3.56583 -2.87424 0
M  V30 10349 N 947.049 3.64094 -2.86339 0
M  V30 10350 C 947.784 4.43537 -3.63405 0
M  V30 10351 N 947.28 5.26557 -4.50233 0
M  V30 10352 N 949.073 4.38336 -3.51877 0
M  V30 10353 H 941.224 0.833726 -1.95353 0
M  V30 10354 H 943.487 0.42881 -0.845474 0
M  V30 10355 H 943.193 2.09576 -2.82438 0
M  V30 10356 H 943.067 3.39251 -1.6489 0
M  V30 10357 H 945.454 2.83161 -0.830883 0
M  V30 10358 H 945.535 1.54272 -2.04044 0
M  V30 10359 H 945.179 3.27733 -3.88012 0
M  V30 10360 H 945.109 4.55569 -2.6413 0
M  V30 10361 H 947.6 3.04814 -2.23376 0
M  V30 10362 H 947.913 5.84336 -5.05738 0
M  V30 10363 H 946.258 5.25964 -4.54298 0
M  V30 10364 H 949.449 3.72528 -2.83444 0
M  V30 10365 H 949.622 5.00007 -4.12186 0
M  V30 10366 N 943.028 0.824394 1.34319 0
M  V30 10367 C 943.938 0.24932 2.33271 0
M  V30 10368 C 944.954 -0.617066 1.62691 0
M  V30 10369 O 946.13 -0.524616 1.94447 0
M  V30 10370 C 943.195 -0.578094 3.41846 0
M  V30 10371 C 942.256 0.310866 4.28173 0
M  V30 10372 C 941.489 -0.477153 5.31563 0
M  V30 10373 O 941.712 -1.71028 5.44156 0
M  V30 10374 O 940.646 0.141287 6.01734 0
M  V30 10375 H 944.472 1.06837 2.84288 0
M  V30 10376 H 942.057 0.58657 1.37403 0
M  V30 10377 H 943.939 -1.04878 4.0814 0
M  V30 10378 H 942.614 -1.37444 2.93071 0
M  V30 10379 H 941.521 0.829081 3.64797 0
M  V30 10380 H 942.854 1.07161 4.80393 0
M  V30 10381 N 944.506 -1.46559 0.579492 0
M  V30 10382 C 945.922 -1.57771 0.240921 0
M  V30 10383 C 946.122 -1.57505 -1.25676 0
M  V30 10384 O 945.178 -1.4903 -2.03829 0
M  V30 10385 C 946.491 -2.87311 0.887285 0
M  V30 10386 C 948.039 -3.00937 0.860576 0
M  V30 10387 C 948.514 -4.33208 1.48642 0
M  V30 10388 N 950.005 -4.39899 1.45062 0
M  V30 10389 C 950.74 -5.40856 1.90428 0
M  V30 10390 N 950.236 -6.48503 2.43752 0
M  V30 10391 N 952.029 -5.32037 1.81364 0
M  V30 10392 H 944.18 -1.44976 1.55228 0
M  V30 10393 H 946.443 -0.691354 0.648639 0
M  V30 10394 H 946.149 -2.93307 1.94071 0
M  V30 10395 H 946.023 -3.75141 0.393577 0
M  V30 10396 H 948.41 -2.94524 -0.184223 0
M  V30 10397 H 948.491 -2.14591 1.39227 0
M  V30 10398 H 948.135 -4.40378 2.5304 0
M  V30 10399 H 948.065 -5.18323 0.92998 0
M  V30 10400 H 950.556 -3.62706 1.0608 0
M  V30 10401 H 950.869 -7.21744 2.76234 0
M  V30 10402 H 949.214 -6.49332 2.47776 0
M  V30 10403 H 952.405 -4.46841 1.39465 0
M  V30 10404 H 952.578 -6.10573 2.17035 0
M  V30 10405 N 945.984 -0.3171 -1.54377 0
M  V30 10406 C 947.209 0.292311 -2.0533 0
M  V30 10407 C 947.634 1.45503 -1.19207 0
M  V30 10408 O 946.992 1.80197 -0.199721 0
M  V30 10409 C 947.04 0.710787 -3.53525 0
M  V30 10410 O 946.144 1.81387 -3.70368 0
M  V30 10411 H 945.485 0.0539976 -0.661801 0
M  V30 10412 H 948.015 -0.463629 -1.99278 0
M  V30 10413 H 948.025 0.995216 -3.95676 0
M  V30 10414 H 946.7 -0.139668 -4.15665 0
M  V30 10415 H 945.277 1.52875 -3.40123 0
M  V30 10416 N 947.462 1.57535 -0.0451378 0
M  V30 10417 C 948.739 1.83785 0.669523 0
M  V30 10418 C 949.119 0.932331 1.89396 0
M  V30 10419 O 948.467 -0.00813229 2.28499 0
M  V30 10420 C 948.677 3.33376 1.03255 0
M  V30 10421 C 950.025 4.00243 1.41741 0
M  V30 10422 O 951.049 3.37965 1.12507 0
M  V30 10423 O 949.908 5.10038 1.96275 0
M  V30 10424 H 947.002 0.758342 0.329919 0
M  V30 10425 H 949.548 1.69538 -0.0740415 0
M  V30 10426 H 948.32 3.90965 0.161777 0
M  V30 10427 H 947.943 3.52787 1.83376 0
M  V30 10428 N 948.94 -0.228186 1.55939 0
M  V30 10429 C 949.888 -1.30239 1.92719 0
M  V30 10430 C 950.882 -1.48865 0.808424 0
M  V30 10431 O 952.088 -1.50118 0.993204 0
M  V30 10432 H 948.463 -0.436509 0.612343 0
M  V30 10433 H 950.434 -0.964965 2.82367 0
M  V30 10434 C 949.183 -2.647 2.25453 0
M  V30 10435 H 948.506 -2.51173 3.1105 0
M  V30 10436 H 949.946 -3.38691 2.55077 0
M  V30 10437 C 948.405 -3.1921 1.07734 0
M  V30 10438 O 948.935 -4.00301 0.335019 0
M  V30 10439 N 947.141 -2.77492 0.862938 0
M  V30 10440 H 946.688 -2.11657 1.4683 0
M  V30 10441 H 946.646 -3.14306 0.0770119 0
M  V30 10442 N 950.418 -1.49637 -0.494624 0
M  V30 10443 C 951.366 -1.6727 -1.61627 0
M  V30 10444 C 952.36 -0.538587 -1.6061 0
M  V30 10445 O 953.566 -0.718411 -1.65042 0
M  V30 10446 H 949.941 -0.527557 -0.535899 0
M  V30 10447 H 951.912 -2.61405 -1.43909 0
M  V30 10448 C 950.661 -1.7624 -2.99725 0
M  V30 10449 H 949.984 -2.62886 -3.01216 0
M  V30 10450 H 951.424 -1.92611 -3.77726 0
M  V30 10451 C 949.883 -0.508632 -3.33038 0
M  V30 10452 O 950.413 0.362828 -4.00058 0
M  V30 10453 N 948.619 -0.369667 -2.88239 0
M  V30 10454 H 948.166 -1.07984 -2.33875 0
M  V30 10455 H 948.124 0.468112 -3.10896 0
M  V30 10456 N 951.896 0.746133 -1.38819 0
M  V30 10457 C 952.844 1.88137 -1.36774 0
M  V30 10458 C 953.838 1.67508 -0.252495 0
M  V30 10459 O 955.044 1.74985 -0.421935 0
M  V30 10460 H 951.419 0.619116 -0.426849 0
M  V30 10461 H 953.39 1.86978 -2.32555 0
M  V30 10462 C 952.139 3.25703 -1.21708 0
M  V30 10463 H 951.462 3.42168 -2.06788 0
M  V30 10464 H 952.902 4.05361 -1.24332 0
M  V30 10465 C 951.361 3.36816 0.0754257 0
M  V30 10466 O 951.891 3.87742 1.04972 0
M  V30 10467 N 950.097 2.90287 0.134761 0
M  V30 10468 H 949.644 2.49034 -0.658779 0
M  V30 10469 H 949.602 2.98103 0.999109 0
M  V30 10470 N 953.375 1.23811 0.975125 0
M  V30 10471 C 954.323 1.02149 2.0897 0
M  V30 10472 C 955.317 -0.0412172 1.6935 0
M  V30 10473 O 956.523 0.112726 1.79647 0
M  V30 10474 H 952.898 0.313259 0.683647 0
M  V30 10475 H 954.869 1.96686 2.24404 0
M  V30 10476 C 953.618 0.635023 3.41852 0
M  V30 10477 H 952.941 1.44449 3.72793 0
M  V30 10478 H 954.381 0.52301 4.20762 0
M  V30 10479 C 952.84 -0.657207 3.30428 0
M  V30 10480 O 953.37 -1.70494 3.63723 0
M  V30 10481 N 951.576 -0.635122 2.83575 0
M  V30 10482 H 951.123 0.21784 2.56677 0
M  V30 10483 H 951.081 -1.49995 2.76313 0
M  V30 10484 N 954.853 -1.17469 1.05066 0
M  V30 10485 C 955.801 -2.23495 0.644418 0
M  V30 10486 C 956.795 -1.66081 -0.333685 0
M  V30 10487 O 958.001 -1.78887 -0.199886 0
M  V30 10488 H 954.376 -0.727546 0.190214 0
M  V30 10489 H 956.347 -2.55058 1.5488 0
M  V30 10490 C 955.096 -3.47684 0.0338051 0
M  V30 10491 H 954.419 -3.92167 0.777513 0
M  V30 10492 H 955.859 -4.23464 -0.213086 0
M  V30 10493 C 954.318 -3.14067 -1.21915 0
M  V30 10494 O 954.848 -3.28728 -2.3087 0
M  V30 10495 N 953.054 -2.68304 -1.11631 0
M  V30 10496 H 952.601 -2.56574 -0.229673 0
M  V30 10497 H 952.559 -2.46184 -1.95553 0
M  V30 10498 N 956.331 -0.831506 -1.3388 0
M  V30 10499 C 957.279 -0.247896 -2.31275 0
M  V30 10500 C 958.273 0.616083 -1.578 0
M  V30 10501 O 959.479 0.506465 -1.72728 0
M  V30 10502 H 955.854 -0.0614293 -0.749487 0
M  V30 10503 H 957.825 -1.08401 -2.78014 0
M  V30 10504 C 956.574 0.568434 -3.43022 0
M  V30 10505 H 955.897 -0.0870654 -3.99705 0
M  V30 10506 H 957.337 0.942751 -4.13386 0
M  V30 10507 C 955.796 1.74431 -2.88228 0
M  V30 10508 O 956.326 2.84278 -2.83811 0
M  V30 10509 N 954.532 1.56382 -2.44935 0
M  V30 10510 H 954.079 0.670255 -2.48727 0
M  V30 10511 H 954.037 2.35208 -2.08625 0
M  V30 10512 N 957.809 1.4625 -0.587256 0
M  V30 10513 C 958.757 2.32076 0.156108 0
M  V30 10514 C 959.751 1.44756 0.879887 0
M  V30 10515 O 960.957 1.61356 0.797759 0
M  V30 10516 H 957.332 0.748808 0.0692098 0
M  V30 10517 H 959.303 2.9258 -0.586497 0
M  V30 10518 C 958.052 3.28008 1.15352 0
M  V30 10519 H 957.375 3.9518 0.60601 0
M  V30 10520 H 958.815 3.90832 1.64396 0
M  V30 10521 C 957.274 2.53691 2.21681 0
M  V30 10522 O 957.804 2.30329 3.29107 0
M  V30 10523 N 956.01 2.14174 1.96412 0
M  V30 10524 H 955.557 2.33374 1.09061 0
M  V30 10525 H 955.515 1.6477 2.67765 0
M  V30 10526 N 959.287 0.325282 1.54207 0
M  V30 10527 C 960.564 -0.33113 1.92777 0
M  V30 10528 C 960.944 -1.69739 1.25506 0
M  V30 10529 O 960.292 -2.24983 0.399385 0
M  V30 10530 C 960.502 -0.421636 3.46444 0
M  V30 10531 C 961.85 -0.681111 4.19101 0
M  V30 10532 O 962.874 -0.504488 3.52609 0
M  V30 10533 O 961.733 -1.02196 5.3686 0
M  V30 10534 H 958.827 -0.18943 0.805013 0
M  V30 10535 H 961.373 0.375123 1.65502 0
M  V30 10536 H 960.145 0.537862 3.87586 0
M  V30 10537 H 959.768 -1.1754 3.79829 0
M  V30 10538 N 960.765 -1.57509 0.0534917 0
M  V30 10539 C 962.042 -1.84137 -0.659767 0
M  V30 10540 C 962.422 -0.942362 -1.88899 0
M  V30 10541 O 961.77 -0.00398566 -2.285 0
M  V30 10542 C 961.98 -3.33919 -1.01486 0
M  V30 10543 C 963.328 -4.00989 -1.39616 0
M  V30 10544 O 964.352 -3.38557 -1.10713 0
M  V30 10545 O 963.211 -5.11071 -1.93567 0
M  V30 10546 H 960.305 -0.760081 -0.325893 0
M  V30 10547 H 962.851 -1.69497 0.0830315 0
M  V30 10548 H 961.623 -3.91046 -0.141041 0
M  V30 10549 H 961.246 -3.53755 -1.81503 0
M  V30 10550 N 962.243 0.219913 -1.56058 0
M  V30 10551 C 963.191 1.29215 -1.93407 0
M  V30 10552 C 964.185 1.48434 -0.816307 0
M  V30 10553 O 965.391 1.49589 -1.00115 0
M  V30 10554 H 961.766 0.433256 -0.614649 0
M  V30 10555 H 963.737 0.949977 -2.82875 0
M  V30 10556 C 962.486 2.63501 -2.26854 0
M  V30 10557 H 961.809 2.4952 -3.12377 0
M  V30 10558 H 963.249 3.37334 -2.56869 0
M  V30 10559 C 961.708 3.18634 -1.09425 0
M  V30 10560 O 962.238 4.00117 -0.356243 0
M  V30 10561 N 960.444 2.7703 -0.877642 0
M  V30 10562 H 959.991 2.10875 -1.47951 0
M  V30 10563 H 959.949 3.1426 -0.0936792 0
M  V30 10564 N 963.721 1.49897 0.486681 0
M  V30 10565 C 964.669 1.68125 1.60738 0
M  V30 10566 C 965.663 0.547097 1.60322 0
M  V30 10567 O 966.869 0.727153 1.64659 0
M  V30 10568 H 963.244 0.530391 0.533094 0
M  V30 10569 H 965.215 2.62165 1.42521 0
M  V30 10570 C 963.964 1.77827 2.98786 0
M  V30 10571 H 963.287 2.6448 2.99818 0
M  V30 10572 H 964.727 1.94611 3.76699 0
M  V30 10573 C 963.186 0.526287 3.32764 0
M  V30 10574 O 963.716 -0.341607 4.00245 0
M  V30 10575 N 961.922 0.384947 2.88039 0
M  V30 10576 H 961.469 1.09222 2.33299 0
M  V30 10577 H 961.427 -0.451618 3.11139 0
M  V30 10578 N 965.199 -0.738761 1.39212 0
M  V30 10579 C 966.147 -1.8741 1.3777 0
M  V30 10580 C 967.141 -1.67371 0.261375 0
M  V30 10581 O 968.347 -1.74759 0.431209 0
M  V30 10582 H 964.722 -0.616843 0.430126 0
M  V30 10583 H 966.693 -1.85742 2.33543 0
M  V30 10584 C 965.442 -3.25053 1.23433 0
M  V30 10585 H 964.765 -3.41066 2.086 0
M  V30 10586 H 966.205 -4.04696 1.2648 0
M  V30 10587 C 964.664 -3.36851 -0.0575624 0
M  V30 10588 O 965.194 -3.88293 -1.02915 0
M  V30 10589 N 963.4 -2.90355 -0.119364 0
M  V30 10590 H 962.947 -2.48681 0.671976 0
M  V30 10591 H 962.905 -2.98628 -0.983286 0
M  V30 10592 N 966.677 -1.24326 -0.968545 0
M  V30 10593 C 967.625 -1.03256 -2.08425 0
M  V30 10594 C 968.619 0.0322356 -1.69369 0
M  V30 10595 O 969.825 -0.122251 -1.79584 0
M  V30 10596 H 966.2 -0.31688 -0.681976 0
M  V30 10597 H 968.171 -1.97873 -2.23358 0
M  V30 10598 C 966.92 -0.653144 -3.4151 0
M  V30 10599 H 966.243 -1.46424 -3.72021 0
M  V30 10600 H 967.683 -0.545316 -4.20479 0
M  V30 10601 C 966.142 0.639674 -3.30771 0
M  V30 10602 O 966.672 1.68563 -3.64622 0
M  V30 10603 N 964.878 0.620074 -2.83907 0
M  V30 10604 H 964.425 -0.231449 -2.56558 0
M  V30 10605 H 964.383 1.48528 -2.77104 0
M  V30 10606 N 968.156 1.1691 -1.05688 0
M  V30 10607 C 969.104 2.2315 -0.656262 0
M  V30 10608 C 970.098 1.66256 0.324873 0
M  V30 10609 O 971.304 1.7899 0.190397 0
M  V30 10610 H 967.679 0.726527 -0.19407 0
M  V30 10611 H 969.65 2.54233 -1.56231 0
M  V30 10612 C 968.399 3.47661 -0.0522431 0
M  V30 10613 H 967.722 3.91749 -0.798299 0
M  V30 10614 H 969.162 4.23571 0.190626 0
M  V30 10615 C 967.621 3.14709 1.20248 0
M  V30 10616 O 968.151 3.29947 2.29124 0
M  V30 10617 N 966.357 2.68892 1.10207 0
M  V30 10618 H 965.904 2.56692 0.216063 0
M  V30 10619 H 965.862 2.47218 1.94244 0
M  V30 10620 N 969.634 0.838594 1.33437 0
M  V30 10621 C 970.582 0.260158 2.31141 0
M  V30 10622 C 971.576 -0.607706 1.58124 0
M  V30 10623 O 972.782 -0.497298 1.72994 0
M  V30 10624 H 969.157 0.0654031 0.74915 0
M  V30 10625 H 971.128 1.09874 2.77435 0
M  V30 10626 C 969.877 -0.550234 3.43319 0
M  V30 10627 H 969.2 0.108262 3.99653 0
M  V30 10628 H 970.64 -0.920815 4.1388 0
M  V30 10629 C 969.099 -1.729 2.89149 0
M  V30 10630 O 969.629 -2.82769 2.85315 0
M  V30 10631 N 967.835 -1.5508 2.45761 0
M  V30 10632 H 967.382 -0.657055 2.49079 0
M  V30 10633 H 967.34 -2.34099 2.0987 0
M  V30 10634 N 971.112 -1.45937 0.595003 0
M  V30 10635 C 972.06 -2.32155 -0.143798 0
M  V30 10636 C 973.054 -1.45221 -0.872198 0
M  V30 10637 O 974.26 -1.61777 -0.789191 0
M  V30 10638 H 970.635 -0.749165 -0.0652377 0
M  V30 10639 H 972.606 -2.92264 0.602005 0
M  V30 10640 C 971.355 -3.28615 -1.13611 0
M  V30 10641 H 970.678 -3.95496 -0.585044 0
M  V30 10642 H 972.118 -3.91699 -1.62321 0
M  V30 10643 C 970.577 -2.54863 -2.20333 0
M  V30 10644 O 971.107 -2.32071 -3.27881 0
M  V30 10645 N 969.313 -2.15213 -1.95274 0
M  V30 10646 H 968.86 -2.33949 -1.07822 0
M  V30 10647 H 968.818 -1.66188 -2.66888 0
M  V30 10648 N 972.59 -0.333456 -1.54032 0
M  V30 10649 C 973.538 0.543414 -2.26163 0
M  V30 10650 C 974.532 1.11037 -1.27934 0
M  V30 10651 O 975.738 1.05727 -1.45677 0
M  V30 10652 H 972.113 0.19391 -0.726569 0
M  V30 10653 H 974.084 -0.0871052 -2.98273 0
M  V30 10654 C 972.833 1.68769 -3.03994 0
M  V30 10655 H 972.156 1.26069 -3.79403 0
M  V30 10656 H 973.596 2.27662 -3.57695 0
M  V30 10657 C 972.055 2.61117 -2.12884 0
M  V30 10658 O 972.585 3.63097 -1.71823 0
M  V30 10659 N 970.791 2.29573 -1.7817 0
M  V30 10660 H 970.338 1.46684 -2.11759 0
M  V30 10661 H 970.296 2.91622 -1.1749 0
M  V30 10662 N 974.068 1.57479 -0.061844 0
M  V30 10663 C 975.016 2.13346 0.926629 0
M  V30 10664 C 976.01 1.06787 1.31502 0
M  V30 10665 O 977.216 1.25181 1.29343 0
M  V30 10666 H 973.591 0.682046 0.316729 0
M  V30 10667 H 975.562 2.95279 0.430424 0
M  V30 10668 C 974.311 2.70198 2.18834 0
M  V30 10669 H 973.634 3.51859 1.89829 0
M  V30 10670 H 975.074 3.12897 2.86132 0
M  V30 10671 C 973.533 1.64481 2.9402 0
M  V30 10672 O 974.063 1.0639 3.87355 0
M  V30 10673 N 972.269 1.35749 2.56944 0
M  V30 10674 H 971.816 1.83177 1.81119 0
M  V30 10675 H 971.774 0.652469 3.07555 0
M  V30 10676 N 975.546 -0.211634 1.56173 0
M  V30 10677 C 976.494 -1.28188 1.94089 0
M  V30 10678 C 977.488 -1.47999 0.824167 0
M  V30 10679 O 978.694 -1.49056 1.00907 0
M  V30 10680 H 975.069 -0.42999 0.616938 0
M  V30 10681 H 977.04 -0.934962 2.83374 0
M  V30 10682 C 975.789 -2.62294 2.28248 0
M  V30 10683 H 975.112 -2.4786 3.13696 0
M  V30 10684 H 976.552 -3.35967 2.58655 0
M  V30 10685 C 975.011 -3.18049 1.11113 0
M  V30 10686 O 975.541 -3.99923 0.377458 0
M  V30 10687 N 973.747 -2.76561 0.892321 0
M  V30 10688 H 973.294 -2.10088 1.49067 0
M  V30 10689 H 973.252 -3.14206 0.110344 0
M  V30 10690 N 977.024 -1.50153 -0.478725 0
M  V30 10691 C 977.971 -1.68458 -1.57767 0
M  V30 10692 C 978.941 -0.5259 -1.57555 0
M  V30 10693 O 980.126 -0.755574 -1.75202 0
M  V30 10694 C 977.266 -1.77772 -2.95789 0
M  V30 10695 C 976.379 -3.05092 -3.05848 0
M  V30 10696 C 975.514 -3.05247 -4.34739 0
M  V30 10697 C 974.553 -4.27053 -4.38512 0
M  V30 10698 N 973.69 -4.24991 -5.58862 0
M  V30 10699 H 978.53 -2.62282 -1.41464 0
M  V30 10700 H 976.067 -1.30023 -0.687921 0
M  V30 10701 H 978.025 -1.81152 -3.75819 0
M  V30 10702 H 976.655 -0.873944 -3.10744 0
M  V30 10703 H 975.707 -3.11219 -2.1874 0
M  V30 10704 H 977.019 -3.95075 -3.04495 0
M  V30 10705 H 976.173 -3.07314 -5.23109 0
M  V30 10706 H 974.912 -2.13081 -4.38689 0
M  V30 10707 H 973.917 -4.25206 -3.4854 0
M  V30 10708 H 975.142 -5.20437 -4.36259 0
M  V30 10709 H 973.088 -3.35674 -5.63612 0
M  V30 10710 H 973.005 -5.08734 -5.59219 0
M  V30 10711 H 974.273 -4.31193 -6.49379 0
M  V30 10712 N 978.502 0.731368 -1.39602 0
M  V30 10713 C 979.751 1.48647 -1.36334 0
M  V30 10714 C 980.064 1.95565 0.0367383 0
M  V30 10715 O 981.27 2.7082 0.192017 0
M  V30 10716 C 979.726 2.68616 -2.39528 0
M  V30 10717 C 979.334 2.28632 -3.85268 0
M  V30 10718 C 981.078 3.46422 -2.45341 0
M  V30 10719 C 978.985 3.45345 -4.80095 0
M  V30 10720 H 977.915 0.558218 -0.506861 0
M  V30 10721 H 980.566 0.797467 -1.65266 0
M  V30 10722 H 978.948 3.39609 -2.03671 0
M  V30 10723 H 980.122 1.65162 -4.30184 0
M  V30 10724 H 978.437 1.63909 -3.82783 0
M  V30 10725 H 981.034 4.33241 -3.13379 0
M  V30 10726 H 981.377 3.8914 -1.47904 0
M  V30 10727 H 981.91 2.82461 -2.80108 0
M  V30 10728 H 978.649 3.07674 -5.78807 0
M  V30 10729 H 978.169 4.07784 -4.39855 0
M  V30 10730 H 979.848 4.1163 -4.99169 0
M  V30 10731 N 979.98 1.24838 0.961938 0
M  V30 10732 C 980.928 1.0436 2.07874 0
M  V30 10733 C 981.922 -0.0232531 1.69384 0
M  V30 10734 O 983.128 0.131773 1.79517 0
M  V30 10735 H 979.503 0.320492 0.680286 0
M  V30 10736 H 981.474 1.99055 2.22306 0
M  V30 10737 C 980.223 0.671246 3.41159 0
M  V30 10738 H 979.546 1.48395 3.7124 0
M  V30 10739 H 980.986 0.567608 4.20184 0
M  V30 10740 C 979.445 -0.622124 3.31106 0
M  V30 10741 O 979.975 -1.66627 3.65511 0
M  V30 10742 N 978.181 -0.605009 2.84232 0
M  V30 10743 H 977.728 0.245052 2.56432 0
M  V30 10744 H 977.686 -1.47056 2.77888 0
M  V30 10745 N 981.458 -1.16348 1.06306 0
M  V30 10746 C 982.406 -2.22799 0.668087 0
M  V30 10747 C 983.4 -1.66426 -0.316051 0
M  V30 10748 O 984.606 -1.79089 -0.180902 0
M  V30 10749 H 980.981 -0.725487 0.19792 0
M  V30 10750 H 982.952 -2.53401 1.57577 0
M  V30 10751 C 981.701 -3.47628 0.0706797 0
M  V30 10752 H 981.024 -3.9132 0.819064 0
M  V30 10753 H 982.464 -4.23666 -0.16816 0
M  V30 10754 C 980.923 -3.15343 -1.18577 0
M  V30 10755 O 981.453 -3.31158 -2.27371 0
M  V30 10756 N 979.659 -2.69472 -1.08779 0
M  V30 10757 H 979.206 -2.56803 -0.202447 0
M  V30 10758 H 979.164 -2.48244 -1.92931 0
M  V30 10759 N 982.937 -0.845659 -1.3299 0
M  V30 10760 C 983.847 -0.2864 -2.32845 0
M  V30 10761 C 984.863 0.591105 -1.63652 0
M  V30 10762 O 986.039 0.493615 -1.95257 0
M  V30 10763 C 983.104 0.523636 -3.42723 0
M  V30 10764 C 982.165 -0.378945 -4.27624 0
M  V30 10765 C 981.398 0.392526 -5.32255 0
M  V30 10766 O 981.621 1.6235 -5.46808 0
M  V30 10767 O 980.555 -0.237 -6.01433 0
M  V30 10768 H 984.381 -1.11346 -2.82552 0
M  V30 10769 H 981.966 -0.608356 -1.36453 0
M  V30 10770 H 983.848 0.983718 -4.09757 0
M  V30 10771 H 982.523 1.32764 -2.95221 0
M  V30 10772 H 981.43 -0.887012 -3.63432 0
M  V30 10773 H 982.763 -1.1479 -4.78627 0
M  V30 10774 N 984.415 1.45619 -0.602734 0
M  V30 10775 C 985.663 2.01873 -0.095844 0
M  V30 10776 C 985.984 1.47427 1.27633 0
M  V30 10777 O 985.254 0.666652 1.84208 0
M  V30 10778 H 983.834 0.746295 -0.0324408 0
M  V30 10779 H 986.496 1.78478 -0.783037 0
M  V30 10780 H 985.592 3.12072 -0.0419507 0
M  V30 10781 N 985.893 0.34162 1.53853 0
M  V30 10782 C 987.118 -0.259608 2.05769 0
M  V30 10783 C 987.543 -1.43588 1.21507 0
M  V30 10784 O 986.901 -1.79856 0.228364 0
M  V30 10785 C 986.949 -0.654455 3.54611 0
M  V30 10786 O 986.053 -1.75472 3.73207 0
M  V30 10787 H 985.394 -0.0434621 0.662576 0
M  V30 10788 H 987.924 0.495274 1.98515 0
M  V30 10789 H 987.934 -0.932142 3.97209 0
M  V30 10790 H 986.609 0.205779 4.15391 0
M  V30 10791 H 985.186 -1.47444 3.42512 0
M  V30 10792 N 987.371 -1.57444 0.0701946 0
M  V30 10793 C 988.601 -1.97467 -0.607476 0
M  V30 10794 C 989.009 -0.947232 -1.63781 0
M  V30 10795 O 988.352 0.074652 -1.83548 0
M  V30 10796 C 988.414 -3.33795 -1.33495 0
M  V30 10797 C 988.078 -4.54697 -0.458265 0
M  V30 10798 C 989.075 -5.19127 0.283488 0
M  V30 10799 C 986.76 -5.00833 -0.383612 0
M  V30 10800 C 988.754 -6.28043 1.08813 0
M  V30 10801 C 986.441 -6.09622 0.424705 0
M  V30 10802 C 987.439 -6.7309 1.15925 0
M  V30 10803 O 987.127 -7.79785 1.95423 0
M  V30 10804 H 986.859 -0.654405 -0.169501 0
M  V30 10805 H 989.413 -2.04931 0.138651 0
M  V30 10806 H 987.643 -3.22941 -2.12711 0
M  V30 10807 H 989.332 -3.58435 -1.9047 0
M  V30 10808 H 990.098 -4.84428 0.235397 0
M  V30 10809 H 985.977 -4.51211 -0.944968 0
M  V30 10810 H 989.521 -6.77513 1.66197 0
M  V30 10811 H 985.418 -6.43755 0.474366 0
M  V30 10812 H 986.186 -7.96655 1.87838 0
M  V30 10813 N 988.849 0.203349 -1.56283 0
M  V30 10814 C 990.098 0.92315 -1.79334 0
M  V30 10815 C 990.411 1.84765 -0.641977 0
M  V30 10816 O 991.617 2.60745 -0.756584 0
M  V30 10817 C 990.073 1.69184 -3.17655 0
M  V30 10818 C 989.681 0.812581 -4.40569 0
M  V30 10819 C 991.425 2.40177 -3.50022 0
M  V30 10820 C 989.332 1.57967 -5.69913 0
M  V30 10821 H 988.262 0.348442 -0.668659 0
M  V30 10822 H 990.913 0.1766 -1.82648 0
M  V30 10823 H 989.295 2.48197 -3.08568 0
M  V30 10824 H 990.469 0.0616956 -4.60759 0
M  V30 10825 H 988.784 0.21389 -4.1585 0
M  V30 10826 H 991.381 2.98103 -4.4389 0
M  V30 10827 H 991.724 3.13961 -2.73376 0
M  V30 10828 H 992.257 1.68138 -3.6052 0
M  V30 10829 H 988.996 0.884767 -6.49501 0
M  V30 10830 H 988.516 2.3047 -5.53754 0
M  V30 10831 H 990.195 2.13562 -6.10737 0
M  V30 10832 N 990.327 1.50405 0.470755 0
M  V30 10833 C 991.576 1.60652 1.21959 0
M  V30 10834 C 991.889 0.312521 1.93087 0
M  V30 10835 O 993.095 0.293901 2.69905 0
M  V30 10836 C 991.551 2.83581 2.21607 0
M  V30 10837 C 991.159 4.19858 1.5628 0
M  V30 10838 C 992.903 3.03173 2.9713 0
M  V30 10839 C 990.81 5.33974 2.54217 0
M  V30 10840 H 989.74 0.598264 0.458907 0
M  V30 10841 H 992.391 1.76836 0.490041 0
M  V30 10842 H 990.773 2.60957 2.97855 0
M  V30 10843 H 991.947 4.52738 0.85819 0
M  V30 10844 H 990.262 4.05873 0.930366 0
M  V30 10845 H 992.859 3.856 3.70428 0
M  V30 10846 H 993.202 2.14914 3.56536 0
M  V30 10847 H 993.735 3.2598 2.27995 0
M  V30 10848 H 990.474 6.24388 1.99549 0
M  V30 10849 H 989.994 5.05511 3.22829 0
M  V30 10850 H 991.673 5.64561 3.16039 0
M  V30 10851 N 991.805 -0.723954 1.39988 0
M  V30 10852 C 992.715 -1.86829 1.41887 0
M  V30 10853 C 993.731 -1.71173 0.312401 0
M  V30 10854 O 994.907 -1.93583 0.555651 0
M  V30 10855 C 991.972 -3.22541 1.27154 0
M  V30 10856 C 991.033 -3.50512 2.47871 0
M  V30 10857 C 990.266 -4.79749 2.33831 0
M  V30 10858 O 990.489 -5.54251 1.34765 0
M  V30 10859 O 989.423 -5.07868 3.23039 0
M  V30 10860 H 993.249 -1.88183 2.38371 0
M  V30 10861 H 990.834 -0.873259 1.21221 0
M  V30 10862 H 992.716 -4.0362 1.21114 0
M  V30 10863 H 991.391 -3.21933 0.337715 0
M  V30 10864 H 990.298 -2.69475 2.59488 0
M  V30 10865 H 991.631 -3.55909 3.39985 0
M  V30 10866 N 993.283 -1.25346 -0.955304 0
M  V30 10867 C 994.215 -1.0146 -2.0552 0
M  V30 10868 C 995.228 0.0202256 -1.62787 0
M  V30 10869 O 996.417 -0.218251 -1.77161 0
M  V30 10870 C 993.517 -0.511727 -3.35014 0
M  V30 10871 C 992.69 -1.61256 -4.0659 0
M  V30 10872 C 991.749 -1.11017 -5.14356 0
M  V30 10873 O 990.775 -1.80443 -5.39842 0
M  V30 10874 N 991.977 0.0489001 -5.80479 0
M  V30 10875 H 994.742 -1.96166 -2.26581 0
M  V30 10876 H 992.303 -1.16543 -1.12381 0
M  V30 10877 H 994.295 -0.160123 -4.04383 0
M  V30 10878 H 992.865 0.341377 -3.1073 0
M  V30 10879 H 992.085 -2.13577 -3.31328 0
M  V30 10880 H 993.373 -2.35213 -4.51168 0
M  V30 10881 H 992.771 0.629021 -5.62192 0
M  V30 10882 H 991.328 0.341542 -6.50905 0
M  V30 10883 N 994.761 1.15782 -1.06922 0
M  V30 10884 C 996.009 1.86097 -0.788192 0
M  V30 10885 C 996.33 1.82475 0.687606 0
M  V30 10886 O 995.6 1.26266 1.49778 0
M  V30 10887 H 994.18 0.689008 -0.288577 0
M  V30 10888 H 996.842 1.40377 -1.35205 0
M  V30 10889 H 995.938 2.91358 -1.1188 0
M  V30 10890 N 996.239 0.8527 1.3254 0
M  V30 10891 C 997.467 0.469044 2.01513 0
M  V30 10892 C 997.882 -0.933701 1.64096 0
M  V30 10893 O 997.239 -1.60898 0.861283 0
M  V30 10894 C 997.29 0.596228 3.56549 0
M  V30 10895 O 997.011 1.94371 3.92621 0
M  V30 10896 C 998.512 0.211324 4.42796 0
M  V30 10897 H 995.732 0.184589 0.645111 0
M  V30 10898 H 998.276 1.1491 1.69163 0
M  V30 10899 H 996.431 -0.0360712 3.87383 0
M  V30 10900 H 996.845 1.93909 4.87339 0
M  V30 10901 H 998.319 0.351324 5.50881 0
M  V30 10902 H 998.796 -0.848055 4.30935 0
M  V30 10903 H 999.402 0.818617 4.17347 0
M  V30 10904 N 997.718 -1.45297 0.610449 0
M  V30 10905 C 998.668 -2.27639 -0.128194 0
M  V30 10906 C 999.652 -1.37485 -0.835861 0
M  V30 10907 O 1000.84 -1.61454 -0.725378 0
M  V30 10908 C 997.973 -3.24413 -1.123 0
M  V30 10909 C 997.059 -4.22055 -0.416029 0
M  V30 10910 N 997.45 -5.02867 0.543921 0
M  V30 10911 C 995.748 -4.41041 -0.663208 0
M  V30 10912 C 996.449 -5.73728 0.959731 0
M  V30 10913 N 995.425 -5.42756 0.302873 0
M  V30 10914 H 999.227 -2.8752 0.609056 0
M  V30 10915 H 996.741 -1.56484 0.434338 0
M  V30 10916 H 998.738 -3.82139 -1.6666 0
M  V30 10917 H 997.398 -2.66092 -1.86078 0
M  V30 10918 H 998.409 -5.09649 0.920799 0
M  V30 10919 H 995.086 -3.93842 -1.38544 0
M  V30 10920 H 996.476 -6.48666 1.75163 0
M  V30 10921 N 999.196 -0.349774 -1.5367 0
M  V30 10922 C 1000.47 0.300419 -1.93279 0
M  V30 10923 C 1000.85 1.67721 -1.28191 0
M  V30 10924 O 1000.2 2.24319 -0.435127 0
M  V30 10925 C 1000.41 0.366466 -3.47071 0
M  V30 10926 C 1001.76 0.614349 -4.20132 0
M  V30 10927 O 1002.78 0.448327 -3.53367 0
M  V30 10928 O 1001.64 0.936421 -5.38417 0
M  V30 10929 H 998.736 0.176599 -0.807924 0
M  V30 10930 H 1001.28 -0.401405 -1.64884 0
M  V30 10931 H 1000.05 -0.599455 -3.86681 0
M  V30 10932 H 999.677 1.11482 -3.81651 0
M  V30 10933 N 1000.67 1.57404 -0.0785433 0
M  V30 10934 C 1001.9 1.98492 0.601292 0
M  V30 10935 C 1002.32 0.956832 1.61945 0
M  V30 10936 O 1001.68 -0.0767502 1.81137 0
M  V30 10937 C 1001.73 3.38596 1.24036 0
M  V30 10938 O 1000.83 3.38461 2.35622 0
M  V30 10939 H 1000.17 0.645882 0.154054 0
M  V30 10940 H 1002.7 2.04012 -0.155056 0
M  V30 10941 H 1002.71 3.75929 1.5856 0
M  V30 10942 H 1001.39 4.12952 0.494341 0
M  V30 10943 H 999.967 3.12906 2.02841 0
M  V30 10944 N 1002.15 -0.195058 1.56388 0
M  V30 10945 C 1003.08 -1.24444 1.97575 0
M  V30 10946 C 1004.06 -1.47471 0.847717 0
M  V30 10947 O 1005.25 -1.59208 1.11205 0
M  V30 10948 C 1002.38 -2.58866 2.31529 0
M  V30 10949 C 1001.33 -2.50451 3.47071 0
M  V30 10950 C 1000.66 -3.89146 3.667 0
M  V30 10951 C 1001.96 -2.02953 4.81256 0
M  V30 10952 H 1003.65 -0.902178 2.85484 0
M  V30 10953 H 1001.2 -0.43254 1.3735 0
M  V30 10954 H 1003.15 -3.3246 2.58936 0
M  V30 10955 H 1001.87 -2.94833 1.40502 0
M  V30 10956 H 1000.53 -1.79313 3.19754 0
M  V30 10957 H 1000.18 -4.22466 2.73004 0
M  V30 10958 H 999.882 -3.84391 4.44429 0
M  V30 10959 H 1001.41 -4.64363 3.96484 0
M  V30 10960 H 1002.82 -2.66306 5.07695 0
M  V30 10961 H 1001.22 -2.092 5.62455 0
M  V30 10962 H 1002.29 -0.982757 4.74837 0
M  V30 10963 N 1003.63 -1.50653 -0.462772 0
M  V30 10964 C 1004.56 -1.64773 -1.57877 0
M  V30 10965 C 1005.54 -0.495664 -1.54861 0
M  V30 10966 O 1006.72 -0.716248 -1.74362 0
M  V30 10967 C 1003.85 -1.63796 -2.9646 0
M  V30 10968 C 1002.9 -2.84663 -3.17599 0
M  V30 10969 S 1003.73 -4.45852 -2.96608 0
M  V30 10970 C 1004.89 -4.47581 -4.37518 0
M  V30 10971 H 1005.12 -2.59172 -1.45661 0
M  V30 10972 H 1002.65 -1.40019 -0.650699 0
M  V30 10973 H 1004.61 -1.63918 -3.76353 0
M  V30 10974 H 1003.27 -0.706185 -3.06059 0
M  V30 10975 H 1002.46 -2.80308 -4.1886 0
M  V30 10976 H 1002.07 -2.82152 -2.45492 0
M  V30 10977 H 1004.36 -4.21656 -5.30295 0
M  V30 10978 H 1005.3 -5.49248 -4.46914 0
M  V30 10979 H 1005.71 -3.7719 -4.19985 0
M  V30 10980 N 1005.11 0.71652 -1.4037 0
M  V30 10981 C 1006.06 1.8306 -1.40562 0
M  V30 10982 C 1007.03 1.64009 -0.262697 0
M  V30 10983 O 1008.21 1.85157 -0.460619 0
M  V30 10984 C 1005.35 3.2076 -1.27307 0
M  V30 10985 C 1004.46 3.51389 -2.51296 0
M  V30 10986 C 1003.6 4.78589 -2.30491 0
M  V30 10987 C 1002.64 5.02119 -3.50061 0
M  V30 10988 N 1001.77 6.20533 -3.28457 0
M  V30 10989 H 1006.61 1.82231 -2.35788 0
M  V30 10990 H 1004.15 0.890198 -1.17106 0
M  V30 10991 H 1006.11 4.00274 -1.17628 0
M  V30 10992 H 1004.74 3.2082 -0.357005 0
M  V30 10993 H 1003.79 2.66436 -2.71507 0
M  V30 10994 H 1005.1 3.64686 -3.40302 0
M  V30 10995 H 1004.26 5.66119 -2.1816 0
M  V30 10996 H 1003 4.67499 -1.38909 0
M  V30 10997 H 1002 4.13044 -3.6287 0
M  V30 10998 H 1003.23 5.15082 -4.42569 0
M  V30 10999 H 1001.17 6.10695 -2.39556 0
M  V30 11000 H 1001.09 6.34502 -4.11027 0
M  V30 11001 H 1002.36 7.10853 -3.19857 0
M  V30 11002 N 1006.59 1.25851 0.948643 0
M  V30 11003 C 1007.53 1.06559 2.06756 0
M  V30 11004 C 1008.53 -0.00528632 1.69399 0
M  V30 11005 O 1009.73 0.150806 1.79367 0
M  V30 11006 H 1006.11 0.327689 0.676848 0
M  V30 11007 H 1008.08 2.01401 2.20182 0
M  V30 11008 C 1006.83 0.707392 3.40428 0
M  V30 11009 H 1006.15 1.52324 3.69645 0
M  V30 11010 H 1007.59 0.612142 4.19558 0
M  V30 11011 C 1006.05 -0.58697 3.31747 0
M  V30 11012 O 1006.58 -1.62741 3.67258 0
M  V30 11013 N 1004.79 -0.574828 2.84858 0
M  V30 11014 H 1004.33 0.272236 2.56157 0
M  V30 11015 H 1004.29 -1.441 2.79432 0
M  V30 11016 N 1008.06 -1.15214 1.07534 0
M  V30 11017 C 1009.01 -2.20013 0.697337 0
M  V30 11018 C 1009.98 -1.6314 -0.312168 0
M  V30 11019 O 1011.17 -1.89768 -0.198196 0
M  V30 11020 C 1008.31 -3.44945 0.103293 0
M  V30 11021 C 1007.42 -4.16009 1.1645 0
M  V30 11022 C 1006.55 -5.28496 0.535261 0
M  V30 11023 C 1005.59 -5.9138 1.57912 0
M  V30 11024 N 1004.73 -6.95335 0.972332 0
M  V30 11025 H 1009.57 -2.51698 1.59538 0
M  V30 11026 H 1007.11 -1.2361 0.797431 0
M  V30 11027 H 1009.07 -4.16397 -0.258766 0
M  V30 11028 H 1007.7 -3.13772 -0.758096 0
M  V30 11029 H 1006.75 -3.43035 1.64411 0
M  V30 11030 H 1008.06 -4.58853 1.9559 0
M  V30 11031 H 1007.21 -6.06579 0.120942 0
M  V30 11032 H 1005.95 -4.8685 -0.287889 0
M  V30 11033 H 1004.96 -5.12008 2.0032 0
M  V30 11034 H 1006.18 -6.35103 2.40459 0
M  V30 11035 H 1004.13 -6.55779 0.170119 0
M  V30 11036 H 1004.05 -7.36616 1.70095 0
M  V30 11037 H 1005.31 -7.77312 0.583577 0
M  V30 11038 N 1009.54 -0.859717 -1.32086 0
M  V30 11039 C 1010.49 -0.296897 -2.30697 0
M  V30 11040 C 1011.48 0.582473 -1.59071 0
M  V30 11041 O 1012.69 0.469713 -1.73763 0
M  V30 11042 H 1009.07 -0.0773132 -0.748015 0
M  V30 11043 H 1011.04 -1.14273 -2.75652 0
M  V30 11044 C 1009.79 0.495546 -3.44151 0
M  V30 11045 H 1009.11 -0.171829 -3.99431 0
M  V30 11046 H 1010.55 0.854854 -4.15293 0
M  V30 11047 C 1009.01 1.68278 -2.91863 0
M  V30 11048 O 1009.54 2.78194 -2.89777 0
M  V30 11049 N 1007.74 1.51151 -2.48197 0
M  V30 11050 H 1007.29 0.617345 -2.50093 0
M  V30 11051 H 1007.25 2.3073 -2.13567 0
M  V30 11052 N 1011.02 1.44971 -0.618145 0
M  V30 11053 C 1012.27 2.0176 -0.11725 0
M  V30 11054 C 1012.59 1.48773 1.26062 0
M  V30 11055 O 1011.86 0.686152 1.83491 0
M  V30 11056 H 1010.44 0.745909 -0.0403545 0
M  V30 11057 H 1013.1 1.77638 -0.801923 0
M  V30 11058 H 1012.2 3.1201 -0.0750477 0
M  V30 11059 N 1012.5 0.357919 1.53482 0
M  V30 11060 C 1013.75 -0.235241 2.00324 0
M  V30 11061 C 1014.06 -1.50494 1.24944 0
M  V30 11062 O 1015.27 -2.17623 1.62335 0
M  V30 11063 C 1013.72 -0.469748 3.56821 0
M  V30 11064 C 1013.33 0.784877 4.41071 0
M  V30 11065 C 1015.07 -1.02098 4.12039 0
M  V30 11066 C 1012.98 0.520377 5.89106 0
M  V30 11067 H 1011.91 -0.0916816 0.748405 0
M  V30 11068 H 1014.56 0.475474 1.77233 0
M  V30 11069 H 1012.94 -1.24153 3.76035 0
M  V30 11070 H 1014.12 1.55886 4.33631 0
M  V30 11071 H 1012.43 1.25878 3.96918 0
M  V30 11072 H 1015.03 -1.23406 5.20264 0
M  V30 11073 H 1015.37 -1.98084 3.66154 0
M  V30 11074 H 1015.91 -0.309554 3.96594 0
M  V30 11075 H 1012.65 1.45035 6.39254 0
M  V30 11076 H 1012.17 -0.215254 5.99414 0
M  V30 11077 H 1013.84 0.143006 6.46842 0
M  V30 11078 N 1013.98 -1.5736 0.0868897 0
M  V30 11079 C 1015.21 -1.981 -0.586498 0
M  V30 11080 C 1015.61 -0.96455 -1.62767 0
M  V30 11081 O 1014.96 0.0551801 -1.83617 0
M  V30 11082 C 1015.02 -3.35193 -1.29947 0
M  V30 11083 C 1014.68 -4.55157 -0.410012 0
M  V30 11084 C 1015.68 -5.18797 0.338532 0
M  V30 11085 C 1013.37 -5.01212 -0.33047 0
M  V30 11086 C 1015.36 -6.26854 1.15468 0
M  V30 11087 C 1013.05 -6.09138 0.48934 0
M  V30 11088 C 1014.04 -6.71823 1.23057 0
M  V30 11089 O 1013.73 -7.77669 2.03683 0
M  V30 11090 H 1013.46 -0.656166 -0.16255 0
M  V30 11091 H 1016.02 -2.04773 0.160379 0
M  V30 11092 H 1014.25 -3.25179 -2.09274 0
M  V30 11093 H 1015.94 -3.60435 -1.86658 0
M  V30 11094 H 1016.7 -4.84151 0.286764 0
M  V30 11095 H 1012.58 -4.52188 -0.897058 0
M  V30 11096 H 1016.13 -6.75712 1.73374 0
M  V30 11097 H 1012.02 -6.43215 0.542618 0
M  V30 11098 H 1012.79 -7.94618 1.96277 0
M  V30 11099 N 1015.45 0.186762 -1.56489 0
M  V30 11100 C 1016.4 1.2357 -1.9161 0
M  V30 11101 C 1017.39 1.4058 -0.782686 0
M  V30 11102 O 1018.58 1.42811 -1.04566 0
M  V30 11103 C 1015.71 2.57865 -2.26628 0
M  V30 11104 C 1014.8 2.44613 -3.46447 0
M  V30 11105 N 1015.19 2.01052 -4.64125 0
M  V30 11106 C 1013.48 2.75483 -3.50749 0
M  V30 11107 C 1014.19 1.99891 -5.46277 0
M  V30 11108 N 1013.16 2.41711 -4.86905 0
M  V30 11109 H 1016.96 0.890359 -2.80089 0
M  V30 11110 H 1014.48 0.395144 -1.57519 0
M  V30 11111 H 1016.47 3.33642 -2.49977 0
M  V30 11112 H 1015.13 2.93215 -1.39481 0
M  V30 11113 H 1016.15 1.7163 -4.88634 0
M  V30 11114 H 1012.82 3.14974 -2.7404 0
M  V30 11115 H 1014.21 1.68042 -6.50547 0
M  V30 11116 N 1016.93 1.50896 0.454776 0
M  V30 11117 C 1017.86 1.73885 1.5584 0
M  V30 11118 C 1018.84 0.588172 1.59607 0
M  V30 11119 O 1020.03 0.829054 1.75614 0
M  V30 11120 C 1017.16 1.84796 2.94054 0
M  V30 11121 C 1016.11 3.00111 3.05152 0
M  V30 11122 C 1015.44 2.96183 4.45174 0
M  V30 11123 C 1016.74 4.40365 2.80849 0
M  V30 11124 H 1018.43 2.66292 1.36854 0
M  V30 11125 H 1015.98 1.28142 0.656936 0
M  V30 11126 H 1017.93 1.99462 3.71204 0
M  V30 11127 H 1016.66 0.890235 3.14233 0
M  V30 11128 H 1015.31 2.85121 2.30438 0
M  V30 11129 H 1014.96 1.98224 4.62295 0
M  V30 11130 H 1014.66 3.73608 4.53532 0
M  V30 11131 H 1016.19 3.1292 5.24322 0
M  V30 11132 H 1017.6 4.55795 3.47741 0
M  V30 11133 H 1016 5.19363 3.00636 0
M  V30 11134 H 1017.07 4.51606 1.76579 0
M  V30 11135 N 1018.41 -0.709066 1.40748 0
M  V30 11136 C 1019.34 -1.83293 1.35937 0
M  V30 11137 C 1020.32 -1.60983 0.22871 0
M  V30 11138 O 1021.51 -1.8391 0.413435 0
M  V30 11139 C 1018.63 -3.19746 1.11714 0
M  V30 11140 C 1017.68 -3.60872 2.27319 0
M  V30 11141 S 1018.51 -3.67233 3.89743 0
M  V30 11142 C 1019.67 -5.06434 3.67797 0
M  V30 11143 H 1019.9 -1.87095 2.31047 0
M  V30 11144 H 1017.43 -0.876479 1.27111 0
M  V30 11145 H 1019.39 -3.98526 0.984245 0
M  V30 11146 H 1018.05 -3.1357 0.182472 0
M  V30 11147 H 1017.25 -4.59965 2.06029 0
M  V30 11148 H 1016.85 -2.89366 2.36946 0
M  V30 11149 H 1019.14 -5.93544 3.26668 0
M  V30 11150 H 1020.08 -5.32761 4.66445 0
M  V30 11151 H 1020.49 -4.77336 3.01348 0
M  V30 11152 N 1019.89 -1.26353 -0.941956 0
M  V30 11153 C 1021.14 -1.11241 -1.68251 0
M  V30 11154 C 1021.45 0.344055 -1.9255 0
M  V30 11155 O 1022.66 0.615832 -2.64423 0
M  V30 11156 C 1021.11 -1.94269 -3.02965 0
M  V30 11157 C 1020.72 -3.44485 -2.86415 0
M  V30 11158 C 1022.47 -1.87764 -3.80716 0
M  V30 11159 C 1020.37 -4.19763 -4.16597 0
M  V30 11160 H 1019.3 -0.412694 -0.63103 0
M  V30 11161 H 1021.95 -1.50656 -1.04762 0
M  V30 11162 H 1020.34 -1.47687 -3.6743 0
M  V30 11163 H 1021.51 -3.9883 -2.30805 0
M  V30 11164 H 1019.82 -3.52218 -2.22107 0
M  V30 11165 H 1022.42 -2.41292 -4.77161 0
M  V30 11166 H 1022.76 -0.848195 -4.07568 0
M  V30 11167 H 1023.3 -2.32165 -3.23024 0
M  V30 11168 H 1020.04 -5.23173 -3.9493 0
M  V30 11169 H 1019.56 -3.70198 -4.71925 0
M  V30 11170 H 1021.24 -4.28168 -4.85058 0
M  V30 11171 N 1021.37 1.14642 -1.08144 0
M  V30 11172 C 1022.32 2.21708 -0.703448 0
M  V30 11173 C 1023.31 1.66907 0.289535 0
M  V30 11174 O 1024.52 1.79354 0.152387 0
M  V30 11175 H 1020.89 0.722247 -0.209437 0
M  V30 11176 H 1022.86 2.50862 -1.61588 0
M  V30 11177 C 1021.61 3.47472 -0.125975 0
M  V30 11178 H 1020.93 3.89967 -0.881216 0
M  V30 11179 H 1022.37 4.2388 0.100737 0
M  V30 11180 C 1020.83 3.17189 1.13546 0
M  V30 11181 O 1021.36 3.34733 2.22073 0
M  V30 11182 N 1019.57 2.71169 1.04479 0
M  V30 11183 H 1019.12 2.57093 0.161566 0
M  V30 11184 H 1019.07 2.51282 1.88957 0
M  V30 11185 N 1022.85 0.866709 1.31628 0
M  V30 11186 C 1023.79 0.309128 2.30537 0
M  V30 11187 C 1024.79 -0.574028 1.59378 0
M  V30 11188 O 1025.99 -0.460491 1.7401 0
M  V30 11189 H 1022.37 0.081279 0.747595 0
M  V30 11190 H 1024.34 1.15734 2.75042 0
M  V30 11191 C 1023.09 -0.477287 3.44409 0
M  V30 11192 H 1022.41 0.19301 3.99334 0
M  V30 11193 H 1023.85 -0.832818 4.1574 0
M  V30 11194 C 1022.31 -1.66727 2.92752 0
M  V30 11195 O 1022.84 -2.76654 2.91248 0
M  V30 11196 N 1021.05 -1.49833 2.48995 0
M  V30 11197 H 1020.59 -0.604073 2.50417 0
M  V30 11198 H 1020.55 -2.29594 2.14788 0
M  V30 11199 N 1024.32 -1.44642 0.625825 0
M  V30 11200 C 1025.26 -2.28882 -0.120614 0
M  V30 11201 C 1026.27 -1.40985 -0.81407 0
M  V30 11202 O 1027.46 -1.65188 -0.676404 0
M  V30 11203 C 1024.56 -3.17217 -1.19274 0
M  V30 11204 C 1023.73 -4.33499 -0.582839 0
M  V30 11205 C 1022.79 -5.02908 -1.54823 0
M  V30 11206 O 1021.82 -5.59102 -1.06743 0
M  V30 11207 N 1023.02 -5.0387 -2.88262 0
M  V30 11208 H 1025.78 -2.93585 0.602318 0
M  V30 11209 H 1023.34 -1.5503 0.466604 0
M  V30 11210 H 1025.34 -3.60515 -1.83878 0
M  V30 11211 H 1023.91 -2.54301 -1.81797 0
M  V30 11212 H 1023.13 -3.93458 0.241696 0
M  V30 11213 H 1024.41 -5.08561 -0.155914 0
M  V30 11214 H 1023.81 -4.59539 -3.2991 0
M  V30 11215 H 1022.37 -5.50974 -3.4824 0
M  V30 11216 N 1025.8 -0.366053 -1.5329 0
M  V30 11217 C 1026.75 0.480205 -2.25749 0
M  V30 11218 C 1027.72 1.07713 -1.2644 0
M  V30 11219 O 1028.9 1.10953 -1.55222 0
M  V30 11220 C 1026.04 1.61374 -3.05045 0
M  V30 11221 C 1025.16 1.04194 -4.19246 0
M  V30 11222 C 1024.29 2.14462 -4.85983 0
M  V30 11223 C 1023.33 1.5475 -5.92215 0
M  V30 11224 N 1022.47 2.58852 -6.52641 0
M  V30 11225 H 1027.31 -0.144199 -2.97651 0
M  V30 11226 H 1024.84 -0.0829321 -1.46866 0
M  V30 11227 H 1026.8 2.28144 -3.49294 0
M  V30 11228 H 1025.43 2.2088 -2.35397 0
M  V30 11229 H 1024.48 0.264514 -3.79479 0
M  V30 11230 H 1025.8 0.565379 -4.95585 0
M  V30 11231 H 1024.95 2.89051 -5.33418 0
M  V30 11232 H 1023.69 2.6547 -4.09117 0
M  V30 11233 H 1022.69 0.786759 -5.44142 0
M  V30 11234 H 1023.92 1.04566 -6.71001 0
M  V30 11235 H 1021.87 3.09073 -5.78627 0
M  V30 11236 H 1021.78 2.15884 -7.24521 0
M  V30 11237 H 1023.05 3.33142 -7.04724 0
M  V30 11238 N 1027.28 1.57312 -0.0952337 0
M  V30 11239 C 1028.53 1.93533 0.568131 0
M  V30 11240 C 1028.84 0.979121 1.6933 0
M  V30 11241 O 1030.05 1.23506 2.41782 0
M  V30 11242 C 1028.5 3.43875 1.06198 0
M  V30 11243 C 1028.11 4.47988 -0.0334397 0
M  V30 11244 C 1029.86 3.89057 1.69807 0
M  V30 11245 C 1027.76 5.89483 0.475774 0
M  V30 11246 H 1026.69 0.7224 0.215995 0
M  V30 11247 H 1029.34 1.82699 -0.171257 0
M  V30 11248 H 1027.73 3.49862 1.85506 0
M  V30 11249 H 1028.9 4.53644 -0.808934 0
M  V30 11250 H 1027.21 4.12415 -0.574725 0
M  V30 11251 H 1029.81 4.92171 2.08978 0
M  V30 11252 H 1030.15 3.27713 2.5673 0
M  V30 11253 H 1030.69 3.85772 0.970815 0
M  V30 11254 H 1027.43 6.54528 -0.356837 0
M  V30 11255 H 1026.95 5.87297 1.21827 0
M  V30 11256 H 1028.63 6.40066 0.944697 0
M  V30 11257 N 1028.76 -0.17846 1.56586 0
M  V30 11258 C 1029.98 -0.916061 1.86073 0
M  V30 11259 C 1030.41 -1.75349 0.680754 0
M  V30 11260 O 1029.77 -1.77479 -0.37028 0
M  V30 11261 C 1029.81 -1.77445 3.1392 0
M  V30 11262 O 1028.92 -2.87524 2.95641 0
M  V30 11263 H 1028.26 -0.257031 0.612234 0
M  V30 11264 H 1030.79 -0.178755 2.03818 0
M  V30 11265 H 1030.8 -2.1758 3.45142 0
M  V30 11266 H 1029.47 -1.15927 3.99417 0
M  V30 11267 H 1028.05 -2.51023 2.75757 0
M  V30 11268 N 1030.24 -1.51135 -0.446768 0
M  V30 11269 C 1031.46 -1.67411 -1.22427 0
M  V30 11270 C 1031.89 -0.367009 -1.84485 0
M  V30 11271 O 1031.24 0.67185 -1.68392 0
M  V30 11272 C 1031.29 -2.78473 -2.29096 0
M  V30 11273 O 1030.4 -2.41419 -3.34351 0
M  V30 11274 H 1029.74 -0.558512 -0.359111 0
M  V30 11275 H 1032.27 -1.97648 -0.5288 0
M  V30 11276 H 1032.28 -3.02277 -2.7403 0
M  V30 11277 H 1030.95 -3.73326 -1.83304 0
M  V30 11278 H 1029.53 -2.28152 -2.9496 0
M  V30 11279 N 1031.71 0.701592 -1.41122 0
M  V30 11280 C 1032.66 1.83691 -1.4269 0
M  V30 11281 C 1033.66 1.6662 -0.305658 0
M  V30 11282 O 1034.86 1.73554 -0.477392 0
M  V30 11283 H 1031.24 0.605222 -0.44633 0
M  V30 11284 H 1033.21 1.79485 -2.38386 0
M  V30 11285 C 1031.96 3.21666 -1.32008 0
M  V30 11286 H 1031.28 3.35416 -2.17569 0
M  V30 11287 H 1032.72 4.012 -1.37165 0
M  V30 11288 C 1031.18 3.36885 -0.0317678 0
M  V30 11289 O 1031.71 3.90885 0.925836 0
M  V30 11290 N 1029.91 2.90569 0.0423401 0
M  V30 11291 H 1029.46 2.46812 -0.737673 0
M  V30 11292 H 1029.42 3.0113 0.903764 0
M  V30 11293 N 1033.19 1.2685 0.935242 0
M  V30 11294 C 1034.14 1.08923 2.03481 0
M  V30 11295 C 1035.11 -0.00749786 1.66098 0
M  V30 11296 O 1036.29 0.153401 1.90182 0
M  V30 11297 C 1033.43 0.734529 3.37192 0
M  V30 11298 C 1032.55 1.90812 3.87576 0
M  V30 11299 C 1031.68 1.49599 5.097 0
M  V30 11300 C 1030.72 2.63752 5.5236 0
M  V30 11301 N 1029.86 2.23179 6.65684 0
M  V30 11302 H 1034.7 2.03016 2.18148 0
M  V30 11303 H 1032.23 1.01072 1.06878 0
M  V30 11304 H 1034.19 0.509734 4.14074 0
M  V30 11305 H 1032.82 -0.169438 3.22355 0
M  V30 11306 H 1031.87 2.24567 3.0704 0
M  V30 11307 H 1033.19 2.7647 4.1517 0
M  V30 11308 H 1032.34 1.23199 5.9406 0
M  V30 11309 H 1031.08 0.61039 4.83865 0
M  V30 11310 H 1030.08 2.90874 4.66554 0
M  V30 11311 H 1031.31 3.5292 5.80193 0
M  V30 11312 H 1029.26 1.37061 6.41522 0
M  V30 11313 H 1029.17 3.02379 6.92895 0
M  V30 11314 H 1030.44 2.00007 7.53404 0
M  V30 11315 N 1034.67 -1.14067 1.0875 0
M  V30 11316 C 1035.9 -1.89582 0.841038 0
M  V30 11317 C 1036.32 -1.78226 -0.601436 0
M  V30 11318 O 1035.68 -1.12491 -1.42181 0
M  V30 11319 C 1035.73 -3.37415 1.27213 0
M  V30 11320 O 1034.83 -4.10191 0.426246 0
M  V30 11321 H 1034.17 -0.589716 0.305173 0
M  V30 11322 H 1036.7 -1.44364 1.44984 0
M  V30 11323 H 1036.71 -3.88234 1.25451 0
M  V30 11324 H 1035.39 -3.44999 2.32268 0
M  V30 11325 H 1033.96 -3.69429 0.507585 0
M  V30 11326 N 1036.15 -0.873678 -1.31166 0
M  V30 11327 C 1037.37 -0.500242 -2.01277 0
M  V30 11328 C 1037.8 0.900811 -1.65127 0
M  V30 11329 O 1037.16 1.59504 -0.861862 0
M  V30 11330 C 1037.2 -0.668976 -3.5434 0
M  V30 11331 O 1036.31 0.290096 -4.11378 0
M  V30 11332 H 1035.65 -0.198507 -0.633633 0
M  V30 11333 H 1038.18 -1.17811 -1.67277 0
M  V30 11334 H 1038.19 -0.563673 -4.04088 0
M  V30 11335 H 1036.86 -1.69055 -3.79991 0
M  V30 11336 H 1035.44 0.139437 -3.72639 0
M  V30 11337 N 1037.63 1.44308 -0.633487 0
M  V30 11338 C 1038.57 2.32455 0.0821956 0
M  V30 11339 C 1039.57 1.47482 0.833388 0
M  V30 11340 O 1040.77 1.63812 0.746021 0
M  V30 11341 H 1037.15 0.750631 0.045352 0
M  V30 11342 H 1039.12 2.90566 -0.679282 0
M  V30 11343 C 1037.87 3.31512 1.04858 0
M  V30 11344 H 1037.19 3.96908 0.479979 0
M  V30 11345 H 1038.63 3.95865 1.51879 0
M  V30 11346 C 1037.09 2.60615 2.13498 0
M  V30 11347 O 1037.62 2.40682 3.21613 0
M  V30 11348 N 1035.83 2.20315 1.89499 0
M  V30 11349 H 1035.37 2.36726 1.01581 0
M  V30 11350 H 1035.33 1.73205 2.62388 0
M  V30 11351 N 1039.1 0.374177 1.53094 0
M  V30 11352 C 1040.05 -0.48326 2.27524 0
M  V30 11353 C 1041.05 -1.07606 1.30833 0
M  V30 11354 O 1042.25 -1.01827 1.48429 0
M  V30 11355 H 1038.63 -0.174578 0.731455 0
M  V30 11356 H 1040.6 0.166156 2.97937 0
M  V30 11357 C 1039.35 -1.6065 3.08362 0
M  V30 11358 H 1038.67 -1.15966 3.82612 0
M  V30 11359 H 1040.11 -2.18099 3.63606 0
M  V30 11360 C 1038.57 -2.55381 2.19732 0
M  V30 11361 O 1039.1 -3.58414 1.8139 0
M  V30 11362 N 1037.31 -2.24769 1.84194 0
M  V30 11363 H 1036.85 -1.41018 2.15573 0
M  V30 11364 H 1036.81 -2.88404 1.25181 0
M  V30 11365 N 1040.58 -1.57259 0.103575 0
M  V30 11366 C 1041.83 -1.94272 -0.557024 0
M  V30 11367 C 1042.15 -0.986739 -1.68192 0
M  V30 11368 O 1041.42 -0.0402818 -1.95859 0
M  V30 11369 H 1040 -0.717237 -0.208757 0
M  V30 11370 H 1042.66 -1.94167 0.168898 0
M  V30 11371 H 1041.76 -2.96914 -0.961691 0
M  V30 11372 N 1042.06 0.170153 -1.56679 0
M  V30 11373 C 1043.01 1.22997 -1.9742 0
M  V30 11374 C 1044 1.45762 -0.863117 0
M  V30 11375 O 1045.21 1.46328 -1.04824 0
M  V30 11376 H 1041.58 0.413482 -0.628122 0
M  V30 11377 H 1043.55 0.859502 -2.85754 0
M  V30 11378 C 1042.3 2.5615 -2.35122 0
M  V30 11379 H 1041.63 2.39456 -3.20158 0
M  V30 11380 H 1043.07 3.28991 -2.67471 0
M  V30 11381 C 1041.53 3.14992 -1.19507 0
M  V30 11382 O 1042.06 3.98781 -0.483357 0
M  V30 11383 N 1040.26 2.74098 -0.965332 0
M  V30 11384 H 1039.81 2.06062 -1.54585 0
M  V30 11385 H 1039.77 3.13803 -0.193611 0
M  V30 11386 N 1043.54 1.5137 0.438746 0
M  V30 11387 C 1044.82 1.54508 1.19944 0
M  V30 11388 C 1045.2 0.308525 2.08833 0
M  V30 11389 O 1044.54 -0.706461 2.17305 0
M  V30 11390 C 1044.75 2.85833 2.00251 0
M  V30 11391 C 1046.1 3.37729 2.5734 0
M  V30 11392 O 1047.13 2.87374 2.10463 0
M  V30 11393 O 1045.98 4.25589 3.42836 0
M  V30 11394 H 1043.08 0.621132 0.546007 0
M  V30 11395 H 1045.62 1.63682 0.447931 0
M  V30 11396 H 1044.4 3.67291 1.34955 0
M  V30 11397 H 1044.02 2.79815 2.8247 0
M  V30 11398 N 1045.02 -0.694098 1.41492 0
M  V30 11399 C 1045.96 -1.82932 1.43662 0
M  V30 11400 C 1046.96 -1.66455 0.31449 0
M  V30 11401 O 1048.16 -1.73298 0.486589 0
M  V30 11402 H 1044.54 -0.602847 0.449533 0
M  V30 11403 H 1046.51 -1.78218 2.39334 0
M  V30 11404 C 1045.26 -3.20962 1.33712 0
M  V30 11405 H 1044.58 -3.34257 2.19345 0
M  V30 11406 H 1046.02 -4.00467 1.39291 0
M  V30 11407 C 1044.48 -3.36863 0.0496332 0
M  V30 11408 O 1045.01 -3.91371 -0.905093 0
M  V30 11409 N 1043.22 -2.90588 -0.0269299 0
M  V30 11410 H 1042.76 -2.46417 0.750752 0
M  V30 11411 H 1042.72 -3.01605 -0.887781 0
M  V30 11412 N 1046.49 -1.27344 -0.928501 0
M  V30 11413 C 1047.74 -1.13411 -1.67279 0
M  V30 11414 C 1048.06 0.320698 -1.92345 0
M  V30 11415 O 1047.33 1.2245 -1.52915 0
M  V30 11416 H 1045.91 -0.416712 -0.619968 0
M  V30 11417 H 1048.58 -1.5986 -1.11493 0
M  V30 11418 H 1047.67 -1.66256 -2.64131 0
M  V30 11419 N 1047.97 1.13488 -1.09353 0
M  V30 11420 C 1049.2 1.89133 -0.85108 0
M  V30 11421 C 1049.62 1.78542 0.591976 0
M  V30 11422 O 1048.98 1.13243 1.41583 0
M  V30 11423 C 1049.03 3.36736 -1.29001 0
M  V30 11424 O 1048.13 4.09959 -0.447993 0
M  V30 11425 H 1047.47 0.58809 -0.308296 0
M  V30 11426 H 1050 1.43593 -1.45747 0
M  V30 11427 H 1050.01 3.87564 -1.27508 0
M  V30 11428 H 1048.69 3.43762 -2.34095 0
M  V30 11429 H 1047.27 3.69155 -0.52717 0
M  V30 11430 N 1049.45 0.880621 1.30701 0
M  V30 11431 C 1050.73 0.41712 1.91101 0
M  V30 11432 C 1051.11 -1.10177 1.80067 0
M  V30 11433 O 1050.46 -1.93513 1.21511 0
M  V30 11434 C 1050.67 0.910364 3.36917 0
M  V30 11435 C 1052.01 0.942764 4.14001 0
M  V30 11436 O 1053.04 0.856733 3.45743 0
M  V30 11437 O 1051.9 1.06913 5.3594 0
M  V30 11438 H 1048.99 0.126775 0.817225 0
M  V30 11439 H 1051.54 0.969236 1.39298 0
M  V30 11440 H 1050.31 1.95414 3.39012 0
M  V30 11441 H 1049.93 0.337164 3.96168 0
M  V30 11442 N 1050.93 -1.4397 0.641131 0
M  V30 11443 C 1051.88 -2.32495 -0.0698668 0
M  V30 11444 C 1052.87 -1.47922 -0.825555 0
M  V30 11445 O 1054.08 -1.64206 -0.737323 0
M  V30 11446 H 1050.45 -0.750861 -0.0413706 0
M  V30 11447 H 1052.42 -2.90201 0.694682 0
M  V30 11448 C 1051.17 -3.32063 -1.03098 0
M  V30 11449 H 1050.5 -3.97157 -0.458923 0
M  V30 11450 H 1051.94 -3.96664 -1.49778 0
M  V30 11451 C 1050.39 -2.61743 -2.12113 0
M  V30 11452 O 1050.92 -2.42385 -3.20332 0
M  V30 11453 N 1049.13 -2.21316 -1.88328 0
M  V30 11454 H 1048.68 -2.37261 -1.00324 0
M  V30 11455 H 1048.64 -1.74594 -2.61465 0
M  V30 11456 N 1052.41 -0.382291 -1.52893 0
M  V30 11457 C 1053.35 0.456234 -2.26246 0
M  V30 11458 C 1054.32 1.06366 -1.27575 0
M  V30 11459 O 1055.51 1.09301 -1.5639 0
M  V30 11460 C 1052.65 1.5813 -3.06739 0
M  V30 11461 C 1051.76 0.997416 -4.20328 0
M  V30 11462 C 1050.9 2.09296 -4.8823 0
M  V30 11463 C 1049.94 1.4846 -5.93823 0
M  V30 11464 N 1049.07 2.51916 -6.55349 0
M  V30 11465 H 1053.91 -0.175761 -2.97481 0
M  V30 11466 H 1051.45 -0.0985046 -1.4677 0
M  V30 11467 H 1053.41 2.24426 -3.51694 0
M  V30 11468 H 1052.04 2.18371 -2.37727 0
M  V30 11469 H 1051.09 0.224251 -3.79738 0
M  V30 11470 H 1052.4 0.512784 -4.96157 0
M  V30 11471 H 1051.56 2.83377 -5.36453 0
M  V30 11472 H 1050.3 2.61116 -4.1191 0
M  V30 11473 H 1049.3 0.729001 -5.44946 0
M  V30 11474 H 1050.53 0.97443 -6.72073 0
M  V30 11475 H 1048.47 3.02919 -5.81873 0
M  V30 11476 H 1048.39 2.08188 -7.26769 0
M  V30 11477 H 1049.66 3.25649 -7.08218 0
M  V30 11478 N 1053.89 1.57202 -0.111913 0
M  V30 11479 C 1055.11 1.99723 0.559054 0
M  V30 11480 C 1055.54 0.990968 1.59879 0
M  V30 11481 O 1054.89 -0.038311 1.8126 0
M  V30 11482 C 1054.94 3.41151 1.16826 0
M  V30 11483 O 1054.05 3.43383 2.2839 0
M  V30 11484 H 1053.39 0.649004 0.140319 0
M  V30 11485 H 1055.92 2.03637 -0.198295 0
M  V30 11486 H 1055.93 3.79208 1.50551 0
M  V30 11487 H 1054.6 4.13907 0.406637 0
M  V30 11488 H 1053.18 3.17138 1.96158 0
M  V30 11489 N 1055.36 -0.161842 1.56767 0
M  V30 11490 C 1056.59 -0.896274 1.87034 0
M  V30 11491 C 1057.01 -1.74617 0.699314 0
M  V30 11492 O 1056.37 -1.77861 -0.351435 0
M  V30 11493 C 1056.42 -1.74105 3.15784 0
M  V30 11494 O 1055.52 -2.84372 2.98674 0
M  V30 11495 H 1054.86 -0.250523 0.614926 0
M  V30 11496 H 1057.39 -0.157127 2.03996 0
M  V30 11497 H 1057.4 -2.13907 3.4743 0
M  V30 11498 H 1056.08 -1.11684 4.00624 0
M  V30 11499 H 1054.66 -2.48084 2.78404 0
M  V30 11500 N 1056.84 -1.516 -0.430713 0
M  V30 11501 C 1057.8 -1.72794 -1.50582 0
M  V30 11502 C 1058.8 -0.597903 -1.49271 0
M  V30 11503 O 1059.99 -0.865535 -1.51176 0
M  V30 11504 C 1057.13 -1.79049 -2.90093 0
M  V30 11505 H 1058.32 -2.68751 -1.33091 0
M  V30 11506 H 1055.87 -1.4169 -0.659822 0
M  V30 11507 H 1056.61 -0.849309 -3.12981 0
M  V30 11508 H 1056.39 -2.61181 -2.92449 0
M  V30 11509 H 1057.88 -1.97262 -3.68072 0
M  V30 11510 N 1058.32 0.686584 -1.41858 0
M  V30 11511 C 1059.55 1.47305 -1.44862 0
M  V30 11512 C 1059.96 1.8912 -0.0549286 0
M  V30 11513 O 1059.3 1.57941 0.938101 0
M  V30 11514 C 1059.36 2.76107 -2.30229 0
M  V30 11515 C 1059.03 2.5644 -3.78269 0
M  V30 11516 C 1060.02 2.21803 -4.70212 0
M  V30 11517 C 1057.71 2.71801 -4.22409 0
M  V30 11518 C 1059.7 2.02778 -6.04284 0
M  V30 11519 C 1057.39 2.52392 -5.56544 0
M  V30 11520 C 1058.39 2.17933 -6.47298 0
M  V30 11521 O 1058.08 1.98701 -7.78956 0
M  V30 11522 H 1057.81 0.460174 -0.495193 0
M  V30 11523 H 1060.36 0.852069 -1.86893 0
M  V30 11524 H 1058.59 3.40644 -1.83026 0
M  V30 11525 H 1060.28 3.37947 -2.24826 0
M  V30 11526 H 1061.05 2.09542 -4.37398 0
M  V30 11527 H 1056.93 2.97605 -3.52069 0
M  V30 11528 H 1060.47 1.75805 -6.75084 0
M  V30 11529 H 1056.37 2.64246 -5.88935 0
M  V30 11530 H 1057.13 2.13393 -7.90193 0
M  V30 11531 N 1059.8 1.27835 0.921735 0
M  V30 11532 C 1060.74 1.11075 2.02314 0
M  V30 11533 C 1061.71 0.0101195 1.66097 0
M  V30 11534 O 1062.9 0.173564 1.90009 0
M  V30 11535 C 1060.04 0.770251 3.36394 0
M  V30 11536 C 1059.15 1.94912 3.8553 0
M  V30 11537 C 1058.29 1.54996 5.08084 0
M  V30 11538 C 1057.33 2.69595 5.49531 0
M  V30 11539 N 1056.46 2.30227 6.6328 0
M  V30 11540 H 1061.3 2.05319 2.15982 0
M  V30 11541 H 1058.84 1.022 1.058 0
M  V30 11542 H 1060.8 0.553624 4.1351 0
M  V30 11543 H 1059.43 -0.135238 3.22517 0
M  V30 11544 H 1058.48 2.27811 3.04641 0
M  V30 11545 H 1059.79 2.80858 4.12214 0
M  V30 11546 H 1058.95 1.29493 5.9272 0
M  V30 11547 H 1057.69 0.661676 4.83191 0
M  V30 11548 H 1056.69 2.95806 4.63442 0
M  V30 11549 H 1057.92 3.59054 5.76417 0
M  V30 11550 H 1055.86 1.43858 6.40032 0
M  V30 11551 H 1055.78 3.09711 6.89649 0
M  V30 11552 H 1057.05 2.07987 7.5124 0
M  V30 11553 N 1061.28 -1.12907 1.09954 0
M  V30 11554 C 1062.55 -1.80602 0.751148 0
M  V30 11555 C 1062.93 -1.96826 -0.763077 0
M  V30 11556 O 1062.28 -1.54066 -1.68749 0
M  V30 11557 C 1062.49 -3.15289 1.49646 0
M  V30 11558 C 1063.84 -3.9056 1.66578 0
M  V30 11559 O 1064.86 -3.24929 1.45943 0
M  V30 11560 O 1063.72 -5.08292 2.00752 0
M  V30 11561 H 1060.82 -0.781529 0.270446 0
M  V30 11562 H 1063.36 -1.19786 1.20206 0
M  V30 11563 H 1062.13 -2.9874 2.52725 0
M  V30 11564 H 1061.76 -3.83809 1.03808 0
M  V30 11565 N 1062.75 -0.88754 -1.30232 0
M  V30 11566 C 1063.98 -0.521562 -2.00735 0
M  V30 11567 C 1064.4 0.883247 -1.66073 0
M  V30 11568 O 1063.76 1.58581 -0.878731 0
M  V30 11569 C 1063.81 -0.706521 -3.53611 0
M  V30 11570 O 1062.91 0.246447 -4.11663 0
M  V30 11571 H 1062.25 -0.205216 -0.631492 0
M  V30 11572 H 1064.78 -1.19579 -1.66018 0
M  V30 11573 H 1064.79 -0.606501 -4.03467 0
M  V30 11574 H 1063.47 -1.73076 -3.78177 0
M  V30 11575 H 1062.05 0.0999062 -3.72766 0
M  V30 11576 N 1064.23 1.43628 -0.648757 0
M  V30 11577 C 1065.51 1.95391 -0.0904551 0
M  V30 11578 C 1065.89 1.59021 1.38837 0
M  V30 11579 O 1065.24 0.873078 2.11163 0
M  V30 11580 C 1065.45 3.47418 -0.33196 0
M  V30 11581 C 1066.8 4.23952 -0.234521 0
M  V30 11582 O 1067.82 3.55218 -0.264276 0
M  V30 11583 O 1066.68 5.46282 -0.154428 0
M  V30 11584 H 1063.77 0.82691 0.0121884 0
M  V30 11585 H 1066.32 1.5359 -0.721685 0
M  V30 11586 H 1065.09 3.67001 -1.35741 0
M  V30 11587 H 1064.71 3.96207 0.332556 0
M  V30 11588 N 1065.71 0.390394 1.52688 0
M  V30 11589 C 1066.94 -0.191485 2.06012 0
M  V30 11590 C 1067.35 -1.40422 1.26202 0
M  V30 11591 O 1066.71 -1.79866 0.308963 0
M  V30 11592 C 1066.76 -0.560521 3.57128 0
M  V30 11593 O 1066.48 0.60404 4.33916 0
M  V30 11594 C 1067.98 -1.19814 4.26801 0
M  V30 11595 H 1065.2 -0.0286311 0.670389 0
M  V30 11596 H 1067.75 0.555939 1.96798 0
M  V30 11597 H 1065.9 -1.25784 3.66411 0
M  V30 11598 H 1066.32 0.300467 5.23639 0
M  V30 11599 H 1067.79 -1.40672 5.33775 0
M  V30 11600 H 1068.27 -2.16582 3.82085 0
M  V30 11601 H 1068.87 -0.541558 4.21838 0
M  V30 11602 N 1067.19 -1.57141 0.120249 0
M  V30 11603 C 1068.44 -1.94852 -0.536387 0
M  V30 11604 C 1068.76 -1.00452 -1.67136 0
M  V30 11605 O 1068.03 -0.061053 -1.95805 0
M  V30 11606 H 1066.61 -0.719411 -0.201138 0
M  V30 11607 H 1069.27 -1.93977 0.189482 0
M  V30 11608 H 1068.37 -2.97917 -0.930145 0
M  V30 11609 N 1068.67 0.153526 -1.5685 0
M  V30 11610 C 1069.61 1.20896 -1.98713 0
M  V30 11611 C 1070.61 1.44839 -0.878529 0
M  V30 11612 O 1071.81 1.45208 -1.0637 0
M  V30 11613 H 1068.19 0.406797 -0.632472 0
M  V30 11614 H 1070.16 0.829145 -2.86649 0
M  V30 11615 C 1068.91 2.53642 -2.37825 0
M  V30 11616 H 1068.23 2.36047 -3.22679 0
M  V30 11617 H 1069.67 3.26136 -2.70946 0
M  V30 11618 C 1068.13 3.13706 -1.22841 0
M  V30 11619 O 1068.66 3.98246 -0.525626 0
M  V30 11620 N 1066.87 2.73059 -0.99435 0
M  V30 11621 H 1066.41 2.0441 -1.56761 0
M  V30 11622 H 1066.37 3.1358 -0.226883 0
M  V30 11623 N 1070.14 1.51827 0.422667 0
M  V30 11624 C 1071.42 1.55772 1.18299 0
M  V30 11625 C 1071.8 0.330657 2.08494 0
M  V30 11626 O 1071.15 -0.683373 2.18042 0
M  V30 11627 C 1071.36 2.87941 1.97208 0
M  V30 11628 C 1072.71 3.4044 2.53744 0
M  V30 11629 O 1073.73 2.8959 2.07403 0
M  V30 11630 O 1072.59 4.29201 3.38303 0
M  V30 11631 H 1069.68 0.626889 0.539388 0
M  V30 11632 H 1072.23 1.64147 0.430545 0
M  V30 11633 H 1071 3.68702 1.31052 0
M  V30 11634 H 1070.63 2.82795 2.79486 0
M  V30 11635 N 1071.62 -0.679052 1.4222 0
M  V30 11636 C 1072.59 -1.77448 1.45069 0
M  V30 11637 C 1073.59 -1.57189 0.338882 0
M  V30 11638 O 1074.78 -1.63559 0.599519 0
M  V30 11639 C 1071.91 -3.1603 1.27819 0
M  V30 11640 H 1073.1 -1.7631 2.426 0
M  V30 11641 H 1070.65 -0.888277 1.28605 0
M  V30 11642 H 1071.39 -3.22796 0.311946 0
M  V30 11643 H 1071.17 -3.32138 2.08391 0
M  V30 11644 H 1072.66 -3.9596 1.32686 0
M  V30 11645 N 1073.1 -1.28322 -0.914942 0
M  V30 11646 C 1074.38 -1.06111 -1.64316 0
M  V30 11647 C 1074.76 0.399934 -2.07277 0
M  V30 11648 O 1074.11 1.38577 -1.81683 0
M  V30 11649 C 1074.32 -2.03461 -2.83557 0
M  V30 11650 C 1075.66 -2.33541 -3.54604 0
M  V30 11651 O 1076.69 -2.01536 -2.93704 0
M  V30 11652 O 1075.55 -2.88158 -4.64357 0
M  V30 11653 H 1072.64 -0.405451 -0.72079 0
M  V30 11654 H 1075.19 -1.39636 -0.964352 0
M  V30 11655 H 1073.96 -3.01938 -2.48896 0
M  V30 11656 H 1073.58 -1.70574 -3.59152 0
M  V30 11657 N 1074.58 1.12322 -1.10551 0
M  V30 11658 C 1075.53 2.20166 -0.750317 0
M  V30 11659 C 1076.52 1.67484 0.254066 0
M  V30 11660 O 1077.73 1.79637 0.114309 0
M  V30 11661 H 1074.1 0.717642 -0.22471 0
M  V30 11662 H 1076.07 2.47378 -1.66873 0
M  V30 11663 C 1074.82 3.47126 -0.199651 0
M  V30 11664 H 1074.14 3.88011 -0.963735 0
M  V30 11665 H 1075.58 4.23999 0.0108033 0
M  V30 11666 C 1074.04 3.19526 1.06792 0
M  V30 11667 O 1074.57 3.39368 2.14923 0
M  V30 11668 N 1072.78 2.73324 0.987032 0
M  V30 11669 H 1072.33 2.57378 0.106997 0
M  V30 11670 H 1072.28 2.55234 1.83584 0
M  V30 11671 N 1076.06 0.894434 1.2976 0
M  V30 11672 C 1076.99 0.312806 2.26046 0
M  V30 11673 C 1077.97 -0.572024 1.52206 0
M  V30 11674 O 1079.15 -0.520009 1.81185 0
M  V30 11675 C 1076.28 -0.554624 3.34128 0
M  V30 11676 C 1075.32 0.262168 4.25693 0
M  V30 11677 S 1076.16 1.65656 5.09233 0
M  V30 11678 C 1077.31 0.795914 6.20819 0
M  V30 11679 H 1077.55 1.12895 2.75031 0
M  V30 11680 H 1075.08 0.694446 1.37901 0
M  V30 11681 H 1077.04 -1.04933 3.96862 0
M  V30 11682 H 1075.7 -1.34495 2.83848 0
M  V30 11683 H 1074.89 -0.400216 5.02408 0
M  V30 11684 H 1074.49 0.689829 3.67583 0
M  V30 11685 H 1076.79 0.0169942 6.77498 0
M  V30 11686 H 1077.73 1.53497 6.91263 0
M  V30 11687 H 1078.14 0.35263 5.63398 0
M  V30 11688 N 1077.53 -1.43282 0.656365 0
M  V30 11689 C 1078.48 -2.32556 -0.0452037 0
M  V30 11690 C 1079.48 -1.48789 -0.80982 0
M  V30 11691 O 1080.68 -1.64979 -0.719865 0
M  V30 11692 H 1077.06 -0.751258 -0.0334043 0
M  V30 11693 H 1079.03 -2.89448 0.725423 0
M  V30 11694 C 1077.78 -3.33138 -0.995706 0
M  V30 11695 H 1077.1 -3.97622 -0.416774 0
M  V30 11696 H 1078.54 -3.98231 -1.45562 0
M  V30 11697 C 1077 -2.63978 -2.09325 0
M  V30 11698 O 1077.53 -2.45769 -3.17743 0
M  V30 11699 N 1075.74 -2.23301 -1.8597 0
M  V30 11700 H 1075.28 -2.38312 -0.97802 0
M  V30 11701 H 1075.24 -1.77358 -2.59599 0
M  V30 11702 N 1079.01 -0.398486 -1.52479 0
M  V30 11703 C 1080.24 0.183059 -2.06591 0
M  V30 11704 C 1080.66 1.3898 -1.26753 0
M  V30 11705 O 1080.02 1.78885 -0.294959 0
M  V30 11706 C 1080.07 0.522392 -3.56796 0
M  V30 11707 O 1079.17 1.61499 -3.79462 0
M  V30 11708 H 1078.51 0.0188411 -0.663733 0
M  V30 11709 H 1081.04 -0.56861 -1.9654 0
M  V30 11710 H 1081.05 0.784078 -4.00395 0
M  V30 11711 H 1079.73 -0.359807 -4.14341 0
M  V30 11712 H 1078.31 1.3463 -3.47749 0
M  V30 11713 N 1080.49 1.57075 -0.12858 0
M  V30 11714 C 1081.42 2.18833 0.814519 0
M  V30 11715 C 1082.4 1.13114 1.2704 0
M  V30 11716 O 1083.59 1.41387 1.33129 0
M  V30 11717 C 1080.72 2.79535 2.06101 0
M  V30 11718 C 1079.67 3.9092 1.74257 0
M  V30 11719 C 1079 4.38473 3.06015 0
M  V30 11720 C 1080.3 5.1257 1.00345 0
M  V30 11721 H 1081.99 2.97895 0.299862 0
M  V30 11722 H 1079.54 1.4329 0.14279 0
M  V30 11723 H 1081.49 3.21401 2.72543 0
M  V30 11724 H 1080.21 1.97777 2.59907 0
M  V30 11725 H 1078.87 3.49645 1.102 0
M  V30 11726 H 1078.52 3.53561 3.57776 0
M  V30 11727 H 1078.22 5.13591 2.85479 0
M  V30 11728 H 1079.75 4.82997 3.7356 0
M  V30 11729 H 1081.16 5.51395 1.56959 0
M  V30 11730 H 1079.56 5.93333 0.898693 0
M  V30 11731 H 1080.63 4.84899 -0.0081335 0
M  V30 11732 N 1081.97 -0.145205 1.5693 0
M  V30 11733 C 1083.19 -0.876386 1.87974 0
M  V30 11734 C 1083.62 -1.73866 0.717795 0
M  V30 11735 O 1082.98 -1.78224 -0.332551 0
M  V30 11736 C 1083.03 -1.70746 3.17613 0
M  V30 11737 O 1082.13 -2.81188 3.01674 0
M  V30 11738 H 1081.47 -0.243987 0.617549 0
M  V30 11739 H 1084 -0.135482 2.04151 0
M  V30 11740 H 1084.01 -2.1021 3.49679 0
M  V30 11741 H 1082.69 -1.07429 4.01786 0
M  V30 11742 H 1081.26 -2.45117 2.81019 0
M  V30 11743 N 1083.45 -1.52049 -0.414609 0
M  V30 11744 C 1084.7 -1.65067 -1.15912 0
M  V30 11745 C 1085.01 -0.383969 -1.91794 0
M  V30 11746 O 1086.22 -0.393872 -2.68628 0
M  V30 11747 C 1084.67 -2.91611 -2.1093 0
M  V30 11748 C 1084.28 -4.25369 -1.4059 0
M  V30 11749 C 1086.02 -3.13992 -2.85674 0
M  V30 11750 C 1083.93 -5.43041 -2.34223 0
M  V30 11751 H 1082.86 -0.614884 -0.436387 0
M  V30 11752 H 1085.51 -1.78533 -0.424072 0
M  V30 11753 H 1083.89 -2.71831 -2.87965 0
M  V30 11754 H 1085.07 -4.55611 -0.689568 0
M  V30 11755 H 1083.38 -4.09047 -0.779088 0
M  V30 11756 H 1085.98 -3.99082 -3.55861 0
M  V30 11757 H 1086.32 -2.27998 -3.48314 0
M  V30 11758 H 1086.86 -3.34217 -2.1574 0
M  V30 11759 H 1083.59 -6.31364 -1.76238 0
M  V30 11760 H 1083.11 -5.17144 -3.03845 0
M  V30 11761 H 1084.79 -5.75901 -2.94868 0
M  V30 11762 N 1084.93 0.6715 -1.42579 0
M  V30 11763 C 1085.88 1.77767 -1.42769 0
M  V30 11764 C 1086.86 1.58106 -0.298568 0
M  V30 11765 O 1088.05 1.68528 -0.541037 0
M  V30 11766 C 1085.18 3.16248 -1.33574 0
M  V30 11767 C 1084.27 3.41521 -2.51445 0
M  V30 11768 N 1084.66 3.37361 -3.76857 0
M  V30 11769 C 1082.96 3.7217 -2.45776 0
M  V30 11770 C 1083.66 3.62209 -4.5517 0
M  V30 11771 N 1082.63 3.83134 -3.85628 0
M  V30 11772 H 1086.43 1.72949 -2.37626 0
M  V30 11773 H 1083.95 0.872467 -1.36974 0
M  V30 11774 H 1085.95 3.9552 -1.31793 0
M  V30 11775 H 1084.61 3.22261 -0.397223 0
M  V30 11776 H 1085.62 3.17187 -4.09406 0
M  V30 11777 H 1082.29 3.85408 -1.6052 0
M  V30 11778 H 1083.68 3.64925 -5.64162 0
M  V30 11779 N 1086.4 1.28806 0.908124 0
M  V30 11780 C 1087.31 1.15079 2.04436 0
M  V30 11781 C 1088.33 0.076012 1.73834 0
M  V30 11782 O 1089.51 0.286421 1.99353 0
M  V30 11783 C 1086.57 0.819733 3.3687 0
M  V30 11784 C 1085.63 1.97746 3.81045 0
M  V30 11785 C 1084.86 1.66211 5.07158 0
M  V30 11786 O 1085.09 0.579092 5.67453 0
M  V30 11787 O 1084.02 2.5075 5.47182 0
M  V30 11788 H 1087.85 2.10477 2.18937 0
M  V30 11789 H 1085.43 1.08177 1.03044 0
M  V30 11790 H 1087.31 0.649304 4.16368 0
M  V30 11791 H 1085.99 -0.10454 3.23531 0
M  V30 11792 H 1084.9 2.20308 3.02349 0
M  V30 11793 H 1086.23 2.88264 3.98955 0
M  V30 11794 N 1087.88 -1.11734 1.11145 0
M  V30 11795 C 1088.83 -2.19765 0.761982 0
M  V30 11796 C 1089.82 -1.67616 -0.24518 0
M  V30 11797 O 1091.03 -1.79695 -0.104781 0
M  V30 11798 H 1087.4 -0.71644 0.228513 0
M  V30 11799 H 1089.38 -2.4649 1.68183 0
M  V30 11800 C 1088.12 -3.47016 0.218057 0
M  V30 11801 H 1087.45 -3.87494 0.984299 0
M  V30 11802 H 1088.89 -4.23998 0.0116825 0
M  V30 11803 C 1087.35 -3.20088 -1.05096 0
M  V30 11804 O 1087.88 -3.40503 -2.1312 0
M  V30 11805 N 1086.08 -2.73844 -0.972523 0
M  V30 11806 H 1085.63 -2.57431 -0.0933459 0
M  V30 11807 H 1085.59 -2.56204 -1.82228 0
M  V30 11808 N 1089.36 -0.901303 -1.29284 0
M  V30 11809 C 1090.27 -0.3849 -2.31421 0
M  V30 11810 C 1091.29 0.521163 -1.66012 0
M  V30 11811 O 1092.46 0.410356 -1.97175 0
M  V30 11812 C 1089.53 0.377804 -3.44635 0
M  V30 11813 C 1088.59 -0.559974 -4.25632 0
M  V30 11814 C 1087.82 0.166425 -5.3344 0
M  V30 11815 O 1088.04 1.39012 -5.53202 0
M  V30 11816 O 1086.98 -0.491875 -5.99887 0
M  V30 11817 H 1090.8 -1.2323 -2.77575 0
M  V30 11818 H 1088.39 -0.665683 -1.3375 0
M  V30 11819 H 1090.27 0.809041 -4.13561 0
M  V30 11820 H 1088.95 1.20124 -3.00586 0
M  V30 11821 H 1087.85 -1.04036 -3.59343 0
M  V30 11822 H 1089.19 -1.34987 -4.73328 0
M  V30 11823 N 1090.84 1.42931 -0.663954 0
M  V30 11824 C 1091.79 2.32577 0.03287 0
M  V30 11825 C 1092.78 1.49217 0.801918 0
M  V30 11826 O 1093.99 1.65358 0.711106 0
M  V30 11827 H 1090.36 0.751424 0.0294198 0
M  V30 11828 H 1092.33 2.89059 -0.740763 0
M  V30 11829 C 1091.08 3.33661 0.978025 0
M  V30 11830 H 1090.4 3.97837 0.395681 0
M  V30 11831 H 1091.84 3.98997 1.43448 0
M  V30 11832 C 1090.3 2.65085 2.07922 0
M  V30 11833 O 1090.83 2.4745 3.16435 0
M  V30 11834 N 1089.04 2.24285 1.84783 0
M  V30 11835 H 1088.59 2.38827 0.965368 0
M  V30 11836 H 1088.54 1.78732 2.58655 0
M  V30 11837 N 1092.32 0.406567 1.52266 0
M  V30 11838 C 1093.56 -0.171391 2.00971 0
M  V30 11839 C 1093.88 -1.46443 1.29668 0
M  V30 11840 O 1095.08 -2.12348 1.69176 0
M  V30 11841 C 1093.54 -0.35599 3.58135 0
M  V30 11842 C 1093.15 0.924803 4.38351 0
M  V30 11843 C 1094.89 -0.889378 4.15079 0
M  V30 11844 C 1092.8 0.707534 5.87152 0
M  V30 11845 H 1091.73 -0.0678253 0.750943 0
M  V30 11846 H 1094.38 0.531619 1.7563 0
M  V30 11847 H 1092.76 -1.12127 3.79794 0
M  V30 11848 H 1093.94 1.69603 4.28452 0
M  V30 11849 H 1092.25 1.38442 3.92712 0
M  V30 11850 H 1094.85 -1.06792 5.23927 0
M  V30 11851 H 1095.19 -1.86334 3.7227 0
M  V30 11852 H 1095.72 -0.183224 3.97378 0
M  V30 11853 H 1092.46 1.65299 6.34316 0
M  V30 11854 H 1091.98 -0.024446 5.99795 0
M  V30 11855 H 1093.66 0.348721 6.4606 0
M  V30 11856 N 1093.79 -1.57004 0.136909 0
M  V30 11857 C 1095.02 -2.00587 -0.527209 0
M  V30 11858 C 1095.44 -1.01628 -1.58283 0
M  V30 11859 O 1094.8 0.00946934 -1.81298 0
M  V30 11860 C 1094.85 -3.42967 -1.11384 0
M  V30 11861 O 1093.95 -3.46973 -2.22898 0
M  V30 11862 H 1093.3 -0.651155 -0.129976 0
M  V30 11863 H 1095.83 -2.03296 0.230667 0
M  V30 11864 H 1095.84 -3.81555 -1.44499 0
M  V30 11865 H 1094.51 -4.14502 -0.340736 0
M  V30 11866 H 1093.09 -3.20219 -1.91087 0
M  V30 11867 N 1095.27 0.136881 -1.57004 0
M  V30 11868 C 1096.22 1.18782 -1.99984 0
M  V30 11869 C 1097.21 1.43899 -0.893841 0
M  V30 11870 O 1098.42 1.44072 -1.07904 0
M  V30 11871 H 1094.8 0.400065 -0.636751 0
M  V30 11872 H 1096.77 0.798696 -2.87512 0
M  V30 11873 C 1095.52 2.51105 -2.40502 0
M  V30 11874 H 1094.84 2.32611 -3.25165 0
M  V30 11875 H 1096.28 3.23244 -2.74389 0
M  V30 11876 C 1094.74 3.12386 -1.26161 0
M  V30 11877 O 1095.27 3.97666 -0.567836 0
M  V30 11878 N 1093.47 2.71989 -1.02326 0
M  V30 11879 H 1093.02 2.02736 -1.58921 0
M  V30 11880 H 1092.98 3.13322 -0.26013 0
M  V30 11881 N 1096.75 1.52266 0.40654 0
M  V30 11882 C 1097.7 1.76409 1.516 0
M  V30 11883 C 1098.69 0.631311 1.57197 0
M  V30 11884 O 1099.9 0.813413 1.60573 0
M  V30 11885 H 1096.27 0.557904 0.50423 0
M  V30 11886 H 1098.24 2.69351 1.28424 0
M  V30 11887 C 1096.99 1.93415 2.88939 0
M  V30 11888 H 1096.32 2.8 2.85377 0
M  V30 11889 H 1097.76 2.14306 3.65854 0
M  V30 11890 C 1096.22 0.701938 3.29506 0
M  V30 11891 O 1096.75 -0.128965 4.01493 0
M  V30 11892 N 1094.95 0.537089 2.85594 0
M  V30 11893 H 1094.5 1.21435 2.27181 0
M  V30 11894 H 1094.46 -0.286055 3.13096 0
M  V30 11895 N 1098.23 -0.663929 1.42933 0
M  V30 11896 C 1099.64 -0.978346 1.26097 0
M  V30 11897 C 1099.84 -2.00756 0.172968 0
M  V30 11898 O 1098.9 -2.48418 -0.452184 0
M  V30 11899 C 1100.21 -1.4728 2.62162 0
M  V30 11900 C 1101.76 -1.59001 2.69606 0
M  V30 11901 C 1102.24 -2.1184 4.06064 0
M  V30 11902 N 1103.73 -2.19158 4.08074 0
M  V30 11903 C 1104.46 -2.61141 5.10483 0
M  V30 11904 N 1103.96 -3.02498 6.23271 0
M  V30 11905 N 1105.75 -2.60986 4.97838 0
M  V30 11906 H 1097.9 0.0173096 2.12393 0
M  V30 11907 H 1100.17 -0.0548116 0.946414 0
M  V30 11908 H 1099.87 -0.791008 3.42689 0
M  V30 11909 H 1099.75 -2.4497 2.86827 0
M  V30 11910 H 1102.13 -2.26284 1.89418 0
M  V30 11911 H 1102.21 -0.597728 2.48718 0
M  V30 11912 H 1101.86 -1.45162 4.86714 0
M  V30 11913 H 1101.79 -3.1188 4.2431 0
M  V30 11914 H 1104.28 -1.90013 3.26655 0
M  V30 11915 H 1104.59 -3.33251 6.97254 0
M  V30 11916 H 1102.94 -3.00328 6.2676 0
M  V30 11917 H 1106.13 -2.28046 4.08794 0
M  V30 11918 H 1106.3 -2.93384 5.7778 0
M  V30 11919 N 1099.71 -1.29285 -0.901281 0
M  V30 11920 C 1100.65 -1.14159 -2.02659 0
M  V30 11921 C 1101.65 -0.0575887 -1.69302 0
M  V30 11922 O 1102.85 -0.217273 -1.78684 0
M  V30 11923 H 1099.23 -0.352584 -0.66422 0
M  V30 11924 H 1101.2 -2.09434 -2.12555 0
M  V30 11925 C 1099.95 -0.833253 -3.37568 0
M  V30 11926 H 1099.27 -1.65939 -3.63737 0
M  V30 11927 H 1100.71 -0.767436 -4.16997 0
M  V30 11928 C 1099.17 0.46344 -3.33697 0
M  V30 11929 O 1099.7 1.48998 -3.73045 0
M  V30 11930 N 1097.91 0.468709 -2.86795 0
M  V30 11931 H 1097.45 -0.36712 -2.54971 0
M  V30 11932 H 1097.41 1.3363 -2.84588 0
M  V30 11933 N 1101.18 1.11143 -1.11736 0
M  V30 11934 C 1102.42 1.84576 -0.878119 0
M  V30 11935 C 1102.79 1.82851 0.585605 0
M  V30 11936 O 1103.99 2.51763 0.941732 0
M  V30 11937 C 1102.26 3.27628 -1.4281 0
M  V30 11938 S 1103.82 4.18276 -1.3263 0
M  V30 11939 H 1100.64 0.636442 -0.316958 0
M  V30 11940 H 1103.24 1.33794 -1.42546 0
M  V30 11941 H 1101.94 3.2645 -2.48714 0
M  V30 11942 H 1101.47 3.83479 -0.877925 0
M  V30 11943 H 1103.49 4.95335 -0.292878 0
M  V30 11944 N 1102.66 0.908147 1.28804 0
M  V30 11945 C 1103.61 0.390734 2.27468 0
M  V30 11946 C 1104.58 -0.531765 1.57358 0
M  V30 11947 O 1105.76 -0.455177 1.85291 0
M  V30 11948 C 1102.9 -0.368159 3.43131 0
M  V30 11949 C 1102.02 0.586202 4.28004 0
M  V30 11950 C 1101.15 -0.190581 5.30858 0
M  V30 11951 C 1100.19 0.757758 6.07391 0
M  V30 11952 N 1099.33 0.0148488 7.02098 0
M  V30 11953 H 1104.17 1.23717 2.71105 0
M  V30 11954 H 1101.71 0.621382 1.33331 0
M  V30 11955 H 1103.66 -0.824289 4.08976 0
M  V30 11956 H 1102.29 -1.17898 3.00499 0
M  V30 11957 H 1101.35 1.16086 3.62254 0
M  V30 11958 H 1102.66 1.31177 4.81242 0
M  V30 11959 H 1101.81 -0.707528 6.0256 0
M  V30 11960 H 1100.55 -0.949234 4.78373 0
M  V30 11961 H 1099.56 1.28613 5.34545 0
M  V30 11962 H 1100.78 1.51588 6.61965 0
M  V30 11963 H 1098.73 -0.725916 6.51971 0
M  V30 11964 H 1098.64 0.680347 7.52932 0
M  V30 11965 H 1099.91 -0.482086 7.78008 0
M  V30 11966 N 1104.14 -1.42577 0.671525 0
M  V30 11967 C 1105.09 -2.32591 -0.0205354 0
M  V30 11968 C 1106.08 -1.4964 -0.793993 0
M  V30 11969 O 1107.29 -1.65733 -0.702327 0
M  V30 11970 H 1103.66 -0.75157 -0.0254344 0
M  V30 11971 H 1105.63 -2.88662 0.756082 0
M  V30 11972 C 1104.38 -3.34175 -0.960316 0
M  V30 11973 H 1103.71 -3.98041 -0.374577 0
M  V30 11974 H 1105.15 -3.99752 -1.4133 0
M  V30 11975 C 1103.61 -2.66184 -2.06513 0
M  V30 11976 O 1104.14 -2.49125 -3.15119 0
M  V30 11977 N 1102.34 -2.25261 -1.83591 0
M  V30 11978 H 1101.89 -2.39336 -0.952689 0
M  V30 11979 H 1101.85 -1.80101 -2.57703 0
M  V30 11980 N 1105.62 -0.414636 -1.52048 0
M  V30 11981 C 1106.85 0.158686 -2.06291 0
M  V30 11982 C 1107.26 1.38397 -1.2842 0
M  V30 11983 O 1106.62 1.79351 -0.337539 0
M  V30 11984 C 1106.67 0.503634 -3.57975 0
M  V30 11985 O 1106.39 -0.672996 -4.329 0
M  V30 11986 C 1107.89 1.13009 -4.28653 0
M  V30 11987 H 1105.11 0.0179622 -0.67076 0
M  V30 11988 H 1107.66 -0.587177 -1.95889 0
M  V30 11989 H 1105.81 1.19939 -3.68366 0
M  V30 11990 H 1106.22 -0.383735 -5.23094 0
M  V30 11991 H 1107.7 1.32162 -5.35945 0
M  V30 11992 H 1108.18 2.10476 -3.85482 0
M  V30 11993 H 1108.78 0.474379 -4.22646 0
M  V30 11994 N 1107.1 1.56929 -0.145233 0
M  V30 11995 C 1108.06 2.15483 0.781002 0
M  V30 11996 C 1109.06 1.09617 1.17647 0
M  V30 11997 O 1110.25 1.35265 1.09768 0
M  V30 11998 C 1107.38 2.7165 2.05959 0
M  V30 11999 H 1108.57 2.98667 0.271685 0
M  V30 12000 H 1106.13 1.55952 0.1042 0
M  V30 12001 H 1106.86 1.92127 2.61262 0
M  V30 12002 H 1106.65 3.491 1.78526 0
M  V30 12003 H 1108.14 3.16769 2.72116 0
M  V30 12004 N 1108.58 -0.128553 1.57075 0
M  V30 12005 C 1109.49 -1.17718 2.02927 0
M  V30 12006 C 1110.5 -1.45912 0.947932 0
M  V30 12007 O 1111.68 -1.57217 1.25876 0
M  V30 12008 C 1108.74 -2.48625 2.41633 0
M  V30 12009 C 1107.8 -2.27914 3.63804 0
M  V30 12010 C 1107.04 -3.52579 4.00654 0
M  V30 12011 O 1107.26 -4.59505 3.37952 0
M  V30 12012 O 1106.19 -3.44147 4.93808 0
M  V30 12013 H 1110.02 -0.817846 2.92481 0
M  V30 12014 H 1107.6 -0.338649 1.45511 0
M  V30 12015 H 1109.49 -3.2577 2.67305 0
M  V30 12016 H 1108.16 -2.84052 1.55229 0
M  V30 12017 H 1107.07 -1.4866 3.43294 0
M  V30 12018 H 1108.4 -1.97395 4.50883 0
M  V30 12019 N 1110.05 -1.5248 -0.398459 0
M  V30 12020 C 1111 -1.77211 -1.50662 0
M  V30 12021 C 1112 -0.639638 -1.5686 0
M  V30 12022 O 1113.2 -0.821917 -1.60139 0
M  V30 12023 H 1109.58 -0.56057 -0.501264 0
M  V30 12024 H 1111.55 -2.70028 -1.26993 0
M  V30 12025 C 1110.3 -1.94944 -2.8791 0
M  V30 12026 H 1109.62 -2.8151 -2.83888 0
M  V30 12027 H 1111.06 -2.16243 -3.64712 0
M  V30 12028 C 1109.52 -0.719402 -3.29129 0
M  V30 12029 O 1110.05 0.107671 -4.01556 0
M  V30 12030 N 1108.25 -0.552228 -2.85305 0
M  V30 12031 H 1107.8 -1.22638 -2.26534 0
M  V30 12032 H 1107.76 0.269447 -3.13243 0
M  V30 12033 N 1111.53 0.65634 -1.43283 0
M  V30 12034 C 1112.44 1.79847 -1.50639 0
M  V30 12035 C 1113.46 1.69487 -0.393714 0
M  V30 12036 O 1114.63 1.90712 -0.647379 0
M  V30 12037 C 1111.7 3.16107 -1.42398 0
M  V30 12038 C 1110.76 3.38287 -2.64312 0
M  V30 12039 C 1109.99 4.68046 -2.56454 0
M  V30 12040 O 1110.22 5.4719 -1.61056 0
M  V30 12041 O 1109.15 4.91877 -3.46902 0
M  V30 12042 H 1112.98 1.76596 -2.47078 0
M  V30 12043 H 1110.56 0.814428 -1.25249 0
M  V30 12044 H 1112.44 3.97382 -1.40233 0
M  V30 12045 H 1111.12 3.19956 -0.490929 0
M  V30 12046 H 1110.02 2.56788 -2.72049 0
M  V30 12047 H 1111.36 3.39282 -3.56579 0
M  V30 12048 N 1113.01 1.29761 0.894412 0
M  V30 12049 C 1113.96 1.15341 1.99912 0
M  V30 12050 C 1114.93 0.0453488 1.66038 0
M  V30 12051 O 1116.11 0.213829 1.89598 0
M  V30 12052 C 1113.25 0.841432 3.34685 0
M  V30 12053 C 1112.36 2.03046 3.81309 0
M  V30 12054 C 1111.5 1.65739 5.04682 0
M  V30 12055 C 1110.54 2.81191 5.43689 0
M  V30 12056 N 1109.68 2.44244 6.58247 0
M  V30 12057 H 1114.52 2.09854 2.11578 0
M  V30 12058 H 1112.05 1.04421 1.03608 0
M  V30 12059 H 1114.01 0.641211 4.12243 0
M  V30 12060 H 1112.64 -0.066797 3.22731 0
M  V30 12061 H 1111.69 2.34222 2.9974 0
M  V30 12062 H 1113 2.89538 4.06164 0
M  V30 12063 H 1112.16 1.42036 5.8984 0
M  V30 12064 H 1110.9 0.764019 4.81678 0
M  V30 12065 H 1109.9 3.0557 4.57064 0
M  V30 12066 H 1111.13 3.712 5.68672 0
M  V30 12067 H 1109.07 1.57402 6.36837 0
M  V30 12068 H 1108.99 3.24269 6.82924 0
M  V30 12069 H 1110.26 2.23875 7.46659 0
M  V30 12070 N 1114.49 -1.10549 1.12324 0
M  V30 12071 C 1115.4 -2.20428 0.803032 0
M  V30 12072 C 1116.41 -1.72756 -0.207674 0
M  V30 12073 O 1117.59 -2.01357 -0.0415623 0
M  V30 12074 C 1114.65 -3.45716 0.261032 0
M  V30 12075 C 1113.72 -4.08129 1.33152 0
M  V30 12076 C 1112.95 -5.27436 0.815288 0
M  V30 12077 O 1113.17 -5.69317 -0.351361 0
M  V30 12078 O 1112.11 -5.80674 1.58434 0
M  V30 12079 H 1115.93 -2.50249 1.72073 0
M  V30 12080 H 1113.52 -1.19263 0.899815 0
M  V30 12081 H 1115.4 -4.21384 -0.0364007 0
M  V30 12082 H 1114.07 -3.17525 -0.629249 0
M  V30 12083 H 1112.98 -3.3415 1.6821 0
M  V30 12084 H 1114.31 -4.4052 2.19552 0
M  V30 12085 N 1115.97 -0.914965 -1.28321 0
M  V30 12086 C 1116.88 -0.409424 -2.31 0
M  V30 12087 C 1117.89 0.503526 -1.66555 0
M  V30 12088 O 1119.07 0.38942 -1.97599 0
M  V30 12089 C 1116.13 0.34123 -3.45017 0
M  V30 12090 C 1115.19 -0.605087 -4.25014 0
M  V30 12091 C 1114.43 0.109837 -5.33587 0
M  V30 12092 O 1114.65 1.33136 -5.54645 0
M  V30 12093 O 1113.58 -0.555474 -5.99331 0
M  V30 12094 H 1117.41 -1.26167 -2.76253 0
M  V30 12095 H 1114.99 -0.679831 -1.33036 0
M  V30 12096 H 1116.88 0.765132 -4.14396 0
M  V30 12097 H 1115.55 1.16929 -3.01843 0
M  V30 12098 H 1114.46 -1.07841 -3.58219 0
M  V30 12099 H 1115.79 -1.39999 -4.7187 0
M  V30 12100 N 1117.44 1.42219 -0.679077 0
M  V30 12101 C 1118.39 2.308 -0.00340316 0
M  V30 12102 C 1119.36 1.462 0.788334 0
M  V30 12103 O 1120.55 1.75023 0.759716 0
M  V30 12104 C 1117.69 3.32084 0.938854 0
M  V30 12105 C 1116.8 4.31772 0.140485 0
M  V30 12106 C 1115.93 5.20128 1.07888 0
M  V30 12107 C 1114.97 6.11493 0.27245 0
M  V30 12108 N 1114.11 6.92388 1.16378 0
M  V30 12109 H 1118.95 2.88024 -0.764587 0
M  V30 12110 H 1116.49 1.41869 -0.38878 0
M  V30 12111 H 1118.44 3.89339 1.49903 0
M  V30 12112 H 1117.07 2.76448 1.66662 0
M  V30 12113 H 1116.13 3.76599 -0.536376 0
M  V30 12114 H 1117.44 4.96432 -0.485433 0
M  V30 12115 H 1116.59 5.82137 1.70884 0
M  V30 12116 H 1115.33 4.55655 1.73868 0
M  V30 12117 H 1114.34 5.48549 -0.370693 0
M  V30 12118 H 1115.56 6.78017 -0.383315 0
M  V30 12119 H 1113.51 6.30538 1.8099 0
M  V30 12120 H 1113.42 7.5367 0.593043 0
M  V30 12121 H 1114.69 7.58879 1.78107 0
M  V30 12122 N 1118.92 0.422693 1.51826 0
M  V30 12123 C 1120.17 -0.148861 2.02253 0
M  V30 12124 C 1120.5 -1.43629 1.30707 0
M  V30 12125 O 1119.78 -1.89967 0.417482 0
M  V30 12126 C 1120.06 -0.382672 3.58061 0
M  V30 12127 C 1119.91 0.922386 4.40241 0
M  V30 12128 C 1121.23 -1.1589 4.24567 0
M  V30 12129 H 1118.35 -0.0526279 0.735119 0
M  V30 12130 H 1120.99 0.558821 1.81596 0
M  V30 12131 H 1119.14 -0.985495 3.75793 0
M  V30 12132 H 1120.81 1.55806 4.34191 0
M  V30 12133 H 1119.06 1.53032 4.05911 0
M  V30 12134 H 1119.73 0.713012 5.47376 0
M  V30 12135 H 1122.2 -0.648415 4.11017 0
M  V30 12136 H 1121.08 -1.29125 5.33496 0
M  V30 12137 H 1121.34 -2.18315 3.84436 0
M  V30 12138 N 1120.4 -1.5685 0.153553 0
M  V30 12139 C 1121.81 -1.83074 -0.36618 0
M  V30 12140 C 1122.16 -1.07257 -1.64288 0
M  V30 12141 O 1121.29 -0.319925 -2.14022 0
M  V30 12142 C 1121.88 -3.32086 -0.671142 0
M  V30 12143 C 1120.44 -3.58868 -1.13537 0
M  V30 12144 C 1119.59 -2.76827 -0.161887 0
M  V30 12145 H 1122.54 -1.54129 0.378139 0
M  V30 12146 H 1122.56 -3.48598 -1.52512 0
M  V30 12147 H 1122.07 -3.8724 0.258234 0
M  V30 12148 H 1120.17 -3.09107 -2.08047 0
M  V30 12149 H 1120.29 -4.67299 -1.05682 0
M  V30 12150 H 1118.65 -2.46112 -0.6558 0
M  V30 12151 H 1119.43 -3.34755 0.761195 0
M  V30 12152 N 1121.88 0.120221 -1.57141 0
M  V30 12153 C 1123.12 0.828222 -1.84788 0
M  V30 12154 C 1123.45 1.79936 -0.738459 0
M  V30 12155 O 1122.71 1.93824 0.270295 0
M  V30 12156 C 1123.01 1.61338 -3.18912 0
M  V30 12157 C 1122.67 0.786637 -4.43985 0
M  V30 12158 C 1121.33 0.558645 -4.77946 0
M  V30 12159 C 1123.69 0.210281 -5.20776 0
M  V30 12160 C 1121.01 -0.255975 -5.86141 0
M  V30 12161 C 1123.37 -0.591523 -6.29828 0
M  V30 12162 C 1122.03 -0.829843 -6.62322 0
M  V30 12163 H 1121.3 0.303068 -0.676188 0
M  V30 12164 H 1123.95 0.0906538 -1.91285 0
M  V30 12165 H 1122.25 2.42182 -3.07986 0
M  V30 12166 H 1123.95 2.16513 -3.37525 0
M  V30 12167 H 1120.54 0.974426 -4.17376 0
M  V30 12168 H 1124.72 0.373641 -4.94892 0
M  V30 12169 H 1119.98 -0.449849 -6.09743 0
M  V30 12170 H 1124.15 -1.04512 -6.88513 0
M  V30 12171 H 1121.78 -1.4629 -7.45992 0
M  V30 12172 N 1123.36 1.52689 0.390367 0
M  V30 12173 C 1124.6 1.67666 1.13553 0
M  V30 12174 C 1124.93 0.415903 1.90001 0
M  V30 12175 O 1124.19 -0.601664 1.86222 0
M  V30 12176 C 1124.49 2.86177 2.14096 0
M  V30 12177 C 1124.15 4.23671 1.54316 0
M  V30 12178 C 1122.81 4.61066 1.37739 0
M  V30 12179 C 1125.17 5.09278 1.1084 0
M  V30 12180 C 1122.49 5.81727 0.76231 0
M  V30 12181 C 1124.85 6.30562 0.507433 0
M  V30 12182 C 1123.51 6.66689 0.328945 0
M  V30 12183 H 1122.78 0.613533 0.415521 0
M  V30 12184 H 1125.43 1.8683 0.420339 0
M  V30 12185 H 1123.73 2.61424 2.9183 0
M  V30 12186 H 1125.43 2.9496 2.7166 0
M  V30 12187 H 1122.02 3.94214 1.68207 0
M  V30 12188 H 1126.2 4.80957 1.2245 0
M  V30 12189 H 1121.46 6.08327 0.612208 0
M  V30 12190 H 1125.63 6.96211 0.162248 0
M  V30 12191 H 1123.26 7.60052 -0.149748 0
M  V30 12192 N 1124.83 -0.648732 1.43629 0
M  V30 12193 C 1125.78 -1.76145 1.49136 0
M  V30 12194 C 1126.75 -1.62569 0.340649 0
M  V30 12195 O 1127.94 -1.82748 0.548435 0
M  V30 12196 C 1125.08 -3.14321 1.42466 0
M  V30 12197 C 1124.19 -3.38999 2.67776 0
M  V30 12198 C 1123.32 -4.67047 2.53062 0
M  V30 12199 C 1122.36 -4.84845 3.7362 0
M  V30 12200 N 1121.5 -6.04155 3.57689 0
M  V30 12201 H 1126.34 -1.70774 2.44213 0
M  V30 12202 H 1123.88 -0.833311 1.2122 0
M  V30 12203 H 1125.84 -3.94206 1.36592 0
M  V30 12204 H 1124.47 -3.18751 0.509666 0
M  V30 12205 H 1123.52 -2.53179 2.83909 0
M  V30 12206 H 1124.83 -3.48035 3.57314 0
M  V30 12207 H 1123.98 -5.55066 2.44922 0
M  V30 12208 H 1122.72 -4.60339 1.61056 0
M  V30 12209 H 1121.73 -3.95261 3.82163 0
M  V30 12210 H 1122.95 -4.9338 4.6664 0
M  V30 12211 H 1120.9 -5.9857 2.6842 0
M  V30 12212 H 1120.82 -6.14169 4.40832 0
M  V30 12213 H 1122.08 -6.94782 3.53409 0
M  V30 12214 N 1126.31 -1.30234 -0.887518 0
M  V30 12215 C 1127.73 -1.0851 -1.17037 0
M  V30 12216 C 1127.93 0.155788 -2.00897 0
M  V30 12217 O 1126.98 0.850123 -2.37759 0
M  V30 12218 C 1128.3 -2.34723 -1.87951 0
M  V30 12219 C 1129.85 -2.40163 -2.00726 0
M  V30 12220 C 1130.32 -3.66211 -2.75051 0
M  V30 12221 N 1131.81 -3.67004 -2.82599 0
M  V30 12222 C 1132.55 -4.61224 -3.40676 0
M  V30 12223 N 1132.04 -5.65786 -3.99823 0
M  V30 12224 N 1133.84 -4.48772 -3.38467 0
M  V30 12225 H 1125.99 -2.09847 -0.328297 0
M  V30 12226 H 1128.25 -0.924904 -0.20798 0
M  V30 12227 H 1127.96 -3.25265 -1.33773 0
M  V30 12228 H 1127.83 -2.43175 -2.8835 0
M  V30 12229 H 1130.22 -1.50101 -2.54074 0
M  V30 12230 H 1130.3 -2.35688 -0.994218 0
M  V30 12231 H 1129.94 -4.56631 -2.22376 0
M  V30 12232 H 1129.87 -3.67947 -3.76726 0
M  V30 12233 H 1132.36 -2.91409 -2.40602 0
M  V30 12234 H 1132.68 -6.33783 -4.42197 0
M  V30 12235 H 1131.02 -5.69581 -3.9825 0
M  V30 12236 H 1134.21 -3.6627 -2.91485 0
M  V30 12237 H 1134.38 -5.22382 -3.83433 0
M  V30 12238 N 1127.79 1.09952 -1.12909 0
M  V30 12239 C 1128.72 2.15689 -0.745217 0
M  V30 12240 C 1129.7 1.60409 0.266007 0
M  V30 12241 O 1130.89 1.8783 0.158783 0
M  V30 12242 C 1128.01 3.38541 -0.103846 0
M  V30 12243 C 1127.06 4.12529 -1.0827 0
M  V30 12244 S 1127.89 4.67442 -2.61262 0
M  V30 12245 C 1129.05 5.936 -1.9847 0
M  V30 12246 H 1129.28 2.47918 -1.64086 0
M  V30 12247 H 1126.81 1.21817 -0.948682 0
M  V30 12248 H 1128.77 4.09677 0.259816 0
M  V30 12249 H 1127.43 3.04541 0.768982 0
M  V30 12250 H 1126.63 5.00632 -0.581653 0
M  V30 12251 H 1126.23 3.47228 -1.38955 0
M  V30 12252 H 1128.52 6.64308 -1.33048 0
M  V30 12253 H 1129.46 6.48374 -2.84634 0
M  V30 12254 H 1129.87 5.45864 -1.43848 0
M  V30 12255 N 1129.27 0.921757 1.27833 0
M  V30 12256 C 1130.52 0.559078 1.94629 0
M  V30 12257 C 1130.84 -0.898641 1.72495 0
M  V30 12258 O 1130.1 -1.65546 1.0437 0
M  V30 12259 C 1130.4 0.824259 3.47765 0
M  V30 12260 C 1130.06 2.26278 3.90011 0
M  V30 12261 C 1128.73 2.65607 4.01256 0
M  V30 12262 C 1131.08 3.19853 4.11513 0
M  V30 12263 C 1128.41 3.97646 4.31387 0
M  V30 12264 C 1130.76 4.51467 4.43126 0
M  V30 12265 C 1129.42 4.90637 4.52583 0
M  V30 12266 H 1128.69 0.204581 0.712199 0
M  V30 12267 H 1131.34 1.1646 1.52018 0
M  V30 12268 H 1129.64 0.136011 3.91564 0
M  V30 12269 H 1131.34 0.522701 3.97579 0
M  V30 12270 H 1127.93 1.94765 3.81791 0
M  V30 12271 H 1132.11 2.90674 4.02271 0
M  V30 12272 H 1127.37 4.27685 4.36916 0
M  V30 12273 H 1131.54 5.23982 4.58711 0
M  V30 12274 H 1129.17 5.92982 4.75685 0
M  V30 12275 N 1130.75 -1.41857 0.686609 0
M  V30 12276 C 1132.16 -1.55549 0.357288 0
M  V30 12277 C 1132.36 -1.66394 -1.13646 0
M  V30 12278 O 1131.42 -1.63739 -1.92213 0
M  V30 12279 C 1132.73 -2.79938 1.09796 0
M  V30 12280 C 1134.28 -2.93724 1.08143 0
M  V30 12281 C 1134.75 -4.20989 1.80367 0
M  V30 12282 N 1136.25 -4.27927 1.77293 0
M  V30 12283 C 1136.98 -5.2524 2.30022 0
M  V30 12284 N 1136.48 -6.28636 2.91185 0
M  V30 12285 N 1138.27 -5.17118 2.20329 0
M  V30 12286 H 1130.42 -1.33063 1.65554 0
M  V30 12287 H 1132.68 -0.641335 0.698135 0
M  V30 12288 H 1132.39 -2.78104 2.15293 0
M  V30 12289 H 1132.26 -3.71188 0.670763 0
M  V30 12290 H 1134.65 -2.9508 0.0347554 0
M  V30 12291 H 1134.73 -2.03673 1.54761 0
M  V30 12292 H 1134.38 -4.20395 2.85009 0
M  V30 12293 H 1134.31 -5.09997 1.3119 0
M  V30 12294 H 1136.8 -3.53838 1.32692 0
M  V30 12295 H 1137.11 -6.99265 3.29011 0
M  V30 12296 H 1135.45 -6.29164 2.95259 0
M  V30 12297 H 1138.65 -4.35265 1.72226 0
M  V30 12298 H 1138.82 -5.92792 2.61728 0
M  V30 12299 N 1132.22 -0.430739 -1.51599 0
M  V30 12300 C 1133.64 -0.0826902 -1.59386 0
M  V30 12301 C 1133.84 1.40729 -1.44214 0
M  V30 12302 O 1132.9 2.1765 -1.28002 0
M  V30 12303 C 1134.21 -0.59691 -2.94716 0
M  V30 12304 C 1135.76 -0.556772 -3.08008 0
M  V30 12305 C 1136.23 -1.04786 -4.45852 0
M  V30 12306 N 1137.72 -1.00557 -4.52153 0
M  V30 12307 C 1138.46 -1.35649 -5.57124 0
M  V30 12308 N 1137.95 -1.77994 -6.69545 0
M  V30 12309 N 1139.75 -1.27508 -5.47447 0
M  V30 12310 H 1131.9 -1.40027 -1.59707 0
M  V30 12311 H 1134.16 -0.576606 -0.752482 0
M  V30 12312 H 1133.87 -1.63914 -3.11167 0
M  V30 12313 H 1133.74 -0.0182342 -3.77196 0
M  V30 12314 H 1136.13 0.476457 -2.91228 0
M  V30 12315 H 1136.21 -1.17177 -2.27383 0
M  V30 12316 H 1135.85 -2.07952 -4.63377 0
M  V30 12317 H 1135.78 -0.409461 -5.25006 0
M  V30 12318 H 1138.27 -0.694518 -3.71463 0
M  V30 12319 H 1138.59 -2.03026 -7.45654 0
M  V30 12320 H 1136.93 -1.81916 -6.70769 0
M  V30 12321 H 1140.12 -0.942969 -4.58504 0
M  V30 12322 H 1140.3 -1.55185 -6.29143 0
M  V30 12323 N 1133.7 1.56767 -0.161869 0
M  V30 12324 C 1134.65 2.17502 0.772102 0
M  V30 12325 C 1135.62 1.11223 1.23364 0
M  V30 12326 O 1136.8 1.39332 1.30351 0
M  V30 12327 C 1133.94 2.81248 1.99984 0
M  V30 12328 C 1133.06 4.01962 1.58274 0
M  V30 12329 C 1132.19 4.53662 2.76341 0
M  V30 12330 C 1131.23 5.66807 2.31076 0
M  V30 12331 N 1130.37 6.13059 3.42203 0
M  V30 12332 H 1135.21 2.96971 0.247382 0
M  V30 12333 H 1132.75 1.46685 0.110382 0
M  V30 12334 H 1134.7 3.16359 2.7198 0
M  V30 12335 H 1133.33 2.04398 2.49842 0
M  V30 12336 H 1132.39 3.72733 0.759874 0
M  V30 12337 H 1133.7 4.83891 1.2104 0
M  V30 12338 H 1132.85 4.90905 3.56507 0
M  V30 12339 H 1131.59 3.7077 3.16829 0
M  V30 12340 H 1130.6 5.29125 1.49354 0
M  V30 12341 H 1131.82 6.51494 1.91657 0
M  V30 12342 H 1129.77 5.33099 3.82285 0
M  V30 12343 H 1129.68 6.89953 3.09033 0
M  V30 12344 H 1130.95 6.54951 4.22682 0
M  V30 12345 N 1135.18 -0.111886 1.57202 0
M  V30 12346 C 1136.13 -1.13688 2.00858 0
M  V30 12347 C 1137.1 -1.40752 0.881939 0
M  V30 12348 O 1138.28 -1.52498 1.14669 0
M  V30 12349 C 1135.42 -2.45641 2.42393 0
M  V30 12350 C 1134.54 -2.25452 3.68504 0
M  V30 12351 C 1133.67 -3.50686 3.9899 0
M  V30 12352 C 1132.71 -3.25685 5.18262 0
M  V30 12353 N 1131.85 -4.4314 5.44583 0
M  V30 12354 H 1136.69 -0.757611 2.88209 0
M  V30 12355 H 1134.22 -0.362582 1.42561 0
M  V30 12356 H 1136.18 -3.22627 2.64514 0
M  V30 12357 H 1134.81 -2.81447 1.58074 0
M  V30 12358 H 1133.86 -1.39349 3.53958 0
M  V30 12359 H 1135.18 -2.0296 4.55641 0
M  V30 12360 H 1134.33 -4.36087 4.21797 0
M  V30 12361 H 1133.07 -3.76216 3.10343 0
M  V30 12362 H 1132.07 -2.38675 4.95292 0
M  V30 12363 H 1133.3 -3.01518 6.08493 0
M  V30 12364 H 1131.24 -4.68778 4.58893 0
M  V30 12365 H 1131.16 -4.23778 6.26058 0
M  V30 12366 H 1132.43 -5.29654 5.71915 0
M  V30 12367 N 1136.66 -1.52894 -0.382264 0
M  V30 12368 C 1137.61 -1.78151 -1.46734 0
M  V30 12369 C 1138.58 -0.625034 -1.53891 0
M  V30 12370 O 1139.76 -0.865467 -1.70042 0
M  V30 12371 C 1136.9 -1.96223 -2.83885 0
M  V30 12372 C 1136.01 -3.23925 -2.85826 0
M  V30 12373 C 1135.15 -3.32277 -4.14446 0
M  V30 12374 C 1134.19 -4.54076 -4.10465 0
M  V30 12375 N 1133.32 -4.59672 -5.30703 0
M  V30 12376 H 1138.16 -2.70748 -1.24497 0
M  V30 12377 H 1135.7 -1.34135 -0.603838 0
M  V30 12378 H 1137.66 -2.04686 -3.63537 0
M  V30 12379 H 1136.29 -1.0698 -3.04557 0
M  V30 12380 H 1135.34 -3.245 -1.98505 0
M  V30 12381 H 1136.65 -4.1364 -2.78754 0
M  V30 12382 H 1135.81 -3.3996 -5.02506 0
M  V30 12383 H 1134.55 -2.40548 -4.2425 0
M  V30 12384 H 1133.55 -4.46511 -3.20793 0
M  V30 12385 H 1134.78 -5.47128 -4.02278 0
M  V30 12386 H 1132.72 -3.70838 -5.41124 0
M  V30 12387 H 1132.64 -5.43268 -5.25734 0
M  V30 12388 H 1133.91 -4.71618 -6.20642 0
M  V30 12389 N 1138.14 0.641106 -1.43971 0
M  V30 12390 C 1139.1 1.73539 -1.49723 0
M  V30 12391 C 1140.1 1.56235 -0.380438 0
M  V30 12392 O 1141.29 1.61912 -0.642673 0
M  V30 12393 C 1138.42 3.1253 -1.36153 0
M  V30 12394 H 1139.62 1.69816 -2.47189 0
M  V30 12395 H 1137.17 0.853867 -1.30915 0
M  V30 12396 H 1137.9 3.21856 -0.39742 0
M  V30 12397 H 1137.69 3.26496 -2.17124 0
M  V30 12398 H 1139.18 3.92303 -1.43138 0
M  V30 12399 N 1139.62 1.30703 0.880598 0
M  V30 12400 C 1141.03 1.17818 1.4483 0
M  V30 12401 C 1141.38 -0.219456 1.94969 0
M  V30 12402 O 1140.5 -1.11646 1.85375 0
M  V30 12403 C 1141.1 2.13275 2.63247 0
M  V30 12404 C 1139.66 2.04356 3.16094 0
M  V30 12405 C 1138.8 2.03108 1.88792 0
M  V30 12406 H 1141.75 1.42909 0.690125 0
M  V30 12407 H 1141.78 1.71615 3.39601 0
M  V30 12408 H 1141.29 3.14988 2.26725 0
M  V30 12409 H 1139.39 1.058 3.57263 0
M  V30 12410 H 1139.5 2.92953 3.79098 0
M  V30 12411 H 1137.87 1.47971 2.07308 0
M  V30 12412 H 1138.65 3.06558 1.54521 0
M  V30 12413 N 1141.09 -1.09351 1.1349 0
M  V30 12414 C 1142.04 -2.18099 0.808426 0
M  V30 12415 C 1143.04 -1.68099 -0.209571 0
M  V30 12416 O 1144.24 -1.79877 -0.0666417 0
M  V30 12417 H 1140.62 -0.711432 0.243658 0
M  V30 12418 H 1142.59 -2.42867 1.73373 0
M  V30 12419 C 1141.34 -3.46475 0.291615 0
M  V30 12420 H 1140.66 -3.85319 1.06627 0
M  V30 12421 H 1142.1 -4.23878 0.101616 0
M  V30 12422 C 1140.56 -3.22245 -0.982827 0
M  V30 12423 O 1141.09 -3.44947 -2.0585 0
M  V30 12424 N 1139.29 -2.75845 -0.914218 0
M  V30 12425 H 1138.84 -2.57571 -0.03872 0
M  V30 12426 H 1138.8 -2.60011 -1.76753 0
M  V30 12427 N 1142.57 -0.928524 -1.27343 0
M  V30 12428 C 1143.52 -0.418768 -2.28799 0
M  V30 12429 C 1144.51 0.497334 -1.61935 0
M  V30 12430 O 1145.72 0.376945 -1.76009 0
M  V30 12431 H 1142.09 -0.116855 -0.742865 0
M  V30 12432 H 1144.07 -1.28725 -2.69207 0
M  V30 12433 C 1142.81 0.312422 -3.46294 0
M  V30 12434 H 1142.14 -0.383317 -3.97958 0
M  V30 12435 H 1143.58 0.633514 -4.19241 0
M  V30 12436 C 1142.04 1.5257 -3.00373 0
M  V30 12437 O 1142.57 2.62443 -3.04116 0
M  V30 12438 N 1140.77 1.37782 -2.5586 0
M  V30 12439 H 1140.32 0.483908 -2.53014 0
M  V30 12440 H 1140.28 2.19085 -2.25498 0
M  V30 12441 N 1144.05 1.41491 -0.694123 0
M  V30 12442 C 1144.98 2.33462 -0.0422169 0
M  V30 12443 C 1145.96 1.51739 0.76872 0
M  V30 12444 O 1147.15 1.8028 0.721985 0
M  V30 12445 C 1144.28 3.35545 0.895925 0
M  V30 12446 C 1143.23 4.27568 0.192188 0
M  V30 12447 C 1142.56 5.20014 1.24459 0
M  V30 12448 C 1143.86 5.1376 -0.940626 0
M  V30 12449 H 1145.55 2.88225 -0.810363 0
M  V30 12450 H 1143.1 1.38586 -0.39114 0
M  V30 12451 H 1145.05 3.9881 1.36121 0
M  V30 12452 H 1143.77 2.79129 1.69572 0
M  V30 12453 H 1142.43 3.65726 -0.25305 0
M  V30 12454 H 1142.08 4.59913 2.03687 0
M  V30 12455 H 1141.78 5.82417 0.778734 0
M  V30 12456 H 1143.3 5.86155 1.71041 0
M  V30 12457 H 1144.72 5.70601 -0.555692 0
M  V30 12458 H 1143.11 5.85097 -1.33349 0
M  V30 12459 H 1144.18 4.51011 -1.78093 0
M  V30 12460 N 1145.53 0.438773 1.51369 0
M  V30 12461 C 1146.94 0.0911416 1.5934 0
M  V30 12462 C 1147.14 -1.39962 1.44958 0
M  V30 12463 O 1146.2 -2.16968 1.29155 0
M  V30 12464 C 1147.51 0.612531 2.94395 0
M  V30 12465 C 1149.06 0.573098 3.07709 0
M  V30 12466 C 1149.54 1.07149 4.4529 0
M  V30 12467 N 1151.03 1.02953 4.51614 0
M  V30 12468 C 1151.76 1.38602 5.56397 0
M  V30 12469 N 1151.26 1.81543 6.68591 0
M  V30 12470 N 1153.05 1.30409 5.46763 0
M  V30 12471 H 1145.2 1.40872 1.58962 0
M  V30 12472 H 1147.46 0.580589 0.749414 0
M  V30 12473 H 1147.17 1.65562 3.10294 0
M  V30 12474 H 1147.04 0.0382375 3.77181 0
M  V30 12475 H 1149.43 -0.461006 2.91477 0
M  V30 12476 H 1149.51 1.18381 2.26759 0
M  V30 12477 H 1149.16 2.10406 4.62268 0
M  V30 12478 H 1149.09 0.437297 5.24781 0
M  V30 12479 H 1151.58 0.714208 3.7109 0
M  V30 12480 H 1151.89 2.06977 7.44567 0
M  V30 12481 H 1150.24 1.8547 6.69795 0
M  V30 12482 H 1153.43 0.967272 4.57997 0
M  V30 12483 H 1153.6 1.5852 6.28312 0
M  V30 12484 N 1147.01 -1.56678 0.170181 0
M  V30 12485 C 1148.25 -1.96024 -0.475147 0
M  V30 12486 C 1148.57 -1.0588 -1.64465 0
M  V30 12487 O 1149.77 -1.34901 -2.35614 0
M  V30 12488 C 1148.23 -3.4855 -0.896704 0
M  V30 12489 C 1147.84 -4.47318 0.247142 0
M  V30 12490 C 1149.58 -3.96716 -1.51052 0
M  V30 12491 C 1147.49 -5.91082 -0.193982 0
M  V30 12492 H 1146.42 -0.731883 -0.181282 0
M  V30 12493 H 1149.07 -1.81674 0.25823 0
M  V30 12494 H 1147.45 -3.58314 -1.68603 0
M  V30 12495 H 1148.63 -4.49268 1.02445 0
M  V30 12496 H 1146.94 -4.09203 0.770839 0
M  V30 12497 H 1149.54 -5.01581 -1.85258 0
M  V30 12498 H 1149.88 -3.39588 -2.40802 0
M  V30 12499 H 1150.41 -3.89965 -0.785652 0
M  V30 12500 H 1147.15 -6.5208 0.668714 0
M  V30 12501 H 1146.67 -5.92441 -0.936675 0
M  V30 12502 H 1148.35 -6.43844 -0.638237 0
M  V30 12503 N 1148.48 0.103547 -1.57259 0
M  V30 12504 C 1149.73 0.807231 -1.84842 0
M  V30 12505 C 1150.05 1.80308 -0.758181 0
M  V30 12506 O 1151.25 2.55406 -0.920877 0
M  V30 12507 C 1149.71 1.4864 -3.27771 0
M  V30 12508 C 1149.32 0.53075 -4.44845 0
M  V30 12509 C 1151.06 2.17431 -3.64587 0
M  V30 12510 C 1148.97 1.21403 -5.78805 0
M  V30 12511 H 1147.9 0.305212 -0.689465 0
M  V30 12512 H 1150.55 0.0600855 -1.83402 0
M  V30 12513 H 1148.93 2.28071 -3.23728 0
M  V30 12514 H 1150.1 -0.231455 -4.60218 0
M  V30 12515 H 1148.42 -0.0510078 -4.16369 0
M  V30 12516 H 1151.02 2.6927 -4.6195 0
M  V30 12517 H 1151.36 2.9594 -2.92789 0
M  V30 12518 H 1151.89 1.4487 -3.70483 0
M  V30 12519 H 1148.63 0.469918 -6.53813 0
M  V30 12520 H 1148.15 1.94787 -5.6729 0
M  V30 12521 H 1149.83 1.74289 -6.23083 0
M  V30 12522 N 1149.96 1.53094 0.37415 0
M  V30 12523 C 1151.19 1.72508 1.13687 0
M  V30 12524 C 1151.6 0.449922 1.83773 0
M  V30 12525 O 1150.94 -0.586391 1.74089 0
M  V30 12526 C 1151 2.82965 2.21746 0
M  V30 12527 C 1150.67 4.23599 1.71501 0
M  V30 12528 C 1151.67 5.06245 1.1837 0
M  V30 12529 C 1149.35 4.69978 1.77273 0
M  V30 12530 C 1151.34 6.33357 0.71679 0
M  V30 12531 C 1149.03 5.9707 1.30194 0
M  V30 12532 C 1150.03 6.7859 0.774856 0
M  V30 12533 O 1149.72 8.03298 0.310981 0
M  V30 12534 H 1149.45 0.580611 0.346218 0
M  V30 12535 H 1152 2.00596 0.441614 0
M  V30 12536 H 1150.23 2.5033 2.9474 0
M  V30 12537 H 1151.92 2.90638 2.83345 0
M  V30 12538 H 1152.69 4.71591 1.13256 0
M  V30 12539 H 1148.57 4.06605 2.17241 0
M  V30 12540 H 1152.11 6.96934 0.30471 0
M  V30 12541 H 1148.01 6.31225 1.34999 0
M  V30 12542 H 1148.78 8.17364 0.431098 0
M  V30 12543 N 1151.44 -0.633461 1.44309 0
M  V30 12544 C 1152.39 -1.74554 1.50995 0
M  V30 12545 C 1153.36 -1.62199 0.357873 0
M  V30 12546 O 1154.54 -1.82156 0.567787 0
M  V30 12547 C 1151.68 -3.12792 1.45791 0
M  V30 12548 C 1150.79 -3.3614 2.71356 0
M  V30 12549 C 1149.93 -4.64337 2.58002 0
M  V30 12550 C 1148.97 -4.80855 3.78741 0
M  V30 12551 N 1148.11 -6.00327 3.64077 0
M  V30 12552 H 1152.95 -1.68174 2.46011 0
M  V30 12553 H 1150.48 -0.820407 1.22097 0
M  V30 12554 H 1152.44 -3.92735 1.40765 0
M  V30 12555 H 1151.07 -3.18193 0.543445 0
M  V30 12556 H 1150.12 -2.50154 2.86579 0
M  V30 12557 H 1151.43 -3.44226 3.60985 0
M  V30 12558 H 1150.59 -5.52437 2.50795 0
M  V30 12559 H 1149.33 -4.58605 1.65929 0
M  V30 12560 H 1148.33 -3.91185 3.86334 0
M  V30 12561 H 1149.56 -4.88403 4.71847 0
M  V30 12562 H 1147.5 -5.9569 2.74754 0
M  V30 12563 H 1147.42 -6.09459 4.47321 0
M  V30 12564 H 1148.69 -6.90995 3.60758 0
M  V30 12565 N 1152.92 -1.31168 -0.873655 0
M  V30 12566 C 1153.83 -1.20458 -2.01313 0
M  V30 12567 C 1154.84 -0.122074 -1.73571 0
M  V30 12568 O 1156.02 -0.339176 -1.98523 0
M  V30 12569 C 1153.09 -0.90876 -3.34578 0
M  V30 12570 C 1152.15 -2.07779 -3.75668 0
M  V30 12571 C 1151.38 -1.79599 -5.02573 0
M  V30 12572 O 1151.6 -0.729338 -5.65718 0
M  V30 12573 O 1150.54 -2.65169 -5.40341 0
M  V30 12574 H 1154.36 -2.16207 -2.13279 0
M  V30 12575 H 1151.95 -1.10871 -1.00139 0
M  V30 12576 H 1153.83 -0.759469 -4.145 0
M  V30 12577 H 1152.5 0.0187249 -3.23695 0
M  V30 12578 H 1151.41 -2.28247 -2.96402 0
M  V30 12579 H 1152.74 -2.9874 -3.91172 0
M  V30 12580 N 1154.4 1.08748 -1.14068 0
M  V30 12581 C 1155.65 1.8044 -0.901352 0
M  V30 12582 C 1155.96 1.86995 0.573791 0
M  V30 12583 O 1157.16 2.55065 0.930275 0
M  V30 12584 C 1155.62 3.24185 -1.56308 0
M  V30 12585 C 1155.23 3.25875 -3.07424 0
M  V30 12586 C 1156.97 4.00584 -1.40473 0
M  V30 12587 C 1154.88 4.64186 -3.66449 0
M  V30 12588 H 1153.81 0.676201 -0.333569 0
M  V30 12589 H 1156.46 1.22169 -1.3692 0
M  V30 12590 H 1154.84 3.82561 -1.0229 0
M  V30 12591 H 1156.02 2.77225 -3.6808 0
M  V30 12592 H 1154.33 2.62969 -3.22856 0
M  V30 12593 H 1156.93 5.02781 -1.81976 0
M  V30 12594 H 1157.27 4.14823 -0.350408 0
M  V30 12595 H 1157.8 3.48668 -1.91508 0
M  V30 12596 H 1154.54 4.5515 -4.71719 0
M  V30 12597 H 1154.06 5.13132 -3.10574 0
M  V30 12598 H 1155.74 5.33161 -3.66536 0
M  V30 12599 N 1155.87 0.935264 1.26849 0
M  V30 12600 C 1157.12 0.57969 1.94025 0
M  V30 12601 C 1157.45 -0.880295 1.73439 0
M  V30 12602 O 1156.7 -1.64429 1.0612 0
M  V30 12603 C 1157 0.861098 3.46872 0
M  V30 12604 C 1156.67 2.30402 3.87589 0
M  V30 12605 C 1155.33 2.69848 3.98417 0
M  V30 12606 C 1157.68 3.242 4.08098 0
M  V30 12607 C 1155.01 4.02199 4.27145 0
M  V30 12608 C 1157.36 4.56141 4.38313 0
M  V30 12609 C 1156.03 4.9541 4.47354 0
M  V30 12610 H 1155.3 0.212123 0.709989 0
M  V30 12611 H 1157.94 1.18066 1.50774 0
M  V30 12612 H 1156.25 0.177534 3.91398 0
M  V30 12613 H 1157.95 0.564841 3.97002 0
M  V30 12614 H 1154.54 1.98803 3.79704 0
M  V30 12615 H 1158.72 2.94924 3.99166 0
M  V30 12616 H 1153.98 4.32295 4.32355 0
M  V30 12617 H 1158.15 5.28818 4.53128 0
M  V30 12618 H 1155.78 5.97994 4.69368 0
M  V30 12619 N 1157.35 -1.41121 0.701616 0
M  V30 12620 C 1158.58 -2.05973 0.242896 0
M  V30 12621 C 1159 -1.52474 -1.10151 0
M  V30 12622 O 1158.36 -0.654224 -1.69085 0
M  V30 12623 C 1158.41 -3.59943 0.217614 0
M  V30 12624 O 1157.51 -4.04454 -0.805629 0
M  V30 12625 H 1156.85 -0.653581 0.117166 0
M  V30 12626 H 1159.38 -1.80777 0.958175 0
M  V30 12627 H 1159.39 -4.07969 0.0505267 0
M  V30 12628 H 1158.07 -3.98249 1.19877 0
M  V30 12629 H 1156.65 -3.6792 -0.607404 0
M  V30 12630 N 1158.83 -0.446794 -1.51134 0
M  V30 12631 C 1160.06 0.114727 -2.06281 0
M  V30 12632 C 1160.47 1.36192 -1.31333 0
M  V30 12633 O 1159.81 1.79956 -0.368982 0
M  V30 12634 C 1159.87 0.492968 -3.56104 0
M  V30 12635 C 1159.54 -0.648755 -4.52372 0
M  V30 12636 C 1160.53 -1.52369 -4.97071 0
M  V30 12637 C 1158.22 -0.832177 -4.95359 0
M  V30 12638 C 1160.21 -2.56667 -5.83439 0
M  V30 12639 C 1157.9 -1.87841 -5.81514 0
M  V30 12640 C 1158.9 -2.74404 -6.25453 0
M  V30 12641 O 1158.59 -3.7723 -7.09896 0
M  V30 12642 H 1158.32 0.007138 -0.675962 0
M  V30 12643 H 1160.87 -0.627452 -1.95582 0
M  V30 12644 H 1159.1 1.28799 -3.6462 0
M  V30 12645 H 1160.79 0.986739 -3.93724 0
M  V30 12646 H 1161.56 -1.39356 -4.64548 0
M  V30 12647 H 1157.44 -0.167954 -4.60694 0
M  V30 12648 H 1160.98 -3.24264 -6.17656 0
M  V30 12649 H 1156.88 -2.00871 -6.1345 0
M  V30 12650 H 1157.65 -3.73924 -7.28095 0
M  V30 12651 N 1160.31 1.56586 -0.178487 0
M  V30 12652 C 1161.26 2.18309 0.74899 0
M  V30 12653 C 1162.23 1.12525 1.22178 0
M  V30 12654 O 1163.41 1.40706 1.28866 0
M  V30 12655 C 1160.55 2.83353 1.9699 0
M  V30 12656 C 1159.66 4.03618 1.54002 0
M  V30 12657 C 1158.8 4.56567 2.71514 0
M  V30 12658 C 1157.84 5.69226 2.25051 0
M  V30 12659 N 1156.97 6.16654 3.35682 0
M  V30 12660 H 1161.81 2.97217 0.21587 0
M  V30 12661 H 1159.35 1.46794 0.0948182 0
M  V30 12662 H 1161.31 3.19226 2.68609 0
M  V30 12663 H 1159.94 2.07037 2.4766 0
M  V30 12664 H 1158.99 3.73518 0.720298 0
M  V30 12665 H 1160.3 4.85148 1.15901 0
M  V30 12666 H 1159.46 4.94659 3.5128 0
M  V30 12667 H 1158.2 3.7411 3.12879 0
M  V30 12668 H 1157.2 5.30679 1.43734 0
M  V30 12669 H 1158.43 6.5349 1.84736 0
M  V30 12670 H 1156.37 5.37124 3.76609 0
M  V30 12671 H 1156.29 6.93192 3.01697 0
M  V30 12672 H 1157.56 6.59397 4.15711 0
M  V30 12673 N 1161.79 -0.095206 1.57312 0
M  V30 12674 C 1162.73 -1.11551 2.02052 0
M  V30 12675 C 1163.7 -1.39808 0.896818 0
M  V30 12676 O 1164.89 -1.51273 1.1628 0
M  V30 12677 C 1162.03 -2.43056 2.44985 0
M  V30 12678 C 1161.14 -2.21531 3.70875 0
M  V30 12679 C 1160.28 -3.46434 4.02687 0
M  V30 12680 C 1159.32 -3.2017 5.21687 0
M  V30 12681 N 1158.45 -4.37339 5.49253 0
M  V30 12682 H 1163.29 -0.727 2.88996 0
M  V30 12683 H 1160.83 -0.347441 1.42938 0
M  V30 12684 H 1162.79 -3.19803 2.67921 0
M  V30 12685 H 1161.42 -2.79754 1.61051 0
M  V30 12686 H 1160.47 -1.35587 3.55416 0
M  V30 12687 H 1161.78 -1.98116 4.57768 0
M  V30 12688 H 1160.94 -4.31589 4.26399 0
M  V30 12689 H 1159.67 -3.72904 3.14315 0
M  V30 12690 H 1158.68 -2.33409 4.97796 0
M  V30 12691 H 1159.9 -2.95047 6.11657 0
M  V30 12692 H 1157.85 -4.63885 4.6384 0
M  V30 12693 H 1157.77 -4.17114 6.30517 0
M  V30 12694 H 1159.04 -5.23559 5.775 0
M  V30 12695 N 1163.26 -1.53291 -0.366026 0
M  V30 12696 C 1164.54 -1.60055 -1.12436 0
M  V30 12697 C 1164.92 -0.407811 -2.07123 0
M  V30 12698 O 1164.27 0.601977 -2.20428 0
M  V30 12699 C 1164.48 -2.95062 -1.86385 0
M  V30 12700 C 1165.83 -3.49623 -2.40934 0
M  V30 12701 O 1166.85 -2.97088 -1.96512 0
M  V30 12702 O 1165.71 -4.41461 -3.2214 0
M  V30 12703 H 1162.8 -0.646476 -0.51575 0
M  V30 12704 H 1165.35 -1.65632 -0.369326 0
M  V30 12705 H 1164.12 -3.73312 -1.17277 0
M  V30 12706 H 1163.75 -2.92973 -2.68798 0
M  V30 12707 N 1164.74 0.6258 -1.44643 0
M  V30 12708 C 1165.99 1.3873 -1.47925 0
M  V30 12709 C 1166.32 1.93868 -0.113469 0
M  V30 12710 O 1165.6 1.73976 0.869639 0
M  V30 12711 C 1165.88 2.54867 -2.54391 0
M  V30 12712 C 1165.73 2.05044 -4.00346 0
M  V30 12713 C 1167.05 3.57043 -2.57309 0
M  V30 12714 H 1164.17 0.503087 -0.538584 0
M  V30 12715 H 1166.81 0.707102 -1.76352 0
M  V30 12716 H 1164.96 3.12894 -2.30281 0
M  V30 12717 H 1166.63 1.51807 -4.35606 0
M  V30 12718 H 1164.88 1.36185 -4.11869 0
M  V30 12719 H 1165.55 2.88681 -4.70497 0
M  V30 12720 H 1168.02 3.08826 -2.78865 0
M  V30 12721 H 1166.9 4.35818 -3.33698 0
M  V30 12722 H 1167.16 4.11464 -1.61708 0
M  V30 12723 N 1166.22 1.31629 0.866686 0
M  V30 12724 C 1167.45 1.24474 1.65269 0
M  V30 12725 C 1167.86 -0.18939 1.87848 0
M  V30 12726 O 1167.22 -1.12251 1.43895 0
M  V30 12727 C 1167.27 1.98872 3.01881 0
M  V30 12728 O 1166.99 3.36687 2.8031 0
M  V30 12729 C 1168.49 1.98595 3.96327 0
M  V30 12730 H 1165.71 0.429966 0.515141 0
M  V30 12731 H 1168.26 1.73559 1.08156 0
M  V30 12732 H 1166.41 1.53539 3.55675 0
M  V30 12733 H 1166.83 3.74612 3.67105 0
M  V30 12734 H 1168.3 2.55156 4.89489 0
M  V30 12735 H 1168.78 0.969257 4.28371 0
M  V30 12736 H 1169.38 2.43821 3.4847 0
M  V30 12737 N 1167.7 -1.08142 1.14644 0
M  V30 12738 C 1168.95 -1.79959 0.910908 0
M  V30 12739 C 1169.26 -1.87296 -0.563866 0
M  V30 12740 O 1170.47 -2.55555 -0.916735 0
M  V30 12741 C 1168.92 -3.23351 1.58025 0
M  V30 12742 C 1168.53 -3.2424 3.09148 0
M  V30 12743 C 1170.28 -3.99834 1.42595 0
M  V30 12744 C 1168.18 -4.62236 3.68906 0
M  V30 12745 H 1167.11 -0.674423 0.33715 0
M  V30 12746 H 1169.76 -1.21441 1.37566 0
M  V30 12747 H 1168.15 -3.82013 1.04318 0
M  V30 12748 H 1169.32 -2.75269 3.69545 0
M  V30 12749 H 1167.63 -2.61253 3.24246 0
M  V30 12750 H 1170.23 -5.01809 1.8464 0
M  V30 12751 H 1170.57 -4.14631 0.372402 0
M  V30 12752 H 1171.11 -3.47648 1.93354 0
M  V30 12753 H 1167.85 -4.52642 4.74126 0
M  V30 12754 H 1167.37 -5.11477 3.1329 0
M  V30 12755 H 1169.05 -5.3121 3.69358 0
M  V30 12756 N 1169.18 -0.941978 -1.26351 0
M  V30 12757 C 1170.43 -0.585711 -1.93009 0
M  V30 12758 C 1170.74 0.879507 -1.74711 0
M  V30 12759 O 1171.95 1.34518 -2.35833 0
M  V30 12760 C 1170.4 -0.996787 -3.45821 0
M  V30 12761 C 1170.01 -2.48367 -3.72851 0
M  V30 12762 C 1171.75 -0.712452 -4.18479 0
M  V30 12763 C 1169.66 -2.83341 -5.19107 0
M  V30 12764 H 1168.59 -0.215342 -0.722595 0
M  V30 12765 H 1171.24 -1.14472 -1.43417 0
M  V30 12766 H 1169.62 -0.366295 -3.94302 0
M  V30 12767 H 1170.8 -3.16328 -3.35072 0
M  V30 12768 H 1169.11 -2.74139 -3.13427 0
M  V30 12769 H 1171.71 -0.95007 -5.26192 0
M  V30 12770 H 1172.05 0.350811 -4.14819 0
M  V30 12771 H 1172.59 -1.3027 -3.75865 0
M  V30 12772 H 1169.32 -3.88633 -5.27868 0
M  V30 12773 H 1168.84 -2.20043 -5.5798 0
M  V30 12774 H 1170.52 -2.71849 -5.87118 0
M  V30 12775 N 1170.66 1.40747 -0.709091 0
M  V30 12776 C 1171.9 2.01003 -0.24581 0
M  V30 12777 C 1172.23 1.56203 1.15891 0
M  V30 12778 O 1171.49 0.770166 1.79908 0
M  V30 12779 C 1171.78 3.56404 -0.266685 0
M  V30 12780 C 1171.45 4.20762 -1.6208 0
M  V30 12781 C 1170.11 4.38056 -1.99148 0
M  V30 12782 C 1172.46 4.56723 -2.51105 0
M  V30 12783 C 1169.79 4.88591 -3.248 0
M  V30 12784 C 1172.14 5.08654 -3.76103 0
M  V30 12785 C 1170.81 5.24158 -4.13297 0
M  V30 12786 H 1170.08 0.73552 -0.0899481 0
M  V30 12787 H 1172.73 1.68451 -0.910844 0
M  V30 12788 H 1171.03 3.88825 0.481915 0
M  V30 12789 H 1172.73 4.0085 0.109509 0
M  V30 12790 H 1169.32 4.07685 -1.32252 0
M  V30 12791 H 1173.5 4.43004 -2.23744 0
M  V30 12792 H 1168.76 4.98779 -3.53595 0
M  V30 12793 H 1172.93 5.35457 -4.45262 0
M  V30 12794 H 1170.56 5.63079 -5.10731 0
M  V30 12795 N 1172.13 0.454803 1.50895 0
M  V30 12796 C 1173.38 -0.10577 2.02224 0
M  V30 12797 C 1173.71 -1.41176 1.33789 0
M  V30 12798 O 1172.96 -1.90522 0.447181 0
M  V30 12799 C 1173.26 -0.354159 3.55641 0
M  V30 12800 C 1172.93 0.868136 4.42464 0
M  V30 12801 C 1171.59 1.2033 4.65912 0
M  V30 12802 C 1173.94 1.68272 4.93289 0
M  V30 12803 C 1171.27 2.3534 5.37431 0
M  V30 12804 C 1173.62 2.82396 5.6607 0
M  V30 12805 C 1172.29 3.16346 5.87777 0
M  V30 12806 H 1171.56 -0.0387041 0.739989 0
M  V30 12807 H 1174.2 0.605564 1.81673 0
M  V30 12808 H 1172.51 -1.14757 3.74617 0
M  V30 12809 H 1174.21 -0.8016 3.92906 0
M  V30 12810 H 1170.8 0.596995 4.24422 0
M  V30 12811 H 1174.98 1.43698 4.75042 0
M  V30 12812 H 1170.24 2.61936 5.52449 0
M  V30 12813 H 1174.41 3.45873 6.04438 0
M  V30 12814 H 1172.04 4.05574 6.42973 0
M  V30 12815 N 1173.61 -1.56489 0.186789 0
M  V30 12816 C 1174.84 -2.02163 -0.463126 0
M  V30 12817 C 1175.26 -1.06612 -1.54969 0
M  V30 12818 O 1174.62 -0.0482139 -1.81236 0
M  V30 12819 C 1174.67 -3.46337 -1.00416 0
M  V30 12820 O 1173.77 -3.53889 -2.11747 0
M  V30 12821 H 1173.11 -0.65496 -0.109194 0
M  V30 12822 H 1175.64 -2.02459 0.295227 0
M  V30 12823 H 1175.65 -3.85959 -1.32287 0
M  V30 12824 H 1174.33 -4.15376 -0.208693 0
M  V30 12825 H 1172.9 -3.26136 -1.80803 0
M  V30 12826 N 1175.09 0.086862 -1.5736 0
M  V30 12827 C 1176.34 0.787581 -1.85688 0
M  V30 12828 C 1176.65 1.79494 -0.777263 0
M  V30 12829 O 1177.86 2.54415 -0.947914 0
M  V30 12830 C 1176.31 1.45155 -3.2933 0
M  V30 12831 C 1175.92 0.483539 -4.45383 0
M  V30 12832 C 1177.67 2.13552 -3.66873 0
M  V30 12833 C 1175.57 1.15257 -5.8006 0
M  V30 12834 H 1174.5 0.297882 -0.692663 0
M  V30 12835 H 1177.15 0.0406299 -1.83455 0
M  V30 12836 H 1175.54 2.24625 -3.26128 0
M  V30 12837 H 1176.71 -0.280254 -4.59947 0
M  V30 12838 H 1175.02 -0.0951664 -4.16291 0
M  V30 12839 H 1177.62 2.64355 -4.6478 0
M  V30 12840 H 1177.96 2.92818 -2.95911 0
M  V30 12841 H 1178.5 1.40932 -3.71999 0
M  V30 12842 H 1175.24 0.400546 -6.54275 0
M  V30 12843 H 1174.76 1.88759 -5.69324 0
M  V30 12844 H 1176.44 1.67671 -6.24896 0
M  V30 12845 N 1176.57 1.53483 0.357892 0
M  V30 12846 C 1177.5 1.83444 1.44466 0
M  V30 12847 C 1178.48 0.688486 1.55544 0
M  V30 12848 O 1179.66 0.93906 1.69986 0
M  V30 12849 C 1176.79 2.03122 2.81707 0
M  V30 12850 C 1175.75 3.1891 2.85448 0
M  V30 12851 C 1175.07 3.23895 4.25436 0
M  V30 12852 C 1176.37 4.57334 2.52275 0
M  V30 12853 H 1178.07 2.74456 1.19642 0
M  V30 12854 H 1175.61 1.3206 0.574112 0
M  V30 12855 H 1177.57 2.22666 3.57768 0
M  V30 12856 H 1176.29 1.08827 3.07935 0
M  V30 12857 H 1174.95 2.99199 2.11838 0
M  V30 12858 H 1174.6 2.27223 4.48753 0
M  V30 12859 H 1174.3 4.01694 4.28854 0
M  V30 12860 H 1175.82 3.45632 5.0336 0
M  V30 12861 H 1177.24 4.76988 3.1805 0
M  V30 12862 H 1175.63 5.37431 2.66998 0
M  V30 12863 H 1176.7 4.61921 1.47501 0
M  V30 12864 N 1178.05 -0.61812 1.44973 0
M  V30 12865 C 1179.29 -1.37944 1.48658 0
M  V30 12866 C 1179.62 -1.93805 0.123749 0
M  V30 12867 O 1178.9 -1.74434 -0.860401 0
M  V30 12868 C 1179.18 -2.53515 2.55739 0
M  V30 12869 C 1179.04 -2.02918 4.01428 0
M  V30 12870 C 1180.35 -3.55674 2.59199 0
M  V30 12871 H 1177.47 -0.500223 0.541244 0
M  V30 12872 H 1180.12 -0.69774 1.76725 0
M  V30 12873 H 1178.27 -3.11669 2.31937 0
M  V30 12874 H 1179.94 -1.49494 4.36405 0
M  V30 12875 H 1178.18 -1.33999 4.12586 0
M  V30 12876 H 1178.85 -2.86181 4.72021 0
M  V30 12877 H 1181.33 -3.07343 2.80499 0
M  V30 12878 H 1180.2 -4.34042 3.36004 0
M  V30 12879 H 1180.46 -4.10601 1.63888 0
M  V30 12880 N 1179.52 -1.32087 -0.859693 0
M  V30 12881 C 1180.49 -1.20546 -1.94939 0
M  V30 12882 C 1181.49 -0.12982 -1.60275 0
M  V30 12883 O 1182.68 -0.379853 -1.70008 0
M  V30 12884 C 1179.81 -0.852717 -3.30063 0
M  V30 12885 H 1181 -2.17384 -2.06602 0
M  V30 12886 H 1178.55 -1.15846 -1.04926 0
M  V30 12887 H 1179.29 0.114059 -3.24099 0
M  V30 12888 H 1179.07 -1.63035 -3.56598 0
M  V30 12889 H 1180.56 -0.796145 -4.09941 0
M  V30 12890 N 1181 1.07532 -1.15215 0
M  V30 12891 C 1182.25 1.79737 -0.924062 0
M  V30 12892 C 1182.57 1.87072 0.550356 0
M  V30 12893 O 1181.84 1.37029 1.4 0
M  V30 12894 H 1180.42 0.665704 -0.338891 0
M  V30 12895 H 1183.08 1.29961 -1.45245 0
M  V30 12896 H 1182.18 2.82256 -1.33184 0
M  V30 12897 N 1182.48 0.948665 1.2585 0
M  V30 12898 C 1183.73 0.59905 1.93018 0
M  V30 12899 C 1184.05 -0.865813 1.74725 0
M  V30 12900 O 1183.32 -1.61602 1.10732 0
M  V30 12901 H 1181.9 0.218565 0.71431 0
M  V30 12902 H 1184.56 1.20561 1.53137 0
M  V30 12903 H 1183.66 0.823244 3.01047 0
M  V30 12904 N 1183.96 -1.40369 0.716545 0
M  V30 12905 C 1184.89 -2.33365 0.0793533 0
M  V30 12906 C 1185.87 -1.52943 -0.744482 0
M  V30 12907 O 1187.05 -1.81406 -0.693212 0
M  V30 12908 C 1184.18 -3.36928 -0.842429 0
M  V30 12909 C 1183.14 -4.2782 -0.124142 0
M  V30 12910 C 1182.46 -5.21928 -1.1617 0
M  V30 12911 C 1183.76 -5.12199 1.02224 0
M  V30 12912 H 1185.46 -2.86899 0.856115 0
M  V30 12913 H 1183 -1.37946 0.413138 0
M  V30 12914 H 1184.96 -4.00925 -1.29759 0
M  V30 12915 H 1183.68 -2.81791 -1.6511 0
M  V30 12916 H 1182.34 -3.65277 0.311201 0
M  V30 12917 H 1181.99 -4.63096 -1.96345 0
M  V30 12918 H 1181.69 -5.83582 -0.685978 0
M  V30 12919 H 1183.21 -5.88802 -1.61694 0
M  V30 12920 H 1184.63 -5.69644 0.646399 0
M  V30 12921 H 1183.02 -5.82901 1.4264 0
M  V30 12922 H 1184.09 -4.4812 1.85246 0
M  V30 12923 N 1185.44 -0.462799 -1.50652 0
M  V30 12924 C 1186.67 0.0928413 -2.06391 0
M  V30 12925 C 1187.07 1.34791 -1.3277 0
M  V30 12926 O 1186.42 1.79555 -0.388048 0
M  V30 12927 C 1186.48 0.45517 -3.56607 0
M  V30 12928 C 1186.14 -0.696698 -4.51658 0
M  V30 12929 C 1187.14 -1.57633 -4.95427 0
M  V30 12930 C 1184.83 -0.884669 -4.94448 0
M  V30 12931 C 1186.82 -2.62841 -5.80684 0
M  V30 12932 C 1184.51 -1.93998 -5.79489 0
M  V30 12933 C 1185.5 -2.81022 -6.22508 0
M  V30 12934 O 1185.19 -3.84738 -7.05856 0
M  V30 12935 H 1184.92 -3.18898e-05 -0.676 0
M  V30 12936 H 1187.48 -0.648161 -1.94905 0
M  V30 12937 H 1185.71 1.24924 -3.65966 0
M  V30 12938 H 1187.4 0.944923 -3.94748 0
M  V30 12939 H 1188.16 -1.44276 -4.63044 0
M  V30 12940 H 1184.04 -0.216807 -4.6049 0
M  V30 12941 H 1187.59 -3.30797 -6.14182 0
M  V30 12942 H 1183.48 -2.07366 -6.11285 0
M  V30 12943 H 1184.25 -3.81626 -7.24088 0
M  V30 12944 N 1186.91 1.56388 -0.195085 0
M  V30 12945 C 1188.33 1.8398 0.317513 0
M  V30 12946 C 1188.68 1.11575 1.61386 0
M  V30 12947 O 1187.8 0.376557 2.13099 0
M  V30 12948 C 1188.4 3.33749 0.582859 0
M  V30 12949 C 1186.96 3.61752 1.03983 0
M  V30 12950 C 1186.1 2.77159 0.088434 0
M  V30 12951 H 1189.05 1.53072 -0.418871 0
M  V30 12952 H 1189.07 3.52519 1.43216 0
M  V30 12953 H 1188.59 3.86419 -0.360813 0
M  V30 12954 H 1186.69 3.14515 1.99778 0
M  V30 12955 H 1186.8 4.69937 0.932549 0
M  V30 12956 H 1185.16 2.47765 0.590317 0
M  V30 12957 H 1185.95 3.32619 -0.849682 0
M  V30 12958 N 1188.39 -0.0785156 1.57404 0
M  V30 12959 C 1189.64 -0.780092 1.87196 0
M  V30 12960 C 1189.97 -1.77562 0.78647 0
M  V30 12961 O 1189.25 -1.93428 -0.203935 0
M  V30 12962 C 1189.53 -1.49408 3.27642 0
M  V30 12963 C 1189.38 -0.515416 4.46837 0
M  V30 12964 C 1190.7 -2.44064 3.66225 0
M  V30 12965 H 1187.82 -0.282134 0.680859 0
M  V30 12966 H 1190.46 -0.0433926 1.8995 0
M  V30 12967 H 1188.61 -2.12205 3.25425 0
M  V30 12968 H 1190.28 0.106827 4.61176 0
M  V30 12969 H 1188.53 0.169832 4.33467 0
M  V30 12970 H 1189.2 -1.05247 5.41874 0
M  V30 12971 H 1191.67 -1.91349 3.69493 0
M  V30 12972 H 1190.55 -2.91029 4.65396 0
M  V30 12973 H 1190.81 -3.28569 2.95796 0
M  V30 12974 N 1189.87 -1.5367 -0.349747 0
M  V30 12975 C 1191.12 -1.70618 -1.09068 0
M  V30 12976 C 1191.45 -0.466133 -1.88832 0
M  V30 12977 O 1190.7 0.552079 -1.87751 0
M  V30 12978 C 1191 -2.91753 -2.06434 0
M  V30 12979 C 1190.67 -4.27614 -1.43029 0
M  V30 12980 C 1189.33 -4.64555 -1.25466 0
M  V30 12981 C 1191.68 -5.12037 -0.972987 0
M  V30 12982 C 1189.01 -5.83543 -0.607807 0
M  V30 12983 C 1191.36 -6.31685 -0.340073 0
M  V30 12984 C 1190.02 -6.67327 -0.152069 0
M  V30 12985 H 1189.29 -0.624334 -0.399108 0
M  V30 12986 H 1191.94 -1.87879 -0.370657 0
M  V30 12987 H 1190.25 -2.6907 -2.84796 0
M  V30 12988 H 1191.94 -3.02059 -2.63744 0
M  V30 12989 H 1188.53 -3.98535 -1.57696 0
M  V30 12990 H 1192.72 -4.84035 -1.09655 0
M  V30 12991 H 1187.97 -6.09737 -0.450705 0
M  V30 12992 H 1192.15 -6.96396 0.0223973 0
M  V30 12993 H 1189.77 -7.59388 0.35121 0
M  V30 12994 N 1191.35 0.610423 -1.45298 0
M  V30 12995 C 1192.31 1.70324 -1.5337 0
M  V30 12996 C 1193.31 1.55393 -0.413492 0
M  V30 12997 O 1194.5 1.60512 -0.676872 0
M  V30 12998 C 1191.63 3.09572 -1.42752 0
M  V30 12999 H 1192.83 1.64535 -2.50736 0
M  V30 13000 H 1190.38 0.825906 -1.32697 0
M  V30 13001 H 1191.11 3.2094 -0.465601 0
M  V30 13002 H 1190.9 3.21817 -2.24 0
M  V30 13003 H 1192.39 3.89178 -1.51427 0
M  V30 13004 N 1192.83 1.32541 0.852676 0
M  V30 13005 C 1193.76 1.24254 1.97694 0
M  V30 13006 C 1194.74 0.125971 1.69633 0
M  V30 13007 O 1195.92 0.31347 1.91653 0
M  V30 13008 C 1193.05 0.966874 3.3357 0
M  V30 13009 C 1192.01 2.0449 3.75989 0
M  V30 13010 C 1191.33 1.6216 5.09518 0
M  V30 13011 C 1192.63 3.46013 3.91244 0
M  V30 13012 H 1194.33 2.18317 2.04886 0
M  V30 13013 H 1191.87 1.05101 0.984371 0
M  V30 13014 H 1193.83 0.895444 4.11776 0
M  V30 13015 H 1192.55 -0.0093893 3.26599 0
M  V30 13016 H 1191.21 2.10651 3.00036 0
M  V30 13017 H 1190.86 0.632729 4.99005 0
M  V30 13018 H 1190.56 2.3429 5.38871 0
M  V30 13019 H 1192.08 1.56457 5.90215 0
M  V30 13020 H 1193.49 3.4243 4.59799 0
M  V30 13021 H 1191.89 4.1651 4.32017 0
M  V30 13022 H 1192.96 3.8553 2.941 0
M  V30 13023 N 1194.3 -1.0692 1.15784 0
M  V30 13024 C 1195.23 -2.16216 0.881649 0
M  V30 13025 C 1196.22 -1.69253 -0.16951 0
M  V30 13026 O 1197.4 -1.94186 -0.0229511 0
M  V30 13027 C 1194.53 -3.4527 0.374982 0
M  V30 13028 C 1193.48 -4.05706 1.36332 0
M  V30 13029 C 1192.81 -5.29894 0.715317 0
M  V30 13030 C 1194.11 -4.45224 2.7308 0
M  V30 13031 H 1195.8 -2.39577 1.79563 0
M  V30 13032 H 1193.35 -1.15141 0.864784 0
M  V30 13033 H 1195.3 -4.2106 0.169279 0
M  V30 13034 H 1194.03 -3.21508 -0.574485 0
M  V30 13035 H 1192.69 -3.31965 1.55546 0
M  V30 13036 H 1192.33 -5.02425 -0.240436 0
M  V30 13037 H 1192.03 -5.71287 1.37494 0
M  V30 13038 H 1193.56 -6.08386 0.519489 0
M  V30 13039 H 1194.97 -5.12124 2.57686 0
M  V30 13040 H 1193.37 -4.97583 3.35457 0
M  V30 13041 H 1194.44 -3.56384 3.28813 0
M  V30 13042 N 1195.78 -0.955326 -1.25345 0
M  V30 13043 C 1197.01 -0.626783 -1.96863 0
M  V30 13044 C 1197.42 0.80547 -1.71198 0
M  V30 13045 O 1196.76 1.55049 -0.985163 0
M  V30 13046 C 1196.83 -0.806404 -3.50339 0
M  V30 13047 C 1196.49 -2.21595 -3.99681 0
M  V30 13048 C 1197.49 -3.19268 -4.10322 0
M  V30 13049 C 1195.17 -2.54032 -4.33328 0
M  V30 13050 C 1197.17 -4.47471 -4.53926 0
M  V30 13051 C 1194.85 -3.82465 -4.76617 0
M  V30 13052 C 1195.85 -4.78997 -4.86879 0
M  V30 13053 O 1195.54 -6.0514 -5.29208 0
M  V30 13054 H 1195.27 -0.233854 -0.634262 0
M  V30 13055 H 1197.82 -1.28232 -1.60455 0
M  V30 13056 H 1196.05 -0.0937184 -3.86586 0
M  V30 13057 H 1197.74 -0.47881 -4.03066 0
M  V30 13058 H 1198.51 -2.95534 -3.84558 0
M  V30 13059 H 1194.39 -1.79623 -4.24566 0
M  V30 13060 H 1197.93 -5.22819 -4.6185 0
M  V30 13061 H 1193.83 -4.06005 -5.01827 0
M  V30 13062 H 1194.6 -6.08527 -5.47392 0
M  V30 13063 N 1197.26 1.39987 -0.723979 0
M  V30 13064 C 1198.22 2.29041 -0.0854583 0
M  V30 13065 C 1199.22 1.45777 0.678657 0
M  V30 13066 O 1200.41 1.66588 0.509311 0
M  V30 13067 C 1197.55 3.29115 0.88859 0
M  V30 13068 H 1198.74 2.87006 -0.869903 0
M  V30 13069 H 1196.29 1.48449 -0.489136 0
M  V30 13070 H 1197.03 2.76184 1.69979 0
M  V30 13071 H 1196.81 3.90593 0.343454 0
M  V30 13072 H 1198.3 3.95778 1.33227 0
M  V30 13073 N 1198.74 0.470782 1.50404 0
M  V30 13074 C 1200.16 0.124919 1.5911 0
M  V30 13075 C 1200.36 -1.36855 1.47895 0
M  V30 13076 O 1199.41 -2.1418 1.33728 0
M  V30 13077 C 1200.72 0.674839 2.9303 0
M  V30 13078 C 1202.27 0.638239 3.06424 0
M  V30 13079 C 1202.75 1.1657 4.42917 0
M  V30 13080 N 1204.24 1.1251 4.49328 0
M  V30 13081 C 1204.97 1.50373 5.53331 0
M  V30 13082 N 1204.47 1.95684 6.6459 0
M  V30 13083 N 1206.26 1.41978 5.43874 0
M  V30 13084 H 1198.41 1.44212 1.55938 0
M  V30 13085 H 1200.68 0.596354 0.73693 0
M  V30 13086 H 1200.38 1.72106 3.06712 0
M  V30 13087 H 1200.26 0.118234 3.77015 0
M  V30 13088 H 1202.64 -0.399075 2.92389 0
M  V30 13089 H 1202.72 1.23164 2.24197 0
M  V30 13090 H 1202.37 2.20164 4.57701 0
M  V30 13091 H 1202.3 0.548513 5.23736 0
M  V30 13092 H 1204.79 0.79276 3.69491 0
M  V30 13093 H 1205.1 2.22724 7.40009 0
M  V30 13094 H 1203.45 1.99636 6.65711 0
M  V30 13095 H 1206.64 1.0642 4.55842 0
M  V30 13096 H 1206.81 1.71812 6.24808 0
M  V30 13097 N 1200.22 -1.56282 0.203376 0
M  V30 13098 C 1201.45 -2.01905 -0.437936 0
M  V30 13099 C 1201.86 -1.08263 -1.55164 0
M  V30 13100 O 1201.2 -0.0811746 -1.83521 0
M  V30 13101 C 1201.26 -3.43908 -1.04725 0
M  V30 13102 C 1200.92 -4.56944 -0.0712582 0
M  V30 13103 C 1201.92 -5.14856 0.72243 0
M  V30 13104 C 1199.61 -5.02282 0.0422267 0
M  V30 13105 C 1201.6 -6.16562 1.61649 0
M  V30 13106 C 1199.29 -6.0383 0.939835 0
M  V30 13107 C 1200.29 -6.60844 1.72552 0
M  V30 13108 O 1199.97 -7.60417 2.60808 0
M  V30 13109 H 1199.71 -0.666416 -0.11343 0
M  V30 13110 H 1202.26 -2.03019 0.311833 0
M  V30 13111 H 1200.49 -3.39806 -1.84577 0
M  V30 13112 H 1202.18 -3.73288 -1.59407 0
M  V30 13113 H 1202.94 -4.80691 0.645105 0
M  V30 13114 H 1198.82 -4.57596 -0.559165 0
M  V30 13115 H 1202.37 -6.6099 2.23019 0
M  V30 13116 H 1198.26 -6.37418 1.01824 0
M  V30 13117 H 1199.03 -7.77869 2.54679 0
M  V30 13118 N 1201.7 0.070167 -1.57444 0
M  V30 13119 C 1202.94 0.770153 -1.87607 0
M  V30 13120 C 1203.27 1.77143 -0.795875 0
M  V30 13121 O 1202.55 1.93533 0.193674 0
M  V30 13122 C 1202.83 1.47668 -3.2843 0
M  V30 13123 C 1202.69 0.491712 -4.47104 0
M  V30 13124 C 1204 2.42118 -3.67514 0
M  V30 13125 H 1201.12 0.278519 -0.682346 0
M  V30 13126 H 1203.77 0.0333184 -1.89971 0
M  V30 13127 H 1201.92 2.10476 -3.26546 0
M  V30 13128 H 1203.59 -0.131283 -4.61113 0
M  V30 13129 H 1201.83 -0.192817 -4.33371 0
M  V30 13130 H 1202.5 1.02372 -5.42424 0
M  V30 13131 H 1204.98 1.89387 -3.70502 0
M  V30 13132 H 1203.85 2.88556 -4.66933 0
M  V30 13133 H 1204.11 3.26995 -2.97534 0
M  V30 13134 N 1203.17 1.53854 0.341593 0
M  V30 13135 C 1204.4 1.75447 1.10604 0
M  V30 13136 C 1204.82 0.493225 1.81518 0
M  V30 13137 O 1204.18 -0.554253 1.7262 0
M  V30 13138 C 1204.23 2.93593 2.09369 0
M  V30 13139 O 1203.33 2.63878 3.16926 0
M  V30 13140 H 1202.67 0.581923 0.319783 0
M  V30 13141 H 1205.2 2.00822 0.391388 0
M  V30 13142 H 1205.21 3.20437 2.52556 0
M  V30 13143 H 1203.89 3.85067 1.57151 0
M  V30 13144 H 1202.47 2.47929 2.78542 0
M  V30 13145 N 1204.65 -0.602709 1.4562 0
M  V30 13146 C 1205.88 -1.3881 1.53426 0
M  V30 13147 C 1206.29 -1.88046 0.16851 0
M  V30 13148 O 1205.65 -1.62493 -0.830791 0
M  V30 13149 C 1205.7 -2.58927 2.52268 0
M  V30 13150 O 1205.42 -2.11735 3.83536 0
M  V30 13151 C 1206.92 -3.51728 2.69819 0
M  V30 13152 H 1204.14 -0.424744 0.519455 0
M  V30 13153 H 1206.69 -0.73459 1.90851 0
M  V30 13154 H 1204.84 -3.20309 2.17902 0
M  V30 13155 H 1205.26 -2.89814 4.37159 0
M  V30 13156 H 1206.73 -4.32542 3.42945 0
M  V30 13157 H 1207.21 -4.02383 1.76024 0
M  V30 13158 H 1207.81 -2.96196 3.05202 0
M  V30 13159 N 1206.13 -1.32992 -0.845635 0
M  V30 13160 C 1207.06 -1.25301 -1.97033 0
M  V30 13161 C 1208.04 -0.134966 -1.69564 0
M  V30 13162 O 1209.23 -0.323629 -1.91484 0
M  V30 13163 C 1206.36 -0.984551 -3.33052 0
M  V30 13164 C 1205.31 -2.06481 -3.749 0
M  V30 13165 C 1204.64 -1.6486 -5.08651 0
M  V30 13166 C 1205.94 -3.48083 -3.89404 0
M  V30 13167 H 1207.63 -2.194 -2.03725 0
M  V30 13168 H 1205.18 -1.05621 -0.978783 0
M  V30 13169 H 1207.13 -0.917269 -4.11296 0
M  V30 13170 H 1205.85 -0.00793116 -3.26599 0
M  V30 13171 H 1204.51 -2.1224 -2.98915 0
M  V30 13172 H 1204.16 -0.659183 -4.98662 0
M  V30 13173 H 1203.86 -2.37145 -5.37621 0
M  V30 13174 H 1205.38 -1.59585 -5.89377 0
M  V30 13175 H 1206.8 -3.44863 -4.57976 0
M  V30 13176 H 1205.19 -4.18796 -4.29802 0
M  V30 13177 H 1206.26 -3.87084 -2.92051 0
M  V30 13178 N 1207.61 1.06304 -1.1635 0
M  V30 13179 C 1208.85 1.79101 -0.94494 0
M  V30 13180 C 1209.18 1.87217 0.527251 0
M  V30 13181 O 1208.44 1.35992 1.40729 0
M  V30 13182 C 1208.74 3.23589 -1.51741 0
M  V30 13183 C 1208.4 3.35552 -3.0119 0
M  V30 13184 C 1207.06 3.38525 -3.41986 0
M  V30 13185 C 1209.42 3.37482 -3.97184 0
M  V30 13186 C 1206.74 3.41042 -4.77396 0
M  V30 13187 C 1209.1 3.41537 -5.3248 0
M  V30 13188 C 1207.76 3.42792 -5.72757 0
M  V30 13189 H 1207.03 0.655377 -0.345778 0
M  V30 13190 H 1209.68 1.25017 -1.45062 0
M  V30 13191 H 1207.98 3.80525 -0.933164 0
M  V30 13192 H 1209.68 3.78512 -1.32399 0
M  V30 13193 H 1206.27 3.33944 -2.68662 0
M  V30 13194 H 1210.45 3.34397 -3.66732 0
M  V30 13195 H 1205.71 3.40317 -5.07931 0
M  V30 13196 H 1209.88 3.41977 -6.0665 0
M  V30 13197 H 1207.51 3.44495 -6.77663 0
M  V30 13198 N 1209.09 0.96196 1.24836 0
M  V30 13199 C 1210.36 0.537809 1.88061 0
M  V30 13200 C 1210.74 -0.985023 1.8671 0
M  V30 13201 O 1210.09 -1.85394 1.33572 0
M  V30 13202 C 1210.3 1.12279 3.30446 0
M  V30 13203 C 1211.65 1.20414 4.07168 0
M  V30 13204 O 1212.67 1.07488 3.39595 0
M  V30 13205 O 1211.53 1.4078 5.28056 0
M  V30 13206 H 1208.63 0.178491 0.807509 0
M  V30 13207 H 1211.17 1.05586 1.32852 0
M  V30 13208 H 1209.94 2.16578 3.25898 0
M  V30 13209 H 1209.57 0.58843 3.93222 0
M  V30 13210 N 1210.56 -1.39601 0.731392 0
M  V30 13211 C 1211.81 -2.00586 0.277756 0
M  V30 13212 C 1212.14 -1.58027 -1.13391 0
M  V30 13213 O 1211.39 -0.798691 -1.7866 0
M  V30 13214 C 1211.69 -3.55934 0.323352 0
M  V30 13215 C 1211.36 -4.18131 1.68753 0
M  V30 13216 C 1210.02 -4.34833 2.06092 0
M  V30 13217 C 1212.37 -4.5267 2.58339 0
M  V30 13218 C 1209.7 -4.83362 3.32532 0
M  V30 13219 C 1212.05 -5.02607 3.84148 0
M  V30 13220 C 1210.72 -5.17517 4.21584 0
M  V30 13221 H 1209.99 -0.733996 0.101638 0
M  V30 13222 H 1212.63 -1.66981 0.937528 0
M  V30 13223 H 1210.94 -3.89542 -0.419995 0
M  V30 13224 H 1212.64 -4.00974 -0.0457235 0
M  V30 13225 H 1209.23 -4.0553 1.38722 0
M  V30 13226 H 1213.41 -4.39388 2.30763 0
M  V30 13227 H 1208.67 -4.93091 3.61485 0
M  V30 13228 H 1212.84 -5.28306 4.53724 0
M  V30 13229 H 1210.47 -5.54882 5.19625 0
M  V30 13230 N 1212.04 -0.478751 -1.50152 0
M  V30 13231 C 1213.01 0.300181 -2.27226 0
M  V30 13232 C 1214.01 0.913705 -1.32318 0
M  V30 13233 O 1215.2 0.781692 -1.55677 0
M  V30 13234 C 1212.33 1.42838 -3.09532 0
M  V30 13235 H 1213.52 -0.375845 -2.97536 0
M  V30 13236 H 1211.07 -0.233037 -1.54553 0
M  V30 13237 H 1211.81 2.13923 -2.43737 0
M  V30 13238 H 1211.59 0.994161 -3.79287 0
M  V30 13239 H 1213.08 1.97765 -3.67802 0
M  V30 13240 N 1213.52 1.56172 -0.211661 0
M  V30 13241 C 1214.47 2.21206 0.719063 0
M  V30 13242 C 1215.46 1.18835 1.20725 0
M  V30 13243 O 1216.67 1.36939 1.16823 0
M  V30 13244 H 1213.04 0.709129 0.250279 0
M  V30 13245 H 1215.01 2.98038 0.147022 0
M  V30 13246 C 1213.76 2.89826 1.92084 0
M  V30 13247 H 1213.09 3.68351 1.55428 0
M  V30 13248 H 1214.53 3.38744 2.55006 0
M  V30 13249 C 1212.99 1.91756 2.77004 0
M  V30 13250 O 1213.52 1.42826 3.75451 0
M  V30 13251 N 1211.72 1.59622 2.42836 0
M  V30 13252 H 1211.27 1.99606 1.62835 0
M  V30 13253 H 1211.23 0.942641 2.99936 0
M  V30 13254 N 1215 -0.0618163 1.57479 0
M  V30 13255 C 1215.93 -1.07252 2.07411 0
M  V30 13256 C 1216.91 -1.39756 0.969649 0
M  V30 13257 O 1218.09 -1.4921 1.24298 0
M  V30 13258 C 1215.22 -2.38313 2.52635 0
M  V30 13259 C 1214.18 -2.20136 3.67048 0
M  V30 13260 C 1213.5 -3.56668 3.98361 0
M  V30 13261 C 1214.8 -1.61437 4.96725 0
M  V30 13262 H 1216.5 -0.656983 2.92103 0
M  V30 13263 H 1214.04 -0.314579 1.40522 0
M  V30 13264 H 1216 -3.09319 2.86181 0
M  V30 13265 H 1214.72 -2.81865 1.64984 0
M  V30 13266 H 1213.38 -1.51569 3.338 0
M  V30 13267 H 1213.03 -3.97809 3.07826 0
M  V30 13268 H 1212.73 -3.45342 4.75408 0
M  V30 13269 H 1214.25 -4.2909 4.34413 0
M  V30 13270 H 1215.67 -2.2232 5.28438 0
M  V30 13271 H 1214.06 -1.60779 5.78161 0
M  V30 13272 H 1215.13 -0.576795 4.81457 0
M  V30 13273 N 1216.48 -1.54033 -0.333429 0
M  V30 13274 C 1217.39 -1.85737 -1.43314 0
M  V30 13275 C 1218.4 -0.748398 -1.57083 0
M  V30 13276 O 1219.58 -1.04171 -1.72367 0
M  V30 13277 C 1216.64 -2.06942 -2.78165 0
M  V30 13278 C 1215.7 -3.30774 -2.73655 0
M  V30 13279 C 1214.94 -3.50957 -4.02075 0
M  V30 13280 O 1215.16 -2.74774 -4.99855 0
M  V30 13281 O 1214.09 -4.44412 -4.05933 0
M  V30 13282 H 1217.92 -2.7923 -1.19434 0
M  V30 13283 H 1215.51 -1.39814 -0.526546 0
M  V30 13284 H 1217.39 -2.22276 -3.58011 0
M  V30 13285 H 1216.06 -1.16638 -3.01956 0
M  V30 13286 H 1214.97 -3.20835 -1.92395 0
M  V30 13287 H 1216.3 -4.21103 -2.54819 0
M  V30 13288 N 1217.95 0.594978 -1.45938 0
M  V30 13289 C 1219.18 1.37794 -1.53936 0
M  V30 13290 C 1219.59 1.88388 -0.175091 0
M  V30 13291 O 1218.94 1.63587 0.835757 0
M  V30 13292 C 1219 2.60906 -2.47322 0
M  V30 13293 C 1218.66 2.31865 -3.93812 0
M  V30 13294 C 1219.66 1.91451 -4.83366 0
M  V30 13295 C 1217.34 2.44387 -4.3884 0
M  V30 13296 C 1219.34 1.63938 -6.15957 0
M  V30 13297 C 1217.02 2.16487 -5.71469 0
M  V30 13298 C 1218.02 1.76326 -6.59847 0
M  V30 13299 O 1217.71 1.4876 -7.90016 0
M  V30 13300 H 1217.44 0.42775 -0.523456 0
M  V30 13301 H 1220 0.731487 -1.91933 0
M  V30 13302 H 1218.23 3.28315 -2.04319 0
M  V30 13303 H 1219.92 3.22964 -2.45863 0
M  V30 13304 H 1220.68 1.81301 -4.49839 0
M  V30 13305 H 1216.56 2.74612 -3.70283 0
M  V30 13306 H 1220.1 1.32516 -6.84898 0
M  V30 13307 H 1216 2.26257 -6.04548 0
M  V30 13308 H 1216.77 1.62708 -8.02165 0
M  V30 13309 N 1219.43 1.33438 0.838571 0
M  V30 13310 C 1220.38 1.23698 1.96981 0
M  V30 13311 C 1221.37 0.138299 1.68835 0
M  V30 13312 O 1222.58 0.302278 1.77444 0
M  V30 13313 H 1218.96 0.383874 0.646641 0
M  V30 13314 H 1220.93 2.19337 2.02321 0
M  V30 13315 C 1219.68 0.993362 3.33208 0
M  V30 13316 H 1219 1.83104 3.55405 0
M  V30 13317 H 1220.44 0.965517 4.1286 0
M  V30 13318 C 1218.9 -0.303701 3.35528 0
M  V30 13319 O 1219.43 -1.3103 3.79729 0
M  V30 13320 N 1217.63 -0.331342 2.88705 0
M  V30 13321 H 1217.18 0.488351 2.52929 0
M  V30 13322 H 1217.14 -1.199 2.9064 0
M  V30 13323 N 1220.91 -1.05686 1.16912 0
M  V30 13324 C 1222.14 -1.82821 0.979348 0
M  V30 13325 C 1222.56 -1.82196 -0.467575 0
M  V30 13326 O 1221.92 -1.22727 -1.33445 0
M  V30 13327 C 1221.97 -3.2705 1.51891 0
M  V30 13328 O 1221.07 -4.05899 0.729341 0
M  V30 13329 H 1220.41 -0.565455 0.348076 0
M  V30 13330 H 1222.94 -1.33211 1.55293 0
M  V30 13331 H 1222.95 -3.77859 1.53904 0
M  V30 13332 H 1221.63 -3.26819 2.5722 0
M  V30 13333 H 1220.2 -3.64646 0.780221 0
M  V30 13334 N 1222.39 -0.968567 -1.24324 0
M  V30 13335 C 1223.34 -0.491346 -2.27351 0
M  V30 13336 C 1224.33 0.445563 -1.63435 0
M  V30 13337 O 1225.54 0.320758 -1.77119 0
M  V30 13338 H 1221.91 -0.14043 -0.738772 0
M  V30 13339 H 1223.88 -1.37224 -2.64976 0
M  V30 13340 C 1222.63 0.202093 -3.47112 0
M  V30 13341 H 1221.95 -0.50973 -3.96537 0
M  V30 13342 H 1223.39 0.499815 -4.21044 0
M  V30 13343 C 1221.85 1.42937 -3.05075 0
M  V30 13344 O 1222.38 2.52635 -3.12312 0
M  V30 13345 N 1220.59 1.29572 -2.60114 0
M  V30 13346 H 1220.14 0.403169 -2.54425 0
M  V30 13347 H 1220.09 2.118 -2.32353 0
M  V30 13348 N 1223.87 1.39211 -0.738786 0
M  V30 13349 C 1224.81 2.30578 -0.10129 0
M  V30 13350 C 1225.78 1.49412 0.725616 0
M  V30 13351 O 1226.97 1.78087 0.684799 0
M  V30 13352 C 1224.11 3.35767 0.797161 0
M  V30 13353 C 1223.22 4.31979 -0.0427701 0
M  V30 13354 C 1222.36 5.24236 0.857306 0
M  V30 13355 C 1221.4 6.12099 0.0128501 0
M  V30 13356 N 1220.53 6.96701 0.869067 0
M  V30 13357 H 1225.37 2.84522 -0.88606 0
M  V30 13358 H 1222.91 1.40093 -0.448602 0
M  V30 13359 H 1224.87 3.95347 1.33255 0
M  V30 13360 H 1223.5 2.83268 1.54787 0
M  V30 13361 H 1222.55 3.73986 -0.695622 0
M  V30 13362 H 1223.86 4.93927 -0.69555 0
M  V30 13363 H 1223.02 5.88861 1.4604 0
M  V30 13364 H 1221.75 4.62619 1.54386 0
M  V30 13365 H 1220.76 5.46483 -0.603018 0
M  V30 13366 H 1221.98 6.75781 -0.67054 0
M  V30 13367 H 1219.93 6.37647 1.54084 0
M  V30 13368 H 1219.85 7.55507 0.272852 0
M  V30 13369 H 1221.12 7.65751 1.4576 0
M  V30 13370 N 1225.34 0.486708 1.49896 0
M  V30 13371 C 1226.57 -0.0599944 2.06513 0
M  V30 13372 C 1226.98 -1.32662 1.34898 0
M  V30 13373 O 1226.33 -1.78915 0.416565 0
M  V30 13374 C 1226.39 -0.39838 3.57286 0
M  V30 13375 C 1226.05 0.768465 4.50493 0
M  V30 13376 C 1227.05 1.65495 4.92856 0
M  V30 13377 C 1224.73 0.96322 4.92978 0
M  V30 13378 C 1226.73 2.72046 5.76429 0
M  V30 13379 C 1224.41 2.03193 5.7633 0
M  V30 13380 C 1225.41 2.9089 6.17958 0
M  V30 13381 O 1225.1 3.95919 6.99645 0
M  V30 13382 H 1224.83 0.0107865 0.675914 0
M  V30 13383 H 1227.39 0.679087 1.93849 0
M  V30 13384 H 1225.62 -1.19086 3.67907 0
M  V30 13385 H 1227.31 -0.882003 3.96201 0
M  V30 13386 H 1228.07 1.51624 4.6069 0
M  V30 13387 H 1223.95 0.29004 4.60087 0
M  V30 13388 H 1227.49 3.40526 6.08841 0
M  V30 13389 H 1223.39 2.17064 6.07909 0
M  V30 13390 H 1224.16 3.93097 7.17925 0
M  V30 13391 N 1226.82 -1.56058 0.219941 0
M  V30 13392 C 1228.05 -2.031 -0.42014 0
M  V30 13393 C 1228.47 -1.09875 -1.52673 0
M  V30 13394 O 1227.83 -0.0866458 -1.81093 0
M  V30 13395 C 1227.88 -3.48389 -0.93047 0
M  V30 13396 O 1226.98 -3.583 -2.04192 0
M  V30 13397 H 1226.32 -0.657129 -0.0952772 0
M  V30 13398 H 1228.85 -2.01787 0.338105 0
M  V30 13399 H 1228.86 -3.88678 -1.2407 0
M  V30 13400 H 1227.54 -4.15725 -0.120539 0
M  V30 13401 H 1226.12 -3.29898 -1.73845 0
M  V30 13402 N 1228.3 0.053464 -1.57509 0
M  V30 13403 C 1229.55 0.748016 -1.87317 0
M  V30 13404 C 1229.86 1.77805 -0.815161 0
M  V30 13405 O 1231.07 2.52347 -1.00167 0
M  V30 13406 C 1229.53 1.38137 -3.32334 0
M  V30 13407 C 1229.13 0.388958 -4.46308 0
M  V30 13408 C 1230.88 2.05722 -3.7132 0
M  V30 13409 C 1228.78 1.02927 -5.82374 0
M  V30 13410 H 1227.71 0.283123 -0.698826 0
M  V30 13411 H 1230.37 0.00170723 -1.835 0
M  V30 13412 H 1228.75 2.17656 -3.3082 0
M  V30 13413 H 1229.92 -0.377752 -4.59249 0
M  V30 13414 H 1228.24 -0.183447 -4.15996 0
M  V30 13415 H 1230.83 2.54437 -4.70283 0
M  V30 13416 H 1231.18 2.86475 -3.02056 0
M  V30 13417 H 1231.71 1.3301 -3.74904 0
M  V30 13418 H 1228.45 0.261674 -6.54977 0
M  V30 13419 H 1227.97 1.7664 -5.732 0
M  V30 13420 H 1229.65 1.54378 -6.28312 0
M  V30 13421 N 1229.78 1.54207 0.325255 0
M  V30 13422 C 1231.01 1.76037 1.08141 0
M  V30 13423 C 1231.42 0.50816 1.82248 0
M  V30 13424 O 1230.76 -0.530709 1.75867 0
M  V30 13425 C 1230.82 2.89876 2.12632 0
M  V30 13426 C 1230.49 4.28841 1.57937 0
M  V30 13427 C 1231.48 5.09755 1.02205 0
M  V30 13428 C 1229.17 4.7538 1.62232 0
M  V30 13429 C 1231.16 6.35317 0.514929 0
M  V30 13430 C 1228.85 6.0091 1.11132 0
M  V30 13431 C 1229.85 6.80712 0.558575 0
M  V30 13432 O 1229.54 8.03881 0.05526 0
M  V30 13433 H 1229.27 0.591332 0.327571 0
M  V30 13434 H 1231.82 2.019 0.377572 0
M  V30 13435 H 1230.05 2.59581 2.86627 0
M  V30 13436 H 1231.74 2.99505 2.73955 0
M  V30 13437 H 1232.51 4.74955 0.981954 0
M  V30 13438 H 1228.39 4.1331 2.04195 0
M  V30 13439 H 1231.93 6.97551 0.0828314 0
M  V30 13440 H 1227.83 6.35201 1.14848 0
M  V30 13441 H 1228.59 8.18322 0.170842 0
M  V30 13442 N 1231.26 -0.58723 1.46251 0
M  V30 13443 C 1232.51 -1.34179 1.50595 0
M  V30 13444 C 1232.82 -1.94943 0.160171 0
M  V30 13445 O 1234.03 -2.71378 0.0813797 0
M  V30 13446 C 1232.48 -2.43159 2.65333 0
M  V30 13447 C 1232.09 -1.88718 4.06312 0
M  V30 13448 C 1233.83 -3.19986 2.78943 0
M  V30 13449 C 1231.74 -2.953 5.12398 0
M  V30 13450 H 1230.67 -0.504401 0.560442 0
M  V30 13451 H 1233.32 -0.627179 1.72449 0
M  V30 13452 H 1231.7 -3.17398 2.368 0
M  V30 13453 H 1232.88 -1.21051 4.44616 0
M  V30 13454 H 1231.19 -1.24572 3.97329 0
M  V30 13455 H 1233.79 -3.9952 3.5537 0
M  V30 13456 H 1234.13 -3.72288 1.86298 0
M  V30 13457 H 1234.67 -2.52852 3.07101 0
M  V30 13458 H 1231.4 -2.4789 6.0682 0
M  V30 13459 H 1230.92 -3.61469 4.78644 0
M  V30 13460 H 1232.6 -3.5933 5.38044 0
M  V30 13461 N 1232.74 -1.33881 -0.831482 0
M  V30 13462 C 1233.67 -1.27384 -1.95693 0
M  V30 13463 C 1234.65 -0.152943 -1.69411 0
M  V30 13464 O 1235.83 -0.34392 -1.9113 0
M  V30 13465 C 1232.96 -1.01982 -3.31989 0
M  V30 13466 C 1231.92 -2.10445 -3.72689 0
M  V30 13467 C 1231.24 -1.70245 -5.06873 0
M  V30 13468 C 1232.54 -3.52194 -3.8569 0
M  V30 13469 H 1234.24 -2.21549 -2.01386 0
M  V30 13470 H 1231.78 -1.06653 -0.967526 0
M  V30 13471 H 1233.73 -0.960841 -4.103 0
M  V30 13472 H 1232.46 -0.0425709 -3.26572 0
M  V30 13473 H 1231.12 -2.15398 -2.96647 0
M  V30 13474 H 1230.77 -0.712036 -4.97935 0
M  V30 13475 H 1230.47 -2.42834 -5.35075 0
M  V30 13476 H 1231.99 -1.65827 -5.87651 0
M  V30 13477 H 1233.4 -3.49701 -4.54293 0
M  V30 13478 H 1231.8 -4.23331 -4.25336 0
M  V30 13479 H 1232.87 -3.9016 -2.87929 0
M  V30 13480 N 1234.21 1.05064 -1.1747 0
M  V30 13481 C 1235.14 2.14786 -0.915936 0
M  V30 13482 C 1236.12 1.69502 0.142561 0
M  V30 13483 O 1237.31 1.94198 -0.00794522 0
M  V30 13484 C 1234.44 3.44629 -0.429864 0
M  V30 13485 C 1233.39 4.03486 -1.42769 0
M  V30 13486 C 1232.72 5.28689 -0.799528 0
M  V30 13487 C 1234.02 4.40823 -2.80129 0
M  V30 13488 H 1235.71 2.3669 -1.83352 0
M  V30 13489 H 1233.26 1.13751 -0.882992 0
M  V30 13490 H 1235.21 4.20737 -0.236245 0
M  V30 13491 H 1233.94 3.22381 0.523263 0
M  V30 13492 H 1232.6 3.29449 -1.60808 0
M  V30 13493 H 1232.24 5.02744 0.160474 0
M  V30 13494 H 1231.94 5.69028 -1.46565 0
M  V30 13495 H 1233.47 6.07483 -0.616212 0
M  V30 13496 H 1234.88 5.07959 -2.65801 0
M  V30 13497 H 1233.28 4.92183 -3.43331 0
M  V30 13498 H 1234.35 3.51108 -3.34441 0
M  V30 13499 N 1235.69 0.975146 1.23809 0
M  V30 13500 C 1236.94 0.636678 1.91388 0
M  V30 13501 C 1237.25 -0.832876 1.76982 0
M  V30 13502 O 1238.46 -1.28218 2.39316 0
M  V30 13503 C 1236.92 1.08813 3.43057 0
M  V30 13504 C 1236.52 2.58165 3.66135 0
M  V30 13505 C 1238.27 0.823154 4.16443 0
M  V30 13506 C 1236.17 2.97004 5.11412 0
M  V30 13507 H 1235.1 0.234424 0.716632 0
M  V30 13508 H 1237.76 1.18235 1.40331 0
M  V30 13509 H 1236.14 0.470709 3.93192 0
M  V30 13510 H 1237.31 3.25101 3.26567 0
M  V30 13511 H 1235.63 2.82353 3.06049 0
M  V30 13512 H 1238.22 1.08925 5.23488 0
M  V30 13513 H 1238.57 -0.240705 4.15604 0
M  V30 13514 H 1239.1 1.4019 3.72279 0
M  V30 13515 H 1235.84 4.02492 5.17378 0
M  V30 13516 H 1235.36 2.34759 5.51949 0
M  V30 13517 H 1237.04 2.8732 5.79704 0
M  V30 13518 N 1237.17 -1.38817 0.746158 0
M  V30 13519 C 1238.13 -2.28876 0.121886 0
M  V30 13520 C 1239.13 -1.46838 -0.655379 0
M  V30 13521 O 1240.32 -1.67377 -0.482744 0
M  V30 13522 C 1237.45 -3.30487 -0.836118 0
M  V30 13523 H 1238.65 -2.85586 0.915453 0
M  V30 13524 H 1236.2 -1.47652 0.512691 0
M  V30 13525 H 1236.94 -2.78853 -1.65563 0
M  V30 13526 H 1236.72 -3.9109 -0.281271 0
M  V30 13527 H 1238.21 -3.97848 -1.26914 0
M  V30 13528 N 1238.65 -0.49465 -1.49636 0
M  V30 13529 C 1239.9 0.0539277 -2.01628 0
M  V30 13530 C 1240.21 1.38634 -1.37986 0
M  V30 13531 O 1241.42 2.02123 -1.81269 0
M  V30 13532 C 1239.87 0.146582 -3.59601 0
M  V30 13533 C 1239.48 -1.1788 -4.32213 0
M  V30 13534 C 1241.22 0.645862 -4.19558 0
M  V30 13535 C 1239.13 -1.04866 -5.82028 0
M  V30 13536 H 1238.06 0.0239278 -0.75362 0
M  V30 13537 H 1240.71 -0.633112 -1.72232 0
M  V30 13538 H 1239.09 0.897931 -3.85685 0
M  V30 13539 H 1240.27 -1.94295 -4.17835 0
M  V30 13540 H 1238.58 -1.61102 -3.83973 0
M  V30 13541 H 1241.18 0.76064 -5.29262 0
M  V30 13542 H 1241.52 1.64313 -3.82501 0
M  V30 13543 H 1242.06 -0.04877 -3.9777 0
M  V30 13544 H 1238.79 -2.02 -6.23599 0
M  V30 13545 H 1238.31 -0.325293 -5.98917 0
M  V30 13546 H 1239.99 -0.724799 -6.42927 0
M  V30 13547 N 1240.13 1.55939 -0.228214 0
M  V30 13548 C 1241.09 2.1932 0.665681 0
M  V30 13549 C 1242.09 1.15699 1.11671 0
M  V30 13550 O 1243.28 1.40893 1.02444 0
M  V30 13551 C 1240.41 2.82185 1.9127 0
M  V30 13552 H 1241.6 2.99687 0.112986 0
M  V30 13553 H 1239.16 1.56285 0.0213865 0
M  V30 13554 H 1239.89 2.05706 2.5071 0
M  V30 13555 H 1239.68 3.58073 1.5977 0
M  V30 13556 H 1241.17 3.30748 2.54942 0
M  V30 13557 N 1241.6 -0.0451101 1.57535 0
M  V30 13558 C 1242.54 -1.08327 2.00849 0
M  V30 13559 C 1243.52 -1.36083 0.889957 0
M  V30 13560 O 1244.7 -1.49009 1.15449 0
M  V30 13561 C 1241.83 -2.42171 2.36793 0
M  V30 13562 C 1240.87 -2.30378 3.58926 0
M  V30 13563 S 1241.71 -1.67244 5.08714 0
M  V30 13564 C 1242.86 -3.02611 5.47885 0
M  V30 13565 H 1243.09 -0.714274 2.88592 0
M  V30 13566 H 1240.63 -0.254561 1.52287 0
M  V30 13567 H 1242.59 -3.1915 2.58174 0
M  V30 13568 H 1241.25 -2.76224 1.49531 0
M  V30 13569 H 1240.44 -3.29146 3.81679 0
M  V30 13570 H 1240.04 -1.6154 3.37314 0
M  V30 13571 H 1242.33 -3.98941 5.47587 0
M  V30 13572 H 1243.28 -2.84609 6.48385 0
M  V30 13573 H 1243.68 -3.04445 4.75367 0
M  V30 13574 N 1243.08 -1.54377 -0.317073 0
M  V30 13575 C 1244.33 -1.72893 -1.05424 0
M  V30 13576 C 1244.66 -0.506082 -1.87801 0
M  V30 13577 O 1243.91 0.51213 -1.8888 0
M  V30 13578 C 1244.21 -2.96066 -2.00199 0
M  V30 13579 C 1243.88 -4.30551 -1.33927 0
M  V30 13580 C 1242.54 -4.67112 -1.15584 0
M  V30 13581 C 1244.89 -5.13986 -0.864158 0
M  V30 13582 C 1242.22 -5.84701 -0.483892 0
M  V30 13583 C 1244.57 -6.32264 -0.206006 0
M  V30 13584 C 1243.24 -6.67499 -0.0104849 0
M  V30 13585 H 1242.51 -0.63266 -0.385776 0
M  V30 13586 H 1245.15 -1.88623 -0.330722 0
M  V30 13587 H 1243.46 -2.7505 -2.79024 0
M  V30 13588 H 1245.15 -3.07586 -2.57278 0
M  V30 13589 H 1241.74 -4.0179 -1.49207 0
M  V30 13590 H 1245.93 -4.86252 -0.993635 0
M  V30 13591 H 1241.18 -6.10555 -0.32127 0
M  V30 13592 H 1245.36 -6.96192 0.170108 0
M  V30 13593 H 1242.99 -7.58472 0.512209 0
M  V30 13594 N 1244.56 0.579466 -1.4656 0
M  V30 13595 C 1245.81 1.33379 -1.51304 0
M  V30 13596 C 1246.12 1.94855 -0.170507 0
M  V30 13597 O 1247.33 2.71331 -0.0957704 0
M  V30 13598 C 1245.78 2.41748 -2.66619 0
M  V30 13599 C 1245.39 1.8656 -4.07307 0
M  V30 13600 C 1247.14 3.18502 -2.80636 0
M  V30 13601 C 1245.04 2.92578 -5.13957 0
M  V30 13602 H 1243.97 0.501422 -0.56311 0
M  V30 13603 H 1246.62 0.618025 -1.72779 0
M  V30 13604 H 1245.01 3.16138 -2.3848 0
M  V30 13605 H 1246.18 1.18692 -4.45252 0
M  V30 13606 H 1244.5 1.22464 -3.97984 0
M  V30 13607 H 1247.09 3.9763 -3.57483 0
M  V30 13608 H 1247.44 3.71295 -1.8827 0
M  V30 13609 H 1247.97 2.51219 -3.08437 0
M  V30 13610 H 1244.71 2.44668 -6.08126 0
M  V30 13611 H 1244.23 3.58926 -4.80554 0
M  V30 13612 H 1245.91 3.56471 -5.39942 0
M  V30 13613 N 1246.04 1.3432 0.824371 0
M  V30 13614 C 1247.26 1.2982 1.61745 0
M  V30 13615 C 1247.69 -0.125298 1.87682 0
M  V30 13616 O 1247.05 -1.08658 1.45131 0
M  V30 13617 C 1247.09 2.09327 2.93623 0
M  V30 13618 O 1246.2 1.4618 3.85623 0
M  V30 13619 H 1245.54 0.445929 0.491979 0
M  V30 13620 H 1248.07 1.77101 1.02452 0
M  V30 13621 H 1248.08 2.20629 3.43201 0
M  V30 13622 H 1246.75 3.12825 2.74069 0
M  V30 13623 H 1245.33 1.43611 3.44137 0
M  V30 13624 N 1247.52 -1.0444 1.18026 0
M  V30 13625 C 1248.43 -2.15862 0.918747 0
M  V30 13626 C 1249.44 -1.73614 -0.115808 0
M  V30 13627 O 1250.62 -2.01294 0.0652312 0
M  V30 13628 C 1247.68 -3.43846 0.443922 0
M  V30 13629 C 1246.74 -4.00497 1.54599 0
M  V30 13630 C 1245.98 -5.22373 1.09372 0
M  V30 13631 O 1246.2 -5.70379 -0.049085 0
M  V30 13632 O 1245.13 -5.71459 1.88992 0
M  V30 13633 H 1248.96 -2.40776 1.85097 0
M  V30 13634 H 1246.55 -1.14326 0.961769 0
M  V30 13635 H 1248.43 -4.20985 0.187017 0
M  V30 13636 H 1247.1 -3.20414 -0.460051 0
M  V30 13637 H 1246.01 -3.24764 1.85686 0
M  V30 13638 H 1247.34 -4.28262 2.42595 0
M  V30 13639 N 1248.99 -0.981699 -1.2329 0
M  V30 13640 C 1250.22 -0.66937 -1.95773 0
M  V30 13641 C 1250.64 0.763898 -1.72656 0
M  V30 13642 O 1249.99 1.51418 -1.01876 0
M  V30 13643 C 1250.05 -0.951863 -3.48743 0
M  V30 13644 O 1249.77 -2.3288 -3.71078 0
M  V30 13645 C 1251.27 -0.655668 -4.38424 0
M  V30 13646 H 1248.49 -0.248545 -0.623271 0
M  V30 13647 H 1251.03 -1.31343 -1.56746 0
M  V30 13648 H 1249.19 -0.353787 -3.85781 0
M  V30 13649 H 1249.6 -2.41948 -4.65362 0
M  V30 13650 H 1251.07 -0.903683 -5.44553 0
M  V30 13651 H 1251.55 0.410269 -4.3728 0
M  V30 13652 H 1252.16 -1.23428 -4.06996 0
M  V30 13653 N 1250.47 1.3842 -0.753509 0
M  V30 13654 C 1251.4 2.33073 -0.141198 0
M  V30 13655 C 1252.38 1.54863 0.70367 0
M  V30 13656 O 1253.57 1.8318 0.644872 0
M  V30 13657 C 1250.7 3.39043 0.752802 0
M  V30 13658 C 1249.65 4.27999 0.0106692 0
M  V30 13659 C 1248.98 5.24824 1.02291 0
M  V30 13660 C 1250.28 5.09308 -1.15768 0
M  V30 13661 H 1251.97 2.84528 -0.93188 0
M  V30 13662 H 1249.52 1.36802 -0.449567 0
M  V30 13663 H 1251.47 4.04224 1.19083 0
M  V30 13664 H 1250.2 2.8607 1.57581 0
M  V30 13665 H 1248.85 3.64323 -0.407939 0
M  V30 13666 H 1248.5 4.68139 1.83998 0
M  V30 13667 H 1248.2 5.85196 0.53101 0
M  V30 13668 H 1249.73 5.92882 1.46026 0
M  V30 13669 H 1251.14 5.6773 -0.797203 0
M  V30 13670 H 1249.54 5.78914 -1.58044 0
M  V30 13671 H 1250.61 4.43051 -1.97062 0
M  V30 13672 N 1251.95 0.502579 1.49372 0
M  V30 13673 C 1252.9 -0.275004 2.29156 0
M  V30 13674 C 1253.87 -0.95892 1.35624 0
M  V30 13675 O 1255.05 -0.965276 1.64581 0
M  V30 13676 C 1252.19 -1.33255 3.18335 0
M  V30 13677 C 1251.31 -0.660248 4.26925 0
M  V30 13678 C 1250.44 -1.69837 5.03318 0
M  V30 13679 C 1249.48 -1.00802 6.03743 0
M  V30 13680 N 1248.62 -1.99042 6.73295 0
M  V30 13681 H 1253.46 0.411599 2.95144 0
M  V30 13682 H 1250.99 0.214824 1.45523 0
M  V30 13683 H 1252.95 -1.95769 3.68416 0
M  V30 13684 H 1251.58 -1.98789 2.54328 0
M  V30 13685 H 1250.63 0.0782181 3.8032 0
M  V30 13686 H 1251.95 -0.11689 4.98663 0
M  V30 13687 H 1251.1 -2.39852 5.57275 0
M  V30 13688 H 1249.84 -2.27558 4.31357 0
M  V30 13689 H 1248.84 -0.293654 5.49015 0
M  V30 13690 H 1250.07 -0.437285 6.77691 0
M  V30 13691 H 1248.01 -2.55722 6.04104 0
M  V30 13692 H 1247.93 -1.49776 7.41015 0
M  V30 13693 H 1249.2 -2.6834 7.31856 0
M  V30 13694 N 1253.43 -1.55816 0.23648 0
M  V30 13695 C 1254.38 -2.22322 -0.68378 0
M  V30 13696 C 1255.37 -1.2074 -1.1882 0
M  V30 13697 O 1256.58 -1.38781 -1.14629 0
M  V30 13698 H 1252.95 -0.713021 -0.238966 0
M  V30 13699 H 1254.92 -2.98234 -0.0995879 0
M  V30 13700 C 1253.67 -2.92845 -1.87449 0
M  V30 13701 H 1252.99 -3.70777 -1.49548 0
M  V30 13702 H 1254.43 -3.42758 -2.49585 0
M  V30 13703 C 1252.89 -1.96139 -2.73918 0
M  V30 13704 O 1253.42 -1.48781 -3.73132 0
M  V30 13705 N 1251.63 -1.63465 -2.40266 0
M  V30 13706 H 1251.18 -2.02171 -1.59639 0
M  V30 13707 H 1251.13 -0.990239 -2.98398 0
M  V30 13708 N 1254.91 0.036755 -1.57557 0
M  V30 13709 C 1256.14 0.740011 -1.92892 0
M  V30 13710 C 1256.54 1.69828 -0.833964 0
M  V30 13711 O 1255.89 1.82619 0.198974 0
M  V30 13712 C 1255.95 1.55827 -3.23972 0
M  V30 13713 C 1255.61 0.765613 -4.50541 0
M  V30 13714 C 1256.61 0.0692686 -5.19854 0
M  V30 13715 C 1254.3 0.722425 -4.97078 0
M  V30 13716 C 1256.29 -0.659649 -6.33977 0
M  V30 13717 C 1253.98 -0.0102431 -6.11099 0
M  V30 13718 C 1254.97 -0.700047 -6.79403 0
M  V30 13719 O 1254.66 -1.42084 -7.91244 0
M  V30 13720 H 1254.39 0.213496 -0.641401 0
M  V30 13721 H 1256.95 0.000665152 -2.054 0
M  V30 13722 H 1255.18 2.34125 -3.0777 0
M  V30 13723 H 1256.87 2.14343 -3.44691 0
M  V30 13724 H 1257.63 0.0937148 -4.84909 0
M  V30 13725 H 1253.51 1.24883 -4.43763 0
M  V30 13726 H 1257.06 -1.19861 -6.87226 0
M  V30 13727 H 1252.95 -0.0366395 -6.4549 0
M  V30 13728 H 1253.72 -1.33372 -8.07561 0
M  V30 13729 N 1256.39 1.54543 0.308881 0
M  V30 13730 C 1257.62 1.77174 1.06268 0
M  V30 13731 C 1258.02 0.527461 1.81699 0
M  V30 13732 O 1257.37 -0.512027 1.7642 0
M  V30 13733 C 1257.43 2.92115 2.09545 0
M  V30 13734 C 1257.09 4.30492 1.5338 0
M  V30 13735 C 1258.09 5.1081 0.967923 0
M  V30 13736 C 1255.77 4.77074 1.5718 0
M  V30 13737 C 1257.77 6.35827 0.447517 0
M  V30 13738 C 1255.46 6.02055 1.04753 0
M  V30 13739 C 1256.45 6.81266 0.486345 0
M  V30 13740 O 1256.14 8.03894 -0.0300055 0
M  V30 13741 H 1255.87 0.594773 0.321281 0
M  V30 13742 H 1258.43 2.02289 0.356136 0
M  V30 13743 H 1256.66 2.62606 2.83857 0
M  V30 13744 H 1258.35 3.02394 2.70763 0
M  V30 13745 H 1259.11 4.7597 0.931523 0
M  V30 13746 H 1254.99 4.15453 1.998 0
M  V30 13747 H 1258.54 6.97599 0.00884212 0
M  V30 13748 H 1254.43 6.36383 1.08105 0
M  V30 13749 H 1255.2 8.18457 0.0840381 0
M  V30 13750 N 1257.86 -0.571685 1.46866 0
M  V30 13751 C 1258.81 -1.70098 1.58649 0
M  V30 13752 C 1259.81 -1.63191 0.45443 0
M  V30 13753 O 1261.01 -1.68551 0.63171 0
M  V30 13754 H 1257.39 -0.56258 0.499007 0
M  V30 13755 H 1259.36 -1.57293 2.53577 0
M  V30 13756 C 1258.11 -3.08475 1.60433 0
M  V30 13757 H 1257.43 -3.14465 2.46884 0
M  V30 13758 H 1258.87 -3.87221 1.7273 0
M  V30 13759 C 1257.33 -3.35231 0.334948 0
M  V30 13760 O 1257.86 -3.97633 -0.570149 0
M  V30 13761 N 1256.06 -2.8977 0.219441 0
M  V30 13762 H 1255.61 -2.39168 0.956891 0
M  V30 13763 H 1255.57 -3.08044 -0.628975 0
M  V30 13764 N 1259.34 -1.34755 -0.817236 0
M  V30 13765 C 1260.29 -1.26816 -1.94988 0
M  V30 13766 C 1261.28 -0.165142 -1.68593 0
M  V30 13767 O 1262.49 -0.330469 -1.7694 0
M  V30 13768 H 1258.86 -0.394113 -0.640452 0
M  V30 13769 H 1260.84 -2.22528 -1.98806 0
M  V30 13770 C 1259.58 -1.04625 -3.31586 0
M  V30 13771 H 1258.91 -1.88735 -3.52447 0
M  V30 13772 H 1260.35 -1.03108 -4.11272 0
M  V30 13773 C 1258.81 0.250283 -3.35969 0
M  V30 13774 O 1259.34 1.24972 -3.81765 0
M  V30 13775 N 1257.54 0.285369 -2.89195 0
M  V30 13776 H 1257.09 -0.528528 -2.5212 0
M  V30 13777 H 1257.05 1.15261 -2.9251 0
M  V30 13778 N 1260.82 1.03812 -1.18578 0
M  V30 13779 C 1261.77 2.11883 -0.915115 0
M  V30 13780 C 1262.74 1.65453 0.146479 0
M  V30 13781 O 1263.92 1.90799 0.00630058 0
M  V30 13782 C 1261.06 3.42157 -0.449755 0
M  V30 13783 C 1260.17 4.02185 -1.57706 0
M  V30 13784 C 1259.31 5.20431 -1.06417 0
M  V30 13785 C 1258.35 5.72496 -2.16599 0
M  V30 13786 N 1257.49 6.82027 -1.66685 0
M  V30 13787 H 1262.33 2.34373 -1.84047 0
M  V30 13788 H 1259.86 1.14962 -0.917728 0
M  V30 13789 H 1261.82 4.16888 -0.161407 0
M  V30 13790 H 1260.45 3.19806 0.438622 0
M  V30 13791 H 1259.5 3.24757 -1.98083 0
M  V30 13792 H 1260.81 4.36851 -2.40754 0
M  V30 13793 H 1259.97 6.02286 -0.730497 0
M  V30 13794 H 1258.71 4.87276 -0.203301 0
M  V30 13795 H 1257.71 4.8926 -2.50808 0
M  V30 13796 H 1258.94 6.07694 -3.03126 0
M  V30 13797 H 1256.88 6.50742 -0.828916 0
M  V30 13798 H 1256.8 7.1577 -2.43329 0
M  V30 13799 H 1258.07 7.67499 -1.36253 0
M  V30 13800 N 1262.3 0.988223 1.22768 0
M  V30 13801 C 1263.55 0.656941 1.90702 0
M  V30 13802 C 1263.86 -0.814058 1.77855 0
M  V30 13803 O 1265.07 -1.25673 2.40663 0
M  V30 13804 C 1263.52 1.12445 3.41883 0
M  V30 13805 C 1263.13 2.62034 3.63376 0
M  V30 13806 C 1264.87 0.867277 4.15546 0
M  V30 13807 C 1262.78 3.02412 5.08233 0
M  V30 13808 H 1261.71 0.242012 0.714105 0
M  V30 13809 H 1264.36 1.19716 1.39069 0
M  V30 13810 H 1262.74 0.512386 3.92671 0
M  V30 13811 H 1263.92 3.28546 3.23101 0
M  V30 13812 H 1262.23 2.85583 3.03037 0
M  V30 13813 H 1264.83 1.14471 5.22303 0
M  V30 13814 H 1265.17 -0.196611 4.15835 0
M  V30 13815 H 1265.71 1.4413 3.70771 0
M  V30 13816 H 1262.44 4.07957 5.1308 0
M  V30 13817 H 1261.96 2.406 5.49429 0
M  V30 13818 H 1263.64 2.93452 5.76624 0
M  V30 13819 N 1263.78 -1.38018 0.760839 0
M  V30 13820 C 1265.02 -1.99557 0.319609 0
M  V30 13821 C 1265.34 -1.60699 -1.10457 0
M  V30 13822 O 1264.61 -0.867248 -1.75658 0
M  V30 13823 H 1263.19 -0.738066 0.115182 0
M  V30 13824 H 1265.86 -1.6867 0.976544 0
M  V30 13825 H 1264.95 -3.09672 0.388523 0
M  V30 13826 N 1265.25 -0.510493 -1.49103 0
M  V30 13827 C 1266.16 0.267176 -2.33074 0
M  V30 13828 C 1267.18 0.958117 -1.45245 0
M  V30 13829 O 1268.36 0.937399 -1.78255 0
M  V30 13830 C 1265.42 1.31212 -3.20911 0
M  V30 13831 C 1264.48 0.633613 -4.24598 0
M  V30 13832 C 1263.71 1.62878 -5.08239 0
M  V30 13833 O 1263.94 2.85958 -4.93543 0
M  V30 13834 O 1262.87 1.17887 -5.90242 0
M  V30 13835 H 1266.7 -0.420384 -3.00776 0
M  V30 13836 H 1264.28 -0.271683 -1.46909 0
M  V30 13837 H 1266.16 1.91647 -3.75299 0
M  V30 13838 H 1264.84 1.98244 -2.55892 0
M  V30 13839 H 1263.75 -0.0107246 -3.74098 0
M  V30 13840 H 1265.08 0.0055777 -4.922 0
M  V30 13841 N 1266.73 1.55688 -0.24474 0
M  V30 13842 C 1267.68 2.21289 0.655723 0
M  V30 13843 C 1268.65 1.17606 1.17295 0
M  V30 13844 O 1269.83 1.46045 1.22782 0
M  V30 13845 C 1266.97 2.91453 1.84794 0
M  V30 13846 C 1266.09 4.09787 1.36744 0
M  V30 13847 C 1265.22 4.67672 2.51905 0
M  V30 13848 C 1264.26 5.78259 2.00706 0
M  V30 13849 N 1263.4 6.30336 3.09225 0
M  V30 13850 H 1268.24 2.97865 0.0896156 0
M  V30 13851 H 1265.77 1.47064 0.0324725 0
M  V30 13852 H 1267.73 3.30331 2.54828 0
M  V30 13853 H 1266.36 2.17355 2.38656 0
M  V30 13854 H 1265.41 3.76237 0.561228 0
M  V30 13855 H 1266.73 4.89627 0.952199 0
M  V30 13856 H 1265.88 5.09113 3.29984 0
M  V30 13857 H 1264.62 3.87044 2.9673 0
M  V30 13858 H 1263.62 5.36298 1.21097 0
M  V30 13859 H 1264.85 6.60737 1.56853 0
M  V30 13860 H 1262.8 5.52614 3.53489 0
M  V30 13861 H 1262.71 7.05364 2.72025 0
M  V30 13862 H 1263.98 6.76435 3.8737 0
M  V30 13863 N 1268.21 -0.0283989 1.57574 0
M  V30 13864 C 1269.46 -0.720142 1.89583 0
M  V30 13865 C 1269.79 -1.7497 0.842562 0
M  V30 13866 O 1269.06 -1.93979 -0.142294 0
M  V30 13867 C 1269.35 -1.38909 3.32229 0
M  V30 13868 C 1269.2 -0.372998 4.48251 0
M  V30 13869 C 1270.52 -2.32289 3.73804 0
M  V30 13870 H 1267.64 -0.26033 0.689491 0
M  V30 13871 H 1270.28 0.0170607 1.89992 0
M  V30 13872 H 1268.43 -2.01744 3.32011 0
M  V30 13873 H 1270.1 0.253492 4.60603 0
M  V30 13874 H 1268.34 0.30765 4.32708 0
M  V30 13875 H 1269.02 -0.879549 5.44948 0
M  V30 13876 H 1271.49 -1.79497 3.75393 0
M  V30 13877 H 1270.37 -2.76075 4.74419 0
M  V30 13878 H 1270.63 -3.18992 3.06099 0
M  V30 13879 N 1269.69 -1.54705 -0.300681 0
M  V30 13880 C 1270.6 -1.88736 -1.39341 0
M  V30 13881 C 1271.61 -0.78155 -1.5546 0
M  V30 13882 O 1272.79 -1.07804 -1.70118 0
M  V30 13883 C 1269.85 -2.12795 -2.73713 0
M  V30 13884 C 1268.92 -3.36504 -2.66577 0
M  V30 13885 C 1268.15 -3.59407 -3.94541 0
M  V30 13886 O 1268.37 -2.85315 -4.93914 0
M  V30 13887 O 1267.31 -4.52923 -3.96415 0
M  V30 13888 H 1271.13 -2.817 -1.13484 0
M  V30 13889 H 1268.72 -1.40899 -0.496771 0
M  V30 13890 H 1270.6 -2.29819 -3.53215 0
M  V30 13891 H 1269.27 -1.23017 -2.99414 0
M  V30 13892 H 1268.18 -3.24844 -1.85546 0
M  V30 13893 H 1269.51 -4.26414 -2.45829 0
M  V30 13894 N 1271.17 0.563888 -1.47167 0
M  V30 13895 C 1272.11 1.67151 -1.59152 0
M  V30 13896 C 1273.08 1.60307 -0.434852 0
M  V30 13897 O 1274.27 1.7924 -0.654049 0
M  V30 13898 C 1271.41 3.0548 -1.60549 0
M  V30 13899 C 1270.52 3.2281 -2.87085 0
M  V30 13900 C 1269.66 4.51498 -2.79862 0
M  V30 13901 C 1268.7 4.62237 -4.01252 0
M  V30 13902 N 1267.83 5.82273 -3.92305 0
M  V30 13903 H 1272.67 1.56245 -2.53755 0
M  V30 13904 H 1270.21 0.761219 -1.25872 0
M  V30 13905 H 1272.17 3.85572 -1.59343 0
M  V30 13906 H 1270.8 3.15237 -0.69464 0
M  V30 13907 H 1269.85 2.36196 -2.98188 0
M  V30 13908 H 1271.16 3.2661 -3.76997 0
M  V30 13909 H 1270.32 5.39842 -2.76867 0
M  V30 13910 H 1269.05 4.50166 -1.87621 0
M  V30 13911 H 1268.06 3.72307 -4.04558 0
M  V30 13912 H 1269.28 4.65334 -4.94612 0
M  V30 13913 H 1267.23 5.81902 -3.02862 0
M  V30 13914 H 1267.15 5.87422 -4.7589 0
M  V30 13915 H 1268.42 6.72996 -3.93315 0
M  V30 13916 N 1272.64 1.35187 0.810078 0
M  V30 13917 C 1273.87 1.31371 1.59841 0
M  V30 13918 C 1274.29 -0.109547 1.88482 0
M  V30 13919 O 1273.64 -1.06047 1.48527 0
M  V30 13920 C 1273.7 2.11496 2.93175 0
M  V30 13921 O 1273.42 3.48273 2.65777 0
M  V30 13922 C 1274.92 2.15226 3.87547 0
M  V30 13923 H 1272.14 0.451428 0.496441 0
M  V30 13924 H 1274.68 1.7799 1.00697 0
M  V30 13925 H 1272.84 1.68486 3.48843 0
M  V30 13926 H 1273.25 3.89845 3.50886 0
M  V30 13927 H 1274.72 2.75687 4.78226 0
M  V30 13928 H 1275.2 1.15007 4.23875 0
M  V30 13929 H 1275.81 2.58382 3.37815 0
M  V30 13930 N 1274.12 -1.03182 1.19127 0
M  V30 13931 C 1275.06 -2.10977 0.869702 0
M  V30 13932 C 1276.03 -1.61687 -0.172032 0
M  V30 13933 O 1277.22 -1.88436 -0.0490025 0
M  V30 13934 C 1274.34 -3.37359 0.301049 0
M  V30 13935 C 1273.39 -4.05515 1.32137 0
M  V30 13936 S 1274.22 -4.51415 2.88071 0
M  V30 13937 C 1275.38 -5.81018 2.32741 0
M  V30 13938 H 1275.61 -2.37929 1.78261 0
M  V30 13939 H 1273.15 -1.16079 1.01809 0
M  V30 13940 H 1275.1 -4.10495 -0.0205205 0
M  V30 13941 H 1273.76 -3.08507 -0.590118 0
M  V30 13942 H 1272.96 -4.9639 0.872547 0
M  V30 13943 H 1272.56 -3.38536 1.58963 0
M  V30 13944 H 1274.85 -6.5542 1.71552 0
M  V30 13945 H 1275.79 -6.30677 3.21951 0
M  V30 13946 H 1276.2 -5.36549 1.75429 0
M  V30 13947 N 1275.6 -0.99472 -1.22242 0
M  V30 13948 C 1276.55 -0.546504 -2.24236 0
M  V30 13949 C 1277.52 0.422101 -1.60647 0
M  V30 13950 O 1278.7 0.326452 -1.87987 0
M  V30 13951 C 1275.84 0.130909 -3.44852 0
M  V30 13952 C 1274.96 -0.879653 -4.22949 0
M  V30 13953 C 1274.09 -0.175569 -5.3091 0
M  V30 13954 C 1273.13 -1.17438 -6.00729 0
M  V30 13955 N 1272.27 -0.498474 -7.00328 0
M  V30 13956 H 1277.11 -1.42099 -2.61939 0
M  V30 13957 H 1274.64 -0.711755 -1.28734 0
M  V30 13958 H 1276.6 0.540596 -4.13683 0
M  V30 13959 H 1275.23 0.96917 -3.07907 0
M  V30 13960 H 1274.28 -1.40765 -3.53397 0
M  V30 13961 H 1275.6 -1.64017 -4.71062 0
M  V30 13962 H 1274.75 0.290756 -6.06003 0
M  V30 13963 H 1273.49 0.617438 -4.83776 0
M  V30 13964 H 1272.49 -1.65131 -5.24416 0
M  V30 13965 H 1273.72 -1.96829 -6.4995 0
M  V30 13966 H 1271.66 0.275063 -6.55423 0
M  V30 13967 H 1271.58 -1.19741 -7.46457 0
M  V30 13968 H 1272.85 -0.0550119 -7.79481 0
M  V30 13969 N 1277.08 1.37613 -0.768148 0
M  V30 13970 C 1278.49 1.53202 -0.44737 0
M  V30 13971 C 1278.69 1.72736 1.03752 0
M  V30 13972 O 1277.75 1.74667 1.8234 0
M  V30 13973 C 1279.06 2.7306 -1.25931 0
M  V30 13974 C 1280.61 2.8692 -1.25084 0
M  V30 13975 C 1281.09 4.09757 -2.04605 0
M  V30 13976 N 1282.58 4.16862 -2.0194 0
M  V30 13977 C 1283.31 5.10936 -2.60254 0
M  V30 13978 N 1282.81 6.1059 -3.27341 0
M  V30 13979 N 1284.6 5.03393 -2.50104 0
M  V30 13980 H 1276.75 1.23184 -1.7303 0
M  V30 13981 H 1279.02 0.599541 -0.73434 0
M  V30 13982 H 1278.72 2.65078 -2.31141 0
M  V30 13983 H 1278.6 3.66646 -0.886036 0
M  V30 13984 H 1280.98 2.94375 -0.206736 0
M  V30 13985 H 1281.06 1.94303 -1.66373 0
M  V30 13986 H 1280.71 4.03063 -3.09035 0
M  V30 13987 H 1280.64 5.01481 -1.60701 0
M  V30 13988 H 1283.13 3.455 -1.53096 0
M  V30 13989 H 1283.44 6.78893 -3.6922 0
M  V30 13990 H 1281.79 6.10879 -3.31439 0
M  V30 13991 H 1284.98 4.24483 -1.9731 0
M  V30 13992 H 1285.15 5.76524 -2.95844 0
M  V30 13993 N 1278.56 0.518393 1.4883 0
M  V30 13994 C 1279.97 0.175476 1.58632 0
M  V30 13995 C 1280.17 -1.32081 1.52174 0
M  V30 13996 O 1279.23 -2.09817 1.40474 0
M  V30 13997 C 1280.54 0.767722 2.90734 0
M  V30 13998 C 1282.09 0.735402 3.04238 0
M  V30 13999 C 1282.56 1.30602 4.38984 0
M  V30 14000 N 1284.06 1.26748 4.45521 0
M  V30 14001 C 1284.79 1.679 5.48267 0
M  V30 14002 N 1284.29 2.16728 6.58028 0
M  V30 14003 N 1286.08 1.59209 5.39082 0
M  V30 14004 H 1278.23 1.491 1.51271 0
M  V30 14005 H 1280.49 0.619497 0.717584 0
M  V30 14006 H 1280.2 1.81777 3.01081 0
M  V30 14007 H 1280.07 0.238119 3.76448 0
M  V30 14008 H 1282.46 -0.305852 2.93511 0
M  V30 14009 H 1282.54 1.30235 2.20165 0
M  V30 14010 H 1282.19 2.34614 4.50465 0
M  V30 14011 H 1282.12 0.714858 5.21725 0
M  V30 14012 H 1284.61 0.90991 3.66782 0
M  V30 14013 H 1284.92 2.46154 7.32549 0
M  V30 14014 H 1283.26 2.20714 6.59022 0
M  V30 14015 H 1286.46 1.20869 4.52226 0
M  V30 14016 H 1286.63 1.91602 6.19025 0
M  V30 14017 N 1280.03 -1.55556 0.252993 0
M  V30 14018 C 1280.96 -2.24613 -0.638047 0
M  V30 14019 C 1281.95 -1.22852 -1.1765 0
M  V30 14020 O 1283.13 -1.51519 -1.21472 0
M  V30 14021 C 1280.26 -2.95029 -1.83236 0
M  V30 14022 C 1279.21 -4.03531 -1.42641 0
M  V30 14023 C 1278.54 -4.61404 -2.70204 0
M  V30 14024 C 1279.84 -5.18923 -0.592958 0
M  V30 14025 H 1281.53 -2.99335 -0.0621918 0
M  V30 14026 H 1279.08 -1.43972 -0.0284722 0
M  V30 14027 H 1281.03 -3.42042 -2.46141 0
M  V30 14028 H 1279.76 -2.17805 -2.43369 0
M  V30 14029 H 1278.42 -3.57296 -0.820672 0
M  V30 14030 H 1278.06 -3.80874 -3.28548 0
M  V30 14031 H 1277.76 -5.34652 -2.43764 0
M  V30 14032 H 1279.29 -5.11154 -3.33997 0
M  V30 14033 H 1280.7 -5.62124 -1.12646 0
M  V30 14034 H 1279.1 -5.98598 -0.424358 0
M  V30 14035 H 1280.17 -4.83301 0.393434 0
M  V30 14036 N 1281.51 0.0200419 -1.57587 0
M  V30 14037 C 1282.76 0.709027 -1.89681 0
M  V30 14038 C 1283.09 1.74876 -0.851396 0
M  V30 14039 O 1282.34 1.95151 0.146483 0
M  V30 14040 C 1282.64 1.40729 -3.28527 0
M  V30 14041 C 1282.31 0.502686 -4.48089 0
M  V30 14042 C 1280.97 0.253558 -4.80532 0
M  V30 14043 C 1283.32 -0.121338 -5.21059 0
M  V30 14044 C 1280.65 -0.628221 -5.83327 0
M  V30 14045 C 1283 -0.990873 -6.24792 0
M  V30 14046 C 1281.67 -1.24937 -6.55703 0
M  V30 14047 H 1280.94 0.259451 -0.694094 0
M  V30 14048 H 1283.58 -0.03118 -1.91475 0
M  V30 14049 H 1281.89 2.22105 -3.22764 0
M  V30 14050 H 1283.58 1.94609 -3.50611 0
M  V30 14051 H 1280.17 0.707018 -4.22728 0
M  V30 14052 H 1284.36 0.0581516 -4.96266 0
M  V30 14053 H 1279.61 -0.836712 -6.05648 0
M  V30 14054 H 1283.79 -1.48087 -6.80473 0
M  V30 14055 H 1281.42 -1.93436 -7.35178 0
M  V30 14056 N 1282.99 1.54862 0.292472 0
M  V30 14057 C 1283.9 1.89472 1.38339 0
M  V30 14058 C 1284.92 0.789783 1.55043 0
M  V30 14059 O 1286.09 1.08705 1.69544 0
M  V30 14060 C 1283.16 2.14244 2.72581 0
M  V30 14061 C 1282.22 3.37913 2.64789 0
M  V30 14062 C 1281.45 3.61494 3.92629 0
M  V30 14063 O 1281.67 2.87931 4.92394 0
M  V30 14064 O 1280.61 4.55019 3.94007 0
M  V30 14065 H 1284.43 2.82298 1.11989 0
M  V30 14066 H 1282.02 1.41161 0.489291 0
M  V30 14067 H 1283.9 2.31689 3.51991 0
M  V30 14068 H 1282.58 1.24603 2.98757 0
M  V30 14069 H 1281.48 3.25823 1.83821 0
M  V30 14070 H 1282.82 4.27711 2.43565 0
M  V30 14071 N 1284.47 -0.556076 1.47464 0
M  V30 14072 C 1285.42 -1.68406 1.60444 0
M  V30 14073 C 1286.41 -1.627 0.471713 0
M  V30 14074 O 1287.62 -1.67871 0.649551 0
M  V30 14075 H 1283.99 -0.557255 0.504946 0
M  V30 14076 H 1285.96 -1.54595 2.55231 0
M  V30 14077 C 1284.71 -3.06756 1.63695 0
M  V30 14078 H 1284.03 -3.11829 2.50206 0
M  V30 14079 H 1285.47 -3.85368 1.76827 0
M  V30 14080 C 1283.93 -3.34857 0.370485 0
M  V30 14081 O 1284.46 -3.98216 -0.527942 0
M  V30 14082 N 1282.67 -2.89521 0.250163 0
M  V30 14083 H 1282.22 -2.3814 0.982204 0
M  V30 14084 H 1282.17 -3.08694 -0.596268 0
M  V30 14085 N 1285.95 -1.35615 -0.802897 0
M  V30 14086 C 1287.2 -1.28428 -1.55528 0
M  V30 14087 C 1287.51 0.138275 -1.95111 0
M  V30 14088 O 1288.72 0.332435 -2.69457 0
M  V30 14089 C 1287.17 -2.25251 -2.80696 0
M  V30 14090 C 1286.78 -3.72871 -2.48336 0
M  V30 14091 C 1288.52 -2.27014 -3.58699 0
M  V30 14092 C 1286.43 -4.61507 -3.69817 0
M  V30 14093 H 1285.36 -0.47718 -0.583794 0
M  V30 14094 H 1288.01 -1.609 -0.882238 0
M  V30 14095 H 1286.39 -1.85755 -3.4973 0
M  V30 14096 H 1287.57 -4.21024 -1.87285 0
M  V30 14097 H 1285.88 -3.73752 -1.83571 0
M  V30 14098 H 1288.48 -2.90451 -4.48935 0
M  V30 14099 H 1288.82 -1.27491 -3.96298 0
M  V30 14100 H 1289.36 -2.65058 -2.9663 0
M  V30 14101 H 1286.09 -5.62043 -3.37324 0
M  V30 14102 H 1285.61 -4.18079 -4.30081 0
M  V30 14103 H 1287.29 -4.77113 -4.37004 0
M  V30 14104 N 1287.43 1.02549 -1.19673 0
M  V30 14105 C 1288.36 2.12794 -0.961289 0
M  V30 14106 C 1289.34 1.69766 0.106575 0
M  V30 14107 O 1290.52 1.94138 -0.0491358 0
M  V30 14108 C 1287.65 3.4364 -0.502868 0
M  V30 14109 C 1286.61 4.00367 -1.51296 0
M  V30 14110 C 1285.93 5.26874 -0.911491 0
M  V30 14111 C 1287.23 4.34782 -2.89416 0
M  V30 14112 H 1288.93 2.32748 -1.88331 0
M  V30 14113 H 1286.47 1.11852 -0.906922 0
M  V30 14114 H 1288.42 4.20141 -0.325436 0
M  V30 14115 H 1287.15 3.23418 0.454764 0
M  V30 14116 H 1285.81 3.25964 -1.67759 0
M  V30 14117 H 1285.46 5.02971 0.0537982 0
M  V30 14118 H 1285.16 5.65791 -1.58602 0
M  V30 14119 H 1286.68 6.06039 -0.74493 0
M  V30 14120 H 1288.09 5.02207 -2.76516 0
M  V30 14121 H 1286.49 4.8479 -3.53693 0
M  V30 14122 H 1287.56 3.43935 -3.41814 0
M  V30 14123 N 1288.9 1.00119 1.21713 0
M  V30 14124 C 1290.13 0.699416 1.94401 0
M  V30 14125 C 1290.54 -0.741376 1.7407 0
M  V30 14126 O 1289.88 -1.51286 1.04203 0
M  V30 14127 C 1289.95 0.935875 3.47105 0
M  V30 14128 C 1289.61 2.36276 3.91181 0
M  V30 14129 C 1290.61 3.34276 3.9819 0
M  V30 14130 C 1288.29 2.6994 4.23601 0
M  V30 14131 C 1290.29 4.6401 4.37005 0
M  V30 14132 C 1287.97 3.99891 4.62094 0
M  V30 14133 C 1288.97 4.96737 4.68766 0
M  V30 14134 O 1288.66 6.24364 5.06384 0
M  V30 14135 H 1288.39 0.257233 0.625146 0
M  V30 14136 H 1290.95 1.34098 1.55585 0
M  V30 14137 H 1289.18 0.237133 3.85972 0
M  V30 14138 H 1290.86 0.628075 4.01011 0
M  V30 14139 H 1291.63 3.09603 3.73324 0
M  V30 14140 H 1287.51 1.95257 4.17607 0
M  V30 14141 H 1291.05 5.39601 4.42128 0
M  V30 14142 H 1286.95 4.2435 4.86412 0
M  V30 14143 H 1287.72 6.28424 5.24429 0
M  V30 14144 N 1290.38 -1.37203 0.775435 0
M  V30 14145 C 1291.31 -2.28873 0.122374 0
M  V30 14146 C 1292.33 -1.48811 -0.660239 0
M  V30 14147 O 1293.52 -1.7142 -0.497724 0
M  V30 14148 C 1290.62 -3.28062 -0.850212 0
M  V30 14149 C 1289.79 -4.37234 -0.120633 0
M  V30 14150 C 1288.85 -5.16472 -1.00712 0
M  V30 14151 O 1287.87 -5.6726 -0.469528 0
M  V30 14152 N 1289.08 -5.31556 -2.33299 0
M  V30 14153 H 1291.84 -2.85559 0.909741 0
M  V30 14154 H 1289.4 -1.49219 0.628107 0
M  V30 14155 H 1291.39 -3.77956 -1.44678 0
M  V30 14156 H 1289.96 -2.72118 -1.53853 0
M  V30 14157 H 1289.18 -3.88688 0.656879 0
M  V30 14158 H 1290.47 -5.07354 0.383358 0
M  V30 14159 H 1289.87 -4.91883 -2.79406 0
M  V30 14160 H 1288.43 -5.84745 -2.87953 0
M  V30 14161 N 1291.86 -0.526279 -1.48553 0
M  V30 14162 C 1292.77 0.24244 -2.33344 0
M  V30 14163 C 1293.79 0.942658 -1.46253 0
M  V30 14164 O 1294.96 0.91844 -1.79239 0
M  V30 14165 C 1292.03 1.27801 -3.22285 0
M  V30 14166 C 1291.09 0.588543 -4.25247 0
M  V30 14167 C 1290.32 1.57478 -5.09938 0
M  V30 14168 O 1290.54 2.80707 -4.96548 0
M  V30 14169 O 1289.48 1.11621 -5.9146 0
M  V30 14170 H 1293.3 -0.452262 -3.00314 0
M  V30 14171 H 1290.89 -0.287249 -1.46613 0
M  V30 14172 H 1292.77 1.87656 -3.7731 0
M  V30 14173 H 1291.45 1.95519 -2.57981 0
M  V30 14174 H 1290.35 -0.0504022 -3.74066 0
M  V30 14175 H 1291.69 -0.046627 -4.92178 0
M  V30 14176 N 1293.34 1.5542 -0.261239 0
M  V30 14177 C 1294.27 2.18043 0.673222 0
M  V30 14178 C 1295.25 1.13696 1.16242 0
M  V30 14179 O 1296.43 1.42153 1.23793 0
M  V30 14180 C 1293.56 2.7926 1.91655 0
M  V30 14181 C 1292.61 3.96788 1.56402 0
M  V30 14182 S 1293.44 5.31489 0.654191 0
M  V30 14183 C 1294.59 5.96167 1.9062 0
M  V30 14184 H 1294.83 2.96965 0.141076 0
M  V30 14185 H 1292.36 1.54333 -0.0455871 0
M  V30 14186 H 1294.32 3.15162 2.63026 0
M  V30 14187 H 1292.98 2.00257 2.41983 0
M  V30 14188 H 1292.17 4.38262 2.48882 0
M  V30 14189 H 1291.77 3.62237 0.930618 0
M  V30 14190 H 1294.07 6.14556 2.8518 0
M  V30 14191 H 1295.01 6.91269 1.53471 0
M  V30 14192 H 1295.42 5.25381 2.06483 0
M  V30 14193 N 1294.82 -0.0116844 1.57596 0
M  V30 14194 C 1296.04 -0.713924 1.94725 0
M  V30 14195 C 1296.47 -1.67157 0.862565 0
M  V30 14196 O 1295.82 -1.80401 -0.180308 0
M  V30 14197 C 1295.87 -1.43214 3.30941 0
M  V30 14198 O 1294.98 -2.5461 3.24419 0
M  V30 14199 H 1294.32 -0.190772 0.636005 0
M  V30 14200 H 1296.85 0.0380247 2.04565 0
M  V30 14201 H 1296.86 -1.79819 3.66237 0
M  V30 14202 H 1295.53 -0.729906 4.09445 0
M  V30 14203 H 1294.11 -2.20419 3.00782 0
M  V30 14204 N 1296.29 -1.55015 -0.284256 0
M  V30 14205 C 1297.54 -1.7509 -1.01733 0
M  V30 14206 C 1297.87 -0.545803 -1.86685 0
M  V30 14207 O 1297.12 0.471951 -1.89924 0
M  V30 14208 C 1297.42 -3.00246 -1.93874 0
M  V30 14209 C 1297.09 -4.33295 -1.24764 0
M  V30 14210 C 1295.75 -4.69459 -1.0565 0
M  V30 14211 C 1298.1 -5.15704 -0.754939 0
M  V30 14212 C 1295.43 -5.85596 -0.35976 0
M  V30 14213 C 1297.78 -6.32559 -0.0718473 0
M  V30 14214 C 1296.45 -6.67371 0.131104 0
M  V30 14215 H 1295.72 -0.6407 -0.372269 0
M  V30 14216 H 1298.36 -1.89282 -0.290638 0
M  V30 14217 H 1296.67 -2.80907 -2.73127 0
M  V30 14218 H 1298.37 -3.12974 -2.50696 0
M  V30 14219 H 1294.96 -4.04865 -1.4065 0
M  V30 14220 H 1299.14 -4.8825 -0.89027 0
M  V30 14221 H 1294.4 -6.11099 -0.19169 0
M  V30 14222 H 1298.57 -6.95675 0.317743 0
M  V30 14223 H 1296.2 -7.57215 0.672977 0
M  V30 14224 N 1297.77 0.548248 -1.47757 0
M  V30 14225 C 1299.02 1.30501 -1.54841 0
M  V30 14226 C 1299.35 1.93314 -0.214476 0
M  V30 14227 O 1298.6 1.7889 0.793526 0
M  V30 14228 C 1298.9 2.42911 -2.62162 0
M  V30 14229 C 1298.57 1.97871 -4.05164 0
M  V30 14230 C 1297.23 1.85304 -4.4409 0
M  V30 14231 C 1299.58 1.63606 -4.94856 0
M  V30 14232 C 1296.91 1.36781 -5.70533 0
M  V30 14233 C 1299.26 1.16552 -6.2177 0
M  V30 14234 C 1297.92 1.02588 -6.5957 0
M  V30 14235 H 1297.19 0.477536 -0.566604 0
M  V30 14236 H 1299.84 0.613837 -1.81395 0
M  V30 14237 H 1298.15 3.17622 -2.29398 0
M  V30 14238 H 1299.84 3.01078 -2.64864 0
M  V30 14239 H 1296.43 2.08597 -3.74413 0
M  V30 14240 H 1300.62 1.72184 -4.65474 0
M  V30 14241 H 1295.87 1.24641 -5.9856 0
M  V30 14242 H 1300.05 0.891041 -6.90676 0
M  V30 14243 H 1297.67 0.647675 -7.57436 0
M  V30 14244 N 1299.25 1.36039 0.795694 0
M  V30 14245 C 1300.53 1.20474 1.54096 0
M  V30 14246 C 1300.91 -0.211691 2.10036 0
M  V30 14247 O 1300.25 -1.21656 1.93422 0
M  V30 14248 C 1300.46 2.28164 2.64087 0
M  V30 14249 C 1301.81 2.64519 3.32137 0
M  V30 14250 O 1302.84 2.2716 2.74366 0
M  V30 14251 O 1301.7 3.28796 4.36527 0
M  V30 14252 H 1298.79 0.468699 0.681359 0
M  V30 14253 H 1301.34 1.47752 0.834716 0
M  V30 14254 H 1300.11 3.23121 2.20701 0
M  V30 14255 H 1299.73 2.02217 3.42336 0
M  V30 14256 N 1300.73 -1.01913 1.20215 0
M  V30 14257 C 1301.66 -2.10513 0.906476 0
M  V30 14258 C 1302.67 -1.62463 -0.104758 0
M  V30 14259 O 1303.86 -1.78055 0.12593 0
M  V30 14260 C 1300.96 -3.3722 0.337012 0
M  V30 14261 C 1300.14 -4.14417 1.39917 0
M  V30 14262 C 1299.19 -5.19428 0.841489 0
M  V30 14263 O 1298.22 -5.48486 1.52157 0
M  V30 14264 N 1299.42 -5.79442 -0.350365 0
M  V30 14265 H 1302.19 -2.36465 1.84132 0
M  V30 14266 H 1299.75 -1.18283 1.10548 0
M  V30 14267 H 1301.74 -4.04669 -0.0501507 0
M  V30 14268 H 1300.31 -3.08538 -0.502325 0
M  V30 14269 H 1299.53 -3.41975 1.96078 0
M  V30 14270 H 1300.82 -4.62777 2.1146 0
M  V30 14271 H 1300.22 -5.58166 -0.920204 0
M  V30 14272 H 1298.77 -6.48252 -0.679194 0
M  V30 14273 N 1302.21 -1.00763 -1.2118 0
M  V30 14274 C 1303.48 -0.607236 -1.85935 0
M  V30 14275 C 1303.86 0.915048 -1.90237 0
M  V30 14276 O 1303.21 1.80308 -1.40361 0
M  V30 14277 C 1303.42 -1.24466 -3.26051 0
M  V30 14278 C 1304.77 -1.35443 -4.02418 0
M  V30 14279 O 1305.79 -1.20018 -3.35372 0
M  V30 14280 O 1304.65 -1.60282 -5.22467 0
M  V30 14281 H 1301.75 -0.208338 -0.800328 0
M  V30 14282 H 1304.29 -1.10444 -1.28842 0
M  V30 14283 H 1303.06 -2.28524 -3.17635 0
M  V30 14284 H 1302.69 -0.733966 -3.90767 0
M  V30 14285 N 1303.68 1.3679 -0.7827 0
M  V30 14286 C 1304.63 2.30139 -0.174595 0
M  V30 14287 C 1305.6 1.51645 0.677714 0
M  V30 14288 O 1306.79 1.80176 0.627796 0
M  V30 14289 C 1303.93 3.38133 0.689936 0
M  V30 14290 C 1303.04 4.31624 -0.180179 0
M  V30 14291 C 1302.17 5.26698 0.69009 0
M  V30 14292 C 1301.21 6.1183 -0.181891 0
M  V30 14293 N 1300.35 6.99113 0.646977 0
M  V30 14294 H 1305.19 2.81559 -0.97613 0
M  V30 14295 H 1302.73 1.38595 -0.492944 0
M  V30 14296 H 1304.69 3.99386 1.2061 0
M  V30 14297 H 1303.32 2.88049 1.45696 0
M  V30 14298 H 1302.37 3.71583 -0.81425 0
M  V30 14299 H 1303.68 4.91464 -0.852337 0
M  V30 14300 H 1302.83 5.93209 1.27232 0
M  V30 14301 H 1301.57 4.67297 1.3959 0
M  V30 14302 H 1300.58 5.44288 -0.776572 0
M  V30 14303 H 1301.8 6.73306 -0.885195 0
M  V30 14304 H 1299.75 6.42227 1.3372 0
M  V30 14305 H 1299.67 7.55993 0.0323547 0
M  V30 14306 H 1300.93 7.7 1.21325 0
M  V30 14307 N 1305.16 0.53415 1.48272 0
M  V30 14308 C 1306.11 -0.239672 2.31362 0
M  V30 14309 C 1307.1 -0.931501 1.4149 0
M  V30 14310 O 1308.31 -0.855411 1.58375 0
M  V30 14311 H 1304.69 -0.09616 0.745827 0
M  V30 14312 H 1306.66 0.480638 2.94504 0
M  V30 14313 C 1305.41 -1.27102 3.23636 0
M  V30 14314 H 1304.73 -0.748082 3.92739 0
M  V30 14315 H 1306.17 -1.78379 3.84652 0
M  V30 14316 C 1304.63 -2.30683 2.45534 0
M  V30 14317 O 1305.16 -3.37197 2.18314 0
M  V30 14318 N 1303.36 -2.04006 2.06954 0
M  V30 14319 H 1302.91 -1.17403 2.29291 0
M  V30 14320 H 1302.87 -2.73531 1.5501 0
M  V30 14321 N 1306.64 -1.55279 0.269478 0
M  V30 14322 C 1307.87 -2.03876 -0.352418 0
M  V30 14323 C 1308.28 -1.14804 -1.49885 0
M  V30 14324 O 1307.64 -0.166989 -1.81734 0
M  V30 14325 C 1307.69 -3.51634 -0.838799 0
M  V30 14326 O 1307.41 -4.37316 0.261972 0
M  V30 14327 C 1308.91 -4.16094 -1.52909 0
M  V30 14328 H 1306.13 -0.66608 -0.0811043 0
M  V30 14329 H 1308.68 -2.00551 0.399929 0
M  V30 14330 H 1306.83 -3.55421 -1.54125 0
M  V30 14331 H 1307.25 -5.24383 -0.111013 0
M  V30 14332 H 1308.72 -5.21102 -1.82089 0
M  V30 14333 H 1309.2 -3.63928 -2.45872 0
M  V30 14334 H 1309.8 -4.16293 -0.87063 0
M  V30 14335 N 1308.12 0.00332656 -1.576 0
M  V30 14336 C 1309.53 0.546581 -1.7852 0
M  V30 14337 C 1309.88 1.74147 -0.903722 0
M  V30 14338 O 1309.01 2.16144 -0.105314 0
M  V30 14339 C 1309.6 0.998344 -3.23757 0
M  V30 14340 C 1308.16 1.48693 -3.45785 0
M  V30 14341 C 1307.31 0.436617 -2.73841 0
M  V30 14342 H 1310.26 -0.222852 -1.57128 0
M  V30 14343 H 1310.28 1.86452 -3.31686 0
M  V30 14344 H 1309.79 0.128479 -3.87887 0
M  V30 14345 H 1307.89 2.3778 -2.86865 0
M  V30 14346 H 1308 1.51668 -4.5446 0
M  V30 14347 H 1306.37 0.897506 -2.38363 0
M  V30 14348 H 1307.15 -0.424225 -3.40669 0
M  V30 14349 N 1309.6 1.55164 0.276031 0
M  V30 14350 C 1310.84 1.7528 1.00604 0
M  V30 14351 C 1311.17 0.555256 1.86928 0
M  V30 14352 O 1310.44 -0.429917 1.91124 0
M  V30 14353 H 1309.02 0.646377 0.374441 0
M  V30 14354 H 1311.68 1.92562 0.300992 0
M  V30 14355 H 1310.77 2.65245 1.64473 0
M  V30 14356 N 1311.07 -0.540404 1.48045 0
M  V30 14357 C 1312.32 -1.2987 1.55762 0
M  V30 14358 C 1312.65 -1.92877 0.226307 0
M  V30 14359 O 1311.93 -1.7875 -0.766727 0
M  V30 14360 C 1312.21 -2.39602 2.68817 0
M  V30 14361 C 1312.06 -1.81354 4.1162 0
M  V30 14362 C 1313.38 -3.41434 2.77688 0
M  V30 14363 H 1310.5 -0.47083 0.566999 0
M  V30 14364 H 1313.14 -0.603081 1.80175 0
M  V30 14365 H 1311.29 -2.98936 2.48132 0
M  V30 14366 H 1312.97 -1.26151 4.43716 0
M  V30 14367 H 1311.21 -1.1194 4.19108 0
M  V30 14368 H 1311.88 -2.60758 4.86528 0
M  V30 14369 H 1314.36 -2.92042 2.96396 0
M  V30 14370 H 1313.23 -4.15621 3.5854 0
M  V30 14371 H 1313.49 -4.01336 1.85422 0
M  V30 14372 N 1312.55 -1.36459 -0.788468 0
M  V30 14373 C 1313.48 -1.33545 -1.91541 0
M  V30 14374 C 1314.46 -0.206762 -1.68839 0
M  V30 14375 O 1315.65 -0.404553 -1.89939 0
M  V30 14376 C 1312.78 -1.12492 -3.28577 0
M  V30 14377 C 1311.73 -2.22196 -3.65805 0
M  V30 14378 C 1311.06 -1.86285 -5.01201 0
M  V30 14379 C 1312.36 -3.64286 -3.7429 0
M  V30 14380 H 1314.05 -2.27844 -1.94236 0
M  V30 14381 H 1311.6 -1.09677 -0.933105 0
M  V30 14382 H 1313.55 -1.09089 -4.07035 0
M  V30 14383 H 1312.28 -0.146446 -3.26272 0
M  V30 14384 H 1310.93 -2.24727 -2.89644 0
M  V30 14385 H 1310.58 -0.87009 -4.95417 0
M  V30 14386 H 1310.28 -2.59734 -5.27079 0
M  V30 14387 H 1311.81 -1.84439 -5.82078 0
M  V30 14388 H 1313.22 -3.63977 -4.42937 0
M  V30 14389 H 1311.62 -4.36648 -4.11653 0
M  V30 14390 H 1312.69 -3.99123 -2.75371 0
M  V30 14391 N 1314.03 1.01274 -1.20754 0
M  V30 14392 C 1315.26 1.7906 -1.04653 0
M  V30 14393 C 1315.68 1.83806 0.399632 0
M  V30 14394 O 1315.04 1.27596 1.28798 0
M  V30 14395 C 1315.09 3.21187 -1.63925 0
M  V30 14396 O 1314.19 4.02913 -0.879486 0
M  V30 14397 H 1313.53 0.552147 -0.368823 0
M  V30 14398 H 1316.06 1.27356 -1.6013 0
M  V30 14399 H 1316.07 3.71887 -1.67822 0
M  V30 14400 H 1314.75 3.17048 -2.69172 0
M  V30 14401 H 1313.32 3.61499 -0.915019 0
M  V30 14402 N 1315.51 1.01404 1.20644 0
M  V30 14403 C 1316.47 0.586941 2.21557 0
M  V30 14404 C 1317.47 -0.341543 1.57131 0
M  V30 14405 O 1318.66 -0.130585 1.7371 0
M  V30 14406 C 1315.79 -0.143248 3.40599 0
M  V30 14407 H 1316.99 1.47964 2.60858 0
M  V30 14408 H 1314.54 0.803551 1.34063 0
M  V30 14409 H 1315.28 -1.05097 3.06798 0
M  V30 14410 H 1315.06 0.523716 3.88587 0
M  V30 14411 H 1316.55 -0.429504 4.15385 0
M  V30 14412 N 1316.99 -1.36373 0.789944 0
M  V30 14413 C 1317.94 -2.27425 0.161798 0
M  V30 14414 C 1318.92 -1.46983 -0.654583 0
M  V30 14415 O 1320.11 -1.69355 -0.51457 0
M  V30 14416 C 1317.24 -3.36043 -0.702128 0
M  V30 14417 C 1316.33 -4.23921 0.123071 0
M  V30 14418 N 1316.72 -4.91895 1.17784 0
M  V30 14419 C 1315.02 -4.45892 -0.0980072 0
M  V30 14420 C 1315.72 -5.56905 1.68023 0
M  V30 14421 N 1314.69 -5.34521 0.989371 0
M  V30 14422 H 1318.5 -2.77463 0.969093 0
M  V30 14423 H 1316.01 -1.49705 0.629458 0
M  V30 14424 H 1318.01 -4.00203 -1.16805 0
M  V30 14425 H 1316.67 -2.8756 -1.50796 0
M  V30 14426 H 1317.68 -4.93838 1.56027 0
M  V30 14427 H 1314.36 -4.08243 -0.874307 0
M  V30 14428 H 1315.75 -6.21185 2.56085 0
M  V30 14429 N 1318.47 -0.542005 -1.47987 0
M  V30 14430 C 1319.71 -0.010246 -2.01697 0
M  V30 14431 C 1320.03 1.34173 -1.42327 0
M  V30 14432 O 1321.23 1.96254 -1.87607 0
M  V30 14433 C 1319.69 0.0321032 -3.59886 0
M  V30 14434 C 1319.3 -1.31571 -4.28244 0
M  V30 14435 C 1321.04 0.512056 -4.214 0
M  V30 14436 C 1318.95 -1.23329 -5.78398 0
M  V30 14437 H 1317.88 -6.02097e-05 -0.754 0
M  V30 14438 H 1320.53 -0.687586 -1.70131 0
M  V30 14439 H 1318.91 0.774774 -3.88347 0
M  V30 14440 H 1320.09 -2.07489 -4.11442 0
M  V30 14441 H 1318.4 -1.73237 -3.78653 0
M  V30 14442 H 1321 0.591875 -5.31414 0
M  V30 14443 H 1321.34 1.52061 -3.87535 0
M  V30 14444 H 1321.87 -0.175293 -3.97414 0
M  V30 14445 H 1318.61 -2.21737 -6.16857 0
M  V30 14446 H 1318.13 -0.51567 -5.97579 0
M  V30 14447 H 1319.81 -0.928975 -6.40296 0
M  V30 14448 N 1319.94 1.55134 -0.277709 0
M  V30 14449 C 1320.89 2.24057 0.624594 0
M  V30 14450 C 1321.89 1.23848 1.15577 0
M  V30 14451 O 1323.09 1.41771 1.1091 0
M  V30 14452 H 1319.47 0.719106 0.219977 0
M  V30 14453 H 1321.44 2.98393 0.0204815 0
M  V30 14454 C 1320.19 2.97712 1.79618 0
M  V30 14455 H 1319.51 3.74611 1.39665 0
M  V30 14456 H 1320.95 3.49255 2.4041 0
M  V30 14457 C 1319.41 2.03332 2.68622 0
M  V30 14458 O 1319.94 1.58622 3.69056 0
M  V30 14459 N 1318.14 1.69778 2.35847 0
M  V30 14460 H 1317.69 2.06333 1.54222 0
M  V30 14461 H 1317.65 1.06901 2.95668 0
M  V30 14462 N 1321.42 0.00503138 1.57599 0
M  V30 14463 C 1322.84 -0.351109 1.5569 0
M  V30 14464 C 1323.04 -1.74465 1.00818 0
M  V30 14465 O 1322.09 -2.44144 0.64422 0
M  V30 14466 C 1323.41 -0.221738 2.99881 0
M  V30 14467 C 1324.95 -0.296303 3.11594 0
M  V30 14468 C 1325.43 -0.195998 4.5758 0
M  V30 14469 N 1326.92 -0.253741 4.62504 0
M  V30 14470 C 1327.66 -0.199546 5.73053 0
M  V30 14471 N 1327.15 -0.0956553 6.92734 0
M  V30 14472 N 1328.94 -0.251779 5.61536 0
M  V30 14473 H 1321.1 0.916578 1.91605 0
M  V30 14474 H 1323.36 0.351802 0.880306 0
M  V30 14475 H 1323.06 0.737255 3.43886 0
M  V30 14476 H 1322.94 -1.00178 3.63654 0
M  V30 14477 H 1325.33 -1.24574 2.67517 0
M  V30 14478 H 1325.41 0.513692 2.50589 0
M  V30 14479 H 1325.05 0.749918 5.02333 0
M  V30 14480 H 1324.98 -1.02455 5.16537 0
M  V30 14481 H 1327.47 -0.335163 3.76411 0
M  V30 14482 H 1327.78 -0.0603357 7.72776 0
M  V30 14483 H 1326.13 -0.0612113 6.94973 0
M  V30 14484 H 1329.32 -0.331173 4.66927 0
M  V30 14485 H 1329.49 -0.206078 6.47672 0
M  V30 14486 N 1322.9 -1.55308 -0.267798 0
M  V30 14487 C 1324.18 -1.66881 -1.02029 0
M  V30 14488 C 1324.56 -0.538708 -2.04111 0
M  V30 14489 O 1323.9 0.460575 -2.2381 0
M  V30 14490 C 1324.11 -3.06318 -1.67243 0
M  V30 14491 C 1325.46 -3.64237 -2.18212 0
M  V30 14492 O 1326.49 -3.08984 -1.77221 0
M  V30 14493 O 1325.35 -4.61055 -2.93413 0
M  V30 14494 H 1322.44 -0.677967 -0.473593 0
M  V30 14495 H 1324.99 -1.67646 -0.263242 0
M  V30 14496 H 1323.76 -3.80015 -0.932985 0
M  V30 14497 H 1323.38 -3.09475 -2.49622 0
M  V30 14498 N 1324.38 0.532545 -1.4833 0
M  V30 14499 C 1325.62 1.29042 -1.56448 0
M  V30 14500 C 1325.96 1.92754 -0.236532 0
M  V30 14501 O 1325.23 1.79154 0.757237 0
M  V30 14502 C 1325.51 2.38173 -2.70084 0
M  V30 14503 C 1325.37 1.79169 -4.12576 0
M  V30 14504 C 1326.69 3.39957 -2.79495 0
M  V30 14505 H 1323.81 0.467816 -0.569488 0
M  V30 14506 H 1326.45 0.593517 -1.80492 0
M  V30 14507 H 1324.6 2.97616 -2.49714 0
M  V30 14508 H 1326.27 1.23797 -4.44378 0
M  V30 14509 H 1324.51 1.09716 -4.19696 0
M  V30 14510 H 1325.18 2.58174 -4.87904 0
M  V30 14511 H 1327.66 2.90466 -2.97941 0
M  V30 14512 H 1326.54 4.13714 -3.60739 0
M  V30 14513 H 1326.8 4.00347 -1.87548 0
M  V30 14514 N 1325.86 1.36875 0.78122 0
M  V30 14515 C 1326.81 1.28392 1.88413 0
M  V30 14516 C 1327.79 0.173687 1.5996 0
M  V30 14517 O 1328.98 0.407238 1.72251 0
M  V30 14518 C 1326.11 1.08368 3.25747 0
M  V30 14519 C 1325.2 2.23894 3.60184 0
M  V30 14520 N 1325.59 3.49247 3.65869 0
M  V30 14521 C 1323.89 2.1584 3.90294 0
M  V30 14522 C 1324.59 4.2537 3.96781 0
M  V30 14523 N 1323.56 3.54402 4.1219 0
M  V30 14524 H 1327.36 2.23334 1.91047 0
M  V30 14525 H 1324.88 1.29711 0.977175 0
M  V30 14526 H 1326.88 1.00376 4.04636 0
M  V30 14527 H 1325.54 0.143334 3.24383 0
M  V30 14528 H 1326.55 3.83276 3.4831 0
M  V30 14529 H 1323.22 1.29808 3.96807 0
M  V30 14530 H 1324.61 5.33814 4.08035 0
M  V30 14531 N 1327.33 -1.00632 1.21289 0
M  V30 14532 C 1328.26 -2.11238 0.995021 0
M  V30 14533 C 1329.24 -1.69914 -0.0795537 0
M  V30 14534 O 1330.43 -1.94035 0.0800152 0
M  V30 14535 C 1327.56 -3.42797 0.557475 0
M  V30 14536 C 1326.51 -3.97909 1.57646 0
M  V30 14537 C 1325.84 -5.25357 0.995197 0
M  V30 14538 C 1327.14 -4.30123 2.96297 0
M  V30 14539 H 1328.83 -2.29722 1.9201 0
M  V30 14540 H 1326.38 -1.10395 0.924602 0
M  V30 14541 H 1328.33 -4.19571 0.392236 0
M  V30 14542 H 1327.06 -3.24101 -0.403253 0
M  V30 14543 H 1325.72 -3.23254 1.72924 0
M  V30 14544 H 1325.36 -5.02993 0.026227 0
M  V30 14545 H 1325.06 -5.63196 1.67583 0
M  V30 14546 H 1326.59 -6.04777 0.841251 0
M  V30 14547 H 1328 -4.97744 2.8447 0
M  V30 14548 H 1326.4 -4.79101 3.61361 0
M  V30 14549 H 1327.47 -3.38454 3.47242 0
M  V30 14550 N 1328.81 -1.02043 -1.20104 0
M  V30 14551 C 1329.74 -0.614421 -2.25271 0
M  V30 14552 C 1330.72 0.37242 -1.65973 0
M  V30 14553 O 1331.91 0.257005 -1.92492 0
M  V30 14554 C 1329.04 0.0442085 -3.47272 0
M  V30 14555 C 1327.99 -0.864019 -4.19188 0
M  V30 14556 C 1327.32 -0.0709551 -5.34653 0
M  V30 14557 C 1328.62 -2.17385 -4.74912 0
M  V30 14558 H 1330.31 -1.49355 -2.59487 0
M  V30 14559 H 1327.86 -0.719591 -1.24731 0
M  V30 14560 H 1329.81 0.339825 -4.20028 0
M  V30 14561 H 1328.53 0.958082 -3.12231 0
M  V30 14562 H 1327.19 -1.1437 -3.48303 0
M  V30 14563 H 1326.84 0.844688 -4.95857 0
M  V30 14564 H 1326.54 -0.67583 -5.83701 0
M  V30 14565 H 1328.07 0.218118 -6.1021 0
M  V30 14566 H 1329.48 -1.94034 -5.39466 0
M  V30 14567 H 1327.88 -2.72991 -5.34412 0
M  V30 14568 H 1328.95 -2.83427 -3.93443 0
M  V30 14569 N 1330.29 1.35952 -0.797165 0
M  V30 14570 C 1331.24 2.29941 -0.198995 0
M  V30 14571 C 1332.21 1.52355 0.661592 0
M  V30 14572 O 1333.39 1.80832 0.60865 0
M  V30 14573 C 1330.53 3.38846 0.654033 0
M  V30 14574 C 1329.65 4.31409 -0.225949 0
M  V30 14575 C 1328.78 5.27401 0.634188 0
M  V30 14576 C 1327.82 6.11602 -0.246773 0
M  V30 14577 N 1326.96 6.9976 0.57279 0
M  V30 14578 H 1331.8 2.80508 -1.00594 0
M  V30 14579 H 1329.33 1.38064 -0.507617 0
M  V30 14580 H 1331.29 4.00643 1.16367 0
M  V30 14581 H 1329.92 2.89578 1.42633 0
M  V30 14582 H 1328.97 3.70699 -0.853616 0
M  V30 14583 H 1330.29 4.90532 -0.904416 0
M  V30 14584 H 1329.44 5.94525 1.20933 0
M  V30 14585 H 1328.18 4.68751 1.34625 0
M  V30 14586 H 1327.18 5.43434 -0.834258 0
M  V30 14587 H 1328.41 6.72329 -0.956559 0
M  V30 14588 H 1326.35 6.43609 1.26901 0
M  V30 14589 H 1326.27 7.55985 -0.0478303 0
M  V30 14590 H 1327.54 7.71244 1.13151 0
M  V30 14591 N 1331.77 0.549846 1.47697 0
M  V30 14592 C 1333 0.0276889 2.06881 0
M  V30 14593 C 1333.41 -1.26273 1.40359 0
M  V30 14594 O 1332.77 -1.75584 0.497644 0
M  V30 14595 C 1332.82 -0.179291 3.61055 0
M  V30 14596 O 1332.54 1.06002 4.25083 0
M  V30 14597 C 1334.04 -0.739571 4.37087 0
M  V30 14598 H 1331.26 0.0425016 0.669653 0
M  V30 14599 H 1333.81 0.761158 1.89807 0
M  V30 14600 H 1331.96 -0.862867 3.77668 0
M  V30 14601 H 1332.37 0.853137 5.17515 0
M  V30 14602 H 1333.85 -0.833722 5.45668 0
M  V30 14603 H 1334.33 -1.74915 4.02867 0
M  V30 14604 H 1334.93 -0.0919294 4.25201 0
M  V30 14605 N 1333.25 -1.54984 0.285932 0
M  V30 14606 C 1334.49 -1.99436 -0.32709 0
M  V30 14607 C 1334.82 -1.17582 -1.55562 0
M  V30 14608 O 1334.09 -0.268002 -1.94058 0
M  V30 14609 H 1332.67 -0.736662 -0.123846 0
M  V30 14610 H 1335.33 -1.90881 0.393774 0
M  V30 14611 H 1334.42 -3.0609 -0.609523 0
M  V30 14612 N 1334.72 -0.0133892 -1.57594 0
M  V30 14613 C 1335.65 0.972341 -2.12292 0
M  V30 14614 C 1336.64 1.34971 -1.03522 0
M  V30 14615 O 1337.82 1.4311 -1.31275 0
M  V30 14616 C 1334.95 2.25988 -2.63717 0
M  V30 14617 C 1333.9 2.02373 -3.77133 0
M  V30 14618 C 1333.23 3.37256 -4.14925 0
M  V30 14619 C 1334.53 1.37553 -5.03861 0
M  V30 14620 H 1336.22 0.516869 -2.94905 0
M  V30 14621 H 1333.77 0.247176 -1.41863 0
M  V30 14622 H 1335.72 2.95313 -3.00613 0
M  V30 14623 H 1334.45 2.73672 -1.78244 0
M  V30 14624 H 1333.11 1.3547 -3.40651 0
M  V30 14625 H 1332.75 3.82669 -3.26456 0
M  V30 14626 H 1332.45 3.22267 -4.91343 0
M  V30 14627 H 1333.98 4.07875 -4.5439 0
M  V30 14628 H 1335.39 1.96855 -5.38443 0
M  V30 14629 H 1333.79 1.33011 -5.85174 0
M  V30 14630 H 1334.86 0.346429 -4.83661 0
M  V30 14631 N 1336.2 1.55448 0.259558 0
M  V30 14632 C 1337.45 1.76948 0.990816 0
M  V30 14633 C 1337.78 0.576401 1.85449 0
M  V30 14634 O 1337.06 -0.425693 1.89784 0
M  V30 14635 C 1337.34 3.08221 1.86204 0
M  V30 14636 C 1337.19 4.37909 1.0274 0
M  V30 14637 C 1338.51 3.35627 2.84679 0
M  V30 14638 H 1335.63 0.64377 0.358788 0
M  V30 14639 H 1338.27 1.88182 0.262211 0
M  V30 14640 H 1336.42 2.98775 2.48326 0
M  V30 14641 H 1338.09 4.5933 0.425855 0
M  V30 14642 H 1336.34 4.32533 0.331308 0
M  V30 14643 H 1337.01 5.26116 1.6705 0
M  V30 14644 H 1339.48 3.44954 2.32693 0
M  V30 14645 H 1338.36 4.28719 3.42769 0
M  V30 14646 H 1338.62 2.55921 3.60496 0
M  V30 14647 N 1337.68 -0.524672 1.4861 0
M  V30 14648 C 1338.63 -1.64965 1.6398 0
M  V30 14649 C 1339.62 -1.61663 0.506118 0
M  V30 14650 O 1340.83 -1.66456 0.685013 0
M  V30 14651 H 1337.2 -0.546419 0.516653 0
M  V30 14652 H 1339.17 -1.49146 2.58453 0
M  V30 14653 C 1337.92 -3.03215 1.70165 0
M  V30 14654 H 1337.25 -3.06451 2.56764 0
M  V30 14655 H 1338.69 -3.8153 1.84962 0
M  V30 14656 C 1337.15 -3.33996 0.44143 0
M  V30 14657 O 1337.68 -3.99246 -0.443356 0
M  V30 14658 N 1335.88 -2.88925 0.311518 0
M  V30 14659 H 1335.43 -2.36003 1.0325 0
M  V30 14660 H 1335.39 -3.09889 -0.530655 0
M  V30 14661 N 1339.16 -1.37287 -0.77395 0
M  V30 14662 C 1340.11 -1.32955 -1.90855 0
M  V30 14663 C 1341.1 -0.218695 -1.67982 0
M  V30 14664 O 1342.31 -0.386594 -1.75799 0
M  V30 14665 H 1338.68 -0.414289 -0.62759 0
M  V30 14666 H 1340.65 -2.2874 -1.91626 0
M  V30 14667 C 1339.4 -1.15121 -3.28089 0
M  V30 14668 H 1338.72 -1.99852 -3.46264 0
M  V30 14669 H 1340.16 -1.1614 -4.07784 0
M  V30 14670 C 1338.62 0.14327 -3.36595 0
M  V30 14671 O 1339.15 1.12763 -3.85548 0
M  V30 14672 N 1337.36 0.193219 -2.89957 0
M  V30 14673 H 1336.91 -0.608471 -2.50311 0
M  V30 14674 H 1336.86 1.05897 -2.96029 0
M  V30 14675 N 1340.64 0.999871 -1.21821 0
M  V30 14676 C 1341.89 1.73257 -1.03271 0
M  V30 14677 C 1342.2 1.90736 0.433502 0
M  V30 14678 O 1343.4 2.61263 0.738511 0
M  V30 14679 C 1341.86 3.11697 -1.79925 0
M  V30 14680 C 1341.47 3.02173 -3.3075 0
M  V30 14681 C 1343.21 3.89061 -1.698 0
M  V30 14682 C 1341.12 4.35725 -3.99872 0
M  V30 14683 H 1340.05 0.649595 -0.382809 0
M  V30 14684 H 1342.7 1.11676 -1.45605 0
M  V30 14685 H 1341.08 3.73919 -1.30386 0
M  V30 14686 H 1342.26 2.49158 -3.8763 0
M  V30 14687 H 1340.57 2.38296 -3.41473 0
M  V30 14688 H 1343.17 4.87897 -2.1877 0
M  V30 14689 H 1343.51 4.11081 -0.657148 0
M  V30 14690 H 1344.04 3.33502 -2.16844 0
M  V30 14691 H 1340.78 4.18906 -5.04181 0
M  V30 14692 H 1340.3 4.8868 -3.47781 0
M  V30 14693 H 1341.98 5.04503 -4.05075 0
M  V30 14694 N 1342.11 1.02678 1.19562 0
M  V30 14695 C 1343.36 0.723086 1.89471 0
M  V30 14696 C 1343.69 -0.746269 1.79289 0
M  V30 14697 O 1342.97 -1.54322 1.18384 0
M  V30 14698 C 1343.25 1.17224 3.40486 0
M  V30 14699 C 1343.1 2.70266 3.5955 0
M  V30 14700 C 1344.42 0.751397 4.33638 0
M  V30 14701 H 1341.54 0.264155 0.688034 0
M  V30 14702 H 1344.18 1.27633 1.40747 0
M  V30 14703 H 1342.33 0.701544 3.82113 0
M  V30 14704 H 1344.01 3.25266 3.27108 0
M  V30 14705 H 1342.25 3.10758 3.02675 0
M  V30 14706 H 1342.92 2.96748 4.65451 0
M  V30 14707 H 1345.4 1.15621 3.99714 0
M  V30 14708 H 1344.27 1.09358 5.37896 0
M  V30 14709 H 1344.53 -0.346367 4.40741 0
M  V30 14710 N 1343.59 -1.35528 0.804364 0
M  V30 14711 C 1344.84 -1.98084 0.380196 0
M  V30 14712 C 1345.15 -1.64531 -1.05778 0
M  V30 14713 O 1346.36 -2.20435 -1.58495 0
M  V30 14714 C 1344.82 -3.54364 0.628848 0
M  V30 14715 C 1344.42 -3.96828 2.07921 0
M  V30 14716 C 1346.17 -4.23641 0.269927 0
M  V30 14717 C 1344.08 -5.45944 2.27374 0
M  V30 14718 H 1343.01 -0.741185 0.138422 0
M  V30 14719 H 1345.66 -1.54624 0.988107 0
M  V30 14720 H 1344.04 -3.9597 -0.0489837 0
M  V30 14721 H 1345.21 -3.6638 2.79467 0
M  V30 14722 H 1343.53 -3.40433 2.39779 0
M  V30 14723 H 1346.12 -5.33251 0.393344 0
M  V30 14724 H 1346.47 -4.08858 -0.783644 0
M  V30 14725 H 1347 -3.87448 0.901588 0
M  V30 14726 H 1343.74 -5.65693 3.31168 0
M  V30 14727 H 1343.26 -5.77969 1.6035 0
M  V30 14728 H 1344.94 -6.12376 2.08817 0
M  V30 14729 N 1345.07 -0.557671 -1.47404 0
M  V30 14730 C 1346.32 -0.0337884 -2.02472 0
M  V30 14731 C 1346.65 1.31624 -1.43197 0
M  V30 14732 O 1345.9 1.86989 -0.577366 0
M  V30 14733 C 1346.2 0.108324 -3.57236 0
M  V30 14734 C 1345.87 -1.17088 -4.35432 0
M  V30 14735 C 1344.53 -1.5214 -4.56516 0
M  V30 14736 C 1346.88 -2.01854 -4.80525 0
M  V30 14737 C 1344.21 -2.71803 -5.19942 0
M  V30 14738 C 1346.56 -3.2072 -5.45272 0
M  V30 14739 C 1345.22 -3.56085 -5.64588 0
M  V30 14740 H 1344.49 -0.012364 -0.740897 0
M  V30 14741 H 1347.14 -0.729276 -1.7707 0
M  V30 14742 H 1345.45 0.886781 -3.81633 0
M  V30 14743 H 1347.14 0.529031 -3.97495 0
M  V30 14744 H 1343.73 -0.887952 -4.19301 0
M  V30 14745 H 1347.92 -1.76081 -4.64014 0
M  V30 14746 H 1343.17 -2.99371 -5.33092 0
M  V30 14747 H 1347.35 -3.86689 -5.79176 0
M  V30 14748 H 1344.97 -4.48903 -6.13506 0
M  V30 14749 N 1346.55 1.54831 -0.294147 0
M  V30 14750 C 1347.77 2.04873 0.32276 0
M  V30 14751 C 1348.2 1.17034 1.47257 0
M  V30 14752 O 1347.56 0.172949 1.80473 0
M  V30 14753 C 1347.61 3.52431 0.76319 0
M  V30 14754 O 1346.71 3.67635 1.86865 0
M  V30 14755 H 1346.05 0.660926 0.0638162 0
M  V30 14756 H 1348.58 1.99944 -0.433995 0
M  V30 14757 H 1348.59 3.94155 1.05385 0
M  V30 14758 H 1347.27 4.15827 -0.0779464 0
M  V30 14759 H 1345.84 3.37816 1.57907 0
M  V30 14760 N 1348.03 0.0217466 1.57585 0
M  V30 14761 C 1348.98 -0.971557 2.06264 0
M  V30 14762 C 1349.96 -1.29 0.961656 0
M  V30 14763 O 1351.15 -1.27734 1.22527 0
M  V30 14764 C 1348.28 -2.25643 2.58728 0
M  V30 14765 C 1347.37 -1.96668 3.75743 0
M  V30 14766 N 1347.76 -1.37933 4.86629 0
M  V30 14767 C 1346.06 -2.26698 3.84088 0
M  V30 14768 C 1346.76 -1.25923 5.67907 0
M  V30 14769 N 1345.73 -1.75224 5.14585 0
M  V30 14770 H 1349.54 -0.512285 2.89401 0
M  V30 14771 H 1347.05 -0.183446 1.61361 0
M  V30 14772 H 1349.05 -2.97668 2.91889 0
M  V30 14773 H 1347.71 -2.72204 1.77018 0
M  V30 14774 H 1348.72 -1.05529 5.07034 0
M  V30 14775 H 1345.4 -2.75983 3.13272 0
M  V30 14776 H 1346.79 -0.805687 6.67052 0
M  V30 14777 N 1349.51 -1.55583 -0.251311 0
M  V30 14778 C 1350.75 -1.77209 -0.979966 0
M  V30 14779 C 1351.08 -0.585279 -1.85485 0
M  V30 14780 O 1350.34 0.431559 -1.90882 0
M  V30 14781 C 1350.63 -3.04291 -1.87461 0
M  V30 14782 C 1350.3 -4.35844 -1.15545 0
M  V30 14783 C 1348.96 -4.71594 -0.956679 0
M  V30 14784 C 1351.31 -5.17189 -0.645381 0
M  V30 14785 C 1348.64 -5.86227 -0.235465 0
M  V30 14786 C 1350.99 -6.32569 0.0623441 0
M  V30 14787 C 1349.66 -6.66943 0.272634 0
M  V30 14788 H 1348.93 -0.648452 -0.358595 0
M  V30 14789 H 1351.58 -1.89856 -0.250423 0
M  V30 14790 H 1349.88 -2.86637 -2.67108 0
M  V30 14791 H 1351.58 -3.18221 -2.44001 0
M  V30 14792 H 1348.17 -4.07757 -1.32031 0
M  V30 14793 H 1352.35 -4.90028 -0.786505 0
M  V30 14794 H 1347.61 -6.11369 -0.0620232 0
M  V30 14795 H 1351.78 -6.94844 0.465234 0
M  V30 14796 H 1349.41 -7.55617 0.833442 0
M  V30 14797 N 1350.98 0.516783 -1.48886 0
M  V30 14798 C 1352.23 1.26841 -1.56825 0
M  V30 14799 C 1352.55 1.93957 -0.252998 0
M  V30 14800 O 1353.75 2.70681 -0.210765 0
M  V30 14801 C 1352.21 2.30223 -2.76633 0
M  V30 14802 C 1351.82 1.69117 -4.14853 0
M  V30 14803 C 1353.56 3.06313 -2.93893 0
M  V30 14804 C 1351.47 2.70516 -5.25904 0
M  V30 14805 H 1350.4 0.477087 -0.58387 0
M  V30 14806 H 1353.05 0.544187 -1.75245 0
M  V30 14807 H 1351.43 3.05739 -2.51674 0
M  V30 14808 H 1352.6 0.997003 -4.49885 0
M  V30 14809 H 1350.92 1.05473 -4.0282 0
M  V30 14810 H 1353.52 3.8211 -3.74027 0
M  V30 14811 H 1353.86 3.62976 -2.03848 0
M  V30 14812 H 1354.39 2.37911 -3.18815 0
M  V30 14813 H 1351.13 2.18655 -6.17956 0
M  V30 14814 H 1350.65 3.38221 -4.95345 0
M  V30 14815 H 1352.33 3.3325 -5.54575 0
M  V30 14816 N 1352.46 1.37696 0.766659 0
M  V30 14817 C 1353.39 1.28241 1.88758 0
M  V30 14818 C 1354.37 0.161948 1.61791 0
M  V30 14819 O 1355.56 0.337034 1.85462 0
M  V30 14820 C 1352.68 0.983972 3.24092 0
M  V30 14821 C 1351.73 2.12202 3.69963 0
M  V30 14822 S 1352.56 3.74225 3.83035 0
M  V30 14823 C 1353.72 3.46542 5.2121 0
M  V30 14824 H 1353.95 2.23113 1.96489 0
M  V30 14825 H 1351.48 1.23378 0.92829 0
M  V30 14826 H 1353.44 0.818612 4.02255 0
M  V30 14827 H 1352.1 0.0526544 3.14056 0
M  V30 14828 H 1351.3 1.86834 4.68091 0
M  V30 14829 H 1350.9 2.24778 2.98916 0
M  V30 14830 H 1353.19 3.01845 6.06544 0
M  V30 14831 H 1354.13 4.44016 5.51593 0
M  V30 14832 H 1354.54 2.81353 4.89388 0
M  V30 14833 N 1353.94 -0.993397 1.22349 0
M  V30 14834 C 1354.87 -2.10171 1.01737 0
M  V30 14835 C 1355.85 -1.69989 -0.0615276 0
M  V30 14836 O 1357.04 -1.93939 0.100591 0
M  V30 14837 C 1354.17 -3.42186 0.593801 0
M  V30 14838 C 1353.12 -3.96215 1.61858 0
M  V30 14839 C 1352.45 -5.24272 1.05086 0
M  V30 14840 C 1353.75 -4.26956 3.00842 0
M  V30 14841 H 1355.44 -2.27673 1.94436 0
M  V30 14842 H 1352.99 -1.09408 0.936258 0
M  V30 14843 H 1354.94 -4.19131 0.436715 0
M  V30 14844 H 1353.66 -3.2451 -0.368855 0
M  V30 14845 H 1352.32 -3.21401 1.76343 0
M  V30 14846 H 1351.97 -5.02937 0.0795747 0
M  V30 14847 H 1351.67 -5.61387 1.73547 0
M  V30 14848 H 1353.19 -6.03851 0.905349 0
M  V30 14849 H 1354.61 -4.94699 2.89734 0
M  V30 14850 H 1353 -4.75242 3.66422 0
M  V30 14851 H 1354.07 -3.34752 3.50812 0
M  V30 14852 N 1355.42 -1.03311 -1.19015 0
M  V30 14853 C 1356.66 -0.732039 -1.88805 0
M  V30 14854 C 1356.99 0.739688 -1.79886 0
M  V30 14855 O 1356.25 1.55476 -1.18851 0
M  V30 14856 C 1356.55 -1.13402 -3.38932 0
M  V30 14857 C 1356.21 -2.60473 -3.68055 0
M  V30 14858 C 1354.87 -3.00654 -3.75713 0
M  V30 14859 C 1357.23 -3.55604 -3.81045 0
M  V30 14860 C 1354.55 -4.3487 -3.93833 0
M  V30 14861 C 1356.91 -4.89529 -4.00679 0
M  V30 14862 C 1355.57 -5.29392 -4.06571 0
M  V30 14863 H 1354.84 -0.267872 -0.690888 0
M  V30 14864 H 1357.49 -1.29673 -1.40915 0
M  V30 14865 H 1355.79 -0.487997 -3.88749 0
M  V30 14866 H 1357.49 -0.878532 -3.91258 0
M  V30 14867 H 1354.08 -2.28348 -3.62706 0
M  V30 14868 H 1358.26 -3.25711 -3.74467 0
M  V30 14869 H 1353.52 -4.65285 -3.96636 0
M  V30 14870 H 1357.69 -5.63153 -4.09672 0
M  V30 14871 H 1355.32 -6.33402 -4.20364 0
M  V30 14872 N 1356.9 1.35099 -0.81154 0
M  V30 14873 C 1357.83 2.32264 -0.239925 0
M  V30 14874 C 1358.81 1.57708 0.637354 0
M  V30 14875 O 1359.99 1.85751 0.566598 0
M  V30 14876 C 1357.12 3.41931 0.608325 0
M  V30 14877 C 1356.08 4.27659 -0.170869 0
M  V30 14878 C 1355.4 5.28691 0.799398 0
M  V30 14879 C 1356.7 5.0394 -1.37266 0
M  V30 14880 H 1358.4 2.8032 -1.05172 0
M  V30 14881 H 1355.94 1.34773 -0.507185 0
M  V30 14882 H 1357.89 4.08911 1.01832 0
M  V30 14883 H 1356.62 2.92496 1.45306 0
M  V30 14884 H 1355.28 3.62265 -0.562094 0
M  V30 14885 H 1354.93 4.75521 1.63977 0
M  V30 14886 H 1354.63 5.86921 0.282331 0
M  V30 14887 H 1356.15 5.98542 1.20749 0
M  V30 14888 H 1357.56 5.63838 -1.03728 0
M  V30 14889 H 1355.96 5.7169 -1.82456 0
M  V30 14890 H 1357.03 4.34295 -2.15676 0
M  V30 14891 N 1358.37 0.56548 1.47106 0
M  V30 14892 C 1359.62 0.0445914 2.02751 0
M  V30 14893 C 1359.95 -1.30517 1.43801 0
M  V30 14894 O 1359.23 -1.85123 0.596646 0
M  V30 14895 C 1359.51 -0.0396474 3.60078 0
M  V30 14896 C 1359.36 1.3378 4.29445 0
M  V30 14897 C 1360.68 -0.748954 4.3368 0
M  V30 14898 H 1357.8 0.0176787 0.736788 0
M  V30 14899 H 1360.44 0.729363 1.75443 0
M  V30 14900 H 1358.59 -0.622826 3.83475 0
M  V30 14901 H 1360.27 1.96482 4.17364 0
M  V30 14902 H 1358.51 1.91024 3.89477 0
M  V30 14903 H 1359.18 1.23149 5.38088 0
M  V30 14904 H 1361.66 -0.253707 4.15326 0
M  V30 14905 H 1360.53 -0.776877 5.43374 0
M  V30 14906 H 1360.79 -1.80679 4.03494 0
M  V30 14907 N 1359.85 -1.54672 0.302354 0
M  V30 14908 C 1361.08 -2.05041 -0.311891 0
M  V30 14909 C 1361.5 -1.17814 -1.46634 0
M  V30 14910 O 1360.86 -0.182517 -1.80379 0
M  V30 14911 C 1360.91 -3.52831 -0.744489 0
M  V30 14912 O 1360.01 -3.68621 -1.84913 0
M  V30 14913 H 1359.35 -0.661255 -0.0603102 0
M  V30 14914 H 1361.88 -1.99711 0.444593 0
M  V30 14915 H 1361.89 -3.94708 -1.03293 0
M  V30 14916 H 1360.57 -4.1578 0.0999976 0
M  V30 14917 H 1359.15 -3.38649 -1.56113 0
M  V30 14918 N 1361.33 -0.0301034 -1.57571 0
M  V30 14919 C 1362.26 0.986212 -2.05789 0
M  V30 14920 C 1363.24 1.31682 -0.95387 0
M  V30 14921 O 1364.43 1.43332 -1.22427 0
M  V30 14922 C 1361.55 2.30598 -2.48077 0
M  V30 14923 C 1360.6 2.12991 -3.69509 0
M  V30 14924 S 1361.43 1.42782 -5.16114 0
M  V30 14925 C 1362.59 2.76126 -5.61699 0
M  V30 14926 H 1362.82 0.575769 -2.91671 0
M  V30 14927 H 1360.35 0.181613 -1.53328 0
M  V30 14928 H 1362.31 3.06469 -2.73107 0
M  V30 14929 H 1360.97 2.68775 -1.62539 0
M  V30 14930 H 1360.17 3.1056 -3.96949 0
M  V30 14931 H 1359.77 1.45263 -3.44637 0
M  V30 14932 H 1362.06 3.72361 -5.65998 0
M  V30 14933 H 1363 2.53349 -6.61226 0
M  V30 14934 H 1363.41 2.81418 -4.89351 0
M  V30 14935 N 1362.81 1.55714 0.243056 0
M  V30 14936 C 1364.05 1.77989 0.971993 0
M  V30 14937 C 1364.39 0.596038 1.84827 0
M  V30 14938 O 1363.66 -0.40554 1.90225 0
M  V30 14939 C 1363.95 3.10178 1.82925 0
M  V30 14940 C 1363.8 4.38974 0.9809 0
M  V30 14941 C 1365.12 3.38628 2.81103 0
M  V30 14942 H 1362.24 0.64754 0.35194 0
M  V30 14943 H 1364.88 1.88449 0.242237 0
M  V30 14944 H 1363.03 3.01392 2.45143 0
M  V30 14945 H 1364.7 4.59756 0.377113 0
M  V30 14946 H 1362.94 4.3286 0.285414 0
M  V30 14947 H 1363.61 5.27858 1.61461 0
M  V30 14948 H 1366.09 3.47403 2.29021 0
M  V30 14949 H 1364.97 4.32331 3.38203 0
M  V30 14950 H 1365.23 2.5973 3.57761 0
M  V30 14951 N 1364.29 -0.50888 1.49158 0
M  V30 14952 C 1365.22 -1.62869 1.5984 0
M  V30 14953 C 1366.2 -1.56312 0.447809 0
M  V30 14954 O 1367.38 -1.76482 0.662292 0
M  V30 14955 C 1364.51 -3.01356 1.54603 0
M  V30 14956 C 1363.55 -3.26202 2.74763 0
M  V30 14957 S 1364.39 -3.10178 4.3652 0
M  V30 14958 C 1365.54 -4.51075 4.33915 0
M  V30 14959 H 1365.78 -1.53562 2.5457 0
M  V30 14960 H 1363.31 -0.693448 1.37952 0
M  V30 14961 H 1365.27 -3.81215 1.52267 0
M  V30 14962 H 1363.93 -3.08085 0.611737 0
M  V30 14963 H 1363.12 -4.27281 2.67296 0
M  V30 14964 H 1362.72 -2.54052 2.7447 0
M  V30 14965 H 1365.02 -5.4301 4.05149 0
M  V30 14966 H 1365.96 -4.63593 5.35245 0
M  V30 14967 H 1366.37 -4.31385 3.64097 0
M  V30 14968 N 1365.76 -1.381 -0.759346 0
M  V30 14969 C 1366.99 -1.37389 -1.55367 0
M  V30 14970 C 1367.41 0.0356097 -1.88066 0
M  V30 14971 O 1366.77 1.0161 -1.5015 0
M  V30 14972 C 1366.82 -2.23098 -2.83302 0
M  V30 14973 O 1365.92 -1.64412 -3.7821 0
M  V30 14974 H 1365.27 -0.468894 -0.470143 0
M  V30 14975 H 1367.8 -1.81787 -0.938858 0
M  V30 14976 H 1367.81 -2.36753 -3.32283 0
M  V30 14977 H 1366.48 -3.25544 -2.58831 0
M  V30 14978 H 1365.06 -1.59867 -3.36893 0
M  V30 14979 N 1367.24 0.986894 -1.22875 0
M  V30 14980 C 1368.49 1.72729 -1.05693 0
M  V30 14981 C 1368.82 1.90191 0.407121 0
M  V30 14982 O 1368.07 1.44667 1.31796 0
M  V30 14983 C 1368.37 3.13283 -1.72012 0
M  V30 14984 C 1368.04 3.15719 -3.2192 0
M  V30 14985 C 1366.7 3.1609 -3.62823 0
M  V30 14986 C 1369.05 3.11539 -4.17843 0
M  V30 14987 C 1366.38 3.09991 -4.98119 0
M  V30 14988 C 1368.73 3.06982 -5.53123 0
M  V30 14989 C 1367.4 3.05672 -5.93397 0
M  V30 14990 H 1366.67 0.63206 -0.386758 0
M  V30 14991 H 1369.31 1.15538 -1.52719 0
M  V30 14992 H 1367.62 3.7382 -1.17327 0
M  V30 14993 H 1369.31 3.69326 -1.56203 0
M  V30 14994 H 1365.9 3.16183 -2.89355 0
M  V30 14995 H 1370.09 3.10397 -3.87256 0
M  V30 14996 H 1365.34 3.07326 -5.28546 0
M  V30 14997 H 1369.52 3.02705 -6.27171 0
M  V30 14998 H 1367.15 3.00701 -6.982 0
M  V30 14999 N 1368.72 1.0394 1.18466 0
M  V30 15000 C 1369.95 0.760909 1.92077 0
M  V30 15001 C 1370.36 -0.685622 1.7634 0
M  V30 15002 O 1369.7 -1.47894 1.08963 0
M  V30 15003 C 1369.76 1.04583 3.43952 0
M  V30 15004 C 1369.43 2.48602 3.83466 0
M  V30 15005 C 1370.42 3.46775 3.87354 0
M  V30 15006 C 1368.11 2.8328 4.14798 0
M  V30 15007 C 1370.1 4.77678 4.22022 0
M  V30 15008 C 1367.79 4.1439 4.49138 0
M  V30 15009 C 1368.79 5.11399 4.52725 0
M  V30 15010 O 1368.48 6.40159 4.86264 0
M  V30 15011 H 1368.21 0.276991 0.616646 0
M  V30 15012 H 1370.76 1.3898 1.5124 0
M  V30 15013 H 1368.99 0.359807 3.85022 0
M  V30 15014 H 1370.68 0.755336 3.9881 0
M  V30 15015 H 1371.45 3.21323 3.63286 0
M  V30 15016 H 1367.33 2.08444 4.11184 0
M  V30 15017 H 1370.87 5.53393 4.24737 0
M  V30 15018 H 1366.77 4.39611 4.72666 0
M  V30 15019 H 1367.54 6.4479 5.04171 0
M  V30 15020 N 1370.2 -1.34667 0.818693 0
M  V30 15021 C 1371.45 -1.98414 0.404759 0
M  V30 15022 C 1371.77 -1.64919 -1.03112 0
M  V30 15023 O 1371.03 -0.910695 -1.73219 0
M  V30 15024 C 1371.33 -3.53157 0.549059 0
M  V30 15025 C 1370.99 -4.06552 1.95003 0
M  V30 15026 C 1369.66 -4.20846 2.33329 0
M  V30 15027 C 1372.01 -4.35324 2.86604 0
M  V30 15028 C 1369.34 -4.61236 3.62599 0
M  V30 15029 C 1371.69 -4.77159 4.15334 0
M  V30 15030 C 1370.35 -4.89658 4.53642 0
M  V30 15031 H 1369.62 -0.726047 0.148112 0
M  V30 15032 H 1372.27 -1.60681 1.04182 0
M  V30 15033 H 1370.57 -3.91425 -0.17141 0
M  V30 15034 H 1372.27 -4.00453 0.209374 0
M  V30 15035 H 1368.86 -3.95887 1.64231 0
M  V30 15036 H 1373.04 -4.23823 2.58239 0
M  V30 15037 H 1368.3 -4.69104 3.92112 0
M  V30 15038 H 1372.47 -4.98381 4.86404 0
M  V30 15039 H 1370.1 -5.20713 5.53861 0
M  V30 15040 N 1371.68 -0.573274 -1.46804 0
M  V30 15041 C 1372.92 -0.057823 -2.04318 0
M  V30 15042 C 1373.28 1.27424 -1.43622 0
M  V30 15043 O 1374.48 1.87835 -1.92279 0
M  V30 15044 C 1372.75 0.016823 -3.57396 0
M  V30 15045 S 1374.31 0.476068 -4.3621 0
M  V30 15046 H 1371.13 -0.0329025 -0.710238 0
M  V30 15047 H 1373.73 -0.76364 -1.79969 0
M  V30 15048 H 1372.44 -0.956757 -3.99092 0
M  V30 15049 H 1371.97 0.745702 -3.86268 0
M  V30 15050 H 1373.98 1.73268 -4.64965 0
M  V30 15051 N 1373.15 1.5451 -0.310553 0
M  V30 15052 C 1374.57 1.85829 0.180166 0
M  V30 15053 C 1374.92 1.23239 1.52665 0
M  V30 15054 O 1374.04 0.53359 2.09718 0
M  V30 15055 C 1374.64 3.37153 0.333687 0
M  V30 15056 C 1373.2 3.68469 0.768625 0
M  V30 15057 C 1372.34 2.77051 -0.117399 0
M  V30 15058 H 1375.29 1.49544 -0.531262 0
M  V30 15059 H 1375.31 3.62171 1.16673 0
M  V30 15060 H 1374.83 3.82678 -0.646455 0
M  V30 15061 H 1372.93 3.28467 1.75898 0
M  V30 15062 H 1373.04 4.75559 0.581392 0
M  V30 15063 H 1371.4 2.51461 0.404905 0
M  V30 15064 H 1372.19 3.254 -1.09407 0
M  V30 15065 N 1374.63 0.0384594 1.57553 0
M  V30 15066 C 1375.88 -0.637533 1.91359 0
M  V30 15067 C 1376.2 -1.7275 0.91744 0
M  V30 15068 O 1377.4 -2.46078 1.14709 0
M  V30 15069 C 1375.86 -1.18526 3.39823 0
M  V30 15070 C 1375.47 -0.128086 4.47817 0
M  V30 15071 C 1377.21 -1.83723 3.82683 0
M  V30 15072 C 1375.12 -0.687978 5.87385 0
M  V30 15073 H 1374.05 -0.241898 0.714144 0
M  V30 15074 H 1376.7 0.105281 1.83198 0
M  V30 15075 H 1375.08 -1.97999 3.42947 0
M  V30 15076 H 1376.25 0.644865 4.56265 0
M  V30 15077 H 1374.57 0.425672 4.14219 0
M  V30 15078 H 1377.17 -2.26585 4.84317 0
M  V30 15079 H 1377.51 -2.68377 3.18244 0
M  V30 15080 H 1378.04 -1.10926 3.82021 0
M  V30 15081 H 1374.78 0.120642 6.55389 0
M  V30 15082 H 1374.3 -1.4292 5.82524 0
M  V30 15083 H 1375.98 -1.17483 6.36244 0
M  V30 15084 N 1376.11 -1.55841 -0.234795 0
M  V30 15085 C 1377.36 -1.78502 -0.96254 0
M  V30 15086 C 1377.69 -0.605832 -1.84508 0
M  V30 15087 O 1376.97 0.395446 -1.90438 0
M  V30 15088 C 1377.25 -3.11144 -1.81277 0
M  V30 15089 C 1377.1 -4.39488 -0.957607 0
M  V30 15090 C 1378.42 -3.40114 -2.79304 0
M  V30 15091 H 1375.54 -0.649397 -0.348501 0
M  V30 15092 H 1378.18 -1.88575 -0.23224 0
M  V30 15093 H 1376.33 -3.02687 -2.43542 0
M  V30 15094 H 1378 -4.59949 -0.352726 0
M  V30 15095 H 1376.25 -4.33005 -0.262454 0
M  V30 15096 H 1376.92 -5.28707 -1.58659 0
M  V30 15097 H 1379.39 -3.48612 -2.27175 0
M  V30 15098 H 1378.27 -4.34118 -3.35906 0
M  V30 15099 H 1378.53 -2.61623 -3.56378 0
M  V30 15100 N 1377.59 0.500963 -1.49426 0
M  V30 15101 C 1378.55 1.58478 -1.65582 0
M  V30 15102 C 1379.55 1.51897 -0.52762 0
M  V30 15103 O 1380.74 1.55049 -0.794071 0
M  V30 15104 C 1377.87 2.9813 -1.65322 0
M  V30 15105 H 1379.07 1.45483 -2.6225 0
M  V30 15106 H 1376.62 0.725199 -1.38458 0
M  V30 15107 H 1377.36 3.16602 -0.702384 0
M  V30 15108 H 1377.14 3.04315 -2.47255 0
M  V30 15109 H 1378.63 3.76874 -1.79878 0
M  V30 15110 N 1379.07 1.38501 0.752011 0
M  V30 15111 C 1380.03 1.35655 1.84744 0
M  V30 15112 C 1381.03 0.256772 1.58737 0
M  V30 15113 O 1382.22 0.513749 1.66452 0
M  V30 15114 C 1379.35 1.11231 3.22243 0
M  V30 15115 H 1380.55 2.33114 1.88674 0
M  V30 15116 H 1378.1 1.23818 0.953882 0
M  V30 15117 H 1378.83 0.143848 3.23981 0
M  V30 15118 H 1378.62 1.90857 3.42515 0
M  V30 15119 H 1380.11 1.11939 4.02318 0
M  V30 15120 N 1380.55 -0.980364 1.23396 0
M  V30 15121 C 1381.79 -1.72421 1.06765 0
M  V30 15122 C 1382.12 -1.90151 -0.394515 0
M  V30 15123 O 1381.4 -1.4538 -1.29209 0
M  V30 15124 C 1381.68 -3.12246 1.79372 0
M  V30 15125 C 1381.54 -3.02087 3.33262 0
M  V30 15126 C 1382.85 -4.11667 1.55624 0
M  V30 15127 H 1379.97 -0.625822 0.389251 0
M  V30 15128 H 1382.62 -1.14132 1.51901 0
M  V30 15129 H 1380.77 -3.62008 1.41004 0
M  V30 15130 H 1382.44 -2.59848 3.81152 0
M  V30 15131 H 1380.68 -2.38592 3.62293 0
M  V30 15132 H 1381.35 -4.01087 3.79254 0
M  V30 15133 H 1383.83 -3.70712 1.88975 0
M  V30 15134 H 1382.7 -5.07593 2.08902 0
M  V30 15135 H 1382.96 -4.39358 0.491601 0
M  V30 15136 N 1382.02 -1.04567 -1.17913 0
M  V30 15137 C 1382.95 -0.662066 -2.23917 0
M  V30 15138 C 1383.93 0.33713 -1.66726 0
M  V30 15139 O 1385.12 0.216116 -1.92994 0
M  V30 15140 C 1382.25 -0.029463 -3.47288 0
M  V30 15141 C 1381.2 -0.95274 -4.17261 0
M  V30 15142 C 1380.53 -0.184347 -5.34382 0
M  V30 15143 C 1381.83 -2.2741 -4.70194 0
M  V30 15144 H 1383.52 -1.54826 -2.5626 0
M  V30 15145 H 1381.07 -0.745886 -1.23177 0
M  V30 15146 H 1383.02 0.250654 -4.20654 0
M  V30 15147 H 1381.75 0.891638 -3.14193 0
M  V30 15148 H 1380.41 -1.21732 -3.45799 0
M  V30 15149 H 1380.05 0.73932 -4.97537 0
M  V30 15150 H 1379.75 -0.79949 -5.82136 0
M  V30 15151 H 1381.28 0.0886344 -6.10536 0
M  V30 15152 H 1382.69 -2.05433 -5.35229 0
M  V30 15153 H 1381.09 -2.84265 -5.28501 0
M  V30 15154 H 1382.16 -2.91708 -3.87342 0
M  V30 15155 N 1383.5 1.34231 -0.825823 0
M  V30 15156 C 1384.73 2.02417 -0.428348 0
M  V30 15157 C 1385.14 1.62181 0.966573 0
M  V30 15158 O 1384.5 0.828691 1.62601 0
M  V30 15159 C 1384.55 3.57678 -0.524271 0
M  V30 15160 O 1384.27 3.96458 -1.86422 0
M  V30 15161 C 1385.77 4.43132 -0.122069 0
M  V30 15162 H 1382.99 0.648699 -0.171554 0
M  V30 15163 H 1385.54 1.71443 -1.11478 0
M  V30 15164 H 1383.69 3.87232 0.114112 0
M  V30 15165 H 1384.11 4.91147 -1.84051 0
M  V30 15166 H 1385.58 5.51477 -0.240264 0
M  V30 15167 H 1386.06 4.29139 0.934705 0
M  V30 15168 H 1386.66 4.18912 -0.734366 0
M  V30 15169 N 1384.98 0.581051 1.46498 0
M  V30 15170 C 1386.23 0.0659956 2.02392 0
M  V30 15171 C 1386.55 -1.29329 1.45273 0
M  V30 15172 O 1385.81 -1.86047 0.607041 0
M  V30 15173 C 1386.11 -0.0514774 3.57363 0
M  V30 15174 C 1385.77 1.24 4.33514 0
M  V30 15175 C 1384.44 1.59383 4.54038 0
M  V30 15176 C 1386.79 2.09473 4.77253 0
M  V30 15177 C 1384.12 2.8004 5.15552 0
M  V30 15178 C 1386.47 3.29355 5.401 0
M  V30 15179 C 1385.13 3.65022 5.58852 0
M  V30 15180 H 1384.4 0.0241495 0.740606 0
M  V30 15181 H 1387.05 0.757354 1.75887 0
M  V30 15182 H 1385.35 -0.825955 3.82995 0
M  V30 15183 H 1387.05 -0.465726 3.98286 0
M  V30 15184 H 1383.64 0.954547 4.17835 0
M  V30 15185 H 1387.83 1.83441 4.61154 0
M  V30 15186 H 1383.08 3.07814 5.28262 0
M  V30 15187 H 1387.26 3.95855 5.7295 0
M  V30 15188 H 1384.88 4.58607 6.06287 0
M  V30 15189 N 1386.46 -1.54343 0.318742 0
M  V30 15190 C 1387.71 -1.9966 -0.286146 0
M  V30 15191 C 1388.02 -1.21073 -1.53625 0
M  V30 15192 O 1389.23 -1.56744 -2.21684 0
M  V30 15193 C 1387.68 -3.5551 -0.560405 0
M  V30 15194 C 1387.29 -4.42926 0.672373 0
M  V30 15195 C 1389.03 -4.09307 -1.12551 0
M  V30 15196 C 1386.94 -5.9024 0.370285 0
M  V30 15197 H 1385.87 -0.74583 -0.110698 0
M  V30 15198 H 1388.52 -1.78386 0.430215 0
M  V30 15199 H 1386.9 -3.72753 -1.33683 0
M  V30 15200 H 1388.08 -4.37458 1.448 0
M  V30 15201 H 1386.39 -3.99993 1.15736 0
M  V30 15202 H 1388.99 -5.16955 -1.36607 0
M  V30 15203 H 1389.33 -3.60994 -2.07338 0
M  V30 15204 H 1389.87 -3.95677 -0.410385 0
M  V30 15205 H 1386.6 -6.42738 1.28719 0
M  V30 15206 H 1386.12 -5.98672 -0.367731 0
M  V30 15207 H 1387.8 -6.46996 -0.0216582 0
M  V30 15208 N 1387.94 -0.0468143 -1.5753 0
M  V30 15209 C 1389.17 0.636723 -1.96544 0
M  V30 15210 C 1389.57 1.65169 -0.922814 0
M  V30 15211 O 1388.92 1.83417 0.101892 0
M  V30 15212 C 1388.98 1.38435 -3.31777 0
M  V30 15213 C 1388.64 0.525714 -4.53966 0
M  V30 15214 C 1389.64 -0.206392 -5.1949 0
M  V30 15215 C 1387.32 0.457919 -5.00208 0
M  V30 15216 C 1389.32 -0.994779 -6.29589 0
M  V30 15217 C 1387.01 -0.334159 -6.10186 0
M  V30 15218 C 1388 -1.0592 -6.74737 0
M  V30 15219 O 1387.69 -1.83826 -7.826 0
M  V30 15220 H 1387.42 0.179197 -0.651816 0
M  V30 15221 H 1389.98 -0.108214 -2.05115 0
M  V30 15222 H 1388.21 2.17482 -3.19748 0
M  V30 15223 H 1389.9 1.9577 -3.55568 0
M  V30 15224 H 1390.66 -0.163457 -4.84724 0
M  V30 15225 H 1386.54 1.01185 -4.49758 0
M  V30 15226 H 1390.09 -1.56121 -6.79906 0
M  V30 15227 H 1385.98 -0.378748 -6.44388 0
M  V30 15228 H 1386.75 -1.75991 -7.99356 0
M  V30 15229 N 1389.41 1.55964 0.226527 0
M  V30 15230 C 1390.66 1.78745 0.95165 0
M  V30 15231 C 1390.99 0.614714 1.84531 0
M  V30 15232 O 1390.24 -0.401137 1.91545 0
M  V30 15233 C 1390.54 3.07235 1.82597 0
M  V30 15234 C 1390.21 4.37627 1.08596 0
M  V30 15235 C 1388.87 4.73057 0.881531 0
M  V30 15236 C 1391.22 5.1815 0.563019 0
M  V30 15237 C 1388.55 5.86528 0.142172 0
M  V30 15238 C 1390.9 6.3239 -0.162972 0
M  V30 15239 C 1389.57 6.66425 -0.378704 0
M  V30 15240 H 1388.84 0.654075 0.348233 0
M  V30 15241 H 1391.48 1.9023 0.220187 0
M  V30 15242 H 1389.79 2.9085 2.62514 0
M  V30 15243 H 1391.49 3.22063 2.38907 0
M  V30 15244 H 1388.08 4.09806 1.25527 0
M  V30 15245 H 1392.26 4.91218 0.708446 0
M  V30 15246 H 1387.52 6.1139 -0.0352481 0
M  V30 15247 H 1391.69 6.94016 -0.575719 0
M  V30 15248 H 1389.32 7.54196 -0.953549 0
M  V30 15249 N 1390.89 -0.493031 1.4969 0
M  V30 15250 C 1392.14 -1.2433 1.58823 0
M  V30 15251 C 1392.45 -1.9353 0.283823 0
M  V30 15252 O 1393.66 -2.70311 0.253801 0
M  V30 15253 C 1392.12 -2.25792 2.8026 0
M  V30 15254 C 1391.72 -1.62496 4.17491 0
M  V30 15255 C 1393.47 -3.01598 2.98729 0
M  V30 15256 C 1391.38 -2.62115 5.30141 0
M  V30 15257 H 1390.31 -0.467738 0.591386 0
M  V30 15258 H 1392.96 -0.516238 1.76089 0
M  V30 15259 H 1391.34 -3.01696 2.56506 0
M  V30 15260 H 1392.51 -0.925305 4.51414 0
M  V30 15261 H 1390.83 -0.990516 4.04447 0
M  V30 15262 H 1393.42 -3.76111 3.80058 0
M  V30 15263 H 1393.77 -3.59687 2.09597 0
M  V30 15264 H 1394.3 -2.32809 3.2256 0
M  V30 15265 H 1391.04 -2.08797 6.21357 0
M  V30 15266 H 1390.56 -3.30298 5.00663 0
M  V30 15267 H 1392.24 -3.24385 5.59807 0
M  V30 15268 N 1392.37 -1.38898 -0.744656 0
M  V30 15269 C 1393.32 -1.36974 -1.87992 0
M  V30 15270 C 1394.31 -0.254277 -1.67481 0
M  V30 15271 O 1395.52 -0.423797 -1.7494 0
M  V30 15272 H 1391.89 -0.427508 -0.618661 0
M  V30 15273 H 1393.86 -2.32754 -1.86731 0
M  V30 15274 C 1392.61 -1.22054 -3.25573 0
M  V30 15275 H 1391.94 -2.07152 -3.41947 0
M  V30 15276 H 1393.38 -1.24763 -4.05228 0
M  V30 15277 C 1391.84 0.0718413 -3.36823 0
M  V30 15278 O 1392.37 1.0456 -3.87853 0
M  V30 15279 N 1390.57 0.131672 -2.90302 0
M  V30 15280 H 1390.12 -0.661428 -2.48964 0
M  V30 15281 H 1390.08 0.995936 -2.98209 0
M  V30 15282 N 1393.85 0.973806 -1.23914 0
M  V30 15283 C 1394.78 2.06588 -0.969372 0
M  V30 15284 C 1395.76 1.62324 0.0946926 0
M  V30 15285 O 1396.94 1.88455 -0.0409587 0
M  V30 15286 C 1394.07 3.35539 -0.461665 0
M  V30 15287 C 1393.12 3.98748 -1.51334 0
M  V30 15288 S 1393.95 4.37156 -3.09281 0
M  V30 15289 C 1395.11 5.69252 -2.60197 0
M  V30 15290 H 1395.34 2.29153 -1.8941 0
M  V30 15291 H 1392.87 1.11089 -1.07231 0
M  V30 15292 H 1394.83 4.10125 -0.175355 0
M  V30 15293 H 1393.49 3.10971 0.442253 0
M  V30 15294 H 1392.68 4.91661 -1.10839 0
M  V30 15295 H 1392.29 3.30566 -1.74934 0
M  V30 15296 H 1394.58 6.46489 -2.02628 0
M  V30 15297 H 1395.52 6.14598 -3.51675 0
M  V30 15298 H 1395.93 5.27568 -2.00828 0
M  V30 15299 N 1395.33 1.05191 1.17357 0
M  V30 15300 C 1396.74 0.773255 1.39617 0
M  V30 15301 C 1396.94 -0.632346 1.91321 0
M  V30 15302 O 1396 -1.39475 2.10483 0
M  V30 15303 C 1397.31 1.82885 2.38692 0
M  V30 15304 C 1398.86 1.85106 2.52398 0
M  V30 15305 C 1399.33 2.89689 3.54746 0
M  V30 15306 N 1400.83 2.88651 3.62263 0
M  V30 15307 C 1401.56 3.66221 4.41214 0
M  V30 15308 N 1401.06 4.53577 5.23679 0
M  V30 15309 N 1402.85 3.54661 4.36087 0
M  V30 15310 H 1395 1.9588 0.82127 0
M  V30 15311 H 1397.26 0.848187 0.423417 0
M  V30 15312 H 1396.97 2.83766 2.07773 0
M  V30 15313 H 1396.84 1.67047 3.38194 0
M  V30 15314 H 1399.23 0.848896 2.82627 0
M  V30 15315 H 1399.31 2.05022 1.5297 0
M  V30 15316 H 1398.96 3.90091 3.25255 0
M  V30 15317 H 1398.89 2.67025 4.53878 0
M  V30 15318 H 1401.38 2.25312 3.03386 0
M  V30 15319 H 1401.69 5.09449 5.81104 0
M  V30 15320 H 1400.03 4.57638 5.23061 0
M  V30 15321 H 1403.23 2.8581 3.70716 0
M  V30 15322 H 1403.4 4.15361 4.97372 0
M  V30 15323 N 1396.8 -1.33791 0.83293 0
M  V30 15324 C 1398.05 -1.98266 0.426412 0
M  V30 15325 C 1398.38 -1.65848 -1.01035 0
M  V30 15326 O 1397.66 -0.93528 -1.70537 0
M  V30 15327 C 1397.94 -3.54356 0.640586 0
M  V30 15328 C 1397.79 -3.96482 2.12419 0
M  V30 15329 C 1399.11 -4.40022 0.0829237 0
M  V30 15330 H 1396.23 -0.720213 0.156404 0
M  V30 15331 H 1398.87 -1.58527 1.04735 0
M  V30 15332 H 1397.02 -3.88338 0.11204 0
M  V30 15333 H 1398.7 -3.72786 2.71714 0
M  V30 15334 H 1396.94 -3.46429 2.61092 0
M  V30 15335 H 1397.61 -5.05179 2.22482 0
M  V30 15336 H 1400.09 -4.12651 0.534634 0
M  V30 15337 H 1398.96 -5.48272 0.262511 0
M  V30 15338 H 1399.22 -4.30341 -1.01287 0
M  V30 15339 N 1398.28 -0.588812 -1.46187 0
M  V30 15340 C 1399.53 -0.076728 -2.02355 0
M  V30 15341 C 1399.86 1.28557 -1.45956 0
M  V30 15342 O 1399.11 1.85722 -0.616899 0
M  V30 15343 C 1399.41 0.0325249 -3.57385 0
M  V30 15344 C 1399.08 -1.26298 -4.32851 0
M  V30 15345 C 1397.74 -1.61789 -4.53186 0
M  V30 15346 C 1400.09 -2.12001 -4.76136 0
M  V30 15347 C 1397.42 -2.82771 -5.1406 0
M  V30 15348 C 1399.77 -3.32214 -5.38346 0
M  V30 15349 C 1398.44 -3.6798 -5.56908 0
M  V30 15350 H 1397.71 -0.0280768 -0.740468 0
M  V30 15351 H 1400.35 -0.766671 -1.75483 0
M  V30 15352 H 1398.66 0.805632 -3.83428 0
M  V30 15353 H 1400.35 0.444597 -3.98528 0
M  V30 15354 H 1396.94 -0.976692 -4.17323 0
M  V30 15355 H 1401.13 -1.85884 -4.60175 0
M  V30 15356 H 1396.38 -3.10611 -5.26622 0
M  V30 15357 H 1400.56 -3.98888 -5.70843 0
M  V30 15358 H 1398.19 -4.61815 -6.03846 0
M  V30 15359 N 1399.76 1.54172 -0.326923 0
M  V30 15360 C 1400.72 2.2311 0.524855 0
M  V30 15361 C 1401.72 1.22567 1.04087 0
M  V30 15362 O 1402.91 1.47123 0.932759 0
M  V30 15363 C 1400.05 2.93778 1.72937 0
M  V30 15364 H 1401.24 2.99799 -0.0778327 0
M  V30 15365 H 1398.79 1.56105 -0.0780484 0
M  V30 15366 H 1399.53 2.21234 2.3712 0
M  V30 15367 H 1399.31 3.67509 1.36674 0
M  V30 15368 H 1400.8 3.46292 2.33392 0
M  V30 15369 N 1401.24 0.0551678 1.57503 0
M  V30 15370 C 1402.48 -0.618636 1.93134 0
M  V30 15371 C 1402.82 -1.70258 0.934125 0
M  V30 15372 O 1402.09 -1.9446 -0.0392699 0
M  V30 15373 C 1402.38 -1.21103 3.39126 0
M  V30 15374 C 1402.23 -0.134865 4.49598 0
M  V30 15375 C 1403.55 -2.12148 3.85592 0
M  V30 15376 H 1400.67 -0.223416 0.702321 0
M  V30 15377 H 1403.31 0.117748 1.89635 0
M  V30 15378 H 1401.46 -1.83862 3.42238 0
M  V30 15379 H 1403.13 0.497292 4.58612 0
M  V30 15380 H 1401.37 0.536587 4.30469 0
M  V30 15381 H 1402.04 -0.589447 5.48844 0
M  V30 15382 H 1404.52 -1.59346 3.8438 0
M  V30 15383 H 1403.4 -2.50539 4.88387 0
M  V30 15384 H 1403.66 -3.02318 3.22578 0
M  V30 15385 N 1402.72 -1.56081 -0.218252 0
M  V30 15386 C 1404.13 -1.49147 -0.568098 0
M  V30 15387 C 1404.33 -0.750893 -1.86986 0
M  V30 15388 O 1403.39 -0.291904 -2.50807 0
M  V30 15389 C 1404.7 -2.93717 -0.644272 0
M  V30 15390 C 1406.25 -3.04256 -0.734677 0
M  V30 15391 C 1406.72 -4.50191 -0.842167 0
M  V30 15392 N 1408.22 -4.54247 -0.906302 0
M  V30 15393 C 1408.95 -5.64448 -1.00924 0
M  V30 15394 N 1408.45 -6.84394 -1.07592 0
M  V30 15395 N 1410.24 -5.52308 -1.04463 0
M  V30 15396 H 1402.39 -2.02656 0.635935 0
M  V30 15397 H 1404.65 -0.921262 0.223563 0
M  V30 15398 H 1404.36 -3.50861 0.242721 0
M  V30 15399 H 1404.23 -3.45798 -1.50678 0
M  V30 15400 H 1406.62 -2.47174 -1.61211 0
M  V30 15401 H 1406.7 -2.55339 0.153563 0
M  V30 15402 H 1406.35 -5.07891 0.0308214 0
M  V30 15403 H 1406.28 -4.96817 -1.74587 0
M  V30 15404 H 1408.77 -3.67868 -0.864954 0
M  V30 15405 H 1409.08 -7.6413 -1.15433 0
M  V30 15406 H 1407.42 -6.87099 -1.045 0
M  V30 15407 H 1410.62 -4.57528 -0.989218 0
M  V30 15408 H 1410.79 -6.38223 -1.1214 0
M  V30 15409 N 1404.2 0.485086 -1.49949 0
M  V30 15410 C 1405.16 1.56713 -1.67253 0
M  V30 15411 C 1406.16 1.51329 -0.543701 0
M  V30 15412 O 1407.35 1.54198 -0.810472 0
M  V30 15413 C 1404.48 2.9636 -1.68475 0
M  V30 15414 H 1405.67 1.42693 -2.63778 0
M  V30 15415 H 1403.23 0.710473 -1.39219 0
M  V30 15416 H 1403.96 3.1584 -0.735924 0
M  V30 15417 H 1403.75 3.01675 -2.50469 0
M  V30 15418 H 1405.24 3.74945 -1.83865 0
M  V30 15419 N 1405.67 1.39291 0.737279 0
M  V30 15420 C 1407.09 1.20845 1.04253 0
M  V30 15421 C 1407.29 0.0684513 2.01384 0
M  V30 15422 O 1406.35 -0.580615 2.45734 0
M  V30 15423 C 1407.66 2.54158 1.60699 0
M  V30 15424 C 1409.21 2.60983 1.72791 0
M  V30 15425 C 1409.68 3.94511 2.32647 0
M  V30 15426 N 1411.17 3.96138 2.4006 0
M  V30 15427 C 1411.91 4.96229 2.87306 0
M  V30 15428 N 1411.4 6.06716 3.34465 0
M  V30 15429 N 1413.2 4.83609 2.86494 0
M  V30 15430 H 1405.35 2.12196 0.0930416 0
M  V30 15431 H 1407.61 0.942289 0.103899 0
M  V30 15432 H 1407.32 3.38118 0.96795 0
M  V30 15433 H 1407.19 2.73715 2.59538 0
M  V30 15434 H 1409.58 1.77408 2.35818 0
M  V30 15435 H 1409.66 2.45278 0.726118 0
M  V30 15436 H 1409.3 4.78516 1.70249 0
M  V30 15437 H 1409.23 4.07536 3.33499 0
M  V30 15438 H 1411.72 3.16344 2.06725 0
M  V30 15439 H 1412.04 6.79002 3.6902 0
M  V30 15440 H 1410.38 6.10313 3.3248 0
M  V30 15441 H 1413.57 3.96396 2.48973 0
M  V30 15442 H 1413.75 5.6176 3.23001 0
M  V30 15443 N 1407.15 -0.967221 1.24429 0
M  V30 15444 C 1408.08 -2.07966 1.06172 0
M  V30 15445 C 1409.06 -1.70081 -0.0254566 0
M  V30 15446 O 1410.25 -1.93682 0.141705 0
M  V30 15447 C 1407.38 -3.4085 0.666251 0
M  V30 15448 C 1406.33 -3.92692 1.70225 0
M  V30 15449 C 1405.66 -5.21925 1.16183 0
M  V30 15450 C 1406.96 -4.20478 3.09831 0
M  V30 15451 H 1408.65 -2.23497 1.99222 0
M  V30 15452 H 1406.2 -1.07398 0.959255 0
M  V30 15453 H 1408.15 -4.1811 0.52552 0
M  V30 15454 H 1406.87 -3.2522 -0.299939 0
M  V30 15455 H 1405.53 -3.17588 1.83121 0
M  V30 15456 H 1405.18 -5.02655 0.186237 0
M  V30 15457 H 1404.88 -5.57579 1.85416 0
M  V30 15458 H 1406.41 -6.01795 1.03323 0
M  V30 15459 H 1407.82 -4.88442 3.00162 0
M  V30 15460 H 1406.22 -4.67362 3.7642 0
M  V30 15461 H 1407.29 -3.27235 3.57834 0
M  V30 15462 N 1408.63 -1.05812 -1.16797 0
M  V30 15463 C 1409.86 -0.792519 -1.9112 0
M  V30 15464 C 1410.27 0.652549 -1.77164 0
M  V30 15465 O 1409.63 1.44633 -1.113 0
M  V30 15466 C 1409.68 -1.17172 -3.41984 0
M  V30 15467 O 1409.4 -2.56008 -3.55516 0
M  V30 15468 C 1410.9 -0.933162 -4.33367 0
M  V30 15469 H 1408.12 -0.28768 -0.606202 0
M  V30 15470 H 1410.67 -1.41046 -1.48075 0
M  V30 15471 H 1408.82 -0.598413 -3.8275 0
M  V30 15472 H 1409.24 -2.71053 -4.49033 0
M  V30 15473 H 1410.71 -1.24817 -5.37703 0
M  V30 15474 H 1411.19 0.131345 -4.39004 0
M  V30 15475 H 1411.79 -1.49062 -3.98322 0
M  V30 15476 N 1410.11 1.33347 -0.840014 0
M  V30 15477 C 1411.05 2.29191 -0.272048 0
M  V30 15478 C 1412.02 1.54383 0.612787 0
M  V30 15479 O 1413.21 1.82676 0.550812 0
M  V30 15480 C 1410.35 3.40755 0.545901 0
M  V30 15481 C 1409.46 4.30471 -0.363084 0
M  V30 15482 C 1408.6 5.29151 0.466078 0
M  V30 15483 C 1407.64 6.10508 -0.441225 0
M  V30 15484 N 1406.77 7.01228 0.349877 0
M  V30 15485 H 1411.61 2.77166 -1.09467 0
M  V30 15486 H 1409.15 1.36379 -0.551284 0
M  V30 15487 H 1411.11 4.04142 1.03562 0
M  V30 15488 H 1409.74 2.9397 1.33348 0
M  V30 15489 H 1408.79 3.67795 -0.971119 0
M  V30 15490 H 1410.1 4.87406 -1.06002 0
M  V30 15491 H 1409.26 5.98072 1.01957 0
M  V30 15492 H 1408 4.72796 1.19644 0
M  V30 15493 H 1407 5.40504 -1.00672 0
M  V30 15494 H 1408.23 6.68946 -1.16997 0
M  V30 15495 H 1406.17 6.4732 1.0636 0
M  V30 15496 H 1406.09 7.5545 -0.288317 0
M  V30 15497 H 1407.36 7.74453 0.885573 0
M  V30 15498 N 1411.59 0.596556 1.45873 0
M  V30 15499 C 1412.81 0.0916466 2.07197 0
M  V30 15500 C 1413.24 -1.21004 1.44012 0
M  V30 15501 O 1412.59 -1.73415 0.528844 0
M  V30 15502 C 1412.64 -0.0461457 3.6057 0
M  V30 15503 O 1411.75 -1.09919 3.97481 0
M  V30 15504 H 1411.09 0.0690655 0.660398 0
M  V30 15505 H 1413.62 0.823434 1.87299 0
M  V30 15506 H 1413.63 -0.2479 4.07246 0
M  V30 15507 H 1412.3 0.904381 4.05948 0
M  V30 15508 H 1410.88 -0.874788 3.62494 0
M  V30 15509 N 1413.06 -1.53996 0.335095 0
M  V30 15510 C 1414.01 -2.24736 -0.52559 0
M  V30 15511 C 1414.98 -1.24244 -1.10239 0
M  V30 15512 O 1416.17 -1.52955 -1.14058 0
M  V30 15513 C 1413.31 -3.01732 -1.67487 0
M  V30 15514 C 1412.42 -4.17062 -1.1262 0
M  V30 15515 C 1411.55 -4.81563 -2.2421 0
M  V30 15516 C 1410.59 -5.88977 -1.6665 0
M  V30 15517 N 1409.73 -6.47293 -2.71949 0
M  V30 15518 H 1414.57 -2.97881 0.0842008 0
M  V30 15519 H 1412.11 -1.47003 0.0533254 0
M  V30 15520 H 1414.06 -3.44626 -2.35135 0
M  V30 15521 H 1412.69 -2.30899 -2.25578 0
M  V30 15522 H 1411.75 -3.78869 -0.340917 0
M  V30 15523 H 1413.06 -4.94346 -0.665113 0
M  V30 15524 H 1412.21 -5.27486 -2.9974 0
M  V30 15525 H 1410.95 -4.03685 -2.73659 0
M  V30 15526 H 1409.96 -5.42446 -0.89623 0
M  V30 15527 H 1411.18 -6.68758 -1.18064 0
M  V30 15528 H 1409.13 -5.72283 -3.20668 0
M  V30 15529 H 1409.04 -7.20024 -2.30438 0
M  V30 15530 H 1410.31 -6.97869 -3.47273 0
M  V30 15531 N 1414.54 -0.0635198 -1.57472 0
M  V30 15532 C 1415.45 0.921531 -2.15743 0
M  V30 15533 C 1416.47 1.33294 -1.11842 0
M  V30 15534 O 1417.64 1.40733 -1.4407 0
M  V30 15535 C 1414.71 2.17378 -2.70088 0
M  V30 15536 C 1413.77 1.81956 -3.88832 0
M  V30 15537 C 1413 3.01211 -4.40577 0
M  V30 15538 O 1413.23 4.14971 -3.9135 0
M  V30 15539 O 1412.16 2.81507 -5.32012 0
M  V30 15540 H 1415.99 0.455899 -3.00259 0
M  V30 15541 H 1413.57 0.159085 -1.48551 0
M  V30 15542 H 1415.45 2.90826 -3.04956 0
M  V30 15543 H 1414.13 2.63055 -1.88637 0
M  V30 15544 H 1413.03 1.05786 -3.58832 0
M  V30 15545 H 1414.37 1.41069 -4.71551 0
M  V30 15546 N 1416.02 1.56195 0.209972 0
M  V30 15547 C 1417.27 1.78941 0.930744 0
M  V30 15548 C 1417.58 0.634139 1.85035 0
M  V30 15549 O 1418.79 0.745524 2.61064 0
M  V30 15550 C 1417.24 3.16935 1.70529 0
M  V30 15551 C 1416.85 4.40221 0.83125 0
M  V30 15552 C 1418.6 3.49 2.41659 0
M  V30 15553 C 1416.5 5.69238 1.60381 0
M  V30 15554 H 1415.43 0.667176 0.351273 0
M  V30 15555 H 1418.08 1.82572 0.184341 0
M  V30 15556 H 1416.47 3.07513 2.49503 0
M  V30 15557 H 1417.64 4.60728 0.081227 0
M  V30 15558 H 1415.95 4.15756 0.231517 0
M  V30 15559 H 1418.55 4.42623 2.99982 0
M  V30 15560 H 1418.89 2.72042 3.15117 0
M  V30 15561 H 1419.43 3.59804 1.69665 0
M  V30 15562 H 1416.17 6.49121 0.912292 0
M  V30 15563 H 1415.69 5.52772 2.32815 0
M  V30 15564 H 1417.37 6.09827 2.16149 0
M  V30 15565 N 1417.5 -0.477127 1.50204 0
M  V30 15566 C 1418.41 -1.60182 1.71403 0
M  V30 15567 C 1419.42 -1.63437 0.597009 0
M  V30 15568 O 1420.6 -1.81418 0.874614 0
M  V30 15569 C 1417.66 -2.96432 1.79802 0
M  V30 15570 C 1416.73 -3.03614 3.03508 0
M  V30 15571 C 1415.96 -4.33365 3.11497 0
M  V30 15572 O 1416.18 -5.23529 2.26438 0
M  V30 15573 O 1415.12 -4.46013 4.04173 0
M  V30 15574 H 1418.94 -1.45221 2.66729 0
M  V30 15575 H 1416.53 -0.655982 1.34228 0
M  V30 15576 H 1418.41 -3.77367 1.87542 0
M  V30 15577 H 1417.08 -3.11605 0.876581 0
M  V30 15578 H 1415.99 -2.21779 3.01272 0
M  V30 15579 H 1417.32 -2.93376 3.95211 0
M  V30 15580 N 1418.98 -1.3968 -0.729882 0
M  V30 15581 C 1419.92 -1.38808 -1.84393 0
M  V30 15582 C 1420.89 -0.247035 -1.64253 0
M  V30 15583 O 1422.08 -0.44293 -1.85588 0
M  V30 15584 C 1419.22 -1.2424 -3.2196 0
M  V30 15585 C 1418.33 -2.47932 -3.53771 0
M  V30 15586 C 1417.47 -2.25913 -4.80767 0
M  V30 15587 C 1416.51 -3.45254 -5.05436 0
M  V30 15588 N 1415.64 -3.2252 -6.23638 0
M  V30 15589 H 1420.48 -2.34038 -1.84473 0
M  V30 15590 H 1418.02 -1.16252 -0.901332 0
M  V30 15591 H 1419.98 -1.13804 -4.01378 0
M  V30 15592 H 1418.61 -0.326375 -3.21146 0
M  V30 15593 H 1417.66 -2.68952 -2.69015 0
M  V30 15594 H 1418.97 -3.36806 -3.67917 0
M  V30 15595 H 1418.13 -2.12748 -5.68175 0
M  V30 15596 H 1416.86 -1.34441 -4.68804 0
M  V30 15597 H 1415.87 -3.58912 -4.16488 0
M  V30 15598 H 1417.09 -4.37634 -5.19282 0
M  V30 15599 H 1415.04 -2.33718 -6.12953 0
M  V30 15600 H 1414.96 -4.04954 -6.38395 0
M  V30 15601 H 1416.23 -3.1306 -7.13872 0
M  V30 15602 N 1420.45 0.960609 -1.2494 0
M  V30 15603 C 1421.4 2.05634 -1.04801 0
M  V30 15604 C 1422.37 1.66049 0.0409611 0
M  V30 15605 O 1423.56 1.90453 -0.115053 0
M  V30 15606 C 1420.7 3.38604 -0.666444 0
M  V30 15607 C 1419.81 3.91341 -1.82964 0
M  V30 15608 C 1418.94 5.1261 -1.39299 0
M  V30 15609 C 1417.98 5.57562 -2.52569 0
M  V30 15610 N 1417.12 6.70046 -2.09722 0
M  V30 15611 H 1421.96 2.22194 -1.9858 0
M  V30 15612 H 1419.5 1.08892 -0.988981 0
M  V30 15613 H 1421.46 4.15017 -0.426205 0
M  V30 15614 H 1420.09 3.21948 0.23435 0
M  V30 15615 H 1419.14 3.11502 -2.18335 0
M  V30 15616 H 1420.45 4.20656 -2.68049 0
M  V30 15617 H 1419.6 5.96421 -1.11205 0
M  V30 15618 H 1418.34 4.84997 -0.512779 0
M  V30 15619 H 1417.35 4.72319 -2.81415 0
M  V30 15620 H 1418.57 5.87186 -3.41159 0
M  V30 15621 H 1416.52 6.44153 -1.24109 0
M  V30 15622 H 1416.44 6.98846 -2.88357 0
M  V30 15623 H 1417.7 7.57281 -1.84787 0
M  V30 15624 N 1421.93 1.0643 1.16234 0
M  V30 15625 C 1422.84 0.687446 2.24302 0
M  V30 15626 C 1423.86 -0.297132 1.71444 0
M  V30 15627 O 1425.03 -0.146101 2.00869 0
M  V30 15628 C 1422.1 0.0810973 3.46605 0
M  V30 15629 C 1421.16 1.11772 4.14494 0
M  V30 15630 C 1420.39 0.54021 5.30959 0
M  V30 15631 O 1420.62 -0.646619 5.66723 0
M  V30 15632 O 1419.55 1.28057 5.8812 0
M  V30 15633 H 1423.38 1.58842 2.58849 0
M  V30 15634 H 1420.96 0.836649 1.23776 0
M  V30 15635 H 1422.84 -0.25524 4.20626 0
M  V30 15636 H 1421.52 -0.793338 3.13828 0
M  V30 15637 H 1420.43 1.50626 3.42436 0
M  V30 15638 H 1421.76 1.96373 4.5133 0
M  V30 15639 N 1423.41 -1.329 0.847073 0
M  V30 15640 C 1424.36 -2.3097 0.27487 0
M  V30 15641 C 1425.35 -1.58508 -0.597625 0
M  V30 15642 O 1426.56 -1.73307 -0.486273 0
M  V30 15643 H 1422.93 -0.748719 0.0701719 0
M  V30 15644 H 1424.9 -2.7673 1.11638 0
M  V30 15645 C 1423.65 -3.43662 -0.528363 0
M  V30 15646 H 1422.98 -3.99576 0.133707 0
M  V30 15647 H 1424.42 -4.14458 -0.894443 0
M  V30 15648 C 1422.88 -2.90244 -1.71055 0
M  V30 15649 O 1423.41 -2.87109 -2.80947 0
M  V30 15650 N 1421.61 -2.46743 -1.53512 0
M  V30 15651 H 1421.16 -2.49493 -0.641181 0
M  V30 15652 H 1421.12 -2.11356 -2.32757 0
M  V30 15653 N 1424.89 -0.604284 -1.45555 0
M  V30 15654 C 1425.82 0.165286 -2.27601 0
M  V30 15655 C 1426.8 0.876749 -1.36937 0
M  V30 15656 O 1427.98 0.886288 -1.66365 0
M  V30 15657 C 1425.11 1.23897 -3.15226 0
M  V30 15658 C 1424.16 0.631002 -4.21806 0
M  V30 15659 S 1424.99 -0.558612 -5.32578 0
M  V30 15660 C 1426.15 0.515745 -6.23772 0
M  V30 15661 H 1426.38 -0.53081 -2.92523 0
M  V30 15662 H 1423.91 -0.391717 -1.49348 0
M  V30 15663 H 1425.87 1.85358 -3.66268 0
M  V30 15664 H 1424.53 1.90712 -2.49575 0
M  V30 15665 H 1423.72 1.43876 -4.83028 0
M  V30 15666 H 1423.33 0.0915984 -3.73888 0
M  V30 15667 H 1425.62 1.39571 -6.62968 0
M  V30 15668 H 1426.56 -0.0602302 -7.08074 0
M  V30 15669 H 1426.97 0.829588 -5.58371 0
M  V30 15670 N 1426.37 1.53816 -0.343257 0
M  V30 15671 C 1427.59 2.05796 0.257418 0
M  V30 15672 C 1428.02 1.2166 1.43459 0
M  V30 15673 O 1427.37 0.230278 1.79832 0
M  V30 15674 C 1427.42 3.54681 0.65068 0
M  V30 15675 O 1426.53 3.73394 1.75074 0
M  V30 15676 H 1425.87 0.662622 0.042757 0
M  V30 15677 H 1428.4 1.98462 -0.497386 0
M  V30 15678 H 1428.41 3.97308 0.927914 0
M  V30 15679 H 1427.08 4.15368 -0.210199 0
M  V30 15680 H 1425.66 3.42669 1.4708 0
M  V30 15681 N 1427.84 0.0718701 1.57436 0
M  V30 15682 C 1429.07 -0.609701 1.98236 0
M  V30 15683 C 1429.49 -1.6235 0.949959 0
M  V30 15684 O 1428.85 -1.81103 -0.0844281 0
M  V30 15685 C 1428.9 -1.2547 3.38068 0
M  V30 15686 O 1428 -2.37055 3.37459 0
M  V30 15687 H 1427.35 -0.15679 0.645223 0
M  V30 15688 H 1429.88 0.146407 2.04076 0
M  V30 15689 H 1429.89 -1.60152 3.75254 0
M  V30 15690 H 1428.56 -0.511842 4.12738 0
M  V30 15691 H 1427.14 -2.04165 3.12043 0
M  V30 15692 N 1429.32 -1.56304 -0.201686 0
M  V30 15693 C 1430.57 -1.79881 -0.921269 0
M  V30 15694 C 1430.89 -0.643809 -1.84065 0
M  V30 15695 O 1430.16 0.338239 -1.92958 0
M  V30 15696 H 1428.74 -0.663506 -0.343175 0
M  V30 15697 H 1431.4 -1.93779 -0.208775 0
M  V30 15698 H 1430.5 -2.7279 -1.51631 0
M  V30 15699 N 1430.8 0.469154 -1.50455 0
M  V30 15700 C 1432.05 1.2229 -1.6178 0
M  V30 15701 C 1432.38 1.91577 -0.318073 0
M  V30 15702 O 1431.65 1.82205 0.68057 0
M  V30 15703 C 1431.94 2.26504 -2.79943 0
M  V30 15704 C 1431.79 1.61509 -4.19804 0
M  V30 15705 C 1433.11 3.27796 -2.93662 0
M  V30 15706 H 1430.23 0.443241 -0.588817 0
M  V30 15707 H 1432.87 0.516431 -1.82847 0
M  V30 15708 H 1431.02 2.86757 -2.62112 0
M  V30 15709 H 1432.69 1.04838 -4.49229 0
M  V30 15710 H 1430.94 0.918162 -4.23972 0
M  V30 15711 H 1431.61 2.37248 -4.98415 0
M  V30 15712 H 1434.08 2.77568 -3.09992 0
M  V30 15713 H 1432.96 3.98041 -3.77961 0
M  V30 15714 H 1433.22 3.92033 -2.04359 0
M  V30 15715 N 1432.28 1.40065 0.722464 0
M  V30 15716 C 1433.53 1.3797 1.48224 0
M  V30 15717 C 1433.85 -0.0202588 1.94489 0
M  V30 15718 O 1433.11 -1.0035 1.68013 0
M  V30 15719 C 1433.41 2.30949 2.72759 0
M  V30 15720 C 1433.07 3.7834 2.45295 0
M  V30 15721 C 1431.74 4.18497 2.37515 0
M  V30 15722 C 1434.09 4.71509 2.221 0
M  V30 15723 C 1431.42 5.4987 2.04598 0
M  V30 15724 C 1433.77 6.03173 1.90697 0
M  V30 15725 C 1432.43 6.4238 1.81394 0
M  V30 15726 H 1431.7 0.504869 0.542392 0
M  V30 15727 H 1434.35 1.72667 0.828149 0
M  V30 15728 H 1432.65 1.89413 3.42972 0
M  V30 15729 H 1434.35 2.26615 3.30827 0
M  V30 15730 H 1430.94 3.46519 2.52235 0
M  V30 15731 H 1435.12 4.41308 2.27071 0
M  V30 15732 H 1430.38 5.79157 1.95928 0
M  V30 15733 H 1434.55 6.74886 1.71761 0
M  V30 15734 H 1432.18 7.44094 1.55654 0
M  V30 15735 N 1433.76 -0.95397 1.25448 0
M  V30 15736 C 1434.72 -2.03231 1.0597 0
M  V30 15737 C 1435.72 -1.60795 0.0122855 0
M  V30 15738 O 1436.91 -1.7233 0.254533 0
M  V30 15739 C 1434.04 -3.35414 0.609105 0
M  V30 15740 H 1435.24 -2.21943 2.01696 0
M  V30 15741 H 1432.79 -1.13115 1.07864 0
M  V30 15742 H 1433.52 -3.22398 -0.350723 0
M  V30 15743 H 1433.31 -3.67564 1.36526 0
M  V30 15744 H 1434.8 -4.14664 0.49428 0
M  V30 15745 N 1435.24 -1.07045 -1.15668 0
M  V30 15746 C 1436.48 -0.791735 -1.86381 0
M  V30 15747 C 1436.81 0.682084 -1.82148 0
M  V30 15748 O 1436.07 1.51617 -1.23737 0
M  V30 15749 C 1436.36 -1.24127 -3.35153 0
M  V30 15750 C 1436.03 -2.72051 -3.59582 0
M  V30 15751 C 1434.69 -3.12455 -3.65958 0
M  V30 15752 C 1437.04 -3.67547 -3.69538 0
M  V30 15753 C 1434.37 -4.4718 -3.79799 0
M  V30 15754 C 1436.72 -5.02029 -3.84902 0
M  V30 15755 C 1435.39 -5.42059 -3.89523 0
M  V30 15756 H 1434.66 -0.289717 -0.682016 0
M  V30 15757 H 1437.31 -1.34091 -1.36718 0
M  V30 15758 H 1435.61 -0.611428 -3.87 0
M  V30 15759 H 1437.31 -1.00256 -3.88265 0
M  V30 15760 H 1433.9 -2.39771 -3.55257 0
M  V30 15761 H 1438.08 -3.3746 -3.63915 0
M  V30 15762 H 1433.34 -4.77668 -3.81632 0
M  V30 15763 H 1437.51 -5.75902 -3.91548 0
M  V30 15764 H 1435.14 -6.46455 -4 0
M  V30 15765 N 1436.71 1.32449 -0.85411 0
M  V30 15766 C 1437.94 2.01997 -0.470307 0
M  V30 15767 C 1438.36 1.63772 0.925225 0
M  V30 15768 O 1437.72 0.838089 1.60766 0
M  V30 15769 C 1437.77 3.55294 -0.616301 0
M  V30 15770 O 1436.87 4.10902 0.351133 0
M  V30 15771 H 1436.21 0.63651 -0.189079 0
M  V30 15772 H 1438.74 1.69008 -1.15315 0
M  V30 15773 H 1438.75 4.0488 -0.503624 0
M  V30 15774 H 1437.43 3.82459 -1.63396 0
M  V30 15775 H 1436.01 3.72391 0.194741 0
M  V30 15776 N 1438.19 0.611994 1.45232 0
M  V30 15777 C 1439.42 0.113618 2.07089 0
M  V30 15778 C 1439.84 -1.1947 1.45288 0
M  V30 15779 O 1439.2 -1.72845 0.547207 0
M  V30 15780 C 1439.25 -0.00789978 3.60599 0
M  V30 15781 O 1438.35 -1.05697 3.98625 0
M  V30 15782 H 1437.69 0.076066 0.659629 0
M  V30 15783 H 1440.22 0.843253 1.86415 0
M  V30 15784 H 1440.23 -0.204692 4.07486 0
M  V30 15785 H 1438.91 0.947386 4.04966 0
M  V30 15786 H 1437.48 -0.836291 3.63401 0
M  V30 15787 N 1439.67 -1.53632 0.351409 0
M  V30 15788 C 1440.95 -1.93311 -0.298362 0
M  V30 15789 C 1441.33 -1.28369 -1.67584 0
M  V30 15790 O 1440.67 -0.437514 -2.24272 0
M  V30 15791 C 1440.88 -3.47109 -0.362773 0
M  V30 15792 C 1442.23 -4.20197 -0.609878 0
M  V30 15793 O 1443.26 -3.53415 -0.444566 0
M  V30 15794 O 1442.12 -5.38517 -0.930691 0
M  V30 15795 H 1439.21 -0.808112 -0.175739 0
M  V30 15796 H 1441.76 -1.64841 0.40316 0
M  V30 15797 H 1440.53 -3.86617 0.60357 0
M  V30 15798 H 1440.15 -3.81769 -1.11076 0
M  V30 15799 N 1441.15 -0.0802183 -1.57396 0
M  V30 15800 C 1442.42 0.628419 -1.8523 0
M  V30 15801 C 1442.8 1.87272 -0.974288 0
M  V30 15802 O 1442.15 2.2846 -0.0427687 0
M  V30 15803 C 1442.36 0.958033 -3.35593 0
M  V30 15804 C 1443.71 1.3279 -4.03301 0
M  V30 15805 O 1444.73 1.04951 -3.40388 0
M  V30 15806 O 1443.59 1.84865 -5.14283 0
M  V30 15807 H 1440.69 0.312945 -0.765503 0
M  V30 15808 H 1443.23 -0.111788 -1.69331 0
M  V30 15809 H 1442.01 0.074648 -3.91229 0
M  V30 15810 H 1441.63 1.75472 -3.56785 0
M  V30 15811 N 1442.63 1.56409 0.193394 0
M  V30 15812 C 1443.54 1.97886 1.26009 0
M  V30 15813 C 1444.55 0.886786 1.49707 0
M  V30 15814 O 1445.73 1.19267 1.62288 0
M  V30 15815 C 1442.79 2.31145 2.58404 0
M  V30 15816 C 1441.85 3.54069 2.42763 0
M  V30 15817 C 1441.09 3.85732 3.68845 0
M  V30 15818 O 1441.31 3.18662 4.73086 0
M  V30 15819 O 1440.24 4.79155 3.64272 0
M  V30 15820 H 1444.07 2.88849 0.938087 0
M  V30 15821 H 1441.65 1.43987 0.398528 0
M  V30 15822 H 1443.54 2.53606 3.36544 0
M  V30 15823 H 1442.21 1.4335 2.90228 0
M  V30 15824 H 1441.12 3.36854 1.62728 0
M  V30 15825 H 1442.45 4.42335 2.15871 0
M  V30 15826 N 1444.1 -0.461169 1.50702 0
M  V30 15827 C 1445.04 -1.57702 1.64941 0
M  V30 15828 C 1446.01 -1.54808 0.497312 0
M  V30 15829 O 1447.2 -1.74286 0.718104 0
M  V30 15830 C 1444.33 -2.96285 1.64112 0
M  V30 15831 C 1443.37 -3.17296 2.85001 0
M  V30 15832 S 1444.2 -2.96134 4.46167 0
M  V30 15833 C 1445.36 -4.37042 4.48046 0
M  V30 15834 H 1445.59 -1.45386 2.59327 0
M  V30 15835 H 1443.13 -0.649209 1.40088 0
M  V30 15836 H 1445.08 -3.76178 1.64318 0
M  V30 15837 H 1443.75 -3.05983 0.709442 0
M  V30 15838 H 1442.94 -4.18561 2.80754 0
M  V30 15839 H 1442.54 -2.45191 2.82413 0
M  V30 15840 H 1444.83 -5.29846 4.2222 0
M  V30 15841 H 1445.78 -4.4633 5.49723 0
M  V30 15842 H 1446.18 -4.19584 3.77637 0
M  V30 15843 N 1445.58 -1.40446 -0.715026 0
M  V30 15844 C 1446.83 -1.38754 -1.47491 0
M  V30 15845 C 1447.16 0.0099443 -1.94497 0
M  V30 15846 O 1446.41 0.99458 -1.68543 0
M  V30 15847 C 1446.71 -2.32392 -2.7153 0
M  V30 15848 C 1446.38 -3.79635 -2.43286 0
M  V30 15849 C 1445.04 -4.19751 -2.35293 0
M  V30 15850 C 1447.39 -4.72681 -2.19596 0
M  V30 15851 C 1444.72 -5.50947 -2.01679 0
M  V30 15852 C 1447.07 -6.04176 -1.87495 0
M  V30 15853 C 1445.73 -6.43333 -1.77985 0
M  V30 15854 H 1445 -0.507738 -0.539706 0
M  V30 15855 H 1447.65 -1.73104 -0.81898 0
M  V30 15856 H 1445.96 -1.91229 -3.41963 0
M  V30 15857 H 1447.65 -2.28366 -3.29621 0
M  V30 15858 H 1444.24 -3.47852 -2.50393 0
M  V30 15859 H 1448.43 -4.42506 -2.24727 0
M  V30 15860 H 1443.68 -5.80187 -1.92854 0
M  V30 15861 H 1447.86 -6.75788 -1.68179 0
M  V30 15862 H 1445.48 -7.44909 -1.51706 0
M  V30 15863 N 1447.06 0.947303 -1.25952 0
M  V30 15864 C 1448.01 2.04511 -1.06976 0
M  V30 15865 C 1448.98 1.66084 0.023347 0
M  V30 15866 O 1450.16 1.9032 -0.135247 0
M  V30 15867 C 1447.3 3.37878 -0.70232 0
M  V30 15868 C 1446.41 3.89379 -1.87105 0
M  V30 15869 C 1445.55 5.11104 -1.44728 0
M  V30 15870 C 1444.59 5.54852 -2.58469 0
M  V30 15871 N 1443.73 6.67784 -2.16817 0
M  V30 15872 H 1448.57 2.20075 -2.00925 0
M  V30 15873 H 1446.1 1.07837 -1.00048 0
M  V30 15874 H 1448.06 4.14542 -0.470199 0
M  V30 15875 H 1446.69 3.22179 0.20019 0
M  V30 15876 H 1445.74 3.09169 -2.21627 0
M  V30 15877 H 1447.05 4.17789 -2.72496 0
M  V30 15878 H 1446.21 5.95208 -1.17525 0
M  V30 15879 H 1444.95 4.84426 -0.564191 0
M  V30 15880 H 1443.95 4.69308 -2.86409 0
M  V30 15881 H 1445.18 5.83534 -3.47368 0
M  V30 15882 H 1443.12 6.428 -1.30934 0
M  V30 15883 H 1443.04 6.95749 -2.95753 0
M  V30 15884 H 1444.31 7.55278 -1.92809 0
M  V30 15885 N 1448.54 1.07657 1.15099 0
M  V30 15886 C 1449.82 0.714608 1.82079 0
M  V30 15887 C 1450.2 -0.802578 1.95248 0
M  V30 15888 O 1449.54 -1.71818 1.50634 0
M  V30 15889 C 1449.75 1.43264 3.1824 0
M  V30 15890 C 1451.1 1.58675 3.93837 0
M  V30 15891 O 1452.13 1.39367 3.27804 0
M  V30 15892 O 1450.98 1.9047 5.12234 0
M  V30 15893 H 1448.08 0.254645 0.786819 0
M  V30 15894 H 1450.62 1.17768 1.22183 0
M  V30 15895 H 1449.4 2.46655 3.03772 0
M  V30 15896 H 1449.02 0.960546 3.85823 0
M  V30 15897 N 1450.02 -1.31994 0.861122 0
M  V30 15898 C 1451.43 -1.79271 0.521437 0
M  V30 15899 C 1451.78 -1.71046 -0.96113 0
M  V30 15900 O 1450.9 -1.2729 -1.75003 0
M  V30 15901 C 1451.5 -3.25507 0.939731 0
M  V30 15902 C 1450.06 -3.70713 0.651845 0
M  V30 15903 C 1449.2 -2.52967 1.13592 0
M  V30 15904 H 1452.16 -1.19201 1.0477 0
M  V30 15905 H 1452.18 -3.79619 0.258754 0
M  V30 15906 H 1451.69 -3.3146 2.0188 0
M  V30 15907 H 1449.79 -3.70268 -0.416232 0
M  V30 15908 H 1449.9 -4.63236 1.22267 0
M  V30 15909 H 1448.27 -2.48558 0.555971 0
M  V30 15910 H 1449.05 -2.61671 2.22223 0
M  V30 15911 N 1451.49 -0.619688 -1.44906 0
M  V30 15912 C 1452.72 -0.124598 -2.07025 0
M  V30 15913 C 1453.14 1.18698 -1.45919 0
M  V30 15914 O 1452.5 1.72552 -0.556366 0
M  V30 15915 C 1452.55 -0.0112238 -3.60598 0
M  V30 15916 O 1451.65 1.03582 -3.9918 0
M  V30 15917 H 1451 -0.0795631 -0.659216 0
M  V30 15918 H 1453.53 -0.853127 -1.85965 0
M  V30 15919 H 1453.54 0.183079 -4.07589 0
M  V30 15920 H 1452.21 -0.968849 -4.04458 0
M  V30 15921 H 1450.79 0.817008 -3.6384 0
M  V30 15922 N 1452.97 1.53444 -0.359552 0
M  V30 15923 C 1454.22 2.01166 0.232022 0
M  V30 15924 C 1454.55 1.24699 1.49266 0
M  V30 15925 O 1453.8 0.327164 1.92946 0
M  V30 15926 C 1454.1 3.5273 0.575863 0
M  V30 15927 C 1453.77 4.47027 -0.589746 0
M  V30 15928 C 1452.43 4.72525 -0.909587 0
M  V30 15929 C 1454.78 5.02846 -1.37095 0
M  V30 15930 C 1452.11 5.51096 -2.01271 0
M  V30 15931 C 1454.46 5.82622 -2.46444 0
M  V30 15932 C 1453.13 6.06409 -2.7897 0
M  V30 15933 H 1452.4 0.73612 0.084903 0
M  V30 15934 H 1455.04 1.85105 -0.490771 0
M  V30 15935 H 1453.35 3.66708 1.37959 0
M  V30 15936 H 1455.04 3.87125 1.04573 0
M  V30 15937 H 1451.63 4.27324 -0.330418 0
M  V30 15938 H 1455.82 4.83098 -1.1371 0
M  V30 15939 H 1451.07 5.67747 -2.26877 0
M  V30 15940 H 1455.25 6.24884 -3.07398 0
M  V30 15941 H 1452.88 6.67077 -3.64572 0
M  V30 15942 N 1454.45 0.0885642 1.57351 0
M  V30 15943 C 1455.38 -0.869946 2.16689 0
M  V30 15944 C 1456.36 -1.29878 1.09844 0
M  V30 15945 O 1457.55 -1.36684 1.37954 0
M  V30 15946 C 1454.68 -2.13148 2.74199 0
M  V30 15947 C 1453.63 -1.84149 3.86359 0
M  V30 15948 C 1452.96 -3.17075 4.30543 0
M  V30 15949 C 1454.26 -1.13357 5.09851 0
M  V30 15950 H 1455.95 -0.375578 2.97035 0
M  V30 15951 H 1453.5 -0.17921 1.42881 0
M  V30 15952 H 1455.45 -2.80634 3.14361 0
M  V30 15953 H 1454.17 -2.64856 1.91098 0
M  V30 15954 H 1452.83 -1.19063 3.46727 0
M  V30 15955 H 1452.48 -3.66658 3.44342 0
M  V30 15956 H 1452.18 -2.98457 5.06159 0
M  V30 15957 H 1453.7 -3.85731 4.73333 0
M  V30 15958 H 1455.12 -1.70941 5.47222 0
M  V30 15959 H 1453.52 -1.0494 5.90853 0
M  V30 15960 H 1454.59 -0.115273 4.84763 0
M  V30 15961 N 1455.93 -1.56509 -0.185096 0
M  V30 15962 C 1457.18 -1.804 -0.902158 0
M  V30 15963 C 1457.49 -0.663496 -1.84003 0
M  V30 15964 O 1458.7 -0.786963 -2.59844 0
M  V30 15965 C 1457.15 -3.19608 -1.65466 0
M  V30 15966 C 1456.76 -4.41487 -0.761109 0
M  V30 15967 C 1458.5 -3.52801 -2.36076 0
M  V30 15968 C 1456.41 -5.71717 -1.51305 0
M  V30 15969 H 1455.34 -0.67268 -0.340614 0
M  V30 15970 H 1457.99 -1.82842 -0.155273 0
M  V30 15971 H 1456.37 -3.11443 -2.44579 0
M  V30 15972 H 1457.55 -4.60799 -0.00791878 0
M  V30 15973 H 1455.86 -4.16072 -0.165344 0
M  V30 15974 H 1458.46 -4.47339 -2.92902 0
M  V30 15975 H 1458.8 -2.77021 -3.10749 0
M  V30 15976 H 1459.34 -3.62457 -1.63919 0
M  V30 15977 H 1456.08 -6.5049 -0.808907 0
M  V30 15978 H 1455.6 -5.56406 -2.23992 0
M  V30 15979 H 1457.27 -6.13188 -2.0642 0
M  V30 15980 N 1457.41 0.45317 -1.50944 0
M  V30 15981 C 1458.34 1.56678 -1.67287 0
M  V30 15982 C 1459.35 1.53089 -0.553853 0
M  V30 15983 O 1460.54 1.58152 -0.827653 0
M  V30 15984 C 1457.64 2.95585 -1.65779 0
M  V30 15985 C 1456.81 3.2385 -2.94007 0
M  V30 15986 C 1455.87 4.42401 -2.84899 0
M  V30 15987 O 1454.9 4.4183 -3.58853 0
M  V30 15988 N 1456.1 5.4508 -1.99671 0
M  V30 15989 H 1458.87 1.43069 -2.63347 0
M  V30 15990 H 1456.43 0.641875 -1.48632 0
M  V30 15991 H 1458.42 3.7289 -1.57275 0
M  V30 15992 H 1456.99 3.02872 -0.773791 0
M  V30 15993 H 1456.21 2.34991 -3.16501 0
M  V30 15994 H 1457.5 3.39554 -3.7892 0
M  V30 15995 H 1456.89 5.48374 -1.38933 0
M  V30 15996 H 1455.45 6.21298 -1.97057 0
M  V30 15997 N 1458.88 1.40823 0.707568 0
M  V30 15998 C 1459.79 1.44058 1.85161 0
M  V30 15999 C 1460.81 0.332357 1.70796 0
M  V30 16000 O 1461.99 0.578205 1.92922 0
M  V30 16001 C 1459.05 1.3091 3.21035 0
M  V30 16002 C 1458.11 2.51944 3.47595 0
M  V30 16003 C 1457.35 2.39414 4.76987 0
M  V30 16004 O 1457.57 1.41224 5.52641 0
M  V30 16005 O 1456.5 3.28944 5.04063 0
M  V30 16006 H 1460.33 2.40551 1.85388 0
M  V30 16007 H 1457.91 1.22232 0.859052 0
M  V30 16008 H 1459.8 1.25816 4.02179 0
M  V30 16009 H 1458.47 0.375263 3.21517 0
M  V30 16010 H 1457.38 2.62615 2.66428 0
M  V30 16011 H 1458.71 3.44115 3.51917 0
M  V30 16012 N 1460.36 -0.94061 1.26453 0
M  V30 16013 C 1461.33 -2.02096 1.0812 0
M  V30 16014 C 1462.33 -1.60773 0.0293393 0
M  V30 16015 O 1463.52 -1.72051 0.272796 0
M  V30 16016 C 1460.65 -3.34749 0.644646 0
M  V30 16017 H 1461.84 -2.19792 2.04038 0
M  V30 16018 H 1459.39 -1.11965 1.09058 0
M  V30 16019 H 1460.13 -3.22752 -0.316509 0
M  V30 16020 H 1459.91 -3.66095 1.40416 0
M  V30 16021 H 1461.4 -4.14117 0.538233 0
M  V30 16022 N 1461.84 -1.08266 -1.14527 0
M  V30 16023 C 1463.09 -0.811459 -1.85531 0
M  V30 16024 C 1463.42 0.662726 -1.82861 0
M  V30 16025 O 1462.67 1.50296 -1.25338 0
M  V30 16026 C 1462.97 -1.27675 -3.33817 0
M  V30 16027 C 1462.64 -2.7585 -3.56676 0
M  V30 16028 C 1461.3 -3.16319 -3.62623 0
M  V30 16029 C 1463.65 -3.71446 -3.65619 0
M  V30 16030 C 1460.98 -4.51183 -3.75035 0
M  V30 16031 C 1463.33 -5.06083 -3.79556 0
M  V30 16032 C 1461.99 -5.4616 -3.83752 0
M  V30 16033 H 1461.26 -0.296934 -0.678904 0
M  V30 16034 H 1463.91 -1.35533 -1.35288 0
M  V30 16035 H 1462.22 -0.65244 -3.86329 0
M  V30 16036 H 1463.91 -1.04369 -3.8718 0
M  V30 16037 H 1460.5 -2.43526 -3.52694 0
M  V30 16038 H 1464.69 -3.41301 -3.60316 0
M  V30 16039 H 1459.94 -4.81689 -3.76545 0
M  V30 16040 H 1464.12 -5.80022 -3.85418 0
M  V30 16041 H 1461.74 -6.50661 -3.93121 0
M  V30 16042 N 1463.32 1.31536 -0.86811 0
M  V30 16043 C 1464.55 2.00661 -0.491815 0
M  V30 16044 C 1464.96 1.65341 0.919733 0
M  V30 16045 O 1464.3 0.87773 1.61374 0
M  V30 16046 C 1464.36 3.55002 -0.566926 0
M  V30 16047 C 1464.03 4.1379 -1.93976 0
M  V30 16048 C 1465.02 4.31032 -2.90702 0
M  V30 16049 C 1462.71 4.4956 -2.24056 0
M  V30 16050 C 1464.7 4.8323 -4.15653 0
M  V30 16051 C 1462.39 5.01461 -3.49257 0
M  V30 16052 C 1463.39 5.18246 -4.44871 0
M  V30 16053 O 1463.08 5.69033 -5.67852 0
M  V30 16054 H 1462.81 0.648663 -0.190296 0
M  V30 16055 H 1465.36 1.68783 -1.17053 0
M  V30 16056 H 1463.59 3.86332 0.168704 0
M  V30 16057 H 1465.28 4.05385 -0.204323 0
M  V30 16058 H 1466.05 4.03717 -2.6877 0
M  V30 16059 H 1461.93 4.35772 -1.50412 0
M  V30 16060 H 1465.47 4.96247 -4.9029 0
M  V30 16061 H 1461.37 5.28209 -3.71033 0
M  V30 16062 H 1462.13 5.87405 -5.69998 0
M  V30 16063 N 1464.8 0.627364 1.44575 0
M  V30 16064 C 1465.75 -0.0920488 2.32418 0
M  V30 16065 C 1466.74 -0.839633 1.47128 0
M  V30 16066 O 1467.95 -0.752958 1.63495 0
M  V30 16067 H 1464.32 -0.0485336 0.750432 0
M  V30 16068 H 1466.29 0.666959 2.90851 0
M  V30 16069 C 1465.04 -1.06262 3.31064 0
M  V30 16070 H 1464.36 -0.4968 3.96701 0
M  V30 16071 H 1465.8 -1.53556 3.95217 0
M  V30 16072 C 1464.26 -2.14601 2.59707 0
M  V30 16073 O 1464.79 -3.2263 2.39317 0
M  V30 16074 N 1463 -1.90431 2.19509 0
M  V30 16075 H 1462.55 -1.02584 2.36293 0
M  V30 16076 H 1462.5 -2.6312 1.72091 0
M  V30 16077 N 1466.28 -1.53251 0.367684 0
M  V30 16078 C 1467.21 -2.22163 -0.521418 0
M  V30 16079 C 1468.19 -1.21433 -1.08133 0
M  V30 16080 O 1469.37 -1.50343 -1.13706 0
M  V30 16081 C 1466.5 -2.91799 -1.71962 0
M  V30 16082 C 1465.54 -4.0662 -1.28696 0
M  V30 16083 S 1466.38 -5.34733 -0.286505 0
M  V30 16084 C 1467.53 -6.07882 -1.49099 0
M  V30 16085 H 1467.77 -2.97231 0.0638317 0
M  V30 16086 H 1465.3 -1.53652 0.151795 0
M  V30 16087 H 1467.26 -3.32533 -2.40691 0
M  V30 16088 H 1465.92 -2.16451 -2.27613 0
M  V30 16089 H 1465.11 -4.54366 -2.181 0
M  V30 16090 H 1464.71 -3.67787 -0.67887 0
M  V30 16091 H 1467 -6.32741 -2.42167 0
M  V30 16092 H 1467.95 -7.00199 -1.05487 0
M  V30 16093 H 1468.36 -5.38357 -1.698 0
M  V30 16094 N 1467.75 -0.0969077 -1.57302 0
M  V30 16095 C 1468.7 0.872039 -2.10664 0
M  V30 16096 C 1469.69 1.24265 -1.02211 0
M  V30 16097 O 1470.88 1.21743 -1.28482 0
M  V30 16098 C 1468.01 2.13042 -2.69199 0
M  V30 16099 C 1467.09 1.78517 -3.84698 0
M  V30 16100 N 1467.49 1.14558 -4.92656 0
M  V30 16101 C 1465.78 2.08115 -3.94467 0
M  V30 16102 C 1466.48 0.986837 -5.73268 0
M  V30 16103 N 1465.46 1.50473 -5.22359 0
M  V30 16104 H 1469.26 0.373625 -2.91515 0
M  V30 16105 H 1466.78 0.10625 -1.62052 0
M  V30 16106 H 1468.77 2.83403 -3.05759 0
M  V30 16107 H 1467.43 2.63448 -1.89803 0
M  V30 16108 H 1468.44 0.812179 -5.11492 0
M  V30 16109 H 1465.12 2.60722 -3.26083 0
M  V30 16110 H 1466.51 0.48651 -6.70136 0
M  V30 16111 N 1469.23 1.56605 0.176793 0
M  V30 16112 C 1470.46 1.85812 0.910019 0
M  V30 16113 C 1470.87 0.68164 1.76066 0
M  V30 16114 O 1470.23 -0.34936 1.79125 0
M  V30 16115 C 1470.28 3.14001 1.79125 0
M  V30 16116 O 1470 4.27114 0.974931 0
M  V30 16117 C 1471.5 3.56516 2.6346 0
M  V30 16118 H 1468.72 0.616608 0.264643 0
M  V30 16119 H 1471.27 2.03719 0.178537 0
M  V30 16120 H 1469.42 2.97937 2.47613 0
M  V30 16121 H 1469.84 5.00227 1.57711 0
M  V30 16122 H 1471.31 4.49128 3.20918 0
M  V30 16123 H 1471.79 2.80373 3.38065 0
M  V30 16124 H 1472.39 3.75173 2.00313 0
M  V30 16125 N 1470.71 -0.445159 1.51182 0
M  V30 16126 C 1471.96 -1.19701 1.63705 0
M  V30 16127 C 1472.29 -1.91047 0.348511 0
M  V30 16128 O 1471.56 -1.83264 -0.651497 0
M  V30 16129 C 1471.85 -2.22021 2.83511 0
M  V30 16130 C 1471.7 -1.54809 4.2232 0
M  V30 16131 C 1473.02 -3.23083 2.9884 0
M  V30 16132 H 1470.14 -0.433818 0.595795 0
M  V30 16133 H 1472.78 -0.487276 1.83645 0
M  V30 16134 H 1470.93 -2.82551 2.66641 0
M  V30 16135 H 1472.6 -0.976774 4.5084 0
M  V30 16136 H 1470.84 -0.850596 4.25379 0
M  V30 16137 H 1471.52 -2.29289 5.02126 0
M  V30 16138 H 1473.99 -2.72601 3.14369 0
M  V30 16139 H 1472.87 -3.91978 3.84246 0
M  V30 16140 H 1473.13 -3.88732 2.1057 0
M  V30 16141 N 1472.19 -1.41197 -0.700089 0
M  V30 16142 C 1473.44 -1.39611 -1.45574 0
M  V30 16143 C 1473.75 -0.00683378 -1.95599 0
M  V30 16144 O 1474.96 0.131643 -2.71181 0
M  V30 16145 C 1473.41 -2.45452 -2.63214 0
M  V30 16146 C 1473.02 -3.90265 -2.19993 0
M  V30 16147 C 1474.76 -2.52996 -3.40871 0
M  V30 16148 C 1472.67 -4.87668 -3.34565 0
M  V30 16149 H 1471.6 -0.51917 -0.546789 0
M  V30 16150 H 1474.25 -1.67001 -0.760456 0
M  V30 16151 H 1472.63 -2.11186 -3.34987 0
M  V30 16152 H 1473.81 -4.33756 -1.55539 0
M  V30 16153 H 1472.12 -3.86339 -1.55341 0
M  V30 16154 H 1474.72 -3.22952 -4.26153 0
M  V30 16155 H 1475.06 -1.56536 -3.85749 0
M  V30 16156 H 1475.6 -2.86331 -2.76151 0
M  V30 16157 H 1472.33 -5.85517 -2.94704 0
M  V30 16158 H 1471.85 -4.4883 -3.97884 0
M  V30 16159 H 1473.53 -5.08215 -4.00409 0
M  V30 16160 N 1473.67 0.933891 -1.2695 0
M  V30 16161 C 1474.61 2.05498 -1.08964 0
M  V30 16162 C 1475.61 1.69394 -0.0144837 0
M  V30 16163 O 1476.81 1.79179 -0.171729 0
M  V30 16164 H 1473.19 0.672978 -0.335566 0
M  V30 16165 H 1475.16 2.17817 -2.03957 0
M  V30 16166 C 1473.91 3.39579 -0.747074 0
M  V30 16167 H 1473.23 3.67842 -1.56628 0
M  V30 16168 H 1474.67 4.18815 -0.661064 0
M  V30 16169 C 1473.13 3.3241 0.548214 0
M  V30 16170 O 1473.66 3.69132 1.58443 0
M  V30 16171 N 1471.87 2.85509 0.541545 0
M  V30 16172 H 1471.41 2.55822 -0.302112 0
M  V30 16173 H 1471.37 2.81095 1.4083 0
M  V30 16174 N 1475.14 1.08871 1.13951 0
M  V30 16175 C 1476.37 0.841691 1.88677 0
M  V30 16176 C 1476.78 -0.610213 1.79089 0
M  V30 16177 O 1476.12 -1.4314 1.15138 0
M  V30 16178 C 1476.19 1.19077 3.39206 0
M  V30 16179 C 1475.85 2.64642 3.72577 0
M  V30 16180 C 1476.85 3.62892 3.72297 0
M  V30 16181 C 1474.53 3.00618 4.0241 0
M  V30 16182 C 1476.53 4.95148 4.01382 0
M  V30 16183 C 1474.21 4.33066 4.31158 0
M  V30 16184 C 1475.21 5.3014 4.30628 0
M  V30 16185 O 1474.9 6.60207 4.58675 0
M  V30 16186 H 1474.63 0.302896 0.604343 0
M  V30 16187 H 1477.19 1.4527 1.45209 0
M  V30 16188 H 1475.42 0.522784 3.8315 0
M  V30 16189 H 1477.1 0.923805 3.95248 0
M  V30 16190 H 1477.87 3.36442 3.4933 0
M  V30 16191 H 1473.75 2.25696 4.01973 0
M  V30 16192 H 1477.29 5.7091 4.00884 0
M  V30 16193 H 1473.19 4.59262 4.53595 0
M  V30 16194 H 1473.96 6.65593 4.7637 0
M  V30 16195 N 1476.62 -1.31073 0.875073 0
M  V30 16196 C 1477.87 -1.9613 0.487584 0
M  V30 16197 C 1478.19 -1.69482 -0.964407 0
M  V30 16198 O 1477.46 -1.013 -1.67676 0
M  V30 16199 H 1476.04 -0.725649 0.177319 0
M  V30 16200 H 1478.7 -1.59787 1.11598 0
M  V30 16201 H 1477.8 -3.05265 0.649574 0
M  V30 16202 N 1478.1 -0.635022 -1.4424 0
M  V30 16203 C 1479.03 0.0543561 -2.33437 0
M  V30 16204 C 1480.01 0.830807 -1.48431 0
M  V30 16205 O 1481.2 0.795913 -1.77141 0
M  V30 16206 C 1478.33 1.03391 -3.31553 0
M  V30 16207 C 1477.28 0.368824 -4.26408 0
M  V30 16208 C 1476.61 1.45855 -5.14422 0
M  V30 16209 C 1477.91 -0.727381 -5.1721 0
M  V30 16210 H 1479.6 -0.690489 -2.91329 0
M  V30 16211 H 1477.15 -0.3335 -1.40085 0
M  V30 16212 H 1479.1 1.52495 -3.9284 0
M  V30 16213 H 1477.82 1.80969 -2.71878 0
M  V30 16214 H 1476.48 -0.101605 -3.66459 0
M  V30 16215 H 1476.13 2.22531 -4.51098 0
M  V30 16216 H 1475.83 1.0189 -5.78699 0
M  V30 16217 H 1477.35 1.95132 -5.78581 0
M  V30 16218 H 1478.77 -0.319272 -5.7241 0
M  V30 16219 H 1477.17 -1.09041 -5.9011 0
M  V30 16220 H 1478.24 -1.59292 -4.57989 0
M  V30 16221 N 1479.58 1.53054 -0.375806 0
M  V30 16222 C 1480.49 2.29772 0.47349 0
M  V30 16223 C 1481.5 1.36144 1.08355 0
M  V30 16224 O 1482.68 1.69208 1.09228 0
M  V30 16225 C 1479.75 3.07964 1.59245 0
M  V30 16226 C 1478.81 4.17277 1.00888 0
M  V30 16227 C 1478.04 4.91731 2.07451 0
M  V30 16228 O 1478.26 4.66143 3.28736 0
M  V30 16229 O 1477.2 5.77413 1.69936 0
M  V30 16230 H 1481.02 3.03324 -0.151105 0
M  V30 16231 H 1478.61 1.48744 -0.139895 0
M  V30 16232 H 1480.49 3.56759 2.24279 0
M  V30 16233 H 1479.16 2.37239 2.20226 0
M  V30 16234 H 1478.07 3.7271 0.322167 0
M  V30 16235 H 1479.4 4.90198 0.443483 0
M  V30 16236 N 1481.06 0.105248 1.57248 0
M  V30 16237 C 1482.33 -0.598871 1.86207 0
M  V30 16238 C 1482.71 -1.85698 1.00396 0
M  V30 16239 O 1482.06 -2.28363 0.0791093 0
M  V30 16240 C 1482.27 -0.904522 3.37075 0
M  V30 16241 C 1483.62 -1.26357 4.05363 0
M  V30 16242 O 1484.64 -0.99522 3.42014 0
M  V30 16243 O 1483.5 -1.76659 5.17159 0
M  V30 16244 H 1480.6 -0.300727 0.770384 0
M  V30 16245 H 1483.14 0.138713 1.69132 0
M  V30 16246 H 1481.91 -0.0123974 3.91298 0
M  V30 16247 H 1481.54 -1.69774 3.59531 0
M  V30 16248 N 1482.53 -1.56697 -0.168486 0
M  V30 16249 C 1483.76 -1.86022 -0.898847 0
M  V30 16250 C 1484.17 -0.688909 -1.76212 0
M  V30 16251 O 1483.52 0.35111 -1.80313 0
M  V30 16252 C 1483.58 -3.09795 -1.82394 0
M  V30 16253 C 1483.24 -4.42553 -1.13999 0
M  V30 16254 C 1484.24 -5.1745 -0.504092 0
M  V30 16255 C 1481.92 -4.89288 -1.1359 0
M  V30 16256 C 1483.92 -6.37274 0.126758 0
M  V30 16257 C 1481.6 -6.09041 -0.501222 0
M  V30 16258 C 1482.6 -6.82878 0.128998 0
M  V30 16259 O 1482.29 -8.00359 0.753658 0
M  V30 16260 H 1482.02 -0.621283 -0.266426 0
M  V30 16261 H 1484.58 -2.04674 -0.172562 0
M  V30 16262 H 1482.81 -2.87096 -2.59061 0
M  V30 16263 H 1484.5 -3.25544 -2.42438 0
M  V30 16264 H 1485.26 -4.82424 -0.499207 0
M  V30 16265 H 1481.14 -4.31754 -1.61584 0
M  V30 16266 H 1484.68 -6.94846 0.619267 0
M  V30 16267 H 1480.58 -6.43532 -0.5037 0
M  V30 16268 H 1481.35 -8.1589 0.653188 0
M  V30 16269 N 1484.01 0.437135 -1.51416 0
M  V30 16270 C 1485.26 1.18655 -1.64095 0
M  V30 16271 C 1485.59 1.9119 -0.35728 0
M  V30 16272 O 1484.84 1.84283 0.658644 0
M  V30 16273 C 1485.14 2.22795 -2.79458 0
M  V30 16274 C 1484.81 1.67271 -4.18726 0
M  V30 16275 C 1483.47 1.51852 -4.56612 0
M  V30 16276 C 1485.82 1.26448 -5.05629 0
M  V30 16277 C 1483.15 0.940834 -5.79107 0
M  V30 16278 C 1485.5 0.701095 -6.28703 0
M  V30 16279 C 1484.17 0.533801 -6.65362 0
M  V30 16280 H 1483.44 0.434191 -0.600466 0
M  V30 16281 H 1486.08 0.477592 -1.85449 0
M  V30 16282 H 1484.39 2.99731 -2.52327 0
M  V30 16283 H 1486.08 2.80602 -2.86467 0
M  V30 16284 H 1482.67 1.80249 -3.88855 0
M  V30 16285 H 1486.86 1.37182 -4.76964 0
M  V30 16286 H 1482.11 0.798982 -6.06157 0
M  V30 16287 H 1486.29 0.37626 -6.95383 0
M  V30 16288 H 1483.92 0.0840431 -7.60154 0
M  V30 16289 N 1485.49 1.41566 0.692592 0
M  V30 16290 C 1486.73 1.42554 1.46485 0
M  V30 16291 C 1487.09 0.0341685 1.9197 0
M  V30 16292 O 1488.3 -0.0811732 2.68677 0
M  V30 16293 C 1486.57 2.40673 2.64218 0
M  V30 16294 S 1488.13 2.60215 3.53318 0
M  V30 16295 H 1484.94 0.50496 0.500537 0
M  V30 16296 H 1487.55 1.78027 0.807867 0
M  V30 16297 H 1486.25 3.40561 2.29012 0
M  V30 16298 H 1485.78 2.06562 3.34807 0
M  V30 16299 H 1487.8 1.87179 4.59542 0
M  V30 16300 N 1486.97 -0.927146 1.27443 0
M  V30 16301 C 1487.92 -2.04917 1.10053 0
M  V30 16302 C 1488.91 -1.69384 0.0234668 0
M  V30 16303 O 1490.12 -1.79085 0.181228 0
M  V30 16304 H 1486.49 -0.671189 0.33913 0
M  V30 16305 H 1488.46 -2.16732 2.05109 0
M  V30 16306 C 1487.21 -3.39178 0.765072 0
M  V30 16307 H 1486.53 -3.67006 1.58577 0
M  V30 16308 H 1487.97 -4.18458 0.683266 0
M  V30 16309 C 1486.43 -3.32696 -0.530578 0
M  V30 16310 O 1486.96 -3.69967 -1.56484 0
M  V30 16311 N 1485.17 -2.85793 -0.526396 0
M  V30 16312 H 1484.72 -2.55658 0.315675 0
M  V30 16313 H 1484.67 -2.81838 -1.39337 0
M  V30 16314 N 1488.45 -1.09474 -1.13372 0
M  V30 16315 C 1489.38 -0.756441 -2.20908 0
M  V30 16316 C 1490.36 0.266113 -1.68006 0
M  V30 16317 O 1491.54 0.134067 -1.93737 0
M  V30 16318 C 1488.67 -0.176733 -3.4685 0
M  V30 16319 C 1487.63 -1.12886 -4.12845 0
M  V30 16320 C 1486.95 -0.410831 -5.33119 0
M  V30 16321 C 1488.25 -2.47148 -4.60125 0
M  V30 16322 H 1489.95 -1.65555 -2.49463 0
M  V30 16323 H 1487.49 -0.797458 -1.19902 0
M  V30 16324 H 1489.45 0.0720151 -4.21338 0
M  V30 16325 H 1488.17 0.757576 -3.17692 0
M  V30 16326 H 1486.83 -1.36289 -3.40325 0
M  V30 16327 H 1486.48 0.527632 -5.00225 0
M  V30 16328 H 1486.18 -1.04567 -5.78221 0
M  V30 16329 H 1487.7 -0.170394 -6.10362 0
M  V30 16330 H 1489.11 -2.27949 -5.26034 0
M  V30 16331 H 1487.51 -3.06425 -5.15969 0
M  V30 16332 H 1488.58 -3.07874 -3.74622 0
M  V30 16333 N 1489.92 1.30607 -0.882012 0
M  V30 16334 C 1491.17 1.95531 -0.495038 0
M  V30 16335 C 1491.49 1.70418 0.96005 0
M  V30 16336 O 1492.69 2.29301 1.45373 0
M  V30 16337 C 1491.15 3.50094 -0.834382 0
M  V30 16338 C 1490.76 3.84031 -2.30704 0
M  V30 16339 C 1492.5 4.21347 -0.516463 0
M  V30 16340 C 1490.41 5.31759 -2.58817 0
M  V30 16341 H 1489.34 0.731854 -0.181399 0
M  V30 16342 H 1491.99 1.486 -1.07658 0
M  V30 16343 H 1490.37 3.95582 -0.181961 0
M  V30 16344 H 1491.54 3.49463 -3.00353 0
M  V30 16345 H 1489.86 3.25874 -2.5922 0
M  V30 16346 H 1492.46 5.30051 -0.703576 0
M  V30 16347 H 1492.8 4.12731 0.543935 0
M  V30 16348 H 1493.33 3.81533 -1.12595 0
M  V30 16349 H 1490.07 5.45422 -3.63586 0
M  V30 16350 H 1489.59 5.67637 -1.93774 0
M  V30 16351 H 1491.27 5.9916 -2.44165 0
M  V30 16352 N 1491.4 0.642663 1.43901 0
M  V30 16353 C 1492.31 -0.0562462 2.34533 0
M  V30 16354 C 1493.33 -0.823457 1.53281 0
M  V30 16355 O 1494.5 -0.773103 1.85971 0
M  V30 16356 C 1491.57 -1.01787 3.31422 0
M  V30 16357 C 1490.63 -0.248759 4.28579 0
M  V30 16358 C 1489.86 -1.16458 5.20839 0
M  V30 16359 O 1490.09 -2.40361 5.17284 0
M  V30 16360 O 1489.02 -0.642671 5.98459 0
M  V30 16361 H 1492.85 0.689476 2.9577 0
M  V30 16362 H 1490.43 0.402847 1.43866 0
M  V30 16363 H 1492.31 -1.5708 3.91029 0
M  V30 16364 H 1490.99 -1.744 2.72702 0
M  V30 16365 H 1489.9 0.347495 3.72483 0
M  V30 16366 H 1491.23 0.437589 4.90251 0
M  V30 16367 N 1492.88 -1.52852 0.383918 0
M  V30 16368 C 1493.83 -2.26294 -0.453826 0
M  V30 16369 C 1494.8 -1.27688 -1.0623 0
M  V30 16370 O 1495.98 -1.56507 -1.09134 0
M  V30 16371 C 1493.12 -3.06907 -1.57803 0
M  V30 16372 C 1492.24 -4.20434 -0.992943 0
M  V30 16373 C 1491.37 -4.88453 -2.08776 0
M  V30 16374 C 1490.41 -5.93981 -1.47828 0
M  V30 16375 N 1489.55 -6.55617 -2.51218 0
M  V30 16376 H 1494.39 -2.97462 0.178927 0
M  V30 16377 H 1491.92 -1.46759 0.100066 0
M  V30 16378 H 1493.88 -3.51933 -2.24052 0
M  V30 16379 H 1492.51 -2.37959 -2.18118 0
M  V30 16380 H 1491.56 -3.79762 -0.22021 0
M  V30 16381 H 1492.88 -4.96211 -0.507504 0
M  V30 16382 H 1492.03 -5.36755 -2.82806 0
M  V30 16383 H 1490.77 -4.12187 -2.60678 0
M  V30 16384 H 1489.77 -5.45023 -0.723202 0
M  V30 16385 H 1491 -6.72176 -0.967278 0
M  V30 16386 H 1488.95 -5.82195 -3.02299 0
M  V30 16387 H 1488.86 -7.26991 -2.07414 0
M  V30 16388 H 1490.13 -7.08564 -3.24895 0
M  V30 16389 N 1494.36 -0.113586 -1.5719 0
M  V30 16390 C 1495.32 0.824258 -2.13866 0
M  V30 16391 C 1496.32 1.19831 -1.07224 0
M  V30 16392 O 1497.51 1.12471 -1.33026 0
M  V30 16393 C 1494.64 2.11391 -2.67445 0
M  V30 16394 H 1495.84 0.331803 -2.98059 0
M  V30 16395 H 1493.39 0.135599 -1.55711 0
M  V30 16396 H 1494.13 2.65079 -1.86824 0
M  V30 16397 H 1493.91 1.85523 -3.45433 0
M  V30 16398 H 1495.4 2.78443 -3.11222 0
M  V30 16399 N 1495.84 1.56784 0.160173 0
M  V30 16400 C 1497.09 1.81812 0.873344 0
M  V30 16401 C 1497.4 0.692686 1.82924 0
M  V30 16402 O 1498.61 0.828202 2.5856 0
M  V30 16403 C 1497.06 3.222 1.6036 0
M  V30 16404 C 1496.67 4.42642 0.690776 0
M  V30 16405 C 1498.41 3.56512 2.30433 0
M  V30 16406 C 1496.32 5.74052 1.4219 0
M  V30 16407 H 1495.25 0.678013 0.32987 0
M  V30 16408 H 1497.9 1.83066 0.126164 0
M  V30 16409 H 1496.28 3.15295 2.39593 0
M  V30 16410 H 1497.46 4.60754 -0.0653914 0
M  V30 16411 H 1495.77 4.16282 0.09913 0
M  V30 16412 H 1498.37 4.51942 2.85749 0
M  V30 16413 H 1498.71 2.8193 3.06303 0
M  V30 16414 H 1499.25 3.65019 1.58132 0
M  V30 16415 H 1495.98 6.51694 0.705318 0
M  V30 16416 H 1495.5 5.59899 2.15111 0
M  V30 16417 H 1497.18 6.16395 1.96639 0
M  V30 16418 N 1497.32 -0.429099 1.51646 0
M  V30 16419 C 1498.59 -1.18958 1.55269 0
M  V30 16420 C 1498.97 -2.08633 0.321816 0
M  V30 16421 O 1498.32 -2.1775 -0.69261 0
M  V30 16422 C 1498.53 -1.98427 2.87102 0
M  V30 16423 C 1499.88 -2.55185 3.39361 0
M  V30 16424 O 1500.9 -2.08629 2.88708 0
M  V30 16425 O 1499.76 -3.40119 4.27763 0
M  V30 16426 H 1496.86 -0.542041 0.624596 0
M  V30 16427 H 1499.4 -0.437499 1.63964 0
M  V30 16428 H 1498.17 -1.32613 3.68143 0
M  V30 16429 H 1497.8 -2.80683 2.81608 0
M  V30 16430 N 1498.79 -1.41931 -0.685074 0
M  V30 16431 C 1500.02 -1.45018 -1.4715 0
M  V30 16432 C 1500.43 -0.0569412 -1.89114 0
M  V30 16433 O 1499.77 0.936419 -1.58041 0
M  V30 16434 C 1499.84 -2.30522 -2.75862 0
M  V30 16435 C 1499.5 -3.78542 -2.56037 0
M  V30 16436 C 1500.5 -4.70448 -2.21303 0
M  V30 16437 C 1498.18 -4.22698 -2.71351 0
M  V30 16438 C 1500.18 -6.045 -2.02135 0
M  V30 16439 C 1497.86 -5.56812 -2.518 0
M  V30 16440 C 1498.86 -6.47529 -2.17244 0
M  V30 16441 O 1498.55 -7.79167 -1.97872 0
M  V30 16442 H 1498.28 -0.495682 -0.459647 0
M  V30 16443 H 1500.84 -1.86983 -0.850079 0
M  V30 16444 H 1499.07 -1.83389 -3.40449 0
M  V30 16445 H 1500.75 -2.25186 -3.37707 0
M  V30 16446 H 1501.52 -4.37621 -2.09077 0
M  V30 16447 H 1497.4 -3.52385 -2.9723 0
M  V30 16448 H 1500.94 -6.75271 -1.75086 0
M  V30 16449 H 1496.84 -5.89216 -2.6362 0
M  V30 16450 H 1497.61 -7.9042 -2.12552 0
M  V30 16451 N 1500.27 0.920374 -1.27933 0
M  V30 16452 C 1501.22 2.02196 -1.1129 0
M  V30 16453 C 1502.19 1.66096 -0.0118871 0
M  V30 16454 O 1503.37 1.8999 -0.175586 0
M  V30 16455 C 1500.51 3.36312 -0.77383 0
M  V30 16456 C 1499.63 3.85322 -1.95322 0
M  V30 16457 C 1498.76 5.07919 -1.55537 0
M  V30 16458 C 1497.8 5.49244 -2.7018 0
M  V30 16459 N 1496.94 6.63034 -2.30933 0
M  V30 16460 H 1501.78 2.15764 -2.05548 0
M  V30 16461 H 1499.31 1.05691 -1.02312 0
M  V30 16462 H 1501.27 4.13451 -0.558024 0
M  V30 16463 H 1499.9 3.22531 0.131806 0
M  V30 16464 H 1498.95 3.04399 -2.28135 0
M  V30 16465 H 1500.27 4.11915 -2.81296 0
M  V30 16466 H 1499.42 5.92581 -1.30123 0
M  V30 16467 H 1498.16 4.8312 -0.666818 0
M  V30 16468 H 1497.16 4.63127 -2.96299 0
M  V30 16469 H 1498.39 5.76035 -3.59667 0
M  V30 16470 H 1496.34 6.39878 -1.44539 0
M  V30 16471 H 1496.25 6.89319 -3.10444 0
M  V30 16472 H 1497.52 7.51018 -2.08786 0
M  V30 16473 N 1501.75 1.10074 1.1279 0
M  V30 16474 C 1502.7 0.740977 2.20482 0
M  V30 16475 C 1503.69 -0.261163 1.67375 0
M  V30 16476 O 1504.9 -0.121923 1.79587 0
M  V30 16477 H 1501.27 0.221666 0.718588 0
M  V30 16478 H 1503.24 1.65823 2.48083 0
M  V30 16479 C 1501.99 0.184934 3.47208 0
M  V30 16480 H 1501.32 0.947278 3.88416 0
M  V30 16481 H 1502.76 -0.0287769 4.2399 0
M  V30 16482 C 1501.21 -1.08145 3.19071 0
M  V30 16483 O 1501.74 -2.1636 3.38454 0
M  V30 16484 N 1499.95 -0.998609 2.72903 0
M  V30 16485 H 1499.5 -0.117906 2.5733 0
M  V30 16486 H 1499.46 -1.84664 2.54453 0
M  V30 16487 N 1503.23 -1.30138 0.888926 0
M  V30 16488 C 1504.17 -2.28023 0.356923 0
M  V30 16489 C 1505.14 -1.56551 -0.555066 0
M  V30 16490 O 1506.33 -1.84595 -0.482633 0
M  V30 16491 C 1503.47 -3.42546 -0.419056 0
M  V30 16492 C 1502.58 -4.28827 0.5226 0
M  V30 16493 C 1501.72 -5.30517 -0.269366 0
M  V30 16494 C 1500.76 -6.08449 0.667507 0
M  V30 16495 N 1499.89 -7.02043 -0.08938 0
M  V30 16496 H 1504.73 -2.72912 1.19678 0
M  V30 16497 H 1502.27 -1.34239 0.60152 0
M  V30 16498 H 1504.23 -4.07707 -0.884911 0
M  V30 16499 H 1502.86 -2.98716 -1.22346 0
M  V30 16500 H 1501.91 -3.63938 1.10695 0
M  V30 16501 H 1503.22 -4.83136 1.24018 0
M  V30 16502 H 1502.38 -6.01444 -0.796901 0
M  V30 16503 H 1501.12 -4.76911 -1.02014 0
M  V30 16504 H 1500.12 -5.36396 1.20664 0
M  V30 16505 H 1501.35 -6.64143 1.41744 0
M  V30 16506 H 1499.29 -6.50822 -0.822622 0
M  V30 16507 H 1499.21 -7.53859 0.568499 0
M  V30 16508 H 1500.48 -7.77206 -0.597529 0
M  V30 16509 N 1504.71 -0.650285 -1.43559 0
M  V30 16510 C 1505.95 -0.162164 -2.01448 0
M  V30 16511 C 1506.27 1.22717 -1.51544 0
M  V30 16512 O 1505.54 1.81917 -0.726855 0
M  V30 16513 H 1504.12 -0.0569599 -0.744825 0
M  V30 16514 H 1506.79 -0.841294 -1.75807 0
M  V30 16515 H 1505.88 -0.144531 -3.11765 0
M  V30 16516 N 1506.18 1.52647 -0.392018 0
M  V30 16517 C 1507.12 2.24183 0.476934 0
M  V30 16518 C 1508.13 1.26526 1.02446 0
M  V30 16519 O 1509.32 1.52583 0.92632 0
M  V30 16520 C 1506.42 2.94672 1.67397 0
M  V30 16521 C 1505.59 4.19058 1.25335 0
M  V30 16522 C 1504.65 4.72522 2.31537 0
M  V30 16523 O 1503.68 5.35541 1.92833 0
M  V30 16524 N 1504.88 4.52613 3.63486 0
M  V30 16525 H 1507.64 2.99391 -0.135963 0
M  V30 16526 H 1505.2 1.60419 -0.218514 0
M  V30 16527 H 1507.2 3.27338 2.37975 0
M  V30 16528 H 1505.77 2.22755 2.19315 0
M  V30 16529 H 1504.99 3.92399 0.376352 0
M  V30 16530 H 1506.27 4.99871 0.94901 0
M  V30 16531 H 1505.67 4.02316 3.97692 0
M  V30 16532 H 1504.23 4.89761 4.3009 0
M  V30 16533 N 1507.66 0.121921 1.57128 0
M  V30 16534 C 1508.61 -0.827205 2.15467 0
M  V30 16535 C 1509.58 -1.26155 1.08047 0
M  V30 16536 O 1510.76 -1.33855 1.35969 0
M  V30 16537 C 1507.9 -2.07077 2.76067 0
M  V30 16538 C 1507.02 -1.68452 3.97804 0
M  V30 16539 C 1506.15 -2.87797 4.46482 0
M  V30 16540 C 1505.19 -2.45426 5.60743 0
M  V30 16541 N 1504.33 -3.57695 6.04151 0
M  V30 16542 H 1509.17 -0.322879 2.96246 0
M  V30 16543 H 1506.71 -0.147677 1.46357 0
M  V30 16544 H 1508.66 -2.79943 3.09335 0
M  V30 16545 H 1507.29 -2.54963 1.97974 0
M  V30 16546 H 1506.35 -0.854487 3.70679 0
M  V30 16547 H 1507.66 -1.33316 4.80654 0
M  V30 16548 H 1506.81 -3.68885 4.81673 0
M  V30 16549 H 1505.55 -3.26162 3.62587 0
M  V30 16550 H 1504.56 -1.62772 5.25153 0
M  V30 16551 H 1505.78 -2.08175 6.46405 0
M  V30 16552 H 1503.73 -3.95728 5.23197 0
M  V30 16553 H 1503.64 -3.26491 6.81865 0
M  V30 16554 H 1504.91 -4.39213 6.43981 0
M  V30 16555 N 1509.14 -1.56867 -0.151857 0
M  V30 16556 C 1510.56 -1.51422 -0.504328 0
M  V30 16557 C 1510.76 -0.829524 -1.83633 0
M  V30 16558 O 1509.81 -0.398018 -2.49343 0
M  V30 16559 C 1511.13 -2.96185 -0.519117 0
M  V30 16560 C 1512.67 -3.07098 -0.60497 0
M  V30 16561 C 1513.15 -4.53357 -0.650468 0
M  V30 16562 N 1514.64 -4.57682 -0.712825 0
M  V30 16563 C 1515.37 -5.68221 -0.768931 0
M  V30 16564 N 1514.87 -6.88342 -0.784678 0
M  V30 16565 N 1516.66 -5.56241 -0.809441 0
M  V30 16566 H 1508.81 -1.99777 0.721316 0
M  V30 16567 H 1511.08 -0.910951 0.262436 0
M  V30 16568 H 1510.78 -3.49516 0.391315 0
M  V30 16569 H 1510.66 -3.51877 -1.35876 0
M  V30 16570 H 1513.04 -2.53789 -1.50582 0
M  V30 16571 H 1513.13 -2.54458 0.261722 0
M  V30 16572 H 1512.77 -5.07303 0.246207 0
M  V30 16573 H 1512.7 -5.03775 -1.53358 0
M  V30 16574 H 1515.19 -3.71206 -0.708151 0
M  V30 16575 H 1515.5 -7.68339 -0.829202 0
M  V30 16576 H 1513.85 -6.90913 -0.752634 0
M  V30 16577 H 1517.04 -4.61312 -0.794274 0
M  V30 16578 H 1517.21 -6.42405 -0.849701 0
M  V30 16579 N 1510.62 0.421051 -1.51871 0
M  V30 16580 C 1512.03 0.758781 -1.40409 0
M  V30 16581 C 1512.23 1.95219 -0.499197 0
M  V30 16582 O 1511.29 2.52469 0.0395216 0
M  V30 16583 C 1512.6 1.02388 -2.82731 0
M  V30 16584 C 1514.15 1.12733 -2.91994 0
M  V30 16585 C 1514.63 1.42527 -4.35259 0
M  V30 16586 N 1516.12 1.49417 -4.38439 0
M  V30 16587 C 1516.85 1.74074 -5.46339 0
M  V30 16588 N 1516.35 1.96414 -6.64375 0
M  V30 16589 N 1518.14 1.7599 -5.33839 0
M  V30 16590 H 1510.29 -0.364682 -2.09246 0
M  V30 16591 H 1512.56 -0.100819 -0.942624 0
M  V30 16592 H 1512.26 0.219491 -3.51014 0
M  V30 16593 H 1512.14 1.94724 -3.23052 0
M  V30 16594 H 1514.52 1.92233 -2.23899 0
M  V30 16595 H 1514.6 0.182611 -2.55147 0
M  V30 16596 H 1514.25 0.635486 -5.03909 0
M  V30 16597 H 1514.18 2.38231 -4.69631 0
M  V30 16598 H 1516.67 1.3399 -3.53348 0
M  V30 16599 H 1516.98 2.14644 -7.42393 0
M  V30 16600 H 1515.33 1.93702 -6.67461 0
M  V30 16601 H 1518.52 1.58067 -4.40605 0
M  V30 16602 H 1518.69 1.94868 -6.18005 0
M  V30 16603 N 1512.1 1.42293 0.677538 0
M  V30 16604 C 1513.35 1.41909 1.43334 0
M  V30 16605 C 1513.66 0.037951 1.95563 0
M  V30 16606 O 1514.86 -0.0884836 2.71356 0
M  V30 16607 C 1513.32 2.49608 2.59275 0
M  V30 16608 C 1512.93 3.93716 2.13757 0
M  V30 16609 C 1514.67 2.58387 3.36803 0
M  V30 16610 C 1512.58 4.92929 3.26764 0
M  V30 16611 H 1511.51 0.527803 0.538461 0
M  V30 16612 H 1514.16 1.6819 0.733791 0
M  V30 16613 H 1512.54 2.16488 3.31585 0
M  V30 16614 H 1513.72 4.36176 1.48618 0
M  V30 16615 H 1512.03 3.88762 1.49175 0
M  V30 16616 H 1514.63 3.29691 4.20961 0
M  V30 16617 H 1514.97 1.62653 3.8321 0
M  V30 16618 H 1515.5 2.90688 2.71561 0
M  V30 16619 H 1512.24 5.90131 2.85352 0
M  V30 16620 H 1511.76 4.55103 3.90694 0
M  V30 16621 H 1513.44 5.1452 3.92273 0
M  V30 16622 N 1513.57 -0.913576 1.28419 0
M  V30 16623 C 1514.82 -1.65731 1.14961 0
M  V30 16624 C 1515.14 -1.93269 -0.301079 0
M  V30 16625 O 1516.34 -2.6573 -0.556778 0
M  V30 16626 C 1514.8 -2.98562 2.00969 0
M  V30 16627 C 1514.41 -2.78671 3.5078 0
M  V30 16628 C 1516.15 -3.76439 1.96198 0
M  V30 16629 C 1514.06 -4.07144 4.28938 0
M  V30 16630 H 1512.99 -0.621681 0.426648 0
M  V30 16631 H 1515.64 -1.0138 1.52952 0
M  V30 16632 H 1514.02 -3.64049 1.55835 0
M  V30 16633 H 1515.19 -2.21864 4.03873 0
M  V30 16634 H 1513.51 -2.14206 3.57078 0
M  V30 16635 H 1516.11 -4.71668 2.51861 0
M  V30 16636 H 1516.45 -4.05577 0.938771 0
M  V30 16637 H 1516.98 -3.17772 2.39303 0
M  V30 16638 H 1513.72 -3.83178 5.31841 0
M  V30 16639 H 1513.24 -4.63562 3.80619 0
M  V30 16640 H 1514.92 -4.754 4.38866 0
M  V30 16641 N 1515.05 -1.1067 -1.12204 0
M  V30 16642 C 1516.3 -0.85189 -1.8404 0
M  V30 16643 C 1516.63 0.620988 -1.84004 0
M  V30 16644 O 1515.91 1.45801 -1.28734 0
M  V30 16645 C 1516.19 -1.40401 -3.31602 0
M  V30 16646 C 1516.04 -2.94392 -3.40078 0
M  V30 16647 C 1517.36 -1.04834 -4.27432 0
M  V30 16648 H 1514.48 -0.310924 -0.668203 0
M  V30 16649 H 1517.12 -1.37026 -1.3162 0
M  V30 16650 H 1515.27 -0.963107 -3.76373 0
M  V30 16651 H 1516.94 -3.47027 -3.03924 0
M  V30 16652 H 1515.19 -3.3087 -2.80548 0
M  V30 16653 H 1515.86 -3.28107 -4.43903 0
M  V30 16654 H 1518.33 -1.42882 -3.90799 0
M  V30 16655 H 1517.21 -1.46153 -5.29085 0
M  V30 16656 H 1517.47 0.0419272 -4.4208 0
M  V30 16657 N 1516.53 1.29665 -0.895815 0
M  V30 16658 C 1517.48 2.29791 -0.360404 0
M  V30 16659 C 1518.47 1.60617 0.538384 0
M  V30 16660 O 1519.68 1.74993 0.421616 0
M  V30 16661 H 1516.05 0.745599 -0.0979118 0
M  V30 16662 H 1518.02 2.72396 -1.21832 0
M  V30 16663 C 1516.77 3.45386 0.400451 0
M  V30 16664 H 1516.1 3.98805 -0.281915 0
M  V30 16665 H 1517.54 4.17492 0.740003 0
M  V30 16666 C 1516 2.96393 1.60165 0
M  V30 16667 O 1516.53 2.97339 2.70097 0
M  V30 16668 N 1514.73 2.52271 1.44249 0
M  V30 16669 H 1514.28 2.51701 0.548142 0
M  V30 16670 H 1514.24 2.19849 2.24753 0
M  V30 16671 N 1518.01 0.657889 1.43212 0
M  V30 16672 C 1518.97 -0.0214783 2.2919 0
M  V30 16673 C 1519.97 -0.745921 1.42452 0
M  V30 16674 O 1521.16 -0.586468 1.64031 0
M  V30 16675 C 1518.29 -1.04115 3.24612 0
M  V30 16676 H 1519.49 0.735072 2.90752 0
M  V30 16677 H 1517.04 0.419354 1.50569 0
M  V30 16678 H 1517.77 -1.82677 2.67954 0
M  V30 16679 H 1517.56 -0.525285 3.88566 0
M  V30 16680 H 1519.05 -1.51544 3.89132 0
M  V30 16681 N 1519.49 -1.52437 0.400108 0
M  V30 16682 C 1520.45 -2.2536 -0.417808 0
M  V30 16683 C 1521.45 -1.27393 -0.981204 0
M  V30 16684 O 1522.64 -1.51406 -0.861503 0
M  V30 16685 C 1519.77 -3.01695 -1.58724 0
M  V30 16686 H 1520.96 -2.99086 0.220782 0
M  V30 16687 H 1518.52 -1.55555 0.152439 0
M  V30 16688 H 1519.25 -2.32295 -2.26295 0
M  V30 16689 H 1519.04 -3.73611 -1.18984 0
M  V30 16690 H 1520.53 -3.57033 -2.16604 0
M  V30 16691 N 1520.96 -0.130252 -1.57061 0
M  V30 16692 C 1521.89 0.812189 -2.18919 0
M  V30 16693 C 1522.88 1.2692 -1.13249 0
M  V30 16694 O 1524.06 1.32978 -1.41529 0
M  V30 16695 C 1521.19 2.05803 -2.79754 0
M  V30 16696 C 1520.14 1.73841 -3.91105 0
M  V30 16697 C 1519.47 3.05549 -4.38799 0
M  V30 16698 C 1520.77 0.997991 -5.12677 0
M  V30 16699 H 1522.46 0.296692 -2.97926 0
M  V30 16700 H 1520.01 0.141265 -1.43305 0
M  V30 16701 H 1521.96 2.72201 -3.21691 0
M  V30 16702 H 1520.69 2.59697 -1.98053 0
M  V30 16703 H 1519.35 1.09828 -3.49762 0
M  V30 16704 H 1518.99 3.57399 -3.53942 0
M  V30 16705 H 1518.69 2.84932 -5.13894 0
M  V30 16706 H 1520.22 3.73045 -4.83394 0
M  V30 16707 H 1521.63 1.56372 -5.51562 0
M  V30 16708 H 1520.03 0.892378 -5.93428 0
M  V30 16709 H 1521.1 -0.0132936 -4.84898 0
M  V30 16710 N 1522.44 1.56945 0.143535 0
M  V30 16711 C 1523.69 1.84696 0.851985 0
M  V30 16712 C 1524.04 0.714713 1.78633 0
M  V30 16713 O 1523.34 -0.287092 1.89437 0
M  V30 16714 C 1523.53 3.16482 1.66054 0
M  V30 16715 C 1523.36 4.42418 0.80599 0
M  V30 16716 C 1522.13 5.03107 0.470269 0
M  V30 16717 C 1524.33 5.14123 0.134742 0
M  V30 16718 N 1522.31 6.12612 -0.397516 0
M  V30 16719 C 1523.68 6.17157 -0.593039 0
M  V30 16720 C 1525.74 4.97869 0.0557743 0
M  V30 16721 C 1524.44 7.05696 -1.39234 0
M  V30 16722 C 1526.47 5.86874 -0.730272 0
M  V30 16723 C 1525.83 6.89392 -1.44632 0
M  V30 16724 H 1521.93 0.726447 0.28948 0
M  V30 16725 H 1524.51 1.94347 0.117143 0
M  V30 16726 H 1522.68 3.07972 2.3666 0
M  V30 16727 H 1524.41 3.32128 2.31243 0
M  V30 16728 H 1521.17 4.66676 0.806858 0
M  V30 16729 H 1521.59 6.71985 -0.822534 0
M  V30 16730 H 1526.23 4.18592 0.595021 0
M  V30 16731 H 1523.95 7.84398 -1.94283 0
M  V30 16732 H 1527.54 5.76365 -0.79341 0
M  V30 16733 H 1526.42 7.57072 -2.04479 0
M  V30 16734 N 1523.92 -0.412991 1.52093 0
M  V30 16735 C 1525.17 -1.15801 1.65634 0
M  V30 16736 C 1525.49 -1.91127 0.386737 0
M  V30 16737 O 1524.76 -1.86541 -0.598262 0
M  V30 16738 H 1523.34 -0.430467 0.610498 0
M  V30 16739 H 1526 -0.471127 1.8912 0
M  V30 16740 H 1525.1 -1.87421 2.49559 0
M  V30 16741 N 1525.4 -1.4265 -0.669982 0
M  V30 16742 C 1526.65 -1.43376 -1.43002 0
M  V30 16743 C 1526.97 -0.0519386 -1.94431 0
M  V30 16744 O 1526.23 0.940456 -1.71621 0
M  V30 16745 C 1526.53 -2.40913 -2.63999 0
M  V30 16746 C 1526.19 -3.87183 -2.31085 0
M  V30 16747 C 1524.86 -4.27024 -2.21819 0
M  V30 16748 C 1527.21 -4.79428 -2.04447 0
M  V30 16749 C 1524.54 -5.57084 -1.84049 0
M  V30 16750 C 1526.89 -6.09835 -1.68179 0
M  V30 16751 C 1525.55 -6.4867 -1.57428 0
M  V30 16752 H 1524.82 -0.524651 -0.52328 0
M  V30 16753 H 1527.47 -1.75622 -0.763494 0
M  V30 16754 H 1525.77 -2.02012 -3.35706 0
M  V30 16755 H 1527.47 -2.38737 -3.22189 0
M  V30 16756 H 1524.06 -3.55642 -2.392 0
M  V30 16757 H 1528.25 -4.49431 -2.10535 0
M  V30 16758 H 1523.5 -5.86029 -1.74298 0
M  V30 16759 H 1527.68 -6.80796 -1.46594 0
M  V30 16760 H 1525.3 -7.49358 -1.2793 0
M  V30 16761 N 1526.88 0.906753 -1.28902 0
M  V30 16762 C 1528.1 1.69547 -1.19452 0
M  V30 16763 C 1528.53 1.86531 0.242418 0
M  V30 16764 O 1527.89 1.38052 1.17521 0
M  V30 16765 C 1527.93 3.06139 -1.90556 0
M  V30 16766 O 1527.04 3.9401 -1.21779 0
M  V30 16767 H 1526.38 0.518902 -0.41429 0
M  V30 16768 H 1528.91 1.13327 -1.70347 0
M  V30 16769 H 1528.92 3.56326 -1.98736 0
M  V30 16770 H 1527.59 2.93094 -2.95074 0
M  V30 16771 H 1526.17 3.52444 -1.2181 0
M  V30 16772 N 1528.36 1.11264 1.11616 0
M  V30 16773 C 1529.29 0.727118 2.17361 0
M  V30 16774 C 1530.3 -0.240356 1.61016 0
M  V30 16775 O 1531.49 -0.0235265 1.78484 0
M  V30 16776 C 1528.59 0.05361 3.38858 0
M  V30 16777 C 1527.76 1.04744 4.24673 0
M  V30 16778 C 1526.82 0.403827 5.24648 0
M  V30 16779 O 1525.85 1.0572 5.59296 0
M  V30 16780 N 1527.05 -0.834071 5.74477 0
M  V30 16781 H 1529.81 1.63696 2.51045 0
M  V30 16782 H 1527.38 1.00261 1.2712 0
M  V30 16783 H 1529.37 -0.388643 4.0283 0
M  V30 16784 H 1527.94 -0.758778 3.03251 0
M  V30 16785 H 1527.16 1.6677 3.57185 0
M  V30 16786 H 1528.45 1.71988 4.7885 0
M  V30 16787 H 1527.84 -1.3841 5.48506 0
M  V30 16788 H 1526.4 -1.21933 6.40293 0
M  V30 16789 N 1529.83 -1.29188 0.902679 0
M  V30 16790 C 1531.06 -2.00113 0.544953 0
M  V30 16791 C 1531.48 -1.67093 -0.863805 0
M  V30 16792 O 1530.84 -0.897179 -1.57545 0
M  V30 16793 C 1530.89 -3.52762 0.747741 0
M  V30 16794 O 1529.99 -4.11923 -0.198388 0
M  V30 16795 H 1529.33 -0.629054 0.212572 0
M  V30 16796 H 1531.86 -1.64611 1.21508 0
M  V30 16797 H 1531.87 -4.02732 0.653546 0
M  V30 16798 H 1530.55 -3.76131 1.77478 0
M  V30 16799 H 1529.13 -3.72857 -0.0563959 0
M  V30 16800 N 1531.31 -0.665475 -1.42861 0
M  V30 16801 C 1532.27 0.00932351 -2.29198 0
M  V30 16802 C 1533.27 0.738356 -1.42846 0
M  V30 16803 O 1534.46 0.57776 -1.6434 0
M  V30 16804 C 1531.6 1.02392 -3.25159 0
M  V30 16805 H 1532.79 -0.750481 -2.90358 0
M  V30 16806 H 1530.34 -0.427334 -1.50345 0
M  V30 16807 H 1531.08 1.81254 -2.68919 0
M  V30 16808 H 1530.86 0.504671 -3.88839 0
M  V30 16809 H 1532.35 1.49479 -3.89931 0
M  V30 16810 N 1532.79 1.52222 -0.408187 0
M  V30 16811 C 1533.72 2.24676 0.453129 0
M  V30 16812 C 1534.73 1.27605 1.01098 0
M  V30 16813 O 1535.92 1.53557 0.910084 0
M  V30 16814 C 1533.02 2.96431 1.64262 0
M  V30 16815 C 1532.2 4.20364 1.20883 0
M  V30 16816 C 1531.26 4.74951 2.26512 0
M  V30 16817 O 1530.28 5.37556 1.87142 0
M  V30 16818 N 1531.48 4.56443 3.58665 0
M  V30 16819 H 1534.25 2.9923 -0.16771 0
M  V30 16820 H 1531.81 1.60178 -0.235517 0
M  V30 16821 H 1533.8 3.29844 2.3449 0
M  V30 16822 H 1532.37 2.25068 2.1694 0
M  V30 16823 H 1531.59 3.92776 0.334712 0
M  V30 16824 H 1532.88 5.0085 0.895939 0
M  V30 16825 H 1532.28 4.06511 3.93402 0
M  V30 16826 H 1530.83 4.94295 4.24871 0
M  V30 16827 N 1534.27 0.138579 1.5699 0
M  V30 16828 C 1535.2 -0.800568 2.19347 0
M  V30 16829 C 1536.18 -1.26318 1.13921 0
M  V30 16830 O 1537.36 -1.32226 1.42232 0
M  V30 16831 C 1534.49 -2.04317 2.80842 0
M  V30 16832 C 1533.45 -1.71764 3.92022 0
M  V30 16833 C 1532.77 -3.03217 4.40413 0
M  V30 16834 C 1534.07 -0.970789 5.13199 0
M  V30 16835 H 1535.77 -0.280888 2.98079 0
M  V30 16836 H 1533.31 -0.133663 1.43378 0
M  V30 16837 H 1535.27 -2.70491 3.2313 0
M  V30 16838 H 1533.99 -2.58643 1.99428 0
M  V30 16839 H 1532.65 -1.07972 3.50339 0
M  V30 16840 H 1532.3 -3.55517 3.55832 0
M  V30 16841 H 1532 -2.82203 5.15398 0
M  V30 16842 H 1533.52 -3.70477 4.85365 0
M  V30 16843 H 1534.94 -1.53445 5.52384 0
M  V30 16844 H 1533.33 -0.860895 5.93893 0
M  V30 16845 H 1534.4 0.0390088 4.84884 0
M  V30 16846 N 1535.75 -1.57019 -0.13521 0
M  V30 16847 C 1536.99 -1.8399 -0.845818 0
M  V30 16848 C 1537.32 -0.721255 -1.80633 0
M  V30 16849 O 1536.58 0.288778 -1.93558 0
M  V30 16850 C 1536.87 -3.17358 -1.64373 0
M  V30 16851 C 1536.54 -4.43214 -0.828967 0
M  V30 16852 C 1535.2 -4.77391 -0.604226 0
M  V30 16853 C 1537.55 -5.20551 -0.259965 0
M  V30 16854 C 1534.88 -5.86359 0.200033 0
M  V30 16855 C 1537.23 -6.30364 0.531397 0
M  V30 16856 C 1535.9 -6.63083 0.766605 0
M  V30 16857 H 1535.17 -0.673266 -0.309507 0
M  V30 16858 H 1537.82 -1.9119 -0.108903 0
M  V30 16859 H 1536.12 -3.05661 -2.4511 0
M  V30 16860 H 1537.82 -3.35444 -2.19724 0
M  V30 16861 H 1534.41 -4.16427 -1.01421 0
M  V30 16862 H 1538.59 -4.94512 -0.420847 0
M  V30 16863 H 1533.85 -6.10144 0.391646 0
M  V30 16864 H 1538.02 -6.89479 0.979371 0
M  V30 16865 H 1535.65 -7.47354 1.39164 0
M  V30 16866 N 1537.22 0.404919 -1.52309 0
M  V30 16867 C 1538.47 1.14859 -1.65802 0
M  V30 16868 C 1538.79 1.91546 -0.396174 0
M  V30 16869 O 1539.99 2.68372 -0.410969 0
M  V30 16870 C 1538.45 2.09068 -2.92948 0
M  V30 16871 C 1538.06 1.37878 -4.26255 0
M  V30 16872 C 1539.8 2.83669 -3.15804 0
M  V30 16873 C 1537.71 2.30761 -5.44521 0
M  V30 16874 H 1536.64 0.432463 -0.61765 0
M  V30 16875 H 1539.29 0.412695 -1.78799 0
M  V30 16876 H 1537.67 2.86228 -2.7366 0
M  V30 16877 H 1538.84 0.660543 -4.56041 0
M  V30 16878 H 1537.16 0.753026 -4.09534 0
M  V30 16879 H 1539.76 3.53313 -4.0134 0
M  V30 16880 H 1540.1 3.46855 -2.30212 0
M  V30 16881 H 1540.63 2.13607 -3.35584 0
M  V30 16882 H 1537.37 1.72214 -6.32473 0
M  V30 16883 H 1536.89 3.00546 -5.19069 0
M  V30 16884 H 1538.57 2.91195 -5.77767 0
M  V30 16885 N 1538.7 1.43003 0.662408 0
M  V30 16886 C 1539.65 1.47701 1.79686 0
M  V30 16887 C 1540.64 0.351491 1.65713 0
M  V30 16888 O 1541.85 0.525071 1.72171 0
M  V30 16889 H 1538.23 0.46285 0.592684 0
M  V30 16890 H 1540.2 2.43245 1.72843 0
M  V30 16891 C 1538.95 1.40828 3.17904 0
M  V30 16892 H 1538.27 2.26736 3.29288 0
M  V30 16893 H 1539.71 1.48177 3.97265 0
M  V30 16894 C 1538.17 0.124659 3.36669 0
M  V30 16895 O 1538.7 -0.81769 3.9329 0
M  V30 16896 N 1536.9 0.0378063 2.90575 0
M  V30 16897 H 1536.45 0.805456 2.44684 0
M  V30 16898 H 1536.41 -0.820377 3.03508 0
M  V30 16899 N 1540.18 -0.899904 1.29381 0
M  V30 16900 C 1541.41 -1.68911 1.20349 0
M  V30 16901 C 1541.83 -1.86657 -0.232523 0
M  V30 16902 O 1541.19 -1.38674 -1.16787 0
M  V30 16903 C 1541.24 -3.05124 1.92177 0
M  V30 16904 O 1540.34 -3.93358 1.23867 0
M  V30 16905 H 1539.68 -0.516698 0.417036 0
M  V30 16906 H 1542.21 -1.12422 1.70946 0
M  V30 16907 H 1542.22 -3.55267 2.00623 0
M  V30 16908 H 1540.9 -2.91525 2.96624 0
M  V30 16909 H 1539.47 -3.51793 1.23677 0
M  V30 16910 N 1541.66 -1.11854 -1.11024 0
M  V30 16911 C 1542.91 -0.870073 -1.82855 0
M  V30 16912 C 1543.23 0.604215 -1.84877 0
M  V30 16913 O 1542.49 1.46232 -1.30056 0
M  V30 16914 C 1542.79 -1.3823 -3.29586 0
M  V30 16915 C 1542.45 -2.87057 -3.4772 0
M  V30 16916 C 1541.12 -3.27696 -3.52376 0
M  V30 16917 C 1543.47 -3.8289 -3.53617 0
M  V30 16918 C 1540.8 -4.62886 -3.60491 0
M  V30 16919 C 1543.15 -5.17902 -3.63263 0
M  V30 16920 C 1541.81 -5.58092 -3.66182 0
M  V30 16921 H 1541.08 -0.318382 -0.669114 0
M  V30 16922 H 1543.73 -1.39769 -1.30908 0
M  V30 16923 H 1542.03 -0.775018 -3.84058 0
M  V30 16924 H 1543.73 -1.16634 -3.83663 0
M  V30 16925 H 1540.32 -2.54623 -3.44768 0
M  V30 16926 H 1544.5 -3.52591 -3.49275 0
M  V30 16927 H 1539.76 -4.93425 -3.61029 0
M  V30 16928 H 1543.93 -5.9199 -3.6677 0
M  V30 16929 H 1541.56 -6.62838 -3.72222 0
M  V30 16930 N 1543.14 1.28707 -0.909517 0
M  V30 16931 C 1544.1 2.25692 -0.39946 0
M  V30 16932 C 1545.1 1.53721 0.471848 0
M  V30 16933 O 1546.29 1.72008 0.275504 0
M  V30 16934 C 1543.42 3.38205 0.427793 0
M  V30 16935 H 1544.61 2.72326 -1.25613 0
M  V30 16936 H 1542.17 1.40317 -0.688535 0
M  V30 16937 H 1542.9 2.96926 1.30404 0
M  V30 16938 H 1542.69 3.91606 -0.19667 0
M  V30 16939 H 1544.18 4.10334 0.775634 0
M  V30 16940 N 1544.61 0.673042 1.42506 0
M  V30 16941 C 1545.84 0.202628 2.05604 0
M  V30 16942 C 1546.25 -1.14466 1.50646 0
M  V30 16943 O 1545.6 -1.7218 0.6403 0
M  V30 16944 C 1545.66 0.0583637 3.59453 0
M  V30 16945 C 1545.32 1.33408 4.37094 0
M  V30 16946 C 1546.32 2.26717 4.67863 0
M  V30 16947 C 1544 1.58119 4.76764 0
M  V30 16948 C 1546 3.43014 5.37234 0
M  V30 16949 C 1543.68 2.74706 5.45875 0
M  V30 16950 C 1544.68 3.66978 5.76035 0
M  V30 16951 O 1544.37 4.81526 6.4373 0
M  V30 16952 H 1544.1 0.0964964 0.669077 0
M  V30 16953 H 1546.66 0.919656 1.83661 0
M  V30 16954 H 1544.89 -0.714227 3.80047 0
M  V30 16955 H 1546.58 -0.37195 4.04192 0
M  V30 16956 H 1547.34 2.08875 4.37717 0
M  V30 16957 H 1543.22 0.871705 4.52683 0
M  V30 16958 H 1546.76 4.15055 5.60692 0
M  V30 16959 H 1542.66 2.92474 5.75438 0
M  V30 16960 H 1543.43 4.81047 6.6222 0
M  V30 16961 N 1546.09 -1.52004 0.416254 0
M  V30 16962 C 1547.34 -2.02848 -0.149787 0
M  V30 16963 C 1547.69 -1.29603 -1.422 0
M  V30 16964 O 1546.99 -0.395826 -1.87467 0
M  V30 16965 C 1547.18 -3.54624 -0.444553 0
M  V30 16966 C 1547.01 -4.42571 0.797537 0
M  V30 16967 C 1545.78 -4.87623 1.32485 0
M  V30 16968 C 1547.98 -4.86166 1.6777 0
M  V30 16969 N 1545.96 -5.59718 2.52168 0
M  V30 16970 C 1547.33 -5.57115 2.72072 0
M  V30 16971 C 1549.39 -4.68174 1.69462 0
M  V30 16972 C 1548.09 -6.1198 3.77985 0
M  V30 16973 C 1550.11 -5.23942 2.74298 0
M  V30 16974 C 1549.48 -5.94818 3.7732 0
M  V30 16975 H 1545.58 -0.781832 -0.0161927 0
M  V30 16976 H 1548.16 -1.86102 0.5722 0
M  V30 16977 H 1546.33 -3.71429 -1.13558 0
M  V30 16978 H 1548.06 -3.92148 -1.0001 0
M  V30 16979 H 1544.82 -4.65318 0.881837 0
M  V30 16980 H 1545.24 -6.00404 3.128 0
M  V30 16981 H 1549.88 -4.12858 0.911497 0
M  V30 16982 H 1547.6 -6.66364 4.57149 0
M  V30 16983 H 1551.19 -5.11885 2.76523 0
M  V30 16984 H 1550.07 -6.37198 4.57109 0
M  V30 16985 N 1547.57 -0.146903 -1.56914 0
M  V30 16986 C 1548.82 0.504234 -1.96122 0
M  V30 16987 C 1549.15 1.64879 -1.03175 0
M  V30 16988 O 1548.4 1.95605 -0.0609397 0
M  V30 16989 C 1548.7 1.05159 -3.41579 0
M  V30 16990 C 1548.37 0.0254845 -4.50893 0
M  V30 16991 C 1547.03 -0.256589 -4.80515 0
M  V30 16992 C 1549.38 -0.672284 -5.16846 0
M  V30 16993 C 1546.71 -1.24224 -5.73398 0
M  V30 16994 C 1549.06 -1.64675 -6.1079 0
M  V30 16995 C 1547.72 -1.93652 -6.38792 0
M  V30 16996 H 1546.99 0.184512 -0.71766 0
M  V30 16997 H 1549.64 -0.233712 -1.90069 0
M  V30 16998 H 1547.95 1.86687 -3.44464 0
M  V30 16999 H 1549.64 1.56398 -3.69244 0
M  V30 17000 H 1546.23 0.255517 -4.27838 0
M  V30 17001 H 1550.42 -0.467555 -4.94093 0
M  V30 17002 H 1545.67 -1.47319 -5.93386 0
M  V30 17003 H 1549.85 -2.19294 -6.60971 0
M  V30 17004 H 1547.47 -2.70179 -7.10568 0
M  V30 17005 N 1549.05 1.57088 0.126881 0
M  V30 17006 C 1550.3 1.84071 0.834397 0
M  V30 17007 C 1550.62 0.730896 1.80784 0
M  V30 17008 O 1549.89 -0.245791 1.94352 0
M  V30 17009 H 1548.47 0.679123 0.311128 0
M  V30 17010 H 1551.13 1.94554 0.116083 0
M  V30 17011 H 1550.23 2.79714 1.38443 0
M  V30 17012 N 1550.53 -0.396836 1.52522 0
M  V30 17013 C 1551.75 -1.16857 1.71345 0
M  V30 17014 C 1552.18 -1.83178 0.427465 0
M  V30 17015 O 1551.53 -1.7051 -0.616123 0
M  V30 17016 C 1551.58 -2.19817 2.85855 0
M  V30 17017 O 1550.69 -3.26233 2.52281 0
M  V30 17018 H 1550.03 -0.340554 0.570017 0
M  V30 17019 H 1552.56 -0.463532 1.9928 0
M  V30 17020 H 1552.57 -2.63944 3.11123 0
M  V30 17021 H 1551.24 -1.70931 3.79151 0
M  V30 17022 H 1549.82 -2.87299 2.37726 0
M  V30 17023 N 1552.01 -1.43353 -0.654814 0
M  V30 17024 C 1553.25 -1.44885 -1.41473 0
M  V30 17025 C 1553.58 -0.0725577 -1.94365 0
M  V30 17026 O 1552.84 0.9222 -1.72609 0
M  V30 17027 C 1553.13 -2.437 -2.61429 0
M  V30 17028 C 1552.8 -3.89612 -2.26965 0
M  V30 17029 C 1551.46 -4.29353 -2.17278 0
M  V30 17030 C 1553.81 -4.81569 -1.99351 0
M  V30 17031 C 1551.14 -5.59005 -1.7813 0
M  V30 17032 C 1553.49 -6.11584 -1.61702 0
M  V30 17033 C 1552.16 -6.50303 -1.50539 0
M  V30 17034 H 1551.43 -0.530172 -0.517686 0
M  V30 17035 H 1554.08 -1.76422 -0.744824 0
M  V30 17036 H 1552.38 -2.05561 -3.33544 0
M  V30 17037 H 1554.08 -2.42141 -3.19638 0
M  V30 17038 H 1550.67 -3.58159 -2.35414 0
M  V30 17039 H 1554.85 -4.51639 -2.05757 0
M  V30 17040 H 1550.11 -5.87845 -1.68072 0
M  V30 17041 H 1554.28 -6.82312 -1.39365 0
M  V30 17042 H 1551.91 -7.50673 -1.19975 0
M  V30 17043 N 1553.48 0.89303 -1.29857 0
M  V30 17044 C 1554.41 2.01422 -1.18117 0
M  V30 17045 C 1555.39 1.6994 -0.0737487 0
M  V30 17046 O 1556.58 1.92527 -0.254387 0
M  V30 17047 C 1553.71 3.36385 -0.863842 0
M  V30 17048 C 1552.66 3.821 -1.92831 0
M  V30 17049 C 1551.99 5.14263 -1.46415 0
M  V30 17050 C 1553.29 4.01699 -3.33819 0
M  V30 17051 H 1554.98 2.11502 -2.11913 0
M  V30 17052 H 1552.53 1.01622 -1.02024 0
M  V30 17053 H 1554.48 4.14335 -0.768397 0
M  V30 17054 H 1553.21 3.26415 0.109816 0
M  V30 17055 H 1551.87 3.06372 -2.01325 0
M  V30 17056 H 1551.51 5.00714 -0.478983 0
M  V30 17057 H 1551.21 5.45821 -2.17609 0
M  V30 17058 H 1552.74 5.94747 -1.38234 0
M  V30 17059 H 1554.15 4.70111 -3.28129 0
M  V30 17060 H 1552.55 4.44621 -4.03029 0
M  V30 17061 H 1553.62 3.05816 -3.76304 0
M  V30 17062 N 1554.96 1.12442 1.10429 0
M  V30 17063 C 1556.21 0.874466 1.81758 0
M  V30 17064 C 1556.52 -0.601487 1.86122 0
M  V30 17065 O 1557.73 -0.968037 2.53656 0
M  V30 17066 C 1556.19 1.51478 3.2647 0
M  V30 17067 C 1555.79 3.02552 3.30403 0
M  V30 17068 C 1557.54 1.34511 4.02625 0
M  V30 17069 C 1555.44 3.59518 4.69575 0
M  V30 17070 H 1554.37 0.323494 0.681078 0
M  V30 17071 H 1557.03 1.35091 1.24188 0
M  V30 17072 H 1555.41 0.966 3.84037 0
M  V30 17073 H 1556.58 3.63924 2.82659 0
M  V30 17074 H 1554.9 3.18917 2.67733 0
M  V30 17075 H 1557.49 1.74492 5.05427 0
M  V30 17076 H 1557.84 0.288788 4.15297 0
M  V30 17077 H 1558.37 1.86311 3.51473 0
M  V30 17078 H 1555.11 4.6491 4.62103 0
M  V30 17079 H 1554.63 3.02922 5.17686 0
M  V30 17080 H 1556.31 3.58581 5.38543 0
M  V30 17081 N 1556.44 -1.28223 0.91633 0
M  V30 17082 C 1557.39 -2.27215 0.40521 0
M  V30 17083 C 1558.36 -1.57693 -0.521734 0
M  V30 17084 O 1559.54 -1.85577 -0.443369 0
M  V30 17085 C 1556.68 -3.43358 -0.346303 0
M  V30 17086 C 1555.79 -4.27622 0.613443 0
M  V30 17087 C 1554.93 -5.30969 -0.156775 0
M  V30 17088 C 1553.97 -6.06897 0.796418 0
M  V30 17089 N 1553.11 -7.02075 0.0595539 0
M  V30 17090 H 1557.95 -2.70312 1.2544 0
M  V30 17091 H 1555.48 -1.32933 0.629859 0
M  V30 17092 H 1557.44 -4.09492 -0.798231 0
M  V30 17093 H 1556.07 -3.01244 -1.15982 0
M  V30 17094 H 1555.12 -3.61508 1.1839 0
M  V30 17095 H 1556.43 -4.80397 1.34239 0
M  V30 17096 H 1555.59 -6.02999 -0.669146 0
M  V30 17097 H 1554.33 -4.78968 -0.918755 0
M  V30 17098 H 1553.33 -5.33716 1.32014 0
M  V30 17099 H 1554.56 -6.60987 1.558 0
M  V30 17100 H 1552.5 -6.5242 -0.684388 0
M  V30 17101 H 1552.42 -7.52484 0.728275 0
M  V30 17102 H 1553.69 -7.78299 -0.432538 0
M  V30 17103 N 1557.92 -0.68059 -1.42147 0
M  V30 17104 C 1559.33 -0.350691 -1.55699 0
M  V30 17105 C 1559.53 1.1435 -1.6591 0
M  V30 17106 O 1558.59 1.92905 -1.62923 0
M  V30 17107 C 1559.9 -1.08608 -2.80401 0
M  V30 17108 C 1561.45 -1.06897 -2.9418 0
M  V30 17109 C 1561.93 -1.78581 -4.2175 0
M  V30 17110 N 1563.42 -1.75477 -4.28675 0
M  V30 17111 C 1564.15 -2.27794 -5.26211 0
M  V30 17112 N 1563.65 -2.88518 -6.29865 0
M  V30 17113 N 1565.44 -2.18135 -5.18048 0
M  V30 17114 H 1557.59 -1.64988 -1.33763 0
M  V30 17115 H 1559.85 -0.695411 -0.644289 0
M  V30 17116 H 1559.56 -2.14113 -2.79014 0
M  V30 17117 H 1559.43 -0.655022 -3.71469 0
M  V30 17118 H 1561.82 -0.0222464 -2.95092 0
M  V30 17119 H 1561.9 -1.53897 -2.04327 0
M  V30 17120 H 1561.55 -2.83225 -4.21599 0
M  V30 17121 H 1561.48 -1.29027 -5.10548 0
M  V30 17122 H 1563.97 -1.31191 -3.54397 0
M  V30 17123 H 1564.28 -3.26043 -7.00654 0
M  V30 17124 H 1562.63 -2.92589 -6.3041 0
M  V30 17125 H 1565.82 -1.7038 -4.35991 0
M  V30 17126 H 1565.99 -2.59213 -5.93896 0
M  V30 17127 N 1559.4 1.51781 -0.424309 0
M  V30 17128 C 1560.64 2.0157 0.146203 0
M  V30 17129 C 1560.96 1.3111 1.44344 0
M  V30 17130 O 1560.23 0.441631 1.90857 0
M  V30 17131 H 1558.81 0.744821 0.057019 0
M  V30 17132 H 1561.48 1.8656 -0.564031 0
M  V30 17133 H 1560.57 3.10335 0.331464 0
M  V30 17134 N 1560.87 0.155222 1.56834 0
M  V30 17135 C 1562.1 -0.500542 2.00754 0
M  V30 17136 C 1562.52 -1.57878 1.03538 0
M  V30 17137 O 1561.87 -1.82469 0.0336651 0
M  V30 17138 C 1561.92 -1.09366 3.4456 0
M  V30 17139 O 1561.65 -0.0584788 4.38061 0
M  V30 17140 C 1563.15 -1.82923 4.038 0
M  V30 17141 H 1560.37 -0.129589 0.658368 0
M  V30 17142 H 1562.91 0.252223 2.02939 0
M  V30 17143 H 1561.07 -1.797 3.43201 0
M  V30 17144 H 1561.48 -0.494125 5.22167 0
M  V30 17145 H 1562.95 -2.19703 5.06394 0
M  V30 17146 H 1563.43 -2.71823 3.44976 0
M  V30 17147 H 1564.04 -1.17268 4.08813 0
M  V30 17148 N 1562.35 -1.57153 -0.118549 0
M  V30 17149 C 1563.6 -1.84064 -0.824832 0
M  V30 17150 C 1563.91 -0.740941 -1.81023 0
M  V30 17151 O 1565.12 -0.896464 -2.56273 0
M  V30 17152 C 1563.58 -3.26338 -1.51761 0
M  V30 17153 C 1563.18 -4.44318 -0.573174 0
M  V30 17154 C 1564.93 -3.62496 -2.209 0
M  V30 17155 C 1562.83 -5.7762 -1.2692 0
M  V30 17156 H 1561.76 -0.686521 -0.311777 0
M  V30 17157 H 1564.42 -1.83336 -0.0775833 0
M  V30 17158 H 1562.8 -3.21537 -2.3115 0
M  V30 17159 H 1563.97 -4.60418 0.187529 0
M  V30 17160 H 1562.29 -4.16398 0.0112747 0
M  V30 17161 H 1564.88 -4.5936 -2.73666 0
M  V30 17162 H 1565.23 -2.89952 -2.9872 0
M  V30 17163 H 1565.76 -3.69084 -1.48399 0
M  V30 17164 H 1562.5 -6.53335 -0.532285 0
M  V30 17165 H 1562.02 -5.65406 -2.00191 0
M  V30 17166 H 1563.7 -6.21391 -1.80227 0
M  V30 17167 N 1563.83 0.388742 -1.5273 0
M  V30 17168 C 1564.76 1.48133 -1.80496 0
M  V30 17169 C 1565.74 1.56899 -0.657008 0
M  V30 17170 O 1566.93 1.71844 -0.904621 0
M  V30 17171 C 1564.06 2.85742 -1.97405 0
M  V30 17172 C 1563.01 2.91815 -3.13094 0
M  V30 17173 C 1562.34 4.31876 -3.15258 0
M  V30 17174 C 1563.64 2.61438 -4.52159 0
M  V30 17175 H 1565.33 1.25147 -2.7199 0
M  V30 17176 H 1562.88 0.600603 -1.30877 0
M  V30 17177 H 1564.83 3.62182 -2.15412 0
M  V30 17178 H 1563.55 3.10065 -1.02601 0
M  V30 17179 H 1562.21 2.17824 -2.9487 0
M  V30 17180 H 1561.86 4.53239 -2.18135 0
M  V30 17181 H 1561.56 4.3686 -3.92972 0
M  V30 17182 H 1563.08 5.10221 -3.3542 0
M  V30 17183 H 1564.5 3.27596 -4.70483 0
M  V30 17184 H 1562.89 2.77771 -5.31943 0
M  V30 17185 H 1563.96 1.56778 -4.58856 0
M  V30 17186 N 1565.31 1.43698 0.647203 0
M  V30 17187 C 1566.55 1.45849 1.40911 0
M  V30 17188 C 1566.89 0.0846767 1.94015 0
M  V30 17189 O 1566.16 -0.89537 1.72665 0
M  V30 17190 C 1566.44 2.50579 2.58616 0
M  V30 17191 C 1566.3 3.97258 2.10965 0
M  V30 17192 C 1567.62 2.51981 3.60824 0
M  V30 17193 H 1564.74 0.531056 0.511027 0
M  V30 17194 H 1567.38 1.75283 0.733204 0
M  V30 17195 H 1565.53 2.25611 3.16278 0
M  V30 17196 H 1567.2 4.33304 1.58257 0
M  V30 17197 H 1565.44 4.09802 1.42284 0
M  V30 17198 H 1566.11 4.6616 2.95633 0
M  V30 17199 H 1568.59 2.7425 3.12932 0
M  V30 17200 H 1567.47 3.27191 4.40723 0
M  V30 17201 H 1567.73 1.55582 4.1382 0
M  V30 17202 N 1566.79 -0.886131 1.30328 0
M  V30 17203 C 1568.06 -1.61912 1.09744 0
M  V30 17204 C 1568.44 -2.08116 -0.353663 0
M  V30 17205 O 1567.79 -1.84725 -1.34495 0
M  V30 17206 C 1568 -2.78954 2.09727 0
M  V30 17207 C 1569.35 -3.49313 2.41382 0
M  V30 17208 O 1570.37 -2.89141 2.08028 0
M  V30 17209 O 1569.23 -4.57823 2.98431 0
M  V30 17210 H 1566.33 -0.71158 0.421406 0
M  V30 17211 H 1568.87 -0.933009 1.4175 0
M  V30 17212 H 1567.64 -2.42109 3.07407 0
M  V30 17213 H 1567.27 -3.55263 1.78532 0
M  V30 17214 N 1568.26 -1.13026 -1.09832 0
M  V30 17215 C 1569.54 -0.800667 -1.78462 0
M  V30 17216 C 1569.92 0.708508 -1.98855 0
M  V30 17217 O 1569.27 1.64436 -1.58661 0
M  V30 17218 C 1569.48 -1.58284 -3.11042 0
M  V30 17219 C 1570.83 -1.77285 -3.85818 0
M  V30 17220 O 1571.85 -1.54848 -3.20781 0
M  V30 17221 O 1570.71 -2.14693 -5.02563 0
M  V30 17222 H 1567.8 -0.291895 -0.773774 0
M  V30 17223 H 1570.35 -1.23464 -1.16425 0
M  V30 17224 H 1569.12 -2.60867 -2.91657 0
M  V30 17225 H 1568.75 -1.14353 -3.80801 0
M  V30 17226 N 1569.74 1.27735 -0.923117 0
M  V30 17227 C 1570.99 1.9457 -0.561149 0
M  V30 17228 C 1571.32 1.72591 0.896805 0
M  V30 17229 O 1570.57 1.04546 1.65434 0
M  V30 17230 C 1570.87 3.47677 -0.827959 0
M  V30 17231 C 1570.54 3.8977 -2.26693 0
M  V30 17232 C 1569.2 4.00973 -2.66033 0
M  V30 17233 C 1571.55 4.11173 -3.20291 0
M  V30 17234 C 1568.88 4.30963 -3.98105 0
M  V30 17235 C 1571.23 4.42645 -4.51938 0
M  V30 17236 C 1569.9 4.52061 -4.91119 0
M  V30 17237 H 1569.17 0.711981 -0.205339 0
M  V30 17238 H 1571.81 1.51894 -1.16621 0
M  V30 17239 H 1570.12 3.91549 -0.140178 0
M  V30 17240 H 1571.81 3.97523 -0.526932 0
M  V30 17241 H 1568.4 3.81584 -1.95171 0
M  V30 17242 H 1572.59 4.01962 -2.91102 0
M  V30 17243 H 1567.84 4.36461 -4.28149 0
M  V30 17244 H 1572.02 4.58153 -5.2447 0
M  V30 17245 H 1569.65 4.75053 -5.93488 0
M  V30 17246 N 1571.22 0.688118 1.41784 0
M  V30 17247 C 1572.15 -0.0323076 2.28177 0
M  V30 17248 C 1573.13 -0.795419 1.41816 0
M  V30 17249 O 1574.32 -0.787785 1.71249 0
M  V30 17250 C 1571.44 -1.05308 3.21913 0
M  V30 17251 C 1570.49 -0.384003 4.24768 0
M  V30 17252 S 1571.32 0.86817 5.28416 0
M  V30 17253 C 1572.48 -0.151191 6.25717 0
M  V30 17254 H 1572.71 0.700456 2.88931 0
M  V30 17255 H 1570.24 0.478125 1.46811 0
M  V30 17256 H 1572.2 -1.63689 3.76452 0
M  V30 17257 H 1570.86 -1.75837 2.6027 0
M  V30 17258 H 1570.06 -1.15469 4.90594 0
M  V30 17259 H 1569.66 0.126545 3.73786 0
M  V30 17260 H 1571.95 -1.0068 6.69977 0
M  V30 17261 H 1572.89 0.472955 7.06519 0
M  V30 17262 H 1573.3 -0.502631 5.62258 0
M  V30 17263 N 1572.7 -1.51554 0.432352 0
M  V30 17264 C 1573.65 -2.27623 -0.381602 0
M  V30 17265 C 1574.62 -1.31003 -1.02114 0
M  V30 17266 O 1575.8 -1.59899 -1.041 0
M  V30 17267 C 1572.94 -3.11772 -1.47959 0
M  V30 17268 C 1572.05 -4.2338 -0.858682 0
M  V30 17269 C 1571.19 -4.94847 -1.93131 0
M  V30 17270 C 1570.23 -5.98383 -1.28856 0
M  V30 17271 N 1569.36 -6.63278 -2.30233 0
M  V30 17272 H 1574.2 -2.96743 0.273472 0
M  V30 17273 H 1571.74 -1.46367 0.146706 0
M  V30 17274 H 1573.7 -3.58882 -2.12742 0
M  V30 17275 H 1572.33 -2.44778 -2.10437 0
M  V30 17276 H 1571.38 -3.8027 -0.0992797 0
M  V30 17277 H 1572.69 -4.97575 -0.349381 0
M  V30 17278 H 1571.85 -5.4548 -2.65587 0
M  V30 17279 H 1570.59 -4.20272 -2.47432 0
M  V30 17280 H 1569.59 -5.47048 -0.549441 0
M  V30 17281 H 1570.82 -6.74913 -0.752941 0
M  V30 17282 H 1568.76 -5.91518 -2.83624 0
M  V30 17283 H 1568.68 -7.33221 -1.84181 0
M  V30 17284 H 1569.95 -7.18542 -3.02188 0
M  V30 17285 N 1574.18 -0.163538 -1.56749 0
M  V30 17286 C 1575.4 0.493087 -2.01453 0
M  V30 17287 C 1575.83 1.56535 -1.043 0
M  V30 17288 O 1575.18 1.81287 -0.0213039 0
M  V30 17289 C 1575.23 1.05546 -3.44808 0
M  V30 17290 O 1574.34 2.16977 -3.50706 0
M  V30 17291 H 1573.68 0.118905 -0.653267 0
M  V30 17292 H 1576.21 -0.265139 -2.02875 0
M  V30 17293 H 1576.22 1.38002 -3.83953 0
M  V30 17294 H 1574.89 0.270333 -4.1502 0
M  V30 17295 H 1573.47 1.85625 -3.23416 0
M  V30 17296 N 1575.65 1.57214 0.110213 0
M  V30 17297 C 1576.58 2.04015 1.13579 0
M  V30 17298 C 1577.57 0.926215 1.42672 0
M  V30 17299 O 1578.75 1.19651 1.52962 0
M  V30 17300 C 1575.88 2.45187 2.45969 0
M  V30 17301 C 1574.83 3.60105 2.31319 0
M  V30 17302 C 1574.16 3.87205 3.68749 0
M  V30 17303 C 1575.46 4.91526 1.76635 0
M  V30 17304 H 1577.15 2.89944 0.746496 0
M  V30 17305 H 1574.7 1.39488 0.357642 0
M  V30 17306 H 1576.65 2.76534 3.17973 0
M  V30 17307 H 1575.38 1.56238 2.86805 0
M  V30 17308 H 1574.04 3.28981 1.61762 0
M  V30 17309 H 1573.68 2.95448 4.07087 0
M  V30 17310 H 1573.38 4.64563 3.59798 0
M  V30 17311 H 1574.91 4.21013 4.42245 0
M  V30 17312 H 1576.32 5.21351 2.38465 0
M  V30 17313 H 1574.72 5.72944 1.78482 0
M  V30 17314 H 1575.79 4.79456 0.724573 0
M  V30 17315 N 1577.13 -0.380637 1.52934 0
M  V30 17316 C 1578.38 -1.12483 1.68386 0
M  V30 17317 C 1578.71 -1.89733 0.427993 0
M  V30 17318 O 1577.96 -1.86601 -0.589795 0
M  V30 17319 C 1578.26 -2.1227 2.87535 0
M  V30 17320 C 1577.93 -1.51615 4.24645 0
M  V30 17321 C 1576.59 -1.348 4.61933 0
M  V30 17322 C 1578.94 -1.07595 5.09973 0
M  V30 17323 C 1576.27 -0.725254 5.822 0
M  V30 17324 C 1578.62 -0.467273 6.30872 0
M  V30 17325 C 1577.29 -0.286488 6.66885 0
M  V30 17326 H 1576.56 -0.411606 0.616167 0
M  V30 17327 H 1579.2 -0.408435 1.87094 0
M  V30 17328 H 1577.51 -2.90159 2.63277 0
M  V30 17329 H 1579.2 -2.69777 2.96684 0
M  V30 17330 H 1575.79 -1.65693 3.95277 0
M  V30 17331 H 1579.98 -1.19385 4.81727 0
M  V30 17332 H 1575.23 -0.573461 6.08705 0
M  V30 17333 H 1579.41 -0.117914 6.963 0
M  V30 17334 H 1577.04 0.198141 7.59942 0
M  V30 17335 N 1578.61 -1.44039 -0.639573 0
M  V30 17336 C 1579.84 -1.49844 -1.42669 0
M  V30 17337 C 1580.25 -0.120599 -1.88414 0
M  V30 17338 O 1579.61 0.871875 -1.60327 0
M  V30 17339 C 1579.66 -2.45597 -2.65263 0
M  V30 17340 O 1579.38 -3.78023 -2.21427 0
M  V30 17341 C 1580.88 -2.60781 -3.5848 0
M  V30 17342 H 1578.1 -0.508477 -0.437826 0
M  V30 17343 H 1580.65 -1.88919 -0.782923 0
M  V30 17344 H 1578.8 -2.09679 -3.2575 0
M  V30 17345 H 1579.22 -4.29642 -3.00846 0
M  V30 17346 H 1580.69 -3.31826 -4.4113 0
M  V30 17347 H 1581.17 -1.65727 -4.06732 0
M  V30 17348 H 1581.77 -2.97565 -3.03867 0
M  V30 17349 N 1580.09 0.879207 -1.30796 0
M  V30 17350 C 1581.34 1.6315 -1.19951 0
M  V30 17351 C 1581.66 1.92958 0.244468 0
M  V30 17352 O 1580.92 1.55316 1.19061 0
M  V30 17353 C 1581.22 2.97578 -1.97945 0
M  V30 17354 C 1580.88 2.873 -3.47519 0
M  V30 17355 C 1579.55 2.84204 -3.88306 0
M  V30 17356 C 1581.9 2.75006 -4.42743 0
M  V30 17357 C 1579.23 2.6666 -5.22599 0
M  V30 17358 C 1581.58 2.59 -5.7715 0
M  V30 17359 C 1580.24 2.54282 -6.17168 0
M  V30 17360 H 1579.51 0.597008 -0.438934 0
M  V30 17361 H 1582.16 1.02179 -1.61962 0
M  V30 17362 H 1580.46 3.62532 -1.48587 0
M  V30 17363 H 1582.16 3.54759 -1.86941 0
M  V30 17364 H 1578.75 2.90522 -3.15111 0
M  V30 17365 H 1582.93 2.7646 -4.12169 0
M  V30 17366 H 1578.19 2.61426 -5.5269 0
M  V30 17367 H 1582.36 2.48462 -6.50568 0
M  V30 17368 H 1579.99 2.40446 -7.21172 0
M  V30 17369 N 1581.57 1.13606 1.09231 0
M  V30 17370 C 1582.82 0.893694 1.8082 0
M  V30 17371 C 1583.13 -0.581713 1.8675 0
M  V30 17372 O 1584.34 -0.941079 2.54668 0
M  V30 17373 C 1582.79 1.54932 3.24845 0
M  V30 17374 C 1582.4 3.0604 3.27175 0
M  V30 17375 C 1584.14 1.38773 4.01176 0
M  V30 17376 C 1582.05 3.64478 4.65735 0
M  V30 17377 H 1580.98 0.330699 0.677609 0
M  V30 17378 H 1583.63 1.36401 1.22748 0
M  V30 17379 H 1582.01 1.00668 3.82991 0
M  V30 17380 H 1583.19 3.66901 2.78783 0
M  V30 17381 H 1581.5 3.21739 2.64335 0
M  V30 17382 H 1584.1 1.79843 5.03548 0
M  V30 17383 H 1584.44 0.33282 4.14967 0
M  V30 17384 H 1584.98 1.90028 3.49477 0
M  V30 17385 H 1581.71 4.69785 4.57146 0
M  V30 17386 H 1581.23 3.08396 5.14444 0
M  V30 17387 H 1582.91 3.64272 5.3471 0
M  V30 17388 N 1583.05 -1.27244 0.929878 0
M  V30 17389 C 1584.29 -1.94269 0.57146 0
M  V30 17390 C 1584.62 -1.73064 -0.887639 0
M  V30 17391 O 1583.88 -1.05422 -1.64878 0
M  V30 17392 C 1584.17 -3.47233 0.846386 0
M  V30 17393 C 1583.84 -3.88563 2.28757 0
M  V30 17394 C 1582.5 -3.99557 2.68156 0
M  V30 17395 C 1584.85 -4.09468 3.22467 0
M  V30 17396 C 1582.18 -4.28846 4.00385 0
M  V30 17397 C 1584.53 -4.40242 4.54279 0
M  V30 17398 C 1583.2 -4.4945 4.93509 0
M  V30 17399 H 1582.47 -0.710882 0.209112 0
M  V30 17400 H 1585.12 -1.51273 1.17425 0
M  V30 17401 H 1583.42 -3.91469 0.160941 0
M  V30 17402 H 1585.12 -3.97238 0.548006 0
M  V30 17403 H 1581.71 -3.80544 1.97192 0
M  V30 17404 H 1585.89 -4.00412 2.9323 0
M  V30 17405 H 1581.15 -4.34184 4.30458 0
M  V30 17406 H 1585.32 -4.55365 5.26892 0
M  V30 17407 H 1582.95 -4.71899 5.95999 0
M  V30 17408 N 1584.52 -0.695628 -1.41417 0
M  V30 17409 C 1585.75 -0.235654 -2.05554 0
M  V30 17410 C 1586.17 1.11513 -1.52349 0
M  V30 17411 O 1585.52 1.69688 -0.671743 0
M  V30 17412 C 1585.57 -0.184809 -3.61027 0
M  V30 17413 O 1585.3 -1.48224 -4.12264 0
M  V30 17414 C 1586.8 0.296147 -4.4231 0
M  V30 17415 H 1584.02 -0.109648 -0.661981 0
M  V30 17416 H 1586.56 -0.948227 -1.81187 0
M  V30 17417 H 1584.72 0.478588 -3.84432 0
M  V30 17418 H 1585.13 -1.36939 -5.06308 0
M  V30 17419 H 1586.6 0.280597 -5.51286 0
M  V30 17420 H 1587.08 1.33503 -4.18418 0
M  V30 17421 H 1587.69 -0.336253 -4.23969 0
M  V30 17422 N 1586 1.51322 -0.440383 0
M  V30 17423 C 1587.25 2.01714 0.124815 0
M  V30 17424 C 1587.57 1.32634 1.42945 0
M  V30 17425 O 1586.84 0.461849 1.90378 0
M  V30 17426 H 1585.42 0.745384 0.049116 0
M  V30 17427 H 1588.08 1.85951 -0.583787 0
M  V30 17428 H 1587.18 3.10669 0.29853 0
M  V30 17429 N 1587.48 0.171848 1.5666 0
M  V30 17430 C 1588.7 -0.482396 2.01712 0
M  V30 17431 C 1589.13 -1.5598 1.05128 0
M  V30 17432 O 1588.49 -1.81274 0.0309178 0
M  V30 17433 C 1588.54 -1.03716 3.45363 0
M  V30 17434 O 1587.64 -2.15114 3.51852 0
M  V30 17435 H 1586.98 -0.115439 0.653888 0
M  V30 17436 H 1589.51 0.275895 2.02731 0
M  V30 17437 H 1589.52 -1.35964 3.84679 0
M  V30 17438 H 1588.2 -0.24832 4.15158 0
M  V30 17439 H 1586.77 -1.83907 3.24396 0
M  V30 17440 N 1588.96 -1.5727 -0.101874 0
M  V30 17441 C 1590.19 -1.89667 -0.81914 0
M  V30 17442 C 1590.6 -0.763027 -1.73132 0
M  V30 17443 O 1589.94 0.274317 -1.8164 0
M  V30 17444 C 1590 -3.17252 -1.6909 0
M  V30 17445 C 1589.66 -4.4699 -0.951257 0
M  V30 17446 C 1590.66 -5.19123 -0.28417 0
M  V30 17447 C 1588.35 -4.93665 -0.927349 0
M  V30 17448 C 1590.34 -6.36163 0.396934 0
M  V30 17449 C 1588.03 -6.10619 -0.242456 0
M  V30 17450 C 1589.03 -6.81717 0.418514 0
M  V30 17451 O 1588.71 -7.96443 1.09244 0
M  V30 17452 H 1588.45 -0.632024 -0.239836 0
M  V30 17453 H 1591 -2.05222 -0.0855979 0
M  V30 17454 H 1589.23 -2.97825 -2.46651 0
M  V30 17455 H 1590.92 -3.35533 -2.28413 0
M  V30 17456 H 1591.68 -4.84107 -0.294146 0
M  V30 17457 H 1587.56 -4.38219 -1.43126 0
M  V30 17458 H 1591.11 -6.91594 0.913417 0
M  V30 17459 H 1587 -6.45089 -0.230303 0
M  V30 17460 H 1587.77 -8.12385 0.998647 0
M  V30 17461 N 1590.44 0.372521 -1.53134 0
M  V30 17462 C 1591.4 1.43875 -1.78417 0
M  V30 17463 C 1592.4 1.46879 -0.654455 0
M  V30 17464 O 1593.59 1.47761 -0.922619 0
M  V30 17465 C 1590.72 2.83046 -1.89994 0
M  V30 17466 H 1591.91 1.22733 -2.73636 0
M  V30 17467 H 1589.47 0.605247 -1.44106 0
M  V30 17468 H 1590.2 3.09511 -0.968179 0
M  V30 17469 H 1589.99 2.82265 -2.72156 0
M  V30 17470 H 1591.48 3.60273 -2.11171 0
M  V30 17471 N 1591.91 1.44376 0.631925 0
M  V30 17472 C 1593.16 1.46827 1.38875 0
M  V30 17473 C 1593.48 0.101789 1.94734 0
M  V30 17474 O 1592.75 -0.86579 1.7573 0
M  V30 17475 H 1591.33 0.540642 0.515475 0
M  V30 17476 H 1593.99 1.80148 0.743822 0
M  V30 17477 H 1593.09 2.19321 2.22047 0
M  V30 17478 N 1593.39 -0.872258 1.31261 0
M  V30 17479 C 1594.34 -1.97926 1.18718 0
M  V30 17480 C 1595.31 -1.65937 0.0735242 0
M  V30 17481 O 1596.49 -1.89208 0.245979 0
M  V30 17482 C 1593.63 -3.33208 0.898117 0
M  V30 17483 C 1592.75 -3.77808 2.09488 0
M  V30 17484 C 1591.88 -5.01796 1.74281 0
M  V30 17485 C 1590.92 -5.38838 2.90379 0
M  V30 17486 N 1590.06 -6.54007 2.55382 0
M  V30 17487 H 1594.9 -2.07986 2.13415 0
M  V30 17488 H 1592.43 -1.01821 1.06165 0
M  V30 17489 H 1594.39 -4.11095 0.711089 0
M  V30 17490 H 1593.02 -3.22798 -0.0120097 0
M  V30 17491 H 1592.07 -2.95722 2.39276 0
M  V30 17492 H 1593.39 -4.01191 2.96391 0
M  V30 17493 H 1592.54 -5.87344 1.52027 0
M  V30 17494 H 1591.28 -4.80312 0.845665 0
M  V30 17495 H 1590.28 -4.51811 3.13284 0
M  V30 17496 H 1591.51 -5.62289 3.80799 0
M  V30 17497 H 1589.46 -6.34073 1.68188 0
M  V30 17498 H 1589.37 -6.77322 3.35814 0
M  V30 17499 H 1590.64 -7.42752 2.36516 0
M  V30 17500 N 1594.87 -1.14184 -1.08627 0
M  V30 17501 C 1595.8 -0.849455 -2.17501 0
M  V30 17502 C 1596.78 0.194617 -1.68983 0
M  V30 17503 O 1597.97 0.0517757 -1.94131 0
M  V30 17504 C 1595.1 -0.323685 -3.45788 0
M  V30 17505 C 1594.05 -1.30294 -4.07685 0
M  V30 17506 C 1593.38 -0.636575 -5.30897 0
M  V30 17507 C 1594.68 -2.66441 -4.49229 0
M  V30 17508 H 1596.37 -1.75987 -2.42217 0
M  V30 17509 H 1593.92 -0.847595 -1.16412 0
M  V30 17510 H 1595.87 -0.106754 -4.21265 0
M  V30 17511 H 1594.59 0.62215 -3.20619 0
M  V30 17512 H 1593.25 -1.50601 -3.34238 0
M  V30 17513 H 1592.9 0.314995 -5.02013 0
M  V30 17514 H 1592.6 -1.28998 -5.73266 0
M  V30 17515 H 1594.12 -0.429117 -6.0909 0
M  V30 17516 H 1595.54 -2.50055 -5.15893 0
M  V30 17517 H 1593.93 -3.28033 -5.02508 0
M  V30 17518 H 1595 -3.23486 -3.61226 0
M  V30 17519 N 1596.35 1.26749 -0.936613 0
M  V30 17520 C 1597.28 2.24895 -0.386956 0
M  V30 17521 C 1598.26 1.54004 0.521673 0
M  V30 17522 O 1599.44 1.82797 0.460158 0
M  V30 17523 C 1596.57 3.35771 0.44447 0
M  V30 17524 C 1595.62 4.24601 -0.401985 0
M  V30 17525 S 1596.45 5.03511 -1.82309 0
M  V30 17526 C 1597.61 6.17866 -0.999596 0
M  V30 17527 H 1597.84 2.71171 -1.21876 0
M  V30 17528 H 1595.37 1.35544 -0.739409 0
M  V30 17529 H 1597.33 4.00097 0.918284 0
M  V30 17530 H 1595.99 2.88117 1.2509 0
M  V30 17531 H 1595.18 5.03453 0.234819 0
M  V30 17532 H 1594.79 3.65116 -0.810309 0
M  V30 17533 H 1597.08 6.77076 -0.239732 0
M  V30 17534 H 1598.02 6.85842 -1.76142 0
M  V30 17535 H 1598.43 5.61934 -0.537672 0
M  V30 17536 N 1597.83 0.703118 1.41046 0
M  V30 17537 C 1599.05 0.245088 2.05947 0
M  V30 17538 C 1599.48 -1.09988 1.52592 0
M  V30 17539 O 1598.83 -1.69015 0.656023 0
M  V30 17540 C 1598.88 0.221444 3.59919 0
M  V30 17541 O 1597.99 -0.801324 4.0454 0
M  V30 17542 H 1597.33 0.117862 0.653456 0
M  V30 17543 H 1599.86 0.960099 1.80674 0
M  V30 17544 H 1599.87 0.0548681 4.07963 0
M  V30 17545 H 1598.54 1.20301 3.98121 0
M  V30 17546 H 1597.12 -0.603489 3.67984 0
M  V30 17547 N 1599.3 -1.51086 0.448402 0
M  V30 17548 C 1600.23 -2.30896 -0.347773 0
M  V30 17549 C 1601.22 -1.36792 -1.01104 0
M  V30 17550 O 1602.4 -1.65713 -1.01257 0
M  V30 17551 C 1599.53 -3.15901 -1.44304 0
M  V30 17552 C 1598.48 -4.18373 -0.90265 0
M  V30 17553 C 1597.81 -4.9197 -2.0945 0
M  V30 17554 C 1599.11 -5.22252 0.0705335 0
M  V30 17555 H 1600.8 -2.97704 0.318273 0
M  V30 17556 H 1598.35 -1.43169 0.154509 0
M  V30 17557 H 1600.3 -3.70519 -2.00733 0
M  V30 17558 H 1599.03 -2.46935 -2.13753 0
M  V30 17559 H 1597.69 -3.64823 -0.3605 0
M  V30 17560 H 1597.33 -4.19497 -2.77545 0
M  V30 17561 H 1597.03 -5.6127 -1.73926 0
M  V30 17562 H 1598.56 -5.49415 -2.66412 0
M  V30 17563 H 1599.97 -5.71876 -0.403814 0
M  V30 17564 H 1598.37 -5.99142 0.338905 0
M  V30 17565 H 1599.44 -4.74398 1.00373 0
M  V30 17566 N 1600.78 -0.180154 -1.56567 0
M  V30 17567 C 1601.73 0.746666 -2.18389 0
M  V30 17568 C 1602.7 1.22058 -1.12655 0
M  V30 17569 O 1603.88 1.28716 -1.40843 0
M  V30 17570 C 1601.02 1.96688 -2.83563 0
M  V30 17571 C 1600.14 1.53572 -4.03782 0
M  V30 17572 C 1599.27 2.71028 -4.56856 0
M  V30 17573 C 1598.31 2.24445 -5.69465 0
M  V30 17574 N 1597.45 3.35026 -6.17011 0
M  V30 17575 H 1602.29 0.212707 -2.9724 0
M  V30 17576 H 1599.83 0.093256 -1.46804 0
M  V30 17577 H 1601.78 2.68269 -3.19511 0
M  V30 17578 H 1600.41 2.4744 -2.073 0
M  V30 17579 H 1599.47 0.716323 -3.73595 0
M  V30 17580 H 1600.78 1.15385 -4.85271 0
M  V30 17581 H 1599.93 3.50753 -4.95032 0
M  V30 17582 H 1598.67 3.1248 -3.74443 0
M  V30 17583 H 1597.68 1.43169 -5.30832 0
M  V30 17584 H 1598.9 1.84041 -6.53686 0
M  V30 17585 H 1596.85 3.76037 -5.37524 0
M  V30 17586 H 1596.76 3.0096 -6.93512 0
M  V30 17587 H 1598.03 4.15009 -6.59839 0
M  V30 17588 N 1602.26 1.57322 0.0935319 0
M  V30 17589 C 1603.51 1.858 0.795165 0
M  V30 17590 C 1603.83 0.769078 1.79193 0
M  V30 17591 O 1603.1 -0.204511 1.9483 0
M  V30 17592 H 1601.68 0.68557 0.296653 0
M  V30 17593 H 1604.34 1.94756 0.0747892 0
M  V30 17594 H 1603.44 2.82588 1.32479 0
M  V30 17595 N 1603.74 -0.364395 1.53329 0
M  V30 17596 C 1605.02 -1.12265 1.60174 0
M  V30 17597 C 1605.4 -2.0708 0.410015 0
M  V30 17598 O 1604.74 -2.20492 -0.599631 0
M  V30 17599 C 1604.95 -1.86071 2.9526 0
M  V30 17600 C 1606.3 -2.40562 3.49879 0
M  V30 17601 O 1607.33 -1.96196 2.97297 0
M  V30 17602 O 1606.18 -3.2167 4.41804 0
M  V30 17603 H 1603.28 -0.515062 0.647024 0
M  V30 17604 H 1605.82 -0.367563 1.65672 0
M  V30 17605 H 1604.6 -1.1688 3.73436 0
M  V30 17606 H 1604.22 -2.68486 2.93259 0
M  V30 17607 N 1605.22 -1.44709 -0.62426 0
M  V30 17608 C 1606.44 -1.51573 -1.41564 0
M  V30 17609 C 1606.87 -0.143806 -1.87549 0
M  V30 17610 O 1606.22 0.868361 -1.59151 0
M  V30 17611 C 1606.27 -2.49085 -2.60747 0
M  V30 17612 O 1605.38 -1.99712 -3.60817 0
M  V30 17613 H 1604.72 -0.51157 -0.423311 0
M  V30 17614 H 1607.25 -1.89908 -0.761316 0
M  V30 17615 H 1607.26 -2.67346 -3.08205 0
M  V30 17616 H 1605.93 -3.48733 -2.26624 0
M  V30 17617 H 1604.51 -1.9125 -3.20122 0
M  V30 17618 N 1606.69 0.865285 -1.31722 0
M  V30 17619 C 1607.6 2.00542 -1.21738 0
M  V30 17620 C 1608.62 1.7349 -0.133124 0
M  V30 17621 O 1609.8 1.98303 -0.351809 0
M  V30 17622 C 1606.86 3.33993 -0.930045 0
M  V30 17623 C 1605.92 3.74337 -2.10167 0
M  V30 17624 C 1605.16 5.0142 -1.82795 0
M  V30 17625 O 1605.38 5.65242 -0.765345 0
M  V30 17626 O 1604.31 5.38642 -2.68604 0
M  V30 17627 H 1608.14 2.11898 -2.17561 0
M  V30 17628 H 1605.72 0.994313 -1.11507 0
M  V30 17629 H 1607.61 4.14008 -0.785846 0
M  V30 17630 H 1606.28 3.237 -0.00188642 0
M  V30 17631 H 1605.19 2.94943 -2.3013 0
M  V30 17632 H 1606.52 3.89261 -3.01225 0
M  V30 17633 N 1608.17 1.14759 1.0802 0
M  V30 17634 C 1609.12 0.833824 2.17141 0
M  V30 17635 C 1610.11 -0.189939 1.68332 0
M  V30 17636 O 1611.32 -0.0456447 1.79942 0
M  V30 17637 H 1607.7 0.251944 0.70854 0
M  V30 17638 H 1609.67 1.76196 2.40827 0
M  V30 17639 C 1608.42 0.33203 3.46111 0
M  V30 17640 H 1607.74 1.11117 3.84048 0
M  V30 17641 H 1609.18 0.151078 4.23731 0
M  V30 17642 C 1607.64 -0.945153 3.2337 0
M  V30 17643 O 1608.17 -2.0181 3.47326 0
M  V30 17644 N 1606.37 -0.881963 2.76893 0
M  V30 17645 H 1605.92 -0.00865768 2.57599 0
M  V30 17646 H 1605.88 -1.73706 2.62056 0
M  V30 17647 N 1609.65 -1.26251 0.943322 0
M  V30 17648 C 1610.61 -2.24554 0.459158 0
M  V30 17649 C 1611.61 -1.54918 -0.430926 0
M  V30 17650 O 1612.8 -1.72678 -0.229803 0
M  V30 17651 C 1609.94 -3.39221 -0.337973 0
M  V30 17652 H 1611.13 -2.689 1.32789 0
M  V30 17653 H 1608.68 -1.38442 0.725495 0
M  V30 17654 H 1609.42 -3.00279 -1.22486 0
M  V30 17655 H 1609.2 -3.90947 0.300428 0
M  V30 17656 H 1610.69 -4.12246 -0.666568 0
M  V30 17657 N 1611.13 -0.710588 -1.40671 0
M  V30 17658 C 1612.08 -0.0548139 -2.30735 0
M  V30 17659 C 1613.05 0.755572 -1.4792 0
M  V30 17660 O 1614.23 0.720541 -1.76672 0
M  V30 17661 C 1611.37 0.864648 -3.34093 0
M  V30 17662 C 1610.48 0.0442717 -4.31977 0
M  V30 17663 C 1609.62 0.962752 -5.22403 0
M  V30 17664 C 1608.66 0.13617 -6.11949 0
M  V30 17665 N 1607.8 1.00926 -6.94808 0
M  V30 17666 H 1612.64 -0.828555 -2.8625 0
M  V30 17667 H 1610.17 -0.420286 -1.40968 0
M  V30 17668 H 1612.13 1.41193 -3.92582 0
M  V30 17669 H 1610.76 1.60462 -2.80092 0
M  V30 17670 H 1609.81 -0.620132 -3.75311 0
M  V30 17671 H 1611.12 -0.595895 -4.95228 0
M  V30 17672 H 1610.28 1.57874 -5.85799 0
M  V30 17673 H 1609.02 1.63675 -4.59415 0
M  V30 17674 H 1608.02 -0.492793 -5.47587 0
M  V30 17675 H 1609.25 -0.534251 -6.76995 0
M  V30 17676 H 1607.19 1.669 -6.34413 0
M  V30 17677 H 1607.11 0.425013 -7.54804 0
M  V30 17678 H 1608.38 1.61159 -7.62659 0
M  V30 17679 N 1612.61 1.50847 -0.456408 0
M  V30 17680 C 1613.54 2.31077 0.335523 0
M  V30 17681 C 1614.52 1.37326 1.00377 0
M  V30 17682 O 1615.7 1.66247 1.00376 0
M  V30 17683 C 1612.83 3.16662 1.42627 0
M  V30 17684 C 1611.79 4.18846 0.88045 0
M  V30 17685 C 1611.11 4.93074 2.06838 0
M  V30 17686 C 1612.41 5.22208 -0.0982288 0
M  V30 17687 H 1614.11 2.97531 -0.334056 0
M  V30 17688 H 1611.65 1.43085 -0.162099 0
M  V30 17689 H 1613.61 3.71578 1.98765 0
M  V30 17690 H 1612.33 2.48066 2.12441 0
M  V30 17691 H 1610.99 3.65009 0.341147 0
M  V30 17692 H 1610.64 4.20963 2.75316 0
M  V30 17693 H 1610.34 5.62184 1.70947 0
M  V30 17694 H 1611.86 5.5082 2.63494 0
M  V30 17695 H 1613.28 5.72082 0.373481 0
M  V30 17696 H 1611.67 5.98954 -0.370674 0
M  V30 17697 H 1612.74 4.73859 -1.02887 0
M  V30 17698 N 1614.09 0.188454 1.56469 0
M  V30 17699 C 1615.31 -0.460975 2.02212 0
M  V30 17700 C 1615.74 -1.54856 1.06777 0
M  V30 17701 O 1615.09 -1.81231 0.0501425 0
M  V30 17702 C 1615.14 -1.00047 3.46443 0
M  V30 17703 O 1614.25 -2.1137 3.54114 0
M  V30 17704 H 1613.59 -0.108497 0.655076 0
M  V30 17705 H 1616.12 0.297381 2.02427 0
M  V30 17706 H 1616.13 -1.31876 3.86099 0
M  V30 17707 H 1614.8 -0.204273 4.15398 0
M  V30 17708 H 1613.38 -1.80456 3.26328 0
M  V30 17709 N 1615.56 -1.5737 -0.0851874 0
M  V30 17710 C 1616.81 -1.86587 -0.786855 0
M  V30 17711 C 1617.14 -0.778357 -1.78247 0
M  V30 17712 O 1616.39 0.227053 -1.94378 0
M  V30 17713 C 1616.69 -3.22427 -1.54194 0
M  V30 17714 C 1616.36 -4.45627 -0.687542 0
M  V30 17715 C 1615.02 -4.79072 -0.452042 0
M  V30 17716 C 1617.37 -5.21115 -0.094224 0
M  V30 17717 C 1614.7 -5.85426 0.386477 0
M  V30 17718 C 1617.05 -6.28354 0.731673 0
M  V30 17719 C 1615.72 -6.60309 0.977172 0
M  V30 17720 H 1614.99 -0.682772 -0.28793 0
M  V30 17721 H 1617.63 -1.9144 -0.0480218 0
M  V30 17722 H 1615.94 -3.13304 -2.35261 0
M  V30 17723 H 1617.64 -3.42264 -2.08941 0
M  V30 17724 H 1614.23 -4.19443 -0.881212 0
M  V30 17725 H 1618.41 -4.95601 -0.263309 0
M  V30 17726 H 1613.67 -6.08589 0.58556 0
M  V30 17727 H 1617.84 -6.86014 1.19823 0
M  V30 17728 H 1615.47 -7.42548 1.6287 0
M  V30 17729 N 1617.04 0.356258 -1.53521 0
M  V30 17730 C 1617.95 1.46055 -1.83589 0
M  V30 17731 C 1618.97 1.58176 -0.724997 0
M  V30 17732 O 1620.14 1.73894 -1.01601 0
M  V30 17733 C 1617.21 2.81207 -2.0279 0
M  V30 17734 C 1616.27 2.78535 -3.26675 0
M  V30 17735 C 1615.5 4.07241 -3.4495 0
M  V30 17736 O 1615.73 5.03879 -2.67324 0
M  V30 17737 O 1614.66 4.12485 -4.38337 0
M  V30 17738 H 1618.49 1.23566 -2.77426 0
M  V30 17739 H 1616.07 0.547243 -1.39017 0
M  V30 17740 H 1617.95 3.61271 -2.16936 0
M  V30 17741 H 1616.63 3.03654 -1.12143 0
M  V30 17742 H 1615.53 1.97137 -3.17943 0
M  V30 17743 H 1616.87 2.61042 -4.17274 0
M  V30 17744 N 1618.52 1.45038 0.616577 0
M  V30 17745 C 1619.47 1.53022 1.7278 0
M  V30 17746 C 1620.44 0.376778 1.6177 0
M  V30 17747 O 1621.62 0.589006 1.81481 0
M  V30 17748 C 1618.76 1.49432 3.11069 0
M  V30 17749 C 1617.87 2.7526 3.3295 0
M  V30 17750 C 1617.01 2.63403 4.61294 0
M  V30 17751 C 1616.05 3.84327 4.76402 0
M  V30 17752 N 1615.19 3.71058 5.96037 0
M  V30 17753 H 1620.03 2.47957 1.65292 0
M  V30 17754 H 1617.56 1.23046 0.806102 0
M  V30 17755 H 1619.52 1.45339 3.91066 0
M  V30 17756 H 1618.15 0.580542 3.17537 0
M  V30 17757 H 1617.2 2.89479 2.46792 0
M  V30 17758 H 1618.51 3.64978 3.39989 0
M  V30 17759 H 1617.67 2.57226 5.49472 0
M  V30 17760 H 1616.41 1.7127 4.56638 0
M  V30 17761 H 1615.41 3.90873 3.8665 0
M  V30 17762 H 1616.64 4.77515 4.82863 0
M  V30 17763 H 1614.58 2.81687 5.92443 0
M  V30 17764 H 1614.5 4.54403 6.04197 0
M  V30 17765 H 1615.77 3.68798 6.86738 0
M  V30 17766 N 1620 -0.858287 1.32179 0
M  V30 17767 C 1621.23 -1.64235 1.25341 0
M  V30 17768 C 1621.64 -1.88327 -0.181568 0
M  V30 17769 O 1620.98 -1.44996 -1.12791 0
M  V30 17770 C 1621.04 -3.02686 1.93963 0
M  V30 17771 C 1620.7 -3.01651 3.43301 0
M  V30 17772 C 1621.7 -2.78762 4.38848 0
M  V30 17773 C 1619.39 -3.22402 3.85178 0
M  V30 17774 C 1621.38 -2.76621 5.74247 0
M  V30 17775 C 1619.07 -3.19888 5.20687 0
M  V30 17776 C 1620.07 -2.97026 6.15032 0
M  V30 17777 O 1619.75 -2.94379 7.48061 0
M  V30 17778 H 1619.49 -0.518387 0.433879 0
M  V30 17779 H 1622.04 -1.07869 1.74795 0
M  V30 17780 H 1620.27 -3.60826 1.39074 0
M  V30 17781 H 1621.96 -3.63367 1.80884 0
M  V30 17782 H 1622.72 -2.62501 4.07821 0
M  V30 17783 H 1618.6 -3.39223 3.12167 0
M  V30 17784 H 1622.15 -2.58696 6.4786 0
M  V30 17785 H 1618.04 -3.35693 5.51344 0
M  V30 17786 H 1618.81 -3.10359 7.57377 0
M  V30 17787 N 1621.48 -1.1533 -1.07409 0
M  V30 17788 C 1622.71 -0.950263 -1.83449 0
M  V30 17789 C 1623.11 0.504761 -1.82343 0
M  V30 17790 O 1622.46 1.36183 -1.23287 0
M  V30 17791 C 1622.52 -1.38651 -3.31687 0
M  V30 17792 C 1622.18 -2.85914 -3.56514 0
M  V30 17793 C 1623.18 -3.83981 -3.50506 0
M  V30 17794 C 1620.86 -3.23568 -3.84199 0
M  V30 17795 C 1622.86 -5.17707 -3.71831 0
M  V30 17796 C 1620.55 -4.57467 -4.05175 0
M  V30 17797 C 1621.54 -5.54345 -3.98986 0
M  V30 17798 O 1621.23 -6.85826 -4.19403 0
M  V30 17799 H 1620.96 -0.337616 -0.585655 0
M  V30 17800 H 1623.52 -1.53489 -1.36493 0
M  V30 17801 H 1621.75 -0.745282 -3.7945 0
M  V30 17802 H 1623.44 -1.15267 -3.89189 0
M  V30 17803 H 1624.2 -3.56237 -3.29121 0
M  V30 17804 H 1620.08 -2.48748 -3.88131 0
M  V30 17805 H 1623.63 -5.93311 -3.66916 0
M  V30 17806 H 1619.52 -4.84927 -4.26047 0
M  V30 17807 H 1620.29 -6.92235 -4.36753 0
M  V30 17808 N 1622.95 1.25748 -0.950004 0
M  V30 17809 C 1624.36 1.75253 -0.643694 0
M  V30 17810 C 1624.72 1.77261 0.841017 0
M  V30 17811 O 1623.84 1.39043 1.65819 0
M  V30 17812 C 1624.44 3.1826 -1.16173 0
M  V30 17813 C 1622.99 3.65342 -0.905672 0
M  V30 17814 C 1622.14 2.4454 -1.30749 0
M  V30 17815 H 1625.09 1.117 -1.12733 0
M  V30 17816 H 1625.11 3.76935 -0.519651 0
M  V30 17817 H 1624.63 3.16766 -2.24234 0
M  V30 17818 H 1622.73 3.72256 0.160174 0
M  V30 17819 H 1622.84 4.53713 -1.53888 0
M  V30 17820 H 1621.2 2.44138 -0.725876 0
M  V30 17821 H 1621.99 2.45741 -2.39721 0
M  V30 17822 N 1624.43 0.718038 1.40292 0
M  V30 17823 C 1625.36 0.0818367 2.33357 0
M  V30 17824 C 1626.34 -0.742854 1.53022 0
M  V30 17825 O 1627.53 -0.691281 1.8148 0
M  V30 17826 C 1624.66 -0.838843 3.37017 0
M  V30 17827 C 1623.61 -0.119589 4.27833 0
M  V30 17828 C 1622.94 -1.15615 5.22051 0
M  V30 17829 C 1624.24 1.02769 5.1209 0
M  V30 17830 H 1625.93 0.859167 2.86808 0
M  V30 17831 H 1623.48 0.414606 1.37902 0
M  V30 17832 H 1625.43 -1.29332 4.01063 0
M  V30 17833 H 1624.15 -1.6481 2.81967 0
M  V30 17834 H 1622.81 0.315088 3.65243 0
M  V30 17835 H 1622.46 -1.95852 4.63304 0
M  V30 17836 H 1622.16 -0.679767 5.83655 0
M  V30 17837 H 1623.69 -1.61068 5.88973 0
M  V30 17838 H 1625.1 0.652461 5.69575 0
M  V30 17839 H 1623.5 1.4326 5.82749 0
M  V30 17840 H 1624.57 1.85723 4.47923 0
M  V30 17841 N 1625.91 -1.50602 0.464402 0
M  V30 17842 C 1626.84 -2.25029 -0.379075 0
M  V30 17843 C 1627.82 -1.28064 -1.00192 0
M  V30 17844 O 1629.01 -1.5727 -1.03915 0
M  V30 17845 C 1626.13 -3.02144 -1.53057 0
M  V30 17846 C 1625.18 -4.13981 -1.02576 0
M  V30 17847 S 1626.01 -5.35473 0.0541453 0
M  V30 17848 C 1627.17 -6.16133 -1.10138 0
M  V30 17849 H 1627.4 -2.96224 0.252731 0
M  V30 17850 H 1624.93 -1.52376 0.249205 0
M  V30 17851 H 1626.89 -3.47167 -2.19056 0
M  V30 17852 H 1625.55 -2.30489 -2.13387 0
M  V30 17853 H 1624.75 -4.67316 -1.88763 0
M  V30 17854 H 1624.35 -3.7136 -0.443597 0
M  V30 17855 H 1626.64 -6.46861 -2.01437 0
M  V30 17856 H 1627.58 -7.0549 -0.60743 0
M  V30 17857 H 1627.99 -5.48066 -1.35218 0
M  V30 17858 N 1627.39 -0.19675 -1.56367 0
M  V30 17859 C 1628.64 0.441807 -1.96802 0
M  V30 17860 C 1628.95 1.62645 -1.08656 0
M  V30 17861 O 1630.16 2.33291 -1.3888 0
M  V30 17862 C 1628.61 0.837415 -3.50022 0
M  V30 17863 C 1628.22 -0.323031 -4.46834 0
M  V30 17864 C 1629.96 1.44296 -3.99223 0
M  V30 17865 C 1627.87 0.0936285 -5.91326 0
M  V30 17866 H 1626.8 0.168834 -0.734854 0
M  V30 17867 H 1629.45 -0.289029 -1.81209 0
M  V30 17868 H 1627.83 1.62497 -3.61124 0
M  V30 17869 H 1629.01 -1.10056 -4.47464 0
M  V30 17870 H 1627.32 -0.840182 -4.07836 0
M  V30 17871 H 1629.92 1.76718 -5.04653 0
M  V30 17872 H 1630.26 2.35003 -3.43627 0
M  V30 17873 H 1630.8 0.71935 -3.91242 0
M  V30 17874 H 1627.54 -0.779297 -6.50851 0
M  V30 17875 H 1627.06 0.835984 -5.93946 0
M  V30 17876 H 1628.73 0.528864 -6.44835 0
M  V30 17877 N 1628.87 1.57413 0.0768405 0
M  V30 17878 C 1630.28 1.53656 0.431508 0
M  V30 17879 C 1630.48 0.916194 1.79466 0
M  V30 17880 O 1629.54 0.516529 2.4716 0
M  V30 17881 C 1630.85 2.98325 0.377212 0
M  V30 17882 C 1632.4 3.09635 0.457761 0
M  V30 17883 C 1632.87 4.55945 0.433425 0
M  V30 17884 N 1634.37 4.60562 0.493647 0
M  V30 17885 C 1635.1 5.71242 0.496949 0
M  V30 17886 N 1634.6 6.91302 0.455368 0
M  V30 17887 N 1636.39 5.5947 0.543129 0
M  V30 17888 H 1628.54 1.96108 -0.815811 0
M  V30 17889 H 1630.8 0.897392 -0.3056 0
M  V30 17890 H 1630.51 3.47251 -0.557628 0
M  V30 17891 H 1630.38 3.57959 1.18932 0
M  V30 17892 H 1632.77 2.60685 1.38302 0
M  V30 17893 H 1632.85 2.52919 -0.382829 0
M  V30 17894 H 1632.5 5.0555 -0.487968 0
M  V30 17895 H 1632.43 5.10518 1.29148 0
M  V30 17896 H 1634.92 3.74162 0.530237 0
M  V30 17897 H 1635.23 7.7142 0.461674 0
M  V30 17898 H 1633.57 6.93717 0.422133 0
M  V30 17899 H 1636.77 4.64576 0.573272 0
M  V30 17900 H 1636.94 6.45727 0.542234 0
M  V30 17901 N 1630.34 -0.348112 1.53707 0
M  V30 17902 C 1631.29 -1.42729 1.81375 0
M  V30 17903 C 1632.26 -1.52461 0.659159 0
M  V30 17904 O 1633.45 -1.68072 0.903129 0
M  V30 17905 C 1630.59 -2.79443 2.02498 0
M  V30 17906 C 1629.7 -2.7854 3.30211 0
M  V30 17907 C 1628.83 -4.06942 3.41426 0
M  V30 17908 C 1627.87 -4.00248 4.63106 0
M  V30 17909 N 1627.01 -5.20332 4.7138 0
M  V30 17910 H 1631.85 -1.18436 2.73454 0
M  V30 17911 H 1629.39 -0.573809 1.35447 0
M  V30 17912 H 1631.35 -3.58888 2.12733 0
M  V30 17913 H 1629.98 -3.02099 1.13737 0
M  V30 17914 H 1629.03 -1.91227 3.28841 0
M  V30 17915 H 1630.34 -2.69471 4.19746 0
M  V30 17916 H 1629.49 -4.94808 3.51069 0
M  V30 17917 H 1628.23 -4.18786 2.49939 0
M  V30 17918 H 1627.24 -3.10767 4.53546 0
M  V30 17919 H 1628.46 -3.89991 5.55953 0
M  V30 17920 H 1626.41 -5.32729 3.828 0
M  V30 17921 H 1626.33 -5.13502 5.54844 0
M  V30 17922 H 1627.59 -6.09982 4.85326 0
M  V30 17923 N 1631.82 -1.45363 -0.608876 0
M  V30 17924 C 1633.05 -1.53066 -1.39949 0
M  V30 17925 C 1633.47 -0.16369 -1.87386 0
M  V30 17926 O 1632.83 0.851432 -1.60064 0
M  V30 17927 C 1632.88 -2.51836 -2.58091 0
M  V30 17928 O 1631.98 -2.03528 -3.58678 0
M  V30 17929 H 1631.32 -0.516031 -0.417861 0
M  V30 17930 H 1633.85 -1.90705 -0.74113 0
M  V30 17931 H 1633.86 -2.706 -3.05352 0
M  V30 17932 H 1632.54 -3.51117 -2.22912 0
M  V30 17933 H 1631.12 -1.94634 -3.18075 0
M  V30 17934 N 1633.3 0.851265 -1.32632 0
M  V30 17935 C 1634.25 1.98152 -1.21813 0
M  V30 17936 C 1635.24 1.68959 -0.122182 0
M  V30 17937 O 1636.45 1.77724 -0.285332 0
M  V30 17938 H 1632.82 0.650275 -0.377686 0
M  V30 17939 H 1634.79 2.04405 -2.17397 0
M  V30 17940 C 1633.54 3.34141 -0.961521 0
M  V30 17941 H 1632.87 3.57136 -1.79704 0
M  V30 17942 H 1634.31 4.13763 -0.926077 0
M  V30 17943 C 1632.77 3.35223 0.335704 0
M  V30 17944 O 1633.3 3.78461 1.34647 0
M  V30 17945 N 1631.5 2.88376 0.358875 0
M  V30 17946 H 1631.05 2.53383 -0.464194 0
M  V30 17947 H 1631.01 2.89482 1.22668 0
M  V30 17948 N 1634.78 1.15898 1.06796 0
M  V30 17949 C 1636.03 0.931848 1.78884 0
M  V30 17950 C 1636.34 -0.54197 1.87942 0
M  V30 17951 O 1637.55 -0.886848 2.56607 0
M  V30 17952 C 1636 1.61788 3.21485 0
M  V30 17953 C 1635.61 3.12911 3.2061 0
M  V30 17954 C 1637.35 1.47252 3.98142 0
M  V30 17955 C 1635.26 3.74275 4.579 0
M  V30 17956 H 1634.19 0.344998 0.670442 0
M  V30 17957 H 1636.84 1.38974 1.19827 0
M  V30 17958 H 1635.22 1.08769 3.80769 0
M  V30 17959 H 1636.4 3.72732 2.70938 0
M  V30 17960 H 1634.71 3.27273 2.57451 0
M  V30 17961 H 1637.31 1.90484 4.9962 0
M  V30 17962 H 1637.65 0.420766 4.14168 0
M  V30 17963 H 1638.19 1.97398 3.45367 0
M  V30 17964 H 1634.93 4.79376 4.47078 0
M  V30 17965 H 1634.45 3.19238 5.07786 0
M  V30 17966 H 1636.12 3.75532 5.26863 0
M  V30 17967 N 1636.26 -1.25243 0.956659 0
M  V30 17968 C 1637.53 -1.88287 0.529832 0
M  V30 17969 C 1637.91 -1.8629 -0.992929 0
M  V30 17970 O 1637.26 -1.32785 -1.85958 0
M  V30 17971 C 1637.47 -3.30919 1.10877 0
M  V30 17972 C 1638.82 -4.07674 1.18687 0
M  V30 17973 O 1639.84 -3.40048 1.06047 0
M  V30 17974 O 1638.7 -5.28648 1.38541 0
M  V30 17975 H 1635.8 -0.808258 0.175066 0
M  V30 17976 H 1638.34 -1.33298 1.05022 0
M  V30 17977 H 1637.11 -3.26813 2.15195 0
M  V30 17978 H 1636.74 -3.93468 0.571755 0
M  V30 17979 N 1637.73 -0.725468 -1.3991 0
M  V30 17980 C 1638.98 -0.26965 -2.00999 0
M  V30 17981 C 1639.31 1.13727 -1.57416 0
M  V30 17982 O 1638.59 1.77345 -0.798693 0
M  V30 17983 C 1638.87 -0.360784 -3.58288 0
M  V30 17984 C 1638.72 -1.80679 -4.11916 0
M  V30 17985 C 1640.04 0.262328 -4.39317 0
M  V30 17986 H 1637.16 -0.0994547 -0.730259 0
M  V30 17987 H 1639.8 -0.91983 -1.6625 0
M  V30 17988 H 1637.95 0.192779 -3.88021 0
M  V30 17989 H 1639.63 -2.4165 -3.92942 0
M  V30 17990 H 1637.87 -2.33127 -3.65834 0
M  V30 17991 H 1638.54 -1.82189 -5.21068 0
M  V30 17992 H 1641.02 -0.209452 -4.15573 0
M  V30 17993 H 1639.89 0.168166 -5.48642 0
M  V30 17994 H 1640.15 1.34716 -4.21075 0
M  V30 17995 N 1639.21 1.50354 -0.472382 0
M  V30 17996 C 1640.63 1.59097 -0.126613 0
M  V30 17997 C 1640.83 1.4804 1.36698 0
M  V30 17998 O 1639.88 1.33956 2.14038 0
M  V30 17999 C 1641.2 2.92958 -0.677957 0
M  V30 18000 C 1642.75 3.06356 -0.6415 0
M  V30 18001 C 1643.22 4.42793 -1.17041 0
M  V30 18002 N 1644.71 4.49208 -1.12988 0
M  V30 18003 C 1645.45 5.53171 -1.50961 0
M  V30 18004 N 1644.94 6.64381 -1.96391 0
M  V30 18005 N 1646.74 5.43722 -1.42556 0
M  V30 18006 H 1638.89 1.55785 -1.44378 0
M  V30 18007 H 1641.15 0.736295 -0.597138 0
M  V30 18008 H 1640.86 3.06529 -1.72433 0
M  V30 18009 H 1640.73 3.77002 -0.122247 0
M  V30 18010 H 1643.12 2.92431 0.395964 0
M  V30 18011 H 1643.2 2.24066 -1.23403 0
M  V30 18012 H 1642.84 4.57466 -2.20651 0
M  V30 18013 H 1642.77 5.23677 -0.554086 0
M  V30 18014 H 1645.26 3.69407 -0.796692 0
M  V30 18015 H 1645.58 7.39772 -2.23511 0
M  V30 18016 H 1643.92 6.65498 -2.00344 0
M  V30 18017 H 1647.11 4.55729 -1.06905 0
M  V30 18018 H 1647.28 6.24625 -1.72476 0
M  V30 18019 N 1640.69 0.205039 1.56261 0
M  V30 18020 C 1641.97 -0.479238 1.89638 0
M  V30 18021 C 1642.35 -1.78938 1.12002 0
M  V30 18022 O 1641.7 -2.27398 0.224179 0
M  V30 18023 C 1641.91 -0.688324 3.42145 0
M  V30 18024 C 1643.25 -1.00322 4.12578 0
M  V30 18025 O 1644.28 -0.775697 3.47651 0
M  V30 18026 O 1643.14 -1.43412 5.27347 0
M  V30 18027 H 1640.23 -0.251125 0.78795 0
M  V30 18028 H 1642.78 0.245994 1.67908 0
M  V30 18029 H 1641.55 0.236479 3.90585 0
M  V30 18030 H 1641.17 -1.46565 3.696 0
M  V30 18031 N 1642.17 -1.57451 -0.0684915 0
M  V30 18032 C 1643.45 -1.78483 -0.800209 0
M  V30 18033 C 1643.83 -0.793438 -1.95621 0
M  V30 18034 O 1643.17 0.172756 -2.27846 0
M  V30 18035 C 1643.38 -3.25069 -1.27008 0
M  V30 18036 C 1644.73 -3.8899 -1.70212 0
M  V30 18037 O 1645.76 -3.2898 -1.36566 0
M  V30 18038 O 1644.62 -4.94569 -2.32515 0
M  V30 18039 H 1641.71 -0.732598 -0.383704 0
M  V30 18040 H 1644.26 -1.69631 -0.0483117 0
M  V30 18041 H 1643.03 -3.88784 -0.443067 0
M  V30 18042 H 1642.65 -3.38657 -2.08319 0
M  V30 18043 N 1643.65 0.339955 -1.5389 0
M  V30 18044 C 1644.9 1.07766 -1.7097 0
M  V30 18045 C 1645.22 1.89064 -0.477486 0
M  V30 18046 O 1644.49 1.89183 0.508579 0
M  V30 18047 H 1643.07 0.400849 -0.630341 0
M  V30 18048 H 1645.73 0.380359 -1.91153 0
M  V30 18049 H 1644.82 1.75301 -2.58217 0
M  V30 18050 N 1645.13 1.45684 0.601159 0
M  V30 18051 C 1646.37 1.4974 1.35729 0
M  V30 18052 C 1646.69 0.143072 1.94474 0
M  V30 18053 O 1645.96 -0.82832 1.77527 0
M  V30 18054 H 1644.54 0.551455 0.503892 0
M  V30 18055 H 1647.21 1.81685 0.705443 0
M  V30 18056 H 1646.3 2.23982 2.17344 0
M  V30 18057 N 1646.6 -0.84422 1.33082 0
M  V30 18058 C 1647.85 -1.59404 1.23585 0
M  V30 18059 C 1648.17 -1.94593 -0.198208 0
M  V30 18060 O 1649.37 -2.68307 -0.415138 0
M  V30 18061 C 1647.83 -2.87489 2.16513 0
M  V30 18062 C 1647.44 -2.59685 3.65059 0
M  V30 18063 C 1649.18 -3.6551 2.15877 0
M  V30 18064 C 1647.09 -3.83834 4.49917 0
M  V30 18065 H 1646.02 -0.598191 0.459003 0
M  V30 18066 H 1648.67 -0.931299 1.58111 0
M  V30 18067 H 1647.05 -3.55276 1.74913 0
M  V30 18068 H 1648.22 -2.00143 4.15065 0
M  V30 18069 H 1646.54 -1.94977 3.6793 0
M  V30 18070 H 1649.14 -4.57654 2.76509 0
M  V30 18071 H 1649.48 -4.00031 1.15244 0
M  V30 18072 H 1650.01 -3.0464 2.55811 0
M  V30 18073 H 1646.75 -3.54448 5.51404 0
M  V30 18074 H 1646.27 -4.42734 4.04656 0
M  V30 18075 H 1647.95 -4.51468 4.63449 0
M  V30 18076 N 1648.08 -1.16463 -1.0618 0
M  V30 18077 C 1649.5 -0.909776 -1.31131 0
M  V30 18078 C 1649.7 0.436686 -1.96711 0
M  V30 18079 O 1648.75 1.17595 -2.23445 0
M  V30 18080 C 1650.07 -2.05967 -2.19084 0
M  V30 18081 C 1651.61 -2.09557 -2.32497 0
M  V30 18082 C 1652.09 -3.23904 -3.23806 0
M  V30 18083 N 1653.58 -3.23628 -3.3139 0
M  V30 18084 C 1654.32 -4.08746 -4.02137 0
M  V30 18085 N 1653.81 -5.03954 -4.75397 0
M  V30 18086 N 1655.6 -3.96729 -3.98199 0
M  V30 18087 H 1647.76 -2.03148 -0.620066 0
M  V30 18088 H 1650.02 -0.886477 -0.335949 0
M  V30 18089 H 1649.72 -3.03227 -1.78174 0
M  V30 18090 H 1649.6 -2.00219 -3.19675 0
M  V30 18091 H 1651.99 -1.12889 -2.72654 0
M  V30 18092 H 1652.07 -2.19369 -1.3157 0
M  V30 18093 H 1651.71 -4.20831 -2.84366 0
M  V30 18094 H 1651.64 -3.11327 -4.24715 0
M  V30 18095 H 1654.13 -2.54687 -2.79182 0
M  V30 18096 H 1654.44 -5.65319 -5.2691 0
M  V30 18097 H 1652.79 -5.07932 -4.74373 0
M  V30 18098 H 1655.98 -3.21652 -3.40085 0
M  V30 18099 H 1656.15 -4.63286 -4.53067 0
M  V30 18100 N 1649.56 1.24734 -0.963288 0
M  V30 18101 C 1650.81 1.91987 -0.618386 0
M  V30 18102 C 1651.12 1.76179 0.849726 0
M  V30 18103 O 1652.33 2.38082 1.30496 0
M  V30 18104 C 1650.78 3.44079 -1.05534 0
M  V30 18105 C 1650.39 3.68582 -2.5466 0
M  V30 18106 C 1652.14 4.17209 -0.783378 0
M  V30 18107 C 1650.04 5.14223 -2.92111 0
M  V30 18108 H 1648.97 0.718836 -0.227575 0
M  V30 18109 H 1651.62 1.41453 -1.1689 0
M  V30 18110 H 1650.01 3.93624 -0.433168 0
M  V30 18111 H 1651.18 3.29655 -3.2197 0
M  V30 18112 H 1649.49 3.08729 -2.79419 0
M  V30 18113 H 1652.09 5.24503 -1.03924 0
M  V30 18114 H 1652.43 4.15355 0.280352 0
M  V30 18115 H 1652.97 3.736 -1.36631 0
M  V30 18116 H 1649.71 5.21195 -3.97537 0
M  V30 18117 H 1649.23 5.54164 -2.29482 0
M  V30 18118 H 1650.91 5.82419 -2.81775 0
M  V30 18119 N 1651.04 0.732878 1.39523 0
M  V30 18120 C 1651.99 0.0806066 2.3246 0
M  V30 18121 C 1652.98 -0.728184 1.5295 0
M  V30 18122 O 1654.19 -0.629608 1.6863 0
M  V30 18123 H 1650.56 0.00726537 0.751965 0
M  V30 18124 H 1652.53 0.880867 2.85102 0
M  V30 18125 C 1651.28 -0.81412 3.38035 0
M  V30 18126 H 1650.6 -0.201168 3.99294 0
M  V30 18127 H 1652.04 -1.23817 4.05519 0
M  V30 18128 C 1650.5 -1.94745 2.74911 0
M  V30 18129 O 1651.03 -3.03989 2.6259 0
M  V30 18130 N 1649.24 -1.73624 2.3303 0
M  V30 18131 H 1648.79 -0.847733 2.43251 0
M  V30 18132 H 1648.74 -2.49629 1.91135 0
M  V30 18133 N 1652.52 -1.50101 0.480349 0
M  V30 18134 C 1653.46 -2.28722 -0.308993 0
M  V30 18135 C 1654.43 -1.34186 -0.978948 0
M  V30 18136 O 1655.62 -1.6313 -0.989602 0
M  V30 18137 C 1652.76 -3.16322 -1.37966 0
M  V30 18138 C 1651.87 -4.25898 -0.723552 0
M  V30 18139 C 1651.01 -5.00741 -1.7729 0
M  V30 18140 C 1650.04 -6.0218 -1.09754 0
M  V30 18141 N 1649.18 -6.70266 -2.09015 0
M  V30 18142 H 1654.02 -2.95722 0.367739 0
M  V30 18143 H 1651.56 -1.45826 0.193197 0
M  V30 18144 H 1653.52 -3.65469 -2.01217 0
M  V30 18145 H 1652.15 -2.51349 -2.02543 0
M  V30 18146 H 1651.2 -3.80394 0.0217507 0
M  V30 18147 H 1652.51 -4.98435 -0.190905 0
M  V30 18148 H 1651.66 -5.53653 -2.48098 0
M  V30 18149 H 1650.4 -4.27931 -2.33937 0
M  V30 18150 H 1649.41 -5.48519 -0.375123 0
M  V30 18151 H 1650.63 -6.76967 -0.537841 0
M  V30 18152 H 1648.58 -6.00242 -2.64662 0
M  V30 18153 H 1648.5 -7.3871 -1.6076 0
M  V30 18154 H 1649.76 -7.27792 -2.79175 0
M  V30 18155 N 1653.99 -0.213323 -1.5615 0
M  V30 18156 C 1654.94 0.716708 -2.21283 0
M  V30 18157 C 1655.94 1.20599 -1.18963 0
M  V30 18158 O 1657.14 1.16677 -1.37064 0
M  V30 18159 H 1653.52 0.249524 -0.709395 0
M  V30 18160 H 1655.49 0.14385 -2.98053 0
M  V30 18161 C 1654.24 1.91775 -2.9003 0
M  V30 18162 H 1653.56 1.55036 -3.68516 0
M  V30 18163 H 1655 2.54646 -3.39016 0
M  V30 18164 C 1653.46 2.768 -1.92051 0
M  V30 18165 O 1653.99 3.75299 -1.43225 0
M  V30 18166 N 1652.19 2.42666 -1.5988 0
M  V30 18167 H 1651.74 1.62622 -1.99779 0
M  V30 18168 H 1651.7 2.99836 -0.945833 0
M  V30 18169 N 1655.47 1.57485 0.0601405 0
M  V30 18170 C 1656.4 2.07525 1.07031 0
M  V30 18171 C 1657.38 0.971136 1.39653 0
M  V30 18172 O 1658.57 1.24456 1.49078 0
M  V30 18173 C 1655.7 2.52888 2.38044 0
M  V30 18174 C 1654.65 3.67282 2.19745 0
M  V30 18175 C 1653.98 3.98741 3.56244 0
M  V30 18176 C 1655.28 4.96896 1.60908 0
M  V30 18177 H 1656.97 2.92173 0.653875 0
M  V30 18178 H 1654.52 1.40555 0.313083 0
M  V30 18179 H 1656.47 2.8651 3.09014 0
M  V30 18180 H 1655.2 1.65284 2.81689 0
M  V30 18181 H 1653.85 3.33961 1.51213 0
M  V30 18182 H 1653.5 3.08249 3.97481 0
M  V30 18183 H 1653.2 4.75775 3.44836 0
M  V30 18184 H 1654.73 4.34869 4.28627 0
M  V30 18185 H 1656.14 5.28674 2.21758 0
M  V30 18186 H 1654.54 5.78332 1.60164 0
M  V30 18187 H 1655.61 4.81518 0.571671 0
M  V30 18188 N 1656.95 -0.331789 1.54068 0
M  V30 18189 C 1658.2 -1.06818 1.71093 0
M  V30 18190 C 1658.51 -1.89438 0.487111 0
M  V30 18191 O 1659.72 -2.66105 0.538544 0
M  V30 18192 C 1658.17 -1.94853 3.02589 0
M  V30 18193 C 1657.78 -1.17384 4.32348 0
M  V30 18194 C 1659.53 -2.68278 3.28979 0
M  V30 18195 C 1657.43 -2.04518 5.54911 0
M  V30 18196 H 1656.36 -0.402501 0.63758 0
M  V30 18197 H 1659.01 -0.326918 1.80564 0
M  V30 18198 H 1657.4 -2.72845 2.87004 0
M  V30 18199 H 1658.57 -0.442208 4.58673 0
M  V30 18200 H 1656.89 -0.556775 4.12661 0
M  V30 18201 H 1659.48 -3.33762 4.1774 0
M  V30 18202 H 1659.83 -3.35476 2.46498 0
M  V30 18203 H 1660.36 -1.97353 3.45394 0
M  V30 18204 H 1657.1 -1.41842 6.3997 0
M  V30 18205 H 1656.62 -2.75438 5.32817 0
M  V30 18206 H 1658.3 -2.63297 5.91002 0
M  V30 18207 N 1658.43 -1.46001 -0.593424 0
M  V30 18208 C 1659.38 -1.55752 -1.70323 0
M  V30 18209 C 1660.35 -0.402466 -1.6115 0
M  V30 18210 O 1661.53 -0.617804 -1.80521 0
M  V30 18211 C 1658.67 -1.54362 -3.08653 0
M  V30 18212 C 1657.78 -2.80523 -3.28529 0
M  V30 18213 C 1656.92 -2.70709 -4.57045 0
M  V30 18214 C 1655.96 -3.91857 -4.70228 0
M  V30 18215 N 1655.09 -3.80494 -5.90059 0
M  V30 18216 H 1659.93 -2.50555 -1.61326 0
M  V30 18217 H 1657.47 -1.24313 -0.786425 0
M  V30 18218 H 1659.43 -1.51542 -3.88704 0
M  V30 18219 H 1658.06 -0.630986 -3.16573 0
M  V30 18220 H 1657.11 -2.93368 -2.42155 0
M  V30 18221 H 1658.42 -3.70341 -3.3414 0
M  V30 18222 H 1657.58 -2.65935 -5.45311 0
M  V30 18223 H 1656.32 -1.78513 -4.53855 0
M  V30 18224 H 1655.32 -3.96975 -3.80383 0
M  V30 18225 H 1656.55 -4.85136 -4.75205 0
M  V30 18226 H 1654.49 -2.91077 -5.87886 0
M  V30 18227 H 1654.41 -4.63958 -5.96891 0
M  V30 18228 H 1655.68 -3.79676 -6.80783 0
M  V30 18229 N 1659.91 0.83715 -1.33527 0
M  V30 18230 C 1661.15 1.58937 -1.24834 0
M  V30 18231 C 1661.48 1.94117 0.185368 0
M  V30 18232 O 1660.75 1.61105 1.11453 0
M  V30 18233 H 1659.33 0.589301 -0.459057 0
M  V30 18234 H 1661.99 1.00038 -1.67267 0
M  V30 18235 H 1661.08 2.51855 -1.84325 0
M  V30 18236 N 1661.38 1.17024 1.05561 0
M  V30 18237 C 1662.33 0.88356 2.13218 0
M  V30 18238 C 1663.3 -0.171025 1.65217 0
M  V30 18239 O 1664.49 -0.0346242 1.90769 0
M  V30 18240 C 1661.63 0.398912 3.42787 0
M  V30 18241 C 1660.74 1.51718 4.04482 0
M  V30 18242 C 1659.87 0.986793 5.21954 0
M  V30 18243 C 1658.91 2.08077 5.75648 0
M  V30 18244 N 1658.05 1.56542 6.84426 0
M  V30 18245 H 1662.89 1.80548 2.37079 0
M  V30 18246 H 1660.43 0.90056 1.16311 0
M  V30 18247 H 1662.39 0.0995018 4.17081 0
M  V30 18248 H 1661.02 -0.48605 3.1912 0
M  V30 18249 H 1660.07 1.9324 3.27662 0
M  V30 18250 H 1661.38 2.34243 4.40377 0
M  V30 18251 H 1660.53 0.641006 6.03304 0
M  V30 18252 H 1659.27 0.130942 4.87524 0
M  V30 18253 H 1658.28 2.43517 4.9293 0
M  V30 18254 H 1659.5 2.94071 6.12127 0
M  V30 18255 H 1657.45 0.732221 6.51901 0
M  V30 18256 H 1657.37 2.32677 7.19303 0
M  V30 18257 H 1658.63 1.24844 7.69438 0
M  V30 18258 N 1662.86 -1.24221 0.969889 0
M  V30 18259 C 1664.11 -1.92638 0.633913 0
M  V30 18260 C 1664.44 -1.75612 -0.829092 0
M  V30 18261 O 1663.72 -1.11057 -1.59677 0
M  V30 18262 C 1664 -3.45583 1.01213 0
M  V30 18263 C 1663.85 -3.71766 2.53199 0
M  V30 18264 C 1665.17 -4.36671 0.548294 0
M  V30 18265 H 1662.29 -0.699608 0.231772 0
M  V30 18266 H 1664.93 -1.46548 1.20929 0
M  V30 18267 H 1663.08 -3.8497 0.522531 0
M  V30 18268 H 1664.75 -3.41925 3.09653 0
M  V30 18269 H 1663 -3.16842 2.963 0
M  V30 18270 H 1663.67 -4.78787 2.74713 0
M  V30 18271 H 1666.14 -4.04672 0.968489 0
M  V30 18272 H 1665.02 -5.42412 0.841472 0
M  V30 18273 H 1665.28 -4.38646 -0.551588 0
M  V30 18274 N 1664.34 -0.740267 -1.39132 0
M  V30 18275 C 1665.62 -0.216602 -1.94397 0
M  V30 18276 C 1666 1.28264 -1.67665 0
M  V30 18277 O 1665.35 2.05075 -1.00778 0
M  V30 18278 C 1665.56 -0.555899 -3.44544 0
M  V30 18279 C 1666.9 -0.50815 -4.21548 0
M  V30 18280 O 1667.93 -0.493401 -3.52766 0
M  V30 18281 O 1666.79 -0.507321 -5.4414 0
M  V30 18282 H 1663.88 -0.0413037 -0.825968 0
M  V30 18283 H 1666.43 -0.819483 -1.48602 0
M  V30 18284 H 1665.2 -1.59187 -3.57457 0
M  V30 18285 H 1664.82 0.0756793 -3.97528 0
M  V30 18286 N 1665.82 1.49844 -0.488302 0
M  V30 18287 C 1667.07 2.01603 0.0624744 0
M  V30 18288 C 1667.38 1.37397 1.39217 0
M  V30 18289 O 1668.59 1.8041 2.0289 0
M  V30 18290 C 1667.04 3.59536 0.161824 0
M  V30 18291 C 1666.65 4.32709 -1.16047 0
M  V30 18292 C 1668.39 4.1928 0.663642 0
M  V30 18293 C 1666.3 5.82468 -1.02397 0
M  V30 18294 H 1665.23 0.753512 0.0271222 0
M  V30 18295 H 1667.88 1.72499 -0.625805 0
M  V30 18296 H 1666.26 3.85301 0.914273 0
M  V30 18297 H 1667.44 4.18655 -1.92522 0
M  V30 18298 H 1665.75 3.84652 -1.59473 0
M  V30 18299 H 1668.35 5.28935 0.783069 0
M  V30 18300 H 1668.69 3.81801 1.65933 0
M  V30 18301 H 1669.23 3.97787 -0.0319078 0
M  V30 18302 H 1665.97 6.2445 -1.99355 0
M  V30 18303 H 1665.49 5.9905 -0.299902 0
M  V30 18304 H 1667.16 6.43229 -0.697538 0
M  V30 18305 N 1667.3 0.221601 1.56034 0
M  V30 18306 C 1668.24 -0.688502 2.20291 0
M  V30 18307 C 1669.21 -1.19028 1.15851 0
M  V30 18308 O 1670.4 -1.24936 1.44206 0
M  V30 18309 C 1667.54 -1.89101 2.88678 0
M  V30 18310 C 1666.65 -1.42812 4.07711 0
M  V30 18311 C 1665.79 -2.5882 4.63881 0
M  V30 18312 C 1664.83 -2.09268 5.75216 0
M  V30 18313 N 1663.96 -3.18549 6.25676 0
M  V30 18314 H 1668.8 -0.133824 2.97699 0
M  V30 18315 H 1666.34 -0.0543007 1.47 0
M  V30 18316 H 1668.3 -2.59704 3.26512 0
M  V30 18317 H 1666.93 -2.41857 2.13788 0
M  V30 18318 H 1665.98 -0.617019 3.75363 0
M  V30 18319 H 1667.29 -1.02478 4.8816 0
M  V30 18320 H 1666.45 -3.37505 5.04158 0
M  V30 18321 H 1665.18 -3.02443 3.82596 0
M  V30 18322 H 1664.19 -1.29045 5.34441 0
M  V30 18323 H 1665.41 -1.66645 6.58336 0
M  V30 18324 H 1663.36 -3.61653 5.47305 0
M  V30 18325 H 1663.28 -2.82466 7.01248 0
M  V30 18326 H 1664.55 -3.97369 6.7061 0
M  V30 18327 N 1668.77 -1.57515 -0.0517878 0
M  V30 18328 C 1670.05 -1.79321 -0.781233 0
M  V30 18329 C 1670.43 -0.814142 -1.94769 0
M  V30 18330 O 1669.78 0.14858 -2.28016 0
M  V30 18331 C 1669.99 -3.26398 -1.23553 0
M  V30 18332 C 1671.34 -3.90773 -1.66077 0
M  V30 18333 O 1672.36 -3.3041 -1.33069 0
M  V30 18334 O 1671.22 -4.97008 -2.27257 0
M  V30 18335 H 1668.31 -0.736627 -0.375912 0
M  V30 18336 H 1670.86 -1.69673 -0.0303173 0
M  V30 18337 H 1669.63 -3.89232 -0.401806 0
M  V30 18338 H 1669.26 -3.40848 -2.04716 0
M  V30 18339 N 1670.25 0.323614 -1.54242 0
M  V30 18340 C 1671.5 1.06314 -1.727 0
M  V30 18341 C 1671.83 1.87674 -0.499225 0
M  V30 18342 O 1671.11 1.87862 0.503805 0
M  V30 18343 C 1671.39 1.9879 -3.00258 0
M  V30 18344 C 1671.24 1.2076 -4.33286 0
M  V30 18345 C 1672.56 2.98314 -3.23569 0
M  V30 18346 H 1669.68 0.385101 -0.628384 0
M  V30 18347 H 1672.32 0.339801 -1.86937 0
M  V30 18348 H 1670.47 2.60468 -2.88251 0
M  V30 18349 H 1672.15 0.615425 -4.57176 0
M  V30 18350 H 1670.39 0.509878 -4.30793 0
M  V30 18351 H 1671.06 1.88662 -5.18759 0
M  V30 18352 H 1673.54 2.46757 -3.35037 0
M  V30 18353 H 1672.41 3.60204 -4.14179 0
M  V30 18354 H 1672.67 3.7077 -2.40795 0
M  V30 18355 N 1671.73 1.46313 0.585673 0
M  V30 18356 C 1672.68 1.57018 1.71604 0
M  V30 18357 C 1673.67 0.438838 1.63617 0
M  V30 18358 O 1674.88 0.615597 1.69146 0
M  V30 18359 H 1671.25 0.493616 0.567316 0
M  V30 18360 H 1673.23 2.52065 1.59706 0
M  V30 18361 C 1671.97 1.57482 3.09992 0
M  V30 18362 H 1671.3 2.43872 3.16806 0
M  V30 18363 H 1672.74 1.69027 3.88852 0
M  V30 18364 C 1671.2 0.302944 3.35535 0
M  V30 18365 O 1671.73 -0.608066 3.97071 0
M  V30 18366 N 1669.93 0.191781 2.89966 0
M  V30 18367 H 1669.48 0.934025 2.4007 0
M  V30 18368 H 1669.44 -0.658341 3.0743 0
M  V30 18369 N 1673.21 -0.830057 1.33969 0
M  V30 18370 C 1674.46 -1.58586 1.25924 0
M  V30 18371 C 1674.78 -1.93732 -0.172685 0
M  V30 18372 O 1674.04 -1.59628 -1.13214 0
M  V30 18373 C 1674.34 -2.90026 2.08853 0
M  V30 18374 C 1674 -2.74204 3.57943 0
M  V30 18375 C 1672.67 -2.69596 3.98587 0
M  V30 18376 C 1675.02 -2.58384 4.52644 0
M  V30 18377 C 1672.35 -2.4708 5.32135 0
M  V30 18378 C 1674.7 -2.37401 5.86365 0
M  V30 18379 C 1673.36 -2.31201 6.26181 0
M  V30 18380 H 1672.63 -0.580306 0.460789 0
M  V30 18381 H 1675.28 -0.960978 1.65643 0
M  V30 18382 H 1673.58 -3.56767 1.6194 0
M  V30 18383 H 1675.28 -3.47576 1.99979 0
M  V30 18384 H 1671.87 -2.78627 3.25676 0
M  V30 18385 H 1676.06 -2.60972 4.22146 0
M  V30 18386 H 1671.31 -2.40733 5.62012 0
M  V30 18387 H 1675.49 -2.24146 6.59342 0
M  V30 18388 H 1673.11 -2.13515 7.29599 0
M  V30 18389 N 1674.69 -1.17582 -1.04939 0
M  V30 18390 C 1676.1 -0.923633 -1.30158 0
M  V30 18391 C 1676.3 0.415798 -1.97163 0
M  V30 18392 O 1675.36 1.15218 -2.2468 0
M  V30 18393 C 1676.67 -2.0828 -2.16887 0
M  V30 18394 C 1678.22 -2.12011 -2.30262 0
M  V30 18395 C 1678.7 -3.2732 -3.20352 0
M  V30 18396 N 1680.19 -3.27125 -3.27939 0
M  V30 18397 C 1680.92 -4.12988 -3.97779 0
M  V30 18398 N 1680.42 -5.08968 -4.70025 0
M  V30 18399 N 1682.21 -4.0093 -3.93969 0
M  V30 18400 H 1674.36 -2.03794 -0.598485 0
M  V30 18401 H 1676.62 -0.889991 -0.326528 0
M  V30 18402 H 1676.33 -3.051 -1.74948 0
M  V30 18403 H 1676.2 -2.03599 -3.17533 0
M  V30 18404 H 1678.59 -1.15774 -2.71441 0
M  V30 18405 H 1678.67 -2.20752 -1.29236 0
M  V30 18406 H 1678.32 -4.23823 -2.79886 0
M  V30 18407 H 1678.25 -3.15814 -4.21389 0
M  V30 18408 H 1680.74 -2.57634 -2.76465 0
M  V30 18409 H 1681.05 -5.70876 -5.20885 0
M  V30 18410 H 1679.4 -5.12935 -4.68959 0
M  V30 18411 H 1682.59 -3.2524 -3.36654 0
M  V30 18412 H 1682.76 -4.68065 -4.48128 0
M  V30 18413 N 1676.17 1.23705 -0.976463 0
M  V30 18414 C 1677.4 1.95771 -0.660107 0
M  V30 18415 C 1677.8 1.72541 0.776297 0
M  V30 18416 O 1677.15 1.01134 1.53355 0
M  V30 18417 C 1677.21 3.4892 -0.865752 0
M  V30 18418 C 1676.87 3.95862 -2.28347 0
M  V30 18419 C 1677.87 4.04844 -3.26186 0
M  V30 18420 C 1675.55 4.28953 -2.61351 0
M  V30 18421 C 1677.55 4.46265 -4.55111 0
M  V30 18422 C 1675.24 4.70057 -3.905 0
M  V30 18423 C 1676.23 4.78679 -4.87192 0
M  V30 18424 O 1675.92 5.1886 -6.14035 0
M  V30 18425 H 1675.65 0.630202 -0.244585 0
M  V30 18426 H 1678.21 1.58255 -1.30937 0
M  V30 18427 H 1676.44 3.86372 -0.159321 0
M  V30 18428 H 1678.13 4.02195 -0.547154 0
M  V30 18429 H 1678.89 3.79486 -3.02018 0
M  V30 18430 H 1674.77 4.21456 -1.86803 0
M  V30 18431 H 1678.32 4.5291 -5.30583 0
M  V30 18432 H 1674.21 4.94863 -4.14464 0
M  V30 18433 H 1674.98 5.36984 -6.1773 0
M  V30 18434 N 1677.64 0.747635 1.38738 0
M  V30 18435 C 1678.89 0.297962 1.99487 0
M  V30 18436 C 1679.21 -1.1249 1.60016 0
M  V30 18437 O 1680.41 -1.67474 2.13693 0
M  V30 18438 C 1678.87 0.48178 3.56661 0
M  V30 18439 C 1678.48 1.91335 4.05086 0
M  V30 18440 C 1680.22 0.0945202 4.24395 0
M  V30 18441 C 1678.13 2.04604 5.54879 0
M  V30 18442 H 1677.06 0.107655 0.746275 0
M  V30 18443 H 1679.71 0.923325 1.58578 0
M  V30 18444 H 1678.09 -0.212676 3.95428 0
M  V30 18445 H 1679.26 2.64079 3.77623 0
M  V30 18446 H 1677.58 2.25497 3.50057 0
M  V30 18447 H 1680.18 0.172508 5.34422 0
M  V30 18448 H 1680.52 -0.952037 4.05268 0
M  V30 18449 H 1681.05 0.740606 3.90845 0
M  V30 18450 H 1677.79 3.07493 5.78903 0
M  V30 18451 H 1677.31 1.36313 5.84105 0
M  V30 18452 H 1678.99 1.83317 6.20487 0
M  V30 18453 N 1679.12 -1.49583 0.496242 0
M  V30 18454 C 1680.35 -2.07342 -0.0490986 0
M  V30 18455 C 1680.77 -1.35474 -1.30493 0
M  V30 18456 O 1680.13 -0.410005 -1.76603 0
M  V30 18457 C 1680.18 -3.59427 -0.290601 0
M  V30 18458 O 1679.28 -3.89111 -1.36626 0
M  V30 18459 H 1678.62 -0.663562 0.0241141 0
M  V30 18460 H 1681.15 -1.92452 0.6945 0
M  V30 18461 H 1681.16 -4.04627 -0.523549 0
M  V30 18462 H 1679.84 -4.11147 0.626959 0
M  V30 18463 H 1678.41 -3.55726 -1.11864 0
M  V30 18464 N 1680.6 -0.229873 -1.55915 0
M  V30 18465 C 1682.02 0.125347 -1.59107 0
M  V30 18466 C 1682.22 1.58293 -1.24682 0
M  V30 18467 O 1681.27 2.32452 -0.986018 0
M  V30 18468 C 1682.58 -0.208461 -2.99977 0
M  V30 18469 C 1684.13 -0.151373 -3.12634 0
M  V30 18470 C 1684.61 -0.458972 -4.55694 0
M  V30 18471 N 1686.1 -0.408847 -4.61392 0
M  V30 18472 C 1686.83 -0.620239 -5.70036 0
M  V30 18473 N 1686.33 -0.893851 -6.8701 0
M  V30 18474 N 1688.12 -0.552107 -5.59382 0
M  V30 18475 H 1680.27 -1.18062 -1.76565 0
M  V30 18476 H 1682.54 -0.473821 -0.821095 0
M  V30 18477 H 1682.24 -1.22043 -3.29846 0
M  V30 18478 H 1682.12 0.472591 -3.74228 0
M  V30 18479 H 1684.5 0.851249 -2.82556 0
M  V30 18480 H 1684.58 -0.866024 -2.40694 0
M  V30 18481 H 1684.23 -1.45907 -4.86491 0
M  V30 18482 H 1684.16 0.276965 -5.25871 0
M  V30 18483 H 1686.65 -0.205404 -3.77341 0
M  V30 18484 H 1686.96 -1.04303 -7.65729 0
M  V30 18485 H 1685.31 -0.931138 -6.88734 0
M  V30 18486 H 1688.5 -0.338518 -4.66874 0
M  V30 18487 H 1688.67 -0.720256 -6.43985 0
M  V30 18488 N 1682.08 1.5754 0.0434337 0
M  V30 18489 C 1683.49 1.77071 0.591836 0
M  V30 18490 C 1683.84 0.85911 1.76391 0
M  V30 18491 O 1682.96 0.0502725 2.16342 0
M  V30 18492 C 1683.56 3.21111 1.08041 0
M  V30 18493 C 1682.12 3.41889 1.57445 0
M  V30 18494 C 1681.27 2.72641 0.506166 0
M  V30 18495 H 1684.22 1.57644 -0.182792 0
M  V30 18496 H 1684.24 3.26834 1.94833 0
M  V30 18497 H 1683.75 3.87435 0.227153 0
M  V30 18498 H 1681.85 2.80721 2.45003 0
M  V30 18499 H 1681.96 4.50452 1.63185 0
M  V30 18500 H 1680.33 2.36002 0.957878 0
M  V30 18501 H 1681.11 3.41638 -0.337389 0
M  V30 18502 N 1683.56 -0.31543 1.54411 0
M  V30 18503 C 1684.5 -1.4086 1.85098 0
M  V30 18504 C 1685.5 -1.53172 0.723518 0
M  V30 18505 O 1686.7 -1.55461 0.907303 0
M  V30 18506 H 1683.08 -0.47022 0.586853 0
M  V30 18507 H 1685.05 -1.12207 2.765 0
M  V30 18508 C 1683.8 -2.76948 2.10227 0
M  V30 18509 H 1683.12 -2.68251 2.96448 0
M  V30 18510 H 1684.56 -3.52486 2.35647 0
M  V30 18511 C 1683.02 -3.24758 0.896312 0
M  V30 18512 O 1683.55 -4.0155 0.109609 0
M  V30 18513 N 1681.76 -2.81901 0.705685 0
M  V30 18514 H 1681.3 -2.19571 1.34708 0
M  V30 18515 H 1681.26 -3.14242 -0.0996804 0
M  V30 18516 N 1685.03 -1.46622 -0.577906 0
M  V30 18517 C 1686.28 -1.52406 -1.33792 0
M  V30 18518 C 1686.61 -0.177147 -1.9339 0
M  V30 18519 O 1685.89 0.81197 -1.76741 0
M  V30 18520 C 1686.17 -2.62633 -2.46366 0
M  V30 18521 C 1686.02 -4.06871 -1.91771 0
M  V30 18522 C 1687.34 -2.68909 -3.4839 0
M  V30 18523 H 1684.46 -0.554833 -0.485107 0
M  V30 18524 H 1687.1 -1.78582 -0.648739 0
M  V30 18525 H 1685.25 -2.40444 -3.05154 0
M  V30 18526 H 1686.93 -4.40361 -1.37403 0
M  V30 18527 H 1685.17 -4.16124 -1.2257 0
M  V30 18528 H 1685.84 -4.79734 -2.73056 0
M  V30 18529 H 1688.32 -2.88868 -2.9949 0
M  V30 18530 H 1687.19 -3.47846 -4.24611 0
M  V30 18531 H 1687.45 -1.75148 -4.05925 0
M  V30 18532 N 1686.51 0.822941 -1.34408 0
M  V30 18533 C 1687.92 1.39571 -1.24003 0
M  V30 18534 C 1688.27 1.95739 0.134483 0
M  V30 18535 O 1687.4 1.90054 1.03481 0
M  V30 18536 C 1687.99 2.53726 -2.24519 0
M  V30 18537 C 1686.55 3.06911 -2.17905 0
M  V30 18538 C 1685.7 1.79783 -2.11124 0
M  V30 18539 H 1688.65 0.62734 -1.45774 0
M  V30 18540 H 1688.67 3.31818 -1.86217 0
M  V30 18541 H 1688.18 2.12816 -3.24547 0
M  V30 18542 H 1686.29 3.52326 -1.21233 0
M  V30 18543 H 1686.4 3.66003 -3.09158 0
M  V30 18544 H 1684.76 2.00679 -1.56845 0
M  V30 18545 H 1685.55 1.41047 -3.12987 0
M  V30 18546 N 1687.99 1.18137 1.04314 0
M  V30 18547 C 1689.24 0.969582 1.76867 0
M  V30 18548 C 1689.55 -0.501982 1.89049 0
M  V30 18549 O 1690.76 -0.832218 2.58431 0
M  V30 18550 C 1689.21 1.68571 3.17981 0
M  V30 18551 C 1688.82 3.19641 3.13901 0
M  V30 18552 C 1690.57 1.55664 3.94929 0
M  V30 18553 C 1688.47 3.83904 4.49858 0
M  V30 18554 H 1687.4 0.359141 0.662973 0
M  V30 18555 H 1690.05 1.41484 1.16852 0
M  V30 18556 H 1688.44 1.16821 3.78377 0
M  V30 18557 H 1689.61 3.78395 2.62971 0
M  V30 18558 H 1687.93 3.32661 2.50451 0
M  V30 18559 H 1690.52 2.01039 4.95467 0
M  V30 18560 H 1690.87 0.508522 4.13182 0
M  V30 18561 H 1691.4 2.0468 3.41103 0
M  V30 18562 H 1688.14 4.88751 4.36809 0
M  V30 18563 H 1687.66 3.29937 5.00901 0
M  V30 18564 H 1689.34 3.86623 5.18779 0
M  V30 18565 N 1689.47 -1.23186 0.98301 0
M  V30 18566 C 1690.7 -1.95418 0.670479 0
M  V30 18567 C 1691.11 -1.7295 -0.767135 0
M  V30 18568 O 1690.45 -1.01946 -1.52816 0
M  V30 18569 C 1690.51 -3.48456 0.884244 0
M  V30 18570 C 1690.18 -3.94645 2.30443 0
M  V30 18571 C 1691.17 -4.03108 3.28328 0
M  V30 18572 C 1688.86 -4.27561 2.63622 0
M  V30 18573 C 1690.85 -4.43845 4.57471 0
M  V30 18574 C 1688.54 -4.67979 3.92987 0
M  V30 18575 C 1689.54 -4.76088 4.89723 0
M  V30 18576 O 1689.22 -5.15597 6.16778 0
M  V30 18577 H 1688.96 -0.628896 0.247924 0
M  V30 18578 H 1691.51 -1.57559 1.31774 0
M  V30 18579 H 1689.74 -3.86282 0.179809 0
M  V30 18580 H 1691.43 -4.01899 0.568475 0
M  V30 18581 H 1692.2 -3.77879 3.04027 0
M  V30 18582 H 1688.07 -4.2046 1.89036 0
M  V30 18583 H 1691.62 -4.5009 5.32978 0
M  V30 18584 H 1687.52 -4.92658 4.17083 0
M  V30 18585 H 1688.28 -5.33701 6.20569 0
M  V30 18586 N 1690.95 -0.754982 -1.38339 0
M  V30 18587 C 1691.89 -0.128193 -2.30444 0
M  V30 18588 C 1692.86 0.70813 -1.50249 0
M  V30 18589 O 1694.05 0.663969 -1.78875 0
M  V30 18590 C 1691.19 0.757921 -3.36674 0
M  V30 18591 C 1690.3 -0.093181 -4.31899 0
M  V30 18592 C 1689.44 0.796067 -5.25201 0
M  V30 18593 C 1688.48 -0.0585854 -6.12072 0
M  V30 18594 N 1687.61 0.7877 -6.97667 0
M  V30 18595 H 1692.45 -0.919204 -2.83469 0
M  V30 18596 H 1689.99 -0.464921 -1.3956 0
M  V30 18597 H 1691.95 1.28632 -3.96875 0
M  V30 18598 H 1690.58 1.5147 -2.85055 0
M  V30 18599 H 1689.63 -0.73922 -3.73148 0
M  V30 18600 H 1690.94 -0.753146 -4.93081 0
M  V30 18601 H 1690.1 1.39158 -5.90525 0
M  V30 18602 H 1688.83 1.48976 -4.64389 0
M  V30 18603 H 1687.84 -0.666754 -5.45742 0
M  V30 18604 H 1689.06 -0.749361 -6.74953 0
M  V30 18605 H 1687.01 1.46632 -6.39402 0
M  V30 18606 H 1686.93 0.184662 -7.55774 0
M  V30 18607 H 1688.2 1.36814 -7.674 0
M  V30 18608 N 1692.42 1.49318 -0.504168 0
M  V30 18609 C 1693.37 2.30832 0.286237 0
M  V30 18610 C 1694.37 1.39585 0.959818 0
M  V30 18611 O 1695.57 1.5662 0.887146 0
M  V30 18612 H 1691.95 0.743738 0.111167 0
M  V30 18613 H 1693.92 2.95412 -0.421206 0
M  V30 18614 C 1692.67 3.2101 1.33596 0
M  V30 18615 H 1691.99 3.91152 0.827057 0
M  V30 18616 H 1693.43 3.8098 1.86093 0
M  V30 18617 C 1691.89 2.40836 2.35583 0
M  V30 18618 O 1692.42 2.11476 3.41527 0
M  V30 18619 N 1690.63 2.02802 2.08134 0
M  V30 18620 H 1690.17 2.26879 1.21999 0
M  V30 18621 H 1690.13 1.49467 2.76599 0
M  V30 18622 N 1693.9 0.238138 1.5579 0
M  V30 18623 C 1694.83 -0.659451 2.23994 0
M  V30 18624 C 1695.81 -1.18817 1.21723 0
M  V30 18625 O 1697 -1.22913 1.50353 0
M  V30 18626 C 1694.13 -1.86043 2.93267 0
M  V30 18627 C 1693.08 -1.46485 4.02152 0
M  V30 18628 C 1692.41 -2.74595 4.58805 0
M  V30 18629 C 1693.71 -0.642448 5.18334 0
M  V30 18630 H 1695.4 -0.0907522 2.99262 0
M  V30 18631 H 1692.95 -0.042209 1.43938 0
M  V30 18632 H 1694.9 -2.49393 3.39678 0
M  V30 18633 H 1693.63 -2.45436 2.15473 0
M  V30 18634 H 1692.28 -0.854729 3.56497 0
M  V30 18635 H 1691.93 -3.32168 3.77721 0
M  V30 18636 H 1691.63 -2.48854 5.32302 0
M  V30 18637 H 1693.16 -3.38859 5.07944 0
M  V30 18638 H 1694.57 -1.18005 5.61024 0
M  V30 18639 H 1692.97 -0.481458 5.98166 0
M  V30 18640 H 1694.04 0.347298 4.83655 0
M  V30 18641 N 1695.38 -1.57561 -0.0350783 0
M  V30 18642 C 1696.61 -1.93644 -0.742753 0
M  V30 18643 C 1697.03 -0.837655 -1.68419 0
M  V30 18644 O 1696.39 0.207069 -1.80114 0
M  V30 18645 C 1696.44 -3.28779 -1.48111 0
M  V30 18646 O 1695.54 -3.20604 -2.59398 0
M  V30 18647 H 1694.88 -0.633103 -0.200192 0
M  V30 18648 H 1697.41 -2.04599 0.00765271 0
M  V30 18649 H 1697.42 -3.63527 -1.85236 0
M  V30 18650 H 1696.1 -4.08316 -0.790608 0
M  V30 18651 H 1694.67 -2.97477 -2.2486 0
M  V30 18652 N 1696.86 0.307236 -1.54576 0
M  V30 18653 C 1698.11 1.04321 -1.73561 0
M  V30 18654 C 1698.43 1.87475 -0.51803 0
M  V30 18655 O 1697.69 1.89202 0.500093 0
M  V30 18656 C 1697.99 1.9831 -2.97335 0
M  V30 18657 C 1697.65 1.31182 -4.31395 0
M  V30 18658 C 1696.32 1.12607 -4.67839 0
M  V30 18659 C 1698.67 0.831413 -5.14526 0
M  V30 18660 C 1696 0.446652 -5.84997 0
M  V30 18661 C 1698.35 0.165743 -6.32383 0
M  V30 18662 C 1697.01 -0.0320176 -6.67492 0
M  V30 18663 H 1696.28 0.381739 -0.635103 0
M  V30 18664 H 1698.93 0.318705 -1.88829 0
M  V30 18665 H 1697.23 2.77267 -2.76821 0
M  V30 18666 H 1698.93 2.55314 -3.09218 0
M  V30 18667 H 1695.52 1.46645 -4.02732 0
M  V30 18668 H 1699.7 0.962653 -4.86874 0
M  V30 18669 H 1694.96 0.282387 -6.10748 0
M  V30 18670 H 1699.13 -0.214434 -6.9607 0
M  V30 18671 H 1696.76 -0.560493 -7.58131 0
M  V30 18672 N 1698.34 1.46926 0.570122 0
M  V30 18673 C 1699.56 1.5648 1.35358 0
M  V30 18674 C 1699.98 0.210356 1.87624 0
M  V30 18675 O 1699.34 -0.794388 1.64304 0
M  V30 18676 C 1699.39 2.57973 2.53243 0
M  V30 18677 O 1699.11 3.88157 2.03139 0
M  V30 18678 C 1700.61 2.77587 3.4563 0
M  V30 18679 H 1697.83 0.528787 0.413068 0
M  V30 18680 H 1700.37 1.9244 0.691895 0
M  V30 18681 H 1698.53 2.24982 3.15375 0
M  V30 18682 H 1698.94 4.43506 2.80004 0
M  V30 18683 H 1700.42 3.52495 4.24795 0
M  V30 18684 H 1700.89 1.84944 3.98362 0
M  V30 18685 H 1701.5 3.11724 2.89324 0
M  V30 18686 N 1699.82 -0.815801 1.34842 0
M  V30 18687 C 1701.06 -1.58588 1.28955 0
M  V30 18688 C 1701.42 -1.91512 -0.136769 0
M  V30 18689 O 1702.62 -2.6689 -0.319903 0
M  V30 18690 C 1700.89 -2.84584 2.1621 0
M  V30 18691 S 1702.45 -3.75069 2.27747 0
M  V30 18692 H 1699.27 -0.543479 0.458422 0
M  V30 18693 H 1701.87 -0.96306 1.70133 0
M  V30 18694 H 1700.57 -2.58405 3.18834 0
M  V30 18695 H 1700.11 -3.51857 1.75954 0
M  V30 18696 H 1702.12 -4.74373 1.45549 0
M  V30 18697 N 1701.29 -1.18689 -1.03686 0
M  V30 18698 C 1702.57 -0.89414 -1.73967 0
M  V30 18699 C 1702.95 0.602104 -2.02331 0
M  V30 18700 O 1702.3 1.55794 -1.67154 0
M  V30 18701 C 1702.51 -1.74549 -3.02214 0
M  V30 18702 C 1703.86 -1.97487 -3.75878 0
M  V30 18703 O 1704.88 -1.71634 -3.12122 0
M  V30 18704 O 1703.74 -2.41031 -4.90476 0
M  V30 18705 H 1700.83 -0.332501 -0.757213 0
M  V30 18706 H 1703.38 -1.29461 -1.09717 0
M  V30 18707 H 1702.15 -2.75961 -2.77419 0
M  V30 18708 H 1701.77 -1.34378 -3.74204 0
M  V30 18709 N 1702.77 1.22662 -0.989529 0
M  V30 18710 C 1704 1.95883 -0.681511 0
M  V30 18711 C 1704.42 1.72646 0.746646 0
M  V30 18712 O 1703.78 1.00358 1.5099 0
M  V30 18713 C 1703.83 3.46773 -0.988975 0
M  V30 18714 O 1702.93 4.12311 -0.0858485 0
M  V30 18715 H 1702.27 0.612916 -0.255401 0
M  V30 18716 H 1704.8 1.5585 -1.32559 0
M  V30 18717 H 1704.81 3.97273 -0.929426 0
M  V30 18718 H 1703.49 3.63011 -2.02967 0
M  V30 18719 H 1702.06 3.7236 -0.200592 0
M  V30 18720 N 1704.25 0.762308 1.37937 0
M  V30 18721 C 1705.2 0.140412 2.30372 0
M  V30 18722 C 1706.17 -0.700152 1.50622 0
M  V30 18723 O 1707.35 -0.654474 1.79224 0
M  V30 18724 C 1704.49 -0.740056 3.37071 0
M  V30 18725 C 1703.6 0.116084 4.31844 0
M  V30 18726 C 1702.74 -0.768203 5.25616 0
M  V30 18727 C 1701.78 0.0910442 6.12032 0
M  V30 18728 N 1700.92 -0.75069 6.98075 0
M  V30 18729 H 1705.76 0.934224 2.82977 0
M  V30 18730 H 1703.29 0.472316 1.39311 0
M  V30 18731 H 1705.25 -1.26525 3.97551 0
M  V30 18732 H 1703.88 -1.49956 2.85855 0
M  V30 18733 H 1702.93 0.758999 3.72751 0
M  V30 18734 H 1704.24 0.779285 4.92675 0
M  V30 18735 H 1703.4 -1.36024 5.91255 0
M  V30 18736 H 1702.14 -1.46511 4.65173 0
M  V30 18737 H 1701.14 0.695687 5.45381 0
M  V30 18738 H 1702.37 0.785145 6.74546 0
M  V30 18739 H 1700.31 -1.43239 6.40171 0
M  V30 18740 H 1700.23 -0.144579 7.55862 0
M  V30 18741 H 1701.5 -1.32742 7.68114 0
M  V30 18742 N 1705.73 -1.49049 0.51208 0
M  V30 18743 C 1706.67 -2.29326 -0.260408 0
M  V30 18744 C 1707.64 -1.36232 -0.950265 0
M  V30 18745 O 1708.83 -1.65193 -0.954777 0
M  V30 18746 C 1705.97 -3.19177 -1.31225 0
M  V30 18747 C 1705.08 -4.27336 -0.63305 0
M  V30 18748 C 1704.22 -5.04389 -1.66628 0
M  V30 18749 C 1703.26 -6.04372 -0.969561 0
M  V30 18750 N 1702.39 -6.74549 -1.94751 0
M  V30 18751 H 1707.23 -2.94876 0.430384 0
M  V30 18752 H 1704.77 -1.45383 0.224086 0
M  V30 18753 H 1706.73 -3.69655 -1.9342 0
M  V30 18754 H 1705.36 -2.55588 -1.97166 0
M  V30 18755 H 1704.41 -3.80262 0.102433 0
M  V30 18756 H 1705.72 -4.98727 -0.0851363 0
M  V30 18757 H 1704.88 -5.58791 -2.36299 0
M  V30 18758 H 1703.62 -4.32797 -2.24807 0
M  V30 18759 H 1702.62 -5.49191 -0.25869 0
M  V30 18760 H 1703.85 -6.77955 -0.394125 0
M  V30 18761 H 1701.79 -6.0572 -2.5187 0
M  V30 18762 H 1701.71 -7.41954 -1.45055 0
M  V30 18763 H 1702.98 -7.3355 -2.63675 0
M  V30 18764 N 1707.21 -0.246397 -1.55662 0
M  V30 18765 C 1708.43 0.382645 -2.03331 0
M  V30 18766 C 1708.85 1.51573 -1.12566 0
M  V30 18767 O 1708.21 1.81962 -0.139992 0
M  V30 18768 C 1708.26 0.890907 -3.5035 0
M  V30 18769 O 1707.98 -0.197023 -4.37657 0
M  V30 18770 C 1709.48 1.59069 -4.13778 0
M  V30 18771 H 1706.7 0.0909834 -0.664803 0
M  V30 18772 H 1709.24 -0.370113 -2.01123 0
M  V30 18773 H 1707.4 1.59385 -3.53094 0
M  V30 18774 H 1707.81 0.188846 -5.2416 0
M  V30 18775 H 1709.29 1.89805 -5.18342 0
M  V30 18776 H 1709.76 2.51248 -3.60238 0
M  V30 18777 H 1710.37 0.932333 -4.14955 0
M  V30 18778 N 1708.68 1.57577 0.026722 0
M  V30 18779 C 1709.91 1.9364 0.728771 0
M  V30 18780 C 1710.33 0.846352 1.68767 0
M  V30 18781 O 1709.68 -0.177038 1.81639 0
M  V30 18782 C 1709.73 3.29644 1.48381 0
M  V30 18783 O 1709.46 4.34462 0.563393 0
M  V30 18784 C 1710.96 3.80004 2.2828 0
M  V30 18785 H 1708.18 0.639025 0.204666 0
M  V30 18786 H 1710.72 2.04493 -0.016449 0
M  V30 18787 H 1708.88 3.20181 2.18089 0
M  V30 18788 H 1709.29 5.12982 1.09315 0
M  V30 18789 H 1710.76 4.77671 2.76649 0
M  V30 18790 H 1711.24 3.11319 3.09802 0
M  V30 18791 H 1711.85 3.92558 1.63642 0
M  V30 18792 N 1710.16 -0.299034 1.54737 0
M  V30 18793 C 1711.12 -1.35199 1.85078 0
M  V30 18794 C 1712.12 -1.4359 0.723788 0
M  V30 18795 O 1713.31 -1.43191 0.992067 0
M  V30 18796 C 1710.45 -2.73659 2.03282 0
M  V30 18797 H 1711.64 -1.09538 2.7918 0
M  V30 18798 H 1709.19 -0.535803 1.46829 0
M  V30 18799 H 1709.93 -3.04539 1.11475 0
M  V30 18800 H 1709.71 -2.68959 2.85313 0
M  V30 18801 H 1711.2 -3.49787 2.28119 0
M  V30 18802 N 1711.64 -1.47227 -0.562322 0
M  V30 18803 C 1712.89 -1.52851 -1.31604 0
M  V30 18804 C 1713.2 -0.193236 -1.94643 0
M  V30 18805 O 1714.41 -0.127429 -2.71201 0
M  V30 18806 C 1712.86 -2.69422 -2.3862 0
M  V30 18807 C 1712.47 -4.09457 -1.81794 0
M  V30 18808 C 1714.22 -2.84334 -3.15205 0
M  V30 18809 C 1712.12 -5.17337 -2.8656 0
M  V30 18810 H 1711.05 -0.568923 -0.494816 0
M  V30 18811 H 1713.7 -1.73489 -0.597819 0
M  V30 18812 H 1712.09 -2.42153 -3.13333 0
M  V30 18813 H 1713.26 -4.46606 -1.13487 0
M  V30 18814 H 1711.57 -3.99387 -1.17811 0
M  V30 18815 H 1714.17 -3.621 -3.93431 0
M  V30 18816 H 1714.51 -1.9259 -3.69073 0
M  V30 18817 H 1715.05 -3.11348 -2.47603 0
M  V30 18818 H 1711.79 -6.1094 -2.37554 0
M  V30 18819 H 1711.31 -4.8471 -3.53293 0
M  V30 18820 H 1712.99 -5.44065 -3.50146 0
M  V30 18821 N 1713.12 0.808639 -1.35273 0
M  V30 18822 C 1714.36 1.56794 -1.28621 0
M  V30 18823 C 1714.7 1.93697 0.139686 0
M  V30 18824 O 1713.97 1.61185 1.08856 0
M  V30 18825 C 1714.25 2.85794 -2.19075 0
M  V30 18826 C 1714.11 2.5538 -3.70271 0
M  V30 18827 C 1715.43 3.87481 -2.08678 0
M  V30 18828 H 1712.55 0.568873 -0.468564 0
M  V30 18829 H 1715.19 0.930499 -1.65655 0
M  V30 18830 H 1713.34 3.40191 -1.87622 0
M  V30 18831 H 1715.01 2.07182 -4.12157 0
M  V30 18832 H 1713.25 1.88605 -3.90654 0
M  V30 18833 H 1713.92 3.47432 -4.28947 0
M  V30 18834 H 1716.4 3.42478 -2.36323 0
M  V30 18835 H 1715.28 4.75523 -2.7417 0
M  V30 18836 H 1715.54 4.29004 -1.06809 0
M  V30 18837 N 1714.6 1.19237 1.03055 0
M  V30 18838 C 1715.84 0.992008 1.76078 0
M  V30 18839 C 1716.17 -0.478535 1.89037 0
M  V30 18840 O 1715.44 -1.34666 1.42274 0
M  V30 18841 H 1714.02 0.364059 0.652281 0
M  V30 18842 H 1716.68 1.50101 1.24321 0
M  V30 18843 H 1715.77 1.43862 2.76966 0
M  V30 18844 N 1716.07 -1.22136 0.99602 0
M  V30 18845 C 1716.98 -2.27869 0.557927 0
M  V30 18846 C 1718 -1.69462 -0.394781 0
M  V30 18847 O 1719.18 -1.99704 -0.26084 0
M  V30 18848 C 1716.24 -3.46501 -0.117434 0
M  V30 18849 C 1715.3 -4.20213 0.878627 0
M  V30 18850 C 1714.54 -5.33181 0.2354 0
M  V30 18851 O 1714.76 -5.62093 -0.969954 0
M  V30 18852 O 1713.69 -5.94486 0.941828 0
M  V30 18853 H 1717.52 -2.67517 1.43765 0
M  V30 18854 H 1715.1 -1.28362 0.764428 0
M  V30 18855 H 1716.99 -4.18476 -0.49559 0
M  V30 18856 H 1715.66 -3.08772 -0.971674 0
M  V30 18857 H 1714.57 -3.50497 1.30777 0
M  V30 18858 H 1715.9 -4.6183 1.70217 0
M  V30 18859 N 1717.55 -0.769612 -1.37531 0
M  V30 18860 C 1718.78 -0.344282 -2.04015 0
M  V30 18861 C 1719.2 1.03281 -1.58046 0
M  V30 18862 O 1718.55 1.65888 -0.760746 0
M  V30 18863 C 1718.6 -0.375922 -3.5954 0
M  V30 18864 O 1718.32 -1.69869 -4.03827 0
M  V30 18865 C 1719.83 0.0612715 -4.43258 0
M  V30 18866 H 1717.05 -0.144584 -0.655238 0
M  V30 18867 H 1719.59 -1.04294 -1.75906 0
M  V30 18868 H 1717.74 0.274136 -3.86429 0
M  V30 18869 H 1718.16 -1.63584 -4.98338 0
M  V30 18870 H 1719.63 -0.012022 -5.51999 0
M  V30 18871 H 1720.11 1.11136 -4.24906 0
M  V30 18872 H 1720.72 -0.560517 -4.2159 0
M  V30 18873 N 1719.03 1.48775 -0.519977 0
M  V30 18874 C 1720.28 2.02092 0.0177154 0
M  V30 18875 C 1720.6 1.40024 1.35714 0
M  V30 18876 O 1719.87 0.562115 1.87662 0
M  V30 18877 H 1718.45 0.746939 0.00953578 0
M  V30 18878 H 1721.11 1.82595 -0.681535 0
M  V30 18879 H 1720.21 3.11815 0.133431 0
M  V30 18880 N 1720.51 0.254649 1.55529 0
M  V30 18881 C 1721.73 -0.374795 2.03985 0
M  V30 18882 C 1722.16 -1.50188 1.13249 0
M  V30 18883 O 1721.52 -1.80855 0.126963 0
M  V30 18884 C 1721.56 -0.852635 3.50375 0
M  V30 18885 O 1720.67 -1.9616 3.6276 0
M  V30 18886 H 1720.01 -0.0806157 0.659088 0
M  V30 18887 H 1722.54 0.38297 2.00984 0
M  V30 18888 H 1722.55 -1.15381 3.91345 0
M  V30 18889 H 1721.22 -0.0279044 4.15891 0
M  V30 18890 H 1719.8 -1.66453 3.33688 0
M  V30 18891 N 1721.99 -1.57589 -0.0183649 0
M  V30 18892 C 1723.23 -1.89382 -0.705612 0
M  V30 18893 C 1723.56 -0.853698 -1.7532 0
M  V30 18894 O 1722.83 0.111322 -1.95583 0
M  V30 18895 H 1721.41 -0.698943 -0.263605 0
M  V30 18896 H 1724.07 -1.94891 0.0182168 0
M  V30 18897 H 1723.16 -2.88587 -1.18845 0
M  V30 18898 N 1723.46 0.290824 -1.54893 0
M  V30 18899 C 1724.41 1.35899 -1.86548 0
M  V30 18900 C 1725.38 1.49909 -0.71529 0
M  V30 18901 O 1726.57 1.64604 -0.964886 0
M  V30 18902 C 1723.71 2.71735 -2.1273 0
M  V30 18903 C 1722.82 2.66092 -3.40322 0
M  V30 18904 C 1721.95 3.93989 -3.56295 0
M  V30 18905 C 1720.99 3.82785 -4.77642 0
M  V30 18906 N 1720.13 5.02479 -4.90367 0
M  V30 18907 H 1724.97 1.08205 -2.77661 0
M  V30 18908 H 1722.51 0.523144 -1.37483 0
M  V30 18909 H 1724.47 3.50745 -2.25907 0
M  V30 18910 H 1723.1 2.97669 -1.24871 0
M  V30 18911 H 1722.15 1.78891 -3.35712 0
M  V30 18912 H 1723.46 2.53706 -4.29458 0
M  V30 18913 H 1722.61 4.81438 -3.69192 0
M  V30 18914 H 1721.35 4.09221 -2.6531 0
M  V30 18915 H 1720.36 2.9372 -4.64767 0
M  V30 18916 H 1721.58 3.69088 -5.70044 0
M  V30 18917 H 1719.53 5.18155 -4.02308 0
M  V30 18918 H 1719.45 4.92555 -5.7352 0
M  V30 18919 H 1720.71 5.9155 -5.07631 0
M  V30 18920 N 1724.94 1.47523 0.554506 0
M  V30 18921 C 1726.17 1.58154 1.34172 0
M  V30 18922 C 1726.59 0.233124 1.8665 0
M  V30 18923 O 1725.95 -0.791439 1.63113 0
M  V30 18924 C 1726 2.61242 2.48566 0
M  V30 18925 O 1725.1 2.167 3.50877 0
M  V30 18926 H 1724.44 0.531184 0.398421 0
M  V30 18927 H 1726.97 1.93324 0.669841 0
M  V30 18928 H 1726.98 2.81746 2.95098 0
M  V30 18929 H 1725.66 3.59148 2.09727 0
M  V30 18930 H 1724.24 2.06305 3.10632 0
M  V30 18931 N 1726.42 -0.801453 1.357 0
M  V30 18932 C 1727.65 -1.59001 1.32386 0
M  V30 18933 C 1728.06 -1.88548 -0.0975432 0
M  V30 18934 O 1727.42 -1.49199 -1.05099 0
M  V30 18935 C 1727.47 -2.91822 2.13359 0
M  V30 18936 O 1727.19 -2.63554 3.49958 0
M  V30 18937 C 1728.69 -3.86169 2.17689 0
M  V30 18938 H 1725.91 -0.493557 0.45458 0
M  V30 18939 H 1728.46 -0.995616 1.78627 0
M  V30 18940 H 1726.61 -3.47763 1.70704 0
M  V30 18941 H 1727.03 -3.48397 3.92071 0
M  V30 18942 H 1728.5 -4.76461 2.78727 0
M  V30 18943 H 1728.98 -4.23134 1.17704 0
M  V30 18944 H 1729.58 -3.36163 2.60527 0
M  V30 18945 N 1727.9 -1.19782 -1.02421 0
M  V30 18946 C 1729.15 -1.00331 -1.75897 0
M  V30 18947 C 1729.47 0.465413 -1.8885 0
M  V30 18948 O 1728.73 1.36182 -1.40545 0
M  V30 18949 C 1729.03 -1.62297 -3.18425 0
M  V30 18950 C 1728.69 -3.12059 -3.25468 0
M  V30 18951 C 1727.36 -3.52931 -3.27098 0
M  V30 18952 C 1729.71 -4.08065 -3.24241 0
M  V30 18953 C 1727.04 -4.88351 -3.25162 0
M  V30 18954 C 1729.39 -5.43421 -3.23846 0
M  V30 18955 C 1728.05 -5.83717 -3.23775 0
M  V30 18956 H 1727.32 -0.367139 -0.643654 0
M  V30 18957 H 1729.97 -1.49094 -1.2018 0
M  V30 18958 H 1728.27 -1.05777 -3.77251 0
M  V30 18959 H 1729.97 -1.44772 -3.73955 0
M  V30 18960 H 1726.56 -2.79496 -3.24931 0
M  V30 18961 H 1730.74 -3.77528 -3.22159 0
M  V30 18962 H 1726 -5.18845 -3.23434 0
M  V30 18963 H 1730.17 -6.17566 -3.21847 0
M  V30 18964 H 1727.8 -6.88623 -3.22029 0
M  V30 18965 N 1729.38 1.21606 -1.00248 0
M  V30 18966 C 1730.31 2.22528 -0.505624 0
M  V30 18967 C 1731.29 1.56553 0.439305 0
M  V30 18968 O 1732.47 1.84979 0.362615 0
M  V30 18969 C 1729.6 3.37655 0.26586 0
M  V30 18970 C 1728.65 4.21874 -0.626492 0
M  V30 18971 S 1729.48 4.9314 -2.08743 0
M  V30 18972 C 1730.63 6.11699 -1.32571 0
M  V30 18973 H 1730.87 2.64329 -1.36079 0
M  V30 18974 H 1728.4 1.31434 -0.810219 0
M  V30 18975 H 1730.36 4.04402 0.70491 0
M  V30 18976 H 1729.02 2.94342 1.09642 0
M  V30 18977 H 1728.21 5.0399 -0.0323809 0
M  V30 18978 H 1727.81 3.60308 -1.00271 0
M  V30 18979 H 1730.11 6.74853 -0.598298 0
M  V30 18980 H 1731.05 6.75541 -2.12249 0
M  V30 18981 H 1731.46 5.58293 -0.834785 0
M  V30 18982 N 1730.86 0.776895 1.37121 0
M  V30 18983 C 1731.8 0.154521 2.32086 0
M  V30 18984 C 1732.8 -0.679155 1.5519 0
M  V30 18985 O 1734 -0.575641 1.70547 0
M  V30 18986 H 1730.38 0.0311849 0.751353 0
M  V30 18987 H 1732.35 0.971125 2.82156 0
M  V30 18988 C 1731.1 -0.706165 3.40454 0
M  V30 18989 H 1730.42 -0.0740341 3.99731 0
M  V30 18990 H 1731.86 -1.10853 4.09253 0
M  V30 18991 C 1730.32 -1.85901 2.80967 0
M  V30 18992 O 1730.85 -2.95482 2.72128 0
M  V30 18993 N 1729.06 -1.66122 2.38436 0
M  V30 18994 H 1728.6 -0.769915 2.45825 0
M  V30 18995 H 1728.56 -2.43422 1.9898 0
M  V30 18996 N 1732.33 -1.48497 0.527859 0
M  V30 18997 C 1733.26 -2.32414 -0.224891 0
M  V30 18998 C 1734.24 -1.41959 -0.93711 0
M  V30 18999 O 1735.43 -1.70847 -0.923302 0
M  V30 19000 C 1732.56 -3.23106 -1.27356 0
M  V30 19001 C 1731.51 -4.2257 -0.679611 0
M  V30 19002 C 1730.84 -5.02381 -1.83077 0
M  V30 19003 C 1732.14 -5.21144 0.347269 0
M  V30 19004 H 1733.83 -2.95598 0.475632 0
M  V30 19005 H 1731.38 -1.42148 0.230182 0
M  V30 19006 H 1733.33 -3.80639 -1.8081 0
M  V30 19007 H 1732.06 -2.57919 -2.00363 0
M  V30 19008 H 1730.72 -3.66221 -0.166608 0
M  V30 19009 H 1730.36 -4.3362 -2.54918 0
M  V30 19010 H 1730.06 -5.697 -1.43929 0
M  V30 19011 H 1731.59 -5.62765 -2.36914 0
M  V30 19012 H 1733 -5.73213 -0.100107 0
M  V30 19013 H 1731.4 -5.96503 0.656021 0
M  V30 19014 H 1732.47 -4.6841 1.25379 0
M  V30 19015 N 1733.81 -0.262893 -1.55392 0
M  V30 19016 C 1734.74 0.623732 -2.25015 0
M  V30 19017 C 1735.72 1.16865 -1.23598 0
M  V30 19018 O 1736.91 1.20505 -1.5229 0
M  V30 19019 C 1734.04 1.81353 -2.9619 0
M  V30 19020 C 1732.99 1.40069 -4.04431 0
M  V30 19021 C 1732.32 2.67261 -4.63115 0
M  V30 19022 C 1733.62 0.559905 -5.1929 0
M  V30 19023 H 1735.31 0.0431306 -2.99369 0
M  V30 19024 H 1732.86 0.0193043 -1.43987 0
M  V30 19025 H 1734.81 2.43958 -3.43602 0
M  V30 19026 H 1733.53 2.41977 -2.1935 0
M  V30 19027 H 1732.19 0.797905 -3.57811 0
M  V30 19028 H 1731.84 3.26117 -3.82958 0
M  V30 19029 H 1731.54 2.40354 -5.36194 0
M  V30 19030 H 1733.07 3.30735 -5.1327 0
M  V30 19031 H 1734.48 1.09064 -5.6283 0
M  V30 19032 H 1732.88 0.386234 -5.98856 0
M  V30 19033 H 1733.95 -0.424199 -4.83041 0
M  V30 19034 N 1735.29 1.57597 0.0100073 0
M  V30 19035 C 1736.22 2.10825 1.00375 0
M  V30 19036 C 1737.2 1.01507 1.36493 0
M  V30 19037 O 1738.39 1.29136 1.45043 0
M  V30 19038 C 1735.52 2.60334 2.29878 0
M  V30 19039 C 1734.47 3.74087 2.07949 0
M  V30 19040 C 1733.8 4.09873 3.43378 0
M  V30 19041 C 1735.1 5.01764 1.45018 0
M  V30 19042 H 1736.79 2.94105 0.560591 0
M  V30 19043 H 1734.34 1.4148 0.268208 0
M  V30 19044 H 1736.29 2.96196 2.99743 0
M  V30 19045 H 1735.01 1.74162 2.76288 0
M  V30 19046 H 1733.67 3.38603 1.40512 0
M  V30 19047 H 1733.32 3.20739 3.87473 0
M  V30 19048 H 1733.02 4.86505 3.29525 0
M  V30 19049 H 1734.54 4.48285 4.14575 0
M  V30 19050 H 1735.96 5.35462 2.04826 0
M  V30 19051 H 1734.35 5.83135 1.41683 0
M  V30 19052 H 1735.42 4.83093 0.41819 0
M  V30 19053 N 1736.77 -0.282606 1.55045 0
M  V30 19054 C 1738.18 -0.629284 1.4667 0
M  V30 19055 C 1738.38 -1.89931 0.672932 0
M  V30 19056 O 1737.44 -2.518 0.187946 0
M  V30 19057 C 1738.75 -0.765174 2.90802 0
M  V30 19058 C 1740.3 -0.859859 3.00958 0
M  V30 19059 C 1740.78 -1.0276 4.46323 0
M  V30 19060 N 1742.27 -1.09336 4.50111 0
M  V30 19061 C 1743 -1.24178 5.59792 0
M  V30 19062 N 1742.5 -1.358 6.7936 0
M  V30 19063 N 1744.29 -1.27212 5.47516 0
M  V30 19064 H 1736.44 0.551592 2.05113 0
M  V30 19065 H 1738.7 0.185277 0.929718 0
M  V30 19066 H 1738.41 0.0974312 3.51565 0
M  V30 19067 H 1738.28 -1.64848 3.39271 0
M  V30 19068 H 1740.67 -1.71294 2.40297 0
M  V30 19069 H 1740.75 0.0478484 2.55755 0
M  V30 19070 H 1740.4 -0.179219 5.07584 0
M  V30 19071 H 1740.33 -1.94981 4.89173 0
M  V30 19072 H 1742.82 -1.01633 3.63977 0
M  V30 19073 H 1743.13 -1.46932 7.58703 0
M  V30 19074 H 1741.48 -1.32822 6.8219 0
M  V30 19075 H 1744.67 -1.17756 4.53046 0
M  V30 19076 H 1744.84 -1.38435 6.3304 0
M  V30 19077 N 1738.25 -1.47815 -0.546675 0
M  V30 19078 C 1739.49 -1.5498 -1.30336 0
M  V30 19079 C 1739.82 -0.216533 -1.93291 0
M  V30 19080 O 1739.08 0.791622 -1.78974 0
M  V30 19081 C 1739.37 -2.6242 -2.42632 0
M  V30 19082 C 1739.04 -4.05375 -1.97439 0
M  V30 19083 C 1737.7 -4.44287 -1.84831 0
M  V30 19084 C 1740.05 -4.9503 -1.6308 0
M  V30 19085 C 1737.38 -5.70678 -1.36174 0
M  V30 19086 C 1739.73 -6.21894 -1.1589 0
M  V30 19087 C 1738.4 -6.59678 -1.01886 0
M  V30 19088 H 1737.67 -0.567112 -0.476933 0
M  V30 19089 H 1740.32 -1.81461 -0.611907 0
M  V30 19090 H 1738.62 -2.29736 -3.17378 0
M  V30 19091 H 1740.32 -2.65184 -3.00796 0
M  V30 19092 H 1736.91 -3.74635 -2.08199 0
M  V30 19093 H 1741.09 -4.65657 -1.71689 0
M  V30 19094 H 1736.35 -5.98693 -1.24004 0
M  V30 19095 H 1740.52 -6.9077 -0.883691 0
M  V30 19096 H 1738.15 -7.57504 -0.639614 0
M  V30 19097 N 1739.72 0.794246 -1.36123 0
M  V30 19098 C 1740.95 1.58068 -1.33035 0
M  V30 19099 C 1741.36 1.88979 0.0915079 0
M  V30 19100 O 1740.7 1.50212 1.05745 0
M  V30 19101 C 1740.77 2.93087 -2.08184 0
M  V30 19102 C 1740.43 2.84929 -3.57302 0
M  V30 19103 C 1741.43 2.57507 -4.51648 0
M  V30 19104 C 1739.11 3.03657 -4.00122 0
M  V30 19105 C 1741.11 2.48908 -5.86791 0
M  V30 19106 C 1738.79 2.94681 -5.35356 0
M  V30 19107 C 1739.79 2.67344 -6.28503 0
M  V30 19108 O 1739.48 2.58353 -7.61255 0
M  V30 19109 H 1739.21 0.497096 -0.458118 0
M  V30 19110 H 1741.77 0.994066 -1.79743 0
M  V30 19111 H 1740 3.53779 -1.56131 0
M  V30 19112 H 1741.68 3.54323 -1.98015 0
M  V30 19113 H 1742.45 2.42744 -4.19881 0
M  V30 19114 H 1738.33 3.23943 -3.27997 0
M  V30 19115 H 1741.87 2.27491 -6.59465 0
M  V30 19116 H 1737.77 3.09005 -5.66733 0
M  V30 19117 H 1738.54 2.7387 -7.71322 0
M  V30 19118 N 1741.2 1.20323 1.01785 0
M  V30 19119 C 1742.48 0.921703 1.72522 0
M  V30 19120 C 1742.86 -0.569838 2.03264 0
M  V30 19121 O 1742.21 -1.53115 1.69611 0
M  V30 19122 C 1742.42 1.79335 2.99399 0
M  V30 19123 C 1743.76 2.03442 3.72688 0
M  V30 19124 O 1744.79 1.76578 3.09352 0
M  V30 19125 O 1743.65 2.48803 4.86579 0
M  V30 19126 H 1740.74 0.344505 0.751828 0
M  V30 19127 H 1743.29 1.31191 1.07644 0
M  V30 19128 H 1742.06 2.80339 2.72994 0
M  V30 19129 H 1741.68 1.40314 3.72018 0
M  V30 19130 N 1742.68 -1.21073 1.00892 0
M  V30 19131 C 1743.61 -2.25847 0.592897 0
M  V30 19132 C 1744.59 -1.6561 -0.38824 0
M  V30 19133 O 1745.78 -1.92238 -0.275361 0
M  V30 19134 C 1742.91 -3.47214 -0.0773439 0
M  V30 19135 C 1741.86 -4.19994 0.82398 0
M  V30 19136 C 1741.19 -5.34696 0.0199341 0
M  V30 19137 C 1742.49 -4.76964 2.12844 0
M  V30 19138 H 1744.18 -2.609 1.46873 0
M  V30 19139 H 1741.73 -1.25412 0.707656 0
M  V30 19140 H 1743.68 -4.19684 -0.379889 0
M  V30 19141 H 1742.4 -3.11303 -0.987833 0
M  V30 19142 H 1741.06 -3.49379 1.11041 0
M  V30 19143 H 1740.71 -4.95028 -0.891966 0
M  V30 19144 H 1740.41 -5.84319 0.620102 0
M  V30 19145 H 1741.93 -6.09974 -0.276336 0
M  V30 19146 H 1743.35 -5.41293 1.88878 0
M  V30 19147 H 1741.74 -5.36992 2.67879 0
M  V30 19148 H 1742.81 -3.96129 2.79659 0
M  V30 19149 N 1744.16 -0.784156 -1.36707 0
M  V30 19150 C 1745.11 -0.177044 -2.3012 0
M  V30 19151 C 1746.08 0.6761 -1.51717 0
M  V30 19152 O 1747.26 0.625878 -1.80243 0
M  V30 19153 C 1744.4 0.686337 -3.38206 0
M  V30 19154 C 1743.51 -0.184772 -4.31605 0
M  V30 19155 C 1742.65 0.684485 -5.26772 0
M  V30 19156 C 1741.69 -0.188402 -6.1181 0
M  V30 19157 N 1740.82 0.639537 -6.99181 0
M  V30 19158 H 1745.66 -0.979125 -2.81455 0
M  V30 19159 H 1743.2 -0.494419 -1.38542 0
M  V30 19160 H 1745.16 1.20185 -3.99514 0
M  V30 19161 H 1743.79 1.4539 -2.88204 0
M  V30 19162 H 1742.84 -0.818204 -3.71496 0
M  V30 19163 H 1744.15 -0.857567 -4.91373 0
M  V30 19164 H 1743.31 1.26601 -5.93344 0
M  V30 19165 H 1742.05 1.39092 -4.67445 0
M  V30 19166 H 1741.05 -0.782364 -5.44205 0
M  V30 19167 H 1742.28 -0.89236 -6.73212 0
M  V30 19168 H 1740.22 1.33036 -6.42369 0
M  V30 19169 H 1740.14 0.0243097 -7.55996 0
M  V30 19170 H 1741.41 1.20505 -7.70129 0
M  V30 19171 N 1745.64 1.48215 -0.535727 0
M  V30 19172 C 1746.58 2.31387 0.237209 0
M  V30 19173 C 1747.58 1.41589 0.929995 0
M  V30 19174 O 1748.78 1.58466 0.853725 0
M  V30 19175 H 1745.16 0.745928 0.0953663 0
M  V30 19176 H 1747.13 2.94452 -0.483772 0
M  V30 19177 C 1745.88 3.23771 1.26757 0
M  V30 19178 H 1745.2 3.92818 0.743902 0
M  V30 19179 H 1746.64 3.84841 1.7797 0
M  V30 19180 C 1745.1 2.45779 2.30422 0
M  V30 19181 O 1745.63 2.18673 3.36964 0
M  V30 19182 N 1743.84 2.07171 2.03785 0
M  V30 19183 H 1743.38 2.29416 1.17159 0
M  V30 19184 H 1743.34 1.55301 2.73366 0
M  V30 19185 N 1747.11 0.27113 1.5525 0
M  V30 19186 C 1748.39 -0.398374 1.915 0
M  V30 19187 C 1748.77 -1.74026 1.19491 0
M  V30 19188 O 1748.12 -2.26242 0.320425 0
M  V30 19189 C 1748.33 -0.542589 3.44756 0
M  V30 19190 C 1749.68 -0.827326 4.16462 0
M  V30 19191 O 1750.7 -0.627548 3.50628 0
M  V30 19192 O 1749.56 -1.20917 5.32955 0
M  V30 19193 H 1746.65 -0.217479 0.797892 0
M  V30 19194 H 1749.2 0.316988 1.66713 0
M  V30 19195 H 1747.97 0.401926 3.8923 0
M  V30 19196 H 1747.6 -1.30757 3.75484 0
M  V30 19197 N 1748.59 -1.576 -0.00164943 0
M  V30 19198 C 1749.54 -2.04799 -1.00207 0
M  V30 19199 C 1750.53 -0.9424 -1.30413 0
M  V30 19200 O 1751.72 -1.20618 -1.29539 0
M  V30 19201 C 1748.85 -2.55349 -2.29459 0
M  V30 19202 C 1747.93 -3.72782 -2.02224 0
M  V30 19203 N 1748.32 -4.84528 -1.45142 0
M  V30 19204 C 1746.62 -3.80681 -2.32375 0
M  V30 19205 C 1747.32 -5.65975 -1.34339 0
M  V30 19206 N 1746.3 -5.11927 -1.82844 0
M  V30 19207 H 1750.1 -2.88608 -0.555191 0
M  V30 19208 H 1747.62 -1.6107 -0.20738 0
M  V30 19209 H 1749.61 -2.87438 -3.01969 0
M  V30 19210 H 1748.27 -1.72957 -2.74802 0
M  V30 19211 H 1749.28 -5.05412 -1.13045 0
M  V30 19212 H 1745.96 -3.09141 -2.80603 0
M  V30 19213 H 1747.35 -6.65782 -0.904622 0
M  V30 19214 N 1750.07 0.274379 -1.55193 0
M  V30 19215 C 1751.32 1.00394 -1.7494 0
M  V30 19216 C 1751.63 1.87499 -0.557084 0
M  V30 19217 O 1752.84 2.63923 -0.636936 0
M  V30 19218 C 1751.29 1.83489 -3.09612 0
M  V30 19219 C 1750.9 1.01257 -4.36407 0
M  V30 19220 C 1752.65 2.55883 -3.38709 0
M  V30 19221 C 1750.55 1.83782 -5.62119 0
M  V30 19222 H 1749.48 0.378561 -0.65208 0
M  V30 19223 H 1752.13 0.259678 -1.81653 0
M  V30 19224 H 1750.52 2.62005 -2.96933 0
M  V30 19225 H 1751.69 0.27167 -4.59998 0
M  V30 19226 H 1750.01 0.403235 -4.14443 0
M  V30 19227 H 1752.6 3.18028 -4.2984 0
M  V30 19228 H 1752.95 3.26096 -2.58779 0
M  V30 19229 H 1753.48 1.84398 -3.5248 0
M  V30 19230 H 1750.22 1.17992 -6.44793 0
M  V30 19231 H 1749.74 2.55473 -5.42673 0
M  V30 19232 H 1751.42 2.41181 -6.00367 0
M  V30 19233 N 1751.55 1.48103 0.538828 0
M  V30 19234 C 1752.8 1.54925 1.29156 0
M  V30 19235 C 1753.11 0.224177 1.94311 0
M  V30 19236 O 1754.32 0.170559 2.70964 0
M  V30 19237 C 1752.77 2.73184 2.34304 0
M  V30 19238 C 1752.38 4.12297 1.75257 0
M  V30 19239 C 1754.12 2.89313 3.10642 0
M  V30 19240 C 1752.03 5.2183 2.78294 0
M  V30 19241 H 1750.96 0.576723 0.485702 0
M  V30 19242 H 1753.61 1.74418 0.570142 0
M  V30 19243 H 1751.99 2.47107 3.09441 0
M  V30 19244 H 1753.17 4.48355 1.06368 0
M  V30 19245 H 1751.48 4.0121 1.11442 0
M  V30 19246 H 1754.08 3.68313 3.87621 0
M  V30 19247 H 1754.42 1.98438 3.65962 0
M  V30 19248 H 1754.96 3.15248 2.42618 0
M  V30 19249 H 1751.7 6.14642 2.27805 0
M  V30 19250 H 1751.22 4.90269 3.45537 0
M  V30 19251 H 1752.89 5.49567 3.41446 0
M  V30 19252 N 1753.03 -0.787016 1.36542 0
M  V30 19253 C 1753.96 -1.91399 1.33749 0
M  V30 19254 C 1754.94 -1.68817 0.208559 0
M  V30 19255 O 1756.12 -1.89896 0.406574 0
M  V30 19256 C 1753.25 -3.28457 1.12842 0
M  V30 19257 C 1752.21 -3.65568 2.22585 0
M  V30 19258 C 1751.53 -5.01002 1.86818 0
M  V30 19259 C 1752.83 -3.73902 3.64684 0
M  V30 19260 H 1754.53 -1.93993 2.2805 0
M  V30 19261 H 1752.07 -0.931937 1.09777 0
M  V30 19262 H 1754.03 -4.06919 1.09522 0
M  V30 19263 H 1752.75 -3.26256 0.149918 0
M  V30 19264 H 1751.41 -2.89405 2.25035 0
M  V30 19265 H 1751.06 -4.95325 0.875361 0
M  V30 19266 H 1750.76 -5.26802 2.60294 0
M  V30 19267 H 1752.28 -5.81881 1.85058 0
M  V30 19268 H 1753.69 -4.4255 3.64448 0
M  V30 19269 H 1752.09 -4.11188 4.37086 0
M  V30 19270 H 1753.16 -2.74946 3.99416 0
M  V30 19271 N 1754.5 -1.20861 -1.01145 0
M  V30 19272 C 1755.45 -0.962085 -2.09792 0
M  V30 19273 C 1756.42 0.109588 -1.65738 0
M  V30 19274 O 1757.61 -0.0362022 -1.90766 0
M  V30 19275 C 1754.75 -0.52586 -3.4107 0
M  V30 19276 C 1753.86 -1.66626 -3.98572 0
M  V30 19277 C 1752.99 -1.17983 -5.17932 0
M  V30 19278 C 1752.03 -2.29298 -5.67529 0
M  V30 19279 N 1751.17 -1.81836 -6.78145 0
M  V30 19280 H 1756.01 -1.89222 -2.30215 0
M  V30 19281 H 1753.55 -0.943108 -1.12889 0
M  V30 19282 H 1755.51 -0.25423 -4.16425 0
M  V30 19283 H 1754.14 0.367275 -3.20704 0
M  V30 19284 H 1753.19 -2.05268 -3.20264 0
M  V30 19285 H 1754.5 -2.50426 -4.3138 0
M  V30 19286 H 1753.65 -0.864477 -6.0051 0
M  V30 19287 H 1752.39 -0.311793 -4.86702 0
M  V30 19288 H 1751.4 -2.61644 -4.83552 0
M  V30 19289 H 1752.62 -3.16587 -6.00791 0
M  V30 19290 H 1750.57 -0.973665 -6.48734 0
M  V30 19291 H 1750.49 -2.59213 -7.10172 0
M  V30 19292 H 1751.75 -1.53315 -7.64274 0
M  V30 19293 N 1755.98 1.20536 -1.01532 0
M  V30 19294 C 1756.93 2.2531 -0.577786 0
M  V30 19295 C 1757.92 1.65017 0.382843 0
M  V30 19296 O 1759.13 1.78214 0.252904 0
M  V30 19297 H 1755.51 0.732872 -0.168532 0
M  V30 19298 H 1757.48 2.59544 -1.4724 0
M  V30 19299 C 1756.23 3.47631 0.0694263 0
M  V30 19300 H 1755.55 3.94302 -0.660748 0
M  V30 19301 H 1756.99 4.22645 0.338706 0
M  V30 19302 C 1755.45 3.1031 1.31185 0
M  V30 19303 O 1755.98 3.21729 2.40527 0
M  V30 19304 N 1754.18 2.64871 1.19547 0
M  V30 19305 H 1753.73 2.55779 0.305741 0
M  V30 19306 H 1753.69 2.4027 2.02775 0
M  V30 19307 N 1757.46 0.791395 1.36289 0
M  V30 19308 C 1758.74 0.288602 1.93459 0
M  V30 19309 C 1759.12 -1.21953 1.7231 0
M  V30 19310 O 1758.47 -2.01194 1.0832 0
M  V30 19311 C 1758.68 0.683392 3.42244 0
M  V30 19312 C 1760.02 0.664255 4.19372 0
M  V30 19313 O 1761.05 0.623988 3.50692 0
M  V30 19314 O 1759.91 0.708926 5.41882 0
M  V30 19315 H 1757 0.0719305 0.823866 0
M  V30 19316 H 1759.55 0.874071 1.45458 0
M  V30 19317 H 1758.32 1.72344 3.51302 0
M  V30 19318 H 1757.94 0.0719128 3.97535 0
M  V30 19319 N 1758.94 -1.47929 0.54358 0
M  V30 19320 C 1759.87 -2.26722 -0.259258 0
M  V30 19321 C 1760.85 -1.33195 -0.932623 0
M  V30 19322 O 1762.03 -1.62558 -0.954322 0
M  V30 19323 C 1759.16 -3.09833 -1.36826 0
M  V30 19324 C 1758.21 -4.18836 -0.80488 0
M  V30 19325 S 1759.04 -5.34433 0.337912 0
M  V30 19326 C 1760.2 -6.21105 -0.773234 0
M  V30 19327 H 1760.43 -2.94468 0.409397 0
M  V30 19328 H 1757.96 -1.5084 0.329626 0
M  V30 19329 H 1759.92 -3.5829 -2.00345 0
M  V30 19330 H 1758.58 -2.41476 -2.00869 0
M  V30 19331 H 1757.77 -4.76665 -1.63726 0
M  V30 19332 H 1757.38 -3.73189 -0.246123 0
M  V30 19333 H 1759.67 -6.56629 -1.66865 0
M  V30 19334 H 1760.61 -7.07718 -0.232611 0
M  V30 19335 H 1761.02 -5.54463 -1.05977 0
M  V30 19336 N 1760.42 -0.27936 -1.55104 0
M  V30 19337 C 1761.65 0.339429 -2.04097 0
M  V30 19338 C 1762.06 1.49151 -1.15756 0
M  V30 19339 O 1761.42 1.81624 -0.178558 0
M  V30 19340 C 1761.47 0.816392 -3.52161 0
M  V30 19341 O 1761.19 -0.289812 -4.3714 0
M  V30 19342 C 1762.69 1.50256 -4.17059 0
M  V30 19343 H 1759.91 0.0768615 -0.666583 0
M  V30 19344 H 1762.45 -0.412691 -2.00293 0
M  V30 19345 H 1760.61 1.51859 -3.56395 0
M  V30 19346 H 1761.02 0.0776213 -5.24443 0
M  V30 19347 H 1762.5 1.78767 -5.22251 0
M  V30 19348 H 1762.97 2.4355 -3.65486 0
M  V30 19349 H 1763.58 0.844106 -4.16839 0
M  V30 19350 N 1761.9 1.57599 -0.0067085 0
M  V30 19351 C 1762.84 2.09973 1.00071 0
M  V30 19352 C 1763.84 1.02121 1.35158 0
M  V30 19353 O 1765.04 1.20579 1.33644 0
M  V30 19354 H 1761.42 0.670547 0.340398 0
M  V30 19355 H 1763.39 2.93593 0.533471 0
M  V30 19356 C 1762.14 2.62376 2.28153 0
M  V30 19357 H 1761.46 3.45002 2.02024 0
M  V30 19358 H 1762.9 3.02694 2.96905 0
M  V30 19359 C 1761.36 1.54093 2.99595 0
M  V30 19360 O 1761.89 0.927722 3.9084 0
M  V30 19361 N 1760.1 1.26676 2.61537 0
M  V30 19362 H 1759.64 1.76728 1.87417 0
M  V30 19363 H 1759.6 0.544464 3.0965 0
M  V30 19364 N 1763.37 -0.266145 1.55336 0
M  V30 19365 C 1764.62 -0.996831 1.76265 0
M  V30 19366 C 1764.95 -1.86035 0.567553 0
M  V30 19367 O 1764.2 -1.90462 -0.449754 0
M  V30 19368 C 1764.5 -1.90357 3.02488 0
M  V30 19369 C 1764.17 -1.19699 4.34722 0
M  V30 19370 C 1762.83 -1.00164 4.7066 0
M  V30 19371 C 1765.18 -0.694703 5.16549 0
M  V30 19372 C 1762.51 -0.291394 5.85976 0
M  V30 19373 C 1764.86 0.00198006 6.326 0
M  V30 19374 C 1763.53 0.20898 6.67173 0
M  V30 19375 H 1762.8 -0.364766 0.645001 0
M  V30 19376 H 1765.44 -0.268528 1.89608 0
M  V30 19377 H 1763.75 -2.69831 2.84075 0
M  V30 19378 H 1765.45 -2.47026 3.15878 0
M  V30 19379 H 1762.04 -1.35916 4.06479 0
M  V30 19380 H 1766.22 -0.833229 4.89256 0
M  V30 19381 H 1761.48 -0.120359 6.11282 0
M  V30 19382 H 1765.65 0.398909 6.95257 0
M  V30 19383 H 1763.28 0.761301 7.56378 0
M  V30 19384 N 1764.85 -1.48386 -0.530967 0
M  V30 19385 C 1765.78 -1.58922 -1.65156 0
M  V30 19386 C 1766.8 -0.473583 -1.5576 0
M  V30 19387 O 1767.99 -0.744383 -1.62238 0
M  V30 19388 C 1765.09 -1.50201 -3.03798 0
M  V30 19389 C 1764.26 -2.76787 -3.38685 0
M  V30 19390 C 1763.32 -2.61534 -4.56603 0
M  V30 19391 O 1762.34 -3.35417 -4.59874 0
M  V30 19392 N 1763.55 -1.71087 -5.54716 0
M  V30 19393 H 1766.31 -2.55559 -1.56555 0
M  V30 19394 H 1763.87 -1.45097 -0.718216 0
M  V30 19395 H 1765.86 -1.37693 -3.80556 0
M  V30 19396 H 1764.43 -0.615419 -3.06482 0
M  V30 19397 H 1763.65 -3.03867 -2.51115 0
M  V30 19398 H 1764.94 -3.6077 -3.58779 0
M  V30 19399 H 1764.34 -1.10261 -5.54851 0
M  V30 19400 H 1762.9 -1.64518 -6.30696 0
M  V30 19401 N 1766.33 0.779763 -1.36958 0
M  V30 19402 C 1767.61 1.52679 -1.22264 0
M  V30 19403 C 1767.99 2.10269 0.187164 0
M  V30 19404 O 1767.33 1.94828 1.19391 0
M  V30 19405 C 1767.54 2.61406 -2.31231 0
M  V30 19406 C 1768.89 3.29027 -2.68377 0
M  V30 19407 O 1769.92 2.71696 -2.30347 0
M  V30 19408 O 1768.78 4.3266 -3.33868 0
M  V30 19409 H 1765.87 0.675843 -0.476619 0
M  V30 19410 H 1768.42 0.817416 -1.48716 0
M  V30 19411 H 1767.19 2.16915 -3.25674 0
M  V30 19412 H 1766.81 3.39953 -2.06199 0
M  V30 19413 N 1767.81 1.21396 1.00503 0
M  V30 19414 C 1769.04 1.0556 1.77597 0
M  V30 19415 C 1769.45 -0.397591 1.84975 0
M  V30 19416 O 1768.79 -1.28764 1.31018 0
M  V30 19417 C 1768.85 1.57754 3.23039 0
M  V30 19418 C 1768.51 3.06214 3.39238 0
M  V30 19419 C 1769.51 4.03763 3.27523 0
M  V30 19420 C 1767.2 3.45418 3.6468 0
M  V30 19421 C 1769.19 5.38505 3.41015 0
M  V30 19422 C 1766.88 4.80312 3.77814 0
M  V30 19423 C 1767.88 5.76665 3.65988 0
M  V30 19424 O 1767.56 7.09111 3.78704 0
M  V30 19425 H 1767.3 0.371187 0.564975 0
M  V30 19426 H 1769.85 1.61186 1.27312 0
M  V30 19427 H 1768.08 0.965245 3.74459 0
M  V30 19428 H 1769.77 1.37762 3.81807 0
M  V30 19429 H 1770.53 3.74819 3.07791 0
M  V30 19430 H 1766.41 2.70954 3.72968 0
M  V30 19431 H 1769.96 6.13694 3.317 0
M  V30 19432 H 1765.85 5.08942 3.9705 0
M  V30 19433 H 1766.62 7.16521 3.95651 0
M  V30 19434 N 1769.29 -1.19996 1.0217 0
M  V30 19435 C 1770.22 -2.22392 0.55446 0
M  V30 19436 C 1771.23 -1.58636 -0.36586 0
M  V30 19437 O 1772.42 -1.77751 -0.163394 0
M  V30 19438 C 1769.52 -3.38235 -0.212234 0
M  V30 19439 C 1768.69 -4.31578 0.711253 0
M  V30 19440 C 1767.75 -5.26199 -0.00876314 0
M  V30 19441 O 1766.78 -5.65863 0.615435 0
M  V30 19442 N 1767.98 -5.66169 -1.28192 0
M  V30 19443 H 1770.74 -2.63107 1.43509 0
M  V30 19444 H 1768.31 -1.34589 0.899853 0
M  V30 19445 H 1770.3 -3.98542 -0.703282 0
M  V30 19446 H 1768.87 -2.96369 -0.994205 0
M  V30 19447 H 1768.09 -3.69161 1.38252 0
M  V30 19448 H 1769.38 -4.90861 1.33915 0
M  V30 19449 H 1768.77 -5.35966 -1.8099 0
M  V30 19450 H 1767.33 -6.28762 -1.7176 0
M  V30 19451 N 1770.76 -0.798611 -1.35867 0
M  V30 19452 C 1771.71 -0.191425 -2.31811 0
M  V30 19453 C 1772.71 0.65438 -1.56251 0
M  V30 19454 O 1773.91 0.548435 -1.71441 0
M  V30 19455 H 1770.29 -0.0431343 -0.750762 0
M  V30 19456 H 1772.26 -1.01589 -2.80575 0
M  V30 19457 C 1771.01 0.651912 -3.41534 0
M  V30 19458 H 1770.33 0.0104309 -3.99799 0
M  V30 19459 H 1771.77 1.04328 -4.10964 0
M  V30 19460 C 1770.23 1.81407 -2.83889 0
M  V30 19461 O 1770.76 2.91115 -2.76794 0
M  V30 19462 N 1768.96 1.62308 -2.41049 0
M  V30 19463 H 1768.51 0.730709 -2.47019 0
M  V30 19464 H 1768.47 2.40226 -2.02827 0
M  V30 19465 N 1772.24 1.47639 -0.551417 0
M  V30 19466 C 1773.19 2.31626 0.212654 0
M  V30 19467 C 1774.18 1.42567 0.914925 0
M  V30 19468 O 1775.39 1.59363 0.836869 0
M  V30 19469 H 1771.76 0.746898 0.0874493 0
M  V30 19470 H 1773.74 2.93923 -0.514976 0
M  V30 19471 C 1772.48 3.25098 1.23316 0
M  V30 19472 H 1771.81 3.93585 0.702196 0
M  V30 19473 H 1773.25 3.86707 1.73878 0
M  V30 19474 C 1771.71 2.48209 2.27802 0
M  V30 19475 O 1772.24 2.22235 3.34626 0
M  V30 19476 N 1770.44 2.09321 2.01577 0
M  V30 19477 H 1769.99 2.30645 1.14719 0
M  V30 19478 H 1769.95 1.58191 2.71704 0
M  V30 19479 N 1773.72 0.287581 1.54954 0
M  V30 19480 C 1774.67 -0.610315 2.2445 0
M  V30 19481 C 1775.66 -1.14786 1.24582 0
M  V30 19482 O 1776.87 -1.10005 1.42474 0
M  V30 19483 H 1773.24 -0.215394 0.720493 0
M  V30 19484 H 1775.21 -0.00148121 2.984 0
M  V30 19485 C 1773.96 -1.77719 2.9885 0
M  V30 19486 H 1773.29 -1.37277 3.75493 0
M  V30 19487 H 1774.73 -2.38181 3.50779 0
M  V30 19488 C 1773.19 -2.67321 2.05039 0
M  V30 19489 O 1773.72 -3.68038 1.60968 0
M  V30 19490 N 1771.92 -2.34761 1.71276 0
M  V30 19491 H 1771.47 -1.52905 2.07311 0
M  V30 19492 H 1771.43 -2.94981 1.08781 0
M  V30 19493 N 1775.2 -1.57593 0.0150662 0
M  V30 19494 C 1776.15 -2.10501 -0.989557 0
M  V30 19495 C 1777.14 -1.02836 -1.34615 0
M  V30 19496 O 1778.35 -1.21286 -1.33002 0
M  V30 19497 H 1774.72 -0.672343 -0.336838 0
M  V30 19498 H 1776.69 -2.93871 -0.517893 0
M  V30 19499 C 1775.44 -2.63583 -2.26759 0
M  V30 19500 H 1774.76 -3.46069 -2.00191 0
M  V30 19501 H 1776.2 -3.04264 -2.95295 0
M  V30 19502 C 1774.66 -1.5568 -2.98773 0
M  V30 19503 O 1775.19 -0.948437 -3.90343 0
M  V30 19504 N 1773.4 -1.28062 -2.60861 0
M  V30 19505 H 1772.95 -1.77719 -1.86477 0
M  V30 19506 H 1772.9 -0.560878 -3.09357 0
M  V30 19507 N 1776.68 0.257904 -1.55475 0
M  V30 19508 C 1777.62 1.33893 -1.90198 0
M  V30 19509 C 1778.62 1.50381 -0.779868 0
M  V30 19510 O 1779.82 1.51986 -0.964376 0
M  V30 19511 H 1776.2 0.448115 -0.603901 0
M  V30 19512 H 1778.17 1.01868 -2.80474 0
M  V30 19513 C 1776.92 2.68954 -2.20361 0
M  V30 19514 H 1776.24 2.57064 -3.062 0
M  V30 19515 H 1777.68 3.43498 -2.48567 0
M  V30 19516 C 1776.14 3.21208 -1.01623 0
M  V30 19517 O 1776.67 4.00867 -0.258567 0
M  V30 19518 N 1774.88 2.79088 -0.809825 0
M  V30 19519 H 1774.42 2.1442 -1.42764 0
M  V30 19520 H 1774.38 3.14395 -0.0170171 0
M  V30 19521 N 1778.15 1.48666 0.52309 0
M  V30 19522 C 1779.38 1.60965 1.30787 0
M  V30 19523 C 1779.8 0.272663 1.86113 0
M  V30 19524 O 1779.16 -0.756662 1.64755 0
M  V30 19525 C 1779.21 2.66455 2.42969 0
M  V30 19526 O 1778.31 2.24094 3.46202 0
M  V30 19527 H 1777.66 0.539516 0.387064 0
M  V30 19528 H 1780.19 1.94702 0.628683 0
M  V30 19529 H 1780.2 2.87942 2.89056 0
M  V30 19530 H 1778.87 3.63516 2.02062 0
M  V30 19531 H 1777.45 2.12848 3.06186 0
M  V30 19532 N 1779.63 -0.772489 1.37369 0
M  V30 19533 C 1780.56 -1.89969 1.35772 0
M  V30 19534 C 1781.54 -1.68586 0.226452 0
M  V30 19535 O 1782.73 -1.89454 0.426692 0
M  V30 19536 C 1779.86 -3.27242 1.16319 0
M  V30 19537 C 1778.81 -3.63187 2.2645 0
M  V30 19538 C 1778.14 -4.98992 1.92121 0
M  V30 19539 C 1779.44 -3.70013 3.6863 0
M  V30 19540 H 1781.13 -1.91564 2.30095 0
M  V30 19541 H 1778.68 -0.920241 1.10759 0
M  V30 19542 H 1780.63 -4.05734 1.13832 0
M  V30 19543 H 1779.36 -3.26078 0.184513 0
M  V30 19544 H 1778.01 -2.87001 2.28091 0
M  V30 19545 H 1777.66 -4.94368 0.927848 0
M  V30 19546 H 1777.36 -5.24012 2.65867 0
M  V30 19547 H 1778.89 -5.79886 1.91219 0
M  V30 19548 H 1780.3 -4.38659 3.69122 0
M  V30 19549 H 1778.7 -4.06529 4.41423 0
M  V30 19550 H 1779.77 -2.70694 4.02309 0
M  V30 19551 N 1781.11 -1.21927 -0.998575 0
M  V30 19552 C 1782.36 -1.04194 -1.73987 0
M  V30 19553 C 1782.69 0.4227 -1.89544 0
M  V30 19554 O 1781.96 1.31353 -1.43446 0
M  V30 19555 C 1782.25 -1.74717 -3.14874 0
M  V30 19556 C 1782.1 -3.28741 -3.07001 0
M  V30 19557 C 1783.42 -1.49495 -4.13931 0
M  V30 19558 H 1780.54 -0.379918 -0.631531 0
M  V30 19559 H 1783.18 -1.5019 -1.16374 0
M  V30 19560 H 1781.33 -1.35615 -3.64062 0
M  V30 19561 H 1783 -3.77252 -2.65478 0
M  V30 19562 H 1781.25 -3.58711 -2.43944 0
M  V30 19563 H 1781.92 -3.73258 -4.06672 0
M  V30 19564 H 1784.39 -1.83451 -3.73477 0
M  V30 19565 H 1783.27 -2.01344 -5.10639 0
M  V30 19566 H 1783.53 -0.426324 -4.4004 0
M  V30 19567 N 1782.59 1.19452 -1.02805 0
M  V30 19568 C 1783.52 2.24875 -0.628752 0
M  V30 19569 C 1784.5 1.66207 0.361844 0
M  V30 19570 O 1785.68 1.92652 0.244743 0
M  V30 19571 C 1782.81 3.47293 0.0220954 0
M  V30 19572 C 1781.77 4.1863 -0.890693 0
M  V30 19573 C 1781.09 5.34597 -0.104997 0
M  V30 19574 C 1782.39 4.73518 -2.20405 0
M  V30 19575 H 1784.09 2.5853 -1.51005 0
M  V30 19576 H 1781.63 1.24271 -0.727518 0
M  V30 19577 H 1783.59 4.20235 0.313073 0
M  V30 19578 H 1782.31 3.12835 0.938182 0
M  V30 19579 H 1780.97 3.47568 -1.16585 0
M  V30 19580 H 1780.62 4.96385 0.813098 0
M  V30 19581 H 1780.32 5.83258 -0.712983 0
M  V30 19582 H 1781.84 6.10337 0.179259 0
M  V30 19583 H 1783.26 5.3822 -1.97465 0
M  V30 19584 H 1781.65 5.32663 -2.76388 0
M  V30 19585 H 1782.72 3.9163 -2.85926 0
M  V30 19586 N 1784.07 0.805805 1.35442 0
M  V30 19587 C 1785.01 0.213632 2.29809 0
M  V30 19588 C 1785.98 -0.651878 1.52774 0
M  V30 19589 O 1787.17 -0.597124 1.81216 0
M  V30 19590 C 1784.31 -0.632444 3.39255 0
M  V30 19591 C 1783.42 0.253414 4.31256 0
M  V30 19592 C 1782.56 -0.600593 5.27794 0
M  V30 19593 C 1781.6 0.285712 6.11433 0
M  V30 19594 N 1780.73 -0.528222 7.0011 0
M  V30 19595 H 1785.57 1.02378 2.79862 0
M  V30 19596 H 1783.11 0.516397 1.37738 0
M  V30 19597 H 1785.07 -1.13814 4.01376 0
M  V30 19598 H 1783.7 -1.40786 2.90481 0
M  V30 19599 H 1782.75 0.877202 3.70148 0
M  V30 19600 H 1784.06 0.935631 4.89946 0
M  V30 19601 H 1783.22 -1.17145 5.95283 0
M  V30 19602 H 1781.95 -1.31638 4.69598 0
M  V30 19603 H 1780.96 0.868843 5.42891 0
M  V30 19604 H 1782.18 0.999349 6.71707 0
M  V30 19605 H 1780.13 -1.228 6.44404 0
M  V30 19606 H 1780.05 0.0959658 7.55939 0
M  V30 19607 H 1781.32 -1.08238 7.71949 0
M  V30 19608 N 1785.54 -1.47344 0.559239 0
M  V30 19609 C 1786.49 -2.31735 -0.200368 0
M  V30 19610 C 1787.49 -1.43051 -0.907351 0
M  V30 19611 O 1788.69 -1.59804 -0.828406 0
M  V30 19612 H 1785.07 -0.747351 -0.0834871 0
M  V30 19613 H 1787.04 -2.93645 0.530556 0
M  V30 19614 C 1785.79 -3.25747 -1.2159 0
M  V30 19615 H 1785.11 -3.93952 -0.681314 0
M  V30 19616 H 1786.55 -3.87624 -1.71825 0
M  V30 19617 C 1785.01 -2.49414 -2.26482 0
M  V30 19618 O 1785.54 -2.24006 -3.33443 0
M  V30 19619 N 1783.75 -2.10387 -2.00464 0
M  V30 19620 H 1783.29 -2.3125 -1.13495 0
M  V30 19621 H 1783.25 -1.5963 -2.70861 0
M  V30 19622 N 1787.02 -0.295795 -1.54799 0
M  V30 19623 C 1788.27 0.315473 -2.00331 0
M  V30 19624 C 1788.6 1.53939 -1.18392 0
M  V30 19625 O 1787.88 1.92767 -0.259086 0
M  V30 19626 C 1788.16 0.677227 -3.53674 0
M  V30 19627 C 1788.01 -0.555462 -4.46357 0
M  V30 19628 C 1789.33 1.50576 -4.1354 0
M  V30 19629 H 1786.45 0.113191 -0.728256 0
M  V30 19630 H 1789.09 -0.406858 -1.85593 0
M  V30 19631 H 1787.24 1.29264 -3.66365 0
M  V30 19632 H 1788.91 -1.19397 -4.45581 0
M  V30 19633 H 1787.16 -1.18968 -4.17168 0
M  V30 19634 H 1787.83 -0.25828 -5.51395 0
M  V30 19635 H 1790.3 0.985819 -4.04253 0
M  V30 19636 H 1789.18 1.72766 -5.21002 0
M  V30 19637 H 1789.44 2.49334 -3.65082 0
M  V30 19638 N 1788.5 1.57583 -0.0234236 0
M  V30 19639 C 1789.45 2.11023 0.978379 0
M  V30 19640 C 1790.44 1.03548 1.34067 0
M  V30 19641 O 1791.65 1.2199 1.32357 0
M  V30 19642 H 1788.02 0.674119 0.333267 0
M  V30 19643 H 1790 2.94142 0.502301 0
M  V30 19644 C 1788.74 2.64782 2.25358 0
M  V30 19645 H 1788.07 3.47125 1.98353 0
M  V30 19646 H 1789.51 3.05826 2.93678 0
M  V30 19647 C 1787.97 1.57262 2.97943 0
M  V30 19648 O 1788.5 0.969124 3.89834 0
M  V30 19649 N 1786.7 1.29443 2.60178 0
M  V30 19650 H 1786.25 1.78706 1.85532 0
M  V30 19651 H 1786.21 0.577276 3.09055 0
M  V30 19652 N 1789.98 -0.249655 1.5561 0
M  V30 19653 C 1790.89 -1.33061 1.93215 0
M  V30 19654 C 1791.91 -1.52806 0.832239 0
M  V30 19655 O 1793.08 -1.66482 1.13339 0
M  V30 19656 C 1790.15 -2.66569 2.2168 0
M  V30 19657 C 1789.21 -2.5537 3.45087 0
M  V30 19658 C 1788.44 -3.82511 3.72184 0
M  V30 19659 O 1788.66 -4.84267 3.014 0
M  V30 19660 O 1787.6 -3.81309 4.65711 0
M  V30 19661 H 1791.42 -1.04161 2.85279 0
M  V30 19662 H 1789.01 -0.450177 1.42456 0
M  V30 19663 H 1790.89 -3.45468 2.41308 0
M  V30 19664 H 1789.57 -2.95207 1.32794 0
M  V30 19665 H 1788.47 -1.74766 3.30768 0
M  V30 19666 H 1789.81 -2.31677 4.34266 0
M  V30 19667 N 1791.46 -1.48941 -0.515198 0
M  V30 19668 C 1792.7 -1.5771 -1.27019 0
M  V30 19669 C 1793.03 -0.257484 -1.92788 0
M  V30 19670 O 1792.29 0.753481 -1.80613 0
M  V30 19671 C 1792.59 -2.67508 -2.37011 0
M  V30 19672 C 1792.25 -4.09471 -1.88796 0
M  V30 19673 C 1790.91 -4.48108 -1.75365 0
M  V30 19674 C 1793.27 -4.98378 -1.52543 0
M  V30 19675 C 1790.59 -5.73438 -1.24038 0
M  V30 19676 C 1792.95 -6.24212 -1.02673 0
M  V30 19677 C 1791.61 -6.61691 -0.878703 0
M  V30 19678 H 1790.88 -0.577101 -0.464796 0
M  V30 19679 H 1793.53 -1.82718 -0.573279 0
M  V30 19680 H 1791.83 -2.36417 -3.12433 0
M  V30 19681 H 1793.53 -2.71505 -2.95104 0
M  V30 19682 H 1790.12 -3.78967 -2.00205 0
M  V30 19683 H 1794.3 -4.69194 -1.61773 0
M  V30 19684 H 1789.56 -6.01188 -1.11277 0
M  V30 19685 H 1793.73 -6.9249 -0.73697 0
M  V30 19686 H 1791.36 -7.58691 -0.478792 0
M  V30 19687 N 1792.94 0.765193 -1.37777 0
M  V30 19688 C 1794.16 1.55948 -1.3673 0
M  V30 19689 C 1794.59 1.8805 0.0435817 0
M  V30 19690 O 1793.94 1.49718 1.02246 0
M  V30 19691 C 1793.99 2.84245 -2.21895 0
M  V30 19692 O 1793.1 3.78903 -1.62807 0
M  V30 19693 H 1792.44 0.472127 -0.466897 0
M  V30 19694 H 1794.97 0.946556 -1.81388 0
M  V30 19695 H 1794.98 3.33284 -2.35342 0
M  V30 19696 H 1793.65 2.60209 -3.24444 0
M  V30 19697 H 1792.23 3.37568 -1.58437 0
M  V30 19698 N 1794.41 1.22455 0.992094 0
M  V30 19699 C 1795.36 0.992597 2.10357 0
M  V30 19700 C 1796.36 -0.0645514 1.69277 0
M  V30 19701 O 1797.56 0.0879577 1.79785 0
M  V30 19702 H 1793.94 0.303808 0.687899 0
M  V30 19703 H 1795.91 1.93574 2.27094 0
M  V30 19704 C 1794.66 0.587852 3.42695 0
M  V30 19705 H 1793.98 1.39298 3.74748 0
M  V30 19706 H 1795.42 0.464975 4.21443 0
M  V30 19707 C 1793.88 -0.702681 3.29491 0
M  V30 19708 O 1794.41 -1.7549 3.61339 0
M  V30 19709 N 1792.61 -0.674141 2.82672 0
M  V30 19710 H 1792.16 0.182446 2.56953 0
M  V30 19711 H 1792.12 -1.53789 2.7422 0
M  V30 19712 N 1795.89 -1.18905 1.03437 0
M  V30 19713 C 1796.82 -2.21792 0.578016 0
M  V30 19714 C 1797.84 -1.59015 -0.349014 0
M  V30 19715 O 1799.03 -1.77914 -0.144532 0
M  V30 19716 C 1796.13 -3.38441 -0.176348 0
M  V30 19717 C 1795.3 -4.308 0.756988 0
M  V30 19718 C 1794.36 -5.26179 0.0470478 0
M  V30 19719 O 1793.38 -5.65179 0.675418 0
M  V30 19720 N 1794.59 -5.67497 -1.2218 0
M  V30 19721 H 1797.35 -2.6157 1.46291 0
M  V30 19722 H 1794.91 -1.33627 0.914078 0
M  V30 19723 H 1796.9 -3.99266 -0.660972 0
M  V30 19724 H 1795.47 -2.97406 -0.962715 0
M  V30 19725 H 1794.69 -3.67674 1.4216 0
M  V30 19726 H 1795.98 -4.89413 1.39113 0
M  V30 19727 H 1795.38 -5.37855 -1.75295 0
M  V30 19728 H 1793.94 -6.30548 -1.65081 0
M  V30 19729 N 1797.37 -0.812977 -1.35013 0
M  V30 19730 C 1798.59 -0.407969 -2.03348 0
M  V30 19731 C 1799.02 0.975148 -1.60849 0
M  V30 19732 O 1798.38 1.63267 -0.788256 0
M  V30 19733 C 1798.43 -0.506754 -3.57022 0
M  V30 19734 O 1797.53 0.477322 -4.09628 0
M  V30 19735 H 1796.87 -0.169416 -0.642023 0
M  V30 19736 H 1799.4 -1.10064 -1.72474 0
M  V30 19737 H 1799.41 -0.378883 -4.06237 0
M  V30 19738 H 1798.09 -1.51557 -3.87302 0
M  V30 19739 H 1796.66 0.309161 -3.71616 0
M  V30 19740 N 1798.85 1.47045 -0.567045 0
M  V30 19741 C 1800.1 2.02046 -0.0465877 0
M  V30 19742 C 1800.42 1.44271 1.3119 0
M  V30 19743 O 1799.69 0.621533 1.85779 0
M  V30 19744 H 1798.27 0.746864 -0.0142323 0
M  V30 19745 H 1800.93 1.80335 -0.739281 0
M  V30 19746 H 1800.02 3.12081 0.0341623 0
M  V30 19747 N 1800.33 0.304 1.5464 0
M  V30 19748 C 1801.55 -0.309709 2.05075 0
M  V30 19749 C 1801.98 -1.46509 1.1797 0
M  V30 19750 O 1801.33 -1.80359 0.184437 0
M  V30 19751 C 1801.38 -0.740734 3.5291 0
M  V30 19752 O 1800.49 -1.8452 3.68817 0
M  V30 19753 H 1799.83 -0.0596065 0.661319 0
M  V30 19754 H 1802.36 0.446718 1.99664 0
M  V30 19755 H 1802.37 -1.02873 3.94818 0
M  V30 19756 H 1801.04 0.104422 4.15769 0
M  V30 19757 H 1799.62 -1.55753 3.38815 0
M  V30 19758 N 1801.8 -1.57568 0.0317802 0
M  V30 19759 C 1802.77 -2.09296 -0.934239 0
M  V30 19760 C 1803.77 -1.00855 -1.25239 0
M  V30 19761 O 1804.96 -1.27004 -1.19229 0
M  V30 19762 C 1802.09 -2.56103 -2.24998 0
M  V30 19763 H 1803.28 -2.95933 -0.486183 0
M  V30 19764 H 1800.83 -1.54796 -0.2163 0
M  V30 19765 H 1801.57 -1.72803 -2.74426 0
M  V30 19766 H 1801.35 -3.35329 -2.03216 0
M  V30 19767 H 1802.84 -2.96339 -2.94233 0
M  V30 19768 N 1803.28 0.241399 -1.5574 0
M  V30 19769 C 1804.19 1.32034 -1.93918 0
M  V30 19770 C 1805.21 1.52363 -0.840331 0
M  V30 19771 O 1806.38 1.65879 -1.1422 0
M  V30 19772 C 1803.45 2.6539 -2.2309 0
M  V30 19773 C 1802.51 2.53536 -3.46436 0
M  V30 19774 C 1801.74 3.80532 -3.74208 0
M  V30 19775 O 1801.97 4.82662 -3.03964 0
M  V30 19776 O 1800.9 3.78834 -4.67727 0
M  V30 19777 H 1804.73 1.02647 -2.85827 0
M  V30 19778 H 1802.31 0.442616 -1.42693 0
M  V30 19779 H 1804.19 3.44184 -2.43137 0
M  V30 19780 H 1802.87 2.94499 -1.34358 0
M  V30 19781 H 1801.78 1.73009 -3.3169 0
M  V30 19782 H 1803.11 2.29371 -4.35488 0
M  V30 19783 N 1804.76 1.49212 0.507292 0
M  V30 19784 C 1806.04 1.4888 1.26863 0
M  V30 19785 C 1806.42 0.213007 2.10023 0
M  V30 19786 O 1805.77 -0.804785 2.13858 0
M  V30 19787 C 1805.98 2.76407 2.13073 0
M  V30 19788 C 1807.32 3.25647 2.72468 0
M  V30 19789 O 1808.35 2.77481 2.23344 0
M  V30 19790 O 1807.21 4.09518 3.6188 0
M  V30 19791 H 1804.3 0.595597 0.573754 0
M  V30 19792 H 1806.85 1.6147 0.52208 0
M  V30 19793 H 1805.62 3.60758 1.51558 0
M  V30 19794 H 1805.24 2.66648 2.94932 0
M  V30 19795 N 1806.24 -0.757876 1.38181 0
M  V30 19796 C 1807.47 -1.54485 1.37179 0
M  V30 19797 C 1807.88 -1.89155 -0.0413714 0
M  V30 19798 O 1807.22 -1.52963 -1.01725 0
M  V30 19799 C 1807.28 -2.87464 2.15881 0
M  V30 19800 C 1806.95 -2.75355 3.64731 0
M  V30 19801 C 1807.94 -2.45442 4.58317 0
M  V30 19802 C 1805.63 -2.92942 4.08032 0
M  V30 19803 C 1807.62 -2.33263 5.93184 0
M  V30 19804 C 1805.31 -2.80384 5.42981 0
M  V30 19805 C 1806.31 -2.50586 6.3537 0
M  V30 19806 O 1805.99 -2.38079 7.67837 0
M  V30 19807 H 1805.73 -0.484775 0.471136 0
M  V30 19808 H 1808.28 -0.946061 1.82315 0
M  V30 19809 H 1806.51 -3.49516 1.65456 0
M  V30 19810 H 1808.2 -3.48949 2.0734 0
M  V30 19811 H 1808.97 -2.31527 4.26169 0
M  V30 19812 H 1804.84 -3.15133 3.3647 0
M  V30 19813 H 1808.39 -2.09927 6.65264 0
M  V30 19814 H 1804.29 -2.93871 5.74726 0
M  V30 19815 H 1805.05 -2.53324 7.78312 0
M  V30 19816 N 1807.72 -1.22979 -0.985586 0
M  V30 19817 C 1808.94 -1.0853 -1.7615 0
M  V30 19818 C 1809.36 0.36363 -1.85265 0
M  V30 19819 O 1808.72 1.25173 -1.32808 0
M  V30 19820 C 1808.77 -1.69872 -3.19101 0
M  V30 19821 O 1808.49 -3.09098 -3.10467 0
M  V30 19822 C 1809.99 -1.60795 -4.1311 0
M  V30 19823 H 1807.21 -0.380086 -0.55297 0
M  V30 19824 H 1809.75 -1.62724 -1.2386 0
M  V30 19825 H 1807.91 -1.19724 -3.68436 0
M  V30 19826 H 1808.32 -3.38769 -4.00419 0
M  V30 19827 H 1809.8 -2.08428 -5.11138 0
M  V30 19828 H 1810.27 -0.565817 -4.3554 0
M  V30 19829 H 1810.88 -2.10284 -3.69676 0
M  V30 19830 N 1809.19 1.18355 -1.04066 0
M  V30 19831 C 1810.44 1.88614 -0.745148 0
M  V30 19832 C 1810.77 1.80147 0.725294 0
M  V30 19833 O 1810.05 1.20177 1.5293 0
M  V30 19834 C 1810.33 3.39095 -1.2119 0
M  V30 19835 C 1810.18 3.56372 -2.74444 0
M  V30 19836 C 1811.5 4.32732 -0.801953 0
M  V30 19837 H 1808.62 0.684905 -0.272166 0
M  V30 19838 H 1811.26 1.39248 -1.29267 0
M  V30 19839 H 1809.41 3.81269 -0.746091 0
M  V30 19840 H 1811.09 3.2329 -3.29061 0
M  V30 19841 H 1809.33 2.99028 -3.14269 0
M  V30 19842 H 1810 4.61956 -3.0216 0
M  V30 19843 H 1812.48 3.98337 -1.20278 0
M  V30 19844 H 1811.35 5.36583 -1.15628 0
M  V30 19845 H 1811.61 4.41115 0.294907 0
M  V30 19846 N 1810.67 0.820125 1.3458 0
M  V30 19847 C 1811.92 0.406871 1.9837 0
M  V30 19848 C 1812.25 -1.02936 1.65028 0
M  V30 19849 O 1811.5 -1.73122 0.912538 0
M  V30 19850 C 1811.8 0.552817 3.53099 0
M  V30 19851 C 1811.47 1.95436 4.06344 0
M  V30 19852 C 1810.13 2.33776 4.20597 0
M  V30 19853 C 1812.48 2.87068 4.35019 0
M  V30 19854 C 1809.81 3.6309 4.6085 0
M  V30 19855 C 1812.16 4.15841 4.76716 0
M  V30 19856 C 1810.83 4.54163 4.89175 0
M  V30 19857 H 1810.1 0.148884 0.725889 0
M  V30 19858 H 1812.74 1.04353 1.6057 0
M  V30 19859 H 1811.05 -0.167245 3.91443 0
M  V30 19860 H 1812.74 0.213635 4.00431 0
M  V30 19861 H 1809.33 1.64652 3.95712 0
M  V30 19862 H 1813.52 2.5869 4.23548 0
M  V30 19863 H 1808.77 3.92611 4.68686 0
M  V30 19864 H 1812.95 4.86934 4.97863 0
M  V30 19865 H 1810.58 5.54415 5.20123 0
M  V30 19866 N 1812.15 -1.46743 0.574835 0
M  V30 19867 C 1813.1 -2.31935 -0.175778 0
M  V30 19868 C 1814.09 -1.44005 -0.892128 0
M  V30 19869 O 1815.3 -1.60674 -0.81141 0
M  V30 19870 H 1811.67 -0.748195 -0.0755558 0
M  V30 19871 H 1813.64 -2.93066 0.561671 0
M  V30 19872 C 1812.39 -3.27018 -1.18128 0
M  V30 19873 H 1811.72 -3.94652 -0.639492 0
M  V30 19874 H 1813.16 -3.89424 -1.67704 0
M  V30 19875 C 1811.62 -2.51802 -2.23824 0
M  V30 19876 O 1812.15 -2.2753 -3.31048 0
M  V30 19877 N 1810.35 -2.12501 -1.98221 0
M  V30 19878 H 1809.9 -2.32441 -1.11035 0
M  V30 19879 H 1809.86 -1.62494 -2.69153 0
M  V30 19880 N 1813.63 -0.312197 -1.54477 0
M  V30 19881 C 1814.58 0.57453 -2.25393 0
M  V30 19882 C 1815.57 1.12789 -1.26392 0
M  V30 19883 O 1816.78 1.07724 -1.44207 0
M  V30 19884 H 1813.15 0.203904 -0.723828 0
M  V30 19885 H 1815.12 -0.0459918 -2.98365 0
M  V30 19886 C 1813.87 1.72942 -3.01639 0
M  V30 19887 H 1813.19 1.31286 -3.7763 0
M  V30 19888 H 1814.63 2.3257 -3.54524 0
M  V30 19889 C 1813.09 2.64026 -2.09266 0
M  V30 19890 O 1813.62 3.65431 -1.66803 0
M  V30 19891 N 1811.83 2.32007 -1.74989 0
M  V30 19892 H 1811.38 1.49588 -2.09717 0
M  V30 19893 H 1811.33 2.93213 -1.1346 0
M  V30 19894 N 1815.11 1.57549 -0.040136 0
M  V30 19895 C 1816.05 2.12048 0.955943 0
M  V30 19896 C 1817.05 1.04965 1.32962 0
M  V30 19897 O 1818.25 1.23387 1.31056 0
M  V30 19898 H 1814.63 0.677616 0.326099 0
M  V30 19899 H 1816.6 2.94658 0.471075 0
M  V30 19900 C 1815.35 2.67157 2.22537 0
M  V30 19901 H 1814.67 3.4921 1.9466 0
M  V30 19902 H 1816.11 3.08924 2.90417 0
M  V30 19903 C 1814.57 1.60413 2.96259 0
M  V30 19904 O 1815.1 1.01042 3.88785 0
M  V30 19905 N 1813.31 1.32196 2.58791 0
M  V30 19906 H 1812.85 1.80663 1.83626 0
M  V30 19907 H 1812.81 0.610023 3.08425 0
M  V30 19908 N 1816.58 -0.233136 1.55866 0
M  V30 19909 C 1817.83 -0.957324 1.77988 0
M  V30 19910 C 1818.15 -1.85325 0.606593 0
M  V30 19911 O 1817.42 -1.92237 -0.377047 0
M  V30 19912 H 1816 -0.356474 0.656457 0
M  V30 19913 H 1818.67 -0.247774 1.93319 0
M  V30 19914 H 1817.76 -1.57096 2.6968 0
M  V30 19915 N 1818.06 -1.49479 -0.499372 0
M  V30 19916 C 1818.97 -1.69006 -1.62709 0
M  V30 19917 C 1819.99 -0.572681 -1.64306 0
M  V30 19918 O 1821.17 -0.847586 -1.82696 0
M  V30 19919 C 1818.23 -1.75382 -2.99069 0
M  V30 19920 C 1817.29 -2.98968 -3.08086 0
M  V30 19921 C 1816.52 -3.0503 -4.37941 0
M  V30 19922 O 1816.75 -2.18641 -5.26832 0
M  V30 19923 O 1815.68 -3.97507 -4.51964 0
M  V30 19924 H 1819.51 -2.64544 -1.49164 0
M  V30 19925 H 1817.09 -1.3324 -0.675836 0
M  V30 19926 H 1818.97 -1.81919 -3.8011 0
M  V30 19927 H 1817.65 -0.830226 -3.12872 0
M  V30 19928 H 1816.56 -2.97947 -2.26227 0
M  V30 19929 H 1817.89 -3.90812 -2.9921 0
M  V30 19930 N 1819.54 0.750537 -1.38581 0
M  V30 19931 C 1820.79 1.50512 -1.34272 0
M  V30 19932 C 1821.1 1.95496 0.0636858 0
M  V30 19933 O 1822.31 2.7053 0.22932 0
M  V30 19934 C 1820.77 2.71891 -2.35803 0
M  V30 19935 C 1820.37 2.3392 -3.8208 0
M  V30 19936 C 1822.12 3.4977 -2.40543 0
M  V30 19937 C 1820.02 3.51928 -4.7529 0
M  V30 19938 H 1818.95 0.56515 -0.49912 0
M  V30 19939 H 1821.61 0.820167 -1.64151 0
M  V30 19940 H 1819.99 3.42383 -1.98972 0
M  V30 19941 H 1821.16 1.71075 -4.27867 0
M  V30 19942 H 1819.48 1.69168 -3.80488 0
M  V30 19943 H 1822.07 4.37519 -3.07379 0
M  V30 19944 H 1822.42 3.91141 -1.42527 0
M  V30 19945 H 1822.95 2.86294 -2.76189 0
M  V30 19946 H 1819.69 3.15621 -5.74512 0
M  V30 19947 H 1819.21 4.13807 -4.34194 0
M  V30 19948 H 1820.89 4.1847 -4.93449 0
M  V30 19949 N 1821.02 1.235 0.979051 0
M  V30 19950 C 1821.95 1.04183 2.08969 0
M  V30 19951 C 1822.93 -0.041685 1.70049 0
M  V30 19952 O 1824.12 0.123217 1.93809 0
M  V30 19953 C 1821.25 0.633696 3.4147 0
M  V30 19954 C 1820.2 1.66471 3.94299 0
M  V30 19955 C 1819.53 1.11198 5.2301 0
M  V30 19956 C 1820.83 3.05804 4.23416 0
M  V30 19957 H 1822.52 1.9708 2.25388 0
M  V30 19958 H 1820.07 0.948963 1.08308 0
M  V30 19959 H 1822.02 0.485599 4.18593 0
M  V30 19960 H 1820.74 -0.330958 3.24919 0
M  V30 19961 H 1819.4 1.80082 3.19321 0
M  V30 19962 H 1819.05 0.138264 5.0281 0
M  V30 19963 H 1818.75 1.80087 5.59323 0
M  V30 19964 H 1820.27 0.975759 6.02753 0
M  V30 19965 H 1821.69 2.95487 4.91284 0
M  V30 19966 H 1820.08 3.71944 4.70933 0
M  V30 19967 H 1821.15 3.54695 3.30635 0
M  V30 19968 N 1822.5 -1.17802 1.04693 0
M  V30 19969 C 1823.43 -2.23847 0.664448 0
M  V30 19970 C 1824.41 -1.66761 -0.335356 0
M  V30 19971 O 1825.59 -1.93017 -0.214062 0
M  V30 19972 C 1822.72 -3.47284 0.0331587 0
M  V30 19973 C 1821.68 -4.1716 0.95718 0
M  V30 19974 C 1821 -5.34362 0.190034 0
M  V30 19975 C 1822.3 -4.69951 2.2791 0
M  V30 19976 H 1824 -2.56095 1.55099 0
M  V30 19977 H 1821.54 -1.23097 0.747196 0
M  V30 19978 H 1823.5 -4.2068 -0.246178 0
M  V30 19979 H 1822.22 -3.14288 -0.888294 0
M  V30 19980 H 1820.88 -3.45669 1.221 0
M  V30 19981 H 1820.53 -4.97615 -0.734025 0
M  V30 19982 H 1820.23 -5.8205 0.805684 0
M  V30 19983 H 1821.75 -6.10545 -0.0821372 0
M  V30 19984 H 1823.17 -5.3501 2.06003 0
M  V30 19985 H 1821.56 -5.28198 2.84828 0
M  V30 19986 H 1822.63 -3.87032 2.9212 0
M  V30 19987 N 1823.98 -0.827251 -1.34143 0
M  V30 19988 C 1825.25 -0.339793 -1.92626 0
M  V30 19989 C 1825.63 1.17342 -1.75482 0
M  V30 19990 O 1824.98 1.98251 -1.13616 0
M  V30 19991 C 1825.19 -0.773891 -3.40312 0
M  V30 19992 C 1826.54 -0.77521 -4.17463 0
M  V30 19993 O 1827.56 -0.716748 -3.48914 0
M  V30 19994 O 1826.42 -0.852347 -5.39812 0
M  V30 19995 H 1823.52 -0.0937486 -0.821669 0
M  V30 19996 H 1826.06 -0.91233 -1.4309 0
M  V30 19997 H 1824.83 -1.81597 -3.46609 0
M  V30 19998 H 1824.46 -0.177287 -3.97205 0
M  V30 19999 N 1825.45 1.46436 -0.582609 0
M  V30 20000 C 1826.73 1.956 -0.00129167 0
M  V30 20001 C 1827.11 1.52526 1.45942 0
M  V30 20002 O 1826.46 0.775911 2.14923 0
M  V30 20003 C 1826.67 3.4857 -0.173243 0
M  V30 20004 C 1828.02 4.2458 -0.0410173 0
M  V30 20005 O 1829.04 3.56054 -0.102074 0
M  V30 20006 O 1827.9 5.46418 0.0947564 0
M  V30 20007 H 1824.99 0.825495 0.0498706 0
M  V30 20008 H 1827.54 1.5672 -0.650921 0
M  V30 20009 H 1826.31 3.72808 -1.1887 0
M  V30 20010 H 1825.93 3.94279 0.512822 0
M  V30 20011 N 1826.93 0.320385 1.54309 0
M  V30 20012 C 1828.18 -0.284021 1.9969 0
M  V30 20013 C 1828.49 -1.53496 1.21237 0
M  V30 20014 O 1829.7 -2.21517 1.5698 0
M  V30 20015 C 1828.16 -0.556621 3.5557 0
M  V30 20016 C 1827.76 0.677086 4.42854 0
M  V30 20017 C 1829.51 -1.12116 4.09427 0
M  V30 20018 C 1827.41 0.376566 5.902 0
M  V30 20019 H 1826.34 -0.109905 0.745947 0
M  V30 20020 H 1829 0.432113 1.7834 0
M  V30 20021 H 1827.38 -1.33286 3.72895 0
M  V30 20022 H 1828.55 1.45266 4.37304 0
M  V30 20023 H 1826.87 1.16161 3.99869 0
M  V30 20024 H 1829.46 -1.36057 5.171 0
M  V30 20025 H 1829.81 -2.06954 3.61215 0
M  V30 20026 H 1830.34 -0.406174 3.95721 0
M  V30 20027 H 1827.08 1.29403 6.426 0
M  V30 20028 H 1826.6 -0.36136 5.9871 0
M  V30 20029 H 1828.28 -0.014773 6.46998 0
M  V30 20030 N 1828.41 -1.57525 0.0484906 0
M  V30 20031 C 1829.36 -2.12552 -0.944684 0
M  V30 20032 C 1830.35 -1.05668 -1.32403 0
M  V30 20033 O 1831.56 -1.2408 -1.304 0
M  V30 20034 H 1827.93 -0.679336 -0.3225 0
M  V30 20035 H 1829.9 -2.94904 -0.455442 0
M  V30 20036 C 1828.65 -2.68333 -2.21117 0
M  V30 20037 H 1827.98 -3.50237 -1.92806 0
M  V30 20038 H 1829.42 -3.10459 -2.88775 0
M  V30 20039 C 1827.87 -1.61982 -2.95404 0
M  V30 20040 O 1828.4 -1.03102 -3.88243 0
M  V30 20041 N 1826.61 -1.33566 -2.58086 0
M  V30 20042 H 1826.16 -1.81635 -1.82665 0
M  V30 20043 H 1826.12 -0.626371 -3.08097 0
M  V30 20044 N 1829.89 0.224867 -1.55988 0
M  V30 20045 C 1831.14 0.947776 -1.78045 0
M  V30 20046 C 1831.45 1.85632 -0.616454 0
M  V30 20047 O 1832.66 2.61763 -0.720579 0
M  V30 20048 C 1831.11 1.73546 -3.15293 0
M  V30 20049 C 1830.72 0.873219 -4.39407 0
M  V30 20050 C 1832.46 2.44978 -3.46679 0
M  V30 20051 C 1830.37 1.65806 -5.67682 0
M  V30 20052 H 1829.3 0.357623 -0.663793 0
M  V30 20053 H 1831.95 0.201754 -1.82388 0
M  V30 20054 H 1830.33 2.52426 -3.05118 0
M  V30 20055 H 1831.51 0.125187 -4.6063 0
M  V30 20056 H 1829.82 0.271179 -4.15516 0
M  V30 20057 H 1832.42 3.04192 -4.3974 0
M  V30 20058 H 1832.76 3.17699 -2.69023 0
M  V30 20059 H 1833.3 1.7309 -3.58168 0
M  V30 20060 H 1830.03 0.974191 -6.4822 0
M  V30 20061 H 1829.55 2.38079 -5.50526 0
M  V30 20062 H 1831.23 2.21959 -6.07736 0
M  V30 20063 N 1831.37 1.49742 0.491438 0
M  V30 20064 C 1832.61 1.61335 1.25501 0
M  V30 20065 C 1832.97 0.297703 1.89678 0
M  V30 20066 O 1834.17 0.28889 2.67243 0
M  V30 20067 C 1832.44 2.74705 2.28631 0
M  V30 20068 S 1834 3.06308 3.14199 0
M  V30 20069 H 1830.82 0.568965 0.42638 0
M  V30 20070 H 1833.42 1.87442 0.555503 0
M  V30 20071 H 1832.12 3.68806 1.80029 0
M  V30 20072 H 1831.66 2.50621 3.03237 0
M  V30 20073 H 1833.67 2.48565 4.29453 0
M  V30 20074 N 1832.84 -0.743177 1.38977 0
M  V30 20075 C 1834.12 -1.49384 1.26269 0
M  V30 20076 C 1834.5 -2.10691 -0.131349 0
M  V30 20077 O 1833.85 -1.97925 -1.14183 0
M  V30 20078 C 1834.06 -2.55184 2.3808 0
M  V30 20079 C 1835.41 -3.21796 2.77006 0
M  V30 20080 O 1836.43 -2.65493 2.37469 0
M  V30 20081 O 1835.29 -4.23656 3.45222 0
M  V30 20082 H 1832.38 -0.662968 0.49437 0
M  V30 20083 H 1834.93 -0.7777 1.50831 0
M  V30 20084 H 1833.7 -2.08204 3.31311 0
M  V30 20085 H 1833.33 -3.34366 2.15139 0
M  V30 20086 N 1834.32 -1.24018 -0.972487 0
M  V30 20087 C 1835.55 -1.10232 -1.74736 0
M  V30 20088 C 1835.96 0.348409 -1.85964 0
M  V30 20089 O 1835.3 1.25245 -1.34386 0
M  V30 20090 C 1835.37 -1.66263 -3.18743 0
M  V30 20091 C 1835.03 -3.151 -3.31 0
M  V30 20092 C 1836.03 -4.12305 -3.16703 0
M  V30 20093 C 1833.71 -3.54965 -3.55394 0
M  V30 20094 C 1835.71 -5.47357 -3.26617 0
M  V30 20095 C 1833.39 -4.9016 -3.64947 0
M  V30 20096 C 1834.39 -5.86165 -3.5057 0
M  V30 20097 O 1834.08 -7.18903 -3.5977 0
M  V30 20098 H 1833.81 -0.386036 -0.554935 0
M  V30 20099 H 1836.36 -1.64505 -1.22993 0
M  V30 20100 H 1834.59 -1.06419 -3.71769 0
M  V30 20101 H 1836.28 -1.47837 -3.7802 0
M  V30 20102 H 1837.05 -3.82848 -2.97745 0
M  V30 20103 H 1832.93 -2.80747 -3.65653 0
M  V30 20104 H 1836.47 -6.22273 -3.15312 0
M  V30 20105 H 1832.37 -5.1929 -3.83416 0
M  V30 20106 H 1833.14 -7.26759 -3.76515 0
M  V30 20107 N 1835.8 1.17245 -1.05316 0
M  V30 20108 C 1836.75 2.23357 -0.649174 0
M  V30 20109 C 1837.74 1.66152 0.33015 0
M  V30 20110 O 1838.95 1.78929 0.196078 0
M  V30 20111 H 1835.32 0.727139 -0.191762 0
M  V30 20112 H 1837.29 2.54728 -1.55423 0
M  V30 20113 C 1836.04 3.47676 -0.0412049 0
M  V30 20114 H 1835.37 3.92 -0.785858 0
M  V30 20115 H 1836.81 4.23509 0.204073 0
M  V30 20116 C 1835.27 3.14326 1.21247 0
M  V30 20117 O 1835.8 3.29218 2.3017 0
M  V30 20118 N 1834 2.68541 1.1106 0
M  V30 20119 H 1833.55 2.56622 0.224212 0
M  V30 20120 H 1833.51 2.466 1.95028 0
M  V30 20121 N 1837.28 0.834353 1.33702 0
M  V30 20122 C 1838.21 0.279313 2.31823 0
M  V30 20123 C 1839.19 -0.610495 1.58767 0
M  V30 20124 O 1840.37 -0.534989 1.86686 0
M  V30 20125 C 1837.5 -0.550201 3.42914 0
M  V30 20126 C 1836.46 0.243432 4.27307 0
M  V30 20127 C 1835.78 -0.709548 5.29971 0
M  V30 20128 C 1837.08 1.45799 5.01537 0
M  V30 20129 H 1838.78 1.09915 2.78494 0
M  V30 20130 H 1836.32 0.529987 1.33892 0
M  V30 20131 H 1838.28 -0.948764 4.10581 0
M  V30 20132 H 1837 -1.4032 2.9492 0
M  V30 20133 H 1835.66 0.6235 3.61259 0
M  V30 20134 H 1835.31 -1.55882 4.78236 0
M  V30 20135 H 1835.01 -0.182671 5.87316 0
M  V30 20136 H 1836.53 -1.10572 6.00505 0
M  V30 20137 H 1837.95 1.13283 5.61996 0
M  V30 20138 H 1836.34 1.92133 5.68511 0
M  V30 20139 H 1837.41 2.23016 4.30571 0
M  V30 20140 N 1838.76 -1.46125 0.590367 0
M  V30 20141 C 1840.17 -1.57588 0.252639 0
M  V30 20142 C 1840.37 -1.58435 -1.24502 0
M  V30 20143 O 1839.43 -1.50541 -2.02716 0
M  V30 20144 C 1840.74 -2.86644 0.908612 0
M  V30 20145 C 1842.29 -3.00289 0.882917 0
M  V30 20146 C 1842.76 -4.32092 1.51858 0
M  V30 20147 N 1844.26 -4.38809 1.48327 0
M  V30 20148 C 1844.99 -5.39426 1.94442 0
M  V30 20149 N 1844.49 -6.46674 2.48565 0
M  V30 20150 N 1846.28 -5.30675 1.85313 0
M  V30 20151 H 1838.43 -1.43819 1.56301 0
M  V30 20152 H 1840.69 -0.686515 0.653759 0
M  V30 20153 H 1840.4 -2.91857 1.96246 0
M  V30 20154 H 1840.27 -3.74838 0.421445 0
M  V30 20155 H 1842.66 -2.94653 -0.16233 0
M  V30 20156 H 1842.74 -2.13551 1.40818 0
M  V30 20157 H 1842.39 -4.38486 2.56306 0
M  V30 20158 H 1842.32 -5.17618 0.968474 0
M  V30 20159 H 1844.81 -3.61907 1.08772 0
M  V30 20160 H 1845.12 -7.19671 2.8159 0
M  V30 20161 H 1843.46 -6.47473 2.52595 0
M  V30 20162 H 1846.66 -4.45793 1.42782 0
M  V30 20163 H 1846.83 -6.08943 2.21567 0
M  V30 20164 N 1840.23 -0.328564 -1.54137 0
M  V30 20165 C 1841.51 0.327026 -1.92847 0
M  V30 20166 C 1841.89 1.69472 -1.25867 0
M  V30 20167 O 1841.24 2.24897 -0.404172 0
M  V30 20168 C 1841.45 0.414261 -3.46533 0
M  V30 20169 C 1842.8 0.672189 -4.19245 0
M  V30 20170 O 1843.82 0.496982 -3.52716 0
M  V30 20171 O 1842.68 1.01053 -5.37076 0
M  V30 20172 H 1839.77 0.187716 -0.805414 0
M  V30 20173 H 1842.32 -0.378645 -1.65422 0
M  V30 20174 H 1841.09 -0.54611 -3.8747 0
M  V30 20175 H 1840.72 1.16731 -3.80078 0
M  V30 20176 N 1841.71 1.57497 -0.0568439 0
M  V30 20177 C 1842.64 2.14892 0.913427 0
M  V30 20178 C 1843.62 1.07205 1.32065 0
M  V30 20179 O 1844.81 1.35172 1.39435 0
M  V30 20180 C 1841.94 2.69849 2.18629 0
M  V30 20181 C 1840.89 3.8257 1.91896 0
M  V30 20182 C 1840.22 4.24068 3.25685 0
M  V30 20183 C 1841.52 5.07463 1.23606 0
M  V30 20184 H 1843.21 2.96218 0.435347 0
M  V30 20185 H 1840.76 1.4249 0.20796 0
M  V30 20186 H 1842.71 3.08643 2.86911 0
M  V30 20187 H 1841.44 1.85723 2.68653 0
M  V30 20188 H 1840.09 3.44258 1.26024 0
M  V30 20189 H 1839.74 3.36884 3.73521 0
M  V30 20190 H 1839.44 5.00043 3.08594 0
M  V30 20191 H 1840.97 4.65466 3.95189 0
M  V30 20192 H 1842.38 5.43667 1.81931 0
M  V30 20193 H 1840.78 5.88619 1.16823 0
M  V30 20194 H 1841.85 4.84432 0.212918 0
M  V30 20195 N 1843.19 -0.216591 1.56105 0
M  V30 20196 C 1844.61 -0.56651 1.49207 0
M  V30 20197 C 1844.81 -1.86906 0.752882 0
M  V30 20198 O 1843.86 -2.50776 0.294573 0
M  V30 20199 C 1845.18 -0.641146 2.93785 0
M  V30 20200 C 1846.72 -0.731439 3.04334 0
M  V30 20201 C 1847.2 -0.837376 4.5028 0
M  V30 20202 N 1848.69 -0.901468 4.54343 0
M  V30 20203 C 1849.42 -1.00323 5.64555 0
M  V30 20204 N 1848.92 -1.06864 6.84509 0
M  V30 20205 N 1850.71 -1.03876 5.52419 0
M  V30 20206 H 1842.86 0.638091 2.02589 0
M  V30 20207 H 1845.13 0.224543 0.921024 0
M  V30 20208 H 1844.83 0.246454 3.50835 0
M  V30 20209 H 1844.71 -1.5031 3.45958 0
M  V30 20210 H 1847.09 -1.60948 2.47346 0
M  V30 20211 H 1847.18 0.15628 2.55322 0
M  V30 20212 H 1846.82 0.0362262 5.07887 0
M  V30 20213 H 1846.75 -1.74058 4.97002 0
M  V30 20214 H 1849.24 -0.861039 3.6796 0
M  V30 20215 H 1849.55 -1.1462 7.64253 0
M  V30 20216 H 1847.9 -1.03768 6.8721 0
M  V30 20217 H 1851.09 -0.984348 4.57633 0
M  V30 20218 H 1851.26 -1.11461 6.38342 0
M  V30 20219 N 1844.67 -1.5 -0.48349 0
M  V30 20220 C 1845.62 -1.68467 -1.6038 0
M  V30 20221 C 1846.61 -0.550508 -1.60205 0
M  V30 20222 O 1847.82 -0.730656 -1.64504 0
M  V30 20223 H 1844.19 -0.531525 -0.531964 0
M  V30 20224 H 1846.16 -2.62468 -1.41962 0
M  V30 20225 C 1844.91 -1.78462 -2.98407 0
M  V30 20226 H 1844.23 -2.65117 -2.99254 0
M  V30 20227 H 1845.67 -1.95413 -3.76284 0
M  V30 20228 C 1844.13 -0.533368 -3.32651 0
M  V30 20229 O 1844.66 0.333087 -4.00317 0
M  V30 20230 N 1842.87 -0.391077 -2.87957 0
M  V30 20231 H 1842.42 -1.09719 -2.33066 0
M  V30 20232 H 1842.37 0.444995 -3.11235 0
M  V30 20233 N 1846.15 0.735796 -1.39369 0
M  V30 20234 C 1847.08 1.86303 -1.4076 0
M  V30 20235 C 1848.06 1.67926 -0.27107 0
M  V30 20236 O 1849.24 1.88257 -0.476773 0
M  V30 20237 C 1846.37 3.24043 -1.24955 0
M  V30 20238 C 1845.33 3.57055 -2.35999 0
M  V30 20239 C 1844.65 4.93723 -2.05284 0
M  V30 20240 C 1845.95 3.60109 -3.7831 0
M  V30 20241 H 1847.65 1.85396 -2.35093 0
M  V30 20242 H 1845.19 0.890552 -1.1316 0
M  V30 20243 H 1847.15 4.02574 -1.24549 0
M  V30 20244 H 1845.87 3.25475 -0.270902 0
M  V30 20245 H 1844.53 2.80853 -2.35621 0
M  V30 20246 H 1844.18 4.91734 -1.05859 0
M  V30 20247 H 1843.88 5.16779 -2.79667 0
M  V30 20248 H 1845.4 5.74612 -2.06527 0
M  V30 20249 H 1846.81 4.28718 -3.80622 0
M  V30 20250 H 1845.21 3.94683 -4.52046 0
M  V30 20251 H 1846.28 2.59932 -4.09345 0
M  V30 20252 N 1847.63 1.24532 0.965897 0
M  V30 20253 C 1848.87 1.08609 1.7091 0
M  V30 20254 C 1849.2 -0.374781 1.90855 0
M  V30 20255 O 1848.46 -1.29321 1.46883 0
M  V30 20256 C 1848.75 1.77305 3.10319 0
M  V30 20257 C 1848.42 3.27233 3.10209 0
M  V30 20258 C 1847.08 3.68136 3.09887 0
M  V30 20259 C 1849.43 4.23071 3.04402 0
M  V30 20260 C 1846.76 5.03309 3.01492 0
M  V30 20261 C 1849.11 5.58254 2.9755 0
M  V30 20262 C 1847.78 5.985 2.95557 0
M  V30 20263 H 1847.05 0.39743 0.625404 0
M  V30 20264 H 1849.7 1.54658 1.12929 0
M  V30 20265 H 1848 1.23655 3.71775 0
M  V30 20266 H 1849.7 1.62449 3.66622 0
M  V30 20267 H 1846.29 2.9468 3.11226 0
M  V30 20268 H 1850.47 3.92469 3.03779 0
M  V30 20269 H 1845.73 5.33686 2.98311 0
M  V30 20270 H 1849.9 6.32218 2.92016 0
M  V30 20271 H 1847.53 7.03203 2.88807 0
M  V30 20272 N 1849.1 -1.16685 1.05936 0
M  V30 20273 C 1850.33 -1.91576 0.794558 0
M  V30 20274 C 1850.75 -1.76706 -0.644718 0
M  V30 20275 O 1850.11 -1.0899 -1.44882 0
M  V30 20276 C 1850.16 -3.40417 1.18947 0
M  V30 20277 O 1849.26 -4.11109 0.326091 0
M  V30 20278 H 1848.6 -0.596983 0.290702 0
M  V30 20279 H 1851.13 -1.47856 1.4142 0
M  V30 20280 H 1851.14 -3.91178 1.15947 0
M  V30 20281 H 1849.82 -3.5056 2.23786 0
M  V30 20282 H 1848.4 -3.70557 0.417347 0
M  V30 20283 N 1850.58 -0.841432 -1.33258 0
M  V30 20284 C 1851.83 -0.434677 -1.96961 0
M  V30 20285 C 1852.14 1.012 -1.67386 0
M  V30 20286 O 1853.35 1.52356 -2.24722 0
M  V30 20287 C 1851.81 -0.726332 -3.52495 0
M  V30 20288 C 1851.41 -2.18786 -3.90943 0
M  V30 20289 C 1853.16 -0.386652 -4.22735 0
M  V30 20290 C 1851.06 -2.42343 -5.39466 0
M  V30 20291 H 1849.99 -0.158809 -0.737086 0
M  V30 20292 H 1852.65 -1.03037 -1.51841 0
M  V30 20293 H 1851.03 -0.0602315 -3.95954 0
M  V30 20294 H 1852.2 -2.89465 -3.58534 0
M  V30 20295 H 1850.52 -2.49076 -3.33691 0
M  V30 20296 H 1853.11 -0.540249 -5.31964 0
M  V30 20297 H 1853.46 0.670595 -4.10863 0
M  V30 20298 H 1853.99 -1.00809 -3.84815 0
M  V30 20299 H 1850.73 -3.46642 -5.56345 0
M  V30 20300 H 1850.25 -1.76227 -5.73327 0
M  V30 20301 H 1851.93 -2.25625 -6.06385 0
M  V30 20302 N 1852.06 1.4581 -0.598108 0
M  V30 20303 C 1853.31 2.02601 -0.089744 0
M  V30 20304 C 1853.64 1.46673 1.27282 0
M  V30 20305 O 1852.91 0.637735 1.83748 0
M  V30 20306 C 1853.2 3.60077 -0.0405712 0
M  V30 20307 C 1853.05 4.26358 -1.43313 0
M  V30 20308 C 1854.37 4.35241 0.652164 0
M  V30 20309 H 1851.49 0.736211 -0.0340865 0
M  V30 20310 H 1854.13 1.73775 -0.768263 0
M  V30 20311 H 1852.28 3.84767 0.537251 0
M  V30 20312 H 1853.95 4.12884 -2.0573 0
M  V30 20313 H 1852.19 3.85125 -1.99653 0
M  V30 20314 H 1852.87 5.35211 -1.35105 0
M  V30 20315 H 1855.34 4.15788 0.161128 0
M  V30 20316 H 1854.22 5.4497 0.655646 0
M  V30 20317 H 1854.48 4.07419 1.71646 0
M  V30 20318 N 1853.54 0.336733 1.53961 0
M  V30 20319 C 1854.76 -0.26614 2.05685 0
M  V30 20320 C 1855.19 -1.43973 1.21051 0
M  V30 20321 O 1854.55 -1.79928 0.222652 0
M  V30 20322 C 1854.59 -0.66571 3.54402 0
M  V30 20323 O 1853.7 -1.76656 3.72648 0
M  V30 20324 H 1853.04 -0.0455655 0.662435 0
M  V30 20325 H 1855.57 0.488969 1.98671 0
M  V30 20326 H 1855.58 -0.944748 3.96911 0
M  V30 20327 H 1854.25 0.192589 4.15454 0
M  V30 20328 H 1852.83 -1.48531 3.42042 0
M  V30 20329 N 1855.02 -1.57465 0.0651956 0
M  V30 20330 C 1855.95 -2.09315 -0.933793 0
M  V30 20331 C 1856.96 -1.0239 -1.26571 0
M  V30 20332 O 1858.15 -1.29921 -1.22405 0
M  V30 20333 C 1855.25 -2.53302 -2.25147 0
M  V30 20334 C 1854.42 -3.83724 -2.09939 0
M  V30 20335 C 1853.48 -4.13874 -3.24953 0
M  V30 20336 O 1852.51 -4.83577 -3.00236 0
M  V30 20337 N 1853.71 -3.66896 -4.49853 0
M  V30 20338 H 1856.47 -2.95648 -0.491142 0
M  V30 20339 H 1854.04 -1.61449 -0.120698 0
M  V30 20340 H 1856.03 -2.70538 -3.00984 0
M  V30 20341 H 1854.6 -1.72142 -2.60933 0
M  V30 20342 H 1853.82 -3.75933 -1.18609 0
M  V30 20343 H 1855.11 -4.69106 -1.9702 0
M  V30 20344 H 1854.5 -3.10573 -4.72822 0
M  V30 20345 H 1853.06 -3.89344 -5.22738 0
M  V30 20346 N 1856.49 0.20831 -1.56217 0
M  V30 20347 C 1857.4 1.27891 -1.96675 0
M  V30 20348 C 1858.42 1.50546 -0.87246 0
M  V30 20349 O 1859.6 1.63418 -1.17713 0
M  V30 20350 C 1856.66 2.60598 -2.28669 0
M  V30 20351 C 1855.72 2.4613 -3.51736 0
M  V30 20352 C 1854.95 3.72509 -3.82195 0
M  V30 20353 O 1855.18 4.76105 -3.14133 0
M  V30 20354 O 1854.11 3.68828 -4.75657 0
M  V30 20355 H 1857.94 0.965607 -2.8794 0
M  V30 20356 H 1855.52 0.412249 -1.436 0
M  V30 20357 H 1857.4 3.38949 -2.50383 0
M  V30 20358 H 1856.08 2.91583 -1.40575 0
M  V30 20359 H 1854.99 1.65935 -3.35286 0
M  V30 20360 H 1856.32 2.20082 -4.40255 0
M  V30 20361 N 1857.97 1.50255 0.475528 0
M  V30 20362 C 1859.38 1.53931 1.05651 0
M  V30 20363 C 1859.73 0.340226 1.93228 0
M  V30 20364 O 1858.86 -0.547349 2.09363 0
M  V30 20365 C 1859.45 2.78951 1.92281 0
M  V30 20366 C 1858.01 2.85323 2.45495 0
M  V30 20367 C 1857.16 2.48166 1.2373 0
M  V30 20368 H 1860.11 1.56583 0.258332 0
M  V30 20369 H 1860.13 2.60555 2.77293 0
M  V30 20370 H 1859.64 3.66205 1.28514 0
M  V30 20371 H 1857.74 2.0241 3.12827 0
M  V30 20372 H 1857.86 3.88109 2.80906 0
M  V30 20373 H 1856.22 2.00505 1.57066 0
M  V30 20374 H 1857 3.37722 0.616324 0
M  V30 20375 N 1859.45 -0.728395 1.39758 0
M  V30 20376 C 1860.38 -1.85149 1.33398 0
M  V30 20377 C 1861.36 -1.61283 0.206504 0
M  V30 20378 O 1862.54 -1.84463 0.388051 0
M  V30 20379 C 1859.67 -3.21255 1.07297 0
M  V30 20380 C 1858.72 -3.6397 2.22324 0
M  V30 20381 S 1859.55 -3.72569 3.84646 0
M  V30 20382 C 1860.71 -5.11455 3.60783 0
M  V30 20383 H 1860.94 -1.90261 2.28447 0
M  V30 20384 H 1858.47 -0.893913 1.25891 0
M  V30 20385 H 1860.43 -3.99844 0.929231 0
M  V30 20386 H 1859.09 -3.13791 0.139242 0
M  V30 20387 H 1858.28 -4.62761 1.99671 0
M  V30 20388 H 1857.89 -2.92604 2.32936 0
M  V30 20389 H 1860.18 -5.97989 3.18457 0
M  V30 20390 H 1861.12 -5.39139 4.59059 0
M  V30 20391 H 1861.53 -4.81443 2.94742 0
M  V30 20392 N 1860.93 -1.25042 -0.959279 0
M  V30 20393 C 1861.86 -1.07494 -2.07285 0
M  V30 20394 C 1862.84 0.0146264 -1.70094 0
M  V30 20395 O 1864.02 -0.154035 -1.93588 0
M  V30 20396 C 1861.15 -0.68794 -3.40418 0
M  V30 20397 C 1860.11 -1.72722 -3.91601 0
M  V30 20398 C 1859.43 -1.19504 -5.21175 0
M  V30 20399 C 1860.73 -3.12502 -4.18497 0
M  V30 20400 H 1862.43 -2.00641 -2.22224 0
M  V30 20401 H 1859.97 -0.966074 -1.06785 0
M  V30 20402 H 1861.93 -0.552133 -4.17767 0
M  V30 20403 H 1860.65 0.279224 -3.25404 0
M  V30 20404 H 1859.31 -1.85139 -3.16416 0
M  V30 20405 H 1858.96 -0.218239 -5.02526 0
M  V30 20406 H 1858.66 -1.88962 -5.56387 0
M  V30 20407 H 1860.18 -1.07153 -6.01124 0
M  V30 20408 H 1861.6 -3.03266 -4.86521 0
M  V30 20409 H 1859.99 -3.79389 -4.64956 0
M  V30 20410 H 1861.06 -3.5991 -3.2495 0
M  V30 20411 N 1862.41 1.16121 -1.06553 0
M  V30 20412 C 1863.65 1.86715 -0.783827 0
M  V30 20413 C 1863.98 1.81857 0.689799 0
M  V30 20414 O 1863.24 1.23093 1.5214 0
M  V30 20415 C 1863.54 3.35676 -1.22705 0
M  V30 20416 C 1863.2 3.60732 -2.70524 0
M  V30 20417 C 1861.86 3.67279 -3.10901 0
M  V30 20418 C 1864.22 3.71093 -3.65977 0
M  V30 20419 C 1861.54 3.81691 -4.45566 0
M  V30 20420 C 1863.9 3.87027 -5.00393 0
M  V30 20421 C 1862.56 3.91817 -5.40403 0
M  V30 20422 H 1861.83 0.683238 -0.286823 0
M  V30 20423 H 1864.48 1.37285 -1.3351 0
M  V30 20424 H 1862.78 3.87255 -0.595017 0
M  V30 20425 H 1864.48 3.88686 -0.986096 0
M  V30 20426 H 1861.07 3.5627 -2.38263 0
M  V30 20427 H 1865.25 3.65343 -3.35914 0
M  V30 20428 H 1860.51 3.83654 -4.76046 0
M  V30 20429 H 1864.68 3.93986 -5.74237 0
M  V30 20430 H 1862.31 4.02737 -6.44753 0
M  V30 20431 N 1863.88 0.848487 1.3281 0
M  V30 20432 C 1864.83 0.277328 2.30941 0
M  V30 20433 C 1865.83 -0.595938 1.58572 0
M  V30 20434 O 1867.03 -0.484428 1.73359 0
M  V30 20435 H 1863.41 0.0709686 0.748644 0
M  V30 20436 H 1865.38 1.11932 2.76611 0
M  V30 20437 C 1864.13 -0.524705 3.43718 0
M  V30 20438 H 1863.45 0.137959 3.99562 0
M  V30 20439 H 1864.89 -0.890032 4.14553 0
M  V30 20440 C 1863.35 -1.70746 2.90426 0
M  V30 20441 O 1863.88 -2.80641 2.87408 0
M  V30 20442 N 1862.09 -1.5325 2.46907 0
M  V30 20443 H 1861.63 -0.638526 2.49561 0
M  V30 20444 H 1861.59 -2.32532 2.11603 0
M  V30 20445 N 1865.36 -1.4549 0.605832 0
M  V30 20446 C 1866.3 -2.27618 -0.162864 0
M  V30 20447 C 1867.27 -1.37031 -0.875291 0
M  V30 20448 O 1868.46 -1.66459 -0.884517 0
M  V30 20449 C 1865.58 -3.15357 -1.23561 0
M  V30 20450 C 1864.63 -4.21873 -0.626513 0
M  V30 20451 S 1865.46 -5.32519 0.564279 0
M  V30 20452 C 1866.62 -6.23826 -0.509106 0
M  V30 20453 H 1866.85 -2.92466 0.533923 0
M  V30 20454 H 1864.39 -1.49307 0.393306 0
M  V30 20455 H 1866.34 -3.66465 -1.84969 0
M  V30 20456 H 1865 -2.49778 -1.90446 0
M  V30 20457 H 1864.2 -4.83181 -1.43361 0
M  V30 20458 H 1863.8 -3.73897 -0.0876196 0
M  V30 20459 H 1866.09 -6.63116 -1.38865 0
M  V30 20460 H 1867.03 -7.08068 0.0677653 0
M  V30 20461 H 1867.44 -5.58459 -0.823646 0
M  V30 20462 N 1866.84 -0.344893 -1.5378 0
M  V30 20463 C 1868.07 0.255228 -2.05824 0
M  V30 20464 C 1868.49 1.43329 -1.21812 0
M  V30 20465 O 1867.85 1.79807 -0.232191 0
M  V30 20466 C 1867.9 0.646906 -3.5475 0
M  V30 20467 O 1867 1.74677 -3.7358 0
M  V30 20468 H 1866.34 0.0420518 -0.662667 0
M  V30 20469 H 1868.87 -0.499498 -1.98409 0
M  V30 20470 H 1868.88 0.923686 -3.97407 0
M  V30 20471 H 1867.56 -0.214619 -4.15346 0
M  V30 20472 H 1866.13 1.46715 -3.42825 0
M  V30 20473 N 1868.32 1.57428 -0.0735454 0
M  V30 20474 C 1869.57 1.92732 0.594748 0
M  V30 20475 C 1869.88 0.955693 1.70663 0
M  V30 20476 O 1871.09 1.20162 2.43461 0
M  V30 20477 C 1869.54 3.42379 1.10927 0
M  V30 20478 C 1869.15 4.47991 0.0283008 0
M  V30 20479 C 1870.89 3.8668 1.75153 0
M  V30 20480 C 1868.8 5.88771 0.556965 0
M  V30 20481 H 1867.73 0.719355 0.22593 0
M  V30 20482 H 1870.38 1.82918 -0.146063 0
M  V30 20483 H 1868.76 3.47272 1.9031 0
M  V30 20484 H 1869.94 4.54716 -0.74634 0
M  V30 20485 H 1868.25 4.13168 -0.517835 0
M  V30 20486 H 1870.85 4.89244 2.15741 0
M  V30 20487 H 1871.19 3.24144 2.61221 0
M  V30 20488 H 1871.73 3.84397 1.02389 0
M  V30 20489 H 1868.47 6.54958 -0.266602 0
M  V30 20490 H 1867.99 5.85563 1.29909 0
M  V30 20491 H 1869.66 6.38703 1.03281 0
M  V30 20492 N 1869.8 -0.200022 1.56326 0
M  V30 20493 C 1871.03 -0.936144 1.84174 0
M  V30 20494 C 1871.43 -1.77564 0.653267 0
M  V30 20495 O 1870.78 -1.79569 -0.387368 0
M  V30 20496 C 1870.84 -1.88598 3.06057 0
M  V30 20497 C 1870.5 -1.22892 4.40167 0
M  V30 20498 C 1871.5 -0.608243 5.1633 0
M  V30 20499 C 1869.19 -1.23424 4.869 0
M  V30 20500 C 1871.18 -0.00166268 6.374 0
M  V30 20501 C 1868.87 -0.623827 6.07908 0
M  V30 20502 C 1869.86 -0.00861163 6.82999 0
M  V30 20503 O 1869.55 0.592252 8.01715 0
M  V30 20504 H 1869.28 -0.278889 0.615789 0
M  V30 20505 H 1871.84 -0.213764 2.04285 0
M  V30 20506 H 1870.07 -2.64793 2.81818 0
M  V30 20507 H 1871.76 -2.48948 3.20593 0
M  V30 20508 H 1872.52 -0.596302 4.8132 0
M  V30 20509 H 1868.4 -1.7025 4.28411 0
M  V30 20510 H 1871.95 0.479147 6.95953 0
M  V30 20511 H 1867.84 -0.633254 6.42386 0
M  V30 20512 H 1868.61 0.488674 8.1704 0
M  V30 20513 N 1871.27 -1.50505 -0.467553 0
M  V30 20514 C 1872.18 -1.72419 -1.59087 0
M  V30 20515 C 1873.2 -0.607403 -1.63054 0
M  V30 20516 O 1874.38 -0.886148 -1.80857 0
M  V30 20517 C 1871.44 -1.81686 -2.95281 0
M  V30 20518 C 1870.5 -3.05435 -3.01675 0
M  V30 20519 C 1869.74 -3.1425 -4.31373 0
M  V30 20520 O 1869.96 -2.29766 -5.22076 0
M  V30 20521 O 1868.89 -4.07005 -4.43431 0
M  V30 20522 H 1872.72 -2.67649 -1.43519 0
M  V30 20523 H 1870.3 -1.34643 -0.647422 0
M  V30 20524 H 1872.19 -1.89941 -3.76165 0
M  V30 20525 H 1870.86 -0.896404 -3.11041 0
M  V30 20526 H 1869.77 -3.02678 -2.19856 0
M  V30 20527 H 1871.1 -3.97071 -2.90853 0
M  V30 20528 N 1872.75 0.720973 -1.40142 0
M  V30 20529 C 1873.7 1.8564 -1.40145 0
M  V30 20530 C 1874.69 1.67025 -0.282667 0
M  V30 20531 O 1875.9 1.74195 -0.453429 0
M  V30 20532 H 1872.28 0.611316 -0.437947 0
M  V30 20533 H 1874.25 1.82753 -2.35889 0
M  V30 20534 C 1873 3.23455 -1.27563 0
M  V30 20535 H 1872.32 3.38382 -2.12926 0
M  V30 20536 H 1873.76 4.03052 -1.31623 0
M  V30 20537 C 1872.22 3.36897 0.0146614 0
M  V30 20538 O 1872.75 3.89572 0.979616 0
M  V30 20539 N 1870.95 2.90483 0.0823795 0
M  V30 20540 H 1870.5 2.47805 -0.70359 0
M  V30 20541 H 1870.46 2.99856 0.945177 0
M  V30 20542 N 1874.23 1.25549 0.952634 0
M  V30 20543 C 1875.48 1.09811 1.69188 0
M  V30 20544 C 1875.79 -0.360368 1.92252 0
M  V30 20545 O 1877 -0.638228 2.63892 0
M  V30 20546 C 1875.45 1.91693 3.04601 0
M  V30 20547 C 1875.06 3.42045 2.89326 0
M  V30 20548 C 1876.81 1.8453 3.82294 0
M  V30 20549 C 1874.71 4.16216 4.20141 0
M  V30 20550 H 1873.64 0.40733 0.634507 0
M  V30 20551 H 1876.29 1.49762 1.06035 0
M  V30 20552 H 1874.68 1.44566 3.68669 0
M  V30 20553 H 1875.85 3.96859 2.34178 0
M  V30 20554 H 1874.17 3.50322 2.25085 0
M  V30 20555 H 1876.76 2.37237 4.79189 0
M  V30 20556 H 1877.11 0.81361 4.08272 0
M  V30 20557 H 1877.64 2.29418 3.2498 0
M  V30 20558 H 1874.38 5.19806 3.99352 0
M  V30 20559 H 1873.9 3.66184 4.75047 0
M  V30 20560 H 1875.58 4.2404 4.88671 0
M  V30 20561 N 1875.71 -1.15554 1.07168 0
M  V30 20562 C 1876.66 -2.20234 0.690348 0
M  V30 20563 C 1877.63 -1.6304 -0.317346 0
M  V30 20564 O 1878.81 -1.89704 -0.20422 0
M  V30 20565 C 1875.95 -3.44976 0.0923404 0
M  V30 20566 C 1875.06 -4.16377 1.15128 0
M  V30 20567 C 1874.2 -5.28664 0.518478 0
M  V30 20568 C 1873.24 -5.91878 1.56034 0
M  V30 20569 N 1872.37 -6.9564 0.950251 0
M  V30 20570 H 1877.21 -2.52203 1.58738 0
M  V30 20571 H 1874.75 -1.23863 0.793502 0
M  V30 20572 H 1876.71 -4.16312 -0.271985 0
M  V30 20573 H 1875.34 -3.1353 -0.768054 0
M  V30 20574 H 1874.39 -3.43556 1.63321 0
M  V30 20575 H 1875.7 -4.59472 1.94132 0
M  V30 20576 H 1874.86 -6.06615 0.101683 0
M  V30 20577 H 1873.6 -4.86756 -0.303345 0
M  V30 20578 H 1872.6 -5.12641 1.98694 0
M  V30 20579 H 1873.83 -6.35864 2.38442 0
M  V30 20580 H 1871.77 -6.5583 0.149298 0
M  V30 20581 H 1871.69 -7.37153 1.67755 0
M  V30 20582 H 1872.96 -7.77494 0.558895 0
M  V30 20583 N 1877.19 -0.855519 -1.32358 0
M  V30 20584 C 1878.43 -0.459322 -1.97222 0
M  V30 20585 C 1878.76 0.985247 -1.677 0
M  V30 20586 O 1878.02 1.70642 -0.958117 0
M  V30 20587 C 1878.32 -0.64624 -3.51509 0
M  V30 20588 C 1877.98 -2.06141 -4.0102 0
M  V30 20589 C 1876.64 -2.44846 -4.14251 0
M  V30 20590 C 1879 -2.985 -4.27255 0
M  V30 20591 C 1876.32 -3.75181 -4.51061 0
M  V30 20592 C 1878.68 -4.28335 -4.65524 0
M  V30 20593 C 1877.34 -4.66973 -4.76961 0
M  V30 20594 H 1876.61 -0.168078 -0.721686 0
M  V30 20595 H 1879.26 -1.08574 -1.57747 0
M  V30 20596 H 1877.56 0.0634018 -3.91749 0
M  V30 20597 H 1879.26 -0.319727 -3.99723 0
M  V30 20598 H 1875.85 -1.75086 -3.91207 0
M  V30 20599 H 1880.03 -2.69829 -4.1654 0
M  V30 20600 H 1875.29 -4.04899 -4.58112 0
M  V30 20601 H 1879.46 -4.99963 -4.84778 0
M  V30 20602 H 1877.09 -5.6801 -5.05241 0
M  V30 20603 N 1878.67 1.45167 -0.61354 0
M  V30 20604 C 1879.91 2.01796 -0.110844 0
M  V30 20605 C 1880.23 1.48372 1.26534 0
M  V30 20606 O 1879.5 0.680323 1.83707 0
M  V30 20607 H 1878.08 0.746034 -0.0379861 0
M  V30 20608 H 1880.75 1.77892 -0.796279 0
M  V30 20609 H 1879.84 3.12032 -0.0651413 0
M  V30 20610 N 1880.14 0.353044 1.53595 0
M  V30 20611 C 1881.56 0.0014839 1.596 0
M  V30 20612 C 1881.76 -1.47884 1.36867 0
M  V30 20613 O 1880.82 -2.23881 1.16762 0
M  V30 20614 C 1882.13 0.446178 2.97371 0
M  V30 20615 C 1883.68 0.399329 3.10442 0
M  V30 20616 C 1884.15 0.819639 4.50606 0
M  V30 20617 N 1885.64 0.7742 4.56684 0
M  V30 20618 C 1886.38 1.07126 5.63304 0
M  V30 20619 N 1885.87 1.43696 6.77734 0
M  V30 20620 N 1887.67 0.994874 5.53226 0
M  V30 20621 H 1879.82 1.31719 1.66625 0
M  V30 20622 H 1882.08 0.537571 0.780847 0
M  V30 20623 H 1881.79 1.47869 3.19105 0
M  V30 20624 H 1881.66 -0.173715 3.768 0
M  V30 20625 H 1884.05 -0.624023 2.88427 0
M  V30 20626 H 1884.13 1.05455 2.33051 0
M  V30 20627 H 1883.77 1.84105 4.73358 0
M  V30 20628 H 1883.7 0.141795 5.26409 0
M  V30 20629 H 1886.19 0.504609 3.74516 0
M  V30 20630 H 1886.51 1.64822 7.55019 0
M  V30 20631 H 1884.85 1.4755 6.79157 0
M  V30 20632 H 1888.04 0.70845 4.62708 0
M  V30 20633 H 1888.22 1.22972 6.36225 0
M  V30 20634 N 1881.62 -1.57387 0.0818932 0
M  V30 20635 C 1882.53 -2.16804 -0.89629 0
M  V30 20636 C 1883.55 -1.1339 -1.3198 0
M  V30 20637 O 1884.72 -1.45702 -1.39042 0
M  V30 20638 C 1881.79 -2.72607 -2.14211 0
M  V30 20639 C 1880.85 -3.90929 -1.77406 0
M  V30 20640 C 1880.08 -4.44062 -2.96049 0
M  V30 20641 O 1880.31 -3.96166 -4.10376 0
M  V30 20642 O 1879.24 -5.35261 -2.75279 0
M  V30 20643 H 1883.07 -3.0077 -0.420827 0
M  V30 20644 H 1880.65 -1.48726 -0.141737 0
M  V30 20645 H 1882.53 -3.0833 -2.87247 0
M  V30 20646 H 1881.21 -1.91694 -2.60835 0
M  V30 20647 H 1880.11 -3.60042 -1.01591 0
M  V30 20648 H 1881.45 -4.73165 -1.35556 0
M  V30 20649 N 1883.1 0.191729 -1.56429 0
M  V30 20650 C 1884.38 0.937684 -1.71659 0
M  V30 20651 C 1884.76 2.0124 -0.63762 0
M  V30 20652 O 1884.1 2.2579 0.350865 0
M  V30 20653 C 1884.31 1.52104 -3.14111 0
M  V30 20654 C 1885.66 2.00186 -3.74447 0
M  V30 20655 O 1886.69 1.61939 -3.1726 0
M  V30 20656 O 1885.55 2.70576 -4.74817 0
M  V30 20657 H 1882.64 0.439962 -0.700259 0
M  V30 20658 H 1885.19 0.181161 -1.6873 0
M  V30 20659 H 1883.96 0.746526 -3.84113 0
M  V30 20660 H 1883.58 2.3423 -3.21282 0
M  V30 20661 N 1884.58 1.50751 0.459565 0
M  V30 20662 C 1885.54 1.69889 1.53852 0
M  V30 20663 C 1886.54 0.569308 1.50385 0
M  V30 20664 O 1887.73 0.836527 1.528 0
M  V30 20665 C 1884.86 1.73481 2.93457 0
M  V30 20666 H 1886.06 2.66162 1.38195 0
M  V30 20667 H 1883.61 1.40405 0.686741 0
M  V30 20668 H 1884.34 0.789426 3.14545 0
M  V30 20669 H 1884.13 2.55553 2.97381 0
M  V30 20670 H 1885.62 1.90202 3.7177 0
M  V30 20671 N 1886.06 -0.713531 1.40522 0
M  V30 20672 C 1887.28 -1.5026 1.4223 0
M  V30 20673 C 1887.7 -1.88787 0.0225637 0
M  V30 20674 O 1887.06 -1.55581 -0.95398 0
M  V30 20675 C 1887.11 -2.77663 2.31486 0
M  V30 20676 O 1886.83 -2.40765 3.66011 0
M  V30 20677 C 1888.33 -3.71543 2.41807 0
M  V30 20678 H 1885.55 -0.463648 0.485048 0
M  V30 20679 H 1888.09 -0.88 1.84598 0
M  V30 20680 H 1886.25 -3.36203 1.92475 0
M  V30 20681 H 1886.66 -3.22757 4.13434 0
M  V30 20682 H 1888.14 -4.57771 3.08464 0
M  V30 20683 H 1888.61 -4.14792 1.44375 0
M  V30 20684 H 1889.22 -3.18914 2.81379 0
M  V30 20685 N 1887.53 -1.26053 -0.945962 0
M  V30 20686 C 1888.46 -1.09687 -2.06134 0
M  V30 20687 C 1889.44 -0.00341513 -1.701 0
M  V30 20688 O 1890.63 -0.174559 -1.93414 0
M  V30 20689 C 1887.76 -0.724007 -3.3967 0
M  V30 20690 C 1886.71 -1.76866 -3.89747 0
M  V30 20691 C 1886.04 -1.25025 -5.19878 0
M  V30 20692 C 1887.34 -3.16923 -4.15159 0
M  V30 20693 H 1889.03 -2.02986 -2.20084 0
M  V30 20694 H 1886.58 -0.977346 -1.05754 0
M  V30 20695 H 1888.53 -0.596411 -4.17158 0
M  V30 20696 H 1887.26 0.244695 -3.25682 0
M  V30 20697 H 1885.92 -1.88485 -3.14435 0
M  V30 20698 H 1885.56 -0.271527 -5.02267 0
M  V30 20699 H 1885.26 -1.94853 -5.54352 0
M  V30 20700 H 1886.79 -1.13523 -5.99954 0
M  V30 20701 H 1888.2 -3.08409 -4.83277 0
M  V30 20702 H 1886.6 -3.84299 -4.60906 0
M  V30 20703 H 1887.67 -3.63337 -3.21114 0
M  V30 20704 N 1889.01 1.14984 -1.07779 0
M  V30 20705 C 1889.92 2.23484 -0.713576 0
M  V30 20706 C 1890.94 1.71779 0.277104 0
M  V30 20707 O 1892.11 2.01026 0.122649 0
M  V30 20708 C 1889.18 3.46487 -0.121542 0
M  V30 20709 C 1888.24 4.13162 -1.16602 0
M  V30 20710 C 1887.47 5.30292 -0.602138 0
M  V30 20711 O 1887.7 5.67439 0.580436 0
M  V30 20712 O 1886.63 5.86585 -1.34912 0
M  V30 20713 H 1890.46 2.56978 -1.61852 0
M  V30 20714 H 1888.04 1.22791 -0.851038 0
M  V30 20715 H 1889.92 4.20896 0.206134 0
M  V30 20716 H 1888.6 3.14732 0.756659 0
M  V30 20717 H 1887.5 3.40655 -1.54612 0
M  V30 20718 H 1888.84 4.49007 -2.01627 0
M  V30 20719 N 1890.49 0.862526 1.31902 0
M  V30 20720 C 1891.77 0.390745 1.91657 0
M  V30 20721 C 1892.15 -1.12648 1.78532 0
M  V30 20722 O 1891.49 -1.95169 1.18833 0
M  V30 20723 C 1891.7 0.863847 3.3814 0
M  V30 20724 C 1893.05 0.885621 4.15261 0
M  V30 20725 O 1894.08 0.809005 3.46891 0
M  V30 20726 O 1892.94 0.995169 5.37363 0
M  V30 20727 H 1890.03 0.115501 0.818895 0
M  V30 20728 H 1892.58 0.949947 1.4062 0
M  V30 20729 H 1891.35 1.90723 3.41673 0
M  V30 20730 H 1890.97 0.282536 3.96595 0
M  V30 20731 N 1891.97 -1.4484 0.62123 0
M  V30 20732 C 1893.21 -2.02433 0.121965 0
M  V30 20733 C 1893.55 -1.48679 -1.24932 0
M  V30 20734 O 1892.82 -0.666887 -1.8271 0
M  V30 20735 C 1893.11 -3.59967 0.0978513 0
M  V30 20736 C 1892.96 -4.24025 1.50077 0
M  V30 20737 C 1894.28 -4.36224 -0.582838 0
M  V30 20738 H 1891.4 -0.735576 0.0457947 0
M  V30 20739 H 1894.04 -1.72531 0.795812 0
M  V30 20740 H 1892.19 -3.85573 -0.47597 0
M  V30 20741 H 1893.86 -4.09558 2.12272 0
M  V30 20742 H 1892.1 -3.819 2.05754 0
M  V30 20743 H 1892.77 -5.32994 1.43602 0
M  V30 20744 H 1895.25 -4.15992 -0.0949595 0
M  V30 20745 H 1894.13 -5.45944 -0.568863 0
M  V30 20746 H 1894.39 -4.10098 -1.65142 0
M  V30 20747 N 1893.45 -0.361184 -1.53405 0
M  V30 20748 C 1894.39 0.487369 -2.25596 0
M  V30 20749 C 1895.36 1.08114 -1.26097 0
M  V30 20750 O 1896.55 1.11446 -1.54869 0
M  V30 20751 C 1893.69 1.62342 -3.04531 0
M  V30 20752 C 1892.8 1.05525 -4.18914 0
M  V30 20753 C 1891.94 2.16004 -4.853 0
M  V30 20754 C 1890.98 1.5663 -5.91721 0
M  V30 20755 N 1890.11 2.60923 -6.51816 0
M  V30 20756 H 1894.95 -0.134748 -2.97695 0
M  V30 20757 H 1892.49 -0.0782688 -1.46892 0
M  V30 20758 H 1894.45 2.29252 -3.48568 0
M  V30 20759 H 1893.08 2.21626 -2.34695 0
M  V30 20760 H 1892.13 0.276561 -3.79393 0
M  V30 20761 H 1893.44 0.581111 -4.95403 0
M  V30 20762 H 1892.6 2.90743 -5.32497 0
M  V30 20763 H 1891.33 2.66768 -4.08272 0
M  V30 20764 H 1890.34 0.804031 -5.43889 0
M  V30 20765 H 1891.56 1.06696 -6.70666 0
M  V30 20766 H 1889.51 3.10909 -5.77643 0
M  V30 20767 H 1889.43 2.18184 -7.23831 0
M  V30 20768 H 1890.7 3.35378 -7.03663 0
M  V30 20769 N 1894.92 1.57341 -0.0902386 0
M  V30 20770 C 1896.34 1.57361 0.266413 0
M  V30 20771 C 1896.54 1.10104 1.68758 0
M  V30 20772 O 1895.6 0.775287 2.40303 0
M  V30 20773 C 1896.91 3.00642 0.0592661 0
M  V30 20774 C 1898.46 3.12741 0.127389 0
M  V30 20775 C 1898.93 4.57971 -0.0517042 0
M  V30 20776 N 1900.42 4.632 0.0032917 0
M  V30 20777 C 1901.16 5.73293 -0.110598 0
M  V30 20778 N 1900.65 6.92238 -0.279049 0
M  V30 20779 N 1902.45 5.62076 -0.0522147 0
M  V30 20780 H 1894.6 1.86369 -1.01884 0
M  V30 20781 H 1896.86 0.859996 -0.398886 0
M  V30 20782 H 1896.57 3.39396 -0.922117 0
M  V30 20783 H 1896.44 3.68539 0.80368 0
M  V30 20784 H 1898.83 2.73861 1.09927 0
M  V30 20785 H 1898.91 2.47445 -0.648435 0
M  V30 20786 H 1898.55 4.97544 -1.02043 0
M  V30 20787 H 1898.48 5.21321 0.743753 0
M  V30 20788 H 1900.97 3.77672 0.131145 0
M  V30 20789 H 1901.29 7.71972 -0.357596 0
M  V30 20790 H 1899.63 6.94287 -0.314653 0
M  V30 20791 H 1902.82 4.68035 0.0782189 0
M  V30 20792 H 1903 6.47839 -0.144423 0
M  V30 20793 N 1896.4 -0.183431 1.56529 0
M  V30 20794 C 1897.65 -0.903332 1.8157 0
M  V30 20795 C 1897.98 -1.82417 0.666167 0
M  V30 20796 O 1897.26 -1.91635 -0.332621 0
M  V30 20797 C 1897.54 -1.70949 3.16936 0
M  V30 20798 C 1897.39 -0.812595 4.42399 0
M  V30 20799 C 1898.71 -2.6797 3.49113 0
M  V30 20800 H 1895.83 -0.326961 0.660504 0
M  V30 20801 H 1898.47 -0.170115 1.89237 0
M  V30 20802 H 1896.62 -2.33458 3.10531 0
M  V30 20803 H 1898.29 -0.201313 4.60861 0
M  V30 20804 H 1896.54 -0.119949 4.33634 0
M  V30 20805 H 1897.21 -1.4119 5.33638 0
M  V30 20806 H 1899.68 -2.15591 3.55893 0
M  V30 20807 H 1898.56 -3.21451 4.44927 0
M  V30 20808 H 1898.82 -3.47584 2.73199 0
M  V30 20809 N 1897.88 -1.50992 -0.451564 0
M  V30 20810 C 1899.11 -1.67021 -1.22958 0
M  V30 20811 C 1899.53 -0.36115 -1.846 0
M  V30 20812 O 1898.89 0.677193 -1.68178 0
M  V30 20813 C 1898.94 -2.77744 -2.29979 0
M  V30 20814 O 1898.04 -2.40356 -3.35116 0
M  V30 20815 H 1897.38 -0.557369 -0.360882 0
M  V30 20816 H 1899.91 -1.97479 -0.535073 0
M  V30 20817 H 1899.92 -3.01406 -2.74988 0
M  V30 20818 H 1898.6 -3.72742 -1.84488 0
M  V30 20819 H 1897.17 -2.27214 -2.95683 0
M  V30 20820 N 1899.36 0.706069 -1.40899 0
M  V30 20821 C 1900.31 1.82011 -1.41918 0
M  V30 20822 C 1901.28 1.6381 -0.274879 0
M  V30 20823 O 1902.46 1.84809 -0.474366 0
M  V30 20824 C 1899.6 3.19805 -1.29687 0
M  V30 20825 C 1898.71 3.49512 -2.53901 0
M  V30 20826 C 1897.85 4.76863 -2.34041 0
M  V30 20827 C 1896.89 4.99504 -3.53783 0
M  V30 20828 N 1896.02 6.18074 -3.33059 0
M  V30 20829 H 1900.86 1.80474 -2.37135 0
M  V30 20830 H 1898.4 0.881471 -1.17765 0
M  V30 20831 H 1900.36 3.99389 -1.206 0
M  V30 20832 H 1898.99 3.20546 -0.380837 0
M  V30 20833 H 1898.04 2.64411 -2.73479 0
M  V30 20834 H 1899.35 3.62147 -3.43002 0
M  V30 20835 H 1898.51 5.64482 -2.22361 0
M  V30 20836 H 1897.25 4.66454 -1.42379 0
M  V30 20837 H 1896.25 4.10336 -3.65929 0
M  V30 20838 H 1897.48 5.11779 -4.46385 0
M  V30 20839 H 1895.42 6.08898 -2.44088 0
M  V30 20840 H 1895.34 6.3143 -4.15731 0
M  V30 20841 H 1896.61 7.08456 -3.25131 0
M  V30 20842 N 1900.84 1.26553 0.939264 0
M  V30 20843 C 1902.08 1.1221 1.68568 0
M  V30 20844 C 1902.41 -0.334213 1.91607 0
M  V30 20845 O 1901.67 -1.26177 1.49593 0
M  V30 20846 C 1901.97 1.83848 3.06488 0
M  V30 20847 C 1901.63 3.33739 3.03198 0
M  V30 20848 C 1900.29 3.74626 3.02008 0
M  V30 20849 C 1902.65 4.29432 2.9536 0
M  V30 20850 C 1899.97 5.0959 2.90748 0
M  V30 20851 C 1902.33 5.64439 2.85641 0
M  V30 20852 C 1900.99 6.04635 2.82795 0
M  V30 20853 H 1900.26 0.410606 0.616833 0
M  V30 20854 H 1902.91 1.57019 1.09623 0
M  V30 20855 H 1901.21 1.31514 3.69068 0
M  V30 20856 H 1902.91 1.70189 3.63093 0
M  V30 20857 H 1899.5 3.01216 3.04905 0
M  V30 20858 H 1903.68 3.98824 2.95386 0
M  V30 20859 H 1898.94 5.39894 2.86923 0
M  V30 20860 H 1903.11 6.3827 2.7854 0
M  V30 20861 H 1900.74 7.09171 2.73826 0
M  V30 20862 N 1902.31 -1.14411 1.08387 0
M  V30 20863 C 1903.28 -2.17682 0.717433 0
M  V30 20864 C 1904.28 -1.58881 -0.24766 0
M  V30 20865 O 1905.47 -1.74179 -0.027231 0
M  V30 20866 C 1902.6 -3.40849 0.0592022 0
M  V30 20867 H 1903.79 -2.51614 1.63188 0
M  V30 20868 H 1901.35 -1.29056 0.88172 0
M  V30 20869 H 1902.08 -3.12496 -0.866987 0
M  V30 20870 H 1901.87 -3.84792 0.753477 0
M  V30 20871 H 1903.36 -4.17203 -0.182152 0
M  V30 20872 N 1903.79 -0.869509 -1.31443 0
M  V30 20873 C 1904.76 -0.329869 -2.26814 0
M  V30 20874 C 1905.76 0.518895 -1.52198 0
M  V30 20875 O 1906.95 0.328267 -1.71079 0
M  V30 20876 C 1904.08 0.53159 -3.3673 0
M  V30 20877 H 1905.27 -1.1718 -2.7606 0
M  V30 20878 H 1902.82 -0.645061 -1.42368 0
M  V30 20879 H 1903.56 1.39473 -2.92776 0
M  V30 20880 H 1903.34 -0.0761553 -3.92026 0
M  V30 20881 H 1904.83 0.901447 -4.07754 0
M  V30 20882 N 1905.27 1.44508 -0.628902 0
M  V30 20883 C 1906.52 2.01281 -0.129966 0
M  V30 20884 C 1906.83 1.50041 1.25488 0
M  V30 20885 O 1908.04 1.98927 1.84771 0
M  V30 20886 C 1906.49 3.59442 -0.1816 0
M  V30 20887 C 1906.1 4.19678 -1.56762 0
M  V30 20888 C 1907.85 4.23697 0.260988 0
M  V30 20889 C 1905.75 5.70056 -1.57449 0
M  V30 20890 H 1904.68 0.752667 -0.0448215 0
M  V30 20891 H 1907.33 1.65749 -0.787372 0
M  V30 20892 H 1905.72 3.92261 0.542864 0
M  V30 20893 H 1906.89 3.98399 -2.31549 0
M  V30 20894 H 1905.21 3.67701 -1.9541 0
M  V30 20895 H 1907.8 5.33991 0.275356 0
M  V30 20896 H 1908.15 3.95878 1.28787 0
M  V30 20897 H 1908.68 3.95672 -0.410909 0
M  V30 20898 H 1905.42 6.02606 -2.57966 0
M  V30 20899 H 1904.94 5.93464 -0.869514 0
M  V30 20900 H 1906.62 6.33652 -1.30745 0
M  V30 20901 N 1906.75 0.369315 1.53212 0
M  V30 20902 C 1908.03 -0.275781 1.93646 0
M  V30 20903 C 1908.41 -1.66075 1.30316 0
M  V30 20904 O 1907.75 -2.23746 0.463658 0
M  V30 20905 C 1907.96 -0.322239 3.47509 0
M  V30 20906 C 1909.31 -0.560798 4.2088 0
M  V30 20907 O 1910.34 -0.403291 3.5391 0
M  V30 20908 O 1909.2 -0.86778 5.39566 0
M  V30 20909 H 1906.29 -0.166296 0.810108 0
M  V30 20910 H 1908.84 0.42237 1.6436 0
M  V30 20911 H 1907.61 0.648648 3.85886 0
M  V30 20912 H 1907.23 -1.06613 3.8304 0
M  V30 20913 N 1908.23 -1.57291 0.0985816 0
M  V30 20914 C 1909.14 -2.17742 -0.873245 0
M  V30 20915 C 1910.15 -1.14784 -1.3077 0
M  V30 20916 O 1911.33 -1.47169 -1.37489 0
M  V30 20917 C 1908.39 -2.74864 -2.11308 0
M  V30 20918 C 1907.46 -3.92789 -1.73249 0
M  V30 20919 C 1906.69 -4.47177 -2.91322 0
M  V30 20920 O 1906.91 -4.00497 -4.06151 0
M  V30 20921 O 1905.85 -5.38151 -2.69587 0
M  V30 20922 H 1909.67 -3.012 -0.388902 0
M  V30 20923 H 1907.26 -1.48868 -0.125955 0
M  V30 20924 H 1909.14 -3.11359 -2.8396 0
M  V30 20925 H 1907.81 -1.9445 -2.58787 0
M  V30 20926 H 1906.72 -3.61099 -0.977663 0
M  V30 20927 H 1908.05 -4.74577 -1.3053 0
M  V30 20928 N 1909.71 0.175127 -1.56624 0
M  V30 20929 C 1910.95 0.892368 -1.81777 0
M  V30 20930 C 1911.28 1.8241 -0.675051 0
M  V30 20931 O 1910.54 1.9276 0.337944 0
M  V30 20932 C 1910.83 1.72397 -3.13072 0
M  V30 20933 C 1910.5 0.941494 -4.40961 0
M  V30 20934 C 1909.16 0.725524 -4.75699 0
M  V30 20935 C 1911.51 0.392358 -5.19721 0
M  V30 20936 C 1908.84 -0.0507428 -5.86678 0
M  V30 20937 C 1911.19 -0.370801 -6.31512 0
M  V30 20938 C 1909.86 -0.597606 -6.64819 0
M  V30 20939 H 1909.13 0.326541 -0.665171 0
M  V30 20940 H 1911.78 0.157524 -1.90851 0
M  V30 20941 H 1910.08 2.52809 -2.99324 0
M  V30 20942 H 1911.78 2.28189 -3.29743 0
M  V30 20943 H 1908.37 1.11986 -4.13711 0
M  V30 20944 H 1912.55 0.546561 -4.93281 0
M  V30 20945 H 1907.81 -0.236241 -6.10943 0
M  V30 20946 H 1911.98 -0.803585 -6.91748 0
M  V30 20947 H 1909.61 -1.201 -7.50653 0
M  V30 20948 N 1911.18 1.5123 0.44355 0
M  V30 20949 C 1912.43 1.62825 1.19041 0
M  V30 20950 C 1912.75 0.347298 1.92492 0
M  V30 20951 O 1913.95 0.342537 2.69331 0
M  V30 20952 C 1912.41 2.87532 2.16456 0
M  V30 20953 C 1912.02 4.22608 1.48682 0
M  V30 20954 C 1913.76 3.08483 2.91614 0
M  V30 20955 C 1911.67 5.38472 2.44544 0
M  V30 20956 H 1910.6 0.606444 0.448041 0
M  V30 20957 H 1913.25 1.77691 0.458065 0
M  V30 20958 H 1911.63 2.66287 2.931 0
M  V30 20959 H 1912.8 4.54212 0.776389 0
M  V30 20960 H 1911.12 4.07485 0.857007 0
M  V30 20961 H 1913.72 3.92219 3.63413 0
M  V30 20962 H 1914.06 2.2131 3.52601 0
M  V30 20963 H 1914.59 3.30039 2.22078 0
M  V30 20964 H 1911.33 6.27886 1.88255 0
M  V30 20965 H 1910.85 5.11252 3.13658 0
M  V30 20966 H 1912.53 5.70169 3.05804 0
M  V30 20967 N 1912.66 -0.698586 1.41271 0
M  V30 20968 C 1913.57 -1.8424 1.45234 0
M  V30 20969 C 1914.59 -1.70581 0.343225 0
M  V30 20970 O 1915.76 -1.9255 0.590477 0
M  V30 20971 C 1912.83 -3.20195 1.32951 0
M  V30 20972 C 1911.89 -3.45984 2.54152 0
M  V30 20973 C 1911.12 -4.75453 2.42446 0
M  V30 20974 O 1911.35 -5.5173 1.44741 0
M  V30 20975 O 1910.28 -5.01958 3.32147 0
M  V30 20976 H 1914.11 -1.83853 2.41727 0
M  V30 20977 H 1911.69 -0.851252 1.22776 0
M  V30 20978 H 1913.57 -4.0137 1.28374 0
M  V30 20979 H 1912.25 -3.21272 0.395728 0
M  V30 20980 H 1911.15 -2.64751 2.64306 0
M  V30 20981 H 1912.49 -3.49718 3.46349 0
M  V30 20982 N 1914.14 -1.27049 -0.93254 0
M  V30 20983 C 1915.36 -1.16011 -1.71919 0
M  V30 20984 C 1915.79 0.279951 -1.86005 0
M  V30 20985 O 1915.15 1.20279 -1.35657 0
M  V30 20986 C 1915.2 -1.84349 -3.09916 0
M  V30 20987 O 1914.3 -1.13816 -3.96383 0
M  V30 20988 H 1913.64 -0.403752 -0.527144 0
M  V30 20989 H 1916.17 -1.6803 -1.16736 0
M  V30 20990 H 1916.18 -1.91516 -3.60258 0
M  V30 20991 H 1914.86 -2.89109 -2.9898 0
M  V30 20992 H 1913.43 -1.14684 -3.54827 0
M  V30 20993 N 1915.62 1.13835 -1.08993 0
M  V30 20994 C 1916.55 2.21226 -0.74707 0
M  V30 20995 C 1917.53 1.67891 0.273232 0
M  V30 20996 O 1918.71 1.93678 0.142278 0
M  V30 20997 C 1915.84 3.46922 -0.162028 0
M  V30 20998 C 1914.8 4.1332 -1.11135 0
M  V30 20999 C 1914.12 5.33289 -0.388228 0
M  V30 21000 C 1915.42 4.61169 -2.45195 0
M  V30 21001 H 1917.12 2.50162 -1.64497 0
M  V30 21002 H 1914.66 1.20239 -0.792368 0
M  V30 21003 H 1916.62 4.21304 0.0898753 0
M  V30 21004 H 1915.34 3.17368 0.771036 0
M  V30 21005 H 1914 3.40899 -1.34845 0
M  V30 21006 H 1913.65 4.99997 0.548832 0
M  V30 21007 H 1913.35 5.78659 -1.02115 0
M  V30 21008 H 1914.87 6.10429 -0.144519 0
M  V30 21009 H 1916.29 5.26996 -2.25717 0
M  V30 21010 H 1914.68 5.17263 -3.04235 0
M  V30 21011 H 1915.75 3.75923 -3.06284 0
M  V30 21012 N 1917.1 0.876467 1.3098 0
M  V30 21013 C 1918.51 0.542323 1.7865 0
M  V30 21014 C 1918.86 -0.941103 1.72156 0
M  V30 21015 O 1917.98 -1.73506 1.29324 0
M  V30 21016 C 1918.58 0.977656 3.24388 0
M  V30 21017 C 1917.14 0.695064 3.69927 0
M  V30 21018 C 1916.28 1.16537 2.51624 0
M  V30 21019 H 1919.23 1.06154 1.1797 0
M  V30 21020 H 1919.26 0.30304 3.79291 0
M  V30 21021 H 1918.77 2.05735 3.29082 0
M  V30 21022 H 1916.87 -0.372992 3.70728 0
M  V30 21023 H 1916.98 1.27665 4.61778 0
M  V30 21024 H 1915.35 0.584941 2.47892 0
M  V30 21025 H 1916.13 2.25262 2.5906 0
M  V30 21026 N 1918.57 -1.44173 0.636557 0
M  V30 21027 C 1919.52 -2.32472 -0.077248 0
M  V30 21028 C 1920.52 -1.47659 -0.830248 0
M  V30 21029 O 1921.72 -1.63971 -0.742533 0
M  V30 21030 H 1918.1 -0.750726 -0.0437543 0
M  V30 21031 H 1920.07 -2.9042 0.685465 0
M  V30 21032 C 1918.82 -3.31734 -1.04152 0
M  V30 21033 H 1918.14 -3.9701 -0.471531 0
M  V30 21034 H 1919.58 -3.96187 -1.51036 0
M  V30 21035 C 1918.04 -2.61069 -2.12943 0
M  V30 21036 O 1918.57 -2.41366 -3.211 0
M  V30 21037 N 1916.77 -2.20717 -1.8903 0
M  V30 21038 H 1916.32 -2.36941 -1.01077 0
M  V30 21039 H 1916.28 -1.73763 -2.62018 0
M  V30 21040 N 1920.05 -0.377435 -1.53014 0
M  V30 21041 C 1921 0.463415 -2.261 0
M  V30 21042 C 1921.97 1.06771 -1.27237 0
M  V30 21043 O 1923.15 1.09797 -1.56043 0
M  V30 21044 C 1920.29 1.59103 -3.06236 0
M  V30 21045 C 1919.41 1.01076 -4.20009 0
M  V30 21046 C 1918.54 2.10845 -4.87563 0
M  V30 21047 C 1917.58 1.50345 -5.93349 0
M  V30 21048 N 1916.72 2.53995 -6.54546 0
M  V30 21049 H 1921.56 -0.166315 -2.97536 0
M  V30 21050 H 1919.09 -0.0938442 -1.468 0
M  V30 21051 H 1921.05 2.25542 -3.5098 0
M  V30 21052 H 1919.68 2.19125 -2.37032 0
M  V30 21053 H 1918.73 0.236306 -3.79665 0
M  V30 21054 H 1920.05 0.528534 -4.95992 0
M  V30 21055 H 1919.2 2.85079 -5.35551 0
M  V30 21056 H 1917.94 2.62423 -4.11079 0
M  V30 21057 H 1916.94 0.746299 -5.44711 0
M  V30 21058 H 1918.17 0.995763 -6.7176 0
M  V30 21059 H 1916.12 3.04765 -5.80908 0
M  V30 21060 H 1916.03 2.10494 -7.26105 0
M  V30 21061 H 1917.3 3.27896 -7.07181 0
M  V30 21062 N 1921.53 1.57237 -0.106922 0
M  V30 21063 C 1922.76 1.98831 0.561223 0
M  V30 21064 C 1923.17 0.985199 1.61525 0
M  V30 21065 O 1922.51 -0.0317928 1.83672 0
M  V30 21066 C 1922.57 3.3682 1.25668 0
M  V30 21067 C 1922.24 4.55642 0.352017 0
M  V30 21068 C 1923.23 5.18323 -0.404571 0
M  V30 21069 C 1920.92 5.01592 0.266617 0
M  V30 21070 C 1922.91 6.25333 -1.23442 0
M  V30 21071 C 1920.6 6.08465 -0.566871 0
M  V30 21072 C 1921.6 6.70201 -1.31603 0
M  V30 21073 O 1921.29 7.75012 -2.1357 0
M  V30 21074 H 1921.02 0.658182 0.154181 0
M  V30 21075 H 1923.57 2.04552 -0.186443 0
M  V30 21076 H 1921.8 3.27817 2.05116 0
M  V30 21077 H 1923.49 3.62783 1.82053 0
M  V30 21078 H 1924.26 4.83747 -0.348395 0
M  V30 21079 H 1920.14 4.53294 0.839401 0
M  V30 21080 H 1923.68 6.7345 -1.81964 0
M  V30 21081 H 1919.58 6.42472 -0.624485 0
M  V30 21082 H 1920.35 7.92054 -2.0638 0
M  V30 21083 N 1923.01 -0.166818 1.56715 0
M  V30 21084 C 1924.29 -0.910255 1.73129 0
M  V30 21085 C 1924.67 -2.002 0.669555 0
M  V30 21086 O 1924.01 -2.2632 -0.314899 0
M  V30 21087 C 1924.22 -1.47087 3.16491 0
M  V30 21088 C 1925.57 -1.94204 3.77584 0
M  V30 21089 O 1926.6 -1.56872 3.19796 0
M  V30 21090 O 1925.45 -2.62988 4.79061 0
M  V30 21091 H 1922.55 -0.428766 0.70717 0
M  V30 21092 H 1925.09 -0.154295 1.68997 0
M  V30 21093 H 1923.87 -0.685322 3.85252 0
M  V30 21094 H 1923.49 -2.29089 3.24967 0
M  V30 21095 N 1924.49 -1.51463 -0.435524 0
M  V30 21096 C 1925.71 -1.68031 -1.20719 0
M  V30 21097 C 1926.13 -0.378427 -1.84969 0
M  V30 21098 O 1925.49 0.643234 -1.70789 0
M  V30 21099 C 1925.54 -2.79726 -2.28989 0
M  V30 21100 O 1925.26 -4.0487 -1.67367 0
M  V30 21101 C 1926.76 -3.07578 -3.19234 0
M  V30 21102 H 1923.98 -0.56383 -0.363781 0
M  V30 21103 H 1926.52 -1.97888 -0.515825 0
M  V30 21104 H 1924.68 -2.52463 -2.93839 0
M  V30 21105 H 1925.09 -4.66915 -2.38937 0
M  V30 21106 H 1926.57 -3.89309 -3.91334 0
M  V30 21107 H 1927.04 -2.20059 -3.80093 0
M  V30 21108 H 1927.65 -3.36507 -2.60083 0
M  V30 21109 N 1925.96 0.691085 -1.4164 0
M  V30 21110 C 1926.91 1.82625 -1.44051 0
M  V30 21111 C 1927.91 1.66388 -0.318032 0
M  V30 21112 O 1929.11 1.73194 -0.490276 0
M  V30 21113 H 1925.49 0.601889 -0.450815 0
M  V30 21114 H 1927.46 1.77709 -2.39713 0
M  V30 21115 C 1926.21 3.20676 -1.34395 0
M  V30 21116 H 1925.53 3.3379 -2.20056 0
M  V30 21117 H 1926.97 4.0017 -1.40143 0
M  V30 21118 C 1925.43 3.36852 -0.0568027 0
M  V30 21119 O 1925.96 3.91562 0.896762 0
M  V30 21120 N 1924.17 2.90593 0.0207452 0
M  V30 21121 H 1923.71 2.46257 -0.755995 0
M  V30 21122 H 1923.67 3.01794 0.88136 0
M  V30 21123 N 1927.44 1.27542 0.925789 0
M  V30 21124 C 1928.69 1.14161 1.67616 0
M  V30 21125 C 1929.02 -0.311471 1.91686 0
M  V30 21126 O 1928.3 -1.22766 1.5086 0
M  V30 21127 C 1928.58 1.92778 3.04152 0
M  V30 21128 C 1928.43 3.46081 2.87312 0
M  V30 21129 C 1929.75 1.73374 4.04511 0
M  V30 21130 H 1926.87 0.416091 0.608307 0
M  V30 21131 H 1929.51 1.56719 1.0742 0
M  V30 21132 H 1927.66 1.5661 3.55536 0
M  V30 21133 H 1929.33 3.92089 2.43031 0
M  V30 21134 H 1927.58 3.72324 2.22615 0
M  V30 21135 H 1928.25 3.96333 3.84219 0
M  V30 21136 H 1930.72 2.04914 3.62146 0
M  V30 21137 H 1929.6 2.30773 4.98031 0
M  V30 21138 H 1929.86 0.682154 4.36806 0
M  V30 21139 N 1928.92 -1.13255 1.09595 0
M  V30 21140 C 1930.17 -1.84206 0.831411 0
M  V30 21141 C 1930.49 -1.8403 -0.64483 0
M  V30 21142 O 1929.76 -1.29728 -1.46791 0
M  V30 21143 H 1928.34 -0.682085 0.304579 0
M  V30 21144 H 1931 -1.37183 1.38444 0
M  V30 21145 H 1930.1 -2.88667 1.18649 0
M  V30 21146 N 1930.4 -0.883401 -1.30514 0
M  V30 21147 C 1931.81 -0.55179 -1.7836 0
M  V30 21148 C 1932.16 0.93196 -1.72653 0
M  V30 21149 O 1931.29 1.72818 -1.30242 0
M  V30 21150 C 1931.88 -0.994845 -3.23865 0
M  V30 21151 C 1930.44 -0.714672 -3.69553 0
M  V30 21152 C 1929.59 -1.1787 -2.51002 0
M  V30 21153 H 1932.54 -1.06778 -1.17406 0
M  V30 21154 H 1932.56 -0.32315 -3.79125 0
M  V30 21155 H 1932.07 -2.07477 -3.27986 0
M  V30 21156 H 1930.17 0.353326 -3.70921 0
M  V30 21157 H 1930.28 -1.30112 -4.61094 0
M  V30 21158 H 1928.65 -0.598079 -2.47578 0
M  V30 21159 H 1929.43 -2.26633 -2.57862 0
M  V30 21160 N 1931.88 1.43833 -0.644194 0
M  V30 21161 C 1933.11 2.0597 -0.161163 0
M  V30 21162 C 1933.51 1.48309 1.17478 0
M  V30 21163 O 1932.86 0.60548 1.73435 0
M  V30 21164 C 1932.92 3.59497 0.014069 0
M  V30 21165 C 1932.58 4.39693 -1.24575 0
M  V30 21166 C 1933.58 4.72336 -2.17244 0
M  V30 21167 C 1931.27 4.79853 -1.48481 0
M  V30 21168 C 1933.26 5.44036 -3.3212 0
M  V30 21169 C 1930.95 5.51299 -2.63652 0
M  V30 21170 C 1931.94 5.83312 -3.55297 0
M  V30 21171 O 1931.63 6.53301 -4.68458 0
M  V30 21172 H 1931.36 0.670886 -0.0829965 0
M  V30 21173 H 1933.92 1.85477 -0.882467 0
M  V30 21174 H 1932.15 3.78531 0.790652 0
M  V30 21175 H 1933.84 4.03361 0.453309 0
M  V30 21176 H 1934.6 4.41836 -2.00014 0
M  V30 21177 H 1930.48 4.54348 -0.780324 0
M  V30 21178 H 1934.03 5.6894 -4.03674 0
M  V30 21179 H 1929.92 5.81214 -2.80821 0
M  V30 21180 H 1930.69 6.71778 -4.67607 0
M  V30 21181 N 1933.35 0.385544 1.52811 0
M  V30 21182 C 1934.6 -0.197454 2.01133 0
M  V30 21183 C 1934.92 -1.47634 1.27394 0
M  V30 21184 O 1934.19 -1.91919 0.392916 0
M  V30 21185 H 1932.77 -0.0759558 0.743128 0
M  V30 21186 H 1935.44 0.51637 1.87935 0
M  V30 21187 H 1934.53 -0.410335 3.09391 0
M  V30 21188 N 1934.83 -1.57178 0.115259 0
M  V30 21189 C 1935.78 -2.15114 -0.836331 0
M  V30 21190 C 1936.75 -1.07511 -1.26612 0
M  V30 21191 O 1937.93 -1.354 -1.3443 0
M  V30 21192 C 1935.07 -2.75187 -2.08245 0
M  V30 21193 C 1934.19 -3.97086 -1.70137 0
M  V30 21194 C 1933.32 -4.45258 -2.89687 0
M  V30 21195 C 1932.36 -5.59697 -2.47801 0
M  V30 21196 N 1931.5 -6.0263 -3.60252 0
M  V30 21197 H 1936.34 -2.96106 -0.335434 0
M  V30 21198 H 1933.88 -1.46293 -0.15388 0
M  V30 21199 H 1935.83 -3.08145 -2.81252 0
M  V30 21200 H 1934.46 -1.96891 -2.558 0
M  V30 21201 H 1933.52 -3.70313 -0.870192 0
M  V30 21202 H 1934.83 -4.80085 -1.35352 0
M  V30 21203 H 1933.98 -4.80105 -3.70923 0
M  V30 21204 H 1932.72 -3.61201 -3.27696 0
M  V30 21205 H 1931.73 -5.24458 -1.64997 0
M  V30 21206 H 1932.95 -6.45517 -2.10913 0
M  V30 21207 H 1930.9 -5.21515 -3.97942 0
M  V30 21208 H 1930.81 -6.80474 -3.29379 0
M  V30 21209 H 1932.08 -6.42114 -4.41939 0
M  V30 21210 N 1936.31 0.158505 -1.56801 0
M  V30 21211 C 1937.54 0.892291 -1.87224 0
M  V30 21212 C 1937.96 1.74468 -0.703029 0
M  V30 21213 O 1937.32 1.77936 0.347649 0
M  V30 21214 C 1937.37 1.73433 -3.16154 0
M  V30 21215 O 1936.47 2.83736 -2.99279 0
M  V30 21216 H 1935.81 0.249214 -0.615458 0
M  V30 21217 H 1938.34 0.152785 -2.04029 0
M  V30 21218 H 1938.35 2.13168 -3.47884 0
M  V30 21219 H 1937.03 1.10831 -4.00861 0
M  V30 21220 H 1935.6 2.47491 -2.78931 0
M  V30 21221 N 1937.79 1.51692 0.427485 0
M  V30 21222 C 1938.72 1.76668 1.52679 0
M  V30 21223 C 1939.7 0.616865 1.58521 0
M  V30 21224 O 1940.89 0.860595 1.7409 0
M  V30 21225 C 1938.02 1.9007 2.90673 0
M  V30 21226 C 1936.97 3.05566 2.99689 0
M  V30 21227 C 1936.3 3.04165 4.39759 0
M  V30 21228 C 1937.6 4.45359 2.72861 0
M  V30 21229 H 1939.29 2.68717 1.32029 0
M  V30 21230 H 1936.84 1.29306 0.633716 0
M  V30 21231 H 1938.79 2.06125 3.67546 0
M  V30 21232 H 1937.51 0.946769 3.12576 0
M  V30 21233 H 1936.17 2.89231 2.25257 0
M  V30 21234 H 1935.82 2.0653 4.58644 0
M  V30 21235 H 1935.52 3.81727 4.46719 0
M  V30 21236 H 1937.04 3.22326 5.18592 0
M  V30 21237 H 1938.46 4.61993 3.39463 0
M  V30 21238 H 1936.85 5.24701 2.91219 0
M  V30 21239 H 1937.92 4.54717 1.68405 0
M  V30 21240 N 1939.27 -0.683564 1.42004 0
M  V30 21241 C 1940.49 -1.47711 1.45589 0
M  V30 21242 C 1940.92 -1.87984 0.0661307 0
M  V30 21243 O 1940.28 -1.55425 -0.933428 0
M  V30 21244 C 1940.32 -2.70824 2.3809 0
M  V30 21245 O 1939.43 -3.68766 1.84622 0
M  V30 21246 H 1938.77 -0.444102 0.493629 0
M  V30 21247 H 1941.3 -0.839192 1.86598 0
M  V30 21248 H 1941.31 -3.18996 2.54373 0
M  V30 21249 H 1939.98 -2.4085 3.39063 0
M  V30 21250 H 1938.56 -3.27756 1.77849 0
M  V30 21251 N 1940.75 -1.28031 -0.919012 0
M  V30 21252 C 1941.99 -1.14651 -1.66432 0
M  V30 21253 C 1942.31 0.306395 -1.92578 0
M  V30 21254 O 1941.58 1.2131 -1.5382 0
M  V30 21255 H 1940.16 -0.421307 -0.616854 0
M  V30 21256 H 1942.83 -1.60684 -1.10302 0
M  V30 21257 H 1941.92 -1.68214 -2.62888 0
M  V30 21258 N 1942.22 1.12672 -1.10194 0
M  V30 21259 C 1943.47 1.83763 -0.841168 0
M  V30 21260 C 1943.79 1.84369 0.635061 0
M  V30 21261 O 1943.06 1.30504 1.46101 0
M  V30 21262 H 1941.64 0.680461 -0.308192 0
M  V30 21263 H 1944.3 1.36447 -1.3917 0
M  V30 21264 H 1943.4 2.88034 -1.20178 0
M  V30 21265 N 1943.7 0.89031 1.30043 0
M  V30 21266 C 1944.63 0.31832 2.26979 0
M  V30 21267 C 1945.65 -0.530108 1.53928 0
M  V30 21268 O 1946.84 -0.348791 1.75059 0
M  V30 21269 C 1943.94 -0.565563 3.34148 0
M  V30 21270 C 1943.11 0.255006 4.36656 0
M  V30 21271 C 1942.17 -0.560216 5.23209 0
M  V30 21272 O 1941.19 0.0189739 5.69197 0
M  V30 21273 N 1942.4 -1.86825 5.49615 0
M  V30 21274 H 1945.16 1.15143 2.76699 0
M  V30 21275 H 1942.72 0.753836 1.43279 0
M  V30 21276 H 1944.71 -1.11711 3.88976 0
M  V30 21277 H 1943.28 -1.29935 2.84316 0
M  V30 21278 H 1942.5 0.987993 3.81618 0
M  V30 21279 H 1943.79 0.817308 5.02193 0
M  V30 21280 H 1943.19 -2.36167 5.14045 0
M  V30 21281 H 1941.75 -2.36713 6.07297 0
M  V30 21282 N 1945.18 -1.43489 0.651812 0
M  V30 21283 C 1946.13 -2.30764 -0.0406423 0
M  V30 21284 C 1947.1 -1.44669 -0.816091 0
M  V30 21285 O 1948.28 -1.73541 -0.792978 0
M  V30 21286 C 1945.42 -3.30232 -1.00206 0
M  V30 21287 C 1944.53 -4.31425 -0.222857 0
M  V30 21288 C 1943.67 -5.17975 -1.17794 0
M  V30 21289 C 1942.71 -6.10862 -0.389096 0
M  V30 21290 N 1941.85 -6.90041 -1.2957 0
M  V30 21291 H 1946.69 -2.89431 0.709482 0
M  V30 21292 H 1944.22 -1.42585 0.361636 0
M  V30 21293 H 1946.18 -3.86408 -1.57306 0
M  V30 21294 H 1944.81 -2.73217 -1.71907 0
M  V30 21295 H 1943.86 -3.77554 0.464409 0
M  V30 21296 H 1945.17 -4.97268 0.390608 0
M  V30 21297 H 1944.33 -5.7877 -1.81962 0
M  V30 21298 H 1943.07 -4.52254 -1.82532 0
M  V30 21299 H 1942.07 -5.49156 0.265943 0
M  V30 21300 H 1943.3 -6.78625 0.253855 0
M  V30 21301 H 1941.24 -6.2697 -1.9299 0
M  V30 21302 H 1941.16 -7.52401 -0.736762 0
M  V30 21303 H 1942.43 -7.55342 -1.92557 0
M  V30 21304 N 1946.66 -0.393643 -1.52605 0
M  V30 21305 C 1947.59 0.474548 -2.24234 0
M  V30 21306 C 1948.6 1.02311 -1.26634 0
M  V30 21307 O 1949.79 0.924695 -1.52681 0
M  V30 21308 C 1946.89 1.67083 -2.9485 0
M  V30 21309 C 1946.06 1.24889 -4.19192 0
M  V30 21310 C 1945.12 2.31034 -4.72768 0
M  V30 21311 O 1944.15 1.92263 -5.35746 0
M  V30 21312 N 1945.35 3.63004 -4.52999 0
M  V30 21313 H 1948.12 -0.139149 -2.99377 0
M  V30 21314 H 1945.68 -0.220221 -1.60395 0
M  V30 21315 H 1947.67 2.37626 -3.27591 0
M  V30 21316 H 1946.24 2.19078 -2.22988 0
M  V30 21317 H 1945.46 0.372176 -3.92439 0
M  V30 21318 H 1946.75 0.94369 -4.99972 0
M  V30 21319 H 1946.15 3.97263 -4.02739 0
M  V30 21320 H 1944.7 4.29568 -4.90219 0
M  V30 21321 N 1948.14 1.57115 -0.123593 0
M  V30 21322 C 1949.55 1.5789 0.232975 0
M  V30 21323 C 1949.75 1.13659 1.66385 0
M  V30 21324 O 1948.81 0.826084 2.38604 0
M  V30 21325 C 1950.12 3.007 -0.0045178 0
M  V30 21326 C 1951.67 3.12941 0.0610235 0
M  V30 21327 C 1952.14 4.57758 -0.148835 0
M  V30 21328 N 1953.63 4.63103 -0.0949606 0
M  V30 21329 C 1954.37 5.7293 -0.232177 0
M  V30 21330 N 1953.87 6.9149 -0.42582 0
M  V30 21331 N 1955.66 5.61839 -0.171428 0
M  V30 21332 H 1947.81 1.84166 -1.05814 0
M  V30 21333 H 1950.07 0.851342 -0.417038 0
M  V30 21334 H 1949.78 3.37364 -0.993901 0
M  V30 21335 H 1949.65 3.70161 0.725327 0
M  V30 21336 H 1952.04 2.76131 1.04094 0
M  V30 21337 H 1952.12 2.46014 -0.700776 0
M  V30 21338 H 1951.76 4.95267 -1.12574 0
M  V30 21339 H 1951.69 5.22782 0.633006 0
M  V30 21340 H 1954.19 3.77866 0.0510058 0
M  V30 21341 H 1954.5 7.7104 -0.521263 0
M  V30 21342 H 1952.84 6.93464 -0.461851 0
M  V30 21343 H 1956.03 4.68095 -0.0210758 0
M  V30 21344 H 1956.21 6.47387 -0.281807 0
M  V30 21345 N 1949.61 -0.150187 1.56883 0
M  V30 21346 C 1950.86 -0.861749 1.82364 0
M  V30 21347 C 1951.18 -1.82479 0.704319 0
M  V30 21348 O 1952.38 -2.58027 0.844649 0
M  V30 21349 C 1950.84 -1.58305 3.23214 0
M  V30 21350 C 1950.45 -0.662577 4.43073 0
M  V30 21351 C 1952.19 -2.28159 3.57972 0
M  V30 21352 C 1950.1 -1.38532 5.74946 0
M  V30 21353 H 1949.03 -0.325546 0.6801 0
M  V30 21354 H 1951.68 -0.114505 1.83142 0
M  V30 21355 H 1950.06 -2.37581 3.16814 0
M  V30 21356 H 1951.23 0.0947281 4.60703 0
M  V30 21357 H 1949.55 -0.0726217 4.16337 0
M  V30 21358 H 1952.15 -2.82865 4.53753 0
M  V30 21359 H 1952.49 -3.04501 2.83874 0
M  V30 21360 H 1953.02 -1.55805 3.66019 0
M  V30 21361 H 1949.76 -0.663808 6.5213 0
M  V30 21362 H 1949.28 -2.11542 5.61258 0
M  V30 21363 H 1950.96 -1.9271 6.17634 0
M  V30 21364 N 1951.09 -1.51916 -0.419434 0
M  V30 21365 C 1952.06 -1.73908 -1.49293 0
M  V30 21366 C 1953.06 -0.60898 -1.48822 0
M  V30 21367 O 1954.25 -0.876745 -1.50528 0
M  V30 21368 C 1951.38 -1.812 -2.88755 0
M  V30 21369 H 1952.57 -2.69732 -1.3109 0
M  V30 21370 H 1950.12 -1.42176 -0.649274 0
M  V30 21371 H 1950.86 -0.872544 -3.12341 0
M  V30 21372 H 1950.64 -2.63348 -2.905 0
M  V30 21373 H 1952.13 -1.99992 -3.66596 0
M  V30 21374 N 1952.57 0.676023 -1.42365 0
M  V30 21375 C 1953.82 1.43183 -1.42062 0
M  V30 21376 C 1954.13 1.95559 -0.0400321 0
M  V30 21377 O 1955.34 2.71365 0.0855959 0
M  V30 21378 C 1953.79 2.5901 -2.49884 0
M  V30 21379 C 1953.4 2.13338 -3.93943 0
M  V30 21380 C 1955.15 3.36528 -2.58746 0
M  V30 21381 C 1953.05 3.2624 -4.93276 0
M  V30 21382 H 1951.98 0.537899 -0.528376 0
M  V30 21383 H 1954.63 0.732001 -1.68268 0
M  V30 21384 H 1953.02 3.31355 -2.16841 0
M  V30 21385 H 1954.19 1.48154 -4.36334 0
M  V30 21386 H 1952.51 1.48761 -3.8892 0
M  V30 21387 H 1955.1 4.2061 -3.30138 0
M  V30 21388 H 1955.45 3.83036 -1.63061 0
M  V30 21389 H 1955.98 2.71252 -2.90977 0
M  V30 21390 H 1952.72 2.84724 -5.90434 0
M  V30 21391 H 1952.24 3.90209 -4.55518 0
M  V30 21392 H 1953.92 3.91725 -5.14938 0
M  V30 21393 N 1954.05 1.28517 0.912209 0
M  V30 21394 C 1955.01 1.12594 1.99637 0
M  V30 21395 C 1956.01 0.0651449 1.60668 0
M  V30 21396 O 1957.2 0.311054 1.714 0
M  V30 21397 C 1954.33 0.719053 3.3323 0
M  V30 21398 H 1955.53 2.08884 2.15192 0
M  V30 21399 H 1953.08 1.11525 1.09508 0
M  V30 21400 H 1953.81 -0.244536 3.23377 0
M  V30 21401 H 1953.6 1.48536 3.62876 0
M  V30 21402 H 1955.09 0.630346 4.12815 0
M  V30 21403 N 1955.53 -1.12086 1.1079 0
M  V30 21404 C 1956.94 -1.35679 0.840432 0
M  V30 21405 C 1957.14 -1.94177 -0.538279 0
M  V30 21406 O 1956.2 -2.17035 -1.29043 0
M  V30 21407 C 1957.51 -2.29487 1.94309 0
M  V30 21408 C 1959.06 -2.43069 1.97197 0
M  V30 21409 C 1959.53 -3.40194 3.06646 0
M  V30 21410 N 1961.03 -3.47753 3.05977 0
M  V30 21411 C 1961.76 -4.22826 3.87305 0
M  V30 21412 N 1961.26 -5.00933 4.78579 0
M  V30 21413 N 1963.05 -4.1827 3.75509 0
M  V30 21414 H 1955.2 -0.724754 1.99652 0
M  V30 21415 H 1957.46 -0.381544 0.86783 0
M  V30 21416 H 1957.17 -1.93685 2.93563 0
M  V30 21417 H 1957.04 -3.29644 1.83343 0
M  V30 21418 H 1959.43 -2.7815 0.985735 0
M  V30 21419 H 1959.51 -1.42788 2.12239 0
M  V30 21420 H 1959.16 -3.05842 4.05491 0
M  V30 21421 H 1959.09 -4.40314 2.88845 0
M  V30 21422 H 1961.58 -2.92035 2.39841 0
M  V30 21423 H 1961.89 -5.55565 5.37185 0
M  V30 21424 H 1960.23 -5.00117 4.82605 0
M  V30 21425 H 1963.43 -3.56334 3.03551 0
M  V30 21426 H 1963.6 -4.76521 4.39126 0
M  V30 21427 N 1957 -0.897194 -1.29569 0
M  V30 21428 C 1957.97 -0.377906 -2.26063 0
M  V30 21429 C 1958.97 0.486495 -1.53264 0
M  V30 21430 O 1960.16 0.291905 -1.71737 0
M  V30 21431 C 1957.29 0.460046 -3.37782 0
M  V30 21432 H 1958.48 -1.23009 -2.73512 0
M  V30 21433 H 1956.04 -0.675114 -1.40968 0
M  V30 21434 H 1956.77 1.33232 -2.95668 0
M  V30 21435 H 1956.56 -0.159293 -3.91776 0
M  V30 21436 H 1958.05 0.814753 -4.09575 0
M  V30 21437 N 1958.48 1.43142 -0.659413 0
M  V30 21438 C 1959.41 2.33495 0.0147266 0
M  V30 21439 C 1960.39 1.49819 0.805493 0
M  V30 21440 O 1961.58 1.78466 0.765732 0
M  V30 21441 C 1958.71 3.33261 0.977483 0
M  V30 21442 C 1957.66 4.26972 0.296396 0
M  V30 21443 C 1956.99 5.16824 1.37103 0
M  V30 21444 C 1958.29 5.15901 -0.815063 0
M  V30 21445 H 1959.98 2.90115 -0.739837 0
M  V30 21446 H 1957.53 1.39499 -0.357229 0
M  V30 21447 H 1959.48 3.95372 1.45805 0
M  V30 21448 H 1958.21 2.74911 1.76328 0
M  V30 21449 H 1956.86 3.66234 -0.16379 0
M  V30 21450 H 1956.51 4.5481 2.14842 0
M  V30 21451 H 1956.21 5.80345 0.920528 0
M  V30 21452 H 1957.74 5.81809 1.85284 0
M  V30 21453 H 1959.15 5.71786 -0.416382 0
M  V30 21454 H 1957.55 5.88175 -1.19041 0
M  V30 21455 H 1958.62 4.5522 -1.67042 0
M  V30 21456 N 1959.96 0.40173 1.52394 0
M  V30 21457 C 1960.89 -0.41861 2.29717 0
M  V30 21458 C 1961.87 -1.05263 1.33618 0
M  V30 21459 O 1963.06 -1.06304 1.62521 0
M  V30 21460 C 1960.19 -1.5395 3.11314 0
M  V30 21461 C 1959.14 -1.03088 4.154 0
M  V30 21462 C 1958.47 -2.2448 4.85297 0
M  V30 21463 C 1959.77 -0.0900956 5.22222 0
M  V30 21464 H 1961.46 0.226577 2.98541 0
M  V30 21465 H 1959.01 0.110411 1.43576 0
M  V30 21466 H 1960.96 -2.12031 3.64171 0
M  V30 21467 H 1959.68 -2.21246 2.40246 0
M  V30 21468 H 1958.34 -0.472515 3.63542 0
M  V30 21469 H 1957.99 -2.90313 4.10764 0
M  V30 21470 H 1957.69 -1.91103 5.55656 0
M  V30 21471 H 1959.21 -2.83181 5.40963 0
M  V30 21472 H 1960.63 -0.579479 5.70364 0
M  V30 21473 H 1959.03 0.154505 5.99901 0
M  V30 21474 H 1960.1 0.857375 4.7726 0
M  V30 21475 N 1961.44 -1.57047 0.131923 0
M  V30 21476 C 1962.85 -1.58012 -0.224598 0
M  V30 21477 C 1963.05 -1.1454 -1.6578 0
M  V30 21478 O 1962.11 -0.838726 -2.38163 0
M  V30 21479 C 1963.42 -3.00693 0.0204646 0
M  V30 21480 C 1964.97 -3.12968 -0.0444267 0
M  V30 21481 C 1965.45 -4.57673 0.173109 0
M  V30 21482 N 1966.94 -4.63046 0.119519 0
M  V30 21483 C 1967.67 -5.72799 0.262558 0
M  V30 21484 N 1967.17 -6.91255 0.462486 0
M  V30 21485 N 1968.96 -5.6174 0.201221 0
M  V30 21486 H 1961.11 -1.83602 1.06789 0
M  V30 21487 H 1963.38 -0.849118 0.421547 0
M  V30 21488 H 1963.08 -3.36832 1.01178 0
M  V30 21489 H 1962.96 -3.7054 -0.705686 0
M  V30 21490 H 1965.34 -2.7668 -1.02628 0
M  V30 21491 H 1965.42 -2.45639 0.713812 0
M  V30 21492 H 1965.07 -4.94663 1.15199 0
M  V30 21493 H 1965 -5.2311 -0.605272 0
M  V30 21494 H 1967.49 -3.77887 -0.0309659 0
M  V30 21495 H 1967.8 -7.70753 0.562145 0
M  V30 21496 H 1966.15 -6.93209 0.498621 0
M  V30 21497 H 1969.34 -4.68077 0.0458997 0
M  V30 21498 H 1969.51 -6.47228 0.316135 0
M  V30 21499 N 1962.92 0.141865 -1.5696 0
M  V30 21500 C 1963.83 1.19435 -2.01922 0
M  V30 21501 C 1964.84 1.4671 -0.935527 0
M  V30 21502 O 1966.02 1.58279 -1.24538 0
M  V30 21503 C 1963.08 2.50665 -2.39516 0
M  V30 21504 C 1962.14 2.30991 -3.61859 0
M  V30 21505 C 1961.38 3.55963 -3.9765 0
M  V30 21506 O 1961.6 4.62354 -3.34044 0
M  V30 21507 O 1960.53 3.48322 -4.90872 0
M  V30 21508 H 1964.36 0.842613 -2.91777 0
M  V30 21509 H 1961.95 0.350973 -1.45219 0
M  V30 21510 H 1963.83 3.28024 -2.64534 0
M  V30 21511 H 1962.5 2.85358 -1.52815 0
M  V30 21512 H 1961.41 1.51565 -3.42022 0
M  V30 21513 H 1962.74 2.01211 -4.49194 0
M  V30 21514 N 1964.39 1.52136 0.411372 0
M  V30 21515 C 1965.81 1.58274 0.990272 0
M  V30 21516 C 1966.16 0.421874 1.91611 0
M  V30 21517 O 1965.28 -0.458058 2.11497 0
M  V30 21518 C 1965.88 2.86855 1.80276 0
M  V30 21519 C 1964.44 2.95478 2.33173 0
M  V30 21520 C 1963.58 2.5319 1.13093 0
M  V30 21521 H 1966.53 1.57538 0.191687 0
M  V30 21522 H 1966.55 2.72082 2.65992 0
M  V30 21523 H 1966.07 3.71326 1.12866 0
M  V30 21524 H 1964.17 2.15496 3.03961 0
M  V30 21525 H 1964.28 3.99674 2.64192 0
M  V30 21526 H 1962.64 2.06986 1.48421 0
M  V30 21527 H 1963.43 3.40032 0.472529 0
M  V30 21528 N 1965.87 -0.668464 1.42721 0
M  V30 21529 C 1966.82 -1.78184 1.46694 0
M  V30 21530 C 1967.79 -1.63023 0.318213 0
M  V30 21531 O 1968.98 -1.83486 0.523198 0
M  V30 21532 C 1966.12 -3.16254 1.3812 0
M  V30 21533 C 1965.23 -3.42657 2.63078 0
M  V30 21534 C 1964.36 -4.7049 2.46602 0
M  V30 21535 C 1963.4 -4.89948 3.66902 0
M  V30 21536 N 1962.54 -6.09027 3.49329 0
M  V30 21537 H 1967.38 -1.74123 2.41837 0
M  V30 21538 H 1964.92 -0.849937 1.2006 0
M  V30 21539 H 1966.87 -3.96051 1.31146 0
M  V30 21540 H 1965.5 -3.19423 0.46569 0
M  V30 21541 H 1964.56 -2.57068 2.80393 0
M  V30 21542 H 1965.87 -3.52926 3.52484 0
M  V30 21543 H 1965.02 -5.58388 2.37249 0
M  V30 21544 H 1963.76 -4.62515 1.54696 0
M  V30 21545 H 1962.77 -4.0049 3.7668 0
M  V30 21546 H 1963.99 -4.99764 4.59797 0
M  V30 21547 H 1961.94 -6.02213 2.60146 0
M  V30 21548 H 1961.85 -6.20186 4.32326 0
M  V30 21549 H 1963.12 -6.99587 3.438 0
M  V30 21550 N 1967.35 -1.28999 -0.905381 0
M  V30 21551 C 1968.6 -1.16014 -1.64996 0
M  V30 21552 C 1968.91 0.288766 -1.93457 0
M  V30 21553 O 1970.12 0.539847 -2.66079 0
M  V30 21554 C 1968.58 -2.02866 -2.97276 0
M  V30 21555 C 1968.18 -3.52547 -2.76432 0
M  V30 21556 C 1969.93 -1.98591 -3.75182 0
M  V30 21557 C 1967.83 -4.31522 -4.04404 0
M  V30 21558 H 1966.76 -0.430598 -0.618952 0
M  V30 21559 H 1969.42 -1.53594 -1.00404 0
M  V30 21560 H 1967.8 -1.5815 -3.63049 0
M  V30 21561 H 1968.97 -4.05277 -2.19287 0
M  V30 21562 H 1967.29 -3.58435 -2.11928 0
M  V30 21563 H 1969.88 -2.54859 -4.70054 0
M  V30 21564 H 1970.23 -0.964577 -4.04971 0
M  V30 21565 H 1970.76 -2.41321 -3.16242 0
M  V30 21566 H 1967.5 -5.3427 -3.79784 0
M  V30 21567 H 1967.02 -3.83563 -4.61129 0
M  V30 21568 H 1968.7 -4.41885 -4.72596 0
M  V30 21569 N 1968.83 1.11497 -1.11383 0
M  V30 21570 C 1969.76 2.19592 -0.793827 0
M  V30 21571 C 1970.74 1.68433 0.237559 0
M  V30 21572 O 1971.93 1.93936 0.101164 0
M  V30 21573 C 1969.06 3.465 -0.235579 0
M  V30 21574 C 1968.01 4.10869 -1.19877 0
M  V30 21575 C 1967.34 5.32345 -0.501259 0
M  V30 21576 C 1968.64 4.55864 -2.54922 0
M  V30 21577 H 1970.33 2.46617 -1.69766 0
M  V30 21578 H 1967.88 1.18532 -0.817695 0
M  V30 21579 H 1969.83 4.214 0.000490272 0
M  V30 21580 H 1968.55 3.18932 0.703544 0
M  V30 21581 H 1967.21 3.37962 -1.42046 0
M  V30 21582 H 1966.86 5.01048 0.442652 0
M  V30 21583 H 1966.56 5.76363 -1.14367 0
M  V30 21584 H 1968.08 6.09985 -0.273968 0
M  V30 21585 H 1969.5 5.22089 -2.36845 0
M  V30 21586 H 1967.89 5.10693 -3.15139 0
M  V30 21587 H 1968.96 3.69342 -3.14189 0
M  V30 21588 N 1970.31 0.904053 1.29092 0
M  V30 21589 C 1971.24 0.401805 2.30017 0
M  V30 21590 C 1972.22 -0.525477 1.6178 0
M  V30 21591 O 1973.4 -0.435279 1.89259 0
M  V30 21592 C 1970.53 -0.367656 3.45348 0
M  V30 21593 C 1969.49 0.469596 4.25416 0
M  V30 21594 C 1968.81 -0.427624 5.32987 0
M  V30 21595 C 1970.11 1.7218 4.93104 0
M  V30 21596 H 1971.81 1.24523 2.72276 0
M  V30 21597 H 1969.35 0.600215 1.30895 0
M  V30 21598 H 1971.31 -0.729791 4.15033 0
M  V30 21599 H 1970.03 -1.2449 3.01944 0
M  V30 21600 H 1968.69 0.814119 3.57446 0
M  V30 21601 H 1968.34 -1.30313 4.85827 0
M  V30 21602 H 1968.04 0.128909 5.87459 0
M  V30 21603 H 1969.56 -0.785855 6.05522 0
M  V30 21604 H 1970.98 1.42914 5.55201 0
M  V30 21605 H 1969.37 2.21999 5.57527 0
M  V30 21606 H 1970.44 2.45526 4.18145 0
M  V30 21607 N 1971.79 -1.4279 0.666995 0
M  V30 21608 C 1972.72 -2.335 -0.00234362 0
M  V30 21609 C 1973.7 -1.50244 -0.797537 0
M  V30 21610 O 1974.88 -1.7887 -0.756257 0
M  V30 21611 C 1972.01 -3.33774 -0.959795 0
M  V30 21612 C 1970.97 -4.27124 -0.273749 0
M  V30 21613 C 1970.29 -5.17544 -1.3436 0
M  V30 21614 C 1971.59 -5.15462 0.842411 0
M  V30 21615 H 1973.29 -2.89719 0.755212 0
M  V30 21616 H 1970.83 -1.39307 0.364622 0
M  V30 21617 H 1972.78 -3.96139 -1.43707 0
M  V30 21618 H 1971.51 -2.75842 -1.74868 0
M  V30 21619 H 1970.17 -3.66142 0.18321 0
M  V30 21620 H 1969.82 -4.55943 -2.12427 0
M  V30 21621 H 1969.52 -5.80825 -0.889738 0
M  V30 21622 H 1971.04 -5.82784 -1.82196 0
M  V30 21623 H 1972.45 -5.71557 0.4467 0
M  V30 21624 H 1970.85 -5.87535 1.22158 0
M  V30 21625 H 1971.92 -4.54327 1.69454 0
M  V30 21626 N 1973.26 -0.409806 -1.52179 0
M  V30 21627 C 1974.54 0.224342 -1.94309 0
M  V30 21628 C 1974.92 1.62561 -1.34674 0
M  V30 21629 O 1974.27 2.22438 -0.522817 0
M  V30 21630 C 1974.48 0.22999 -3.48241 0
M  V30 21631 C 1975.83 0.449011 -4.22219 0
M  V30 21632 O 1976.85 0.309316 -3.54854 0
M  V30 21633 O 1975.71 0.724419 -5.41677 0
M  V30 21634 H 1972.8 0.144759 -0.814232 0
M  V30 21635 H 1975.35 -0.465799 -1.63182 0
M  V30 21636 H 1974.12 -0.750731 -3.84031 0
M  V30 21637 H 1973.74 0.964201 -3.85732 0
M  V30 21638 N 1974.74 1.56975 -0.14025 0
M  V30 21639 C 1975.65 2.19981 0.815207 0
M  V30 21640 C 1976.67 1.18211 1.2768 0
M  V30 21641 O 1977.84 1.50762 1.33539 0
M  V30 21642 C 1974.91 2.80369 2.03946 0
M  V30 21643 C 1973.97 3.97244 1.62774 0
M  V30 21644 C 1973.2 4.54744 2.79363 0
M  V30 21645 O 1973.43 4.11124 3.9539 0
M  V30 21646 O 1972.36 5.45109 2.55224 0
M  V30 21647 H 1976.19 3.02125 0.308908 0
M  V30 21648 H 1973.77 1.4915 0.0864409 0
M  V30 21649 H 1975.65 3.18778 2.75606 0
M  V30 21650 H 1974.33 2.01243 2.53541 0
M  V30 21651 H 1973.23 3.63564 0.88158 0
M  V30 21652 H 1974.57 4.7787 1.17901 0
M  V30 21653 N 1976.22 -0.133539 1.57033 0
M  V30 21654 C 1977.18 -1.14845 1.98351 0
M  V30 21655 C 1978.18 -1.3512 0.871734 0
M  V30 21656 O 1979.37 -1.31884 1.13808 0
M  V30 21657 C 1976.5 -2.506 2.31111 0
M  V30 21658 H 1977.7 -0.793667 2.89207 0
M  V30 21659 H 1975.25 -0.377348 1.51677 0
M  V30 21660 H 1975.99 -2.91026 1.43089 0
M  V30 21661 H 1975.77 -2.37242 3.12184 0
M  V30 21662 H 1977.26 -3.23672 2.63868 0
M  V30 21663 N 1977.7 -1.52352 -0.403298 0
M  V30 21664 C 1978.93 -1.70554 -1.17128 0
M  V30 21665 C 1979.34 -0.417576 -1.84124 0
M  V30 21666 O 1978.7 0.606862 -1.72115 0
M  V30 21667 C 1978.75 -2.8452 -2.23004 0
M  V30 21668 O 1978.47 -4.08329 -1.58742 0
M  V30 21669 C 1979.97 -3.14281 -3.12638 0
M  V30 21670 H 1977.19 -0.571419 -0.35174 0
M  V30 21671 H 1979.73 -1.98937 -0.473734 0
M  V30 21672 H 1977.89 -2.58639 -2.88417 0
M  V30 21673 H 1978.3 -4.71878 -2.28979 0
M  V30 21674 H 1979.78 -3.97523 -3.82988 0
M  V30 21675 H 1980.25 -2.28071 -3.7534 0
M  V30 21676 H 1980.86 -3.41948 -2.52887 0
M  V30 21677 N 1979.18 0.660885 -1.43074 0
M  V30 21678 C 1980.4 1.45376 -1.47921 0
M  V30 21679 C 1980.83 1.87855 -0.0960289 0
M  V30 21680 O 1980.18 1.5689 0.908583 0
M  V30 21681 C 1980.23 2.67002 -2.42368 0
M  V30 21682 O 1979.34 3.65783 -1.90465 0
M  V30 21683 H 1978.68 0.436193 -0.500632 0
M  V30 21684 H 1981.21 0.809399 -1.87909 0
M  V30 21685 H 1981.22 3.14909 -2.59416 0
M  V30 21686 H 1979.89 2.35426 -3.42852 0
M  V30 21687 H 1978.47 3.24885 -1.83041 0
M  V30 21688 N 1980.65 1.29477 0.898527 0
M  V30 21689 C 1981.88 1.20529 1.68783 0
M  V30 21690 C 1982.3 -0.230536 1.86682 0
M  V30 21691 O 1981.66 -1.1664 1.38798 0
M  V30 21692 C 1981.71 1.92501 3.04919 0
M  V30 21693 O 1980.81 1.24286 3.93226 0
M  V30 21694 H 1980.16 0.417586 0.516254 0
M  V30 21695 H 1982.69 1.71066 1.1224 0
M  V30 21696 H 1982.7 2.01001 3.55053 0
M  V30 21697 H 1981.37 2.96934 2.9121 0
M  V30 21698 H 1979.95 1.24052 3.51661 0
M  V30 21699 N 1982.13 -1.10905 1.11972 0
M  V30 21700 C 1983.06 -2.19168 0.805461 0
M  V30 21701 C 1984.04 -1.68557 -0.228623 0
M  V30 21702 O 1985.23 -1.93987 -0.0908778 0
M  V30 21703 C 1982.36 -3.4637 0.253951 0
M  V30 21704 C 1981.31 -4.10228 1.22054 0
M  V30 21705 C 1980.64 -5.32072 0.529483 0
M  V30 21706 C 1981.94 -4.54506 2.57336 0
M  V30 21707 H 1983.63 -2.45713 1.71071 0
M  V30 21708 H 1981.18 -1.18096 0.823969 0
M  V30 21709 H 1983.13 -4.21394 0.0218576 0
M  V30 21710 H 1981.86 -3.19301 -0.68662 0
M  V30 21711 H 1980.51 -3.37204 1.43836 0
M  V30 21712 H 1980.16 -5.01276 -0.416074 0
M  V30 21713 H 1979.86 -5.75748 1.17422 0
M  V30 21714 H 1981.39 -6.09831 0.306313 0
M  V30 21715 H 1982.8 -5.20826 2.3961 0
M  V30 21716 H 1981.2 -5.09015 3.17842 0
M  V30 21717 H 1982.27 -3.67671 3.16143 0
M  V30 21718 N 1983.61 -0.910886 -1.2861 0
M  V30 21719 C 1984.89 -0.461608 -1.90075 0
M  V30 21720 C 1985.27 1.05944 -1.8259 0
M  V30 21721 O 1984.62 1.90624 -1.25995 0
M  V30 21722 C 1984.83 -0.98875 -3.34701 0
M  V30 21723 C 1986.17 -1.03913 -4.11688 0
M  V30 21724 O 1987.2 -0.937194 -3.4365 0
M  V30 21725 O 1986.06 -1.19392 -5.33299 0
M  V30 21726 H 1983.15 -0.145814 -0.814044 0
M  V30 21727 H 1985.7 -1.00148 -1.36998 0
M  V30 21728 H 1984.47 -2.03273 -3.34359 0
M  V30 21729 H 1984.09 -0.429535 -3.95273 0
M  V30 21730 N 1985.09 1.42434 -0.674558 0
M  V30 21731 C 1986.31 2.06399 -0.203545 0
M  V30 21732 C 1986.74 1.50345 1.1304 0
M  V30 21733 O 1986.1 0.621837 1.70302 0
M  V30 21734 C 1986.14 3.60293 -0.148884 0
M  V30 21735 O 1985.25 4.02843 0.882667 0
M  V30 21736 H 1984.59 0.655698 -0.104672 0
M  V30 21737 H 1987.12 1.82572 -0.923502 0
M  V30 21738 H 1987.13 4.07991 0.0273375 0
M  V30 21739 H 1985.8 4.00464 -1.12256 0
M  V30 21740 H 1984.38 3.66694 0.677506 0
M  V30 21741 N 1986.57 0.417871 1.51959 0
M  V30 21742 C 1987.51 -0.417897 2.28815 0
M  V30 21743 C 1988.51 -1.03814 1.33862 0
M  V30 21744 O 1989.71 -0.975341 1.51285 0
M  V30 21745 H 1986.09 -0.153557 0.736155 0
M  V30 21746 H 1988.06 0.25142 2.97339 0
M  V30 21747 C 1986.81 -1.51752 3.12836 0
M  V30 21748 H 1986.13 -1.0496 3.85776 0
M  V30 21749 H 1987.57 -2.07595 3.69703 0
M  V30 21750 C 1986.03 -2.48983 2.26957 0
M  V30 21751 O 1986.56 -3.53072 1.91581 0
M  V30 21752 N 1984.77 -2.19401 1.90556 0
M  V30 21753 H 1984.31 -1.34786 2.19524 0
M  V30 21754 H 1984.27 -2.84701 1.3339 0
M  V30 21755 N 1988.04 -1.56898 0.148573 0
M  V30 21756 C 1989.27 -2.00974 -0.512287 0
M  V30 21757 C 1989.69 -1.02801 -1.57523 0
M  V30 21758 O 1989.05 -0.00400411 -1.813 0
M  V30 21759 C 1989.1 -3.43785 -1.08832 0
M  V30 21760 O 1988.2 -3.4862 -2.20313 0
M  V30 21761 H 1987.55 -0.652102 -0.125133 0
M  V30 21762 H 1990.08 -2.03119 0.245769 0
M  V30 21763 H 1990.09 -3.82618 -1.41659 0
M  V30 21764 H 1988.76 -4.14744 -0.309923 0
M  V30 21765 H 1987.34 -3.2163 -1.88702 0
M  V30 21766 N 1989.52 0.125209 -1.57102 0
M  V30 21767 C 1990.43 1.17286 -2.03177 0
M  V30 21768 C 1991.45 1.4571 -0.951035 0
M  V30 21769 O 1992.62 1.56949 -1.2621 0
M  V30 21770 C 1989.69 2.4811 -2.42161 0
M  V30 21771 C 1988.75 2.2714 -3.64288 0
M  V30 21772 C 1987.98 3.51726 -4.01404 0
M  V30 21773 O 1988.21 4.58785 -3.38929 0
M  V30 21774 O 1987.14 3.43096 -4.94539 0
M  V30 21775 H 1990.97 0.811619 -2.92654 0
M  V30 21776 H 1988.55 0.335551 -1.45583 0
M  V30 21777 H 1990.43 3.252 -2.67998 0
M  V30 21778 H 1989.11 2.83721 -1.55833 0
M  V30 21779 H 1988.02 1.47929 -3.4361 0
M  V30 21780 H 1989.35 1.96435 -4.51303 0
M  V30 21781 N 1991 1.52564 0.395213 0
M  V30 21782 C 1991.95 1.769 1.48239 0
M  V30 21783 C 1992.92 0.611965 1.54416 0
M  V30 21784 O 1994.1 0.851019 1.7077 0
M  V30 21785 C 1991.24 1.93809 2.85538 0
M  V30 21786 C 1990.36 3.2149 2.88562 0
M  V30 21787 C 1989.49 3.28751 4.17248 0
M  V30 21788 C 1988.53 4.5058 4.143 0
M  V30 21789 N 1987.67 4.55156 5.34581 0
M  V30 21790 H 1992.51 2.69683 1.26788 0
M  V30 21791 H 1990.04 1.33618 0.615189 0
M  V30 21792 H 1992 2.01597 3.6526 0
M  V30 21793 H 1990.63 1.04394 3.05453 0
M  V30 21794 H 1989.68 3.22805 2.01249 0
M  V30 21795 H 1991 4.11262 2.82251 0
M  V30 21796 H 1990.15 3.35687 5.0537 0
M  V30 21797 H 1988.89 2.36943 4.26274 0
M  V30 21798 H 1987.89 4.43775 3.24567 0
M  V30 21799 H 1989.12 5.43698 4.06902 0
M  V30 21800 H 1987.06 3.66237 5.44248 0
M  V30 21801 H 1986.98 5.38791 5.30321 0
M  V30 21802 H 1988.25 4.6634 6.24618 0
M  V30 21803 N 1992.48 -0.653289 1.43422 0
M  V30 21804 C 1993.41 -1.77779 1.51383 0
M  V30 21805 C 1994.39 -1.6606 0.368515 0
M  V30 21806 O 1995.57 -1.85157 0.585721 0
M  V30 21807 C 1992.7 -3.16206 1.43635 0
M  V30 21808 C 1991.66 -3.42688 2.56415 0
M  V30 21809 C 1990.98 -4.80915 2.3372 0
M  V30 21810 C 1992.28 -3.3744 3.98662 0
M  V30 21811 H 1993.98 -1.71374 2.45502 0
M  V30 21812 H 1991.52 -0.823062 1.1816 0
M  V30 21813 H 1993.48 -3.94627 1.47808 0
M  V30 21814 H 1992.2 -3.23341 0.460202 0
M  V30 21815 H 1990.86 -2.66638 2.51594 0
M  V30 21816 H 1990.51 -4.84726 1.34349 0
M  V30 21817 H 1990.21 -4.99594 3.09321 0
M  V30 21818 H 1991.73 -5.61594 2.39677 0
M  V30 21819 H 1993.15 -4.05798 4.0497 0
M  V30 21820 H 1991.54 -3.67656 4.74288 0
M  V30 21821 H 1992.61 -2.35624 4.23803 0
M  V30 21822 N 1993.96 -1.29952 -0.891648 0
M  V30 21823 C 1995.21 -1.17758 -1.63756 0
M  V30 21824 C 1995.52 0.268231 -1.93752 0
M  V30 21825 O 1996.72 0.511595 -2.66636 0
M  V30 21826 C 1995.18 -2.06008 -2.95108 0
M  V30 21827 C 1994.79 -3.55459 -2.72677 0
M  V30 21828 C 1996.53 -2.0256 -3.73055 0
M  V30 21829 C 1994.44 -4.35787 -3.99805 0
M  V30 21830 H 1993.37 -0.437139 -0.61435 0
M  V30 21831 H 1996.02 -1.54651 -0.987694 0
M  V30 21832 H 1994.4 -1.61991 -3.61351 0
M  V30 21833 H 1995.58 -4.0758 -2.14977 0
M  V30 21834 H 1993.89 -3.60662 -2.08115 0
M  V30 21835 H 1996.49 -2.5983 -4.67325 0
M  V30 21836 H 1996.83 -1.00748 -4.03925 0
M  V30 21837 H 1997.36 -2.44662 -3.13664 0
M  V30 21838 H 1994.1 -5.38268 -3.74096 0
M  V30 21839 H 1993.62 -3.88432 -4.57035 0
M  V30 21840 H 1995.3 -4.46872 -4.67883 0
M  V30 21841 N 1995.44 1.1031 -1.12559 0
M  V30 21842 C 1996.35 2.20257 -0.807721 0
M  V30 21843 C 1997.36 1.728 0.203997 0
M  V30 21844 O 1998.54 2.01365 0.0372766 0
M  V30 21845 C 1995.6 3.4566 -0.26839 0
M  V30 21846 C 1994.66 4.07844 -1.3402 0
M  V30 21847 C 1993.9 5.27261 -0.826511 0
M  V30 21848 O 1994.12 5.6939 0.339244 0
M  V30 21849 O 1993.05 5.80335 -1.5967 0
M  V30 21850 H 1996.88 2.49882 -1.72606 0
M  V30 21851 H 1994.46 1.19071 -0.902352 0
M  V30 21852 H 1996.35 4.21391 0.0274321 0
M  V30 21853 H 1995.02 3.17658 0.622489 0
M  V30 21854 H 1993.93 3.33791 -1.68921 0
M  V30 21855 H 1995.26 4.40051 -2.20489 0
M  V30 21856 N 1996.91 0.917694 1.28125 0
M  V30 21857 C 1997.86 0.407628 2.27172 0
M  V30 21858 C 1998.83 -0.520056 1.57749 0
M  V30 21859 O 2000.02 -0.441394 1.85624 0
M  V30 21860 C 1997.16 -0.342648 3.43395 0
M  V30 21861 C 1996.27 0.617993 4.27557 0
M  V30 21862 C 1995.4 -0.151124 5.30985 0
M  V30 21863 C 1994.44 0.802876 6.06812 0
M  V30 21864 N 1993.58 0.0670251 7.02068 0
M  V30 21865 H 1998.42 1.25728 2.70179 0
M  V30 21866 H 1995.96 0.631273 1.32866 0
M  V30 21867 H 1997.91 -0.793873 4.09577 0
M  V30 21868 H 1996.54 -1.15661 3.01367 0
M  V30 21869 H 1995.6 1.18775 3.61382 0
M  V30 21870 H 1996.91 1.3475 4.80254 0
M  V30 21871 H 1996.06 -0.662729 6.03069 0
M  V30 21872 H 1994.8 -0.913657 4.79065 0
M  V30 21873 H 1993.81 1.32582 5.33575 0
M  V30 21874 H 1995.03 1.56503 6.6082 0
M  V30 21875 H 1992.98 -0.677445 6.52493 0
M  V30 21876 H 1992.89 0.736283 7.52406 0
M  V30 21877 H 1994.16 -0.424255 7.78345 0
M  V30 21878 N 1998.39 -1.42074 0.682102 0
M  V30 21879 C 1999.62 -2.05769 0.216029 0
M  V30 21880 C 2000.03 -1.51278 -1.12962 0
M  V30 21881 O 1999.39 -0.655521 -1.70321 0
M  V30 21882 C 1999.44 -3.61187 0.150351 0
M  V30 21883 O 1999.16 -4.13659 1.44283 0
M  V30 21884 C 2000.66 -4.42007 -0.338339 0
M  V30 21885 H 1997.88 -0.662997 0.103326 0
M  V30 21886 H 2000.43 -1.82084 0.930895 0
M  V30 21887 H 1998.58 -3.83958 -0.515249 0
M  V30 21888 H 1999 -5.07592 1.32101 0
M  V30 21889 H 2000.47 -5.50994 -0.33319 0
M  V30 21890 H 2000.95 -4.17125 -1.37489 0
M  V30 21891 H 2001.55 -4.2427 0.295782 0
M  V30 21892 N 1999.87 -0.425924 -1.51735 0
M  V30 21893 C 2001.12 0.145784 -2.01172 0
M  V30 21894 C 2001.43 1.4478 -1.31523 0
M  V30 21895 O 2002.64 2.10177 -1.71866 0
M  V30 21896 C 2001.09 0.310355 -3.58559 0
M  V30 21897 C 2000.7 -0.98055 -4.37138 0
M  V30 21898 C 2002.45 0.836447 -4.16178 0
M  V30 21899 C 2000.35 -0.782247 -5.86204 0
M  V30 21900 H 1999.28 0.0582569 -0.751746 0
M  V30 21901 H 2001.93 -0.553941 -1.74939 0
M  V30 21902 H 2000.32 1.07281 -3.81191 0
M  V30 21903 H 2001.49 -1.75046 -4.26258 0
M  V30 21904 H 1999.8 -1.43431 -3.90917 0
M  V30 21905 H 2002.4 1.00112 -5.25244 0
M  V30 21906 H 2002.74 1.81579 -3.74613 0
M  V30 21907 H 2003.28 0.132605 -3.97579 0
M  V30 21908 H 2000.02 -1.73363 -6.32159 0
M  V30 21909 H 1999.54 -0.0519371 -5.99778 0
M  V30 21910 H 2001.22 -0.430966 -6.45563 0
M  V30 21911 N 2001.35 1.56817 -0.156891 0
M  V30 21912 C 2002.59 1.9673 0.492464 0
M  V30 21913 C 2002.93 1.04226 1.63862 0
M  V30 21914 O 2002.2 0.0865469 1.94307 0
M  V30 21915 C 2002.48 3.46246 0.989218 0
M  V30 21916 C 2002.34 4.49529 -0.156119 0
M  V30 21917 C 2003.66 3.98502 1.86773 0
M  V30 21918 H 2000.78 0.715297 0.177537 0
M  V30 21919 H 2003.42 1.88477 -0.240116 0
M  V30 21920 H 2001.57 3.53411 1.61348 0
M  V30 21921 H 2003.24 4.54437 -0.792781 0
M  V30 21922 H 2001.48 4.26098 -0.813797 0
M  V30 21923 H 2002.15 5.51507 0.233341 0
M  V30 21924 H 2004.63 3.93879 1.34159 0
M  V30 21925 H 2003.51 5.03564 2.18436 0
M  V30 21926 H 2003.77 3.4145 2.80828 0
M  V30 21927 N 2002.83 -0.116876 1.57166 0
M  V30 21928 C 2004.1 -0.854715 1.75937 0
M  V30 21929 C 2004.48 -1.97969 0.732908 0
M  V30 21930 O 2003.83 -2.27207 -0.242738 0
M  V30 21931 C 2004.04 -1.36944 3.2101 0
M  V30 21932 C 2005.39 -1.82093 3.83572 0
M  V30 21933 O 2006.41 -1.46618 3.24625 0
M  V30 21934 O 2005.27 -2.47614 4.87186 0
M  V30 21935 H 2002.37 -0.40605 0.720453 0
M  V30 21936 H 2004.91 -0.100451 1.69402 0
M  V30 21937 H 2003.68 -0.56241 3.87237 0
M  V30 21938 H 2003.31 -2.18635 3.32091 0
M  V30 21939 N 2004.3 -1.52772 -0.387116 0
M  V30 21940 C 2005.55 -1.67131 -1.12916 0
M  V30 21941 C 2005.87 -0.418501 -1.9107 0
M  V30 21942 O 2007.07 -0.442261 -2.67874 0
M  V30 21943 C 2005.53 -2.95368 -2.05635 0
M  V30 21944 C 2005.14 -4.27835 -1.32895 0
M  V30 21945 C 2006.88 -3.19093 -2.79964 0
M  V30 21946 C 2004.79 -5.47177 -2.2439 0
M  V30 21947 H 2003.72 -0.622655 -0.425225 0
M  V30 21948 H 2006.37 -1.79268 -0.391801 0
M  V30 21949 H 2004.75 -2.76981 -2.83015 0
M  V30 21950 H 2005.92 -4.56781 -0.607276 0
M  V30 21951 H 2004.24 -4.10385 -0.705181 0
M  V30 21952 H 2006.84 -4.05436 -3.48605 0
M  V30 21953 H 2007.18 -2.34244 -3.44145 0
M  V30 21954 H 2007.71 -3.38054 -2.09676 0
M  V30 21955 H 2004.45 -6.3444 -1.64822 0
M  V30 21956 H 2003.97 -5.22541 -2.94468 0
M  V30 21957 H 2005.65 -5.81126 -2.84432 0
M  V30 21958 N 2005.78 0.645673 -1.43767 0
M  V30 21959 C 2006.73 1.75828 -1.4951 0
M  V30 21960 C 2007.7 1.62496 -0.344109 0
M  V30 21961 O 2008.88 1.82631 -0.552323 0
M  V30 21962 C 2006.02 3.14017 -1.43134 0
M  V30 21963 C 2005.14 3.38428 -2.68496 0
M  V30 21964 C 2004.27 4.66507 -2.54056 0
M  V30 21965 C 2003.31 4.84049 -3.74651 0
M  V30 21966 N 2002.45 6.03392 -3.58974 0
M  V30 21967 H 2007.29 1.70254 -2.44576 0
M  V30 21968 H 2004.82 0.830729 -1.21397 0
M  V30 21969 H 2006.78 3.93915 -1.37431 0
M  V30 21970 H 2005.41 3.18642 -0.516449 0
M  V30 21971 H 2004.46 2.52574 -2.84448 0
M  V30 21972 H 2005.78 3.47274 -3.58054 0
M  V30 21973 H 2004.93 5.54543 -2.46103 0
M  V30 21974 H 2003.67 4.59996 -1.62035 0
M  V30 21975 H 2002.67 3.94447 -3.83004 0
M  V30 21976 H 2003.9 4.92385 -4.67689 0
M  V30 21977 H 2001.85 5.97998 -2.69694 0
M  V30 21978 H 2001.76 6.13229 -4.42138 0
M  V30 21979 H 2003.03 6.94029 -3.54887 0
M  V30 21980 N 2007.26 1.30423 0.884744 0
M  V30 21981 C 2008.54 1.09917 1.61795 0
M  V30 21982 C 2008.92 -0.351448 2.08154 0
M  V30 21983 O 2008.26 -1.34299 1.84868 0
M  V30 21984 C 2008.47 2.10024 2.78731 0
M  V30 21985 C 2009.82 2.41754 3.49056 0
M  V30 21986 O 2010.85 2.08336 2.8892 0
M  V30 21987 O 2009.71 2.98918 4.57505 0
M  V30 21988 H 2006.8 0.422163 0.711131 0
M  V30 21989 H 2009.35 1.41849 0.9315 0
M  V30 21990 H 2008.12 3.07665 2.41781 0
M  V30 21991 H 2007.74 1.7891 3.55073 0
M  V30 21992 N 2008.74 -1.09711 1.13142 0
M  V30 21993 C 2009.68 -2.16265 0.806118 0
M  V30 21994 C 2010.65 -1.64493 -0.230476 0
M  V30 21995 O 2011.84 -1.9052 -0.103375 0
M  V30 21996 C 2008.98 -3.44002 0.275075 0
M  V30 21997 C 2008.09 -4.09688 1.37038 0
M  V30 21998 C 2007.23 -5.25172 0.797983 0
M  V30 21999 C 2006.27 -5.82775 1.87189 0
M  V30 22000 N 2005.4 -6.89625 1.31766 0
M  V30 22001 H 2010.24 -2.43434 1.71883 0
M  V30 22002 H 2007.78 -1.19482 0.858044 0
M  V30 22003 H 2009.74 -4.17169 -0.0509244 0
M  V30 22004 H 2008.37 -3.1716 -0.600779 0
M  V30 22005 H 2007.42 -3.34415 1.81302 0
M  V30 22006 H 2008.73 -4.48535 2.18215 0
M  V30 22007 H 2007.89 -6.05223 0.423093 0
M  V30 22008 H 2006.63 -4.87679 -0.0448997 0
M  V30 22009 H 2005.63 -5.01388 2.25588 0
M  V30 22010 H 2006.86 -6.2233 2.71812 0
M  V30 22011 H 2004.8 -6.54117 0.496729 0
M  V30 22012 H 2004.72 -7.27224 2.06594 0
M  V30 22013 H 2005.99 -7.73438 0.970242 0
M  V30 22014 N 2010.22 -0.924476 -1.27637 0
M  V30 22015 C 2011.18 -0.425772 -2.25211 0
M  V30 22016 C 2012.18 0.453876 -1.54261 0
M  V30 22017 O 2013.37 0.255412 -1.72317 0
M  V30 22018 C 2010.5 0.388294 -3.38681 0
M  V30 22019 H 2011.69 -1.28783 -2.70841 0
M  V30 22020 H 2009.25 -0.704863 -1.39504 0
M  V30 22021 H 2009.98 1.2693 -2.98428 0
M  V30 22022 H 2009.77 -0.242358 -3.9135 0
M  V30 22023 H 2011.26 0.727693 -4.11211 0
M  V30 22024 N 2011.69 1.41711 -0.689627 0
M  V30 22025 C 2012.97 1.95052 -0.146379 0
M  V30 22026 C 2013.35 1.62932 1.34225 0
M  V30 22027 O 2012.7 0.933198 2.08575 0
M  V30 22028 C 2012.91 3.46324 -0.431327 0
M  V30 22029 C 2014.26 4.23106 -0.355847 0
M  V30 22030 O 2015.28 3.54316 -0.365905 0
M  V30 22031 O 2014.14 5.45615 -0.310824 0
M  V30 22032 H 2011.23 0.82692 -0.0115 0
M  V30 22033 H 2013.78 1.5146 -0.765378 0
M  V30 22034 H 2012.55 3.62963 -1.46197 0
M  V30 22035 H 2012.18 3.96997 0.218942 0
M  V30 22036 N 2013.17 0.433965 1.51507 0
M  V30 22037 C 2014.12 -0.37918 2.27664 0
M  V30 22038 C 2015.09 -1.01975 1.31112 0
M  V30 22039 O 2016.27 -1.0393 1.6001 0
M  V30 22040 C 2013.41 -1.47628 3.1193 0
M  V30 22041 C 2012.53 -0.854176 4.23471 0
M  V30 22042 C 2011.66 -1.92604 4.95053 0
M  V30 22043 C 2010.7 -1.28219 5.9852 0
M  V30 22044 N 2009.84 -2.29527 6.63522 0
M  V30 22045 H 2014.68 0.276629 2.96713 0
M  V30 22046 H 2012.22 0.148264 1.46351 0
M  V30 22047 H 2014.17 -2.1236 3.59109 0
M  V30 22048 H 2012.8 -2.10176 2.45002 0
M  V30 22049 H 2011.86 -0.0952329 3.80281 0
M  V30 22050 H 2013.17 -0.344086 4.97612 0
M  V30 22051 H 2012.32 -2.65006 5.45762 0
M  V30 22052 H 2011.06 -2.46985 4.20535 0
M  V30 22053 H 2010.07 -0.543619 5.47106 0
M  V30 22054 H 2011.29 -0.745758 6.74993 0
M  V30 22055 H 2009.24 -2.82995 5.91819 0
M  V30 22056 H 2009.15 -1.834 7.33417 0
M  V30 22057 H 2010.42 -3.01423 7.18863 0
M  V30 22058 N 2014.65 -1.56732 0.165206 0
M  V30 22059 C 2015.88 -2.01069 -0.487749 0
M  V30 22060 C 2016.29 -1.04541 -1.57215 0
M  V30 22061 O 2015.65 -0.0452829 -1.82444 0
M  V30 22062 C 2015.7 -3.45249 -1.07169 0
M  V30 22063 O 2015.42 -4.38089 -0.0305845 0
M  V30 22064 C 2016.92 -4.04956 -1.80348 0
M  V30 22065 H 2014.14 -0.659179 -0.125394 0
M  V30 22066 H 2016.69 -2.02774 0.26514 0
M  V30 22067 H 2014.84 -3.44338 -1.77511 0
M  V30 22068 H 2015.26 -5.22471 -0.460866 0
M  V30 22069 H 2016.73 -5.07783 -2.16474 0
M  V30 22070 H 2017.21 -3.467 -2.69621 0
M  V30 22071 H 2017.81 -4.09552 -1.14662 0
M  V30 22072 N 2016.13 0.10854 -1.57226 0
M  V30 22073 C 2017.38 0.813095 -1.84585 0
M  V30 22074 C 2017.69 1.80548 -0.752453 0
M  V30 22075 O 2018.9 2.55697 -0.912763 0
M  V30 22076 C 2017.35 1.4968 -3.27298 0
M  V30 22077 C 2016.96 0.544871 -4.44674 0
M  V30 22078 C 2018.7 2.18587 -3.63895 0
M  V30 22079 C 2016.61 1.2324 -5.78417 0
M  V30 22080 H 2015.54 0.3074 -0.688492 0
M  V30 22081 H 2018.19 0.065908 -1.83382 0
M  V30 22082 H 2016.57 2.29098 -3.23002 0
M  V30 22083 H 2017.75 -0.216842 -4.6029 0
M  V30 22084 H 2016.06 -0.0377882 -4.16383 0
M  V30 22085 H 2018.66 2.70735 -4.61093 0
M  V30 22086 H 2019 2.96868 -2.91848 0
M  V30 22087 H 2019.54 1.46046 -3.70021 0
M  V30 22088 H 2016.28 0.490673 -6.53661 0
M  V30 22089 H 2015.8 1.96587 -5.66669 0
M  V30 22090 H 2017.47 1.76267 -6.22526 0
M  V30 22091 N 2017.61 1.52975 0.379009 0
M  V30 22092 C 2018.86 1.67728 1.12028 0
M  V30 22093 C 2019.17 0.428628 1.90846 0
M  V30 22094 O 2020.37 0.456461 2.67635 0
M  V30 22095 C 2018.83 2.96454 2.04066 0
M  V30 22096 C 2018.44 4.28534 1.30624 0
M  V30 22097 C 2020.18 3.20574 2.78267 0
M  V30 22098 C 2018.09 5.4836 2.21485 0
M  V30 22099 H 2017.02 0.624902 0.421917 0
M  V30 22100 H 2019.67 1.79474 0.382288 0
M  V30 22101 H 2018.05 2.78478 2.81542 0
M  V30 22102 H 2019.23 4.57097 0.583043 0
M  V30 22103 H 2017.54 4.10754 0.683407 0
M  V30 22104 H 2020.14 4.07279 3.4645 0
M  V30 22105 H 2020.48 2.36066 3.42898 0
M  V30 22106 H 2021.01 3.39162 2.0788 0
M  V30 22107 H 2017.75 6.35305 1.61455 0
M  V30 22108 H 2017.27 5.24095 2.91692 0
M  V30 22109 H 2018.95 5.82626 2.81346 0
M  V30 22110 N 2019.08 -0.63804 1.44107 0
M  V30 22111 C 2020.31 -1.4251 1.49995 0
M  V30 22112 C 2020.73 -1.88401 0.122604 0
M  V30 22113 O 2020.08 -1.60419 -0.870168 0
M  V30 22114 C 2020.14 -2.65002 2.45879 0
M  V30 22115 O 2019.86 -2.21025 3.78259 0
M  V30 22116 C 2021.36 -3.58203 2.61162 0
M  V30 22117 H 2018.58 -0.437285 0.508943 0
M  V30 22118 H 2021.12 -0.780912 1.89003 0
M  V30 22119 H 2019.28 -3.25527 2.10026 0
M  V30 22120 H 2019.69 -3.00388 4.29962 0
M  V30 22121 H 2021.16 -4.40776 3.32295 0
M  V30 22122 H 2021.64 -4.06556 1.6616 0
M  V30 22123 H 2022.25 -3.0355 2.97888 0
M  V30 22124 N 2020.56 -1.3089 -0.877815 0
M  V30 22125 C 2021.81 -1.19488 -1.62498 0
M  V30 22126 C 2022.12 0.247666 -1.94026 0
M  V30 22127 O 2023.33 0.483286 -2.67164 0
M  V30 22128 C 2021.79 -2.09126 -2.92906 0
M  V30 22129 C 2021.39 -3.58331 -2.68891 0
M  V30 22130 C 2023.14 -2.06505 -3.70885 0
M  V30 22131 C 2021.05 -4.40003 -3.9516 0
M  V30 22132 H 2019.98 -0.44363 -0.609679 0
M  V30 22133 H 2022.63 -1.5569 -0.971235 0
M  V30 22134 H 2021.01 -1.65815 -3.59613 0
M  V30 22135 H 2022.18 -4.09838 -2.10642 0
M  V30 22136 H 2020.5 -3.62849 -2.04278 0
M  V30 22137 H 2023.09 -2.64772 -4.64543 0
M  V30 22138 H 2023.44 -1.05026 -4.02834 0
M  V30 22139 H 2023.97 -2.47975 -3.11052 0
M  V30 22140 H 2020.71 -5.42205 -3.68366 0
M  V30 22141 H 2020.23 -3.93258 -4.52889 0
M  V30 22142 H 2021.91 -4.5181 -4.63117 0
M  V30 22143 N 2022.04 1.0911 -1.13723 0
M  V30 22144 C 2023 2.14011 -0.820475 0
M  V30 22145 C 2024 1.59882 0.171573 0
M  V30 22146 O 2025.19 1.7411 -0.0559029 0
M  V30 22147 C 2022.33 3.40178 -0.221758 0
M  V30 22148 H 2023.52 2.43541 -1.75007 0
M  V30 22149 H 2021.07 1.24702 -0.94229 0
M  V30 22150 H 2021.81 3.16277 0.716904 0
M  V30 22151 H 2021.59 3.80759 -0.936208 0
M  V30 22152 H 2023.08 4.17596 -0.0171079 0
M  V30 22153 N 2023.52 0.931232 1.27145 0
M  V30 22154 C 2024.47 0.404044 2.24391 0
M  V30 22155 C 2025.45 -0.493669 1.5314 0
M  V30 22156 O 2026.64 -0.330537 1.73886 0
M  V30 22157 C 2023.77 -0.338789 3.41624 0
M  V30 22158 C 2022.86 0.575643 4.20175 0
M  V30 22159 N 2023.25 1.69704 4.76481 0
M  V30 22160 C 2021.55 0.379324 4.44384 0
M  V30 22161 C 2022.25 2.26607 5.35747 0
M  V30 22162 N 2021.23 1.55523 5.20878 0
M  V30 22163 H 2025.03 1.26021 2.6551 0
M  V30 22164 H 2022.54 0.785921 1.42116 0
M  V30 22165 H 2024.54 -0.733438 4.10398 0
M  V30 22166 H 2023.2 -1.19185 3.02035 0
M  V30 22167 H 2024.21 2.07936 4.74324 0
M  V30 22168 H 2020.89 -0.432782 4.15251 0
M  V30 22169 H 2022.28 3.21036 5.90242 0
M  V30 22170 N 2025 -1.41343 0.697132 0
M  V30 22171 C 2026.41 -1.5528 0.368838 0
M  V30 22172 C 2026.61 -1.67234 -1.12406 0
M  V30 22173 O 2025.67 -1.65163 -1.90991 0
M  V30 22174 C 2026.98 -2.79114 1.11873 0
M  V30 22175 C 2028.53 -2.92913 1.10323 0
M  V30 22176 C 2029.01 -4.19637 1.83491 0
M  V30 22177 N 2030.5 -4.26598 1.80468 0
M  V30 22178 C 2031.23 -5.23516 2.33919 0
M  V30 22179 N 2030.73 -6.26455 2.95849 0
M  V30 22180 N 2032.52 -5.15467 2.24166 0
M  V30 22181 H 2024.67 -1.31829 1.66538 0
M  V30 22182 H 2026.93 -0.636129 0.702882 0
M  V30 22183 H 2026.64 -2.76496 2.17354 0
M  V30 22184 H 2026.51 -3.70679 0.69833 0
M  V30 22185 H 2028.9 -2.95046 0.0566834 0
M  V30 22186 H 2028.98 -2.02517 1.56271 0
M  V30 22187 H 2028.63 -4.18265 2.88126 0
M  V30 22188 H 2028.56 -5.09008 1.34976 0
M  V30 22189 H 2031.05 -3.52842 1.35318 0
M  V30 22190 H 2031.36 -6.96801 3.34198 0
M  V30 22191 H 2029.71 -6.26952 2.99927 0
M  V30 22192 H 2032.9 -4.33973 1.75456 0
M  V30 22193 H 2033.07 -5.90831 2.66126 0
M  V30 22194 N 2026.48 -0.441993 -1.51275 0
M  V30 22195 C 2027.72 0.124439 -2.01316 0
M  V30 22196 C 2028.04 1.43376 -1.33051 0
M  V30 22197 O 2029.24 2.08342 -1.74086 0
M  V30 22198 C 2027.7 0.272307 -3.58868 0
M  V30 22199 C 2027.31 -1.02686 -4.36073 0
M  V30 22200 C 2029.05 0.792259 -4.17041 0
M  V30 22201 C 2026.96 -0.844378 -5.85341 0
M  V30 22202 H 2025.89 0.0502803 -0.752322 0
M  V30 22203 H 2028.54 -0.572465 -1.74342 0
M  V30 22204 H 2026.92 1.03232 -3.82308 0
M  V30 22205 H 2028.1 -1.79557 -4.24377 0
M  V30 22206 H 2026.41 -1.4757 -3.89374 0
M  V30 22207 H 2029.01 0.94535 -5.26277 0
M  V30 22208 H 2029.35 1.77595 -3.76518 0
M  V30 22209 H 2029.88 0.0904292 -3.97697 0
M  V30 22210 H 2026.62 -1.80058 -6.30285 0
M  V30 22211 H 2026.14 -0.115549 -5.99689 0
M  V30 22212 H 2027.82 -0.499412 -6.4507 0
M  V30 22213 N 2027.95 1.56642 -0.173515 0
M  V30 22214 C 2028.92 2.16857 0.742008 0
M  V30 22215 C 2029.92 1.11721 1.1565 0
M  V30 22216 O 2031.11 1.37223 1.0731 0
M  V30 22217 C 2028.24 2.7532 2.01026 0
M  V30 22218 H 2029.43 2.99108 0.217769 0
M  V30 22219 H 2026.98 1.56115 0.0760536 0
M  V30 22220 H 2027.72 1.96808 2.57754 0
M  V30 22221 H 2027.5 3.52264 1.722 0
M  V30 22222 H 2028.99 3.21626 2.66358 0
M  V30 22223 N 2029.43 -0.1002 1.57281 0
M  V30 22224 C 2030.66 -0.82219 1.90407 0
M  V30 22225 C 2031.08 -1.71739 0.767297 0
M  V30 22226 O 2030.44 -1.79103 -0.281369 0
M  V30 22227 C 2030.49 -1.61579 3.22373 0
M  V30 22228 O 2029.59 -2.72433 3.09603 0
M  V30 22229 H 2028.93 -0.2262 0.624283 0
M  V30 22230 H 2031.46 -0.0769557 2.04455 0
M  V30 22231 H 2031.47 -2.00109 3.55556 0
M  V30 22232 H 2030.15 -0.958772 4.04698 0
M  V30 22233 H 2028.72 -2.36968 2.87925 0
M  V30 22234 N 2030.91 -1.53174 -0.370891 0
M  V30 22235 C 2032.16 -1.68319 -1.11137 0
M  V30 22236 C 2032.47 -0.438743 -1.90616 0
M  V30 22237 O 2033.68 -0.470648 -2.6739 0
M  V30 22238 C 2032.13 -2.97532 -2.02491 0
M  V30 22239 C 2031.74 -4.29221 -1.28349 0
M  V30 22240 C 2033.49 -3.22045 -2.76563 0
M  V30 22241 C 2031.39 -5.49526 -2.18574 0
M  V30 22242 H 2030.32 -0.62713 -0.418597 0
M  V30 22243 H 2032.97 -1.79674 -0.372765 0
M  V30 22244 H 2031.36 -2.79967 -2.80061 0
M  V30 22245 H 2032.53 -4.57399 -0.558794 0
M  V30 22246 H 2030.84 -4.1111 -0.661614 0
M  V30 22247 H 2033.44 -4.09111 -3.44285 0
M  V30 22248 H 2033.78 -2.37881 -3.41641 0
M  V30 22249 H 2034.32 -3.40259 -2.06079 0
M  V30 22250 H 2031.06 -6.36152 -1.58083 0
M  V30 22251 H 2030.58 -5.25635 -2.88909 0
M  V30 22252 H 2032.26 -5.8411 -2.78252 0
M  V30 22253 N 2032.39 0.630389 -1.44443 0
M  V30 22254 C 2033.33 1.74232 -1.51367 0
M  V30 22255 C 2034.3 1.62122 -0.361324 0
M  V30 22256 O 2035.49 1.82035 -0.571662 0
M  V30 22257 C 2032.63 3.12481 -1.46457 0
M  V30 22258 C 2031.74 3.35561 -2.72071 0
M  V30 22259 C 2030.88 4.63787 -2.58989 0
M  V30 22260 C 2029.92 4.80048 -3.79764 0
M  V30 22261 N 2029.05 5.99551 -3.65354 0
M  V30 22262 H 2033.89 1.6765 -2.46368 0
M  V30 22263 H 2031.43 0.817807 -1.22272 0
M  V30 22264 H 2033.39 3.92435 -1.41601 0
M  V30 22265 H 2032.02 3.18076 -0.550216 0
M  V30 22266 H 2031.07 2.49543 -2.8711 0
M  V30 22267 H 2032.38 3.43456 -3.61717 0
M  V30 22268 H 2031.54 5.51902 -2.51971 0
M  V30 22269 H 2030.28 4.58251 -1.66905 0
M  V30 22270 H 2029.28 3.90362 -3.87166 0
M  V30 22271 H 2030.51 4.87397 -4.72886 0
M  V30 22272 H 2028.45 5.95104 -2.76021 0
M  V30 22273 H 2028.37 6.08505 -4.48617 0
M  V30 22274 H 2029.64 6.90226 -3.62228 0
M  V30 22275 N 2033.87 1.31354 0.870861 0
M  V30 22276 C 2035.28 1.09992 1.15646 0
M  V30 22277 C 2035.48 -0.130192 2.01079 0
M  V30 22278 O 2034.54 -0.819776 2.38822 0
M  V30 22279 C 2035.85 2.37098 1.84946 0
M  V30 22280 C 2037.4 2.42699 1.97651 0
M  V30 22281 C 2037.87 3.69684 2.70366 0
M  V30 22282 N 2039.36 3.70573 2.77902 0
M  V30 22283 C 2040.1 4.65525 3.34775 0
M  V30 22284 N 2039.6 5.70831 3.92586 0
M  V30 22285 N 2041.39 4.53046 3.32724 0
M  V30 22286 H 2033.54 2.10249 0.301547 0
M  V30 22287 H 2035.8 0.927478 0.196185 0
M  V30 22288 H 2035.51 3.26943 1.2962 0
M  V30 22289 H 2035.38 2.46827 2.8523 0
M  V30 22290 H 2037.77 1.53324 2.52142 0
M  V30 22291 H 2037.85 2.36935 0.964123 0
M  V30 22292 H 2037.49 4.59425 2.16543 0
M  V30 22293 H 2037.42 3.72714 3.7201 0
M  V30 22294 H 2039.92 2.94449 2.36872 0
M  V30 22295 H 2040.23 6.39363 4.3409 0
M  V30 22296 H 2038.57 5.74606 3.90964 0
M  V30 22297 H 2041.76 3.69952 2.86798 0
M  V30 22298 H 2041.94 5.27223 3.76749 0
M  V30 22299 N 2035.34 -1.08505 1.143 0
M  V30 22300 C 2036.57 -1.85155 0.934475 0
M  V30 22301 C 2036.99 -1.81002 -0.511866 0
M  V30 22302 O 2036.35 -1.19437 -1.36398 0
M  V30 22303 C 2036.4 -3.30656 1.43871 0
M  V30 22304 O 2035.5 -4.07557 0.630143 0
M  V30 22305 H 2034.84 -0.573775 0.334183 0
M  V30 22306 H 2037.37 -1.36959 1.51998 0
M  V30 22307 H 2037.38 -3.815 1.44644 0
M  V30 22308 H 2036.06 -3.32995 2.49173 0
M  V30 22309 H 2034.64 -3.66441 0.691067 0
M  V30 22310 N 2036.82 -0.937962 -1.26649 0
M  V30 22311 C 2038.1 -0.501822 -1.89053 0
M  V30 22312 C 2038.48 1.02047 -1.84796 0
M  V30 22313 O 2037.83 1.87909 -1.3001 0
M  V30 22314 C 2038.04 -1.05952 -3.32528 0
M  V30 22315 C 2039.38 -1.12622 -4.09391 0
M  V30 22316 O 2040.41 -1.00988 -3.41584 0
M  V30 22317 O 2039.27 -1.30677 -5.30646 0
M  V30 22318 H 2036.36 -0.163048 -0.810768 0
M  V30 22319 H 2038.91 -1.03032 -1.34843 0
M  V30 22320 H 2037.68 -2.10319 -3.29972 0
M  V30 22321 H 2037.3 -0.513282 -3.94273 0
M  V30 22322 N 2038.3 1.40971 -0.704618 0
M  V30 22323 C 2039.25 2.30756 -0.0450323 0
M  V30 22324 C 2040.22 1.47598 0.761835 0
M  V30 22325 O 2041.4 1.76365 0.728023 0
M  V30 22326 C 2038.54 3.33723 0.878802 0
M  V30 22327 C 2037.65 4.31955 0.0625832 0
M  V30 22328 C 2036.79 5.2199 0.984889 0
M  V30 22329 C 2035.83 6.11885 0.16211 0
M  V30 22330 N 2034.97 6.94374 1.0387 0
M  V30 22331 H 2039.81 2.86598 -0.816414 0
M  V30 22332 H 2037.34 1.41145 -0.414306 0
M  V30 22333 H 2039.3 3.9198 1.42856 0
M  V30 22334 H 2037.93 2.79409 1.61648 0
M  V30 22335 H 2036.98 3.75571 -0.604216 0
M  V30 22336 H 2038.29 4.95476 -0.574897 0
M  V30 22337 H 2037.45 5.85125 1.60356 0
M  V30 22338 H 2036.19 4.58717 1.65621 0
M  V30 22339 H 2035.19 5.47791 -0.469576 0
M  V30 22340 H 2036.42 6.77216 -0.505547 0
M  V30 22341 H 2034.36 6.337 1.69588 0
M  V30 22342 H 2034.28 7.54617 0.457006 0
M  V30 22343 H 2035.55 7.61969 1.6439 0
M  V30 22344 N 2039.78 0.45001 1.51039 0
M  V30 22345 C 2041.03 -0.113761 2.01379 0
M  V30 22346 C 2041.34 -1.42669 1.33809 0
M  V30 22347 O 2042.55 -2.07416 1.75188 0
M  V30 22348 C 2041 -0.253272 3.59008 0
M  V30 22349 C 2040.61 1.04997 4.35522 0
M  V30 22350 C 2042.35 -0.770131 4.17456 0
M  V30 22351 C 2040.26 0.875408 5.84885 0
M  V30 22352 H 2039.19 -0.0462899 0.752578 0
M  V30 22353 H 2041.84 0.581702 1.74036 0
M  V30 22354 H 2040.22 -1.01203 3.8285 0
M  V30 22355 H 2041.4 1.81805 4.23419 0
M  V30 22356 H 2039.71 1.49632 3.88586 0
M  V30 22357 H 2042.31 -0.917427 5.26771 0
M  V30 22358 H 2042.65 -1.75596 3.77454 0
M  V30 22359 H 2043.19 -0.0693371 3.9774 0
M  V30 22360 H 2039.93 1.83398 6.29321 0
M  V30 22361 H 2039.45 0.14735 5.99619 0
M  V30 22362 H 2041.12 0.533614 6.44796 0
M  V30 22363 N 2041.26 -1.56548 0.18182 0
M  V30 22364 C 2042.5 -1.97488 -0.461104 0
M  V30 22365 C 2042.84 -1.06819 -1.62183 0
M  V30 22366 O 2042.11 -0.117449 -1.94145 0
M  V30 22367 C 2042.39 -3.47776 -0.934008 0
M  V30 22368 C 2042.25 -4.49224 0.227615 0
M  V30 22369 C 2043.57 -4.01423 -1.80409 0
M  V30 22370 H 2040.68 -0.718031 -0.166135 0
M  V30 22371 H 2043.33 -1.88071 0.27007 0
M  V30 22372 H 2041.48 -3.55933 -1.55705 0
M  V30 22373 H 2043.15 -4.53118 0.864978 0
M  V30 22374 H 2041.39 -4.2475 0.881483 0
M  V30 22375 H 2042.06 -5.51808 -0.145571 0
M  V30 22376 H 2044.54 -3.95963 -1.27876 0
M  V30 22377 H 2043.41 -5.06975 -2.10398 0
M  V30 22378 H 2043.68 -3.45875 -2.7536 0
M  V30 22379 N 2042.73 0.0918577 -1.57332 0
M  V30 22380 C 2043.98 0.795934 -1.86528 0
M  V30 22381 C 2044.31 1.78222 -0.771388 0
M  V30 22382 O 2043.59 1.93248 0.220326 0
M  V30 22383 C 2043.87 1.5218 -3.26364 0
M  V30 22384 C 2043.72 0.553281 -4.46384 0
M  V30 22385 C 2045.04 2.4716 -3.64143 0
M  V30 22386 H 2042.16 0.287896 -0.678443 0
M  V30 22387 H 2044.8 0.0594952 -1.89907 0
M  V30 22388 H 2042.95 2.14956 -3.23614 0
M  V30 22389 H 2044.63 -0.0677239 -4.6125 0
M  V30 22390 H 2042.87 -0.133076 -4.33596 0
M  V30 22391 H 2043.54 1.09838 -5.40962 0
M  V30 22392 H 2046.02 1.94474 -3.67857 0
M  V30 22393 H 2044.89 2.94964 -4.62912 0
M  V30 22394 H 2045.15 3.31065 -2.92999 0
M  V30 22395 N 2044.21 1.53368 0.362763 0
M  V30 22396 C 2045.46 1.69687 1.10511 0
M  V30 22397 C 2045.79 0.450107 1.8922 0
M  V30 22398 O 2045.04 -0.567977 1.87277 0
M  V30 22399 C 2045.34 2.89992 2.089 0
M  V30 22400 C 2045.01 4.26386 1.46649 0
M  V30 22401 C 2043.67 4.63475 1.294 0
M  V30 22402 C 2046.02 5.11194 1.01636 0
M  V30 22403 C 2043.35 5.83007 0.657259 0
M  V30 22404 C 2045.7 6.31374 0.393615 0
M  V30 22405 C 2044.37 6.67174 0.20864 0
M  V30 22406 H 2043.64 0.620928 0.404387 0
M  V30 22407 H 2046.28 1.87558 0.386572 0
M  V30 22408 H 2044.59 2.66646 2.87067 0
M  V30 22409 H 2046.28 2.99812 2.66296 0
M  V30 22410 H 2042.87 3.97184 1.61069 0
M  V30 22411 H 2047.06 4.83087 1.13755 0
M  V30 22412 H 2042.31 6.09332 0.502383 0
M  V30 22413 H 2046.49 6.9639 0.0366447 0
M  V30 22414 H 2044.12 7.59659 -0.286816 0
M  V30 22415 N 2045.69 -0.62272 1.44776 0
M  V30 22416 C 2046.64 -1.75545 1.526 0
M  V30 22417 C 2047.63 -1.64681 0.397056 0
M  V30 22418 O 2048.84 -1.70658 0.572351 0
M  V30 22419 H 2045.21 -0.579694 0.479018 0
M  V30 22420 H 2047.18 -1.66069 2.47919 0
M  V30 22421 C 2045.93 -3.13899 1.49542 0
M  V30 22422 H 2045.26 -3.2291 2.35731 0
M  V30 22423 H 2046.7 -3.93028 1.59076 0
M  V30 22424 C 2045.16 -3.36197 0.217454 0
M  V30 22425 O 2045.69 -3.95395 -0.708921 0
M  V30 22426 N 2043.89 -2.90361 0.117924 0
M  V30 22427 H 2043.44 -2.4237 0.872626 0
M  V30 22428 H 2043.4 -3.05655 -0.736367 0
M  V30 22429 N 2047.17 -1.31814 -0.863883 0
M  V30 22430 C 2048.12 -1.19916 -1.99306 0
M  V30 22431 C 2049.11 -0.106055 -1.69068 0
M  V30 22432 O 2050.32 -0.26836 -1.77988 0
M  V30 22433 H 2046.69 -0.371464 -0.653849 0
M  V30 22434 H 2048.66 -2.15436 -2.0647 0
M  V30 22435 C 2047.41 -0.929593 -3.35043 0
M  V30 22436 H 2046.73 -1.76288 -3.58835 0
M  V30 22437 H 2048.17 -0.886553 -4.14628 0
M  V30 22438 C 2046.63 0.367677 -3.34888 0
M  V30 22439 O 2047.16 1.38252 -3.77159 0
M  V30 22440 N 2045.37 0.386376 -2.8802 0
M  V30 22441 H 2044.92 -0.439994 -2.53815 0
M  V30 22442 H 2044.87 1.25425 -2.88299 0
M  V30 22443 N 2048.65 1.07897 -1.14873 0
M  V30 22444 C 2050.06 1.61864 -0.930434 0
M  V30 22445 C 2050.41 1.88918 0.529558 0
M  V30 22446 O 2049.53 1.65051 1.39954 0
M  V30 22447 C 2050.13 2.94067 -1.68256 0
M  V30 22448 C 2048.69 3.44797 -1.50969 0
M  V30 22449 C 2047.83 2.18945 -1.70171 0
M  V30 22450 H 2050.79 0.910562 -1.29979 0
M  V30 22451 H 2050.81 3.62744 -1.1488 0
M  V30 22452 H 2050.32 2.74344 -2.74512 0
M  V30 22453 H 2048.42 3.69613 -0.470834 0
M  V30 22454 H 2048.53 4.21205 -2.28305 0
M  V30 22455 H 2046.9 2.28371 -1.12778 0
M  V30 22456 H 2047.68 2.01724 -2.77781 0
M  V30 22457 N 2050.12 0.944665 1.2615 0
M  V30 22458 C 2051.4 0.511841 1.88784 0
M  V30 22459 C 2051.78 -1.01066 1.85335 0
M  V30 22460 O 2051.13 -1.87217 1.31004 0
M  V30 22461 C 2051.34 1.07714 3.31962 0
M  V30 22462 C 2052.69 1.14792 4.08788 0
M  V30 22463 O 2053.71 1.02798 3.41044 0
M  V30 22464 O 2052.57 1.3349 5.29946 0
M  V30 22465 H 2049.66 0.167346 0.809892 0
M  V30 22466 H 2052.21 1.03745 1.34294 0
M  V30 22467 H 2050.98 2.12066 3.28852 0
M  V30 22468 H 2050.61 0.534184 3.93995 0
M  V30 22469 N 2051.6 -1.40596 0.712085 0
M  V30 22470 C 2053.02 -1.5488 0.385286 0
M  V30 22471 C 2053.22 -1.68416 -1.10626 0
M  V30 22472 O 2052.27 -1.67179 -1.89228 0
M  V30 22473 C 2053.59 -2.77912 1.14828 0
M  V30 22474 C 2055.14 -2.91726 1.13424 0
M  V30 22475 C 2055.61 -4.17667 1.87931 0
M  V30 22476 N 2057.1 -4.2466 1.84982 0
M  V30 22477 C 2057.84 -5.21006 2.39459 0
M  V30 22478 N 2057.33 -6.23282 3.02476 0
M  V30 22479 N 2059.13 -5.1306 2.29621 0
M  V30 22480 H 2051.28 -1.30055 1.67927 0
M  V30 22481 H 2053.54 -0.628638 0.70959 0
M  V30 22482 H 2053.25 -2.74175 2.20275 0
M  V30 22483 H 2053.12 -3.69918 0.737606 0
M  V30 22484 H 2055.51 -2.94969 0.0879737 0
M  V30 22485 H 2055.59 -2.00848 1.5841 0
M  V30 22486 H 2055.23 -4.15186 2.92546 0
M  V30 22487 H 2055.16 -5.07548 1.40367 0
M  V30 22488 H 2057.65 -3.51387 1.39053 0
M  V30 22489 H 2057.97 -6.93217 3.4157 0
M  V30 22490 H 2056.31 -6.23736 3.06559 0
M  V30 22491 H 2059.5 -4.32088 1.80049 0
M  V30 22492 H 2059.67 -5.87975 2.72378 0
M  V30 22493 N 2053.08 -0.458013 -1.50798 0
M  V30 22494 C 2054.03 0.357083 -2.29843 0
M  V30 22495 C 2055.02 1.00229 -1.36567 0
M  V30 22496 O 2056.23 0.934888 -1.53818 0
M  V30 22497 H 2052.6 0.133985 -0.739968 0
M  V30 22498 H 2054.57 -0.330165 -2.96568 0
M  V30 22499 C 2053.32 1.43404 -3.1675 0
M  V30 22500 H 2052.65 0.946947 -3.88424 0
M  V30 22501 H 2054.09 1.9772 -3.75077 0
M  V30 22502 C 2052.55 2.42878 -2.33478 0
M  V30 22503 O 2053.08 3.47868 -2.00874 0
M  V30 22504 N 2051.28 2.14272 -1.96306 0
M  V30 22505 H 2050.83 1.28918 -2.2302 0
M  V30 22506 H 2050.79 2.81064 -1.40891 0
M  V30 22507 N 2054.56 1.56449 -0.190119 0
M  V30 22508 C 2055.81 1.97048 0.449068 0
M  V30 22509 C 2056.13 1.07797 1.62496 0
M  V30 22510 O 2055.4 0.148203 1.95339 0
M  V30 22511 H 2053.98 0.727656 0.168896 0
M  V30 22512 H 2056.64 1.9294 -0.275691 0
M  V30 22513 H 2055.74 3.01764 0.79653 0
M  V30 22514 N 2056.04 -0.0835127 1.57379 0
M  V30 22515 C 2057.27 -0.798106 1.90887 0
M  V30 22516 C 2057.68 -1.71709 0.78496 0
M  V30 22517 O 2057.04 -1.80883 -0.242406 0
M  V30 22518 C 2057.09 -1.60168 3.24081 0
M  V30 22519 O 2056.81 -0.719655 4.32149 0
M  V30 22520 C 2058.31 -2.41831 3.71527 0
M  V30 22521 H 2055.53 -0.227571 0.631231 0
M  V30 22522 H 2058.07 -0.0572834 2.0442 0
M  V30 22523 H 2056.23 -2.2949 3.12111 0
M  V30 22524 H 2056.64 -1.27737 5.08708 0
M  V30 22525 H 2058.12 -2.93689 4.67387 0
M  V30 22526 H 2058.59 -3.20824 2.99948 0
M  V30 22527 H 2059.2 -1.77687 3.86403 0
M  V30 22528 N 2057.52 -1.53558 -0.354624 0
M  V30 22529 C 2058.76 -1.70271 -1.09609 0
M  V30 22530 C 2059.09 -0.460135 -1.88979 0
M  V30 22531 O 2058.35 0.558038 -1.87575 0
M  V30 22532 C 2058.64 -2.91096 -2.07359 0
M  V30 22533 C 2058.31 -4.27157 -1.44386 0
M  V30 22534 C 2056.97 -4.64155 -1.2694 0
M  V30 22535 C 2059.32 -5.11726 -0.989239 0
M  V30 22536 C 2056.65 -5.83347 -0.626331 0
M  V30 22537 C 2059 -6.31574 -0.360126 0
M  V30 22538 C 2057.67 -6.67275 -0.173255 0
M  V30 22539 H 2056.94 -0.623064 -0.401089 0
M  V30 22540 H 2059.59 -1.8776 -0.37662 0
M  V30 22541 H 2057.89 -2.68164 -2.85649 0
M  V30 22542 H 2059.59 -3.0122 -2.64702 0
M  V30 22543 H 2056.18 -3.98032 -1.5896 0
M  V30 22544 H 2060.36 -4.83684 -1.11191 0
M  V30 22545 H 2055.62 -6.0959 -0.470062 0
M  V30 22546 H 2059.79 -6.964 0.00028709 0
M  V30 22547 H 2057.42 -7.59496 0.327098 0
M  V30 22548 N 2058.99 0.615033 -1.45104 0
M  V30 22549 C 2060.24 1.37627 -1.48952 0
M  V30 22550 C 2060.57 1.93779 -0.127873 0
M  V30 22551 O 2059.85 1.74617 0.856686 0
M  V30 22552 C 2060.13 2.5297 -2.56278 0
M  V30 22553 C 2059.98 2.02063 -4.01859 0
M  V30 22554 C 2061.3 3.55121 -2.59956 0
M  V30 22555 H 2058.42 0.49907 -0.542308 0
M  V30 22556 H 2061.06 0.693977 -1.76873 0
M  V30 22557 H 2059.21 3.11174 -2.326 0
M  V30 22558 H 2060.89 1.48565 -4.36722 0
M  V30 22559 H 2059.13 1.3312 -4.1287 0
M  V30 22560 H 2059.8 2.85176 -4.72629 0
M  V30 22561 H 2062.28 3.06745 -2.81153 0
M  V30 22562 H 2061.15 4.33326 -3.36927 0
M  V30 22563 H 2061.41 4.10251 -1.64761 0
M  V30 22564 N 2060.47 1.3227 0.85688 0
M  V30 22565 C 2061.4 1.16846 1.97179 0
M  V30 22566 C 2062.42 0.10404 1.62467 0
M  V30 22567 O 2063.61 0.352788 1.74979 0
M  V30 22568 C 2060.71 0.76585 3.30133 0
M  V30 22569 C 2059.88 1.91808 3.93101 0
M  V30 22570 C 2058.94 1.49939 5.04386 0
M  V30 22571 O 2057.96 2.21106 5.245 0
M  V30 22572 N 2059.17 0.394147 5.7916 0
M  V30 22573 H 2061.93 2.12882 2.10953 0
M  V30 22574 H 2059.49 1.24777 1.03161 0
M  V30 22575 H 2061.48 0.4682 4.01983 0
M  V30 22576 H 2060.05 -0.103295 3.12429 0
M  V30 22577 H 2059.27 2.38235 3.14067 0
M  V30 22578 H 2060.56 2.68952 4.31906 0
M  V30 22579 H 2059.96 -0.198236 5.65353 0
M  V30 22580 H 2058.52 0.156093 6.51613 0
M  V30 22581 N 2061.95 -1.07287 1.15444 0
M  V30 22582 C 2063.17 -1.84153 0.954061 0
M  V30 22583 C 2063.6 -1.81534 -0.492639 0
M  V30 22584 O 2062.96 -1.20877 -1.35124 0
M  V30 22585 C 2063.01 -3.29112 1.4737 0
M  V30 22586 O 2062.11 -4.06866 0.673335 0
M  V30 22587 H 2061.45 -0.570198 0.34025 0
M  V30 22588 H 2063.98 -1.35339 1.53442 0
M  V30 22589 H 2063.99 -3.79944 1.48682 0
M  V30 22590 H 2062.67 -3.30333 2.52691 0
M  V30 22591 H 2061.24 -3.65687 0.729894 0
M  V30 22592 N 2063.43 -0.951342 -1.25647 0
M  V30 22593 C 2064.38 -0.439691 -2.2372 0
M  V30 22594 C 2065.36 0.469243 -1.53906 0
M  V30 22595 O 2066.55 0.302832 -1.7439 0
M  V30 22596 C 2063.68 0.284397 -3.4212 0
M  V30 22597 C 2062.77 -0.642416 -4.19206 0
M  V30 22598 N 2063.16 -1.77263 -4.73721 0
M  V30 22599 C 2061.46 -0.449973 -4.43724 0
M  V30 22600 C 2062.16 -2.35101 -5.32074 0
M  V30 22601 N 2061.13 -1.6379 -5.18337 0
M  V30 22602 H 2064.94 -1.30229 -2.63472 0
M  V30 22603 H 2062.45 -0.808431 -1.40848 0
M  V30 22604 H 2064.45 0.668054 -4.11513 0
M  V30 22605 H 2063.11 1.14364 -3.03893 0
M  V30 22606 H 2064.12 -2.15456 -4.70955 0
M  V30 22607 H 2060.8 0.366665 -4.15887 0
M  V30 22608 H 2062.19 -3.30386 -5.8506 0
M  V30 22609 N 2064.91 1.40216 -0.719531 0
M  V30 22610 C 2066.15 2.00418 -0.260225 0
M  V30 22611 C 2066.47 1.57349 1.15179 0
M  V30 22612 O 2065.74 0.814718 1.78155 0
M  V30 22613 H 2064.32 0.741161 -0.0932204 0
M  V30 22614 H 2066.99 1.71495 -0.926041 0
M  V30 22615 H 2066.08 3.10689 -0.29642 0
M  V30 22616 N 2066.38 0.466004 1.50553 0
M  V30 22617 C 2067.61 -0.0885768 2.0671 0
M  V30 22618 C 2068.03 -1.33958 1.33044 0
M  V30 22619 O 2067.38 -1.78102 0.398219 0
M  V30 22620 C 2067.43 -0.381842 3.59478 0
M  V30 22621 O 2067.16 0.81954 4.30366 0
M  V30 22622 C 2068.66 -0.98395 4.32242 0
M  V30 22623 H 2065.88 0.00481473 0.670983 0
M  V30 22624 H 2068.42 0.653327 1.93783 0
M  V30 22625 H 2066.58 -1.07367 3.72224 0
M  V30 22626 H 2066.99 0.56106 5.21491 0
M  V30 22627 H 2068.46 -1.13895 5.40122 0
M  V30 22628 H 2068.94 -1.97271 3.92404 0
M  V30 22629 H 2069.55 -0.330654 4.24013 0
M  V30 22630 N 2067.86 -1.56346 0.198413 0
M  V30 22631 C 2068.81 -2.15862 -0.734002 0
M  V30 22632 C 2069.8 -1.10032 -1.17396 0
M  V30 22633 O 2070.99 -1.36085 -1.13181 0
M  V30 22634 C 2068.12 -2.8241 -1.95191 0
M  V30 22635 C 2067.2 -3.95436 -1.53269 0
M  V30 22636 N 2067.59 -4.99032 -0.824642 0
M  V30 22637 C 2065.89 -4.07098 -1.82174 0
M  V30 22638 C 2066.59 -5.78449 -0.614107 0
M  V30 22639 N 2065.57 -5.30995 -1.16384 0
M  V30 22640 H 2069.37 -2.93321 -0.184355 0
M  V30 22641 H 2066.88 -1.624 -0.00124749 0
M  V30 22642 H 2068.88 -3.23443 -2.6304 0
M  V30 22643 H 2067.54 -2.0644 -2.50624 0
M  V30 22644 H 2068.55 -5.15673 -0.479757 0
M  V30 22645 H 2065.23 -3.42258 -2.39093 0
M  V30 22646 H 2066.62 -6.7188 -0.0521937 0
M  V30 22647 N 2069.34 0.0751653 -1.57421 0
M  V30 22648 C 2070.62 0.807768 -1.78142 0
M  V30 22649 C 2071 1.95956 -0.785139 0
M  V30 22650 O 2070.35 2.27771 0.182413 0
M  V30 22651 C 2070.56 1.28385 -3.24528 0
M  V30 22652 C 2071.9 1.71859 -3.88265 0
M  V30 22653 O 2072.93 1.3796 -3.28398 0
M  V30 22654 O 2071.79 2.3461 -4.93579 0
M  V30 22655 H 2068.88 0.386806 -0.730965 0
M  V30 22656 H 2071.43 0.0555021 -1.69609 0
M  V30 22657 H 2070.2 0.459543 -3.88592 0
M  V30 22658 H 2069.82 2.09753 -3.37771 0
M  V30 22659 N 2070.82 1.53744 0.346476 0
M  V30 22660 C 2071.73 1.84516 1.44883 0
M  V30 22661 C 2072.74 0.735054 1.57712 0
M  V30 22662 O 2073.92 1.02706 1.73244 0
M  V30 22663 C 2070.99 2.04576 2.7991 0
M  V30 22664 C 2070.05 3.28442 2.7645 0
M  V30 22665 C 2069.28 3.47536 4.05036 0
M  V30 22666 O 2069.5 2.70527 5.02167 0
M  V30 22667 O 2068.44 4.40955 4.09686 0
M  V30 22668 H 2072.26 2.78207 1.21797 0
M  V30 22669 H 2069.85 1.39362 0.53838 0
M  V30 22670 H 2071.73 2.19232 3.59882 0
M  V30 22671 H 2070.4 1.14074 3.02934 0
M  V30 22672 H 2069.31 3.19192 1.95108 0
M  V30 22673 H 2070.64 4.18928 2.5838 0
M  V30 22674 N 2072.3 -0.607329 1.45428 0
M  V30 22675 C 2073.23 -1.72873 1.56962 0
M  V30 22676 C 2074.21 -1.64804 0.421159 0
M  V30 22677 O 2075.39 -1.83199 0.64433 0
M  V30 22678 C 2072.52 -3.11476 1.53622 0
M  V30 22679 C 2071.48 -3.34357 2.67188 0
M  V30 22680 C 2070.8 -4.73236 2.48902 0
M  V30 22681 C 2072.1 -3.24586 4.09196 0
M  V30 22682 H 2073.8 -1.63477 2.5083 0
M  V30 22683 H 2071.34 -0.785054 1.20718 0
M  V30 22684 H 2073.3 -3.89725 1.60288 0
M  V30 22685 H 2072.02 -3.21714 0.562838 0
M  V30 22686 H 2070.68 -2.58499 2.5995 0
M  V30 22687 H 2070.33 -4.80206 1.49702 0
M  V30 22688 H 2070.03 -4.895 3.25059 0
M  V30 22689 H 2071.55 -5.53684 2.57422 0
M  V30 22690 H 2072.96 -3.92709 4.17676 0
M  V30 22691 H 2071.36 -3.52381 4.85745 0
M  V30 22692 H 2072.43 -2.22022 4.31085 0
M  V30 22693 N 2073.77 -1.32722 -0.849853 0
M  V30 22694 C 2074.7 -1.24675 -1.97429 0
M  V30 22695 C 2075.69 -0.129581 -1.69606 0
M  V30 22696 O 2076.87 -0.317548 -1.91586 0
M  V30 22697 C 2074 -0.973971 -3.33363 0
M  V30 22698 C 2072.95 -2.05289 -3.75553 0
M  V30 22699 C 2072.28 -1.63244 -5.09171 0
M  V30 22700 C 2073.58 -3.46845 -3.90507 0
M  V30 22701 H 2075.27 -2.18753 -2.0442 0
M  V30 22702 H 2072.82 -1.0531 -0.982132 0
M  V30 22703 H 2074.77 -0.904206 -4.11585 0
M  V30 22704 H 2073.5 0.00243816 -3.266 0
M  V30 22705 H 2072.16 -2.11289 -2.99587 0
M  V30 22706 H 2071.8 -0.643348 -4.98869 0
M  V30 22707 H 2071.5 -2.35437 -5.38371 0
M  V30 22708 H 2073.03 -1.57713 -5.8988 0
M  V30 22709 H 2074.44 -3.43408 -4.59069 0
M  V30 22710 H 2072.84 -4.17429 -4.3113 0
M  V30 22711 H 2073.91 -3.86155 -2.93278 0
M  V30 22712 N 2075.25 1.06673 -1.16011 0
M  V30 22713 C 2076.48 1.83645 -0.963814 0
M  V30 22714 C 2076.9 1.81793 0.483005 0
M  V30 22715 O 2076.26 1.21592 1.34481 0
M  V30 22716 C 2076.31 3.28326 -1.49113 0
M  V30 22717 O 2075.41 4.06503 -0.694902 0
M  V30 22718 H 2074.75 0.568386 -0.343269 0
M  V30 22719 H 2077.28 1.34523 -1.54158 0
M  V30 22720 H 2077.29 3.7915 -1.50695 0
M  V30 22721 H 2075.97 3.28988 -2.5444 0
M  V30 22722 H 2074.55 3.65295 -0.749278 0
M  V30 22723 N 2076.73 0.957992 1.25141 0
M  V30 22724 C 2077.69 0.485333 2.24003 0
M  V30 22725 C 2078.69 -0.412817 1.55411 0
M  V30 22726 O 2079.88 -0.209635 1.72934 0
M  V30 22727 C 2077.02 -0.298362 3.39592 0
M  V30 22728 H 2078.21 1.35918 2.67332 0
M  V30 22729 H 2075.76 0.741602 1.37586 0
M  V30 22730 H 2076.5 -1.18973 3.01688 0
M  V30 22731 H 2076.28 0.346033 3.9057 0
M  V30 22732 H 2077.77 -0.618412 4.12996 0
M  V30 22733 N 2078.21 -1.39832 0.726957 0
M  V30 22734 C 2079.14 -2.29161 0.0422219 0
M  V30 22735 C 2080.15 -1.4641 -0.7119 0
M  V30 22736 O 2081.34 -1.69574 -0.557395 0
M  V30 22737 C 2078.44 -3.24886 -0.964472 0
M  V30 22738 C 2077.62 -4.36544 -0.273536 0
M  V30 22739 C 2076.67 -5.12632 -1.1872 0
M  V30 22740 O 2075.7 -5.6527 -0.66771 0
M  V30 22741 N 2076.9 -5.23068 -2.51754 0
M  V30 22742 H 2079.67 -2.88567 0.809275 0
M  V30 22743 H 2077.23 -1.51326 0.575514 0
M  V30 22744 H 2079.22 -3.72662 -1.57813 0
M  V30 22745 H 2077.79 -2.66568 -1.63279 0
M  V30 22746 H 2077.01 -3.90749 0.520485 0
M  V30 22747 H 2078.3 -5.08384 0.205613 0
M  V30 22748 H 2077.7 -4.81806 -2.96445 0
M  V30 22749 H 2076.25 -5.74312 -3.08235 0
M  V30 22750 N 2079.69 -0.473982 -1.50304 0
M  V30 22751 C 2080.96 0.141727 -1.95086 0
M  V30 22752 C 2081.34 1.56703 -1.41447 0
M  V30 22753 O 2080.69 2.20021 -0.616691 0
M  V30 22754 C 2080.9 0.0820815 -3.48903 0
M  V30 22755 C 2082.25 0.26953 -4.23744 0
M  V30 22756 O 2083.27 0.158532 -3.55847 0
M  V30 22757 O 2082.13 0.494023 -5.44262 0
M  V30 22758 H 2079.23 0.110094 -0.819639 0
M  V30 22759 H 2081.77 -0.534591 -1.6106 0
M  V30 22760 H 2080.54 -0.912936 -3.80501 0
M  V30 22761 H 2080.17 0.799731 -3.89474 0
M  V30 22762 N 2081.16 1.56239 -0.206702 0
M  V30 22763 C 2082.41 1.97513 0.428144 0
M  V30 22764 C 2082.73 1.09514 1.61343 0
M  V30 22765 O 2082 0.168913 1.9517 0
M  V30 22766 H 2080.58 0.729406 0.161169 0
M  V30 22767 H 2083.25 1.92637 -0.296139 0
M  V30 22768 H 2082.34 3.02592 0.764479 0
M  V30 22769 N 2082.64 -0.0668159 1.57458 0
M  V30 22770 C 2083.89 -0.76387 1.86676 0
M  V30 22771 C 2084.2 -1.78489 0.800057 0
M  V30 22772 O 2085.41 -2.53187 0.980236 0
M  V30 22773 C 2083.87 -1.4095 3.31151 0
M  V30 22774 C 2083.47 -0.426782 4.45963 0
M  V30 22775 C 2085.22 -2.08863 3.69563 0
M  V30 22776 C 2083.13 -1.07861 5.81481 0
M  V30 22777 H 2082.06 -0.289037 0.6964 0
M  V30 22778 H 2084.71 -0.0172645 1.83492 0
M  V30 22779 H 2083.09 -2.20453 3.28962 0
M  V30 22780 H 2084.26 0.338803 4.59553 0
M  V30 22781 H 2082.58 0.148171 4.16136 0
M  V30 22782 H 2085.17 -2.58415 4.68109 0
M  V30 22783 H 2085.52 -2.89026 2.99616 0
M  V30 22784 H 2086.05 -1.36184 3.73763 0
M  V30 22785 H 2082.79 -0.317194 6.54732 0
M  V30 22786 H 2082.31 -1.81493 5.71682 0
M  V30 22787 H 2083.99 -1.597 6.26981 0
M  V30 22788 N 2084.12 -1.53926 -0.338317 0
M  V30 22789 C 2085.35 -1.75114 -1.0963 0
M  V30 22790 C 2085.76 -0.492691 -1.82672 0
M  V30 22791 O 2085.1 0.545601 -1.75411 0
M  V30 22792 C 2085.16 -2.88063 -2.15081 0
M  V30 22793 C 2084.83 -4.27487 -1.61568 0
M  V30 22794 C 2085.83 -5.0887 -1.06523 0
M  V30 22795 C 2083.51 -4.73988 -1.66256 0
M  V30 22796 C 2085.5 -6.34857 -0.568774 0
M  V30 22797 C 2083.19 -5.99946 -1.16223 0
M  V30 22798 C 2084.19 -6.80214 -0.616267 0
M  V30 22799 O 2083.88 -8.03805 -0.123412 0
M  V30 22800 H 2083.61 -0.588533 -0.332572 0
M  V30 22801 H 2086.16 -2.01572 -0.394676 0
M  V30 22802 H 2084.39 -2.57141 -2.88817 0
M  V30 22803 H 2086.08 -2.97172 -2.76485 0
M  V30 22804 H 2086.85 -4.74106 -1.02219 0
M  V30 22805 H 2082.73 -4.11564 -2.07692 0
M  V30 22806 H 2086.27 -6.97456 -0.141967 0
M  V30 22807 H 2082.17 -6.34204 -1.2023 0
M  V30 22808 H 2082.94 -8.18147 -0.240214 0
M  V30 22809 N 2085.6 0.599608 -1.45748 0
M  V30 22810 C 2086.55 1.70982 -1.55028 0
M  V30 22811 C 2087.52 1.61319 -0.395631 0
M  V30 22812 O 2088.7 1.80781 -0.610146 0
M  V30 22813 C 2085.84 3.09304 -1.53052 0
M  V30 22814 C 2084.95 3.29715 -2.79127 0
M  V30 22815 C 2084.09 4.58189 -2.68769 0
M  V30 22816 C 2083.13 4.71885 -3.89861 0
M  V30 22817 N 2082.27 5.91666 -3.77989 0
M  V30 22818 H 2087.11 1.62387 -2.49869 0
M  V30 22819 H 2084.64 0.791687 -1.23979 0
M  V30 22820 H 2086.6 3.89343 -1.49893 0
M  V30 22821 H 2085.23 3.16838 -0.617561 0
M  V30 22822 H 2084.28 2.43397 -2.92339 0
M  V30 22823 H 2085.59 3.35707 -3.68921 0
M  V30 22824 H 2084.75 5.46433 -2.63621 0
M  V30 22825 H 2083.49 4.54608 -1.76587 0
M  V30 22826 H 2082.49 3.82062 -3.95359 0
M  V30 22827 H 2083.72 4.77257 -4.83118 0
M  V30 22828 H 2081.66 5.89115 -2.88582 0
M  V30 22829 H 2081.58 5.98853 -4.61423 0
M  V30 22830 H 2082.85 6.82387 -3.76787 0
M  V30 22831 N 2087.08 1.33171 0.842803 0
M  V30 22832 C 2088.02 1.23097 1.95232 0
M  V30 22833 C 2088.99 0.110469 1.65732 0
M  V30 22834 O 2090.18 0.288065 1.88613 0
M  V30 22835 C 2087.32 0.972118 3.31125 0
M  V30 22836 C 2086.43 2.17852 3.73047 0
M  V30 22837 C 2085.57 1.85415 4.9779 0
M  V30 22838 C 2084.61 3.0231 5.32236 0
M  V30 22839 N 2083.74 2.69887 6.48156 0
M  V30 22840 H 2088.58 2.17995 2.03181 0
M  V30 22841 H 2086.12 1.08406 0.994308 0
M  V30 22842 H 2088.08 0.802486 4.09409 0
M  V30 22843 H 2086.71 0.0598977 3.22744 0
M  V30 22844 H 2085.76 2.45803 2.90318 0
M  V30 22845 H 2087.07 3.05254 3.94489 0
M  V30 22846 H 2086.23 1.65073 5.83812 0
M  V30 22847 H 2084.97 0.952447 4.78309 0
M  V30 22848 H 2083.97 3.2327 4.44721 0
M  V30 22849 H 2085.2 3.93229 5.53667 0
M  V30 22850 H 2083.14 1.82271 6.30169 0
M  V30 22851 H 2083.06 3.50818 6.69673 0
M  V30 22852 H 2084.33 2.53002 7.37299 0
M  V30 22853 N 2088.56 -1.06056 1.16576 0
M  V30 22854 C 2089.79 -1.82328 0.971608 0
M  V30 22855 C 2090.19 -1.82919 -0.483446 0
M  V30 22856 O 2089.54 -1.24868 -1.34735 0
M  V30 22857 C 2089.6 -3.30046 1.42513 0
M  V30 22858 C 2089.26 -3.53153 2.90055 0
M  V30 22859 C 2090.26 -3.46001 3.88045 0
M  V30 22860 C 2087.94 -3.80397 3.2803 0
M  V30 22861 C 2089.94 -3.65764 5.22011 0
M  V30 22862 C 2087.63 -3.99809 4.62165 0
M  V30 22863 C 2088.62 -3.9249 5.58964 0
M  V30 22864 O 2088.31 -4.1137 6.90673 0
M  V30 22865 H 2088.04 -0.581675 0.344427 0
M  V30 22866 H 2090.6 -1.34692 1.55071 0
M  V30 22867 H 2088.83 -3.78555 0.789515 0
M  V30 22868 H 2090.52 -3.87817 1.19802 0
M  V30 22869 H 2091.28 -3.24941 3.60053 0
M  V30 22870 H 2087.16 -3.85201 2.53261 0
M  V30 22871 H 2090.71 -3.59967 5.97553 0
M  V30 22872 H 2086.6 -4.20359 4.89866 0
M  V30 22873 H 2087.37 -4.28645 6.97285 0
M  V30 22874 N 2090.03 -0.964615 -1.24631 0
M  V30 22875 C 2091.28 -0.625742 -1.92905 0
M  V30 22876 C 2091.61 0.836529 -1.75259 0
M  V30 22877 O 2090.89 1.60146 -1.10379 0
M  V30 22878 C 2091.17 -0.997473 -3.46009 0
M  V30 22879 C 2091.02 -2.51621 -3.72836 0
M  V30 22880 C 2092.34 -0.529778 -4.369 0
M  V30 22881 H 2089.46 -0.228804 -0.700584 0
M  V30 22882 H 2092.1 -1.20306 -1.47059 0
M  V30 22883 H 2090.25 -0.506207 -3.85188 0
M  V30 22884 H 2091.93 -3.082 -3.43235 0
M  V30 22885 H 2090.17 -2.94954 -3.18095 0
M  V30 22886 H 2090.84 -2.72681 -4.79947 0
M  V30 22887 H 2093.32 -0.951326 -4.05079 0
M  V30 22888 H 2092.19 -0.818472 -5.42764 0
M  V30 22889 H 2092.45 0.570178 -4.38408 0
M  V30 22890 N 2091.51 1.39445 -0.734362 0
M  V30 22891 C 2092.46 2.30609 -0.093969 0
M  V30 22892 C 2093.43 1.49181 0.730356 0
M  V30 22893 O 2094.61 1.77869 0.69045 0
M  V30 22894 C 2091.75 3.35512 0.807817 0
M  V30 22895 C 2090.87 4.3199 -0.0290549 0
M  V30 22896 C 2090 5.23961 0.873946 0
M  V30 22897 C 2089.04 6.12091 0.0322837 0
M  V30 22898 N 2088.18 6.96421 0.891182 0
M  V30 22899 H 2093.02 2.84802 -0.877022 0
M  V30 22900 H 2090.55 1.40234 -0.444152 0
M  V30 22901 H 2092.51 3.94922 1.34509 0
M  V30 22902 H 2091.14 2.82775 1.55685 0
M  V30 22903 H 2090.19 3.74205 -0.683744 0
M  V30 22904 H 2091.51 4.94145 -0.679865 0
M  V30 22905 H 2090.66 5.88394 1.47909 0
M  V30 22906 H 2089.4 4.62127 1.55854 0
M  V30 22907 H 2088.4 5.46672 -0.585665 0
M  V30 22908 H 2089.63 6.75991 -0.649081 0
M  V30 22909 H 2087.58 6.37155 1.56108 0
M  V30 22910 H 2087.49 7.55417 0.296837 0
M  V30 22911 H 2088.76 7.65284 1.48191 0
M  V30 22912 N 2092.99 0.481946 1.5005 0
M  V30 22913 C 2093.92 -0.296253 2.31613 0
M  V30 22914 C 2094.9 -0.98032 1.3901 0
M  V30 22915 O 2096.09 -0.975402 1.67927 0
M  V30 22916 C 2093.22 -1.37231 3.19037 0
M  V30 22917 C 2092.17 -0.809232 4.2028 0
M  V30 22918 C 2091.5 -1.98439 4.96514 0
M  V30 22919 C 2092.8 0.18685 5.21966 0
M  V30 22920 H 2094.49 0.384509 2.96921 0
M  V30 22921 H 2092.04 0.186362 1.42789 0
M  V30 22922 H 2093.99 -1.92429 3.74899 0
M  V30 22923 H 2092.71 -2.082 2.51636 0
M  V30 22924 H 2091.37 -0.279145 3.65536 0
M  V30 22925 H 2091.02 -2.68131 4.25576 0
M  V30 22926 H 2090.72 -1.6138 5.65005 0
M  V30 22927 H 2092.24 -2.54107 5.55213 0
M  V30 22928 H 2093.66 -0.276326 5.72634 0
M  V30 22929 H 2092.05 0.472282 5.98239 0
M  V30 22930 H 2093.12 1.10915 4.72044 0
M  V30 22931 N 2094.47 -1.56127 0.214985 0
M  V30 22932 C 2095.43 -2.18748 -0.684252 0
M  V30 22933 C 2096.43 -1.14748 -1.12648 0
M  V30 22934 O 2097.62 -1.4002 -1.03634 0
M  V30 22935 C 2094.75 -2.80553 -1.93656 0
M  V30 22936 H 2095.95 -2.99581 -0.13839 0
M  V30 22937 H 2093.5 -1.56262 -0.0346358 0
M  V30 22938 H 2094.23 -2.03573 -2.52445 0
M  V30 22939 H 2094.02 -3.56705 -1.628 0
M  V30 22940 H 2095.51 -3.28575 -2.57737 0
M  V30 22941 N 2095.95 0.0584645 -1.57492 0
M  V30 22942 C 2096.89 1.06805 -2.04601 0
M  V30 22943 C 2097.86 1.37677 -0.929204 0
M  V30 22944 O 2099.05 1.48518 -1.19779 0
M  V30 22945 C 2096.19 2.37272 -2.50591 0
M  V30 22946 C 2095.3 2.12815 -3.75944 0
M  V30 22947 C 2094.44 3.36941 -4.10663 0
M  V30 22948 C 2093.47 3.07907 -5.29018 0
M  V30 22949 N 2092.61 4.24401 -5.5931 0
M  V30 22950 H 2097.45 0.659352 -2.90614 0
M  V30 22951 H 2094.99 0.313985 -1.4371 0
M  V30 22952 H 2096.95 3.13463 -2.75312 0
M  V30 22953 H 2095.58 2.75919 -1.67536 0
M  V30 22954 H 2094.63 1.27255 -3.58483 0
M  V30 22955 H 2095.94 1.87378 -4.62267 0
M  V30 22956 H 2095.09 4.21519 -4.36356 0
M  V30 22957 H 2093.83 3.65466 -3.22933 0
M  V30 22958 H 2092.84 2.21727 -5.03108 0
M  V30 22959 H 2094.06 2.80691 -6.18377 0
M  V30 22960 H 2092.01 4.52933 -4.7454 0
M  V30 22961 H 2091.93 4.02284 -6.40081 0
M  V30 22962 H 2093.19 5.09938 -5.89562 0
M  V30 22963 O 2097.46 1.60234 0.201845 0
M  V30 22964 H 2098.15 1.74475 0.841323 0
M  V30 END ATOM
M  V30 BEGIN BOND
M  V30 END BOND
M  V30 END CTAB
M  END
$$$$
