drugbank_target|P13551 Elongation factor G (DB02703; DB04315)
 OpenBabel12092120003D

  0  0  0     0  0            999 V3000
M  V30 BEGIN CTAB
M  V30 COUNTS 10880 10981 0 0 0
M  V30 BEGIN ATOM
M  V30 1 H -0.908 1.98254 -0.117106 0
M  V30 2 N 0 1.576 0 0
M  V30 3 C 0.933 2.03868 1.02534 0
M  V30 4 C 1.911 0.928543 1.3348 0
M  V30 5 O 3.095 1.19667 1.45644 0
M  V30 6 C 0.222 2.43627 2.35294 0
M  V30 7 C -0.732 3.65373 2.2001 0
M  V30 8 S 0.101 5.13292 1.52614 0
M  V30 9 C 1.257 5.56322 2.86805 0
M  V30 10 H 1.49 2.90518 0.631377 0
M  V30 11 H -0.977 1.52953 0.210867 0
M  V30 12 H 0.981 2.67203 3.11629 0
M  V30 13 H -0.358 1.57376 2.7183 0
M  V30 14 H -1.165 3.90944 3.18086 0
M  V30 15 H -1.563 3.418 1.51819 0
M  V30 16 H 0.729 5.58782 3.83104 0
M  V30 17 H 1.672 6.56266 2.65933 0
M  V30 18 H 2.08 4.83886 2.90714 0
M  V30 19 N 1.4781 -0.272755 1.55222 0
M  V30 20 C 2.4411 -1.32041 1.87344 0
M  V30 21 C 3.4411 -1.42342 0.74803 0
M  V30 22 O 4.6311 -1.41488 1.0162 0
M  V30 23 C 1.7631 -2.70173 2.07893 0
M  V30 24 H 2.9561 -1.04789 2.80997 0
M  V30 25 H 0.5091 -0.51083 1.47717 0
M  V30 26 H 1.2441 -3.02605 1.16622 0
M  V30 27 H 1.0291 -2.64082 2.89833 0
M  V30 28 H 2.5191 -3.45869 2.34017 0
M  V30 29 N 2.9562 -1.48159 -0.537278 0
M  V30 30 C 4.2022 -1.56035 -1.29541 0
M  V30 31 C 4.5352 -0.230377 -1.92829 0
M  V30 32 O 3.8102 0.762952 -1.78911 0
M  V30 33 C 4.0932 -2.69323 -2.39034 0
M  V30 34 C 3.9462 -4.12002 -1.80485 0
M  V30 35 C 5.2652 -2.78408 -3.40847 0
M  V30 36 H 2.3842 -0.567992 -0.469632 0
M  V30 37 H 5.0262 -1.80302 -0.599277 0
M  V30 38 H 3.1762 -2.48763 -2.98412 0
M  V30 39 H 4.8482 -4.43981 -1.25215 0
M  V30 40 H 3.0912 -4.19344 -1.11055 0
M  V30 41 H 3.7622 -4.87077 -2.59731 0
M  V30 42 H 6.2382 -2.97012 -2.91416 0
M  V30 43 H 5.1142 -3.59416 -4.14863 0
M  V30 44 H 5.3752 -1.86269 -4.00944 0
M  V30 45 N 4.4343 0.785586 -1.36625 0
M  V30 46 C 5.3813 1.89838 -1.31264 0
M  V30 47 C 6.3513 1.65115 -0.180633 0
M  V30 48 O 7.5363 1.87222 -0.36777 0
M  V30 49 C 4.6763 3.26706 -1.11163 0
M  V30 50 C 3.7893 3.63476 -2.33472 0
M  V30 51 C 2.9243 4.89481 -2.06353 0
M  V30 52 C 1.9633 5.18941 -3.24602 0
M  V30 53 N 1.1003 6.36131 -2.97123 0
M  V30 54 H 5.9403 1.93756 -2.26413 0
M  V30 55 H 3.4773 0.947454 -1.12524 0
M  V30 56 H 5.4353 4.05639 -0.975337 0
M  V30 57 H 4.0653 3.222 -0.196674 0
M  V30 58 H 3.1173 2.79636 -2.57891 0
M  V30 59 H 4.4293 3.81193 -3.21704 0
M  V30 60 H 3.5833 5.76288 -1.89675 0
M  V30 61 H 2.3223 4.73841 -1.15437 0
M  V30 62 H 1.3273 4.30615 -3.41834 0
M  V30 63 H 2.5523 5.36498 -4.16349 0
M  V30 64 H 0.4983 6.21875 -2.08823 0
M  V30 65 H 0.4153 6.54198 -3.78894 0
M  V30 66 H 1.6833 7.2591 -2.84033 0
M  V30 67 N 5.9124 1.20967 1.01018 0
M  V30 68 C 7.1584 1.02526 1.74975 0
M  V30 69 C 7.4914 -0.4408 1.89131 0
M  V30 70 O 6.7664 -1.32718 1.42184 0
M  V30 71 C 7.0494 1.71699 3.1653 0
M  V30 72 C 6.9024 3.25791 3.10129 0
M  V30 73 C 8.2214 1.45531 4.15342 0
M  V30 74 H 5.3404 0.373863 0.635134 0
M  V30 75 H 7.9824 1.49071 1.17805 0
M  V30 76 H 6.1324 1.32128 3.65341 0
M  V30 77 H 7.8044 3.74697 2.69072 0
M  V30 78 H 6.0474 3.56363 2.47362 0
M  V30 79 H 6.7184 3.69353 4.10222 0
M  V30 80 H 9.1944 1.79872 3.75213 0
M  V30 81 H 8.0704 1.96453 5.1254 0
M  V30 82 H 8.3314 0.384237 4.40427 0
M  V30 83 N 7.3905 -1.2043 1.01659 0
M  V30 84 C 8.3005 -2.2689 0.596484 0
M  V30 85 C 9.3165 -1.70107 -0.36599 0
M  V30 86 O 10.4925 -2.00117 -0.226942 0
M  V30 87 C 7.5575 -3.4665 -0.0586659 0
M  V30 88 C 6.6185 -4.18662 0.949751 0
M  V30 89 C 5.8515 -5.32705 0.32577 0
M  V30 90 O 6.0745 -5.63656 -0.874509 0
M  V30 91 O 5.0085 -5.92803 1.04249 0
M  V30 92 H 8.8345 -2.65041 1.4828 0
M  V30 93 H 6.4195 -1.27048 0.786082 0
M  V30 94 H 8.3015 -4.19256 -0.424564 0
M  V30 95 H 6.9765 -3.10375 -0.91918 0
M  V30 96 H 5.8835 -3.48229 1.36702 0
M  V30 97 H 7.2165 -4.58878 1.78023 0
M  V30 98 N 8.8686 -0.792821 -1.36206 0
M  V30 99 C 10.0986 -0.378275 -2.03107 0
M  V30 100 C 10.5066 1.01119 -1.59911 0
M  V30 101 O 9.8496 1.66052 -0.785658 0
M  V30 102 C 9.9116 -0.366535 -3.57627 0
M  V30 103 C 9.5756 -1.70416 -4.24037 0
M  V30 104 C 10.5726 -2.6602 -4.46687 0
M  V30 105 C 8.2576 -1.98439 -4.6144 0
M  V30 106 C 10.2516 -3.8784 -5.05825 0
M  V30 107 C 7.9386 -3.20525 -5.20295 0
M  V30 108 C 8.9366 -4.15044 -5.42427 0
M  V30 109 O 8.6246 -5.34978 -6.00045 0
M  V30 110 H 8.3566 -0.153543 -0.658332 0
M  V30 111 H 10.9106 -1.07383 -1.75094 0
M  V30 112 H 9.1406 0.385539 -3.84773 0
M  V30 113 H 10.8296 0.0238088 -4.05893 0
M  V30 114 H 11.5956 -2.45658 -4.18183 0
M  V30 115 H 7.4746 -1.25686 -4.43536 0
M  V30 116 H 11.0186 -4.61628 -5.23015 0
M  V30 117 H 6.9156 -3.40764 -5.48225 0
M  V30 118 H 7.6836 -5.36088 -6.18508 0
M  V30 119 N 10.3467 1.47872 -0.545128 0
M  V30 120 C 11.6237 1.9554 0.0485222 0
M  V30 121 C 12.0037 1.4876 1.49779 0
M  V30 122 O 11.3517 0.720925 2.16829 0
M  V30 123 C 11.5617 3.48898 -0.084417 0
M  V30 124 C 12.9097 4.24547 0.0671239 0
M  V30 125 O 13.9337 3.56198 -0.0113649 0
M  V30 126 O 12.7927 5.45999 0.233882 0
M  V30 127 H 9.8867 0.823957 0.0708773 0
M  V30 128 H 12.4327 1.58327 -0.610798 0
M  V30 129 H 11.2047 3.75714 -1.09337 0
M  V30 130 H 10.8277 3.92845 0.613066 0
M  V30 131 N 11.8248 0.280983 1.55075 0
M  V30 132 C 12.7548 -0.597469 2.25727 0
M  V30 133 C 13.7358 -1.15417 1.24952 0
M  V30 134 O 14.9208 -1.18722 1.53684 0
M  V30 135 C 12.0508 -1.7789 2.98283 0
M  V30 136 C 11.0048 -1.35347 4.06036 0
M  V30 137 C 10.3308 -2.61846 4.66198 0
M  V30 138 C 11.6308 -0.499354 5.19907 0
M  V30 139 H 13.3248 -0.00824265 2.99399 0
M  V30 140 H 10.8708 -0.0025244 1.44 0
M  V30 141 H 12.8238 -2.39937 3.46422 0
M  V30 142 H 11.5478 -2.39405 2.22155 0
M  V30 143 H 10.2068 -0.756156 3.58717 0
M  V30 144 H 9.8548 -3.21632 3.86732 0
M  V30 145 H 9.5548 -2.3409 5.38958 0
M  V30 146 H 11.0788 -3.24732 5.1709 0
M  V30 147 H 12.4928 -1.02498 5.64063 0
M  V30 148 H 10.8898 -0.316424 5.99265 0
M  V30 149 H 11.9598 0.480459 4.82514 0
M  V30 150 N 13.3029 -1.57598 0.00835791 0
M  V30 151 C 14.2499 -2.08945 -0.980346 0
M  V30 152 C 15.2199 -0.986738 -1.33614 0
M  V30 153 O 16.4049 -1.25968 -1.43306 0
M  V30 154 C 13.5449 -2.60425 -2.26435 0
M  V30 155 C 12.6579 -3.84628 -1.96685 0
M  V30 156 C 11.7929 -4.24579 -3.19228 0
M  V30 157 C 10.8319 -5.41596 -2.85202 0
M  V30 158 N 9.9689 -5.768 -4.00307 0
M  V30 159 H 14.8089 -2.93148 -0.535551 0
M  V30 160 H 12.3459 -1.44912 -0.252776 0
M  V30 161 H 14.3039 -2.88354 -3.01509 0
M  V30 162 H 12.9339 -1.79083 -2.68568 0
M  V30 163 H 11.9859 -3.63556 -1.11942 0
M  V30 164 H 13.2979 -4.69796 -1.67611 0
M  V30 165 H 12.4519 -4.53834 -4.02641 0
M  V30 166 H 11.1909 -3.38137 -3.51447 0
M  V30 167 H 10.1959 -5.12056 -2.00198 0
M  V30 168 H 11.4209 -6.29721 -2.54222 0
M  V30 169 H 9.3669 -4.93316 -4.32407 0
M  V30 170 H 9.2839 -6.5656 -3.74786 0
M  V30 171 H 10.5519 -6.10652 -4.84484 0
M  V30 172 N 14.781 0.264519 -1.55364 0
M  V30 173 C 16.197 0.61215 -1.47394 0
M  V30 174 C 16.397 1.89134 -0.695018 0
M  V30 175 O 15.453 2.51563 -0.217275 0
M  V30 176 C 16.766 0.731235 -2.91674 0
M  V30 177 C 18.314 0.82473 -3.01939 0
M  V30 178 C 18.789 0.975522 -4.4749 0
M  V30 179 N 20.28 1.04083 -4.51354 0
M  V30 180 C 21.015 1.17646 -5.61201 0
M  V30 181 N 20.511 1.27874 -6.80896 0
M  V30 182 N 22.304 1.20823 -5.48961 0
M  V30 183 H 14.455 -0.575456 -2.04456 0
M  V30 184 H 16.718 -0.196099 -0.927496 0
M  V30 185 H 16.424 -0.138392 -3.51428 0
M  V30 186 H 16.298 1.60883 -3.41169 0
M  V30 187 H 18.685 1.68482 -2.42276 0
M  V30 188 H 18.766 -0.0776479 -2.55682 0
M  V30 189 H 18.41 0.120058 -5.07758 0
M  V30 190 H 18.34 1.89268 -4.91412 0
M  V30 191 H 20.831 0.973846 -3.65136 0
M  V30 192 H 21.144 1.38081 -7.60364 0
M  V30 193 H 19.489 1.24863 -6.83692 0
M  V30 194 H 22.68 1.12469 -4.54388 0
M  V30 195 H 22.853 1.31049 -6.3461 0
M  V30 196 N 16.2591 1.48442 0.529413 0
M  V30 197 C 17.1891 1.65902 1.64313 0
M  V30 198 C 18.1701 0.507897 1.6234 0
M  V30 199 O 19.3551 0.740503 1.79528 0
M  V30 200 C 16.4851 1.69911 3.02898 0
M  V30 201 C 15.4391 2.8453 3.19729 0
M  V30 202 C 14.7651 2.73629 4.59381 0
M  V30 203 C 16.0651 4.25821 3.02447 0
M  V30 204 H 17.7591 2.5914 1.49955 0
M  V30 205 H 15.3051 1.24709 0.719982 0
M  V30 206 H 17.2581 1.80715 3.80684 0
M  V30 207 H 15.9821 0.732524 3.18279 0
M  V30 208 H 14.6411 2.73283 2.44361 0
M  V30 209 H 14.2891 1.74938 4.71599 0
M  V30 210 H 13.9891 3.50541 4.71588 0
M  V30 211 H 15.5131 2.86401 5.39265 0
M  V30 212 H 16.9271 4.37898 3.70024 0
M  V30 213 H 15.3241 5.03735 3.26146 0
M  V30 214 H 16.3941 4.42244 1.98867 0
M  V30 215 N 17.7372 -0.778329 1.37039 0
M  V30 216 C 19.1532 -1.07796 1.17695 0
M  V30 217 C 19.3532 -2.01498 0.00860115 0
M  V30 218 O 18.4092 -2.43901 -0.653352 0
M  V30 219 C 19.7222 -1.68178 2.49272 0
M  V30 220 C 21.2702 -1.80467 2.55735 0
M  V30 221 C 21.7452 -2.44263 3.87427 0
M  V30 222 N 23.2362 -2.51721 3.88833 0
M  V30 223 C 23.9712 -3.01919 4.87476 0
M  V30 224 N 23.4672 -3.5234 5.96513 0
M  V30 225 N 25.2602 -3.00733 4.74885 0
M  V30 226 H 17.4112 -0.156032 2.11826 0
M  V30 227 H 19.6742 -0.131844 0.938787 0
M  V30 228 H 19.3802 -1.06796 3.35093 0
M  V30 229 H 19.2542 -2.67554 2.65885 0
M  V30 230 H 21.6412 -2.40984 1.70325 0
M  V30 231 H 21.7222 -0.798656 2.43013 0
M  V30 232 H 21.3662 -1.84388 4.73248 0
M  V30 233 H 21.2962 -3.45458 3.9745 0
M  V30 234 H 23.7872 -2.1603 3.10063 0
M  V30 235 H 24.1002 -3.89027 6.67741 0
M  V30 236 H 22.4452 -3.50462 6.00168 0
M  V30 237 H 25.6362 -2.60638 3.88826 0
M  V30 238 H 25.8092 -3.39545 5.51918 0
M  V30 239 N 19.2153 -1.21501 -1.00376 0
M  V30 240 C 20.1633 -0.972442 -2.11297 0
M  V30 241 C 21.1573 0.080731 -1.69208 0
M  V30 242 O 22.3633 -0.0707666 -1.79861 0
M  V30 243 H 18.7383 -0.297218 -0.690772 0
M  V30 244 H 20.7093 -1.91394 -2.28934 0
M  V30 245 C 19.4583 -0.555065 -3.43241 0
M  V30 246 H 18.7813 -1.35709 -3.76062 0
M  V30 247 H 20.2213 -0.424664 -4.21868 0
M  V30 248 C 18.6803 0.734147 -3.28804 0
M  V30 249 O 19.2103 1.78937 -3.59645 0
M  V30 250 N 17.4163 0.701133 -2.82015 0
M  V30 251 H 16.9633 -0.157874 -2.57116 0
M  V30 252 H 16.9213 1.56403 -2.72737 0
M  V30 253 N 20.6934 1.19889 -1.02296 0
M  V30 254 C 21.9424 1.88743 -0.711257 0
M  V30 255 C 22.2554 1.80112 0.762817 0
M  V30 256 O 23.4614 2.44161 1.18733 0
M  V30 257 C 21.9174 3.38525 -1.22185 0
M  V30 258 C 21.5254 3.55727 -2.72328 0
M  V30 259 C 23.2694 4.12893 -0.985864 0
M  V30 260 C 21.1764 4.99369 -3.16835 0
M  V30 261 H 20.1064 0.706885 -0.262353 0
M  V30 262 H 22.7574 1.35586 -1.23648 0
M  V30 263 H 21.1394 3.91044 -0.624571 0
M  V30 264 H 22.3134 3.13564 -3.3766 0
M  V30 265 H 20.6284 2.94739 -2.9414 0
M  V30 266 H 23.2254 5.18813 -1.29374 0
M  V30 267 H 23.5684 4.16228 0.0775055 0
M  V30 268 H 24.1014 3.66494 -1.54684 0
M  V30 269 H 20.8404 5.01193 -4.22476 0
M  V30 270 H 20.3604 5.42317 -2.56228 0
M  V30 271 H 22.0394 5.67988 -3.09837 0
M  V30 272 N 22.1715 0.800033 1.35784 0
M  V30 273 C 23.4195 0.376597 1.9856 0
M  V30 274 C 23.7405 -1.05812 1.63795 0
M  V30 275 O 23.0105 -1.73103 0.917171 0
M  V30 276 H 21.5905 0.136261 0.734467 0
M  V30 277 H 24.2525 1.02442 1.65806 0
M  V30 278 H 23.3485 0.477002 3.08433 0
M  V30 279 N 23.6496 -1.47581 0.552962 0
M  V30 280 C 24.8986 -2.01684 0.0251995 0
M  V30 281 C 25.2116 -1.43317 -1.33115 0
M  V30 282 O 26.4176 -1.89057 -1.94858 0
M  V30 283 C 24.8736 -3.599 -0.00542052 0
M  V30 284 C 24.4816 -4.27257 1.34742 0
M  V30 285 C 26.2256 -4.21768 -0.4808 0
M  V30 286 C 24.1326 -5.77467 1.27614 0
M  V30 287 H 23.0626 -0.753979 0.00565033 0
M  V30 288 H 25.7136 -1.69616 0.70018 0
M  V30 289 H 24.0956 -3.88911 -0.745961 0
M  V30 290 H 25.2696 -4.09893 2.10534 0
M  V30 291 H 23.5846 -3.77358 1.76039 0
M  V30 292 H 26.1816 -5.31838 -0.55246 0
M  V30 293 H 26.5246 -3.88651 -1.49184 0
M  V30 294 H 27.0576 -3.97273 0.204752 0
M  V30 295 H 23.7966 -6.15196 2.26304 0
M  V30 296 H 23.3166 -5.9718 0.55996 0
M  V30 297 H 24.9956 -6.3959 0.976421 0
M  V30 298 N 25.1277 -0.289203 -1.54924 0
M  V30 299 C 26.0907 0.579144 -2.21762 0
M  V30 300 C 27.0907 1.07047 -1.1999 0
M  V30 301 O 28.2807 0.968384 -1.44803 0
M  V30 302 C 25.4127 1.80055 -2.8947 0
M  V30 303 H 26.6057 -0.00464908 -2.999 0
M  V30 304 H 24.1587 -0.0399306 -1.56249 0
M  V30 305 H 24.8937 2.42449 -2.15381 0
M  V30 306 H 24.6787 1.45602 -3.64064 0
M  V30 307 H 26.1687 2.41773 -3.40493 0
M  V30 308 N 26.6058 1.57591 -0.0167156 0
M  V30 309 C 27.5688 2.08393 0.954204 0
M  V30 310 C 28.5688 0.996531 1.26198 0
M  V30 311 O 29.7588 1.25858 1.20438 0
M  V30 312 C 26.8908 2.5394 2.27436 0
M  V30 313 H 28.0838 2.95455 0.514451 0
M  V30 314 H 25.6368 1.54582 0.231089 0
M  V30 315 H 26.3718 1.70171 2.76066 0
M  V30 316 H 26.1568 3.33371 2.06412 0
M  V30 317 H 27.6468 2.93512 2.97053 0
M  V30 318 N 28.0839 -0.256276 1.55502 0
M  V30 319 C 29.0339 -1.31981 1.85916 0
M  V30 320 C 30.0179 -1.43927 0.719296 0
M  V30 321 O 31.2099 -1.47326 0.981019 0
M  V30 322 C 28.3389 -2.67703 2.14918 0
M  V30 323 C 27.4249 -2.59801 3.35208 0
M  V30 324 N 27.8159 -2.21524 4.54709 0
M  V30 325 C 26.1139 -2.90832 3.38131 0
M  V30 326 C 26.8149 -2.24024 5.36832 0
M  V30 327 N 25.7909 -2.63158 4.75656 0
M  V30 328 H 29.5929 -1.01423 2.75845 0
M  V30 329 H 27.1069 -0.464911 1.55603 0
M  V30 330 H 29.1039 -3.44445 2.34869 0
M  V30 331 H 27.7639 -2.99137 1.26282 0
M  V30 332 H 28.7749 -1.93223 4.80505 0
M  V30 333 H 25.4519 -3.26867 2.59739 0
M  V30 334 H 26.8419 -1.9685 6.42417 0
M  V30 335 N 29.562 -1.4872 -0.521534 0
M  V30 336 C 30.811 -1.56419 -1.27341 0
M  V30 337 C 31.124 -0.246805 -1.94037 0
M  V30 338 O 32.33 -0.202122 -2.70747 0
M  V30 339 C 30.786 -2.75896 -2.31105 0
M  V30 340 C 30.394 -4.14311 -1.70441 0
M  V30 341 C 32.138 -2.92913 -3.07249 0
M  V30 342 C 30.045 -5.25038 -2.72194 0
M  V30 343 H 28.975 -0.582344 -0.478949 0
M  V30 344 H 31.626 -1.75071 -0.549779 0
M  V30 345 H 30.008 -2.50697 -3.06541 0
M  V30 346 H 31.182 -4.49564 -1.01136 0
M  V30 347 H 29.497 -4.02482 -1.06759 0
M  V30 348 H 32.094 -3.72805 -3.83302 0
M  V30 349 H 32.437 -2.02689 -3.63625 0
M  V30 350 H 32.97 -3.18054 -2.38928 0
M  V30 351 H 29.709 -6.17255 -2.20627 0
M  V30 352 H 29.229 -4.94263 -3.39801 0
M  V30 353 H 30.908 -5.53508 -3.35019 0
M  V30 354 N 31.0401 0.771051 -1.3745 0
M  V30 355 C 32.3171 1.519 -1.23231 0
M  V30 356 C 32.6971 2.10383 0.173809 0
M  V30 357 O 32.0451 1.95583 1.18151 0
M  V30 358 C 32.2551 2.59933 -2.32886 0
M  V30 359 C 33.6031 3.27316 -2.70461 0
M  V30 360 O 34.6271 2.70228 -2.32068 0
M  V30 361 O 33.4861 4.30531 -3.36608 0
M  V30 362 H 30.5801 0.672803 -0.480901 0
M  V30 363 H 33.1261 0.807957 -1.49232 0
M  V30 364 H 31.8981 2.14842 -3.27045 0
M  V30 365 H 31.5211 3.38637 -2.08353 0
M  V30 366 N 32.5182 1.22032 0.997298 0
M  V30 367 C 33.4812 0.987909 2.06816 0
M  V30 368 C 34.4812 -0.0440084 1.6074 0
M  V30 369 O 35.6712 0.194053 1.73116 0
M  V30 370 C 32.8032 0.49132 3.37341 0
M  V30 371 H 33.9962 1.93803 2.28868 0
M  V30 372 H 31.5492 1.03838 1.16822 0
M  V30 373 H 32.2842 -0.463364 3.20973 0
M  V30 374 H 32.0692 1.23575 3.72118 0
M  V30 375 H 33.5592 0.348824 4.16141 0
M  V30 376 N 33.9963 -1.19345 1.0293 0
M  V30 377 C 35.2443 -1.88665 0.724574 0
M  V30 378 C 35.5653 -1.80036 -0.749144 0
M  V30 379 O 34.8353 -1.2111 -1.53978 0
M  V30 380 H 33.4153 -0.698406 0.265025 0
M  V30 381 H 36.0773 -1.44885 1.30362 0
M  V30 382 H 35.1733 -2.94987 1.01926 0
M  V30 383 N 35.4744 -0.807222 -1.35358 0
M  V30 384 C 36.4214 -0.216037 -2.29787 0
M  V30 385 C 37.3914 0.650278 -1.52842 0
M  V30 386 O 38.5764 0.595227 -1.81278 0
M  V30 387 C 35.7164 0.628893 -3.39321 0
M  V30 388 C 34.8294 -0.257927 -4.31229 0
M  V30 389 C 33.9644 0.595069 -5.27856 0
M  V30 390 C 33.0034 -0.292111 -6.11403 0
M  V30 391 N 32.1404 0.520895 -7.00165 0
M  V30 392 H 36.9804 -1.02671 -2.79755 0
M  V30 393 H 34.5174 -0.517839 -1.37684 0
M  V30 394 H 36.4754 1.13393 -4.01494 0
M  V30 395 H 35.1054 1.40482 -2.90628 0
M  V30 396 H 34.1574 -0.881076 -3.70056 0
M  V30 397 H 35.4694 -0.940759 -4.89848 0
M  V30 398 H 34.6234 1.16522 -5.95405 0
M  V30 399 H 33.3624 1.31146 -4.69736 0
M  V30 400 H 32.3674 -0.874525 -5.428 0
M  V30 401 H 33.5924 -1.00638 -6.71602 0
M  V30 402 H 31.5384 1.22125 -6.44532 0
M  V30 403 H 31.4554 -0.103877 -7.55929 0
M  V30 404 H 32.7234 1.0743 -7.72062 0
M  V30 405 N 36.9525 1.47285 -0.560781 0
M  V30 406 C 38.1805 2.06855 -0.0430262 0
M  V30 407 C 38.5955 1.41291 1.25229 0
M  V30 408 O 37.9525 0.510648 1.7521 0
M  V30 409 C 38.0035 3.61178 0.152518 0
M  V30 410 O 37.7245 4.24285 -1.0915 0
M  V30 411 C 39.2255 4.37624 0.707145 0
M  V30 412 H 36.4455 0.669319 -0.0474652 0
M  V30 413 H 38.9895 1.89237 -0.77521 0
M  V30 414 H 37.1445 3.78298 0.834843 0
M  V30 415 H 37.5585 5.16868 -0.891482 0
M  V30 416 H 39.0325 5.46271 0.793244 0
M  V30 417 H 39.5095 4.04152 1.71923 0
M  V30 418 H 40.1155 4.25257 0.0604027 0
M  V30 419 N 38.4306 0.297415 1.54768 0
M  V30 420 C 39.6586 -0.315623 2.04478 0
M  V30 421 C 40.0736 -1.47792 1.17486 0
M  V30 422 O 39.4306 -1.81404 0.19971 0
M  V30 423 C 39.4816 -0.7753 3.53088 0
M  V30 424 O 39.2026 0.340732 4.36773 0
M  V30 425 C 40.7036 -1.45386 4.18781 0
M  V30 426 H 37.9236 -0.0690887 0.667434 0
M  V30 427 H 40.4676 0.436003 1.99798 0
M  V30 428 H 38.6226 -1.47696 3.58141 0
M  V30 429 H 39.0366 -0.0165035 5.24497 0
M  V30 430 H 40.5106 -1.72669 5.24299 0
M  V30 431 H 40.9876 -2.39275 3.68299 0
M  V30 432 H 41.5936 -0.795475 4.17795 0
M  V30 433 N 39.9087 -1.5758 0.0250728 0
M  V30 434 C 41.1367 -1.9593 -0.664747 0
M  V30 435 C 41.5517 -0.901352 -1.65895 0
M  V30 436 O 40.9087 0.117255 -1.82123 0
M  V30 437 C 40.9597 -3.34342 -1.37468 0
M  V30 438 O 40.6807 -4.36079 -0.420324 0
M  V30 439 C 42.1817 -3.873 -2.1567 0
M  V30 440 H 39.4017 -0.645405 -0.183557 0
M  V30 441 H 41.9457 -2.04329 0.0836372 0
M  V30 442 H 40.1007 -3.27175 -2.0745 0
M  V30 443 H 40.5147 -5.16297 -0.923991 0
M  V30 444 H 41.9887 -4.86504 -2.60803 0
M  V30 445 H 42.4657 -3.21331 -2.99405 0
M  V30 446 H 43.0717 -3.97723 -1.50654 0
M  V30 447 N 41.3868 0.248026 -1.55636 0
M  V30 448 C 42.6148 0.993808 -1.81469 0
M  V30 449 C 43.0298 1.78991 -0.60064 0
M  V30 450 O 42.3868 1.77345 0.430682 0
M  V30 451 C 42.4378 1.93258 -3.05506 0
M  V30 452 O 42.1588 1.16869 -4.22224 0
M  V30 453 C 43.6598 2.79444 -3.4413 0
M  V30 454 H 40.8798 0.292486 -0.603898 0
M  V30 455 H 43.4238 0.271253 -2.02693 0
M  V30 456 H 41.5788 2.60943 -2.86335 0
M  V30 457 H 41.9928 1.80359 -4.92515 0
M  V30 458 H 43.4668 3.41066 -4.34026 0
M  V30 459 H 43.9438 3.50499 -2.64665 0
M  V30 460 H 44.5498 2.17214 -3.65648 0
M  V30 461 N 42.8649 1.48995 0.513639 0
M  V30 462 C 43.7749 1.67443 1.64317 0
M  V30 463 C 44.7909 0.556947 1.64846 0
M  V30 464 O 45.9669 0.830082 1.83498 0
M  V30 465 C 43.0319 1.72515 3.00732 0
M  V30 466 C 42.0929 2.96009 3.1093 0
M  V30 467 C 41.3259 3.00829 4.40837 0
M  V30 468 O 41.5489 2.13594 5.28898 0
M  V30 469 O 40.4829 3.93168 4.55744 0
M  V30 470 H 44.3089 2.63106 1.51687 0
M  V30 471 H 41.8939 1.32588 0.688543 0
M  V30 472 H 43.7759 1.78277 3.81831 0
M  V30 473 H 42.4509 0.800278 3.13651 0
M  V30 474 H 41.3579 2.9577 2.29065 0
M  V30 475 H 42.6909 3.87934 3.02933 0
M  V30 476 N 44.343 -0.763751 1.37857 0
M  V30 477 C 45.759 -1.06542 1.18832 0
M  V30 478 C 45.959 -2.01478 0.0299722 0
M  V30 479 O 45.015 -2.4458 -0.627447 0
M  V30 480 C 46.328 -1.65525 2.51042 0
M  V30 481 C 47.876 -1.77745 2.57635 0
M  V30 482 C 48.351 -2.4014 3.89996 0
M  V30 483 N 49.842 -2.47582 3.91481 0
M  V30 484 C 50.577 -2.96732 4.9065 0
M  V30 485 N 50.073 -3.45993 6.00217 0
M  V30 486 N 51.866 -2.95679 4.78048 0
M  V30 487 H 44.017 -0.133556 2.1198 0
M  V30 488 H 46.28 -0.121879 0.940133 0
M  V30 489 H 45.986 -1.03236 3.36207 0
M  V30 490 H 45.86 -2.64719 2.68707 0
M  V30 491 H 48.247 -2.39164 1.72872 0
M  V30 492 H 48.328 -0.772836 2.43846 0
M  V30 493 H 47.972 -1.79358 4.75177 0
M  V30 494 H 47.902 -3.41223 4.01092 0
M  V30 495 H 50.393 -2.1273 3.12337 0
M  V30 496 H 50.706 -3.81922 6.7183 0
M  V30 497 H 49.051 -3.44077 6.03851 0
M  V30 498 H 52.242 -2.56499 3.91568 0
M  V30 499 H 52.415 -3.33672 5.55488 0
M  V30 500 N 45.8211 -1.22559 -0.990812 0
M  V30 501 C 47.0701 -1.04553 -1.72486 0
M  V30 502 C 47.3831 0.419349 -1.91052 0
M  V30 503 O 48.5891 0.719121 -2.61803 0
M  V30 504 C 47.0451 -1.82231 -3.10355 0
M  V30 505 C 46.6531 -3.32981 -2.99713 0
M  V30 506 C 48.3971 -1.7268 -3.87791 0
M  V30 507 C 46.3041 -4.03091 -4.32748 0
M  V30 508 H 45.2341 -0.387614 -0.646739 0
M  V30 509 H 47.8851 -1.46429 -1.10593 0
M  V30 510 H 46.2671 -1.33155 -3.72942 0
M  V30 511 H 47.4411 -3.89466 -2.46278 0
M  V30 512 H 45.7561 -3.43231 -2.35758 0
M  V30 513 H 48.3531 -2.22381 -4.86262 0
M  V30 514 H 48.6961 -0.687607 -4.10582 0
M  V30 515 H 49.2291 -2.1931 -3.31885 0
M  V30 516 H 45.9681 -5.07273 -4.15156 0
M  V30 517 H 45.4881 -3.51394 -4.86089 0
M  V30 518 H 47.1671 -4.08804 -5.01486 0
M  V30 519 N 47.2992 1.18797 -1.03562 0
M  V30 520 C 48.2292 2.24472 -0.643019 0
M  V30 521 C 49.2102 1.66433 0.351283 0
M  V30 522 O 50.3952 1.92803 0.232505 0
M  V30 523 C 47.5252 3.473 4.24935e-05 0
M  V30 524 C 46.4792 4.18055 -0.917257 0
M  V30 525 C 45.8052 5.34519 -0.138941 0
M  V30 526 C 47.1052 4.72109 -2.23407 0
M  V30 527 H 48.7992 2.57566 -1.52643 0
M  V30 528 H 46.3452 1.23806 -0.735394 0
M  V30 529 H 48.2982 4.20426 0.286383 0
M  V30 530 H 47.0222 3.13424 0.918299 0
M  V30 531 H 45.6812 3.46821 -1.1879 0
M  V30 532 H 45.3292 4.96891 0.781562 0
M  V30 533 H 45.0292 5.82794 -0.750005 0
M  V30 534 H 46.5532 6.10438 0.1405 0
M  V30 535 H 47.9672 5.36955 -2.00879 0
M  V30 536 H 46.3642 5.30897 -2.79765 0
M  V30 537 H 47.4342 3.89807 -2.88407 0
M  V30 538 N 48.7773 0.814389 1.34928 0
M  V30 539 C 50.0073 0.41054 2.0248 0
M  V30 540 C 50.4153 -0.985625 1.61499 0
M  V30 541 O 49.7583 -1.64781 0.811976 0
M  V30 542 C 49.8203 0.423384 3.56998 0
M  V30 543 C 49.4843 1.77141 4.21272 0
M  V30 544 C 50.4813 2.73093 4.42398 0
M  V30 545 C 48.1663 2.05755 4.58225 0
M  V30 546 C 50.1603 3.95838 4.9959 0
M  V30 547 C 47.8473 3.28762 5.1513 0
M  V30 548 C 48.8453 4.23621 5.35755 0
M  V30 549 O 48.5333 5.44456 5.91458 0
M  V30 550 H 48.2653 0.163997 0.655806 0
M  V30 551 H 50.8193 1.10155 1.73364 0
M  V30 552 H 49.0493 -0.324276 3.85338 0
M  V30 553 H 50.7383 0.0407683 4.0588 0
M  V30 554 H 51.5043 2.5228 4.14222 0
M  V30 555 H 47.3833 1.32727 4.4148 0
M  V30 556 H 50.9273 4.69891 5.15605 0
M  V30 557 H 46.8243 3.49443 5.42734 0
M  V30 558 H 47.5923 5.4586 6.09901 0
M  V30 559 N 50.2554 -1.46986 0.568584 0
M  V30 560 C 51.4854 -2.0653 0.0539173 0
M  V30 561 C 51.8934 -1.42004 -1.25026 0
M  V30 562 O 51.2364 -0.514541 -1.76347 0
M  V30 563 C 51.2984 -3.58938 -0.200854 0
M  V30 564 C 50.9624 -4.45572 1.01559 0
M  V30 565 C 51.9594 -4.82986 1.92407 0
M  V30 566 C 49.6444 -4.8692 1.23346 0
M  V30 567 C 51.6384 -5.60559 3.03402 0
M  V30 568 C 49.3254 -5.64255 2.34649 0
M  V30 569 C 50.3234 -6.00986 3.24507 0
M  V30 570 O 50.0114 -6.76761 4.33878 0
M  V30 571 H 49.7434 -0.674292 0.0480234 0
M  V30 572 H 52.2974 -1.89812 0.784896 0
M  V30 573 H 50.5274 -3.73911 -0.986279 0
M  V30 574 H 52.2164 -4.0046 -0.662294 0
M  V30 575 H 52.9824 -4.51633 1.76785 0
M  V30 576 H 48.8614 -4.57789 0.543178 0
M  V30 577 H 52.4054 -5.89147 3.73565 0
M  V30 578 H 48.3024 -5.95021 2.5024 0
M  V30 579 H 49.0704 -6.95168 4.32068 0
M  V30 580 N 51.7335 -0.305618 -1.54608 0
M  V30 581 C 52.9615 0.304775 -2.04643 0
M  V30 582 C 53.3765 1.47167 -1.18268 0
M  V30 583 O 52.7335 1.81296 -0.209328 0
M  V30 584 C 52.7845 0.756564 -3.53495 0
M  V30 585 O 52.5055 -0.36389 -4.36586 0
M  V30 586 C 54.0065 1.43163 -4.19546 0
M  V30 587 H 51.2265 0.0655481 -0.667791 0
M  V30 588 H 53.7705 -0.446592 -1.99564 0
M  V30 589 H 51.9255 1.45794 -3.58919 0
M  V30 590 H 52.3395 -0.0113121 -5.24499 0
M  V30 591 H 53.8135 1.69886 -5.25207 0
M  V30 592 H 54.2905 2.37318 -3.69563 0
M  V30 593 H 54.8965 0.773307 -4.18211 0
M  V30 594 N 53.2116 1.57565 -0.0334293 0
M  V30 595 C 54.4596 1.91598 0.642999 0
M  V30 596 C 54.7806 0.910847 1.7242 0
M  V30 597 O 54.0506 -0.0469931 1.95844 0
M  V30 598 H 52.6306 0.707228 0.240496 0
M  V30 599 H 55.2926 1.94726 -0.0822488 0
M  V30 600 H 54.3886 2.92336 1.09298 0
M  V30 601 N 54.6897 -0.239769 1.55765 0
M  V30 602 C 56.1057 -0.588624 1.48349 0
M  V30 603 C 56.3057 -1.88005 0.72502 0
M  V30 604 O 55.3617 -2.51186 0.257269 0
M  V30 605 C 56.6747 -0.68474 2.928 0
M  V30 606 C 58.2227 -0.77659 3.03213 0
M  V30 607 C 58.6977 -0.904207 4.48986 0
M  V30 608 N 60.1887 -0.968896 4.52953 0
M  V30 609 C 60.9237 -1.08703 5.63002 0
M  V30 610 N 60.4197 -1.17026 6.82845 0
M  V30 611 N 62.2127 -1.12074 5.50814 0
M  V30 612 H 54.3637 0.607911 2.03515 0
M  V30 613 H 56.6267 0.21083 0.924259 0
M  V30 614 H 56.3327 0.194284 3.51163 0
M  V30 615 H 56.2067 -1.55435 3.43686 0
M  V30 616 H 58.5937 -1.64606 2.44926 0
M  V30 617 H 58.6747 0.118315 2.55526 0
M  V30 618 H 58.3187 -0.0392633 5.07885 0
M  V30 619 H 58.2487 -1.81426 4.9436 0
M  V30 620 H 60.7397 -0.915633 3.6664 0
M  V30 621 H 61.0527 -1.25966 7.62465 0
M  V30 622 H 59.3977 -1.13971 6.85591 0
M  V30 623 H 62.5887 -1.05226 4.5612 0
M  V30 624 H 62.7617 -1.20936 6.36615 0
M  V30 625 N 56.1678 -1.49265 -0.50573 0
M  V30 626 C 57.4168 -1.57761 -1.25675 0
M  V30 627 C 57.7298 -0.267371 -1.93764 0
M  V30 628 O 58.9358 -0.230827 -2.70517 0
M  V30 629 C 57.3918 -2.78332 -2.28165 0
M  V30 630 C 56.9998 -4.16096 -1.66037 0
M  V30 631 C 58.7438 -2.96155 -3.04125 0
M  V30 632 C 56.6508 -5.27895 -2.6661 0
M  V30 633 H 55.5808 -0.587391 -0.472745 0
M  V30 634 H 58.2318 -1.75644 -0.53118 0
M  V30 635 H 56.6138 -2.53934 -3.03865 0
M  V30 636 H 57.7878 -4.50612 -0.963622 0
M  V30 637 H 56.1028 -4.03591 -1.02484 0
M  V30 638 H 58.6998 -3.76849 -3.79327 0
M  V30 639 H 59.0428 -2.06534 -3.61455 0
M  V30 640 H 59.5758 -3.2057 -2.35541 0
M  V30 641 H 56.3148 -6.1956 -2.14068 0
M  V30 642 H 55.8348 -4.97839 -3.34539 0
M  V30 643 H 57.5138 -5.57031 -3.29129 0
M  V30 644 N 57.6459 0.756429 -1.3826 0
M  V30 645 C 58.5959 1.86069 -1.31766 0
M  V30 646 C 59.5799 1.59621 -0.202483 0
M  V30 647 O 60.7719 1.7149 -0.438211 0
M  V30 648 C 57.9009 3.23742 -1.1422 0
M  V30 649 C 56.9869 3.56091 -2.30348 0
M  V30 650 N 57.3779 3.59517 -3.55783 0
M  V30 651 C 55.6759 3.86341 -2.22838 0
M  V30 652 C 56.3769 3.89052 -4.32451 0
M  V30 653 N 55.3529 4.05736 -3.61772 0
M  V30 654 H 59.1549 1.86992 -2.26741 0
M  V30 655 H 56.6689 0.953643 -1.31451 0
M  V30 656 H 58.6659 4.02761 -1.07652 0
M  V30 657 H 57.3259 3.24073 -0.201763 0
M  V30 658 H 58.3369 3.41347 -3.89491 0
M  V30 659 H 55.0139 3.94404 -1.36937 0
M  V30 660 H 56.4039 3.98349 -5.4108 0
M  V30 661 N 59.124 1.23083 0.984299 0
M  V30 662 C 60.071 1.00854 2.07598 0
M  V30 663 C 61.041 -0.0726709 1.65941 0
M  V30 664 O 62.226 0.0786535 1.90638 0
M  V30 665 C 59.366 0.601645 3.39815 0
M  V30 666 C 58.479 1.75456 3.94765 0
M  V30 667 C 57.614 1.29482 5.15177 0
M  V30 668 C 56.653 2.41873 5.62284 0
M  V30 669 N 55.79 1.96885 6.73929 0
M  V30 670 H 60.63 1.943 2.25946 0
M  V30 671 H 58.167 0.968001 1.10762 0
M  V30 672 H 60.125 0.346854 4.15756 0
M  V30 673 H 58.755 -0.295803 3.21442 0
M  V30 674 H 57.807 2.12346 3.15616 0
M  V30 675 H 59.119 2.59965 4.25699 0
M  V30 676 H 58.273 0.997923 5.98437 0
M  V30 677 H 57.012 0.420046 4.85888 0
M  V30 678 H 56.017 2.72342 4.77608 0
M  V30 679 H 57.242 3.29881 5.93595 0
M  V30 680 H 55.188 1.11782 6.46406 0
M  V30 681 H 55.105 2.74956 7.04227 0
M  V30 682 H 56.373 1.70289 7.60672 0
M  V30 683 N 60.6021 -1.18246 1.0419 0
M  V30 684 C 61.8511 -1.87588 0.741194 0
M  V30 685 C 62.1641 -1.81303 -0.734066 0
M  V30 686 O 63.3701 -2.46019 -1.14834 0
M  V30 687 C 61.8261 -3.36538 1.27555 0
M  V30 688 C 61.4341 -3.51349 2.77953 0
M  V30 689 C 63.1781 -4.11273 1.05143 0
M  V30 690 C 61.0851 -4.94265 3.2474 0
M  V30 691 H 60.0151 -0.702622 0.273565 0
M  V30 692 H 62.6661 -1.33601 1.25789 0
M  V30 693 H 61.0481 -3.9 0.686703 0
M  V30 694 H 62.2221 -3.08153 3.42605 0
M  V30 695 H 60.5371 -2.90022 2.98791 0
M  V30 696 H 63.1341 -5.16689 1.37611 0
M  V30 697 H 63.4771 -4.16298 -0.0112774 0
M  V30 698 H 64.0101 -3.63987 1.60495 0
M  V30 699 H 60.7491 -4.94408 4.30396 0
M  V30 700 H 60.2691 -5.38172 2.64823 0
M  V30 701 H 61.9481 -5.62987 3.18834 0
M  V30 702 N 62.0802 -0.821533 -1.34494 0
M  V30 703 C 63.3282 -0.408139 -1.97936 0
M  V30 704 C 63.6492 1.03193 -1.65457 0
M  V30 705 O 62.9192 1.71622 -0.944595 0
M  V30 706 H 61.4992 -0.147928 -0.732206 0
M  V30 707 H 64.1612 -1.05067 -1.64155 0
M  V30 708 H 63.2572 -0.52601 -3.07635 0
M  V30 709 N 63.5583 1.46682 -0.576371 0
M  V30 710 C 64.4683 2.34032 0.163141 0
M  V30 711 C 65.4843 1.49367 0.892501 0
M  V30 712 O 66.6603 1.82252 0.857106 0
M  V30 713 C 63.7253 3.26435 1.16795 0
M  V30 714 C 62.7863 4.26998 0.443944 0
M  V30 715 C 62.0193 5.14986 1.40088 0
M  V30 716 O 62.2423 5.05785 2.637 0
M  V30 717 O 61.1763 5.94906 0.914917 0
M  V30 718 H 65.0023 2.98607 -0.55388 0
M  V30 719 H 62.5873 1.45554 -0.336821 0
M  V30 720 H 64.4693 3.83459 1.74748 0
M  V30 721 H 63.1443 2.64465 1.86655 0
M  V30 722 H 62.0513 3.7368 -0.177271 0
M  V30 723 H 63.3843 4.91736 -0.213566 0
M  V30 724 N 65.0364 0.313813 1.54444 0
M  V30 725 C 66.2824 -0.292108 2.00685 0
M  V30 726 C 66.6154 -1.52548 1.20177 0
M  V30 727 O 65.8904 -1.92452 0.281531 0
M  V30 728 C 66.1734 -0.635968 3.5444 0
M  V30 729 C 66.0264 0.607437 4.4568 0
M  V30 730 C 67.3454 -1.45747 4.15266 0
M  V30 731 H 64.4644 -0.104697 0.729526 0
M  V30 732 H 67.1064 0.428457 1.85106 0
M  V30 733 H 65.2564 -1.24986 3.67846 0
M  V30 734 H 66.9284 1.24581 4.44159 0
M  V30 735 H 65.1714 1.23822 4.15753 0
M  V30 736 H 65.8424 0.322515 5.51057 0
M  V30 737 H 68.3184 -0.938645 4.05375 0
M  V30 738 H 67.1944 -1.66683 5.2298 0
M  V30 739 H 67.4554 -2.45063 3.67963 0
M  V30 740 N 66.5145 -1.57545 0.0417849 0
M  V30 741 C 67.4645 -2.07483 -0.945247 0
M  V30 742 C 68.4485 -0.977983 -1.27767 0
M  V30 743 O 69.6405 -1.24142 -1.26166 0
M  V30 744 C 66.7695 -2.61576 -2.22335 0
M  V30 745 C 65.8555 -3.78213 -1.91874 0
M  V30 746 N 66.2465 -4.88344 -1.31733 0
M  V30 747 C 64.5445 -3.8694 -2.21796 0
M  V30 748 C 65.2455 -5.69462 -1.1869 0
M  V30 749 N 64.2215 -5.16771 -1.68666 0
M  V30 750 H 68.0235 -2.90029 -0.475441 0
M  V30 751 H 65.5375 -1.61581 -0.162911 0
M  V30 752 H 67.5345 -2.95651 -2.93932 0
M  V30 753 H 66.1945 -1.80465 -2.69931 0
M  V30 754 H 67.2055 -5.08335 -0.990729 0
M  V30 755 H 63.8825 -3.16757 -2.71977 0
M  V30 756 H 65.2725 -6.68023 -0.720793 0
M  V30 757 N 67.9926 0.231505 -1.5589 0
M  V30 758 C 68.9026 1.308 -1.94752 0
M  V30 759 C 69.9186 1.51826 -0.849989 0
M  V30 760 O 71.0946 1.6515 -1.15271 0
M  V30 761 C 68.1596 2.63968 -2.24771 0
M  V30 762 C 67.2206 2.51331 -3.48039 0
M  V30 763 C 66.4536 3.78148 -3.76616 0
M  V30 764 O 66.6766 4.80722 -3.07022 0
M  V30 765 O 65.6106 3.75857 -4.70123 0
M  V30 766 H 69.4366 1.0083 -2.86474 0
M  V30 767 H 67.0216 0.433547 -1.42971 0
M  V30 768 H 68.9036 3.42633 -2.45318 0
M  V30 769 H 67.5786 2.9364 -1.36225 0
M  V30 770 H 66.4856 1.709 -3.32782 0
M  V30 771 H 67.8186 2.26601 -4.36936 0
M  V30 772 N 69.4707 1.49531 0.497807 0
M  V30 773 C 70.7187 1.58865 1.24926 0
M  V30 774 C 71.0397 0.278721 1.92998 0
M  V30 775 O 70.3097 -0.702144 1.82885 0
M  V30 776 H 68.8897 0.585343 0.464094 0
M  V30 777 H 71.5517 1.86174 0.57666 0
M  V30 778 H 70.6477 2.38633 2.01149 0
M  V30 779 N 70.9488 -0.749086 1.3866 0
M  V30 780 C 71.9118 -1.84457 1.36045 0
M  V30 781 C 72.9118 -1.58682 0.260122 0
M  V30 782 O 74.1018 -1.66343 0.517261 0
M  V30 783 C 71.2338 -3.22008 1.11911 0
M  V30 784 H 72.4268 -1.88182 2.33512 0
M  V30 785 H 69.9798 -0.951266 1.24019 0
M  V30 786 H 70.7148 -3.2395 0.150686 0
M  V30 787 H 70.4998 -3.42111 1.91579 0
M  V30 788 H 71.9898 -4.0208 1.12788 0
M  V30 789 N 72.4269 -1.23603 -0.977757 0
M  V30 790 C 73.3899 -1.02069 -2.05218 0
M  V30 791 C 74.3899 0.0184305 -1.60789 0
M  V30 792 O 75.5799 -0.221569 -1.72785 0
M  V30 793 C 72.7119 -0.544926 -3.36517 0
M  V30 794 H 73.9049 -1.9742 -2.25755 0
M  V30 795 H 71.4579 -1.05684 -1.15155 0
M  V30 796 H 72.1929 0.412241 -3.21669 0
M  V30 797 H 71.9779 -1.2948 -3.70105 0
M  V30 798 H 73.4679 -0.414985 -4.15533 0
M  V30 799 N 73.905 1.17692 -1.04816 0
M  V30 800 C 75.133 1.91786 -0.776254 0
M  V30 801 C 75.548 1.76604 0.667577 0
M  V30 802 O 74.905 1.10067 1.45573 0
M  V30 803 C 74.956 3.42967 -1.14263 0
M  V30 804 O 74.677 3.57678 -2.52978 0
M  V30 805 C 76.178 4.34144 -0.896311 0
M  V30 806 H 73.398 0.608624 -0.282519 0
M  V30 807 H 75.942 1.49268 -1.39783 0
M  V30 808 H 74.097 3.83245 -0.565874 0
M  V30 809 H 74.511 4.51319 -2.67229 0
M  V30 810 H 75.985 5.38744 -1.20244 0
M  V30 811 H 76.462 4.38876 0.168636 0
M  V30 812 H 77.068 3.99574 -1.45672 0
M  V30 813 N 75.3831 0.828654 1.34056 0
M  V30 814 C 76.3161 0.199763 2.27324 0
M  V30 815 C 77.2941 -0.647168 1.49166 0
M  V30 816 O 78.4781 -0.609661 1.78369 0
M  V30 817 C 75.6051 -0.720455 3.30949 0
M  V30 818 C 74.6511 0.0496888 4.26471 0
M  V30 819 S 75.4841 1.40072 5.16856 0
M  V30 820 C 76.6401 0.485527 6.24014 0
M  V30 821 H 76.8731 0.990478 2.80316 0
M  V30 822 H 74.4061 0.624857 1.41191 0
M  V30 823 H 76.3641 -1.24581 3.91139 0
M  V30 824 H 75.0251 -1.48474 2.76793 0
M  V30 825 H 74.2181 -0.650104 4.9979 0
M  V30 826 H 73.8201 0.505779 3.70564 0
M  V30 827 H 76.1121 -0.320672 6.76741 0
M  V30 828 H 77.0551 1.18856 6.98054 0
M  V30 829 H 77.4631 0.0714109 5.64455 0
M  V30 830 N 76.8612 -1.46375 0.584142 0
M  V30 831 C 78.1382 -1.956 0.0033388 0
M  V30 832 C 78.5182 -1.52679 -1.45782 0
M  V30 833 O 77.8662 -0.77816 -2.14842 0
M  V30 834 C 78.0762 -3.48551 0.176891 0
M  V30 835 C 79.4242 -4.24576 0.0454609 0
M  V30 836 O 80.4482 -3.56043 0.105801 0
M  V30 837 O 79.3072 -5.46427 -0.0890376 0
M  V30 838 H 76.4012 -0.825547 -0.0490066 0
M  V30 839 H 78.9472 -1.56652 0.65256 0
M  V30 840 H 77.7192 -3.72683 1.1926 0
M  V30 841 H 77.3422 -3.94332 -0.508695 0
M  V30 842 N 78.3393 -0.321999 -1.54275 0
M  V30 843 C 79.5863 0.281044 -2.0054 0
M  V30 844 C 79.9143 1.52265 -1.21019 0
M  V30 845 O 79.1693 1.93687 -0.279982 0
M  V30 846 C 79.4683 0.661769 -3.5122 0
M  V30 847 C 79.1343 -0.480482 -4.48333 0
M  V30 848 C 77.7963 -0.794005 -4.74604 0
M  V30 849 C 80.1483 -1.24783 -5.06042 0
M  V30 850 C 77.4763 -1.87763 -5.55844 0
M  V30 851 C 79.8283 -2.32153 -5.88462 0
M  V30 852 C 78.4923 -2.64089 -6.13036 0
M  V30 853 H 77.7623 0.102841 -0.733829 0
M  V30 854 H 80.4093 -0.445453 -1.86247 0
M  V30 855 H 78.7143 1.46867 -3.63232 0
M  V30 856 H 80.4113 1.13989 -3.84457 0
M  V30 857 H 77.0013 -0.226039 -4.28004 0
M  V30 858 H 81.1853 -1.01887 -4.85729 0
M  V30 859 H 76.4413 -2.12954 -5.73115 0
M  V30 860 H 80.6153 -2.92057 -6.32199 0
M  V30 861 H 78.2423 -3.48185 -6.75775 0
M  V30 862 N 79.8174 1.5752 -0.0501392 0
M  V30 863 C 80.7504 2.07026 0.959962 0
M  V30 864 C 81.7284 0.970539 1.30458 0
M  V30 865 O 82.9124 1.2424 1.41763 0
M  V30 866 C 80.0394 2.5099 2.27424 0
M  V30 867 C 79.0854 3.72188 2.08275 0
M  V30 868 S 79.9184 5.17888 1.36207 0
M  V30 869 C 81.0744 5.65165 2.6896 0
M  V30 870 H 81.3074 2.9238 0.538631 0
M  V30 871 H 78.8404 1.53547 0.162099 0
M  V30 872 H 80.7984 2.76982 3.02971 0
M  V30 873 H 79.4594 1.65944 2.66686 0
M  V30 874 H 78.6524 4.00866 3.05487 0
M  V30 875 H 78.2544 3.46457 1.40868 0
M  V30 876 H 80.5464 5.70687 3.65133 0
M  V30 877 H 81.4894 6.64394 2.4492 0
M  V30 878 H 81.8974 4.9289 2.75172 0
M  V30 879 N 81.2955 -0.223234 1.56011 0
M  V30 880 C 82.2055 -1.29766 1.95443 0
M  V30 881 C 83.2215 -1.51373 0.858028 0
M  V30 882 O 84.3975 -1.64536 1.16146 0
M  V30 883 C 81.4625 -2.62772 2.26167 0
M  V30 884 C 80.5235 -2.49482 3.49367 0
M  V30 885 C 79.7565 -3.76145 3.78616 0
M  V30 886 O 79.9795 -4.79087 3.09568 0
M  V30 887 O 78.9135 -3.73358 4.72109 0
M  V30 888 H 82.7395 -0.99309 2.87004 0
M  V30 889 H 80.3245 -0.425958 1.43199 0
M  V30 890 H 82.2065 -3.41327 2.47131 0
M  V30 891 H 80.8815 -2.92913 1.37781 0
M  V30 892 H 79.7885 -1.69133 3.33684 0
M  V30 893 H 81.1215 -2.2428 4.38131 0
M  V30 894 N 82.7736 -1.49793 -0.48987 0
M  V30 895 C 83.7056 -1.63413 -1.60713 0
M  V30 896 C 84.7186 -0.516329 -1.54395 0
M  V30 897 O 85.9076 -0.788812 -1.60125 0
M  V30 898 C 83.0076 -1.58516 -2.99543 0
M  V30 899 C 82.1806 -2.86016 -3.30928 0
M  V30 900 C 81.2396 -2.74018 -4.49222 0
M  V30 901 O 80.2656 -3.47964 -4.50455 0
M  V30 902 N 81.4676 -1.86309 -5.4979 0
M  V30 903 H 84.2326 -2.59777 -1.49452 0
M  V30 904 H 81.7936 -1.47022 -0.677955 0
M  V30 905 H 83.7856 -1.48128 -3.76617 0
M  V30 906 H 82.3556 -0.69965 -3.0467 0
M  V30 907 H 81.5756 -3.10672 -2.42645 0
M  V30 908 H 82.8636 -3.70521 -3.487 0
M  V30 909 H 82.2616 -1.2551 -5.51601 0
M  V30 910 H 80.8186 -1.81837 -6.25922 0
M  V30 911 N 84.2517 0.741722 -1.39055 0
M  V30 912 C 85.1617 1.88621 -1.39496 0
M  V30 913 C 86.1777 1.71557 -0.290578 0
M  V30 914 O 87.3537 1.94275 -0.530954 0
M  V30 915 C 84.4187 3.24134 -1.23037 0
M  V30 916 C 83.4797 3.5364 -2.43387 0
M  V30 917 C 82.7127 4.82687 -2.27703 0
M  V30 918 O 82.9357 5.55922 -1.27696 0
M  V30 919 O 81.8697 5.1194 -3.16545 0
M  V30 920 H 85.6957 1.91203 -2.35956 0
M  V30 921 H 83.2807 0.888625 -1.20099 0
M  V30 922 H 85.1627 4.0513 -1.15964 0
M  V30 923 H 83.8377 3.22337 -0.296691 0
M  V30 924 H 82.7447 2.72758 -2.56035 0
M  V30 925 H 84.0777 3.60209 -3.35425 0
M  V30 926 N 85.7298 1.2412 0.971189 0
M  V30 927 C 87.1458 1.00584 1.23916 0
M  V30 928 C 87.3458 -0.287481 1.99439 0
M  V30 929 O 86.4018 -1.00454 2.31658 0
M  V30 930 C 87.7148 2.21864 2.0297 0
M  V30 931 C 89.2628 2.26452 2.16076 0
M  V30 932 C 89.7378 3.47343 2.98524 0
M  V30 933 N 91.2288 3.47639 3.06107 0
M  V30 934 C 91.9638 4.37837 3.70251 0
M  V30 935 N 91.4598 5.38286 4.36142 0
M  V30 936 N 93.2528 4.25558 3.67228 0
M  V30 937 H 85.4038 2.07236 0.465499 0
M  V30 938 H 87.6668 0.909236 0.268315 0
M  V30 939 H 87.3728 3.15771 1.54861 0
M  V30 940 H 87.2468 2.23698 3.03709 0
M  V30 941 H 89.6338 1.33078 2.6339 0
M  V30 942 H 89.7148 2.28645 1.14696 0
M  V30 943 H 89.3588 4.41029 2.51905 0
M  V30 944 H 89.2888 3.42393 4.00093 0
M  V30 945 H 91.7798 2.74966 2.59233 0
M  V30 946 H 92.0928 6.03352 4.82894 0
M  V30 947 H 90.4378 5.42176 4.34822 0
M  V30 948 H 93.6288 3.46322 3.14927 0
M  V30 949 H 93.8018 4.96054 4.16935 0
M  V30 950 N 87.2079 -1.17134 1.05439 0
M  V30 951 C 88.1179 -2.24878 0.668365 0
M  V30 952 C 89.1339 -1.71186 -0.311687 0
M  V30 953 O 90.3099 -2.00738 -0.163161 0
M  V30 954 C 87.3749 -3.46662 0.051648 0
M  V30 955 C 86.4359 -4.15429 1.08246 0
M  V30 956 C 85.6689 -5.31399 0.495082 0
M  V30 957 O 85.8919 -5.66153 -0.694743 0
M  V30 958 O 84.8259 -5.89187 1.23056 0
M  V30 959 H 88.6519 -2.60189 1.56637 0
M  V30 960 H 86.2369 -1.24482 0.826104 0
M  V30 961 H 88.1189 -4.20394 -0.290966 0
M  V30 962 H 86.7939 -3.13142 -0.819971 0
M  V30 963 H 85.7009 -3.43704 1.47711 0
M  V30 964 H 87.0339 -4.52982 1.92532 0
M  V30 965 N 88.686 -0.835752 -1.33615 0
M  V30 966 C 90.102 -0.523139 -1.50783 0
M  V30 967 C 90.302 0.950171 -1.77691 0
M  V30 968 O 89.358 1.73411 -1.83534 0
M  V30 969 C 90.671 -1.39378 -2.66448 0
M  V30 970 C 92.219 -1.39223 -2.80332 0
M  V30 971 C 92.694 -2.24765 -3.99055 0
M  V30 972 N 94.185 -2.22458 -4.06284 0
M  V30 973 C 94.92 -2.85386 -4.97336 0
M  V30 974 N 94.416 -3.57354 -5.93523 0
M  V30 975 N 96.209 -2.74872 -4.90308 0
M  V30 976 H 88.36 -1.78952 -1.14411 0
M  V30 977 H 90.623 -0.763297 -0.562212 0
M  V30 978 H 90.329 -2.44061 -2.53234 0
M  V30 979 H 90.203 -1.0676 -3.61776 0
M  V30 980 H 92.59 -0.353136 -2.92979 0
M  V30 981 H 92.671 -1.75846 -1.85773 0
M  V30 982 H 92.315 -3.28732 -3.87167 0
M  V30 983 H 92.245 -1.85485 -4.92852 0
M  V30 984 H 94.736 -1.70119 -3.37443 0
M  V30 985 H 95.049 -4.02584 -6.59656 0
M  V30 986 H 93.394 -3.61461 -5.93608 0
M  V30 987 H 96.585 -2.18213 -4.14126 0
M  V30 988 H 96.758 -3.24199 -5.61069 0
M  V30 989 N 90.1641 1.46063 -0.591896 0
M  V30 990 C 91.4121 2.01938 -0.0808391 0
M  V30 991 C 91.7331 1.46475 1.28725 0
M  V30 992 O 91.0031 0.652944 1.84698 0
M  V30 993 H 89.5831 0.746516 -0.0268938 0
M  V30 994 H 92.2451 1.79055 -0.769752 0
M  V30 995 H 91.3411 3.12094 -0.0187578 0
M  V30 996 N 91.6422 0.330177 1.54103 0
M  V30 997 C 92.8912 -0.271336 1.99867 0
M  V30 998 C 93.2042 -1.52723 1.22209 0
M  V30 999 O 94.4102 -2.20515 1.58383 0
M  V30 1000 C 92.8662 -0.534032 3.55916 0
M  V30 1001 C 92.4742 0.705193 4.42415 0
M  V30 1002 C 94.2182 -1.09514 4.1013 0
M  V30 1003 C 92.1252 0.414035 5.89949 0
M  V30 1004 H 91.0552 -0.105166 0.74663 0
M  V30 1005 H 93.7062 0.443429 1.78062 0
M  V30 1006 H 92.0882 -1.30915 3.73734 0
M  V30 1007 H 93.2622 1.4804 4.36372 0
M  V30 1008 H 91.5772 1.18698 3.99124 0
M  V30 1009 H 94.1742 -1.3277 5.17954 0
M  V30 1010 H 94.5172 -2.04656 3.62521 0
M  V30 1011 H 95.0502 -0.381038 3.95971 0
M  V30 1012 H 91.7892 1.33481 6.41766 0
M  V30 1013 H 91.3092 -0.323336 5.98928 0
M  V30 1014 H 92.9882 0.0263105 6.46995 0
M  V30 1015 N 93.1203 -1.57491 0.0584922 0
M  V30 1016 C 94.3483 -1.97296 -0.623037 0
M  V30 1017 C 94.7633 -0.936338 -1.63946 0
M  V30 1018 O 94.1203 0.0785981 -1.82331 0
M  V30 1019 C 94.1713 -3.37183 -1.30345 0
M  V30 1020 O 93.8923 -4.36872 -0.32773 0
M  V30 1021 C 95.3933 -3.91788 -2.07406 0
M  V30 1022 H 92.6133 -0.649153 -0.169826 0
M  V30 1023 H 95.1573 -2.04106 0.12696 0
M  V30 1024 H 93.3123 -3.31502 -2.00463 0
M  V30 1025 H 93.7263 -5.18141 -0.814269 0
M  V30 1026 H 95.2003 -4.91926 -2.50425 0
M  V30 1027 H 95.6773 -3.27609 -2.92521 0
M  V30 1028 H 96.2833 -4.00829 -1.42184 0
M  V30 1029 N 94.5984 0.214957 -1.56127 0
M  V30 1030 C 95.8474 0.936451 -1.78643 0
M  V30 1031 C 96.1604 1.85237 -0.628229 0
M  V30 1032 O 97.3664 2.613 -0.737186 0
M  V30 1033 C 95.8224 1.7154 -3.16389 0
M  V30 1034 C 95.4304 0.845299 -4.39953 0
M  V30 1035 C 97.1744 2.42772 -3.48227 0
M  V30 1036 C 95.0814 1.62198 -5.68723 0
M  V30 1037 H 94.0114 0.353401 -0.666051 0
M  V30 1038 H 96.6624 0.190169 -1.82512 0
M  V30 1039 H 95.0444 2.50484 -3.06715 0
M  V30 1040 H 96.2184 0.0959353 -4.607 0
M  V30 1041 H 94.5334 0.244789 -4.1568 0
M  V30 1042 H 97.1304 3.01394 -4.41663 0
M  V30 1043 H 97.4734 3.15984 -2.71035 0
M  V30 1044 H 98.0064 1.70813 -3.5926 0
M  V30 1045 H 94.7454 0.933011 -6.48826 0
M  V30 1046 H 94.2654 2.34579 -5.52026 0
M  V30 1047 H 95.9444 2.18095 -6.09133 0
M  V30 1048 N 96.0765 1.50051 0.48192 0
M  V30 1049 C 97.3045 1.64237 1.25832 0
M  V30 1050 C 97.7195 0.321336 1.86045 0
M  V30 1051 O 97.0765 -0.695478 1.68729 0
M  V30 1052 C 97.1275 2.72548 2.37487 0
M  V30 1053 O 96.8485 3.99529 1.79745 0
M  V30 1054 C 98.3495 2.9761 3.28547 0
M  V30 1055 H 95.5695 0.55237 0.380957 0
M  V30 1056 H 98.1135 1.96207 0.576467 0
M  V30 1057 H 96.2685 2.43303 3.01467 0
M  V30 1058 H 96.6825 4.59342 2.5319 0
M  V30 1059 H 98.1565 3.77084 4.03127 0
M  V30 1060 H 98.6335 2.0826 3.86684 0
M  V30 1061 H 99.2395 3.28345 2.70314 0
M  V30 1062 N 97.5546 -0.734337 1.39446 0
M  V30 1063 C 98.5176 -1.83004 1.37994 0
M  V30 1064 C 99.5176 -1.58397 0.276938 0
M  V30 1065 O 100.708 -1.65785 0.534875 0
M  V30 1066 C 97.8396 -3.20802 1.1532 0
M  V30 1067 H 99.0326 -1.85694 2.35494 0
M  V30 1068 H 96.5856 -0.938059 1.25021 0
M  V30 1069 H 97.3206 -3.23772 0.185036 0
M  V30 1070 H 97.1056 -3.4006 1.95197 0
M  V30 1071 H 98.5956 -4.00862 1.17046 0
M  V30 1072 N 99.0327 -1.24633 -0.964593 0
M  V30 1073 C 99.9957 -1.0424 -2.04124 0
M  V30 1074 C 100.996 0.00137563 -1.608 0
M  V30 1075 O 102.186 -0.239883 -1.7254 0
M  V30 1076 C 99.3177 -0.580588 -3.3592 0
M  V30 1077 H 100.511 -1.99803 -2.23649 0
M  V30 1078 H 98.0637 -1.06899 -1.14027 0
M  V30 1079 H 98.7987 0.3781 -3.22088 0
M  V30 1080 H 98.5837 -1.33398 -3.6871 0
M  V30 1081 H 100.074 -0.459034 -4.15069 0
M  V30 1082 N 100.511 1.16574 -1.06058 0
M  V30 1083 C 101.757 1.87324 -0.777022 0
M  V30 1084 C 102.09 1.81351 0.694645 0
M  V30 1085 O 101.365 1.22753 1.50871 0
M  V30 1086 C 101.648 3.36991 -1.26922 0
M  V30 1087 C 101.501 3.51667 -2.80447 0
M  V30 1088 C 102.82 4.3131 -0.87521 0
M  V30 1089 H 99.9388 0.680191 -0.28374 0
M  V30 1090 H 102.581 1.37036 -1.3161 0
M  V30 1091 H 100.731 3.79949 -0.81063 0
M  V30 1092 H 102.403 3.17664 -3.34495 0
M  V30 1093 H 100.646 2.93656 -3.19294 0
M  V30 1094 H 101.317 4.56766 -3.0995 0
M  V30 1095 H 103.793 3.9624 -1.27014 0
M  V30 1096 H 102.669 5.34545 -1.2471 0
M  V30 1097 H 102.93 4.41552 0.220071 0
M  V30 1098 N 101.989 0.842826 1.3317 0
M  V30 1099 C 103.217 0.454055 2.01856 0
M  V30 1100 C 103.632 -0.94587 1.63397 0
M  V30 1101 O 102.989 -1.61534 0.849302 0
M  V30 1102 C 103.04 0.569715 3.56982 0
M  V30 1103 O 102.761 1.91448 3.94055 0
M  V30 1104 C 104.262 0.178412 4.42941 0
M  V30 1105 H 101.482 0.17979 0.646465 0
M  V30 1106 H 104.026 1.1365 1.70012 0
M  V30 1107 H 102.181 -0.0648587 3.87346 0
M  V30 1108 H 102.595 1.90282 4.88767 0
M  V30 1109 H 104.069 0.310376 5.51127 0
M  V30 1110 H 104.546 -0.880056 4.30293 0
M  V30 1111 H 105.152 0.787579 4.17944 0
M  V30 1112 N 103.467 -1.45747 0.599634 0
M  V30 1113 C 104.695 -2.06668 0.0978551 0
M  V30 1114 C 105.11 -1.44562 -1.21439 0
M  V30 1115 O 104.467 -0.556923 -1.73795 0
M  V30 1116 C 104.518 -3.61456 -0.0567044 0
M  V30 1117 O 104.239 -4.21242 1.20361 0
M  V30 1118 C 105.74 -4.39345 -0.590869 0
M  V30 1119 H 102.96 -0.667825 0.0651943 0
M  V30 1120 H 105.504 -1.87115 0.82511 0
M  V30 1121 H 103.659 -3.80378 -0.734251 0
M  V30 1122 H 104.073 -5.14323 1.02821 0
M  V30 1123 H 105.547 -5.48182 -0.648131 0
M  V30 1124 H 106.024 -4.08568 -1.61147 0
M  V30 1125 H 106.63 -4.25268 0.0523679 0
M  V30 1126 N 104.945 -0.338344 -1.53925 0
M  V30 1127 C 106.185 0.260168 -2.02737 0
M  V30 1128 C 106.549 1.48181 -1.22092 0
M  V30 1129 O 107.75 2.15416 -1.60777 0
M  V30 1130 C 106.021 0.571627 -3.52799 0
M  V30 1131 S 107.58 1.14769 -4.23525 0
M  V30 1132 H 104.398 0.077791 -0.706732 0
M  V30 1133 H 107 -0.474899 -1.89644 0
M  V30 1134 H 105.704 -0.325392 -4.09108 0
M  V30 1135 H 105.235 1.3365 -3.70002 0
M  V30 1136 H 107.25 2.43372 -4.32417 0
M  V30 1137 N 106.423 1.57458 -0.0668435 0
M  V30 1138 C 107.67 1.93301 0.603406 0
M  V30 1139 C 107.998 0.946486 1.69917 0
M  V30 1140 O 107.253 -0.0387021 1.95662 0
M  V30 1141 C 107.552 3.35784 1.22409 0
M  V30 1142 C 107.218 4.50179 0.254955 0
M  V30 1143 C 105.88 4.81199 -0.0116746 0
M  V30 1144 C 108.232 5.19598 -0.408338 0
M  V30 1145 C 105.56 5.78978 -0.94877 0
M  V30 1146 C 107.912 6.18381 -1.33372 0
M  V30 1147 C 106.576 6.47821 -1.60887 0
M  V30 1148 H 105.846 0.707338 0.220802 0
M  V30 1149 H 108.493 1.91012 -0.136665 0
M  V30 1150 H 106.798 3.34515 2.03978 0
M  V30 1151 H 108.495 3.60804 1.74989 0
M  V30 1152 H 105.085 4.25983 0.472954 0
M  V30 1153 H 109.269 4.95832 -0.215456 0
M  V30 1154 H 104.525 6.00115 -1.16925 0
M  V30 1155 H 108.699 6.71277 -1.85367 0
M  V30 1156 H 106.326 7.23399 -2.33661 0
M  V30 1157 N 107.901 -0.206675 1.56239 0
M  V30 1158 C 109.147 -0.925733 1.81113 0
M  V30 1159 C 109.502 -1.81368 0.642135 0
M  V30 1160 O 108.795 -1.88126 -0.363211 0
M  V30 1161 C 108.989 -1.78675 3.09532 0
M  V30 1162 C 108.818 -0.98365 4.3881 0
M  V30 1163 C 107.588 -0.672661 5.00803 0
M  V30 1164 C 109.786 -0.341847 5.13163 0
M  V30 1165 N 107.768 0.150283 6.13716 0
M  V30 1166 C 109.139 0.343815 6.19046 0
M  V30 1167 C 111.194 -0.256392 4.97239 0
M  V30 1168 C 109.897 1.10678 7.10734 0
M  V30 1169 C 111.923 0.493142 5.8934 0
M  V30 1170 C 111.285 1.16729 6.94661 0
M  V30 1171 H 107.384 -0.318524 0.714189 0
M  V30 1172 H 109.968 -0.195378 1.93717 0
M  V30 1173 H 108.139 -2.4888 2.98183 0
M  V30 1174 H 109.871 -2.44441 3.22538 0
M  V30 1175 H 106.626 -0.994294 4.63045 0
M  V30 1176 H 107.05 0.551026 6.74754 0
M  V30 1177 H 111.692 -0.763249 4.15854 0
M  V30 1178 H 109.41 1.6251 7.91591 0
M  V30 1179 H 112.996 0.560465 5.79094 0
M  V30 1180 H 111.876 1.738 7.64698 0
M  V30 1181 N 109.379 -1.50304 -0.473955 0
M  V30 1182 C 110.326 -1.68959 -1.57231 0
M  V30 1183 C 111.296 -0.530899 -1.57387 0
M  V30 1184 O 112.481 -0.761133 -1.74961 0
M  V30 1185 C 109.621 -1.7871 -2.95223 0
M  V30 1186 C 108.734 -3.06061 -3.04878 0
M  V30 1187 C 107.869 -3.06626 -4.33767 0
M  V30 1188 C 106.908 -4.28443 -4.37154 0
M  V30 1189 N 106.045 -4.26763 -5.5751 0
M  V30 1190 H 110.885 -2.6273 -1.40631 0
M  V30 1191 H 108.422 -1.30241 -0.683789 0
M  V30 1192 H 110.38 -1.82344 -3.75242 0
M  V30 1193 H 109.01 -0.883806 -3.10465 0
M  V30 1194 H 108.062 -3.11911 -2.17751 0
M  V30 1195 H 109.374 -3.96039 -3.0324 0
M  V30 1196 H 108.528 -3.08973 -5.22131 0
M  V30 1197 H 107.267 -2.14473 -4.3801 0
M  V30 1198 H 106.272 -4.2631 -3.47188 0
M  V30 1199 H 107.497 -5.2182 -4.34605 0
M  V30 1200 H 105.443 -3.37462 -5.62544 0
M  V30 1201 H 105.36 -5.10507 -5.57601 0
M  V30 1202 H 106.628 -4.33253 -6.48006 0
M  V30 1203 N 110.857 0.726932 -1.39834 0
M  V30 1204 C 112.134 1.47902 -1.28001 0
M  V30 1205 C 112.514 2.1083 0.106789 0
M  V30 1206 O 111.862 1.99242 1.11869 0
M  V30 1207 C 112.072 2.52392 -2.41038 0
M  V30 1208 C 113.42 3.18546 -2.80737 0
M  V30 1209 O 114.444 2.62708 -2.40547 0
M  V30 1210 O 113.303 4.19604 -3.50135 0
M  V30 1211 H 110.397 0.657163 -0.502062 0
M  V30 1212 H 112.943 0.760071 -1.51727 0
M  V30 1213 H 111.715 2.04329 -3.33715 0
M  V30 1214 H 111.338 3.31837 -2.19021 0
M  V30 1215 N 112.336 1.25143 0.95797 0
M  V30 1216 C 113.286 1.01924 2.0395 0
M  V30 1217 C 114.27 -0.0427175 1.60843 0
M  V30 1218 O 115.462 0.17221 1.7616 0
M  V30 1219 C 112.591 0.636373 3.3735 0
M  V30 1220 C 111.677 1.73492 3.8699 0
M  V30 1221 N 112.068 2.96945 4.0946 0
M  V30 1222 C 110.366 1.61467 4.15746 0
M  V30 1223 C 111.067 3.68228 4.50315 0
M  V30 1224 N 110.043 2.95833 4.56053 0
M  V30 1225 H 113.845 1.95653 2.19311 0
M  V30 1226 H 111.359 1.15413 1.14253 0
M  V30 1227 H 113.356 0.451233 4.14451 0
M  V30 1228 H 112.016 -0.293621 3.2337 0
M  V30 1229 H 113.027 3.33025 3.96629 0
M  V30 1230 H 109.704 0.753394 4.10646 0
M  V30 1231 H 111.094 4.74178 4.76031 0
M  V30 1232 N 113.814 -1.1601 1.06675 0
M  V30 1233 C 115.23 -1.38622 0.790948 0
M  V30 1234 C 115.43 -1.92109 -0.607965 0
M  V30 1235 O 114.486 -2.12239 -1.36787 0
M  V30 1236 C 115.799 -2.36347 1.85905 0
M  V30 1237 C 117.347 -2.50023 1.88301 0
M  V30 1238 C 117.822 -3.51033 2.94176 0
M  V30 1239 N 119.313 -3.58563 2.93235 0
M  V30 1240 C 120.048 -4.36521 3.71803 0
M  V30 1241 N 119.544 -5.17869 4.602 0
M  V30 1242 N 121.337 -4.31541 3.60178 0
M  V30 1243 H 113.488 -0.796294 1.96908 0
M  V30 1244 H 115.751 -0.412597 0.853503 0
M  V30 1245 H 115.457 -2.04147 2.86386 0
M  V30 1246 H 115.331 -3.36042 1.71334 0
M  V30 1247 H 117.718 -2.81524 0.884769 0
M  V30 1248 H 117.799 -1.5035 2.06951 0
M  V30 1249 H 117.443 -3.20268 3.94196 0
M  V30 1250 H 117.373 -4.50445 2.72776 0
M  V30 1251 H 119.864 -3.00496 2.29152 0
M  V30 1252 H 120.177 -5.74578 5.16797 0
M  V30 1253 H 118.522 -5.17199 4.64253 0
M  V30 1254 H 121.713 -3.67051 2.90502 0
M  V30 1255 H 121.886 -4.9205 4.21653 0
M  V30 1256 N 115.292 -0.849877 -1.32721 0
M  V30 1257 C 116.541 -0.447175 -1.96681 0
M  V30 1258 C 116.854 1.00135 -1.68025 0
M  V30 1259 O 118.06 1.50926 -2.25685 0
M  V30 1260 C 116.516 -0.7487 -3.52026 0
M  V30 1261 C 116.124 -2.21264 -3.89546 0
M  V30 1262 C 117.868 -0.413487 -4.22481 0
M  V30 1263 C 115.775 -2.45763 -5.37917 0
M  V30 1264 H 114.705 -0.163486 -0.736063 0
M  V30 1265 H 117.356 -1.03999 -1.51183 0
M  V30 1266 H 115.738 -0.0853727 -3.95908 0
M  V30 1267 H 116.912 -2.91736 -3.56689 0
M  V30 1268 H 115.227 -2.5119 -3.32103 0
M  V30 1269 H 117.824 -0.574017 -5.3161 0
M  V30 1270 H 118.167 0.644492 -4.11281 0
M  V30 1271 H 118.7 -1.03251 -3.84167 0
M  V30 1272 H 115.439 -3.50168 -5.54132 0
M  V30 1273 H 114.959 -1.79864 -5.72197 0
M  V30 1274 H 116.638 -2.29471 -6.0494 0
M  V30 1275 N 116.77 1.45427 -0.607355 0
M  V30 1276 C 117.718 2.32269 0.12411 0
M  V30 1277 C 118.712 1.45955 0.859854 0
M  V30 1278 O 119.918 1.6244 0.775447 0
M  V30 1279 H 116.293 0.749691 0.0588839 0
M  V30 1280 H 118.264 2.91743 -0.626762 0
M  V30 1281 C 117.013 3.29567 1.1082 0
M  V30 1282 H 116.336 3.95978 0.551492 0
M  V30 1283 H 117.776 3.93061 1.58995 0
M  V30 1284 C 116.235 2.56722 2.18164 0
M  V30 1285 O 116.765 2.34842 3.25902 0
M  V30 1286 N 114.971 2.16861 1.93442 0
M  V30 1287 H 114.518 2.34855 1.05834 0
M  V30 1288 H 114.476 1.68444 2.65469 0
M  V30 1289 N 118.248 0.346503 1.53744 0
M  V30 1290 C 119.497 -0.250122 2.00143 0
M  V30 1291 C 119.81 -1.51418 1.23822 0
M  V30 1292 O 121.016 -2.18823 1.60713 0
M  V30 1293 C 119.472 -0.496252 3.56462 0
M  V30 1294 C 119.08 0.752077 4.41642 0
M  V30 1295 C 120.824 -1.05157 4.11269 0
M  V30 1296 C 118.731 0.476583 5.89477 0
M  V30 1297 H 117.661 -0.0972409 0.747703 0
M  V30 1298 H 120.312 0.46229 1.77581 0
M  V30 1299 H 118.694 -1.26944 3.75102 0
M  V30 1300 H 119.868 1.5266 4.34778 0
M  V30 1301 H 118.183 1.22925 3.97842 0
M  V30 1302 H 120.78 -1.27269 5.19333 0
M  V30 1303 H 121.123 -2.00799 3.64672 0
M  V30 1304 H 121.656 -0.339019 3.96353 0
M  V30 1305 H 118.395 1.4028 6.40314 0
M  V30 1306 H 117.915 -0.259794 5.99237 0
M  V30 1307 H 119.594 0.0949315 6.4693 0
M  V30 1308 N 119.726 -1.57421 0.075193 0
M  V30 1309 C 120.975 -1.92794 -0.592731 0
M  V30 1310 C 121.288 -0.957478 -1.70563 0
M  V30 1311 O 122.494 -1.20417 -2.43335 0
M  V30 1312 C 120.95 -3.42495 -1.10569 0
M  V30 1313 C 120.558 -4.47994 -0.0236121 0
M  V30 1314 C 122.302 -3.86864 -1.74748 0
M  V30 1315 C 120.209 -5.88829 -0.550803 0
M  V30 1316 H 119.139 -0.719591 -0.225177 0
M  V30 1317 H 121.79 -1.82902 0.147978 0
M  V30 1318 H 120.172 -3.47471 -1.89947 0
M  V30 1319 H 121.346 -4.54637 0.751099 0
M  V30 1320 H 119.661 -4.13113 0.522159 0
M  V30 1321 H 122.258 -4.8947 -2.15229 0
M  V30 1322 H 122.601 -3.24417 -2.60882 0
M  V30 1323 H 123.134 -3.84504 -1.01986 0
M  V30 1324 H 119.873 -6.54929 0.273457 0
M  V30 1325 H 119.393 -5.85698 -1.29296 0
M  V30 1326 H 121.072 -6.38811 -1.02613 0
M  V30 1327 N 121.204 0.198386 -1.56346 0
M  V30 1328 C 122.481 0.944982 -1.71258 0
M  V30 1329 C 122.861 2.0151 -0.629048 0
M  V30 1330 O 122.209 2.25639 0.360473 0
M  V30 1331 C 122.419 1.5344 -3.1346 0
M  V30 1332 C 123.767 2.01778 -3.73591 0
M  V30 1333 O 124.791 1.63288 -3.16568 0
M  V30 1334 O 123.65 2.72594 -4.73661 0
M  V30 1335 H 120.744 0.442939 -0.69838 0
M  V30 1336 H 123.29 0.188342 -1.68652 0
M  V30 1337 H 122.062 0.762869 -3.83792 0
M  V30 1338 H 121.685 2.35596 -3.20282 0
M  V30 1339 N 122.682 1.50554 0.465978 0
M  V30 1340 C 123.91 1.65563 1.24083 0
M  V30 1341 C 124.325 0.341051 1.85694 0
M  V30 1342 O 123.682 -0.677543 1.69457 0
M  V30 1343 C 123.733 2.75051 2.34583 0
M  V30 1344 O 123.454 4.01413 1.75497 0
M  V30 1345 C 124.955 3.01078 3.25372 0
M  V30 1346 H 122.175 0.55638 0.375077 0
M  V30 1347 H 124.719 1.96807 0.555624 0
M  V30 1348 H 122.874 2.46486 2.9887 0
M  V30 1349 H 123.288 4.62002 2.48303 0
M  V30 1350 H 124.762 3.81339 3.99105 0
M  V30 1351 H 125.239 2.12349 3.84453 0
M  V30 1352 H 125.845 3.31194 2.66816 0
M  V30 1353 N 124.16 -0.719506 1.40217 0
M  V30 1354 C 125.571 -1.29848 1.34151 0
M  V30 1355 C 125.922 -1.96196 0.0131349 0
M  V30 1356 O 125.047 -1.973 -0.88892 0
M  V30 1357 C 125.642 -2.36118 2.42968 0
M  V30 1358 C 124.201 -2.8965 2.40374 0
M  V30 1359 C 123.348 -1.63393 2.24049 0
M  V30 1360 H 126.299 -0.51591 1.5008 0
M  V30 1361 H 126.32 -3.16871 2.10649 0
M  V30 1362 H 125.832 -1.878 3.39636 0
M  V30 1363 H 123.933 -3.42208 1.47392 0
M  V30 1364 H 124.046 -3.4171 3.35814 0
M  V30 1365 H 122.41 -1.88312 1.71495 0
M  V30 1366 H 123.193 -1.17104 3.2271 0
M  V30 1367 N 125.638 -1.25649 -0.95132 0
M  V30 1368 C 126.886 -1.10375 -1.69298 0
M  V30 1369 C 127.207 0.355339 -1.91735 0
M  V30 1370 O 126.477 1.25188 -1.50681 0
M  V30 1371 H 125.057 -0.405461 -0.627384 0
M  V30 1372 H 127.719 -1.57823 -1.14358 0
M  V30 1373 H 126.815 -1.61465 -2.67087 0
M  V30 1374 N 127.117 1.15442 -1.07289 0
M  V30 1375 C 128.067 2.18164 -0.662467 0
M  V30 1376 C 129.051 1.57845 0.312074 0
M  V30 1377 O 130.243 1.76552 0.125905 0
M  V30 1378 C 127.372 3.43246 -0.0611295 0
M  V30 1379 C 126.458 4.1062 -1.06077 0
M  V30 1380 N 126.849 4.53491 -2.24008 0
M  V30 1381 C 125.147 4.36949 -0.893964 0
M  V30 1382 C 125.848 5.05731 -2.87422 0
M  V30 1383 N 124.824 4.99236 -2.15091 0
M  V30 1384 H 128.626 2.49038 -1.56068 0
M  V30 1385 H 126.14 1.32003 -0.945988 0
M  V30 1386 H 128.137 4.16145 0.250792 0
M  V30 1387 H 126.797 3.13854 0.832207 0
M  V30 1388 H 127.808 4.46898 -2.6173 0
M  V30 1389 H 124.485 4.17466 -0.0534693 0
M  V30 1390 H 125.875 5.48865 -3.87553 0
M  V30 1391 N 128.595 0.856903 1.32268 0
M  V30 1392 C 129.841 0.462069 1.97466 0
M  V30 1393 C 130.174 -0.980298 1.67642 0
M  V30 1394 O 129.449 -1.68824 0.965858 0
M  V30 1395 C 129.732 0.704336 3.53145 0
M  V30 1396 C 129.585 2.19529 3.9259 0
M  V30 1397 C 130.904 0.1622 4.39801 0
M  V30 1398 H 128.023 0.169357 0.717278 0
M  V30 1399 H 130.665 1.07574 1.56614 0
M  V30 1400 H 128.815 0.181999 3.88073 0
M  V30 1401 H 130.487 2.78387 3.67829 0
M  V30 1402 H 128.73 2.67292 3.41668 0
M  V30 1403 H 129.401 2.31549 5.01088 0
M  V30 1404 H 131.877 0.608905 4.11621 0
M  V30 1405 H 130.753 0.361265 5.4771 0
M  V30 1406 H 131.014 -0.935158 4.32096 0
M  V30 1407 N 130.073 -1.45103 0.615059 0
M  V30 1408 C 131.35 -1.95549 0.0448276 0
M  V30 1409 C 131.73 -1.55737 -1.4251 0
M  V30 1410 O 131.078 -0.823556 -2.13143 0
M  V30 1411 C 131.288 -3.48098 0.250785 0
M  V30 1412 C 132.636 -4.24384 0.135509 0
M  V30 1413 O 133.66 -3.55738 0.181299 0
M  V30 1414 O 132.519 -5.46493 0.0268878 0
M  V30 1415 H 129.613 -0.8264 -0.0314845 0
M  V30 1416 H 132.159 -1.55232 0.685642 0
M  V30 1417 H 130.931 -3.7007 1.27139 0
M  V30 1418 H 130.554 -3.95323 -0.424937 0
M  V30 1419 N 131.551 -0.354651 -1.53558 0
M  V30 1420 C 132.798 0.238443 -2.01091 0
M  V30 1421 C 133.126 1.49663 -1.24222 0
M  V30 1422 O 132.381 1.93049 -0.321003 0
M  V30 1423 C 132.68 0.587121 -3.52545 0
M  V30 1424 C 132.346 -0.575472 -4.47213 0
M  V30 1425 C 131.008 -0.894497 -4.72813 0
M  V30 1426 C 133.36 -1.35489 -5.03281 0
M  V30 1427 C 130.688 -1.99511 -5.51736 0
M  V30 1428 C 133.04 -2.44583 -5.83405 0
M  V30 1429 C 131.704 -2.77033 -6.07296 0
M  V30 1430 H 130.974 0.0872526 -0.735845 0
M  V30 1431 H 133.621 -0.484859 -1.8526 0
M  V30 1432 H 131.926 1.39129 -3.66265 0
M  V30 1433 H 133.623 1.05809 -3.86789 0
M  V30 1434 H 130.213 -0.316774 -4.27428 0
M  V30 1435 H 134.397 -1.12167 -4.83459 0
M  V30 1436 H 129.653 -2.25063 -5.68469 0
M  V30 1437 H 133.827 -3.05401 -6.25862 0
M  V30 1438 H 131.454 -3.6244 -6.68237 0
M  V30 1439 N 133.029 1.57378 -0.0835403 0
M  V30 1440 C 134.257 1.98263 0.59157 0
M  V30 1441 C 134.672 0.962302 1.62435 0
M  V30 1442 O 134.029 -0.049581 1.82433 0
M  V30 1443 C 134.08 3.39214 1.24965 0
M  V30 1444 O 133.801 4.37339 0.258186 0
M  V30 1445 C 135.302 3.95038 2.01147 0
M  V30 1446 H 132.522 0.651773 0.159477 0
M  V30 1447 H 135.066 2.03878 -0.159415 0
M  V30 1448 H 133.221 3.34649 1.95164 0
M  V30 1449 H 133.635 5.19371 0.731734 0
M  V30 1450 H 135.109 4.95848 2.42567 0
M  V30 1451 H 135.586 3.32222 2.87272 0
M  V30 1452 H 136.192 4.0304 1.35789 0
M  V30 1453 N 134.507 -0.190092 1.56449 0
M  V30 1454 C 135.756 -0.907912 1.80111 0
M  V30 1455 C 136.069 -1.84214 0.657619 0
M  V30 1456 O 137.275 -2.60094 0.778663 0
M  V30 1457 C 135.731 -1.66485 3.19078 0
M  V30 1458 C 135.339 -0.7752 4.41242 0
M  V30 1459 C 137.083 -2.37201 3.52045 0
M  V30 1460 C 134.99 -1.53129 5.71231 0
M  V30 1461 H 133.92 -0.34276 0.671589 0
M  V30 1462 H 136.571 -0.161109 1.82791 0
M  V30 1463 H 134.953 -2.45572 3.10661 0
M  V30 1464 H 136.127 -0.0226298 4.60794 0
M  V30 1465 H 134.442 -0.178627 4.16017 0
M  V30 1466 H 137.039 -2.94329 4.46402 0
M  V30 1467 H 137.382 -3.11632 2.76028 0
M  V30 1468 H 137.915 -1.65075 3.61932 0
M  V30 1469 H 134.654 -0.82967 6.50228 0
M  V30 1470 H 134.174 -2.25767 5.55688 0
M  V30 1471 H 135.853 -2.08377 6.12526 0
M  V30 1472 N 135.985 -1.50799 -0.457987 0
M  V30 1473 C 136.895 -1.73426 -1.57989 0
M  V30 1474 C 137.911 -0.617745 -1.62665 0
M  V30 1475 O 139.087 -0.897614 -1.80291 0
M  V30 1476 C 136.152 -1.83557 -2.94122 0
M  V30 1477 C 135.213 -3.07345 -2.99729 0
M  V30 1478 C 134.446 -3.16983 -4.29368 0
M  V30 1479 O 134.669 -2.33077 -5.20607 0
M  V30 1480 O 133.603 -4.09812 -4.40837 0
M  V30 1481 H 137.429 -2.68555 -1.41817 0
M  V30 1482 H 135.014 -1.35052 -0.638859 0
M  V30 1483 H 136.896 -1.92326 -3.74952 0
M  V30 1484 H 135.571 -0.916137 -3.10465 0
M  V30 1485 H 134.478 -3.04068 -2.1793 0
M  V30 1486 H 135.811 -3.9891 -2.88326 0
M  V30 1487 N 137.463 0.71206 -1.40597 0
M  V30 1488 C 138.709 1.47416 -1.39271 0
M  V30 1489 C 139.042 1.942 0.00388791 0
M  V30 1490 O 138.317 1.68403 0.973179 0
M  V30 1491 C 138.6 2.69774 -2.38525 0
M  V30 1492 C 138.453 2.28861 -3.87224 0
M  V30 1493 C 139.772 3.71939 -2.35264 0
M  V30 1494 H 136.891 0.534713 -0.5072 0
M  V30 1495 H 139.533 0.812375 -1.71757 0
M  V30 1496 H 137.683 3.26238 -2.10953 0
M  V30 1497 H 139.355 1.77852 -4.25636 0
M  V30 1498 H 137.598 1.60824 -4.02887 0
M  V30 1499 H 138.269 3.16584 -4.52193 0
M  V30 1500 H 140.745 3.25113 -2.59694 0
M  V30 1501 H 139.621 4.55186 -3.06753 0
M  V30 1502 H 139.882 4.20484 -1.36549 0
M  V30 1503 N 138.941 1.26152 0.944643 0
M  V30 1504 C 139.851 1.09176 2.07648 0
M  V30 1505 C 140.867 0.0261935 1.7398 0
M  V30 1506 O 142.043 0.229208 2.00091 0
M  V30 1507 C 139.108 0.722915 3.39079 0
M  V30 1508 C 138.169 1.86752 3.86552 0
M  V30 1509 C 137.402 1.51617 5.11711 0
M  V30 1510 O 137.625 0.416331 5.68879 0
M  V30 1511 O 136.559 2.34975 5.54139 0
M  V30 1512 H 140.385 2.0412 2.24875 0
M  V30 1513 H 137.97 1.05182 1.061 0
M  V30 1514 H 139.852 0.529787 4.18056 0
M  V30 1515 H 138.527 -0.197159 3.23099 0
M  V30 1516 H 137.434 2.11558 3.08535 0
M  V30 1517 H 138.767 2.76719 4.07047 0
M  V30 1518 N 140.419 -1.14872 1.07899 0
M  V30 1519 C 141.835 -1.37776 0.805606 0
M  V30 1520 C 142.035 -1.92743 -0.587555 0
M  V30 1521 O 141.091 -2.13678 -1.34528 0
M  V30 1522 C 142.404 -2.34361 1.88402 0
M  V30 1523 C 143.952 -2.48012 1.90942 0
M  V30 1524 C 144.427 -3.47893 2.97883 0
M  V30 1525 N 145.918 -3.55433 2.97021 0
M  V30 1526 C 146.653 -4.32553 3.76412 0
M  V30 1527 N 146.149 -5.12959 4.65666 0
M  V30 1528 N 147.942 -4.27697 3.64735 0
M  V30 1529 H 140.093 -0.775365 1.97742 0
M  V30 1530 H 142.356 -0.403521 0.857831 0
M  V30 1531 H 142.062 -2.01098 2.88535 0
M  V30 1532 H 141.936 -3.34206 1.74889 0
M  V30 1533 H 144.323 -2.8057 0.914579 0
M  V30 1534 H 144.404 -1.48147 2.08534 0
M  V30 1535 H 144.048 -3.16069 3.97571 0
M  V30 1536 H 143.978 -4.47527 2.77538 0
M  V30 1537 H 146.469 -2.98048 2.32326 0
M  V30 1538 H 146.782 -5.69065 5.22862 0
M  V30 1539 H 145.127 -5.12245 4.69712 0
M  V30 1540 H 148.318 -3.63949 2.94378 0
M  V30 1541 H 148.491 -4.8755 4.26848 0
M  V30 1542 N 141.898 -0.863906 -1.31812 0
M  V30 1543 C 143.123 -0.48527 -2.01643 0
M  V30 1544 C 143.548 0.913058 -1.64453 0
M  V30 1545 O 142.906 1.6014 -0.849985 0
M  V30 1546 C 142.954 -0.642625 -3.54828 0
M  V30 1547 O 142.058 0.320659 -4.11151 0
M  V30 1548 H 141.399 -0.193793 -0.635091 0
M  V30 1549 H 143.929 -1.16565 -1.68148 0
M  V30 1550 H 143.939 -0.533628 -4.04495 0
M  V30 1551 H 142.614 -1.66227 -3.81237 0
M  V30 1552 H 141.191 0.167126 -3.72525 0
M  V30 1553 N 143.376 1.44774 -0.622745 0
M  V30 1554 C 144.309 2.27792 0.136329 0
M  V30 1555 C 145.287 1.38041 0.859264 0
M  V30 1556 O 146.471 1.67478 0.86506 0
M  V30 1557 C 143.598 3.16776 1.19878 0
M  V30 1558 C 142.644 4.22575 0.57731 0
M  V30 1559 S 143.477 5.31825 -0.626294 0
M  V30 1560 C 144.633 6.24377 0.436378 0
M  V30 1561 H 144.866 2.91824 -0.567967 0
M  V30 1562 H 142.399 1.48838 -0.410677 0
M  V30 1563 H 144.357 3.68596 1.80686 0
M  V30 1564 H 143.018 2.5198 1.87523 0
M  V30 1565 H 142.211 4.84818 1.37721 0
M  V30 1566 H 141.813 3.73974 0.0440439 0
M  V30 1567 H 144.105 6.64689 1.31128 0
M  V30 1568 H 145.048 7.07941 -0.150271 0
M  V30 1569 H 145.456 5.59381 0.758513 0
M  V30 1570 N 144.854 0.36279 1.53368 0
M  V30 1571 C 146.27 0.0116182 1.59596 0
M  V30 1572 C 146.47 -1.47012 1.37803 0
M  V30 1573 O 145.526 -2.23136 1.18181 0
M  V30 1574 C 146.839 0.465052 2.97082 0
M  V30 1575 C 148.387 0.419033 3.10182 0
M  V30 1576 C 148.862 0.848235 4.50077 0
M  V30 1577 N 150.353 0.803183 4.56183 0
M  V30 1578 C 151.088 1.107 5.62613 0
M  V30 1579 N 150.584 1.47996 6.76808 0
M  V30 1580 N 152.377 1.02998 5.52583 0
M  V30 1581 H 144.528 1.32775 1.65785 0
M  V30 1582 H 146.791 0.542518 0.777417 0
M  V30 1583 H 146.497 1.49892 3.18159 0
M  V30 1584 H 146.371 -0.149786 3.76902 0
M  V30 1585 H 148.758 -0.605696 2.88817 0
M  V30 1586 H 148.839 1.06933 2.32377 0
M  V30 1587 H 148.483 1.87107 4.7218 0
M  V30 1588 H 148.413 0.175218 5.26308 0
M  V30 1589 H 150.904 0.52838 3.74188 0
M  V30 1590 H 151.217 1.69613 7.53957 0
M  V30 1591 H 149.562 1.51859 6.78206 0
M  V30 1592 H 152.753 0.737817 4.62249 0
M  V30 1593 H 152.926 1.2701 6.35431 0
M  V30 1594 N 146.332 -1.57332 0.0918853 0
M  V30 1595 C 147.578 -1.94524 -0.573425 0
M  V30 1596 C 147.911 -0.973578 -1.68033 0
M  V30 1597 O 147.186 -0.00609226 -1.94499 0
M  V30 1598 C 147.469 -3.41858 -1.13161 0
M  V30 1599 C 147.322 -4.4979 -0.0299747 0
M  V30 1600 C 148.641 -3.90435 -2.03098 0
M  V30 1601 H 145.76 -0.70734 -0.206975 0
M  V30 1602 H 148.402 -1.89309 0.161942 0
M  V30 1603 H 146.552 -3.46433 -1.7583 0
M  V30 1604 H 148.224 -4.57327 0.604112 0
M  V30 1605 H 146.467 -4.291 0.636833 0
M  V30 1606 H 147.138 -5.50069 -0.461287 0
M  V30 1607 H 149.614 -3.87992 -1.50338 0
M  V30 1608 H 148.49 -4.94097 -2.39081 0
M  V30 1609 H 148.751 -3.29541 -2.94712 0
M  V30 1610 N 147.81 0.181792 -1.56548 0
M  V30 1611 C 148.74 1.22765 -1.98623 0
M  V30 1612 C 149.721 1.46747 -0.860189 0
M  V30 1613 O 150.906 1.58259 -1.12551 0
M  V30 1614 C 148.036 2.56894 -2.33715 0
M  V30 1615 C 146.99 2.475 -3.49182 0
M  V30 1616 C 146.316 3.86023 -3.69986 0
M  V30 1617 C 147.616 1.98866 -4.82959 0
M  V30 1618 H 149.31 0.877942 -2.86239 0
M  V30 1619 H 146.856 0.42088 -1.37712 0
M  V30 1620 H 148.809 3.30253 -2.61746 0
M  V30 1621 H 147.533 2.93632 -1.42997 0
M  V30 1622 H 146.192 1.76596 -3.21262 0
M  V30 1623 H 145.84 4.20136 -2.76576 0
M  V30 1624 H 145.54 3.80609 -4.47672 0
M  V30 1625 H 147.064 4.60984 -4.00407 0
M  V30 1626 H 148.478 2.61992 -5.09934 0
M  V30 1627 H 146.875 2.04424 -5.64208 0
M  V30 1628 H 147.945 0.942465 -4.75653 0
M  V30 1629 N 149.288 1.51039 0.449983 0
M  V30 1630 C 150.565 1.53612 1.21089 0
M  V30 1631 C 150.945 0.292997 2.09057 0
M  V30 1632 O 150.293 -0.72259 2.16774 0
M  V30 1633 C 150.503 2.84337 2.0237 0
M  V30 1634 C 151.851 3.35807 2.59843 0
M  V30 1635 O 152.875 2.85802 2.12593 0
M  V30 1636 O 151.734 4.23029 3.45989 0
M  V30 1637 H 148.828 0.617057 0.550608 0
M  V30 1638 H 151.374 1.63344 0.460082 0
M  V30 1639 H 150.146 3.66278 1.37681 0
M  V30 1640 H 149.769 2.77708 2.84542 0
M  V30 1641 N 150.766 -0.704594 1.40972 0
M  V30 1642 C 152.014 -1.46169 1.39568 0
M  V30 1643 C 152.335 -1.95 0.00253745 0
M  V30 1644 O 151.605 -1.71095 -0.954114 0
M  V30 1645 H 150.185 -0.542326 0.513704 0
M  V30 1646 H 152.847 -0.834553 1.76128 0
M  V30 1647 H 151.943 -2.32922 2.07735 0
M  V30 1648 N 152.244 -1.26651 -0.937939 0
M  V30 1649 C 153.207 -1.08546 -2.01867 0
M  V30 1650 C 154.207 -0.0327327 -1.60767 0
M  V30 1651 O 155.397 -0.276427 -1.71993 0
M  V30 1652 C 152.529 -0.651711 -3.34613 0
M  V30 1653 H 153.722 -2.04502 -2.1936 0
M  V30 1654 H 151.275 -1.09294 -1.11734 0
M  V30 1655 H 152.01 0.309696 -3.22818 0
M  V30 1656 H 151.795 -1.41189 -3.65798 0
M  V30 1657 H 153.285 -0.546973 -4.14002 0
M  V30 1658 N 153.722 1.14298 -1.08507 0
M  V30 1659 C 154.971 1.84708 -0.810305 0
M  V30 1660 C 155.284 1.83903 0.666271 0
M  V30 1661 O 156.49 2.50112 1.05624 0
M  V30 1662 C 154.946 3.31572 -1.39957 0
M  V30 1663 C 154.554 3.40791 -2.90801 0
M  V30 1664 C 156.298 4.07087 -1.20334 0
M  V30 1665 C 154.205 4.81872 -3.4286 0
M  V30 1666 H 153.135 0.691985 -0.299454 0
M  V30 1667 H 155.786 1.28841 -1.30661 0
M  V30 1668 H 154.168 3.87183 -0.830976 0
M  V30 1669 H 155.342 2.95225 -3.53806 0
M  V30 1670 H 153.657 2.78732 -3.0935 0
M  V30 1671 H 156.254 5.11225 -1.56693 0
M  V30 1672 H 156.597 4.16054 -0.143237 0
M  V30 1673 H 157.13 3.57779 -1.73893 0
M  V30 1674 H 153.869 4.78094 -4.48449 0
M  V30 1675 H 153.389 5.27972 -2.84615 0
M  V30 1676 H 155.068 5.50765 -3.39509 0
M  V30 1677 N 155.201 0.870884 1.31352 0
M  V30 1678 C 156.447 0.482987 1.96965 0
M  V30 1679 C 156.78 -0.962462 1.68672 0
M  V30 1680 O 156.055 -1.6779 0.98371 0
M  V30 1681 C 156.338 0.741752 3.52378 0
M  V30 1682 C 156.191 2.2368 3.9024 0
M  V30 1683 C 157.51 0.208838 4.39604 0
M  V30 1684 H 154.629 0.176955 0.715441 0
M  V30 1685 H 157.271 1.09229 1.55464 0
M  V30 1686 H 155.421 0.223149 3.87859 0
M  V30 1687 H 157.093 2.82273 3.64856 0
M  V30 1688 H 155.336 2.70901 3.38814 0
M  V30 1689 H 156.007 2.3685 4.98604 0
M  V30 1690 H 158.483 0.652529 4.10952 0
M  V30 1691 H 157.359 0.419336 5.47296 0
M  V30 1692 H 157.62 -0.889275 4.33064 0
M  V30 1693 N 156.679 -1.44442 0.630414 0
M  V30 1694 C 157.925 -2.02351 0.134816 0
M  V30 1695 C 158.258 -1.4947 -1.23986 0
M  V30 1696 O 157.533 -0.678475 -1.82283 0
M  V30 1697 C 157.816 -3.59898 0.120707 0
M  V30 1698 C 157.669 -4.23063 1.52767 0
M  V30 1699 C 158.988 -4.36585 -0.555127 0
M  V30 1700 H 156.107 -0.73527 0.0504646 0
M  V30 1701 H 158.749 -1.72022 0.806751 0
M  V30 1702 H 156.899 -3.85868 -0.451477 0
M  V30 1703 H 158.571 -4.08202 2.14869 0
M  V30 1704 H 156.814 -3.80586 2.08175 0
M  V30 1705 H 157.485 -5.32071 1.46984 0
M  V30 1706 H 159.961 -4.16044 -0.0685429 0
M  V30 1707 H 158.837 -5.46294 -0.534185 0
M  V30 1708 H 159.098 -4.11138 -1.62535 0
M  V30 1709 N 158.157 -0.370918 -1.53173 0
M  V30 1710 C 159.404 0.217102 -2.01333 0
M  V30 1711 C 159.732 1.48338 -1.25802 0
M  V30 1712 O 158.987 1.92698 -0.34146 0
M  V30 1713 C 159.286 0.549696 -3.53147 0
M  V30 1714 C 158.952 -0.622872 -4.46577 0
M  V30 1715 C 157.614 -0.944595 -4.71838 0
M  V30 1716 C 159.966 -1.40819 -5.01816 0
M  V30 1717 C 157.294 -2.05351 -5.49589 0
M  V30 1718 C 159.646 -2.50757 -5.80778 0
M  V30 1719 C 158.31 -2.83458 -6.04324 0
M  V30 1720 H 157.58 0.0794431 -0.736729 0
M  V30 1721 H 160.227 -0.504481 -1.84736 0
M  V30 1722 H 158.532 1.35237 -3.6772 0
M  V30 1723 H 160.229 1.017 -3.87889 0
M  V30 1724 H 156.819 -0.36209 -4.27068 0
M  V30 1725 H 161.003 -1.17289 -4.82242 0
M  V30 1726 H 156.259 -2.3108 -5.6605 0
M  V30 1727 H 160.433 -3.12022 -6.22588 0
M  V30 1728 H 158.06 -3.69508 -6.64355 0
M  V30 1729 N 159.635 1.57281 -0.100228 0
M  V30 1730 C 160.912 1.86014 0.604812 0
M  V30 1731 C 161.292 0.998025 1.86018 0
M  V30 1732 O 160.64 0.0718184 2.28387 0
M  V30 1733 C 160.85 3.36784 0.915278 0
M  V30 1734 C 162.198 4.04957 1.27651 0
M  V30 1735 O 163.222 3.41695 1.00613 0
M  V30 1736 O 162.081 5.16593 1.7831 0
M  V30 1737 H 159.175 0.76942 0.303185 0
M  V30 1738 H 161.721 1.69176 -0.133313 0
M  V30 1739 H 160.493 3.91292 0.0248896 0
M  V30 1740 H 160.116 3.58987 1.70921 0
M  V30 1741 N 161.113 -0.173488 1.56642 0
M  V30 1742 C 162.338 -0.910149 1.86363 0
M  V30 1743 C 162.763 -1.75132 0.686318 0
M  V30 1744 O 162.121 -1.77595 -0.364643 0
M  V30 1745 C 162.169 -1.76447 3.14482 0
M  V30 1746 O 161.273 -2.86584 2.96553 0
M  V30 1747 H 160.614 -0.255086 0.613047 0
M  V30 1748 H 163.144 -0.172283 2.03873 0
M  V30 1749 H 163.154 -2.16483 3.45831 0
M  V30 1750 H 161.829 -1.14658 3.99783 0
M  V30 1751 H 160.406 -2.50146 2.76553 0
M  V30 1752 N 162.591 -1.51276 -0.441967 0
M  V30 1753 C 163.816 -1.67799 -1.21895 0
M  V30 1754 C 164.241 -0.372864 -1.84367 0
M  V30 1755 O 163.599 0.666501 -1.68604 0
M  V30 1756 C 163.647 -2.79199 -2.28211 0
M  V30 1757 O 162.751 -2.42479 -3.33583 0
M  V30 1758 H 162.092 -0.559649 -0.357336 0
M  V30 1759 H 164.622 -1.97815 -0.522522 0
M  V30 1760 H 164.632 -3.03146 -2.73069 0
M  V30 1761 H 163.307 -3.73906 -1.82118 0
M  V30 1762 H 161.884 -2.29087 -2.94234 0
M  V30 1763 N 164.069 0.697108 -1.41344 0
M  V30 1764 C 165.001 1.8224 -1.39001 0
M  V30 1765 C 166.014 1.60152 -0.292428 0
M  V30 1766 O 167.203 1.69684 -0.554048 0
M  V30 1767 C 164.303 3.18976 -1.14489 0
M  V30 1768 C 163.476 3.68105 -2.36258 0
M  V30 1769 C 162.535 4.83506 -2.07625 0
M  V30 1770 O 161.561 4.95201 -2.8065 0
M  V30 1771 N 162.763 5.70637 -1.06555 0
M  V30 1772 H 165.528 1.84742 -2.35988 0
M  V30 1773 H 163.089 0.87937 -1.35936 0
M  V30 1774 H 165.081 3.93801 -0.932885 0
M  V30 1775 H 163.651 3.11508 -0.261043 0
M  V30 1776 H 162.871 2.84204 -2.7317 0
M  V30 1777 H 164.159 3.97667 -3.17393 0
M  V30 1778 H 163.557 5.63817 -0.461125 0
M  V30 1779 H 162.114 6.45368 -0.913444 0
M  V30 1780 N 165.547 1.27147 0.931209 0
M  V30 1781 C 166.795 1.13055 1.6752 0
M  V30 1782 C 167.116 -0.324791 1.92276 0
M  V30 1783 O 166.386 -1.22775 1.52654 0
M  V30 1784 H 164.966 0.415391 0.620854 0
M  V30 1785 H 167.628 1.59623 1.11833 0
M  V30 1786 H 166.724 1.65694 2.64485 0
M  V30 1787 N 167.025 -1.13721 1.09112 0
M  V30 1788 C 168.271 -1.85198 0.826414 0
M  V30 1789 C 168.604 -1.83129 -0.646319 0
M  V30 1790 O 167.879 -1.2671 -1.47563 0
M  V30 1791 C 168.162 -3.33507 1.35812 0
M  V30 1792 C 168.015 -3.44108 2.89672 0
M  V30 1793 C 169.334 -4.28838 0.989256 0
M  V30 1794 H 166.453 -0.67243 0.301675 0
M  V30 1795 H 169.095 -1.33499 1.35197 0
M  V30 1796 H 167.245 -3.77666 0.911082 0
M  V30 1797 H 168.917 -3.08684 3.428 0
M  V30 1798 H 167.16 -2.85087 3.26967 0
M  V30 1799 H 167.831 -4.48388 3.21951 0
M  V30 1800 H 170.307 -3.92734 1.37475 0
M  V30 1801 H 169.183 -5.31051 1.38838 0
M  V30 1802 H 169.444 -4.4198 -0.102924 0
M  V30 1803 N 168.503 -0.877838 -1.30888 0
M  V30 1804 C 169.413 -0.343096 -2.32078 0
M  V30 1805 C 170.429 0.551022 -1.65045 0
M  V30 1806 O 171.605 0.445854 -1.96403 0
M  V30 1807 C 168.67 0.439905 -3.43898 0
M  V30 1808 C 167.731 -0.483111 -4.26573 0
M  V30 1809 C 166.964 0.262616 -5.33053 0
M  V30 1810 O 167.187 1.48967 -5.50604 0
M  V30 1811 O 166.121 -0.383593 -6.00676 0
M  V30 1812 H 169.947 -1.18203 -2.79753 0
M  V30 1813 H 167.532 -0.64145 -1.34929 0
M  V30 1814 H 169.414 0.883504 -4.12034 0
M  V30 1815 H 168.089 1.25526 -2.98371 0
M  V30 1816 H 166.996 -0.975374 -3.61161 0
M  V30 1817 H 168.329 -1.26427 -4.75686 0
M  V30 1818 N 169.982 1.44106 -0.638065 0
M  V30 1819 C 171.393 1.85316 -0.226894 0
M  V30 1820 C 171.744 1.53399 1.22324 0
M  V30 1821 O 170.869 0.975463 1.93167 0
M  V30 1822 C 171.464 3.3637 -0.405013 0
M  V30 1823 C 170.023 3.76369 -0.0482902 0
M  V30 1824 C 169.17 2.67921 -0.715108 0
M  V30 1825 H 172.121 1.34474 -0.842764 0
M  V30 1826 H 172.142 3.7885 0.354 0
M  V30 1827 H 171.654 3.59569 -1.46053 0
M  V30 1828 H 169.755 3.58784 1.00522 0
M  V30 1829 H 169.868 4.76856 -0.463187 0
M  V30 1830 H 168.232 2.54259 -0.149753 0
M  V30 1831 H 169.015 2.93951 -1.77335 0
M  V30 1832 N 171.46 0.379036 1.52974 0
M  V30 1833 C 172.392 -0.495963 2.2377 0
M  V30 1834 C 173.405 -1.03517 1.25651 0
M  V30 1835 O 174.594 -0.939249 1.51791 0
M  V30 1836 C 171.694 -1.69894 2.93239 0
M  V30 1837 C 170.867 -1.2889 4.17979 0
M  V30 1838 C 169.926 -2.35543 4.70538 0
M  V30 1839 O 168.952 -1.97375 5.33883 0
M  V30 1840 N 170.154 -3.67318 4.49508 0
M  V30 1841 H 172.919 0.110523 2.99496 0
M  V30 1842 H 170.48 0.204878 1.60598 0
M  V30 1843 H 172.472 -2.40747 3.25304 0
M  V30 1844 H 171.042 -2.212 2.20883 0
M  V30 1845 H 170.262 -0.409676 3.92065 0
M  V30 1846 H 171.55 -0.991443 4.99047 0
M  V30 1847 H 170.948 -4.01095 3.98923 0
M  V30 1848 H 169.505 -4.34235 4.8609 0
M  V30 1849 N 172.938 -1.57226 0.108567 0
M  V30 1850 C 174.163 -1.99604 -0.563303 0
M  V30 1851 C 174.588 -0.987563 -1.6009 0
M  V30 1852 O 173.946 0.0421687 -1.81251 0
M  V30 1853 C 173.994 -3.40902 -1.17552 0
M  V30 1854 O 173.098 -3.42896 -2.2912 0
M  V30 1855 H 172.439 -0.648704 -0.1417 0
M  V30 1856 H 174.969 -2.03679 0.193961 0
M  V30 1857 H 174.979 -3.78886 -1.51357 0
M  V30 1858 H 173.654 -4.1382 -0.415445 0
M  V30 1859 H 172.231 -3.1672 -1.96832 0
M  V30 1860 N 174.416 0.165178 -1.56732 0
M  V30 1861 C 175.326 1.22423 -2.00125 0
M  V30 1862 C 176.342 1.48084 -0.913619 0
M  V30 1863 O 177.518 1.60112 -1.22172 0
M  V30 1864 C 174.583 2.54197 -2.35764 0
M  V30 1865 C 173.644 2.36343 -3.58386 0
M  V30 1866 C 172.877 3.61834 -3.92316 0
M  V30 1867 O 173.1 4.67267 -3.27135 0
M  V30 1868 O 172.034 3.55579 -4.85641 0
M  V30 1869 H 175.86 0.885886 -2.90492 0
M  V30 1870 H 173.445 0.372518 -1.44681 0
M  V30 1871 H 175.327 3.3192 -2.59629 0
M  V30 1872 H 174.002 2.87598 -1.48557 0
M  V30 1873 H 172.909 1.56632 -3.39731 0
M  V30 1874 H 174.242 2.07865 -4.46154 0
M  V30 1875 N 175.894 1.51508 0.433938 0
M  V30 1876 C 177.122 1.68157 1.20543 0
M  V30 1877 C 177.537 0.380362 1.84929 0
M  V30 1878 O 176.894 -0.641446 1.70856 0
M  V30 1879 C 176.945 2.79965 2.28696 0
M  V30 1880 O 176.666 4.05045 1.66943 0
M  V30 1881 C 178.167 3.07912 3.18912 0
M  V30 1882 H 175.387 0.56421 0.363191 0
M  V30 1883 H 177.931 1.97941 0.513754 0
M  V30 1884 H 176.086 2.5277 2.93574 0
M  V30 1885 H 176.5 4.67165 2.38448 0
M  V30 1886 H 177.974 3.89719 3.90926 0
M  V30 1887 H 178.451 2.20456 3.79863 0
M  V30 1888 H 179.057 3.36779 2.59731 0
M  V30 1889 N 177.372 -0.689602 1.41712 0
M  V30 1890 C 178.618 -1.45181 1.41599 0
M  V30 1891 C 178.951 -1.94181 0.0270081 0
M  V30 1892 O 178.226 -1.6993 -0.946265 0
M  V30 1893 C 178.509 -2.65945 2.42787 0
M  V30 1894 C 178.362 -2.22672 3.90816 0
M  V30 1895 C 179.681 -3.68149 2.41151 0
M  V30 1896 H 176.8 -0.526576 0.515642 0
M  V30 1897 H 179.442 -0.784947 1.73028 0
M  V30 1898 H 177.592 -3.2284 2.16116 0
M  V30 1899 H 179.264 -1.71058 4.28412 0
M  V30 1900 H 177.507 -1.54394 4.05395 0
M  V30 1901 H 178.178 -3.0935 4.57172 0
M  V30 1902 H 180.654 -3.2094 2.64834 0
M  V30 1903 H 179.53 -4.50248 3.13955 0
M  V30 1904 H 179.791 -4.18259 1.43221 0
M  V30 1905 N 178.85 -1.27639 -0.924453 0
M  V30 1906 C 180.096 -1.15345 -1.67532 0
M  V30 1907 C 180.451 0.297096 -1.90092 0
M  V30 1908 O 179.744 1.21374 -1.48253 0
M  V30 1909 C 179.938 -1.87407 -3.04325 0
M  V30 1910 C 179.767 -3.3932 -2.95114 0
M  V30 1911 C 178.537 -4.08644 -2.97218 0
M  V30 1912 C 180.735 -4.35242 -2.73987 0
M  V30 1913 N 178.717 -5.47102 -2.78482 0
M  V30 1914 C 180.088 -5.6099 -2.63988 0
M  V30 1915 C 182.143 -4.25294 -2.589 0
M  V30 1916 C 180.846 -6.77924 -2.40442 0
M  V30 1917 C 182.872 -5.41952 -2.36731 0
M  V30 1918 C 182.234 -6.66658 -2.27478 0
M  V30 1919 H 178.333 -0.47696 -0.619704 0
M  V30 1920 H 180.917 -1.6115 -1.09265 0
M  V30 1921 H 179.088 -1.44053 -3.60699 0
M  V30 1922 H 180.82 -1.6759 -3.68369 0
M  V30 1923 H 177.575 -3.60136 -3.07569 0
M  V30 1924 H 177.999 -6.19852 -2.72236 0
M  V30 1925 H 182.641 -3.29598 -2.64811 0
M  V30 1926 H 180.359 -7.73699 -2.3327 0
M  V30 1927 H 183.945 -5.36137 -2.25938 0
M  V30 1928 H 182.825 -7.55405 -2.10555 0
M  V30 1929 N 180.328 1.1314 -1.09713 0
M  V30 1930 C 181.744 1.36477 -0.827423 0
M  V30 1931 C 181.944 1.93654 0.556817 0
M  V30 1932 O 181 2.15791 1.31112 0
M  V30 1933 C 182.313 2.31334 -1.92106 0
M  V30 1934 C 183.861 2.44943 -1.94864 0
M  V30 1935 C 184.336 3.4311 -3.0338 0
M  V30 1936 N 185.827 3.50662 -3.02639 0
M  V30 1937 C 186.562 4.2651 -3.83246 0
M  V30 1938 N 186.058 5.05485 -4.73768 0
M  V30 1939 N 187.851 4.2184 -3.71493 0
M  V30 1940 H 180.002 0.743807 -1.9895 0
M  V30 1941 H 182.265 0.389823 -0.864143 0
M  V30 1942 H 181.971 1.96483 -2.91698 0
M  V30 1943 H 181.845 3.31381 -1.80184 0
M  V30 1944 H 184.232 2.79079 -0.959099 0
M  V30 1945 H 184.313 1.4481 -2.10864 0
M  V30 1946 H 183.957 3.09704 -4.02549 0
M  V30 1947 H 183.887 4.43055 -2.84622 0
M  V30 1948 H 186.378 2.94315 -2.37039 0
M  V30 1949 H 186.691 5.60675 -5.3185 0
M  V30 1950 H 185.036 5.04708 -4.77802 0
M  V30 1951 H 188.227 3.5922 -3.00131 0
M  V30 1952 H 188.4 4.80697 -4.3455 0
M  V30 1953 N 181.806 0.884767 1.30421 0
M  V30 1954 C 182.738 0.308655 2.27112 0
M  V30 1955 C 183.751 -0.536655 1.53701 0
M  V30 1956 O 184.94 -0.35624 1.74909 0
M  V30 1957 C 182.04 -0.579782 3.33904 0
M  V30 1958 C 181.213 0.236417 4.36761 0
M  V30 1959 C 180.272 -0.582482 5.22966 0
M  V30 1960 O 179.298 -0.00525502 5.692 0
M  V30 1961 N 180.5 -1.89163 5.48815 0
M  V30 1962 H 183.265 1.13964 2.77186 0
M  V30 1963 H 180.826 0.747731 1.43599 0
M  V30 1964 H 182.818 -1.13366 3.88497 0
M  V30 1965 H 181.388 -1.31144 2.83761 0
M  V30 1966 H 180.608 0.97174 3.82035 0
M  V30 1967 H 181.896 0.795924 5.02536 0
M  V30 1968 H 181.294 -2.38352 5.13035 0
M  V30 1969 H 179.851 -2.39296 6.06284 0
M  V30 1970 N 183.284 -1.43765 0.645699 0
M  V30 1971 C 184.247 -2.29163 -0.0409488 0
M  V30 1972 C 185.247 -1.41813 -0.757996 0
M  V30 1973 O 186.437 -1.63527 -0.600382 0
M  V30 1974 C 183.569 -3.23716 -1.06869 0
M  V30 1975 H 184.762 -2.91366 0.710345 0
M  V30 1976 H 182.315 -1.5092 0.406547 0
M  V30 1977 H 183.05 -2.66393 -1.84947 0
M  V30 1978 H 182.835 -3.88105 -0.558277 0
M  V30 1979 H 184.325 -3.87831 -1.54845 0
M  V30 1980 N 184.763 -0.387143 -1.52771 0
M  V30 1981 C 185.673 0.456442 -2.30117 0
M  V30 1982 C 186.689 1.07342 -1.36944 0
M  V30 1983 O 187.865 1.07971 -1.70013 0
M  V30 1984 C 184.93 1.56957 -3.09136 0
M  V30 1985 C 183.991 0.977916 -4.18014 0
M  V30 1986 C 183.224 2.038 -4.93256 0
M  V30 1987 O 183.447 3.25271 -4.68567 0
M  V30 1988 O 182.381 1.6565 -5.78657 0
M  V30 1989 H 186.207 -0.17359 -3.03203 0
M  V30 1990 H 183.792 -0.150919 -1.48636 0
M  V30 1991 H 185.674 2.21628 -3.58412 0
M  V30 1992 H 184.349 2.18461 -2.38865 0
M  V30 1993 H 183.256 0.294525 -3.72939 0
M  V30 1994 H 184.589 0.407128 -4.90513 0
M  V30 1995 N 186.241 1.57166 -0.116904 0
M  V30 1996 C 187.188 2.15202 0.83408 0
M  V30 1997 C 188.158 1.07644 1.26499 0
M  V30 1998 O 189.343 1.35541 1.34288 0
M  V30 1999 C 186.483 2.75405 2.07957 0
M  V30 2000 C 185.596 3.97264 1.69721 0
M  V30 2001 C 184.731 4.45561 2.89221 0
M  V30 2002 C 183.77 5.59956 2.47215 0
M  V30 2003 N 182.907 6.03006 3.59622 0
M  V30 2004 H 187.747 2.96141 0.332335 0
M  V30 2005 H 185.284 1.46309 0.152349 0
M  V30 2006 H 187.242 3.08439 2.80929 0
M  V30 2007 H 185.872 1.97159 2.55594 0
M  V30 2008 H 184.924 3.70404 0.866316 0
M  V30 2009 H 186.236 4.80226 1.34849 0
M  V30 2010 H 185.39 4.80493 3.7042 0
M  V30 2011 H 184.129 3.61544 3.27318 0
M  V30 2012 H 183.134 5.2463 1.64448 0
M  V30 2013 H 184.359 6.45738 2.10238 0
M  V30 2014 H 182.305 5.21931 3.97396 0
M  V30 2015 H 182.222 6.80819 3.28667 0
M  V30 2016 H 183.49 6.42576 4.41267 0
M  V30 2017 N 187.719 -0.156864 1.56817 0
M  V30 2018 C 188.949 -0.885031 1.86684 0
M  V30 2019 C 189.357 -1.75696 0.701954 0
M  V30 2020 O 188.7 -1.80569 -0.337732 0
M  V30 2021 C 188.762 -1.80092 3.11138 0
M  V30 2022 C 188.426 -1.10714 4.43386 0
M  V30 2023 C 189.423 -0.465714 5.1781 0
M  V30 2024 C 187.108 -1.09959 4.90117 0
M  V30 2025 C 189.102 0.174002 6.37162 0
M  V30 2026 C 186.789 -0.456055 6.09396 0
M  V30 2027 C 187.787 0.179622 6.82764 0
M  V30 2028 O 187.475 0.812975 7.99779 0
M  V30 2029 H 187.207 -0.261813 0.623242 0
M  V30 2030 H 189.761 -0.157383 2.04796 0
M  V30 2031 H 187.991 -2.56926 2.89009 0
M  V30 2032 H 189.68 -2.40018 3.27332 0
M  V30 2033 H 190.446 -0.463427 4.82781 0
M  V30 2034 H 186.325 -1.58378 4.3294 0
M  V30 2035 H 189.869 0.670765 6.94368 0
M  V30 2036 H 185.766 -0.455975 6.43888 0
M  V30 2037 H 186.534 0.71366 8.15383 0
M  V30 2038 N 189.197 -1.51736 -0.425897 0
M  V30 2039 C 190.144 -1.73875 -1.51776 0
M  V30 2040 C 191.114 -0.580702 -1.55618 0
M  V30 2041 O 192.299 -0.81641 -1.72451 0
M  V30 2042 C 189.439 -1.88012 -2.89388 0
M  V30 2043 C 188.552 -3.15606 -2.94986 0
M  V30 2044 C 187.687 -3.20271 -4.23793 0
M  V30 2045 C 186.726 -4.42134 -4.23302 0
M  V30 2046 N 185.863 -4.44284 -5.43651 0
M  V30 2047 H 190.703 -2.67071 -1.32201 0
M  V30 2048 H 188.24 -1.32351 -0.642008 0
M  V30 2049 H 190.198 -1.9419 -3.69251 0
M  V30 2050 H 188.828 -0.98213 -3.07496 0
M  V30 2051 H 187.88 -3.18681 -2.07717 0
M  V30 2052 H 189.192 -4.05486 -2.90486 0
M  V30 2053 H 188.346 -3.25428 -5.12036 0
M  V30 2054 H 187.085 -2.28299 -4.30965 0
M  V30 2055 H 186.09 -4.3714 -3.3345 0
M  V30 2056 H 187.315 -5.35382 -4.17783 0
M  V30 2057 H 185.261 -3.55188 -5.51523 0
M  V30 2058 H 185.178 -5.27988 -5.41078 0
M  V30 2059 H 186.446 -4.53649 -6.33895 0
M  V30 2060 N 190.675 0.682077 -1.42076 0
M  V30 2061 C 191.921 1.44428 -1.42367 0
M  V30 2062 C 192.254 1.94164 -0.0373056 0
M  V30 2063 O 191.529 1.70429 0.937239 0
M  V30 2064 C 191.812 2.64654 -2.44194 0
M  V30 2065 C 191.665 2.20596 -3.91991 0
M  V30 2066 C 192.984 3.66865 -2.431 0
M  V30 2067 H 190.103 0.523834 -0.518428 0
M  V30 2068 H 192.745 0.77576 -1.73442 0
M  V30 2069 H 190.895 3.2169 -2.17826 0
M  V30 2070 H 192.567 1.68783 -4.29313 0
M  V30 2071 H 190.81 1.52242 -4.06208 0
M  V30 2072 H 191.481 3.06921 -4.58807 0
M  V30 2073 H 193.957 3.19531 -2.66532 0
M  V30 2074 H 192.833 4.48577 -3.16339 0
M  V30 2075 H 193.094 4.17493 -1.45437 0
M  V30 2076 N 192.153 1.28127 0.917671 0
M  V30 2077 C 193.564 1.13622 1.48145 0
M  V30 2078 C 193.915 -0.275207 1.9426 0
M  V30 2079 O 193.04 -1.1691 1.82102 0
M  V30 2080 C 193.635 2.05648 2.69248 0
M  V30 2081 C 192.194 1.95219 3.21818 0
M  V30 2082 C 191.341 1.97618 1.94532 0
M  V30 2083 H 194.292 1.40874 0.730772 0
M  V30 2084 H 194.313 1.61818 3.44377 0
M  V30 2085 H 193.825 3.08365 2.35653 0
M  V30 2086 H 191.926 0.955244 3.60147 0
M  V30 2087 H 192.039 2.81976 3.87333 0
M  V30 2088 H 190.403 1.41973 2.11461 0
M  V30 2089 H 191.186 3.02007 1.63238 0
M  V30 2090 N 193.631 -1.12557 1.10312 0
M  V30 2091 C 195.047 -1.36036 0.834649 0
M  V30 2092 C 195.247 -1.93946 -0.546539 0
M  V30 2093 O 194.303 -2.16484 -1.29966 0
M  V30 2094 C 195.616 -2.30312 1.9333 0
M  V30 2095 C 197.164 -2.43906 1.9616 0
M  V30 2096 C 197.639 -3.41496 3.05195 0
M  V30 2097 N 199.13 -3.49053 3.04494 0
M  V30 2098 C 199.865 -4.24471 3.85502 0
M  V30 2099 N 199.361 -5.02966 4.76442 0
M  V30 2100 N 201.154 -4.19864 3.73725 0
M  V30 2101 H 193.305 -0.733246 1.99342 0
M  V30 2102 H 195.568 -0.385234 0.866198 0
M  V30 2103 H 195.274 -1.94933 2.92735 0
M  V30 2104 H 195.148 -3.30421 1.81939 0
M  V30 2105 H 197.535 -2.78567 0.973886 0
M  V30 2106 H 197.616 -1.4369 2.11629 0
M  V30 2107 H 197.26 -3.07565 4.04186 0
M  V30 2108 H 197.19 -4.41539 2.86968 0
M  V30 2109 H 199.681 -2.93053 2.38596 0
M  V30 2110 H 199.994 -5.57846 5.34815 0
M  V30 2111 H 198.339 -5.02167 4.80472 0
M  V30 2112 H 201.53 -3.57623 3.02032 0
M  V30 2113 H 201.703 -4.78386 4.37093 0
M  V30 2114 N 195.109 -0.891671 -1.2995 0
M  V30 2115 C 196.358 -0.509521 -1.95158 0
M  V30 2116 C 196.671 0.947388 -1.71125 0
M  V30 2117 O 197.877 1.43669 -2.30372 0
M  V30 2118 C 196.333 -0.860315 -3.49466 0
M  V30 2119 C 195.941 -2.33545 -3.8231 0
M  V30 2120 C 197.685 -0.547687 -4.20952 0
M  V30 2121 C 195.592 -2.62752 -5.29826 0
M  V30 2122 H 194.522 -0.18682 -0.730489 0
M  V30 2123 H 197.173 -1.08756 -1.47798 0
M  V30 2124 H 195.555 -0.211285 -3.95436 0
M  V30 2125 H 196.729 -3.02936 -3.47227 0
M  V30 2126 H 195.044 -2.61629 -3.23944 0
M  V30 2127 H 197.641 -0.742854 -5.29515 0
M  V30 2128 H 197.984 0.51332 -4.13123 0
M  V30 2129 H 198.517 -1.1542 -3.80688 0
M  V30 2130 H 195.256 -3.6762 -5.42712 0
M  V30 2131 H 194.776 -1.97977 -5.66185 0
M  V30 2132 H 196.455 -2.48601 -5.97333 0
M  V30 2133 N 196.587 1.43421 -0.653314 0
M  V30 2134 C 197.55 2.29182 0.0287951 0
M  V30 2135 C 198.55 1.42213 0.750465 0
M  V30 2136 O 199.74 1.63843 0.591701 0
M  V30 2137 C 196.872 3.24278 1.05151 0
M  V30 2138 H 198.065 2.90985 -0.725786 0
M  V30 2139 H 195.618 1.50702 -0.414545 0
M  V30 2140 H 196.353 2.6737 1.83532 0
M  V30 2141 H 196.138 3.88396 0.537687 0
M  V30 2142 H 197.628 3.88647 1.52786 0
M  V30 2143 N 198.065 0.39524 1.52563 0
M  V30 2144 C 199.312 -0.185044 2.01653 0
M  V30 2145 C 199.64 -1.46317 1.28146 0
M  V30 2146 O 198.895 -1.9213 0.372074 0
M  V30 2147 C 199.194 -0.493444 3.53977 0
M  V30 2148 C 198.86 0.69384 4.4553 0
M  V30 2149 C 197.522 1.01954 4.70275 0
M  V30 2150 C 199.874 1.48785 4.99512 0
M  V30 2151 C 197.202 2.14069 5.46252 0
M  V30 2152 C 199.554 2.59965 5.76716 0
M  V30 2153 C 198.218 2.93037 5.99738 0
M  V30 2154 H 197.488 -0.0677123 0.7379 0
M  V30 2155 H 200.135 0.533807 1.8391 0
M  V30 2156 H 198.44 -1.29369 3.69825 0
M  V30 2157 H 200.137 -0.955163 3.89458 0
M  V30 2158 H 196.727 0.429987 4.26438 0
M  V30 2159 H 200.911 1.24946 4.80315 0
M  V30 2160 H 196.167 2.40056 5.62302 0
M  V30 2161 H 200.341 3.21887 6.17545 0
M  V30 2162 H 197.968 3.8003 6.58393 0
M  V30 2163 N 199.544 -1.57102 0.125237 0
M  V30 2164 C 200.507 -2.14471 -0.80838 0
M  V30 2165 C 201.507 -1.0811 -1.19033 0
M  V30 2166 O 202.697 -1.33856 -1.11482 0
M  V30 2167 C 199.829 -2.69005 -2.09402 0
M  V30 2168 H 201.022 -2.98297 -0.309696 0
M  V30 2169 H 198.575 -1.55807 -0.124051 0
M  V30 2170 H 199.31 -1.88785 -2.63687 0
M  V30 2171 H 199.095 -3.46799 -1.82957 0
M  V30 2172 H 200.585 -3.13278 -2.76128 0
M  V30 2173 N 201.022 0.148545 -1.56898 0
M  V30 2174 C 201.97 1.20265 -1.99096 0
M  V30 2175 C 202.964 1.44559 -0.883123 0
M  V30 2176 O 204.17 1.4487 -1.0683 0
M  V30 2177 H 200.545 0.404786 -0.63376 0
M  V30 2178 H 202.516 0.82004 -2.86911 0
M  V30 2179 C 201.265 2.52886 -2.3863 0
M  V30 2180 H 200.588 2.35021 -3.23427 0
M  V30 2181 H 202.028 3.25274 -2.7198 0
M  V30 2182 C 200.487 3.13315 -1.23837 0
M  V30 2183 O 201.017 3.98077 -0.538268 0
M  V30 2184 N 199.223 2.72742 -1.00301 0
M  V30 2185 H 198.77 2.03912 -1.5741 0
M  V30 2186 H 198.728 3.13507 -0.236838 0
M  V30 2187 N 202.5 1.5196 0.417844 0
M  V30 2188 C 203.447 1.74678 1.50852 0
M  V30 2189 C 204.417 0.588947 1.55308 0
M  V30 2190 O 205.602 0.825544 1.72016 0
M  V30 2191 C 202.742 1.89544 2.88387 0
M  V30 2192 C 201.855 3.17166 2.93309 0
M  V30 2193 C 200.99 3.22513 4.22088 0
M  V30 2194 C 200.029 4.44372 4.20951 0
M  V30 2195 N 199.166 4.47161 5.41287 0
M  V30 2196 H 204.006 2.67768 1.30783 0
M  V30 2197 H 201.543 1.32689 0.63498 0
M  V30 2198 H 203.501 1.96146 3.68216 0
M  V30 2199 H 202.131 0.998424 3.06971 0
M  V30 2200 H 201.183 3.19778 2.06024 0
M  V30 2201 H 202.495 4.07021 2.88332 0
M  V30 2202 H 201.649 3.28139 5.10303 0
M  V30 2203 H 200.388 2.30581 4.29748 0
M  V30 2204 H 199.393 4.38902 3.31127 0
M  V30 2205 H 200.618 5.3759 4.14938 0
M  V30 2206 H 198.564 3.58108 5.49632 0
M  V30 2207 H 198.481 5.3085 5.3827 0
M  V30 2208 H 199.749 4.57005 6.3148 0
M  V30 2209 N 203.978 -0.674533 1.42435 0
M  V30 2210 C 204.911 -1.79924 1.40366 0
M  V30 2211 C 205.889 -1.60378 0.267899 0
M  V30 2212 O 207.073 -1.82847 0.458159 0
M  V30 2213 C 204.2 -3.16927 1.19478 0
M  V30 2214 C 203.246 -3.55221 2.36051 0
M  V30 2215 S 204.079 -3.5762 3.98583 0
M  V30 2216 C 205.235 -4.97315 3.80038 0
M  V30 2217 H 205.468 -1.81405 2.35541 0
M  V30 2218 H 203.001 -0.845221 1.29211 0
M  V30 2219 H 204.959 -3.96007 1.08114 0
M  V30 2220 H 203.62 -3.13031 0.258883 0
M  V30 2221 H 202.813 -4.54804 2.17185 0
M  V30 2222 H 202.415 -2.83502 2.43932 0
M  V30 2223 H 204.707 -5.85401 3.41045 0
M  V30 2224 H 205.65 -5.21228 4.79298 0
M  V30 2225 H 206.058 -4.69845 3.12899 0
M  V30 2226 N 205.456 -1.28612 -0.910864 0
M  V30 2227 C 206.733 -1.06632 -1.63979 0
M  V30 2228 C 207.113 0.393351 -2.07403 0
M  V30 2229 O 206.461 1.37999 -1.82122 0
M  V30 2230 C 206.671 -2.0436 -2.8291 0
M  V30 2231 C 208.019 -2.34666 -3.5386 0
M  V30 2232 O 209.043 -2.02467 -2.93062 0
M  V30 2233 O 207.902 -2.89631 -4.63439 0
M  V30 2234 H 204.996 -0.407737 -0.7195 0
M  V30 2235 H 207.542 -1.39942 -0.959914 0
M  V30 2236 H 206.314 -3.02727 -2.47936 0
M  V30 2237 H 205.937 -1.71714 -3.58609 0
M  V30 2238 N 206.934 1.1197 -1.10907 0
M  V30 2239 C 207.881 2.17846 -0.762345 0
M  V30 2240 C 208.851 1.63995 0.263599 0
M  V30 2241 O 210.036 1.90273 0.141773 0
M  V30 2242 C 207.176 3.44487 -0.205651 0
M  V30 2243 C 206.289 4.12369 -1.28748 0
M  V30 2244 C 205.424 5.26674 -0.691919 0
M  V30 2245 C 204.463 5.86431 -1.75399 0
M  V30 2246 N 203.6 6.92142 -1.17833 0
M  V30 2247 H 208.44 2.46851 -1.6694 0
M  V30 2248 H 205.977 1.21188 -0.833776 0
M  V30 2249 H 207.935 4.16981 0.135037 0
M  V30 2250 H 206.565 3.15884 0.664613 0
M  V30 2251 H 205.617 3.38003 -1.74522 0
M  V30 2252 H 206.929 4.52844 -2.09125 0
M  V30 2253 H 206.083 6.05953 -0.300963 0
M  V30 2254 H 204.822 4.8749 0.143232 0
M  V30 2255 H 203.827 5.05835 -2.15432 0
M  V30 2256 H 205.052 6.27685 -2.59208 0
M  V30 2257 H 202.998 6.54985 -0.364725 0
M  V30 2258 H 202.915 7.31242 -1.91887 0
M  V30 2259 H 204.183 7.75237 -0.81408 0
M  V30 2260 N 208.412 0.89855 1.29475 0
M  V30 2261 C 209.64 0.539261 1.99749 0
M  V30 2262 C 210.055 -0.875716 1.67262 0
M  V30 2263 O 209.412 -1.57786 0.917049 0
M  V30 2264 C 209.463 0.72061 3.54245 0
M  V30 2265 O 209.184 2.07989 3.8558 0
M  V30 2266 C 210.685 0.366118 4.41786 0
M  V30 2267 H 207.905 0.207047 0.638258 0
M  V30 2268 H 210.449 1.20758 1.65039 0
M  V30 2269 H 208.604 0.0994862 3.87272 0
M  V30 2270 H 209.018 2.10841 4.80257 0
M  V30 2271 H 210.492 0.543848 5.49314 0
M  V30 2272 H 210.969 -0.696763 4.33638 0
M  V30 2273 H 211.575 0.964135 4.14228 0
M  V30 2274 N 209.89 -1.43072 0.660911 0
M  V30 2275 C 211.138 -2.01323 0.177094 0
M  V30 2276 C 211.459 -1.5245 -1.2159 0
M  V30 2277 O 210.729 -0.740322 -1.81373 0
M  V30 2278 H 209.309 -0.744382 0.0624804 0
M  V30 2279 H 211.971 -1.75179 0.854305 0
M  V30 2280 H 211.067 -3.11649 0.167641 0
M  V30 2281 N 211.368 -0.403325 -1.52352 0
M  V30 2282 C 212.331 0.413051 -2.25447 0
M  V30 2283 C 213.331 0.978513 -1.276 0
M  V30 2284 O 214.521 0.858305 -1.51587 0
M  V30 2285 C 211.653 1.58087 -3.02029 0
M  V30 2286 H 212.846 -0.227094 -2.99039 0
M  V30 2287 H 210.399 -0.155722 -1.55522 0
M  V30 2288 H 211.134 2.25804 -2.32772 0
M  V30 2289 H 210.919 1.18195 -3.73861 0
M  V30 2290 H 212.409 2.1585 -3.57489 0
M  V30 2291 N 212.846 1.57033 -0.133567 0
M  V30 2292 C 214.123 1.87256 0.56522 0
M  V30 2293 C 214.503 1.03726 1.83859 0
M  V30 2294 O 213.851 0.120247 2.28183 0
M  V30 2295 C 214.061 3.3865 0.843636 0
M  V30 2296 C 215.409 4.07574 1.19032 0
M  V30 2297 O 216.433 3.43752 0.933429 0
M  V30 2298 O 215.292 5.20259 1.67312 0
M  V30 2299 H 212.386 0.775678 0.286796 0
M  V30 2300 H 214.932 1.68855 -0.169168 0
M  V30 2301 H 213.704 3.91257 -0.0581149 0
M  V30 2302 H 213.327 3.62532 1.63268 0
M  V30 2303 N 214.325 -0.140222 1.56975 0
M  V30 2304 C 215.255 -1.17456 2.01808 0
M  V30 2305 C 216.236 -1.44415 0.898794 0
M  V30 2306 O 217.421 -1.5522 1.16707 0
M  V30 2307 C 214.551 -2.50607 2.40444 0
M  V30 2308 C 213.505 -2.38155 3.55621 0
M  V30 2309 C 212.831 -3.76078 3.80091 0
M  V30 2310 C 214.131 -1.85991 4.88062 0
M  V30 2311 H 215.825 -0.801743 2.88466 0
M  V30 2312 H 213.371 -0.38422 1.38779 0
M  V30 2313 H 215.324 -3.23197 2.7041 0
M  V30 2314 H 214.048 -2.89737 1.50732 0
M  V30 2315 H 212.707 -1.68016 3.25832 0
M  V30 2316 H 212.355 -4.12656 2.87618 0
M  V30 2317 H 212.055 -3.68606 4.57606 0
M  V30 2318 H 213.579 -4.50206 4.12488 0
M  V30 2319 H 214.993 -2.4838 5.16701 0
M  V30 2320 H 213.39 -1.89393 5.6943 0
M  V30 2321 H 214.46 -0.816023 4.77984 0
M  V30 2322 N 215.803 -1.52179 -0.40978 0
M  V30 2323 C 217.049 -1.67408 -1.15525 0
M  V30 2324 C 217.404 -0.398746 -1.88223 0
M  V30 2325 O 216.697 0.60678 -1.81738 0
M  V30 2326 C 216.891 -2.83428 -2.17723 0
M  V30 2327 C 216.72 -4.22121 -1.55061 0
M  V30 2328 C 215.49 -4.87657 -1.3236 0
M  V30 2329 C 217.688 -5.04248 -1.01185 0
M  V30 2330 N 215.67 -6.10387 -0.655834 0
M  V30 2331 C 217.041 -6.18209 -0.470963 0
M  V30 2332 C 219.096 -4.89583 -0.906252 0
M  V30 2333 C 217.799 -7.1911 0.165172 0
M  V30 2334 C 219.825 -5.90718 -0.28397 0
M  V30 2335 C 219.187 -7.03969 0.246243 0
M  V30 2336 H 215.286 -0.666251 -0.409431 0
M  V30 2337 H 217.87 -1.89482 -0.447729 0
M  V30 2338 H 216.041 -2.6297 -2.85834 0
M  V30 2339 H 217.773 -2.87697 -2.84627 0
M  V30 2340 H 214.528 -4.46007 -1.59294 0
M  V30 2341 H 214.952 -6.76153 -0.338596 0
M  V30 2342 H 219.594 -4.02253 -1.302 0
M  V30 2343 H 217.312 -8.06066 0.572986 0
M  V30 2344 H 220.898 -5.81443 -0.203792 0
M  V30 2345 H 219.778 -7.80886 0.720173 0
M  V30 2346 N 217.281 0.66697 -1.42791 0
M  V30 2347 C 218.211 1.79218 -1.49677 0
M  V30 2348 C 219.192 1.66405 -0.352623 0
M  V30 2349 O 220.377 1.85708 -0.567993 0
M  V30 2350 C 217.507 3.17565 -1.40605 0
M  V30 2351 C 216.461 3.45124 -2.53127 0
M  V30 2352 C 215.787 4.83127 -2.29112 0
M  V30 2353 C 217.087 3.41236 -3.95418 0
M  V30 2354 H 218.781 1.73713 -2.43853 0
M  V30 2355 H 216.327 0.83432 -1.17367 0
M  V30 2356 H 218.28 3.96022 -1.44029 0
M  V30 2357 H 217.004 3.23767 -0.429271 0
M  V30 2358 H 215.663 2.69031 -2.49034 0
M  V30 2359 H 215.311 4.85988 -1.29709 0
M  V30 2360 H 215.011 5.02528 -3.04531 0
M  V30 2361 H 216.535 5.63859 -2.34297 0
M  V30 2362 H 217.949 4.09651 -4.01073 0
M  V30 2363 H 216.346 3.72173 -4.70752 0
M  V30 2364 H 217.416 2.39665 -4.21532 0
M  V30 2365 N 218.759 1.29093 0.90403 0
M  V30 2366 C 220.005 1.16986 1.65656 0
M  V30 2367 C 220.338 -0.278925 1.92186 0
M  V30 2368 O 219.613 -1.2019 1.5292 0
M  V30 2369 C 219.896 1.97908 3.0084 0
M  V30 2370 C 219.749 3.50903 2.81403 0
M  V30 2371 C 221.068 1.80208 4.01513 0
M  V30 2372 H 218.187 0.426346 0.601164 0
M  V30 2373 H 220.829 1.58518 1.04747 0
M  V30 2374 H 218.979 1.62616 3.52829 0
M  V30 2375 H 220.651 3.96153 2.36348 0
M  V30 2376 H 218.894 3.76045 2.1627 0
M  V30 2377 H 219.565 4.02791 3.77443 0
M  V30 2378 H 222.041 2.11025 3.58619 0
M  V30 2379 H 220.917 2.39184 4.94047 0
M  V30 2380 H 221.178 0.756119 4.35586 0
M  V30 2381 N 220.237 -1.11381 1.11499 0
M  V30 2382 C 221.486 -1.82494 0.858993 0
M  V30 2383 C 221.799 -1.85605 -0.617278 0
M  V30 2384 O 223.005 -2.52824 -0.989552 0
M  V30 2385 C 221.461 -3.27745 1.48699 0
M  V30 2386 C 221.069 -3.32961 2.99735 0
M  V30 2387 C 222.813 -4.03754 1.31085 0
M  V30 2388 C 220.72 -4.72612 3.55516 0
M  V30 2389 H 219.65 -0.683802 0.317696 0
M  V30 2390 H 222.301 -1.25331 1.34031 0
M  V30 2391 H 220.683 -3.84844 0.933339 0
M  V30 2392 H 221.857 -2.85741 3.61509 0
M  V30 2393 H 220.172 -2.70433 3.16631 0
M  V30 2394 H 222.769 -5.06891 1.70192 0
M  V30 2395 H 223.112 -4.15527 0.253496 0
M  V30 2396 H 223.645 -3.53043 1.83318 0
M  V30 2397 H 220.384 -4.66036 4.60967 0
M  V30 2398 H 219.904 -5.2024 2.98513 0
M  V30 2399 H 221.583 -5.4157 3.53992 0
M  V30 2400 N 221.715 -0.905404 -1.28997 0
M  V30 2401 C 223.131 -0.60233 -1.47798 0
M  V30 2402 C 223.331 0.854645 -1.82478 0
M  V30 2403 O 222.387 1.63439 -1.92468 0
M  V30 2404 C 223.7 -1.53306 -2.58685 0
M  V30 2405 C 225.248 -1.53887 -2.72558 0
M  V30 2406 C 225.723 -2.45602 -3.86579 0
M  V30 2407 N 227.214 -2.43681 -3.93921 0
M  V30 2408 C 227.949 -3.11347 -4.81509 0
M  V30 2409 N 227.445 -3.88313 -5.73746 0
M  V30 2410 N 229.238 -3.00476 -4.75048 0
M  V30 2411 H 221.389 -1.84765 -1.04764 0
M  V30 2412 H 223.652 -0.792025 -0.520961 0
M  V30 2413 H 223.358 -2.57141 -2.39941 0
M  V30 2414 H 223.232 -1.25787 -3.55609 0
M  V30 2415 H 225.619 -0.507941 -2.90696 0
M  V30 2416 H 225.7 -1.85447 -1.76191 0
M  V30 2417 H 225.344 -3.48792 -3.69197 0
M  V30 2418 H 225.274 -2.11349 -4.82327 0
M  V30 2419 H 227.765 -1.87767 -3.27951 0
M  V30 2420 H 228.078 -4.36985 -6.37389 0
M  V30 2421 H 226.423 -3.92419 -5.73614 0
M  V30 2422 H 229.614 -2.39858 -4.01977 0
M  V30 2423 H 229.787 -3.53485 -5.43095 0
M  V30 2424 N 223.193 1.4272 -0.668489 0
M  V30 2425 C 224.421 2.05966 -0.196348 0
M  V30 2426 C 224.836 1.50191 1.14403 0
M  V30 2427 O 224.193 0.639208 1.7094 0
M  V30 2428 C 224.244 3.61314 -0.115815 0
M  V30 2429 O 223.965 4.1502 -1.40322 0
M  V30 2430 C 225.466 4.41663 0.380579 0
M  V30 2431 H 222.686 0.663954 -0.0969829 0
M  V30 2432 H 225.23 1.82966 -0.913446 0
M  V30 2433 H 223.385 3.83448 0.551931 0
M  V30 2434 H 223.799 5.08832 -1.27243 0
M  V30 2435 H 225.273 5.5065 0.385848 0
M  V30 2436 H 225.75 4.15792 1.41471 0
M  V30 2437 H 226.356 4.24534 -0.255209 0
M  V30 2438 N 224.671 0.411399 1.52136 0
M  V30 2439 C 225.604 -0.457614 2.23565 0
M  V30 2440 C 226.582 -1.04613 1.24478 0
M  V30 2441 O 227.766 -1.09356 1.53536 0
M  V30 2442 C 224.893 -1.6354 2.96602 0
M  V30 2443 C 223.939 -1.17005 4.10137 0
M  V30 2444 S 224.772 -0.13333 5.35334 0
M  V30 2445 C 225.928 -1.31638 6.119 0
M  V30 2446 H 226.161 0.148883 2.96927 0
M  V30 2447 H 223.694 0.195713 1.53155 0
M  V30 2448 H 225.652 -2.31074 3.39286 0
M  V30 2449 H 224.313 -2.21324 2.22878 0
M  V30 2450 H 223.506 -2.05005 4.60422 0
M  V30 2451 H 223.108 -0.573319 3.6958 0
M  V30 2452 H 225.4 -2.23957 6.39413 0
M  V30 2453 H 226.343 -0.854014 7.02931 0
M  V30 2454 H 226.751 -1.54321 5.42997 0
M  V30 2455 N 226.149 -1.5696 0.141893 0
M  V30 2456 C 227.081 -2.13619 -0.830627 0
M  V30 2457 C 228.094 -1.08439 -1.21428 0
M  V30 2458 O 229.283 -1.35734 -1.15925 0
M  V30 2459 C 226.383 -2.63978 -2.12529 0
M  V30 2460 C 225.556 -3.93504 -1.9098 0
M  V30 2461 C 224.615 -4.29225 -3.04388 0
M  V30 2462 O 223.641 -4.97641 -2.76302 0
M  V30 2463 N 224.843 -3.88393 -4.31429 0
M  V30 2464 H 227.608 -2.97691 -0.34641 0
M  V30 2465 H 225.169 -1.61846 -0.0418375 0
M  V30 2466 H 227.161 -2.84891 -2.87436 0
M  V30 2467 H 225.731 -1.84659 -2.52229 0
M  V30 2468 H 224.951 -3.81269 -1.00139 0
M  V30 2469 H 226.239 -4.78154 -1.73914 0
M  V30 2470 H 225.637 -3.33257 -4.57117 0
M  V30 2471 H 224.194 -4.14368 -5.03133 0
M  V30 2472 N 227.627 0.131896 -1.57047 0
M  V30 2473 C 228.537 1.1815 -2.02676 0
M  V30 2474 C 229.553 1.46113 -0.944824 0
M  V30 2475 O 230.729 1.57485 -1.25541 0
M  V30 2476 C 227.794 2.49139 -2.41103 0
M  V30 2477 C 226.855 2.28688 -3.63318 0
M  V30 2478 C 226.088 3.53431 -3.99903 0
M  V30 2479 O 226.311 4.60223 -3.36973 0
M  V30 2480 O 225.245 3.45198 -4.93074 0
M  V30 2481 H 229.071 0.824069 -2.92306 0
M  V30 2482 H 226.656 0.341745 -1.45439 0
M  V30 2483 H 228.538 3.26338 -2.66611 0
M  V30 2484 H 227.213 2.84382 -1.54624 0
M  V30 2485 H 226.12 1.4939 -3.42977 0
M  V30 2486 H 227.453 1.98355 -4.50462 0
M  V30 2487 N 229.106 1.52395 0.401703 0
M  V30 2488 C 230.522 1.41363 0.740864 0
M  V30 2489 C 230.722 0.523982 1.94568 0
M  V30 2490 O 229.778 -0.00741204 2.52499 0
M  V30 2491 C 231.091 2.84011 0.987847 0
M  V30 2492 C 232.639 2.93404 1.09011 0
M  V30 2493 C 233.114 4.37036 1.3698 0
M  V30 2494 N 234.605 4.40304 1.43829 0
M  V30 2495 C 235.34 5.48508 1.67112 0
M  V30 2496 N 234.836 6.66819 1.87949 0
M  V30 2497 N 236.629 5.36034 1.69187 0
M  V30 2498 H 228.78 2.08765 -0.391262 0
M  V30 2499 H 231.043 0.941265 -0.112798 0
M  V30 2500 H 230.749 3.51265 0.174835 0
M  V30 2501 H 230.623 3.25502 1.906 0
M  V30 2502 H 233.01 2.26325 1.8937 0
M  V30 2503 H 233.091 2.55359 0.15015 0
M  V30 2504 H 232.735 5.04676 0.571353 0
M  V30 2505 H 232.665 4.72623 2.3224 0
M  V30 2506 H 235.156 3.55024 1.29486 0
M  V30 2507 H 235.469 7.45063 2.05185 0
M  V30 2508 H 233.814 6.6987 1.85199 0
M  V30 2509 H 237.005 4.42579 1.52451 0
M  V30 2510 H 237.178 6.20434 1.86993 0
M  V30 2511 N 230.584 -0.659388 1.43143 0
M  V30 2512 C 231.514 -1.78422 1.50625 0
M  V30 2513 C 232.495 -1.66216 0.361443 0
M  V30 2514 O 233.68 -1.85404 0.577834 0
M  V30 2515 C 230.81 -3.16815 1.42287 0
M  V30 2516 C 229.764 -3.43777 2.54954 0
M  V30 2517 C 229.09 -4.81905 2.31671 0
M  V30 2518 C 230.39 -3.39134 3.97222 0
M  V30 2519 H 232.084 -1.72417 2.44771 0
M  V30 2520 H 229.63 -0.828084 1.17808 0
M  V30 2521 H 231.583 -3.95253 1.46127 0
M  V30 2522 H 230.307 -3.23534 0.446435 0
M  V30 2523 H 228.966 -2.67707 2.50457 0
M  V30 2524 H 228.614 -4.85294 1.32284 0
M  V30 2525 H 228.314 -5.00906 3.07192 0
M  V30 2526 H 229.838 -5.62609 2.37284 0
M  V30 2527 H 231.252 -4.07518 4.03239 0
M  V30 2528 H 229.649 -3.69671 4.72719 0
M  V30 2529 H 230.719 -2.37426 4.22797 0
M  V30 2530 N 232.062 -1.29571 -0.897171 0
M  V30 2531 C 233.31 -1.17456 -1.64464 0
M  V30 2532 C 233.631 0.273698 -1.9307 0
M  V30 2533 O 232.901 1.18684 -1.55855 0
M  V30 2534 H 231.481 -0.431706 -0.609622 0
M  V30 2535 H 234.143 -1.62531 -1.07562 0
M  V30 2536 H 233.239 -1.72648 -2.59998 0
M  V30 2537 N 233.54 1.10788 -1.12088 0
M  V30 2538 C 234.503 2.15207 -0.788577 0
M  V30 2539 C 235.503 1.59609 0.195317 0
M  V30 2540 O 236.693 1.74174 -0.0300193 0
M  V30 2541 C 233.825 3.4047 -0.171174 0
M  V30 2542 H 235.018 2.46116 -1.71368 0
M  V30 2543 H 232.571 1.26089 -0.923652 0
M  V30 2544 H 233.306 3.15176 0.763832 0
M  V30 2545 H 233.091 3.82109 -0.879514 0
M  V30 2546 H 234.581 4.17576 0.04496 0
M  V30 2547 N 235.018 0.912232 1.28515 0
M  V30 2548 C 236.434 0.610159 1.47476 0
M  V30 2549 C 236.634 -0.844955 1.82928 0
M  V30 2550 O 235.69 -1.62416 1.93332 0
M  V30 2551 C 237.003 1.54675 2.57868 0
M  V30 2552 C 238.551 1.55331 2.71738 0
M  V30 2553 C 239.026 2.47649 3.85272 0
M  V30 2554 N 240.517 2.45767 3.92623 0
M  V30 2555 C 241.252 3.13896 4.79851 0
M  V30 2556 N 240.748 3.9135 5.71679 0
M  V30 2557 N 242.541 3.02991 4.73448 0
M  V30 2558 H 234.692 1.85318 1.03783 0
M  V30 2559 H 236.955 0.794777 0.516753 0
M  V30 2560 H 236.661 2.5841 2.38574 0
M  V30 2561 H 236.535 1.27671 3.54937 0
M  V30 2562 H 238.922 0.52335 2.90422 0
M  V30 2563 H 239.003 1.86378 1.75205 0
M  V30 2564 H 238.647 3.50745 3.67342 0
M  V30 2565 H 238.577 2.13904 4.81199 0
M  V30 2566 H 241.068 1.89503 3.26951 0
M  V30 2567 H 241.381 4.40359 6.35062 0
M  V30 2568 H 239.726 3.95455 5.71524 0
M  V30 2569 H 242.917 2.41987 4.007 0
M  V30 2570 H 243.09 3.5636 5.41213 0
M  V30 2571 N 236.496 -1.42363 0.676048 0
M  V30 2572 C 237.907 -1.84649 0.275948 0
M  V30 2573 C 238.258 -1.56588 -1.18214 0
M  V30 2574 O 237.383 -1.02634 -1.90513 0
M  V30 2575 C 237.978 -3.35178 0.494053 0
M  V30 2576 C 236.537 -3.76109 0.148061 0
M  V30 2577 C 235.684 -2.65931 0.785891 0
M  V30 2578 H 238.635 -1.32192 0.878121 0
M  V30 2579 H 238.656 -3.79655 -0.25343 0
M  V30 2580 H 238.168 -3.55571 1.55535 0
M  V30 2581 H 236.269 -3.61323 -0.909742 0
M  V30 2582 H 236.382 -4.7546 0.589454 0
M  V30 2583 H 234.746 -2.53773 0.217113 0
M  V30 2584 H 235.529 -2.89146 1.85067 0
M  V30 2585 N 237.974 -0.419461 -1.51915 0
M  V30 2586 C 239.22 0.153166 -2.02221 0
M  V30 2587 C 239.553 1.43907 -1.30401 0
M  V30 2588 O 238.828 1.90055 -0.413438 0
M  V30 2589 C 239.111 0.390291 -3.57979 0
M  V30 2590 C 238.964 -0.913014 -4.40436 0
M  V30 2591 C 240.283 1.16794 -4.2432 0
M  V30 2592 H 237.402 0.0541924 -0.735005 0
M  V30 2593 H 240.044 -0.554955 -1.81715 0
M  V30 2594 H 238.194 0.993491 -3.75582 0
M  V30 2595 H 239.866 -1.54882 -4.34522 0
M  V30 2596 H 238.109 -1.52168 -4.06236 0
M  V30 2597 H 238.78 -0.701361 -5.47526 0
M  V30 2598 H 241.256 0.657161 -4.10878 0
M  V30 2599 H 240.132 1.3026 -5.3322 0
M  V30 2600 H 240.393 2.19132 -3.83971 0
M  V30 2601 N 239.452 1.56882 -0.150215 0
M  V30 2602 C 240.698 1.96518 0.500834 0
M  V30 2603 C 241.031 1.03527 1.64304 0
M  V30 2604 O 240.306 0.0782751 1.94342 0
M  V30 2605 C 240.589 3.45822 1.00395 0
M  V30 2606 C 240.442 4.49591 -0.136983 0
M  V30 2607 C 241.761 3.97704 1.88467 0
M  V30 2608 H 238.88 0.714535 0.18058 0
M  V30 2609 H 241.522 1.88577 -0.232091 0
M  V30 2610 H 239.672 3.5272 1.62851 0
M  V30 2611 H 241.344 4.5477 -0.77343 0
M  V30 2612 H 239.587 4.26441 -0.795652 0
M  V30 2613 H 240.258 5.51402 0.256815 0
M  V30 2614 H 242.734 3.93304 1.35834 0
M  V30 2615 H 241.61 5.0263 2.20578 0
M  V30 2616 H 241.871 3.40252 2.82279 0
M  V30 2617 N 240.93 -0.123565 1.57115 0
M  V30 2618 C 241.863 -1.18202 1.95201 0
M  V30 2619 C 242.841 -1.40349 0.821031 0
M  V30 2620 O 244.025 -1.54578 1.07879 0
M  V30 2621 C 241.152 -2.53671 2.24429 0
M  V30 2622 C 240.198 -2.4798 3.46999 0
M  V30 2623 S 241.031 -1.92389 4.99747 0
M  V30 2624 C 242.187 -3.2954 5.32123 0
M  V30 2625 H 242.42 -0.857212 2.84674 0
M  V30 2626 H 239.953 -0.33014 1.50829 0
M  V30 2627 H 241.911 -3.3162 2.41947 0
M  V30 2628 H 240.572 -2.83332 1.35579 0
M  V30 2629 H 239.765 -3.47758 3.64801 0
M  V30 2630 H 239.367 -1.7815 3.28844 0
M  V30 2631 H 241.659 -4.25736 5.27025 0
M  V30 2632 H 242.602 -3.16569 6.33395 0
M  V30 2633 H 243.01 -3.27758 4.59603 0
M  V30 2634 N 242.408 -1.52605 -0.393616 0
M  V30 2635 C 243.34 -1.73303 -1.49995 0
M  V30 2636 C 244.353 -0.613473 -1.50799 0
M  V30 2637 O 245.542 -0.889049 -1.54784 0
M  V30 2638 C 242.642 -1.77245 -2.88855 0
M  V30 2639 C 241.815 -3.06483 -3.12069 0
M  V30 2640 C 240.874 -3.02033 -4.30886 0
M  V30 2641 O 239.9 -3.75907 -4.27414 0
M  V30 2642 N 241.102 -2.20897 -5.36828 0
M  V30 2643 H 243.867 -2.68756 -1.32629 0
M  V30 2644 H 241.428 -1.51036 -0.583083 0
M  V30 2645 H 243.42 -1.7178 -3.66434 0
M  V30 2646 H 241.99 -0.891993 -2.99603 0
M  V30 2647 H 241.21 -3.25474 -2.22396 0
M  V30 2648 H 242.498 -3.91947 -3.2443 0
M  V30 2649 H 241.896 -1.60336 -5.42502 0
M  V30 2650 H 240.453 -2.21275 -6.13091 0
M  V30 2651 N 243.887 0.651787 -1.4349 0
M  V30 2652 C 244.817 1.77621 -1.51569 0
M  V30 2653 C 245.798 1.66022 -0.370253 0
M  V30 2654 O 246.983 1.85095 -0.587658 0
M  V30 2655 C 244.113 3.16056 -1.43966 0
M  V30 2656 C 243.067 3.4242 -2.56774 0
M  V30 2657 C 242.393 4.8067 -2.34223 0
M  V30 2658 C 243.693 3.37023 -3.99015 0
M  V30 2659 H 245.387 1.71117 -2.45681 0
M  V30 2660 H 242.933 0.821825 -1.18246 0
M  V30 2661 H 244.886 3.94472 -1.48221 0
M  V30 2662 H 243.61 3.23293 -0.463586 0
M  V30 2663 H 242.269 2.66375 -2.51873 0
M  V30 2664 H 241.917 4.84585 -1.34856 0
M  V30 2665 H 241.617 4.9927 -3.09844 0
M  V30 2666 H 243.141 5.61342 -2.40265 0
M  V30 2667 H 244.555 4.05374 -4.05395 0
M  V30 2668 H 242.952 3.67159 -4.74673 0
M  V30 2669 H 244.022 2.3518 -4.2405 0
M  V30 2670 N 245.365 1.30045 0.890287 0
M  V30 2671 C 246.776 1.16738 1.45702 0
M  V30 2672 C 247.127 -0.233939 1.948 0
M  V30 2673 O 246.252 -1.13021 1.84541 0
M  V30 2674 C 246.847 2.11313 2.64825 0
M  V30 2675 C 245.406 2.02001 3.17604 0
M  V30 2676 C 244.553 2.01699 1.90296 0
M  V30 2677 H 247.504 1.42392 0.700726 0
M  V30 2678 H 247.525 1.69086 3.40867 0
M  V30 2679 H 247.037 3.13294 2.2906 0
M  V30 2680 H 245.138 1.03142 3.5804 0
M  V30 2681 H 245.251 2.90128 3.81264 0
M  V30 2682 H 243.615 1.46427 2.08402 0
M  V30 2683 H 244.398 3.05402 1.56795 0
M  V30 2684 N 246.843 -1.10192 1.12674 0
M  V30 2685 C 248.092 -1.81573 0.8783 0
M  V30 2686 C 248.405 -1.86249 -0.597557 0
M  V30 2687 O 249.611 -2.5386 -0.962681 0
M  V30 2688 C 248.067 -3.26149 1.52167 0
M  V30 2689 C 247.675 -3.29763 3.03249 0
M  V30 2690 C 249.419 -4.0234 1.3536 0
M  V30 2691 C 247.326 -4.68815 3.60508 0
M  V30 2692 H 246.256 -0.680394 0.324931 0
M  V30 2693 H 248.907 -1.23902 1.35353 0
M  V30 2694 H 247.289 -3.83832 0.974104 0
M  V30 2695 H 248.463 -2.8189 3.6452 0
M  V30 2696 H 246.778 -2.67059 3.19481 0
M  V30 2697 H 249.375 -5.05058 1.75559 0
M  V30 2698 H 249.718 -4.15235 0.297554 0
M  V30 2699 H 250.251 -3.51079 1.87052 0
M  V30 2700 H 246.99 -4.61121 4.65884 0
M  V30 2701 H 246.51 -5.17045 3.04014 0
M  V30 2702 H 248.189 -5.37785 3.59717 0
M  V30 2703 N 248.321 -0.919034 -1.28029 0
M  V30 2704 C 249.569 -0.553838 -1.94363 0
M  V30 2705 C 249.89 0.906357 -1.72656 0
M  V30 2706 O 249.16 1.64143 -1.0693 0
M  V30 2707 H 247.74 -0.201834 -0.719216 0
M  V30 2708 H 250.402 -1.16954 -1.55909 0
M  V30 2709 H 249.498 -0.752758 -3.02886 0
M  V30 2710 N 249.799 1.42003 -0.683588 0
M  V30 2711 C 251.215 1.55625 -0.353976 0
M  V30 2712 C 251.415 1.66151 1.14 0
M  V30 2713 O 250.471 1.63329 1.92561 0
M  V30 2714 C 251.784 2.80171 -1.092 0
M  V30 2715 C 253.332 2.93954 -1.07518 0
M  V30 2716 C 253.807 4.21372 -1.79471 0
M  V30 2717 N 255.298 4.28303 -1.76381 0
M  V30 2718 C 256.033 5.25729 -2.28904 0
M  V30 2719 N 255.529 6.29254 -2.89846 0
M  V30 2720 N 257.322 5.17586 -2.19228 0
M  V30 2721 H 249.473 1.33415 -1.6527 0
M  V30 2722 H 251.736 0.64282 -0.696769 0
M  V30 2723 H 251.442 2.78561 -2.14701 0
M  V30 2724 H 251.316 3.7133 -0.662862 0
M  V30 2725 H 253.703 2.95086 -0.028475 0
M  V30 2726 H 253.784 2.04002 -1.54328 0
M  V30 2727 H 253.428 4.21001 -2.84114 0
M  V30 2728 H 253.358 5.10275 -1.30104 0
M  V30 2729 H 255.849 3.54119 -1.31939 0
M  V30 2730 H 256.162 6.99964 -3.27522 0
M  V30 2731 H 254.507 6.29791 -2.93919 0
M  V30 2732 H 257.698 4.35631 -1.71299 0
M  V30 2733 H 257.871 5.93348 -2.60466 0
M  V30 2734 N 251.277 0.427512 1.51691 0
M  V30 2735 C 252.187 -0.39527 2.31246 0
M  V30 2736 C 253.203 -1.03674 1.39742 0
M  V30 2737 O 254.379 -1.03425 1.72816 0
M  V30 2738 C 251.444 -1.48706 3.13189 0
M  V30 2739 C 250.505 -0.866743 4.20459 0
M  V30 2740 C 249.738 -1.90651 4.98486 0
M  V30 2741 O 249.961 -3.12733 4.77026 0
M  V30 2742 O 248.895 -1.5025 5.82845 0
M  V30 2743 H 252.721 0.253918 3.02637 0
M  V30 2744 H 250.306 0.190274 1.48183 0
M  V30 2745 H 252.188 -2.12047 3.64162 0
M  V30 2746 H 250.863 -2.12051 2.44573 0
M  V30 2747 H 249.77 -0.195544 3.73589 0
M  V30 2748 H 251.103 -0.276934 4.9142 0
M  V30 2749 N 252.755 -1.56801 0.158532 0
M  V30 2750 C 254.032 -1.88131 -0.535357 0
M  V30 2751 C 254.412 -1.06638 -1.82186 0
M  V30 2752 O 253.76 -0.156533 -2.27963 0
M  V30 2753 C 253.97 -3.39949 -0.789653 0
M  V30 2754 C 255.318 -4.09416 -1.12533 0
M  V30 2755 O 256.342 -3.45194 -0.878622 0
M  V30 2756 O 255.201 -5.22855 -1.59014 0
M  V30 2757 H 252.295 -0.780143 -0.27442 0
M  V30 2758 H 254.841 -1.68564 0.19601 0
M  V30 2759 H 253.613 -3.91115 0.120353 0
M  V30 2760 H 253.236 -3.65084 -1.57479 0
M  V30 2761 N 254.233 0.115231 -1.57178 0
M  V30 2762 C 255.461 0.836437 -1.89239 0
M  V30 2763 C 255.876 1.73256 -0.750175 0
M  V30 2764 O 255.233 1.80357 0.278832 0
M  V30 2765 C 255.284 1.66671 -3.20785 0
M  V30 2766 O 255.005 0.806652 -4.3061 0
M  V30 2767 C 256.506 2.49274 -3.66575 0
M  V30 2768 H 253.726 0.240253 -0.626514 0
M  V30 2769 H 256.27 0.0984932 -2.04263 0
M  V30 2770 H 254.425 2.35737 -3.0742 0
M  V30 2771 H 254.839 1.37969 -5.06028 0
M  V30 2772 H 256.313 3.03055 -4.6137 0
M  V30 2773 H 256.79 3.26807 -2.93417 0
M  V30 2774 H 257.396 1.85443 -3.82741 0
M  V30 2775 N 255.711 1.52812 0.385517 0
M  V30 2776 C 256.958 1.68026 1.1302 0
M  V30 2777 C 257.286 0.421934 1.89868 0
M  V30 2778 O 256.541 -0.595749 1.86412 0
M  V30 2779 C 256.84 2.86856 2.13187 0
M  V30 2780 C 256.506 4.24159 1.5297 0
M  V30 2781 C 255.168 4.61501 1.36274 0
M  V30 2782 C 257.52 5.09627 1.09223 0
M  V30 2783 C 254.848 5.81966 0.743837 0
M  V30 2784 C 257.2 6.30719 0.487411 0
M  V30 2785 C 255.864 6.6679 0.307777 0
M  V30 2786 H 255.134 0.614849 0.413571 0
M  V30 2787 H 257.781 1.86962 0.414405 0
M  V30 2788 H 256.086 2.6235 2.90998 0
M  V30 2789 H 257.783 2.95821 2.70722 0
M  V30 2790 H 254.373 3.94746 1.66954 0
M  V30 2791 H 258.557 4.81343 1.20922 0
M  V30 2792 H 253.813 6.08519 0.592891 0
M  V30 2793 H 257.987 6.96259 0.140143 0
M  V30 2794 H 255.614 7.60001 -0.173879 0
M  V30 2795 N 257.189 -0.644168 1.43834 0
M  V30 2796 C 258.414 -1.43642 1.49605 0
M  V30 2797 C 258.839 -1.8773 0.117913 0
M  V30 2798 O 258.197 -1.57938 -0.890239 0
M  V30 2799 C 258.245 -2.6416 2.45463 0
M  V30 2800 O 257.349 -3.63538 1.94714 0
M  V30 2801 H 256.69 -0.430329 0.50568 0
M  V30 2802 H 259.22 -0.787448 1.8884 0
M  V30 2803 H 259.23 -3.11864 2.63068 0
M  V30 2804 H 257.905 -2.31414 3.45572 0
M  V30 2805 H 256.482 -3.2273 1.86814 0
M  V30 2806 N 258.668 -1.30515 -0.883378 0
M  V30 2807 C 259.916 -1.19194 -1.63209 0
M  V30 2808 C 260.237 0.253205 -1.93349 0
M  V30 2809 O 259.507 1.17025 -1.57105 0
M  V30 2810 H 258.087 -0.438148 -0.605009 0
M  V30 2811 H 260.749 -1.63663 -1.05832 0
M  V30 2812 H 259.845 -1.75396 -2.58153 0
M  V30 2813 N 260.146 1.09593 -1.13257 0
M  V30 2814 C 261.395 1.81105 -0.887917 0
M  V30 2815 C 261.708 1.86563 0.587672 0
M  V30 2816 O 262.914 2.54367 0.949204 0
M  V30 2817 C 261.37 3.25338 -1.53895 0
M  V30 2818 C 260.978 3.28151 -3.04994 0
M  V30 2819 C 262.722 4.01617 -1.37492 0
M  V30 2820 C 260.629 4.66897 -3.6299 0
M  V30 2821 H 259.559 0.678661 -0.328534 0
M  V30 2822 H 262.21 1.23183 -1.36008 0
M  V30 2823 H 260.592 3.8331 -0.994446 0
M  V30 2824 H 261.766 2.79953 -3.66009 0
M  V30 2825 H 260.081 2.65361 -3.20893 0
M  V30 2826 H 262.678 5.04119 -1.78235 0
M  V30 2827 H 263.021 4.15072 -0.31957 0
M  V30 2828 H 263.554 3.50082 -1.88912 0
M  V30 2829 H 260.293 4.58643 -4.68323 0
M  V30 2830 H 259.813 5.15426 -3.06752 0
M  V30 2831 H 261.492 5.3587 -3.62563 0
M  V30 2832 N 261.624 0.925811 1.2754 0
M  V30 2833 C 262.873 0.561084 1.93739 0
M  V30 2834 C 263.186 -0.901685 1.73577 0
M  V30 2835 O 264.392 -1.37511 2.34101 0
M  V30 2836 C 262.848 0.952668 3.47062 0
M  V30 2837 C 262.456 2.43599 3.75983 0
M  V30 2838 C 264.2 0.659103 4.19352 0
M  V30 2839 C 262.107 2.76707 5.22673 0
M  V30 2840 H 261.037 0.206122 0.725279 0
M  V30 2841 H 263.688 1.12637 1.44863 0
M  V30 2842 H 262.07 0.316053 3.94737 0
M  V30 2843 H 263.244 3.12035 3.39073 0
M  V30 2844 H 261.559 2.70125 3.16893 0
M  V30 2845 H 264.156 0.882985 5.27359 0
M  V30 2846 H 264.499 -0.403607 4.14339 0
M  V30 2847 H 265.032 1.25473 3.77494 0
M  V30 2848 H 261.771 3.8188 5.32774 0
M  V30 2849 H 261.291 2.12919 5.60737 0
M  V30 2850 H 262.97 2.6435 5.90532 0
M  V30 2851 N 263.102 -1.41638 0.69111 0
M  V30 2852 C 264.379 -1.95036 0.148421 0
M  V30 2853 C 264.759 -1.63072 -1.34055 0
M  V30 2854 O 264.107 -0.93538 -2.08478 0
M  V30 2855 C 264.317 -3.46279 0.434951 0
M  V30 2856 C 265.665 -4.23069 0.360275 0
M  V30 2857 O 266.689 -3.54277 0.369613 0
M  V30 2858 O 265.548 -5.45583 0.316534 0
M  V30 2859 H 262.642 -0.826908 0.0123654 0
M  V30 2860 H 265.188 -1.5138 0.766963 0
M  V30 2861 H 263.96 -3.6281 1.46576 0
M  V30 2862 H 263.583 -3.97019 -0.214787 0
M  V30 2863 N 264.58 -0.43555 -1.51462 0
M  V30 2864 C 265.826 0.131709 -2.02372 0
M  V30 2865 C 266.159 1.42516 -1.3192 0
M  V30 2866 O 265.434 1.89606 -0.433573 0
M  V30 2867 C 265.717 0.352301 -3.58373 0
M  V30 2868 C 265.57 -0.959676 -4.39443 0
M  V30 2869 C 266.889 1.12286 -4.25535 0
M  V30 2870 H 264.008 0.0463936 -0.735538 0
M  V30 2871 H 266.65 -0.574197 -1.81116 0
M  V30 2872 H 264.8 0.9536 -3.76615 0
M  V30 2873 H 266.472 -1.59482 -4.32855 0
M  V30 2874 H 264.715 -1.56468 -4.04599 0
M  V30 2875 H 265.386 -0.759394 -5.46752 0
M  V30 2876 H 267.862 0.613545 -4.11552 0
M  V30 2877 H 266.738 1.24598 -5.34571 0
M  V30 2878 H 266.999 2.15048 -3.86273 0
M  V30 2879 N 266.058 1.56714 -0.166846 0
M  V30 2880 C 266.988 2.20754 0.760913 0
M  V30 2881 C 267.969 1.16178 1.24244 0
M  V30 2882 O 269.154 1.44592 1.29641 0
M  V30 2883 C 266.284 2.84478 1.99223 0
M  V30 2884 C 265.238 3.95053 1.64672 0
M  V30 2885 C 264.564 4.45805 2.95232 0
M  V30 2886 C 265.864 5.14865 0.878155 0
M  V30 2887 H 267.558 2.98537 0.22713 0
M  V30 2888 H 265.104 1.43596 0.107805 0
M  V30 2889 H 267.057 3.27951 2.64624 0
M  V30 2890 H 265.781 2.04056 2.55007 0
M  V30 2891 H 264.44 3.52228 1.01641 0
M  V30 2892 H 264.088 3.62181 3.49047 0
M  V30 2893 H 263.788 5.204 2.7287 0
M  V30 2894 H 265.312 4.91962 3.6167 0
M  V30 2895 H 266.726 5.55059 1.43466 0
M  V30 2896 H 265.123 5.95348 0.753738 0
M  V30 2897 H 266.193 4.84735 -0.126377 0
M  V30 2898 N 267.536 -0.106894 1.57237 0
M  V30 2899 C 268.952 -0.46078 1.52804 0
M  V30 2900 C 269.152 -1.81184 0.881746 0
M  V30 2901 O 268.208 -2.48102 0.469224 0
M  V30 2902 C 269.521 -0.434127 2.9755 0
M  V30 2903 C 271.069 -0.516821 3.08704 0
M  V30 2904 C 271.544 -0.520436 4.55033 0
M  V30 2905 N 273.035 -0.58153 4.59535 0
M  V30 2906 C 273.77 -0.605973 5.70189 0
M  V30 2907 N 273.266 -0.587331 6.90306 0
M  V30 2908 N 275.059 -0.649895 5.5833 0
M  V30 2909 H 267.21 0.778203 1.9763 0
M  V30 2910 H 269.473 0.288403 0.903066 0
M  V30 2911 H 269.179 0.491197 3.48253 0
M  V30 2912 H 269.053 -1.25748 3.55622 0
M  V30 2913 H 271.44 -1.43256 2.57995 0
M  V30 2914 H 271.521 0.334449 2.53604 0
M  V30 2915 H 271.165 0.391313 5.0639 0
M  V30 2916 H 271.095 -1.38876 5.07958 0
M  V30 2917 H 273.586 -0.60161 3.73081 0
M  V30 2918 H 273.899 -0.60894 7.70397 0
M  V30 2919 H 272.244 -0.554564 6.92784 0
M  V30 2920 H 275.435 -0.661907 4.63397 0
M  V30 2921 H 275.608 -0.665476 6.44574 0
M  V30 2922 N 269.014 -1.53014 -0.377408 0
M  V30 2923 C 269.947 -1.73382 -1.48371 0
M  V30 2924 C 270.925 -0.581879 -1.51832 0
M  V30 2925 O 272.109 -0.81307 -1.70063 0
M  V30 2926 C 269.236 -1.80192 -2.8679 0
M  V30 2927 C 268.282 -3.02056 -3.01105 0
M  V30 2928 S 269.115 -4.61811 -2.71093 0
M  V30 2929 C 270.271 -4.71453 -4.11683 0
M  V30 2930 H 270.504 -2.66946 -1.30872 0
M  V30 2931 H 268.037 -1.43453 -0.571012 0
M  V30 2932 H 269.995 -1.84802 -3.6655 0
M  V30 2933 H 268.656 -0.877008 -3.01608 0
M  V30 2934 H 267.849 -3.03396 -4.02451 0
M  V30 2935 H 267.451 -2.95498 -2.29253 0
M  V30 2936 H 269.743 -4.50781 -5.0577 0
M  V30 2937 H 270.686 -5.73487 -4.15353 0
M  V30 2938 H 271.094 -4.00189 -3.98132 0
M  V30 2939 N 270.492 0.636531 -1.44174 0
M  V30 2940 C 271.439 1.74875 -1.50624 0
M  V30 2941 C 272.409 1.62275 -0.35442 0
M  V30 2942 O 273.594 1.82276 -0.563908 0
M  V30 2943 C 270.734 3.13102 -1.45125 0
M  V30 2944 C 269.847 3.36717 -2.7064 0
M  V30 2945 C 268.982 4.64885 -2.57013 0
M  V30 2946 C 268.021 4.8166 -3.77717 0
M  V30 2947 N 267.158 6.01101 -3.62798 0
M  V30 2948 H 271.998 1.68697 -2.45653 0
M  V30 2949 H 269.535 0.823004 -1.21922 0
M  V30 2950 H 271.493 3.93034 -1.39929 0
M  V30 2951 H 270.123 3.18308 -0.536671 0
M  V30 2952 H 269.175 2.50763 -2.86046 0
M  V30 2953 H 270.487 3.44993 -3.60252 0
M  V30 2954 H 269.641 5.52969 -2.49619 0
M  V30 2955 H 268.38 4.58957 -1.64953 0
M  V30 2956 H 267.385 3.92007 -3.85501 0
M  V30 2957 H 268.61 4.89406 -4.70807 0
M  V30 2958 H 266.556 5.96273 -2.73486 0
M  V30 2959 H 266.473 6.10409 -4.46023 0
M  V30 2960 H 267.741 6.91761 -3.59286 0
M  V30 2961 N 271.97 1.30982 0.876444 0
M  V30 2962 C 272.933 1.18054 1.96459 0
M  V30 2963 C 273.933 0.109399 1.60427 0
M  V30 2964 O 275.123 0.358173 1.70478 0
M  V30 2965 C 272.255 0.810616 3.31122 0
M  V30 2966 H 273.448 2.14735 2.09354 0
M  V30 2967 H 271.001 1.145 1.06392 0
M  V30 2968 H 271.736 -0.155322 3.23928 0
M  V30 2969 H 271.521 1.58481 3.58645 0
M  V30 2970 H 273.011 0.743876 4.10921 0
M  V30 2971 N 273.449 -1.08991 1.13837 0
M  V30 2972 C 274.679 -1.84743 0.924859 0
M  V30 2973 C 275.087 -1.81629 -0.529874 0
M  V30 2974 O 274.43 -1.21397 -1.37872 0
M  V30 2975 C 274.492 -3.33568 1.34061 0
M  V30 2976 C 274.156 -3.60425 2.80968 0
M  V30 2977 C 275.153 -3.55771 3.79108 0
M  V30 2978 C 272.838 -3.88627 3.18236 0
M  V30 2979 C 274.832 -3.78939 5.12527 0
M  V30 2980 C 272.519 -4.11449 4.51833 0
M  V30 2981 C 273.517 -4.06598 5.48787 0
M  V30 2982 O 273.205 -4.28826 6.79973 0
M  V30 2983 H 272.937 -0.590258 0.329502 0
M  V30 2984 H 275.491 -1.38598 1.51591 0
M  V30 2985 H 273.721 -3.80442 0.692853 0
M  V30 2986 H 275.41 -3.90743 1.09886 0
M  V30 2987 H 276.176 -3.34005 3.51661 0
M  V30 2988 H 272.055 -3.91526 2.43369 0
M  V30 2989 H 275.599 -3.75068 5.88192 0
M  V30 2990 H 271.496 -4.32698 4.79002 0
M  V30 2991 H 272.264 -4.46264 6.86142 0
M  V30 2992 N 274.927 -0.932562 -1.27047 0
M  V30 2993 C 276.155 -0.592031 -1.98249 0
M  V30 2994 C 276.57 0.831062 -1.69525 0
M  V30 2995 O 275.927 1.55299 -0.958561 0
M  V30 2996 C 275.978 -0.814279 -3.5221 0
M  V30 2997 O 275.699 -2.18139 -3.7993 0
M  V30 2998 C 277.2 -0.483121 -4.4066 0
M  V30 2999 H 274.42 -0.223896 -0.632544 0
M  V30 3000 H 276.964 -1.25091 -1.61779 0
M  V30 3001 H 275.119 -0.20213 -3.86872 0
M  V30 3002 H 275.533 -2.235 -4.74498 0
M  V30 3003 H 277.007 -0.689298 -5.47679 0
M  V30 3004 H 277.484 0.581546 -4.35333 0
M  V30 3005 H 278.09 -1.07362 -4.11526 0
M  V30 3006 N 276.405 1.4127 -0.698611 0
M  V30 3007 C 277.635 2.05205 -0.239644 0
M  V30 3008 C 278.043 1.52684 1.11733 0
M  V30 3009 O 277.386 0.671222 1.70998 0
M  V30 3010 C 277.448 3.59289 -0.123126 0
M  V30 3011 C 277.112 4.34619 -1.41263 0
M  V30 3012 C 278.109 4.63701 -2.35111 0
M  V30 3013 C 275.794 4.73837 -1.66684 0
M  V30 3014 C 277.788 5.30966 -3.52639 0
M  V30 3015 C 275.475 5.40837 -2.84498 0
M  V30 3016 C 276.473 5.69329 -3.77298 0
M  V30 3017 O 276.161 6.34949 -4.93047 0
M  V30 3018 H 275.893 0.66723 -0.108537 0
M  V30 3019 H 278.447 1.81974 -0.952602 0
M  V30 3020 H 276.677 3.81272 0.645628 0
M  V30 3021 H 278.366 4.04797 0.299056 0
M  V30 3022 H 279.132 4.33882 -2.16729 0
M  V30 3023 H 275.011 4.51039 -0.953135 0
M  V30 3024 H 278.555 5.53121 -4.25091 0
M  V30 3025 H 274.452 5.70075 -3.02795 0
M  V30 3026 H 275.22 6.53445 -4.92902 0
M  V30 3027 N 277.883 0.443576 1.51229 0
M  V30 3028 C 279.131 -0.120557 2.0174 0
M  V30 3029 C 279.452 -1.42665 1.32935 0
M  V30 3030 O 278.722 -1.9028 0.465866 0
M  V30 3031 H 277.302 -0.0475426 0.745486 0
M  V30 3032 H 279.964 0.587711 1.85828 0
M  V30 3033 H 279.06 -0.291972 3.10731 0
M  V30 3034 N 279.361 -1.56624 0.175154 0
M  V30 3035 C 280.309 -2.19468 -0.770495 0
M  V30 3036 C 281.303 -1.15985 -1.23466 0
M  V30 3037 O 282.509 -1.34176 -1.19987 0
M  V30 3038 H 278.884 -0.703095 -0.266761 0
M  V30 3039 H 280.855 -2.97613 -0.216542 0
M  V30 3040 C 279.604 -2.85264 -1.98796 0
M  V30 3041 H 278.927 -3.64623 -1.63983 0
M  V30 3042 H 280.367 -3.327 -2.62843 0
M  V30 3043 C 278.826 -1.85239 -2.81404 0
M  V30 3044 O 279.356 -1.34024 -3.78682 0
M  V30 3045 N 277.562 -1.53911 -2.46495 0
M  V30 3046 H 277.109 -1.95751 -1.67449 0
M  V30 3047 H 277.067 -0.872382 -3.02054 0
M  V30 3048 N 280.839 0.0985539 -1.57292 0
M  V30 3049 C 282.116 0.834155 -1.76921 0
M  V30 3050 C 282.496 1.97101 -0.755928 0
M  V30 3051 O 281.844 2.27474 0.216245 0
M  V30 3052 C 282.054 1.33194 -3.22584 0
M  V30 3053 C 283.402 1.77611 -3.85668 0
M  V30 3054 O 284.426 1.42825 -3.26312 0
M  V30 3055 O 283.285 2.4192 -4.90038 0
M  V30 3056 H 280.379 0.397628 -0.725135 0
M  V30 3057 H 282.925 0.0807044 -1.69508 0
M  V30 3058 H 281.697 0.517248 -3.87866 0
M  V30 3059 H 281.32 2.1475 -3.34616 0
M  V30 3060 N 282.317 1.53212 0.369288 0
M  V30 3061 C 283.247 1.82365 1.45826 0
M  V30 3062 C 284.228 0.676907 1.56051 0
M  V30 3063 O 285.413 0.926401 1.70679 0
M  V30 3064 C 282.543 2.01023 2.83208 0
M  V30 3065 C 281.497 3.1678 2.8781 0
M  V30 3066 C 280.823 3.20724 4.27832 0
M  V30 3067 C 282.123 4.55447 2.55667 0
M  V30 3068 H 283.817 2.73559 1.21678 0
M  V30 3069 H 281.363 1.3163 0.583911 0
M  V30 3070 H 283.316 2.20001 3.59413 0
M  V30 3071 H 282.04 1.06536 3.08736 0
M  V30 3072 H 280.699 2.97616 2.14056 0
M  V30 3073 H 280.347 2.23882 4.50429 0
M  V30 3074 H 280.047 3.98496 4.31827 0
M  V30 3075 H 281.571 3.41881 5.05915 0
M  V30 3076 H 282.985 4.74611 3.21586 0
M  V30 3077 H 281.382 5.35432 2.70984 0
M  V30 3078 H 282.452 4.60812 1.5093 0
M  V30 3079 N 283.795 -0.628877 1.44509 0
M  V30 3080 C 285.043 -1.38565 1.4712 0
M  V30 3081 C 285.364 -1.94712 0.105899 0
M  V30 3082 O 284.634 -1.75912 -0.862079 0
M  V30 3083 H 283.214 -0.514333 0.541729 0
M  V30 3084 H 285.876 -0.740018 1.80305 0
M  V30 3085 H 284.972 -2.21583 2.19789 0
M  V30 3086 N 285.273 -1.31445 -0.869486 0
M  V30 3087 C 286.501 -1.24122 -1.65534 0
M  V30 3088 C 286.916 0.193387 -1.87807 0
M  V30 3089 O 286.273 1.12557 -1.43656 0
M  V30 3090 C 286.324 -1.98229 -3.02304 0
M  V30 3091 O 286.045 -3.3609 -2.81026 0
M  V30 3092 C 287.546 -1.97751 -3.96749 0
M  V30 3093 H 284.766 -0.428868 -0.516055 0
M  V30 3094 H 287.31 -1.73328 -1.08525 0
M  V30 3095 H 285.465 -1.52782 -3.56001 0
M  V30 3096 H 285.879 -3.7383 -3.67902 0
M  V30 3097 H 287.353 -2.54114 -4.90031 0
M  V30 3098 H 287.83 -0.960137 -4.28577 0
M  V30 3099 H 288.436 -2.43079 -3.48988 0
M  V30 3100 N 286.751 1.08385 -1.14413 0
M  V30 3101 C 288.028 1.77429 -0.823297 0
M  V30 3102 C 288.408 1.9974 0.683163 0
M  V30 3103 O 287.756 1.60739 1.62405 0
M  V30 3104 C 287.966 3.09004 -1.62227 0
M  V30 3105 C 289.314 3.83532 -1.82177 0
M  V30 3106 O 290.338 3.18786 -1.58915 0
M  V30 3107 O 289.197 4.99792 -2.21067 0
M  V30 3108 H 286.291 0.769999 -0.301712 0
M  V30 3109 H 288.837 1.14846 -1.24934 0
M  V30 3110 H 287.609 2.88316 -2.64555 0
M  V30 3111 H 287.232 3.79316 -1.19187 0
M  V30 3112 N 288.23 0.939286 1.26551 0
M  V30 3113 C 289.479 0.581601 1.93133 0
M  V30 3114 C 289.792 -0.883224 1.74524 0
M  V30 3115 O 290.998 -1.3502 2.35546 0
M  V30 3116 C 289.454 0.989425 3.46032 0
M  V30 3117 C 289.062 2.47573 3.73379 0
M  V30 3118 C 290.806 0.703544 4.18629 0
M  V30 3119 C 288.713 2.82235 5.19709 0
M  V30 3120 H 287.643 0.213803 0.723052 0
M  V30 3121 H 290.294 1.14167 1.4366 0
M  V30 3122 H 288.676 0.357902 3.94379 0
M  V30 3123 H 289.85 3.15614 3.35744 0
M  V30 3124 H 288.165 2.73471 3.1401 0
M  V30 3125 H 290.762 0.938869 5.26393 0
M  V30 3126 H 291.105 -0.359639 4.14744 0
M  V30 3127 H 291.638 1.2947 3.76141 0
M  V30 3128 H 288.377 3.87509 5.28694 0
M  V30 3129 H 287.897 2.18854 5.58447 0
M  V30 3130 H 289.576 2.70599 5.87695 0
M  V30 3131 N 289.708 -1.40897 0.706093 0
M  V30 3132 C 291.124 -1.55042 0.37869 0
M  V30 3133 C 291.324 -1.67944 -1.11342 0
M  V30 3134 O 290.38 -1.66372 -1.89938 0
M  V30 3135 C 291.693 -2.78398 1.13643 0
M  V30 3136 C 293.241 -2.92206 1.12181 0
M  V30 3137 C 293.716 -4.18463 1.86152 0
M  V30 3138 N 295.207 -4.25443 1.83173 0
M  V30 3139 C 295.942 -5.2202 2.37239 0
M  V30 3140 N 295.438 -6.24563 2.99821 0
M  V30 3141 N 297.231 -5.14033 2.27435 0
M  V30 3142 H 289.382 -1.30769 1.67372 0
M  V30 3143 H 291.645 -0.631653 0.706907 0
M  V30 3144 H 291.351 -2.7511 2.19106 0
M  V30 3145 H 291.225 -3.70228 0.721853 0
M  V30 3146 H 293.612 -2.95004 0.0754171 0
M  V30 3147 H 293.693 -2.01521 1.57554 0
M  V30 3148 H 293.337 -4.16427 2.90776 0
M  V30 3149 H 293.267 -5.08141 1.38206 0
M  V30 3150 H 295.758 -3.51976 1.37556 0
M  V30 3151 H 296.071 -6.94665 3.38616 0
M  V30 3152 H 294.416 -6.25035 3.03902 0
M  V30 3153 H 297.607 -4.3285 1.78208 0
M  V30 3154 H 297.78 -5.89129 2.69873 0
M  V30 3155 N 291.186 -0.45159 -1.50991 0
M  V30 3156 C 292.096 0.358431 -2.31846 0
M  V30 3157 C 293.112 1.01438 -1.41373 0
M  V30 3158 O 294.288 1.00663 -1.74439 0
M  V30 3159 C 291.353 1.43704 -3.15515 0
M  V30 3160 C 290.414 0.799742 -4.21785 0
M  V30 3161 C 289.647 1.82696 -5.01456 0
M  V30 3162 O 289.87 3.05105 -4.81941 0
M  V30 3163 O 288.804 1.40958 -5.85162 0
M  V30 3164 H 292.63 -0.302032 -3.02194 0
M  V30 3165 H 290.215 -0.213825 -1.47862 0
M  V30 3166 H 292.097 2.06227 -3.67489 0
M  V30 3167 H 290.772 2.08133 -2.47916 0
M  V30 3168 H 289.679 0.136084 -3.73852 0
M  V30 3169 H 291.012 0.198718 -4.91799 0
M  V30 3170 N 292.664 1.56529 -0.183458 0
M  V30 3171 C 293.913 1.96419 0.458511 0
M  V30 3172 C 294.226 1.0727 1.63562 0
M  V30 3173 O 295.432 1.36893 2.34462 0
M  V30 3174 C 293.888 3.49298 0.867122 0
M  V30 3175 C 293.496 4.47092 -0.285057 0
M  V30 3176 C 295.24 3.97983 1.47683 0
M  V30 3177 C 293.147 5.91225 0.143862 0
M  V30 3178 H 292.077 0.733394 0.175071 0
M  V30 3179 H 294.728 1.81448 -0.273624 0
M  V30 3180 H 293.11 3.59731 1.65559 0
M  V30 3181 H 294.284 4.48383 -1.0625 0
M  V30 3182 H 292.599 4.08535 -0.805503 0
M  V30 3183 H 295.196 5.03134 1.80999 0
M  V30 3184 H 295.539 3.41618 2.37914 0
M  V30 3185 H 296.072 3.90617 0.752562 0
M  V30 3186 H 292.811 6.5149 -0.723974 0
M  V30 3187 H 292.331 5.93214 0.886413 0
M  V30 3188 H 294.01 6.44362 0.583628 0
M  V30 3189 N 294.142 -0.090211 1.57342 0
M  V30 3190 C 295.553 -0.644173 1.75235 0
M  V30 3191 C 295.904 -1.78865 0.806335 0
M  V30 3192 O 295.029 -2.16395 -0.0140128 0
M  V30 3193 C 295.624 -1.17532 3.1776 0
M  V30 3194 C 294.183 -1.67531 3.37061 0
M  V30 3195 C 293.33 -0.58693 2.71017 0
M  V30 3196 H 296.281 0.135884 1.58117 0
M  V30 3197 H 296.302 -2.04455 3.20902 0
M  V30 3198 H 295.814 -0.342138 3.86589 0
M  V30 3199 H 293.915 -2.53234 2.73319 0
M  V30 3200 H 294.028 -1.76493 4.45406 0
M  V30 3201 H 292.392 -1.02756 2.33052 0
M  V30 3202 H 293.175 0.235758 3.4249 0
M  V30 3203 N 295.62 -1.53406 -0.361157 0
M  V30 3204 C 296.869 -1.69022 -1.10066 0
M  V30 3205 C 297.182 -0.450838 -1.90333 0
M  V30 3206 O 298.388 -0.487617 -2.67085 0
M  V30 3207 C 296.844 -2.98812 -2.00598 0
M  V30 3208 C 296.452 -4.30027 -1.25621 0
M  V30 3209 C 298.196 -3.23795 -2.74513 0
M  V30 3210 C 296.103 -5.50903 -2.1508 0
M  V30 3211 H 295.033 -0.629776 -0.414606 0
M  V30 3212 H 297.684 -1.79907 -0.361348 0
M  V30 3213 H 296.066 -2.8174 -2.78278 0
M  V30 3214 H 297.24 -4.57745 -0.529739 0
M  V30 3215 H 295.555 -4.11522 -0.635496 0
M  V30 3216 H 298.152 -4.11289 -3.41681 0
M  V30 3217 H 298.495 -2.40045 -3.40123 0
M  V30 3218 H 299.028 -3.41561 -2.03914 0
M  V30 3219 H 295.767 -6.37143 -1.54041 0
M  V30 3220 H 295.287 -5.27459 -2.85565 0
M  V30 3221 H 296.966 -5.85865 -2.74538 0
M  V30 3222 N 297.098 0.621204 -1.44841 0
M  V30 3223 C 298.509 1.20298 -1.42777 0
M  V30 3224 C 298.86 1.95639 -0.148259 0
M  V30 3225 O 297.985 2.02955 0.750892 0
M  V30 3226 C 298.58 2.1882 -2.58657 0
M  V30 3227 C 297.139 2.72403 -2.59756 0
M  V30 3228 C 296.286 1.4757 -2.34773 0
M  V30 3229 H 299.237 0.411297 -1.53278 0
M  V30 3230 H 299.258 3.01607 -2.31977 0
M  V30 3231 H 298.77 1.63957 -3.51766 0
M  V30 3232 H 296.871 3.31242 -1.70615 0
M  V30 3233 H 296.984 3.17765 -3.58556 0
M  V30 3234 H 295.348 1.76051 -1.8406 0
M  V30 3235 H 296.131 0.945954 -3.3001 0
M  V30 3236 N 298.576 1.31904 0.862503 0
M  V30 3237 C 299.486 1.22161 2.00285 0
M  V30 3238 C 300.502 0.136785 1.73462 0
M  V30 3239 O 301.678 0.355994 1.98229 0
M  V30 3240 C 298.743 0.937093 3.33796 0
M  V30 3241 C 297.804 2.10957 3.73893 0
M  V30 3242 C 297.037 1.83853 5.01033 0
M  V30 3243 O 297.26 0.777274 5.65079 0
M  V30 3244 O 296.194 2.69741 5.38074 0
M  V30 3245 H 300.02 2.18008 2.11439 0
M  V30 3246 H 297.605 1.11716 0.991957 0
M  V30 3247 H 299.487 0.794583 4.13841 0
M  V30 3248 H 298.162 0.00871894 3.23699 0
M  V30 3249 H 297.069 2.30752 2.94456 0
M  V30 3250 H 298.402 3.02046 3.88625 0
M  V30 3251 N 300.054 -1.07777 1.14986 0
M  V30 3252 C 300.964 -2.18404 0.856546 0
M  V30 3253 C 301.98 -1.73211 -0.165485 0
M  V30 3254 O 303.156 -2.01399 0.00755219 0
M  V30 3255 C 300.221 -3.44977 0.34526 0
M  V30 3256 C 299.282 -4.0476 1.43065 0
M  V30 3257 C 298.515 -5.25291 0.943663 0
M  V30 3258 O 298.738 -5.70004 -0.212426 0
M  V30 3259 O 297.672 -5.76638 1.72547 0
M  V30 3260 H 301.498 -2.45978 1.78125 0
M  V30 3261 H 299.083 -1.17033 0.928631 0
M  V30 3262 H 300.965 -4.21348 0.0663671 0
M  V30 3263 H 299.64 -3.18965 -0.551631 0
M  V30 3264 H 298.547 -3.29949 1.76309 0
M  V30 3265 H 299.88 -4.35035 2.30229 0
M  V30 3266 N 301.532 -0.945985 -1.26051 0
M  V30 3267 C 302.762 -0.612136 -1.97323 0
M  V30 3268 C 303.17 0.818171 -1.70595 0
M  V30 3269 O 302.513 1.55777 -0.973613 0
M  V30 3270 C 302.575 -0.780347 -3.50929 0
M  V30 3271 C 302.239 -2.18619 -4.01317 0
M  V30 3272 C 303.236 -3.16209 -4.12683 0
M  V30 3273 C 300.921 -2.50805 -4.35203 0
M  V30 3274 C 302.915 -4.44085 -4.57238 0
M  V30 3275 C 300.602 -3.78912 -4.79446 0
M  V30 3276 C 301.6 -4.75365 -4.90425 0
M  V30 3277 O 301.288 -6.01191 -5.3369 0
M  V30 3278 H 301.02 -0.229134 -0.635982 0
M  V30 3279 H 303.574 -1.27036 -1.61404 0
M  V30 3280 H 301.804 -0.0649864 -3.86645 0
M  V30 3281 H 303.493 -0.448842 -4.03411 0
M  V30 3282 H 304.259 -2.92668 -3.86744 0
M  V30 3283 H 300.138 -1.76463 -4.2589 0
M  V30 3284 H 303.682 -5.19373 -4.65723 0
M  V30 3285 H 299.579 -4.02265 -5.0483 0
M  V30 3286 H 300.347 -6.04442 -5.51899 0
M  V30 3287 N 303.011 1.40521 -0.713556 0
M  V30 3288 C 303.941 2.33381 -0.0743864 0
M  V30 3289 C 304.922 1.52784 0.747735 0
M  V30 3290 O 306.107 1.81258 0.697071 0
M  V30 3291 C 303.237 3.36748 0.849598 0
M  V30 3292 C 302.191 4.27793 0.133247 0
M  V30 3293 C 301.517 5.21679 1.17281 0
M  V30 3294 C 302.817 5.12415 -1.01134 0
M  V30 3295 H 304.511 2.87081 -0.850007 0
M  V30 3296 H 302.057 1.38034 -0.410201 0
M  V30 3297 H 304.01 4.00648 1.30612 0
M  V30 3298 H 302.734 2.81439 1.65709 0
M  V30 3299 H 301.393 3.65342 -0.303426 0
M  V30 3300 H 301.041 4.62677 1.9733 0
M  V30 3301 H 300.741 5.83435 0.698397 0
M  V30 3302 H 302.265 5.88456 1.62947 0
M  V30 3303 H 303.679 5.69781 -0.634274 0
M  V30 3304 H 302.076 5.83203 -1.41399 0
M  V30 3305 H 303.146 4.48514 -1.84292 0
M  V30 3306 N 304.489 0.459591 1.5075 0
M  V30 3307 C 305.766 -0.160371 1.94941 0
M  V30 3308 C 306.146 -1.58048 1.39943 0
M  V30 3309 O 305.494 -2.206 0.595629 0
M  V30 3310 C 305.704 -0.115432 3.48809 0
M  V30 3311 C 307.052 -0.310026 4.23467 0
M  V30 3312 O 308.076 -0.192543 3.55679 0
M  V30 3313 O 306.935 -0.546031 5.43765 0
M  V30 3314 H 304.029 -0.117925 0.818549 0
M  V30 3315 H 306.575 0.519169 1.61563 0
M  V30 3316 H 305.347 0.87652 3.81357 0
M  V30 3317 H 304.97 -0.836928 3.88692 0
M  V30 3318 N 305.967 -1.56429 0.191757 0
M  V30 3319 C 306.899 -2.16154 -0.762245 0
M  V30 3320 C 307.912 -1.12247 -1.17917 0
M  V30 3321 O 309.101 -1.39353 -1.11548 0
M  V30 3322 C 306.201 -2.70606 -2.04024 0
M  V30 3323 C 305.374 -3.99381 -1.78364 0
M  V30 3324 C 304.433 -4.38692 -2.90578 0
M  V30 3325 O 303.459 -5.06179 -2.6033 0
M  V30 3326 N 304.661 -4.01922 -4.18854 0
M  V30 3327 H 307.426 -2.98643 -0.251526 0
M  V30 3328 H 304.987 -1.61897 0.00967373 0
M  V30 3329 H 306.979 -2.93891 -2.78227 0
M  V30 3330 H 305.549 -1.9259 -2.46227 0
M  V30 3331 H 304.769 -3.84262 -0.879581 0
M  V30 3332 H 306.057 -4.83445 -1.58614 0
M  V30 3333 H 305.455 -3.47631 -4.46283 0
M  V30 3334 H 304.012 -4.30165 -4.89695 0
M  V30 3335 N 307.445 0.0818655 -1.57387 0
M  V30 3336 C 308.408 1.08265 -2.02018 0
M  V30 3337 C 309.408 1.32183 -0.915664 0
M  V30 3338 O 310.598 1.28073 -1.18081 0
M  V30 3339 C 307.73 2.42871 -2.39221 0
M  V30 3340 H 308.923 0.698204 -2.91659 0
M  V30 3341 H 306.476 0.327303 -1.52835 0
M  V30 3342 H 307.211 2.86167 -1.52575 0
M  V30 3343 H 306.996 2.26855 -3.19811 0
M  V30 3344 H 308.486 3.14826 -2.74362 0
M  V30 3345 N 308.923 1.53595 0.353017 0
M  V30 3346 C 310.339 1.43648 0.695516 0
M  V30 3347 C 310.539 0.585617 1.92802 0
M  V30 3348 O 309.595 0.0729223 2.52395 0
M  V30 3349 C 310.908 2.8701 0.896991 0
M  V30 3350 C 312.456 2.96723 0.996209 0
M  V30 3351 C 312.931 4.41173 1.23007 0
M  V30 3352 N 314.422 4.44657 1.29749 0
M  V30 3353 C 315.157 5.53547 1.49577 0
M  V30 3354 N 314.653 6.72461 1.66639 0
M  V30 3355 N 316.446 5.41145 1.52048 0
M  V30 3356 H 308.597 2.07415 -0.457481 0
M  V30 3357 H 310.86 0.9372 -0.142687 0
M  V30 3358 H 310.566 3.51644 0.0629938 0
M  V30 3359 H 310.44 3.31401 1.80148 0
M  V30 3360 H 312.827 2.32235 1.82074 0
M  V30 3361 H 312.908 2.55707 0.0688331 0
M  V30 3362 H 312.552 5.06238 0.410505 0
M  V30 3363 H 312.482 4.79772 2.17086 0
M  V30 3364 H 314.973 3.58963 1.18126 0
M  V30 3365 H 315.286 7.51214 1.81378 0
M  V30 3366 H 313.631 6.75423 1.63794 0
M  V30 3367 H 316.822 4.47205 1.38294 0
M  V30 3368 H 316.995 6.26068 1.67159 0
M  V30 3369 N 310.401 -0.613514 1.45168 0
M  V30 3370 C 311.311 -1.75296 1.55912 0
M  V30 3371 C 312.327 -1.68244 0.443856 0
M  V30 3372 O 313.503 -1.88706 0.70371 0
M  V30 3373 C 310.568 -3.1174 1.5172 0
M  V30 3374 C 309.629 -3.30291 2.74238 0
M  V30 3375 C 308.862 -4.60226 2.70236 0
M  V30 3376 O 309.085 -5.42168 1.77229 0
M  V30 3377 O 308.019 -4.81361 3.61352 0
M  V30 3378 H 311.845 -1.69183 2.52212 0
M  V30 3379 H 309.43 -0.776886 1.27612 0
M  V30 3380 H 311.312 -3.93044 1.51968 0
M  V30 3381 H 309.987 -3.18357 0.585697 0
M  V30 3382 H 308.894 -2.48598 2.79553 0
M  V30 3383 H 310.227 -3.28547 3.66494 0
M  V30 3384 N 311.879 -1.3236 -0.855495 0
M  V30 3385 C 313.109 -1.25688 -1.6397 0
M  V30 3386 C 313.517 0.177592 -1.88365 0
M  V30 3387 O 312.86 1.12485 -1.45234 0
M  V30 3388 C 312.922 -1.94602 -3.02275 0
M  V30 3389 C 312.586 -3.43937 -3.00926 0
M  V30 3390 C 313.583 -4.39435 -2.77835 0
M  V30 3391 C 311.268 -3.85858 -3.21588 0
M  V30 3392 C 313.262 -5.74829 -2.75409 0
M  V30 3393 C 310.949 -5.21361 -3.18789 0
M  V30 3394 C 311.947 -6.15658 -2.95727 0
M  V30 3395 O 311.635 -7.48681 -2.928 0
M  V30 3396 H 311.367 -0.434972 -0.51747 0
M  V30 3397 H 313.921 -1.75023 -1.075 0
M  V30 3398 H 312.151 -1.39836 -3.60531 0
M  V30 3399 H 313.84 -1.81651 -3.62985 0
M  V30 3400 H 314.606 -4.08374 -2.6164 0
M  V30 3401 H 310.485 -3.12883 -3.38564 0
M  V30 3402 H 314.029 -6.48404 -2.57328 0
M  V30 3403 H 309.926 -5.52052 -3.34528 0
M  V30 3404 H 310.694 -7.5803 -3.0876 0
M  V30 3405 N 313.357 1.07166 -1.15556 0
M  V30 3406 C 314.307 2.12649 -0.82247 0
M  V30 3407 C 315.291 1.59725 0.194129 0
M  V30 3408 O 316.483 1.76999 -0.00540402 0
M  V30 3409 C 313.612 3.41847 -0.315572 0
M  V30 3410 C 312.698 4.0162 -1.36244 0
M  V30 3411 N 313.089 4.35625 -2.5703 0
M  V30 3412 C 311.387 4.29114 -1.21562 0
M  V30 3413 C 312.088 4.83017 -3.24144 0
M  V30 3414 N 311.064 4.81906 -2.51531 0
M  V30 3415 H 314.866 2.36776 -1.74111 0
M  V30 3416 H 312.38 1.24622 -1.0413 0
M  V30 3417 H 314.377 4.16859 -0.0585855 0
M  V30 3418 H 313.037 3.19163 0.597105 0
M  V30 3419 H 314.048 4.26253 -2.94158 0
M  V30 3420 H 310.725 4.15919 -0.362988 0
M  V30 3421 H 312.115 5.18605 -4.27198 0
M  V30 3422 N 314.835 0.952656 1.25548 0
M  V30 3423 C 315.745 0.47782 2.29682 0
M  V30 3424 C 316.761 -0.453859 1.67977 0
M  V30 3425 O 317.937 -0.330587 1.98668 0
M  V30 3426 C 315.002 -0.238655 3.45878 0
M  V30 3427 C 314.063 0.730994 4.23031 0
M  V30 3428 C 313.296 0.0486165 5.33678 0
M  V30 3429 O 313.519 -1.16612 5.58353 0
M  V30 3430 O 312.453 0.733152 5.97418 0
M  V30 3431 H 316.279 1.34312 2.72386 0
M  V30 3432 H 313.864 0.719026 1.30959 0
M  V30 3433 H 315.746 -0.641774 4.16484 0
M  V30 3434 H 314.421 -1.07916 3.05181 0
M  V30 3435 H 313.328 1.18428 3.5486 0
M  V30 3436 H 314.661 1.53946 4.67506 0
M  V30 3437 N 316.313 -1.40141 0.720998 0
M  V30 3438 C 317.26 -2.30688 0.071919 0
M  V30 3439 C 318.23 -1.48476 -0.744584 0
M  V30 3440 O 319.415 -1.77201 -0.707423 0
M  V30 3441 C 316.555 -3.34724 -0.839855 0
M  V30 3442 C 315.668 -4.31998 -0.0122438 0
M  V30 3443 C 314.803 -5.23102 -0.923995 0
M  V30 3444 C 313.842 -6.12033 -0.0907969 0
M  V30 3445 N 312.979 -6.95537 -0.957718 0
M  V30 3446 H 317.819 -2.85628 0.849755 0
M  V30 3447 H 315.356 -1.40653 0.430726 0
M  V30 3448 H 317.314 -3.93618 -1.38279 0
M  V30 3449 H 315.944 -2.81274 -1.58381 0
M  V30 3450 H 314.996 -3.74841 0.64794 0
M  V30 3451 H 316.308 -4.94772 0.632595 0
M  V30 3452 H 315.462 -5.86953 -1.53527 0
M  V30 3453 H 314.201 -4.60615 -1.60264 0
M  V30 3454 H 313.206 -5.47207 0.533377 0
M  V30 3455 H 314.431 -6.76581 0.584428 0
M  V30 3456 H 312.377 -6.35633 -1.62192 0
M  V30 3457 H 312.294 -7.55099 -0.36904 0
M  V30 3458 H 313.562 -7.63832 -1.555 0
M  V30 3459 N 317.792 -0.46758 -1.50504 0
M  V30 3460 C 318.722 0.318381 -2.31319 0
M  V30 3461 C 319.703 0.993564 -1.38066 0
M  V30 3462 O 320.888 0.991411 -1.66987 0
M  V30 3463 C 318.018 1.40275 -3.17711 0
M  V30 3464 C 316.972 0.849373 -4.19487 0
M  V30 3465 C 316.298 2.03177 -4.94594 0
M  V30 3466 C 317.598 -0.136942 -5.2212 0
M  V30 3467 H 319.292 -0.356106 -2.97275 0
M  V30 3468 H 316.838 -0.172703 -1.42961 0
M  V30 3469 H 318.791 1.96004 -3.73042 0
M  V30 3470 H 317.515 2.10596 -2.49634 0
M  V30 3471 H 316.174 0.314076 -3.65252 0
M  V30 3472 H 315.822 2.72187 -4.22993 0
M  V30 3473 H 315.522 1.66774 -5.63436 0
M  V30 3474 H 317.046 2.59403 -5.52759 0
M  V30 3475 H 318.46 0.331056 -5.72343 0
M  V30 3476 H 316.857 -0.41507 -5.98663 0
M  V30 3477 H 317.927 -1.06398 -4.73083 0
M  V30 3478 N 319.27 1.56325 -0.20005 0
M  V30 3479 C 320.516 1.98012 0.438059 0
M  V30 3480 C 320.849 1.08702 1.60927 0
M  V30 3481 O 320.124 0.140064 1.93995 0
M  V30 3482 C 320.407 3.48841 0.893419 0
M  V30 3483 C 320.26 4.48928 -0.279947 0
M  V30 3484 C 321.579 4.03498 1.75719 0
M  V30 3485 H 318.698 0.719918 0.157757 0
M  V30 3486 H 321.34 1.87743 -0.291968 0
M  V30 3487 H 319.49 3.57723 1.51547 0
M  V30 3488 H 321.162 4.52079 -0.91772 0
M  V30 3489 H 319.405 4.23694 -0.930919 0
M  V30 3490 H 320.076 5.5194 0.0812601 0
M  V30 3491 H 322.552 3.97427 1.23253 0
M  V30 3492 H 321.428 5.09393 2.04476 0
M  V30 3493 H 321.689 3.4906 2.71311 0
M  V30 3494 N 320.748 -0.0735177 1.57428 0
M  V30 3495 C 321.658 -1.10547 2.06922 0
M  V30 3496 C 322.674 -1.42506 0.998402 0
M  V30 3497 O 323.85 -1.52717 1.31299 0
M  V30 3498 C 320.915 -2.40019 2.50184 0
M  V30 3499 C 319.976 -2.15046 3.71556 0
M  V30 3500 C 319.209 -3.38345 4.12745 0
M  V30 3501 O 319.432 -4.47399 3.53822 0
M  V30 3502 O 318.366 -3.2666 5.05546 0
M  V30 3503 H 322.192 -0.715013 2.95163 0
M  V30 3504 H 319.777 -0.287531 1.46607 0
M  V30 3505 H 321.659 -3.16218 2.78539 0
M  V30 3506 H 320.334 -2.78447 1.65072 0
M  V30 3507 H 319.241 -1.36558 3.48285 0
M  V30 3508 H 320.574 -1.81499 4.57514 0
M  V30 3509 N 322.226 -1.5378 -0.344866 0
M  V30 3510 C 323.472 -1.71216 -1.08687 0
M  V30 3511 C 323.805 -0.473281 -1.88345 0
M  V30 3512 O 323.08 0.52968 -1.87149 0
M  V30 3513 C 323.363 -2.97486 -2.02914 0
M  V30 3514 C 323.216 -4.31579 -1.26727 0
M  V30 3515 C 324.535 -3.19422 -3.0275 0
M  V30 3516 H 321.654 -0.62301 -0.393735 0
M  V30 3517 H 324.296 -1.8645 -0.365563 0
M  V30 3518 H 322.446 -2.84629 -2.64421 0
M  V30 3519 H 324.118 -4.56284 -0.67845 0
M  V30 3520 H 322.361 -4.30049 -0.569273 0
M  V30 3521 H 323.032 -5.16106 -1.95803 0
M  V30 3522 H 325.508 -3.316 -2.51357 0
M  V30 3523 H 324.384 -4.09169 -3.65885 0
M  V30 3524 H 324.645 -2.35656 -3.74057 0
M  V30 3525 N 323.704 0.605807 -1.45491 0
M  V30 3526 C 324.667 1.69836 -1.5391 0
M  V30 3527 C 325.667 1.55261 -0.418424 0
M  V30 3528 O 326.857 1.60296 -0.681965 0
M  V30 3529 C 323.989 3.09117 -1.43734 0
M  V30 3530 H 325.182 1.63738 -2.51257 0
M  V30 3531 H 322.735 0.821689 -1.32959 0
M  V30 3532 H 323.47 3.20791 -0.475788 0
M  V30 3533 H 323.255 3.21104 -2.25021 0
M  V30 3534 H 324.745 3.88696 -1.52661 0
M  V30 3535 N 325.182 1.32811 0.848464 0
M  V30 3536 C 326.145 1.22194 1.9391 0
M  V30 3537 C 327.145 0.143404 1.60159 0
M  V30 3538 O 328.335 0.394253 1.6968 0
M  V30 3539 C 325.467 0.88067 3.29328 0
M  V30 3540 H 326.66 2.19127 2.04752 0
M  V30 3541 H 324.213 1.16731 1.0394 0
M  V30 3542 H 324.948 -0.0865776 3.24184 0
M  V30 3543 H 324.733 1.66052 3.55203 0
M  V30 3544 H 326.223 0.830871 4.09251 0
M  V30 3545 N 326.66 -1.06551 1.16123 0
M  V30 3546 C 327.937 -1.76097 0.85142 0
M  V30 3547 C 328.317 -2.00802 -0.6513 0
M  V30 3548 O 327.665 -1.63302 -1.59827 0
M  V30 3549 C 327.875 -3.06384 1.67122 0
M  V30 3550 C 329.223 -3.80585 1.88255 0
M  V30 3551 O 330.247 -3.16218 1.63966 0
M  V30 3552 O 329.106 -4.96212 2.2899 0
M  V30 3553 H 326.2 -0.765102 0.313923 0
M  V30 3554 H 328.746 -1.12844 1.26745 0
M  V30 3555 H 327.518 -2.84071 2.69108 0
M  V30 3556 H 327.141 -3.77371 1.25206 0
M  V30 3557 N 328.138 -0.959301 -1.25041 0
M  V30 3558 C 329.385 -0.616611 -1.92884 0
M  V30 3559 C 329.713 0.847036 -1.75087 0
M  V30 3560 O 328.968 1.62374 -1.09239 0
M  V30 3561 C 329.267 -0.927136 -3.45165 0
M  V30 3562 C 328.933 -2.37757 -3.83122 0
M  V30 3563 C 327.595 -2.77402 -3.93194 0
M  V30 3564 C 329.947 -3.31929 -4.01836 0
M  V30 3565 C 327.275 -4.10277 -4.19392 0
M  V30 3566 C 329.627 -4.64423 -4.29528 0
M  V30 3567 C 328.291 -5.03857 -4.37818 0
M  V30 3568 H 327.561 -0.225634 -0.705812 0
M  V30 3569 H 330.208 -1.20921 -1.48493 0
M  V30 3570 H 328.513 -0.252195 -3.90987 0
M  V30 3571 H 330.21 -0.6405 -3.95852 0
M  V30 3572 H 326.8 -2.06013 -3.75841 0
M  V30 3573 H 330.984 -3.02488 -3.93465 0
M  V30 3574 H 326.24 -4.40467 -4.24027 0
M  V30 3575 H 330.414 -5.37369 -4.42953 0
M  V30 3576 H 328.041 -6.06843 -4.57871 0
M  V30 3577 N 329.616 1.39756 -0.72842 0
M  V30 3578 C 330.893 1.94574 -0.200079 0
M  V30 3579 C 331.273 1.66569 1.29684 0
M  V30 3580 O 330.621 0.990326 2.05924 0
M  V30 3581 C 330.831 3.45004 -0.526608 0
M  V30 3582 C 332.179 4.21965 -0.472318 0
M  V30 3583 O 333.203 3.53173 -0.463413 0
M  V30 3584 O 332.062 5.44552 -0.461075 0
M  V30 3585 H 329.156 0.826289 -0.0342851 0
M  V30 3586 H 331.702 1.49293 -0.806829 0
M  V30 3587 H 330.474 3.58796 -1.56144 0
M  V30 3588 H 330.097 3.97449 0.109449 0
M  V30 3589 N 331.094 0.475555 1.50254 0
M  V30 3590 C 332.004 -0.321501 2.32387 0
M  V30 3591 C 333.02 -0.991755 1.42969 0
M  V30 3592 O 334.196 -0.978747 1.76018 0
M  V30 3593 C 331.261 -1.38667 3.17762 0
M  V30 3594 C 330.322 -0.732538 4.23004 0
M  V30 3595 C 329.555 -1.74695 5.04299 0
M  V30 3596 O 329.778 -2.97399 4.86734 0
M  V30 3597 O 328.712 -1.31631 5.8733 0
M  V30 3598 H 332.538 0.350071 3.01676 0
M  V30 3599 H 330.123 0.237321 1.47503 0
M  V30 3600 H 332.005 -2.00354 3.70724 0
M  V30 3601 H 330.68 -2.04163 2.51196 0
M  V30 3602 H 329.587 -0.0765902 3.74022 0
M  V30 3603 H 330.92 -0.120452 4.92053 0
M  V30 3604 N 332.573 -1.56217 0.208337 0
M  V30 3605 C 333.521 -2.21053 -0.723769 0
M  V30 3606 C 334.515 -1.18578 -1.20978 0
M  V30 3607 O 335.721 -1.36691 -1.17114 0
M  V30 3608 H 332.096 -0.708595 -0.251788 0
M  V30 3609 H 334.067 -2.98006 -0.153365 0
M  V30 3610 C 332.816 -2.89417 -1.927 0
M  V30 3611 H 332.139 -3.68019 -1.56212 0
M  V30 3612 H 333.579 -3.38201 -2.55727 0
M  V30 3613 C 332.038 -1.91166 -2.77411 0
M  V30 3614 O 332.568 -1.42026 -3.75754 0
M  V30 3615 N 330.774 -1.59105 -2.43175 0
M  V30 3616 H 330.321 -1.99259 -1.63259 0
M  V30 3617 H 330.279 -0.936255 -3.00136 0
M  V30 3618 N 334.051 0.0651679 -1.57465 0
M  V30 3619 C 335.3 0.761916 -1.86756 0
M  V30 3620 C 335.613 1.78406 -0.801925 0
M  V30 3621 O 336.819 2.53084 -0.982885 0
M  V30 3622 C 335.275 1.40603 -3.31299 0
M  V30 3623 C 334.883 0.422115 -4.46007 0
M  V30 3624 C 336.627 2.08476 -3.69781 0
M  V30 3625 C 334.534 1.07252 -5.81593 0
M  V30 3626 H 333.464 0.288308 -0.696702 0
M  V30 3627 H 336.115 0.015344 -1.83494 0
M  V30 3628 H 334.497 2.20109 -3.29193 0
M  V30 3629 H 335.671 -0.343613 -4.59517 0
M  V30 3630 H 333.986 -0.152527 -4.16121 0
M  V30 3631 H 336.583 2.57925 -4.68379 0
M  V30 3632 H 336.926 2.88712 -2.99919 0
M  V30 3633 H 337.459 1.35792 -3.73905 0
M  V30 3634 H 334.198 0.310342 -6.54765 0
M  V30 3635 H 333.718 1.80895 -5.71872 0
M  V30 3636 H 335.397 1.59043 -6.27148 0
M  V30 3637 N 335.529 1.53961 0.336706 0
M  V30 3638 C 336.462 1.77255 1.43722 0
M  V30 3639 C 337.44 0.62193 1.50236 0
M  V30 3640 O 338.624 0.857874 1.67847 0
M  V30 3641 C 335.751 1.87733 2.81912 0
M  V30 3642 C 334.797 3.09933 2.92991 0
M  V30 3643 S 335.63 4.68836 2.58753 0
M  V30 3644 C 336.786 4.82202 3.99039 0
M  V30 3645 H 337.019 2.70322 1.23748 0
M  V30 3646 H 334.552 1.44917 0.532777 0
M  V30 3647 H 336.51 1.94455 3.61521 0
M  V30 3648 H 335.171 0.956666 2.99177 0
M  V30 3649 H 334.364 3.1396 3.94265 0
M  V30 3650 H 333.966 3.01472 2.21338 0
M  V30 3651 H 336.258 4.64032 4.9364 0
M  V30 3652 H 337.201 5.84298 4.00002 0
M  V30 3653 H 337.609 4.10604 3.87382 0
M  V30 3654 N 337.007 -0.598083 1.45811 0
M  V30 3655 C 337.937 -1.71873 1.58057 0
M  V30 3656 C 338.918 -1.64533 0.431615 0
M  V30 3657 O 340.103 -1.82787 0.65595 0
M  V30 3658 C 337.233 -3.10495 1.55597 0
M  V30 3659 C 336.187 -3.32654 2.69305 0
M  V30 3660 C 335.513 -4.71646 2.51902 0
M  V30 3661 C 336.813 -3.21981 4.11248 0
M  V30 3662 H 338.507 -1.61881 2.51863 0
M  V30 3663 H 336.053 -0.777372 1.21214 0
M  V30 3664 H 338.006 -3.88699 1.6276 0
M  V30 3665 H 336.73 -3.2135 0.583255 0
M  V30 3666 H 335.389 -2.56843 2.61586 0
M  V30 3667 H 335.037 -4.79246 1.52748 0
M  V30 3668 H 334.737 -4.87426 3.2816 0
M  V30 3669 H 336.261 -5.52038 2.60933 0
M  V30 3670 H 337.675 -3.90049 4.20161 0
M  V30 3671 H 336.072 -3.49289 4.87972 0
M  V30 3672 H 337.142 -2.1928 4.32486 0
M  V30 3673 N 338.485 -1.33259 -0.841409 0
M  V30 3674 C 339.432 -1.23302 -1.95103 0
M  V30 3675 C 340.402 -0.112204 -1.65721 0
M  V30 3676 O 341.587 -0.290038 -1.88583 0
M  V30 3677 C 338.727 -0.975583 -3.31023 0
M  V30 3678 C 337.84 -2.18243 -3.72819 0
M  V30 3679 C 336.975 -1.85936 -4.97595 0
M  V30 3680 C 336.014 -3.02866 -5.3192 0
M  V30 3681 N 335.151 -2.70565 -6.47873 0
M  V30 3682 H 339.991 -2.18207 -2.02952 0
M  V30 3683 H 337.528 -1.0851 -0.993173 0
M  V30 3684 H 339.486 -0.80677 -4.09325 0
M  V30 3685 H 338.116 -0.0632755 -3.22738 0
M  V30 3686 H 337.168 -2.46107 -2.90061 0
M  V30 3687 H 338.48 -3.05666 -3.94169 0
M  V30 3688 H 337.634 -1.65684 -5.83638 0
M  V30 3689 H 336.373 -0.957452 -4.78209 0
M  V30 3690 H 335.378 -3.23736 -4.44382 0
M  V30 3691 H 336.603 -3.93809 -5.53255 0
M  V30 3692 H 334.549 -1.8293 -6.29978 0
M  V30 3693 H 334.466 -3.51519 -6.69306 0
M  V30 3694 H 335.734 -2.53774 -7.37034 0
M  V30 3695 N 339.963 1.05934 -1.16686 0
M  V30 3696 C 341.193 1.82226 -0.973515 0
M  V30 3697 C 341.601 1.8297 0.481532 0
M  V30 3698 O 340.944 1.25009 1.34604 0
M  V30 3699 C 341.006 3.29897 -1.42858 0
M  V30 3700 C 340.67 3.52849 -2.90425 0
M  V30 3701 C 341.667 3.45595 -3.88407 0
M  V30 3702 C 339.352 3.80053 -3.28428 0
M  V30 3703 C 341.346 3.65217 -5.22394 0
M  V30 3704 C 339.033 3.99325 -4.62583 0
M  V30 3705 C 340.031 3.91905 -5.59374 0
M  V30 3706 O 339.719 4.10647 -6.91104 0
M  V30 3707 H 339.451 0.581314 -0.345036 0
M  V30 3708 H 342.005 1.3453 -1.55212 0
M  V30 3709 H 340.235 3.78472 -0.793477 0
M  V30 3710 H 341.924 3.87692 -1.20207 0
M  V30 3711 H 342.69 3.24564 -3.60393 0
M  V30 3712 H 338.569 3.84936 -2.53664 0
M  V30 3713 H 342.113 3.59341 -5.9793 0
M  V30 3714 H 338.01 4.19846 -4.90306 0
M  V30 3715 H 338.778 4.27915 -6.97733 0
M  V30 3716 N 341.441 0.965919 1.2453 0
M  V30 3717 C 342.371 0.513476 2.27784 0
M  V30 3718 C 343.352 -0.445974 1.6415 0
M  V30 3719 O 344.537 -0.342485 1.91156 0
M  V30 3720 C 341.667 -0.198839 3.4673 0
M  V30 3721 C 340.621 0.676456 4.2262 0
M  V30 3722 C 339.947 -0.167248 5.34438 0
M  V30 3723 C 341.247 1.96017 4.84123 0
M  V30 3724 H 342.941 1.3765 2.65881 0
M  V30 3725 H 340.487 0.663321 1.27813 0
M  V30 3726 H 342.44 -0.526567 4.18097 0
M  V30 3727 H 341.164 -1.0962 3.07654 0
M  V30 3728 H 339.823 0.98743 3.53052 0
M  V30 3729 H 339.471 -1.0647 4.91603 0
M  V30 3730 H 339.171 0.415181 5.86131 0
M  V30 3731 H 340.695 -0.489688 6.08633 0
M  V30 3732 H 342.109 1.69814 5.47573 0
M  V30 3733 H 340.506 2.48918 5.4604 0
M  V30 3734 H 341.576 2.65622 4.05676 0
M  V30 3735 N 342.919 -1.39368 0.735821 0
M  V30 3736 C 343.829 -2.34395 0.0979693 0
M  V30 3737 C 344.845 -1.58361 -0.720968 0
M  V30 3738 O 346.021 -1.90648 -0.649245 0
M  V30 3739 C 343.086 -3.37393 -0.797916 0
M  V30 3740 C 342.147 -4.29287 0.0333662 0
M  V30 3741 C 341.38 -5.27365 -0.819854 0
M  V30 3742 O 341.603 -5.31959 -2.05855 0
M  V30 3743 O 340.537 -6.01389 -0.248079 0
M  V30 3744 H 344.363 -2.90601 0.882315 0
M  V30 3745 H 341.948 -1.40909 0.4965 0
M  V30 3746 H 343.83 -4.00505 -1.31048 0
M  V30 3747 H 342.505 -2.83571 -1.56106 0
M  V30 3748 H 341.412 -3.69395 0.591475 0
M  V30 3749 H 342.745 -4.86317 0.758752 0
M  V30 3750 N 344.397 -0.483516 -1.5 0
M  V30 3751 C 345.645 0.067027 -2.01989 0
M  V30 3752 C 345.966 1.3909 -1.36671 0
M  V30 3753 O 345.236 1.88978 -0.516152 0
M  V30 3754 H 343.816 0.0277606 -0.746484 0
M  V30 3755 H 346.478 -0.636773 -1.84204 0
M  V30 3756 H 345.574 0.209484 -3.11396 0
M  V30 3757 N 345.875 1.56104 -0.216619 0
M  V30 3758 C 346.785 2.23694 0.706982 0
M  V30 3759 C 347.801 1.24295 1.21765 0
M  V30 3760 O 348.977 1.57094 1.2603 0
M  V30 3761 C 346.042 2.8998 1.90033 0
M  V30 3762 C 345.103 4.04708 1.43213 0
M  V30 3763 C 344.336 4.67824 2.56859 0
M  V30 3764 O 344.559 4.29913 3.74874 0
M  V30 3765 O 343.493 5.56905 2.28343 0
M  V30 3766 H 347.319 3.03272 0.161235 0
M  V30 3767 H 344.904 1.49394 0.0136177 0
M  V30 3768 H 346.786 3.31837 2.59735 0
M  V30 3769 H 345.461 2.13365 2.43428 0
M  V30 3770 H 344.368 3.6743 0.70327 0
M  V30 3771 H 345.701 4.83051 0.944615 0
M  V30 3772 N 347.353 -0.0568162 1.57498 0
M  V30 3773 C 348.263 -1.08346 2.08083 0
M  V30 3774 C 349.279 -1.41439 1.01346 0
M  V30 3775 O 350.455 -1.51316 1.32912 0
M  V30 3776 C 347.52 -2.37352 2.52715 0
M  V30 3777 C 346.581 -2.11093 3.73816 0
M  V30 3778 C 345.814 -3.33949 4.1631 0
M  V30 3779 O 346.037 -4.43622 3.58547 0
M  V30 3780 O 344.971 -3.21279 5.08983 0
M  V30 3781 H 348.797 -0.683667 2.95905 0
M  V30 3782 H 346.382 -0.271965 1.46904 0
M  V30 3783 H 348.264 -3.13246 2.81877 0
M  V30 3784 H 346.939 -2.76681 1.68016 0
M  V30 3785 H 345.846 -1.32856 3.49714 0
M  V30 3786 H 347.179 -1.76637 4.59413 0
M  V30 3787 N 348.832 -1.54138 -0.328536 0
M  V30 3788 C 350.243 -1.63395 -0.903272 0
M  V30 3789 C 350.594 -0.524828 -1.8905 0
M  V30 3790 O 349.719 0.343068 -2.13663 0
M  V30 3791 C 350.314 -2.9618 -1.64507 0
M  V30 3792 C 348.873 -3.0765 -2.1686 0
M  V30 3793 C 348.02 -2.58933 -0.992416 0
M  V30 3794 H 350.971 -1.58344 -0.106253 0
M  V30 3795 H 350.992 -2.86061 -2.50897 0
M  V30 3796 H 350.504 -3.76884 -0.926302 0
M  V30 3797 H 348.605 -2.31611 -2.91868 0
M  V30 3798 H 348.718 -4.1337 -2.42202 0
M  V30 3799 H 347.082 -2.14706 -1.37016 0
M  V30 3800 H 347.865 -3.42089 -0.288041 0
M  V30 3801 N 350.31 0.590341 -1.46126 0
M  V30 3802 C 351.538 1.37504 -1.54597 0
M  V30 3803 C 351.953 1.87897 -0.184447 0
M  V30 3804 O 351.31 1.63192 0.816984 0
M  V30 3805 C 351.361 2.56779 -2.54454 0
M  V30 3806 O 351.082 2.08476 -3.85317 0
M  V30 3807 C 352.583 3.49427 -2.72792 0
M  V30 3808 H 349.803 0.420325 -0.523037 0
M  V30 3809 H 352.347 0.718383 -1.91467 0
M  V30 3810 H 350.502 3.1845 -2.20609 0
M  V30 3811 H 350.916 2.86097 -4.396 0
M  V30 3812 H 352.39 4.29619 -3.466 0
M  V30 3813 H 352.867 4.00876 -1.79429 0
M  V30 3814 H 353.473 2.93598 -3.07702 0
M  V30 3815 N 351.788 1.33704 0.83433 0
M  V30 3816 C 352.698 1.26382 1.97648 0
M  V30 3817 C 353.714 0.173548 1.73132 0
M  V30 3818 O 354.89 0.397962 1.97429 0
M  V30 3819 C 351.955 1.00769 3.31733 0
M  V30 3820 C 351.016 2.1884 3.69334 0
M  V30 3821 C 350.249 1.9444 4.9702 0
M  V30 3822 O 350.472 0.896961 5.63303 0
M  V30 3823 O 349.406 2.81093 5.32231 0
M  V30 3824 H 353.232 2.22444 2.06767 0
M  V30 3825 H 350.817 1.13795 0.968037 0
M  V30 3826 H 352.699 0.882186 4.12062 0
M  V30 3827 H 351.374 0.0773783 3.23608 0
M  V30 3828 H 350.281 2.36946 2.89495 0
M  V30 3829 H 351.614 3.10221 3.82131 0
M  V30 3830 N 353.266 -1.05314 1.17247 0
M  V30 3831 C 354.176 -2.16538 0.90268 0
M  V30 3832 C 355.192 -1.73523 -0.128707 0
M  V30 3833 O 356.368 -2.01337 0.0502701 0
M  V30 3834 C 353.433 -3.44167 0.418356 0
M  V30 3835 C 352.494 -4.01635 1.51618 0
M  V30 3836 C 351.727 -5.23171 1.05487 0
M  V30 3837 O 351.95 -5.70327 -0.0914715 0
M  V30 3838 O 350.884 -5.72848 1.8474 0
M  V30 3839 H 354.71 -2.42145 1.83302 0
M  V30 3840 H 352.295 -1.15037 0.953246 0
M  V30 3841 H 354.177 -4.21112 0.155726 0
M  V30 3842 H 352.852 -3.20063 -0.48385 0
M  V30 3843 H 351.759 -3.26135 1.83268 0
M  V30 3844 H 353.092 -4.30053 2.39405 0
M  V30 3845 N 354.744 -0.972509 -1.24016 0
M  V30 3846 C 355.654 -0.5143 -2.28893 0
M  V30 3847 C 356.67 0.427078 -1.68677 0
M  V30 3848 O 357.846 0.298939 -1.99169 0
M  V30 3849 C 354.911 0.183598 -3.46214 0
M  V30 3850 C 353.972 -0.798202 -4.21814 0
M  V30 3851 C 353.205 -0.133514 -5.33533 0
M  V30 3852 O 353.428 1.07714 -5.60137 0
M  V30 3853 O 352.362 -0.828103 -5.96176 0
M  V30 3854 H 356.188 -1.38629 -2.70214 0
M  V30 3855 H 353.773 -0.739769 -1.29799 0
M  V30 3856 H 355.655 0.575433 -4.17453 0
M  V30 3857 H 354.33 1.03048 -3.0686 0
M  V30 3858 H 353.237 -1.24059 -3.52931 0
M  V30 3859 H 354.57 -1.61364 -4.64997 0
M  V30 3860 N 356.222 1.38976 -0.743202 0
M  V30 3861 C 357.152 2.33171 -0.123873 0
M  V30 3862 C 358.133 1.54336 0.71516 0
M  V30 3863 O 359.318 1.82696 0.658467 0
M  V30 3864 C 356.448 3.38474 0.777978 0
M  V30 3865 C 355.402 4.27979 0.0424758 0
M  V30 3866 C 354.728 5.2405 1.06189 0
M  V30 3867 C 356.028 5.10155 -1.1198 0
M  V30 3868 H 357.722 2.85213 -0.910709 0
M  V30 3869 H 355.268 1.37133 -0.439388 0
M  V30 3870 H 357.221 4.03328 1.22084 0
M  V30 3871 H 355.945 2.84891 1.59702 0
M  V30 3872 H 354.604 3.64616 -0.380853 0
M  V30 3873 H 354.252 4.66758 1.87472 0
M  V30 3874 H 353.952 5.84785 0.574485 0
M  V30 3875 H 355.476 5.9178 1.50428 0
M  V30 3876 H 356.89 5.68307 -0.75499 0
M  V30 3877 H 355.287 5.80073 -1.53738 0
M  V30 3878 H 356.357 4.44504 -1.93764 0
M  V30 3879 N 357.7 0.491464 1.49741 0
M  V30 3880 C 358.946 -0.0565092 2.02721 0
M  V30 3881 C 359.279 -1.37522 1.37118 0
M  V30 3882 O 358.554 -1.87866 0.503645 0
M  V30 3883 C 358.837 -0.219051 3.59433 0
M  V30 3884 C 358.69 1.12211 4.35579 0
M  V30 3885 C 360.009 -0.964157 4.29409 0
M  V30 3886 H 357.128 -0.0190627 0.736753 0
M  V30 3887 H 359.77 0.641021 1.7886 0
M  V30 3888 H 357.92 -0.813165 3.79895 0
M  V30 3889 H 359.592 1.75437 4.26637 0
M  V30 3890 H 357.835 1.71377 3.98513 0
M  V30 3891 H 358.506 0.961794 5.43556 0
M  V30 3892 H 360.982 -0.460378 4.13545 0
M  V30 3893 H 359.858 -1.04671 5.38828 0
M  V30 3894 H 360.119 -2.00563 3.93988 0
M  V30 3895 N 359.178 -1.55987 0.224894 0
M  V30 3896 C 360.141 -2.19178 -0.670348 0
M  V30 3897 C 361.141 -1.15461 -1.11917 0
M  V30 3898 O 362.331 -1.40675 -1.02743 0
M  V30 3899 C 359.463 -2.81777 -1.9187 0
M  V30 3900 H 360.656 -2.99662 -0.119364 0
M  V30 3901 H 358.209 -1.5628 -0.0247128 0
M  V30 3902 H 358.944 -2.05172 -2.51147 0
M  V30 3903 H 358.729 -3.57732 -1.60531 0
M  V30 3904 H 360.219 -3.30205 -2.55645 0
M  V30 3905 N 360.656 0.0484629 -1.57525 0
M  V30 3906 C 361.619 1.03956 -2.04269 0
M  V30 3907 C 362.619 1.30211 -0.943496 0
M  V30 3908 O 363.809 1.25539 -1.20771 0
M  V30 3909 C 360.941 2.37742 -2.44319 0
M  V30 3910 H 362.134 0.636182 -2.93075 0
M  V30 3911 H 359.687 0.294811 -1.53494 0
M  V30 3912 H 360.422 2.82866 -1.5861 0
M  V30 3913 H 360.207 2.20021 -3.24551 0
M  V30 3914 H 361.697 3.08936 -2.80978 0
M  V30 3915 N 362.134 1.5431 0.320358 0
M  V30 3916 C 363.383 1.7188 1.05546 0
M  V30 3917 C 363.696 0.501143 1.89071 0
M  V30 3918 O 364.902 0.558258 2.65699 0
M  V30 3919 C 363.358 3.04025 1.92605 0
M  V30 3920 C 362.966 4.33207 1.14176 0
M  V30 3921 C 364.71 3.30959 2.65832 0
M  V30 3922 C 362.617 5.56412 2.00399 0
M  V30 3923 H 361.547 0.640547 0.397763 0
M  V30 3924 H 364.198 1.80802 0.313522 0
M  V30 3925 H 362.58 2.89019 2.7071 0
M  V30 3926 H 363.754 4.58989 0.40819 0
M  V30 3927 H 362.069 4.13062 0.526165 0
M  V30 3928 H 364.666 4.20203 3.30656 0
M  V30 3929 H 365.009 2.48979 3.33639 0
M  V30 3930 H 365.542 3.46847 1.94787 0
M  V30 3931 H 362.281 6.41004 1.37094 0
M  V30 3932 H 361.801 5.34844 2.7148 0
M  V30 3933 H 363.48 5.92938 2.58908 0
M  V30 3934 N 363.613 -0.582584 1.46437 0
M  V30 3935 C 365.029 -0.905962 1.31394 0
M  V30 3936 C 365.229 -1.99468 0.285476 0
M  V30 3937 O 364.285 -2.50566 -0.311914 0
M  V30 3938 C 365.598 -1.3232 2.70022 0
M  V30 3939 C 367.146 -1.43604 2.78113 0
M  V30 3940 C 367.621 -1.88694 4.17323 0
M  V30 3941 N 369.112 -1.95887 4.19741 0
M  V30 3942 C 369.847 -2.32051 5.24347 0
M  V30 3943 N 369.343 -2.67006 6.39281 0
M  V30 3944 N 371.136 -2.32606 5.11713 0
M  V30 3945 H 363.287 0.1366 2.1196 0
M  V30 3946 H 365.55 -0.00155736 0.947999 0
M  V30 3947 H 365.256 -0.597242 3.46592 0
M  V30 3948 H 365.13 -2.28469 3.00136 0
M  V30 3949 H 367.517 -2.15286 2.01832 0
M  V30 3950 H 367.598 -0.457059 2.51684 0
M  V30 3951 H 367.242 -1.1759 4.941 0
M  V30 3952 H 367.172 -2.8755 4.4116 0
M  V30 3953 H 369.663 -1.71362 3.36814 0
M  V30 3954 H 369.976 -2.93554 7.14875 0
M  V30 3955 H 368.321 -2.64644 6.42642 0
M  V30 3956 H 371.512 -2.04721 4.2096 0
M  V30 3957 H 371.685 -2.60462 5.93349 0
M  V30 3958 N 365.091 -1.34144 -0.827227 0
M  V30 3959 C 366.038 -1.25364 -1.93785 0
M  V30 3960 C 367.008 -0.129774 -1.65592 0
M  V30 3961 O 368.193 -0.310024 -1.88264 0
M  V30 3962 C 365.333 -1.01064 -3.2997 0
M  V30 3963 C 364.446 -2.22185 -3.70484 0
M  V30 3964 C 363.581 -1.91203 -4.95595 0
M  V30 3965 C 362.62 -3.08491 -5.28677 0
M  V30 3966 N 361.757 -2.77421 -6.44967 0
M  V30 3967 H 366.597 -2.20347 -2.00627 0
M  V30 3968 H 364.134 -1.09558 -0.981608 0
M  V30 3969 H 366.092 -0.850139 -4.08446 0
M  V30 3970 H 364.722 -0.0975026 -3.22653 0
M  V30 3971 H 363.774 -2.4917 -2.87434 0
M  V30 3972 H 365.086 -3.0983 -3.90905 0
M  V30 3973 H 364.24 -1.71864 -5.81848 0
M  V30 3974 H 362.979 -1.00812 -4.77167 0
M  V30 3975 H 361.984 -3.28431 -4.40923 0
M  V30 3976 H 363.209 -3.99655 -5.49047 0
M  V30 3977 H 361.155 -1.89601 -6.28003 0
M  V30 3978 H 361.072 -3.58598 -6.6554 0
M  V30 3979 H 362.34 -2.61577 -7.34301 0
M  V30 3980 N 366.569 1.04691 -1.17803 0
M  V30 3981 C 367.817 1.7743 -0.967617 0
M  V30 3982 C 368.138 1.88359 0.504574 0
M  V30 3983 O 367.408 1.40402 1.36617 0
M  V30 3984 H 365.988 0.657242 -0.355024 0
M  V30 3985 H 368.65 1.2638 -1.48371 0
M  V30 3986 H 367.746 2.78924 -1.40027 0
M  V30 3987 N 368.047 0.979072 1.23499 0
M  V30 3988 C 369.275 0.665202 1.95915 0
M  V30 3989 C 369.69 -0.767571 1.72493 0
M  V30 3990 O 369.047 -1.51635 1.01554 0
M  V30 3991 C 369.098 0.944438 3.48945 0
M  V30 3992 O 368.819 2.3209 3.71572 0
M  V30 3993 C 370.32 0.646336 4.38563 0
M  V30 3994 H 367.54 0.247218 0.623798 0
M  V30 3995 H 370.084 1.31009 1.57025 0
M  V30 3996 H 368.239 0.345575 3.85856 0
M  V30 3997 H 368.653 2.40957 4.65876 0
M  V30 3998 H 370.127 0.892091 5.44744 0
M  V30 3999 H 370.604 -0.419575 4.37191 0
M  V30 4000 H 371.21 1.22562 4.07258 0
M  V30 4001 N 369.525 -1.3858 0.750561 0
M  V30 4002 C 370.774 -1.99424 0.302172 0
M  V30 4003 C 371.087 -1.60254 -1.12152 0
M  V30 4004 O 372.293 -2.14046 -1.67023 0
M  V30 4005 C 370.749 -3.56558 0.489307 0
M  V30 4006 C 370.357 -4.04682 1.92189 0
M  V30 4007 C 372.101 -4.24374 0.103478 0
M  V30 4008 C 370.008 -5.54446 2.05775 0
M  V30 4009 H 368.938 -0.746046 0.10923 0
M  V30 4010 H 371.589 -1.58383 0.92667 0
M  V30 4011 H 369.971 -3.95472 -0.204329 0
M  V30 4012 H 371.145 -3.77065 2.64875 0
M  V30 4013 H 369.46 -3.4958 2.26236 0
M  V30 4014 H 372.057 -5.34384 0.183787 0
M  V30 4015 H 372.4 -4.05468 -0.943481 0
M  V30 4016 H 372.933 -3.90688 0.748854 0
M  V30 4017 H 369.672 -5.78252 3.08714 0
M  V30 4018 H 369.192 -5.83816 1.37546 0
M  V30 4019 H 370.871 -6.20099 1.84626 0
M  V30 4020 N 371.003 -0.499398 -1.49478 0
M  V30 4021 C 372.28 0.108629 -1.95298 0
M  V30 4022 C 372.66 1.54282 -1.44084 0
M  V30 4023 O 372.008 2.18944 -0.653908 0
M  V30 4024 C 372.218 0.0229111 -3.48992 0
M  V30 4025 C 373.566 0.197643 -4.2414 0
M  V30 4026 O 374.59 0.0981735 -3.56065 0
M  V30 4027 O 373.449 0.401669 -5.45022 0
M  V30 4028 H 370.543 0.096181 -0.821388 0
M  V30 4029 H 373.089 -0.561822 -1.6013 0
M  V30 4030 H 371.861 -0.977321 -3.78899 0
M  V30 4031 H 371.484 0.733579 -3.90774 0
M  V30 4032 N 372.481 1.55866 -0.233164 0
M  V30 4033 C 373.411 2.23783 0.666599 0
M  V30 4034 C 374.392 1.21343 1.19205 0
M  V30 4035 O 375.577 1.4996 1.23392 0
M  V30 4036 C 372.707 2.92671 1.86978 0
M  V30 4037 C 371.661 4.01682 1.47768 0
M  V30 4038 C 370.987 4.57926 2.76058 0
M  V30 4039 C 372.287 5.18126 0.658993 0
M  V30 4040 H 373.981 2.99232 0.100306 0
M  V30 4041 H 371.527 1.43924 0.046804 0
M  V30 4042 H 373.48 3.3888 2.50476 0
M  V30 4043 H 372.204 2.14688 2.46123 0
M  V30 4044 H 370.863 3.56222 0.866106 0
M  V30 4045 H 370.511 3.76659 3.33372 0
M  V30 4046 H 370.211 5.31505 2.50552 0
M  V30 4047 H 371.735 5.06859 3.40479 0
M  V30 4048 H 373.149 5.60644 1.19795 0
M  V30 4049 H 371.546 5.98009 0.500552 0
M  V30 4050 H 372.616 4.83763 -0.331856 0
M  V30 4051 N 373.959 -0.0401083 1.57549 0
M  V30 4052 C 374.906 -1.04413 2.05831 0
M  V30 4053 C 375.876 -1.36585 0.945184 0
M  V30 4054 O 377.061 -1.47112 1.21502 0
M  V30 4055 C 374.201 -2.34336 2.53339 0
M  V30 4056 C 373.314 -2.08419 3.78398 0
M  V30 4057 C 372.449 -3.32133 4.14561 0
M  V30 4058 C 371.488 -3.01721 5.3257 0
M  V30 4059 N 370.625 -4.17855 5.64218 0
M  V30 4060 H 375.465 -0.625442 2.91363 0
M  V30 4061 H 373.002 -0.297218 1.44066 0
M  V30 4062 H 374.96 -3.10234 2.78946 0
M  V30 4063 H 373.59 -2.73948 1.7074 0
M  V30 4064 H 372.642 -1.23069 3.59942 0
M  V30 4065 H 373.954 -1.81978 4.64419 0
M  V30 4066 H 373.108 -4.16406 4.41238 0
M  V30 4067 H 371.847 -3.61678 3.2717 0
M  V30 4068 H 370.852 -2.15849 5.05657 0
M  V30 4069 H 372.077 -2.73466 6.21605 0
M  V30 4070 H 370.023 -4.47372 4.79786 0
M  V30 4071 H 369.94 -3.94798 6.44725 0
M  V30 4072 H 371.208 -5.03033 5.95465 0
M  V30 4073 N 375.437 -1.54477 -0.31217 0
M  V30 4074 C 376.686 -1.72438 -1.04633 0
M  V30 4075 C 376.999 -0.511163 -1.88803 0
M  V30 4076 O 378.205 -0.572341 -2.65399 0
M  V30 4077 C 376.661 -3.05043 -1.9099 0
M  V30 4078 C 376.269 -4.33806 -1.11877 0
M  V30 4079 C 378.013 -3.32364 -2.64073 0
M  V30 4080 C 375.92 -5.57467 -1.97445 0
M  V30 4081 H 374.85 -0.642647 -0.394361 0
M  V30 4082 H 377.501 -1.80966 -0.303929 0
M  V30 4083 H 375.883 -2.90451 -2.69173 0
M  V30 4084 H 377.057 -4.59199 -0.383843 0
M  V30 4085 H 375.372 -4.13336 -0.504252 0
M  V30 4086 H 377.969 -4.21951 -3.28423 0
M  V30 4087 H 378.312 -2.50745 -3.32314 0
M  V30 4088 H 378.845 -3.47875 -1.92944 0
M  V30 4089 H 375.584 -6.41722 -1.33692 0
M  V30 4090 H 375.104 -5.36277 -2.6864 0
M  V30 4091 H 376.783 -5.94303 -2.5576 0
M  V30 4092 N 376.915 0.57481 -1.46744 0
M  V30 4093 C 378.143 1.35856 -1.56047 0
M  V30 4094 C 378.558 1.87691 -0.204365 0
M  V30 4095 O 377.915 1.64049 0.79963 0
M  V30 4096 C 377.966 2.54066 -2.57163 0
M  V30 4097 O 377.687 2.04377 -3.87507 0
M  V30 4098 C 379.188 3.46514 -2.76483 0
M  V30 4099 H 376.408 0.414754 -0.527466 0
M  V30 4100 H 378.952 0.698035 -1.92218 0
M  V30 4101 H 377.107 3.16092 -2.23974 0
M  V30 4102 H 377.521 2.81419 -4.4261 0
M  V30 4103 H 378.995 4.25919 -3.51137 0
M  V30 4104 H 379.472 3.98951 -1.83671 0
M  V30 4105 H 380.078 2.90318 -3.10799 0
M  V30 4106 N 378.394 1.34581 0.820102 0
M  V30 4107 C 379.805 1.24298 1.39309 0
M  V30 4108 C 380.156 -0.130351 1.95767 0
M  V30 4109 O 379.281 -1.0308 1.90272 0
M  V30 4110 C 379.876 2.25054 2.53251 0
M  V30 4111 C 378.435 2.18552 3.0645 0
M  V30 4112 C 377.582 2.11503 1.79337 0
M  V30 4113 H 380.533 1.45906 0.624262 0
M  V30 4114 H 380.554 1.86917 3.31425 0
M  V30 4115 H 380.066 3.24996 2.1213 0
M  V30 4116 H 378.167 1.21976 3.52069 0
M  V30 4117 H 378.28 3.0993 3.65349 0
M  V30 4118 H 376.644 1.57268 2.00347 0
M  V30 4119 H 377.427 3.13284 1.40386 0
M  V30 4120 N 379.872 -1.04064 1.18357 0
M  V30 4121 C 381.118 -1.77528 0.980397 0
M  V30 4122 C 381.451 -1.87948 -0.48879 0
M  V30 4123 O 380.726 -1.3876 -1.36293 0
M  V30 4124 C 381.009 -3.20797 1.63588 0
M  V30 4125 C 380.862 -3.1832 3.17793 0
M  V30 4126 C 382.181 -4.18911 1.34914 0
M  V30 4127 H 379.3 -0.644443 0.357578 0
M  V30 4128 H 381.942 -1.2156 1.46024 0
M  V30 4129 H 380.092 -3.68586 1.22788 0
M  V30 4130 H 381.764 -2.78521 3.67728 0
M  V30 4131 H 380.007 -2.56351 3.49952 0
M  V30 4132 H 380.678 -4.19489 3.58794 0
M  V30 4133 H 383.154 -3.7967 1.70265 0
M  V30 4134 H 382.03 -5.17374 1.83346 0
M  V30 4135 H 382.291 -4.41262 0.272027 0
M  V30 4136 N 381.35 -0.985608 -1.22978 0
M  V30 4137 C 382.597 -0.657386 -1.91532 0
M  V30 4138 C 382.925 0.809707 -1.76845 0
M  V30 4139 O 382.18 1.60021 -1.12658 0
M  V30 4140 C 382.479 -1.00014 -3.43121 0
M  V30 4141 C 382.145 -2.4583 -3.77993 0
M  V30 4142 C 380.807 -2.85679 -3.87222 0
M  V30 4143 C 383.159 -3.40378 -3.94705 0
M  V30 4144 C 380.487 -4.19081 -4.10595 0
M  V30 4145 C 382.839 -4.73429 -4.1958 0
M  V30 4146 C 381.503 -5.1303 -4.27032 0
M  V30 4147 H 380.773 -0.240555 -0.700867 0
M  V30 4148 H 383.42 -1.24044 -1.45895 0
M  V30 4149 H 381.725 -0.335072 -3.90365 0
M  V30 4150 H 383.422 -0.724322 -3.94404 0
M  V30 4151 H 380.012 -2.13939 -3.71387 0
M  V30 4152 H 384.196 -3.10766 -3.8696 0
M  V30 4153 H 379.452 -4.49362 -4.14589 0
M  V30 4154 H 383.626 -5.46644 -4.31455 0
M  V30 4155 H 381.253 -6.16418 -4.44896 0
M  V30 4156 N 382.828 1.3818 -0.7579 0
M  V30 4157 C 383.758 2.33027 -0.148597 0
M  V30 4158 C 384.739 1.55085 0.69875 0
M  V30 4159 O 385.924 1.83384 0.639053 0
M  V30 4160 C 383.054 3.3928 0.742034 0
M  V30 4161 C 382.008 4.28 -0.00291946 0
M  V30 4162 C 381.334 5.25146 1.00625 0
M  V30 4163 C 382.634 5.08938 -1.17385 0
M  V30 4164 H 384.328 2.84231 -0.940909 0
M  V30 4165 H 381.874 1.36659 -0.453908 0
M  V30 4166 H 383.827 4.046 1.17799 0
M  V30 4167 H 382.551 2.86569 1.56671 0
M  V30 4168 H 381.21 3.64192 -0.419504 0
M  V30 4169 H 380.858 4.68721 1.8251 0
M  V30 4170 H 380.558 5.85361 0.512428 0
M  V30 4171 H 382.082 5.93342 1.44143 0
M  V30 4172 H 383.496 5.67474 -0.815224 0
M  V30 4173 H 381.893 5.7841 -1.59882 0
M  V30 4174 H 382.963 4.42424 -1.98468 0
M  V30 4175 N 384.306 0.507319 1.49211 0
M  V30 4176 C 385.554 -0.0348839 2.0207 0
M  V30 4177 C 385.875 -1.36898 1.38866 0
M  V30 4178 O 385.145 -1.88133 0.546151 0
M  V30 4179 H 383.725 -0.0158812 0.746831 0
M  V30 4180 H 386.387 0.665998 1.83168 0
M  V30 4181 H 385.483 -0.159917 3.1169 0
M  V30 4182 N 385.784 -1.5574 0.241426 0
M  V30 4183 C 387.009 -2.0366 -0.392111 0
M  V30 4184 C 387.434 -1.11969 -1.51144 0
M  V30 4185 O 386.792 -0.111594 -1.80956 0
M  V30 4186 C 386.84 -3.49638 -0.882371 0
M  V30 4187 O 385.944 -3.6108 -1.99235 0
M  V30 4188 H 385.285 -0.658379 -0.0862122 0
M  V30 4189 H 387.815 -2.01302 0.365881 0
M  V30 4190 H 387.825 -3.90351 -1.18702 0
M  V30 4191 H 386.5 -4.15852 -0.0632361 0
M  V30 4192 H 385.077 -3.32262 -1.69282 0
M  V30 4193 N 387.262 0.0317525 -1.57568 0
M  V30 4194 C 388.225 1.01783 -2.0536 0
M  V30 4195 C 389.225 1.29203 -0.957253 0
M  V30 4196 O 390.415 1.24251 -1.22095 0
M  V30 4197 C 387.547 2.35137 -2.46827 0
M  V30 4198 H 388.74 0.605062 -2.93733 0
M  V30 4199 H 386.293 0.278514 -1.53799 0
M  V30 4200 H 387.028 2.81168 -1.61602 0
M  V30 4201 H 386.813 2.16566 -3.26866 0
M  V30 4202 H 388.303 3.05938 -2.84239 0
M  V30 4203 N 388.74 1.54641 0.303973 0
M  V30 4204 C 389.67 1.88386 1.3796 0
M  V30 4205 C 390.651 0.742485 1.5304 0
M  V30 4206 O 391.836 0.997959 1.66597 0
M  V30 4207 C 388.966 2.12854 2.74427 0
M  V30 4208 C 387.92 3.28702 2.74115 0
M  V30 4209 C 387.246 3.38582 4.13844 0
M  V30 4210 C 388.546 4.65881 2.3612 0
M  V30 4211 H 390.24 2.78474 1.09966 0
M  V30 4212 H 387.786 1.33988 0.527556 0
M  V30 4213 H 389.739 2.35047 3.49758 0
M  V30 4214 H 388.463 1.19535 3.03939 0
M  V30 4215 H 387.122 3.06428 2.0124 0
M  V30 4216 H 386.77 2.42784 4.40528 0
M  V30 4217 H 386.47 4.16453 4.14537 0
M  V30 4218 H 387.994 3.63031 4.90959 0
M  V30 4219 H 389.408 4.87823 3.01167 0
M  V30 4220 H 387.805 5.46444 2.48031 0
M  V30 4221 H 388.875 4.66799 1.3125 0
M  V30 4222 N 390.218 -0.567019 1.47046 0
M  V30 4223 C 391.165 -1.67489 1.58796 0
M  V30 4224 C 392.135 -1.60399 0.43144 0
M  V30 4225 O 393.32 -1.79378 0.650233 0
M  V30 4226 C 390.46 -3.05821 1.59899 0
M  V30 4227 C 389.573 -3.2342 2.86397 0
M  V30 4228 C 388.708 -4.52093 2.789 0
M  V30 4229 C 387.747 -4.6309 4.00267 0
M  V30 4230 N 386.884 -5.83106 3.91064 0
M  V30 4231 H 391.724 -1.56785 2.53422 0
M  V30 4232 H 389.261 -0.763896 1.2571 0
M  V30 4233 H 391.219 -3.8591 1.58522 0
M  V30 4234 H 389.849 -3.15384 0.687929 0
M  V30 4235 H 388.901 -2.3683 2.97684 0
M  V30 4236 H 390.213 -3.27412 3.76301 0
M  V30 4237 H 389.367 -5.4043 2.75718 0
M  V30 4238 H 388.106 -4.50565 1.86662 0
M  V30 4239 H 387.111 -3.73168 4.03765 0
M  V30 4240 H 388.336 -4.66386 4.93621 0
M  V30 4241 H 386.282 -5.82546 3.01623 0
M  V30 4242 H 386.199 -5.88434 4.74638 0
M  V30 4243 H 387.467 -6.73831 3.91882 0
M  V30 4244 N 391.696 -1.35014 -0.812953 0
M  V30 4245 C 392.644 -1.27435 -1.94585 0
M  V30 4246 C 393.638 -0.170494 -1.6854 0
M  V30 4247 O 394.844 -0.336085 -1.76835 0
M  V30 4248 H 391.219 -0.396144 -0.639198 0
M  V30 4249 H 393.19 -2.23158 -1.98098 0
M  V30 4250 C 391.939 -1.05677 -3.31252 0
M  V30 4251 H 391.262 -1.89853 -3.51846 0
M  V30 4252 H 392.702 -1.04413 -4.10943 0
M  V30 4253 C 391.161 0.239615 -3.36047 0
M  V30 4254 O 391.691 1.23759 -3.8216 0
M  V30 4255 N 389.897 0.276186 -2.89285 0
M  V30 4256 H 389.444 -0.53653 -2.51951 0
M  V30 4257 H 389.402 1.14332 -2.92875 0
M  V30 4258 N 393.175 1.03435 -1.18907 0
M  V30 4259 C 394.122 2.11591 -0.921837 0
M  V30 4260 C 395.092 1.65499 0.141226 0
M  V30 4261 O 396.277 1.908 0.000242829 0
M  V30 4262 C 393.417 3.42012 -0.460616 0
M  V30 4263 C 392.53 4.01682 -1.58982 0
M  V30 4264 C 391.665 5.20091 -1.08069 0
M  V30 4265 C 390.704 5.71805 -2.18416 0
M  V30 4266 N 389.841 6.81494 -1.68849 0
M  V30 4267 H 394.681 2.33787 -1.8479 0
M  V30 4268 H 392.218 1.1467 -0.921373 0
M  V30 4269 H 394.176 4.16834 -0.174642 0
M  V30 4270 H 392.806 3.19944 0.428467 0
M  V30 4271 H 391.858 3.24127 -1.99113 0
M  V30 4272 H 393.17 4.36084 -2.4214 0
M  V30 4273 H 392.324 6.02051 -0.749615 0
M  V30 4274 H 391.063 4.87209 -0.218771 0
M  V30 4275 H 390.068 4.88461 -2.5236 0
M  V30 4276 H 391.293 6.06728 -3.05054 0
M  V30 4277 H 389.239 6.50475 -0.849572 0
M  V30 4278 H 389.156 7.14994 -2.45601 0
M  V30 4279 H 390.424 7.67063 -1.38689 0
M  V30 4280 N 394.653 0.992116 1.22453 0
M  V30 4281 C 395.901 0.666215 1.90804 0
M  V30 4282 C 396.222 -0.804152 1.77647 0
M  V30 4283 O 395.492 -1.57629 1.16318 0
M  V30 4284 H 394.072 0.243423 0.706225 0
M  V30 4285 H 396.734 1.25845 1.48825 0
M  V30 4286 H 395.83 0.928069 2.97982 0
M  V30 4287 N 396.131 -1.37776 0.765217 0
M  V30 4288 C 397.377 -2.00145 0.327072 0
M  V30 4289 C 397.71 -1.60607 -1.09175 0
M  V30 4290 O 396.985 -0.849127 -1.74986 0
M  V30 4291 C 397.268 -3.57109 0.46319 0
M  V30 4292 C 397.121 -4.06576 1.92395 0
M  V30 4293 C 398.44 -4.39888 -0.136473 0
M  V30 4294 H 395.559 -0.727113 0.120316 0
M  V30 4295 H 398.201 -1.63549 0.967039 0
M  V30 4296 H 396.351 -3.88414 -0.0816358 0
M  V30 4297 H 398.023 -3.85864 2.52798 0
M  V30 4298 H 396.266 -3.59011 2.43503 0
M  V30 4299 H 396.937 -5.15639 1.97028 0
M  V30 4300 H 399.413 -4.14803 0.328317 0
M  V30 4301 H 398.289 -5.48899 -0.0110582 0
M  V30 4302 H 398.55 -4.24758 -1.22608 0
M  V30 4303 N 397.609 -0.515225 -1.4894 0
M  V30 4304 C 398.541 0.292481 -2.27326 0
M  V30 4305 C 399.554 0.917838 -1.3446 0
M  V30 4306 O 400.743 0.798772 -1.5963 0
M  V30 4307 C 397.843 1.42803 -3.07344 0
M  V30 4308 C 397.016 0.907347 -4.27885 0
M  V30 4309 C 396.075 1.92222 -4.89834 0
M  V30 4310 O 395.101 1.48506 -5.49486 0
M  V30 4311 N 396.303 3.25355 -4.80754 0
M  V30 4312 H 399.068 -0.379721 -2.97285 0
M  V30 4313 H 396.629 -0.348638 -1.58102 0
M  V30 4314 H 398.621 2.10481 -3.45658 0
M  V30 4315 H 397.191 2.00414 -2.39902 0
M  V30 4316 H 396.411 0.0550218 -3.94162 0
M  V30 4317 H 397.699 0.538108 -5.05946 0
M  V30 4318 H 397.097 3.6355 -4.33414 0
M  V30 4319 H 395.654 3.88707 -5.23211 0
M  V30 4320 N 399.087 1.5561 -0.249682 0
M  V30 4321 C 400.017 2.24477 0.642826 0
M  V30 4322 C 400.998 1.22601 1.17911 0
M  V30 4323 O 402.183 1.5126 1.21795 0
M  V30 4324 C 399.313 2.94638 1.83863 0
M  V30 4325 C 398.267 4.03227 1.435 0
M  V30 4326 C 397.593 4.60828 2.71186 0
M  V30 4327 C 398.893 5.18796 0.604002 0
M  V30 4328 H 400.587 2.99321 0.0685625 0
M  V30 4329 H 398.133 1.43965 0.0315363 0
M  V30 4330 H 400.086 3.41517 2.46868 0
M  V30 4331 H 398.81 2.17287 2.43832 0
M  V30 4332 H 397.469 3.57121 0.828275 0
M  V30 4333 H 397.117 3.80174 3.29358 0
M  V30 4334 H 396.817 5.34132 2.44901 0
M  V30 4335 H 398.341 5.10442 3.35084 0
M  V30 4336 H 399.755 5.61883 1.13842 0
M  V30 4337 H 398.152 5.98506 0.437097 0
M  V30 4338 H 399.222 4.83384 -0.383147 0
M  V30 4339 N 400.565 -0.0233959 1.57583 0
M  V30 4340 C 401.495 -1.02162 2.09965 0
M  V30 4341 C 402.476 -1.3735 1.00344 0
M  V30 4342 O 403.661 -1.46135 1.27899 0
M  V30 4343 C 400.791 -2.32081 2.58371 0
M  V30 4344 C 399.745 -2.1112 3.72307 0
M  V30 4345 C 399.071 -3.46848 4.06941 0
M  V30 4346 C 400.371 -1.49276 5.00514 0
M  V30 4347 H 402.065 -0.585557 2.93618 0
M  V30 4348 H 399.611 -0.280218 1.41247 0
M  V30 4349 H 401.564 -3.02249 2.93639 0
M  V30 4350 H 400.288 -2.77758 1.71808 0
M  V30 4351 H 398.947 -1.43384 3.37397 0
M  V30 4352 H 398.595 -3.90184 3.17436 0
M  V30 4353 H 398.295 -3.33646 4.83688 0
M  V30 4354 H 399.819 -4.18369 4.44747 0
M  V30 4355 H 401.233 -2.09368 5.33702 0
M  V30 4356 H 399.63 -1.46632 5.8191 0
M  V30 4357 H 400.7 -0.459217 4.82721 0
M  V30 4358 N 402.043 -1.548 -0.295768 0
M  V30 4359 C 402.973 -1.89115 -1.36959 0
M  V30 4360 C 403.954 -0.75059 -1.52644 0
M  V30 4361 O 405.139 -1.00678 -1.66065 0
M  V30 4362 C 402.269 -2.14307 -2.73295 0
M  V30 4363 C 401.223 -3.30151 -2.72368 0
M  V30 4364 C 400.549 -3.40772 -4.12042 0
M  V30 4365 C 401.849 -4.67126 -2.33646 0
M  V30 4366 H 403.543 -2.79053 -1.08488 0
M  V30 4367 H 401.089 -1.34266 -0.520443 0
M  V30 4368 H 403.042 -2.36898 -3.48507 0
M  V30 4369 H 401.766 -1.21145 -3.03301 0
M  V30 4370 H 400.425 -3.0749 -1.99613 0
M  V30 4371 H 400.073 -2.45117 -4.39234 0
M  V30 4372 H 399.773 -4.18645 -4.12322 0
M  V30 4373 H 401.297 -3.6563 -4.89027 0
M  V30 4374 H 402.711 -4.89414 -2.98575 0
M  V30 4375 H 401.108 -5.47751 -2.45129 0
M  V30 4376 H 402.178 -4.67489 -1.28772 0
M  V30 4377 N 403.521 0.559213 -1.47345 0
M  V30 4378 C 404.798 1.31997 -1.44348 0
M  V30 4379 C 405.178 2.1064 -0.139358 0
M  V30 4380 O 404.526 2.1091 0.879153 0
M  V30 4381 C 404.736 2.22618 -2.68779 0
M  V30 4382 C 406.084 2.83701 -3.1591 0
M  V30 4383 O 407.108 2.32921 -2.69493 0
M  V30 4384 O 405.967 3.75993 -3.966 0
M  V30 4385 H 403.061 0.594251 -0.575147 0
M  V30 4386 H 405.607 0.578282 -1.59543 0
M  V30 4387 H 404.379 1.64093 -3.55231 0
M  V30 4388 H 404.002 3.04085 -2.5616 0
M  V30 4389 N 404.999 1.35443 0.805782 0
M  V30 4390 C 405.962 1.28301 1.89925 0
M  V30 4391 C 406.962 0.194285 1.59622 0
M  V30 4392 O 408.152 0.448036 1.6834 0
M  V30 4393 C 405.284 0.984997 3.2636 0
M  V30 4394 H 406.477 2.2553 1.97677 0
M  V30 4395 H 404.03 1.19979 1.00173 0
M  V30 4396 H 404.765 0.016603 3.24296 0
M  V30 4397 H 404.55 1.77269 3.4974 0
M  V30 4398 H 406.04 0.960651 4.064 0
M  V30 4399 N 406.477 -1.02803 1.19454 0
M  V30 4400 C 407.723 -1.76478 0.999171 0
M  V30 4401 C 408.056 -1.88456 -0.468828 0
M  V30 4402 O 407.331 -1.40198 -1.34814 0
M  V30 4403 C 407.614 -3.19044 1.66981 0
M  V30 4404 C 407.467 -3.14932 3.21151 0
M  V30 4405 C 408.786 -4.17456 1.39349 0
M  V30 4406 H 405.905 -0.640614 0.364393 0
M  V30 4407 H 408.547 -1.20005 1.47305 0
M  V30 4408 H 406.697 -3.67263 1.2669 0
M  V30 4409 H 408.369 -2.74605 3.70661 0
M  V30 4410 H 406.612 -2.52625 3.52652 0
M  V30 4411 H 407.283 -4.1566 3.63223 0
M  V30 4412 H 409.759 -3.77842 1.74283 0
M  V30 4413 H 408.635 -5.154 1.88823 0
M  V30 4414 H 408.896 -4.40949 0.318813 0
M  V30 4415 N 407.956 -0.998596 -1.21925 0
M  V30 4416 C 409.202 -0.678667 -1.91107 0
M  V30 4417 C 409.535 0.78791 -1.77498 0
M  V30 4418 O 408.81 1.57043 -1.1475 0
M  V30 4419 C 409.093 -1.09245 -3.43129 0
M  V30 4420 C 408.946 -2.61801 -3.6576 0
M  V30 4421 C 410.265 -0.649984 -4.35274 0
M  V30 4422 H 407.384 -0.248025 -0.694012 0
M  V30 4423 H 410.026 -1.24314 -1.43688 0
M  V30 4424 H 408.176 -0.612171 -3.83647 0
M  V30 4425 H 409.848 -3.17543 -3.34611 0
M  V30 4426 H 408.091 -3.03609 -3.09845 0
M  V30 4427 H 408.762 -2.85804 -4.7225 0
M  V30 4428 H 411.238 -1.0626 -4.02303 0
M  V30 4429 H 410.114 -0.967743 -5.40302 0
M  V30 4430 H 410.375 0.449139 -4.39813 0
M  V30 4431 N 409.434 1.37368 -0.772513 0
M  V30 4432 C 410.711 1.93839 -0.26188 0
M  V30 4433 C 411.091 1.7061 1.24319 0
M  V30 4434 O 410.439 1.05534 2.02669 0
M  V30 4435 C 410.649 3.43154 -0.636102 0
M  V30 4436 C 411.997 4.20249 -0.606324 0
M  V30 4437 O 413.021 3.5152 -0.575538 0
M  V30 4438 O 411.88 5.42809 -0.634086 0
M  V30 4439 H 408.974 0.82478 -0.0605555 0
M  V30 4440 H 411.52 1.4665 -0.853917 0
M  V30 4441 H 410.292 3.53647 -1.6748 0
M  V30 4442 H 409.915 3.97596 -0.0170516 0
M  V30 4443 N 410.912 0.523116 1.48665 0
M  V30 4444 C 412.142 -0.00961724 2.06598 0
M  V30 4445 C 412.55 -1.29333 1.38093 0
M  V30 4446 O 411.893 -1.77846 0.46007 0
M  V30 4447 C 411.955 -0.311135 3.58151 0
M  V30 4448 C 411.619 0.878092 4.48485 0
M  V30 4449 C 412.616 1.77464 4.88674 0
M  V30 4450 C 410.301 1.08315 4.90483 0
M  V30 4451 C 412.295 2.86021 5.69623 0
M  V30 4452 C 409.982 2.17187 5.71203 0
M  V30 4453 C 410.98 3.05873 6.10681 0
M  V30 4454 O 410.668 4.12862 6.89783 0
M  V30 4455 H 410.4 0.0272658 0.67545 0
M  V30 4456 H 412.954 0.726156 1.92136 0
M  V30 4457 H 411.184 -1.10079 3.70701 0
M  V30 4458 H 412.873 -0.785125 3.98234 0
M  V30 4459 H 413.639 1.62813 4.56855 0
M  V30 4460 H 409.518 0.402149 4.59243 0
M  V30 4461 H 413.062 3.55272 6.00356 0
M  V30 4462 H 408.959 2.31824 6.02435 0
M  V30 4463 H 409.727 4.10487 7.08126 0
M  V30 4464 N 412.39 -1.55475 0.257931 0
M  V30 4465 C 413.32 -2.24815 -0.630912 0
M  V30 4466 C 414.301 -1.23224 -1.17259 0
M  V30 4467 O 415.486 -1.51904 -1.20991 0
M  V30 4468 C 412.616 -2.95609 -1.82298 0
M  V30 4469 C 411.57 -4.03982 -1.41359 0
M  V30 4470 C 410.896 -4.6226 -2.68738 0
M  V30 4471 C 412.196 -5.19109 -0.57648 0
M  V30 4472 H 413.89 -2.99354 -0.0526878 0
M  V30 4473 H 411.436 -1.4398 -0.023901 0
M  V30 4474 H 413.389 -3.42822 -2.45054 0
M  V30 4475 H 412.113 -2.18577 -2.42676 0
M  V30 4476 H 410.772 -3.57555 -0.809324 0
M  V30 4477 H 410.42 -3.81915 -3.27338 0
M  V30 4478 H 410.12 -5.35424 -2.42065 0
M  V30 4479 H 411.644 -5.12212 -3.32372 0
M  V30 4480 H 413.058 -5.62479 -1.10861 0
M  V30 4481 H 411.455 -5.98729 -0.405351 0
M  V30 4482 H 412.525 -4.83174 0.408776 0
M  V30 4483 N 413.868 0.0150385 -1.57593 0
M  V30 4484 C 415.279 0.559832 -1.78109 0
M  V30 4485 C 415.63 1.74814 -0.890756 0
M  V30 4486 O 414.755 2.16216 -0.0892482 0
M  V30 4487 C 415.35 1.02238 -3.23006 0
M  V30 4488 C 413.909 1.51258 -3.44671 0
M  V30 4489 C 413.056 0.456955 -2.73509 0
M  V30 4490 H 416.007 -0.211169 -1.57289 0
M  V30 4491 H 416.028 1.88912 -3.30292 0
M  V30 4492 H 415.54 0.157302 -3.87781 0
M  V30 4493 H 413.641 2.39905 -2.8509 0
M  V30 4494 H 413.754 1.55042 -4.5332 0
M  V30 4495 H 412.118 0.915196 -2.37689 0
M  V30 4496 H 412.901 -0.398896 -3.40975 0
M  V30 4497 N 415.346 1.54954 0.287554 0
M  V30 4498 C 416.571 1.79209 1.04397 0
M  V30 4499 C 416.996 0.556431 1.79682 0
M  V30 4500 O 416.354 -0.493518 1.74454 0
M  V30 4501 C 416.402 3.00739 1.98969 0
M  V30 4502 O 415.506 2.74805 3.075 0
M  V30 4503 H 414.847 0.592755 0.299227 0
M  V30 4504 H 417.377 2.02068 0.320886 0
M  V30 4505 H 417.387 3.29077 2.4119 0
M  V30 4506 H 416.062 3.90329 1.43582 0
M  V30 4507 H 414.639 2.57523 2.69697 0
M  V30 4508 N 416.824 -0.551391 1.4764 0
M  V30 4509 C 418.235 -1.13349 1.48354 0
M  V30 4510 C 418.586 -1.94709 0.241432 0
M  V30 4511 O 417.711 -2.06306 -0.653205 0
M  V30 4512 C 418.306 -2.0623 2.68802 0
M  V30 4513 C 416.865 -2.597 2.72457 0
M  V30 4514 C 416.012 -1.36201 2.41546 0
M  V30 4515 H 418.963 -0.337698 1.55065 0
M  V30 4516 H 418.984 -2.90196 2.46103 0
M  V30 4517 H 418.496 -1.46987 3.59188 0
M  V30 4518 H 416.597 -3.22724 1.86225 0
M  V30 4519 H 416.71 -3.00296 3.73308 0
M  V30 4520 H 415.074 -1.67068 1.9225 0
M  V30 4521 H 415.857 -0.787425 3.34147 0
M  V30 4522 N 418.302 -1.35869 -0.798587 0
M  V30 4523 C 419.232 -1.32118 -1.92528 0
M  V30 4524 C 420.213 -0.194209 -1.68988 0
M  V30 4525 O 421.398 -0.390426 -1.90235 0
M  V30 4526 C 418.528 -1.10047 -3.29404 0
M  V30 4527 C 417.482 -2.19471 -3.67446 0
M  V30 4528 C 416.808 -1.82555 -5.02571 0
M  V30 4529 C 418.108 -3.61495 -3.76987 0
M  V30 4530 H 419.802 -2.26394 -1.95924 0
M  V30 4531 H 417.348 -1.08981 -0.94123 0
M  V30 4532 H 419.301 -1.06061 -4.07835 0
M  V30 4533 H 418.025 -0.122195 -3.26371 0
M  V30 4534 H 416.684 -2.22568 -2.91306 0
M  V30 4535 H 416.332 -0.833249 -4.9605 0
M  V30 4536 H 416.032 -2.5581 -5.28995 0
M  V30 4537 H 417.556 -1.80108 -5.83432 0
M  V30 4538 H 418.97 -3.60676 -4.4563 0
M  V30 4539 H 417.367 -4.33577 -4.14887 0
M  V30 4540 H 418.437 -3.97065 -2.78329 0
M  V30 4541 N 419.78 1.02168 -1.19998 0
M  V30 4542 C 421.057 1.72816 -0.916191 0
M  V30 4543 C 421.437 2.03081 0.576325 0
M  V30 4544 O 420.785 1.69122 1.53656 0
M  V30 4545 C 420.995 2.9997 -1.78378 0
M  V30 4546 C 422.343 3.73336 -2.02251 0
M  V30 4547 O 423.367 3.09914 -1.75589 0
M  V30 4548 O 422.226 4.87371 -2.47249 0
M  V30 4549 H 419.32 0.752924 -0.342103 0
M  V30 4550 H 421.866 1.08062 -1.30846 0
M  V30 4551 H 420.638 2.73888 -2.79466 0
M  V30 4552 H 420.261 3.72464 -1.39126 0
M  V30 4553 N 421.258 1.00505 1.21394 0
M  V30 4554 C 422.507 0.683159 1.89778 0
M  V30 4555 C 422.82 -0.789471 1.7896 0
M  V30 4556 O 424.026 -1.22344 2.42372 0
M  V30 4557 C 422.482 1.17146 3.40301 0
M  V30 4558 C 422.09 2.67017 3.5973 0
M  V30 4559 C 423.834 0.924461 4.14311 0
M  V30 4560 C 421.741 3.09387 5.04017 0
M  V30 4561 H 420.671 0.25183 0.710702 0
M  V30 4562 H 423.322 1.21622 1.37406 0
M  V30 4563 H 421.704 0.566451 3.91928 0
M  V30 4564 H 422.878 3.32968 3.18542 0
M  V30 4565 H 421.193 2.89732 2.99073 0
M  V30 4566 H 423.79 1.21658 5.20676 0
M  V30 4567 H 424.133 -0.139286 4.16067 0
M  V30 4568 H 424.666 1.49226 3.6875 0
M  V30 4569 H 421.405 4.14989 5.07409 0
M  V30 4570 H 420.925 2.48149 5.46061 0
M  V30 4571 H 422.604 3.01371 5.72525 0
M  V30 4572 N 422.737 -1.36956 0.779787 0
M  V30 4573 C 424.148 -1.82094 0.412156 0
M  V30 4574 C 424.499 -1.64926 -1.06273 0
M  V30 4575 O 423.624 -1.16483 -1.82375 0
M  V30 4576 C 424.219 -3.3059 0.741319 0
M  V30 4577 C 422.778 -3.73974 0.426641 0
M  V30 4578 C 421.925 -2.59368 0.980987 0
M  V30 4579 H 424.876 -1.25314 0.973758 0
M  V30 4580 H 424.897 -3.80489 0.028887 0
M  V30 4581 H 424.409 -3.43054 1.81482 0
M  V30 4582 H 422.51 -3.67076 -0.639215 0
M  V30 4583 H 422.623 -4.69778 0.940515 0
M  V30 4584 H 420.987 -2.51463 0.404757 0
M  V30 4585 H 421.77 -2.74621 2.06005 0
M  V30 4586 N 424.215 -0.530993 -1.48385 0
M  V30 4587 C 425.626 -0.0907905 -1.86479 0
M  V30 4588 C 425.977 1.33213 -1.44044 0
M  V30 4589 O 425.102 1.99783 -0.831615 0
M  V30 4590 C 425.697 -0.157987 -3.38431 0
M  V30 4591 C 424.256 0.227026 -3.75715 0
M  V30 4592 C 423.403 -0.5173 -2.72432 0
M  V30 4593 H 426.354 -0.742186 -1.40276 0
M  V30 4594 H 426.375 0.630053 -3.75247 0
M  V30 4595 H 425.887 -1.19372 -3.69286 0
M  V30 4596 H 423.988 1.26486 -3.50474 0
M  V30 4597 H 424.101 -0.113288 -4.78966 0
M  V30 4598 H 422.465 0.0365527 -2.54674 0
M  V30 4599 H 423.248 -1.55368 -3.0613 0
M  V30 4600 N 425.693 1.55336 -0.266172 0
M  V30 4601 C 426.942 1.98574 0.353749 0
M  V30 4602 C 427.255 1.15789 1.57646 0
M  V30 4603 O 428.461 1.49129 2.26876 0
M  V30 4604 C 426.917 3.53403 0.680747 0
M  V30 4605 C 426.525 4.44953 -0.52165 0
M  V30 4606 C 428.269 4.05251 1.26379 0
M  V30 4607 C 426.176 5.91156 -0.169736 0
M  V30 4608 H 425.106 0.741643 0.135949 0
M  V30 4609 H 427.757 1.79743 -0.369421 0
M  V30 4610 H 426.139 3.68001 1.46257 0
M  V30 4611 H 427.313 4.42121 -1.29869 0
M  V30 4612 H 425.628 4.03691 -1.02093 0
M  V30 4613 H 428.225 5.12021 1.54074 0
M  V30 4614 H 428.568 3.53749 2.19471 0
M  V30 4615 H 429.101 3.94057 0.544447 0
M  V30 4616 H 425.84 6.46736 -1.0683 0
M  V30 4617 H 425.36 5.97079 0.570717 0
M  V30 4618 H 427.039 6.4655 0.241245 0
M  V30 4619 N 427.171 -0.0066808 1.57599 0
M  V30 4620 C 428.118 -1.00024 2.08 0
M  V30 4621 C 429.088 -1.34549 0.973943 0
M  V30 4622 O 430.273 -1.44502 1.24595 0
M  V30 4623 C 427.413 -2.2891 2.58252 0
M  V30 4624 C 426.526 -2.00346 3.82734 0
M  V30 4625 C 425.661 -3.23265 4.21513 0
M  V30 4626 C 424.7 -2.90357 5.3885 0
M  V30 4627 N 423.837 -4.05793 5.72954 0
M  V30 4628 H 428.677 -0.563499 2.92624 0
M  V30 4629 H 426.214 -0.266592 1.44664 0
M  V30 4630 H 428.172 -3.04247 2.85464 0
M  V30 4631 H 426.802 -2.70265 1.76512 0
M  V30 4632 H 425.854 -1.15406 3.62471 0
M  V30 4633 H 427.166 -1.72086 4.68175 0
M  V30 4634 H 426.32 -4.06953 4.49971 0
M  V30 4635 H 425.059 -3.54657 3.34768 0
M  V30 4636 H 424.064 -2.05075 5.10122 0
M  V30 4637 H 425.289 -2.60219 6.27266 0
M  V30 4638 H 423.235 -4.37094 4.89167 0
M  V30 4639 H 423.152 -3.81034 6.52954 0
M  V30 4640 H 424.42 -4.90289 6.06001 0
M  V30 4641 N 428.649 -1.55105 -0.279332 0
M  V30 4642 C 429.897 -1.75066 -1.00977 0
M  V30 4643 C 430.218 -0.551276 -1.87045 0
M  V30 4644 O 429.488 0.433984 -1.91032 0
M  V30 4645 H 428.068 -0.645578 -0.375816 0
M  V30 4646 H 430.73 -1.92497 -0.305089 0
M  V30 4647 H 429.826 -2.64894 -1.65038 0
M  V30 4648 N 430.127 0.543554 -1.4793 0
M  V30 4649 C 431.355 1.32516 -1.58894 0
M  V30 4650 C 431.77 1.87215 -0.244131 0
M  V30 4651 O 431.127 1.65709 0.764652 0
M  V30 4652 C 431.178 2.48554 -2.62494 0
M  V30 4653 O 430.899 1.96112 -3.91755 0
M  V30 4654 C 432.4 3.40572 -2.8377 0
M  V30 4655 H 429.62 0.403472 -0.536145 0
M  V30 4656 H 432.164 0.657106 -1.93655 0
M  V30 4657 H 430.319 3.1127 -2.30629 0
M  V30 4658 H 430.733 2.71967 -4.4848 0
M  V30 4659 H 432.207 4.18375 -3.60093 0
M  V30 4660 H 432.684 3.94965 -1.92092 0
M  V30 4661 H 433.29 2.8366 -3.16887 0
M  V30 4662 N 431.605 1.3629 0.791371 0
M  V30 4663 C 432.833 1.33562 1.58016 0
M  V30 4664 C 433.248 -0.0835616 1.88615 0
M  V30 4665 O 432.605 -1.0399 1.49974 0
M  V30 4666 C 432.656 2.15517 2.90232 0
M  V30 4667 O 432.377 3.51902 2.60953 0
M  V30 4668 C 433.878 2.20546 3.84544 0
M  V30 4669 H 431.098 0.458226 0.490173 0
M  V30 4670 H 433.642 1.79361 0.982345 0
M  V30 4671 H 431.797 1.73278 3.46487 0
M  V30 4672 H 432.211 3.94644 3.4548 0
M  V30 4673 H 433.685 2.82252 4.74382 0
M  V30 4674 H 434.162 1.20838 4.2225 0
M  V30 4675 H 434.768 2.63013 3.34222 0
M  V30 4676 N 433.083 -1.0153 1.20538 0
M  V30 4677 C 434.494 -1.56598 1.01657 0
M  V30 4678 C 434.845 -1.91505 -0.426668 0
M  V30 4679 O 433.97 -1.72375 -1.30827 0
M  V30 4680 C 434.565 -2.84542 1.83905 0
M  V30 4681 C 433.124 -3.36133 1.69386 0
M  V30 4682 C 432.271 -2.09427 1.81757 0
M  V30 4683 H 435.222 -0.838974 1.34711 0
M  V30 4684 H 435.243 -3.56004 1.34319 0
M  V30 4685 H 434.755 -2.59105 2.8894 0
M  V30 4686 H 432.856 -3.66528 0.669933 0
M  V30 4687 H 432.969 -4.08248 2.50739 0
M  V30 4688 H 431.333 -2.21941 1.24957 0
M  V30 4689 H 432.116 -1.86414 2.88279 0
M  V30 4690 N 434.561 -1.01147 -1.20859 0
M  V30 4691 C 435.471 -0.58686 -2.27141 0
M  V30 4692 C 436.487 0.373198 -1.69951 0
M  V30 4693 O 437.663 0.235423 -2.00019 0
M  V30 4694 C 434.728 0.0733602 -3.46622 0
M  V30 4695 C 433.789 -0.931995 -4.19061 0
M  V30 4696 C 433.022 -0.303186 -5.32838 0
M  V30 4697 O 433.245 0.898395 -5.63281 0
M  V30 4698 O 432.179 -1.01735 -5.9324 0
M  V30 4699 H 436.005 -1.47155 -2.65667 0
M  V30 4700 H 433.59 -0.780689 -1.2738 0
M  V30 4701 H 435.472 0.442333 -4.19072 0
M  V30 4702 H 434.147 0.932329 -3.09983 0
M  V30 4703 H 433.054 -1.35224 -3.48805 0
M  V30 4704 H 434.387 -1.76076 -4.59628 0
M  V30 4705 N 436.039 1.36541 -0.78704 0
M  V30 4706 C 437.287 1.98911 -0.357633 0
M  V30 4707 C 437.608 1.62778 1.07371 0
M  V30 4708 O 436.878 0.900612 1.73971 0
M  V30 4709 H 435.458 0.735734 -0.129246 0
M  V30 4710 H 438.12 1.66776 -1.00855 0
M  V30 4711 H 437.216 3.08874 -0.447549 0
M  V30 4712 N 437.518 0.538854 1.48102 0
M  V30 4713 C 438.428 -0.222648 2.33541 0
M  V30 4714 C 439.444 -0.930225 1.47047 0
M  V30 4715 O 440.62 -0.903211 1.80011 0
M  V30 4716 C 437.685 -1.25064 3.23357 0
M  V30 4717 C 436.746 -0.552469 4.2573 0
M  V30 4718 C 435.979 -1.53149 5.11254 0
M  V30 4719 O 436.202 -2.76487 4.9891 0
M  V30 4720 O 435.136 -1.06602 5.92385 0
M  V30 4721 H 438.962 0.477707 2.99919 0
M  V30 4722 H 436.547 0.299669 1.46364 0
M  V30 4723 H 438.429 -1.8445 3.78888 0
M  V30 4724 H 437.104 -1.93325 2.59629 0
M  V30 4725 H 436.011 0.082114 3.7401 0
M  V30 4726 H 437.344 0.0883526 4.92121 0
M  V30 4727 N 438.996 -1.55193 0.274407 0
M  V30 4728 C 440.242 -1.99877 -0.343086 0
M  V30 4729 C 440.575 -1.16256 -1.55558 0
M  V30 4730 O 439.85 -0.232462 -1.93106 0
M  V30 4731 C 440.133 -3.52706 -0.725965 0
M  V30 4732 C 439.986 -4.47081 0.493818 0
M  V30 4733 C 441.305 -4.11422 -1.56268 0
M  V30 4734 H 438.424 -0.726625 -0.123229 0
M  V30 4735 H 441.066 -1.86136 0.38121 0
M  V30 4736 H 439.216 -3.64546 -1.34307 0
M  V30 4737 H 440.888 -4.47186 1.13237 0
M  V30 4738 H 439.131 -4.1877 1.13201 0
M  V30 4739 H 439.802 -5.51699 0.18217 0
M  V30 4740 H 442.278 -4.02855 -1.04151 0
M  V30 4741 H 441.154 -5.18568 -1.79939 0
M  V30 4742 H 441.415 -3.61607 -2.54348 0
M  V30 4743 N 440.474 -0.00167713 -1.576 0
M  V30 4744 C 441.72 0.683832 -1.90923 0
M  V30 4745 C 442.053 1.7333 -0.875799 0
M  V30 4746 O 441.328 1.94215 0.10525 0
M  V30 4747 C 441.611 1.32543 -3.3482 0
M  V30 4748 C 441.464 0.287387 -4.48881 0
M  V30 4749 C 442.783 2.25114 -3.78169 0
M  V30 4750 H 439.902 0.247125 -0.694333 0
M  V30 4751 H 442.544 -0.0533149 -1.89925 0
M  V30 4752 H 440.694 1.95372 -3.35801 0
M  V30 4753 H 442.366 -0.341346 -4.60035 0
M  V30 4754 H 440.609 -0.39017 -4.32042 0
M  V30 4755 H 441.28 0.775393 -5.46527 0
M  V30 4756 H 443.756 1.723 -3.7875 0
M  V30 4757 H 442.632 2.66971 -4.79602 0
M  V30 4758 H 442.893 3.13092 -3.12131 0
M  V30 4759 N 441.952 1.55251 0.271103 0
M  V30 4760 C 442.862 1.9136 1.35714 0
M  V30 4761 C 443.878 0.811075 1.5394 0
M  V30 4762 O 445.054 1.11031 1.6803 0
M  V30 4763 C 442.119 2.1798 2.69603 0
M  V30 4764 C 441.18 3.4153 2.60107 0
M  V30 4765 C 440.413 3.66871 3.8761 0
M  V30 4766 O 440.636 2.94689 4.8838 0
M  V30 4767 O 439.57 4.60405 3.87699 0
M  V30 4768 H 443.396 2.83815 1.08088 0
M  V30 4769 H 440.981 1.41821 0.469792 0
M  V30 4770 H 442.863 2.36518 3.48765 0
M  V30 4771 H 441.538 1.28708 2.97012 0
M  V30 4772 H 440.445 3.28325 1.79314 0
M  V30 4773 H 441.778 4.31027 2.37647 0
M  V30 4774 N 443.43 -0.535701 1.48216 0
M  V30 4775 C 444.679 -1.28828 1.55197 0
M  V30 4776 C 444.992 -1.94263 0.228278 0
M  V30 4777 O 446.198 -2.70927 0.176278 0
M  V30 4778 C 444.654 -2.33727 2.73678 0
M  V30 4779 C 444.262 -1.74386 4.12666 0
M  V30 4780 C 446.006 -3.1003 2.89968 0
M  V30 4781 C 443.913 -2.77192 5.22416 0
M  V30 4782 H 442.843 -0.484484 0.577747 0
M  V30 4783 H 445.494 -0.56646 1.74538 0
M  V30 4784 H 443.876 -3.08919 2.4776 0
M  V30 4785 H 445.05 -1.05421 4.48579 0
M  V30 4786 H 443.365 -1.10595 4.01445 0
M  V30 4787 H 445.962 -3.86842 3.6913 0
M  V30 4788 H 446.305 -3.65542 1.9921 0
M  V30 4789 H 446.838 -2.41952 3.15759 0
M  V30 4790 H 443.577 -2.26507 6.15122 0
M  V30 4791 H 443.097 -3.44502 4.90998 0
M  V30 4792 H 444.776 -3.40285 5.50286 0
M  V30 4793 N 444.908 -1.36708 -0.784132 0
M  V30 4794 C 445.858 -1.2799 -1.88686 0
M  V30 4795 C 446.842 -0.170282 -1.59996 0
M  V30 4796 O 448.034 -0.403571 -1.72338 0
M  V30 4797 C 445.163 -1.07674 -3.25977 0
M  V30 4798 C 444.249 -2.23127 -3.60659 0
M  V30 4799 N 444.64 -3.48467 -3.66612 0
M  V30 4800 C 442.938 -2.15009 -3.90752 0
M  V30 4801 C 443.639 -4.24525 -3.97685 0
M  V30 4802 N 442.615 -3.53524 -4.12943 0
M  V30 4803 H 446.417 -2.22927 -1.91522 0
M  V30 4804 H 443.931 -1.29503 -0.979933 0
M  V30 4805 H 445.928 -0.995151 -4.04849 0
M  V30 4806 H 444.588 -0.13643 -3.24413 0
M  V30 4807 H 445.599 -3.82534 -3.49125 0
M  V30 4808 H 442.276 -1.28963 -3.97083 0
M  V30 4809 H 443.666 -5.32944 -4.0917 0
M  V30 4810 N 446.386 1.0089 -1.21074 0
M  V30 4811 C 447.797 1.56056 -1.02486 0
M  V30 4812 C 448.148 1.91728 0.416506 0
M  V30 4813 O 447.273 1.73066 1.29912 0
M  V30 4814 C 447.868 2.83563 -1.85411 0
M  V30 4815 C 446.427 3.3523 -1.71166 0
M  V30 4816 C 445.574 2.0846 -1.82865 0
M  V30 4817 H 448.525 0.831818 -1.35154 0
M  V30 4818 H 448.546 3.55286 -1.36205 0
M  V30 4819 H 448.058 2.57569 -2.9031 0
M  V30 4820 H 446.159 3.66167 -0.689361 0
M  V30 4821 H 446.272 4.06913 -2.52901 0
M  V30 4822 H 444.636 2.21275 -1.26132 0
M  V30 4823 H 445.419 1.84883 -2.89263 0
M  V30 4824 N 447.864 1.01787 1.20321 0
M  V30 4825 C 449.141 0.622978 1.85414 0
M  V30 4826 C 449.521 -0.898887 1.91006 0
M  V30 4827 O 448.869 -1.79112 1.41884 0
M  V30 4828 C 449.079 1.27226 3.24984 0
M  V30 4829 C 450.427 1.3885 4.01255 0
M  V30 4830 O 451.451 1.22857 3.34342 0
M  V30 4831 O 450.31 1.64705 5.2109 0
M  V30 4832 H 447.404 0.215116 0.798533 0
M  V30 4833 H 449.95 1.11533 1.27901 0
M  V30 4834 H 448.722 2.31209 3.15687 0
M  V30 4835 H 448.345 0.767069 3.90131 0
M  V30 4836 N 449.342 -1.36122 0.79427 0
M  V30 4837 C 450.753 -1.81646 0.431446 0
M  V30 4838 C 451.104 -1.66043 -1.04518 0
M  V30 4839 O 450.229 -1.1841 -1.8113 0
M  V30 4840 C 450.824 -3.29785 0.776341 0
M  V30 4841 C 449.383 -3.73501 0.466282 0
M  V30 4842 C 448.53 -2.58313 1.00844 0
M  V30 4843 H 451.481 -1.24274 0.986995 0
M  V30 4844 H 451.502 -3.80437 0.0692413 0
M  V30 4845 H 451.014 -3.4111 1.8511 0
M  V30 4846 H 449.115 -3.67733 -0.600245 0
M  V30 4847 H 449.228 -4.68754 0.990288 0
M  V30 4848 H 447.592 -2.5102 0.431406 0
M  V30 4849 H 448.375 -2.72421 2.08906 0
M  V30 4850 N 450.82 -0.546701 -1.47814 0
M  V30 4851 C 451.768 0.220048 -2.31557 0
M  V30 4852 C 452.762 0.919472 -1.42275 0
M  V30 4853 O 453.968 0.841953 -1.59095 0
M  V30 4854 H 450.343 0.0898334 -0.746615 0
M  V30 4855 H 452.314 -0.505589 -2.94086 0
M  V30 4856 C 451.063 1.24353 -3.24702 0
M  V30 4857 H 450.386 0.714758 -3.93359 0
M  V30 4858 H 451.826 1.75112 -3.8615 0
M  V30 4859 C 450.285 2.28593 -2.47481 0
M  V30 4860 O 450.815 3.35334 -2.21165 0
M  V30 4861 N 449.021 2.02244 -2.08676 0
M  V30 4862 H 448.568 1.15455 -2.30278 0
M  V30 4863 H 448.526 2.72207 -1.57323 0
M  V30 4864 N 452.299 1.55045 -0.282633 0
M  V30 4865 C 453.547 1.99365 0.331334 0
M  V30 4866 C 453.868 1.1725 1.55812 0
M  V30 4867 O 453.138 0.263871 1.94115 0
M  V30 4868 H 451.718 0.736397 0.125414 0
M  V30 4869 H 454.38 1.90964 -0.389711 0
M  V30 4870 H 453.476 3.0596 0.616036 0
M  V30 4871 N 453.777 0.010035 1.57597 0
M  V30 4872 C 455.188 -0.531426 1.78977 0
M  V30 4873 C 455.539 -1.73375 0.918454 0
M  V30 4874 O 454.664 -2.16047 0.123635 0
M  V30 4875 C 455.259 -0.97086 3.24592 0
M  V30 4876 C 453.818 -1.45756 3.47033 0
M  V30 4877 C 452.965 -0.413384 2.74201 0
M  V30 4878 H 455.916 0.236166 1.56933 0
M  V30 4879 H 455.937 -1.83633 3.33255 0
M  V30 4880 H 455.449 -0.0955893 3.87982 0
M  V30 4881 H 453.55 -2.35339 2.88871 0
M  V30 4882 H 453.663 -1.4781 4.55729 0
M  V30 4883 H 452.027 -0.877266 2.39115 0
M  V30 4884 H 452.81 0.453092 3.40297 0
M  V30 4885 N 455.255 -1.55392 -0.262866 0
M  V30 4886 C 456.185 -1.91978 -1.32917 0
M  V30 4887 C 457.166 -0.7828 -1.51017 0
M  V30 4888 O 458.351 -1.04178 -1.63892 0
M  V30 4889 C 455.481 -2.20055 -2.68687 0
M  V30 4890 C 454.435 -3.35854 -2.65304 0
M  V30 4891 C 453.761 -3.49435 -4.04721 0
M  V30 4892 C 455.061 -4.71977 -2.23685 0
M  V30 4893 H 456.755 -2.81292 -1.02544 0
M  V30 4894 H 454.301 -1.3534 -0.491846 0
M  V30 4895 H 456.254 -2.44237 -3.43404 0
M  V30 4896 H 454.978 -1.27551 -3.00663 0
M  V30 4897 H 453.637 -3.11655 -1.93045 0
M  V30 4898 H 453.285 -2.54379 -4.33936 0
M  V30 4899 H 452.985 -4.27297 -4.0335 0
M  V30 4900 H 454.509 -3.7592 -4.81161 0
M  V30 4901 H 455.923 -4.95637 -2.88127 0
M  V30 4902 H 454.32 -5.52828 -2.33456 0
M  V30 4903 H 455.39 -4.70115 -1.18827 0
M  V30 4904 N 456.733 0.527833 -1.48498 0
M  V30 4905 C 457.696 1.61439 -1.62696 0
M  V30 4906 C 458.696 1.52824 -0.500136 0
M  V30 4907 O 459.886 1.56456 -0.765976 0
M  V30 4908 C 457.018 3.01063 -1.59918 0
M  V30 4909 H 458.211 1.50189 -2.59583 0
M  V30 4910 H 455.764 0.750055 -1.37127 0
M  V30 4911 H 456.499 3.17818 -0.645163 0
M  V30 4912 H 456.284 3.08725 -2.41726 0
M  V30 4913 H 457.774 3.80057 -1.73051 0
M  V30 4914 N 458.211 1.37122 0.776871 0
M  V30 4915 C 459.174 1.32301 1.8716 0
M  V30 4916 C 460.174 0.228099 1.59174 0
M  V30 4917 O 461.364 0.483642 1.67352 0
M  V30 4918 C 458.496 1.054 3.24197 0
M  V30 4919 H 459.689 2.29673 1.92848 0
M  V30 4920 H 457.242 1.22077 0.97606 0
M  V30 4921 H 457.977 0.0853872 3.24188 0
M  V30 4922 H 457.762 1.84648 3.45901 0
M  V30 4923 H 459.252 1.04664 4.04271 0
M  V30 4924 N 459.689 -1.00246 1.21608 0
M  V30 4925 C 460.619 -2.10921 1.00172 0
M  V30 4926 C 461.6 -1.69938 -0.0741587 0
M  V30 4927 O 462.785 -1.94009 0.0861753 0
M  V30 4928 C 459.915 -3.42618 0.568355 0
M  V30 4929 C 458.869 -3.97407 1.58909 0
M  V30 4930 C 458.195 -5.25038 1.01187 0
M  V30 4931 C 459.495 -4.2918 2.97661 0
M  V30 4932 H 461.189 -2.29112 1.92739 0
M  V30 4933 H 458.735 -1.10101 0.928102 0
M  V30 4934 H 460.688 -4.19444 0.405555 0
M  V30 4935 H 459.412 -3.24227 -0.392961 0
M  V30 4936 H 458.071 -3.22703 1.73949 0
M  V30 4937 H 457.719 -5.02982 0.0421965 0
M  V30 4938 H 457.419 -5.62661 1.6937 0
M  V30 4939 H 458.943 -6.04507 0.860448 0
M  V30 4940 H 460.357 -4.96839 2.86049 0
M  V30 4941 H 458.754 -4.77952 3.6288 0
M  V30 4942 H 459.824 -3.3735 3.48315 0
M  V30 4943 N 461.167 -1.02423 -1.1978 0
M  V30 4944 C 462.13 -0.605703 -2.21052 0
M  V30 4945 C 463.13 0.328209 -1.57415 0
M  V30 4946 O 464.32 0.115853 -1.73814 0
M  V30 4947 C 461.452 0.114366 -3.40708 0
M  V30 4948 H 462.645 -1.5017 -2.59594 0
M  V30 4949 H 460.198 -0.814888 -1.33376 0
M  V30 4950 H 460.933 1.02492 -3.07678 0
M  V30 4951 H 460.718 -0.556641 -3.88129 0
M  V30 4952 H 462.208 0.394272 -4.15735 0
M  V30 4953 N 462.645 1.35699 -0.801477 0
M  V30 4954 C 463.892 1.98913 -0.379459 0
M  V30 4955 C 464.22 1.63592 1.05204 0
M  V30 4956 O 463.475 0.888563 1.74365 0
M  V30 4957 C 463.774 3.53828 -0.504041 0
M  V30 4958 C 463.44 4.09002 -1.8981 0
M  V30 4959 C 462.102 4.23783 -2.27951 0
M  V30 4960 C 464.454 4.38939 -2.81038 0
M  V30 4961 C 461.782 4.65816 -3.56696 0
M  V30 4962 C 464.134 4.82409 -4.09224 0
M  V30 4963 C 462.798 4.95395 -4.4737 0
M  V30 4964 H 462.068 0.727874 -0.138854 0
M  V30 4965 H 464.715 1.61994 -1.02128 0
M  V30 4966 H 463.02 3.91175 0.221242 0
M  V30 4967 H 464.717 4.00687 -0.158361 0
M  V30 4968 H 461.307 3.97946 -1.59176 0
M  V30 4969 H 465.491 4.27077 -2.52821 0
M  V30 4970 H 460.747 4.74059 -3.86106 0
M  V30 4971 H 464.921 5.04535 -4.80018 0
M  V30 4972 H 462.548 5.27724 -5.47185 0
M  V30 4973 N 464.123 0.554532 1.47522 0
M  V30 4974 C 465.07 -0.19466 2.29978 0
M  V30 4975 C 466.04 -0.910882 1.38896 0
M  V30 4976 O 467.225 -0.907102 1.67858 0
M  V30 4977 C 464.365 -1.22035 3.22802 0
M  V30 4978 C 463.478 -0.510474 4.28973 0
M  V30 4979 C 462.613 -1.52123 5.08952 0
M  V30 4980 C 461.652 -0.796173 6.069 0
M  V30 4981 N 460.789 -1.75363 6.79847 0
M  V30 4982 H 465.629 0.51461 2.93523 0
M  V30 4983 H 463.166 0.265607 1.44682 0
M  V30 4984 H 465.124 -1.8276 3.7504 0
M  V30 4985 H 463.754 -1.89769 2.61127 0
M  V30 4986 H 462.806 0.211234 3.79813 0
M  V30 4987 H 464.118 0.0576503 4.98767 0
M  V30 4988 H 463.272 -2.20207 5.65326 0
M  V30 4989 H 462.011 -2.12327 4.39054 0
M  V30 4990 H 461.016 -0.101388 5.49707 0
M  V30 4991 H 462.241 -0.199911 6.78806 0
M  V30 4992 H 460.187 -2.3443 6.12682 0
M  V30 4993 H 460.104 -1.23759 7.45801 0
M  V30 4994 H 461.372 -2.4257 7.40797 0
M  V30 4995 N 465.601 -1.54893 0.290851 0
M  V30 4996 C 466.85 -1.99111 -0.322113 0
M  V30 4997 C 467.163 -1.18283 -1.55784 0
M  V30 4998 O 468.369 -1.5272 -2.24475 0
M  V30 4999 C 466.825 -3.54442 -0.624438 0
M  V30 5000 C 466.433 -4.44066 0.592373 0
M  V30 5001 C 468.177 -4.07211 -1.19916 0
M  V30 5002 C 466.084 -5.90812 0.263762 0
M  V30 5003 H 465.014 -0.743712 -0.124133 0
M  V30 5004 H 467.665 -1.79132 0.39797 0
M  V30 5005 H 466.047 -3.70281 -1.40384 0
M  V30 5006 H 467.221 -4.39999 1.36886 0
M  V30 5007 H 465.536 -4.02015 1.08502 0
M  V30 5008 H 468.133 -5.14407 -1.45909 0
M  V30 5009 H 468.476 -3.57196 -2.13815 0
M  V30 5010 H 469.009 -3.94873 -0.481687 0
M  V30 5011 H 465.748 -6.44955 1.17105 0
M  V30 5012 H 465.268 -5.97911 -0.475655 0
M  V30 5013 H 466.947 -6.46852 -0.138354 0
M  V30 5014 N 467.08 -0.0183926 -1.57589 0
M  V30 5015 C 468.013 1.00148 -2.0505 0
M  V30 5016 C 468.991 1.32387 -0.944058 0
M  V30 5017 O 470.175 1.44237 -1.21358 0
M  V30 5018 C 467.302 2.32435 -2.46357 0
M  V30 5019 C 466.348 2.15731 -3.67916 0
M  V30 5020 S 467.181 1.46613 -5.15039 0
M  V30 5021 C 468.337 2.80293 -5.59631 0
M  V30 5022 H 468.57 0.597429 -2.91235 0
M  V30 5023 H 466.103 0.193002 -1.53189 0
M  V30 5024 H 468.061 3.0849 -2.70822 0
M  V30 5025 H 466.722 2.69975 -1.60537 0
M  V30 5026 H 465.915 3.13502 -3.9463 0
M  V30 5027 H 465.517 1.4782 -3.43548 0
M  V30 5028 H 467.809 3.76557 -5.63215 0
M  V30 5029 H 468.752 2.58256 -6.59325 0
M  V30 5030 H 469.16 2.85047 -4.87246 0
M  V30 5031 N 468.558 1.5553 0.254621 0
M  V30 5032 C 469.521 1.88872 1.29846 0
M  V30 5033 C 470.521 0.764591 1.41459 0
M  V30 5034 O 471.711 1.03265 1.40293 0
M  V30 5035 C 468.843 2.11032 2.67728 0
M  V30 5036 H 470.036 2.82201 1.01502 0
M  V30 5037 H 467.589 1.48303 0.493556 0
M  V30 5038 H 468.324 1.20146 3.01223 0
M  V30 5039 H 468.109 2.92895 2.60682 0
M  V30 5040 H 469.599 2.38038 3.43115 0
M  V30 5041 N 470.036 -0.519951 1.48776 0
M  V30 5042 C 471.313 -1.28123 1.47797 0
M  V30 5043 C 471.693 -2.10196 0.195157 0
M  V30 5044 O 471.041 -2.13167 -0.822925 0
M  V30 5045 C 471.251 -2.15413 2.74587 0
M  V30 5046 C 472.599 -2.75225 3.23321 0
M  V30 5047 O 473.623 -2.25694 2.75574 0
M  V30 5048 O 472.482 -3.65346 4.06429 0
M  V30 5049 H 469.576 -0.578793 0.590701 0
M  V30 5050 H 472.122 -0.535779 1.6102 0
M  V30 5051 H 470.894 -1.54617 3.59457 0
M  V30 5052 H 470.517 -2.97186 2.64132 0
M  V30 5053 N 471.514 -1.37532 -0.769588 0
M  V30 5054 C 472.925 -1.29382 -1.346 0
M  V30 5055 C 473.276 0.0576039 -1.96115 0
M  V30 5056 O 472.401 0.95947 -1.93967 0
M  V30 5057 C 472.996 -2.34298 -2.44724 0
M  V30 5058 C 471.555 -2.29776 -2.98128 0
M  V30 5059 C 470.702 -2.18013 -1.71364 0
M  V30 5060 H 473.653 -1.48123 -0.56968 0
M  V30 5061 H 473.674 -1.99089 -3.24259 0
M  V30 5062 H 473.186 -3.32645 -1.99922 0
M  V30 5063 H 471.287 -1.34959 -3.47299 0
M  V30 5064 H 471.4 -3.23276 -3.53595 0
M  V30 5065 H 469.764 -1.64595 -1.94372 0
M  V30 5066 H 470.547 -3.18278 -1.28662 0
M  V30 5067 N 472.992 0.995999 -1.22138 0
M  V30 5068 C 474.222 1.76809 -1.06874 0
M  V30 5069 C 474.63 1.85265 0.383866 0
M  V30 5070 O 473.973 1.31969 1.27789 0
M  V30 5071 C 474.035 3.2186 -1.60144 0
M  V30 5072 C 473.699 3.36958 -3.0872 0
M  V30 5073 C 474.696 3.2452 -4.0618 0
M  V30 5074 C 472.381 3.62109 -3.48112 0
M  V30 5075 C 474.375 3.37013 -5.41019 0
M  V30 5076 C 472.062 3.74243 -4.831 0
M  V30 5077 C 473.06 3.61702 -5.79362 0
M  V30 5078 O 472.748 3.73436 -7.119 0
M  V30 5079 H 472.48 0.562207 -0.375365 0
M  V30 5080 H 475.034 1.26113 -1.62125 0
M  V30 5081 H 473.264 3.73734 -0.992981 0
M  V30 5082 H 474.953 3.80775 -1.40589 0
M  V30 5083 H 475.719 3.05004 -3.77091 0
M  V30 5084 H 471.598 3.70949 -2.73712 0
M  V30 5085 H 475.142 3.27141 -6.16137 0
M  V30 5086 H 471.039 3.93266 -5.11872 0
M  V30 5087 H 471.807 3.90328 -7.19435 0
M  V30 5088 N 474.47 1.03057 1.19235 0
M  V30 5089 C 475.716 0.729098 1.89241 0
M  V30 5090 C 476.049 -0.740573 1.79525 0
M  V30 5091 O 475.324 -1.53946 1.18874 0
M  V30 5092 C 475.607 1.18304 3.40112 0
M  V30 5093 C 475.46 2.71406 3.5869 0
M  V30 5094 C 476.779 0.765161 4.33397 0
M  V30 5095 H 473.898 0.266338 0.687192 0
M  V30 5096 H 476.54 1.28079 1.40341 0
M  V30 5097 H 474.69 0.713672 3.81889 0
M  V30 5098 H 476.362 3.26303 3.26074 0
M  V30 5099 H 474.605 3.11717 3.01687 0
M  V30 5100 H 475.276 2.98225 4.64506 0
M  V30 5101 H 477.752 1.16889 3.99345 0
M  V30 5102 H 476.628 1.11065 5.37546 0
M  V30 5103 H 476.889 -0.332372 4.40849 0
M  V30 5104 N 475.948 -1.35272 0.808662 0
M  V30 5105 C 477.196 -1.98316 0.389233 0
M  V30 5106 C 477.517 -1.64465 -1.04767 0
M  V30 5107 O 476.787 -0.928175 -1.72516 0
M  V30 5108 H 475.367 -0.733585 0.140935 0
M  V30 5109 H 478.029 -1.6515 1.03496 0
M  V30 5110 H 477.125 -3.08123 0.496631 0
M  V30 5111 N 477.426 -0.562348 -1.47226 0
M  V30 5112 C 478.842 -0.222492 -1.58042 0
M  V30 5113 C 479.042 1.27505 -1.56028 0
M  V30 5114 O 478.098 2.05555 -1.46641 0
M  V30 5115 C 479.411 -0.853694 -2.88327 0
M  V30 5116 C 480.959 -0.825397 -3.01921 0
M  V30 5117 C 481.434 -1.43576 -4.34914 0
M  V30 5118 N 482.925 -1.39918 -4.41562 0
M  V30 5119 C 483.66 -1.84103 -5.43041 0
M  V30 5120 N 483.156 -2.36167 -6.51304 0
M  V30 5121 N 484.949 -1.75142 -5.34118 0
M  V30 5122 H 477.1 -1.53525 -1.46778 0
M  V30 5123 H 479.363 -0.640527 -0.698877 0
M  V30 5124 H 479.069 -1.90635 -2.95552 0
M  V30 5125 H 478.943 -0.34977 -3.75575 0
M  V30 5126 H 481.33 0.218583 -2.94289 0
M  V30 5127 H 481.411 -1.36713 -2.16202 0
M  V30 5128 H 481.055 -2.47884 -4.43301 0
M  V30 5129 H 480.985 -0.869427 -5.19373 0
M  V30 5130 H 483.476 -1.0184 -3.63919 0
M  V30 5131 H 483.789 -2.67793 -7.24919 0
M  V30 5132 H 482.134 -2.40181 -6.52179 0
M  V30 5133 H 485.325 -1.34241 -4.48439 0
M  V30 5134 H 485.498 -2.09895 -6.13065 0
M  V30 5135 N 478.904 1.54736 -0.299062 0
M  V30 5136 C 479.834 2.26409 0.571085 0
M  V30 5137 C 480.815 1.2629 1.13951 0
M  V30 5138 O 482 1.55059 1.16921 0
M  V30 5139 C 479.13 3.00338 1.74396 0
M  V30 5140 C 478.084 4.07588 1.30599 0
M  V30 5141 C 477.41 4.69222 2.56387 0
M  V30 5142 C 478.71 5.20455 0.438645 0
M  V30 5143 H 480.404 2.99388 -0.0266991 0
M  V30 5144 H 477.95 1.43993 -0.0142812 0
M  V30 5145 H 479.903 3.49198 2.35878 0
M  V30 5146 H 478.627 2.24934 2.36796 0
M  V30 5147 H 477.286 3.59575 0.71424 0
M  V30 5148 H 476.934 3.9046 3.17097 0
M  V30 5149 H 476.634 5.41653 2.27784 0
M  V30 5150 H 478.158 5.20844 3.18675 0
M  V30 5151 H 479.572 5.65221 0.959085 0
M  V30 5152 H 477.969 5.99594 0.246466 0
M  V30 5153 H 479.039 4.8192 -0.536738 0
M  V30 5154 N 480.382 0.0267497 1.57577 0
M  V30 5155 C 481.61 -0.662661 1.96001 0
M  V30 5156 C 482.025 -1.65799 0.903117 0
M  V30 5157 O 481.382 -1.82135 -0.115317 0
M  V30 5158 C 481.433 -1.37112 3.34488 0
M  V30 5159 O 481.154 -0.415683 4.36123 0
M  V30 5160 C 482.655 -2.15257 3.8753 0
M  V30 5161 H 479.875 -0.18287 0.6456 0
M  V30 5162 H 482.419 0.0858116 2.0432 0
M  V30 5163 H 480.574 -2.07101 3.27395 0
M  V30 5164 H 480.988 -0.918496 5.16395 0
M  V30 5165 H 482.462 -2.60285 4.86781 0
M  V30 5166 H 482.939 -2.99063 3.21649 0
M  V30 5167 H 483.545 -1.50231 3.97883 0
M  V30 5168 N 481.861 -1.55662 -0.24637 0
M  V30 5169 C 483.108 -1.77519 -0.974335 0
M  V30 5170 C 483.436 -0.591165 -1.85298 0
M  V30 5171 O 482.691 0.425497 -1.91018 0
M  V30 5172 C 482.99 -3.04885 -1.86494 0
M  V30 5173 C 482.656 -4.36209 -1.14161 0
M  V30 5174 C 481.318 -4.71896 -0.941701 0
M  V30 5175 C 483.67 -5.17391 -0.628957 0
M  V30 5176 C 480.998 -5.86299 -0.216852 0
M  V30 5177 C 483.35 -6.32546 0.0824273 0
M  V30 5178 C 482.014 -6.66853 0.293807 0
M  V30 5179 H 481.284 -0.649588 -0.356535 0
M  V30 5180 H 483.931 -1.89934 -0.244394 0
M  V30 5181 H 482.236 -2.87484 -2.66196 0
M  V30 5182 H 483.933 -3.18994 -2.42989 0
M  V30 5183 H 480.523 -4.08174 -1.30736 0
M  V30 5184 H 484.707 -4.90276 -0.770943 0
M  V30 5185 H 479.963 -6.11385 -0.0426124 0
M  V30 5186 H 484.137 -6.94693 0.487292 0
M  V30 5187 H 481.764 -7.55349 0.857428 0
M  V30 5188 N 483.339 0.512053 -1.4905 0
M  V30 5189 C 484.588 1.26343 -1.57227 0
M  V30 5190 C 484.901 1.93876 -0.259155 0
M  V30 5191 O 486.107 2.70612 -0.219358 0
M  V30 5192 C 484.563 2.29343 -2.77362 0
M  V30 5193 C 484.171 1.67799 -4.15388 0
M  V30 5194 C 485.915 3.05378 -2.94864 0
M  V30 5195 C 483.822 2.68845 -5.2676 0
M  V30 5196 H 482.752 0.475231 -0.585382 0
M  V30 5197 H 485.403 0.53862 -1.75417 0
M  V30 5198 H 483.785 3.04938 -2.52643 0
M  V30 5199 H 484.959 0.982715 -4.50199 0
M  V30 5200 H 483.274 1.04194 -4.03153 0
M  V30 5201 H 485.871 3.80921 -3.75238 0
M  V30 5202 H 486.214 3.62327 -2.05 0
M  V30 5203 H 486.747 2.36898 -3.19569 0
M  V30 5204 H 483.486 2.16692 -6.18647 0
M  V30 5205 H 483.006 3.36647 -4.96416 0
M  V30 5206 H 484.685 3.31487 -5.5563 0
M  V30 5207 N 484.817 1.37938 0.762283 0
M  V30 5208 C 486.233 1.18945 1.06415 0
M  V30 5209 C 486.433 0.0321163 2.01474 0
M  V30 5210 O 485.489 -0.624844 2.44647 0
M  V30 5211 C 486.802 2.51218 1.65258 0
M  V30 5212 C 488.35 2.57824 1.7747 0
M  V30 5213 C 488.825 3.90251 2.39725 0
M  V30 5214 N 490.316 3.91744 2.47166 0
M  V30 5215 C 491.051 4.90966 2.96209 0
M  V30 5216 N 490.547 6.00585 3.45354 0
M  V30 5217 N 492.34 4.78363 2.9517 0
M  V30 5218 H 484.491 2.11994 0.131301 0
M  V30 5219 H 486.754 0.940262 0.120879 0
M  V30 5220 H 486.46 3.36317 1.02878 0
M  V30 5221 H 486.334 2.68989 2.64433 0
M  V30 5222 H 488.721 1.73126 2.3898 0
M  V30 5223 H 488.802 2.43928 0.770241 0
M  V30 5224 H 488.446 4.75368 1.78852 0
M  V30 5225 H 488.376 4.01454 3.40796 0
M  V30 5226 H 490.867 3.12563 2.12397 0
M  V30 5227 H 491.18 6.72236 3.81207 0
M  V30 5228 H 489.525 6.04217 3.43434 0
M  V30 5229 H 492.716 3.91841 2.56082 0
M  V30 5230 H 492.889 5.55843 3.33081 0
M  V30 5231 N 486.295 -0.989507 1.22664 0
M  V30 5232 C 487.541 -1.7321 1.05481 0
M  V30 5233 C 487.874 -1.89852 -0.408635 0
M  V30 5234 O 487.149 -1.44416 -1.30285 0
M  V30 5235 C 487.432 -3.1357 1.77047 0
M  V30 5236 C 487.285 -3.04555 3.31008 0
M  V30 5237 C 488.604 -4.12812 1.5256 0
M  V30 5238 H 485.723 -0.628697 0.384589 0
M  V30 5239 H 488.365 -1.15258 1.51049 0
M  V30 5240 H 486.515 -3.63046 1.3831 0
M  V30 5241 H 488.187 -2.62674 3.7921 0
M  V30 5242 H 486.43 -2.41278 3.6051 0
M  V30 5243 H 487.101 -4.03894 3.76263 0
M  V30 5244 H 489.577 -3.72106 1.86215 0
M  V30 5245 H 488.453 -5.09132 2.05124 0
M  V30 5246 H 488.714 -4.39711 0.458936 0
M  V30 5247 N 487.773 -1.03688 -1.18687 0
M  V30 5248 C 489.003 -0.756819 -1.92239 0
M  V30 5249 C 489.411 0.689374 -1.76194 0
M  V30 5250 O 488.754 1.48126 -1.08648 0
M  V30 5251 C 488.816 -1.03851 -3.44173 0
M  V30 5252 C 488.48 -2.47785 -3.83994 0
M  V30 5253 C 489.477 -3.4595 -3.88091 0
M  V30 5254 C 487.162 -2.82397 -4.154 0
M  V30 5255 C 489.156 -4.76779 -4.23038 0
M  V30 5256 C 486.843 -4.13433 -4.50018 0
M  V30 5257 C 487.841 -5.10434 -4.53813 0
M  V30 5258 O 487.529 -6.39122 -4.87625 0
M  V30 5259 H 487.261 -0.275678 -0.617234 0
M  V30 5260 H 489.815 -1.38658 -1.51536 0
M  V30 5261 H 488.045 -0.351612 -3.85098 0
M  V30 5262 H 489.734 -0.746846 -3.9897 0
M  V30 5263 H 490.5 -3.20549 -3.63969 0
M  V30 5264 H 486.379 -2.07568 -4.11627 0
M  V30 5265 H 489.923 -5.52488 -4.25914 0
M  V30 5266 H 485.82 -4.38604 -4.736 0
M  V30 5267 H 486.588 -6.43715 -5.05542 0
M  V30 5268 N 489.251 1.34841 -0.815825 0
M  V30 5269 C 490.476 2.03261 -0.41226 0
M  V30 5270 C 490.901 1.61055 0.971751 0
M  V30 5271 O 490.259 0.7917 1.63101 0
M  V30 5272 C 490.307 3.56914 -0.514289 0
M  V30 5273 O 489.411 4.09728 0.468675 0
M  V30 5274 H 488.752 0.641664 -0.170771 0
M  V30 5275 H 491.282 1.72241 -1.10427 0
M  V30 5276 H 491.292 4.06156 -0.387457 0
M  V30 5277 H 489.967 3.86982 -1.52375 0
M  V30 5278 H 488.544 3.71681 0.301316 0
M  V30 5279 N 490.729 0.570148 1.46925 0
M  V30 5280 C 491.977 0.0508523 2.02036 0
M  V30 5281 C 492.298 -1.30885 1.44548 0
M  V30 5282 O 491.568 -1.85647 0.625453 0
M  V30 5283 H 490.148 0.0158088 0.746833 0
M  V30 5284 H 492.81 0.743086 1.80178 0
M  V30 5285 H 491.906 -0.027575 3.12088 0
M  V30 5286 N 492.207 -1.54576 0.307264 0
M  V30 5287 C 493.435 -2.04675 -0.302597 0
M  V30 5288 C 493.85 -1.18425 -1.47041 0
M  V30 5289 O 493.207 -0.211257 -1.81273 0
M  V30 5290 C 493.258 -3.53575 -0.752801 0
M  V30 5291 O 492.979 -4.36547 0.368536 0
M  V30 5292 C 494.48 -4.19699 -1.42717 0
M  V30 5293 H 491.7 -0.66786 -0.0648374 0
M  V30 5294 H 494.244 -1.99516 0.448716 0
M  V30 5295 H 492.399 -3.59074 -1.45412 0
M  V30 5296 H 492.813 -5.24497 0.0168937 0
M  V30 5297 H 494.287 -5.25388 -1.69327 0
M  V30 5298 H 494.764 -3.69815 -2.36925 0
M  V30 5299 H 495.37 -4.18293 -0.768856 0
M  V30 5300 N 493.685 -0.035106 -1.57561 0
M  V30 5301 C 494.615 0.942993 -2.13612 0
M  V30 5302 C 495.596 1.33531 -1.05373 0
M  V30 5303 O 496.781 1.41287 -1.33235 0
M  V30 5304 C 493.911 2.22332 -2.66807 0
M  V30 5305 C 492.865 1.97156 -3.79886 0
M  V30 5306 C 492.191 3.31506 -4.19533 0
M  V30 5307 C 493.491 1.30596 -5.05709 0
M  V30 5308 H 495.185 0.476179 -2.95589 0
M  V30 5309 H 492.731 0.227602 -1.4219 0
M  V30 5310 H 494.684 2.91142 -3.04654 0
M  V30 5311 H 493.408 2.7119 -1.81999 0
M  V30 5312 H 492.067 1.30763 -3.42486 0
M  V30 5313 H 491.715 3.78134 -3.31698 0
M  V30 5314 H 491.415 3.15465 -4.95738 0
M  V30 5315 H 492.939 4.01574 -4.59968 0
M  V30 5316 H 494.353 1.89416 -5.41105 0
M  V30 5317 H 492.75 1.24934 -5.86951 0
M  V30 5318 H 493.82 0.279742 -4.84092 0
M  V30 5319 N 495.163 1.55791 0.238111 0
M  V30 5320 C 496.391 1.82098 0.982233 0
M  V30 5321 C 496.806 0.612025 1.78605 0
M  V30 5322 O 496.163 -0.419381 1.77616 0
M  V30 5323 C 496.214 3.0673 1.91309 0
M  V30 5324 O 495.935 4.2296 1.14179 0
M  V30 5325 C 497.436 3.45903 2.77248 0
M  V30 5326 H 494.656 0.605748 0.288635 0
M  V30 5327 H 497.2 2.02862 0.258341 0
M  V30 5328 H 495.355 2.87991 2.59114 0
M  V30 5329 H 495.769 4.93653 1.7722 0
M  V30 5330 H 497.243 4.36189 3.38295 0
M  V30 5331 H 497.72 2.66891 3.48806 0
M  V30 5332 H 498.326 3.67024 2.14881 0
M  V30 5333 N 496.642 -0.504142 1.49319 0
M  V30 5334 C 497.867 -1.28729 1.62615 0
M  V30 5335 C 498.292 -1.85752 0.296309 0
M  V30 5336 O 497.65 -1.65704 -0.735649 0
M  V30 5337 C 497.698 -2.39561 2.69524 0
M  V30 5338 O 496.802 -3.43324 2.28478 0
M  V30 5339 H 496.143 -0.380172 0.544395 0
M  V30 5340 H 498.673 -0.603872 1.95485 0
M  V30 5341 H 498.683 -2.8537 2.91595 0
M  V30 5342 H 497.358 -1.97423 3.66056 0
M  V30 5343 H 495.935 -3.03455 2.16725 0
M  V30 5344 N 498.12 -1.38341 -0.754957 0
M  V30 5345 C 499.368 -1.34208 -1.51105 0
M  V30 5346 C 499.689 0.0677634 -1.94882 0
M  V30 5347 O 498.959 1.01517 -1.67544 0
M  V30 5348 H 497.539 -0.493819 -0.560493 0
M  V30 5349 H 500.201 -1.73005 -0.897507 0
M  V30 5350 H 499.297 -1.99203 -2.4026 0
M  V30 5351 N 499.598 0.982988 -1.23187 0
M  V30 5352 C 500.823 1.76455 -1.08988 0
M  V30 5353 C 501.248 1.84726 0.354691 0
M  V30 5354 O 500.606 1.30699 1.25649 0
M  V30 5355 C 500.654 3.17094 -1.71708 0
M  V30 5356 O 499.758 4.00648 -0.977477 0
M  V30 5357 H 499.099 0.542988 -0.382177 0
M  V30 5358 H 501.629 1.23413 -1.63188 0
M  V30 5359 H 501.639 3.67684 -1.76841 0
M  V30 5360 H 500.314 3.10389 -2.76823 0
M  V30 5361 H 498.891 3.59161 -1.0029 0
M  V30 5362 N 501.076 1.04316 1.18135 0
M  V30 5363 C 502.306 0.767003 1.91835 0
M  V30 5364 C 502.714 -0.68002 1.76557 0
M  V30 5365 O 502.057 -1.47548 1.09432 0
M  V30 5366 C 502.119 1.05674 3.43618 0
M  V30 5367 C 501.783 2.49818 3.82675 0
M  V30 5368 C 502.78 3.48003 3.86251 0
M  V30 5369 C 500.465 2.84596 4.13897 0
M  V30 5370 C 502.459 4.79016 4.20503 0
M  V30 5371 C 500.146 4.15813 4.4782 0
M  V30 5372 C 501.144 5.12834 4.51099 0
M  V30 5373 O 500.832 6.41699 4.84229 0
M  V30 5374 H 500.564 0.278948 0.615763 0
M  V30 5375 H 503.118 1.3946 1.50798 0
M  V30 5376 H 501.348 0.372029 3.84906 0
M  V30 5377 H 503.037 0.767994 3.98568 0
M  V30 5378 H 503.803 3.22475 3.62264 0
M  V30 5379 H 499.682 2.09748 4.1052 0
M  V30 5380 H 503.226 5.54739 4.22978 0
M  V30 5381 H 499.123 4.41109 4.71268 0
M  V30 5382 H 499.891 6.46387 5.02121 0
M  V30 5383 N 502.554 -1.34406 0.822964 0
M  V30 5384 C 503.8 -1.98578 0.411666 0
M  V30 5385 C 504.133 -1.65093 -1.02264 0
M  V30 5386 O 503.408 -0.92258 -1.71227 0
M  V30 5387 C 503.691 -3.54823 0.614235 0
M  V30 5388 C 503.544 -3.9805 2.09466 0
M  V30 5389 C 504.863 -4.40071 0.050221 0
M  V30 5390 H 501.982 -0.721355 0.151047 0
M  V30 5391 H 504.624 -1.59301 1.03554 0
M  V30 5392 H 502.774 -3.88411 0.0831774 0
M  V30 5393 H 504.446 -3.74795 2.68936 0
M  V30 5394 H 502.689 -3.4836 2.5851 0
M  V30 5395 H 503.36 -5.06819 2.18721 0
M  V30 5396 H 505.836 -4.13037 0.503953 0
M  V30 5397 H 504.712 -5.48452 0.221759 0
M  V30 5398 H 504.973 -4.29576 -1.04482 0
M  V30 5399 N 504.032 -0.577932 -1.46621 0
M  V30 5400 C 505.262 -0.0670668 -2.06491 0
M  V30 5401 C 505.67 1.24119 -1.42798 0
M  V30 5402 O 505.013 1.76016 -0.525759 0
M  V30 5403 C 505.075 0.177995 -3.59059 0
M  V30 5404 C 504.739 -1.04394 -4.44917 0
M  V30 5405 C 505.736 -1.95479 -4.81751 0
M  V30 5406 C 503.421 -1.26444 -4.86125 0
M  V30 5407 C 505.415 -3.06965 -5.58615 0
M  V30 5408 C 503.102 -2.38237 -5.62749 0
M  V30 5409 C 504.1 -3.28327 -5.98908 0
M  V30 5410 O 503.788 -4.38179 -6.73984 0
M  V30 5411 H 503.52 -0.0523159 -0.673973 0
M  V30 5412 H 506.074 -0.796966 -1.89308 0
M  V30 5413 H 504.304 0.962451 -3.74531 0
M  V30 5414 H 505.993 0.636782 -4.00874 0
M  V30 5415 H 506.759 -1.79657 -4.50498 0
M  V30 5416 H 502.638 -0.572316 -4.57434 0
M  V30 5417 H 506.182 -3.77309 -5.86757 0
M  V30 5418 H 502.079 -2.54023 -5.93416 0
M  V30 5419 H 502.847 -4.36486 -6.92403 0
M  V30 5420 N 505.51 1.54411 -0.315457 0
M  V30 5421 C 506.458 2.25514 0.569771 0
M  V30 5422 C 507.452 1.2663 1.12522 0
M  V30 5423 O 508.658 1.44434 1.07419 0
M  V30 5424 H 505.033 0.724257 0.202376 0
M  V30 5425 H 507.004 2.98354 -0.0522895 0
M  V30 5426 C 505.753 3.02004 1.72305 0
M  V30 5427 H 505.076 3.77906 1.30488 0
M  V30 5428 H 506.516 3.55014 2.31821 0
M  V30 5429 C 504.975 2.09822 2.63583 0
M  V30 5430 O 505.505 1.67574 3.65078 0
M  V30 5431 N 503.711 1.75478 2.31637 0
M  V30 5432 H 503.258 2.10032 1.49145 0
M  V30 5433 H 503.216 1.14079 2.92973 0
M  V30 5434 N 506.988 0.0434614 1.5754 0
M  V30 5435 C 508.216 -0.641835 1.96693 0
M  V30 5436 C 508.631 -1.64832 0.920652 0
M  V30 5437 O 507.988 -1.82247 -0.095993 0
M  V30 5438 C 508.039 -1.33557 3.35924 0
M  V30 5439 O 507.76 -0.369403 4.3654 0
M  V30 5440 C 509.261 -2.11135 3.89791 0
M  V30 5441 H 506.481 -0.176013 0.647503 0
M  V30 5442 H 509.025 0.107478 2.04217 0
M  V30 5443 H 507.18 -2.03617 3.29574 0
M  V30 5444 H 507.594 -0.863674 5.1734 0
M  V30 5445 H 509.068 -2.55107 4.89514 0
M  V30 5446 H 509.545 -2.95634 3.24803 0
M  V30 5447 H 510.151 -1.46002 3.99454 0
M  V30 5448 N 508.466 -1.55915 -0.229846 0
M  V30 5449 C 509.694 -1.82617 -0.972562 0
M  V30 5450 C 510.109 -0.621488 -1.78278 0
M  V30 5451 O 509.466 0.409956 -1.77836 0
M  V30 5452 C 509.517 -3.0774 -1.89679 0
M  V30 5453 O 509.238 -4.23559 -1.11934 0
M  V30 5454 C 510.739 -3.47368 -2.75409 0
M  V30 5455 H 507.959 -0.60727 -0.285419 0
M  V30 5456 H 510.503 -2.02996 -0.247579 0
M  V30 5457 H 508.658 -2.89361 -2.57583 0
M  V30 5458 H 509.072 -4.94586 -1.74599 0
M  V30 5459 H 510.546 -4.37977 -3.35977 0
M  V30 5460 H 511.023 -2.68737 -3.47386 0
M  V30 5461 H 511.629 -3.68158 -2.12931 0
M  V30 5462 N 509.944 0.496216 -1.49584 0
M  V30 5463 C 510.891 1.59722 -1.66606 0
M  V30 5464 C 511.861 1.58158 -0.507477 0
M  V30 5465 O 513.046 1.76072 -0.735076 0
M  V30 5466 C 510.186 2.97844 -1.74308 0
M  V30 5467 C 509.299 3.09388 -3.01502 0
M  V30 5468 C 508.434 4.38271 -3.00153 0
M  V30 5469 C 507.473 4.43466 -4.21906 0
M  V30 5470 N 506.61 5.63784 -4.1844 0
M  V30 5471 H 511.45 1.44515 -2.60613 0
M  V30 5472 H 508.987 0.703048 -1.29212 0
M  V30 5473 H 510.945 3.77907 -1.76754 0
M  V30 5474 H 509.575 3.11743 -0.837619 0
M  V30 5475 H 508.627 2.22357 -3.08645 0
M  V30 5476 H 509.939 3.09085 -3.91494 0
M  V30 5477 H 509.093 5.2666 -3.01188 0
M  V30 5478 H 507.832 4.41146 -2.07947 0
M  V30 5479 H 506.837 3.53478 -4.21109 0
M  V30 5480 H 508.062 4.42303 -5.1531 0
M  V30 5481 H 506.008 5.67491 -3.29074 0
M  V30 5482 H 505.925 5.65118 -5.02173 0
M  V30 5483 H 507.193 6.54367 -4.23585 0
M  V30 5484 N 511.423 1.38739 0.74761 0
M  V30 5485 C 512.671 1.35007 1.50391 0
M  V30 5486 C 512.992 -0.0574274 1.94915 0
M  V30 5487 O 512.262 -1.00628 1.6808 0
M  V30 5488 H 510.842 0.496784 0.557866 0
M  V30 5489 H 513.504 1.73479 0.888319 0
M  V30 5490 H 512.6 2.00474 2.392 0
M  V30 5491 N 512.901 -0.976442 1.23707 0
M  V30 5492 C 514.317 -1.24341 1.00058 0
M  V30 5493 C 514.517 -1.99315 -0.295932 0
M  V30 5494 O 513.573 -2.3123 -1.01435 0
M  V30 5495 C 514.886 -2.03909 2.21001 0
M  V30 5496 C 516.434 -2.17034 2.25534 0
M  V30 5497 C 516.909 -2.99994 3.46075 0
M  V30 5498 N 518.4 -3.07578 3.46338 0
M  V30 5499 C 519.135 -3.72104 4.36264 0
M  V30 5500 N 518.631 -4.3842 5.36432 0
M  V30 5501 N 520.424 -3.69029 4.23998 0
M  V30 5502 H 512.575 -0.47428 2.07037 0
M  V30 5503 H 514.838 -0.272167 0.908091 0
M  V30 5504 H 514.544 -1.56198 3.15111 0
M  V30 5505 H 514.418 -3.04654 2.22409 0
M  V30 5506 H 516.805 -2.63951 1.31961 0
M  V30 5507 H 516.886 -1.15664 2.28156 0
M  V30 5508 H 516.53 -2.53772 4.39957 0
M  V30 5509 H 516.46 -4.01541 3.40694 0
M  V30 5510 H 518.951 -2.60397 2.73865 0
M  V30 5511 H 519.264 -4.85447 6.013 0
M  V30 5512 H 517.609 -4.37116 5.40328 0
M  V30 5513 H 520.8 -3.16392 3.44984 0
M  V30 5514 H 520.973 -4.19034 4.94282 0
M  V30 5515 N 514.379 -1.04941 -1.1758 0
M  V30 5516 C 515.326 -0.648155 -2.21512 0
M  V30 5517 C 516.296 0.348431 -1.62404 0
M  V30 5518 O 517.481 0.240419 -1.89279 0
M  V30 5519 C 514.621 -0.0264291 -3.4509 0
M  V30 5520 C 513.734 -1.07154 -4.185 0
M  V30 5521 C 512.869 -0.417403 -5.29558 0
M  V30 5522 C 511.908 -1.447 -5.94751 0
M  V30 5523 N 511.045 -0.817203 -6.97328 0
M  V30 5524 H 515.885 -1.53891 -2.55189 0
M  V30 5525 H 513.422 -0.769699 -1.25356 0
M  V30 5526 H 515.38 0.351456 -4.15717 0
M  V30 5527 H 514.01 0.827802 -3.12005 0
M  V30 5528 H 513.062 -1.56728 -3.46613 0
M  V30 5529 H 514.374 -1.8532 -4.63096 0
M  V30 5530 H 513.528 0.0142061 -6.06698 0
M  V30 5531 H 512.267 0.396265 -4.86087 0
M  V30 5532 H 511.272 -1.88865 -5.16343 0
M  V30 5533 H 512.497 -2.26252 -6.40302 0
M  V30 5534 H 510.443 -0.0239995 -6.55996 0
M  V30 5535 H 510.36 -1.53644 -7.40223 0
M  V30 5536 H 511.628 -0.410283 -7.7842 0
M  V30 5537 N 515.857 1.33968 -0.830081 0
M  V30 5538 C 516.767 2.33164 -0.259207 0
M  V30 5539 C 517.783 1.62951 0.610164 0
M  V30 5540 O 518.959 1.94668 0.516369 0
M  V30 5541 C 516.024 3.42088 0.563598 0
M  V30 5542 C 515.085 4.28037 -0.329014 0
M  V30 5543 C 514.318 5.3176 0.454616 0
M  V30 5544 O 514.541 5.44876 1.6872 0
M  V30 5545 O 513.475 6.01669 -0.166794 0
M  V30 5546 H 517.301 2.83832 -1.08041 0
M  V30 5547 H 514.886 1.37154 -0.59239 0
M  V30 5548 H 516.768 4.08581 1.03147 0
M  V30 5549 H 515.443 2.93651 1.36201 0
M  V30 5550 H 514.35 3.64443 -0.844538 0
M  V30 5551 H 515.683 4.79934 -1.09196 0
M  V30 5552 N 517.335 0.585699 1.46312 0
M  V30 5553 C 518.751 0.247607 1.57668 0
M  V30 5554 C 518.951 -1.25007 1.58037 0
M  V30 5555 O 518.007 -2.03196 1.49893 0
M  V30 5556 C 519.32 0.899456 2.86933 0
M  V30 5557 C 520.868 0.873326 3.00569 0
M  V30 5558 C 521.343 1.50477 4.32574 0
M  V30 5559 N 522.834 1.46925 4.3928 0
M  V30 5560 C 523.569 1.92719 5.40044 0
M  V30 5561 N 523.065 2.46499 6.47464 0
M  V30 5562 N 524.858 1.83617 5.31264 0
M  V30 5563 H 517.009 1.55841 1.44317 0
M  V30 5564 H 519.272 0.651564 0.688599 0
M  V30 5565 H 518.978 1.95313 2.92482 0
M  V30 5566 H 518.852 0.409476 3.74971 0
M  V30 5567 H 521.239 -0.171736 2.946 0
M  V30 5568 H 521.32 1.40136 2.13999 0
M  V30 5569 H 520.964 2.54905 4.39302 0
M  V30 5570 H 520.894 0.951944 5.17924 0
M  V30 5571 H 523.385 1.07616 3.62253 0
M  V30 5572 H 523.698 2.79291 7.20567 0
M  V30 5573 H 522.043 2.50526 6.48276 0
M  V30 5574 H 525.234 1.41358 4.46246 0
M  V30 5575 H 525.407 2.19622 6.09648 0
M  V30 5576 N 518.813 -1.54241 0.323641 0
M  V30 5577 C 520.059 -2.00867 -0.279323 0
M  V30 5578 C 520.392 -1.21146 -1.5178 0
M  V30 5579 O 519.667 -0.29378 -1.92269 0
M  V30 5580 C 519.95 -3.54837 -0.613387 0
M  V30 5581 C 519.803 -4.45284 0.635803 0
M  V30 5582 C 521.122 -4.16186 -1.43099 0
M  V30 5583 H 518.241 -0.730177 -0.100049 0
M  V30 5584 H 520.883 -1.84829 0.440235 0
M  V30 5585 H 519.033 -3.68634 -1.22641 0
M  V30 5586 H 520.705 -4.43357 1.27406 0
M  V30 5587 H 518.948 -4.14956 1.26466 0
M  V30 5588 H 519.619 -5.5084 0.357597 0
M  V30 5589 H 522.095 -4.05964 -0.912814 0
M  V30 5590 H 520.971 -5.24031 -1.6335 0
M  V30 5591 H 521.232 -3.69516 -2.42715 0
M  V30 5592 N 520.291 -0.0518155 -1.57515 0
M  V30 5593 C 521.254 0.907547 -2.10467 0
M  V30 5594 C 522.254 1.23947 -1.02439 0
M  V30 5595 O 523.444 1.17604 -1.2851 0
M  V30 5596 C 520.576 2.21723 -2.58944 0
M  V30 5597 H 521.769 0.44851 -2.96527 0
M  V30 5598 H 519.322 0.196598 -1.55059 0
M  V30 5599 H 520.057 2.72206 -1.76279 0
M  V30 5600 H 519.842 1.98935 -3.37886 0
M  V30 5601 H 521.332 2.90441 -3.00056 0
M  V30 5602 N 521.769 1.56035 0.221574 0
M  V30 5603 C 523.185 1.49026 0.571271 0
M  V30 5604 C 523.385 0.746912 1.87146 0
M  V30 5605 O 522.441 0.286566 2.50869 0
M  V30 5606 C 523.754 2.93579 0.650522 0
M  V30 5607 C 525.302 3.04099 0.741151 0
M  V30 5608 C 525.777 4.5001 0.851747 0
M  V30 5609 N 527.268 4.54053 0.915968 0
M  V30 5610 C 528.003 5.64232 1.02125 0
M  V30 5611 N 527.499 6.84164 1.09049 0
M  V30 5612 N 529.292 5.52084 1.05639 0
M  V30 5613 H 521.443 2.02791 -0.63162 0
M  V30 5614 H 523.706 0.921736 -0.221602 0
M  V30 5615 H 523.412 3.50912 -0.235253 0
M  V30 5616 H 523.286 3.45476 1.51413 0
M  V30 5617 H 525.673 2.4683 1.61737 0
M  V30 5618 H 525.754 2.55371 -0.148128 0
M  V30 5619 H 525.398 5.07896 -0.0200117 0
M  V30 5620 H 525.328 4.96444 1.75644 0
M  V30 5621 H 527.819 3.67683 0.872782 0
M  V30 5622 H 528.132 7.63883 1.1706 0
M  V30 5623 H 526.477 6.86875 1.05962 0
M  V30 5624 H 529.668 4.57317 0.998953 0
M  V30 5625 H 529.841 6.37983 1.13498 0
M  V30 5626 N 523.247 -0.488276 1.49845 0
M  V30 5627 C 524.177 -1.59675 1.70371 0
M  V30 5628 C 525.158 -1.60878 0.552473 0
M  V30 5629 O 526.343 -1.77417 0.78973 0
M  V30 5630 C 523.473 -2.98098 1.782 0
M  V30 5631 C 522.427 -3.11761 2.93239 0
M  V30 5632 C 521.753 -4.51661 2.86193 0
M  V30 5633 C 523.053 -2.90589 4.33999 0
M  V30 5634 H 524.747 -1.42752 2.63177 0
M  V30 5635 H 522.293 -0.685317 1.26647 0
M  V30 5636 H 524.246 -3.75555 1.91144 0
M  V30 5637 H 522.97 -3.16138 0.820018 0
M  V30 5638 H 521.629 -2.36732 2.79917 0
M  V30 5639 H 521.277 -4.66595 1.87877 0
M  V30 5640 H 520.977 -4.61742 3.63412 0
M  V30 5641 H 522.501 -5.31162 3.01163 0
M  V30 5642 H 523.915 -3.57807 4.47936 0
M  V30 5643 H 522.312 -3.1213 5.12538 0
M  V30 5644 H 523.382 -1.86595 4.4756 0
M  V30 5645 N 524.725 -1.39134 -0.740242 0
M  V30 5646 C 525.655 -1.40165 -1.86751 0
M  V30 5647 C 526.636 -0.265708 -1.68012 0
M  V30 5648 O 527.821 -0.47076 -1.88408 0
M  V30 5649 C 524.951 -1.2392 -3.2444 0
M  V30 5650 C 523.905 -2.34858 -3.57807 0
M  V30 5651 C 523.231 -2.03707 -4.94376 0
M  V30 5652 C 524.531 -3.77159 -3.61315 0
M  V30 5653 H 526.225 -2.345 -1.86145 0
M  V30 5654 H 523.771 -1.12875 -0.89416 0
M  V30 5655 H 525.724 -1.23263 -4.02969 0
M  V30 5656 H 524.448 -0.26051 -3.25559 0
M  V30 5657 H 523.107 -2.34723 -2.81604 0
M  V30 5658 H 522.755 -1.04289 -4.9207 0
M  V30 5659 H 522.455 -2.78016 -5.17669 0
M  V30 5660 H 523.979 -2.04691 -5.75268 0
M  V30 5661 H 525.393 -3.79252 -4.29931 0
M  V30 5662 H 523.79 -4.50784 -3.96124 0
M  V30 5663 H 524.86 -4.08513 -2.61238 0
M  V30 5664 N 526.204 0.969867 -1.24223 0
M  V30 5665 C 527.62 1.23809 -1.00716 0
M  V30 5666 C 527.82 1.99469 0.285358 0
M  V30 5667 O 526.876 2.31764 1.00207 0
M  V30 5668 C 528.189 2.02734 -2.2208 0
M  V30 5669 C 529.737 2.15834 -2.26681 0
M  V30 5670 C 530.212 2.98154 -3.47661 0
M  V30 5671 N 531.703 3.05737 -3.47964 0
M  V30 5672 C 532.438 3.69785 -4.38231 0
M  V30 5673 N 531.934 4.35569 -5.3875 0
M  V30 5674 N 533.727 3.66775 -4.25949 0
M  V30 5675 H 525.878 0.463294 -2.07286 0
M  V30 5676 H 528.141 0.267348 -0.909521 0
M  V30 5677 H 527.847 1.54524 -3.15935 0
M  V30 5678 H 527.721 3.0347 -2.24021 0
M  V30 5679 H 530.108 2.63248 -1.33359 0
M  V30 5680 H 530.189 1.14453 -2.28767 0
M  V30 5681 H 529.833 2.51435 -4.41297 0
M  V30 5682 H 529.763 3.99729 -3.42818 0
M  V30 5683 H 532.254 2.58941 -2.75242 0
M  V30 5684 H 532.567 4.82251 -6.03866 0
M  V30 5685 H 530.912 4.34244 -5.42639 0
M  V30 5686 H 534.103 3.14558 -3.46657 0
M  V30 5687 H 534.276 4.16407 -4.96497 0
M  V30 5688 N 527.682 1.05563 1.17022 0
M  V30 5689 C 528.615 0.604197 2.20056 0
M  V30 5690 C 529.593 -0.369169 1.58354 0
M  V30 5691 O 530.777 -0.279898 1.8641 0
M  V30 5692 C 527.904 -0.115265 3.38504 0
M  V30 5693 C 526.95 0.813698 4.18666 0
M  V30 5694 S 527.783 2.30492 4.83357 0
M  V30 5695 C 528.939 1.59674 6.0519 0
M  V30 5696 H 529.172 1.47713 2.58008 0
M  V30 5697 H 526.705 0.867932 1.27696 0
M  V30 5698 H 528.663 -0.524162 4.0714 0
M  V30 5699 H 527.324 -0.964284 2.98932 0
M  V30 5700 H 526.517 0.256736 5.03346 0
M  V30 5701 H 526.119 1.16213 3.55486 0
M  V30 5702 H 528.411 0.898164 6.7152 0
M  V30 5703 H 529.354 2.42115 6.65422 0
M  V30 5704 H 529.762 1.08252 5.54023 0
M  V30 5705 N 529.16 -1.33526 0.837174 0
M  V30 5706 C 530.11 -2.2672 0.241269 0
M  V30 5707 C 531.094 -1.49183 -0.602756 0
M  V30 5708 O 532.286 -1.71052 -0.455002 0
M  V30 5709 C 529.415 -3.38294 -0.584125 0
M  V30 5710 C 528.501 -4.23231 0.271315 0
M  V30 5711 N 528.892 -4.87473 1.34922 0
M  V30 5712 C 527.19 -4.45962 0.0580589 0
M  V30 5713 C 527.891 -5.50685 1.87405 0
M  V30 5714 N 526.867 -5.30732 1.17578 0
M  V30 5715 H 530.669 -2.73903 1.06558 0
M  V30 5716 H 528.183 -1.47411 0.68145 0
M  V30 5717 H 530.18 -4.04044 -1.02731 0
M  V30 5718 H 528.84 -2.9266 -1.40643 0
M  V30 5719 H 529.851 -4.88077 1.7321 0
M  V30 5720 H 526.528 -4.11052 -0.730938 0
M  V30 5721 H 527.918 -6.11845 2.77661 0
M  V30 5722 N 530.638 -0.59345 -1.46 0
M  V30 5723 C 531.601 0.123538 -2.28867 0
M  V30 5724 C 532.601 0.808628 -1.38989 0
M  V30 5725 O 533.791 0.658945 -1.61256 0
M  V30 5726 C 530.923 1.1847 -3.19653 0
M  V30 5727 H 532.116 -0.604843 -2.93737 0
M  V30 5728 H 529.669 -0.351875 -1.52288 0
M  V30 5729 H 530.404 1.94431 -2.59552 0
M  V30 5730 H 530.189 0.69783 -3.8584 0
M  V30 5731 H 531.679 1.68726 -3.81997 0
M  V30 5732 N 532.116 1.54067 -0.331816 0
M  V30 5733 C 533.064 2.26105 0.54582 0
M  V30 5734 C 534.058 1.27816 1.11173 0
M  V30 5735 O 535.264 1.45565 1.05882 0
M  V30 5736 H 531.639 0.726363 0.194683 0
M  V30 5737 H 533.61 2.98282 -0.083931 0
M  V30 5738 C 532.359 3.03814 1.69092 0
M  V30 5739 H 531.682 3.79269 1.26473 0
M  V30 5740 H 533.122 3.57453 2.28043 0
M  V30 5741 C 531.581 2.12606 2.61343 0
M  V30 5742 O 532.111 1.71437 3.6328 0
M  V30 5743 N 530.317 1.77925 2.29763 0
M  V30 5744 H 529.864 2.11602 1.46909 0
M  V30 5745 H 529.822 1.1718 2.91747 0
M  V30 5746 N 533.594 0.0601682 1.57485 0
M  V30 5747 C 534.544 -0.920969 2.08572 0
M  V30 5748 C 535.528 -1.26617 0.992827 0
M  V30 5749 O 536.72 -1.24708 1.25606 0
M  V30 5750 C 533.849 -2.19267 2.64153 0
M  V30 5751 C 532.935 -1.87447 3.80427 0
M  V30 5752 N 533.326 -1.26025 4.89848 0
M  V30 5753 C 531.624 -2.17265 3.89502 0
M  V30 5754 C 532.325 -1.12036 5.70809 0
M  V30 5755 N 531.301 -1.62624 5.18705 0
M  V30 5756 H 535.103 -0.441561 2.90564 0
M  V30 5757 H 532.617 -0.144043 1.6176 0
M  V30 5758 H 534.614 -2.90462 2.99061 0
M  V30 5759 H 533.274 -2.67806 1.83603 0
M  V30 5760 H 534.285 -0.931336 5.09457 0
M  V30 5761 H 530.962 -2.68262 3.19909 0
M  V30 5762 H 532.352 -0.642783 6.68818 0
M  V30 5763 N 535.072 -1.5615 -0.213296 0
M  V30 5764 C 536.488 -1.49327 -0.56336 0
M  V30 5765 C 536.688 -0.756826 -1.86747 0
M  V30 5766 O 535.744 -0.299866 -2.50713 0
M  V30 5767 C 537.057 -2.9392 -0.634944 0
M  V30 5768 C 538.605 -3.04487 -0.725013 0
M  V30 5769 C 539.08 -4.50456 -0.82787 0
M  V30 5770 N 540.571 -4.54533 -0.891876 0
M  V30 5771 C 541.306 -5.64766 -0.991315 0
M  V30 5772 N 540.802 -6.84733 -1.05419 0
M  V30 5773 N 542.595 -5.52637 -1.02709 0
M  V30 5774 H 534.746 -2.02453 0.642366 0
M  V30 5775 H 537.009 -0.920548 0.226487 0
M  V30 5776 H 536.715 -3.50783 0.253859 0
M  V30 5777 H 536.589 -3.46274 -1.49579 0
M  V30 5778 H 538.976 -2.47685 -1.60425 0
M  V30 5779 H 539.057 -2.55289 0.161669 0
M  V30 5780 H 538.701 -5.07878 0.0469464 0
M  V30 5781 H 538.631 -4.97369 -1.73009 0
M  V30 5782 H 541.122 -3.68141 -0.85327 0
M  V30 5783 H 541.435 -7.64493 -1.13007 0
M  V30 5784 H 539.78 -6.87427 -1.02318 0
M  V30 5785 H 542.971 -4.5784 -0.974687 0
M  V30 5786 H 543.144 -6.38576 -1.10113 0
M  V30 5787 N 536.55 0.480323 -1.50102 0
M  V30 5788 C 537.46 1.60547 -1.71061 0
M  V30 5789 C 538.476 1.63564 -0.593529 0
M  V30 5790 O 539.652 1.81604 -0.870751 0
M  V30 5791 C 536.717 2.96814 -1.79171 0
M  V30 5792 C 535.778 3.04259 -3.02861 0
M  V30 5793 C 535.011 4.34027 -3.10574 0
M  V30 5794 O 535.234 5.24009 -2.25323 0
M  V30 5795 O 534.168 4.46873 -4.03223 0
M  V30 5796 H 537.994 1.45788 -2.6642 0
M  V30 5797 H 535.579 0.658838 -1.34088 0
M  V30 5798 H 537.461 3.77765 -1.86738 0
M  V30 5799 H 536.136 3.11791 -0.869947 0
M  V30 5800 H 535.043 2.22419 -3.008 0
M  V30 5801 H 536.376 2.94216 -3.94586 0
M  V30 5802 N 538.028 1.39524 0.732853 0
M  V30 5803 C 538.938 1.40695 1.87729 0
M  V30 5804 C 539.954 0.301496 1.71368 0
M  V30 5805 O 541.13 0.543313 1.93933 0
M  V30 5806 C 538.195 1.25098 3.23344 0
M  V30 5807 C 537.256 2.45634 3.52083 0
M  V30 5808 C 536.489 2.30772 4.81228 0
M  V30 5809 O 536.712 1.31233 5.55098 0
M  V30 5810 O 535.646 3.19799 5.09914 0
M  V30 5811 H 539.472 2.37168 1.89697 0
M  V30 5812 H 537.057 1.20663 0.880959 0
M  V30 5813 H 538.939 1.18541 4.04383 0
M  V30 5814 H 537.614 0.317209 3.22142 0
M  V30 5815 H 536.521 2.57767 2.71122 0
M  V30 5816 H 537.854 3.37712 3.58066 0
M  V30 5817 N 539.506 -0.963266 1.24736 0
M  V30 5818 C 540.752 -1.70933 1.09131 0
M  V30 5819 C 541.085 -1.90676 -0.368273 0
M  V30 5820 O 540.36 -1.47147 -1.27193 0
M  V30 5821 C 540.643 -3.09744 1.83658 0
M  V30 5822 C 540.496 -2.97465 3.37394 0
M  V30 5823 C 541.815 -4.09483 1.61282 0
M  V30 5824 H 538.934 -0.620398 0.397838 0
M  V30 5825 H 541.576 -1.12028 1.53459 0
M  V30 5826 H 539.726 -3.60031 1.4598 0
M  V30 5827 H 541.398 -2.54571 3.84696 0
M  V30 5828 H 539.641 -2.33576 3.65547 0
M  V30 5829 H 540.312 -3.95822 3.84745 0
M  V30 5830 H 542.788 -3.68073 1.94066 0
M  V30 5831 H 541.664 -5.04666 2.15878 0
M  V30 5832 H 541.925 -4.38639 0.552102 0
M  V30 5833 N 540.985 -1.06182 -1.16461 0
M  V30 5834 C 541.895 -0.682671 -2.24448 0
M  V30 5835 C 542.911 0.30078 -1.71381 0
M  V30 5836 O 544.087 0.150376 -2.00838 0
M  V30 5837 C 541.152 -0.0737202 -3.46622 0
M  V30 5838 C 540.213 -1.10889 -4.14731 0
M  V30 5839 C 539.446 -0.528908 -5.31073 0
M  V30 5840 O 539.669 0.65868 -5.66584 0
M  V30 5841 O 538.603 -1.26805 -5.88391 0
M  V30 5842 H 542.429 -1.58291 -2.59187 0
M  V30 5843 H 540.014 -0.834013 -1.23954 0
M  V30 5844 H 541.896 0.264192 -4.20571 0
M  V30 5845 H 540.571 0.800015 -3.13658 0
M  V30 5846 H 539.478 -1.49896 -3.42756 0
M  V30 5847 H 540.811 -1.95412 -4.51747 0
M  V30 5848 N 542.463 1.3308 -0.844243 0
M  V30 5849 C 543.373 2.32876 -0.283922 0
M  V30 5850 C 544.389 1.63589 0.592846 0
M  V30 5851 O 545.565 1.95205 0.495693 0
M  V30 5852 C 542.63 3.42667 0.527283 0
M  V30 5853 C 541.691 4.27664 -0.374394 0
M  V30 5854 C 540.924 5.32212 0.39819 0
M  V30 5855 O 541.147 5.46635 1.62932 0
M  V30 5856 O 540.081 6.01458 -0.2306 0
M  V30 5857 H 543.907 2.82671 -1.11045 0
M  V30 5858 H 541.492 1.36518 -0.606903 0
M  V30 5859 H 543.374 4.09652 0.988078 0
M  V30 5860 H 542.049 2.95079 1.33078 0
M  V30 5861 H 540.956 3.63526 -0.883144 0
M  V30 5862 H 542.289 4.78749 -1.1428 0
M  V30 5863 N 543.941 0.601185 1.45683 0
M  V30 5864 C 544.871 -0.108824 2.33246 0
M  V30 5865 C 545.852 -0.865223 1.46451 0
M  V30 5866 O 547.037 -0.83704 1.75235 0
M  V30 5867 C 544.167 -1.11101 3.2905 0
M  V30 5868 C 543.121 -0.468244 4.25431 0
M  V30 5869 C 542.447 -1.57822 5.10878 0
M  V30 5870 C 543.747 0.606469 5.18767 0
M  V30 5871 H 545.441 0.622306 2.92861 0
M  V30 5872 H 542.987 0.300714 1.40825 0
M  V30 5873 H 544.94 -1.61622 3.89174 0
M  V30 5874 H 543.664 -1.87265 2.67581 0
M  V30 5875 H 542.323 0.0160484 3.66596 0
M  V30 5876 H 541.971 -2.32998 4.45781 0
M  V30 5877 H 541.671 -1.15369 5.76163 0
M  V30 5878 H 543.195 -2.08583 5.73869 0
M  V30 5879 H 544.609 0.185589 5.73 0
M  V30 5880 H 543.006 0.952381 5.92494 0
M  V30 5881 H 544.076 1.48559 4.61582 0
M  V30 5882 N 545.419 -1.53889 0.339982 0
M  V30 5883 C 546.366 -2.24902 -0.518452 0
M  V30 5884 C 547.336 -1.24593 -1.09844 0
M  V30 5885 O 548.521 -1.53317 -1.13572 0
M  V30 5886 C 545.661 -3.02262 -1.66529 0
M  V30 5887 C 544.774 -4.17418 -1.11295 0
M  V30 5888 C 543.909 -4.82273 -2.2268 0
M  V30 5889 C 542.948 -5.89503 -1.6478 0
M  V30 5890 N 542.085 -6.48153 -2.69893 0
M  V30 5891 H 546.925 -2.97853 0.0936579 0
M  V30 5892 H 544.462 -1.46986 0.0579924 0
M  V30 5893 H 546.42 -3.45371 -2.3404 0
M  V30 5894 H 545.05 -2.31614 -2.24844 0
M  V30 5895 H 544.102 -3.78976 -0.328886 0
M  V30 5896 H 545.414 -4.94554 -0.649414 0
M  V30 5897 H 544.568 -5.28435 -2.98063 0
M  V30 5898 H 543.307 -4.04552 -2.72376 0
M  V30 5899 H 542.312 -5.42728 -0.879004 0
M  V30 5900 H 543.537 -6.6913 -1.1594 0
M  V30 5901 H 541.483 -5.73298 -3.1885 0
M  V30 5902 H 541.4 -7.20752 -2.28151 0
M  V30 5903 H 542.668 -6.98968 -3.45056 0
M  V30 5904 N 546.897 -0.0685191 -1.57451 0
M  V30 5905 C 547.86 0.885173 -2.11417 0
M  V30 5906 C 548.86 1.22853 -1.03748 0
M  V30 5907 O 550.05 1.16235 -1.2975 0
M  V30 5908 C 547.182 2.18964 -2.61281 0
M  V30 5909 H 548.375 0.417034 -2.96986 0
M  V30 5910 H 545.928 0.18014 -1.55258 0
M  V30 5911 H 546.663 2.70321 -1.79156 0
M  V30 5912 H 546.448 1.9534 -3.39977 0
M  V30 5913 H 547.938 2.87242 -3.0312 0
M  V30 5914 N 548.375 1.56261 0.205012 0
M  V30 5915 C 549.623 1.79684 0.925096 0
M  V30 5916 C 549.944 0.63989 1.84202 0
M  V30 5917 O 549.214 -0.342345 1.92885 0
M  V30 5918 H 547.794 0.662774 0.344587 0
M  V30 5919 H 550.456 1.93734 0.212899 0
M  V30 5920 H 549.552 2.72467 1.52211 0
M  V30 5921 N 549.853 -0.472356 1.50355 0
M  V30 5922 C 551.13 -1.23356 1.51798 0
M  V30 5923 C 551.51 -2.09469 0.26193 0
M  V30 5924 O 550.858 -2.15677 -0.754691 0
M  V30 5925 C 551.068 -2.06568 2.81302 0
M  V30 5926 C 552.416 -2.648 3.31913 0
M  V30 5927 O 553.44 -2.16812 2.82614 0
M  V30 5928 O 552.299 -3.52231 4.17846 0
M  V30 5929 H 549.393 -0.559707 0.608816 0
M  V30 5930 H 551.939 -0.48428 1.62643 0
M  V30 5931 H 550.711 -1.43103 3.64194 0
M  V30 5932 H 550.334 -2.88633 2.73454 0
M  V30 5933 N 551.331 -1.39911 -0.725443 0
M  V30 5934 C 552.261 -1.42138 -1.85254 0
M  V30 5935 C 553.242 -0.283513 -1.67721 0
M  V30 5936 O 554.427 -0.490717 -1.87898 0
M  V30 5937 C 551.557 -1.27354 -3.23107 0
M  V30 5938 C 550.511 -2.3864 -3.55296 0
M  V30 5939 C 549.837 -2.08939 -4.92188 0
M  V30 5940 C 551.137 -3.8097 -3.57295 0
M  V30 5941 H 552.831 -2.36461 -1.83648 0
M  V30 5942 H 550.377 -1.13817 -0.882138 0
M  V30 5943 H 552.33 -1.2753 -4.01639 0
M  V30 5944 H 551.054 -0.295025 -3.25265 0
M  V30 5945 H 549.713 -2.37696 -2.79099 0
M  V30 5946 H 549.361 -1.09502 -4.90936 0
M  V30 5947 H 549.061 -2.83491 -5.14691 0
M  V30 5948 H 550.585 -2.10781 -5.73065 0
M  V30 5949 H 551.999 -3.8379 -4.25885 0
M  V30 5950 H 550.396 -4.5496 -3.9132 0
M  V30 5951 H 551.466 -4.11261 -2.5689 0
M  V30 5952 N 552.809 0.956637 -1.25245 0
M  V30 5953 C 554.057 1.69764 -1.09657 0
M  V30 5954 C 554.378 1.91583 0.363464 0
M  V30 5955 O 553.648 1.50149 1.25825 0
M  V30 5956 H 552.228 0.629097 -0.402798 0
M  V30 5957 H 554.89 1.15026 -1.57337 0
M  V30 5958 H 553.986 2.67769 -1.60331 0
M  V30 5959 N 554.287 1.06798 1.15896 0
M  V30 5960 C 555.25 0.687328 2.18651 0
M  V30 5961 C 556.25 -0.269559 1.58524 0
M  V30 5962 O 557.44 -0.0512627 1.74125 0
M  V30 5963 C 554.572 0.0121642 3.40898 0
M  V30 5964 H 555.765 1.59701 2.53842 0
M  V30 5965 H 553.318 0.863828 1.3026 0
M  V30 5966 H 554.053 -0.910025 3.1127 0
M  V30 5967 H 553.838 0.700309 3.85795 0
M  V30 5968 H 555.328 -0.239703 4.16911 0
M  V30 5969 N 555.766 -1.3263 0.851289 0
M  V30 5970 C 557.012 -1.9766 0.453694 0
M  V30 5971 C 557.345 -1.67225 -0.987396 0
M  V30 5972 O 556.62 -0.958693 -1.69232 0
M  V30 5973 C 556.903 -3.5344 0.68936 0
M  V30 5974 C 556.756 -3.93517 2.17862 0
M  V30 5975 C 558.075 -4.39866 0.143555 0
M  V30 5976 H 555.194 -0.717989 0.166314 0
M  V30 5977 H 557.836 -1.57068 1.06909 0
M  V30 5978 H 555.986 -3.88147 0.165546 0
M  V30 5979 H 557.658 -3.69006 2.76826 0
M  V30 5980 H 555.901 -3.42798 2.65841 0
M  V30 5981 H 556.572 -5.02065 2.29422 0
M  V30 5982 H 559.048 -4.11875 0.591451 0
M  V30 5983 H 557.924 -5.47858 0.338043 0
M  V30 5984 H 558.185 -4.31696 -0.953466 0
M  V30 5985 N 557.244 -0.608902 -1.45362 0
M  V30 5986 C 558.49 -0.104762 -2.02529 0
M  V30 5987 C 558.823 1.26191 -1.47613 0
M  V30 5988 O 558.098 1.8327 -0.65134 0
M  V30 5989 C 558.381 -0.0672661 -3.60037 0
M  V30 5990 C 558.234 -1.4647 -4.25284 0
M  V30 5991 C 559.553 0.619877 -4.35713 0
M  V30 5992 H 556.672 -0.0395438 -0.735938 0
M  V30 5993 H 559.314 -0.781126 -1.73201 0
M  V30 5994 H 557.464 0.50871 -3.85155 0
M  V30 5995 H 559.136 -2.08785 -4.11347 0
M  V30 5996 H 557.379 -2.02502 -3.83634 0
M  V30 5997 H 558.05 -1.39069 -5.34195 0
M  V30 5998 H 560.526 0.130297 -4.15896 0
M  V30 5999 H 559.402 0.615224 -5.45441 0
M  V30 6000 H 559.663 1.68621 -4.0868 0
M  V30 6001 N 558.722 1.53707 -0.348139 0
M  V30 6002 C 559.97 2.00591 0.246478 0
M  V30 6003 C 560.291 1.23753 1.50699 0
M  V30 6004 O 559.561 0.345964 1.92821 0
M  V30 6005 H 558.141 0.741053 0.0940679 0
M  V30 6006 H 560.803 1.89139 -0.470354 0
M  V30 6007 H 559.899 3.08297 0.485714 0
M  V30 6008 N 560.2 0.0768682 1.57412 0
M  V30 6009 C 561.13 -0.886026 2.16037 0
M  V30 6010 C 562.111 -1.30691 1.08876 0
M  V30 6011 O 563.296 -1.37705 1.36934 0
M  V30 6012 C 560.426 -2.1518 2.72608 0
M  V30 6013 C 559.38 -1.87015 3.8498 0
M  V30 6014 C 558.706 -3.20266 4.28175 0
M  V30 6015 C 560.006 -1.17143 5.08994 0
M  V30 6016 H 561.7 -0.397642 2.96748 0
M  V30 6017 H 559.246 -0.189823 1.42743 0
M  V30 6018 H 561.199 -2.82962 3.12266 0
M  V30 6019 H 559.923 -2.66269 1.89125 0
M  V30 6020 H 558.582 -1.21636 3.45833 0
M  V30 6021 H 558.23 -3.69207 3.41607 0
M  V30 6022 H 557.93 -3.0221 5.03927 0
M  V30 6023 H 559.454 -3.89237 4.70454 0
M  V30 6024 H 560.868 -1.75003 5.45937 0
M  V30 6025 H 559.265 -1.09328 5.90057 0
M  V30 6026 H 560.335 -0.151295 4.84664 0
M  V30 6027 N 561.678 -1.56367 -0.196722 0
M  V30 6028 C 562.625 -1.94417 -1.24382 0
M  V30 6029 C 563.595 -0.804543 -1.45315 0
M  V30 6030 O 564.78 -1.06256 -1.58475 0
M  V30 6031 C 561.92 -2.28757 -2.58388 0
M  V30 6032 C 561.033 -3.55775 -2.45047 0
M  V30 6033 C 560.168 -3.79445 -3.71746 0
M  V30 6034 C 559.207 -4.99894 -3.53231 0
M  V30 6035 N 558.344 -5.19826 -4.71938 0
M  V30 6036 H 563.184 -2.83691 -0.912338 0
M  V30 6037 H 560.721 -1.40392 -0.439135 0
M  V30 6038 H 562.679 -2.46682 -3.36457 0
M  V30 6039 H 561.309 -1.42625 -2.89582 0
M  V30 6040 H 560.361 -3.45905 -1.58284 0
M  V30 6041 H 561.673 -4.44 -2.27299 0
M  V30 6042 H 560.827 -3.97601 -4.58256 0
M  V30 6043 H 559.566 -2.89546 -3.92446 0
M  V30 6044 H 558.571 -4.81662 -2.65107 0
M  V30 6045 H 559.796 -5.913 -3.33978 0
M  V30 6046 H 557.742 -4.32875 -4.92905 0
M  V30 6047 H 557.659 -6.02228 -4.57009 0
M  V30 6048 H 558.927 -5.42439 -5.59803 0
M  V30 6049 N 563.156 0.464375 -1.50603 0
M  V30 6050 C 564.066 1.58723 -1.72754 0
M  V30 6051 C 565.082 1.62925 -0.610844 0
M  V30 6052 O 566.258 1.8067 -0.889963 0
M  V30 6053 C 563.323 2.94897 -1.82309 0
M  V30 6054 C 562.384 3.0103 -3.06071 0
M  V30 6055 C 561.617 4.30708 -3.1516 0
M  V30 6056 O 561.84 5.2159 -2.30868 0
M  V30 6057 O 560.774 4.42571 -4.0794 0
M  V30 6058 H 564.6 1.42954 -2.67951 0
M  V30 6059 H 562.185 0.644579 -1.3478 0
M  V30 6060 H 564.067 3.75764 -1.90735 0
M  V30 6061 H 562.742 3.10851 -0.902967 0
M  V30 6062 H 561.649 2.19217 -3.03142 0
M  V30 6063 H 562.982 2.90014 -3.97684 0
M  V30 6064 N 564.634 1.40294 0.718013 0
M  V30 6065 C 565.862 1.4175 1.50714 0
M  V30 6066 C 566.277 0.0165366 1.88793 0
M  V30 6067 O 565.634 -0.958942 1.55276 0
M  V30 6068 C 565.685 2.30598 2.784 0
M  V30 6069 O 565.406 3.6524 2.41932 0
M  V30 6070 C 566.907 2.4062 3.72313 0
M  V30 6071 H 564.127 0.483565 0.465194 0
M  V30 6072 H 566.671 1.84316 0.885889 0
M  V30 6073 H 564.826 1.91401 3.36815 0
M  V30 6074 H 565.24 4.12402 3.24076 0
M  V30 6075 H 566.714 3.07001 4.58753 0
M  V30 6076 H 567.191 1.4305 4.15251 0
M  V30 6077 H 567.797 2.80359 3.19811 0
M  V30 6078 N 566.112 -0.949982 1.2575 0
M  V30 6079 C 567.361 -1.68956 1.10168 0
M  V30 6080 C 567.674 -1.92327 -0.356309 0
M  V30 6081 O 568.88 -2.64026 -0.632657 0
M  V30 6082 C 567.336 -3.04196 1.92336 0
M  V30 6083 C 566.944 -2.88603 3.42655 0
M  V30 6084 C 568.688 -3.81904 1.85336 0
M  V30 6085 C 566.595 -4.19262 4.17101 0
M  V30 6086 H 565.525 -0.633645 0.408668 0
M  V30 6087 H 568.176 -1.05719 1.49986 0
M  V30 6088 H 566.558 -3.68363 1.45344 0
M  V30 6089 H 567.732 -2.3334 3.97353 0
M  V30 6090 H 566.047 -2.24345 3.50796 0
M  V30 6091 H 568.644 -4.78688 2.38248 0
M  V30 6092 H 568.987 -4.08099 0.822226 0
M  V30 6093 H 569.52 -3.24495 2.30104 0
M  V30 6094 H 566.259 -3.98254 5.20648 0
M  V30 6095 H 565.779 -4.74273 3.67186 0
M  V30 6096 H 567.458 -4.87775 4.25071 0
M  V30 6097 N 567.59 -1.07411 -1.15328 0
M  V30 6098 C 568.818 -0.818782 -1.90009 0
M  V30 6099 C 569.233 0.628072 -1.78047 0
M  V30 6100 O 568.59 1.43085 -1.13282 0
M  V30 6101 C 568.641 -1.21874 -3.40337 0
M  V30 6102 O 568.362 -2.60883 -3.51954 0
M  V30 6103 C 569.863 -0.992796 -4.3204 0
M  V30 6104 H 567.083 -0.296007 -0.60218 0
M  V30 6105 H 569.627 -1.43073 -1.46117 0
M  V30 6106 H 567.782 -0.651103 -3.81889 0
M  V30 6107 H 568.196 -2.77216 -4.45255 0
M  V30 6108 H 569.67 -1.32215 -5.35932 0
M  V30 6109 H 570.147 0.0708331 -4.39143 0
M  V30 6110 H 570.753 -1.54537 -3.9623 0
M  V30 6111 N 569.068 1.32177 -0.85831 0
M  V30 6112 C 570.316 1.96735 -0.462568 0
M  V30 6113 C 570.637 1.6824 0.985911 0
M  V30 6114 O 569.907 0.991564 1.68952 0
M  V30 6115 H 568.487 0.727849 -0.168064 0
M  V30 6116 H 571.149 1.61195 -1.09554 0
M  V30 6117 H 570.245 3.06068 -0.610647 0
M  V30 6118 N 570.547 0.616602 1.45037 0
M  V30 6119 C 571.824 0.0469086 1.95544 0
M  V30 6120 C 572.204 -1.42345 1.55888 0
M  V30 6121 O 571.552 -2.13055 0.825824 0
M  V30 6122 C 571.762 0.254489 3.48071 0
M  V30 6123 C 573.11 0.140025 4.24369 0
M  V30 6124 O 574.134 0.185084 3.55719 0
M  V30 6125 O 572.993 0.0327034 5.4649 0
M  V30 6126 H 570.087 -0.0306051 0.826433 0
M  V30 6127 H 572.633 0.687293 1.55159 0
M  V30 6128 H 571.405 1.27532 3.69934 0
M  V30 6129 H 571.028 -0.42073 3.95368 0
M  V30 6130 N 572.025 -1.5352 0.356285 0
M  V30 6131 C 573.253 -2.05534 -0.237328 0
M  V30 6132 C 573.668 -1.23043 -1.43199 0
M  V30 6133 O 573.025 -0.268821 -1.80509 0
M  V30 6134 C 573.076 -3.55791 -0.639933 0
M  V30 6135 O 572.797 -4.35154 0.507233 0
M  V30 6136 C 574.298 -4.24027 -1.29292 0
M  V30 6137 H 571.518 -0.669585 -0.0435572 0
M  V30 6138 H 574.062 -1.97988 0.511963 0
M  V30 6139 H 572.217 -3.63518 -1.33915 0
M  V30 6140 H 572.631 -5.24178 0.18375 0
M  V30 6141 H 574.105 -5.30509 -1.52527 0
M  V30 6142 H 574.582 -3.77166 -2.25039 0
M  V30 6143 H 575.188 -4.20527 -0.63539 0
M  V30 6144 N 573.503 -0.0852151 -1.57369 0
M  V30 6145 C 574.433 0.874556 -2.16503 0
M  V30 6146 C 575.414 1.30111 -1.09568 0
M  V30 6147 O 576.599 1.36977 -1.37662 0
M  V30 6148 C 573.729 2.13731 -2.73745 0
M  V30 6149 C 572.683 1.84971 -3.85966 0
M  V30 6150 C 572.009 3.17991 -4.29867 0
M  V30 6151 C 573.309 1.14442 -5.09608 0
M  V30 6152 H 575.003 0.381899 -2.96954 0
M  V30 6153 H 572.549 0.18225 -1.42842 0
M  V30 6154 H 574.502 2.81302 -3.13763 0
M  V30 6155 H 573.226 2.65263 -1.90534 0
M  V30 6156 H 571.885 1.19801 -3.46473 0
M  V30 6157 H 571.533 3.6739 -3.4356 0
M  V30 6158 H 571.233 2.99534 -5.05523 0
M  V30 6159 H 572.757 3.86737 -4.72511 0
M  V30 6160 H 574.171 1.72105 -5.46857 0
M  V30 6161 H 572.568 1.06197 -5.90629 0
M  V30 6162 H 573.638 0.12559 -4.84737 0
M  V30 6163 N 574.981 1.5647 0.188427 0
M  V30 6164 C 576.227 1.81281 0.909124 0
M  V30 6165 C 576.56 0.66034 1.82628 0
M  V30 6166 O 575.835 -0.338737 1.91528 0
M  V30 6167 C 576.118 3.16388 1.7196 0
M  V30 6168 C 575.971 4.42137 0.826714 0
M  V30 6169 C 577.29 3.48256 2.69083 0
M  V30 6170 H 574.409 0.659457 0.329068 0
M  V30 6171 H 577.051 1.89182 0.176156 0
M  V30 6172 H 575.201 3.09784 2.34448 0
M  V30 6173 H 576.873 4.60794 0.216025 0
M  V30 6174 H 575.116 4.33594 0.133792 0
M  V30 6175 H 575.787 5.33184 1.42893 0
M  V30 6176 H 578.263 3.55203 2.16726 0
M  V30 6177 H 577.139 4.43899 3.2287 0
M  V30 6178 H 577.4 2.72088 3.48455 0
M  V30 6179 N 576.459 -0.456382 1.50847 0
M  V30 6180 C 577.707 -1.20497 1.62249 0
M  V30 6181 C 578.028 -1.92156 0.331839 0
M  V30 6182 O 577.298 -1.84751 -0.651443 0
M  V30 6183 H 575.878 -0.447775 0.597918 0
M  V30 6184 H 578.54 -0.525099 1.87693 0
M  V30 6185 H 577.636 -1.94492 2.44089 0
M  V30 6186 N 577.937 -1.40673 -0.710563 0
M  V30 6187 C 578.847 -1.43663 -1.85467 0
M  V30 6188 C 579.863 -0.328721 -1.70867 0
M  V30 6189 O 581.039 -0.574098 -1.93044 0
M  V30 6190 C 578.104 -1.30226 -3.21313 0
M  V30 6191 C 577.165 -2.51204 -3.48131 0
M  V30 6192 C 576.398 -2.38398 -4.77495 0
M  V30 6193 O 576.621 -1.40048 -5.5294 0
M  V30 6194 O 575.555 -3.2787 -5.04762 0
M  V30 6195 H 579.381 -2.40156 -1.859 0
M  V30 6196 H 576.966 -1.22049 -0.861652 0
M  V30 6197 H 578.848 -1.2496 -4.02446 0
M  V30 6198 H 577.523 -0.368419 -3.21597 0
M  V30 6199 H 576.43 -2.62048 -2.66987 0
M  V30 6200 H 577.763 -3.43366 -3.52648 0
M  V30 6201 N 579.415 0.9433 -1.26252 0
M  V30 6202 C 580.692 1.66639 -1.02424 0
M  V30 6203 C 581.072 2.06335 0.446006 0
M  V30 6204 O 580.42 1.78551 1.42589 0
M  V30 6205 C 580.63 2.88019 -1.97094 0
M  V30 6206 C 581.978 3.59718 -2.25584 0
M  V30 6207 O 583.002 2.9812 -1.94943 0
M  V30 6208 O 581.861 4.7066 -2.77743 0
M  V30 6209 H 578.955 0.729643 -0.389294 0
M  V30 6210 H 581.501 0.995218 -1.37454 0
M  V30 6211 H 580.273 2.5556 -2.96319 0
M  V30 6212 H 579.896 3.62863 -1.62532 0
M  V30 6213 N 580.893 1.08022 1.14757 0
M  V30 6214 C 581.856 0.71048 2.1791 0
M  V30 6215 C 582.856 -0.252731 1.58801 0
M  V30 6216 O 584.046 -0.0327915 1.74169 0
M  V30 6217 C 581.178 0.0483203 3.40866 0
M  V30 6218 H 582.371 1.62384 2.52134 0
M  V30 6219 H 579.924 0.877595 1.29337 0
M  V30 6220 H 580.659 -0.876959 3.12218 0
M  V30 6221 H 580.444 0.741189 3.85031 0
M  V30 6222 H 581.934 -0.195471 4.17142 0
M  V30 6223 N 582.371 -1.3172 0.865308 0
M  V30 6224 C 583.782 -1.79104 0.527126 0
M  V30 6225 C 584.133 -1.7135 -0.955695 0
M  V30 6226 O 583.258 -1.27845 -1.74598 0
M  V30 6227 C 583.853 -3.25207 0.950061 0
M  V30 6228 C 582.412 -3.70504 0.663611 0
M  V30 6229 C 581.559 -2.52605 1.14395 0
M  V30 6230 H 584.51 -1.18868 1.05148 0
M  V30 6231 H 584.531 -3.79535 0.270805 0
M  V30 6232 H 584.043 -3.30818 2.02931 0
M  V30 6233 H 582.144 -3.70398 -0.404474 0
M  V30 6234 H 582.257 -4.62845 1.23737 0
M  V30 6235 H 580.621 -2.4838 0.563859 0
M  V30 6236 H 581.404 -2.60964 2.23053 0
M  V30 6237 N 583.85 -0.624285 -1.44708 0
M  V30 6238 C 585.266 -0.289322 -1.56956 0
M  V30 6239 C 585.466 1.20773 -1.61295 0
M  V30 6240 O 584.522 1.9915 -1.55227 0
M  V30 6241 C 585.835 -0.975215 -2.84447 0
M  V30 6242 C 587.383 -0.952709 -2.98148 0
M  V30 6243 C 587.858 -1.61893 -4.28433 0
M  V30 6244 N 589.349 -1.5852 -4.35231 0
M  V30 6245 C 590.084 -2.06969 -5.34744 0
M  V30 6246 N 589.58 -2.63579 -6.40701 0
M  V30 6247 N 591.373 -1.97638 -5.26209 0
M  V30 6248 H 583.524 -1.59612 -1.40135 0
M  V30 6249 H 585.787 -0.669592 -0.671081 0
M  V30 6250 H 585.493 -2.02999 -2.87201 0
M  V30 6251 H 585.367 -0.508749 -3.73753 0
M  V30 6252 H 587.754 0.093568 -2.94952 0
M  V30 6253 H 587.835 -1.4576 -2.10209 0
M  V30 6254 H 587.479 -2.66463 -4.32389 0
M  V30 6255 H 587.409 -1.08893 -5.15218 0
M  V30 6256 H 589.899 -1.17183 -3.59272 0
M  V30 6257 H 590.213 -2.98298 -7.12908 0
M  V30 6258 H 588.558 -2.67626 -6.41406 0
M  V30 6259 H 591.749 -1.5314 -4.42341 0
M  V30 6260 H 591.922 -2.35708 -6.03611 0
M  V30 6261 N 585.328 1.53329 -0.364422 0
M  V30 6262 C 586.574 2.01537 0.225969 0
M  V30 6263 C 586.907 1.25128 1.48515 0
M  V30 6264 O 586.182 0.344653 1.91422 0
M  V30 6265 C 586.465 3.56339 0.519092 0
M  V30 6266 C 586.318 4.43441 -0.753639 0
M  V30 6267 C 587.637 4.19833 1.32015 0
M  V30 6268 H 584.756 0.732573 0.0806548 0
M  V30 6269 H 587.398 1.83597 -0.489084 0
M  V30 6270 H 585.548 3.71756 1.12825 0
M  V30 6271 H 587.22 4.39823 -1.39116 0
M  V30 6272 H 585.463 4.11457 -1.37424 0
M  V30 6273 H 586.134 5.49699 -0.503517 0
M  V30 6274 H 588.61 4.08242 0.804859 0
M  V30 6275 H 587.486 5.28177 1.49399 0
M  V30 6276 H 587.747 3.75821 2.32832 0
M  V30 6277 N 586.806 0.0935595 1.57322 0
M  V30 6278 C 588.055 -0.570191 1.93473 0
M  V30 6279 C 588.368 -1.69434 0.977318 0
M  V30 6280 O 589.574 -2.41914 1.23248 0
M  V30 6281 C 588.03 -1.06564 3.43762 0
M  V30 6282 C 587.638 0.0286723 4.47991 0
M  V30 6283 C 589.382 -1.70221 3.88877 0
M  V30 6284 C 587.289 -0.482046 5.89432 0
M  V30 6285 H 586.219 -0.216764 0.72217 0
M  V30 6286 H 588.87 0.169313 1.82717 0
M  V30 6287 H 587.252 -1.85878 3.49664 0
M  V30 6288 H 588.426 0.804106 4.5373 0
M  V30 6289 H 586.741 0.570336 4.12476 0
M  V30 6290 H 589.338 -2.09502 4.91948 0
M  V30 6291 H 589.681 -2.57078 3.27439 0
M  V30 6292 H 590.214 -0.974919 3.85668 0
M  V30 6293 H 586.953 0.349871 6.54566 0
M  V30 6294 H 586.473 -1.22452 5.87167 0
M  V30 6295 H 588.152 -0.951508 6.39965 0
M  V30 6296 N 588.284 -1.56567 -0.180126 0
M  V30 6297 C 589.214 -1.98753 -1.22553 0
M  V30 6298 C 590.195 -0.86175 -1.46656 0
M  V30 6299 O 591.38 -1.12719 -1.58139 0
M  V30 6300 C 588.51 -2.33988 -2.56645 0
M  V30 6301 C 587.464 -3.49445 -2.47128 0
M  V30 6302 C 586.79 -3.70397 -3.8563 0
M  V30 6303 C 588.09 -4.83171 -1.98352 0
M  V30 6304 H 589.784 -2.86332 -0.874896 0
M  V30 6305 H 587.33 -1.37757 -0.419414 0
M  V30 6306 H 589.283 -2.62097 -3.29974 0
M  V30 6307 H 588.007 -1.43309 -2.93479 0
M  V30 6308 H 586.666 -3.2145 -1.76254 0
M  V30 6309 H 586.314 -2.77023 -4.19842 0
M  V30 6310 H 586.014 -4.48077 -3.80132 0
M  V30 6311 H 587.538 -4.00897 -4.60558 0
M  V30 6312 H 588.952 -5.10213 -2.61449 0
M  V30 6313 H 587.349 -5.64425 -2.03823 0
M  V30 6314 H 588.419 -4.75753 -0.937402 0
M  V30 6315 N 589.762 0.448376 -1.51087 0
M  V30 6316 C 590.672 1.56882 -1.74428 0
M  V30 6317 C 591.688 1.62268 -0.62809 0
M  V30 6318 O 592.864 1.79716 -0.909075 0
M  V30 6319 C 589.929 2.92947 -1.85426 0
M  V30 6320 C 588.99 2.97766 -3.09247 0
M  V30 6321 C 588.223 4.27341 -3.19711 0
M  V30 6322 O 588.446 5.19112 -2.36387 0
M  V30 6323 O 587.38 4.38219 -4.12611 0
M  V30 6324 H 591.206 1.40104 -2.69452 0
M  V30 6325 H 588.791 0.630247 -1.35456 0
M  V30 6326 H 590.673 3.73719 -1.94709 0
M  V30 6327 H 589.348 3.09876 -0.935887 0
M  V30 6328 H 588.255 2.15989 -3.0545 0
M  V30 6329 H 589.588 2.8578 -4.00738 0
M  V30 6330 N 591.24 1.41047 0.703093 0
M  V30 6331 C 592.465 1.43537 1.49706 0
M  V30 6332 C 592.89 0.0401853 1.88057 0
M  V30 6333 O 592.248 -0.954785 1.54122 0
M  V30 6334 C 592.296 2.3433 2.74084 0
M  V30 6335 O 591.4 1.79515 3.71279 0
M  V30 6336 H 590.741 0.487454 0.450871 0
M  V30 6337 H 593.271 1.85422 0.86486 0
M  V30 6338 H 593.281 2.49947 3.22476 0
M  V30 6339 H 591.956 3.35708 2.45506 0
M  V30 6340 H 590.533 1.7331 3.30179 0
M  V30 6341 N 592.718 -0.936591 1.26751 0
M  V30 6342 C 593.967 -1.67778 1.11953 0
M  V30 6343 C 594.28 -1.92694 -0.33589 0
M  V30 6344 O 595.486 -2.64682 -0.604618 0
M  V30 6345 C 593.942 -3.02138 1.95551 0
M  V30 6346 C 593.55 -2.84953 3.45696 0
M  V30 6347 C 595.294 -3.79917 1.89377 0
M  V30 6348 C 593.201 -4.14814 4.21525 0
M  V30 6349 H 592.131 -0.629275 0.415366 0
M  V30 6350 H 594.782 -1.04122 1.51099 0
M  V30 6351 H 593.164 -3.668 1.49243 0
M  V30 6352 H 594.338 -2.29112 3.99805 0
M  V30 6353 H 592.653 -2.20612 3.53156 0
M  V30 6354 H 595.25 -4.76134 2.43312 0
M  V30 6355 H 595.593 -4.07204 0.865464 0
M  V30 6356 H 596.126 -3.22037 2.33532 0
M  V30 6357 H 592.865 -3.92709 5.24843 0
M  V30 6358 H 592.385 -4.70352 3.72195 0
M  V30 6359 H 594.064 -4.83239 4.3022 0
M  V30 6360 N 594.196 -1.08629 -1.14182 0
M  V30 6361 C 595.106 -0.730126 -2.22949 0
M  V30 6362 C 596.122 0.26436 -1.7198 0
M  V30 6363 O 597.298 0.107742 -2.01112 0
M  V30 6364 C 594.363 -0.147227 -3.46387 0
M  V30 6365 C 593.424 -1.19662 -4.12286 0
M  V30 6366 C 592.657 -0.641437 -5.29831 0
M  V30 6367 O 592.88 0.538351 -5.67854 0
M  V30 6368 O 591.814 -1.39257 -5.85569 0
M  V30 6369 H 595.64 -1.63753 -2.55771 0
M  V30 6370 H 593.225 -0.860118 -1.22157 0
M  V30 6371 H 595.107 0.174923 -4.21037 0
M  V30 6372 H 593.782 0.733304 -3.15285 0
M  V30 6373 H 592.689 -1.57133 -3.395 0
M  V30 6374 H 594.022 -2.0495 -4.475 0
M  V30 6375 N 595.674 1.31259 -0.872281 0
M  V30 6376 C 596.92 1.96913 -0.485083 0
M  V30 6377 C 597.253 1.68774 0.960667 0
M  V30 6378 O 596.528 0.985495 1.67685 0
M  V30 6379 C 596.811 3.52299 -0.745502 0
M  V30 6380 C 596.664 3.90002 -2.24095 0
M  V30 6381 C 597.983 4.39582 -0.213516 0
M  V30 6382 H 595.102 0.715252 -0.177716 0
M  V30 6383 H 597.744 1.55347 -1.09395 0
M  V30 6384 H 595.894 3.87835 -0.227276 0
M  V30 6385 H 597.566 3.64555 -2.82661 0
M  V30 6386 H 595.809 3.38526 -2.71261 0
M  V30 6387 H 596.48 4.98352 -2.37381 0
M  V30 6388 H 598.956 4.10882 -0.656902 0
M  V30 6389 H 597.832 5.47251 -0.42516 0
M  V30 6390 H 598.093 4.33158 0.884666 0
M  V30 6391 N 597.152 0.631951 1.44375 0
M  V30 6392 C 598.563 0.219036 1.85411 0
M  V30 6393 C 598.914 -1.22974 1.52879 0
M  V30 6394 O 598.039 -1.93579 0.967266 0
M  V30 6395 C 598.634 0.39075 3.36539 0
M  V30 6396 C 597.193 0.0323351 3.76386 0
M  V30 6397 C 596.34 0.703744 2.68221 0
M  V30 6398 H 599.291 0.837056 1.3483 0
M  V30 6399 H 599.312 -0.370056 3.78696 0
M  V30 6400 H 598.824 1.44527 3.60185 0
M  V30 6401 H 596.925 -1.02042 3.58355 0
M  V30 6402 H 597.038 0.442969 4.77048 0
M  V30 6403 H 595.402 0.138974 2.54321 0
M  V30 6404 H 596.185 1.76088 2.947 0
M  V30 6405 N 598.631 -1.53133 0.372548 0
M  V30 6406 C 599.541 -2.29671 -0.478379 0
M  V30 6407 C 600.557 -1.35913 -1.08644 0
M  V30 6408 O 601.733 -1.68975 -1.09588 0
M  V30 6409 C 598.798 -3.07625 -1.599 0
M  V30 6410 C 597.859 -4.17061 -1.01776 0
M  V30 6411 C 597.092 -4.91289 -2.08497 0
M  V30 6412 O 597.315 -4.65442 -3.29727 0
M  V30 6413 O 596.249 -5.7705 -1.71164 0
M  V30 6414 H 600.075 -3.03355 0.144649 0
M  V30 6415 H 597.66 -1.48773 0.136729 0
M  V30 6416 H 599.542 -3.56281 -2.25038 0
M  V30 6417 H 598.217 -2.3677 -2.2073 0
M  V30 6418 H 597.124 -3.72641 -0.330098 0
M  V30 6419 H 598.457 -4.90102 -0.453915 0
M  V30 6420 N 600.109 -0.101901 -1.5727 0
M  V30 6421 C 601.52 0.426173 -1.81771 0
M  V30 6422 C 601.871 1.67725 -1.01797 0
M  V30 6423 O 600.996 2.14958 -0.249386 0
M  V30 6424 C 601.591 0.779962 -3.297 0
M  V30 6425 C 600.15 1.25275 -3.54941 0
M  V30 6426 C 599.297 0.252814 -2.76145 0
M  V30 6427 H 602.248 -0.32726 -1.55289 0
M  V30 6428 H 602.269 1.63891 -3.43395 0
M  V30 6429 H 601.781 -0.130778 -3.8788 0
M  V30 6430 H 599.882 2.18097 -3.021 0
M  V30 6431 H 599.995 1.20988 -4.63572 0
M  V30 6432 H 598.359 0.736362 -2.43823 0
M  V30 6433 H 599.142 -0.650724 -3.37076 0
M  V30 6434 N 601.587 1.56661 0.17182 0
M  V30 6435 C 602.833 1.82235 0.889845 0
M  V30 6436 C 603.166 0.679673 1.81918 0
M  V30 6437 O 602.441 -0.318404 1.91876 0
M  V30 6438 C 602.724 3.18195 1.68595 0
M  V30 6439 C 602.577 4.42989 0.779773 0
M  V30 6440 C 603.896 3.5109 2.65375 0
M  V30 6441 H 601.015 0.66291 0.322056 0
M  V30 6442 H 603.657 1.89358 0.15608 0
M  V30 6443 H 601.807 3.12253 2.3115 0
M  V30 6444 H 603.479 4.60997 0.16714 0
M  V30 6445 H 601.722 4.33711 0.0877964 0
M  V30 6446 H 602.393 5.3467 1.3723 0
M  V30 6447 H 604.869 3.57482 2.12946 0
M  V30 6448 H 603.745 4.47298 3.18144 0
M  V30 6449 H 604.006 2.75768 3.45549 0
M  V30 6450 N 603.065 -0.440357 1.51323 0
M  V30 6451 C 604.314 -1.18697 1.63076 0
M  V30 6452 C 604.627 -1.92418 0.35136 0
M  V30 6453 O 605.833 -2.69258 0.348221 0
M  V30 6454 C 604.289 -2.15849 2.87988 0
M  V30 6455 C 603.897 -1.47789 4.22921 0
M  V30 6456 C 605.641 -2.90962 3.09098 0
M  V30 6457 C 603.548 -2.43407 5.38987 0
M  V30 6458 H 602.478 -0.44676 0.607389 0
M  V30 6459 H 605.129 -0.454313 1.77787 0
M  V30 6460 H 603.511 -2.92537 2.66905 0
M  V30 6461 H 604.685 -0.7668 4.54375 0
M  V30 6462 H 603 -0.848404 4.07665 0
M  V30 6463 H 605.597 -3.62584 3.92985 0
M  V30 6464 H 605.94 -3.52133 2.22053 0
M  V30 6465 H 606.473 -2.21381 3.30507 0
M  V30 6466 H 603.212 -1.86929 6.28282 0
M  V30 6467 H 602.732 -3.12579 5.11913 0
M  V30 6468 H 604.411 -3.046 5.70813 0
M  V30 6469 N 604.543 -1.41418 -0.695603 0
M  V30 6470 C 605.82 -1.31264 -1.45014 0
M  V30 6471 C 606.2 0.0597994 -2.11015 0
M  V30 6472 O 605.548 1.07403 -2.01685 0
M  V30 6473 C 605.758 -2.466 -2.4696 0
M  V30 6474 C 607.106 -2.87763 -3.12214 0
M  V30 6475 O 608.13 -2.46339 -2.57285 0
M  V30 6476 O 606.989 -3.59395 -4.11701 0
M  V30 6477 H 604.083 -0.516576 -0.645816 0
M  V30 6478 H 606.629 -1.53382 -0.726084 0
M  V30 6479 H 605.401 -3.38183 -1.96845 0
M  V30 6480 H 605.024 -2.26358 -3.26876 0
M  V30 6481 N 606.021 0.929856 -1.27246 0
M  V30 6482 C 607.267 1.6798 -1.13625 0
M  V30 6483 C 607.6 1.91586 0.317589 0
M  V30 6484 O 606.875 1.50467 1.23247 0
M  V30 6485 C 607.158 3.04766 -1.91806 0
M  V30 6486 C 607.011 2.88415 -3.45162 0
M  V30 6487 C 608.33 4.05063 -1.72082 0
M  V30 6488 H 605.449 0.609632 -0.414147 0
M  V30 6489 H 608.091 1.0792 -1.56376 0
M  V30 6490 H 606.241 3.56034 -1.55474 0
M  V30 6491 H 607.913 2.44282 -3.91311 0
M  V30 6492 H 606.156 2.23802 -3.71611 0
M  V30 6493 H 606.827 3.85482 -3.95105 0
M  V30 6494 H 609.303 3.62798 -2.03757 0
M  V30 6495 H 608.179 4.98765 -2.29182 0
M  V30 6496 H 608.44 4.37021 -0.668206 0
M  V30 6497 N 607.499 1.09233 1.13605 0
M  V30 6498 C 608.462 0.733553 2.17144 0
M  V30 6499 C 609.462 -0.235873 1.59061 0
M  V30 6500 O 610.652 -0.0143167 1.74194 0
M  V30 6501 C 607.784 0.084471 3.40795 0
M  V30 6502 H 608.977 1.65049 2.50397 0
M  V30 6503 H 606.53 0.891264 1.28399 0
M  V30 6504 H 607.265 -0.843795 3.1313 0
M  V30 6505 H 607.05 0.781985 3.84223 0
M  V30 6506 H 608.54 -0.151216 4.17326 0
M  V30 6507 N 608.977 -1.30795 0.87923 0
M  V30 6508 C 610.226 -1.95636 0.490875 0
M  V30 6509 C 610.539 -1.70214 -0.963674 0
M  V30 6510 O 611.745 -2.28991 -1.45861 0
M  V30 6511 C 610.201 -3.50271 0.826929 0
M  V30 6512 C 609.809 -3.84521 2.29886 0
M  V30 6513 C 611.553 -4.21456 0.507494 0
M  V30 6514 C 609.46 -5.32309 2.57685 0
M  V30 6515 H 608.39 -0.732238 0.179841 0
M  V30 6516 H 611.041 -1.48829 1.07341 0
M  V30 6517 H 609.423 -3.9562 0.173542 0
M  V30 6518 H 610.597 -3.50102 2.99609 0
M  V30 6519 H 608.912 -3.26425 2.58526 0
M  V30 6520 H 611.509 -5.30199 0.692293 0
M  V30 6521 H 611.852 -4.12614 -0.552718 0
M  V30 6522 H 612.385 -3.81772 1.11782 0
M  V30 6523 H 609.124 -5.46195 3.62424 0
M  V30 6524 H 608.644 -5.68048 1.92566 0
M  V30 6525 H 610.323 -5.99678 2.42889 0
M  V30 6526 N 610.455 -0.639598 -1.44038 0
M  V30 6527 C 611.365 0.0612377 -2.3452 0
M  V30 6528 C 612.381 0.826717 -1.53106 0
M  V30 6529 O 613.557 0.777059 -1.85806 0
M  V30 6530 C 610.622 1.02492 -3.31204 0
M  V30 6531 C 609.683 0.25788 -4.28525 0
M  V30 6532 C 608.916 1.17566 -5.2059 0
M  V30 6533 O 609.139 2.41461 -5.16771 0
M  V30 6534 O 608.073 0.655407 -5.98321 0
M  V30 6535 H 611.899 -0.68318 -2.95916 0
M  V30 6536 H 609.484 -0.399784 -1.43952 0
M  V30 6537 H 611.366 1.57911 -3.90694 0
M  V30 6538 H 610.041 1.7498 -2.7233 0
M  V30 6539 H 608.948 -0.339566 -3.72556 0
M  V30 6540 H 610.281 -0.427154 -4.90343 0
M  V30 6541 N 611.933 1.52934 -0.380664 0
M  V30 6542 C 613.344 1.86457 0.0952684 0
M  V30 6543 C 613.695 1.3007 1.46889 0
M  V30 6544 O 612.82 0.628636 2.07068 0
M  V30 6545 C 613.415 3.38323 0.179648 0
M  V30 6546 C 611.974 3.71589 0.599858 0
M  V30 6547 C 611.121 2.76228 -0.243572 0
M  V30 6548 H 614.072 1.46966 -0.59888 0
M  V30 6549 H 614.093 3.67113 1.00042 0
M  V30 6550 H 613.605 3.79333 -0.820228 0
M  V30 6551 H 611.706 3.36144 1.60742 0
M  V30 6552 H 611.819 4.77715 0.364003 0
M  V30 6553 H 610.183 2.53045 0.289855 0
M  V30 6554 H 610.966 3.20074 -1.24127 0
M  V30 6555 N 613.412 0.11024 1.57214 0
M  V30 6556 C 614.359 -0.843195 2.14846 0
M  V30 6557 C 615.329 -1.26954 1.07107 0
M  V30 6558 O 616.514 -1.34861 1.34971 0
M  V30 6559 C 613.654 -2.09123 2.74521 0
M  V30 6560 C 612.767 -1.71404 3.96541 0
M  V30 6561 C 611.902 -2.91107 4.44331 0
M  V30 6562 C 610.941 -2.49586 5.58903 0
M  V30 6563 N 610.078 -3.62175 6.01477 0
M  V30 6564 H 614.918 -0.344886 2.95998 0
M  V30 6565 H 612.455 -0.15855 1.46243 0
M  V30 6566 H 614.413 -2.82234 3.07246 0
M  V30 6567 H 613.043 -2.56427 1.96074 0
M  V30 6568 H 612.095 -0.88201 3.70033 0
M  V30 6569 H 613.407 -1.36884 4.7965 0
M  V30 6570 H 612.561 -3.72454 4.78919 0
M  V30 6571 H 611.3 -3.28848 3.60153 0
M  V30 6572 H 610.305 -1.6667 5.23929 0
M  V30 6573 H 611.53 -2.12973 6.4484 0
M  V30 6574 H 609.476 -3.99605 5.20242 0
M  V30 6575 H 609.393 -3.3155 6.79419 0
M  V30 6576 H 610.661 -4.43987 6.407 0
M  V30 6577 N 614.89 -1.56749 -0.16351 0
M  V30 6578 C 616.118 -1.86577 -0.894233 0
M  V30 6579 C 616.533 -0.696543 -1.75481 0
M  V30 6580 O 615.89 0.334161 -1.79415 0
M  V30 6581 C 615.941 -3.15508 -1.76456 0
M  V30 6582 O 615.662 -4.27926 -0.938685 0
M  V30 6583 C 617.163 -3.58737 -2.60428 0
M  V30 6584 H 614.383 -0.618829 -0.259405 0
M  V30 6585 H 616.927 -2.03863 -0.161259 0
M  V30 6586 H 615.082 -3.00025 -2.45079 0
M  V30 6587 H 615.496 -5.01546 -1.53465 0
M  V30 6588 H 616.97 -4.51832 -3.17099 0
M  V30 6589 H 617.447 -2.83229 -3.35675 0
M  V30 6590 H 618.053 -3.76858 -1.97125 0
M  V30 6591 N 616.368 0.432326 -1.51554 0
M  V30 6592 C 617.315 1.52512 -1.7323 0
M  V30 6593 C 618.285 1.55863 -0.5741 0
M  V30 6594 O 619.47 1.72796 -0.809093 0
M  V30 6595 C 616.61 2.90183 -1.86783 0
M  V30 6596 C 615.723 2.96322 -3.14352 0
M  V30 6597 C 614.858 4.25147 -3.18471 0
M  V30 6598 C 613.897 4.25172 -4.40335 0
M  V30 6599 N 613.034 5.45529 -4.41975 0
M  V30 6600 H 617.874 1.33332 -2.66508 0
M  V30 6601 H 615.411 0.647613 -1.32077 0
M  V30 6602 H 617.369 3.70071 -1.92623 0
M  V30 6603 H 615.999 3.0791 -0.969087 0
M  V30 6604 H 615.051 2.09066 -3.17798 0
M  V30 6605 H 616.363 2.92203 -4.04251 0
M  V30 6606 H 615.517 5.13411 -3.23255 0
M  V30 6607 H 614.256 4.31929 -2.2647 0
M  V30 6608 H 613.261 3.353 -4.35723 0
M  V30 6609 H 614.486 4.20049 -5.33606 0
M  V30 6610 H 612.432 5.53024 -3.52847 0
M  V30 6611 H 612.349 5.43311 -5.25689 0
M  V30 6612 H 613.617 6.35812 -4.50958 0
M  V30 6613 N 617.846 1.41785 0.688094 0
M  V30 6614 C 618.809 1.43936 1.78368 0
M  V30 6615 C 619.809 0.328866 1.57401 0
M  V30 6616 O 620.999 0.589093 1.63937 0
M  V30 6617 C 618.131 1.25804 3.16838 0
M  V30 6618 H 619.324 2.41472 1.77852 0
M  V30 6619 H 616.877 1.28037 0.896448 0
M  V30 6620 H 617.612 0.291386 3.22988 0
M  V30 6621 H 617.397 2.06272 3.33458 0
M  V30 6622 H 618.887 1.30162 3.96797 0
M  V30 6623 N 619.324 -0.923095 1.27737 0
M  V30 6624 C 620.601 -1.64989 1.05062 0
M  V30 6625 C 620.981 -2.07018 -0.413124 0
M  V30 6626 O 620.329 -1.80797 -1.39731 0
M  V30 6627 C 620.539 -2.84847 2.01652 0
M  V30 6628 C 621.887 -3.56083 2.31279 0
M  V30 6629 O 622.911 -2.94981 1.99662 0
M  V30 6630 O 621.77 -4.66182 2.85196 0
M  V30 6631 H 618.864 -0.723357 0.400853 0
M  V30 6632 H 621.41 -0.973224 1.3902 0
M  V30 6633 H 620.182 -2.50814 3.00347 0
M  V30 6634 H 619.805 -3.60231 1.68284 0
M  V30 6635 N 620.802 -1.09834 -1.13024 0
M  V30 6636 C 621.734 -0.699379 -2.18269 0
M  V30 6637 C 622.747 0.260841 -1.60697 0
M  V30 6638 O 623.936 0.0462538 -1.7844 0
M  V30 6639 C 621.036 -0.0104537 -3.38898 0
M  V30 6640 C 620.209 -0.993275 -4.25973 0
M  V30 6641 C 619.268 -0.336982 -5.2512 0
M  V30 6642 O 618.294 -0.985892 -5.60597 0
M  V30 6643 N 619.496 0.90716 -5.73368 0
M  V30 6644 H 622.261 -1.60486 -2.5311 0
M  V30 6645 H 619.822 -0.986337 -1.28386 0
M  V30 6646 H 621.814 0.43991 -4.02302 0
M  V30 6647 H 620.384 0.797335 -3.0226 0
M  V30 6648 H 619.604 -1.62208 -3.5928 0
M  V30 6649 H 620.892 -1.65876 -4.81002 0
M  V30 6650 H 620.29 1.45384 -5.46699 0
M  V30 6651 H 618.847 1.30077 -6.38689 0
M  V30 6652 N 622.28 1.30327 -0.886154 0
M  V30 6653 C 623.19 2.31854 -0.357866 0
M  V30 6654 C 624.206 1.65392 0.540502 0
M  V30 6655 O 625.382 1.96683 0.433339 0
M  V30 6656 C 622.447 3.44171 0.417999 0
M  V30 6657 C 621.508 4.26257 -0.510263 0
M  V30 6658 C 620.741 5.3321 0.228669 0
M  V30 6659 O 620.964 5.51542 1.45458 0
M  V30 6660 O 619.898 6.0042 -0.421832 0
M  V30 6661 H 623.724 2.78995 -1.19982 0
M  V30 6662 H 621.309 1.34518 -0.650028 0
M  V30 6663 H 623.191 4.12588 0.857251 0
M  V30 6664 H 621.866 2.99164 1.23623 0
M  V30 6665 H 620.773 3.60533 -0.99835 0
M  V30 6666 H 622.106 4.74871 -1.29454 0
M  V30 6667 N 623.758 0.647228 1.43697 0
M  V30 6668 C 624.705 -0.0480092 2.3075 0
M  V30 6669 C 625.675 -0.820705 1.44408 0
M  V30 6670 O 626.86 -0.798515 1.73287 0
M  V30 6671 C 624 -1.01259 3.2991 0
M  V30 6672 C 623.113 -0.236629 4.31351 0
M  V30 6673 C 622.248 -1.19447 5.17596 0
M  V30 6674 C 621.287 -0.408595 6.10735 0
M  V30 6675 N 620.424 -1.31772 6.89623 0
M  V30 6676 H 625.264 0.700238 2.89656 0
M  V30 6677 H 622.801 0.357082 1.427 0
M  V30 6678 H 624.759 -1.58538 3.85903 0
M  V30 6679 H 623.389 -1.72778 2.72667 0
M  V30 6680 H 622.441 0.452353 3.77701 0
M  V30 6681 H 623.753 0.374731 4.9739 0
M  V30 6682 H 622.907 -1.83809 5.78186 0
M  V30 6683 H 621.646 -1.83975 4.51669 0
M  V30 6684 H 620.651 0.24841 5.49239 0
M  V30 6685 H 621.876 0.232188 6.78703 0
M  V30 6686 H 619.822 -1.94991 6.2635 0
M  V30 6687 H 619.739 -0.760779 7.52162 0
M  V30 6688 H 621.007 -1.94967 7.54724 0
M  V30 6689 N 625.236 -1.5273 0.388769 0
M  V30 6690 C 626.166 -2.29353 -0.438111 0
M  V30 6691 C 627.147 -1.32719 -1.06394 0
M  V30 6692 O 628.332 -1.61612 -1.07681 0
M  V30 6693 C 625.462 -3.09995 -1.56589 0
M  V30 6694 C 624.416 -4.14509 -1.06613 0
M  V30 6695 C 623.742 -4.83372 -2.28594 0
M  V30 6696 C 625.042 -5.22127 -0.134459 0
M  V30 6697 H 626.736 -2.98723 0.201206 0
M  V30 6698 H 624.282 -1.43665 0.0982089 0
M  V30 6699 H 626.235 -3.62357 -2.15118 0
M  V30 6700 H 624.959 -2.38357 -2.23279 0
M  V30 6701 H 623.618 -3.63128 -0.503383 0
M  V30 6702 H 623.266 -4.08283 -2.93792 0
M  V30 6703 H 622.966 -5.54012 -1.95817 0
M  V30 6704 H 624.49 -5.38538 -2.87766 0
M  V30 6705 H 625.904 -5.69851 -0.627914 0
M  V30 6706 H 624.301 -6.00011 0.103534 0
M  V30 6707 H 625.371 -4.77971 0.816798 0
M  V30 6708 N 626.714 -0.118576 -1.57153 0
M  V30 6709 C 627.939 0.550582 -1.99958 0
M  V30 6710 C 628.364 1.59458 -0.997736 0
M  V30 6711 O 627.722 1.81274 0.0306269 0
M  V30 6712 C 627.77 1.15379 -3.41643 0
M  V30 6713 O 626.874 2.26932 -3.44348 0
M  V30 6714 H 626.215 0.137567 -0.649593 0
M  V30 6715 H 628.745 -0.206926 -2.03551 0
M  V30 6716 H 628.755 1.48942 -3.79843 0
M  V30 6717 H 627.43 0.389087 -4.14076 0
M  V30 6718 H 626.007 1.94812 -3.17967 0
M  V30 6719 N 628.193 1.56834 0.155195 0
M  V30 6720 C 629.125 1.94235 1.21677 0
M  V30 6721 C 630.138 0.83724 1.39621 0
M  V30 6722 O 631.327 1.11567 1.39338 0
M  V30 6723 C 628.427 2.19402 2.58294 0
M  V30 6724 C 627.6 3.50671 2.61436 0
M  V30 6725 C 626.659 3.64475 3.79532 0
M  V30 6726 O 625.685 4.36945 3.64784 0
M  V30 6727 N 626.887 3.00526 4.96653 0
M  V30 6728 H 629.652 2.85901 0.898932 0
M  V30 6729 H 627.213 1.58185 0.34483 0
M  V30 6730 H 629.205 2.25886 3.35794 0
M  V30 6731 H 627.775 1.34042 2.82403 0
M  V30 6732 H 626.995 3.55702 1.69912 0
M  V30 6733 H 628.283 4.3702 2.60559 0
M  V30 6734 H 627.681 2.41549 5.11538 0
M  V30 6735 H 626.238 3.12583 5.71958 0
M  V30 6736 N 629.671 -0.424282 1.51781 0
M  V30 6737 C 630.634 -1.49848 1.73431 0
M  V30 6738 C 631.634 -1.49016 0.604225 0
M  V30 6739 O 632.824 -1.50808 0.871935 0
M  V30 6740 C 629.956 -2.89332 1.80277 0
M  V30 6741 H 631.149 -1.3195 2.69312 0
M  V30 6742 H 628.702 -0.653809 1.41968 0
M  V30 6743 H 629.437 -3.12618 0.862568 0
M  V30 6744 H 629.222 -2.9134 2.62419 0
M  V30 6745 H 630.712 -3.67233 1.98821 0
M  V30 6746 N 631.149 -1.42148 -0.680565 0
M  V30 6747 C 632.079 -1.4796 -1.80638 0
M  V30 6748 C 633.06 -0.336728 -1.66734 0
M  V30 6749 O 634.245 -0.550247 -1.86242 0
M  V30 6750 C 631.375 -1.37569 -3.18892 0
M  V30 6751 C 630.329 -2.49823 -3.47524 0
M  V30 6752 C 629.655 -2.24491 -4.85291 0
M  V30 6753 C 630.955 -3.92144 -3.44994 0
M  V30 6754 H 632.649 -2.42184 -1.76032 0
M  V30 6755 H 630.195 -1.16566 -0.845481 0
M  V30 6756 H 632.148 -1.40243 -3.97379 0
M  V30 6757 H 630.872 -0.398357 -3.24162 0
M  V30 6758 H 629.531 -2.46455 -2.71395 0
M  V30 6759 H 629.179 -1.25066 -4.87204 0
M  V30 6760 H 628.879 -2.99722 -5.05411 0
M  V30 6761 H 630.403 -2.28906 -5.66069 0
M  V30 6762 H 631.817 -3.97145 -4.13459 0
M  V30 6763 H 630.214 -4.67179 -3.76648 0
M  V30 6764 H 631.284 -4.19225 -2.43676 0
M  V30 6765 N 632.627 0.916307 -1.28225 0
M  V30 6766 C 633.59 1.99996 -1.11957 0
M  V30 6767 C 634.59 1.60688 -0.0600152 0
M  V30 6768 O 635.78 1.71499 -0.30558 0
M  V30 6769 C 632.912 3.33458 -0.708411 0
M  V30 6770 H 634.105 2.15858 -2.08196 0
M  V30 6771 H 631.658 1.09863 -1.11175 0
M  V30 6772 H 632.393 3.23297 0.254859 0
M  V30 6773 H 632.178 3.63349 -1.47377 0
M  V30 6774 H 633.668 4.13014 -0.617164 0
M  V30 6775 N 634.105 1.10431 1.1244 0
M  V30 6776 C 635.521 0.836096 1.35947 0
M  V30 6777 C 635.721 -0.544475 1.94004 0
M  V30 6778 O 634.777 -1.29735 2.16622 0
M  V30 6779 C 636.09 1.93575 2.30107 0
M  V30 6780 C 637.638 1.9642 2.43697 0
M  V30 6781 C 638.113 3.05559 3.41171 0
M  V30 6782 N 639.604 3.04865 3.48728 0
M  V30 6783 C 640.339 3.85954 4.24061 0
M  V30 6784 N 639.835 4.76977 5.02458 0
M  V30 6785 N 641.628 3.74172 4.19466 0
M  V30 6786 H 633.779 1.9942 0.731124 0
M  V30 6787 H 636.042 0.866607 0.384312 0
M  V30 6788 H 635.748 2.92943 1.94621 0
M  V30 6789 H 635.622 1.8229 3.30227 0
M  V30 6790 H 638.009 0.97685 2.78463 0
M  V30 6791 H 638.09 2.11782 1.43465 0
M  V30 6792 H 637.734 4.04513 3.07135 0
M  V30 6793 H 637.664 2.87438 4.41234 0
M  V30 6794 H 640.155 2.38908 2.92799 0
M  V30 6795 H 640.468 5.35409 5.57277 0
M  V30 6796 H 638.813 4.81006 5.01655 0
M  V30 6797 H 642.004 3.02412 3.57302 0
M  V30 6798 H 642.177 4.37602 4.77921 0
M  V30 6799 N 635.583 -1.29855 0.893053 0
M  V30 6800 C 636.513 -2.3035 0.382249 0
M  V30 6801 C 637.494 -1.61328 -0.539203 0
M  V30 6802 O 638.679 -1.88882 -0.451342 0
M  V30 6803 C 635.809 -3.45024 -0.396983 0
M  V30 6804 C 634.763 -4.258 0.433437 0
M  V30 6805 C 634.089 -5.32605 -0.472889 0
M  V30 6806 C 635.389 -4.94549 1.67984 0
M  V30 6807 H 637.083 -2.73325 1.22205 0
M  V30 6808 H 634.629 -1.314 0.589073 0
M  V30 6809 H 636.582 -4.14398 -0.765024 0
M  V30 6810 H 635.306 -3.00875 -1.2705 0
M  V30 6811 H 633.965 -3.58125 0.783723 0
M  V30 6812 H 633.613 -4.84702 -1.34435 0
M  V30 6813 H 633.313 -5.87547 0.0789958 0
M  V30 6814 H 634.837 -6.04832 -0.837269 0
M  V30 6815 H 636.251 -5.56395 1.38192 0
M  V30 6816 H 634.648 -5.59393 2.17254 0
M  V30 6817 H 635.718 -4.20215 2.41965 0
M  V30 6818 N 637.061 -0.65484 -1.43351 0
M  V30 6819 C 638.024 0.0263562 -2.29185 0
M  V30 6820 C 639.024 0.748951 -1.42293 0
M  V30 6821 O 640.214 0.589957 -1.63906 0
M  V30 6822 C 637.346 1.04806 -3.2439 0
M  V30 6823 H 638.539 -0.728883 -2.90908 0
M  V30 6824 H 636.092 -0.416149 -1.50658 0
M  V30 6825 H 636.827 1.83247 -2.67565 0
M  V30 6826 H 636.612 0.533554 -3.88453 0
M  V30 6827 H 638.102 1.52372 -3.88809 0
M  V30 6828 N 638.539 1.52521 -0.396863 0
M  V30 6829 C 639.449 2.30403 0.44178 0
M  V30 6830 C 640.465 1.37625 1.06468 0
M  V30 6831 O 641.641 1.70697 1.06886 0
M  V30 6832 C 638.706 3.1013 1.54986 0
M  V30 6833 C 637.767 4.18628 0.951279 0
M  V30 6834 C 637 4.94543 2.00655 0
M  V30 6835 O 637.223 4.70629 3.22281 0
M  V30 6836 O 636.157 5.797 1.61962 0
M  V30 6837 H 639.983 3.03087 -0.192892 0
M  V30 6838 H 637.568 1.48537 -0.16038 0
M  V30 6839 H 639.45 3.59816 2.19341 0
M  V30 6840 H 638.125 2.40251 2.16935 0
M  V30 6841 H 637.032 3.73119 0.270773 0
M  V30 6842 H 638.365 4.90763 0.375887 0
M  V30 6843 N 640.017 0.126909 1.57088 0
M  V30 6844 C 640.927 -0.833867 2.1928 0
M  V30 6845 C 641.943 -1.2868 1.17122 0
M  V30 6846 O 643.119 -1.34815 1.49622 0
M  V30 6847 C 640.184 -2.0632 2.78627 0
M  V30 6848 C 639.245 -1.66143 3.95847 0
M  V30 6849 C 638.478 -2.83217 4.52354 0
M  V30 6850 O 638.701 -3.98868 4.0775 0
M  V30 6851 O 637.635 -2.59846 5.42922 0
M  V30 6852 H 641.461 -0.334564 3.01852 0
M  V30 6853 H 639.046 -0.0991091 1.49071 0
M  V30 6854 H 640.928 -2.78304 3.16425 0
M  V30 6855 H 639.603 -2.55242 1.99082 0
M  V30 6856 H 638.51 -0.912435 3.62802 0
M  V30 6857 H 639.843 -1.21957 4.76852 0
M  V30 6858 N 641.495 -1.56914 -0.146875 0
M  V30 6859 C 642.772 -1.74273 -0.888165 0
M  V30 6860 C 643.152 -0.69496 -1.99333 0
M  V30 6861 O 642.5 0.286093 -2.26702 0
M  V30 6862 C 642.71 -3.18336 -1.43051 0
M  V30 6863 C 644.058 -3.80024 -1.89387 0
M  V30 6864 O 645.082 -3.21765 -1.52792 0
M  V30 6865 O 643.941 -4.82367 -2.56874 0
M  V30 6866 H 641.035 -0.712565 -0.419738 0
M  V30 6867 H 643.581 -1.6918 -0.132791 0
M  V30 6868 H 642.353 -3.86092 -0.636274 0
M  V30 6869 H 641.976 -3.27854 -2.24938 0
M  V30 6870 N 642.974 0.416227 -1.52004 0
M  V30 6871 C 644.385 0.995319 -1.57957 0
M  V30 6872 C 644.736 1.91744 -0.415754 0
M  V30 6873 O 643.861 2.11349 0.464808 0
M  V30 6874 C 644.456 1.81191 -2.86278 0
M  V30 6875 C 643.015 2.34115 -2.94732 0
M  V30 6876 C 642.162 1.139 -2.52828 0
M  V30 6877 H 645.113 0.196716 -1.57476 0
M  V30 6878 H 645.134 2.66859 -2.71231 0
M  V30 6879 H 644.646 1.14051 -3.70963 0
M  V30 6880 H 642.747 3.04647 -2.14525 0
M  V30 6881 H 642.86 2.65466 -3.98829 0
M  V30 6882 H 641.224 1.49081 -2.06511 0
M  V30 6883 H 642.007 0.483383 -3.3988 0
M  V30 6884 N 644.452 1.42507 0.673017 0
M  V30 6885 C 645.68 1.46473 1.46128 0
M  V30 6886 C 646.095 0.0765912 1.88645 0
M  V30 6887 O 645.452 -0.909057 1.58248 0
M  V30 6888 C 645.503 2.39339 2.70923 0
M  V30 6889 O 645.224 3.72752 2.3019 0
M  V30 6890 C 646.725 2.52343 3.64469 0
M  V30 6891 H 643.945 0.49812 0.449575 0
M  V30 6892 H 646.489 1.87041 0.826802 0
M  V30 6893 H 644.644 2.02019 3.30556 0
M  V30 6894 H 645.058 4.22503 3.10791 0
M  V30 6895 H 646.532 3.2144 4.48754 0
M  V30 6896 H 647.009 1.56189 4.1049 0
M  V30 6897 H 647.615 2.90392 3.10729 0
M  V30 6898 N 645.93 -0.909495 1.28709 0
M  V30 6899 C 647.177 -1.65905 1.16111 0
M  V30 6900 C 647.505 -1.92334 -0.289436 0
M  V30 6901 O 646.76 -1.52495 -1.22653 0
M  V30 6902 C 647.059 -3.02117 1.90945 0
M  V30 6903 C 646.725 -2.95332 3.40719 0
M  V30 6904 C 645.387 -2.93189 3.81567 0
M  V30 6905 C 647.739 -2.85264 4.36204 0
M  V30 6906 C 645.067 -2.78784 5.16233 0
M  V30 6907 C 647.419 -2.724 5.70948 0
M  V30 6908 C 646.083 -2.68617 6.11066 0
M  V30 6909 H 645.353 -0.60709 0.42488 0
M  V30 6910 H 648 -1.05932 1.59533 0
M  V30 6911 H 646.305 -3.65901 1.40085 0
M  V30 6912 H 648.002 -3.59026 1.7861 0
M  V30 6913 H 644.592 -2.97797 3.08245 0
M  V30 6914 H 648.776 -2.86005 4.05605 0
M  V30 6915 H 644.032 -2.74254 5.46438 0
M  V30 6916 H 648.206 -2.63579 6.44592 0
M  V30 6917 H 645.833 -2.57213 7.15364 0
M  V30 6918 N 647.408 -1.11026 -1.11852 0
M  V30 6919 C 648.824 -0.843294 -1.35502 0
M  V30 6920 C 649.024 0.534179 -1.9429 0
M  V30 6921 O 648.08 1.28585 -2.17307 0
M  V30 6922 C 649.393 -1.94793 -2.29077 0
M  V30 6923 C 650.941 -1.97709 -2.42652 0
M  V30 6924 C 651.416 -3.07364 -3.39546 0
M  V30 6925 N 652.907 -3.0671 -3.47107 0
M  V30 6926 C 653.642 -3.88197 -4.22008 0
M  V30 6927 N 653.138 -4.79635 -4.99922 0
M  V30 6928 N 654.931 -3.76391 -4.17476 0
M  V30 6929 H 647.082 -1.99805 -0.720538 0
M  V30 6930 H 649.345 -0.868633 -0.379711 0
M  V30 6931 H 649.051 -2.93971 -1.93065 0
M  V30 6932 H 648.925 -1.84039 -3.29256 0
M  V30 6933 H 651.312 -0.991604 -2.77941 0
M  V30 6934 H 651.393 -2.1254 -1.4234 0
M  V30 6935 H 651.037 -4.06136 -3.04985 0
M  V30 6936 H 650.967 -2.89774 -4.39703 0
M  V30 6937 H 653.458 -2.40457 -2.91528 0
M  V30 6938 H 653.771 -5.38357 -5.54429 0
M  V30 6939 H 652.116 -4.8366 -4.99097 0
M  V30 6940 H 655.307 -3.04303 -3.55693 0
M  V30 6941 H 655.48 -4.40131 -4.75593 0
M  V30 6942 N 648.886 1.2938 -0.899927 0
M  V30 6943 C 650.132 1.9584 -0.526742 0
M  V30 6944 C 650.465 1.70774 0.924651 0
M  V30 6945 O 649.74 1.02084 1.65557 0
M  V30 6946 C 650.023 3.50638 -0.820062 0
M  V30 6947 C 649.876 3.85161 -2.32317 0
M  V30 6948 C 651.195 4.3903 -0.30671 0
M  V30 6949 H 648.314 0.711322 -0.192848 0
M  V30 6950 H 650.956 1.52992 -1.12665 0
M  V30 6951 H 649.106 3.87265 -0.309491 0
M  V30 6952 H 650.778 3.58477 -2.9033 0
M  V30 6953 H 649.021 3.32696 -2.78381 0
M  V30 6954 H 649.692 4.93204 -2.47898 0
M  V30 6955 H 652.168 4.09396 -0.743908 0
M  V30 6956 H 651.044 5.46226 -0.541144 0
M  V30 6957 H 651.305 4.34937 0.792588 0
M  V30 6958 N 650.364 0.662433 1.43002 0
M  V30 6959 C 651.589 0.186003 2.06564 0
M  V30 6960 C 652.014 -1.14314 1.49379 0
M  V30 6961 O 651.372 -1.70824 0.607346 0
M  V30 6962 C 651.42 0.118269 3.60406 0
M  V30 6963 O 650.524 -0.916859 4.02079 0
M  V30 6964 H 649.865 0.0990981 0.656563 0
M  V30 6965 H 652.395 0.907958 1.8335 0
M  V30 6966 H 652.405 -0.0619981 4.07953 0
M  V30 6967 H 651.08 1.08849 4.01403 0
M  V30 6968 H 649.657 -0.708635 3.66105 0
M  V30 6969 N 651.842 -1.52309 0.404946 0
M  V30 6970 C 653.07 -2.06185 -0.171818 0
M  V30 6971 C 653.485 -1.27536 -1.39212 0
M  V30 6972 O 652.842 -0.326112 -1.79563 0
M  V30 6973 C 652.893 -3.57647 -0.526417 0
M  V30 6974 O 652.614 -4.3332 0.645417 0
M  V30 6975 C 654.115 -4.27925 -1.15736 0
M  V30 6976 H 651.335 -0.670632 -0.0222328 0
M  V30 6977 H 653.879 -1.96259 0.574692 0
M  V30 6978 H 652.034 -3.67595 -1.22282 0
M  V30 6979 H 652.448 -5.23328 0.35042 0
M  V30 6980 H 653.922 -5.35093 -1.35572 0
M  V30 6981 H 654.399 -3.84134 -2.12926 0
M  V30 6982 H 655.005 -4.22335 -0.501281 0
M  V30 6983 N 653.32 -0.135238 -1.57019 0
M  V30 6984 C 654.27 0.820408 -2.12728 0
M  V30 6985 C 655.254 1.21735 -1.05211 0
M  V30 6986 O 656.446 1.18574 -1.31413 0
M  V30 6987 C 653.575 2.06414 -2.74314 0
M  V30 6988 C 652.661 1.69083 -3.88937 0
M  V30 6989 N 653.052 1.0251 -4.95303 0
M  V30 6990 C 651.35 1.98434 -3.99425 0
M  V30 6991 C 652.051 0.846749 -5.75504 0
M  V30 6992 N 651.027 1.3769 -5.25873 0
M  V30 6993 H 654.829 0.302426 -2.9234 0
M  V30 6994 H 652.343 0.0667009 -1.62263 0
M  V30 6995 H 654.34 2.75863 -3.12579 0
M  V30 6996 H 653 2.58741 -1.96171 0
M  V30 6997 H 654.011 0.687207 -5.1332 0
M  V30 6998 H 650.688 2.52693 -3.32344 0
M  V30 6999 H 652.078 0.322949 -6.71123 0
M  V30 7000 N 654.798 1.5699 0.138552 0
M  V30 7001 C 656.209 1.73171 0.697754 0
M  V30 7002 C 656.56 0.750952 1.8126 0
M  V30 7003 O 655.685 -0.080549 2.1625 0
M  V30 7004 C 656.28 3.13996 1.27248 0
M  V30 7005 C 654.839 3.3175 1.77816 0
M  V30 7006 C 653.986 2.69084 0.669991 0
M  V30 7007 H 656.937 1.5846 -0.0871979 0
M  V30 7008 H 656.958 3.14463 2.14227 0
M  V30 7009 H 656.47 3.85354 0.460855 0
M  V30 7010 H 654.571 2.65403 2.61519 0
M  V30 7011 H 654.684 4.39768 1.90107 0
M  V30 7012 H 653.048 2.29782 1.09874 0
M  V30 7013 H 653.831 3.43053 -0.130329 0
M  V30 7014 N 656.276 -0.40816 1.52223 0
M  V30 7015 C 657.186 -1.52202 1.78526 0
M  V30 7016 C 658.202 -1.60546 0.670892 0
M  V30 7017 O 659.378 -1.77242 0.956404 0
M  V30 7018 C 656.443 -2.87928 1.93128 0
M  V30 7019 C 655.504 -2.89463 3.17033 0
M  V30 7020 C 654.737 -4.18715 3.30929 0
M  V30 7021 O 654.96 -5.12662 2.50067 0
M  V30 7022 O 653.894 -4.27125 4.24084 0
M  V30 7023 H 657.72 -1.32911 2.73072 0
M  V30 7024 H 655.305 -0.594112 1.37079 0
M  V30 7025 H 657.187 -3.68426 2.04549 0
M  V30 7026 H 655.862 -3.07285 1.01772 0
M  V30 7027 H 654.769 -2.07815 3.11069 0
M  V30 7028 H 656.102 -2.75055 4.08174 0
M  V30 7029 N 657.755 -1.42862 -0.66545 0
M  V30 7030 C 658.983 -1.47246 -1.45349 0
M  V30 7031 C 659.398 -0.0865944 -1.88601 0
M  V30 7032 O 658.755 0.900652 -1.58728 0
M  V30 7033 C 658.806 -2.40772 -2.6965 0
M  V30 7034 O 658.527 -3.73968 -2.2821 0
M  V30 7035 C 660.028 -2.54272 -3.63126 0
M  V30 7036 H 657.248 -0.500497 -0.446927 0
M  V30 7037 H 659.792 -1.87477 -0.816871 0
M  V30 7038 H 657.947 -2.0377 -3.29479 0
M  V30 7039 H 658.361 -4.24146 -3.08546 0
M  V30 7040 H 659.835 -3.23815 -4.47043 0
M  V30 7041 H 660.312 -1.58364 -4.09656 0
M  V30 7042 H 660.918 -2.92036 -3.09185 0
M  V30 7043 N 659.233 0.902656 -1.29189 0
M  V30 7044 C 660.481 1.6496 -1.16758 0
M  V30 7045 C 660.802 1.92952 0.28188 0
M  V30 7046 O 660.072 1.55351 1.19344 0
M  V30 7047 H 658.652 0.611447 -0.429118 0
M  V30 7048 H 661.314 1.0825 -1.62074 0
M  V30 7049 H 660.41 2.60728 -1.71544 0
M  V30 7050 N 660.711 1.11618 1.11262 0
M  V30 7051 C 661.643 0.734015 2.17129 0
M  V30 7052 C 662.656 -0.235243 1.61091 0
M  V30 7053 O 663.845 -0.0178597 1.78491 0
M  V30 7054 C 660.945 0.0643682 3.38839 0
M  V30 7055 C 660.118 1.06092 4.24339 0
M  V30 7056 C 659.177 0.420482 5.24517 0
M  V30 7057 O 658.203 1.07495 5.58957 0
M  V30 7058 N 659.405 -0.815828 5.74739 0
M  V30 7059 H 662.17 1.64492 2.50524 0
M  V30 7060 H 659.731 1.00664 1.26801 0
M  V30 7061 H 661.723 -0.375851 4.02951 0
M  V30 7062 H 660.293 -0.749147 3.03491 0
M  V30 7063 H 659.513 1.67903 3.56654 0
M  V30 7064 H 660.801 1.73507 4.78302 0
M  V30 7065 H 660.199 -1.36668 5.48943 0
M  V30 7066 H 658.756 -1.199 6.40677 0
M  V30 7067 N 662.189 -1.289 0.906776 0
M  V30 7068 C 663.417 -1.99401 0.551969 0
M  V30 7069 C 663.832 -1.67816 -0.865048 0
M  V30 7070 O 663.189 -0.927078 -1.57199 0
M  V30 7071 C 663.24 -3.53779 0.743152 0
M  V30 7072 O 662.961 -3.84248 2.1044 0
M  V30 7073 C 664.462 -4.41543 0.39424 0
M  V30 7074 H 661.682 -0.636926 0.211106 0
M  V30 7075 H 664.226 -1.64266 1.21807 0
M  V30 7076 H 662.381 -3.87201 0.124143 0
M  V30 7077 H 662.795 -4.78904 2.13895 0
M  V30 7078 H 664.269 -5.48957 0.578814 0
M  V30 7079 H 664.746 -4.34073 -0.669137 0
M  V30 7080 H 665.352 -4.13605 0.990491 0
M  V30 7081 N 663.667 -0.670007 -1.42649 0
M  V30 7082 C 664.916 -0.187526 -2.00826 0
M  V30 7083 C 665.229 1.21142 -1.53571 0
M  V30 7084 O 666.435 1.79001 -2.04134 0
M  V30 7085 C 664.891 -0.284409 -3.58774 0
M  V30 7086 C 664.499 -1.6871 -4.15019 0
M  V30 7087 C 666.243 0.139605 -4.2427 0
M  V30 7088 C 664.15 -1.73701 -5.65316 0
M  V30 7089 H 663.08 -0.0663468 -0.751075 0
M  V30 7090 H 665.731 -0.834492 -1.63427 0
M  V30 7091 H 664.113 0.430364 -3.93655 0
M  V30 7092 H 665.287 -2.42857 -3.91608 0
M  V30 7093 H 663.602 -2.05855 -3.61957 0
M  V30 7094 H 666.199 0.122398 -5.3456 0
M  V30 7095 H 666.542 1.17403 -3.99402 0
M  V30 7096 H 667.075 -0.523995 -3.94334 0
M  V30 7097 H 663.814 -2.75109 -5.94975 0
M  V30 7098 H 663.334 -1.03903 -5.90732 0
M  V30 7099 H 665.013 -1.48829 -6.2965 0
M  V30 7100 N 665.145 1.52092 -0.413018 0
M  V30 7101 C 666.394 2.01041 0.16287 0
M  V30 7102 C 666.707 1.30288 1.45892 0
M  V30 7103 O 667.913 1.70075 2.11629 0
M  V30 7104 C 666.369 3.58283 0.340806 0
M  V30 7105 C 665.977 4.37955 -0.943377 0
M  V30 7106 C 667.721 4.15452 0.871774 0
M  V30 7107 C 665.628 5.86847 -0.732417 0
M  V30 7108 H 664.558 0.751224 0.0646414 0
M  V30 7109 H 667.209 1.75404 -0.539059 0
M  V30 7110 H 665.591 3.80266 1.10516 0
M  V30 7111 H 666.765 4.2773 -1.71418 0
M  V30 7112 H 665.08 3.92122 -1.40105 0
M  V30 7113 H 667.677 5.24375 1.0457 0
M  V30 7114 H 668.02 3.73057 1.84755 0
M  V30 7115 H 668.553 3.97452 0.166377 0
M  V30 7116 H 665.292 6.33609 -1.67986 0
M  V30 7117 H 664.812 5.998 -0.000980058 0
M  V30 7118 H 666.491 6.45906 -0.376105 0
M  V30 7119 N 666.623 0.143563 1.56945 0
M  V30 7120 C 667.848 -0.518701 2.00809 0
M  V30 7121 C 668.273 -1.5785 1.02298 0
M  V30 7122 O 667.631 -1.813 -0.0017839 0
M  V30 7123 C 667.679 -1.09929 3.43436 0
M  V30 7124 O 666.783 -2.21425 3.47915 0
M  V30 7125 H 666.124 -0.127215 0.6517 0
M  V30 7126 H 668.654 0.239283 2.03196 0
M  V30 7127 H 668.664 -1.4288 3.82164 0
M  V30 7128 H 667.339 -0.323162 4.14643 0
M  V30 7129 H 665.916 -1.89728 3.21026 0
M  V30 7130 N 668.101 -1.57061 -0.130224 0
M  V30 7131 C 669.349 -1.83893 -0.838313 0
M  V30 7132 C 669.67 -0.727046 -1.80939 0
M  V30 7133 O 668.94 0.249927 -1.94299 0
M  V30 7134 H 667.52 -0.67846 -0.312573 0
M  V30 7135 H 670.182 -1.94529 -0.120224 0
M  V30 7136 H 669.278 -2.79419 -1.39038 0
M  V30 7137 N 669.579 0.400081 -1.52437 0
M  V30 7138 C 670.512 1.50929 -1.7116 0
M  V30 7139 C 671.49 1.52679 -0.559275 0
M  V30 7140 O 672.674 1.71251 -0.787735 0
M  V30 7141 C 669.801 2.89433 -1.75915 0
M  V30 7142 C 668.847 3.05556 -2.97553 0
M  V30 7143 S 669.68 2.77919 -4.57735 0
M  V30 7144 C 670.836 4.18636 -4.6529 0
M  V30 7145 H 671.069 1.3482 -2.64973 0
M  V30 7146 H 668.602 0.592245 -1.4259 0
M  V30 7147 H 670.56 3.69253 -1.7934 0
M  V30 7148 H 669.221 3.02877 -0.832137 0
M  V30 7149 H 668.414 4.0691 -2.97388 0
M  V30 7150 H 668.016 2.33615 -2.92062 0
M  V30 7151 H 670.308 5.12406 -4.43223 0
M  V30 7152 H 671.251 4.23821 -5.67258 0
M  V30 7153 H 671.659 4.04029 -3.94234 0
M  V30 7154 N 671.057 1.43213 0.657864 0
M  V30 7155 C 672.305 1.44298 1.41501 0
M  V30 7156 C 672.626 0.0666478 1.94886 0
M  V30 7157 O 671.896 -0.897345 1.74139 0
M  V30 7158 H 670.476 0.531257 0.525143 0
M  V30 7159 H 673.138 1.78777 0.776195 0
M  V30 7160 H 672.234 2.1528 2.25966 0
M  V30 7161 N 672.536 -0.895792 1.29666 0
M  V30 7162 C 673.446 -2.03329 1.17024 0
M  V30 7163 C 674.462 -1.73753 0.0925962 0
M  V30 7164 O 675.638 -1.99071 0.305431 0
M  V30 7165 C 672.703 -3.36072 0.851841 0
M  V30 7166 C 671.764 -3.7914 2.01373 0
M  V30 7167 C 670.997 -5.05549 1.71043 0
M  V30 7168 O 671.22 -5.66874 0.633213 0
M  V30 7169 O 670.154 -5.44764 2.5596 0
M  V30 7170 H 673.98 -2.16918 2.12556 0
M  V30 7171 H 671.565 -1.02007 1.09156 0
M  V30 7172 H 673.447 -4.15729 0.689006 0
M  V30 7173 H 672.122 -3.23616 -0.0736634 0
M  V30 7174 H 671.029 -3.00233 2.23183 0
M  V30 7175 H 672.362 -3.96186 2.92058 0
M  V30 7176 N 674.014 -1.12206 -1.10668 0
M  V30 7177 C 674.944 -0.810086 -2.18997 0
M  V30 7178 C 675.925 0.225065 -1.68604 0
M  V30 7179 O 677.11 0.086783 -1.94006 0
M  V30 7180 C 674.24 -0.261262 -3.46316 0
M  V30 7181 C 673.194 -1.2292 -4.09969 0
M  V30 7182 C 672.52 -0.540713 -5.31959 0
M  V30 7183 C 673.82 -2.58295 -4.53962 0
M  V30 7184 H 675.514 -1.7159 -2.45352 0
M  V30 7185 H 673.06 -0.82646 -1.17922 0
M  V30 7186 H 675.013 -0.0307522 -4.21389 0
M  V30 7187 H 673.737 0.679879 -3.19445 0
M  V30 7188 H 672.396 -1.44548 -3.369 0
M  V30 7189 H 672.044 0.405492 -5.01363 0
M  V30 7190 H 671.744 -1.18637 -5.75499 0
M  V30 7191 H 673.268 -0.319184 -6.09765 0
M  V30 7192 H 674.682 -2.40709 -5.20319 0
M  V30 7193 H 673.079 -3.18916 -5.08343 0
M  V30 7194 H 674.149 -3.16918 -3.67002 0
M  V30 7195 N 675.492 1.28418 -0.913599 0
M  V30 7196 C 676.442 2.24928 -0.373042 0
M  V30 7197 C 677.426 1.52444 0.514753 0
M  V30 7198 O 678.618 1.73414 0.3545 0
M  V30 7199 C 675.747 3.41124 0.385896 0
M  V30 7200 C 674.833 4.20929 -0.51761 0
M  V30 7201 N 675.224 4.78777 -1.63113 0
M  V30 7202 C 673.522 4.44865 -0.317969 0
M  V30 7203 C 674.223 5.38822 -2.19193 0
M  V30 7204 N 673.199 5.22974 -1.48321 0
M  V30 7205 H 677.001 2.67224 -1.22346 0
M  V30 7206 H 674.515 1.43187 -0.766236 0
M  V30 7207 H 676.512 4.09347 0.789997 0
M  V30 7208 H 675.172 3.00362 1.23341 0
M  V30 7209 H 676.183 4.77148 -2.01372 0
M  V30 7210 H 672.86 4.14614 0.49004 0
M  V30 7211 H 674.25 5.94615 -3.12861 0
M  V30 7212 N 676.97 0.677563 1.42291 0
M  V30 7213 C 677.9 0.014968 2.33495 0
M  V30 7214 C 678.881 -0.786376 1.50831 0
M  V30 7215 O 680.066 -0.742975 1.79426 0
M  V30 7216 C 677.196 -0.935023 3.34477 0
M  V30 7217 C 676.15 -0.242074 4.27315 0
M  V30 7218 C 675.476 -1.30519 5.18526 0
M  V30 7219 C 676.776 0.880604 5.14823 0
M  V30 7220 H 678.47 0.776671 2.89151 0
M  V30 7221 H 676.016 0.37494 1.39033 0
M  V30 7222 H 677.969 -1.40766 3.97194 0
M  V30 7223 H 676.693 -1.72818 2.77131 0
M  V30 7224 H 675.352 0.210351 3.65996 0
M  V30 7225 H 675 -2.09041 4.57505 0
M  V30 7226 H 674.7 -0.846652 5.81468 0
M  V30 7227 H 676.224 -1.7787 5.84119 0
M  V30 7228 H 677.638 0.489062 5.7121 0
M  V30 7229 H 676.035 1.26511 5.86613 0
M  V30 7230 H 677.105 1.72818 4.53059 0
M  V30 7231 N 678.448 -1.51871 0.421078 0
M  V30 7232 C 679.358 -2.31077 -0.405069 0
M  V30 7233 C 680.374 -1.39301 -1.04265 0
M  V30 7234 O 681.55 -1.72376 -1.04157 0
M  V30 7235 C 678.615 -3.12556 -1.50032 0
M  V30 7236 C 677.676 -4.20088 -0.884559 0
M  V30 7237 C 676.909 -4.97673 -1.92762 0
M  V30 7238 O 677.132 -4.75696 -3.14753 0
M  V30 7239 O 676.066 -5.82203 -1.52719 0
M  V30 7240 H 679.892 -3.02742 0.241086 0
M  V30 7241 H 677.477 -1.48263 0.183991 0
M  V30 7242 H 679.359 -3.6326 -2.13589 0
M  V30 7243 H 678.034 -2.43672 -2.13086 0
M  V30 7244 H 676.941 -3.73502 -0.211379 0
M  V30 7245 H 678.274 -4.91298 -0.297763 0
M  V30 7246 N 679.926 -0.151884 -1.56866 0
M  V30 7247 C 681.175 0.497992 -1.95456 0
M  V30 7248 C 681.488 1.6569 -1.03953 0
M  V30 7249 O 682.694 2.37173 -1.32142 0
M  V30 7250 C 681.15 0.93732 -3.4748 0
M  V30 7251 C 680.758 -0.194921 -4.47576 0
M  V30 7252 C 682.502 1.55671 -3.94926 0
M  V30 7253 C 680.409 0.26295 -5.90815 0
M  V30 7254 H 679.339 0.189811 -0.729717 0
M  V30 7255 H 681.99 -0.237011 -1.81963 0
M  V30 7256 H 680.372 1.72773 -3.56322 0
M  V30 7257 H 681.546 -0.971951 -4.50433 0
M  V30 7258 H 679.861 -0.72303 -4.10075 0
M  V30 7259 H 682.458 1.91099 -4.99385 0
M  V30 7260 H 682.801 2.44748 -3.36755 0
M  V30 7261 H 683.334 0.831109 -3.89021 0
M  V30 7262 H 680.073 -0.592568 -6.52816 0
M  V30 7263 H 679.593 1.00575 -5.91308 0
M  V30 7264 H 681.272 0.713333 -6.43056 0
M  V30 7265 N 681.404 1.57128 0.121893 0
M  V30 7266 C 682.653 1.83888 0.828748 0
M  V30 7267 C 682.966 0.737087 1.81181 0
M  V30 7268 O 684.172 0.891007 2.56463 0
M  V30 7269 C 682.628 3.26014 1.52455 0
M  V30 7270 C 682.236 4.44195 0.58263 0
M  V30 7271 C 683.98 3.62025 2.21671 0
M  V30 7272 C 681.887 5.77349 1.28149 0
M  V30 7273 H 680.817 0.685856 0.313238 0
M  V30 7274 H 683.468 1.83319 0.0814851 0
M  V30 7275 H 681.85 3.21044 2.31834 0
M  V30 7276 H 683.024 4.60457 -0.177729 0
M  V30 7277 H 681.339 4.164 -0.00241228 0
M  V30 7278 H 683.936 4.58776 2.74643 0
M  V30 7279 H 684.279 2.89315 2.99337 0
M  V30 7280 H 684.812 3.68767 1.49184 0
M  V30 7281 H 681.551 6.53221 0.546189 0
M  V30 7282 H 681.071 5.64978 2.01394 0
M  V30 7283 H 682.75 6.21006 1.81549 0
M  V30 7284 N 682.882 -0.391992 1.52647 0
M  V30 7285 C 684.128 -1.139 1.67793 0
M  V30 7286 C 684.461 -1.89711 0.41514 0
M  V30 7287 O 683.736 -1.85431 -0.586979 0
M  V30 7288 C 684.019 -2.11966 2.91105 0
M  V30 7289 C 683.872 -1.39939 4.27478 0
M  V30 7290 C 685.191 -3.1243 3.09961 0
M  V30 7291 H 682.31 -0.412707 0.610608 0
M  V30 7292 H 684.952 -0.422725 1.85238 0
M  V30 7293 H 683.102 -2.73048 2.76364 0
M  V30 7294 H 684.774 -0.818439 4.53982 0
M  V30 7295 H 683.017 -0.701246 4.28095 0
M  V30 7296 H 683.688 -2.1158 5.09841 0
M  V30 7297 H 686.164 -2.61435 3.23714 0
M  V30 7298 H 685.04 -3.78294 3.97725 0
M  V30 7299 H 685.301 -3.81127 2.24042 0
M  V30 7300 N 684.36 -1.4356 -0.65026 0
M  V30 7301 C 685.637 -1.35811 -1.40765 0
M  V30 7302 C 686.017 -0.00736379 -2.11099 0
M  V30 7303 O 685.365 1.00932 -2.05 0
M  V30 7304 C 685.575 -2.54332 -2.3899 0
M  V30 7305 C 686.923 -2.97551 -3.02901 0
M  V30 7306 O 687.947 -2.544 -2.49317 0
M  V30 7307 O 686.806 -3.72311 -4.00059 0
M  V30 7308 H 683.9 -0.536861 -0.629054 0
M  V30 7309 H 686.446 -1.55615 -0.676919 0
M  V30 7310 H 685.218 -3.44274 -1.85986 0
M  V30 7311 H 684.841 -2.36643 -3.19509 0
M  V30 7312 N 685.838 0.888903 -1.30139 0
M  V30 7313 C 687.254 1.17153 -1.08385 0
M  V30 7314 C 687.454 2.0088 0.157925 0
M  V30 7315 O 686.51 2.37668 0.852652 0
M  V30 7316 C 687.823 1.882 -2.34523 0
M  V30 7317 C 689.371 2.00981 -2.39949 0
M  V30 7318 C 689.846 2.75441 -3.65918 0
M  V30 7319 N 691.337 2.82989 -3.66704 0
M  V30 7320 C 692.072 3.41167 -4.60861 0
M  V30 7321 N 691.568 4.00425 -5.6536 0
M  V30 7322 N 693.361 3.38944 -4.48412 0
M  V30 7323 H 685.512 0.33053 -2.09812 0
M  V30 7324 H 687.775 0.208964 -0.924683 0
M  V30 7325 H 687.481 1.34119 -3.25123 0
M  V30 7326 H 687.355 2.88609 -2.42868 0
M  V30 7327 H 689.742 2.54234 -1.4983 0
M  V30 7328 H 689.823 0.996725 -2.35582 0
M  V30 7329 H 689.467 2.22861 -4.56394 0
M  V30 7330 H 689.397 3.77118 -3.67546 0
M  V30 7331 H 691.888 2.40912 -2.91153 0
M  V30 7332 H 692.201 4.42871 -6.33313 0
M  V30 7333 H 690.546 3.98856 -5.69157 0
M  V30 7334 H 693.737 2.91875 -3.6596 0
M  V30 7335 H 693.91 3.83989 -5.21974 0
M  V30 7336 N 687.317 1.12792 1.10072 0
M  V30 7337 C 688.247 0.821688 2.18565 0
M  V30 7338 C 689.228 -0.21612 1.68721 0
M  V30 7339 O 690.413 -0.0764932 1.94049 0
M  V30 7340 C 687.543 0.279624 3.46172 0
M  V30 7341 C 686.497 1.25092 4.09312 0
M  V30 7342 C 685.823 0.568916 5.31665 0
M  V30 7343 C 687.123 2.60699 4.52585 0
M  V30 7344 H 688.817 1.72888 2.44438 0
M  V30 7345 H 686.363 0.832702 1.17482 0
M  V30 7346 H 688.316 0.053099 4.21367 0
M  V30 7347 H 687.04 -0.662929 3.19801 0
M  V30 7348 H 685.699 1.46332 3.36129 0
M  V30 7349 H 685.347 -0.378898 5.01571 0
M  V30 7350 H 685.047 1.21687 5.74862 0
M  V30 7351 H 686.571 0.351517 6.09587 0
M  V30 7352 H 687.985 2.43465 5.19035 0
M  V30 7353 H 686.382 3.21608 5.06644 0
M  V30 7354 H 687.452 3.1886 3.65317 0
M  V30 7355 N 688.795 -1.27931 0.920396 0
M  V30 7356 C 689.742 -2.27085 0.412422 0
M  V30 7357 C 690.712 -1.57858 -0.516725 0
M  V30 7358 O 691.897 -1.85717 -0.437475 0
M  V30 7359 C 689.037 -3.43466 -0.335399 0
M  V30 7360 C 688.15 -4.27425 0.627017 0
M  V30 7361 C 687.285 -5.31016 -0.139916 0
M  V30 7362 C 686.324 -6.06641 0.815683 0
M  V30 7363 N 685.461 -7.02052 0.0818439 0
M  V30 7364 H 690.301 -2.69913 1.26298 0
M  V30 7365 H 687.838 -1.32732 0.634076 0
M  V30 7366 H 689.796 -4.09744 -0.785226 0
M  V30 7367 H 688.426 -3.01611 -1.15025 0
M  V30 7368 H 687.478 -3.6113 1.19537 0
M  V30 7369 H 688.79 -4.79969 1.35763 0
M  V30 7370 H 687.944 -6.03208 -0.649998 0
M  V30 7371 H 686.683 -4.79257 -0.903543 0
M  V30 7372 H 685.688 -5.33294 1.33708 0
M  V30 7373 H 686.913 -6.60489 1.57897 0
M  V30 7374 H 684.859 -6.52634 -0.663671 0
M  V30 7375 H 684.776 -7.52249 0.752163 0
M  V30 7376 H 686.044 -7.78432 -0.407825 0
M  V30 7377 N 690.273 -0.685099 -1.4193 0
M  V30 7378 C 691.689 -0.355632 -1.55587 0
M  V30 7379 C 691.889 1.13823 -1.66273 0
M  V30 7380 O 690.945 1.92387 -1.63534 0
M  V30 7381 C 692.258 -1.09498 -2.80055 0
M  V30 7382 C 693.806 -1.07831 -2.93839 0
M  V30 7383 C 694.281 -1.79919 -4.21181 0
M  V30 7384 N 695.772 -1.76837 -4.28115 0
M  V30 7385 C 696.507 -2.29463 -5.25485 0
M  V30 7386 N 696.003 -2.90516 -6.28945 0
M  V30 7387 N 697.796 -2.19779 -5.17353 0
M  V30 7388 H 689.947 -1.65412 -1.33239 0
M  V30 7389 H 692.21 -0.697453 -0.642078 0
M  V30 7390 H 691.916 -2.14997 -2.78333 0
M  V30 7391 H 691.79 -0.666813 -3.71259 0
M  V30 7392 H 694.177 -0.0316152 -2.95083 0
M  V30 7393 H 694.258 -1.54545 -2.03837 0
M  V30 7394 H 693.902 -2.84562 -4.20698 0
M  V30 7395 H 693.832 -1.30647 -5.10136 0
M  V30 7396 H 696.323 -1.32315 -3.53979 0
M  V30 7397 H 696.636 -3.28266 -6.99615 0
M  V30 7398 H 694.981 -2.94589 -6.29478 0
M  V30 7399 H 698.172 -1.71763 -4.35448 0
M  V30 7400 H 698.345 -2.61097 -5.9307 0
M  V30 7401 N 691.751 1.51645 -0.429126 0
M  V30 7402 C 692.661 2.31288 0.392809 0
M  V30 7403 C 693.677 1.39852 1.03525 0
M  V30 7404 O 694.853 1.72926 1.03241 0
M  V30 7405 C 691.918 3.13347 1.48372 0
M  V30 7406 C 690.979 4.20551 0.862268 0
M  V30 7407 C 690.212 4.98688 1.9012 0
M  V30 7408 O 690.435 4.77359 3.12225 0
M  V30 7409 O 689.369 5.83005 1.4963 0
M  V30 7410 H 693.195 3.02609 -0.257138 0
M  V30 7411 H 690.78 1.48163 -0.191851 0
M  V30 7412 H 692.662 3.64387 2.1166 0
M  V30 7413 H 691.337 2.44799 2.1179 0
M  V30 7414 H 690.244 3.73609 0.191568 0
M  V30 7415 H 691.577 4.91449 0.271704 0
M  V30 7416 N 693.229 0.160201 1.56784 0
M  V30 7417 C 694.476 -0.487588 1.96542 0
M  V30 7418 C 694.804 -1.63999 1.04569 0
M  V30 7419 O 694.059 -1.95546 0.0775211 0
M  V30 7420 C 694.358 -1.02259 3.42459 0
M  V30 7421 C 694.024 0.0127436 4.50898 0
M  V30 7422 C 692.686 0.297318 4.80281 0
M  V30 7423 C 695.038 0.716078 5.16257 0
M  V30 7424 C 692.366 1.29081 5.72324 0
M  V30 7425 C 694.718 1.69847 6.09372 0
M  V30 7426 C 693.382 1.99061 6.37127 0
M  V30 7427 H 692.652 -0.178421 0.719199 0
M  V30 7428 H 695.299 0.249818 1.89864 0
M  V30 7429 H 693.604 -1.8376 3.46034 0
M  V30 7430 H 695.301 -1.53261 3.70556 0
M  V30 7431 H 691.891 -0.219235 4.28039 0
M  V30 7432 H 696.075 0.509428 4.93679 0
M  V30 7433 H 691.331 1.52344 5.92116 0
M  V30 7434 H 695.505 2.2489 6.59088 0
M  V30 7435 H 693.132 2.76194 7.08252 0
M  V30 7436 N 694.707 -1.5719 -0.113559 0
M  V30 7437 C 695.654 -2.00736 -1.13901 0
M  V30 7438 C 696.624 -0.88044 -1.40846 0
M  V30 7439 O 697.809 -1.14507 -1.5262 0
M  V30 7440 C 694.949 -2.42132 -2.45899 0
M  V30 7441 C 694.062 -3.68264 -2.25844 0
M  V30 7442 C 693.197 -3.98617 -3.5111 0
M  V30 7443 C 692.236 -5.17915 -3.26236 0
M  V30 7444 N 691.373 -5.44111 -4.4372 0
M  V30 7445 H 696.213 -2.88128 -0.760677 0
M  V30 7446 H 693.75 -1.42523 -0.364099 0
M  V30 7447 H 695.708 -2.6417 -3.22908 0
M  V30 7448 H 694.338 -1.57775 -2.81615 0
M  V30 7449 H 693.39 -3.53809 -1.39726 0
M  V30 7450 H 694.702 -4.55425 -2.03444 0
M  V30 7451 H 693.856 -4.21333 -4.36536 0
M  V30 7452 H 692.595 -3.09942 -3.76546 0
M  V30 7453 H 691.6 -4.95038 -2.39202 0
M  V30 7454 H 692.825 -6.08172 -3.02165 0
M  V30 7455 H 690.771 -4.58394 -4.69266 0
M  V30 7456 H 690.688 -6.25606 -4.24444 0
M  V30 7457 H 691.956 -5.71351 -5.30263 0
M  V30 7458 N 696.185 0.383891 -1.52853 0
M  V30 7459 C 697.431 1.13009 -1.68395 0
M  V30 7460 C 697.764 1.89488 -0.425195 0
M  V30 7461 O 697.039 1.8574 0.577136 0
M  V30 7462 C 697.322 2.10419 -2.92226 0
M  V30 7463 C 697.175 1.3767 -4.28214 0
M  V30 7464 C 698.494 3.10781 -3.11614 0
M  V30 7465 H 695.613 0.409463 -0.612788 0
M  V30 7466 H 698.255 0.412895 -1.85459 0
M  V30 7467 H 696.405 2.71579 -2.77808 0
M  V30 7468 H 698.077 0.794352 -4.54409 0
M  V30 7469 H 696.32 0.678533 -4.2846 0
M  V30 7470 H 696.991 2.08874 -5.10956 0
M  V30 7471 H 699.467 2.59715 -3.25096 0
M  V30 7472 H 698.343 3.76179 -3.99725 0
M  V30 7473 H 698.604 3.79933 -2.2606 0
M  V30 7474 N 697.663 1.43903 0.642637 0
M  V30 7475 C 698.94 1.36556 1.40043 0
M  V30 7476 C 699.32 0.0185588 2.11092 0
M  V30 7477 O 698.668 -0.998438 2.05532 0
M  V30 7478 C 698.878 2.55596 2.37638 0
M  V30 7479 C 700.226 2.99153 3.01318 0
M  V30 7480 O 701.25 2.55719 2.47965 0
M  V30 7481 O 700.109 3.74427 3.98078 0
M  V30 7482 H 697.203 0.540189 0.626198 0
M  V30 7483 H 699.749 1.55971 0.668657 0
M  V30 7484 H 698.521 3.45256 1.84158 0
M  V30 7485 H 698.144 2.38334 3.18249 0
M  V30 7486 N 699.141 -0.881989 1.30609 0
M  V30 7487 C 700.104 -1.96957 1.1722 0
M  V30 7488 C 701.104 -1.60472 0.102598 0
M  V30 7489 O 702.294 -1.70628 0.350943 0
M  V30 7490 C 699.426 -3.31463 0.796572 0
M  V30 7491 H 700.619 -2.10262 2.13846 0
M  V30 7492 H 698.172 -1.06877 1.14048 0
M  V30 7493 H 698.907 -3.23859 -0.169053 0
M  V30 7494 H 698.692 -3.59314 1.56959 0
M  V30 7495 H 700.182 -4.11233 0.72645 0
M  V30 7496 N 700.619 -1.13374 -1.09472 0
M  V30 7497 C 701.567 -0.806105 -2.18185 0
M  V30 7498 C 702.561 0.21136 -1.68076 0
M  V30 7499 O 703.767 0.0685558 -1.79869 0
M  V30 7500 H 700.142 -0.242901 -0.71169 0
M  V30 7501 H 702.113 -1.73115 -2.43051 0
M  V30 7502 C 700.862 -0.287928 -3.46506 0
M  V30 7503 H 700.185 -1.06217 -3.85432 0
M  V30 7504 H 701.625 -0.0971054 -4.23889 0
M  V30 7505 C 700.084 0.986256 -3.22141 0
M  V30 7506 O 700.614 2.06217 -3.44728 0
M  V30 7507 N 698.82 0.917153 -2.75747 0
M  V30 7508 H 698.367 0.0414609 -2.57567 0
M  V30 7509 H 698.325 1.77029 -2.59823 0
M  V30 7510 N 702.098 1.27442 -0.927168 0
M  V30 7511 C 703.344 1.94679 -0.568164 0
M  V30 7512 C 703.677 1.72697 0.888219 0
M  V30 7513 O 702.952 1.05573 1.63354 0
M  V30 7514 C 703.235 3.4882 -0.894253 0
M  V30 7515 C 703.088 3.80146 -2.40435 0
M  V30 7516 C 704.407 4.38281 -0.399766 0
M  V30 7517 H 701.526 0.707071 -0.207892 0
M  V30 7518 H 704.168 1.50568 -1.15885 0
M  V30 7519 H 702.318 3.86522 -0.391566 0
M  V30 7520 H 703.99 3.52238 -2.97869 0
M  V30 7521 H 702.233 3.26716 -2.85375 0
M  V30 7522 H 702.904 4.87835 -2.58304 0
M  V30 7523 H 705.38 4.07726 -0.83058 0
M  V30 7524 H 704.256 5.44955 -0.656885 0
M  V30 7525 H 704.517 4.36521 0.700153 0
M  V30 7526 N 703.576 0.692616 1.41565 0
M  V30 7527 C 704.824 0.221896 2.00878 0
M  V30 7528 C 705.145 -1.18164 1.5512 0
M  V30 7529 O 704.415 -1.79679 0.78054 0
M  V30 7530 H 702.995 0.0790463 0.742806 0
M  V30 7531 H 705.657 0.893115 1.73232 0
M  V30 7532 H 704.753 0.23702 3.11199 0
M  V30 7533 N 705.054 -1.51416 0.437162 0
M  V30 7534 C 706.001 -2.27743 -0.374374 0
M  V30 7535 C 706.971 -1.31327 -1.01698 0
M  V30 7536 O 708.156 -1.60229 -1.03592 0
M  V30 7537 C 705.296 -3.12241 -1.46969 0
M  V30 7538 C 704.409 -4.23651 -0.845236 0
M  V30 7539 C 703.544 -4.95458 -1.91559 0
M  V30 7540 C 702.583 -5.98789 -1.26956 0
M  V30 7541 N 701.72 -6.64005 -2.28126 0
M  V30 7542 H 706.56 -2.96654 0.282892 0
M  V30 7543 H 704.097 -1.46319 0.151352 0
M  V30 7544 H 706.055 -3.59556 -2.11602 0
M  V30 7545 H 704.685 -2.45445 -2.09659 0
M  V30 7546 H 703.737 -3.803 -0.0872059 0
M  V30 7547 H 705.049 -4.97683 -0.333582 0
M  V30 7548 H 704.203 -5.46321 -2.63854 0
M  V30 7549 H 702.942 -4.21055 -2.46097 0
M  V30 7550 H 701.947 -5.47219 -0.53207 0
M  V30 7551 H 703.172 -6.75149 -0.731509 0
M  V30 7552 H 701.118 -5.92415 -2.81745 0
M  V30 7553 H 701.035 -7.33802 -1.81852 0
M  V30 7554 H 702.303 -7.19498 -2.99905 0
M  V30 7555 N 706.532 -0.168513 -1.56696 0
M  V30 7556 C 707.943 0.348694 -1.83415 0
M  V30 7557 C 708.294 1.63257 -1.0882 0
M  V30 7558 O 707.419 2.13707 -0.340333 0
M  V30 7559 C 708.014 0.639423 -3.32711 0
M  V30 7560 C 706.573 1.10108 -3.59935 0
M  V30 7561 C 705.72 0.135464 -2.76969 0
M  V30 7562 H 708.671 -0.392829 -1.53761 0
M  V30 7563 H 708.692 1.49179 -3.50037 0
M  V30 7564 H 708.204 -0.295173 -3.86976 0
M  V30 7565 H 706.305 2.05088 -3.11079 0
M  V30 7566 H 706.418 1.01218 -4.68286 0
M  V30 7567 H 704.782 0.632286 -2.46727 0
M  V30 7568 H 705.565 -0.793104 -3.34013 0
M  V30 7569 N 708.01 1.57248 0.105221 0
M  V30 7570 C 708.942 1.98008 1.15436 0
M  V30 7571 C 709.955 0.881236 1.36887 0
M  V30 7572 O 711.144 1.15943 1.35718 0
M  V30 7573 C 708.244 2.27509 2.51183 0
M  V30 7574 C 707.417 3.58811 2.50147 0
M  V30 7575 C 706.476 3.76365 3.67745 0
M  V30 7576 O 705.502 4.48329 3.50699 0
M  V30 7577 N 706.704 3.16174 4.86841 0
M  V30 7578 H 709.469 2.88616 0.807519 0
M  V30 7579 H 707.03 1.59202 0.29433 0
M  V30 7580 H 709.022 2.36455 3.28438 0
M  V30 7581 H 707.592 1.42959 2.77995 0
M  V30 7582 H 706.812 3.60927 1.5851 0
M  V30 7583 H 708.1 4.45088 2.46524 0
M  V30 7584 H 707.498 2.57701 5.03594 0
M  V30 7585 H 706.055 3.30621 5.61723 0
M  V30 7586 N 709.488 -0.375779 1.53054 0
M  V30 7587 C 710.734 -1.12114 1.68992 0
M  V30 7588 C 711.067 -1.8926 0.435238 0
M  V30 7589 O 710.342 -1.86044 -0.567278 0
M  V30 7590 C 710.625 -2.08867 2.93337 0
M  V30 7591 C 710.478 -1.35397 4.28938 0
M  V30 7592 C 711.797 -3.09124 3.13257 0
M  V30 7593 H 708.916 -0.406207 0.614951 0
M  V30 7594 H 711.558 -0.403054 1.85676 0
M  V30 7595 H 709.708 -2.70102 2.79244 0
M  V30 7596 H 711.38 -0.770242 4.54824 0
M  V30 7597 H 709.623 -0.655801 4.28814 0
M  V30 7598 H 710.294 -2.06161 5.12056 0
M  V30 7599 H 712.77 -2.57987 3.26469 0
M  V30 7600 H 711.646 -3.74054 4.01715 0
M  V30 7601 H 711.907 -3.78729 2.28072 0
M  V30 7602 N 710.966 -1.44241 -0.634997 0
M  V30 7603 C 711.929 -1.50457 -1.72903 0
M  V30 7604 C 712.929 -0.387058 -1.56072 0
M  V30 7605 O 714.119 -0.649531 -1.61638 0
M  V30 7606 C 711.251 -1.37477 -3.1195 0
M  V30 7607 H 712.444 -2.47907 -1.68767 0
M  V30 7608 H 709.997 -1.31276 -0.84831 0
M  V30 7609 H 710.732 -0.41106 -3.21684 0
M  V30 7610 H 710.517 -2.18506 -3.25573 0
M  V30 7611 H 712.007 -1.44799 -3.91692 0
M  V30 7612 N 712.444 0.87505 -1.31075 0
M  V30 7613 C 713.674 1.65818 -1.2324 0
M  V30 7614 C 714.082 1.8808 0.205536 0
M  V30 7615 O 713.425 1.43548 1.14628 0
M  V30 7616 C 713.487 3.05131 -1.90093 0
M  V30 7617 C 713.151 3.05999 -3.39432 0
M  V30 7618 C 714.148 2.84328 -4.35263 0
M  V30 7619 C 711.833 3.27281 -3.81041 0
M  V30 7620 C 713.827 2.83912 -5.70678 0
M  V30 7621 C 711.514 3.26493 -5.16571 0
M  V30 7622 C 712.512 3.04834 -6.112 0
M  V30 7623 O 712.2 3.03882 -7.44252 0
M  V30 7624 H 711.932 0.52387 -0.427242 0
M  V30 7625 H 714.486 1.10086 -1.73408 0
M  V30 7626 H 712.716 3.62568 -1.34468 0
M  V30 7627 H 714.405 3.65641 -1.76242 0
M  V30 7628 H 715.171 2.67673 -4.04445 0
M  V30 7629 H 711.05 3.43171 -3.07822 0
M  V30 7630 H 714.594 2.66925 -6.44513 0
M  V30 7631 H 710.491 3.42687 -5.47025 0
M  V30 7632 H 711.259 3.19979 -7.53363 0
M  V30 7633 N 713.922 1.13953 1.08869 0
M  V30 7634 C 715.338 0.878924 1.33218 0
M  V30 7635 C 715.538 -0.482478 1.95638 0
M  V30 7636 O 714.594 -1.22778 2.2064 0
M  V30 7637 C 715.907 2.00798 2.23832 0
M  V30 7638 C 717.455 2.04073 2.37325 0
M  V30 7639 C 717.93 3.16258 3.31278 0
M  V30 7640 N 719.421 3.15805 3.38853 0
M  V30 7641 C 720.156 3.99249 4.11567 0
M  V30 7642 N 719.652 4.92721 4.87029 0
M  V30 7643 N 721.445 3.87327 4.0735 0
M  V30 7644 H 713.596 2.01645 0.66731 0
M  V30 7645 H 715.859 0.878395 0.356547 0
M  V30 7646 H 715.565 2.98986 1.85203 0
M  V30 7647 H 715.439 1.92704 3.24261 0
M  V30 7648 H 717.826 1.06495 2.75214 0
M  V30 7649 H 717.907 2.16239 1.36654 0
M  V30 7650 H 717.551 4.14079 2.9411 0
M  V30 7651 H 717.481 3.0133 4.31866 0
M  V30 7652 H 719.972 2.48102 2.8505 0
M  V30 7653 H 720.285 5.52867 5.39961 0
M  V30 7654 H 718.63 4.96723 4.86098 0
M  V30 7655 H 721.821 3.13627 3.475 0
M  V30 7656 H 721.994 4.52585 4.63757 0
M  V30 7657 N 715.4 -1.26948 0.933913 0
M  V30 7658 C 716.31 -2.30366 0.443671 0
M  V30 7659 C 717.326 -1.67284 -0.478745 0
M  V30 7660 O 718.502 -1.98156 -0.360043 0
M  V30 7661 C 715.567 -3.45485 -0.289974 0
M  V30 7662 C 714.628 -4.24069 0.668114 0
M  V30 7663 C 713.861 -5.33691 -0.0306138 0
M  V30 7664 O 714.084 -5.5656 -1.24888 0
M  V30 7665 O 713.018 -5.98441 0.644384 0
M  V30 7666 H 716.844 -2.74349 1.30254 0
M  V30 7667 H 714.429 -1.32012 0.699506 0
M  V30 7668 H 716.311 -4.15486 -0.70353 0
M  V30 7669 H 714.986 -3.03546 -1.12435 0
M  V30 7670 H 713.893 -3.56579 1.13147 0
M  V30 7671 H 715.226 -4.69739 1.46989 0
M  V30 7672 N 716.879 -0.700114 -1.41195 0
M  V30 7673 C 718.107 -0.242179 -2.05478 0
M  V30 7674 C 718.522 1.11029 -1.52702 0
M  V30 7675 O 717.879 1.69473 -0.677127 0
M  V30 7676 C 717.93 -0.196271 -3.60967 0
M  V30 7677 O 717.651 -1.49532 -4.11791 0
M  V30 7678 C 719.152 0.282102 -4.42401 0
M  V30 7679 H 716.372 -0.111749 -0.661629 0
M  V30 7680 H 718.916 -0.953975 -1.80885 0
M  V30 7681 H 717.071 0.46638 -3.84582 0
M  V30 7682 H 717.485 -1.38545 -5.05871 0
M  V30 7683 H 718.959 0.263093 -5.51373 0
M  V30 7684 H 719.436 1.32174 -4.1884 0
M  V30 7685 H 720.042 -0.349712 -4.2386 0
M  V30 7686 N 718.357 1.51182 -0.445186 0
M  V30 7687 C 719.606 2.01342 0.120189 0
M  V30 7688 C 719.919 1.33353 1.43095 0
M  V30 7689 O 721.125 1.74525 2.07974 0
M  V30 7690 C 719.581 3.58925 0.264732 0
M  V30 7691 C 719.189 4.35855 -1.03606 0
M  V30 7692 C 720.933 4.17208 0.783455 0
M  V30 7693 C 718.84 5.85162 -0.856731 0
M  V30 7694 H 717.77 0.752426 0.0486922 0
M  V30 7695 H 720.421 1.74221 -0.576143 0
M  V30 7696 H 718.803 3.82525 1.02425 0
M  V30 7697 H 719.977 4.23997 -1.80452 0
M  V30 7698 H 718.292 3.89062 -1.48391 0
M  V30 7699 H 720.889 5.26475 0.934239 0
M  V30 7700 H 721.232 3.76892 1.768 0
M  V30 7701 H 721.765 3.97715 0.0820346 0
M  V30 7702 H 718.504 6.29904 -1.81388 0
M  V30 7703 H 718.024 5.99663 -0.128206 0
M  V30 7704 H 719.703 6.44963 -0.513027 0
M  V30 7705 N 719.835 0.176821 1.56605 0
M  V30 7706 C 721.063 -0.472828 2.01425 0
M  V30 7707 C 721.478 -1.56436 1.05703 0
M  V30 7708 O 720.835 -1.82405 0.058808 0
M  V30 7709 C 720.886 -1.04607 3.46034 0
M  V30 7710 O 720.607 0.00189608 4.381 0
M  V30 7711 C 722.108 -1.7734 4.06282 0
M  V30 7712 H 719.328 -0.120503 0.660091 0
M  V30 7713 H 721.872 0.280166 2.02572 0
M  V30 7714 H 720.027 -1.74953 3.45645 0
M  V30 7715 H 720.441 -0.422118 5.22799 0
M  V30 7716 H 721.915 -2.12703 5.09374 0
M  V30 7717 H 722.392 -2.67043 3.4869 0
M  V30 7718 H 722.998 -1.11623 4.10391 0
M  V30 7719 N 721.313 -1.57302 -0.09688 0
M  V30 7720 C 722.26 -2.01933 -1.11766 0
M  V30 7721 C 723.23 -0.895329 -1.39904 0
M  V30 7722 O 724.415 -1.16119 -1.51397 0
M  V30 7723 C 721.555 -2.44726 -2.43317 0
M  V30 7724 C 720.668 -3.70639 -2.21925 0
M  V30 7725 C 719.803 -4.02318 -3.46862 0
M  V30 7726 C 718.842 -5.21346 -3.20725 0
M  V30 7727 N 717.979 -5.48787 -4.37924 0
M  V30 7728 H 722.819 -2.88919 -0.730075 0
M  V30 7729 H 720.356 -1.42901 -0.348962 0
M  V30 7730 H 722.314 -2.6758 -3.20088 0
M  V30 7731 H 720.944 -1.60753 -2.79926 0
M  V30 7732 H 719.996 -3.55271 -1.35965 0
M  V30 7733 H 721.308 -4.57557 -1.98603 0
M  V30 7734 H 720.462 -4.25939 -4.32042 0
M  V30 7735 H 719.201 -3.13918 -3.73238 0
M  V30 7736 H 718.206 -4.97547 -2.33938 0
M  V30 7737 H 719.431 -6.11343 -2.95697 0
M  V30 7738 H 717.377 -4.63346 -4.64378 0
M  V30 7739 H 717.294 -6.30073 -4.17785 0
M  V30 7740 H 718.562 -5.76943 -5.24173 0
M  V30 7741 N 722.791 0.367657 -1.53252 0
M  V30 7742 C 724.202 0.944563 -1.61043 0
M  V30 7743 C 724.553 1.90325 -0.476546 0
M  V30 7744 O 723.678 2.12721 0.397333 0
M  V30 7745 C 724.273 1.71992 -2.91898 0
M  V30 7746 C 722.832 2.2462 -3.02031 0
M  V30 7747 C 721.979 1.05799 -2.56324 0
M  V30 7748 H 724.93 0.146516 -1.58022 0
M  V30 7749 H 724.951 2.58095 -2.79584 0
M  V30 7750 H 724.463 1.02192 -3.74404 0
M  V30 7751 H 722.564 2.97668 -2.24108 0
M  V30 7752 H 722.677 2.52644 -4.07073 0
M  V30 7753 H 721.041 1.42435 -2.1115 0
M  V30 7754 H 721.824 0.375008 -3.41246 0
M  V30 7755 N 724.269 1.44576 0.627338 0
M  V30 7756 C 725.515 1.47777 1.38888 0
M  V30 7757 C 725.848 0.111406 1.9388 0
M  V30 7758 O 725.123 -0.87149 1.73883 0
M  V30 7759 C 725.406 2.54119 2.55138 0
M  V30 7760 C 725.259 4.00128 2.0547 0
M  V30 7761 C 726.578 2.56929 3.57317 0
M  V30 7762 H 723.697 0.538048 0.50366 0
M  V30 7763 H 726.339 1.76277 0.708978 0
M  V30 7764 H 724.489 2.29948 3.13139 0
M  V30 7765 H 726.161 4.35444 1.5227 0
M  V30 7766 H 724.404 4.11724 1.36623 0
M  V30 7767 H 725.075 4.7019 2.89181 0
M  V30 7768 H 727.551 2.78536 3.09122 0
M  V30 7769 H 726.427 3.33234 4.36173 0
M  V30 7770 H 726.688 1.6127 4.11636 0
M  V30 7771 N 725.747 -0.868086 1.31537 0
M  V30 7772 C 727.024 -1.60384 1.11965 0
M  V30 7773 C 727.404 -2.08584 -0.324949 0
M  V30 7774 O 726.752 -1.86561 -1.31937 0
M  V30 7775 C 726.962 -2.76038 2.13551 0
M  V30 7776 C 728.31 -3.45954 2.46173 0
M  V30 7777 O 729.334 -2.86247 2.11993 0
M  V30 7778 O 728.193 -4.53666 3.04711 0
M  V30 7779 H 725.287 -0.705705 0.431172 0
M  V30 7780 H 727.833 -0.913385 1.43022 0
M  V30 7781 H 726.605 -2.37849 3.10714 0
M  V30 7782 H 726.228 -3.52769 1.83411 0
M  V30 7783 N 727.225 -1.14528 -1.08264 0
M  V30 7784 C 728.471 -0.91576 -1.80947 0
M  V30 7785 C 728.804 0.55623 -1.86064 0
M  V30 7786 O 728.079 1.41207 -1.33756 0
M  V30 7787 C 728.362 -1.51917 -3.26486 0
M  V30 7788 C 728.215 -3.06111 -3.2957 0
M  V30 7789 C 729.534 -1.19724 -4.23502 0
M  V30 7790 H 726.653 -0.334113 -0.656915 0
M  V30 7791 H 729.295 -1.41547 -1.26746 0
M  V30 7792 H 727.445 -1.0942 -3.72773 0
M  V30 7793 H 729.117 -3.57448 -2.91597 0
M  V30 7794 H 727.36 -3.40483 -2.688 0
M  V30 7795 H 728.031 -3.43438 -4.32151 0
M  V30 7796 H 730.507 -1.56467 -3.85561 0
M  V30 7797 H 729.383 -1.64575 -5.23647 0
M  V30 7798 H 729.644 -0.112771 -4.41956 0
M  V30 7799 N 728.703 1.26451 -0.940633 0
M  V30 7800 C 729.613 2.30128 -0.455881 0
M  V30 7801 C 730.629 1.67536 0.469867 0
M  V30 7802 O 731.805 1.98344 0.349529 0
M  V30 7803 C 728.87 3.45634 0.271648 0
M  V30 7804 C 727.931 4.23709 -0.690594 0
M  V30 7805 C 727.164 5.337 0.00231047 0
M  V30 7806 O 727.387 5.57215 1.21935 0
M  V30 7807 O 726.321 5.98091 -0.676111 0
M  V30 7808 H 730.147 2.73655 -1.31707 0
M  V30 7809 H 727.732 1.3164 -0.706497 0
M  V30 7810 H 729.614 4.15853 0.681486 0
M  V30 7811 H 728.289 3.04138 1.10824 0
M  V30 7812 H 727.196 3.55974 -1.15037 0
M  V30 7813 H 728.529 4.68953 -1.49478 0
M  V30 7814 N 730.181 0.707592 1.40822 0
M  V30 7815 C 731.429 0.243189 2.00632 0
M  V30 7816 C 731.75 -1.16512 1.56365 0
M  V30 7817 O 731.02 -1.78841 0.799553 0
M  V30 7818 H 729.6 0.0869203 0.741926 0
M  V30 7819 H 732.262 0.911438 1.72275 0
M  V30 7820 H 731.358 0.270014 3.1093 0
M  V30 7821 N 731.66 -1.50943 0.453197 0
M  V30 7822 C 732.607 -2.28128 -0.350197 0
M  V30 7823 C 733.577 -1.32398 -1.00299 0
M  V30 7824 O 734.762 -1.61319 -1.01887 0
M  V30 7825 C 731.902 -3.13782 -1.43649 0
M  V30 7826 C 731.015 -4.24523 -0.800255 0
M  V30 7827 C 730.15 -4.97462 -1.86293 0
M  V30 7828 C 729.189 -6.00102 -1.20598 0
M  V30 7829 N 728.326 -6.66387 -2.21071 0
M  V30 7830 H 733.166 -2.96337 0.31434 0
M  V30 7831 H 730.703 -1.46151 0.166863 0
M  V30 7832 H 732.661 -3.6178 -2.07776 0
M  V30 7833 H 731.291 -2.47655 -2.07044 0
M  V30 7834 H 730.343 -3.80371 -0.0468651 0
M  V30 7835 H 731.655 -4.98009 -0.280777 0
M  V30 7836 H 730.809 -5.49088 -2.58044 0
M  V30 7837 H 729.548 -4.23642 -2.41617 0
M  V30 7838 H 728.553 -5.47753 -0.474 0
M  V30 7839 H 729.778 -6.75887 -0.659859 0
M  V30 7840 H 727.724 -5.9537 -2.75446 0
M  V30 7841 H 727.641 -7.3569 -1.74058 0
M  V30 7842 H 728.909 -7.22638 -2.92257 0
M  V30 7843 N 733.138 -0.185124 -1.56509 0
M  V30 7844 C 734.385 0.456258 -1.97293 0
M  V30 7845 C 734.713 1.62314 -1.07165 0
M  V30 7846 O 733.968 1.95398 -0.108621 0
M  V30 7847 C 734.267 0.967977 -3.44042 0
M  V30 7848 C 733.933 -0.084476 -4.50821 0
M  V30 7849 C 732.595 -0.373689 -4.79747 0
M  V30 7850 C 734.947 -0.79812 -5.15053 0
M  V30 7851 C 732.275 -1.3817 -5.70198 0
M  V30 7852 C 734.627 -1.79521 -6.06593 0
M  V30 7853 C 733.291 -2.09172 -6.3388 0
M  V30 7854 H 732.561 0.166957 -0.721946 0
M  V30 7855 H 735.208 -0.279992 -1.89442 0
M  V30 7856 H 733.513 1.78231 -3.48914 0
M  V30 7857 H 735.21 1.47347 -3.72948 0
M  V30 7858 H 731.8 0.15111 -4.28334 0
M  V30 7859 H 735.984 -0.587903 -4.92806 0
M  V30 7860 H 731.24 -1.61745 -5.89617 0
M  V30 7861 H 735.414 -2.35347 -6.55427 0
M  V30 7862 H 733.041 -2.87427 -7.03768 0
M  V30 7863 N 734.616 1.57351 0.0885366 0
M  V30 7864 C 735.865 1.85604 0.789556 0
M  V30 7865 C 736.178 0.775352 1.79576 0
M  V30 7866 O 737.384 0.945206 2.54515 0
M  V30 7867 C 735.84 3.29175 1.45506 0
M  V30 7868 C 735.448 4.45331 0.488278 0
M  V30 7869 C 737.192 3.66646 2.13942 0
M  V30 7870 C 735.099 5.79937 1.15874 0
M  V30 7871 H 734.029 0.692346 0.298619 0
M  V30 7872 H 736.68 1.83451 0.0425821 0
M  V30 7873 H 735.062 3.25889 2.24972 0
M  V30 7874 H 736.236 4.59977 -0.275359 0
M  V30 7875 H 734.551 4.16301 -0.0907363 0
M  V30 7876 H 737.148 4.64498 2.6485 0
M  V30 7877 H 737.491 2.956 2.93132 0
M  V30 7878 H 738.024 3.71848 1.41328 0
M  V30 7879 H 734.763 6.54232 0.407508 0
M  V30 7880 H 734.283 5.69123 1.89364 0
M  V30 7881 H 735.962 6.24718 1.68336 0
M  V30 7882 N 736.094 -0.359525 1.53444 0
M  V30 7883 C 737.51 -0.701599 1.43352 0
M  V30 7884 C 737.71 -1.93049 0.577439 0
M  V30 7885 O 736.766 -2.52423 0.0622224 0
M  V30 7886 C 738.079 -0.90915 2.86627 0
M  V30 7887 C 739.627 -1.00878 2.96298 0
M  V30 7888 C 740.102 -1.24876 4.40647 0
M  V30 7889 N 741.593 -1.31632 4.44103 0
M  V30 7890 C 742.328 -1.51922 5.52908 0
M  V30 7891 N 741.824 -1.69489 6.71748 0
M  V30 7892 N 743.617 -1.54341 5.40496 0
M  V30 7893 H 735.768 0.448685 2.07607 0
M  V30 7894 H 738.031 0.138713 0.937797 0
M  V30 7895 H 737.737 -0.0778997 3.51614 0
M  V30 7896 H 737.611 -1.81551 3.30634 0
M  V30 7897 H 739.998 -1.83057 2.31461 0
M  V30 7898 H 740.079 -0.0796721 2.55676 0
M  V30 7899 H 739.723 -0.431961 5.0606 0
M  V30 7900 H 739.653 -2.19118 4.78848 0
M  V30 7901 H 742.144 -1.19646 3.5846 0
M  V30 7902 H 742.457 -1.84561 7.50438 0
M  V30 7903 H 740.802 -1.66655 6.74723 0
M  V30 7904 H 743.993 -1.40188 4.46615 0
M  V30 7905 H 744.166 -1.69812 6.25354 0
M  V30 7906 N 737.572 -1.44907 -0.619662 0
M  V30 7907 C 738.504 -1.48652 -1.74457 0
M  V30 7908 C 739.517 -0.378596 -1.58337 0
M  V30 7909 O 740.706 -0.644987 -1.6644 0
M  V30 7910 C 737.806 -1.31568 -3.12319 0
M  V30 7911 C 736.979 -2.55816 -3.54792 0
M  V30 7912 C 736.038 -2.33465 -4.71573 0
M  V30 7913 O 735.064 -3.07015 -4.79302 0
M  V30 7914 N 736.266 -1.37254 -5.6404 0
M  V30 7915 H 739.031 -2.45632 -1.71712 0
M  V30 7916 H 736.592 -1.40492 -0.804582 0
M  V30 7917 H 738.584 -1.14445 -3.88181 0
M  V30 7918 H 737.154 -0.429095 -3.09641 0
M  V30 7919 H 736.374 -2.88137 -2.69018 0
M  V30 7920 H 737.662 -3.38431 -3.79924 0
M  V30 7921 H 737.06 -0.765309 -5.60499 0
M  V30 7922 H 735.617 -1.26106 -6.39485 0
M  V30 7923 N 739.05 0.861098 -1.31996 0
M  V30 7924 C 740.278 1.6474 -1.25173 0
M  V30 7925 C 740.693 1.87926 0.181425 0
M  V30 7926 O 740.05 1.4437 1.1164 0
M  V30 7927 C 740.101 3.01036 -2.0015 0
M  V30 7928 O 739.822 2.7888 -3.37872 0
M  V30 7929 C 741.323 3.95481 -2.00273 0
M  V30 7930 H 738.543 0.513314 -0.432146 0
M  V30 7931 H 741.087 1.07419 -1.74016 0
M  V30 7932 H 739.242 3.55021 -1.55046 0
M  V30 7933 H 739.656 3.65514 -3.76165 0
M  V30 7934 H 741.13 4.88403 -2.57229 0
M  V30 7935 H 741.607 4.27957 -0.987407 0
M  V30 7936 H 742.213 3.47433 -2.45296 0
M  V30 7937 N 740.528 1.15101 1.07655 0
M  V30 7938 C 741.776 0.922149 1.79836 0
M  V30 7939 C 742.097 -0.552346 1.87014 0
M  V30 7940 O 741.367 -1.40145 1.3688 0
M  V30 7941 H 739.947 0.338182 0.666064 0
M  V30 7942 H 742.609 1.45107 1.30115 0
M  V30 7943 H 741.705 1.32883 2.82398 0
M  V30 7944 N 742.006 -1.2595 0.947325 0
M  V30 7945 C 743.254 -1.93081 0.596996 0
M  V30 7946 C 743.575 -1.74632 -0.867672 0
M  V30 7947 O 742.845 -1.1056 -1.6172 0
M  V30 7948 H 741.425 -0.714542 0.217805 0
M  V30 7949 H 744.087 -1.53265 1.20398 0
M  V30 7950 H 743.183 -3.01134 0.82004 0
M  V30 7951 N 743.484 -0.715051 -1.40445 0
M  V30 7952 C 744.9 -0.388555 -1.54798 0
M  V30 7953 C 745.1 1.10271 -1.68649 0
M  V30 7954 O 744.156 1.88875 -1.67578 0
M  V30 7955 C 745.469 -1.15414 -2.77669 0
M  V30 7956 C 747.017 -1.14039 -2.91486 0
M  V30 7957 C 747.492 -1.88812 -4.1727 0
M  V30 7958 N 748.983 -1.85878 -4.24268 0
M  V30 7959 C 749.718 -2.40558 -5.20499 0
M  V30 7960 N 749.214 -3.03791 -6.22642 0
M  V30 7961 N 751.007 -2.30703 -5.12574 0
M  V30 7962 H 743.158 -1.68201 -1.297 0
M  V30 7963 H 745.421 -0.710915 -0.627139 0
M  V30 7964 H 745.127 -2.20853 -2.7371 0
M  V30 7965 H 745.001 -0.745412 -3.69761 0
M  V30 7966 H 747.388 -0.0941996 -2.9495 0
M  V30 7967 H 747.469 -1.58834 -2.00513 0
M  V30 7968 H 747.113 -2.93422 -4.14568 0
M  V30 7969 H 747.043 -1.41438 -5.0725 0
M  V30 7970 H 749.534 -1.39794 -3.51093 0
M  V30 7971 H 749.847 -3.43032 -6.92495 0
M  V30 7972 H 748.192 -3.07875 -6.23087 0
M  V30 7973 H 751.383 -1.80961 -4.31707 0
M  V30 7974 H 751.556 -2.73618 -5.87398 0
M  V30 7975 N 744.962 1.50701 -0.461195 0
M  V30 7976 C 746.21 2.01867 0.0970051 0
M  V30 7977 C 746.531 1.34591 1.41104 0
M  V30 7978 O 745.801 0.488041 1.89723 0
M  V30 7979 H 744.381 0.74599 0.0388392 0
M  V30 7980 H 747.043 1.85129 -0.609357 0
M  V30 7981 H 746.139 3.11051 0.255688 0
M  V30 7982 N 746.441 0.193421 1.56409 0
M  V30 7983 C 747.373 -0.759944 2.16235 0
M  V30 7984 C 748.386 -1.17797 1.12373 0
M  V30 7985 O 749.575 -1.11399 1.39472 0
M  V30 7986 C 746.675 -2.03735 2.70823 0
M  V30 7987 C 745.848 -1.77939 3.9957 0
M  V30 7988 C 744.907 -2.90111 4.39001 0
M  V30 7989 O 743.933 -2.59791 5.06456 0
M  V30 7990 N 745.135 -4.18426 4.02368 0
M  V30 7991 H 747.9 -0.248348 2.98669 0
M  V30 7992 H 745.461 0.0113966 1.61896 0
M  V30 7993 H 747.453 -2.77914 2.94187 0
M  V30 7994 H 746.023 -2.46022 1.92852 0
M  V30 7995 H 745.243 -0.875491 3.84355 0
M  V30 7996 H 746.531 -1.58099 4.83614 0
M  V30 7997 H 745.929 -4.45913 3.48106 0
M  V30 7998 H 744.486 -4.89237 4.30686 0
M  V30 7999 N 747.919 -1.57396 -0.0801906 0
M  V30 8000 C 749.149 -1.90778 -0.792924 0
M  V30 8001 C 749.557 -0.786814 -1.72064 0
M  V30 8002 O 748.9 0.249259 -1.82001 0
M  V30 8003 C 748.962 -3.19552 -1.64702 0
M  V30 8004 C 748.626 -4.48259 -0.889567 0
M  V30 8005 C 749.623 -5.19465 -0.212602 0
M  V30 8006 C 747.308 -4.94896 -0.859229 0
M  V30 8007 C 749.302 -6.35555 0.484566 0
M  V30 8008 C 746.989 -6.10895 -0.158284 0
M  V30 8009 C 747.987 -6.81075 0.512421 0
M  V30 8010 O 747.675 -7.94862 1.20209 0
M  V30 8011 H 747.407 -0.63527 -0.231103 0
M  V30 8012 H 749.961 -2.0532 -0.0573081 0
M  V30 8013 H 748.191 -3.01196 -2.42524 0
M  V30 8014 H 749.88 -3.38649 -2.23767 0
M  V30 8015 H 750.646 -4.84467 -0.227403 0
M  V30 8016 H 746.525 -4.4015 -1.37073 0
M  V30 8017 H 750.069 -6.9027 1.00864 0
M  V30 8018 H 745.966 -6.45345 -0.141381 0
M  V30 8019 H 746.734 -8.10932 1.11051 0
M  V30 8020 N 749.397 0.351382 -1.53633 0
M  V30 8021 C 750.645 1.09034 -1.70165 0
M  V30 8022 C 750.966 1.89413 -0.463422 0
M  V30 8023 O 750.236 1.888 0.522624 0
M  V30 8024 H 748.816 0.405522 -0.627344 0
M  V30 8025 H 751.478 0.394554 -1.90865 0
M  V30 8026 H 750.574 1.77215 -2.56907 0
M  V30 8027 N 750.875 1.45233 0.611969 0
M  V30 8028 C 751.825 1.49997 1.71711 0
M  V30 8029 C 752.809 0.363689 1.56736 0
M  V30 8030 O 754.001 0.610261 1.66147 0
M  V30 8031 C 751.13 1.46537 3.10454 0
M  V30 8032 C 750.216 2.65351 3.30831 0
M  V30 8033 N 750.607 3.90485 3.21489 0
M  V30 8034 C 748.905 2.60955 3.61688 0
M  V30 8035 C 749.606 4.69758 3.43078 0
M  V30 8036 N 748.582 4.01141 3.66861 0
M  V30 8037 H 752.384 2.44574 1.62975 0
M  V30 8038 H 749.898 1.40464 0.815082 0
M  V30 8039 H 751.895 1.48035 3.89732 0
M  V30 8040 H 750.555 0.530139 3.20343 0
M  V30 8041 H 751.566 4.22171 2.99987 0
M  V30 8042 H 748.243 1.76319 3.78441 0
M  V30 8043 H 749.633 5.7877 3.41285 0
M  V30 8044 N 752.353 -0.854086 1.3245 0
M  V30 8045 C 753.599 -1.61069 1.23225 0
M  V30 8046 C 753.932 -1.93111 -0.205349 0
M  V30 8047 O 753.207 -1.57397 -1.14265 0
M  V30 8048 C 753.49 -2.93065 2.09249 0
M  V30 8049 C 753.343 -2.67801 3.6139 0
M  V30 8050 C 754.662 -3.94341 1.95406 0
M  V30 8051 H 751.781 -0.584449 0.448986 0
M  V30 8052 H 754.423 -0.986189 1.62402 0
M  V30 8053 H 752.573 -3.46364 1.75967 0
M  V30 8054 H 754.245 -2.21052 4.04887 0
M  V30 8055 H 752.488 -2.01756 3.84027 0
M  V30 8056 H 753.159 -3.6179 4.16907 0
M  V30 8057 H 755.635 -3.50301 2.24562 0
M  V30 8058 H 754.511 -4.84555 2.57872 0
M  V30 8059 H 754.772 -4.32382 0.921865 0
M  V30 8060 N 753.831 -1.1567 -1.07043 0
M  V30 8061 C 754.778 -0.856336 -2.14326 0
M  V30 8062 C 755.748 0.192051 -1.64986 0
M  V30 8063 O 756.933 0.0589148 -1.90709 0
M  V30 8064 C 754.073 -0.355227 -3.43267 0
M  V30 8065 C 753.186 -1.46555 -4.06381 0
M  V30 8066 C 752.321 -0.920245 -5.23168 0
M  V30 8067 C 751.36 -2.00729 -5.78251 0
M  V30 8068 N 750.497 -1.47813 -6.86364 0
M  V30 8069 H 755.337 -1.77514 -2.39359 0
M  V30 8070 H 752.874 -0.885676 -1.17449 0
M  V30 8071 H 754.832 -0.0463804 -4.17174 0
M  V30 8072 H 753.462 0.526649 -3.18475 0
M  V30 8073 H 752.514 -1.89052 -3.30096 0
M  V30 8074 H 753.826 -2.28616 -4.43324 0
M  V30 8075 H 752.98 -0.564127 -6.04072 0
M  V30 8076 H 751.719 -0.0688477 -4.87651 0
M  V30 8077 H 750.724 -2.3722 -4.95991 0
M  V30 8078 H 751.949 -2.86252 -6.15822 0
M  V30 8079 H 749.895 -0.649145 -6.5278 0
M  V30 8080 H 749.812 -2.23498 -7.22208 0
M  V30 8081 H 751.08 -1.15036 -7.70965 0
M  V30 8082 N 755.309 1.25446 -0.953992 0
M  V30 8083 C 756.558 1.92441 -0.604101 0
M  V30 8084 C 756.871 1.75543 0.862796 0
M  V30 8085 O 758.077 2.37106 1.32262 0
M  V30 8086 C 756.533 3.44854 -1.02974 0
M  V30 8087 C 756.141 3.70464 -2.51914 0
M  V30 8088 C 757.885 4.1778 -0.752352 0
M  V30 8089 C 755.792 5.1638 -2.88281 0
M  V30 8090 H 754.722 0.720508 -0.222227 0
M  V30 8091 H 757.373 1.42318 -1.15836 0
M  V30 8092 H 755.755 3.93935 -0.403904 0
M  V30 8093 H 756.929 3.32038 -3.19511 0
M  V30 8094 H 755.244 3.10797 -2.77117 0
M  V30 8095 H 757.841 5.25261 -1.00024 0
M  V30 8096 H 758.184 4.15135 0.311212 0
M  V30 8097 H 758.717 3.74605 -1.33851 0
M  V30 8098 H 755.456 5.24135 -3.93653 0
M  V30 8099 H 754.976 5.55855 -2.25357 0
M  V30 8100 H 756.655 5.84497 -2.77439 0
M  V30 8101 N 756.787 0.722489 1.40064 0
M  V30 8102 C 757.734 0.0743738 2.3068 0
M  V30 8103 C 758.704 -0.743004 1.48555 0
M  V30 8104 O 759.889 -0.705536 1.77276 0
M  V30 8105 C 757.029 -0.836292 3.34814 0
M  V30 8106 C 756.142 -0.00764663 4.31999 0
M  V30 8107 C 755.277 -0.918428 5.232 0
M  V30 8108 C 754.316 -0.0842838 6.12042 0
M  V30 8109 N 753.453 -0.950316 6.95639 0
M  V30 8110 H 758.293 0.852794 2.85537 0
M  V30 8111 H 755.83 0.432222 1.40607 0
M  V30 8112 H 757.788 -1.3786 3.93765 0
M  V30 8113 H 756.418 -1.58082 2.81443 0
M  V30 8114 H 755.47 0.651928 3.74772 0
M  V30 8115 H 756.782 0.63786 4.94705 0
M  V30 8116 H 755.936 -1.52902 5.87116 0
M  V30 8117 H 754.675 -1.59774 4.60786 0
M  V30 8118 H 753.68 0.5392 5.4715 0
M  V30 8119 H 754.905 0.591628 6.76518 0
M  V30 8120 H 752.851 -1.61515 6.35806 0
M  V30 8121 H 752.768 -0.361004 7.55138 0
M  V30 8122 H 754.036 -1.54687 7.63997 0
M  V30 8123 N 758.265 -1.50454 0.469181 0
M  V30 8124 C 759.511 -2.02615 -0.0865971 0
M  V30 8125 C 759.844 -1.35062 -1.39542 0
M  V30 8126 O 759.119 -0.475701 -1.88593 0
M  V30 8127 C 759.402 -3.59068 -0.272385 0
M  V30 8128 C 759.255 -4.37196 1.05733 0
M  V30 8129 C 760.574 -4.2793 -1.0278 0
M  V30 8130 H 757.693 -0.736389 -0.0299977 0
M  V30 8131 H 760.335 -1.79792 0.614399 0
M  V30 8132 H 758.485 -3.78646 -0.869471 0
M  V30 8133 H 760.157 -4.29195 1.69084 0
M  V30 8134 H 758.4 -4.01013 1.65442 0
M  V30 8135 H 759.071 -5.44924 0.880997 0
M  V30 8136 H 761.547 -4.12816 -0.521718 0
M  V30 8137 H 760.423 -5.37214 -1.12659 0
M  V30 8138 H 760.684 -3.90968 -2.0639 0
M  V30 8139 N 759.743 -0.201713 -1.56304 0
M  V30 8140 C 760.653 0.728296 -2.23009 0
M  V30 8141 C 761.669 1.22945 -1.23128 0
M  V30 8142 O 762.845 1.27523 -1.55884 0
M  V30 8143 C 759.91 1.92792 -2.88153 0
M  V30 8144 C 758.971 1.47068 -4.03323 0
M  V30 8145 C 758.204 2.61312 -4.65351 0
M  V30 8146 O 758.427 3.7896 -4.26317 0
M  V30 8147 O 757.361 2.33646 -5.54701 0
M  V30 8148 H 761.187 0.190166 -3.03104 0
M  V30 8149 H 758.772 0.0278725 -1.49374 0
M  V30 8150 H 760.654 2.6289 -3.29343 0
M  V30 8151 H 759.329 2.45452 -2.11033 0
M  V30 8152 H 758.236 0.738299 -3.66742 0
M  V30 8153 H 759.569 0.990666 -4.82127 0
M  V30 8154 N 761.222 1.57436 0.0718424 0
M  V30 8155 C 762.633 1.75975 0.623678 0
M  V30 8156 C 762.984 0.827155 1.77912 0
M  V30 8157 O 762.109 0.0112425 2.16397 0
M  V30 8158 C 762.704 3.1911 1.13816 0
M  V30 8159 C 761.263 3.38994 1.63586 0
M  V30 8160 C 760.41 2.71684 0.555261 0
M  V30 8161 H 763.361 1.57948 -0.154328 0
M  V30 8162 H 763.382 3.23267 2.00696 0
M  V30 8163 H 762.894 3.86962 0.296998 0
M  V30 8164 H 760.995 2.76256 2.50027 0
M  V30 8165 H 761.108 4.47436 1.71283 0
M  V30 8166 H 759.472 2.34236 1.00029 0
M  V30 8167 H 760.255 3.42191 -0.275712 0
M  V30 8168 N 762.7 -0.34323 1.53817 0
M  V30 8169 C 763.63 -1.42709 1.84814 0
M  V30 8170 C 764.611 -1.5488 0.703297 0
M  V30 8171 O 765.796 -1.69082 0.955237 0
M  V30 8172 C 762.926 -2.79756 2.05801 0
M  V30 8173 C 761.88 -2.82392 3.21619 0
M  V30 8174 C 761.206 -4.22326 3.2794 0
M  V30 8175 C 762.506 -2.479 4.59721 0
M  V30 8176 H 764.2 -1.17018 2.75585 0
M  V30 8177 H 761.746 -0.561485 1.32602 0
M  V30 8178 H 763.699 -3.55627 2.26069 0
M  V30 8179 H 762.423 -3.06883 1.11761 0
M  V30 8180 H 761.082 -2.08974 3.01207 0
M  V30 8181 H 760.73 -4.46564 2.31494 0
M  V30 8182 H 760.43 -4.25001 4.05768 0
M  V30 8183 H 761.954 -5.00039 3.50419 0
M  V30 8184 H 763.368 -3.13484 4.80001 0
M  V30 8185 H 761.765 -2.61857 5.39954 0
M  V30 8186 H 762.835 -1.43087 4.63308 0
M  V30 8187 N 764.178 -1.45556 -0.604258 0
M  V30 8188 C 765.589 -1.44171 -1.18624 0
M  V30 8189 C 765.94 -0.171081 -1.95453 0
M  V30 8190 O 765.065 0.727156 -2.03817 0
M  V30 8191 C 765.66 -2.61193 -2.15786 0
M  V30 8192 C 764.219 -2.62918 -2.69353 0
M  V30 8193 C 763.366 -2.36479 -1.4482 0
M  V30 8194 H 766.317 -1.53747 -0.393381 0
M  V30 8195 H 766.338 -2.35481 -2.98879 0
M  V30 8196 H 765.85 -3.53656 -1.59841 0
M  V30 8197 H 763.951 -1.7447 -3.29228 0
M  V30 8198 H 764.064 -3.6224 -3.13559 0
M  V30 8199 H 762.428 -1.86103 -1.73891 0
M  V30 8200 H 763.211 -3.31091 -0.907376 0
M  V30 8201 N 765.656 0.84705 -1.32902 0
M  V30 8202 C 767.072 1.13645 -1.12058 0
M  V30 8203 C 767.272 2.01281 0.093937 0
M  V30 8204 O 766.328 2.4026 0.776608 0
M  V30 8205 C 767.641 1.80644 -2.40392 0
M  V30 8206 C 769.189 1.93246 -2.46221 0
M  V30 8207 C 769.664 2.6366 -3.74496 0
M  V30 8208 N 771.155 2.71179 -3.75521 0
M  V30 8209 C 771.89 3.26332 -4.71482 0
M  V30 8210 N 771.386 3.82236 -5.77813 0
M  V30 8211 N 773.179 3.24507 -4.58968 0
M  V30 8212 H 765.33 0.263612 -2.10758 0
M  V30 8213 H 767.593 0.17944 -0.930863 0
M  V30 8214 H 767.299 1.23708 -3.29225 0
M  V30 8215 H 767.173 2.80736 -2.51926 0
M  V30 8216 H 769.56 2.49338 -1.57843 0
M  V30 8217 H 769.641 0.921272 -2.38634 0
M  V30 8218 H 769.285 2.08229 -4.63253 0
M  V30 8219 H 769.215 3.65234 -3.79357 0
M  V30 8220 H 771.706 2.31527 -2.9867 0
M  V30 8221 H 772.019 4.22499 -6.47082 0
M  V30 8222 H 770.364 3.80546 -5.81558 0
M  V30 8223 H 773.555 2.80085 -3.7506 0
M  V30 8224 H 773.728 3.67188 -5.33926 0
M  V30 8225 N 767.134 1.16236 1.06428 0
M  V30 8226 C 768.382 0.941171 1.78847 0
M  V30 8227 C 768.703 -0.53248 1.87589 0
M  V30 8228 O 767.973 -1.38686 1.38358 0
M  V30 8229 H 766.553 0.345228 0.66244 0
M  V30 8230 H 769.215 1.46479 1.28569 0
M  V30 8231 H 768.311 1.35871 2.80972 0
M  V30 8232 N 768.612 -1.24939 0.960631 0
M  V30 8233 C 769.837 -1.9742 0.635608 0
M  V30 8234 C 770.262 -1.70857 -0.786737 0
M  V30 8235 O 769.62 -0.968063 -1.53291 0
M  V30 8236 C 769.668 -3.48987 0.907771 0
M  V30 8237 O 768.772 -4.12399 -0.0104053 0
M  V30 8238 H 768.113 -0.61871 0.241027 0
M  V30 8239 H 770.643 -1.58901 1.28886 0
M  V30 8240 H 770.653 -3.99334 0.836453 0
M  V30 8241 H 769.328 -3.6765 1.94439 0
M  V30 8242 H 767.905 -3.72727 0.113631 0
M  V30 8243 N 770.09 -0.729906 -1.39679 0
M  V30 8244 C 771.338 -0.275077 -2.00219 0
M  V30 8245 C 771.659 1.1401 -1.58199 0
M  V30 8246 O 770.929 1.77546 -0.827904 0
M  V30 8247 H 769.509 -0.0987127 -0.740449 0
M  V30 8248 H 772.171 -0.93873 -1.70804 0
M  V30 8249 H 771.267 -0.319446 -3.10461 0
M  V30 8250 N 771.568 1.50203 -0.477153 0
M  V30 8251 C 772.815 2.02358 0.0757385 0
M  V30 8252 C 773.143 1.3587 1.39174 0
M  V30 8253 O 772.398 0.475415 1.89838 0
M  V30 8254 C 772.697 3.56127 0.301325 0
M  V30 8255 C 772.363 4.41126 -0.933725 0
M  V30 8256 C 771.025 4.64075 -1.27233 0
M  V30 8257 C 773.377 4.90737 -1.75576 0
M  V30 8258 C 770.705 5.33878 -2.43292 0
M  V30 8259 C 773.057 5.61816 -2.90768 0
M  V30 8260 C 771.721 5.83016 -3.25036 0
M  V30 8261 H 770.991 0.740482 0.0277147 0
M  V30 8262 H 773.638 1.80754 -0.632467 0
M  V30 8263 H 771.943 3.76279 1.09183 0
M  V30 8264 H 773.64 3.94053 0.743184 0
M  V30 8265 H 770.23 4.23489 -0.659935 0
M  V30 8266 H 774.414 4.72856 -1.50734 0
M  V30 8267 H 769.67 5.48499 -2.70109 0
M  V30 8268 H 773.844 5.99237 -3.54807 0
M  V30 8269 H 771.471 6.36881 -4.15074 0
M  V30 8270 N 773.046 0.209999 1.56195 0
M  V30 8271 C 773.956 -0.716459 2.23392 0
M  V30 8272 C 774.972 -1.22291 1.23778 0
M  V30 8273 O 776.148 -1.26694 1.56558 0
M  V30 8274 C 773.213 -1.91261 2.89172 0
M  V30 8275 C 772.274 -1.44927 4.04097 0
M  V30 8276 C 771.507 -2.5884 4.66731 0
M  V30 8277 O 771.73 -3.76693 4.2832 0
M  V30 8278 O 770.664 -2.30701 5.55932 0
M  V30 8279 H 774.49 -0.174089 3.03201 0
M  V30 8280 H 772.075 -0.0199505 1.49387 0
M  V30 8281 H 773.957 -2.6114 3.30733 0
M  V30 8282 H 772.632 -2.4433 2.12331 0
M  V30 8283 H 771.539 -0.718839 3.67129 0
M  V30 8284 H 772.872 -0.965084 4.82646 0
M  V30 8285 N 774.524 -1.57472 -0.0634922 0
M  V30 8286 C 775.771 -1.87654 -0.761066 0
M  V30 8287 C 776.099 -0.802847 -1.77157 0
M  V30 8288 O 775.354 0.200244 -1.94673 0
M  V30 8289 C 775.653 -3.24521 -1.49736 0
M  V30 8290 C 775.319 -4.46532 -0.626065 0
M  V30 8291 C 773.981 -4.7965 -0.385978 0
M  V30 8292 C 776.333 -5.21195 -0.0224001 0
M  V30 8293 C 773.661 -5.84837 0.467118 0
M  V30 8294 C 776.013 -6.27286 0.818198 0
M  V30 8295 C 774.677 -6.58899 1.06808 0
M  V30 8296 H 773.947 -0.686675 -0.278494 0
M  V30 8297 H 776.594 -1.91488 -0.0216348 0
M  V30 8298 H 774.899 -3.16516 -2.30921 0
M  V30 8299 H 776.596 -3.45111 -2.04204 0
M  V30 8300 H 773.186 -4.20618 -0.823325 0
M  V30 8301 H 777.37 -4.95917 -0.194985 0
M  V30 8302 H 772.626 -6.07725 0.669375 0
M  V30 8303 H 776.8 -6.84298 1.29265 0
M  V30 8304 H 774.427 -7.40233 1.73088 0
M  V30 8305 N 776.003 0.335068 -1.53997 0
M  V30 8306 C 777.249 1.07594 -1.71905 0
M  V30 8307 C 777.582 1.88039 -0.485264 0
M  V30 8308 O 776.857 1.87482 0.517752 0
M  V30 8309 C 777.14 2.01016 -2.98772 0
M  V30 8310 C 776.993 1.23977 -4.32377 0
M  V30 8311 C 778.312 3.0071 -3.21343 0
M  V30 8312 H 775.431 0.38976 -0.625505 0
M  V30 8313 H 778.073 0.353684 -1.86679 0
M  V30 8314 H 776.223 2.62603 -2.86307 0
M  V30 8315 H 777.895 0.649383 -4.56706 0
M  V30 8316 H 776.138 0.541878 -4.30402 0
M  V30 8317 H 776.809 1.92512 -5.17342 0
M  V30 8318 H 779.285 2.4924 -3.33194 0
M  V30 8319 H 778.161 3.63272 -4.11491 0
M  V30 8320 H 778.422 3.72549 -2.38033 0
M  V30 8321 N 777.481 1.45874 0.596531 0
M  V30 8322 C 778.429 1.55739 1.72766 0
M  V30 8323 C 779.423 0.426666 1.63939 0
M  V30 8324 O 780.629 0.60301 1.69599 0
M  V30 8325 H 777.004 0.489386 0.570968 0
M  V30 8326 H 778.975 2.50871 1.61575 0
M  V30 8327 C 777.724 1.55174 3.11153 0
M  V30 8328 H 777.047 2.41511 3.1861 0
M  V30 8329 H 778.487 1.66133 3.90097 0
M  V30 8330 C 776.946 0.278001 3.35751 0
M  V30 8331 O 777.476 -0.637557 3.96608 0
M  V30 8332 N 775.682 0.170227 2.90101 0
M  V30 8333 H 775.229 0.916159 2.40758 0
M  V30 8334 H 775.187 -0.68117 3.06932 0
M  V30 8335 N 778.959 -0.83999 1.33349 0
M  V30 8336 C 779.922 -1.93128 1.23426 0
M  V30 8337 C 780.922 -1.60065 0.153599 0
M  V30 8338 O 782.112 -1.69425 0.405049 0
M  V30 8339 C 779.244 -3.28761 0.901622 0
M  V30 8340 H 780.437 -2.03352 2.20427 0
M  V30 8341 H 777.99 -1.03194 1.17391 0
M  V30 8342 H 778.725 -3.24233 -0.0659337 0
M  V30 8343 H 778.51 -3.54138 1.68311 0
M  V30 8344 H 780 -4.08714 0.856913 0
M  V30 8345 N 780.437 -1.16799 -1.0581 0
M  V30 8346 C 781.686 -0.94698 -1.78088 0
M  V30 8347 C 781.999 0.526016 -1.88394 0
M  V30 8348 O 783.205 0.865061 -2.5735 0
M  V30 8349 C 781.661 -1.64508 -3.20102 0
M  V30 8350 C 781.269 -3.15618 -3.17946 0
M  V30 8351 C 783.013 -1.50622 -3.96879 0
M  V30 8352 C 780.92 -3.78144 -4.5471 0
M  V30 8353 H 779.85 -0.35067 -0.667493 0
M  V30 8354 H 782.501 -1.39985 -1.18645 0
M  V30 8355 H 780.883 -1.11993 -3.79834 0
M  V30 8356 H 782.057 -3.75016 -2.67768 0
M  V30 8357 H 780.372 -3.29444 -2.54667 0
M  V30 8358 H 782.969 -1.94713 -4.97987 0
M  V30 8359 H 783.312 -0.455864 -4.13797 0
M  V30 8360 H 783.845 -2.00319 -3.43682 0
M  V30 8361 H 780.584 -4.83149 -4.42998 0
M  V30 8362 H 780.104 -3.23532 -5.05062 0
M  V30 8363 H 781.783 -3.79986 -5.2366 0
M  V30 8364 N 781.915 1.24427 -0.967243 0
M  V30 8365 C 783.161 1.92772 -0.629812 0
M  V30 8366 C 783.494 1.75436 0.832827 0
M  V30 8367 O 782.769 1.10716 1.59913 0
M  V30 8368 C 783.052 3.45798 -1.00477 0
M  V30 8369 C 782.905 3.72304 -2.52407 0
M  V30 8370 C 784.224 4.36787 -0.538999 0
M  V30 8371 H 781.343 0.700099 -0.230282 0
M  V30 8372 H 783.985 1.46805 -1.20616 0
M  V30 8373 H 782.135 3.8508 -0.514336 0
M  V30 8374 H 783.807 3.42584 -3.08924 0
M  V30 8375 H 782.05 3.17472 -2.95625 0
M  V30 8376 H 782.721 4.7937 -2.73693 0
M  V30 8377 H 785.197 4.04877 -0.959874 0
M  V30 8378 H 784.073 5.4259 -0.829926 0
M  V30 8379 H 784.334 4.38527 0.560923 0
M  V30 8380 N 783.393 0.737304 1.3929 0
M  V30 8381 C 784.641 0.285691 2.00071 0
M  V30 8382 C 784.962 -1.13169 1.58801 0
M  V30 8383 O 784.232 -1.77104 0.837308 0
M  V30 8384 H 782.812 0.102638 0.739915 0
M  V30 8385 H 785.474 0.947775 1.70303 0
M  V30 8386 H 784.57 0.335906 3.10287 0
M  V30 8387 N 784.871 -1.49948 0.485112 0
M  V30 8388 C 786.119 -2.01996 -0.0648775 0
M  V30 8389 C 786.44 -1.36819 -1.38945 0
M  V30 8390 O 785.71 -0.518163 -1.88923 0
M  V30 8391 H 784.29 -0.746513 -0.0269662 0
M  V30 8392 H 786.952 -1.84136 0.638733 0
M  V30 8393 H 786.048 -3.11418 -0.20617 0
M  V30 8394 N 786.349 -0.21828 -1.56081 0
M  V30 8395 C 787.595 0.414921 -1.9851 0
M  V30 8396 C 787.928 1.59648 -1.10573 0
M  V30 8397 O 787.203 1.93818 -0.162695 0
M  V30 8398 C 787.486 0.852647 -3.4986 0
M  V30 8399 C 787.339 -0.33232 -4.48571 0
M  V30 8400 C 788.658 1.70998 -4.05521 0
M  V30 8401 H 785.777 0.149344 -0.72171 0
M  V30 8402 H 788.419 -0.313858 -1.8739 0
M  V30 8403 H 786.569 1.47362 -3.59467 0
M  V30 8404 H 788.241 -0.970418 -4.50977 0
M  V30 8405 H 786.484 -0.980302 -4.22578 0
M  V30 8406 H 787.155 0.0168407 -5.51997 0
M  V30 8407 H 789.631 1.18606 -3.98838 0
M  V30 8408 H 788.507 1.98517 -5.11744 0
M  V30 8409 H 788.768 2.67219 -3.52202 0
M  V30 8410 N 787.827 1.57504 0.0551401 0
M  V30 8411 C 789.076 1.87237 0.750009 0
M  V30 8412 C 789.389 0.813268 1.77891 0
M  V30 8413 O 790.595 0.99898 2.52453 0
M  V30 8414 C 789.051 3.32187 1.38491 0
M  V30 8415 C 788.659 4.46267 0.393707 0
M  V30 8416 C 790.403 3.71101 2.06117 0
M  V30 8417 C 788.31 5.82265 1.03547 0
M  V30 8418 H 787.24 0.698524 0.283866 0
M  V30 8419 H 789.891 1.835 0.00365997 0
M  V30 8420 H 788.273 3.30588 2.18008 0
M  V30 8421 H 789.447 4.59289 -0.372865 0
M  V30 8422 H 787.762 4.16015 -0.17902 0
M  V30 8423 H 790.359 4.70012 2.54937 0
M  V30 8424 H 790.702 3.01751 2.86796 0
M  V30 8425 H 791.235 3.74762 1.33409 0
M  V30 8426 H 787.974 6.54949 0.268644 0
M  V30 8427 H 787.494 5.73012 1.7725 0
M  V30 8428 H 789.173 6.28148 1.55047 0
M  V30 8429 N 789.305 -0.326896 1.54172 0
M  V30 8430 C 790.716 -0.901533 1.63491 0
M  V30 8431 C 791.067 -1.88994 0.52684 0
M  V30 8432 O 790.192 -2.137 -0.340794 0
M  V30 8433 C 790.787 -1.64192 2.96355 0
M  V30 8434 C 789.346 -2.16533 3.07881 0
M  V30 8435 C 788.493 -0.98966 2.59039 0
M  V30 8436 H 791.444 -0.104568 1.58355 0
M  V30 8437 H 791.465 -2.50592 2.86328 0
M  V30 8438 H 790.977 -0.922291 3.76982 0
M  V30 8439 H 789.078 -2.91622 2.31922 0
M  V30 8440 H 789.191 -2.41762 4.13628 0
M  V30 8441 H 787.555 -1.36787 2.14852 0
M  V30 8442 H 788.338 -0.284401 3.4212 0
M  V30 8443 N 790.784 -1.46188 -0.588786 0
M  V30 8444 C 791.731 -1.56292 -1.69828 0
M  V30 8445 C 792.701 -0.407581 -1.61022 0
M  V30 8446 O 793.886 -0.623532 -1.80324 0
M  V30 8447 C 791.026 -1.55341 -3.08161 0
M  V30 8448 C 790.139 -2.81564 -3.27636 0
M  V30 8449 C 789.274 -2.72158 -4.56183 0
M  V30 8450 C 788.313 -3.93348 -4.68981 0
M  V30 8451 N 787.45 -3.82365 -5.88848 0
M  V30 8452 H 792.29 -2.51066 -1.6053 0
M  V30 8453 H 789.827 -1.24562 -0.782474 0
M  V30 8454 H 791.785 -1.52776 -3.88221 0
M  V30 8455 H 790.415 -0.641034 -3.16371 0
M  V30 8456 H 789.467 -2.94136 -2.41223 0
M  V30 8457 H 790.779 -3.714 -3.32962 0
M  V30 8458 H 789.933 -2.67665 -5.44464 0
M  V30 8459 H 788.672 -1.79953 -4.53286 0
M  V30 8460 H 787.677 -3.98181 -3.7912 0
M  V30 8461 H 788.902 -4.86643 -4.73662 0
M  V30 8462 H 786.848 -2.92942 -5.86959 0
M  V30 8463 H 786.765 -4.65851 -5.95415 0
M  V30 8464 H 788.033 -3.81836 -6.79575 0
M  V30 8465 N 792.262 0.832906 -1.33792 0
M  V30 8466 C 793.172 1.97514 -1.26592 0
M  V30 8467 C 794.188 1.73114 -0.175391 0
M  V30 8468 O 795.364 1.97387 -0.400062 0
M  V30 8469 C 792.429 3.31625 -1.01121 0
M  V30 8470 C 791.49 3.69101 -2.19233 0
M  V30 8471 C 790.723 4.96813 -1.94968 0
M  V30 8472 O 790.946 5.63208 -0.902955 0
M  V30 8473 O 789.88 5.31932 -2.8166 0
M  V30 8474 H 793.706 2.0653 -2.22664 0
M  V30 8475 H 791.291 0.966826 -1.13898 0
M  V30 8476 H 793.173 4.11968 -0.886571 0
M  V30 8477 H 791.848 3.23599 -0.080822 0
M  V30 8478 H 790.755 2.89243 -2.37253 0
M  V30 8479 H 792.088 3.818 -3.10628 0
M  V30 8480 N 793.74 1.17359 1.05189 0
M  V30 8481 C 794.97 0.985099 1.81602 0
M  V30 8482 C 795.378 -0.469872 1.83273 0
M  V30 8483 O 794.721 -1.33806 1.25864 0
M  V30 8484 C 794.783 1.44956 3.2898 0
M  V30 8485 C 794.447 2.92666 3.50993 0
M  V30 8486 C 795.444 3.906 3.43115 0
M  V30 8487 C 793.129 3.30841 3.77954 0
M  V30 8488 C 795.123 5.24709 3.61883 0
M  V30 8489 C 792.81 4.65116 3.96371 0
M  V30 8490 C 793.808 5.61859 3.88335 0
M  V30 8491 O 793.496 6.93704 4.06238 0
M  V30 8492 H 793.228 0.348731 0.579105 0
M  V30 8493 H 795.782 1.56066 1.33539 0
M  V30 8494 H 794.012 0.817559 3.77959 0
M  V30 8495 H 795.701 1.22674 3.86919 0
M  V30 8496 H 796.467 3.62453 3.22262 0
M  V30 8497 H 792.346 2.5611 3.83313 0
M  V30 8498 H 795.89 6.00205 3.55527 0
M  V30 8499 H 791.787 4.92969 4.16715 0
M  V30 8500 H 792.555 7.00443 4.23463 0
M  V30 8501 N 795.218 -1.23913 0.973828 0
M  V30 8502 C 796.467 -1.91455 0.63464 0
M  V30 8503 C 796.78 -1.76893 -0.834759 0
M  V30 8504 O 797.986 -2.3918 -1.28473 0
M  V30 8505 C 796.442 -3.43172 1.08447 0
M  V30 8506 C 796.05 -3.66409 2.57776 0
M  V30 8507 C 797.794 -4.1653 0.818721 0
M  V30 8508 C 795.701 -5.11728 2.9646 0
M  V30 8509 H 794.631 -0.716881 0.233661 0
M  V30 8510 H 797.282 -1.40457 1.18085 0
M  V30 8511 H 795.664 -3.93242 0.466524 0
M  V30 8512 H 796.838 -3.26913 3.24753 0
M  V30 8513 H 795.153 -3.06349 2.82027 0
M  V30 8514 H 797.75 -5.23603 1.08367 0
M  V30 8515 H 798.093 -4.15578 -0.245128 0
M  V30 8516 H 798.626 -3.72428 1.39793 0
M  V30 8517 H 795.365 -5.17806 4.01941 0
M  V30 8518 H 794.885 -5.52199 2.34172 0
M  V30 8519 H 796.564 -5.80009 2.86703 0
M  V30 8520 N 796.696 -0.74468 -1.38897 0
M  V30 8521 C 798.107 -0.36568 -1.83084 0
M  V30 8522 C 798.458 1.10436 -1.62168 0
M  V30 8523 O 797.583 1.85281 -1.11804 0
M  V30 8524 C 798.178 -0.656946 -3.3237 0
M  V30 8525 C 796.737 -0.331329 -3.74939 0
M  V30 8526 C 795.884 -0.914661 -2.61781 0
M  V30 8527 H 798.835 -0.941551 -1.27752 0
M  V30 8528 H 798.856 0.0679546 -3.80439 0
M  V30 8529 H 798.368 -1.72693 -3.47561 0
M  V30 8530 H 796.469 0.732426 -3.6533 0
M  V30 8531 H 796.582 -0.820655 -4.72019 0
M  V30 8532 H 794.946 -0.34063 -2.52412 0
M  V30 8533 H 795.729 -1.98949 -2.79775 0
M  V30 8534 N 798.174 1.49689 -0.493057 0
M  V30 8535 C 799.137 2.27502 0.278485 0
M  V30 8536 C 800.137 1.33184 0.901037 0
M  V30 8537 O 801.327 1.56415 0.766801 0
M  V30 8538 C 798.459 3.10881 1.39878 0
M  V30 8539 H 799.652 2.97163 -0.404219 0
M  V30 8540 H 797.205 1.54324 -0.247774 0
M  V30 8541 H 797.94 2.45767 2.11587 0
M  V30 8542 H 797.725 3.80219 0.957924 0
M  V30 8543 H 799.215 3.69673 1.94247 0
M  V30 8544 N 799.652 0.226554 1.55963 0
M  V30 8545 C 800.898 -0.404387 1.98727 0
M  V30 8546 C 801.231 -1.59059 1.11418 0
M  V30 8547 O 800.506 -1.93729 0.172971 0
M  V30 8548 C 800.789 -0.834081 3.50307 0
M  V30 8549 C 800.642 0.356104 4.48388 0
M  V30 8550 C 801.961 -1.68845 4.06423 0
M  V30 8551 H 799.08 -0.145515 0.722492 0
M  V30 8552 H 801.722 0.323791 1.87221 0
M  V30 8553 H 799.872 -1.45454 3.60244 0
M  V30 8554 H 801.544 0.99432 4.50456 0
M  V30 8555 H 799.787 1.0027 4.22053 0
M  V30 8556 H 800.458 0.0124333 5.51999 0
M  V30 8557 H 802.934 -1.16489 3.99461 0
M  V30 8558 H 801.81 -1.958 5.1279 0
M  V30 8559 H 802.071 -2.65347 3.53615 0
M  V30 8560 N 801.13 -1.57531 -0.0467866 0
M  V30 8561 C 802.062 -2.02156 -1.08007 0
M  V30 8562 C 803.075 -0.931434 -1.33522 0
M  V30 8563 O 804.264 -1.209 -1.31321 0
M  V30 8564 C 801.364 -2.36675 -2.42566 0
M  V30 8565 C 800.537 -3.67848 -2.36658 0
M  V30 8566 C 799.596 -3.89754 -3.53523 0
M  V30 8567 O 798.622 -4.61036 -3.33818 0
M  V30 8568 N 799.824 -3.34025 -4.74771 0
M  V30 8569 H 802.589 -2.91414 -0.699845 0
M  V30 8570 H 800.15 -1.60185 -0.235041 0
M  V30 8571 H 802.142 -2.48482 -3.19435 0
M  V30 8572 H 800.712 -1.53178 -2.72498 0
M  V30 8573 H 799.932 -3.66561 -1.45005 0
M  V30 8574 H 801.22 -4.53931 -2.29835 0
M  V30 8575 H 800.618 -2.76214 -4.93683 0
M  V30 8576 H 799.175 -3.51241 -5.49066 0
M  V30 8577 N 802.608 0.318715 -1.54344 0
M  V30 8578 C 803.555 1.39242 -1.84066 0
M  V30 8579 C 804.525 1.51175 -0.688134 0
M  V30 8580 O 805.71 1.66318 -0.935039 0
M  V30 8581 C 802.85 2.75528 -2.07794 0
M  V30 8582 C 801.963 2.72187 -3.35467 0
M  V30 8583 C 801.098 4.00352 -3.4913 0
M  V30 8584 C 800.137 3.91338 -4.7066 0
M  V30 8585 N 799.274 5.11242 -4.81224 0
M  V30 8586 H 804.114 1.13196 -2.75664 0
M  V30 8587 H 801.651 0.547857 -1.36517 0
M  V30 8588 H 803.609 3.54763 -2.19543 0
M  V30 8589 H 802.239 2.99873 -1.19482 0
M  V30 8590 H 801.291 1.84917 -3.3243 0
M  V30 8591 H 802.603 2.61411 -4.24812 0
M  V30 8592 H 801.757 4.88019 -3.60448 0
M  V30 8593 H 800.496 4.1394 -2.57886 0
M  V30 8594 H 799.501 3.02055 -4.59394 0
M  V30 8595 H 800.726 3.7931 -5.63294 0
M  V30 8596 H 798.672 5.25327 -3.92897 0
M  V30 8597 H 798.589 5.0282 -5.64543 0
M  V30 8598 H 799.857 6.0061 -4.96879 0
M  V30 8599 N 804.086 1.46499 0.581025 0
M  V30 8600 C 805.334 1.51596 1.33653 0
M  V30 8601 C 805.655 0.169859 1.94259 0
M  V30 8602 O 804.925 -0.803776 1.78651 0
M  V30 8603 H 803.505 0.558346 0.496244 0
M  V30 8604 H 806.167 1.8264 0.680338 0
M  V30 8605 H 805.263 2.26956 2.14237 0
M  V30 8606 N 805.565 -0.825799 1.34232 0
M  V30 8607 C 806.814 -1.57686 1.2577 0
M  V30 8608 C 807.127 -1.94848 -0.171372 0
M  V30 8609 O 808.333 -2.68854 -0.378123 0
M  V30 8610 C 806.789 -2.84478 2.20454 0
M  V30 8611 C 806.397 -2.54629 3.68603 0
M  V30 8612 C 808.141 -3.625 2.20893 0
M  V30 8613 C 806.048 -3.77597 4.55164 0
M  V30 8614 H 804.978 -0.591809 0.467203 0
M  V30 8615 H 807.629 -0.909421 1.59379 0
M  V30 8616 H 806.011 -3.52832 1.79793 0
M  V30 8617 H 807.185 -1.94404 4.17784 0
M  V30 8618 H 805.5 -1.89888 3.70582 0
M  V30 8619 H 808.097 -4.538 2.82789 0
M  V30 8620 H 808.44 -3.98404 1.20746 0
M  V30 8621 H 808.973 -3.01086 2.59985 0
M  V30 8622 H 805.712 -3.46815 5.56237 0
M  V30 8623 H 805.232 -4.37116 4.10719 0
M  V30 8624 H 806.911 -4.45039 4.69627 0
M  V30 8625 N 807.043 -1.17915 -1.04565 0
M  V30 8626 C 807.953 -0.916449 -2.15959 0
M  V30 8627 C 808.969 0.117655 -1.73602 0
M  V30 8628 O 810.145 -0.063089 -2.01301 0
M  V30 8629 C 807.21 -0.440262 -3.43893 0
M  V30 8630 C 806.271 -1.54172 -4.00661 0
M  V30 8631 C 805.504 -1.08816 -5.22489 0
M  V30 8632 O 805.727 0.0551547 -5.70373 0
M  V30 8633 O 804.661 -1.88383 -5.7166 0
M  V30 8634 H 808.487 -1.8484 -2.40972 0
M  V30 8635 H 806.072 -0.960552 -1.14428 0
M  V30 8636 H 807.954 -0.182537 -4.21004 0
M  V30 8637 H 806.629 0.46346 -3.20365 0
M  V30 8638 H 805.536 -1.85341 -3.24961 0
M  V30 8639 H 806.869 -2.42139 -4.2852 0
M  V30 8640 N 808.521 1.23394 -0.980386 0
M  V30 8641 C 809.431 2.28561 -0.528864 0
M  V30 8642 C 810.447 1.68946 0.416329 0
M  V30 8643 O 811.623 1.99355 0.286251 0
M  V30 8644 C 808.688 3.46323 0.16155 0
M  V30 8645 C 807.749 4.21297 -0.825044 0
M  V30 8646 C 806.982 5.33437 -0.167483 0
M  V30 8647 O 807.205 5.60812 1.04146 0
M  V30 8648 O 806.139 5.95637 -0.866047 0
M  V30 8649 H 809.965 2.69326 -1.40346 0
M  V30 8650 H 807.55 1.29325 -0.748019 0
M  V30 8651 H 809.432 4.17811 0.548841 0
M  V30 8652 H 808.107 3.0751 1.01092 0
M  V30 8653 H 807.014 3.52134 -1.26303 0
M  V30 8654 H 808.347 4.6396 -1.64322 0
M  V30 8655 N 809.999 0.752036 1.385 0
M  V30 8656 C 810.962 0.131587 2.28822 0
M  V30 8657 C 811.962 -0.649149 1.47115 0
M  V30 8658 O 813.152 -0.475645 1.67581 0
M  V30 8659 C 810.284 -0.822101 3.30839 0
M  V30 8660 H 811.477 0.927551 2.85196 0
M  V30 8661 H 809.03 0.518945 1.47434 0
M  V30 8662 H 809.765 -1.6438 2.79553 0
M  V30 8663 H 809.55 -0.264689 3.91206 0
M  V30 8664 H 811.04 -1.25226 3.98382 0
M  V30 8665 N 811.477 -1.49425 0.500989 0
M  V30 8666 C 812.41 -2.25887 -0.324087 0
M  V30 8667 C 813.388 -1.30469 -0.970388 0
M  V30 8668 O 814.572 -1.59758 -1.00049 0
M  V30 8669 C 811.699 -3.05787 -1.45643 0
M  V30 8670 C 810.745 -4.16359 -0.924508 0
M  V30 8671 S 811.578 -5.35181 0.184707 0
M  V30 8672 C 812.734 -6.18636 -0.950806 0
M  V30 8673 H 812.967 -2.95519 0.324891 0
M  V30 8674 H 810.5 -1.51723 0.286289 0
M  V30 8675 H 812.458 -3.52405 -2.10525 0
M  V30 8676 H 811.119 -2.35624 -2.07703 0
M  V30 8677 H 810.312 -4.71781 -1.77311 0
M  V30 8678 H 809.914 -3.72331 -0.352907 0
M  V30 8679 H 812.206 -6.51581 -1.85603 0
M  V30 8680 H 813.149 -7.06761 -0.435212 0
M  V30 8681 H 813.557 -5.512 -1.21813 0
M  V30 8682 N 812.955 -0.234822 -1.55841 0
M  V30 8683 C 813.887 0.702346 -2.18174 0
M  V30 8684 C 814.9 1.14776 -1.15457 0
M  V30 8685 O 816.089 1.07662 -1.42377 0
M  V30 8686 C 813.189 1.96483 -2.76129 0
M  V30 8687 C 812.362 1.67283 -4.04148 0
M  V30 8688 C 811.421 2.7837 -4.46539 0
M  V30 8689 O 810.447 2.46272 -5.13166 0
M  V30 8690 N 811.649 4.07611 -4.1332 0
M  V30 8691 H 814.414 0.169074 -2.99223 0
M  V30 8692 H 811.975 -0.0543164 -1.61809 0
M  V30 8693 H 813.967 2.70016 -3.01452 0
M  V30 8694 H 812.537 2.40822 -1.99307 0
M  V30 8695 H 811.757 0.773278 -3.86541 0
M  V30 8696 H 813.045 1.45222 -4.87635 0
M  V30 8697 H 812.443 4.36527 -3.59806 0
M  V30 8698 H 811 4.77646 -4.43506 0
M  V30 8699 N 814.433 1.57553 0.0384317 0
M  V30 8700 C 815.658 1.93485 0.746872 0
M  V30 8701 C 816.083 0.834069 1.68597 0
M  V30 8702 O 815.441 -0.210902 1.80069 0
M  V30 8703 C 815.489 3.28463 1.4881 0
M  V30 8704 O 814.593 3.20051 2.60079 0
M  V30 8705 H 813.934 0.632675 0.201539 0
M  V30 8706 H 816.464 2.046 -0.00329815 0
M  V30 8707 H 816.474 3.63132 1.86009 0
M  V30 8708 H 815.149 4.08147 0.799297 0
M  V30 8709 H 813.726 2.96998 2.25492 0
M  V30 8710 N 815.911 -0.310526 1.54511 0
M  V30 8711 C 817.159 -1.04484 1.72996 0
M  V30 8712 C 817.48 -1.88118 0.513479 0
M  V30 8713 O 816.75 -1.90119 -0.472384 0
M  V30 8714 H 815.33 -0.388747 0.637875 0
M  V30 8715 H 817.992 -0.343811 1.91844 0
M  V30 8716 H 817.088 -1.70341 2.61515 0
M  V30 8717 N 817.389 -1.46805 -0.573248 0
M  V30 8718 C 818.8 -1.46655 -1.15539 0
M  V30 8719 C 819.151 -0.2125 -1.95046 0
M  V30 8720 O 818.276 0.683759 -2.05314 0
M  V30 8721 C 818.871 -2.65711 -2.10198 0
M  V30 8722 C 817.43 -2.68572 -2.63716 0
M  V30 8723 C 816.577 -2.39498 -1.39772 0
M  V30 8724 H 819.528 -1.54547 -0.36068 0
M  V30 8725 H 819.549 -2.41768 -2.93817 0
M  V30 8726 H 819.061 -3.56967 -1.52303 0
M  V30 8727 H 817.162 -1.81414 -3.25453 0
M  V30 8728 H 817.275 -3.68809 -3.05805 0
M  V30 8729 H 815.639 -1.89749 -1.69904 0
M  V30 8730 H 816.422 -3.32942 -0.836943 0
M  V30 8731 N 818.867 0.818669 -1.34668 0
M  V30 8732 C 819.797 1.94468 -1.29245 0
M  V30 8733 C 820.778 1.69257 -0.169101 0
M  V30 8734 O 821.963 1.90794 -0.362143 0
M  V30 8735 C 819.093 3.31001 -1.05145 0
M  V30 8736 C 818.047 3.70663 -2.13992 0
M  V30 8737 C 817.373 5.05226 -1.75074 0
M  V30 8738 C 818.673 3.82312 -3.55858 0
M  V30 8739 H 820.367 1.99263 -2.2346 0
M  V30 8740 H 817.913 0.957304 -1.07572 0
M  V30 8741 H 819.866 4.09364 -0.999949 0
M  V30 8742 H 818.59 3.26517 -0.0737312 0
M  V30 8743 H 817.249 2.94578 -2.18219 0
M  V30 8744 H 816.897 4.97233 -0.759518 0
M  V30 8745 H 816.597 5.32734 -2.47928 0
M  V30 8746 H 818.121 5.86042 -1.71427 0
M  V30 8747 H 819.535 4.50935 -3.5402 0
M  V30 8748 H 817.932 4.21278 -4.2737 0
M  V30 8749 H 819.002 2.84193 -3.9289 0
M  V30 8750 N 820.346 1.18468 1.03938 0
M  V30 8751 C 821.595 0.975193 1.76558 0
M  V30 8752 C 821.908 -0.495978 1.89207 0
M  V30 8753 O 823.114 -0.824009 2.58694 0
M  V30 8754 C 821.57 1.69579 3.17444 0
M  V30 8755 C 821.178 3.20636 3.12884 0
M  V30 8756 C 822.922 1.56917 3.94433 0
M  V30 8757 C 820.829 3.8533 4.48636 0
M  V30 8758 H 819.759 0.361244 0.66183 0
M  V30 8759 H 822.41 1.41854 1.16403 0
M  V30 8760 H 820.792 1.18022 3.78004 0
M  V30 8761 H 821.966 3.79228 2.61768 0
M  V30 8762 H 820.281 3.33454 2.49394 0
M  V30 8763 H 822.878 2.02611 4.94826 0
M  V30 8764 H 823.221 0.521638 4.13019 0
M  V30 8765 H 823.754 2.05762 3.40451 0
M  V30 8766 H 820.493 4.90136 4.35255 0
M  V30 8767 H 820.013 3.31526 4.99851 0
M  V30 8768 H 821.692 3.88269 5.17549 0
M  V30 8769 N 821.824 -1.22873 0.986916 0
M  V30 8770 C 823.072 -1.91084 0.658121 0
M  V30 8771 C 823.393 -1.77304 -0.811675 0
M  V30 8772 O 822.663 -1.15649 -1.58121 0
M  V30 8773 H 821.243 -0.707251 0.240427 0
M  V30 8774 H 823.905 -1.49357 1.25213 0
M  V30 8775 H 823.001 -2.98373 0.915428 0
M  V30 8776 N 823.302 -0.75937 -1.38099 0
M  V30 8777 C 824.549 -0.318113 -1.99986 0
M  V30 8778 C 824.877 1.10184 -1.6028 0
M  V30 8779 O 824.132 1.77015 -0.834524 0
M  V30 8780 C 824.431 -0.394999 -3.55211 0
M  V30 8781 C 824.097 -1.77143 -4.14646 0
M  V30 8782 C 822.759 -2.14811 -4.30592 0
M  V30 8783 C 825.111 -2.67407 -4.47373 0
M  V30 8784 C 822.439 -3.42203 -4.76565 0
M  V30 8785 C 824.791 -3.94196 -4.94765 0
M  V30 8786 C 823.455 -4.31925 -5.08918 0
M  V30 8787 H 822.725 -0.116406 -0.7318 0
M  V30 8788 H 825.372 -0.97098 -1.65058 0
M  V30 8789 H 823.677 0.341426 -3.9031 0
M  V30 8790 H 825.374 -0.0350722 -4.00985 0
M  V30 8791 H 821.964 -1.46864 -4.02652 0
M  V30 8792 H 826.148 -2.39569 -4.3465 0
M  V30 8793 H 821.404 -3.71346 -4.85708 0
M  V30 8794 H 825.578 -4.64276 -5.19057 0
M  V30 8795 H 823.205 -5.30699 -5.443 0
M  V30 8796 N 824.78 1.49157 -0.508906 0
M  V30 8797 C 826.191 1.86593 -0.0630975 0
M  V30 8798 C 826.542 1.42051 1.35337 0
M  V30 8799 O 825.667 0.801866 2.00995 0
M  V30 8800 C 826.262 3.38629 -0.107729 0
M  V30 8801 C 824.821 3.75336 0.282776 0
M  V30 8802 C 823.968 2.7317 -0.4768 0
M  V30 8803 H 826.919 1.41362 -0.72128 0
M  V30 8804 H 826.94 3.74271 0.685689 0
M  V30 8805 H 826.452 3.71017 -1.13876 0
M  V30 8806 H 824.553 3.48558 1.31675 0
M  V30 8807 H 824.666 4.79081 -0.0421728 0
M  V30 8808 H 823.03 2.54591 0.0743552 0
M  V30 8809 H 823.813 3.08403 -1.50807 0
M  V30 8810 N 826.258 0.243083 1.55714 0
M  V30 8811 C 827.504 -0.383287 1.99145 0
M  V30 8812 C 827.837 -1.57868 1.13098 0
M  V30 8813 O 827.112 -1.93535 0.193509 0
M  V30 8814 C 827.395 -0.796879 3.51172 0
M  V30 8815 C 827.248 0.403642 4.47985 0
M  V30 8816 C 828.567 -1.64525 4.08191 0
M  V30 8817 H 825.686 -0.137843 0.723995 0
M  V30 8818 H 828.328 0.343631 1.86867 0
M  V30 8819 H 826.478 -1.41625 3.61766 0
M  V30 8820 H 828.15 1.04204 4.49376 0
M  V30 8821 H 826.393 1.04741 4.20965 0
M  V30 8822 H 827.064 0.0709794 5.51954 0
M  V30 8823 H 829.54 -1.12246 4.00674 0
M  V30 8824 H 828.416 -1.9035 5.14838 0
M  V30 8825 H 828.677 -2.61582 3.56409 0
M  V30 8826 N 827.736 -1.57571 -0.0300757 0
M  V30 8827 C 828.982 -1.89506 -0.722159 0
M  V30 8828 C 829.315 -0.840699 -1.7506 0
M  V30 8829 O 828.59 0.144358 -1.93964 0
M  V30 8830 C 828.873 -3.32081 -1.39262 0
M  V30 8831 C 828.726 -4.48211 -0.377768 0
M  V30 8832 C 830.045 -3.73557 -2.32687 0
M  V30 8833 H 827.164 -0.689213 -0.261064 0
M  V30 8834 H 829.806 -1.89994 0.0150388 0
M  V30 8835 H 827.956 -3.31796 -2.02098 0
M  V30 8836 H 829.628 -4.6063 0.248591 0
M  V30 8837 H 827.871 -4.3274 0.303045 0
M  V30 8838 H 828.542 -5.44854 -0.885347 0
M  V30 8839 H 831.018 -3.75202 -1.79896 0
M  V30 8840 H 829.894 -4.74125 -2.7658 0
M  V30 8841 H 830.155 -3.05759 -3.19317 0
M  V30 8842 N 829.214 0.302327 -1.54673 0
M  V30 8843 C 830.491 1.05721 -1.64567 0
M  V30 8844 C 830.871 2.0526 -0.493108 0
M  V30 8845 O 830.219 2.22729 0.510315 0
M  V30 8846 C 830.429 1.74025 -3.02517 0
M  V30 8847 C 831.777 2.26271 -3.59286 0
M  V30 8848 O 832.801 1.8406 -3.0496 0
M  V30 8849 O 831.66 3.0361 -4.54404 0
M  V30 8850 H 828.754 0.488577 -0.667249 0
M  V30 8851 H 831.3 0.300521 -1.67018 0
M  V30 8852 H 830.072 1.0174 -3.77842 0
M  V30 8853 H 829.695 2.56454 -3.03838 0
M  V30 8854 N 830.692 1.47107 0.565454 0
M  V30 8855 C 831.941 1.5257 1.31929 0
M  V30 8856 C 832.254 0.189092 1.94684 0
M  V30 8857 O 833.46 0.121657 2.71227 0
M  V30 8858 C 831.916 2.68914 2.39193 0
M  V30 8859 C 831.524 4.09069 1.82665 0
M  V30 8860 C 833.268 2.83663 3.1581 0
M  V30 8861 C 831.175 5.16726 2.87661 0
M  V30 8862 H 830.105 0.567869 0.496025 0
M  V30 8863 H 832.756 1.73361 0.60151 0
M  V30 8864 H 831.138 2.41486 3.13848 0
M  V30 8865 H 832.312 4.46364 1.14438 0
M  V30 8866 H 830.627 3.99135 1.1866 0
M  V30 8867 H 833.224 3.61261 3.94201 0
M  V30 8868 H 833.567 1.91804 3.69482 0
M  V30 8869 H 834.1 3.10821 2.48265 0
M  V30 8870 H 830.839 6.10433 2.38854 0
M  V30 8871 H 830.359 4.83957 3.54324 0
M  V30 8872 H 832.038 5.43319 3.51303 0
M  V30 8873 N 832.17 -0.811516 1.35101 0
M  V30 8874 C 833.117 -1.92308 1.27617 0
M  V30 8875 C 834.087 -1.6543 0.149091 0
M  V30 8876 O 835.272 -1.8789 0.331974 0
M  V30 8877 C 832.412 -3.28768 1.04908 0
M  V30 8878 C 831.525 -3.67865 2.26493 0
M  V30 8879 C 830.66 -4.9333 1.96974 0
M  V30 8880 C 829.699 -5.25041 3.1464 0
M  V30 8881 N 828.836 -6.41685 2.84929 0
M  V30 8882 H 833.676 -1.98041 2.22674 0
M  V30 8883 H 831.213 -0.968755 1.10696 0
M  V30 8884 H 833.171 -4.07426 0.897749 0
M  V30 8885 H 831.801 -3.22517 0.135151 0
M  V30 8886 H 830.853 -2.84507 2.52507 0
M  V30 8887 H 832.165 -3.87263 3.14371 0
M  V30 8888 H 831.319 -5.79803 1.78643 0
M  V30 8889 H 830.058 -4.75958 1.06374 0
M  V30 8890 H 829.063 -4.3706 3.33554 0
M  V30 8891 H 830.288 -5.44346 4.06035 0
M  V30 8892 H 828.234 -6.25747 1.96918 0
M  V30 8893 H 828.151 -6.6131 3.66341 0
M  V30 8894 H 829.419 -7.31198 2.70128 0
M  V30 8895 N 833.648 -1.19017 -1.03309 0
M  V30 8896 C 834.894 -0.991681 -1.769 0
M  V30 8897 C 835.227 0.476813 -1.88255 0
M  V30 8898 O 834.502 1.35407 -1.39625 0
M  V30 8899 C 834.785 -1.65627 -3.19749 0
M  V30 8900 C 834.638 -3.19813 -3.1629 0
M  V30 8901 C 835.957 -1.37579 -4.18043 0
M  V30 8902 H 833.076 -0.361674 -0.642153 0
M  V30 8903 H 835.718 -1.46795 -1.20628 0
M  V30 8904 H 833.868 -1.25132 -3.67796 0
M  V30 8905 H 835.54 -3.69494 -2.76174 0
M  V30 8906 H 833.783 -3.51578 -2.54117 0
M  V30 8907 H 834.454 -3.61457 -4.17196 0
M  V30 8908 H 836.93 -1.72679 -3.78578 0
M  V30 8909 H 835.806 -1.86636 -5.16196 0
M  V30 8910 H 836.067 -0.300118 -4.4108 0
M  V30 8911 N 835.127 1.22348 -0.993418 0
M  V30 8912 C 836.355 1.95125 -0.688021 0
M  V30 8913 C 836.77 1.73377 0.747388 0
M  V30 8914 O 836.127 1.03317 1.50439 0
M  V30 8915 C 836.178 3.47819 -0.985097 0
M  V30 8916 O 835.899 3.68838 -2.3641 0
M  V30 8917 C 837.4 4.37779 -0.697474 0
M  V30 8918 H 834.62 0.62087 -0.254481 0
M  V30 8919 H 837.164 1.55485 -1.32833 0
M  V30 8920 H 835.319 3.85426 -0.390583 0
M  V30 8921 H 835.733 4.63032 -2.46377 0
M  V30 8922 H 837.207 5.43666 -0.955604 0
M  V30 8923 H 837.684 4.37651 0.368524 0
M  V30 8924 H 838.29 4.05799 -1.27306 0
M  V30 8925 N 836.605 0.766683 1.37694 0
M  V30 8926 C 837.535 0.163432 2.32927 0
M  V30 8927 C 838.516 -0.688861 1.55527 0
M  V30 8928 O 839.701 -0.627363 1.83787 0
M  V30 8929 C 836.831 -0.720416 3.39746 0
M  V30 8930 C 835.785 0.0301718 4.27989 0
M  V30 8931 C 835.111 -0.972788 5.25776 0
M  V30 8932 C 836.411 1.20623 5.0818 0
M  V30 8933 H 838.105 0.958988 2.83626 0
M  V30 8934 H 835.651 0.462601 1.36367 0
M  V30 8935 H 837.604 -1.15221 4.05342 0
M  V30 8936 H 836.328 -1.54844 2.8756 0
M  V30 8937 H 834.987 0.442685 3.63917 0
M  V30 8938 H 834.635 -1.79522 4.69873 0
M  V30 8939 H 834.335 -0.475145 5.85676 0
M  V30 8940 H 835.859 -1.40362 5.94248 0
M  V30 8941 H 837.273 0.851341 5.66944 0
M  V30 8942 H 835.67 1.63561 5.7738 0
M  V30 8943 H 836.74 2.01281 4.41151 0
M  V30 8944 N 838.083 -1.48885 0.516809 0
M  V30 8945 C 839.313 -2.06592 -0.018375 0
M  V30 8946 C 839.721 -1.37543 -1.29917 0
M  V30 8947 O 839.064 -0.452527 -1.78039 0
M  V30 8948 C 839.126 -3.58016 -0.326315 0
M  V30 8949 C 838.79 -4.48853 0.859072 0
M  V30 8950 C 839.787 -4.89422 1.75391 0
M  V30 8951 C 837.472 -4.90937 1.06235 0
M  V30 8952 C 839.466 -5.70831 2.83604 0
M  V30 8953 C 837.153 -5.72119 2.14763 0
M  V30 8954 C 838.151 -6.11972 3.03281 0
M  V30 8955 O 837.839 -6.91527 4.09934 0
M  V30 8956 H 837.571 -0.675559 0.0244023 0
M  V30 8957 H 840.125 -1.92442 0.718005 0
M  V30 8958 H 838.355 -3.70231 -1.1165 0
M  V30 8959 H 840.044 -3.97898 -0.801999 0
M  V30 8960 H 840.81 -4.57542 1.60875 0
M  V30 8961 H 836.689 -4.59409 0.382677 0
M  V30 8962 H 840.233 -6.01857 3.52724 0
M  V30 8963 H 836.13 -6.03412 2.29268 0
M  V30 8964 H 836.898 -7.0986 4.07482 0
M  V30 8965 N 839.561 -0.251338 -1.55583 0
M  V30 8966 C 840.838 0.422729 -1.90977 0
M  V30 8967 C 841.218 1.75534 -1.17265 0
M  V30 8968 O 840.566 2.26632 -0.291588 0
M  V30 8969 C 840.776 0.586448 -3.44037 0
M  V30 8970 C 842.124 0.880294 -4.15375 0
M  V30 8971 O 843.148 0.672148 -3.49801 0
M  V30 8972 O 842.007 1.27694 -5.31372 0
M  V30 8973 H 839.101 0.227622 -0.795058 0
M  V30 8974 H 841.647 -0.295733 -1.67103 0
M  V30 8975 H 840.419 -0.352327 -3.89711 0
M  V30 8976 H 840.042 1.35528 -3.73789 0
M  V30 8977 N 841.039 1.57585 0.0217189 0
M  V30 8978 C 842.287 1.89231 0.709641 0
M  V30 8979 C 842.608 0.849964 1.75501 0
M  V30 8980 O 841.878 -0.115485 1.95559 0
M  V30 8981 H 840.458 0.69838 0.265092 0
M  V30 8982 H 843.12 1.94895 -0.0140688 0
M  V30 8983 H 842.216 2.88333 1.19459 0
M  V30 8984 N 842.517 -0.29412 1.54831 0
M  V30 8985 C 843.742 -1.05156 1.78765 0
M  V30 8986 C 844.167 -1.79916 0.548809 0
M  V30 8987 O 843.525 -1.74243 -0.500909 0
M  V30 8988 C 843.573 -2.00242 2.99893 0
M  V30 8989 O 842.677 -3.08662 2.73499 0
M  V30 8990 H 842.018 -0.301737 0.591482 0
M  V30 8991 H 844.548 -0.329449 2.0193 0
M  V30 8992 H 844.558 -2.42583 3.28051 0
M  V30 8993 H 843.233 -1.45235 3.89717 0
M  V30 8994 H 841.81 -2.70786 2.56377 0
M  V30 8995 N 843.995 -1.47404 -0.557645 0
M  V30 8996 C 845.225 -1.57393 -1.33832 0
M  V30 8997 C 845.633 -0.222978 -1.87881 0
M  V30 8998 O 844.976 0.793854 -1.65661 0
M  V30 8999 C 845.038 -2.53882 -2.54528 0
M  V30 9000 C 844.702 -3.99585 -2.21767 0
M  V30 9001 C 845.699 -4.88082 -1.79087 0
M  V30 9002 C 843.384 -4.44917 -2.3314 0
M  V30 9003 C 845.378 -6.1993 -1.48209 0
M  V30 9004 C 843.065 -5.76793 -2.01874 0
M  V30 9005 C 844.063 -6.64121 -1.59476 0
M  V30 9006 O 843.751 -7.93546 -1.28607 0
M  V30 9007 H 843.483 -0.534172 -0.41429 0
M  V30 9008 H 846.037 -1.93733 -0.682404 0
M  V30 9009 H 844.267 -2.12609 -3.23009 0
M  V30 9010 H 845.956 -2.54003 -3.16603 0
M  V30 9011 H 846.722 -4.54307 -1.69794 0
M  V30 9012 H 842.601 -3.77152 -2.65099 0
M  V30 9013 H 846.145 -6.88049 -1.15043 0
M  V30 9014 H 842.042 -6.1011 -2.10799 0
M  V30 9015 H 842.81 -8.06046 -1.42241 0
M  V30 9016 N 845.473 0.80434 -1.35529 0
M  V30 9017 C 846.423 1.90565 -1.25175 0
M  V30 9018 C 847.407 1.60232 -0.146512 0
M  V30 9019 O 848.599 1.72918 -0.377943 0
M  V30 9020 C 845.728 3.2754 -1.02823 0
M  V30 9021 C 844.814 3.63932 -2.17748 0
M  V30 9022 N 845.205 3.71744 -3.42986 0
M  V30 9023 C 843.503 3.93901 -2.09184 0
M  V30 9024 C 844.204 4.03944 -4.18574 0
M  V30 9025 N 843.18 4.18146 -3.47355 0
M  V30 9026 H 846.982 1.9481 -2.20059 0
M  V30 9027 H 844.496 0.99905 -1.28034 0
M  V30 9028 H 846.493 4.06281 -0.934941 0
M  V30 9029 H 845.153 3.2458 -0.0882551 0
M  V30 9030 H 846.164 3.54765 -3.77309 0
M  V30 9031 H 842.841 3.98954 -1.23054 0
M  V30 9032 H 844.231 4.17036 -5.26811 0
M  V30 9033 N 846.951 1.19563 1.02676 0
M  V30 9034 C 847.861 0.950691 2.14474 0
M  V30 9035 C 848.877 -0.0900219 1.73767 0
M  V30 9036 O 850.053 0.0951063 2.01175 0
M  V30 9037 C 847.118 0.494917 3.43149 0
M  V30 9038 C 846.179 1.60527 3.98158 0
M  V30 9039 C 845.412 1.17115 5.20692 0
M  V30 9040 O 845.635 0.0355937 5.70389 0
M  V30 9041 O 844.569 1.97454 5.68591 0
M  V30 9042 H 848.395 1.88651 2.38001 0
M  V30 9043 H 845.98 0.978635 1.12885 0
M  V30 9044 H 847.862 0.249492 4.20661 0
M  V30 9045 H 846.537 -0.412434 3.21062 0
M  V30 9046 H 845.444 1.90487 3.21971 0
M  V30 9047 H 846.777 2.48925 4.24614 0
M  V30 9048 N 848.429 -1.21819 0.999893 0
M  V30 9049 C 849.675 -1.91035 0.680701 0
M  V30 9050 C 850.008 -1.77582 -0.786021 0
M  V30 9051 O 849.283 -1.14917 -1.56921 0
M  V30 9052 C 849.566 -3.43013 1.0961 0
M  V30 9053 C 849.419 -3.65481 2.6219 0
M  V30 9054 C 850.738 -4.35204 0.654616 0
M  V30 9055 H 847.857 -0.693748 0.248763 0
M  V30 9056 H 850.499 -1.43555 1.24466 0
M  V30 9057 H 848.649 -3.83581 0.616253 0
M  V30 9058 H 850.321 -3.34273 3.17899 0
M  V30 9059 H 848.564 -3.09522 3.03938 0
M  V30 9060 H 849.235 -4.71945 2.86307 0
M  V30 9061 H 851.711 -4.0219 1.06688 0
M  V30 9062 H 850.587 -5.40198 0.973492 0
M  V30 9063 H 850.848 -4.3986 -0.444458 0
M  V30 9064 N 849.908 -0.773975 -1.37286 0
M  V30 9065 C 851.185 -0.263942 -1.93811 0
M  V30 9066 C 851.565 1.24138 -1.70743 0
M  V30 9067 O 850.913 2.02557 -1.05749 0
M  V30 9068 C 851.123 -0.639753 -3.43086 0
M  V30 9069 C 852.471 -0.610796 -4.20184 0
M  V30 9070 O 853.495 -0.579278 -3.51458 0
M  V30 9071 O 852.354 -0.639862 -5.42741 0
M  V30 9072 H 849.448 -0.0614331 -0.824715 0
M  V30 9073 H 851.994 -0.855477 -1.46559 0
M  V30 9074 H 850.766 -1.67856 -3.53469 0
M  V30 9075 H 850.389 -0.0212827 -3.97594 0
M  V30 9076 N 851.386 1.48609 -0.524698 0
M  V30 9077 C 852.611 2.07398 0.00952139 0
M  V30 9078 C 853.036 1.37939 1.27884 0
M  V30 9079 O 852.394 0.443633 1.75788 0
M  V30 9080 C 852.442 3.59916 0.221956 0
M  V30 9081 O 851.546 3.91647 1.29175 0
M  V30 9082 H 850.887 0.662981 -0.0367729 0
M  V30 9083 H 853.417 1.91092 -0.7311 0
M  V30 9084 H 853.427 4.05552 0.446236 0
M  V30 9085 H 852.102 4.09876 -0.705306 0
M  V30 9086 H 850.679 3.57796 1.05055 0
M  V30 9087 N 852.864 0.259585 1.55447 0
M  V30 9088 C 854.089 -0.368317 2.04103 0
M  V30 9089 C 854.514 -1.49827 1.13725 0
M  V30 9090 O 853.872 -1.80814 0.132705 0
M  V30 9091 C 853.92 -0.841506 3.50644 0
M  V30 9092 O 853.024 -1.95008 3.63381 0
M  V30 9093 H 852.365 -0.0785227 0.659341 0
M  V30 9094 H 854.895 0.389349 2.00861 0
M  V30 9095 H 854.905 -1.14138 3.9171 0
M  V30 9096 H 853.58 -0.0147001 4.15897 0
M  V30 9097 H 852.157 -1.65393 3.34215 0
M  V30 9098 N 854.342 -1.57594 -0.0133615 0
M  V30 9099 C 855.252 -2.10991 -1.02566 0
M  V30 9100 C 856.268 -1.05208 -1.3859 0
M  V30 9101 O 857.444 -1.37034 -1.47593 0
M  V30 9102 C 854.509 -2.59165 -2.30292 0
M  V30 9103 C 853.57 -3.79495 -2.00704 0
M  V30 9104 C 852.803 -4.25361 -3.22341 0
M  V30 9105 O 853.026 -3.70645 -4.33565 0
M  V30 9106 O 851.96 -5.17649 -3.07121 0
M  V30 9107 H 855.786 -2.97678 -0.601806 0
M  V30 9108 H 853.371 -1.47598 -0.23135 0
M  V30 9109 H 855.253 -2.90409 -3.05354 0
M  V30 9110 H 853.928 -1.75582 -2.71942 0
M  V30 9111 H 852.835 -3.53245 -1.23161 0
M  V30 9112 H 854.168 -4.64109 -1.639 0
M  V30 9113 N 855.82 0.285905 -1.54985 0
M  V30 9114 C 856.753 1.37817 -1.81884 0
M  V30 9115 C 857.731 1.4811 -0.670988 0
M  V30 9116 O 858.915 1.64936 -0.912595 0
M  V30 9117 C 856.042 2.75587 -1.969 0
M  V30 9118 C 855.088 2.82643 -3.19398 0
M  V30 9119 S 855.921 2.43199 -4.7709 0
M  V30 9120 C 857.077 3.82969 -4.95061 0
M  V30 9121 H 857.31 1.14794 -2.74244 0
M  V30 9122 H 854.843 0.484843 -1.4659 0
M  V30 9123 H 856.801 3.54932 -2.06236 0
M  V30 9124 H 855.462 2.9587 -1.05451 0
M  V30 9125 H 854.655 3.8373 -3.26753 0
M  V30 9126 H 854.257 2.11306 -3.08586 0
M  V30 9127 H 856.549 4.78117 -4.80011 0
M  V30 9128 H 857.492 3.80575 -5.97133 0
M  V30 9129 H 857.9 3.73673 -4.23118 0
M  V30 9130 N 857.298 1.47698 0.54982 0
M  V30 9131 C 858.261 1.60282 1.63837 0
M  V30 9132 C 859.261 0.477394 1.5355 0
M  V30 9133 O 860.451 0.742665 1.57576 0
M  V30 9134 C 857.583 1.55431 3.03404 0
M  V30 9135 H 858.776 2.57325 1.54026 0
M  V30 9136 H 856.329 1.35999 0.770329 0
M  V30 9137 H 857.064 0.597912 3.1874 0
M  V30 9138 H 856.849 2.37116 3.12279 0
M  V30 9139 H 858.339 1.6739 3.82584 0
M  V30 9140 N 858.776 -0.797141 1.35954 0
M  V30 9141 C 860.023 -1.55468 1.29754 0
M  V30 9142 C 860.351 -1.94095 -0.125391 0
M  V30 9143 O 859.606 -1.62341 -1.09288 0
M  V30 9144 C 859.905 -2.84847 2.15863 0
M  V30 9145 C 859.571 -2.65394 3.64523 0
M  V30 9146 C 858.233 -2.59796 4.05042 0
M  V30 9147 C 860.585 -2.4727 4.58811 0
M  V30 9148 C 857.913 -2.3403 5.38002 0
M  V30 9149 C 860.265 -2.23032 5.91979 0
M  V30 9150 C 858.929 -2.15862 6.31633 0
M  V30 9151 H 858.199 -0.568897 0.474803 0
M  V30 9152 H 860.846 -0.920299 1.67937 0
M  V30 9153 H 859.151 -3.52712 1.70591 0
M  V30 9154 H 860.848 -3.42597 2.08395 0
M  V30 9155 H 857.438 -2.70602 3.32374 0
M  V30 9156 H 861.622 -2.506 4.28384 0
M  V30 9157 H 856.878 -2.26956 5.67715 0
M  V30 9158 H 861.052 -2.08001 6.64612 0
M  V30 9159 H 858.679 -1.9566 7.34589 0
M  V30 9160 N 860.254 -1.20106 -1.0204 0
M  V30 9161 C 861.201 -0.946468 -2.10501 0
M  V30 9162 C 862.171 0.121902 -1.65652 0
M  V30 9163 O 863.356 -0.0220244 -1.90787 0
M  V30 9164 C 860.496 -0.500499 -3.41451 0
M  V30 9165 C 859.609 -1.63659 -3.998 0
M  V30 9166 C 858.744 -1.14131 -5.18794 0
M  V30 9167 C 857.783 -2.25074 -5.69217 0
M  V30 9168 N 856.92 -1.76791 -6.79477 0
M  V30 9169 H 861.76 -1.87506 -2.31615 0
M  V30 9170 H 859.297 -0.934693 -1.13587 0
M  V30 9171 H 861.255 -0.223276 -4.16602 0
M  V30 9172 H 859.885 0.391099 -3.20422 0
M  V30 9173 H 858.937 -2.02882 -3.21781 0
M  V30 9174 H 860.249 -2.47213 -4.33229 0
M  V30 9175 H 859.403 -0.819826 -6.01135 0
M  V30 9176 H 858.142 -0.275615 -4.86921 0
M  V30 9177 H 857.147 -2.58043 -4.85483 0
M  V30 9178 H 858.372 -3.12114 -6.03127 0
M  V30 9179 H 856.318 -0.925428 -6.4944 0
M  V30 9180 H 856.235 -2.53928 -7.12079 0
M  V30 9181 H 857.503 -1.47631 -7.65392 0
M  V30 9182 N 861.732 1.21287 -1.00634 0
M  V30 9183 C 862.981 1.89706 -0.685178 0
M  V30 9184 C 863.294 1.79044 0.787566 0
M  V30 9185 O 864.5 2.42502 1.22086 0
M  V30 9186 C 862.956 3.40176 -1.17508 0
M  V30 9187 C 862.564 3.59446 -2.674 0
M  V30 9188 C 864.308 4.14213 -0.928869 0
M  V30 9189 C 862.215 5.03688 -3.09923 0
M  V30 9190 H 861.145 0.710434 -0.252586 0
M  V30 9191 H 863.796 1.37277 -1.21768 0
M  V30 9192 H 862.178 3.91867 -0.570622 0
M  V30 9193 H 863.352 3.18188 -3.33306 0
M  V30 9194 H 861.667 2.98764 -2.9005 0
M  V30 9195 H 864.264 5.20546 -1.22212 0
M  V30 9196 H 864.607 4.16082 0.134859 0
M  V30 9197 H 865.14 3.68591 -1.49619 0
M  V30 9198 H 861.879 5.06968 -4.15529 0
M  V30 9199 H 861.399 5.45796 -2.4873 0
M  V30 9200 H 863.078 5.72204 -3.0198 0
M  V30 9201 N 863.21 0.781244 1.36873 0
M  V30 9202 C 864.173 0.180094 2.28491 0
M  V30 9203 C 865.173 -0.617798 1.48458 0
M  V30 9204 O 866.363 -0.439991 1.68552 0
M  V30 9205 C 863.495 -0.751741 3.32508 0
M  V30 9206 H 864.688 0.987837 2.83164 0
M  V30 9207 H 862.241 0.550102 1.463 0
M  V30 9208 H 862.976 -1.58413 2.82977 0
M  V30 9209 H 862.761 -0.181649 3.91679 0
M  V30 9210 H 864.251 -1.16748 4.00949 0
M  V30 9211 N 864.689 -1.48329 0.532571 0
M  V30 9212 C 865.937 -2.021 -0.000581206 0
M  V30 9213 C 866.258 -1.4117 -1.34522 0
M  V30 9214 O 865.528 -0.578005 -1.87179 0
M  V30 9215 H 864.108 -0.746993 -0.00320281 0
M  V30 9216 H 866.77 -1.82011 0.696991 0
M  V30 9217 H 865.866 -3.11917 -0.106991 0
M  V30 9218 N 866.167 -0.267825 -1.55308 0
M  V30 9219 C 867.392 0.357487 -2.04296 0
M  V30 9220 C 867.817 1.49222 -1.14518 0
M  V30 9221 O 867.175 1.80741 -0.142292 0
M  V30 9222 C 867.223 0.822899 -3.51085 0
M  V30 9223 O 866.327 1.93078 -3.6441 0
M  V30 9224 H 865.668 0.075025 -0.659748 0
M  V30 9225 H 868.198 -0.399996 -2.00652 0
M  V30 9226 H 868.208 1.12059 -3.92309 0
M  V30 9227 H 866.883 -0.0073562 -4.15899 0
M  V30 9228 H 865.46 1.63618 -3.35087 0
M  V30 9229 N 867.645 1.57599 0.00500368 0
M  V30 9230 C 868.578 2.03541 1.03181 0
M  V30 9231 C 869.556 0.924301 1.33774 0
M  V30 9232 O 870.74 1.19204 1.46023 0
M  V30 9233 C 867.867 2.42879 2.36067 0
M  V30 9234 C 866.913 3.64673 2.21169 0
M  V30 9235 S 867.746 5.12805 1.54243 0
M  V30 9236 C 868.902 5.55408 2.88569 0
M  V30 9237 H 869.135 2.90316 0.640598 0
M  V30 9238 H 866.668 1.52886 0.215722 0
M  V30 9239 H 868.626 2.66212 3.12476 0
M  V30 9240 H 867.287 1.56512 2.72329 0
M  V30 9241 H 866.48 3.89932 3.19326 0
M  V30 9242 H 866.082 3.41316 1.52904 0
M  V30 9243 H 868.374 5.57563 3.84876 0
M  V30 9244 H 869.317 6.55418 2.68016 0
M  V30 9245 H 869.725 4.82961 2.92249 0
M  V30 9246 N 869.123 -0.277682 1.55134 0
M  V30 9247 C 870.086 -1.32635 1.86924 0
M  V30 9248 C 871.086 -1.42578 0.743507 0
M  V30 9249 O 872.276 -1.4181 1.01171 0
M  V30 9250 C 869.408 -2.70832 2.07034 0
M  V30 9251 H 870.601 -1.0568 2.80663 0
M  V30 9252 H 868.154 -0.515517 1.47554 0
M  V30 9253 H 868.889 -3.02974 1.15661 0
M  V30 9254 H 868.674 -2.65001 2.88993 0
M  V30 9255 H 870.164 -3.46611 2.32918 0
M  V30 9256 N 870.601 -1.47988 -0.541979 0
M  V30 9257 C 871.85 -1.5465 -1.29485 0
M  V30 9258 C 872.163 -0.220041 -1.94358 0
M  V30 9259 O 873.369 -0.164792 -2.70999 0
M  V30 9260 C 871.825 -2.72685 -2.34885 0
M  V30 9261 C 871.433 -4.11923 -1.76134 0
M  V30 9262 C 873.177 -2.88651 -3.11257 0
M  V30 9263 C 871.084 -5.21237 -2.79404 0
M  V30 9264 H 870.014 -0.575688 -0.486928 0
M  V30 9265 H 872.665 -1.74296 -0.573853 0
M  V30 9266 H 871.047 -2.46448 -3.09966 0
M  V30 9267 H 872.221 -4.48128 -1.07322 0
M  V30 9268 H 870.536 -4.00972 -1.12295 0
M  V30 9269 H 873.133 -3.67487 -3.88404 0
M  V30 9270 H 873.476 -1.97658 -3.66384 0
M  V30 9271 H 874.009 -3.14731 -2.43288 0
M  V30 9272 H 870.748 -6.14156 -2.29113 0
M  V30 9273 H 870.268 -4.89533 -3.4658 0
M  V30 9274 H 871.947 -5.48839 -3.42615 0
M  V30 9275 N 872.079 0.78992 -1.36375 0
M  V30 9276 C 873.026 1.90254 -1.3066 0
M  V30 9277 C 873.996 1.65171 -0.17539 0
M  V30 9278 O 875.181 1.87338 -0.361824 0
M  V30 9279 C 872.321 3.27057 -1.10125 0
M  V30 9280 C 871.434 3.64215 -2.32317 0
M  V30 9281 C 870.569 4.90134 -2.04798 0
M  V30 9282 C 869.608 5.19969 -3.22953 0
M  V30 9283 N 868.745 6.37071 -2.95102 0
M  V30 9284 H 873.585 1.94474 -2.25796 0
M  V30 9285 H 871.122 0.951022 -1.12223 0
M  V30 9286 H 873.08 4.05947 -0.962453 0
M  V30 9287 H 871.71 3.22261 -0.186444 0
M  V30 9288 H 870.762 2.80454 -2.57002 0
M  V30 9289 H 872.074 3.82212 -3.20492 0
M  V30 9290 H 871.228 5.76888 -1.87845 0
M  V30 9291 H 869.967 4.74205 -1.13932 0
M  V30 9292 H 868.972 4.31699 -3.40465 0
M  V30 9293 H 870.197 5.37817 -4.14644 0
M  V30 9294 H 868.143 6.22535 -2.06848 0
M  V30 9295 H 868.06 6.55398 -3.76815 0
M  V30 9296 H 869.328 7.26808 -2.81727 0
M  V30 9297 N 873.557 1.20646 1.01402 0
M  V30 9298 C 874.467 0.973385 2.13453 0
M  V30 9299 C 875.483 -0.0715865 1.73853 0
M  V30 9300 O 876.659 0.116438 2.01063 0
M  V30 9301 C 873.724 0.531285 3.42605 0
M  V30 9302 C 872.785 1.64741 3.96433 0
M  V30 9303 C 872.018 1.22631 5.1942 0
M  V30 9304 O 872.241 0.0960891 5.70319 0
M  V30 9305 O 871.175 2.03474 5.66465 0
M  V30 9306 H 875.001 1.91164 2.35987 0
M  V30 9307 H 872.586 0.990553 1.11841 0
M  V30 9308 H 874.468 0.294095 4.20373 0
M  V30 9309 H 873.143 -0.378358 3.21481 0
M  V30 9310 H 872.05 1.93891 3.19933 0
M  V30 9311 H 873.383 2.53415 4.2195 0
M  V30 9312 N 875.035 -1.20752 1.01276 0
M  V30 9313 C 875.998 -2.2162 0.584583 0
M  V30 9314 C 876.998 -1.57094 -0.343215 0
M  V30 9315 O 878.188 -1.73696 -0.132433 0
M  V30 9316 C 875.32 -3.40583 -0.146872 0
M  V30 9317 H 876.513 -2.61015 1.47686 0
M  V30 9318 H 874.066 -1.34148 0.802123 0
M  V30 9319 H 874.801 -3.06686 -1.05424 0
M  V30 9320 H 874.586 -3.88642 0.51958 0
M  V30 9321 H 876.076 -4.15339 -0.433924 0
M  V30 9322 N 876.513 -0.788492 -1.36457 0
M  V30 9323 C 877.759 -0.360995 -1.99561 0
M  V30 9324 C 878.092 1.06433 -1.62437 0
M  V30 9325 O 877.367 1.7352 -0.878705 0
M  V30 9326 C 877.65 -0.523735 -3.56271 0
M  V30 9327 C 877.503 -1.99268 -4.03252 0
M  V30 9328 C 878.822 0.0617908 -4.40057 0
M  V30 9329 H 875.941 -0.13264 -0.724966 0
M  V30 9330 H 878.583 -0.994659 -1.61884 0
M  V30 9331 H 876.733 0.0156979 -3.88497 0
M  V30 9332 H 878.405 -2.59311 -3.81518 0
M  V30 9333 H 876.648 -2.49561 -3.54826 0
M  V30 9334 H 877.319 -2.05752 -5.12221 0
M  V30 9335 H 879.795 -0.398674 -4.14186 0
M  V30 9336 H 878.671 -0.0821089 -5.48839 0
M  V30 9337 H 878.932 1.15381 -4.26778 0
M  V30 9338 N 877.991 1.48044 -0.54043 0
M  V30 9339 C 878.923 2.2779 0.253854 0
M  V30 9340 C 879.936 1.35999 0.894883 0
M  V30 9341 O 881.125 1.60963 0.771563 0
M  V30 9342 C 878.225 3.09724 1.37566 0
M  V30 9343 C 877.398 4.29364 0.83459 0
M  V30 9344 C 876.457 4.93026 1.83881 0
M  V30 9345 O 875.483 5.51927 1.39159 0
M  V30 9346 N 876.685 4.86207 3.17149 0
M  V30 9347 H 879.45 2.96597 -0.430125 0
M  V30 9348 H 877.011 1.57487 -0.375423 0
M  V30 9349 H 879.003 3.49181 2.04584 0
M  V30 9350 H 877.573 2.43269 1.96314 0
M  V30 9351 H 876.793 3.94198 -0.0118878 0
M  V30 9352 H 878.081 5.06787 0.452155 0
M  V30 9353 H 877.479 4.39523 3.56141 0
M  V30 9354 H 876.036 5.29733 3.79771 0
M  V30 9355 N 879.47 0.276058 1.55163 0
M  V30 9356 C 880.417 -0.611006 2.22565 0
M  V30 9357 C 881.387 -1.14902 1.19945 0
M  V30 9358 O 882.572 -1.19815 1.48489 0
M  V30 9359 C 879.712 -1.78885 2.95117 0
M  V30 9360 C 878.825 -1.2846 4.12458 0
M  V30 9361 C 877.96 -2.42432 4.72652 0
M  V30 9362 C 876.999 -1.89015 5.82185 0
M  V30 9363 N 876.136 -2.96463 6.36439 0
M  V30 9364 H 880.976 -0.0295849 2.97985 0
M  V30 9365 H 878.513 -0.00283607 1.471 0
M  V30 9366 H 880.471 -2.48121 3.35398 0
M  V30 9367 H 879.101 -2.34229 2.22119 0
M  V30 9368 H 878.153 -0.485312 3.77292 0
M  V30 9369 H 879.465 -0.853358 4.91446 0
M  V30 9370 H 878.619 -3.19659 5.15658 0
M  V30 9371 H 877.358 -2.88872 3.92943 0
M  V30 9372 H 876.363 -1.10267 5.38629 0
M  V30 9373 H 877.588 -1.43509 6.63763 0
M  V30 9374 H 875.534 -3.42283 5.59623 0
M  V30 9375 H 875.451 -2.57759 7.10701 0
M  V30 9376 H 876.719 -3.73663 6.84103 0
M  V30 9377 N 880.948 -1.576 0.00335426 0
M  V30 9378 C 882.196 -1.90336 -0.679446 0
M  V30 9379 C 882.517 -0.877777 -1.74127 0
M  V30 9380 O 881.787 0.0843585 -1.95718 0
M  V30 9381 H 880.367 -0.702509 -0.253948 0
M  V30 9382 H 883.029 -1.94848 0.0450731 0
M  V30 9383 H 882.125 -2.90197 -1.14857 0
M  V30 9384 N 882.426 0.269451 -1.5528 0
M  V30 9385 C 883.703 1.02207 -1.66773 0
M  V30 9386 C 884.083 2.04168 -0.536536 0
M  V30 9387 O 883.431 2.23761 0.462956 0
M  V30 9388 C 883.641 1.67569 -3.0614 0
M  V30 9389 C 884.989 2.18599 -3.64005 0
M  V30 9390 O 886.013 1.7755 -3.08795 0
M  V30 9391 O 884.872 2.93903 -4.60742 0
M  V30 9392 H 881.966 0.474314 -0.677462 0
M  V30 9393 H 884.512 0.265026 -1.67618 0
M  V30 9394 H 883.284 0.937029 -3.79915 0
M  V30 9395 H 882.907 2.49951 -3.09209 0
M  V30 9396 N 883.904 1.48273 0.534124 0
M  V30 9397 C 885.315 1.49667 1.1161 0
M  V30 9398 C 885.666 0.264139 1.94414 0
M  V30 9399 O 884.791 -0.629084 2.07054 0
M  V30 9400 C 885.386 2.71191 2.03079 0
M  V30 9401 C 883.945 2.7547 2.56502 0
M  V30 9402 C 883.092 2.43119 1.33373 0
M  V30 9403 H 886.043 1.55449 0.319578 0
M  V30 9404 H 886.064 2.49473 2.87304 0
M  V30 9405 H 885.576 3.60879 1.42785 0
M  V30 9406 H 883.677 1.89979 3.20529 0
M  V30 9407 H 883.79 3.76787 2.95919 0
M  V30 9408 H 882.154 1.94187 1.64813 0
M  V30 9409 H 882.937 3.35044 0.748375 0
M  V30 9410 N 885.382 -0.782676 1.36792 0
M  V30 9411 C 886.628 -1.54311 1.3159 0
M  V30 9412 C 886.961 -1.93928 -0.102696 0
M  V30 9413 O 886.236 -1.63233 -1.05761 0
M  V30 9414 C 886.519 -2.81561 2.24489 0
M  V30 9415 C 886.372 -2.48268 3.75078 0
M  V30 9416 C 887.691 -3.83428 2.16034 0
M  V30 9417 H 884.81 -0.559828 0.479335 0
M  V30 9418 H 887.452 -0.898717 1.67401 0
M  V30 9419 H 885.602 -3.36549 1.9408 0
M  V30 9420 H 887.274 -1.99279 4.16036 0
M  V30 9421 H 885.517 -1.81116 3.94182 0
M  V30 9422 H 886.188 -3.39183 4.35499 0
M  V30 9423 H 888.664 -3.37905 2.42815 0
M  V30 9424 H 887.54 -4.70204 2.83194 0
M  V30 9425 H 887.801 -4.26887 1.14976 0
M  V30 9426 N 886.86 -1.21182 -1.00761 0
M  V30 9427 C 888.109 -1.02166 -1.73911 0
M  V30 9428 C 888.422 0.445638 -1.90456 0
M  V30 9429 O 889.628 0.755132 -2.60787 0
M  V30 9430 C 888.084 -1.77936 -3.12837 0
M  V30 9431 C 887.692 -3.28819 -3.04273 0
M  V30 9432 C 889.436 -1.67319 -3.90134 0
M  V30 9433 C 887.343 -3.97089 -4.38262 0
M  V30 9434 H 886.273 -0.378665 -0.652019 0
M  V30 9435 H 888.924 -1.44891 -1.12601 0
M  V30 9436 H 887.306 -1.28003 -3.74742 0
M  V30 9437 H 888.48 -3.86035 -2.51622 0
M  V30 9438 H 886.795 -3.39949 -2.40465 0
M  V30 9439 H 889.392 -2.15659 -4.8928 0
M  V30 9440 H 889.735 -0.630959 -4.11491 0
M  V30 9441 H 890.268 -2.14716 -3.34876 0
M  V30 9442 H 887.007 -5.01503 -4.22107 0
M  V30 9443 H 886.527 -3.44662 -4.90885 0
M  V30 9444 H 888.206 -4.01854 -5.07072 0
M  V30 9445 N 888.338 1.20213 -1.01915 0
M  V30 9446 C 889.268 2.25336 -0.612023 0
M  V30 9447 C 890.249 1.65933 0.374186 0
M  V30 9448 O 891.434 1.92464 0.259053 0
M  V30 9449 C 888.564 3.47267 0.047904 0
M  V30 9450 C 887.518 4.1928 -0.859557 0
M  V30 9451 C 886.844 5.3466 -0.0652655 0
M  V30 9452 C 888.144 4.75143 -2.1688 0
M  V30 9453 H 889.838 2.59645 -1.49079 0
M  V30 9454 H 887.384 1.24808 -0.718263 0
M  V30 9455 H 889.337 4.19991 0.344294 0
M  V30 9456 H 888.061 3.12129 0.961404 0
M  V30 9457 H 886.72 3.48425 -1.13999 0
M  V30 9458 H 886.368 4.95767 0.849964 0
M  V30 9459 H 886.068 5.83772 -0.669618 0
M  V30 9460 H 887.592 6.10187 0.224612 0
M  V30 9461 H 889.006 5.39672 -1.9346 0
M  V30 9462 H 887.403 5.34702 -2.72422 0
M  V30 9463 H 888.473 3.93744 -2.83008 0
M  V30 9464 N 889.816 0.795718 1.36037 0
M  V30 9465 C 890.726 0.199784 2.33748 0
M  V30 9466 C 891.742 -0.651436 1.61345 0
M  V30 9467 O 892.918 -0.565743 1.93291 0
M  V30 9468 C 889.983 -0.650475 3.40543 0
M  V30 9469 C 889.044 0.219974 4.28736 0
M  V30 9470 C 888.277 -0.589798 5.30431 0
M  V30 9471 O 888.5 -1.82532 5.40406 0
M  V30 9472 O 887.434 0.0136187 6.01898 0
M  V30 9473 H 891.26 1.00782 2.8649 0
M  V30 9474 H 888.845 0.557293 1.38617 0
M  V30 9475 H 890.727 -1.13512 4.05824 0
M  V30 9476 H 889.402 -1.4363 2.9009 0
M  V30 9477 H 888.309 0.751516 3.66474 0
M  V30 9478 H 889.642 0.969468 4.82558 0
M  V30 9479 N 891.294 -1.47756 0.548274 0
M  V30 9480 C 892.705 -1.8636 0.112547 0
M  V30 9481 C 893.056 -1.45589 -1.31523 0
M  V30 9482 O 892.181 -0.854874 -1.98799 0
M  V30 9483 C 892.776 -3.38224 0.197473 0
M  V30 9484 C 891.335 -3.75954 -0.183163 0
M  V30 9485 C 890.482 -2.7181 0.549059 0
M  V30 9486 H 893.433 -1.394 0.758506 0
M  V30 9487 H 893.454 -3.75957 -0.586217 0
M  V30 9488 H 892.966 -3.67868 1.23673 0
M  V30 9489 H 891.067 -3.51926 -1.22387 0
M  V30 9490 H 891.18 -4.78801 0.169178 0
M  V30 9491 H 889.544 -2.54699 -0.00682862 0
M  V30 9492 H 890.327 -3.04296 1.5893 0
M  V30 9493 N 892.772 -0.284283 -1.55015 0
M  V30 9494 C 894.021 0.33055 -1.98973 0
M  V30 9495 C 894.334 1.56284 -1.17621 0
M  V30 9496 O 895.54 2.2512 -1.51767 0
M  V30 9497 C 893.996 0.639457 -3.54174 0
M  V30 9498 C 893.604 -0.573543 -4.44313 0
M  V30 9499 C 895.348 1.21641 -4.06699 0
M  V30 9500 C 893.255 -0.238715 -5.90918 0
M  V30 9501 H 892.185 0.127285 -0.743179 0
M  V30 9502 H 894.836 -0.390372 -1.793 0
M  V30 9503 H 893.218 1.41953 -3.69683 0
M  V30 9504 H 894.392 -1.3502 -4.40575 0
M  V30 9505 H 892.707 -1.06797 -4.02472 0
M  V30 9506 H 895.304 1.48088 -5.13784 0
M  V30 9507 H 895.647 2.15328 -3.56286 0
M  V30 9508 H 896.18 0.498422 -3.94665 0
M  V30 9509 H 892.919 -1.1437 -6.45445 0
M  V30 9510 H 892.439 0.500997 -5.97704 0
M  V30 9511 H 894.118 0.165774 -6.46788 0
M  V30 9512 N 894.251 1.57596 -0.0117121 0
M  V30 9513 C 895.184 2.04624 1.01016 0
M  V30 9514 C 896.162 0.938437 1.32786 0
M  V30 9515 O 897.346 1.20746 1.44751 0
M  V30 9516 C 894.473 2.45369 2.33477 0
M  V30 9517 C 893.519 3.66998 2.17289 0
M  V30 9518 S 894.352 5.14412 1.48795 0
M  V30 9519 C 895.508 5.58438 2.82662 0
M  V30 9520 H 895.741 2.9098 0.60977 0
M  V30 9521 H 893.274 1.53106 0.199494 0
M  V30 9522 H 895.232 2.69511 3.09635 0
M  V30 9523 H 893.893 1.59391 2.70653 0
M  V30 9524 H 893.086 3.93297 3.15172 0
M  V30 9525 H 892.688 3.42918 1.49275 0
M  V30 9526 H 894.98 5.61614 3.78941 0
M  V30 9527 H 895.923 6.58224 2.61049 0
M  V30 9528 H 896.331 4.86033 2.8711 0
M  V30 9529 N 895.729 -0.261212 1.5542 0
M  V30 9530 C 897.145 -0.609012 1.47524 0
M  V30 9531 C 897.345 -1.88986 0.699042 0
M  V30 9532 O 896.401 -2.51517 0.222628 0
M  V30 9533 C 897.714 -0.725025 2.91828 0
M  V30 9534 C 899.262 -0.818302 3.02114 0
M  V30 9535 C 899.737 -0.965996 4.47697 0
M  V30 9536 N 901.228 -1.03123 4.51575 0
M  V30 9537 C 901.963 -1.16451 5.6145 0
M  V30 9538 N 901.459 -1.26425 6.81167 0
M  V30 9539 N 903.252 -1.19655 5.49217 0
M  V30 9540 H 895.403 0.579807 2.04333 0
M  V30 9541 H 897.666 0.198072 0.927077 0
M  V30 9542 H 897.372 0.145871 3.51397 0
M  V30 9543 H 897.246 -1.60156 3.41511 0
M  V30 9544 H 899.633 -1.67966 2.42634 0
M  V30 9545 H 899.714 0.0830895 2.55665 0
M  V30 9546 H 899.358 -0.109251 5.07782 0
M  V30 9547 H 899.288 -1.88221 4.91813 0
M  V30 9548 H 901.779 -0.966072 3.65343 0
M  V30 9549 H 902.092 -1.36462 7.60656 0
M  V30 9550 H 900.437 -1.23408 6.83956 0
M  V30 9551 H 903.628 -1.11501 4.54626 0
M  V30 9552 H 903.801 -1.29698 6.34888 0
M  V30 9553 N 897.207 -1.48554 -0.526253 0
M  V30 9554 C 898.453 -1.56994 -1.28378 0
M  V30 9555 C 898.786 -0.244701 -1.92652 0
M  V30 9556 O 898.061 0.749636 -1.79473 0
M  V30 9557 C 898.344 -2.71092 -2.37026 0
M  V30 9558 C 898.197 -4.13331 -1.77418 0
M  V30 9559 C 899.516 -2.80934 -3.38769 0
M  V30 9560 H 896.635 -0.571466 -0.465398 0
M  V30 9561 H 899.277 -1.80742 -0.585861 0
M  V30 9562 H 897.427 -2.50973 -2.96555 0
M  V30 9563 H 899.099 -4.44899 -1.21912 0
M  V30 9564 H 897.342 -4.20158 -1.07936 0
M  V30 9565 H 898.013 -4.88994 -2.56104 0
M  V30 9566 H 900.489 -2.9917 -2.892 0
M  V30 9567 H 899.365 -3.62489 -4.12181 0
M  V30 9568 H 899.626 -1.89244 -3.99549 0
M  V30 9569 N 898.685 0.775411 -1.37205 0
M  V30 9570 C 899.595 1.91967 -1.34855 0
M  V30 9571 C 900.611 1.72214 -0.248656 0
M  V30 9572 O 901.787 1.95512 -0.483421 0
M  V30 9573 C 898.852 3.27038 -1.15096 0
M  V30 9574 C 897.913 3.5947 -2.34691 0
M  V30 9575 C 897.146 4.88097 -2.15865 0
M  V30 9576 O 897.369 5.58871 -1.14102 0
M  V30 9577 O 896.303 5.19507 -3.03967 0
M  V30 9578 H 900.129 1.969 -2.31223 0
M  V30 9579 H 897.714 0.917647 -1.17897 0
M  V30 9580 H 899.596 4.07837 -1.0605 0
M  V30 9581 H 898.271 3.22965 -0.217999 0
M  V30 9582 H 897.178 2.7892 -2.49308 0
M  V30 9583 H 898.511 3.68282 -3.26541 0
M  V30 9584 N 900.163 1.21714 1.00117 0
M  V30 9585 C 901.409 1.03823 1.74208 0
M  V30 9586 C 901.742 -0.426733 1.89454 0
M  V30 9587 O 901.017 -1.31658 1.43166 0
M  V30 9588 C 901.3 1.74047 3.15246 0
M  V30 9589 C 901.153 3.28087 3.077 0
M  V30 9590 C 902.472 1.48614 4.14249 0
M  V30 9591 H 899.591 0.378573 0.632338 0
M  V30 9592 H 902.233 1.49942 1.16694 0
M  V30 9593 H 900.383 1.3484 3.64349 0
M  V30 9594 H 902.055 3.76686 2.6628 0
M  V30 9595 H 900.298 3.58191 2.44707 0
M  V30 9596 H 900.969 3.72392 4.07466 0
M  V30 9597 H 903.445 1.82656 3.73866 0
M  V30 9598 H 902.321 2.00257 5.11066 0
M  V30 9599 H 902.582 0.416957 4.40129 0
M  V30 9600 N 901.641 -1.19671 1.02551 0
M  V30 9601 C 902.869 -1.93233 0.739513 0
M  V30 9602 C 903.284 -1.75298 -0.701158 0
M  V30 9603 O 902.641 -1.07269 -1.47647 0
M  V30 9604 C 902.692 -3.45085 1.07697 0
M  V30 9605 O 902.413 -3.62441 2.46106 0
M  V30 9606 C 903.914 -4.35776 0.813298 0
M  V30 9607 H 901.134 -0.613905 0.270853 0
M  V30 9608 H 903.678 -1.51909 1.36909 0
M  V30 9609 H 901.833 -3.84255 0.492635 0
M  V30 9610 H 902.247 -4.56337 2.58567 0
M  V30 9611 H 903.721 -5.40941 1.09941 0
M  V30 9612 H 904.198 -4.38474 -0.252359 0
M  V30 9613 H 904.804 -4.02282 1.38021 0
M  V30 9614 N 903.119 -0.802921 -1.35613 0
M  V30 9615 C 904.347 -0.39393 -2.03115 0
M  V30 9616 C 904.762 0.993961 -1.60517 0
M  V30 9617 O 904.119 1.63984 -0.800973 0
M  V30 9618 C 904.17 -0.463486 -3.58516 0
M  V30 9619 O 903.891 -1.79666 -3.99565 0
M  V30 9620 C 905.392 -0.0468377 -4.43275 0
M  V30 9621 H 902.612 -0.160519 -0.651517 0
M  V30 9622 H 905.156 -1.08552 -1.73311 0
M  V30 9623 H 903.311 0.179821 -3.86982 0
M  V30 9624 H 903.725 -1.75688 -4.942 0
M  V30 9625 H 905.199 -0.146626 -5.51805 0
M  V30 9626 H 905.676 1.00741 -4.2749 0
M  V30 9627 H 906.282 -0.663158 -4.20098 0
M  V30 9628 N 904.597 1.47463 -0.556102 0
M  V30 9629 C 906.008 1.86298 -0.122429 0
M  V30 9630 C 906.359 1.46285 1.30749 0
M  V30 9631 O 905.484 0.865405 1.98342 0
M  V30 9632 C 906.079 3.38115 -0.215407 0
M  V30 9633 C 904.638 3.76046 0.163223 0
M  V30 9634 C 903.785 2.71515 -0.563466 0
M  V30 9635 H 906.736 1.38996 -0.765888 0
M  V30 9636 H 906.757 3.76263 0.566271 0
M  V30 9637 H 906.269 3.67207 -1.25622 0
M  V30 9638 H 904.37 3.5257 1.20519 0
M  V30 9639 H 904.483 4.78705 -0.194568 0
M  V30 9640 H 902.847 2.54699 -0.00667879 0
M  V30 9641 H 903.63 3.03449 -1.60542 0
M  V30 9642 N 906.075 0.2925 1.54862 0
M  V30 9643 C 906.985 -0.597036 2.26876 0
M  V30 9644 C 908.001 -1.15558 1.30086 0
M  V30 9645 O 909.177 -1.18217 1.63054 0
M  V30 9646 C 906.242 -1.75664 2.98903 0
M  V30 9647 C 905.303 -1.23303 4.11212 0
M  V30 9648 C 904.536 -2.33736 4.79795 0
M  V30 9649 O 904.759 -3.53459 4.47686 0
M  V30 9650 O 903.693 -2.00908 5.67379 0
M  V30 9651 H 907.519 -0.0131242 3.03697 0
M  V30 9652 H 905.104 0.0592642 1.49282 0
M  V30 9653 H 906.986 -2.43241 3.4411 0
M  V30 9654 H 905.661 -2.32731 2.24984 0
M  V30 9655 H 904.568 -0.523222 3.70423 0
M  V30 9656 H 905.901 -0.707887 4.87083 0
M  V30 9657 N 907.553 -1.57587 0.0200696 0
M  V30 9658 C 908.463 -2.13119 -0.980676 0
M  V30 9659 C 909.479 -1.08124 -1.36328 0
M  V30 9660 O 910.655 -1.40134 -1.44653 0
M  V30 9661 C 907.72 -2.63991 -2.24743 0
M  V30 9662 C 906.781 -3.83667 -1.9261 0
M  V30 9663 C 906.014 -4.32103 -3.13246 0
M  V30 9664 O 906.237 -3.79758 -4.25606 0
M  V30 9665 O 905.171 -5.24047 -2.96072 0
M  V30 9666 H 908.997 -2.98887 -0.538528 0
M  V30 9667 H 906.582 -1.48055 -0.19999 0
M  V30 9668 H 908.464 -2.9682 -2.99125 0
M  V30 9669 H 907.139 -1.81311 -2.68157 0
M  V30 9670 H 906.046 -3.55778 -1.15641 0
M  V30 9671 H 907.379 -4.67482 -1.54019 0
M  V30 9672 N 909.032 0.252966 -1.55557 0
M  V30 9673 C 910.262 0.998115 -1.8089 0
M  V30 9674 C 910.67 1.79679 -0.592623 0
M  V30 9675 O 910.013 1.78151 0.448093 0
M  V30 9676 C 910.075 1.98878 -2.99479 0
M  V30 9677 C 909.739 1.37761 -4.35742 0
M  V30 9678 C 910.736 0.783142 -5.13968 0
M  V30 9679 C 908.421 1.39879 -4.8243 0
M  V30 9680 C 910.415 0.218004 -6.37027 0
M  V30 9681 C 908.102 0.829801 -6.0544 0
M  V30 9682 C 909.1 0.240426 -6.82577 0
M  V30 9683 O 908.788 -0.319797 -8.03264 0
M  V30 9684 H 908.52 0.29963 -0.605969 0
M  V30 9685 H 911.074 0.282978 -2.03441 0
M  V30 9686 H 909.304 2.74206 -2.72669 0
M  V30 9687 H 910.993 2.59686 -3.11959 0
M  V30 9688 H 911.759 0.759326 -4.79019 0
M  V30 9689 H 907.638 1.84692 -4.22386 0
M  V30 9690 H 911.182 -0.242654 -6.97178 0
M  V30 9691 H 907.079 0.850924 -6.39867 0
M  V30 9692 H 907.847 -0.211078 -8.18228 0
M  V30 9693 N 910.51 1.48831 0.518367 0
M  V30 9694 C 911.443 1.588 1.63884 0
M  V30 9695 C 912.421 0.437847 1.56594 0
M  V30 9696 O 913.605 0.651042 1.769 0
M  V30 9697 C 910.732 1.52681 3.02335 0
M  V30 9698 C 909.778 2.7268 3.27945 0
M  V30 9699 S 910.611 4.34536 3.12951 0
M  V30 9700 C 911.767 4.31034 4.53828 0
M  V30 9701 H 912 2.53587 1.5518 0
M  V30 9702 H 909.533 1.37507 0.702218 0
M  V30 9703 H 911.491 1.49837 3.82177 0
M  V30 9704 H 910.152 0.592107 3.08469 0
M  V30 9705 H 909.345 2.64569 4.28974 0
M  V30 9706 H 908.947 2.72847 2.55794 0
M  V30 9707 H 911.239 4.01683 5.45579 0
M  V30 9708 H 912.182 5.32282 4.66991 0
M  V30 9709 H 912.59 3.61343 4.33695 0
M  V30 9710 N 911.988 -0.768124 1.37614 0
M  V30 9711 C 913.236 -1.52379 1.3276 0
M  V30 9712 C 913.557 -1.94809 -0.0863564 0
M  V30 9713 O 912.827 -1.66568 -1.03112 0
M  V30 9714 H 911.407 -0.565179 0.488448 0
M  V30 9715 H 914.069 -0.913974 1.72141 0
M  V30 9716 H 913.165 -2.4215 1.96901 0
M  V30 9717 N 913.466 -1.22244 -0.994698 0
M  V30 9718 C 914.743 -0.954459 -1.70732 0
M  V30 9719 C 915.123 0.530945 -2.04314 0
M  V30 9720 O 914.471 1.49851 -1.72502 0
M  V30 9721 C 914.681 -1.85016 -2.95922 0
M  V30 9722 C 916.029 -2.10517 -3.68738 0
M  V30 9723 O 917.053 -1.82449 -3.05926 0
M  V30 9724 O 915.912 -2.58044 -4.81742 0
M  V30 9725 H 913.006 -0.35879 -0.745116 0
M  V30 9726 H 915.552 -1.33221 -1.0512 0
M  V30 9727 H 914.324 -2.85498 -2.67594 0
M  V30 9728 H 913.947 -1.47388 -3.69273 0
M  V30 9729 N 914.944 1.19125 -1.03184 0
M  V30 9730 C 916.19 1.89163 -0.731111 0
M  V30 9731 C 916.523 1.79604 0.738662 0
M  V30 9732 O 915.798 1.19037 1.53819 0
M  V30 9733 C 916.081 3.39986 -1.18666 0
M  V30 9734 C 915.934 3.58401 -2.71788 0
M  V30 9735 C 917.253 4.33316 -0.769772 0
M  V30 9736 H 914.372 0.686908 -0.267069 0
M  V30 9737 H 917.014 1.40205 -1.28229 0
M  V30 9738 H 915.164 3.81813 -0.717736 0
M  V30 9739 H 916.836 3.25727 -3.26649 0
M  V30 9740 H 915.079 3.01355 -3.12038 0
M  V30 9741 H 915.75 4.64189 -2.98719 0
M  V30 9742 H 918.226 3.9922 -1.17314 0
M  V30 9743 H 917.102 5.37427 -1.11637 0
M  V30 9744 H 917.363 4.40884 0.327681 0
M  V30 9745 N 916.422 0.810101 1.35185 0
M  V30 9746 C 917.671 0.388589 1.97921 0
M  V30 9747 C 917.984 -1.05079 1.64978 0
M  V30 9748 O 919.19 -1.57559 2.21105 0
M  V30 9749 C 917.646 0.643864 3.54094 0
M  V30 9750 C 917.254 2.09602 3.95943 0
M  V30 9751 C 918.998 0.287883 4.23523 0
M  V30 9752 C 916.905 2.29686 5.44976 0
M  V30 9753 H 915.835 0.141562 0.740592 0
M  V30 9754 H 918.486 0.994653 1.54204 0
M  V30 9755 H 916.868 -0.0321978 3.95987 0
M  V30 9756 H 918.042 2.81018 3.65192 0
M  V30 9757 H 916.357 2.4122 3.39414 0
M  V30 9758 H 918.954 0.415946 5.3308 0
M  V30 9759 H 919.297 -0.766305 4.09186 0
M  V30 9760 H 919.83 0.918004 3.87063 0
M  V30 9761 H 916.569 3.33563 5.64284 0
M  V30 9762 H 916.089 1.62798 5.77284 0
M  V30 9763 H 917.768 2.11411 6.11485 0
M  V30 9764 N 917.9 -1.47166 0.563914 0
M  V30 9765 C 919.148 -2.02056 0.0422873 0
M  V30 9766 C 919.469 -1.43992 -1.31497 0
M  V30 9767 O 918.739 -0.617578 -1.85911 0
M  V30 9768 H 917.319 -0.746893 0.0126427 0
M  V30 9769 H 919.981 -1.80492 0.735441 0
M  V30 9770 H 919.077 -3.12073 -0.0408044 0
M  V30 9771 N 919.378 -0.300708 -1.54705 0
M  V30 9772 C 920.655 0.361757 -1.92226 0
M  V30 9773 C 921.035 1.71714 -1.2279 0
M  V30 9774 O 920.383 2.2559 -0.363542 0
M  V30 9775 C 920.593 0.476699 -3.45729 0
M  V30 9776 C 921.941 0.7477 -4.17965 0
M  V30 9777 O 922.965 0.560521 -3.51762 0
M  V30 9778 O 921.824 1.10724 -5.35166 0
M  V30 9779 H 918.918 0.202213 -0.801897 0
M  V30 9780 H 921.464 -0.348746 -1.66078 0
M  V30 9781 H 920.236 -0.476132 -3.88392 0
M  V30 9782 H 919.859 1.23568 -3.77911 0
M  V30 9783 N 920.856 1.57574 -0.0284266 0
M  V30 9784 C 921.786 2.1321 0.952039 0
M  V30 9785 C 922.767 1.04806 1.33977 0
M  V30 9786 O 923.952 1.32635 1.41851 0
M  V30 9787 C 921.082 2.65862 2.23461 0
M  V30 9788 C 920.036 3.79047 1.98765 0
M  V30 9789 C 919.362 4.18124 3.33281 0
M  V30 9790 C 920.662 5.05151 1.32739 0
M  V30 9791 H 922.356 2.95385 0.488705 0
M  V30 9792 H 919.902 1.42092 0.233628 0
M  V30 9793 H 921.855 3.03417 2.92431 0
M  V30 9794 H 920.579 1.80848 2.71959 0
M  V30 9795 H 919.238 3.41929 1.32213 0
M  V30 9796 H 918.886 3.30092 3.79537 0
M  V30 9797 H 918.586 4.94396 3.17563 0
M  V30 9798 H 920.11 4.58262 4.0352 0
M  V30 9799 H 921.524 5.40297 1.91708 0
M  V30 9800 H 919.921 5.86416 1.27421 0
M  V30 9801 H 920.991 4.83969 0.300261 0
M  V30 9802 N 922.334 -0.244713 1.55689 0
M  V30 9803 C 923.282 -1.32276 1.91326 0
M  V30 9804 C 924.276 -1.49714 0.792589 0
M  V30 9805 O 925.482 -1.51163 0.977227 0
M  V30 9806 H 921.857 -0.442979 0.607679 0
M  V30 9807 H 923.828 -0.99486 2.81327 0
M  V30 9808 C 922.577 -2.67077 2.22633 0
M  V30 9809 H 921.9 -2.54458 3.08368 0
M  V30 9810 H 923.34 -3.41378 2.5147 0
M  V30 9811 C 921.799 -3.20335 1.04342 0
M  V30 9812 O 922.329 -4.00633 0.292543 0
M  V30 9813 N 920.535 -2.78392 0.833457 0
M  V30 9814 H 920.082 -2.13202 1.44577 0
M  V30 9815 H 920.04 -3.1437 0.0436713 0
M  V30 9816 N 923.813 -1.49104 -0.510467 0
M  V30 9817 C 924.776 -1.64569 -1.59529 0
M  V30 9818 C 925.776 -0.517937 -1.5223 0
M  V30 9819 O 926.966 -0.784183 -1.55551 0
M  V30 9820 C 924.098 -1.6342 -2.99177 0
M  V30 9821 H 925.291 -2.61318 -1.4715 0
M  V30 9822 H 922.844 -1.37993 -0.734001 0
M  V30 9823 H 923.579 -0.68221 -3.17043 0
M  V30 9824 H 923.364 -2.45312 -3.05883 0
M  V30 9825 H 924.854 -1.77474 -3.78011 0
M  V30 9826 N 925.291 0.760815 -1.38019 0
M  V30 9827 C 926.707 1.06289 -1.19058 0
M  V30 9828 C 926.907 2.01471 -0.0342603 0
M  V30 9829 O 925.963 2.44713 0.62224 0
M  V30 9830 C 927.276 1.6499 -2.51394 0
M  V30 9831 C 928.824 1.77196 -2.58013 0
M  V30 9832 C 929.299 2.3931 -3.90506 0
M  V30 9833 N 930.79 2.46749 -3.92007 0
M  V30 9834 C 931.525 2.95687 -4.91281 0
M  V30 9835 N 931.021 3.44715 -6.00952 0
M  V30 9836 N 932.814 2.94661 -4.78677 0
M  V30 9837 H 924.965 0.129045 -2.12008 0
M  V30 9838 H 927.228 0.119878 -0.94039 0
M  V30 9839 H 926.934 1.0252 -3.36426 0
M  V30 9840 H 926.808 2.64146 -2.6927 0
M  V30 9841 H 929.195 2.38796 -1.7338 0
M  V30 9842 H 929.276 0.767645 -2.4401 0
M  V30 9843 H 928.92 1.78346 -4.75558 0
M  V30 9844 H 928.85 3.40369 -4.01817 0
M  V30 9845 H 931.341 2.12064 -3.12789 0
M  V30 9846 H 931.654 3.80492 -6.72641 0
M  V30 9847 H 929.999 3.42791 -6.04582 0
M  V30 9848 H 933.19 2.55665 -3.92113 0
M  V30 9849 H 933.363 3.32489 -5.56197 0
M  V30 9850 N 926.769 1.22769 0.988202 0
M  V30 9851 C 928.185 0.988665 1.2529 0
M  V30 9852 C 928.385 -0.314938 1.99024 0
M  V30 9853 O 927.441 -1.03637 2.30251 0
M  V30 9854 C 928.754 2.19046 2.06009 0
M  V30 9855 C 930.302 2.23452 2.19176 0
M  V30 9856 C 930.777 3.43196 3.03283 0
M  V30 9857 N 932.268 3.43387 3.10869 0
M  V30 9858 C 933.003 4.32693 3.7625 0
M  V30 9859 N 932.499 5.32224 4.43519 0
M  V30 9860 N 934.292 4.20457 3.73058 0
M  V30 9861 H 926.443 2.06575 0.494014 0
M  V30 9862 H 928.706 0.905452 0.28082 0
M  V30 9863 H 928.412 3.13607 1.59197 0
M  V30 9864 H 928.286 2.19492 3.06763 0
M  V30 9865 H 930.673 1.29436 2.65199 0
M  V30 9866 H 930.754 2.27042 1.17836 0
M  V30 9867 H 930.398 4.37515 2.57959 0
M  V30 9868 H 930.328 3.36847 4.04774 0
M  V30 9869 H 932.819 2.71368 2.62998 0
M  V30 9870 H 933.132 5.9664 4.91163 0
M  V30 9871 H 931.477 5.36133 4.42252 0
M  V30 9872 H 934.668 3.41949 3.19669 0
M  V30 9873 H 934.841 4.90261 4.23731 0
M  V30 9874 N 928.247 -1.18576 1.03814 0
M  V30 9875 C 929.495 -1.88121 0.738574 0
M  V30 9876 C 929.816 -1.80587 -0.735744 0
M  V30 9877 O 929.086 -1.22251 -1.53074 0
M  V30 9878 H 927.666 -0.696417 0.270208 0
M  V30 9879 H 930.328 -1.43912 1.31435 0
M  V30 9880 H 929.424 -2.94222 1.04115 0
M  V30 9881 N 929.725 -0.817259 -1.34754 0
M  V30 9882 C 930.657 -0.192695 -2.28389 0
M  V30 9883 C 931.67 0.614167 -1.50771 0
M  V30 9884 O 932.859 0.444776 -1.7287 0
M  V30 9885 C 929.959 0.748929 -3.30521 0
M  V30 9886 C 929.132 -0.0138762 -4.37398 0
M  V30 9887 C 928.191 0.847825 -5.19325 0
M  V30 9888 O 927.217 0.29487 -5.68436 0
M  V30 9889 N 928.419 2.16843 -5.38479 0
M  V30 9890 H 931.184 -0.997122 -2.82626 0
M  V30 9891 H 928.745 -0.673696 -1.47217 0
M  V30 9892 H 930.737 1.32987 -3.82226 0
M  V30 9893 H 929.307 1.45412 -2.7672 0
M  V30 9894 H 928.527 -0.776093 -3.86485 0
M  V30 9895 H 929.815 -0.539191 -5.05935 0
M  V30 9896 H 929.213 2.64148 -5.00242 0
M  V30 9897 H 927.77 2.69835 -5.93323 0
M  V30 9898 N 931.203 1.46865 -0.571711 0
M  V30 9899 C 932.452 2.01636 -0.050881 0
M  V30 9900 C 932.765 1.45001 1.31279 0
M  V30 9901 O 933.971 1.91523 1.92435 0
M  V30 9902 C 932.427 3.59877 -0.0404114 0
M  V30 9903 C 932.035 4.25506 -1.40172 0
M  V30 9904 C 933.779 4.22346 0.42705 0
M  V30 9905 C 931.686 5.75795 -1.34958 0
M  V30 9906 H 930.616 0.753846 -0.0152514 0
M  V30 9907 H 933.267 1.68711 -0.721723 0
M  V30 9908 H 931.649 3.89829 0.696374 0
M  V30 9909 H 932.823 4.07178 -2.15737 0
M  V30 9910 H 931.138 3.75086 -1.8083 0
M  V30 9911 H 933.735 5.32499 0.484688 0
M  V30 9912 H 934.078 3.9052 1.44222 0
M  V30 9913 H 934.611 3.9698 -0.255326 0
M  V30 9914 H 931.35 6.12265 -2.3412 0
M  V30 9915 H 930.87 5.96419 -0.635962 0
M  V30 9916 H 932.549 6.38294 -1.05779 0
M  V30 9917 N 932.681 0.308908 1.54543 0
M  V30 9918 C 933.611 -0.556657 2.26768 0
M  V30 9919 C 934.592 -1.13145 1.27013 0
M  V30 9920 O 935.777 -1.15931 1.558 0
M  V30 9921 C 932.907 -1.72481 3.01443 0
M  V30 9922 C 931.861 -1.28001 4.08411 0
M  V30 9923 C 931.187 -2.53395 4.70845 0
M  V30 9924 C 932.487 -0.405497 5.20724 0
M  V30 9925 H 934.181 0.0457618 2.99365 0
M  V30 9926 H 931.727 0.0234495 1.43981 0
M  V30 9927 H 933.68 -2.3365 3.50693 0
M  V30 9928 H 932.404 -2.35359 2.26437 0
M  V30 9929 H 931.063 -0.69133 3.60022 0
M  V30 9930 H 930.711 -3.14604 3.92471 0
M  V30 9931 H 930.411 -2.2433 5.43093 0
M  V30 9932 H 931.935 -3.15352 5.22863 0
M  V30 9933 H 933.349 -0.923076 5.6582 0
M  V30 9934 H 931.746 -0.208282 5.99738 0
M  V30 9935 H 932.816 0.567412 4.81569 0
M  V30 9936 N 934.159 -1.57557 0.0367827 0
M  V30 9937 C 935.407 -1.91735 -0.63892 0
M  V30 9938 C 935.728 -0.914515 -1.72226 0
M  V30 9939 O 934.998 0.0428248 -1.95853 0
M  V30 9940 H 933.578 -0.707738 -0.23899 0
M  V30 9941 H 936.24 -1.94708 0.0863931 0
M  V30 9942 H 935.336 -2.92568 -1.08676 0
M  V30 9943 N 935.637 0.236453 -1.55816 0
M  V30 9944 C 936.57 1.3196 -1.86177 0
M  V30 9945 C 937.548 1.459 -0.717769 0
M  V30 9946 O 938.732 1.61949 -0.964606 0
M  V30 9947 C 935.859 2.69183 -2.05568 0
M  V30 9948 C 934.905 2.72338 -3.28229 0
M  V30 9949 S 935.738 2.27898 -4.84585 0
M  V30 9950 C 936.894 3.67025 -5.06994 0
M  V30 9951 H 937.127 1.06011 -2.77757 0
M  V30 9952 H 934.66 0.437961 -1.48058 0
M  V30 9953 H 936.618 3.48191 -2.17423 0
M  V30 9954 H 935.279 2.92365 -1.14811 0
M  V30 9955 H 934.472 3.7314 -3.38795 0
M  V30 9956 H 934.074 2.01382 -3.15153 0
M  V30 9957 H 936.366 4.62604 -4.94979 0
M  V30 9958 H 937.309 3.61385 -6.08939 0
M  V30 9959 H 937.717 3.60022 -4.34792 0
M  V30 9960 N 937.115 1.49373 0.502552 0
M  V30 9961 C 938.025 1.68659 1.63068 0
M  V30 9962 C 939.041 0.569182 1.64427 0
M  V30 9963 O 940.217 0.843695 1.82876 0
M  V30 9964 C 937.282 1.74745 2.99441 0
M  V30 9965 C 936.343 2.98311 3.08721 0
M  V30 9966 C 935.576 3.04097 4.38589 0
M  V30 9967 O 935.799 2.17519 5.27297 0
M  V30 9968 O 934.733 3.96544 4.52809 0
M  V30 9969 H 938.559 2.64226 1.49727 0
M  V30 9970 H 936.144 1.33096 0.67867 0
M  V30 9971 H 938.026 1.8111 3.80496 0
M  V30 9972 H 936.701 0.823565 3.13048 0
M  V30 9973 H 935.608 2.97465 2.2686 0
M  V30 9974 H 936.941 3.90174 3.00041 0
M  V30 9975 N 938.594 -0.753485 1.38421 0
M  V30 9976 C 940.005 -1.33081 1.30944 0
M  V30 9977 C 940.356 -1.96169 -0.0347124 0
M  V30 9978 O 939.481 -1.95073 -0.936768 0
M  V30 9979 C 940.076 -2.41973 2.37138 0
M  V30 9980 C 938.635 -2.95426 2.33239 0
M  V30 9981 C 937.782 -1.68808 2.19998 0
M  V30 9982 H 940.733 -0.552354 1.48777 0
M  V30 9983 H 940.754 -3.21913 2.02859 0
M  V30 9984 H 940.266 -1.96027 3.34956 0
M  V30 9985 H 938.367 -3.45701 1.39003 0
M  V30 9986 H 938.48 -3.49798 3.27381 0
M  V30 9987 H 936.844 -1.92438 1.66852 0
M  V30 9988 H 937.627 -1.24939 3.19758 0
M  V30 9989 N 940.072 -1.23292 -0.981677 0
M  V30 9990 C 941.488 -0.995295 -1.24764 0
M  V30 9991 C 941.688 0.304379 -1.99188 0
M  V30 9992 O 940.744 1.02414 -2.30798 0
M  V30 9993 C 942.057 -2.20135 -2.04844 0
M  V30 9994 C 943.605 -2.24612 -2.17988 0
M  V30 9995 C 944.08 -3.448 -3.01458 0
M  V30 9996 N 945.571 -3.45031 -3.09044 0
M  V30 9997 C 946.306 -4.34683 -3.7395 0
M  V30 9998 N 945.802 -5.34569 -4.4069 0
M  V30 9999 N 947.595 -4.22429 -3.70823 0
M  V30 10000 H 939.746 -2.06834 -0.483052 0
M  V30 10001 H 942.009 -0.906929 -0.276014 0
M  V30 10002 H 941.715 -3.14446 -1.57532 0
M  V30 10003 H 941.589 -2.21115 -3.05594 0
M  V30 10004 H 943.976 -1.30841 -2.64508 0
M  V30 10005 H 944.057 -2.27664 -1.16631 0
M  V30 10006 H 943.701 -4.38877 -2.55635 0
M  V30 10007 H 943.631 -3.38988 -4.02982 0
M  V30 10008 H 946.122 -2.72759 -2.61555 0
M  V30 10009 H 946.435 -5.99236 -4.87991 0
M  V30 10010 H 944.78 -5.3847 -4.39403 0
M  V30 10011 H 947.971 -3.43639 -3.17851 0
M  V30 10012 H 948.144 -4.92501 -4.21126 0
M  V30 10013 N 941.55 1.18024 -1.04442 0
M  V30 10014 C 942.798 1.87727 -0.74854 0
M  V30 10015 C 943.119 1.80975 0.726156 0
M  V30 10016 O 942.389 1.23061 1.52423 0
M  V30 10017 H 940.969 0.694974 -0.273897 0
M  V30 10018 H 943.631 1.43213 -1.32197 0
M  V30 10019 H 942.727 2.93665 -1.05674 0
M  V30 10020 N 943.028 0.824394 1.34319 0
M  V30 10021 C 943.976 0.235628 2.31403 0
M  V30 10022 C 944.97 -0.624443 1.57471 0
M  V30 10023 O 946.176 -0.515618 1.72457 0
M  V30 10024 H 942.551 0.0574537 0.749802 0
M  V30 10025 H 944.522 1.06925 2.78585 0
M  V30 10026 C 943.271 -0.586617 3.42716 0
M  V30 10027 H 942.594 0.0658669 3.99746 0
M  V30 10028 H 944.034 -0.964661 4.1288 0
M  V30 10029 C 942.493 -1.75957 2.87299 0
M  V30 10030 O 943.023 -2.8578 2.82299 0
M  V30 10031 N 941.229 -1.57678 2.44102 0
M  V30 10032 H 940.776 -0.683436 2.48369 0
M  V30 10033 H 940.734 -2.36311 2.07375 0
M  V30 10034 N 944.506 -1.46559 0.579492 0
M  V30 10035 C 945.469 -2.28739 -0.145371 0
M  V30 10036 C 946.469 -1.38211 -0.821854 0
M  V30 10037 O 947.659 -1.6062 -0.674302 0
M  V30 10038 C 944.791 -3.18507 -1.21515 0
M  V30 10039 H 945.984 -2.94301 0.576786 0
M  V30 10040 H 943.537 -1.52616 0.337327 0
M  V30 10041 H 944.272 -2.57685 -1.96899 0
M  V30 10042 H 944.057 -3.85157 -0.734616 0
M  V30 10043 H 945.547 -3.80369 -1.72363 0
M  V30 10044 N 945.984 -0.3171 -1.54377 0
M  V30 10045 C 946.916 0.58571 -2.2159 0
M  V30 10046 C 947.929 1.08495 -1.21378 0
M  V30 10047 O 949.118 0.999638 -1.47883 0
M  V30 10048 C 946.218 1.8157 -2.86156 0
M  V30 10049 C 945.391 1.45625 -4.12447 0
M  V30 10050 C 944.45 2.54308 -4.60667 0
M  V30 10051 O 943.476 2.18724 -5.25498 0
M  V30 10052 N 944.678 3.85129 -4.34345 0
M  V30 10053 H 947.443 0.0102247 -2.99698 0
M  V30 10054 H 945.004 -0.140011 -1.61293 0
M  V30 10055 H 946.996 2.53657 -3.15341 0
M  V30 10056 H 945.566 2.29919 -2.11793 0
M  V30 10057 H 944.786 0.567294 -3.90097 0
M  V30 10058 H 946.074 1.19169 -4.94648 0
M  V30 10059 H 945.472 4.16841 -3.8244 0
M  V30 10060 H 944.029 4.53466 -4.68201 0
M  V30 10061 N 947.462 1.57535 -0.0451378 0
M  V30 10062 C 948.708 1.92736 0.630921 0
M  V30 10063 C 949.041 0.923265 1.70849 0
M  V30 10064 O 948.316 -0.0516512 1.94431 0
M  V30 10065 C 948.599 3.38348 1.23259 0
M  V30 10066 C 948.452 4.49503 0.16349 0
M  V30 10067 C 949.771 3.84233 2.14599 0
M  V30 10068 H 946.89 0.700884 0.227883 0
M  V30 10069 H 949.532 1.89706 -0.10567 0
M  V30 10070 H 947.682 3.41061 1.86037 0
M  V30 10071 H 949.354 4.58919 -0.46808 0
M  V30 10072 H 947.597 4.30802 -0.509166 0
M  V30 10073 H 948.268 5.48457 0.624382 0
M  V30 10074 H 950.744 3.83358 1.6179 0
M  V30 10075 H 949.62 4.86781 2.53644 0
M  V30 10076 H 949.881 3.20646 3.04366 0
M  V30 10077 N 948.94 -0.228186 1.55939 0
M  V30 10078 C 950.189 -0.951563 1.77843 0
M  V30 10079 C 950.502 -1.85763 0.612501 0
M  V30 10080 O 951.708 -2.61916 0.715006 0
M  V30 10081 C 950.164 -1.74216 3.14923 0
M  V30 10082 C 949.772 -0.882569 4.39221 0
M  V30 10083 C 951.516 -2.45715 3.46156 0
M  V30 10084 C 949.423 -1.67014 5.67327 0
M  V30 10085 H 948.353 -0.359035 0.663031 0
M  V30 10086 H 951.004 -0.205636 1.82344 0
M  V30 10087 H 949.386 -2.53075 3.0458 0
M  V30 10088 H 950.56 -0.13499 4.60602 0
M  V30 10089 H 948.875 -0.280022 4.15457 0
M  V30 10090 H 951.472 -3.05127 4.39092 0
M  V30 10091 H 951.815 -3.1827 2.68346 0
M  V30 10092 H 952.348 -1.73852 3.57799 0
M  V30 10093 H 949.087 -0.987985 6.48012 0
M  V30 10094 H 948.607 -2.3925 5.50018 0
M  V30 10095 H 950.286 -2.23252 6.07262 0
M  V30 10096 N 950.418 -1.49637 -0.494624 0
M  V30 10097 C 951.834 -1.36541 -0.826361 0
M  V30 10098 C 952.034 -0.403386 -1.97421 0
M  V30 10099 O 951.09 0.162614 -2.51976 0
M  V30 10100 C 952.403 -2.77401 -1.16057 0
M  V30 10101 C 953.951 -2.86148 -1.26841 0
M  V30 10102 C 954.426 -4.27789 -1.63587 0
M  V30 10103 N 955.917 -4.3063 -1.70624 0
M  V30 10104 C 956.652 -5.37198 -2.00514 0
M  V30 10105 N 956.148 -6.54004 -2.28584 0
M  V30 10106 N 957.941 -5.2462 -2.01818 0
M  V30 10107 H 950.092 -2.10776 0.26219 0
M  V30 10108 H 952.355 -0.946419 0.0547235 0
M  V30 10109 H 952.061 -3.49526 -0.390434 0
M  V30 10110 H 951.935 -3.1317 -2.10249 0
M  V30 10111 H 954.322 -2.14256 -2.02925 0
M  V30 10112 H 954.403 -2.53953 -0.30684 0
M  V30 10113 H 954.047 -5.00209 -0.880507 0
M  V30 10114 H 953.977 -4.57453 -2.60854 0
M  V30 10115 H 956.468 -3.46393 -1.51065 0
M  V30 10116 H 956.781 -7.31041 -2.50598 0
M  V30 10117 H 955.126 -6.57219 -2.26027 0
M  V30 10118 H 958.317 -4.32371 -1.79369 0
M  V30 10119 H 958.49 -6.07765 -2.24778 0
M  V30 10120 N 951.896 0.746133 -1.38819 0
M  V30 10121 C 952.859 1.84167 -1.36437 0
M  V30 10122 C 953.859 1.58626 -0.263499 0
M  V30 10123 O 955.049 1.66233 -0.520801 0
M  V30 10124 C 952.181 3.21769 -1.12596 0
M  V30 10125 H 953.374 1.87684 -2.33912 0
M  V30 10126 H 950.927 0.948625 -1.24221 0
M  V30 10127 H 951.662 3.23917 -0.15758 0
M  V30 10128 H 951.447 3.41702 -1.92307 0
M  V30 10129 H 952.937 4.0184 -1.13643 0
M  V30 10130 N 953.375 1.23811 0.975125 0
M  V30 10131 C 954.622 1.07336 1.71712 0
M  V30 10132 C 954.95 -0.388954 1.90571 0
M  V30 10133 O 954.205 -1.30409 1.45918 0
M  V30 10134 C 954.504 1.74994 3.11628 0
M  V30 10135 C 954.17 3.24918 3.12632 0
M  V30 10136 C 952.832 3.65822 3.12614 0
M  V30 10137 C 955.184 4.20797 3.07538 0
M  V30 10138 C 952.512 5.01054 3.05224 0
M  V30 10139 C 954.864 5.56027 3.0169 0
M  V30 10140 C 953.528 5.96287 2.99996 0
M  V30 10141 H 952.798 0.392771 0.62834 0
M  V30 10142 H 955.445 1.53815 1.14075 0
M  V30 10143 H 953.75 1.20889 3.72684 0
M  V30 10144 H 955.447 1.5972 3.67819 0
M  V30 10145 H 952.037 2.92359 3.13407 0
M  V30 10146 H 956.221 3.902 3.06688 0
M  V30 10147 H 951.477 5.31454 3.02268 0
M  V30 10148 H 955.651 6.3003 2.96706 0
M  V30 10149 H 953.278 7.01037 2.94025 0
M  V30 10150 N 954.853 -1.17469 1.05066 0
M  V30 10151 C 956.099 -1.87976 0.761113 0
M  V30 10152 C 956.432 -1.80756 -0.709995 0
M  V30 10153 O 955.707 -1.21469 -1.51906 0
M  V30 10154 C 955.99 -3.38055 1.2406 0
M  V30 10155 C 955.843 -3.54032 2.77455 0
M  V30 10156 C 957.162 -4.32036 0.838612 0
M  V30 10157 H 954.281 -0.682573 0.277963 0
M  V30 10158 H 956.923 -1.38147 1.30443 0
M  V30 10159 H 955.073 -3.80622 0.778388 0
M  V30 10160 H 956.745 -3.20489 3.3179 0
M  V30 10161 H 954.988 -2.96352 3.16793 0
M  V30 10162 H 955.659 -4.59377 3.06066 0
M  V30 10163 H 958.135 -3.97303 1.23651 0
M  V30 10164 H 957.011 -5.35583 1.20173 0
M  V30 10165 H 957.272 -4.41349 -0.257498 0
M  V30 10166 N 956.331 -0.831506 -1.3388 0
M  V30 10167 C 957.742 -0.481375 -1.80388 0
M  V30 10168 C 958.093 0.998993 -1.68863 0
M  V30 10169 O 957.218 1.77795 -1.2336 0
M  V30 10170 C 957.813 -0.86699 -3.27519 0
M  V30 10171 C 956.372 -0.569105 -3.72073 0
M  V30 10172 C 955.519 -1.07929 -2.55434 0
M  V30 10173 H 958.47 -1.02089 -1.21505 0
M  V30 10174 H 958.491 -0.174128 -3.80101 0
M  V30 10175 H 958.003 -1.94447 -3.35875 0
M  V30 10176 H 956.104 0.498607 -3.69249 0
M  V30 10177 H 956.217 -1.11918 -4.65845 0
M  V30 10178 H 954.581 -0.500465 -2.49735 0
M  V30 10179 H 955.364 -2.16339 -2.66556 0
M  V30 10180 N 957.809 1.4625 -0.587256 0
M  V30 10181 C 958.739 2.33132 0.131076 0
M  V30 10182 C 959.72 1.45619 0.879158 0
M  V30 10183 O 960.905 1.74428 0.853723 0
M  V30 10184 C 958.035 3.27975 1.14236 0
M  V30 10185 C 956.989 4.24965 0.508819 0
M  V30 10186 C 956.315 5.09349 1.62689 0
M  V30 10187 C 957.615 5.19322 -0.55694 0
M  V30 10188 H 959.309 2.93442 -0.594333 0
M  V30 10189 H 956.855 1.41106 -0.287263 0
M  V30 10190 H 958.808 3.87614 1.65328 0
M  V30 10191 H 957.532 2.65781 1.8981 0
M  V30 10192 H 956.191 3.66595 0.0189337 0
M  V30 10193 H 955.839 4.43537 2.37242 0
M  V30 10194 H 955.539 5.75036 1.20861 0
M  V30 10195 H 957.063 5.71852 2.14049 0
M  V30 10196 H 958.477 5.73151 -0.130903 0
M  V30 10197 H 956.874 5.93376 -0.895801 0
M  V30 10198 H 957.944 4.62979 -1.44148 0
M  V30 10199 N 959.287 0.325282 1.54207 0
M  V30 10200 C 960.25 -0.527228 2.23054 0
M  V30 10201 C 961.25 -1.04217 1.22456 0
M  V30 10202 O 962.44 -0.934325 1.47024 0
M  V30 10203 C 959.572 -1.7325 2.93594 0
M  V30 10204 H 960.765 0.0746423 2.99807 0
M  V30 10205 H 958.318 0.0763872 1.56113 0
M  V30 10206 H 959.053 -2.37356 2.20981 0
M  V30 10207 H 958.838 -1.37065 3.67363 0
M  V30 10208 H 960.328 -2.3376 3.46043 0
M  V30 10209 N 960.765 -1.57509 0.0534917 0
M  V30 10210 C 961.675 -2.15152 -0.935249 0
M  V30 10211 C 962.691 -1.10991 -1.34003 0
M  V30 10212 O 963.867 -1.43171 -1.41648 0
M  V30 10213 C 960.932 -2.68699 -2.19093 0
M  V30 10214 C 959.993 -3.87666 -1.84428 0
M  V30 10215 C 959.226 -4.3865 -3.0401 0
M  V30 10216 O 959.449 -3.887 -4.17455 0
M  V30 10217 O 958.383 -5.30209 -2.84889 0
M  V30 10218 H 962.209 -2.99962 -0.475009 0
M  V30 10219 H 959.794 -1.48446 -0.16854 0
M  V30 10220 H 961.676 -3.03098 -2.92762 0
M  V30 10221 H 960.351 -1.86958 -2.6425 0
M  V30 10222 H 959.258 -3.58151 -1.08068 0
M  V30 10223 H 960.591 -4.70643 -1.44068 0
M  V30 10224 N 962.243 0.219913 -1.56058 0
M  V30 10225 C 963.176 1.29978 -1.87566 0
M  V30 10226 C 964.154 1.45131 -0.733203 0
M  V30 10227 O 965.338 1.60917 -0.981729 0
M  V30 10228 C 962.465 2.66988 -2.08411 0
M  V30 10229 C 961.511 2.68842 -3.31099 0
M  V30 10230 S 962.344 2.22745 -4.86975 0
M  V30 10231 C 963.5 3.61627 -5.10859 0
M  V30 10232 H 963.733 1.03059 -2.78866 0
M  V30 10233 H 961.266 0.422233 -1.48514 0
M  V30 10234 H 963.224 3.45866 -2.21104 0
M  V30 10235 H 961.885 2.91131 -1.17905 0
M  V30 10236 H 961.078 3.69526 -3.42734 0
M  V30 10237 H 960.68 1.98028 -3.17271 0
M  V30 10238 H 962.972 4.57328 -4.99857 0
M  V30 10239 H 963.915 3.54906 -6.12737 0
M  V30 10240 H 964.323 3.55391 -4.38586 0
M  V30 10241 N 963.721 1.49897 0.486681 0
M  V30 10242 C 964.968 1.60105 1.23986 0
M  V30 10243 C 965.296 0.294228 1.92262 0
M  V30 10244 O 964.551 -0.718876 1.82018 0
M  V30 10245 C 964.85 2.71982 2.31863 0
M  V30 10246 C 964.516 4.13 1.80948 0
M  V30 10247 C 963.178 4.51373 1.66782 0
M  V30 10248 C 965.53 5.01198 1.43004 0
M  V30 10249 C 962.858 5.75701 1.13072 0
M  V30 10250 C 965.21 6.26058 0.90742 0
M  V30 10251 C 963.874 6.63247 0.752269 0
M  V30 10252 H 963.144 0.585866 0.453698 0
M  V30 10253 H 965.791 1.83778 0.538305 0
M  V30 10254 H 964.096 2.42336 3.07865 0
M  V30 10255 H 965.793 2.77087 2.89869 0
M  V30 10256 H 962.383 3.82718 1.92937 0
M  V30 10257 H 966.567 4.72196 1.52789 0
M  V30 10258 H 961.823 6.03202 0.997842 0
M  V30 10259 H 965.997 6.9377 0.604684 0
M  V30 10260 H 963.624 7.59466 0.33392 0
M  V30 10261 N 965.199 -0.738761 1.39212 0
M  V30 10262 C 966.447 -1.49529 1.35962 0
M  V30 10263 C 966.768 -1.94948 -0.0450152 0
M  V30 10264 O 966.038 -1.68717 -0.995552 0
M  V30 10265 H 964.618 -0.554692 0.500326 0
M  V30 10266 H 967.28 -0.877255 1.74041 0
M  V30 10267 H 966.376 -2.37919 2.01993 0
M  V30 10268 N 966.677 -1.24326 -0.968545 0
M  V30 10269 C 967.907 -1.10786 -1.74385 0
M  V30 10270 C 968.315 0.342503 -1.86074 0
M  V30 10271 O 967.658 1.24817 -1.34782 0
M  V30 10272 C 967.72 -1.67274 -3.18213 0
M  V30 10273 C 967.384 -3.1615 -3.29998 0
M  V30 10274 C 968.381 -4.13309 -3.15392 0
M  V30 10275 C 966.066 -3.56092 -3.54265 0
M  V30 10276 C 968.06 -5.48392 -3.24878 0
M  V30 10277 C 965.747 -4.91316 -3.63389 0
M  V30 10278 C 966.745 -5.87275 -3.48707 0
M  V30 10279 O 966.433 -7.20041 -3.57485 0
M  V30 10280 H 966.165 -0.387795 -0.553706 0
M  V30 10281 H 968.719 -1.64894 -1.22471 0
M  V30 10282 H 966.949 -1.07598 -3.71429 0
M  V30 10283 H 968.638 -1.49036 -3.77549 0
M  V30 10284 H 969.404 -3.83792 -2.96528 0
M  V30 10285 H 965.283 -2.81907 -3.6476 0
M  V30 10286 H 968.827 -6.23271 -3.13335 0
M  V30 10287 H 964.724 -5.20505 -3.81766 0
M  V30 10288 H 965.492 -7.27951 -3.74205 0
M  V30 10289 N 968.156 1.1691 -1.05688 0
M  V30 10290 C 969.119 2.19297 -0.666433 0
M  V30 10291 C 970.119 1.5826 0.284674 0
M  V30 10292 O 971.309 1.74068 0.0678757 0
M  V30 10293 C 968.441 3.40894 0.0203656 0
M  V30 10294 H 969.634 2.55354 -1.57272 0
M  V30 10295 H 967.187 1.31078 -0.851359 0
M  V30 10296 H 967.922 3.10388 0.939686 0
M  V30 10297 H 967.707 3.86446 -0.663464 0
M  V30 10298 H 969.197 4.16664 0.279475 0
M  V30 10299 N 969.634 0.838594 1.33437 0
M  V30 10300 C 970.862 0.447644 2.01999 0
M  V30 10301 C 971.277 -0.951053 1.63096 0
M  V30 10302 O 970.634 -1.61802 0.844169 0
M  V30 10303 C 970.685 0.558378 3.57162 0
M  V30 10304 O 970.406 1.90196 3.94661 0
M  V30 10305 C 971.907 0.164348 4.42995 0
M  V30 10306 H 969.127 0.177736 0.647032 0
M  V30 10307 H 971.671 1.13109 1.70372 0
M  V30 10308 H 969.826 -0.0771563 3.87323 0
M  V30 10309 H 970.24 1.88729 4.89369 0
M  V30 10310 H 971.714 0.292876 5.51222 0
M  V30 10311 H 972.191 -0.893713 4.30011 0
M  V30 10312 H 972.797 0.774306 4.18192 0
M  V30 10313 N 971.112 -1.45937 0.595003 0
M  V30 10314 C 972.389 -1.95592 0.0178748 0
M  V30 10315 C 972.769 -1.53758 -1.44643 0
M  V30 10316 O 972.117 -0.794104 -2.14257 0
M  V30 10317 C 972.327 -3.4841 0.202789 0
M  V30 10318 C 973.675 -4.2453 0.0770121 0
M  V30 10319 O 974.699 -3.55954 0.132257 0
M  V30 10320 O 973.558 -5.46479 -0.0484271 0
M  V30 10321 H 970.652 -0.825888 -0.0428702 0
M  V30 10322 H 973.198 -1.56162 0.664184 0
M  V30 10323 H 971.97 -3.71787 1.22027 0
M  V30 10324 H 971.593 -3.947 -0.479376 0
M  V30 10325 N 972.59 -0.333456 -1.54032 0
M  V30 10326 C 973.52 0.52051 -2.27625 0
M  V30 10327 C 974.501 1.1111 -1.28797 0
M  V30 10328 O 975.686 1.13438 -1.57625 0
M  V30 10329 C 972.816 1.67663 -3.04149 0
M  V30 10330 C 971.77 1.21487 -4.10396 0
M  V30 10331 C 971.096 2.45872 -4.74817 0
M  V30 10332 C 972.396 0.322603 -5.21303 0
M  V30 10333 H 974.09 -0.0933823 -2.99254 0
M  V30 10334 H 971.636 -0.0463526 -1.43925 0
M  V30 10335 H 973.589 2.28041 -3.54366 0
M  V30 10336 H 972.313 2.31727 -2.30153 0
M  V30 10337 H 970.972 0.633966 -3.61077 0
M  V30 10338 H 970.62 3.0832 -3.97426 0
M  V30 10339 H 970.32 2.15662 -5.46593 0
M  V30 10340 H 971.844 3.06994 -5.27814 0
M  V30 10341 H 973.258 0.832942 -5.67217 0
M  V30 10342 H 971.655 0.112843 -5.99994 0
M  V30 10343 H 972.725 -0.643954 -4.80605 0
M  V30 10344 N 974.068 1.57479 -0.061844 0
M  V30 10345 C 975.484 1.56855 0.294753 0
M  V30 10346 C 975.684 1.07042 1.70717 0
M  V30 10347 O 974.74 0.731817 2.41662 0
M  V30 10348 C 976.053 3.00486 0.113484 0
M  V30 10349 C 977.601 3.1246 0.183778 0
M  V30 10350 C 978.076 4.5799 0.0309092 0
M  V30 10351 N 979.567 4.63119 0.0868393 0
M  V30 10352 C 980.302 5.734 -0.00717446 0
M  V30 10353 N 979.798 6.92628 -0.154144 0
M  V30 10354 N 981.591 5.62078 0.0491763 0
M  V30 10355 H 973.742 1.88176 -0.985058 0
M  V30 10356 H 976.005 0.867051 -0.383309 0
M  V30 10357 H 975.711 3.41004 -0.86075 0
M  V30 10358 H 975.585 3.67029 0.870023 0
M  V30 10359 H 977.972 2.71834 1.14849 0
M  V30 10360 H 978.053 2.48574 -0.603697 0
M  V30 10361 H 977.697 4.99303 -0.930526 0
M  V30 10362 H 977.627 5.19895 0.837664 0
M  V30 10363 H 980.118 3.77374 0.199245 0
M  V30 10364 H 980.431 7.72492 -0.218296 0
M  V30 10365 H 978.776 6.94742 -0.189372 0
M  V30 10366 H 981.967 4.67817 0.162626 0
M  V30 10367 H 982.14 6.47994 -0.0275478 0
M  V30 10368 N 975.546 -0.211634 1.56173 0
M  V30 10369 C 976.771 -0.955324 1.84088 0
M  V30 10370 C 977.196 -1.76754 0.643407 0
M  V30 10371 O 976.554 -1.76653 -0.407842 0
M  V30 10372 C 976.602 -1.84063 3.10085 0
M  V30 10373 O 975.706 -2.9373 2.89476 0
M  V30 10374 H 975.047 -0.26996 0.606645 0
M  V30 10375 H 977.577 -0.221947 2.03393 0
M  V30 10376 H 977.587 -2.24852 3.40449 0
M  V30 10377 H 976.262 -1.24373 3.96868 0
M  V30 10378 H 974.839 -2.56816 2.7037 0
M  V30 10379 N 977.024 -1.50153 -0.478725 0
M  V30 10380 C 977.971 -1.68458 -1.57767 0
M  V30 10381 C 978.941 -0.5259 -1.57555 0
M  V30 10382 O 980.126 -0.755574 -1.75202 0
M  V30 10383 C 977.266 -1.77772 -2.95789 0
M  V30 10384 C 976.379 -3.05092 -3.05848 0
M  V30 10385 C 975.514 -3.05247 -4.34739 0
M  V30 10386 C 974.553 -4.27053 -4.38512 0
M  V30 10387 N 973.69 -4.24991 -5.58862 0
M  V30 10388 H 978.53 -2.62282 -1.41464 0
M  V30 10389 H 976.067 -1.30023 -0.687921 0
M  V30 10390 H 978.025 -1.81152 -3.75819 0
M  V30 10391 H 976.655 -0.873944 -3.10744 0
M  V30 10392 H 975.707 -3.11219 -2.1874 0
M  V30 10393 H 977.019 -3.95075 -3.04495 0
M  V30 10394 H 976.173 -3.07314 -5.23109 0
M  V30 10395 H 974.912 -2.13081 -4.38689 0
M  V30 10396 H 973.917 -4.25206 -3.4854 0
M  V30 10397 H 975.142 -5.20437 -4.36259 0
M  V30 10398 H 973.088 -3.35674 -5.63612 0
M  V30 10399 H 973.005 -5.08734 -5.59219 0
M  V30 10400 H 974.273 -4.31193 -6.49379 0
M  V30 10401 N 978.502 0.731368 -1.39602 0
M  V30 10402 C 979.73 1.52059 -1.40305 0
M  V30 10403 C 980.145 1.888 0.00147921 0
M  V30 10404 O 979.502 1.54354 0.973715 0
M  V30 10405 C 979.553 2.80588 -2.27931 0
M  V30 10406 O 979.274 2.45406 -3.62915 0
M  V30 10407 C 980.775 3.74592 -2.37056 0
M  V30 10408 H 977.995 0.469787 -0.479104 0
M  V30 10409 H 980.539 0.903436 -1.83462 0
M  V30 10410 H 978.694 3.38626 -1.88178 0
M  V30 10411 H 979.108 3.27996 -4.09291 0
M  V30 10412 H 980.582 4.61662 -3.02609 0
M  V30 10413 H 981.059 4.16597 -1.39081 0
M  V30 10414 H 981.665 3.22471 -2.77295 0
M  V30 10415 N 979.98 1.24838 0.961938 0
M  V30 10416 C 980.912 1.00369 2.06055 0
M  V30 10417 C 981.925 -0.0288583 1.62774 0
M  V30 10418 O 983.114 0.208853 1.77274 0
M  V30 10419 C 980.214 0.493953 3.35281 0
M  V30 10420 C 979.387 1.59097 4.07439 0
M  V30 10421 C 978.446 1.08288 5.14937 0
M  V30 10422 O 977.472 1.77577 5.40791 0
M  V30 10423 N 978.674 -0.0796836 5.80445 0
M  V30 10424 H 981.439 1.94962 2.27618 0
M  V30 10425 H 979 1.15945 1.12997 0
M  V30 10426 H 980.992 0.138675 4.04462 0
M  V30 10427 H 979.562 -0.357851 3.10545 0
M  V30 10428 H 978.782 2.11817 3.32456 0
M  V30 10429 H 980.07 2.32817 4.52409 0
M  V30 10430 H 979.468 -0.658827 5.6185 0
M  V30 10431 H 978.025 -0.376057 6.50714 0
M  V30 10432 N 981.458 -1.16348 1.06306 0
M  V30 10433 C 982.706 -1.86512 0.778311 0
M  V30 10434 C 983.027 -1.82107 -0.697273 0
M  V30 10435 O 982.297 -1.2547 -1.50446 0
M  V30 10436 H 980.877 -0.690529 0.284919 0
M  V30 10437 H 983.539 -1.41092 1.34458 0
M  V30 10438 H 982.635 -2.91947 1.10333 0
M  V30 10439 N 982.937 -0.845659 -1.3299 0
M  V30 10440 C 984.353 -0.53433 -1.5039 0
M  V30 10441 C 984.553 0.936939 -1.78392 0
M  V30 10442 O 983.609 1.72043 -1.84818 0
M  V30 10443 C 984.922 -1.41354 -2.65404 0
M  V30 10444 C 986.47 -1.41303 -2.79289 0
M  V30 10445 C 986.945 -2.27724 -3.97373 0
M  V30 10446 N 988.436 -2.25471 -4.0462 0
M  V30 10447 C 989.171 -2.89074 -4.95201 0
M  V30 10448 N 988.667 -3.61755 -5.90851 0
M  V30 10449 N 990.46 -2.78508 -4.88251 0
M  V30 10450 H 982.611 -1.79798 -1.13078 0
M  V30 10451 H 984.874 -0.767454 -0.556524 0
M  V30 10452 H 984.58 -2.45936 -2.51413 0
M  V30 10453 H 984.454 -1.09445 -3.60973 0
M  V30 10454 H 986.841 -0.374899 -2.92709 0
M  V30 10455 H 986.922 -1.77222 -1.84461 0
M  V30 10456 H 986.566 -3.316 -3.84713 0
M  V30 10457 H 986.496 -1.89142 -4.9146 0
M  V30 10458 H 988.987 -1.72622 -3.3617 0
M  V30 10459 H 989.3 -4.07475 -6.56646 0
M  V30 10460 H 987.645 -3.65863 -5.90906 0
M  V30 10461 H 990.836 -2.21285 -4.12493 0
M  V30 10462 H 991.009 -3.2836 -5.58645 0
M  V30 10463 N 984.415 1.45619 -0.602734 0
M  V30 10464 C 985.663 2.01873 -0.095844 0
M  V30 10465 C 985.984 1.47427 1.27633 0
M  V30 10466 O 985.254 0.666652 1.84208 0
M  V30 10467 H 983.834 0.746295 -0.0324408 0
M  V30 10468 H 986.496 1.78478 -0.783037 0
M  V30 10469 H 985.592 3.12072 -0.0419507 0
M  V30 10470 N 985.893 0.34162 1.53853 0
M  V30 10471 C 987.118 -0.259608 2.05769 0
M  V30 10472 C 987.543 -1.43588 1.21507 0
M  V30 10473 O 986.901 -1.79856 0.228364 0
M  V30 10474 C 986.949 -0.654455 3.54611 0
M  V30 10475 O 986.053 -1.75472 3.73207 0
M  V30 10476 H 985.394 -0.0434621 0.662576 0
M  V30 10477 H 987.924 0.495274 1.98515 0
M  V30 10478 H 987.934 -0.932142 3.97209 0
M  V30 10479 H 986.609 0.205779 4.15391 0
M  V30 10480 H 985.186 -1.47444 3.42512 0
M  V30 10481 N 987.371 -1.57444 0.0701946 0
M  V30 10482 C 988.618 -1.93429 -0.59929 0
M  V30 10483 C 988.946 -0.9501 -1.69715 0
M  V30 10484 O 988.201 0.0345377 -1.9567 0
M  V30 10485 C 988.5 -3.36044 -1.21694 0
M  V30 10486 C 988.166 -4.50232 -0.245374 0
M  V30 10487 C 986.828 -4.81195 0.0219161 0
M  V30 10488 C 989.18 -5.1951 0.419396 0
M  V30 10489 C 986.508 -5.78775 0.96109 0
M  V30 10490 C 988.86 -6.18095 1.34688 0
M  V30 10491 C 987.524 -6.47477 1.62265 0
M  V30 10492 H 986.794 -0.707807 -0.219296 0
M  V30 10493 H 989.441 -1.90982 0.14073 0
M  V30 10494 H 987.746 -3.34948 -2.03265 0
M  V30 10495 H 989.443 -3.61176 -1.74221 0
M  V30 10496 H 986.033 -4.26082 -0.463887 0
M  V30 10497 H 990.217 -4.95785 0.226009 0
M  V30 10498 H 985.473 -5.99865 1.18202 0
M  V30 10499 H 989.647 -6.7088 1.86795 0
M  V30 10500 H 987.274 -7.229 2.352 0
M  V30 10501 N 988.849 0.203349 -1.56283 0
M  V30 10502 C 990.095 0.926381 -1.80405 0
M  V30 10503 C 990.428 1.8325 -0.642883 0
M  V30 10504 O 989.703 1.91196 0.356998 0
M  V30 10505 C 989.986 1.74972 -3.14733 0
M  V30 10506 C 989.839 0.868866 -4.41328 0
M  V30 10507 C 991.158 2.72394 -3.45672 0
M  V30 10508 H 988.277 0.335346 -0.656286 0
M  V30 10509 H 990.919 0.1942 -1.89005 0
M  V30 10510 H 989.069 2.37394 -3.07533 0
M  V30 10511 H 990.741 0.259986 -4.60567 0
M  V30 10512 H 988.984 0.175161 -4.33446 0
M  V30 10513 H 989.655 1.47975 -5.31796 0
M  V30 10514 H 992.131 2.20105 -3.53119 0
M  V30 10515 H 991.007 3.27091 -4.40798 0
M  V30 10516 H 991.268 3.51035 -2.6875 0
M  V30 10517 N 990.327 1.50405 0.470755 0
M  V30 10518 C 991.26 1.63933 1.58749 0
M  V30 10519 C 992.238 0.487444 1.55122 0
M  V30 10520 O 993.422 0.706992 1.74739 0
M  V30 10521 C 990.549 1.62222 2.97324 0
M  V30 10522 C 989.595 2.82975 3.19104 0
M  V30 10523 S 990.428 4.44272 2.98969 0
M  V30 10524 C 991.584 4.45254 4.39886 0
M  V30 10525 H 991.817 2.58396 1.47034 0
M  V30 10526 H 989.35 1.39672 0.658115 0
M  V30 10527 H 991.308 1.6192 3.77217 0
M  V30 10528 H 989.969 0.689944 3.06429 0
M  V30 10529 H 989.162 2.78083 4.2034 0
M  V30 10530 H 988.764 2.80846 2.46984 0
M  V30 10531 H 991.056 4.18837 5.32524 0
M  V30 10532 H 991.999 5.4687 4.49821 0
M  V30 10533 H 992.407 3.74958 4.2198 0
M  V30 10534 N 991.805 -0.723954 1.39988 0
M  V30 10535 C 993.052 -1.48371 1.37812 0
M  V30 10536 C 993.38 -1.94487 -0.0223285 0
M  V30 10537 O 992.635 -1.67906 -1.00529 0
M  V30 10538 C 992.934 -2.73004 2.30659 0
M  V30 10539 C 992.6 -2.45698 3.78078 0
M  V30 10540 C 991.262 -2.37961 4.18244 0
M  V30 10541 C 993.614 -2.22601 4.71273 0
M  V30 10542 C 990.942 -2.05183 5.49652 0
M  V30 10543 C 993.294 -1.91339 6.0297 0
M  V30 10544 C 991.958 -1.82078 6.42187 0
M  V30 10545 H 991.228 -0.542929 0.504291 0
M  V30 10546 H 993.875 -0.829986 1.72579 0
M  V30 10547 H 992.18 -3.43174 1.89048 0
M  V30 10548 H 993.877 -3.31068 2.26263 0
M  V30 10549 H 990.467 -2.52603 3.46251 0
M  V30 10550 H 994.651 -2.2754 4.41066 0
M  V30 10551 H 989.907 -1.96544 5.78948 0
M  V30 10552 H 994.081 -1.72479 6.74703 0
M  V30 10553 H 991.708 -1.56446 7.43928 0
M  V30 10554 N 993.283 -1.25346 -0.955304 0
M  V30 10555 C 994.53 -1.10055 -1.69983 0
M  V30 10556 C 994.858 0.358586 -1.91166 0
M  V30 10557 O 994.113 1.28071 -1.47974 0
M  V30 10558 C 994.412 -1.7993 -3.08804 0
M  V30 10559 C 994.078 -3.29851 -3.07424 0
M  V30 10560 C 992.74 -3.7075 -3.06754 0
M  V30 10561 C 995.092 -4.25636 -3.00805 0
M  V30 10562 C 992.42 -5.05847 -2.97214 0
M  V30 10563 C 994.772 -5.60756 -2.92806 0
M  V30 10564 C 993.436 -6.00984 -2.90472 0
M  V30 10565 H 992.706 -0.402718 -0.622012 0
M  V30 10566 H 995.353 -1.5561 -1.11614 0
M  V30 10567 H 993.658 -1.26803 -3.70713 0
M  V30 10568 H 995.355 -1.65551 -3.65231 0
M  V30 10569 H 991.945 -2.97308 -3.08716 0
M  V30 10570 H 996.129 -3.9503 -3.00441 0
M  V30 10571 H 991.385 -5.36196 -2.93775 0
M  V30 10572 H 995.559 -6.34671 -2.86645 0
M  V30 10573 H 993.186 -7.05626 -2.82835 0
M  V30 10574 N 994.761 1.15782 -1.06922 0
M  V30 10575 C 996.038 1.8253 -0.703 0
M  V30 10576 C 996.418 1.94733 0.814994 0
M  V30 10577 O 995.766 1.49537 1.72774 0
M  V30 10578 C 995.976 3.19145 -1.41234 0
M  V30 10579 C 997.324 3.94839 -1.56164 0
M  V30 10580 O 998.348 3.28685 -1.37277 0
M  V30 10581 O 997.207 5.13436 -1.87205 0
M  V30 10582 H 994.301 0.788425 -0.24963 0
M  V30 10583 H 996.847 1.22931 -1.16988 0
M  V30 10584 H 995.619 3.05336 -2.44715 0
M  V30 10585 H 995.242 3.86427 -0.935959 0
M  V30 10586 N 996.239 0.8527 1.3254 0
M  V30 10587 C 997.189 0.267711 2.26423 0
M  V30 10588 C 998.173 -0.585305 1.49877 0
M  V30 10589 O 999.365 -0.435008 1.71571 0
M  V30 10590 C 996.494 -0.544605 3.38953 0
M  V30 10591 C 995.58 0.32069 4.22886 0
M  V30 10592 N 995.971 1.40601 4.85865 0
M  V30 10593 C 994.269 0.110101 4.45864 0
M  V30 10594 C 994.97 1.93819 5.48461 0
M  V30 10595 N 993.946 1.23764 5.29324 0
M  V30 10596 H 997.748 1.09747 2.7264 0
M  V30 10597 H 995.262 0.698607 1.46606 0
M  V30 10598 H 997.259 -0.98009 4.05216 0
M  V30 10599 H 995.919 -1.37218 2.94281 0
M  V30 10600 H 996.93 1.78894 4.86022 0
M  V30 10601 H 993.607 -0.682917 4.11877 0
M  V30 10602 H 994.997 2.84783 6.08562 0
M  V30 10603 N 997.718 -1.45297 0.610449 0
M  V30 10604 C 998.948 -2.0629 0.113047 0
M  V30 10605 C 999.356 -1.45527 -1.20907 0
M  V30 10606 O 998.699 -0.564837 -1.74801 0
M  V30 10607 C 998.761 -3.59366 -0.0979692 0
M  V30 10608 C 998.425 -4.42481 1.14279 0
M  V30 10609 C 999.422 -4.77277 2.06161 0
M  V30 10610 C 997.107 -4.83187 1.37241 0
M  V30 10611 C 999.101 -5.51639 3.19333 0
M  V30 10612 C 996.788 -5.57303 2.50713 0
M  V30 10613 C 997.786 -5.91445 3.41587 0
M  V30 10614 O 997.474 -6.64056 4.53083 0
M  V30 10615 H 997.206 -0.67264 0.0673159 0
M  V30 10616 H 999.76 -1.87486 0.838937 0
M  V30 10617 H 997.99 -3.76582 -0.878783 0
M  V30 10618 H 999.679 -4.02193 -0.547327 0
M  V30 10619 H 1000.44 -4.46384 1.89647 0
M  V30 10620 H 996.324 -4.56045 0.67407 0
M  V30 10621 H 999.868 -5.78207 3.90286 0
M  V30 10622 H 995.765 -5.8761 2.67179 0
M  V30 10623 H 996.533 -6.82509 4.51801 0
M  V30 10624 N 999.196 -0.349774 -1.5367 0
M  V30 10625 C 1000.13 0.538575 -2.22782 0
M  V30 10626 C 1001.14 1.05896 -1.23652 0
M  V30 10627 O 1002.33 0.968045 -1.4997 0
M  V30 10628 C 999.43 1.7546 -2.89943 0
M  V30 10629 C 998.603 1.36843 -4.15443 0
M  V30 10630 C 997.662 2.4448 -4.65957 0
M  V30 10631 O 996.688 2.07528 -5.3002 0
M  V30 10632 N 997.89 3.75829 -4.42417 0
M  V30 10633 H 1000.65 -0.053348 -2.99653 0
M  V30 10634 H 998.216 -0.174193 -1.6096 0
M  V30 10635 H 1000.21 2.46911 -3.20651 0
M  V30 10636 H 998.778 2.25375 -2.16622 0
M  V30 10637 H 997.998 0.484421 -3.91212 0
M  V30 10638 H 999.286 1.0865 -4.97064 0
M  V30 10639 H 998.684 4.08635 -3.91196 0
M  V30 10640 H 997.241 4.43432 -4.77714 0
M  V30 10641 N 1000.67 1.57404 -0.0785433 0
M  V30 10642 C 1001.58 2.16612 0.900902 0
M  V30 10643 C 1002.6 1.13109 1.32221 0
M  V30 10644 O 1003.78 1.45406 1.39352 0
M  V30 10645 C 1000.84 2.7215 2.14791 0
M  V30 10646 C 999.902 3.90551 1.78237 0
M  V30 10647 C 999.135 4.43431 2.96993 0
M  V30 10648 O 999.358 3.95292 4.11218 0
M  V30 10649 O 998.292 5.34674 2.76418 0
M  V30 10650 H 1002.12 3.0068 0.427227 0
M  V30 10651 H 999.703 1.48696 0.144902 0
M  V30 10652 H 1001.58 3.07718 2.87902 0
M  V30 10653 H 1000.26 1.91139 2.61243 0
M  V30 10654 H 999.167 3.59825 1.02357 0
M  V30 10655 H 1000.5 4.72876 1.36562 0
M  V30 10656 N 1002.15 -0.195058 1.56388 0
M  V30 10657 C 1003.4 -0.9168 1.80894 0
M  V30 10658 C 1003.73 -1.82907 0.652592 0
M  V30 10659 O 1003.01 -1.91382 -0.346853 0
M  V30 10660 C 1003.29 -1.733 3.15657 0
M  V30 10661 C 1003.14 -0.845449 4.41783 0
M  V30 10662 C 1004.46 -2.70557 3.47112 0
M  V30 10663 H 1001.58 -0.331861 0.658056 0
M  V30 10664 H 1004.22 -0.184174 1.89105 0
M  V30 10665 H 1002.37 -2.3576 3.08787 0
M  V30 10666 H 1004.04 -0.235557 4.60698 0
M  V30 10667 H 1002.29 -0.152172 4.33533 0
M  V30 10668 H 1002.96 -1.45152 5.32574 0
M  V30 10669 H 1005.43 -2.1823 3.54281 0
M  V30 10670 H 1004.31 -3.24749 4.42526 0
M  V30 10671 H 1004.57 -3.49605 2.70608 0
M  V30 10672 N 1003.63 -1.50653 -0.462772 0
M  V30 10673 C 1005.04 -1.54821 -1.04342 0
M  V30 10674 C 1005.39 -0.356595 -1.92932 0
M  V30 10675 O 1004.52 0.529579 -2.0982 0
M  V30 10676 C 1005.11 -2.80571 -1.89909 0
M  V30 10677 C 1003.67 -2.87394 -2.43067 0
M  V30 10678 C 1002.82 -2.49206 -1.21621 0
M  V30 10679 H 1005.77 -1.56797 -0.245048 0
M  V30 10680 H 1005.79 -2.62897 -2.75074 0
M  V30 10681 H 1005.3 -3.67281 -1.25405 0
M  V30 10682 H 1003.4 -2.05055 -3.111 0
M  V30 10683 H 1003.52 -3.90477 -2.77605 0
M  V30 10684 H 1001.88 -2.01829 -1.55361 0
M  V30 10685 H 1002.66 -3.38233 -0.587669 0
M  V30 10686 N 1005.11 0.71652 -1.4037 0
M  V30 10687 C 1006.06 1.8306 -1.40562 0
M  V30 10688 C 1007.03 1.64009 -0.262697 0
M  V30 10689 O 1008.21 1.85157 -0.460619 0
M  V30 10690 C 1005.35 3.2076 -1.27307 0
M  V30 10691 C 1004.46 3.51389 -2.51296 0
M  V30 10692 C 1003.6 4.78589 -2.30491 0
M  V30 10693 C 1002.64 5.02119 -3.50061 0
M  V30 10694 N 1001.77 6.20533 -3.28457 0
M  V30 10695 H 1006.61 1.82231 -2.35788 0
M  V30 10696 H 1004.15 0.890198 -1.17106 0
M  V30 10697 H 1006.11 4.00274 -1.17628 0
M  V30 10698 H 1004.74 3.2082 -0.357005 0
M  V30 10699 H 1003.79 2.66436 -2.71507 0
M  V30 10700 H 1005.1 3.64686 -3.40302 0
M  V30 10701 H 1004.26 5.66119 -2.1816 0
M  V30 10702 H 1003 4.67499 -1.38909 0
M  V30 10703 H 1002 4.13044 -3.6287 0
M  V30 10704 H 1003.23 5.15082 -4.42569 0
M  V30 10705 H 1001.17 6.10695 -2.39556 0
M  V30 10706 H 1001.09 6.34502 -4.11027 0
M  V30 10707 H 1002.36 7.10853 -3.19857 0
M  V30 10708 N 1006.59 1.25851 0.948643 0
M  V30 10709 C 1007.52 1.02549 2.04979 0
M  V30 10710 C 1008.53 -0.0115923 1.62796 0
M  V30 10711 O 1009.72 0.227643 1.77042 0
M  V30 10712 C 1006.82 0.529486 3.34738 0
M  V30 10713 C 1005.99 1.6341 4.05729 0
M  V30 10714 C 1005.05 1.13743 5.1376 0
M  V30 10715 O 1004.08 1.83303 5.38877 0
M  V30 10716 N 1005.28 -0.0181151 5.80497 0
M  V30 10717 H 1008.05 1.97365 2.25537 0
M  V30 10718 H 1005.61 1.17137 1.11761 0
M  V30 10719 H 1007.6 0.181566 4.04293 0
M  V30 10720 H 1006.17 -0.324893 3.10907 0
M  V30 10721 H 1005.39 2.15331 3.30191 0
M  V30 10722 H 1006.68 2.37603 4.49914 0
M  V30 10723 H 1006.07 -0.599198 5.62518 0
M  V30 10724 H 1004.63 -0.307019 6.51077 0
M  V30 10725 N 1008.06 -1.15214 1.07534 0
M  V30 10726 C 1009.31 -1.86319 0.800814 0
M  V30 10727 C 1009.64 -1.82221 -0.671494 0
M  V30 10728 O 1008.92 -1.24664 -1.49295 0
M  V30 10729 C 1009.2 -3.35347 1.31203 0
M  V30 10730 C 1009.05 -3.48067 2.84902 0
M  V30 10731 C 1010.37 -4.3016 0.930064 0
M  V30 10732 H 1007.49 -0.676523 0.292379 0
M  V30 10733 H 1010.13 -1.35349 1.33344 0
M  V30 10734 H 1008.28 -3.78886 0.858949 0
M  V30 10735 H 1009.96 -3.13379 3.38514 0
M  V30 10736 H 1008.2 -2.89566 3.23008 0
M  V30 10737 H 1008.87 -4.52782 3.15741 0
M  V30 10738 H 1011.35 -3.94591 1.3205 0
M  V30 10739 H 1010.22 -5.32914 1.31507 0
M  V30 10740 H 1010.48 -4.41796 -0.163824 0
M  V30 10741 N 1009.54 -0.859717 -1.32086 0
M  V30 10742 C 1010.47 -0.265258 -2.2766 0
M  V30 10743 C 1011.49 0.565889 -1.52648 0
M  V30 10744 O 1012.68 0.389554 -1.74197 0
M  V30 10745 C 1009.78 0.643397 -3.32737 0
M  V30 10746 C 1008.95 -0.153024 -4.37132 0
M  V30 10747 C 1008.01 0.682176 -5.21759 0
M  V30 10748 O 1007.03 0.113878 -5.69086 0
M  V30 10749 N 1008.24 1.99602 -5.45105 0
M  V30 10750 H 1011 -1.08653 -2.79311 0
M  V30 10751 H 1008.56 -0.720191 -1.45 0
M  V30 10752 H 1010.55 1.20759 -3.86263 0
M  V30 10753 H 1009.12 1.36535 -2.81206 0
M  V30 10754 H 1008.34 -0.898657 -3.8382 0
M  V30 10755 H 1009.63 -0.699877 -5.03963 0
M  V30 10756 H 1009.03 2.481 -5.08393 0
M  V30 10757 H 1007.59 2.50823 -6.01607 0
M  V30 10758 N 1011.02 1.44971 -0.618145 0
M  V30 10759 C 1011.93 2.34403 0.0960457 0
M  V30 10760 C 1012.95 1.51862 0.849355 0
M  V30 10761 O 1014.12 1.84632 0.804557 0
M  V30 10762 C 1011.19 3.29646 1.07397 0
M  V30 10763 C 1010.25 4.28095 0.321466 0
M  V30 10764 C 1009.48 5.18787 1.25281 0
M  V30 10765 O 1009.7 5.1313 2.49106 0
M  V30 10766 O 1008.64 5.97282 0.744156 0
M  V30 10767 H 1012.46 2.96898 -0.639176 0
M  V30 10768 H 1010.05 1.44529 -0.37837 0
M  V30 10769 H 1011.93 3.88307 1.63694 0
M  V30 10770 H 1010.61 2.69702 1.79004 0
M  V30 10771 H 1009.51 3.73019 -0.284223 0
M  V30 10772 H 1010.85 4.90923 -0.354315 0
M  V30 10773 N 1012.5 0.357919 1.53482 0
M  V30 10774 C 1013.45 -0.49217 2.25491 0
M  V30 10775 C 1014.42 -1.08382 1.25867 0
M  V30 10776 O 1015.6 -1.11775 1.54632 0
M  V30 10777 C 1012.74 -1.6299 3.04185 0
M  V30 10778 C 1011.85 -1.06416 4.18688 0
M  V30 10779 C 1010.99 -2.17037 4.84839 0
M  V30 10780 C 1010.03 -1.57889 5.91386 0
M  V30 10781 N 1009.16 -2.6231 6.51259 0
M  V30 10782 H 1014 0.128412 2.97723 0
M  V30 10783 H 1011.54 0.0751423 1.46908 0
M  V30 10784 H 1013.5 -2.29993 3.48079 0
M  V30 10785 H 1012.13 -2.22125 2.34223 0
M  V30 10786 H 1011.18 -0.284635 3.79334 0
M  V30 10787 H 1012.49 -0.591654 4.95279 0
M  V30 10788 H 1011.65 -2.91876 5.31877 0
M  V30 10789 H 1010.39 -2.67636 4.07703 0
M  V30 10790 H 1009.39 -0.815605 5.43717 0
M  V30 10791 H 1010.62 -1.08123 6.70437 0
M  V30 10792 H 1008.56 -3.12137 5.7698 0
M  V30 10793 H 1008.48 -2.19724 7.23365 0
M  V30 10794 H 1009.75 -3.36875 7.02948 0
M  V30 10795 N 1013.98 -1.5736 0.0868897 0
M  V30 10796 C 1014.91 -2.16596 -0.872252 0
M  V30 10797 C 1015.89 -1.09706 -1.29995 0
M  V30 10798 O 1017.07 -1.37808 -1.36831 0
M  V30 10799 C 1014.2 -2.73972 -2.1344 0
M  V30 10800 C 1013.16 -3.86163 -1.8456 0
M  V30 10801 C 1012.48 -4.30206 -3.17533 0
M  V30 10802 C 1013.78 -5.0973 -1.13899 0
M  V30 10803 H 1015.48 -2.96995 -0.378738 0
M  V30 10804 H 1013.02 -1.42861 -0.18073 0
M  V30 10805 H 1014.98 -3.14062 -2.80968 0
M  V30 10806 H 1013.7 -1.90817 -2.6506 0
M  V30 10807 H 1012.36 -3.466 -1.19432 0
M  V30 10808 H 1012.01 -3.43951 -3.67024 0
M  V30 10809 H 1011.71 -5.05841 -2.98996 0
M  V30 10810 H 1013.23 -4.72922 -3.86234 0
M  V30 10811 H 1014.64 -5.4704 -1.71523 0
M  V30 10812 H 1013.04 -5.90741 -1.05569 0
M  V30 10813 H 1014.11 -4.8475 -0.120432 0
M  V30 10814 N 1015.45 0.186762 -1.56489 0
M  V30 10815 C 1016.7 0.904077 -1.80303 0
M  V30 10816 C 1017.02 1.84073 -0.661538 0
M  V30 10817 O 1018.22 2.59928 -0.784197 0
M  V30 10818 C 1016.68 1.65806 -3.19432 0
M  V30 10819 C 1016.29 0.765807 -4.41406 0
M  V30 10820 C 1018.03 2.36451 -3.52549 0
M  V30 10821 C 1015.94 1.51913 -5.71556 0
M  V30 10822 H 1014.87 0.34133 -0.672317 0
M  V30 10823 H 1017.52 0.157218 -1.82825 0
M  V30 10824 H 1015.9 2.44911 -3.11183 0
M  V30 10825 H 1017.07 0.0128225 -4.60798 0
M  V30 10826 H 1015.39 0.169772 -4.16054 0
M  V30 10827 H 1017.99 2.93378 -4.47027 0
M  V30 10828 H 1018.33 3.11044 -2.7669 0
M  V30 10829 H 1018.86 1.64305 -3.62283 0
M  V30 10830 H 1015.6 0.815829 -6.50403 0
M  V30 10831 H 1015.12 2.24583 -5.56168 0
M  V30 10832 H 1016.8 2.07073 -6.12968 0
M  V30 10833 N 1016.93 1.50896 0.454776 0
M  V30 10834 C 1017.88 1.70947 1.55067 0
M  V30 10835 C 1018.85 0.550899 1.56698 0
M  V30 10836 O 1020.03 0.783352 1.73978 0
M  V30 10837 C 1017.17 1.82455 2.92924 0
M  V30 10838 C 1016.29 3.09919 3.00956 0
M  V30 10839 C 1015.42 3.12125 4.29827 0
M  V30 10840 C 1014.46 4.33975 4.31662 0
M  V30 10841 N 1013.6 4.33828 5.5203 0
M  V30 10842 H 1018.44 2.645 1.37273 0
M  V30 10843 H 1015.98 1.31101 0.667148 0
M  V30 10844 H 1017.93 1.87108 3.72889 0
M  V30 10845 H 1016.56 0.92327 3.09315 0
M  V30 10846 H 1015.62 3.14659 2.13761 0
M  V30 10847 H 1016.93 3.99869 2.98172 0
M  V30 10848 H 1016.08 3.15598 5.18154 0
M  V30 10849 H 1014.82 2.20033 4.35243 0
M  V30 10850 H 1013.83 4.30697 3.41731 0
M  V30 10851 H 1015.05 5.27312 4.27924 0
M  V30 10852 H 1013 3.44598 5.58201 0
M  V30 10853 H 1012.91 5.17566 5.51055 0
M  V30 10854 H 1014.18 4.4147 6.42437 0
M  V30 10855 N 1018.41 -0.709066 1.40748 0
M  V30 10856 C 1019.66 -1.46611 1.39103 0
M  V30 10857 C 1019.98 -1.95 -0.00365366 0
M  V30 10858 O 1019.25 -1.70791 -0.959541 0
M  V30 10859 H 1017.83 -0.543954 0.511979 0
M  V30 10860 H 1020.49 -0.840141 1.75863 0
M  V30 10861 H 1019.59 -2.33581 2.06994 0
M  V30 10862 N 1019.89 -1.26353 -0.941956 0
M  V30 10863 C 1020.82 -1.03634 -2.04432 0
M  V30 10864 C 1021.83 0.00295864 -1.628 0
M  V30 10865 O 1023.02 -0.237029 -1.76919 0
M  V30 10866 C 1020.12 -0.547231 -3.34453 0
M  V30 10867 C 1019.3 -1.65559 -4.04857 0
M  V30 10868 C 1018.36 -1.16466 -5.13149 0
M  V30 10869 O 1017.38 -1.86158 -5.37898 0
M  V30 10870 N 1018.58 -0.0126703 -5.80499 0
M  V30 10871 H 1021.35 -1.98558 -2.24488 0
M  V30 10872 H 1018.91 -1.17728 -1.11138 0
M  V30 10873 H 1020.9 -0.203004 -4.04191 0
M  V30 10874 H 1019.47 0.308401 -3.11075 0
M  V30 10875 H 1018.69 -2.17079 -3.29044 0
M  V30 10876 H 1019.98 -2.39985 -4.48647 0
M  V30 10877 H 1019.38 0.569358 -5.62828 0
M  V30 10878 H 1017.93 0.272486 -6.5123 0
M  V30 10879 O 1021.41 1.07557 -1.20473 0
M  V30 10880 H 1022.1 1.68291 -0.959058 0
M  V30 END ATOM
M  V30 BEGIN BOND
M  V30 END BOND
M  V30 END CTAB
M  END
$$$$
