drugbank_target|P13612 Integrin alpha-4 (DB00108; DB04997; DB05092; DB05122; DB05468; DB06822; DB09033)
 OpenBabel12092119353D

  0  0  0     0  0            999 V3000
M  V30 BEGIN CTAB
M  V30 COUNTS 16041 16212 0 0 0
M  V30 BEGIN ATOM
M  V30 1 H -0.908 1.98254 -0.117106 0
M  V30 2 N 0 1.576 0 0
M  V30 3 C 0.933 2.03868 1.02534 0
M  V30 4 C 1.911 0.928543 1.3348 0
M  V30 5 O 3.095 1.19667 1.45644 0
M  V30 6 C 0.222 2.43627 2.35294 0
M  V30 7 C -0.732 3.65373 2.2001 0
M  V30 8 S 0.101 5.13292 1.52614 0
M  V30 9 C 1.257 5.56322 2.86805 0
M  V30 10 H 1.49 2.90518 0.631377 0
M  V30 11 H -0.977 1.52953 0.210867 0
M  V30 12 H 0.981 2.67203 3.11629 0
M  V30 13 H -0.358 1.57376 2.7183 0
M  V30 14 H -1.165 3.90944 3.18086 0
M  V30 15 H -1.563 3.418 1.51819 0
M  V30 16 H 0.729 5.58782 3.83104 0
M  V30 17 H 1.672 6.56266 2.65933 0
M  V30 18 H 2.08 4.83886 2.90714 0
M  V30 19 N 1.4781 -0.272755 1.55222 0
M  V30 20 C 2.4411 -1.32041 1.87344 0
M  V30 21 C 3.4411 -1.42342 0.74803 0
M  V30 22 O 4.6311 -1.41488 1.0162 0
M  V30 23 C 1.7631 -2.70173 2.07893 0
M  V30 24 H 2.9561 -1.04789 2.80997 0
M  V30 25 H 0.5091 -0.51083 1.47717 0
M  V30 26 H 1.2441 -3.02605 1.16622 0
M  V30 27 H 1.0291 -2.64082 2.89833 0
M  V30 28 H 2.5191 -3.45869 2.34017 0
M  V30 29 N 2.9562 -1.48159 -0.537278 0
M  V30 30 C 4.2022 -1.57015 -1.29297 0
M  V30 31 C 4.5572 -0.237791 -1.90925 0
M  V30 32 O 3.8502 0.758621 -1.75942 0
M  V30 33 C 4.0442 -2.63956 -2.40961 0
M  V30 34 C 3.8732 -4.07461 -1.90278 0
M  V30 35 C 2.6432 -4.74685 -1.73213 0
M  V30 36 C 4.8412 -4.93858 -1.43556 0
M  V30 37 N 2.8232 -6.02633 -1.17078 0
M  V30 38 C 4.1942 -6.11993 -0.993204 0
M  V30 39 C 6.2492 -4.80141 -1.31792 0
M  V30 40 C 4.9522 -7.17923 -0.444872 0
M  V30 41 C 6.9782 -5.86186 -0.783585 0
M  V30 42 C 6.3402 -7.03524 -0.351261 0
M  V30 43 H 2.4392 -0.629154 -0.464423 0
M  V30 44 H 5.0232 -1.85006 -0.606705 0
M  V30 45 H 3.1942 -2.378 -3.07093 0
M  V30 46 H 4.9262 -2.62539 -3.07986 0
M  V30 47 H 1.6812 -4.30902 -1.9652 0
M  V30 48 H 2.1052 -6.7085 -0.910421 0
M  V30 49 H 6.7472 -3.89772 -1.63823 0
M  V30 50 H 4.4652 -8.08022 -0.11222 0
M  V30 51 H 8.0512 -5.77624 -0.695835 0
M  V30 52 H 6.9312 -7.8418 0.055777 0
M  V30 53 N 4.4343 0.785586 -1.36625 0
M  V30 54 C 5.3443 1.92964 -1.33425 0
M  V30 55 C 6.3603 1.72394 -0.235851 0
M  V30 56 O 7.5363 1.95866 -0.468878 0
M  V30 57 C 4.6013 3.27884 -1.12662 0
M  V30 58 C 3.6623 3.61204 -2.32013 0
M  V30 59 C 2.8953 4.89687 -2.12231 0
M  V30 60 O 3.1183 5.59704 -1.09945 0
M  V30 61 O 2.0523 5.21752 -3.00098 0
M  V30 62 H 5.8783 1.98613 -2.29753 0
M  V30 63 H 3.4633 0.926384 -1.17211 0
M  V30 64 H 5.3453 4.08614 -1.03016 0
M  V30 65 H 4.0203 3.23118 -0.193991 0
M  V30 66 H 2.9273 2.80765 -2.47228 0
M  V30 67 H 4.2603 3.70698 -3.23796 0
M  V30 68 N 5.9124 1.20967 1.01018 0
M  V30 69 C 6.8754 0.965918 2.07853 0
M  V30 70 C 7.8754 -0.0610545 1.60684 0
M  V30 71 O 9.0654 0.175681 1.73312 0
M  V30 72 C 6.1974 0.455513 3.37843 0
M  V30 73 H 7.3904 1.91365 2.3091 0
M  V30 74 H 4.9434 1.02594 1.17916 0
M  V30 75 H 5.6784 -0.497381 3.20463 0
M  V30 76 H 5.4634 1.19622 3.73407 0
M  V30 77 H 6.9534 0.304667 4.16487 0
M  V30 78 N 7.3905 -1.2043 1.01659 0
M  V30 79 C 8.8065 -1.41852 0.731442 0
M  V30 80 C 9.0065 -1.89358 -0.688898 0
M  V30 81 O 8.0625 -2.06247 -1.45666 0
M  V30 82 C 9.3755 -2.44019 1.75714 0
M  V30 83 C 10.9235 -2.57785 1.77527 0
M  V30 84 C 11.3985 -3.63194 2.79023 0
M  V30 85 N 12.8895 -3.70678 2.77763 0
M  V30 86 C 13.6245 -4.51897 3.52954 0
M  V30 87 N 13.1205 -5.36921 4.37821 0
M  V30 88 N 14.9135 -4.4643 3.41551 0
M  V30 89 H 7.0645 -0.879093 1.93354 0
M  V30 90 H 9.3275 -0.448425 0.835236 0
M  V30 91 H 9.0335 -2.1611 2.77469 0
M  V30 92 H 8.9075 -3.43007 1.56927 0
M  V30 93 H 11.2945 -2.85023 0.764569 0
M  V30 94 H 11.3755 -1.58992 2.00387 0
M  V30 95 H 11.0195 -3.36699 3.80258 0
M  V30 96 H 10.9495 -4.61609 2.53425 0
M  V30 97 H 13.4405 -3.09944 2.16201 0
M  V30 98 H 13.7535 -5.95981 4.91962 0
M  V30 99 H 12.0985 -5.36424 4.41899 0
M  V30 100 H 15.2895 -3.79042 2.74672 0
M  V30 101 H 15.4625 -5.09491 4.00404 0
M  V30 102 N 8.8686 -0.792821 -1.36206 0
M  V30 103 C 10.2846 -0.474903 -1.52371 0
M  V30 104 C 10.4846 1.00622 -1.74578 0
M  V30 105 O 9.5406 1.79162 -1.77924 0
M  V30 106 C 10.8536 -1.3083 -2.70747 0
M  V30 107 C 12.4016 -1.30234 -2.84619 0
M  V30 108 C 12.8766 -2.11956 -4.06004 0
M  V30 109 N 14.3676 -2.09419 -4.13156 0
M  V30 110 C 15.1026 -2.69419 -5.06163 0
M  V30 111 N 14.5986 -3.3829 -6.04592 0
M  V30 112 N 16.3916 -2.59134 -4.98804 0
M  V30 113 H 8.5426 -1.75222 -1.20046 0
M  V30 114 H 10.8056 -0.745024 -0.586211 0
M  V30 115 H 10.5116 -2.35881 -2.6087 0
M  V30 116 H 10.3856 -0.95196 -3.6499 0
M  V30 117 H 12.7726 -0.259748 -2.93955 0
M  V30 118 H 12.8536 -1.69847 -1.91274 0
M  V30 119 H 12.4976 -3.16248 -3.97429 0
M  V30 120 H 12.4276 -1.69711 -4.98503 0
M  V30 121 H 14.9186 -1.59297 -3.42685 0
M  V30 122 H 15.2316 -3.81394 -6.7213 0
M  V30 123 H 13.5766 -3.42393 -6.04807 0
M  V30 124 H 16.7676 -2.04927 -4.20859 0
M  V30 125 H 16.9406 -3.06185 -5.711 0
M  V30 126 N 10.3467 1.47872 -0.545128 0
M  V30 127 C 11.2567 2.33633 0.212746 0
M  V30 128 C 12.2727 1.4744 0.923983 0
M  V30 129 O 13.4487 1.80393 0.895572 0
M  V30 130 C 10.5137 3.23884 1.23693 0
M  V30 131 C 9.5747 4.25961 0.534417 0
M  V30 132 C 8.8077 5.11899 1.5098 0
M  V30 133 O 9.0307 5.00077 2.7437 0
M  V30 134 O 7.9647 5.92831 1.0409 0
M  V30 135 H 11.7907 2.99714 -0.490416 0
M  V30 136 H 9.3757 1.46235 -0.305871 0
M  V30 137 H 11.2577 3.79666 1.82843 0
M  V30 138 H 9.9327 2.60446 1.92222 0
M  V30 139 H 8.8397 3.73972 -0.0979679 0
M  V30 140 H 10.1727 4.92079 -0.109213 0
M  V30 141 N 11.8248 0.280983 1.55075 0
M  V30 142 C 13.2358 -0.215629 1.85451 0
M  V30 143 C 13.5868 -1.54991 1.203 0
M  V30 144 O 12.7118 -2.10699 0.493435 0
M  V30 145 C 13.3068 -0.398026 3.36454 0
M  V30 146 C 11.8658 -0.838866 3.66933 0
M  V30 147 C 11.0128 0.064458 2.77225 0
M  V30 148 H 13.9638 0.502601 1.50531 0
M  V30 149 H 13.9848 -1.23569 3.59876 0
M  V30 150 H 13.4968 0.573241 3.83843 0
M  V30 151 H 11.5978 -1.8214 3.25048 0
M  V30 152 H 11.7108 -0.672123 4.74362 0
M  V30 153 H 10.0748 -0.452863 2.50642 0
M  V30 154 H 10.8578 1.03172 3.2743 0
M  V30 155 N 13.3029 -1.57598 0.00835791 0
M  V30 156 C 14.5509 -1.90551 -0.6734 0
M  V30 157 C 14.8719 -0.883301 -1.73847 0
M  V30 158 O 14.1419 0.0781442 -1.95744 0
M  V30 159 H 12.7219 -0.703312 -0.251717 0
M  V30 160 H 15.3839 -1.94833 0.0512592 0
M  V30 161 H 14.4799 -2.9056 -1.13935 0
M  V30 162 N 14.781 0.264519 -1.55364 0
M  V30 163 C 16.192 0.834936 -1.6699 0
M  V30 164 C 16.543 1.86718 -0.602552 0
M  V30 165 O 15.668 2.14899 0.254425 0
M  V30 166 C 16.263 1.5212 -3.02729 0
M  V30 167 C 14.822 2.03954 -3.16354 0
M  V30 168 C 13.969 0.884498 -2.62815 0
M  V30 169 H 16.92 0.0406869 -1.58648 0
M  V30 170 H 16.941 2.38853 -2.96191 0
M  V30 171 H 16.453 0.769668 -3.80392 0
M  V30 172 H 14.554 2.82041 -2.43482 0
M  V30 173 H 14.667 2.24902 -4.23032 0
M  V30 174 H 13.031 1.2802 -2.20188 0
M  V30 175 H 13.814 0.14634 -3.42988 0
M  V30 176 N 16.2591 1.48442 0.529413 0
M  V30 177 C 17.6751 1.34575 0.858004 0
M  V30 178 C 17.8751 0.3572 1.98309 0
M  V30 179 O 16.9311 -0.221379 2.51528 0
M  V30 180 C 18.2441 2.74617 1.22499 0
M  V30 181 C 19.7921 2.83109 1.33484 0
M  V30 182 C 20.2671 4.23854 1.73526 0
M  V30 183 N 21.7581 4.2653 1.80628 0
M  V30 184 C 22.4931 5.32372 2.12997 0
M  V30 185 N 21.9891 6.48491 2.43786 0
M  V30 186 N 23.7821 5.19766 2.14008 0
M  V30 187 H 15.9331 2.1133 -0.212925 0
M  V30 188 H 18.1961 0.947439 -0.0326199 0
M  V30 189 H 17.9021 3.4852 0.471905 0
M  V30 190 H 17.7761 3.08177 2.17501 0
M  V30 191 H 20.1631 2.09462 2.0787 0
M  V30 192 H 20.2441 2.53168 0.366027 0
M  V30 193 H 19.8881 4.98018 0.997013 0
M  V30 194 H 19.8181 4.5124 2.71459 0
M  V30 195 H 22.3091 3.42772 1.59108 0
M  V30 196 H 22.6221 7.24993 2.67592 0
M  V30 197 H 20.9671 6.51765 2.41304 0
M  V30 198 H 24.1581 4.28066 1.89412 0
M  V30 199 H 24.3311 6.02354 2.38902 0
M  V30 200 N 17.7372 -0.778329 1.37039 0
M  V30 201 C 19.1532 -1.07796 1.17695 0
M  V30 202 C 19.3532 -2.01498 0.00860115 0
M  V30 203 O 18.4092 -2.43901 -0.653352 0
M  V30 204 C 19.7222 -1.68178 2.49272 0
M  V30 205 C 21.2702 -1.80467 2.55735 0
M  V30 206 C 21.7452 -2.44263 3.87427 0
M  V30 207 N 23.2362 -2.51721 3.88833 0
M  V30 208 C 23.9712 -3.01919 4.87476 0
M  V30 209 N 23.4672 -3.5234 5.96513 0
M  V30 210 N 25.2602 -3.00733 4.74885 0
M  V30 211 H 17.4112 -0.156032 2.11826 0
M  V30 212 H 19.6742 -0.131844 0.938787 0
M  V30 213 H 19.3802 -1.06796 3.35093 0
M  V30 214 H 19.2542 -2.67554 2.65885 0
M  V30 215 H 21.6412 -2.40984 1.70325 0
M  V30 216 H 21.7222 -0.798656 2.43013 0
M  V30 217 H 21.3662 -1.84388 4.73248 0
M  V30 218 H 21.2962 -3.45458 3.9745 0
M  V30 219 H 23.7872 -2.1603 3.10063 0
M  V30 220 H 24.1002 -3.89027 6.67741 0
M  V30 221 H 22.4452 -3.50462 6.00168 0
M  V30 222 H 25.6362 -2.60638 3.88826 0
M  V30 223 H 25.8092 -3.39545 5.51918 0
M  V30 224 N 19.2153 -1.21501 -1.00376 0
M  V30 225 C 20.1783 -0.976927 -2.07337 0
M  V30 226 C 21.1783 0.0525322 -1.60714 0
M  V30 227 O 22.3683 -0.184869 -1.73216 0
M  V30 228 C 19.5003 -0.473423 -3.37597 0
M  V30 229 H 20.6933 -1.92587 -2.29892 0
M  V30 230 H 18.2463 -1.03217 -1.17371 0
M  V30 231 H 18.9813 0.480379 -3.20722 0
M  V30 232 H 18.7663 -1.216 -3.72768 0
M  V30 233 H 20.2563 -0.32675 -4.1632 0
M  V30 234 N 20.6934 1.19889 -1.02296 0
M  V30 235 C 21.6564 2.21116 -0.603351 0
M  V30 236 C 22.6564 1.5738 0.329884 0
M  V30 237 O 23.8464 1.73802 0.117702 0
M  V30 238 C 20.9784 3.40696 0.117992 0
M  V30 239 H 22.1714 2.59754 -1.49893 0
M  V30 240 H 19.7244 1.33463 -0.813468 0
M  V30 241 H 20.4594 3.07569 1.0282 0
M  V30 242 H 20.2444 3.88188 -0.552511 0
M  V30 243 H 21.7344 4.15692 0.398696 0
M  V30 244 N 22.1715 0.800033 1.35784 0
M  V30 245 C 23.4175 0.377901 1.99248 0
M  V30 246 C 23.7505 -1.05052 1.63333 0
M  V30 247 O 23.0255 -1.72768 0.893385 0
M  V30 248 C 23.3085 0.553922 3.55814 0
M  V30 249 C 23.1615 2.0268 4.01548 0
M  V30 250 C 24.4805 -0.0244802 4.40093 0
M  V30 251 H 21.5995 0.138782 0.723815 0
M  V30 252 H 24.2415 1.00835 1.61035 0
M  V30 253 H 22.3915 0.0172398 3.88496 0
M  V30 254 H 24.0635 2.62536 3.79305 0
M  V30 255 H 22.3065 2.5256 3.52698 0
M  V30 256 H 22.9775 2.10087 5.10458 0
M  V30 257 H 25.4535 0.433775 4.13833 0
M  V30 258 H 24.3295 0.128637 5.48749 0
M  V30 259 H 24.5905 -1.11758 4.27741 0
M  V30 260 N 23.6496 -1.47581 0.552962 0
M  V30 261 C 25.0656 -1.5818 0.212424 0
M  V30 262 C 25.2656 -1.55213 -1.28496 0
M  V30 263 O 24.3216 -1.45329 -2.06484 0
M  V30 264 C 25.6346 -2.88865 0.835318 0
M  V30 265 C 27.1826 -3.0244 0.806156 0
M  V30 266 C 27.6576 -4.35819 1.40804 0
M  V30 267 N 29.1486 -4.42444 1.37103 0
M  V30 268 C 29.8836 -5.44202 1.80641 0
M  V30 269 N 29.3796 -6.52795 2.32015 0
M  V30 270 N 31.1726 -5.35222 1.71738 0
M  V30 271 H 23.3236 -1.47753 1.52587 0
M  V30 272 H 25.5866 -0.702941 0.636064 0
M  V30 273 H 25.2926 -2.9676 1.88749 0
M  V30 274 H 25.1666 -3.7579 0.325848 0
M  V30 275 H 27.5536 -2.94144 -0.237317 0
M  V30 276 H 27.6346 -2.17068 1.35334 0
M  V30 277 H 27.2786 -4.44871 2.45056 0
M  V30 278 H 27.2086 -5.19916 0.836338 0
M  V30 279 H 29.6996 -3.6456 0.995202 0
M  V30 280 H 30.0126 -7.26609 2.63171 0
M  V30 281 H 28.3576 -6.53696 2.36023 0
M  V30 282 H 31.5486 -4.49284 1.31382 0
M  V30 283 H 31.7216 -6.14389 2.05987 0
M  V30 284 N 25.1277 -0.289203 -1.54924 0
M  V30 285 C 26.0377 0.601863 -2.26748 0
M  V30 286 C 27.0537 1.15834 -1.2984 0
M  V30 287 O 28.2297 1.18564 -1.62802 0
M  V30 288 C 25.2947 1.76299 -2.98529 0
M  V30 289 C 24.3557 1.24178 -4.10948 0
M  V30 290 C 23.5887 2.34757 -4.79296 0
M  V30 291 O 23.8117 3.54411 -4.46933 0
M  V30 292 O 22.7457 2.02115 -5.66951 0
M  V30 293 H 26.5717 0.0195879 -3.03694 0
M  V30 294 H 24.1567 -0.0560868 -1.49295 0
M  V30 295 H 26.0387 2.43973 -3.43592 0
M  V30 296 H 24.7137 2.33209 -2.24488 0
M  V30 297 H 23.6207 0.531104 -3.70311 0
M  V30 298 H 24.9537 0.718252 -4.86931 0
M  V30 299 N 26.6058 1.57591 -0.0167156 0
M  V30 300 C 27.8338 1.95575 0.675128 0
M  V30 301 C 28.2488 0.892542 1.6637 0
M  V30 302 O 27.6058 -0.126912 1.82058 0
M  V30 303 C 27.6568 3.33608 1.39239 0
M  V30 304 O 27.3778 4.3585 0.443444 0
M  V30 305 C 28.8788 3.86151 2.17721 0
M  V30 306 H 26.0988 0.644423 0.186978 0
M  V30 307 H 28.6428 2.0437 -0.0728 0
M  V30 308 H 26.7978 3.2607 2.09182 0
M  V30 309 H 27.2118 5.158 0.951358 0
M  V30 310 H 28.6858 4.85114 2.63379 0
M  V30 311 H 29.1628 3.19738 3.01105 0
M  V30 312 H 29.7688 3.96918 1.52761 0
M  V30 313 N 28.0839 -0.256276 1.55502 0
M  V30 314 C 29.3299 -0.987079 1.77157 0
M  V30 315 C 29.6629 -1.85327 0.580315 0
M  V30 316 O 28.9379 -1.89874 -0.421686 0
M  V30 317 C 29.2209 -1.85553 3.08613 0
M  V30 318 C 29.0739 -1.01816 4.38125 0
M  V30 319 C 30.3929 -2.8397 3.36228 0
M  V30 320 H 27.5119 -0.357428 0.644526 0
M  V30 321 H 30.1539 -0.258239 1.88237 0
M  V30 322 H 28.3039 -2.47695 2.99298 0
M  V30 323 H 29.9759 -0.416159 4.59419 0
M  V30 324 H 28.2189 -0.322178 4.32602 0
M  V30 325 H 28.8899 -1.65939 5.26468 0
M  V30 326 H 31.3659 -2.31964 3.45445 0
M  V30 327 H 30.2419 -3.41864 4.29442 0
M  V30 328 H 30.5029 -3.59955 2.56681 0
M  V30 329 N 29.562 -1.4872 -0.521534 0
M  V30 330 C 30.495 -1.58451 -1.64221 0
M  V30 331 C 31.473 -0.434513 -1.56687 0
M  V30 332 O 32.657 -0.647275 -1.77038 0
M  V30 333 C 29.784 -1.52037 -3.02659 0
M  V30 334 C 28.83 -2.71981 -3.28525 0
M  V30 335 S 29.663 -4.33869 -3.13876 0
M  V30 336 C 30.819 -4.30067 -4.54745 0
M  V30 337 H 31.052 -2.53256 -1.55719 0
M  V30 338 H 28.585 -1.37358 -0.705143 0
M  V30 339 H 30.543 -1.49023 -3.82495 0
M  V30 340 H 29.204 -0.585541 -3.08594 0
M  V30 341 H 28.397 -2.63656 -4.29536 0
M  V30 342 H 27.999 -2.72302 -2.56374 0
M  V30 343 H 30.291 -4.00521 -5.46433 0
M  V30 344 H 31.234 -5.31287 -4.68123 0
M  V30 345 H 31.642 -3.60419 -4.34463 0
M  V30 346 N 31.0401 0.771051 -1.3745 0
M  V30 347 C 31.9701 1.89827 -1.3597 0
M  V30 348 C 32.9511 1.68562 -0.228216 0
M  V30 349 O 34.1361 1.8941 -0.428675 0
M  V30 350 C 31.2661 3.2712 -1.16662 0
M  V30 351 C 30.2201 3.6295 -2.2683 0
M  V30 352 C 29.5461 4.98791 -1.92644 0
M  V30 353 C 30.8461 3.69627 -3.69017 0
M  V30 354 H 32.5401 1.91323 -2.30295 0
M  V30 355 H 30.0861 0.919082 -1.10855 0
M  V30 356 H 32.0391 4.05615 -1.14256 0
M  V30 357 H 30.7631 3.26059 -0.187926 0
M  V30 358 H 29.4221 2.86763 -2.28392 0
M  V30 359 H 29.0701 4.94271 -0.933021 0
M  V30 360 H 28.7701 5.23733 -2.66416 0
M  V30 361 H 30.2941 5.79685 -1.91826 0
M  V30 362 H 31.7081 4.38273 -3.69581 0
M  V30 363 H 30.1051 4.06067 -4.41848 0
M  V30 364 H 31.1751 2.70273 -4.02592 0
M  V30 365 N 32.5182 1.22032 0.997298 0
M  V30 366 C 33.4482 1.01065 2.10495 0
M  V30 367 C 34.4292 -0.0669542 1.69968 0
M  V30 368 O 35.6142 0.0943987 1.9397 0
M  V30 369 C 32.7442 0.582874 3.42374 0
M  V30 370 C 31.6982 1.60592 3.96729 0
M  V30 371 C 31.0242 1.03412 5.24605 0
M  V30 372 C 32.3242 2.99478 4.27914 0
M  V30 373 H 34.0182 1.93708 2.28292 0
M  V30 374 H 31.5642 0.932761 1.09707 0
M  V30 375 H 33.5172 0.423332 4.19268 0
M  V30 376 H 32.2412 -0.379213 3.24391 0
M  V30 377 H 30.9002 1.75316 3.21963 0
M  V30 378 H 30.5482 0.063518 5.0296 0
M  V30 379 H 30.2482 1.71754 5.61938 0
M  V30 380 H 31.7722 0.886066 6.04137 0
M  V30 381 H 33.1862 2.88153 4.95622 0
M  V30 382 H 31.5832 3.64903 4.76409 0
M  V30 383 H 32.6532 3.49742 3.3587 0
M  V30 384 N 33.9963 -1.19345 1.0293 0
M  V30 385 C 34.9263 -2.2481 0.631105 0
M  V30 386 C 35.9073 -1.66245 -0.360104 0
M  V30 387 O 37.0923 -1.92677 -0.242726 0
M  V30 388 C 34.2223 -3.47295 -0.0184607 0
M  V30 389 C 33.1763 -4.18536 0.895073 0
M  V30 390 C 32.5023 -5.34586 0.110592 0
M  V30 391 C 33.8023 -4.73287 2.209 0
M  V30 392 H 35.4963 -2.58372 1.51275 0
M  V30 393 H 33.0423 -1.24194 0.728818 0
M  V30 394 H 34.9953 -4.20268 -0.308675 0
M  V30 395 H 33.7193 -3.12933 -0.934907 0
M  V30 396 H 32.3783 -3.47446 1.16949 0
M  V30 397 H 32.0263 -4.96469 -0.807902 0
M  V30 398 H 31.7263 -5.83183 0.719087 0
M  V30 399 H 33.2503 -6.10355 -0.172871 0
M  V30 400 H 34.6643 -5.38013 1.98028 0
M  V30 401 H 33.0613 -5.32373 2.76946 0
M  V30 402 H 34.1313 -3.91331 2.86336 0
M  V30 403 N 35.4744 -0.807222 -1.35358 0
M  V30 404 C 36.7144 -0.393534 -2.00576 0
M  V30 405 C 37.0784 1.0203 -1.62647 0
M  V30 406 O 38.2794 1.53603 -2.20589 0
M  V30 407 C 36.5504 -0.572017 -3.52793 0
M  V30 408 S 38.1094 -0.248845 -4.38094 0
M  V30 409 H 34.9274 -0.149425 -0.695121 0
M  V30 410 H 37.5294 -1.04961 -1.64935 0
M  V30 411 H 36.2334 -1.60097 -3.77885 0
M  V30 412 H 35.7644 0.099359 -3.93275 0
M  V30 413 H 37.7794 0.943253 -4.87152 0
M  V30 414 N 36.9525 1.47285 -0.560781 0
M  V30 415 C 37.8825 2.32857 0.173105 0
M  V30 416 C 38.8635 1.44009 0.905281 0
M  V30 417 O 40.0485 1.7286 0.885046 0
M  V30 418 C 37.1785 3.25861 1.20133 0
M  V30 419 C 36.1325 4.23978 0.585388 0
M  V30 420 C 35.4585 5.06332 1.7185 0
M  V30 421 C 36.7585 5.20242 -0.463178 0
M  V30 422 H 38.4525 2.94466 -0.541307 0
M  V30 423 H 35.9985 1.41601 -0.261764 0
M  V30 424 H 37.9515 3.84569 1.72293 0
M  V30 425 H 36.6755 2.62315 1.94573 0
M  V30 426 H 35.3345 3.66501 0.085054 0
M  V30 427 H 34.9825 4.39186 2.45203 0
M  V30 428 H 34.6825 5.72762 1.31213 0
M  V30 429 H 36.2065 5.67899 2.24329 0
M  V30 430 H 37.6205 5.73293 -0.027502 0
M  V30 431 H 36.0175 5.94896 -0.788627 0
M  V30 432 H 37.0875 4.65504 -1.35773 0
M  V30 433 N 38.4306 0.297415 1.54768 0
M  V30 434 C 39.6786 -0.312295 1.99673 0
M  V30 435 C 39.9996 -1.54686 1.18732 0
M  V30 436 O 39.2696 -1.93854 0.282382 0
M  V30 437 H 37.8496 -0.118381 0.73756 0
M  V30 438 H 40.5116 0.407915 1.90583 0
M  V30 439 H 39.6076 -0.586813 3.06534 0
M  V30 440 N 39.9087 -1.5758 0.0250728 0
M  V30 441 C 41.1547 -1.91917 -0.655413 0
M  V30 442 C 41.4877 -0.901433 -1.72011 0
M  V30 443 O 40.7627 0.0764069 -1.9435 0
M  V30 444 C 41.0457 -3.36751 -1.27558 0
M  V30 445 C 40.8987 -4.49258 -0.220719 0
M  V30 446 C 42.2177 -3.81469 -2.19475 0
M  V30 447 H 39.3367 -0.697925 -0.23679 0
M  V30 448 H 41.9787 -1.89825 0.0815036 0
M  V30 449 H 40.1287 -3.38664 -1.90365 0
M  V30 450 H 41.8007 -4.59478 0.409601 0
M  V30 451 H 40.0437 -4.31415 0.454264 0
M  V30 452 H 40.7147 -5.47618 -0.694175 0
M  V30 453 H 43.1907 -3.81266 -1.66659 0
M  V30 454 H 42.0667 -4.83512 -2.59822 0
M  V30 455 H 42.3277 -3.16744 -3.08424 0
M  V30 456 N 41.3868 0.248026 -1.55636 0
M  V30 457 C 42.7978 0.817177 -1.67866 0
M  V30 458 C 43.1488 1.86069 -0.622322 0
M  V30 459 O 42.2738 2.15157 0.231618 0
M  V30 460 C 42.8688 1.489 -3.04326 0
M  V30 461 C 41.4278 2.00587 -3.185 0
M  V30 462 C 40.5748 0.856573 -2.63739 0
M  V30 463 H 43.5258 0.0238579 -1.58682 0
M  V30 464 H 43.5468 2.35698 -2.98708 0
M  V30 465 H 43.0588 0.729279 -3.81186 0
M  V30 466 H 41.1598 2.79443 -2.4646 0
M  V30 467 H 41.2728 2.20402 -4.25393 0
M  V30 468 H 39.6368 1.25678 -2.21534 0
M  V30 469 H 40.4198 0.109953 -3.43124 0
M  V30 470 N 42.8649 1.48995 0.513639 0
M  V30 471 C 44.0929 1.61531 1.29288 0
M  V30 472 C 44.5079 0.281801 1.86685 0
M  V30 473 O 43.8649 -0.731111 1.67215 0
M  V30 474 C 43.9159 2.67449 2.43215 0
M  V30 475 O 43.6369 3.95626 1.88179 0
M  V30 476 C 45.1379 2.90575 3.34785 0
M  V30 477 H 42.3579 0.544165 0.392588 0
M  V30 478 H 44.9019 1.9494 0.617956 0
M  V30 479 H 43.0569 2.36853 3.0656 0
M  V30 480 H 43.4709 4.53868 2.62876 0
M  V30 481 H 44.9449 3.68449 4.11035 0
M  V30 482 H 45.4219 2.00011 3.91015 0
M  V30 483 H 46.0279 3.22538 2.77218 0
M  V30 484 N 44.343 -0.763751 1.37857 0
M  V30 485 C 45.591 -1.51957 1.33243 0
M  V30 486 C 45.912 -1.94835 -0.0801709 0
M  V30 487 O 45.182 -1.66894 -1.02582 0
M  V30 488 H 43.762 -0.563626 0.49024 0
M  V30 489 H 46.424 -0.908504 1.7243 0
M  V30 490 H 45.52 -2.41523 1.97669 0
M  V30 491 N 45.8211 -1.22559 -0.990812 0
M  V30 492 C 47.2371 -0.985996 -1.255 0
M  V30 493 C 47.4371 0.319173 -1.98956 0
M  V30 494 O 46.4931 1.04127 -2.3003 0
M  V30 495 C 47.8061 -2.18607 -2.06474 0
M  V30 496 C 49.3541 -2.22985 -2.19651 0
M  V30 497 C 49.8291 -3.4255 -3.04012 0
M  V30 498 N 51.3201 -3.42725 -3.11599 0
M  V30 499 C 52.0551 -4.31892 -3.7717 0
M  V30 500 N 51.5511 -5.31279 -4.44651 0
M  V30 501 N 53.3441 -4.19662 -3.73952 0
M  V30 502 H 45.4951 -2.06469 -0.49841 0
M  V30 503 H 47.7581 -0.904853 -0.282747 0
M  V30 504 H 47.4641 -3.13267 -1.59865 0
M  V30 505 H 47.3381 -2.18838 -3.07229 0
M  V30 506 H 49.7251 -1.28871 -2.65474 0
M  V30 507 H 49.8061 -2.26791 -1.18319 0
M  V30 508 H 49.4501 -4.36965 -2.58889 0
M  V30 509 H 49.3801 -3.35984 -4.0549 0
M  V30 510 H 51.8711 -2.70807 -2.63575 0
M  V30 511 H 52.1841 -5.95593 -4.92431 0
M  V30 512 H 50.5291 -5.3519 -4.43392 0
M  V30 513 H 53.7201 -3.41268 -3.20396 0
M  V30 514 H 53.8931 -4.89358 -4.24774 0
M  V30 515 N 47.2992 1.18797 -1.03562 0
M  V30 516 C 48.7102 1.70322 -0.764676 0
M  V30 517 C 49.0612 1.82708 0.714996 0
M  V30 518 O 48.1862 1.50299 1.55689 0
M  V30 519 C 48.7812 3.09356 -1.38145 0
M  V30 520 C 47.3402 3.58114 -1.15895 0
M  V30 521 C 46.4872 2.34798 -1.4753 0
M  V30 522 H 49.4382 1.03543 -1.20268 0
M  V30 523 H 49.4592 3.72378 -0.781977 0
M  V30 524 H 48.9712 3.00309 -2.45837 0
M  V30 525 H 47.0722 3.72464 -0.100544 0
M  V30 526 H 47.1852 4.4184 -1.8524 0
M  V30 527 H 45.5492 2.38464 -0.894829 0
M  V30 528 H 46.3322 2.28375 -2.56319 0
M  V30 529 N 48.7773 0.814389 1.34928 0
M  V30 530 C 50.0073 0.41054 2.0248 0
M  V30 531 C 50.4153 -0.985625 1.61499 0
M  V30 532 O 49.7583 -1.64781 0.811976 0
M  V30 533 C 49.8203 0.423384 3.56998 0
M  V30 534 C 49.4843 1.77141 4.21272 0
M  V30 535 C 50.4813 2.73093 4.42398 0
M  V30 536 C 48.1663 2.05755 4.58225 0
M  V30 537 C 50.1603 3.95838 4.9959 0
M  V30 538 C 47.8473 3.28762 5.1513 0
M  V30 539 C 48.8453 4.23621 5.35755 0
M  V30 540 O 48.5333 5.44456 5.91458 0
M  V30 541 H 48.2653 0.163997 0.655806 0
M  V30 542 H 50.8193 1.10155 1.73364 0
M  V30 543 H 49.0493 -0.324276 3.85338 0
M  V30 544 H 50.7383 0.0407683 4.0588 0
M  V30 545 H 51.5043 2.5228 4.14222 0
M  V30 546 H 47.3833 1.32727 4.4148 0
M  V30 547 H 50.9273 4.69891 5.15605 0
M  V30 548 H 46.8243 3.49443 5.42734 0
M  V30 549 H 47.5923 5.4586 6.09901 0
M  V30 550 N 50.2554 -1.46986 0.568584 0
M  V30 551 C 51.2034 -2.31858 -0.185649 0
M  V30 552 C 52.1974 -1.43624 -0.898249 0
M  V30 553 O 53.4034 -1.60327 -0.818242 0
M  V30 554 H 49.7784 -0.747866 -0.0787399 0
M  V30 555 H 51.7494 -2.93303 0.549191 0
M  V30 556 C 50.4984 -3.26513 -1.19519 0
M  V30 557 H 49.8214 -3.94377 -0.656285 0
M  V30 558 H 51.2614 -3.88707 -1.6936 0
M  V30 559 C 49.7204 -2.50847 -2.24894 0
M  V30 560 O 50.2504 -2.26119 -3.32014 0
M  V30 561 N 48.4564 -2.11656 -1.99124 0
M  V30 562 H 48.0034 -2.31966 -1.12024 0
M  V30 563 H 47.9614 -1.61347 -2.69842 0
M  V30 564 N 51.7335 -0.305618 -1.54608 0
M  V30 565 C 52.9795 0.302746 -2.00528 0
M  V30 566 C 53.3125 1.53184 -1.19367 0
M  V30 567 O 52.5875 1.92598 -0.271321 0
M  V30 568 C 52.8705 0.654756 -3.54097 0
M  V30 569 C 52.7235 -0.583793 -4.45995 0
M  V30 570 C 54.0425 1.47947 -4.14487 0
M  V30 571 H 51.1615 0.108564 -0.72896 0
M  V30 572 H 53.8035 -0.418634 -1.85331 0
M  V30 573 H 51.9535 1.26935 -3.67178 0
M  V30 574 H 53.6255 -1.22224 -4.44814 0
M  V30 575 H 51.8685 -1.21615 -4.16404 0
M  V30 576 H 52.5395 -0.293287 -5.5122 0
M  V30 577 H 55.0155 0.96013 -4.04871 0
M  V30 578 H 53.8915 1.69454 -5.22088 0
M  V30 579 H 54.1525 2.47011 -3.66658 0
M  V30 580 N 53.2116 1.57565 -0.0334293 0
M  V30 581 C 54.4886 1.83282 0.683163 0
M  V30 582 C 54.8686 0.91823 1.90084 0
M  V30 583 O 54.2166 -0.025113 2.28486 0
M  V30 584 C 54.4266 3.32599 1.0573 0
M  V30 585 C 55.7746 3.99179 1.44711 0
M  V30 586 O 56.7986 3.3712 1.15015 0
M  V30 587 O 55.6576 5.08565 2.0006 0
M  V30 588 H 52.7516 0.755869 0.335546 0
M  V30 589 H 55.2976 1.69589 -0.0614402 0
M  V30 590 H 54.0696 3.90834 0.190828 0
M  V30 591 H 53.6926 3.51415 1.85993 0
M  V30 592 N 54.6897 -0.239769 1.55765 0
M  V30 593 C 55.9177 -0.98417 1.81994 0
M  V30 594 C 56.3327 -1.7867 0.610124 0
M  V30 595 O 55.6897 -1.77571 -0.421271 0
M  V30 596 C 55.7407 -1.91635 3.06526 0
M  V30 597 O 55.4617 -1.14629 4.22838 0
M  V30 598 C 56.9627 -2.77616 3.45607 0
M  V30 599 H 54.1827 -0.28928 0.605441 0
M  V30 600 H 56.7267 -0.260499 2.02834 0
M  V30 601 H 54.8817 -2.5942 2.87715 0
M  V30 602 H 55.2957 -1.77745 4.93464 0
M  V30 603 H 56.7697 -3.38759 4.35828 0
M  V30 604 H 57.2467 -3.4909 2.6652 0
M  V30 605 H 57.8527 -2.15271 3.66795 0
M  V30 606 N 56.1678 -1.49265 -0.50573 0
M  V30 607 C 57.0778 -1.68312 -1.63427 0
M  V30 608 C 58.0938 -0.565682 -1.64548 0
M  V30 609 O 59.2698 -0.839801 -1.83055 0
M  V30 610 C 56.3348 -1.74107 -2.99813 0
M  V30 611 C 55.3958 -2.97653 -3.09356 0
M  V30 612 C 54.6288 -3.03163 -4.39236 0
M  V30 613 O 54.8518 -2.16396 -5.27758 0
M  V30 614 O 53.7858 -3.9558 -4.53652 0
M  V30 615 H 57.6118 -2.63907 -1.50289 0
M  V30 616 H 55.1968 -1.32951 -0.681502 0
M  V30 617 H 57.0788 -1.803 -3.80881 0
M  V30 618 H 55.7538 -0.816901 -3.13223 0
M  V30 619 H 54.6608 -2.96981 -2.27493 0
M  V30 620 H 55.9938 -3.89535 -3.00871 0
M  V30 621 N 57.6459 0.756429 -1.3826 0
M  V30 622 C 58.8709 1.55077 -1.37717 0
M  V30 623 C 59.2959 1.88073 0.03164 0
M  V30 624 O 58.6539 1.50364 1.01293 0
M  V30 625 C 58.7019 2.8283 -2.23695 0
M  V30 626 O 57.8059 3.77862 -1.6521 0
M  V30 627 H 57.1469 0.469152 -0.469885 0
M  V30 628 H 59.6769 0.935019 -1.81985 0
M  V30 629 H 59.6869 3.31783 -2.37453 0
M  V30 630 H 58.3619 2.58144 -3.2609 0
M  V30 631 H 56.9389 3.36555 -1.60578 0
M  V30 632 N 59.124 1.23083 0.984299 0
M  V30 633 C 60.087 1.00979 2.05757 0
M  V30 634 C 61.087 -0.0269573 1.60777 0
M  V30 635 O 62.277 0.212403 1.729 0
M  V30 636 C 59.409 0.527072 3.36801 0
M  V30 637 H 60.602 1.9622 2.26799 0
M  V30 638 H 58.155 1.05072 1.15714 0
M  V30 639 H 58.89 -0.429294 3.21446 0
M  V30 640 H 58.675 1.27515 3.70786 0
M  V30 641 H 60.165 0.392942 4.15747 0
M  V30 642 N 60.6021 -1.18246 1.0419 0
M  V30 643 C 61.5321 -2.24127 0.654914 0
M  V30 644 C 62.5131 -1.66617 -0.342451 0
M  V30 645 O 63.6981 -1.92924 -0.222277 0
M  V30 646 C 60.8281 -3.47295 0.0183757 0
M  V30 647 C 59.7821 -4.17563 0.939414 0
M  V30 648 C 59.1081 -5.34438 0.167286 0
M  V30 649 C 60.4081 -4.70917 2.25908 0
M  V30 650 H 62.1021 -2.56753 1.54007 0
M  V30 651 H 59.6481 -1.23414 0.74195 0
M  V30 652 H 61.6011 -4.20572 -0.264082 0
M  V30 653 H 60.3251 -3.13907 -0.901664 0
M  V30 654 H 58.9841 -3.46186 1.20628 0
M  V30 655 H 58.6321 -4.97298 -0.7552 0
M  V30 656 H 58.3321 -5.82388 0.780901 0
M  V30 657 H 59.8561 -6.10504 -0.108125 0
M  V30 658 H 61.2701 -5.35882 2.03724 0
M  V30 659 H 59.6671 -5.29406 2.82577 0
M  V30 660 H 60.7371 -3.88272 2.9047 0
M  V30 661 N 62.0802 -0.821533 -1.34494 0
M  V30 662 C 63.0102 -0.257138 -2.3208 0
M  V30 663 C 63.9912 0.625645 -1.58176 0
M  V30 664 O 65.1762 0.552811 -1.86166 0
M  V30 665 C 62.3062 0.582958 -3.42372 0
M  V30 666 C 61.2602 -0.202571 -4.2752 0
M  V30 667 C 60.5862 0.760179 -5.29269 0
M  V30 668 C 61.8862 -1.40998 -5.02908 0
M  V30 669 H 63.5802 -1.07247 -2.79532 0
M  V30 670 H 61.1262 -0.517163 -1.34393 0
M  V30 671 H 63.0792 0.987972 -4.09655 0
M  V30 672 H 61.8032 1.43133 -2.93565 0
M  V30 673 H 60.4622 -0.588936 -3.61838 0
M  V30 674 H 60.1102 1.60447 -4.76724 0
M  V30 675 H 59.8102 0.238809 -5.87115 0
M  V30 676 H 61.3342 1.16308 -5.9942 0
M  V30 677 H 62.7482 -1.07905 -5.63054 0
M  V30 678 H 61.1452 -1.86689 -5.70322 0
M  V30 679 H 62.2152 -2.1889 -4.32684 0
M  V30 680 N 63.5583 1.46682 -0.576371 0
M  V30 681 C 64.7883 2.06498 -0.0648694 0
M  V30 682 C 65.1963 1.42665 1.24271 0
M  V30 683 O 64.5393 0.523886 1.76071 0
M  V30 684 C 64.6013 3.5904 0.181816 0
M  V30 685 C 64.2653 4.45028 -1.0392 0
M  V30 686 C 65.2623 4.81959 -1.94966 0
M  V30 687 C 62.9473 4.86259 -1.25927 0
M  V30 688 C 64.9413 5.58942 -3.06371 0
M  V30 689 C 62.6283 5.63002 -2.37638 0
M  V30 690 C 63.6263 5.99257 -3.2769 0
M  V30 691 O 63.3143 6.7445 -4.37461 0
M  V30 692 H 63.0463 0.674028 -0.0515987 0
M  V30 693 H 65.6003 1.89393 -0.794951 0
M  V30 694 H 63.8303 3.74429 0.966436 0
M  V30 695 H 65.5193 4.00806 0.641047 0
M  V30 696 H 66.2853 4.50689 -1.79177 0
M  V30 697 H 62.1643 4.57494 -0.567448 0
M  V30 698 H 65.7083 5.87158 -3.76684 0
M  V30 699 H 61.6053 5.93686 -2.53392 0
M  V30 700 H 62.3733 6.92867 -4.35749 0
M  V30 701 N 65.0364 0.313813 1.54444 0
M  V30 702 C 65.9684 -0.590425 2.21465 0
M  V30 703 C 66.9814 -1.08753 1.21147 0
M  V30 704 O 68.1704 -1.00278 1.4767 0
M  V30 705 C 65.2704 -1.82179 2.85769 0
M  V30 706 C 64.4434 -1.46502 4.12136 0
M  V30 707 C 63.5024 -2.55288 4.60124 0
M  V30 708 O 62.5284 -2.19842 5.25032 0
M  V30 709 N 63.7304 -3.86053 4.33525 0
M  V30 710 H 66.4954 -0.0166033 2.99695 0
M  V30 711 H 64.0564 0.136578 1.61323 0
M  V30 712 H 66.0484 -2.54328 3.14801 0
M  V30 713 H 64.6184 -2.30369 2.11303 0
M  V30 714 H 63.8384 -0.575595 3.89975 0
M  V30 715 H 65.1264 -1.20221 4.94393 0
M  V30 716 H 64.5244 -4.17654 3.81552 0
M  V30 717 H 63.0814 -4.54461 4.67235 0
M  V30 718 N 66.5145 -1.57545 0.0417849 0
M  V30 719 C 67.7625 -1.91937 -0.632829 0
M  V30 720 C 68.0835 -0.919978 -1.71934 0
M  V30 721 O 67.3535 0.0366064 -1.95866 0
M  V30 722 H 65.9335 -0.708493 -0.236742 0
M  V30 723 H 68.5955 -1.9468 0.0925745 0
M  V30 724 H 67.6915 -2.92912 -1.07746 0
M  V30 725 N 67.9926 0.231505 -1.5589 0
M  V30 726 C 69.4036 0.799327 -1.68724 0
M  V30 727 C 69.7546 1.85398 -0.642022 0
M  V30 728 O 68.8796 2.1539 0.208784 0
M  V30 729 C 69.4746 1.45664 -3.05888 0
M  V30 730 C 68.0336 1.97197 -3.20609 0
M  V30 731 C 67.1806 0.828552 -2.64632 0
M  V30 732 H 70.1316 0.00702616 -1.58698 0
M  V30 733 H 70.1526 2.32517 -3.01191 0
M  V30 734 H 69.6646 0.688808 -3.81939 0
M  V30 735 H 67.7656 2.76813 -2.4941 0
M  V30 736 H 67.8786 2.15878 -4.27707 0
M  V30 737 H 66.2426 1.23321 -2.22854 0
M  V30 738 H 67.0256 0.0735544 -3.43221 0
M  V30 739 N 69.4707 1.49531 0.497807 0
M  V30 740 C 70.4207 1.62829 1.59596 0
M  V30 741 C 71.4047 0.483824 1.53453 0
M  V30 742 O 72.5967 0.736937 1.60929 0
M  V30 743 C 69.7257 1.7011 2.98191 0
M  V30 744 C 68.8117 2.90144 3.09317 0
M  V30 745 N 69.2027 4.1418 2.90324 0
M  V30 746 C 67.5007 2.88148 3.40422 0
M  V30 747 C 68.2017 4.94886 3.05717 0
M  V30 748 N 67.1777 4.28314 3.34736 0
M  V30 749 H 70.9797 2.56446 1.4357 0
M  V30 750 H 68.4937 1.46347 0.704001 0
M  V30 751 H 70.4907 1.77735 3.77115 0
M  V30 752 H 69.1507 0.776315 3.15283 0
M  V30 753 H 70.1617 4.44109 2.66436 0
M  V30 754 H 66.8387 2.05061 3.63671 0
M  V30 755 H 68.2287 6.03432 2.95499 0
M  V30 756 N 70.9488 -0.749086 1.3866 0
M  V30 757 C 71.8968 -1.88428 1.36373 0
M  V30 758 C 72.8908 -1.67561 0.248929 0
M  V30 759 O 74.0968 -1.75074 0.41821 0
M  V30 760 H 70.4718 -0.620023 0.42553 0
M  V30 761 H 72.4428 -1.87473 2.32156 0
M  V30 762 C 71.1918 -3.25961 1.21014 0
M  V30 763 H 70.5148 -3.42607 2.06059 0
M  V30 764 H 71.9548 -4.05625 1.23469 0
M  V30 765 C 70.4138 -3.36799 -0.0825941 0
M  V30 766 O 70.9438 -3.87517 -1.05797 0
M  V30 767 N 69.1498 -2.90258 -0.140939 0
M  V30 768 H 68.6968 -2.49174 0.653477 0
M  V30 769 H 68.6548 -2.97889 -1.00545 0
M  V30 770 N 72.4269 -1.23603 -0.977757 0
M  V30 771 C 73.6549 -1.09646 -1.75458 0
M  V30 772 C 74.0699 0.351859 -1.85492 0
M  V30 773 O 73.4269 1.24327 -1.336 0
M  V30 774 C 73.4779 -1.71895 -3.18016 0
M  V30 775 O 73.1989 -3.11063 -3.08498 0
M  V30 776 C 74.6999 -1.63415 -4.12081 0
M  V30 777 H 71.9199 -0.38359 -0.550545 0
M  V30 778 H 74.4639 -1.63507 -1.22824 0
M  V30 779 H 72.6189 -1.22061 -3.67668 0
M  V30 780 H 73.0329 -3.41305 -3.9826 0
M  V30 781 H 74.5069 -2.11669 -5.09804 0
M  V30 782 H 74.9839 -0.593462 -4.35172 0
M  V30 783 H 75.5899 -2.12628 -3.68334 0
M  V30 784 N 73.905 1.17692 -1.04816 0
M  V30 785 C 74.835 2.23777 -0.666791 0
M  V30 786 C 75.816 1.66796 0.33361 0
M  V30 787 O 77.001 1.93039 0.212042 0
M  V30 788 C 74.131 3.47281 -0.0367933 0
M  V30 789 C 73.085 4.17059 -0.961546 0
M  V30 790 C 72.411 5.34342 -0.195626 0
M  V30 791 C 73.711 4.69713 -2.28402 0
M  V30 792 H 75.405 2.55933 -1.55367 0
M  V30 793 H 72.951 1.23019 -0.748484 0
M  V30 794 H 74.904 4.20706 0.241775 0
M  V30 795 H 73.628 3.14381 0.885004 0
M  V30 796 H 72.287 3.45541 -1.22462 0
M  V30 797 H 71.935 4.97692 0.728816 0
M  V30 798 H 71.635 5.81966 -0.811775 0
M  V30 799 H 73.159 6.10553 0.0757473 0
M  V30 800 H 74.573 5.34794 -2.06563 0
M  V30 801 H 72.97 5.279 -2.8538 0
M  V30 802 H 74.04 3.86726 -2.92525 0
M  V30 803 N 75.3831 0.828654 1.34056 0
M  V30 804 C 76.6301 0.419458 1.98108 0
M  V30 805 C 76.9581 -1.01886 1.65679 0
M  V30 806 O 76.2131 -1.72539 0.923512 0
M  V30 807 C 76.5121 0.575226 3.52741 0
M  V30 808 C 76.1781 1.98012 4.05095 0
M  V30 809 C 74.8401 2.36442 4.19104 0
M  V30 810 C 77.1921 2.89824 4.33188 0
M  V30 811 C 74.5201 3.66009 4.58535 0
M  V30 812 C 76.8721 4.1886 4.74066 0
M  V30 813 C 75.5361 4.5726 4.86281 0
M  V30 814 H 74.8061 0.153491 0.724929 0
M  V30 815 H 77.4531 1.05371 1.59904 0
M  V30 816 H 75.7581 -0.142385 3.91541 0
M  V30 817 H 77.4551 0.239057 4.00287 0
M  V30 818 H 74.0451 1.67162 3.94658 0
M  V30 819 H 78.2291 2.61375 4.21897 0
M  V30 820 H 73.4851 3.95579 4.66184 0
M  V30 821 H 77.6591 4.90086 4.94761 0
M  V30 822 H 75.2861 5.57707 5.16592 0
M  V30 823 N 76.8612 -1.46375 0.584142 0
M  V30 824 C 78.1092 -2.01978 0.0701287 0
M  V30 825 C 78.4302 -1.4579 -1.295 0
M  V30 826 O 77.7002 -0.64314 -1.85042 0
M  V30 827 H 76.2802 -0.746648 0.0229345 0
M  V30 828 H 78.9422 -1.79461 0.760245 0
M  V30 829 H 78.0382 -3.121 0.0022064 0
M  V30 830 N 78.3393 -0.321999 -1.54275 0
M  V30 831 C 79.5693 0.282642 -2.04658 0
M  V30 832 C 79.9773 1.46453 -1.19784 0
M  V30 833 O 79.3203 1.82367 -0.220932 0
M  V30 834 C 79.3823 0.781857 -3.50895 0
M  V30 835 C 79.0463 -0.277517 -4.56157 0
M  V30 836 C 80.0433 -1.11307 -5.07845 0
M  V30 837 C 77.7283 -0.425256 -5.00497 0
M  V30 838 C 79.7223 -2.08211 -6.02434 0
M  V30 839 C 77.4093 -1.39771 -5.94901 0
M  V30 840 C 78.4073 -2.2246 -6.45756 0
M  V30 841 O 78.0953 -3.18054 -7.38307 0
M  V30 842 H 77.8273 0.0622636 -0.673126 0
M  V30 843 H 80.3813 -0.465792 -2.00049 0
M  V30 844 H 78.6113 1.58118 -3.52896 0
M  V30 845 H 80.3003 1.30467 -3.84361 0
M  V30 846 H 81.0663 -1.00991 -4.74369 0
M  V30 847 H 76.9453 0.20847 -4.60528 0
M  V30 848 H 80.4893 -2.72791 -6.42052 0
M  V30 849 H 76.3863 -1.50152 -6.27794 0
M  V30 850 H 77.1543 -3.13275 -7.56175 0
M  V30 851 N 79.8174 1.5752 -0.0501392 0
M  V30 852 C 81.0424 1.97376 0.636997 0
M  V30 853 C 81.4674 0.927466 1.63645 0
M  V30 854 O 80.8254 -0.10941 1.8097 0
M  V30 855 C 80.8734 3.36304 1.30123 0
M  V30 856 O 79.9774 3.34156 2.41689 0
M  V30 857 H 79.3184 0.642998 0.165679 0
M  V30 858 H 81.8484 2.04258 -0.118233 0
M  V30 859 H 81.8584 3.73008 1.65315 0
M  V30 860 H 80.5334 4.11993 0.568746 0
M  V30 861 H 79.1104 3.09196 2.08451 0
M  V30 862 N 81.2955 -0.223234 1.56011 0
M  V30 863 C 82.5415 -0.949279 1.79211 0
M  V30 864 C 82.8745 -1.84054 0.619494 0
M  V30 865 O 82.1495 -1.90726 -0.381317 0
M  V30 866 C 82.4325 -1.78965 3.12479 0
M  V30 867 C 82.2855 -0.924997 4.40186 0
M  V30 868 C 83.6045 -2.76774 3.42175 0
M  V30 869 H 80.7235 -0.343676 0.651963 0
M  V30 870 H 83.3655 -0.218253 1.88742 0
M  V30 871 H 81.5155 -2.41291 3.04485 0
M  V30 872 H 83.1875 -0.318615 4.60198 0
M  V30 873 H 81.4305 -0.230344 4.33188 0
M  V30 874 H 82.1015 -1.54735 5.29869 0
M  V30 875 H 84.5775 -2.24584 3.50287 0
M  V30 876 H 83.4535 -3.32678 4.36597 0
M  V30 877 H 83.7145 -3.54429 2.64258 0
M  V30 878 N 82.7736 -1.49793 -0.48987 0
M  V30 879 C 84.0196 -1.60078 -1.24511 0
M  V30 880 C 84.3526 -0.291608 -1.91998 0
M  V30 881 O 83.6276 0.705647 -1.81248 0
M  V30 882 C 83.9106 -2.76791 -2.30345 0
M  V30 883 C 83.7636 -4.17535 -1.67286 0
M  V30 884 C 85.0826 -2.89111 -3.31817 0
M  V30 885 H 82.2016 -0.582645 -0.451324 0
M  V30 886 H 84.8436 -1.82117 -0.541612 0
M  V30 887 H 82.9936 -2.5813 -2.90346 0
M  V30 888 H 84.6656 -4.4774 -1.11026 0
M  V30 889 H 82.9086 -4.22665 -0.976577 0
M  V30 890 H 83.5796 -4.95094 -2.44103 0
M  V30 891 H 86.0556 -3.06133 -2.81819 0
M  V30 892 H 84.9316 -3.72433 -4.03219 0
M  V30 893 H 85.1926 -1.9893 -3.94815 0
M  V30 894 N 84.2517 0.741722 -1.39055 0
M  V30 895 C 85.1817 1.869 -1.39966 0
M  V30 896 C 86.1627 1.6804 -0.26392 0
M  V30 897 O 87.3477 1.88458 -0.468755 0
M  V30 898 C 84.4777 3.24572 -1.23574 0
M  V30 899 C 83.4317 3.58056 -2.34477 0
M  V30 900 C 82.7577 4.94593 -2.0318 0
M  V30 901 C 84.0577 3.61716 -3.76774 0
M  V30 902 H 85.7517 1.86395 -2.34302 0
M  V30 903 H 83.2977 0.895361 -1.1278 0
M  V30 904 H 85.2507 4.031 -1.22834 0
M  V30 905 H 83.9747 3.25587 -0.257045 0
M  V30 906 H 82.6337 2.81854 -2.34423 0
M  V30 907 H 82.2817 4.92181 -1.03765 0
M  V30 908 H 81.9817 5.17964 -2.77465 0
M  V30 909 H 83.5057 5.75486 -2.04079 0
M  V30 910 H 84.9197 4.30335 -3.78794 0
M  V30 911 H 83.3167 3.96603 -4.50362 0
M  V30 912 H 84.3867 2.61672 -4.08235 0
M  V30 913 N 85.7298 1.2412 0.971189 0
M  V30 914 C 86.6798 0.997551 2.05019 0
M  V30 915 C 87.6638 -0.0597747 1.60789 0
M  V30 916 O 88.8558 0.153516 1.76333 0
M  V30 917 C 85.9848 0.600557 3.38006 0
M  V30 918 C 85.0708 1.69377 3.88809 0
M  V30 919 N 85.4618 2.92586 4.12586 0
M  V30 920 C 83.7598 1.57048 4.17435 0
M  V30 921 C 84.4608 3.63431 4.54195 0
M  V30 922 N 83.4368 2.90979 4.59165 0
M  V30 923 H 87.2388 1.93316 2.21374 0
M  V30 924 H 84.7528 1.14194 1.1547 0
M  V30 925 H 86.7498 0.40725 4.14906 0
M  V30 926 H 85.4098 -0.327903 3.2304 0
M  V30 927 H 86.4208 3.288 4.00139 0
M  V30 928 H 83.0978 0.709798 4.11422 0
M  V30 929 H 84.4878 4.69102 4.81033 0
M  V30 930 N 87.2079 -1.17134 1.05439 0
M  V30 931 C 88.4329 -1.91913 0.786396 0
M  V30 932 C 88.8579 -1.7643 -0.652234 0
M  V30 933 O 88.2159 -1.08372 -1.45345 0
M  V30 934 C 88.2639 -3.40921 1.17497 0
M  V30 935 O 87.3679 -4.11244 0.308589 0
M  V30 936 H 86.7089 -0.598215 0.288158 0
M  V30 937 H 89.2389 -1.48457 1.4079 0
M  V30 938 H 89.2489 -3.91668 1.14281 0
M  V30 939 H 87.9239 -3.5151 2.22292 0
M  V30 940 H 86.5009 -3.70731 0.40157 0
M  V30 941 N 88.686 -0.835752 -1.33615 0
M  V30 942 C 89.636 -0.238856 -2.26745 0
M  V30 943 C 90.62 0.604343 -1.49119 0
M  V30 944 O 91.812 0.456822 -1.71003 0
M  V30 945 C 88.941 0.587725 -3.38232 0
M  V30 946 C 88.027 -0.266811 -4.2326 0
M  V30 947 N 88.418 -1.34403 -4.87616 0
M  V30 948 C 86.716 -0.0533131 -4.45968 0
M  V30 949 C 87.417 -1.86819 -5.50884 0
M  V30 950 N 86.393 -1.17013 -5.30857 0
M  V30 951 H 90.195 -1.06266 -2.74016 0
M  V30 952 H 87.709 -0.679881 -1.47483 0
M  V30 953 H 89.706 1.03161 -4.03935 0
M  V30 954 H 88.366 1.40954 -2.9251 0
M  V30 955 H 89.377 -1.7269 -4.88261 0
M  V30 956 H 86.054 0.735312 -4.10974 0
M  V30 957 H 87.444 -2.7701 -6.1214 0
M  V30 958 N 90.1641 1.46063 -0.591896 0
M  V30 959 C 91.4121 2.01938 -0.0808391 0
M  V30 960 C 91.7331 1.46475 1.28725 0
M  V30 961 O 91.0031 0.652944 1.84698 0
M  V30 962 H 89.5831 0.746516 -0.0268938 0
M  V30 963 H 92.2451 1.79055 -0.769752 0
M  V30 964 H 91.3411 3.12094 -0.0187578 0
M  V30 965 N 91.6422 0.330177 1.54103 0
M  V30 966 C 92.6052 -0.520144 2.2322 0
M  V30 967 C 93.6052 -1.03828 1.22786 0
M  V30 968 O 94.7952 -0.929652 1.4732 0
M  V30 969 C 91.9272 -1.72317 2.94142 0
M  V30 970 H 93.1202 0.0841605 2.99782 0
M  V30 971 H 90.6732 0.0813433 1.56088 0
M  V30 972 H 91.4082 -2.36653 2.21734 0
M  V30 973 H 91.1932 -1.35898 3.67796 0
M  V30 974 H 92.6832 -2.3266 3.46784 0
M  V30 975 N 93.1203 -1.57491 0.0584922 0
M  V30 976 C 94.0683 -2.13148 -0.931168 0
M  V30 977 C 95.0623 -1.06507 -1.31729 0
M  V30 978 O 96.2683 -1.24906 -1.29609 0
M  V30 979 H 92.6433 -0.68137 -0.31818 0
M  V30 980 H 94.6143 -2.95187 -0.436707 0
M  V30 981 C 93.3633 -2.69732 -2.19408 0
M  V30 982 H 92.6863 -3.51454 -1.90578 0
M  V30 983 H 94.1263 -3.12287 -2.86798 0
M  V30 984 C 92.5853 -1.63855 -2.94369 0
M  V30 985 O 93.1153 -1.05565 -3.87581 0
M  V30 986 N 91.3213 -1.35202 -2.57233 0
M  V30 987 H 90.8683 -1.82791 -1.81508 0
M  V30 988 H 90.8263 -0.645922 -3.07693 0
M  V30 989 N 94.5984 0.214957 -1.56127 0
M  V30 990 C 96.0144 0.564948 -1.49267 0
M  V30 991 C 96.2144 1.86827 -0.754838 0
M  V30 992 O 95.2704 2.50745 -0.297198 0
M  V30 993 C 96.5834 0.638071 -2.93852 0
M  V30 994 C 98.1314 0.728253 -3.0441 0
M  V30 995 C 98.6064 0.832663 -4.50367 0
M  V30 996 N 100.097 0.896712 -4.54437 0
M  V30 997 C 100.832 0.997324 -5.6466 0
M  V30 998 N 100.328 1.06147 -6.8462 0
M  V30 999 N 102.121 1.03297 -5.52527 0
M  V30 1000 H 94.2724 -0.640211 -2.02522 0
M  V30 1001 H 96.5354 -0.225507 -0.920788 0
M  V30 1002 H 96.2414 -0.250126 -3.50809 0
M  V30 1003 H 96.1154 1.49947 -3.46115 0
M  V30 1004 H 98.5024 1.60689 -2.47514 0
M  V30 1005 H 98.5834 -0.158952 -2.55306 0
M  V30 1006 H 98.2274 -0.0415417 -5.07883 0
M  V30 1007 H 98.1574 1.73538 -4.97184 0
M  V30 1008 H 100.648 0.857188 -3.6805 0
M  V30 1009 H 100.961 1.1382 -7.64372 0
M  V30 1010 H 99.3064 1.03049 -6.87318 0
M  V30 1011 H 102.497 0.979558 -4.57736 0
M  V30 1012 H 102.67 1.10793 -6.38458 0
M  V30 1013 N 96.0765 1.50051 0.48192 0
M  V30 1014 C 97.3225 1.61706 1.2338 0
M  V30 1015 C 97.6775 0.308488 1.89911 0
M  V30 1016 O 96.9705 -0.692798 1.78636 0
M  V30 1017 C 97.1645 2.72717 2.30998 0
M  V30 1018 C 96.9935 4.14242 1.75024 0
M  V30 1019 C 95.7635 4.80786 1.55476 0
M  V30 1020 C 97.9615 4.98846 1.25128 0
M  V30 1021 N 95.9435 6.06563 0.946311 0
M  V30 1022 C 97.3145 6.15258 0.765382 0
M  V30 1023 C 99.3695 4.84702 1.13881 0
M  V30 1024 C 98.0725 7.19079 0.178113 0
M  V30 1025 C 100.098 5.8869 0.565486 0
M  V30 1026 C 99.4605 7.04343 0.0899105 0
M  V30 1027 H 95.5595 0.645958 0.440753 0
M  V30 1028 H 98.1435 1.8713 0.537624 0
M  V30 1029 H 96.3145 2.49033 2.98055 0
M  V30 1030 H 98.0465 2.73789 2.9803 0
M  V30 1031 H 94.8015 4.37899 1.80392 0
M  V30 1032 H 95.2255 6.73767 0.660812 0
M  V30 1033 H 99.8675 3.95583 1.49244 0
M  V30 1034 H 97.5855 8.07882 -0.187749 0
M  V30 1035 H 101.171 5.79808 0.480974 0
M  V30 1036 H 100.051 7.83433 -0.346782 0
M  V30 1037 N 97.5546 -0.734337 1.39446 0
M  V30 1038 C 98.4846 -1.86155 1.40955 0
M  V30 1039 C 99.4656 -1.67898 0.272827 0
M  V30 1040 O 100.651 -1.88207 0.478743 0
M  V30 1041 C 97.7806 -3.23912 1.25294 0
M  V30 1042 C 96.7346 -3.56808 2.36373 0
M  V30 1043 C 96.0606 -4.93508 2.058 0
M  V30 1044 C 97.3606 -3.59713 3.78687 0
M  V30 1045 H 99.0546 -1.8515 2.35287 0
M  V30 1046 H 96.6006 -0.889367 1.13253 0
M  V30 1047 H 98.5536 -4.02443 1.2497 0
M  V30 1048 H 97.2776 -3.25446 0.274308 0
M  V30 1049 H 95.9366 -2.80606 2.35914 0
M  V30 1050 H 95.5846 -4.91623 1.06374 0
M  V30 1051 H 95.2846 -5.16486 2.80208 0
M  V30 1052 H 96.8086 -5.74396 2.07128 0
M  V30 1053 H 98.2226 -4.2832 3.81071 0
M  V30 1054 H 96.6196 -3.94209 4.52459 0
M  V30 1055 H 97.6896 -2.59504 4.09617 0
M  V30 1056 N 99.0327 -1.24633 -0.964593 0
M  V30 1057 C 99.9627 -1.06611 -2.07741 0
M  V30 1058 C 100.944 0.0218666 -1.70086 0
M  V30 1059 O 102.129 -0.145793 -1.93652 0
M  V30 1060 C 99.2587 -0.673444 -3.40708 0
M  V30 1061 C 98.2127 -1.71054 -3.92332 0
M  V30 1062 C 97.5387 -1.17285 -5.21678 0
M  V30 1063 C 98.8387 -3.10718 -4.19824 0
M  V30 1064 H 100.533 -1.99693 -2.23076 0
M  V30 1065 H 98.0787 -0.96152 -1.07195 0
M  V30 1066 H 100.032 -0.534345 -4.17998 0
M  V30 1067 H 98.7557 0.293073 -3.25282 0
M  V30 1068 H 97.4147 -1.83791 -3.17201 0
M  V30 1069 H 97.0627 -0.196847 -5.02615 0
M  V30 1070 H 96.7627 -1.86592 -5.57187 0
M  V30 1071 H 98.2867 -1.04593 -6.01575 0
M  V30 1072 H 99.7007 -3.01192 -4.87808 0
M  V30 1073 H 98.0977 -3.77406 -4.66567 0
M  V30 1074 H 99.1677 -3.58524 -3.26479 0
M  V30 1075 N 100.511 1.16574 -1.06058 0
M  V30 1076 C 101.757 1.87324 -0.777022 0
M  V30 1077 C 102.09 1.81351 0.694645 0
M  V30 1078 O 101.365 1.22753 1.50871 0
M  V30 1079 C 101.648 3.36991 -1.26922 0
M  V30 1080 C 101.501 3.51667 -2.80447 0
M  V30 1081 C 102.82 4.3131 -0.87521 0
M  V30 1082 H 99.9388 0.680191 -0.28374 0
M  V30 1083 H 102.581 1.37036 -1.3161 0
M  V30 1084 H 100.731 3.79949 -0.81063 0
M  V30 1085 H 102.403 3.17664 -3.34495 0
M  V30 1086 H 100.646 2.93656 -3.19294 0
M  V30 1087 H 101.317 4.56766 -3.0995 0
M  V30 1088 H 103.793 3.9624 -1.27014 0
M  V30 1089 H 102.669 5.34545 -1.2471 0
M  V30 1090 H 102.93 4.41552 0.220071 0
M  V30 1091 N 101.989 0.842826 1.3317 0
M  V30 1092 C 103.237 0.439577 1.97262 0
M  V30 1093 C 103.558 -1.00548 1.67078 0
M  V30 1094 O 102.828 -1.70098 0.971779 0
M  V30 1095 H 101.408 0.159558 0.72976 0
M  V30 1096 H 104.07 1.07665 1.62463 0
M  V30 1097 H 103.166 0.574886 3.0676 0
M  V30 1098 N 103.467 -1.45747 0.599634 0
M  V30 1099 C 104.43 -2.28917 -0.113835 0
M  V30 1100 C 105.43 -1.3933 -0.802729 0
M  V30 1101 O 106.62 -1.61534 -0.652103 0
M  V30 1102 C 103.752 -3.20152 -1.17114 0
M  V30 1103 H 104.945 -2.93478 0.617289 0
M  V30 1104 H 102.498 -1.52137 0.358327 0
M  V30 1105 H 103.233 -2.60374 -1.93329 0
M  V30 1106 H 103.018 -3.86133 -0.681468 0
M  V30 1107 H 104.508 -3.82708 -1.67105 0
M  V30 1108 N 104.945 -0.338344 -1.53925 0
M  V30 1109 C 106.356 0.146651 -1.86123 0
M  V30 1110 C 106.707 1.5042 -1.2597 0
M  V30 1111 O 105.832 2.08723 -0.571294 0
M  V30 1112 C 106.427 0.272879 -3.37699 0
M  V30 1113 C 104.986 0.702103 -3.69794 0
M  V30 1114 C 104.133 -0.167304 -2.76795 0
M  V30 1115 H 107.084 -0.558123 -1.48562 0
M  V30 1116 H 107.105 1.10128 -3.64214 0
M  V30 1117 H 106.617 -0.715307 -3.81451 0
M  V30 1118 H 104.718 1.6995 -3.31584 0
M  V30 1119 H 104.831 0.495604 -4.7653 0
M  V30 1120 H 103.195 0.359527 -2.5215 0
M  V30 1121 H 103.978 -1.15253 -3.23375 0
M  V30 1122 N 106.423 1.57458 -0.0668435 0
M  V30 1123 C 107.651 1.97624 0.612565 0
M  V30 1124 C 108.066 0.94502 1.63447 0
M  V30 1125 O 107.423 -0.0689276 1.8237 0
M  V30 1126 C 107.474 3.37869 1.28555 0
M  V30 1127 O 107.195 4.3704 0.304557 0
M  V30 1128 C 108.696 3.92882 2.05325 0
M  V30 1129 H 105.916 0.650045 0.166381 0
M  V30 1130 H 108.46 2.04035 -0.137782 0
M  V30 1131 H 106.615 3.3256 1.98702 0
M  V30 1132 H 107.029 5.18565 0.786779 0
M  V30 1133 H 108.503 4.93247 2.47812 0
M  V30 1134 H 108.98 3.29156 2.9078 0
M  V30 1135 H 109.586 4.01577 1.40056 0
M  V30 1136 N 107.901 -0.206675 1.56239 0
M  V30 1137 C 108.864 -1.23976 1.92776 0
M  V30 1138 C 109.864 -1.39041 0.807729 0
M  V30 1139 O 111.054 -1.37051 1.0753 0
M  V30 1140 C 108.186 -2.61112 2.19165 0
M  V30 1141 H 109.379 -0.927764 2.85189 0
M  V30 1142 H 106.932 -0.447718 1.4975 0
M  V30 1143 H 107.667 -2.97386 1.29352 0
M  V30 1144 H 107.452 -2.51552 3.00772 0
M  V30 1145 H 108.942 -3.35633 2.48476 0
M  V30 1146 N 109.379 -1.50304 -0.473955 0
M  V30 1147 C 110.327 -1.69482 -1.59307 0
M  V30 1148 C 111.321 -0.560669 -1.59853 0
M  V30 1149 O 112.527 -0.741087 -1.64036 0
M  V30 1150 H 108.902 -0.534892 -0.528578 0
M  V30 1151 H 110.873 -2.63364 -1.40293 0
M  V30 1152 C 109.622 -1.80354 -2.97267 0
M  V30 1153 H 108.945 -2.67012 -2.97564 0
M  V30 1154 H 110.385 -1.97798 -3.75036 0
M  V30 1155 C 108.844 -0.55448 -3.32306 0
M  V30 1156 O 109.374 0.307661 -4.0052 0
M  V30 1157 N 107.58 -0.409354 -2.87702 0
M  V30 1158 H 107.127 -1.11196 -2.32364 0
M  V30 1159 H 107.085 0.425223 -3.11511 0
M  V30 1160 N 110.857 0.726932 -1.39834 0
M  V30 1161 C 112.103 1.48771 -1.38704 0
M  V30 1162 C 112.458 1.92394 0.0146387 0
M  V30 1163 O 111.751 1.64474 0.982797 0
M  V30 1164 C 111.945 2.73495 -2.30077 0
M  V30 1165 C 111.774 2.42068 -3.78989 0
M  V30 1166 C 110.544 2.33966 -4.4787 0
M  V30 1167 C 112.742 2.0708 -4.70768 0
M  V30 1168 N 110.724 1.95095 -5.82075 0
M  V30 1169 C 112.095 1.78719 -5.93683 0
M  V30 1170 C 114.15 1.93618 -4.58712 0
M  V30 1171 C 112.853 1.3825 -7.05889 0
M  V30 1172 C 114.879 1.54553 -5.70848 0
M  V30 1173 C 114.241 1.27082 -6.92842 0
M  V30 1174 H 110.34 0.542919 -0.562817 0
M  V30 1175 H 112.924 0.84408 -1.75452 0
M  V30 1176 H 111.095 3.35625 -1.95474 0
M  V30 1177 H 112.827 3.39755 -2.19883 0
M  V30 1178 H 109.582 2.51331 -4.0141 0
M  V30 1179 H 110.006 1.7823 -6.53118 0
M  V30 1180 H 114.648 2.13522 -3.64922 0
M  V30 1181 H 112.366 1.17088 -7.99572 0
M  V30 1182 H 115.952 1.44731 -5.6351 0
M  V30 1183 H 114.832 0.973069 -7.78139 0
M  V30 1184 N 112.336 1.25143 0.95797 0
M  V30 1185 C 113.266 1.07711 2.07173 0
M  V30 1186 C 114.247 -0.0128462 1.70095 0
M  V30 1187 O 115.432 0.156061 1.93572 0
M  V30 1188 C 112.562 0.691503 3.40346 0
M  V30 1189 C 111.516 1.73132 3.9142 0
M  V30 1190 C 110.842 1.20049 5.21049 0
M  V30 1191 C 112.142 3.1294 4.1817 0
M  V30 1192 H 113.836 2.00873 2.22014 0
M  V30 1193 H 111.382 0.967191 1.06684 0
M  V30 1194 H 113.335 0.556505 4.17709 0
M  V30 1195 H 112.059 -0.275819 3.25433 0
M  V30 1196 H 110.718 1.8547 3.16222 0
M  V30 1197 H 110.366 0.223499 5.02503 0
M  V30 1198 H 110.066 1.89545 5.56189 0
M  V30 1199 H 111.59 1.07782 6.01012 0
M  V30 1200 H 113.004 3.03775 4.86203 0
M  V30 1201 H 111.401 3.79875 4.64559 0
M  V30 1202 H 112.471 3.6025 3.24573 0
M  V30 1203 N 113.814 -1.1601 1.06675 0
M  V30 1204 C 114.777 -2.18724 0.685001 0
M  V30 1205 C 115.777 -1.58496 -0.271246 0
M  V30 1206 O 116.967 -1.74119 -0.0531156 0
M  V30 1207 C 114.099 -3.40899 0.00853648 0
M  V30 1208 H 115.292 -2.54011 1.59431 0
M  V30 1209 H 112.845 -1.30352 0.862441 0
M  V30 1210 H 113.58 -3.11173 -0.913337 0
M  V30 1211 H 113.365 -3.8587 0.696204 0
M  V30 1212 H 114.855 -4.16886 -0.24414 0
M  V30 1213 N 115.292 -0.849877 -1.32721 0
M  V30 1214 C 116.24 -0.279745 -2.30912 0
M  V30 1215 C 117.234 0.594278 -1.58634 0
M  V30 1216 O 118.44 0.482613 -1.73409 0
M  V30 1217 H 114.815 -0.0717521 -0.748569 0
M  V30 1218 H 116.786 -1.12222 -2.76494 0
M  V30 1219 C 115.535 0.521108 -3.43773 0
M  V30 1220 H 114.858 -0.142141 -3.99547 0
M  V30 1221 H 116.298 0.885693 -4.14646 0
M  V30 1222 C 114.757 1.70442 -2.90605 0
M  V30 1223 O 115.287 2.8034 -2.87702 0
M  V30 1224 N 113.493 1.52991 -2.47067 0
M  V30 1225 H 113.04 0.635914 -2.49628 0
M  V30 1226 H 112.998 2.32311 -2.11847 0
M  V30 1227 N 116.77 1.45427 -0.607355 0
M  V30 1228 C 117.733 2.28974 0.101693 0
M  V30 1229 C 118.733 1.39754 0.795329 0
M  V30 1230 O 119.923 1.61878 0.643527 0
M  V30 1231 C 117.055 3.20768 1.15414 0
M  V30 1232 H 118.248 2.93147 -0.632844 0
M  V30 1233 H 115.801 1.51945 -0.366391 0
M  V30 1234 H 116.536 2.61395 1.91945 0
M  V30 1235 H 116.321 3.86489 0.66098 0
M  V30 1236 H 117.811 3.83589 1.65073 0
M  V30 1237 N 118.248 0.346503 1.53744 0
M  V30 1238 C 119.473 -0.253074 2.0585 0
M  V30 1239 C 119.898 -1.43202 1.21962 0
M  V30 1240 O 119.256 -1.79783 0.234073 0
M  V30 1241 C 119.304 -0.643193 3.54817 0
M  V30 1242 O 118.408 -1.74286 3.73762 0
M  V30 1243 H 117.749 -0.0413583 0.662711 0
M  V30 1244 H 120.279 0.501574 1.98357 0
M  V30 1245 H 120.289 -0.919526 3.97503 0
M  V30 1246 H 118.964 0.218966 4.15323 0
M  V30 1247 H 117.541 -1.46356 3.42979 0
M  V30 1248 N 119.726 -1.57421 0.075193 0
M  V30 1249 C 120.972 -1.93905 -0.594025 0
M  V30 1250 C 121.305 -0.955701 -1.69056 0
M  V30 1251 O 120.58 0.0145373 -1.94495 0
M  V30 1252 C 120.863 -3.40638 -1.1678 0
M  V30 1253 C 120.716 -4.49733 -0.0776792 0
M  V30 1254 C 122.035 -3.88259 -2.07228 0
M  V30 1255 H 119.154 -0.705105 -0.214466 0
M  V30 1256 H 121.796 -1.8947 0.141854 0
M  V30 1257 H 119.946 -3.44549 -1.79494 0
M  V30 1258 H 121.618 -4.57942 0.555573 0
M  V30 1259 H 119.861 -4.29751 0.591286 0
M  V30 1260 H 120.532 -5.49549 -0.519603 0
M  V30 1261 H 123.008 -3.86376 -1.54445 0
M  V30 1262 H 121.884 -4.91533 -2.44308 0
M  V30 1263 H 122.145 -3.26396 -2.98191 0
M  V30 1264 N 121.204 0.198386 -1.56346 0
M  V30 1265 C 122.453 0.917451 -1.79627 0
M  V30 1266 C 122.766 1.8456 -0.64784 0
M  V30 1267 O 123.972 2.60504 -0.764859 0
M  V30 1268 C 122.428 1.68175 -3.18191 0
M  V30 1269 C 122.036 0.798589 -4.40825 0
M  V30 1270 C 123.78 2.39065 -3.50782 0
M  V30 1271 C 121.687 1.56157 -5.70411 0
M  V30 1272 H 120.617 0.346317 -0.669762 0
M  V30 1273 H 123.268 0.170801 -1.82703 0
M  V30 1274 H 121.65 2.47216 -3.09354 0
M  V30 1275 H 122.824 0.0470665 -4.60776 0
M  V30 1276 H 121.139 0.200686 -4.15916 0
M  V30 1277 H 123.736 2.96692 -4.44835 0
M  V30 1278 H 124.079 3.13091 -2.74371 0
M  V30 1279 H 124.612 1.66993 -3.61052 0
M  V30 1280 H 121.351 0.864142 -6.49779 0
M  V30 1281 H 120.871 2.2871 -5.54483 0
M  V30 1282 H 122.55 2.11622 -6.11412 0
M  V30 1283 N 122.682 1.50554 0.465978 0
M  V30 1284 C 123.63 1.70324 1.58406 0
M  V30 1285 C 124.624 0.569139 1.59553 0
M  V30 1286 O 125.83 0.749776 1.63641 0
M  V30 1287 H 122.205 0.537688 0.525734 0
M  V30 1288 H 124.176 2.64104 1.38894 0
M  V30 1289 C 122.925 1.81928 2.96307 0
M  V30 1290 H 122.248 2.68586 2.96144 0
M  V30 1291 H 123.688 1.99784 3.73982 0
M  V30 1292 C 122.147 0.572095 3.32007 0
M  V30 1293 O 122.677 -0.286416 4.00678 0
M  V30 1294 N 120.883 0.424606 2.87481 0
M  V30 1295 H 120.43 1.12427 2.31771 0
M  V30 1296 H 120.388 -0.408697 3.11732 0
M  V30 1297 N 124.16 -0.719506 1.40217 0
M  V30 1298 C 125.571 -1.29848 1.34151 0
M  V30 1299 C 125.922 -1.96196 0.0131349 0
M  V30 1300 O 125.047 -1.973 -0.88892 0
M  V30 1301 C 125.642 -2.36118 2.42968 0
M  V30 1302 C 124.201 -2.8965 2.40374 0
M  V30 1303 C 123.348 -1.63393 2.24049 0
M  V30 1304 H 126.299 -0.51591 1.5008 0
M  V30 1305 H 126.32 -3.16871 2.10649 0
M  V30 1306 H 125.832 -1.878 3.39636 0
M  V30 1307 H 123.933 -3.42208 1.47392 0
M  V30 1308 H 124.046 -3.4171 3.35814 0
M  V30 1309 H 122.41 -1.88312 1.71495 0
M  V30 1310 H 123.193 -1.17104 3.2271 0
M  V30 1311 N 125.638 -1.25649 -0.95132 0
M  V30 1312 C 126.886 -1.10375 -1.69298 0
M  V30 1313 C 127.207 0.355339 -1.91735 0
M  V30 1314 O 126.477 1.25188 -1.50681 0
M  V30 1315 H 125.057 -0.405461 -0.627384 0
M  V30 1316 H 127.719 -1.57823 -1.14358 0
M  V30 1317 H 126.815 -1.61465 -2.67087 0
M  V30 1318 N 127.117 1.15442 -1.07289 0
M  V30 1319 C 128.08 2.18358 -0.696591 0
M  V30 1320 C 129.08 1.58637 0.262837 0
M  V30 1321 O 130.27 1.74145 0.0438809 0
M  V30 1322 C 127.402 3.4089 -0.0266151 0
M  V30 1323 H 128.595 2.53162 -1.60776 0
M  V30 1324 H 126.148 1.29893 -0.869342 0
M  V30 1325 H 126.883 3.11653 0.896822 0
M  V30 1326 H 126.668 3.85495 -0.716657 0
M  V30 1327 H 128.158 4.17009 0.222028 0
M  V30 1328 N 128.595 0.856903 1.32268 0
M  V30 1329 C 129.844 0.457599 1.96441 0
M  V30 1330 C 130.157 -0.992426 1.68553 0
M  V30 1331 O 131.363 -1.49727 2.26482 0
M  V30 1332 C 129.819 0.767358 3.51624 0
M  V30 1333 C 129.427 2.23326 3.88367 0
M  V30 1334 C 131.171 0.435887 4.22256 0
M  V30 1335 C 129.078 2.48613 5.36606 0
M  V30 1336 H 128.008 0.167387 0.735185 0
M  V30 1337 H 130.659 1.048 1.5063 0
M  V30 1338 H 129.041 0.106367 3.95857 0
M  V30 1339 H 130.215 2.93623 3.55137 0
M  V30 1340 H 128.53 2.52948 3.30766 0
M  V30 1341 H 131.127 0.602202 5.31298 0
M  V30 1342 H 131.47 -0.622672 4.11617 0
M  V30 1343 H 132.003 1.05286 3.83614 0
M  V30 1344 H 128.742 3.53101 5.52268 0
M  V30 1345 H 128.262 1.82896 5.71235 0
M  V30 1346 H 129.941 2.32676 6.03714 0
M  V30 1347 N 130.073 -1.45103 0.615059 0
M  V30 1348 C 131.303 -2.06254 0.119596 0
M  V30 1349 C 131.711 -1.4591 -1.20445 0
M  V30 1350 O 131.054 -0.570384 -1.7462 0
M  V30 1351 C 131.116 -3.59396 -0.0865591 0
M  V30 1352 C 130.78 -4.42116 1.15683 0
M  V30 1353 C 131.777 -4.7662 2.07676 0
M  V30 1354 C 129.462 -4.82749 1.38775 0
M  V30 1355 C 131.456 -5.50622 3.21082 0
M  V30 1356 C 129.143 -5.56504 2.52481 0
M  V30 1357 C 130.141 -5.90358 3.43463 0
M  V30 1358 O 129.829 -6.62615 4.55189 0
M  V30 1359 H 129.561 -0.672423 0.0694512 0
M  V30 1360 H 132.115 -1.87219 0.844885 0
M  V30 1361 H 130.345 -3.76859 -0.866823 0
M  V30 1362 H 132.034 -4.02365 -0.534555 0
M  V30 1363 H 132.8 -4.4578 1.91063 0
M  V30 1364 H 128.679 -4.55829 0.688545 0
M  V30 1365 H 132.223 -5.76965 3.92119 0
M  V30 1366 H 128.12 -5.86759 2.69043 0
M  V30 1367 H 128.888 -6.81071 4.53966 0
M  V30 1368 N 131.551 -0.354651 -1.53558 0
M  V30 1369 C 132.967 -0.00315426 -1.596 0
M  V30 1370 C 133.167 1.47741 -1.37021 0
M  V30 1371 O 132.223 2.23759 -1.16996 0
M  V30 1372 C 133.536 -0.44929 -2.97325 0
M  V30 1373 C 135.084 -0.402578 -3.104 0
M  V30 1374 C 135.559 -0.824355 -4.5052 0
M  V30 1375 N 137.05 -0.778979 -4.56603 0
M  V30 1376 C 137.785 -1.07715 -5.63192 0
M  V30 1377 N 137.281 -1.44405 -6.77583 0
M  V30 1378 N 139.074 -1.00066 -5.53121 0
M  V30 1379 H 131.225 -1.31893 -1.66487 0
M  V30 1380 H 133.488 -0.538388 -0.780284 0
M  V30 1381 H 133.194 -1.48202 -3.1895 0
M  V30 1382 H 133.068 0.169772 -3.76818 0
M  V30 1383 H 135.455 0.621004 -2.88492 0
M  V30 1384 H 135.536 -1.05699 -2.32941 0
M  V30 1385 H 135.18 -1.846 -4.73165 0
M  V30 1386 H 135.11 -0.147304 -5.26394 0
M  V30 1387 H 137.601 -0.508528 -3.74463 0
M  V30 1388 H 137.914 -1.65612 -7.54846 0
M  V30 1389 H 136.259 -1.4826 -6.79002 0
M  V30 1390 H 139.45 -0.713293 -4.62633 0
M  V30 1391 H 139.623 -1.23638 -6.36096 0
M  V30 1392 N 133.029 1.57378 -0.0835403 0
M  V30 1393 C 134.269 1.95808 0.586381 0
M  V30 1394 C 134.633 0.963706 1.66062 0
M  V30 1395 O 135.834 1.23608 2.38693 0
M  V30 1396 C 134.105 3.38808 1.13771 0
M  V30 1397 S 135.664 3.99225 1.82112 0
M  V30 1398 H 132.482 0.684675 0.191679 0
M  V30 1399 H 135.084 1.94843 -0.160194 0
M  V30 1400 H 133.788 4.08954 0.344197 0
M  V30 1401 H 133.319 3.43344 1.92038 0
M  V30 1402 H 135.334 3.87087 3.10449 0
M  V30 1403 N 134.507 -0.190092 1.56449 0
M  V30 1404 C 135.923 -0.54113 1.50146 0
M  V30 1405 C 136.123 -1.85603 0.784465 0
M  V30 1406 O 135.179 -2.5024 0.337051 0
M  V30 1407 C 136.492 -0.591241 2.9483 0
M  V30 1408 C 138.04 -0.679732 3.0553 0
M  V30 1409 C 138.515 -0.760908 4.51635 0
M  V30 1410 N 140.006 -0.824302 4.55806 0
M  V30 1411 C 140.741 -0.907365 5.66175 0
M  V30 1412 N 140.237 -0.952422 6.86222 0
M  V30 1413 N 142.03 -0.94494 5.541 0
M  V30 1414 H 134.181 0.67235 2.01478 0
M  V30 1415 H 136.444 0.240127 0.917084 0
M  V30 1416 H 136.15 0.305905 3.50367 0
M  V30 1417 H 136.024 -1.44422 3.48457 0
M  V30 1418 H 138.411 -1.56731 2.50039 0
M  V30 1419 H 138.492 0.199549 2.5502 0
M  V30 1420 H 138.136 0.122336 5.07753 0
M  V30 1421 H 138.066 -1.65606 4.99882 0
M  V30 1422 H 140.557 -0.798526 3.69367 0
M  V30 1423 H 140.87 -1.01645 7.66086 0
M  V30 1424 H 139.215 -0.921014 6.8887 0
M  V30 1425 H 142.406 -0.906612 4.59236 0
M  V30 1426 H 142.579 -1.00622 6.4014 0
M  V30 1427 N 135.985 -1.50799 -0.457987 0
M  V30 1428 C 137.234 -1.6168 -1.20593 0
M  V30 1429 C 137.547 -0.32888 -1.92815 0
M  V30 1430 O 138.753 -0.316773 -2.69646 0
M  V30 1431 C 137.209 -2.8545 -2.19195 0
M  V30 1432 C 136.817 -4.21168 -1.52715 0
M  V30 1433 C 138.561 -3.05681 -2.94549 0
M  V30 1434 C 136.468 -5.3611 -2.4968 0
M  V30 1435 H 135.398 -0.602134 -0.453818 0
M  V30 1436 H 138.049 -1.77245 -0.475031 0
M  V30 1437 H 136.431 -2.63472 -2.95632 0
M  V30 1438 H 137.605 -4.53449 -0.819775 0
M  V30 1439 H 135.92 -4.06648 -0.895922 0
M  V30 1440 H 138.517 -3.88727 -3.67145 0
M  V30 1441 H 138.86 -2.17929 -3.54701 0
M  V30 1442 H 139.393 -3.27901 -2.25223 0
M  V30 1443 H 136.132 -6.26057 -1.94249 0
M  V30 1444 H 135.652 -5.0823 -3.18532 0
M  V30 1445 H 137.331 -5.6722 -3.11241 0
M  V30 1446 N 137.463 0.71206 -1.40597 0
M  V30 1447 C 138.711 1.46907 -1.38791 0
M  V30 1448 C 139.032 1.94998 0.00780391 0
M  V30 1449 O 138.302 1.70587 0.963174 0
M  V30 1450 H 136.882 0.545043 -0.51082 0
M  V30 1451 H 139.544 0.843882 -1.75683 0
M  V30 1452 H 138.64 2.34021 -2.06496 0
M  V30 1453 N 138.941 1.26152 0.944643 0
M  V30 1454 C 139.888 1.07408 2.04285 0
M  V30 1455 C 140.858 -0.0198413 1.66088 0
M  V30 1456 O 142.043 0.139264 1.90291 0
M  V30 1457 C 139.183 0.70945 3.37729 0
M  V30 1458 C 138.296 1.87926 3.88983 0
M  V30 1459 C 137.431 1.45807 5.10797 0
M  V30 1460 C 136.47 2.5964 5.54305 0
M  V30 1461 N 135.607 2.18226 6.67324 0
M  V30 1462 H 140.447 2.01389 2.1965 0
M  V30 1463 H 137.984 1.00275 1.07626 0
M  V30 1464 H 139.942 0.478948 4.14442 0
M  V30 1465 H 138.572 -0.193389 3.2222 0
M  V30 1466 H 137.624 2.22279 3.08701 0
M  V30 1467 H 138.936 2.73377 4.17213 0
M  V30 1468 H 138.09 1.18781 5.94959 0
M  V30 1469 H 136.829 0.574414 4.84305 0
M  V30 1470 H 135.834 2.87399 4.68702 0
M  V30 1471 H 137.059 3.48599 5.828 0
M  V30 1472 H 135.005 1.3229 6.42523 0
M  V30 1473 H 134.922 2.97221 6.95123 0
M  V30 1474 H 136.19 1.94403 7.54869 0
M  V30 1475 N 140.419 -1.14872 1.07899 0
M  V30 1476 C 141.367 -2.21857 0.698727 0
M  V30 1477 C 142.361 -1.66845 -0.293086 0
M  V30 1478 O 143.567 -1.79321 -0.156204 0
M  V30 1479 H 139.942 -0.722691 0.207899 0
M  V30 1480 H 141.913 -2.51205 1.61054 0
M  V30 1481 C 140.662 -3.47498 0.11858 0
M  V30 1482 H 139.985 -3.90154 0.872914 0
M  V30 1483 H 141.425 -4.23858 -0.109759 0
M  V30 1484 C 139.884 -3.16947 -1.1422 0
M  V30 1485 O 140.414 -3.3426 -2.22785 0
M  V30 1486 N 138.62 -2.70946 -1.05055 0
M  V30 1487 H 138.167 -2.57058 -0.167038 0
M  V30 1488 H 138.125 -2.50879 -1.89491 0
M  V30 1489 N 141.898 -0.863906 -1.31812 0
M  V30 1490 C 143.309 -0.52522 -1.7916 0
M  V30 1491 C 143.66 0.957518 -1.71248 0
M  V30 1492 O 142.785 1.74734 -1.27659 0
M  V30 1493 C 143.38 -0.9466 -3.25307 0
M  V30 1494 C 141.939 -0.659668 -3.70574 0
M  V30 1495 C 141.086 -1.14126 -2.52726 0
M  V30 1496 H 144.037 -1.05022 -1.1898 0
M  V30 1497 H 144.058 -0.266766 -3.79564 0
M  V30 1498 H 143.57 -2.02579 -3.31034 0
M  V30 1499 H 141.671 0.408416 -3.70355 0
M  V30 1500 H 141.784 -1.23245 -4.62977 0
M  V30 1501 H 140.148 -0.561216 -2.4844 0
M  V30 1502 H 140.931 -2.22775 -2.61201 0
M  V30 1503 N 143.376 1.44774 -0.622745 0
M  V30 1504 C 144.624 2.01721 -0.123655 0
M  V30 1505 C 144.945 1.49172 1.25589 0
M  V30 1506 O 144.215 0.691974 1.83272 0
M  V30 1507 H 142.795 0.745777 -0.0427225 0
M  V30 1508 H 145.457 1.77382 -0.807559 0
M  V30 1509 H 144.553 3.11984 -0.0849534 0
M  V30 1510 N 144.854 0.36279 1.53368 0
M  V30 1511 C 145.786 -0.519668 2.23231 0
M  V30 1512 C 146.799 -1.04844 1.24546 0
M  V30 1513 O 147.988 -0.955296 1.50786 0
M  V30 1514 C 145.088 -1.72995 2.9142 0
M  V30 1515 C 144.261 -1.33316 4.16588 0
M  V30 1516 C 143.32 -2.40521 4.68013 0
M  V30 1517 O 142.346 -2.03027 5.3176 0
M  V30 1518 N 143.548 -3.72065 4.45587 0
M  V30 1519 H 146.313 0.078751 2.99597 0
M  V30 1520 H 143.874 0.187833 1.60807 0
M  V30 1521 H 145.866 -2.44184 3.22733 0
M  V30 1522 H 144.436 -2.2353 2.18525 0
M  V30 1523 H 143.656 -0.451236 3.91609 0
M  V30 1524 H 144.944 -1.04432 4.97967 0
M  V30 1525 H 144.342 -4.05304 3.94646 0
M  V30 1526 H 142.899 -4.39366 4.81457 0
M  V30 1527 N 146.332 -1.57332 0.0918853 0
M  V30 1528 C 147.56 -1.98574 -0.581048 0
M  V30 1529 C 147.975 -0.970903 -1.61923 0
M  V30 1530 O 147.332 0.0399054 -1.82456 0
M  V30 1531 C 147.383 -3.39872 -1.23164 0
M  V30 1532 O 147.104 -4.37469 -0.234989 0
M  V30 1533 C 148.605 -3.96099 -1.99049 0
M  V30 1534 H 145.825 -0.65261 -0.156018 0
M  V30 1535 H 148.369 -2.0379 0.170225 0
M  V30 1536 H 146.524 -3.35679 -1.93386 0
M  V30 1537 H 146.938 -5.19751 -0.70418 0
M  V30 1538 H 148.412 -4.97127 -2.39934 0
M  V30 1539 H 148.889 -3.3374 -2.85507 0
M  V30 1540 H 149.495 -4.03755 -1.3365 0
M  V30 1541 N 147.81 0.181792 -1.56548 0
M  V30 1542 C 149.05 0.906711 -1.83189 0
M  V30 1543 C 149.414 1.79882 -0.671312 0
M  V30 1544 O 150.615 2.56054 -0.81792 0
M  V30 1545 C 148.886 1.69023 -3.14906 0
M  V30 1546 S 150.445 2.46535 -3.62996 0
M  V30 1547 H 147.263 0.303877 -0.642791 0
M  V30 1548 H 149.865 0.169107 -1.94767 0
M  V30 1549 H 148.569 1.02571 -3.97376 0
M  V30 1550 H 148.1 2.46941 -3.06241 0
M  V30 1551 H 150.115 3.71014 -3.29489 0
M  V30 1552 N 149.288 1.51039 0.449983 0
M  V30 1553 C 150.198 1.74261 1.57067 0
M  V30 1554 C 151.214 0.626363 1.62335 0
M  V30 1555 O 152.39 0.907162 1.79812 0
M  V30 1556 C 149.455 1.85114 2.93144 0
M  V30 1557 C 148.516 3.0893 2.98095 0
M  V30 1558 C 147.749 3.19256 4.27681 0
M  V30 1559 O 147.972 2.35835 5.19363 0
M  V30 1560 O 146.906 4.12144 4.38658 0
M  V30 1561 H 150.732 2.69303 1.40391 0
M  V30 1562 H 148.317 1.35389 0.631688 0
M  V30 1563 H 150.199 1.94311 3.73926 0
M  V30 1564 H 148.874 0.932588 3.09975 0
M  V30 1565 H 147.781 3.0522 2.16314 0
M  V30 1566 H 149.114 4.00433 2.86206 0
M  V30 1567 N 150.766 -0.704594 1.40972 0
M  V30 1568 C 151.698 -1.82974 1.38033 0
M  V30 1569 C 152.711 -1.60305 0.283931 0
M  V30 1570 O 153.9 -1.69975 0.545042 0
M  V30 1571 C 151 -3.19578 1.12795 0
M  V30 1572 C 150.173 -3.69352 2.34302 0
M  V30 1573 C 149.232 -4.84601 2.05058 0
M  V30 1574 O 148.258 -4.96682 2.7802 0
M  V30 1575 N 149.46 -5.71194 1.03528 0
M  V30 1576 H 152.225 -1.85991 2.35005 0
M  V30 1577 H 149.786 -0.886567 1.35468 0
M  V30 1578 H 151.778 -3.9429 0.911987 0
M  V30 1579 H 150.348 -3.11642 0.24452 0
M  V30 1580 H 149.568 -2.85649 2.71659 0
M  V30 1581 H 150.856 -3.99345 3.1528 0
M  V30 1582 H 150.254 -5.64054 0.431217 0
M  V30 1583 H 148.811 -6.45843 0.879205 0
M  V30 1584 N 152.244 -1.26651 -0.937939 0
M  V30 1585 C 153.174 -1.10993 -2.05433 0
M  V30 1586 C 154.155 -0.0142161 -1.70094 0
M  V30 1587 O 155.34 -0.186837 -1.93299 0
M  V30 1588 C 152.47 -0.745561 -3.39203 0
M  V30 1589 C 151.424 -1.79337 -3.88616 0
M  V30 1590 C 150.75 -1.28324 -5.19073 0
M  V30 1591 C 152.05 -3.19553 -4.13138 0
M  V30 1592 H 153.744 -2.0438 -2.1879 0
M  V30 1593 H 151.29 -0.984041 -1.05131 0
M  V30 1594 H 153.243 -0.622888 -4.16771 0
M  V30 1595 H 151.967 0.22401 -3.25831 0
M  V30 1596 H 150.626 -1.90477 -3.13231 0
M  V30 1597 H 150.274 -0.303414 -5.02084 0
M  V30 1598 H 149.974 -1.98369 -5.53103 0
M  V30 1599 H 151.498 -1.1733 -5.99221 0
M  V30 1600 H 152.912 -3.11471 -4.81309 0
M  V30 1601 H 151.309 -3.87218 -4.58457 0
M  V30 1602 H 152.379 -3.65368 -3.18801 0
M  V30 1603 N 153.722 1.14298 -1.08507 0
M  V30 1604 C 154.654 2.1907 -0.673859 0
M  V30 1605 C 155.667 1.60381 0.279577 0
M  V30 1606 O 156.856 1.78374 0.0670754 0
M  V30 1607 C 153.956 3.38888 0.0290979 0
M  V30 1608 C 153.129 4.27103 -0.943494 0
M  V30 1609 C 152.188 5.25477 -0.275676 0
M  V30 1610 O 151.214 5.61709 -0.920401 0
M  V30 1611 N 152.416 5.7227 0.974013 0
M  V30 1612 H 155.181 2.54965 -1.57521 0
M  V30 1613 H 152.742 1.29528 -0.971287 0
M  V30 1614 H 154.734 4.01761 0.48683 0
M  V30 1615 H 153.304 3.01309 0.832555 0
M  V30 1616 H 152.524 3.61149 -1.58004 0
M  V30 1617 H 153.812 4.82905 -1.60251 0
M  V30 1618 H 153.21 5.44965 1.51755 0
M  V30 1619 H 151.767 6.37127 1.37522 0
M  V30 1620 N 155.201 0.870884 1.31352 0
M  V30 1621 C 156.131 0.343096 2.30966 0
M  V30 1622 C 157.112 -0.566507 1.60389 0
M  V30 1623 O 158.297 -0.483336 1.88089 0
M  V30 1624 C 155.427 -0.455487 3.443 0
M  V30 1625 C 154.381 0.361103 4.26474 0
M  V30 1626 C 153.707 -0.563221 5.31725 0
M  V30 1627 C 155.007 1.59566 4.97329 0
M  V30 1628 H 156.701 1.17548 2.75359 0
M  V30 1629 H 154.247 0.566686 1.32381 0
M  V30 1630 H 156.2 -0.83525 4.13039 0
M  V30 1631 H 154.924 -1.32139 2.98675 0
M  V30 1632 H 153.583 0.722825 3.59403 0
M  V30 1633 H 153.231 -1.42643 4.82351 0
M  V30 1634 H 152.931 -0.0207409 5.87596 0
M  V30 1635 H 154.455 -0.939808 6.03324 0
M  V30 1636 H 155.869 1.28728 5.58661 0
M  V30 1637 H 154.266 2.07728 5.63 0
M  V30 1638 H 155.336 2.34798 4.24262 0
M  V30 1639 N 156.679 -1.44442 0.630414 0
M  V30 1640 C 157.927 -2.01653 0.134351 0
M  V30 1641 C 158.248 -1.49836 -1.24796 0
M  V30 1642 O 157.518 -0.701684 -1.82902 0
M  V30 1643 H 156.098 -0.74554 0.0466769 0
M  V30 1644 H 158.76 -1.76952 0.816955 0
M  V30 1645 H 157.856 -3.11935 0.101498 0
M  V30 1646 N 158.157 -0.370918 -1.53173 0
M  V30 1647 C 159.382 0.220293 -2.06227 0
M  V30 1648 C 159.807 1.41243 -1.24225 0
M  V30 1649 O 159.165 1.79387 -0.262645 0
M  V30 1650 C 159.213 0.586663 -3.55796 0
M  V30 1651 O 158.317 1.68317 -3.76488 0
M  V30 1652 H 157.658 0.0308099 -0.663285 0
M  V30 1653 H 160.188 -0.533068 -1.97534 0
M  V30 1654 H 160.198 0.85617 -3.98916 0
M  V30 1655 H 158.873 -0.285013 -4.14922 0
M  V30 1656 H 157.45 1.40881 -3.45264 0
M  V30 1657 N 159.635 1.57281 -0.100228 0
M  V30 1658 C 161.046 1.81725 0.428107 0
M  V30 1659 C 161.397 1.01619 1.67833 0
M  V30 1660 O 160.522 0.247098 2.14985 0
M  V30 1661 C 161.117 3.29617 0.78347 0
M  V30 1662 C 159.676 3.54808 1.25653 0
M  V30 1663 C 158.823 2.76118 0.255752 0
M  V30 1664 H 161.774 1.55324 -0.325608 0
M  V30 1665 H 161.795 3.4322 1.64256 0
M  V30 1666 H 161.307 3.87893 -0.12665 0
M  V30 1667 H 159.408 3.01868 2.18418 0
M  V30 1668 H 159.521 4.63443 1.21482 0
M  V30 1669 H 157.885 2.43745 0.738956 0
M  V30 1670 H 158.668 3.37145 -0.647136 0
M  V30 1671 N 161.113 -0.173488 1.56642 0
M  V30 1672 C 162.061 -1.23417 1.97157 0
M  V30 1673 C 163.055 -1.45946 0.860013 0
M  V30 1674 O 164.261 -1.46551 1.04512 0
M  V30 1675 H 160.636 -0.414818 0.62724 0
M  V30 1676 H 162.607 -0.865582 2.8557 0
M  V30 1677 C 161.356 -2.5665 2.34576 0
M  V30 1678 H 160.679 -2.40137 3.19647 0
M  V30 1679 H 162.119 -3.2956 2.6677 0
M  V30 1680 C 160.578 -3.15245 1.18836 0
M  V30 1681 O 161.108 -3.98883 0.474869 0
M  V30 1682 N 159.314 -2.74303 0.959497 0
M  V30 1683 H 158.861 -2.0639 1.54146 0
M  V30 1684 H 158.819 -3.13844 0.186932 0
M  V30 1685 N 162.591 -1.51276 -0.441967 0
M  V30 1686 C 163.839 -1.63392 -1.18943 0
M  V30 1687 C 164.16 -0.350159 -1.9183 0
M  V30 1688 O 163.43 0.633784 -1.85364 0
M  V30 1689 H 162.01 -0.602164 -0.442049 0
M  V30 1690 H 164.672 -1.88186 -0.507165 0
M  V30 1691 H 163.768 -2.45934 -1.92154 0
M  V30 1692 N 164.069 0.697108 -1.41344 0
M  V30 1693 C 164.979 1.84088 -1.45427 0
M  V30 1694 C 165.995 1.70545 -0.34501 0
M  V30 1695 O 167.171 1.92488 -0.592492 0
M  V30 1696 C 164.236 3.20056 -1.33286 0
M  V30 1697 C 163.297 3.45718 -2.54514 0
M  V30 1698 C 162.53 4.75199 -2.42944 0
M  V30 1699 O 162.753 5.51579 -1.45318 0
M  V30 1700 O 161.687 5.0161 -3.32672 0
M  V30 1701 H 165.513 1.836 -2.41919 0
M  V30 1702 H 163.098 0.849966 -1.22866 0
M  V30 1703 H 164.98 4.01236 -1.28794 0
M  V30 1704 H 163.655 3.2123 -0.39909 0
M  V30 1705 H 162.562 2.64474 -2.64583 0
M  V30 1706 H 163.895 3.49356 -3.46715 0
M  V30 1707 N 165.547 1.27147 0.931209 0
M  V30 1708 C 166.958 1.12044 1.49342 0
M  V30 1709 C 167.309 -0.295795 1.93957 0
M  V30 1710 O 166.434 -1.18835 1.80852 0
M  V30 1711 C 167.029 2.02781 2.71414 0
M  V30 1712 C 165.588 1.91794 3.2387 0
M  V30 1713 C 164.735 1.95543 1.96617 0
M  V30 1714 H 167.686 1.40091 0.745672 0
M  V30 1715 H 167.707 1.58156 3.46074 0
M  V30 1716 H 167.219 3.05848 2.38911 0
M  V30 1717 H 165.32 0.916992 3.6114 0
M  V30 1718 H 165.433 2.77852 3.90302 0
M  V30 1719 H 163.797 1.39722 2.12955 0
M  V30 1720 H 164.58 3.00259 1.66432 0
M  V30 1721 N 167.025 -1.13721 1.09112 0
M  V30 1722 C 168.265 -1.86576 0.834801 0
M  V30 1723 C 168.629 -1.81435 -0.628122 0
M  V30 1724 O 169.83 -2.49497 -1.00024 0
M  V30 1725 C 168.101 -3.30872 1.35124 0
M  V30 1726 S 169.66 -4.21257 1.22832 0
M  V30 1727 H 166.478 -0.643666 0.302017 0
M  V30 1728 H 169.08 -1.37085 1.39385 0
M  V30 1729 H 167.784 -3.32166 2.41027 0
M  V30 1730 H 167.315 -3.85423 0.788185 0
M  V30 1731 H 169.33 -4.95884 0.177191 0
M  V30 1732 N 168.503 -0.877838 -1.30888 0
M  V30 1733 C 169.751 -0.491723 -1.96027 0
M  V30 1734 C 170.072 0.960827 -1.69685 0
M  V30 1735 O 169.342 1.67462 -1.01654 0
M  V30 1736 H 167.922 -0.17885 -0.725273 0
M  V30 1737 H 170.584 -1.11935 -1.59551 0
M  V30 1738 H 169.68 -0.656016 -3.05128 0
M  V30 1739 N 169.982 1.44106 -0.638065 0
M  V30 1740 C 170.929 2.30715 0.062701 0
M  V30 1741 C 171.899 1.43882 0.829883 0
M  V30 1742 O 173.084 1.72775 0.809532 0
M  V30 1743 C 170.224 3.29258 1.03358 0
M  V30 1744 C 169.337 4.31192 0.26409 0
M  V30 1745 C 168.472 5.16825 1.22741 0
M  V30 1746 C 167.511 6.10462 0.447475 0
M  V30 1747 N 166.648 6.8877 1.36161 0
M  V30 1748 H 171.488 2.90096 -0.681781 0
M  V30 1749 H 169.025 1.42925 -0.347988 0
M  V30 1750 H 170.983 3.84886 1.60992 0
M  V30 1751 H 169.613 2.71562 1.74511 0
M  V30 1752 H 168.665 3.77981 -0.428295 0
M  V30 1753 H 169.977 4.97619 -0.343052 0
M  V30 1754 H 169.131 5.77004 1.87487 0
M  V30 1755 H 167.87 4.50488 1.86847 0
M  V30 1756 H 166.875 5.49386 -0.213433 0
M  V30 1757 H 168.1 6.78837 -0.188968 0
M  V30 1758 H 166.046 6.25096 1.98975 0
M  V30 1759 H 165.963 7.51663 0.808656 0
M  V30 1760 H 167.231 7.53467 1.99769 0
M  V30 1761 N 171.46 0.379036 1.52974 0
M  V30 1762 C 172.688 -0.20679 2.05864 0
M  V30 1763 C 173.103 -1.41356 1.25155 0
M  V30 1764 O 172.46 -1.8009 0.295588 0
M  V30 1765 C 172.511 -0.587045 3.56702 0
M  V30 1766 O 172.232 0.571776 4.34353 0
M  V30 1767 C 173.733 -1.22983 4.25899 0
M  V30 1768 H 170.953 -0.0336123 0.670158 0
M  V30 1769 H 173.497 0.541298 1.97206 0
M  V30 1770 H 171.652 -1.28504 3.65466 0
M  V30 1771 H 172.066 0.261544 5.23847 0
M  V30 1772 H 173.54 -1.44635 5.32715 0
M  V30 1773 H 174.017 -2.19416 3.80465 0
M  V30 1774 H 174.623 -0.572892 4.21424 0
M  V30 1775 N 172.938 -1.57226 0.108567 0
M  V30 1776 C 174.178 -1.96717 -0.555155 0
M  V30 1777 C 174.542 -0.990003 -1.64508 0
M  V30 1778 O 175.743 -1.2739 -2.36696 0
M  V30 1779 C 174.014 -3.40575 -1.08367 0
M  V30 1780 S 175.573 -4.02072 -1.75737 0
M  V30 1781 H 172.391 -0.687638 -0.180762 0
M  V30 1782 H 174.993 -1.94563 0.191172 0
M  V30 1783 H 173.697 -4.0945 -0.279092 0
M  V30 1784 H 173.228 -3.46356 -1.86551 0
M  V30 1785 H 175.243 -3.91977 -3.04251 0
M  V30 1786 N 174.416 0.165178 -1.56732 0
M  V30 1787 C 175.346 1.20651 -1.99914 0
M  V30 1788 C 176.327 1.45827 -0.875705 0
M  V30 1789 O 177.512 1.57057 -1.14223 0
M  V30 1790 C 174.642 2.54401 -2.36427 0
M  V30 1791 C 173.596 2.43782 -3.51787 0
M  V30 1792 C 172.922 3.82078 -3.7406 0
M  V30 1793 C 174.222 1.93732 -4.85041 0
M  V30 1794 H 175.916 0.847534 -2.87154 0
M  V30 1795 H 173.462 0.40625 -1.38151 0
M  V30 1796 H 175.415 3.27458 -2.65234 0
M  V30 1797 H 174.139 2.92098 -1.46103 0
M  V30 1798 H 172.798 1.73178 -3.23117 0
M  V30 1799 H 172.446 4.17179 -2.81017 0
M  V30 1800 H 172.146 3.7584 -4.51684 0
M  V30 1801 H 173.67 4.56712 -4.05274 0
M  V30 1802 H 175.084 2.56569 -5.12684 0
M  V30 1803 H 173.481 1.98428 -5.66345 0
M  V30 1804 H 174.551 0.891962 -4.76626 0
M  V30 1805 N 175.894 1.51508 0.433938 0
M  V30 1806 C 176.804 1.75917 1.5521 0
M  V30 1807 C 177.82 0.643545 1.61662 0
M  V30 1808 O 178.996 0.926183 1.7884 0
M  V30 1809 C 176.061 1.88213 2.91164 0
M  V30 1810 C 175.122 3.12074 2.94802 0
M  V30 1811 C 174.355 3.23774 4.24271 0
M  V30 1812 O 174.578 2.4133 5.16833 0
M  V30 1813 O 173.512 4.16774 4.34262 0
M  V30 1814 H 177.338 2.70777 1.37527 0
M  V30 1815 H 174.923 1.36051 0.617293 0
M  V30 1816 H 176.805 1.98267 3.71845 0
M  V30 1817 H 175.48 0.965413 3.08968 0
M  V30 1818 H 174.387 3.07497 2.13065 0
M  V30 1819 H 175.72 4.03446 2.81943 0
M  V30 1820 N 177.372 -0.689602 1.41712 0
M  V30 1821 C 178.282 -1.83314 1.46401 0
M  V30 1822 C 179.298 -1.7036 0.35405 0
M  V30 1823 O 180.474 -1.92171 0.602692 0
M  V30 1824 C 177.539 -3.19344 1.34982 0
M  V30 1825 C 176.6 -3.44363 2.56344 0
M  V30 1826 C 175.833 -4.73904 2.45461 0
M  V30 1827 O 176.056 -5.508 1.48241 0
M  V30 1828 O 174.99 -4.99839 3.35328 0
M  V30 1829 H 178.816 -1.82314 2.42889 0
M  V30 1830 H 176.401 -0.843438 1.23315 0
M  V30 1831 H 178.283 -4.00547 1.3092 0
M  V30 1832 H 176.958 -3.21014 0.41612 0
M  V30 1833 H 175.865 -2.63067 2.65982 0
M  V30 1834 H 177.198 -3.47512 3.48563 0
M  V30 1835 N 178.85 -1.27639 -0.924453 0
M  V30 1836 C 180.266 -1.05113 -1.20097 0
M  V30 1837 C 180.466 0.213262 -2.00368 0
M  V30 1838 O 179.522 0.91787 -2.35226 0
M  V30 1839 C 180.835 -2.29244 -1.94596 0
M  V30 1840 C 182.383 -2.34315 -2.07522 0
M  V30 1841 C 182.858 -3.58183 -2.85427 0
M  V30 1842 N 184.349 -3.5876 -2.92994 0
M  V30 1843 C 185.084 -4.51277 -3.53746 0
M  V30 1844 N 184.58 -5.54102 -4.15863 0
M  V30 1845 N 186.373 -4.38894 -3.51181 0
M  V30 1846 H 178.524 -2.08821 -0.388264 0
M  V30 1847 H 180.787 -0.918568 -0.234385 0
M  V30 1848 H 180.493 -3.21301 -1.43034 0
M  V30 1849 H 180.367 -2.34816 -2.95197 0
M  V30 1850 H 182.754 -1.42762 -2.58269 0
M  V30 1851 H 182.835 -2.32744 -1.06131 0
M  V30 1852 H 182.479 -4.50074 -2.35363 0
M  V30 1853 H 182.409 -3.57006 -3.8711 0
M  V30 1854 H 184.9 -2.84398 -2.4885 0
M  V30 1855 H 185.213 -6.20859 -4.60168 0
M  V30 1856 H 183.558 -5.57941 -4.144 0
M  V30 1857 H 186.749 -3.57772 -3.01856 0
M  V30 1858 H 186.922 -5.11186 -3.98237 0
M  V30 1859 N 180.328 1.1314 -1.09713 0
M  V30 1860 C 181.605 1.80762 -0.747302 0
M  V30 1861 C 181.985 1.96663 0.767265 0
M  V30 1862 O 181.333 1.53706 1.69076 0
M  V30 1863 C 181.543 3.15606 -1.48975 0
M  V30 1864 C 182.891 3.90914 -1.65746 0
M  V30 1865 O 183.915 3.25239 -1.45251 0
M  V30 1866 O 182.774 5.08718 -1.9967 0
M  V30 1867 H 179.868 0.782103 -0.268782 0
M  V30 1868 H 182.414 1.20041 -1.19951 0
M  V30 1869 H 181.186 2.99278 -2.52088 0
M  V30 1870 H 180.809 3.84029 -1.02991 0
M  V30 1871 N 181.806 0.884767 1.30421 0
M  V30 1872 C 182.754 0.340869 2.30089 0
M  V30 1873 C 183.748 -0.55201 1.60154 0
M  V30 1874 O 184.954 -0.436467 1.74628 0
M  V30 1875 H 181.329 0.0915739 0.746404 0
M  V30 1876 H 183.3 1.19513 2.73421 0
M  V30 1877 C 182.049 -0.429779 3.45034 0
M  V30 1878 H 181.372 0.248024 3.9903 0
M  V30 1879 H 182.812 -0.775445 4.16849 0
M  V30 1880 C 181.271 -1.62677 2.95022 0
M  V30 1881 O 181.801 -2.72614 2.95033 0
M  V30 1882 N 180.007 -1.46387 2.51036 0
M  V30 1883 H 179.554 -0.569506 2.51226 0
M  V30 1884 H 179.512 -2.26612 2.17932 0
M  V30 1885 N 183.284 -1.43765 0.645699 0
M  V30 1886 C 184.216 -2.29027 -0.0890605 0
M  V30 1887 C 185.229 -1.42093 -0.794563 0
M  V30 1888 O 186.418 -1.66104 -0.653575 0
M  V30 1889 C 183.518 -3.18831 -1.14891 0
M  V30 1890 C 182.691 -4.34261 -0.523043 0
M  V30 1891 C 181.75 -5.04994 -1.47878 0
M  V30 1892 O 180.776 -5.6052 -0.990277 0
M  V30 1893 N 181.978 -5.07795 -2.81291 0
M  V30 1894 H 184.743 -2.92727 0.64272 0
M  V30 1895 H 182.304 -1.54373 0.487924 0
M  V30 1896 H 184.296 -3.63015 -1.78892 0
M  V30 1897 H 182.866 -2.56782 -1.78275 0
M  V30 1898 H 182.086 -3.93088 0.295896 0
M  V30 1899 H 183.374 -5.08728 -0.0858147 0
M  V30 1900 H 182.772 -4.64042 -3.23546 0
M  V30 1901 H 181.329 -5.55721 -3.40614 0
M  V30 1902 N 184.763 -0.387143 -1.52771 0
M  V30 1903 C 186.009 0.188506 -2.02525 0
M  V30 1904 C 186.364 1.44649 -1.26864 0
M  V30 1905 O 185.657 1.88189 -0.359945 0
M  V30 1906 C 185.851 0.512209 -3.53711 0
M  V30 1907 C 185.68 -0.712855 -4.44014 0
M  V30 1908 C 184.45 -1.23147 -4.90064 0
M  V30 1909 C 186.648 -1.58453 -4.89282 0
M  V30 1910 N 184.63 -2.41431 -5.64433 0
M  V30 1911 C 186.001 -2.61381 -5.6221 0
M  V30 1912 C 188.056 -1.60488 -4.71326 0
M  V30 1913 C 186.759 -3.66227 -6.19088 0
M  V30 1914 C 188.785 -2.6424 -5.29085 0
M  V30 1915 C 188.147 -3.6589 -6.01917 0
M  V30 1916 H 184.246 0.0311236 -0.78138 0
M  V30 1917 H 186.83 -0.536548 -1.87161 0
M  V30 1918 H 185.001 1.20632 -3.69192 0
M  V30 1919 H 186.733 1.07482 -3.90166 0
M  V30 1920 H 183.488 -0.792795 -4.66917 0
M  V30 1921 H 183.912 -3.01274 -6.0627 0
M  V30 1922 H 188.554 -0.83247 -4.14524 0
M  V30 1923 H 186.272 -4.44337 -6.74974 0
M  V30 1924 H 189.858 -2.66695 -5.17074 0
M  V30 1925 H 188.738 -4.44855 -6.45813 0
M  V30 1926 N 186.241 1.57166 -0.116904 0
M  V30 1927 C 187.171 2.18222 0.830759 0
M  V30 1928 C 188.152 1.12167 1.27877 0
M  V30 1929 O 189.337 1.40394 1.34176 0
M  V30 1930 C 186.467 2.77996 2.08172 0
M  V30 1931 C 185.421 3.89614 1.77157 0
M  V30 1932 C 184.747 4.36187 3.09265 0
M  V30 1933 C 186.047 5.1181 1.04151 0
M  V30 1934 H 187.741 2.97664 0.321992 0
M  V30 1935 H 185.287 1.4318 0.153434 0
M  V30 1936 H 187.24 3.19366 2.74924 0
M  V30 1937 H 185.964 1.9584 2.6137 0
M  V30 1938 H 184.623 3.48816 1.12796 0
M  V30 1939 H 184.271 3.50893 3.60393 0
M  V30 1940 H 183.971 5.11455 2.89288 0
M  V30 1941 H 185.495 4.80207 3.77139 0
M  V30 1942 H 186.909 5.50214 1.61052 0
M  V30 1943 H 185.306 5.92648 0.942762 0
M  V30 1944 H 186.376 4.84892 0.0279022 0
M  V30 1945 N 187.719 -0.156864 1.56817 0
M  V30 1946 C 188.967 -0.869404 1.82444 0
M  V30 1947 C 189.288 -1.82147 0.69623 0
M  V30 1948 O 188.558 -1.93847 -0.28287 0
M  V30 1949 H 187.138 -0.324043 0.673056 0
M  V30 1950 H 189.8 -0.153224 1.94297 0
M  V30 1951 H 188.896 -1.43761 2.77019 0
M  V30 1952 N 189.197 -1.51736 -0.425897 0
M  V30 1953 C 190.443 -1.65214 -1.1761 0
M  V30 1954 C 190.776 -0.372778 -1.90589 0
M  V30 1955 O 190.051 0.628139 -1.84078 0
M  V30 1956 C 190.334 -2.86312 -2.18398 0
M  V30 1957 C 190.187 -4.24254 -1.49426 0
M  V30 1958 C 191.506 -3.02925 -3.19256 0
M  V30 1959 H 188.625 -0.601263 -0.426206 0
M  V30 1960 H 191.267 -1.8425 -0.463882 0
M  V30 1961 H 189.417 -2.70213 -2.79137 0
M  V30 1962 H 191.089 -4.52046 -0.919362 0
M  V30 1963 H 189.332 -4.26426 -0.796432 0
M  V30 1964 H 190.003 -5.05001 -2.22885 0
M  V30 1965 H 192.479 -3.1781 -2.68581 0
M  V30 1966 H 191.355 -3.89199 -3.8706 0
M  V30 1967 H 191.616 -2.15497 -3.86023 0
M  V30 1968 N 190.675 0.682077 -1.42076 0
M  V30 1969 C 191.903 1.47057 -1.4554 0
M  V30 1970 C 192.318 1.8869 -0.0645779 0
M  V30 1971 O 191.675 1.57666 0.919115 0
M  V30 1972 C 191.726 2.72442 -2.37609 0
M  V30 1973 O 191.447 2.32559 -3.71279 0
M  V30 1974 C 192.948 3.66069 -2.50017 0
M  V30 1975 H 190.168 0.452737 -0.495248 0
M  V30 1976 H 192.712 0.838695 -1.8651 0
M  V30 1977 H 190.867 3.31835 -1.9991 0
M  V30 1978 H 191.281 3.13475 -4.20516 0
M  V30 1979 H 192.755 4.50792 -3.18576 0
M  V30 1980 H 193.232 4.11476 -1.53572 0
M  V30 1981 H 193.838 3.12572 -2.88407 0
M  V30 1982 N 192.153 1.28127 0.917671 0
M  V30 1983 C 193.083 1.14248 2.03641 0
M  V30 1984 C 194.064 0.0412748 1.7005 0
M  V30 1985 O 195.249 0.217566 1.92977 0
M  V30 1986 C 192.379 0.799431 3.37974 0
M  V30 1987 C 191.333 1.85497 3.85713 0
M  V30 1988 C 190.659 1.36565 5.16966 0
M  V30 1989 C 191.959 3.26085 4.08002 0
M  V30 1990 H 193.653 2.07835 2.15511 0
M  V30 1991 H 191.199 1.00064 1.03553 0
M  V30 1992 H 193.152 0.689114 4.15727 0
M  V30 1993 H 191.876 -0.172145 3.26146 0
M  V30 1994 H 190.535 1.95437 3.10161 0
M  V30 1995 H 190.183 0.383253 5.01538 0
M  V30 1996 H 189.883 2.07143 5.49878 0
M  V30 1997 H 191.407 1.26848 5.97279 0
M  V30 1998 H 192.821 3.19089 4.76293 0
M  V30 1999 H 191.218 3.94462 4.52238 0
M  V30 2000 H 192.288 3.70394 3.12948 0
M  V30 2001 N 193.631 -1.12557 1.10312 0
M  V30 2002 C 194.856 -1.88405 0.867085 0
M  V30 2003 C 195.281 -1.79038 -0.576817 0
M  V30 2004 O 194.639 -1.14439 -1.40618 0
M  V30 2005 C 194.687 -3.3563 1.31851 0
M  V30 2006 O 193.791 -4.09565 0.482734 0
M  V30 2007 H 193.132 -0.585455 0.313271 0
M  V30 2008 H 195.662 -1.42352 1.4696 0
M  V30 2009 H 195.672 -3.86469 1.3079 0
M  V30 2010 H 194.347 -3.41765 2.37001 0
M  V30 2011 H 192.924 -3.68695 0.558448 0
M  V30 2012 N 195.109 -0.891671 -1.2995 0
M  V30 2013 C 196.525 -0.58662 -1.48428 0
M  V30 2014 C 196.725 0.873951 -1.81561 0
M  V30 2015 O 195.781 1.65471 -1.90724 0
M  V30 2016 C 197.094 -1.50553 -2.60296 0
M  V30 2017 C 198.642 -1.50988 -2.74175 0
M  V30 2018 C 199.117 -2.41488 -3.89163 0
M  V30 2019 N 200.608 -2.39489 -3.96483 0
M  V30 2020 C 201.343 -3.06223 -4.84784 0
M  V30 2021 N 200.839 -3.82206 -5.77833 0
M  V30 2022 N 202.632 -2.95421 -4.78208 0
M  V30 2023 H 194.783 -1.83644 -1.06718 0
M  V30 2024 H 197.046 -0.786455 -0.529332 0
M  V30 2025 H 196.752 -2.54581 -2.42654 0
M  V30 2026 H 196.626 -1.22008 -3.56923 0
M  V30 2027 H 199.013 -0.47708 -2.91218 0
M  V30 2028 H 199.094 -1.83567 -1.78148 0
M  V30 2029 H 198.738 -3.44857 -3.72876 0
M  V30 2030 H 198.668 -2.06222 -4.84541 0
M  V30 2031 H 201.159 -1.84278 -3.29924 0
M  V30 2032 H 201.472 -4.302 -6.41988 0
M  V30 2033 H 199.817 -3.86313 -5.77743 0
M  V30 2034 H 203.008 -2.35581 -4.04499 0
M  V30 2035 H 203.181 -3.47704 -5.46814 0
M  V30 2036 N 196.587 1.43421 -0.653314 0
M  V30 2037 C 197.519 2.29071 0.0769134 0
M  V30 2038 C 198.532 1.42513 0.787017 0
M  V30 2039 O 199.721 1.66449 0.644757 0
M  V30 2040 C 196.821 3.19436 1.13199 0
M  V30 2041 C 195.994 4.34533 0.500006 0
M  V30 2042 C 195.053 5.05771 1.45198 0
M  V30 2043 O 194.079 5.61037 0.960538 0
M  V30 2044 N 195.281 5.0928 2.78594 0
M  V30 2045 H 198.046 2.92382 -0.658235 0
M  V30 2046 H 195.607 1.54112 -0.496104 0
M  V30 2047 H 197.599 3.63958 1.76964 0
M  V30 2048 H 196.169 2.57724 1.7691 0
M  V30 2049 H 195.389 3.92925 -0.316738 0
M  V30 2050 H 196.677 5.08766 0.0588345 0
M  V30 2051 H 196.075 4.65751 3.2108 0
M  V30 2052 H 194.632 5.57519 3.37662 0
M  V30 2053 N 198.065 0.39524 1.52563 0
M  V30 2054 C 199.476 -0.0774719 1.86539 0
M  V30 2055 C 199.827 -1.45641 1.31466 0
M  V30 2056 O 198.952 -2.06459 0.648367 0
M  V30 2057 C 199.547 -0.147356 3.38479 0
M  V30 2058 C 198.106 -0.564373 3.72145 0
M  V30 2059 C 197.253 0.269919 2.75983 0
M  V30 2060 H 200.204 0.612876 1.46388 0
M  V30 2061 H 200.225 -0.965343 3.68051 0
M  V30 2062 H 199.737 0.856387 3.78534 0
M  V30 2063 H 197.838 -1.57527 3.37663 0
M  V30 2064 H 197.951 -0.318402 4.78041 0
M  V30 2065 H 196.315 -0.265696 2.5331 0
M  V30 2066 H 197.098 1.27175 3.18875 0
M  V30 2067 N 199.544 -1.57102 0.125237 0
M  V30 2068 C 200.792 -1.95021 -0.530198 0
M  V30 2069 C 201.113 -1.00982 -1.66816 0
M  V30 2070 O 200.383 -0.0672693 -1.95784 0
M  V30 2071 H 198.963 -0.720046 -0.198853 0
M  V30 2072 H 201.625 -1.93916 0.19564 0
M  V30 2073 H 200.721 -2.98211 -0.920681 0
M  V30 2074 N 201.022 0.148545 -1.56898 0
M  V30 2075 C 201.932 1.20293 -2.01412 0
M  V30 2076 C 202.948 1.47107 -0.929273 0
M  V30 2077 O 204.124 1.58807 -1.23863 0
M  V30 2078 C 201.189 2.51682 -2.38447 0
M  V30 2079 C 200.25 2.32529 -3.60872 0
M  V30 2080 C 199.483 3.57653 -3.96132 0
M  V30 2081 O 199.706 4.63771 -3.32073 0
M  V30 2082 O 198.64 3.50408 -4.89385 0
M  V30 2083 H 202.466 0.855025 -2.91416 0
M  V30 2084 H 200.051 0.357151 -1.45068 0
M  V30 2085 H 201.933 3.29147 -2.63135 0
M  V30 2086 H 200.608 2.86006 -1.51599 0
M  V30 2087 H 199.515 1.53019 -3.41373 0
M  V30 2088 H 200.848 2.03121 -4.48333 0
M  V30 2089 N 202.5 1.5196 0.417844 0
M  V30 2090 C 203.448 1.75278 1.52907 0
M  V30 2091 C 204.442 0.619611 1.57662 0
M  V30 2092 O 205.648 0.801457 1.61173 0
M  V30 2093 H 202.023 0.554141 0.508362 0
M  V30 2094 H 203.994 2.68389 1.30422 0
M  V30 2095 C 202.743 1.91262 2.90369 0
M  V30 2096 H 202.066 2.77872 2.8745 0
M  V30 2097 H 203.506 2.11581 3.67436 0
M  V30 2098 C 201.965 0.677431 3.30019 0
M  V30 2099 O 202.495 -0.158799 4.01386 0
M  V30 2100 N 200.701 0.515851 2.85985 0
M  V30 2101 H 200.248 1.19744 2.28077 0
M  V30 2102 H 200.206 -0.309315 3.12875 0
M  V30 2103 N 203.978 -0.674533 1.42435 0
M  V30 2104 C 205.226 -1.43175 1.42637 0
M  V30 2105 C 205.547 -1.94951 0.0438992 0
M  V30 2106 O 204.817 -1.7308 -0.917607 0
M  V30 2107 H 203.397 -0.531307 0.525092 0
M  V30 2108 H 206.059 -0.797006 1.77859 0
M  V30 2109 H 205.155 -2.28463 2.12629 0
M  V30 2110 N 205.456 -1.28612 -0.910864 0
M  V30 2111 C 206.681 -1.1891 -1.69927 0
M  V30 2112 C 207.106 0.248372 -1.86453 0
M  V30 2113 O 206.464 1.17961 -1.37676 0
M  V30 2114 C 206.512 -1.89578 -3.06745 0
M  V30 2115 O 205.616 -1.20521 -3.94396 0
M  V30 2116 H 204.957 -0.412632 -0.520222 0
M  V30 2117 H 207.487 -1.69985 -1.1387 0
M  V30 2118 H 207.497 -1.97597 -3.56958 0
M  V30 2119 H 206.172 -2.94136 -2.94035 0
M  V30 2120 H 204.749 -1.20684 -3.52831 0
M  V30 2121 N 206.934 1.1197 -1.10907 0
M  V30 2122 C 208.183 1.82947 -0.849302 0
M  V30 2123 C 208.496 1.85275 0.627112 0
M  V30 2124 O 209.702 2.52296 1.00295 0
M  V30 2125 C 208.158 3.28529 -1.46959 0
M  V30 2126 C 207.766 3.34546 -2.97965 0
M  V30 2127 C 209.51 4.04443 -1.28942 0
M  V30 2128 C 207.417 4.74491 -3.53004 0
M  V30 2129 H 206.347 0.685477 -0.314065 0
M  V30 2130 H 208.998 1.2604 -1.33365 0
M  V30 2131 H 207.38 3.85333 -0.912917 0
M  V30 2132 H 208.554 2.87654 -3.59989 0
M  V30 2133 H 206.869 2.72108 -3.15192 0
M  V30 2134 H 209.466 5.07787 -1.67502 0
M  V30 2135 H 209.809 4.15656 -0.231456 0
M  V30 2136 H 210.342 3.5401 -1.81443 0
M  V30 2137 H 207.081 4.68474 -4.58489 0
M  V30 2138 H 206.601 5.21816 -2.9575 0
M  V30 2139 H 208.28 5.4344 -3.51115 0
M  V30 2140 N 208.412 0.89855 1.29475 0
M  V30 2141 C 209.658 0.524658 1.95896 0
M  V30 2142 C 209.991 -0.926468 1.70676 0
M  V30 2143 O 209.266 -1.65665 1.01908 0
M  V30 2144 C 209.549 0.81633 3.50725 0
M  V30 2145 C 209.402 2.31907 3.85408 0
M  V30 2146 C 210.721 0.302038 4.39062 0
M  V30 2147 H 207.84 0.19209 0.711527 0
M  V30 2148 H 210.482 1.12502 1.53112 0
M  V30 2149 H 208.632 0.305369 3.87298 0
M  V30 2150 H 210.304 2.89949 3.58786 0
M  V30 2151 H 208.547 2.78027 3.32992 0
M  V30 2152 H 209.218 2.47373 4.93468 0
M  V30 2153 H 211.694 0.739551 4.09475 0
M  V30 2154 H 210.57 0.535331 5.46283 0
M  V30 2155 H 210.831 -0.797216 4.34853 0
M  V30 2156 N 209.89 -1.43072 0.660911 0
M  V30 2157 C 211.118 -2.06067 0.185422 0
M  V30 2158 C 211.533 -1.49582 -1.15198 0
M  V30 2159 O 210.89 -0.630134 -1.71276 0
M  V30 2160 C 210.941 -3.61371 0.0966523 0
M  V30 2161 O 210.662 -4.15758 1.38119 0
M  V30 2162 C 212.163 -4.41455 -0.403996 0
M  V30 2163 H 209.383 -0.664459 0.0934604 0
M  V30 2164 H 211.927 -1.83447 0.90373 0
M  V30 2165 H 210.082 -3.8315 -0.572259 0
M  V30 2166 H 210.496 -5.09499 1.24542 0
M  V30 2167 H 211.97 -5.50437 -0.415045 0
M  V30 2168 H 212.447 -4.15036 -1.43674 0
M  V30 2169 H 213.053 -4.24663 0.232691 0
M  V30 2170 N 211.368 -0.403325 -1.52352 0
M  V30 2171 C 212.608 0.173946 -2.03659 0
M  V30 2172 C 212.972 1.42869 -1.28267 0
M  V30 2173 O 214.173 2.08403 -1.69769 0
M  V30 2174 C 212.444 0.421478 -3.54906 0
M  V30 2175 S 214.003 0.967027 -4.28012 0
M  V30 2176 H 210.821 0.0477461 -0.709395 0
M  V30 2177 H 213.423 -0.554906 -1.87459 0
M  V30 2178 H 212.127 -0.498616 -4.0736 0
M  V30 2179 H 211.658 1.17837 -3.75337 0
M  V30 2180 H 213.673 2.24812 -4.4235 0
M  V30 2181 N 212.846 1.57033 -0.133567 0
M  V30 2182 C 214.094 1.953 0.519848 0
M  V30 2183 C 214.415 1.01866 1.66278 0
M  V30 2184 O 213.685 0.0776513 1.95746 0
M  V30 2185 H 212.265 0.721091 0.195032 0
M  V30 2186 H 214.927 1.93809 -0.205921 0
M  V30 2187 H 214.023 2.98695 0.904854 0
M  V30 2188 N 214.325 -0.140222 1.56975 0
M  V30 2189 C 215.275 -1.17827 1.95194 0
M  V30 2190 C 216.259 -1.38195 0.824075 0
M  V30 2191 O 217.451 -1.39643 1.0876 0
M  V30 2192 C 214.58 -2.51024 2.34184 0
M  V30 2193 C 213.666 -2.3422 3.53556 0
M  V30 2194 N 214.057 -1.87185 4.69889 0
M  V30 2195 C 212.355 -2.64949 3.58773 0
M  V30 2196 C 213.056 -1.83586 5.5197 0
M  V30 2197 N 212.032 -2.2715 4.93866 0
M  V30 2198 H 215.834 -0.806817 2.82609 0
M  V30 2199 H 213.348 -0.348208 1.58623 0
M  V30 2200 H 215.345 -3.26074 2.59772 0
M  V30 2201 H 214.005 -2.88945 1.48124 0
M  V30 2202 H 215.016 -1.57048 4.93514 0
M  V30 2203 H 211.693 -3.067 2.8327 0
M  V30 2204 H 213.083 -1.48655 6.55249 0
M  V30 2205 N 215.803 -1.52179 -0.40978 0
M  V30 2206 C 217.219 -1.40968 -0.74835 0
M  V30 2207 C 217.419 -0.513657 -1.94843 0
M  V30 2208 O 216.475 0.0208026 -2.52491 0
M  V30 2209 C 217.788 -2.83483 -1.0029 0
M  V30 2210 C 219.336 -2.92821 -1.10565 0
M  V30 2211 C 219.811 -4.36303 -1.39296 0
M  V30 2212 N 221.302 -4.39535 -1.46162 0
M  V30 2213 C 222.037 -5.47614 -1.70018 0
M  V30 2214 N 221.533 -6.65812 -1.91483 0
M  V30 2215 N 223.326 -5.35129 -1.72027 0
M  V30 2216 H 215.477 -2.0897 0.380186 0
M  V30 2217 H 217.74 -0.94185 0.107805 0
M  V30 2218 H 217.446 -3.51168 -0.193461 0
M  V30 2219 H 217.32 -3.24487 -1.92323 0
M  V30 2220 H 219.707 -2.25318 -1.90568 0
M  V30 2221 H 219.788 -2.55276 -0.16369 0
M  V30 2222 H 219.432 -5.04366 -0.598109 0
M  V30 2223 H 219.362 -4.71385 -2.34743 0
M  V30 2224 H 221.853 -3.54332 -1.31367 0
M  V30 2225 H 222.166 -7.43964 -2.09134 0
M  V30 2226 H 220.511 -6.68879 -1.88749 0
M  V30 2227 H 223.702 -4.41764 -1.54796 0
M  V30 2228 H 223.875 -6.19433 -1.9028 0
M  V30 2229 N 217.281 0.66697 -1.42791 0
M  V30 2230 C 218.527 1.42754 -1.44889 0
M  V30 2231 C 218.882 1.92283 -0.0669755 0
M  V30 2232 O 218.175 1.68494 0.912154 0
M  V30 2233 C 218.369 2.6349 -2.4147 0
M  V30 2234 C 218.198 2.25776 -3.88915 0
M  V30 2235 C 216.968 2.1476 -4.57391 0
M  V30 2236 C 219.166 1.86927 -4.79127 0
M  V30 2237 N 217.148 1.70232 -5.89826 0
M  V30 2238 C 218.519 1.53378 -6.00729 0
M  V30 2239 C 220.574 1.73989 -4.66511 0
M  V30 2240 C 219.277 1.08187 -7.11117 0
M  V30 2241 C 221.303 1.30203 -5.76889 0
M  V30 2242 C 220.665 0.975818 -6.97608 0
M  V30 2243 H 216.764 0.518559 -0.585338 0
M  V30 2244 H 219.348 0.768906 -1.78874 0
M  V30 2245 H 217.519 3.27033 -2.09533 0
M  V30 2246 H 219.251 3.30123 -2.34096 0
M  V30 2247 H 216.006 2.3408 -4.11708 0
M  V30 2248 H 216.43 1.50369 -6.6009 0
M  V30 2249 H 221.072 1.97853 -3.7365 0
M  V30 2250 H 218.79 0.830701 -8.03819 0
M  V30 2251 H 222.376 1.20701 -5.69142 0
M  V30 2252 H 221.256 0.642157 -7.81566 0
M  V30 2253 N 218.759 1.29093 0.90403 0
M  V30 2254 C 219.706 1.13853 2.00764 0
M  V30 2255 C 220.676 0.0330084 1.66067 0
M  V30 2256 O 221.861 0.199733 1.89752 0
M  V30 2257 C 219.001 0.816537 3.35301 0
M  V30 2258 C 218.114 2.00206 3.82807 0
M  V30 2259 C 217.249 1.61983 5.059 0
M  V30 2260 C 216.288 2.77143 5.45764 0
M  V30 2261 N 215.425 2.39346 6.60044 0
M  V30 2262 H 220.265 2.08276 2.13132 0
M  V30 2263 H 217.802 1.03648 1.04381 0
M  V30 2264 H 219.76 0.610557 4.12708 0
M  V30 2265 H 218.39 -0.090779 3.22672 0
M  V30 2266 H 217.442 2.31988 3.01473 0
M  V30 2267 H 218.754 2.86512 4.08304 0
M  V30 2268 H 217.908 1.37649 5.90879 0
M  V30 2269 H 216.647 0.728202 4.82233 0
M  V30 2270 H 215.652 3.02165 4.59322 0
M  V30 2271 H 216.877 3.66964 5.71414 0
M  V30 2272 H 214.823 1.52665 6.37989 0
M  V30 2273 H 214.74 3.19185 6.85315 0
M  V30 2274 H 216.008 2.1832 7.48303 0
M  V30 2275 N 220.237 -1.11381 1.11499 0
M  V30 2276 C 221.185 -2.19522 0.768956 0
M  V30 2277 C 222.179 -1.67693 -0.239857 0
M  V30 2278 O 223.385 -1.79727 -0.0990755 0
M  V30 2279 H 219.76 -0.715711 0.230786 0
M  V30 2280 H 221.731 -2.45954 1.68964 0
M  V30 2281 C 220.48 -3.46945 0.229073 0
M  V30 2282 H 219.803 -3.8718 0.996596 0
M  V30 2283 H 221.243 -4.23993 0.0251441 0
M  V30 2284 C 219.702 -3.2042 -1.04079 0
M  V30 2285 O 220.232 -3.41178 -2.12038 0
M  V30 2286 N 218.438 -2.74151 -0.963823 0
M  V30 2287 H 217.985 -2.57459 -0.0851722 0
M  V30 2288 H 217.943 -2.56781 -1.81414 0
M  V30 2289 N 221.715 -0.905404 -1.28997 0
M  V30 2290 C 222.964 -0.530191 -1.94607 0
M  V30 2291 C 223.277 0.929185 -1.72121 0
M  V30 2292 O 224.483 1.41218 -2.31883 0
M  V30 2293 C 222.939 -0.897333 -3.48534 0
M  V30 2294 C 222.547 -2.37587 -3.79811 0
M  V30 2295 C 224.291 -0.592304 -4.20347 0
M  V30 2296 C 222.198 -2.68357 -5.27009 0
M  V30 2297 H 221.128 -0.194558 -0.728466 0
M  V30 2298 H 223.779 -1.10318 -1.46636 0
M  V30 2299 H 222.161 -0.253214 -3.9519 0
M  V30 2300 H 223.335 -3.06602 -3.43994 0
M  V30 2301 H 221.65 -2.6505 -3.2115 0
M  V30 2302 H 224.247 -0.798975 -5.28697 0
M  V30 2303 H 224.59 0.469474 -4.13644 0
M  V30 2304 H 225.123 -1.19452 -3.79442 0
M  V30 2305 H 221.862 -3.73355 -5.38782 0
M  V30 2306 H 221.382 -2.03971 -5.64053 0
M  V30 2307 H 223.061 -2.54922 -5.94663 0
M  V30 2308 N 223.193 1.4272 -0.668489 0
M  V30 2309 C 224.44 2.01624 -0.18814 0
M  V30 2310 C 224.768 1.5282 1.20317 0
M  V30 2311 O 224.023 0.718323 1.8204 0
M  V30 2312 C 224.322 3.57021 -0.164499 0
M  V30 2313 C 223.988 4.25232 -1.49962 0
M  V30 2314 C 222.65 4.4358 -1.8652 0
M  V30 2315 C 225.002 4.63727 -2.37921 0
M  V30 2316 C 222.33 4.97694 -3.10674 0
M  V30 2317 C 224.682 5.19218 -3.6138 0
M  V30 2318 C 223.346 5.3578 -3.98115 0
M  V30 2319 H 222.616 0.737795 -0.0688454 0
M  V30 2320 H 225.263 1.70991 -0.862225 0
M  V30 2321 H 223.568 3.87285 0.593079 0
M  V30 2322 H 225.265 4.00372 0.224271 0
M  V30 2323 H 221.855 4.11306 -1.20522 0
M  V30 2324 H 226.039 4.4923 -2.10964 0
M  V30 2325 H 221.295 5.08702 -3.39164 0
M  V30 2326 H 225.469 5.4799 -4.29743 0
M  V30 2327 H 223.096 5.77475 -4.94395 0
M  V30 2328 N 224.671 0.411399 1.52136 0
M  V30 2329 C 225.901 -0.16284 2.05957 0
M  V30 2330 C 226.309 -1.3922 1.28119 0
M  V30 2331 O 225.652 -1.80768 0.326881 0
M  V30 2332 C 225.714 -0.575946 3.54856 0
M  V30 2333 C 225.378 0.542998 4.53763 0
M  V30 2334 C 226.375 1.40726 5.00492 0
M  V30 2335 C 224.06 0.716337 4.97166 0
M  V30 2336 C 226.054 2.4298 5.8927 0
M  V30 2337 C 223.741 1.74218 5.8574 0
M  V30 2338 C 224.739 2.59731 6.31687 0
M  V30 2339 O 224.427 3.60558 7.18507 0
M  V30 2340 H 224.159 -0.0229125 0.675612 0
M  V30 2341 H 226.713 0.581634 1.96993 0
M  V30 2342 H 224.943 -1.37274 3.61515 0
M  V30 2343 H 226.632 -1.07836 3.91313 0
M  V30 2344 H 227.398 1.28476 4.67674 0
M  V30 2345 H 223.277 0.0603857 4.6096 0
M  V30 2346 H 226.821 3.0976 6.25055 0
M  V30 2347 H 222.718 1.86498 6.17971 0
M  V30 2348 H 223.486 3.56829 7.36624 0
M  V30 2349 N 226.149 -1.5696 0.141893 0
M  V30 2350 C 227.398 -1.95135 -0.510427 0
M  V30 2351 C 227.711 -1.02896 -1.66348 0
M  V30 2352 O 228.917 -1.30629 -2.38009 0
M  V30 2353 C 227.373 -3.46876 -0.959427 0
M  V30 2354 C 226.981 -4.47691 0.166419 0
M  V30 2355 C 228.725 -3.93927 -1.58183 0
M  V30 2356 C 226.632 -5.90636 -0.300565 0
M  V30 2357 H 225.562 -0.728494 -0.194454 0
M  V30 2358 H 228.213 -1.8211 0.22542 0
M  V30 2359 H 226.595 -3.55215 -1.75038 0
M  V30 2360 H 227.769 -4.51043 0.94325 0
M  V30 2361 H 226.084 -4.10527 0.696905 0
M  V30 2362 H 228.681 -4.98158 -1.94275 0
M  V30 2363 H 229.024 -3.3519 -2.46888 0
M  V30 2364 H 229.557 -3.88484 -0.855863 0
M  V30 2365 H 226.296 -6.5318 0.550989 0
M  V30 2366 H 225.816 -5.90655 -1.04338 0
M  V30 2367 H 227.495 -6.42588 -0.754265 0
M  V30 2368 N 227.627 0.131896 -1.57047 0
M  V30 2369 C 228.574 1.16236 -1.99393 0
M  V30 2370 C 229.544 1.41863 -0.863943 0
M  V30 2371 O 230.729 1.53946 -1.12718 0
M  V30 2372 C 227.869 2.48708 -2.39245 0
M  V30 2373 C 226.982 2.30127 -3.65603 0
M  V30 2374 C 226.117 3.55738 -3.94492 0
M  V30 2375 C 225.156 3.32259 -5.14073 0
M  V30 2376 N 224.293 4.50039 -5.38896 0
M  V30 2377 H 229.133 0.794251 -2.87221 0
M  V30 2378 H 226.67 0.380707 -1.42088 0
M  V30 2379 H 228.628 3.25969 -2.60384 0
M  V30 2380 H 227.258 2.83437 -1.54478 0
M  V30 2381 H 226.31 1.43845 -3.52154 0
M  V30 2382 H 227.622 2.08746 -4.5302 0
M  V30 2383 H 226.776 4.41423 -4.1621 0
M  V30 2384 H 225.515 3.80138 -3.05526 0
M  V30 2385 H 224.52 2.44963 -4.92212 0
M  V30 2386 H 225.745 3.09242 -6.04604 0
M  V30 2387 H 223.691 4.74584 -4.52886 0
M  V30 2388 H 223.608 4.31716 -6.2061 0
M  V30 2389 H 224.876 5.36895 -5.65123 0
M  V30 2390 N 229.106 1.52395 0.401703 0
M  V30 2391 C 230.054 1.7689 1.51039 0
M  V30 2392 C 231.048 0.636298 1.56996 0
M  V30 2393 O 232.254 0.818507 1.60314 0
M  V30 2394 H 228.629 0.559502 0.502456 0
M  V30 2395 H 230.6 2.69757 1.27568 0
M  V30 2396 C 229.349 1.94331 2.88324 0
M  V30 2397 H 228.672 2.80905 2.84486 0
M  V30 2398 H 230.112 2.15466 3.65172 0
M  V30 2399 C 228.571 0.712396 3.29282 0
M  V30 2400 O 229.101 -0.116218 4.01532 0
M  V30 2401 N 227.307 0.546154 2.85422 0
M  V30 2402 H 226.854 1.22156 2.26794 0
M  V30 2403 H 226.812 -0.276113 3.13185 0
M  V30 2404 N 230.584 -0.659388 1.43143 0
M  V30 2405 C 231.494 -1.80167 1.50256 0
M  V30 2406 C 232.51 -1.69571 0.390106 0
M  V30 2407 O 233.686 -1.90849 0.643319 0
M  V30 2408 C 230.751 -3.16409 1.41725 0
M  V30 2409 C 229.812 -3.38848 2.63591 0
M  V30 2410 C 229.045 -4.68591 2.55458 0
M  V30 2411 O 229.268 -5.47532 1.59891 0
M  V30 2412 O 228.202 -4.92614 3.45854 0
M  V30 2413 H 232.028 -1.77121 2.46702 0
M  V30 2414 H 229.613 -0.817092 1.25076 0
M  V30 2415 H 231.495 -3.9768 1.39387 0
M  V30 2416 H 230.17 -3.20059 0.484118 0
M  V30 2417 H 229.077 -2.57366 2.71502 0
M  V30 2418 H 230.41 -3.4004 3.55856 0
M  V30 2419 N 232.062 -1.29571 -0.897171 0
M  V30 2420 C 233.01 -1.14802 -2.02295 0
M  V30 2421 C 234.004 -0.0629637 -1.69283 0
M  V30 2422 O 235.21 -0.222945 -1.78614 0
M  V30 2423 H 231.585 -0.354692 -0.663097 0
M  V30 2424 H 233.556 -2.10108 -2.11889 0
M  V30 2425 C 232.305 -0.843966 -3.37302 0
M  V30 2426 H 231.628 -1.67093 -3.63208 0
M  V30 2427 H 233.068 -0.780672 -4.16751 0
M  V30 2428 C 231.527 0.452843 -3.33843 0
M  V30 2429 O 232.057 1.47813 -3.73516 0
M  V30 2430 N 230.263 0.459601 -2.86943 0
M  V30 2431 H 229.81 -0.375213 -2.54853 0
M  V30 2432 H 229.768 1.32726 -2.85011 0
M  V30 2433 N 233.54 1.10788 -1.12088 0
M  V30 2434 C 234.487 2.17025 -0.785407 0
M  V30 2435 C 235.457 1.64265 0.246191 0
M  V30 2436 O 236.642 1.90412 0.121584 0
M  V30 2437 C 233.782 3.44249 -0.242177 0
M  V30 2438 C 232.895 4.1098 -1.33115 0
M  V30 2439 C 232.03 5.25911 -0.747741 0
M  V30 2440 C 231.069 5.84538 -1.81609 0
M  V30 2441 N 230.206 6.90853 -1.25167 0
M  V30 2442 H 235.046 2.45066 -1.69548 0
M  V30 2443 H 232.583 1.20297 -0.846582 0
M  V30 2444 H 234.541 4.17101 0.0908026 0
M  V30 2445 H 233.171 3.16571 0.631072 0
M  V30 2446 H 232.223 3.36133 -1.78097 0
M  V30 2447 H 233.535 4.50601 -2.13917 0
M  V30 2448 H 232.689 6.056 -0.365216 0
M  V30 2449 H 231.428 4.87614 0.0915188 0
M  V30 2450 H 230.433 5.03522 -2.20785 0
M  V30 2451 H 231.658 6.249 -2.6585 0
M  V30 2452 H 229.604 6.54562 -0.434174 0
M  V30 2453 H 229.521 7.29166 -1.99633 0
M  V30 2454 H 230.789 7.7433 -0.896259 0
M  V30 2455 N 235.018 0.912232 1.28515 0
M  V30 2456 C 235.948 0.416403 2.29757 0
M  V30 2457 C 236.929 -0.515194 1.6211 0
M  V30 2458 O 238.114 -0.423253 1.89532 0
M  V30 2459 C 235.244 -0.34572 3.45575 0
M  V30 2460 C 234.198 0.496599 4.25109 0
M  V30 2461 C 233.524 -0.393771 5.33248 0
M  V30 2462 C 234.824 1.75307 4.92001 0
M  V30 2463 H 236.518 1.26249 2.7148 0
M  V30 2464 H 234.064 0.608515 1.30511 0
M  V30 2465 H 236.017 -0.703422 4.15488 0
M  V30 2466 H 234.741 -1.2257 3.02728 0
M  V30 2467 H 233.4 0.8368 3.56922 0
M  V30 2468 H 233.048 -1.27225 4.86644 0
M  V30 2469 H 232.748 0.166209 5.87365 0
M  V30 2470 H 234.272 -0.747389 6.06009 0
M  V30 2471 H 235.686 1.46437 5.54283 0
M  V30 2472 H 234.083 2.25534 5.56106 0
M  V30 2473 H 235.153 2.48176 4.16577 0
M  V30 2474 N 236.496 -1.42363 0.676048 0
M  V30 2475 C 237.907 -1.84649 0.275948 0
M  V30 2476 C 238.258 -1.56588 -1.18214 0
M  V30 2477 O 237.383 -1.02634 -1.90513 0
M  V30 2478 C 237.978 -3.35178 0.494053 0
M  V30 2479 C 236.537 -3.76109 0.148061 0
M  V30 2480 C 235.684 -2.65931 0.785891 0
M  V30 2481 H 238.635 -1.32192 0.878121 0
M  V30 2482 H 238.656 -3.79655 -0.25343 0
M  V30 2483 H 238.168 -3.55571 1.55535 0
M  V30 2484 H 236.269 -3.61323 -0.909742 0
M  V30 2485 H 236.382 -4.7546 0.589454 0
M  V30 2486 H 234.746 -2.53773 0.217113 0
M  V30 2487 H 235.529 -2.89146 1.85067 0
M  V30 2488 N 237.974 -0.419461 -1.51915 0
M  V30 2489 C 239.202 0.152136 -2.0634 0
M  V30 2490 C 239.617 1.37988 -1.28859 0
M  V30 2491 O 238.974 1.79243 -0.343232 0
M  V30 2492 C 239.025 0.492266 -3.58133 0
M  V30 2493 O 238.746 -0.686736 -4.32684 0
M  V30 2494 C 240.247 1.11648 -4.2901 0
M  V30 2495 H 237.467 0.0158325 -0.670813 0
M  V30 2496 H 240.011 -0.593394 -1.95702 0
M  V30 2497 H 238.166 1.18769 -3.68745 0
M  V30 2498 H 238.58 -0.400341 -5.2297 0
M  V30 2499 H 240.054 1.3046 -5.36362 0
M  V30 2500 H 240.531 2.09251 -3.86148 0
M  V30 2501 H 241.137 0.460958 -4.22795 0
M  V30 2502 N 239.452 1.56882 -0.150215 0
M  V30 2503 C 240.7 1.9584 0.499105 0
M  V30 2504 C 241.021 1.03623 1.65188 0
M  V30 2505 O 240.291 0.0984084 1.95653 0
M  V30 2506 H 238.871 0.723119 0.187373 0
M  V30 2507 H 241.533 1.9358 -0.226466 0
M  V30 2508 H 240.629 2.99638 0.873122 0
M  V30 2509 N 240.93 -0.123565 1.57115 0
M  V30 2510 C 242.178 -0.83051 1.84247 0
M  V30 2511 C 242.499 -1.80629 0.73471 0
M  V30 2512 O 241.769 -1.94403 -0.241688 0
M  V30 2513 H 240.349 -0.309694 0.679778 0
M  V30 2514 H 243.011 -0.111976 1.94578 0
M  V30 2515 H 242.107 -1.37852 2.80006 0
M  V30 2516 N 242.408 -1.52605 -0.393616 0
M  V30 2517 C 243.648 -1.6911 -1.1481 0
M  V30 2518 C 244.012 -0.41969 -1.87357 0
M  V30 2519 O 245.213 -0.461034 -2.64817 0
M  V30 2520 C 243.484 -2.88909 -2.10395 0
M  V30 2521 S 245.043 -3.25977 -2.93742 0
M  V30 2522 H 241.861 -0.595337 -0.38871 0
M  V30 2523 H 244.463 -1.90641 -0.433178 0
M  V30 2524 H 243.167 -3.79672 -1.55812 0
M  V30 2525 H 242.698 -2.69698 -2.86403 0
M  V30 2526 H 244.713 -2.75806 -4.12487 0
M  V30 2527 N 243.887 0.651787 -1.4349 0
M  V30 2528 C 245.117 1.43728 -1.48411 0
M  V30 2529 C 245.525 1.8893 -0.10103 0
M  V30 2530 O 244.868 1.60182 0.899307 0
M  V30 2531 C 244.93 2.70411 -2.36893 0
M  V30 2532 C 244.594 2.4714 -3.8441 0
M  V30 2533 C 245.591 2.10271 -4.75481 0
M  V30 2534 C 243.276 2.6142 -4.28912 0
M  V30 2535 C 245.27 1.87982 -6.0905 0
M  V30 2536 C 242.957 2.38746 -5.62533 0
M  V30 2537 C 243.955 2.02083 -6.5242 0
M  V30 2538 O 243.643 1.79647 -7.8357 0
M  V30 2539 H 243.375 0.447962 -0.506267 0
M  V30 2540 H 245.929 0.80624 -1.88915 0
M  V30 2541 H 244.159 3.36079 -1.91278 0
M  V30 2542 H 245.848 3.32364 -2.33 0
M  V30 2543 H 246.614 1.98814 -4.42378 0
M  V30 2544 H 242.493 2.88931 -3.59222 0
M  V30 2545 H 246.037 1.5929 -6.7917 0
M  V30 2546 H 241.934 2.49806 -5.95203 0
M  V30 2547 H 242.702 1.9406 -7.95162 0
M  V30 2548 N 245.365 1.30045 0.890287 0
M  V30 2549 C 246.613 1.18327 1.63839 0
M  V30 2550 C 246.934 -0.263455 1.93212 0
M  V30 2551 O 246.204 -1.17856 1.56482 0
M  V30 2552 H 244.784 0.434933 0.607324 0
M  V30 2553 H 247.446 1.631 1.06698 0
M  V30 2554 H 246.542 1.74024 2.59079 0
M  V30 2555 N 246.843 -1.10192 1.12674 0
M  V30 2556 C 248.089 -1.82475 0.884915 0
M  V30 2557 C 248.422 -1.85093 -0.58773 0
M  V30 2558 O 247.697 -1.3134 -1.43457 0
M  V30 2559 C 247.98 -3.29018 1.46353 0
M  V30 2560 C 247.833 -3.34718 3.00473 0
M  V30 2561 C 249.152 -4.25473 1.12519 0
M  V30 2562 H 246.271 -0.662492 0.322915 0
M  V30 2563 H 248.913 -1.2913 1.39375 0
M  V30 2564 H 247.063 -3.74576 1.03077 0
M  V30 2565 H 248.735 -2.97622 3.52447 0
M  V30 2566 H 246.978 -2.74541 3.35872 0
M  V30 2567 H 247.649 -4.37918 3.36053 0
M  V30 2568 H 250.125 -3.88161 1.499 0
M  V30 2569 H 249.001 -5.26365 1.55663 0
M  V30 2570 H 249.262 -4.42084 0.0377407 0
M  V30 2571 N 248.321 -0.919034 -1.28029 0
M  V30 2572 C 249.732 -0.600735 -1.76771 0
M  V30 2573 C 250.083 0.884024 -1.75156 0
M  V30 2574 O 249.208 1.69163 -1.34956 0
M  V30 2575 C 249.803 -1.08372 -3.21 0
M  V30 2576 C 248.362 -0.816248 -3.67443 0
M  V30 2577 C 247.509 -1.24742 -2.47658 0
M  V30 2578 H 250.46 -1.09974 -1.14418 0
M  V30 2579 H 250.481 -0.427512 -3.78091 0
M  V30 2580 H 249.993 -2.16437 -3.22144 0
M  V30 2581 H 248.094 0.250968 -3.71754 0
M  V30 2582 H 248.207 -1.4277 -4.57333 0
M  V30 2583 H 246.571 -0.666083 -2.45836 0
M  V30 2584 H 247.354 -2.33653 -2.51518 0
M  V30 2585 N 249.799 1.42003 -0.683588 0
M  V30 2586 C 251.21 1.84501 -0.285736 0
M  V30 2587 C 251.561 1.57213 1.17382 0
M  V30 2588 O 250.686 1.03642 1.89966 0
M  V30 2589 C 251.281 3.34912 -0.511821 0
M  V30 2590 C 249.84 3.76025 -0.168005 0
M  V30 2591 C 248.987 2.6551 -0.799983 0
M  V30 2592 H 251.938 1.31724 -0.885119 0
M  V30 2593 H 251.959 3.79784 0.233292 0
M  V30 2594 H 251.471 3.54741 -1.57418 0
M  V30 2595 H 249.572 3.61801 0.890567 0
M  V30 2596 H 249.685 4.75141 -0.614661 0
M  V30 2597 H 248.049 2.53654 -0.230568 0
M  V30 2598 H 248.832 2.8816 -1.86597 0
M  V30 2599 N 251.277 0.427512 1.51691 0
M  V30 2600 C 252.554 -0.201684 1.94557 0
M  V30 2601 C 252.934 -1.60981 1.36559 0
M  V30 2602 O 252.282 -2.21814 0.548702 0
M  V30 2603 C 252.492 -0.189394 3.48486 0
M  V30 2604 C 253.84 -0.39978 4.22714 0
M  V30 2605 O 254.864 -0.267945 3.55191 0
M  V30 2606 O 253.723 -0.661249 5.42485 0
M  V30 2607 H 250.817 -0.135261 0.815864 0
M  V30 2608 H 253.363 0.484782 1.62628 0
M  V30 2609 H 252.135 0.795431 3.8313 0
M  V30 2610 H 251.758 -0.919187 3.86829 0
M  V30 2611 N 252.755 -1.56801 0.158532 0
M  V30 2612 C 253.685 -2.20347 -0.772609 0
M  V30 2613 C 254.666 -1.15518 -1.24859 0
M  V30 2614 O 255.851 -1.43902 -1.30406 0
M  V30 2615 C 252.981 -2.83417 -2.00729 0
M  V30 2616 C 251.935 -3.94174 -1.66765 0
M  V30 2617 C 251.261 -4.44233 -2.97592 0
M  V30 2618 C 252.561 -5.14392 -0.905447 0
M  V30 2619 H 254.255 -2.98413 -0.242959 0
M  V30 2620 H 251.801 -1.43537 -0.115419 0
M  V30 2621 H 253.754 -3.26543 -2.6636 0
M  V30 2622 H 252.478 -2.02701 -2.56086 0
M  V30 2623 H 251.137 -3.51684 -1.03508 0
M  V30 2624 H 250.785 -3.60325 -3.50963 0
M  V30 2625 H 250.485 -5.18945 -2.75626 0
M  V30 2626 H 252.009 -4.90037 -3.64274 0
M  V30 2627 H 253.423 -5.5429 -1.46408 0
M  V30 2628 H 251.82 -5.9494 -0.7853 0
M  V30 2629 H 252.89 -4.84795 0.100668 0
M  V30 2630 N 254.233 0.115231 -1.57178 0
M  V30 2631 C 255.649 0.468877 -1.52557 0
M  V30 2632 C 255.849 1.81649 -0.872125 0
M  V30 2633 O 254.905 2.48347 -0.45606 0
M  V30 2634 C 256.218 0.4499 -2.97315 0
M  V30 2635 C 257.766 0.533185 -3.08425 0
M  V30 2636 C 258.241 0.54456 -4.54751 0
M  V30 2637 N 259.732 0.605892 -4.5922 0
M  V30 2638 C 260.467 0.636203 -5.6986 0
M  V30 2639 N 259.963 0.623931 -6.89985 0
M  V30 2640 N 261.756 0.679496 -5.57978 0
M  V30 2641 H 253.907 -0.767712 -1.9804 0
M  V30 2642 H 256.17 -0.283609 -0.904583 0
M  V30 2643 H 255.876 -0.472721 -3.48509 0
M  V30 2644 H 255.75 1.27632 -3.5495 0
M  V30 2645 H 258.137 1.44623 -2.57232 0
M  V30 2646 H 258.218 -0.320995 -2.53778 0
M  V30 2647 H 257.862 -0.364452 -5.06591 0
M  V30 2648 H 257.792 1.41568 -5.07214 0
M  V30 2649 H 260.283 0.621386 -3.72756 0
M  V30 2650 H 260.596 0.649787 -7.70063 0
M  V30 2651 H 258.941 0.591296 -6.9248 0
M  V30 2652 H 262.132 0.686472 -4.63039 0
M  V30 2653 H 262.305 0.69965 -6.44212 0
M  V30 2654 N 255.711 1.52812 0.385517 0
M  V30 2655 C 256.939 1.71907 1.15133 0
M  V30 2656 C 257.354 0.439004 1.83625 0
M  V30 2657 O 256.711 -0.586765 1.7281 0
M  V30 2658 C 256.762 2.87099 2.19673 0
M  V30 2659 O 256.483 4.10151 1.53973 0
M  V30 2660 C 257.984 3.17902 3.08955 0
M  V30 2661 H 255.204 0.575479 0.345057 0
M  V30 2662 H 257.748 1.99476 0.45052 0
M  V30 2663 H 255.903 2.61982 2.85384 0
M  V30 2664 H 256.317 4.74514 2.23465 0
M  V30 2665 H 257.791 4.01959 3.7833 0
M  V30 2666 H 258.268 2.3243 3.72657 0
M  V30 2667 H 258.874 3.44871 2.48885 0
M  V30 2668 N 257.189 -0.644168 1.43834 0
M  V30 2669 C 258.099 -1.78563 1.52159 0
M  V30 2670 C 259.115 -1.69147 0.408069 0
M  V30 2671 O 260.291 -1.90156 0.663524 0
M  V30 2672 C 257.356 -3.14888 1.45073 0
M  V30 2673 C 256.417 -3.36034 2.6717 0
M  V30 2674 C 255.65 -4.65855 2.60413 0
M  V30 2675 O 255.873 -5.45805 1.65689 0
M  V30 2676 O 254.807 -4.88918 3.5106 0
M  V30 2677 H 258.633 -1.74494 2.48567 0
M  V30 2678 H 256.218 -0.80378 1.25935 0
M  V30 2679 H 258.1 -3.96179 1.43597 0
M  V30 2680 H 256.775 -3.19528 0.518037 0
M  V30 2681 H 255.682 -2.54472 2.74217 0
M  V30 2682 H 257.015 -3.36247 3.59442 0
M  V30 2683 N 258.668 -1.30515 -0.883378 0
M  V30 2684 C 259.598 -1.19607 -2.00541 0
M  V30 2685 C 260.579 -0.086346 -1.69881 0
M  V30 2686 O 261.764 -0.268654 -1.92333 0
M  V30 2687 C 258.894 -0.888758 -3.35736 0
M  V30 2688 C 257.848 -1.95659 -3.8066 0
M  V30 2689 C 257.174 -1.50224 -5.13164 0
M  V30 2690 C 258.474 -3.36788 -3.99213 0
M  V30 2691 H 260.168 -2.13476 -2.09925 0
M  V30 2692 H 257.714 -1.02775 -1.00863 0
M  V30 2693 H 259.667 -0.799094 -4.13754 0
M  V30 2694 H 258.391 0.0856125 -3.26488 0
M  V30 2695 H 257.05 -2.03591 -3.04871 0
M  V30 2696 H 256.698 -0.516092 -5.00345 0
M  V30 2697 H 256.398 -2.2165 -5.44192 0
M  V30 2698 H 257.922 -1.42639 -5.93706 0
M  V30 2699 H 259.336 -3.31605 -4.67665 0
M  V30 2700 H 257.733 -4.06314 -4.41621 0
M  V30 2701 H 258.803 -3.78561 -3.03017 0
M  V30 2702 N 260.146 1.09593 -1.13257 0
M  V30 2703 C 261.371 1.8604 -0.916732 0
M  V30 2704 C 261.796 1.80504 0.529146 0
M  V30 2705 O 261.154 1.18127 1.37534 0
M  V30 2706 C 261.202 3.32017 -1.40703 0
M  V30 2707 O 260.306 4.08141 -0.591153 0
M  V30 2708 H 259.647 0.576943 -0.328683 0
M  V30 2709 H 262.177 1.38405 -1.50682 0
M  V30 2710 H 262.187 3.82865 -1.4099 0
M  V30 2711 H 260.862 3.35361 -2.45979 0
M  V30 2712 H 259.439 3.67084 -0.656005 0
M  V30 2713 N 261.624 0.925811 1.2754 0
M  V30 2714 C 262.571 0.422045 2.26908 0
M  V30 2715 C 263.541 -0.510029 1.58076 0
M  V30 2716 O 264.726 -0.429599 1.85901 0
M  V30 2717 C 261.866 -0.320837 3.43605 0
M  V30 2718 C 260.979 0.64513 4.27156 0
M  V30 2719 C 260.114 -0.117405 5.3107 0
M  V30 2720 C 259.153 0.841391 6.0629 0
M  V30 2721 N 258.29 0.111604 7.02011 0
M  V30 2722 H 263.13 1.27441 2.69375 0
M  V30 2723 H 260.667 0.639697 1.32462 0
M  V30 2724 H 262.625 -0.76785 4.10073 0
M  V30 2725 H 261.255 -1.13745 3.02096 0
M  V30 2726 H 260.307 1.21067 3.6062 0
M  V30 2727 H 261.619 1.37797 4.79389 0
M  V30 2728 H 260.773 -0.624422 6.03478 0
M  V30 2729 H 259.512 -0.883219 4.79636 0
M  V30 2730 H 258.517 1.35967 5.32722 0
M  V30 2731 H 259.742 1.60696 6.59813 0
M  V30 2732 H 257.688 -0.635999 6.5291 0
M  V30 2733 H 257.605 0.784044 7.51923 0
M  V30 2734 H 258.873 -0.374823 7.78598 0
M  V30 2735 N 263.102 -1.41638 0.69111 0
M  V30 2736 C 264.518 -1.55435 0.362224 0
M  V30 2737 C 264.718 -1.66754 -1.13117 0
M  V30 2738 O 263.774 -1.64348 -1.91692 0
M  V30 2739 C 265.087 -2.79588 1.10684 0
M  V30 2740 C 266.635 -2.9338 1.09075 0
M  V30 2741 C 267.11 -4.20414 1.81703 0
M  V30 2742 N 268.601 -4.27362 1.7865 0
M  V30 2743 C 269.336 -5.24507 2.31689 0
M  V30 2744 N 268.832 -6.27708 2.93179 0
M  V30 2745 N 270.625 -5.16416 2.2197 0
M  V30 2746 H 262.776 -1.32536 1.65976 0
M  V30 2747 H 265.039 -0.639115 0.700168 0
M  V30 2748 H 264.745 -2.77419 2.16175 0
M  V30 2749 H 264.619 -3.70973 0.682545 0
M  V30 2750 H 267.006 -2.95067 0.0441238 0
M  V30 2751 H 267.087 -2.0318 1.55407 0
M  V30 2752 H 266.731 -4.19488 2.86343 0
M  V30 2753 H 266.661 -5.09578 1.32808 0
M  V30 2754 H 269.152 -3.53415 1.33815 0
M  V30 2755 H 269.465 -6.98217 3.31229 0
M  V30 2756 H 267.81 -6.28223 2.97255 0
M  V30 2757 H 271.001 -4.34716 1.73607 0
M  V30 2758 H 271.174 -5.91958 2.63609 0
M  V30 2759 N 264.58 -0.43555 -1.51462 0
M  V30 2760 C 265.829 0.133007 -2.01261 0
M  V30 2761 C 266.142 1.43942 -1.32439 0
M  V30 2762 O 267.348 2.09081 -1.73198 0
M  V30 2763 C 265.804 0.287581 -3.58749 0
M  V30 2764 C 265.412 -1.00829 -4.36506 0
M  V30 2765 C 267.156 0.810004 -4.167 0
M  V30 2766 C 265.063 -0.819454 -5.85695 0
M  V30 2767 H 263.993 0.0534822 -0.752101 0
M  V30 2768 H 266.644 -0.565038 -1.74584 0
M  V30 2769 H 265.026 1.04859 -3.81865 0
M  V30 2770 H 266.2 -1.77749 -4.25138 0
M  V30 2771 H 264.515 -1.45911 -3.89999 0
M  V30 2772 H 267.112 0.967743 -5.2587 0
M  V30 2773 H 267.455 1.79196 -3.75758 0
M  V30 2774 H 267.988 0.107357 -3.97655 0
M  V30 2775 H 264.727 -1.77374 -6.31046 0
M  V30 2776 H 264.247 -0.0900208 -5.99732 0
M  V30 2777 H 265.926 -0.471949 -6.45276 0
M  V30 2778 N 266.058 1.56714 -0.166846 0
M  V30 2779 C 267.021 2.16539 0.751232 0
M  V30 2780 C 268.021 1.11228 1.16125 0
M  V30 2781 O 269.211 1.36765 1.07894 0
M  V30 2782 C 266.343 2.74462 2.02196 0
M  V30 2783 H 267.536 2.99013 0.230499 0
M  V30 2784 H 265.089 1.56081 0.0826982 0
M  V30 2785 H 265.824 1.95709 2.58589 0
M  V30 2786 H 265.609 3.51527 1.73698 0
M  V30 2787 H 267.099 3.20489 2.67725 0
M  V30 2788 N 267.536 -0.106894 1.57237 0
M  V30 2789 C 268.947 -0.662723 1.74542 0
M  V30 2790 C 269.298 -1.7971 0.787319 0
M  V30 2791 O 268.423 -2.16368 -0.0369636 0
M  V30 2792 C 269.018 -1.20896 3.16496 0
M  V30 2793 C 267.577 -1.71096 3.35266 0
M  V30 2794 C 266.724 -0.615642 2.7038 0
M  V30 2795 H 269.675 0.119106 1.58252 0
M  V30 2796 H 269.696 -2.07847 3.18716 0
M  V30 2797 H 269.208 -0.383122 3.86204 0
M  V30 2798 H 267.309 -2.56119 2.70618 0
M  V30 2799 H 267.422 -1.81208 4.43509 0
M  V30 2800 H 265.786 -1.05222 2.31949 0
M  V30 2801 H 266.569 0.199419 3.4272 0
M  V30 2802 N 269.014 -1.53014 -0.377408 0
M  V30 2803 C 270.254 -1.70318 -1.1301 0
M  V30 2804 C 270.618 -0.439538 -1.86901 0
M  V30 2805 O 271.819 -0.489095 -2.64313 0
M  V30 2806 C 270.09 -2.91125 -2.07319 0
M  V30 2807 S 271.649 -3.29075 -2.90268 0
M  V30 2808 H 268.467 -0.599426 -0.382374 0
M  V30 2809 H 271.069 -1.91089 -0.412933 0
M  V30 2810 H 269.773 -3.81303 -1.51777 0
M  V30 2811 H 269.304 -2.7272 -2.83526 0
M  V30 2812 H 271.319 -2.80165 -4.09539 0
M  V30 2813 N 270.492 0.636531 -1.44174 0
M  V30 2814 C 271.722 1.42146 -1.49927 0
M  V30 2815 C 272.13 1.88812 -0.121063 0
M  V30 2816 O 271.473 1.61126 0.882267 0
M  V30 2817 C 271.535 2.67883 -2.39748 0
M  V30 2818 C 271.199 2.43048 -3.8701 0
M  V30 2819 C 272.196 2.05216 -4.77684 0
M  V30 2820 C 269.881 2.56856 -4.3166 0
M  V30 2821 C 271.875 1.81512 -6.11009 0
M  V30 2822 C 269.562 2.32766 -5.65034 0
M  V30 2823 C 270.56 1.95152 -6.54526 0
M  V30 2824 O 270.248 1.71326 -7.85431 0
M  V30 2825 H 269.98 0.442567 -0.51099 0
M  V30 2826 H 272.534 0.786158 -1.8976 0
M  V30 2827 H 270.764 3.34032 -1.94832 0
M  V30 2828 H 272.453 3.29874 -2.36513 0
M  V30 2829 H 273.219 1.94111 -4.44462 0
M  V30 2830 H 269.098 2.85104 -3.62266 0
M  V30 2831 H 272.642 1.52077 -6.80822 0
M  V30 2832 H 268.539 2.43479 -5.97819 0
M  V30 2833 H 269.307 1.85616 -7.97176 0
M  V30 2834 N 271.97 1.30982 0.876444 0
M  V30 2835 C 272.902 1.13902 1.98894 0
M  V30 2836 C 273.915 0.0798815 1.62604 0
M  V30 2837 O 275.104 0.326743 1.75484 0
M  V30 2838 C 272.204 0.716699 3.31235 0
M  V30 2839 C 271.377 1.85945 3.95908 0
M  V30 2840 C 270.436 1.42426 5.06558 0
M  V30 2841 O 269.462 2.13287 5.27729 0
M  V30 2842 N 270.664 0.308025 5.79682 0
M  V30 2843 H 273.429 2.09724 2.14094 0
M  V30 2844 H 270.99 1.2323 1.05004 0
M  V30 2845 H 272.982 0.408403 4.02634 0
M  V30 2846 H 271.552 -0.149719 3.12241 0
M  V30 2847 H 270.772 2.33541 3.17573 0
M  V30 2848 H 272.06 2.62503 4.35855 0
M  V30 2849 H 271.458 -0.282241 5.64995 0
M  V30 2850 H 270.015 0.0592282 6.51773 0
M  V30 2851 N 273.449 -1.08991 1.13837 0
M  V30 2852 C 274.726 -1.77863 0.813876 0
M  V30 2853 C 275.106 -1.99375 -0.693746 0
M  V30 2854 O 274.454 -1.59875 -1.63255 0
M  V30 2855 C 274.664 -3.0986 1.60586 0
M  V30 2856 C 276.012 -3.84493 1.8014 0
M  V30 2857 O 277.036 -3.19624 1.57222 0
M  V30 2858 O 275.895 -5.00957 2.18413 0
M  V30 2859 H 272.989 -0.771589 0.297624 0
M  V30 2860 H 275.535 -1.15507 1.24323 0
M  V30 2861 H 274.307 -2.89715 2.63022 0
M  V30 2862 H 273.93 -3.79942 1.17173 0
M  V30 2863 N 274.927 -0.932562 -1.27047 0
M  V30 2864 C 276.157 -0.591173 -1.97961 0
M  V30 2865 C 276.565 0.836219 -1.69717 0
M  V30 2866 O 275.908 1.56801 -0.957036 0
M  V30 2867 C 275.97 -0.743082 -3.51736 0
M  V30 2868 C 275.634 -2.1435 -4.03613 0
M  V30 2869 C 276.631 -3.11815 -4.16014 0
M  V30 2870 C 274.316 -2.46175 -4.37839 0
M  V30 2871 C 276.31 -4.39211 -4.61923 0
M  V30 2872 C 273.997 -3.73806 -4.83438 0
M  V30 2873 C 274.995 -4.70137 -4.95439 0
M  V30 2874 O 274.683 -5.95496 -5.40037 0
M  V30 2875 H 274.415 -0.222375 -0.638377 0
M  V30 2876 H 276.969 -1.25317 -1.62742 0
M  V30 2877 H 275.199 -0.0239739 -3.86693 0
M  V30 2878 H 276.888 -0.40603 -4.03864 0
M  V30 2879 H 277.654 -2.88549 -3.89826 0
M  V30 2880 H 273.533 -1.71936 -4.27737 0
M  V30 2881 H 277.077 -5.14404 -4.71205 0
M  V30 2882 H 272.974 -3.96888 -5.09068 0
M  V30 2883 H 273.742 -5.98554 -5.58279 0
M  V30 2884 N 276.405 1.4127 -0.698611 0
M  V30 2885 C 277.651 2.01478 -0.231207 0
M  V30 2886 C 277.984 1.55215 1.16713 0
M  V30 2887 O 277.259 0.764672 1.78838 0
M  V30 2888 C 277.542 3.58912 -0.292281 0
M  V30 2889 C 277.395 4.15293 -1.72778 0
M  V30 2890 C 278.714 4.38736 0.346194 0
M  V30 2891 H 275.833 0.732025 -0.0854878 0
M  V30 2892 H 278.475 1.67977 -0.887906 0
M  V30 2893 H 276.625 3.87582 0.26686 0
M  V30 2894 H 278.297 3.97486 -2.341 0
M  V30 2895 H 276.54 3.7022 -2.26096 0
M  V30 2896 H 277.211 5.24452 -1.72202 0
M  V30 2897 H 279.687 4.15897 -0.130035 0
M  V30 2898 H 278.563 5.48221 0.272932 0
M  V30 2899 H 278.824 4.18425 1.42734 0
M  V30 2900 N 277.883 0.443576 1.51229 0
M  V30 2901 C 278.83 -0.364716 2.279 0
M  V30 2902 C 279.8 -1.0114 1.31757 0
M  V30 2903 O 280.985 -1.02912 1.60667 0
M  V30 2904 C 278.125 -1.45644 3.12861 0
M  V30 2905 C 277.238 -0.827269 4.24005 0
M  V30 2906 C 276.373 -1.89456 4.96266 0
M  V30 2907 C 275.412 -1.24416 5.99322 0
M  V30 2908 N 274.549 -2.25309 6.64966 0
M  V30 2909 H 279.389 0.295464 2.96532 0
M  V30 2910 H 276.926 0.157554 1.46254 0
M  V30 2911 H 278.884 -2.10076 3.6045 0
M  V30 2912 H 277.514 -2.08616 2.46331 0
M  V30 2913 H 276.566 -0.0710839 3.80334 0
M  V30 2914 H 277.878 -0.312481 4.9782 0
M  V30 2915 H 277.032 -2.61535 5.47434 0
M  V30 2916 H 275.771 -2.4431 4.22095 0
M  V30 2917 H 274.776 -0.508868 5.4744 0
M  V30 2918 H 276.001 -0.702882 6.75453 0
M  V30 2919 H 273.947 -2.79231 5.93604 0
M  V30 2920 H 273.864 -1.78739 7.34567 0
M  V30 2921 H 275.132 -2.96853 7.20763 0
M  V30 2922 N 279.361 -1.56624 0.175154 0
M  V30 2923 C 280.308 -2.18149 -0.753634 0
M  V30 2924 C 281.278 -1.12265 -1.22417 0
M  V30 2925 O 282.463 -1.40432 -1.29165 0
M  V30 2926 C 279.603 -2.82933 -1.97592 0
M  V30 2927 C 278.716 -4.03289 -1.5486 0
M  V30 2928 C 277.851 -4.55988 -2.72485 0
M  V30 2929 C 276.89 -5.68746 -2.26262 0
M  V30 2930 N 276.027 -6.15938 -3.36994 0
M  V30 2931 H 280.867 -2.9717 -0.222195 0
M  V30 2932 H 278.404 -1.46774 -0.0979422 0
M  V30 2933 H 280.362 -3.18653 -2.69288 0
M  V30 2934 H 278.992 -2.06509 -2.481 0
M  V30 2935 H 278.044 -3.73364 -0.728246 0
M  V30 2936 H 279.356 -4.849 -1.16933 0
M  V30 2937 H 278.51 -4.9391 -3.52332 0
M  V30 2938 H 277.249 -3.73443 -3.13674 0
M  V30 2939 H 276.254 -5.30372 -1.44863 0
M  V30 2940 H 277.479 -6.53095 -1.86127 0
M  V30 2941 H 275.425 -5.36321 -3.77751 0
M  V30 2942 H 275.342 -6.92548 -3.03172 0
M  V30 2943 H 276.61 -6.58511 -4.17114 0
M  V30 2944 N 280.839 0.0985539 -1.57292 0
M  V30 2945 C 282.086 0.802678 -1.85912 0
M  V30 2946 C 282.414 1.78901 -0.763186 0
M  V30 2947 O 281.669 1.94178 0.243559 0
M  V30 2948 C 281.968 1.56927 -3.21105 0
M  V30 2949 C 281.634 0.725376 -4.45027 0
M  V30 2950 C 280.296 0.492726 -4.78671 0
M  V30 2951 C 282.648 0.138493 -5.21016 0
M  V30 2952 C 279.976 -0.336727 -5.85733 0
M  V30 2953 C 282.328 -0.678264 -6.28953 0
M  V30 2954 C 280.992 -0.921039 -6.61115 0
M  V30 2955 H 280.262 0.293721 -0.680301 0
M  V30 2956 H 282.909 0.0642841 -1.91392 0
M  V30 2957 H 281.214 2.37914 -3.11294 0
M  V30 2958 H 282.911 2.11841 -3.40477 0
M  V30 2959 H 279.501 0.916815 -4.18679 0
M  V30 2960 H 283.685 0.305404 -4.95359 0
M  V30 2961 H 278.941 -0.533836 -6.09065 0
M  V30 2962 H 283.115 -1.1399 -6.87007 0
M  V30 2963 H 280.742 -1.56556 -7.43905 0
M  V30 2964 N 282.317 1.53212 0.369288 0
M  V30 2965 C 283.565 1.68881 1.11012 0
M  V30 2966 C 283.886 0.441285 1.89941 0
M  V30 2967 O 283.156 -0.544623 1.88177 0
M  V30 2968 H 281.736 0.622569 0.412816 0
M  V30 2969 H 284.398 1.90391 0.416802 0
M  V30 2970 H 283.494 2.54822 1.80201 0
M  V30 2971 N 283.795 -0.628877 1.44509 0
M  V30 2972 C 284.705 -1.7694 1.54044 0
M  V30 2973 C 285.721 -1.68705 0.425987 0
M  V30 2974 O 286.897 -1.89442 0.683656 0
M  V30 2975 C 283.962 -3.13332 1.48405 0
M  V30 2976 C 283.023 -3.33181 2.70719 0
M  V30 2977 C 282.256 -4.63067 2.6534 0
M  V30 2978 O 282.479 -5.44017 1.71469 0
M  V30 2979 O 281.413 -4.85167 3.56226 0
M  V30 2980 H 285.239 -1.71848 2.50403 0
M  V30 2981 H 282.824 -0.790378 1.26781 0
M  V30 2982 H 284.706 -3.94634 1.47791 0
M  V30 2983 H 283.381 -3.1896 0.551898 0
M  V30 2984 H 282.288 -2.51549 2.769 0
M  V30 2985 H 283.621 -3.32416 3.62988 0
M  V30 2986 N 285.273 -1.31445 -0.869486 0
M  V30 2987 C 286.221 -1.19067 -1.99814 0
M  V30 2988 C 287.215 -0.0988569 -1.69111 0
M  V30 2989 O 288.421 -0.260781 -1.78101 0
M  V30 2990 H 284.796 -0.368677 -0.655425 0
M  V30 2991 H 286.767 -2.14555 -2.07385 0
M  V30 2992 C 285.516 -0.915323 -3.35436 0
M  V30 2993 H 284.839 -1.74759 -3.59582 0
M  V30 2994 H 286.279 -0.868895 -4.15001 0
M  V30 2995 C 284.738 0.381928 -3.34728 0
M  V30 2996 O 285.268 1.39857 -3.76567 0
M  V30 2997 N 283.474 0.398633 -2.87853 0
M  V30 2998 H 283.021 -0.429186 -2.54 0
M  V30 2999 H 282.979 1.26651 -2.87762 0
M  V30 3000 N 286.751 1.08385 -1.14413 0
M  V30 3001 C 287.998 1.80776 -0.912482 0
M  V30 3002 C 288.326 1.86236 0.560934 0
M  V30 3003 O 287.581 1.33431 1.43159 0
M  V30 3004 C 287.88 3.26273 -1.45879 0
M  V30 3005 C 287.546 3.4093 -2.95089 0
M  V30 3006 C 286.208 3.44638 -3.35824 0
M  V30 3007 C 288.56 3.44591 -3.91033 0
M  V30 3008 C 285.888 3.49597 -4.71167 0
M  V30 3009 C 288.24 3.51086 -5.26233 0
M  V30 3010 C 286.904 3.53067 -5.6648 0
M  V30 3011 H 286.174 0.661507 -0.333901 0
M  V30 3012 H 288.821 1.27613 -1.42784 0
M  V30 3013 H 287.126 3.82146 -0.864376 0
M  V30 3014 H 288.823 3.80839 -1.2555 0
M  V30 3015 H 285.413 3.38736 -2.62594 0
M  V30 3016 H 289.597 3.40957 -3.60641 0
M  V30 3017 H 284.853 3.49424 -5.0171 0
M  V30 3018 H 289.027 3.52864 -6.00383 0
M  V30 3019 H 286.654 3.56662 -6.71339 0
M  V30 3020 N 288.23 0.939286 1.26551 0
M  V30 3021 C 289.193 0.451987 2.24699 0
M  V30 3022 C 290.193 -0.435869 1.5478 0
M  V30 3023 O 291.383 -0.235314 1.72603 0
M  V30 3024 C 288.515 -0.348801 3.39111 0
M  V30 3025 H 289.708 1.3193 2.69322 0
M  V30 3026 H 287.261 0.721072 1.38673 0
M  V30 3027 H 287.996 -1.23444 2.99887 0
M  V30 3028 H 287.781 0.287945 3.91041 0
M  V30 3029 H 289.271 -0.679726 4.12031 0
M  V30 3030 N 289.708 -1.40897 0.706093 0
M  V30 3031 C 290.933 -2.05895 0.249435 0
M  V30 3032 C 291.358 -1.52823 -1.09666 0
M  V30 3033 O 290.716 -0.659589 -1.68876 0
M  V30 3034 C 290.764 -3.59872 0.22904 0
M  V30 3035 O 289.868 -4.04708 -0.792784 0
M  V30 3036 H 289.209 -0.653206 0.119241 0
M  V30 3037 H 291.739 -1.80471 0.96391 0
M  V30 3038 H 291.749 -4.07951 0.0634791 0
M  V30 3039 H 290.424 -3.97866 1.21141 0
M  V30 3040 H 289.001 -3.68111 -0.59572 0
M  V30 3041 N 291.186 -0.45159 -1.50991 0
M  V30 3042 C 292.426 0.109066 -2.04109 0
M  V30 3043 C 292.79 1.38716 -1.32747 0
M  V30 3044 O 293.991 2.02896 -1.76314 0
M  V30 3045 C 292.262 0.308354 -3.56067 0
M  V30 3046 S 293.821 0.830369 -4.30872 0
M  V30 3047 H 290.639 0.0251531 -0.710555 0
M  V30 3048 H 293.241 -0.614264 -1.85599 0
M  V30 3049 H 291.945 -0.627962 -4.05567 0
M  V30 3050 H 291.476 1.05836 -3.78896 0
M  V30 3051 H 293.491 2.10626 -4.49279 0
M  V30 3052 N 292.664 1.56529 -0.183458 0
M  V30 3053 C 293.596 2.15747 0.773697 0
M  V30 3054 C 294.609 1.1162 1.1851 0
M  V30 3055 O 295.798 1.3876 1.12285 0
M  V30 3056 C 292.898 2.6952 2.05456 0
M  V30 3057 C 292.071 3.98429 1.8048 0
M  V30 3058 C 291.13 4.37145 2.92901 0
M  V30 3059 O 290.156 5.04791 2.6301 0
M  V30 3060 N 291.358 3.99695 4.2098 0
M  V30 3061 H 294.123 2.98505 0.26736 0
M  V30 3062 H 291.684 1.619 -0.0010878 0
M  V30 3063 H 293.676 2.92412 2.79781 0
M  V30 3064 H 292.246 1.91282 2.47245 0
M  V30 3065 H 291.466 3.8379 0.899947 0
M  V30 3066 H 292.754 4.82597 1.61175 0
M  V30 3067 H 292.152 3.4526 4.48121 0
M  V30 3068 H 290.709 4.27562 4.9197 0
M  V30 3069 N 294.142 -0.090211 1.57342 0
M  V30 3070 C 295.105 -1.09335 2.01441 0
M  V30 3071 C 296.105 -1.32666 0.908641 0
M  V30 3072 O 297.295 -1.28697 1.174 0
M  V30 3073 C 294.427 -2.44136 2.3793 0
M  V30 3074 H 295.62 -0.713662 2.91285 0
M  V30 3075 H 293.173 -0.335404 1.52659 0
M  V30 3076 H 293.908 -2.86972 1.51055 0
M  V30 3077 H 293.693 -2.28548 3.18603 0
M  V30 3078 H 295.183 -3.16277 2.72688 0
M  V30 3079 N 295.62 -1.53406 -0.361157 0
M  V30 3080 C 296.868 -1.69467 -1.10115 0
M  V30 3081 C 297.189 -0.451352 -1.89705 0
M  V30 3082 O 296.459 0.534636 -1.88463 0
M  V30 3083 H 295.039 -0.624749 -0.409508 0
M  V30 3084 H 297.701 -1.90609 -0.406699 0
M  V30 3085 H 296.797 -2.55774 -1.78847 0
M  V30 3086 N 297.098 0.621204 -1.44841 0
M  V30 3087 C 298.347 1.37658 -1.47422 0
M  V30 3088 C 298.66 1.95264 -0.114629 0
M  V30 3089 O 299.866 2.71494 -0.0180199 0
M  V30 3090 C 298.322 2.49285 -2.59586 0
M  V30 3091 C 297.93 1.98149 -4.01797 0
M  V30 3092 C 299.674 3.26409 -2.71399 0
M  V30 3093 C 297.581 3.07178 -5.05367 0
M  V30 3094 H 296.511 0.517344 -0.548517 0
M  V30 3095 H 299.162 0.667257 -1.70938 0
M  V30 3096 H 297.544 3.22839 -2.29328 0
M  V30 3097 H 298.718 1.31395 -4.41669 0
M  V30 3098 H 297.033 1.33812 -3.94314 0
M  V30 3099 H 299.63 4.07706 -3.45948 0
M  V30 3100 H 299.973 3.76535 -1.77559 0
M  V30 3101 H 300.506 2.5995 -3.01116 0
M  V30 3102 H 297.245 2.61985 -6.00869 0
M  V30 3103 H 296.765 3.72542 -4.70077 0
M  V30 3104 H 298.444 3.71789 -5.29511 0
M  V30 3105 N 298.576 1.31904 0.862503 0
M  V30 3106 C 299.801 1.25135 1.65397 0
M  V30 3107 C 300.226 -0.179 1.87246 0
M  V30 3108 O 299.584 -1.1277 1.4196 0
M  V30 3109 C 299.632 2.00832 2.99498 0
M  V30 3110 O 298.736 1.35075 3.89652 0
M  V30 3111 H 298.077 0.431655 0.504549 0
M  V30 3112 H 300.607 1.74094 1.07483 0
M  V30 3113 H 300.617 2.10709 3.49379 0
M  V30 3114 H 299.292 3.04847 2.82916 0
M  V30 3115 H 297.869 1.33696 3.48109 0
M  V30 3116 N 300.054 -1.07777 1.14986 0
M  V30 3117 C 301.279 -1.84558 0.946213 0
M  V30 3118 C 301.704 -1.81323 -0.500362 0
M  V30 3119 O 301.062 -1.20301 -1.35637 0
M  V30 3120 C 301.11 -3.29736 1.45968 0
M  V30 3121 O 300.214 -4.07149 0.65601 0
M  V30 3122 H 299.555 -0.571641 0.33782 0
M  V30 3123 H 302.085 -1.35991 1.52865 0
M  V30 3124 H 302.095 -3.80574 1.47063 0
M  V30 3125 H 300.77 -3.31406 2.51283 0
M  V30 3126 H 299.347 -3.65994 0.714322 0
M  V30 3127 N 301.532 -0.945985 -1.26051 0
M  V30 3128 C 302.779 -0.596118 -1.93527 0
M  V30 3129 C 303.107 0.865559 -1.74179 0
M  V30 3130 O 302.362 1.63524 -1.0751 0
M  V30 3131 C 302.661 -0.890475 -3.46129 0
M  V30 3132 C 302.327 -2.3368 -3.85622 0
M  V30 3133 C 300.989 -2.73216 -3.96114 0
M  V30 3134 C 303.341 -3.27648 -4.05334 0
M  V30 3135 C 300.669 -4.05806 -4.2372 0
M  V30 3136 C 303.021 -4.59841 -4.3443 0
M  V30 3137 C 301.685 -4.99185 -4.43137 0
M  V30 3138 H 300.955 -0.218135 -0.708165 0
M  V30 3139 H 303.602 -1.1934 -1.49768 0
M  V30 3140 H 301.907 -0.210711 -3.91233 0
M  V30 3141 H 303.604 -0.598478 -3.96509 0
M  V30 3142 H 300.194 -2.02015 -3.78005 0
M  V30 3143 H 304.378 -2.98298 -3.96651 0
M  V30 3144 H 299.634 -4.35945 -4.28675 0
M  V30 3145 H 303.808 -5.32641 -4.48628 0
M  V30 3146 H 301.435 -6.01952 -4.64282 0
M  V30 3147 N 303.011 1.40521 -0.713556 0
M  V30 3148 C 304.241 2.0494 -0.261395 0
M  V30 3149 C 304.649 1.53861 1.10107 0
M  V30 3150 O 303.992 0.689321 1.70276 0
M  V30 3151 C 304.054 3.59138 -0.161227 0
M  V30 3152 C 303.718 4.33096 -1.45865 0
M  V30 3153 C 304.715 4.61182 -2.40016 0
M  V30 3154 C 302.4 4.72043 -1.71701 0
M  V30 3155 C 304.394 5.27196 -3.58251 0
M  V30 3156 C 302.081 5.37789 -2.90218 0
M  V30 3157 C 303.079 5.65295 -3.83315 0
M  V30 3158 O 302.767 6.29683 -4.99754 0
M  V30 3159 H 302.499 0.666041 -0.115608 0
M  V30 3160 H 305.053 1.80954 -0.971849 0
M  V30 3161 H 303.283 3.81936 0.605153 0
M  V30 3162 H 304.972 4.05091 0.256105 0
M  V30 3163 H 305.738 4.31559 -2.21318 0
M  V30 3164 H 301.617 4.50003 -1.00092 0
M  V30 3165 H 305.161 5.48582 -4.30934 0
M  V30 3166 H 301.058 5.66831 -3.08825 0
M  V30 3167 H 301.826 6.4818 -4.99805 0
M  V30 3168 N 304.489 0.459591 1.5075 0
M  V30 3169 C 305.717 -0.0973749 2.06671 0
M  V30 3170 C 306.132 -1.34524 1.32472 0
M  V30 3171 O 305.489 -1.7827 0.390634 0
M  V30 3172 C 305.54 -0.39714 3.59312 0
M  V30 3173 O 305.261 0.801214 4.30711 0
M  V30 3174 C 306.762 -1.00234 4.31819 0
M  V30 3175 H 303.982 0.00195854 0.670997 0
M  V30 3176 H 306.526 0.645072 1.94059 0
M  V30 3177 H 304.681 -1.08951 3.71764 0
M  V30 3178 H 305.095 0.538857 5.21725 0
M  V30 3179 H 306.569 -1.16193 5.39632 0
M  V30 3180 H 307.046 -1.98939 3.91561 0
M  V30 3181 H 307.652 -0.348699 4.23868 0
M  V30 3182 N 305.967 -1.56429 0.191757 0
M  V30 3183 C 306.914 -2.18936 -0.730454 0
M  V30 3184 C 307.884 -1.13557 -1.21219 0
M  V30 3185 O 309.069 -1.41794 -1.27668 0
M  V30 3186 C 306.209 -2.85013 -1.9458 0
M  V30 3187 C 305.322 -4.04909 -1.50574 0
M  V30 3188 C 304.457 -4.58853 -2.67634 0
M  V30 3189 C 303.496 -5.71114 -2.20217 0
M  V30 3190 N 302.633 -6.19478 -3.30442 0
M  V30 3191 H 307.473 -2.97389 -0.190664 0
M  V30 3192 H 305.01 -1.46869 -0.0823694 0
M  V30 3193 H 306.968 -3.21492 -2.65893 0
M  V30 3194 H 305.598 -2.09129 -2.45896 0
M  V30 3195 H 304.65 -3.74115 -0.688605 0
M  V30 3196 H 305.962 -4.86113 -1.11784 0
M  V30 3197 H 305.116 -4.97619 -3.47074 0
M  V30 3198 H 303.855 -3.76749 -3.09696 0
M  V30 3199 H 302.86 -5.31879 -1.3923 0
M  V30 3200 H 304.085 -6.55033 -1.79189 0
M  V30 3201 H 302.031 -5.40297 -3.72041 0
M  V30 3202 H 301.948 -6.95725 -2.9581 0
M  V30 3203 H 303.216 -6.62898 -4.10106 0
M  V30 3204 N 307.445 0.0818655 -1.57387 0
M  V30 3205 C 308.722 0.815343 -1.77796 0
M  V30 3206 C 309.102 1.96289 -0.77679 0
M  V30 3207 O 308.45 2.27691 0.192106 0
M  V30 3208 C 308.66 1.29765 -3.23978 0
M  V30 3209 C 310.008 1.7351 -3.8753 0
M  V30 3210 O 311.032 1.39356 -3.27808 0
M  V30 3211 O 309.891 2.36708 -4.92576 0
M  V30 3212 H 306.985 0.389914 -0.729312 0
M  V30 3213 H 309.531 0.0627213 -1.69584 0
M  V30 3214 H 308.303 0.47608 -3.88393 0
M  V30 3215 H 307.926 2.11189 -3.36875 0
M  V30 3216 N 308.923 1.53595 0.353017 0
M  V30 3217 C 309.853 1.83902 1.43883 0
M  V30 3218 C 310.834 0.693421 1.55324 0
M  V30 3219 O 312.019 0.944452 1.69687 0
M  V30 3220 C 309.149 2.04016 2.8106 0
M  V30 3221 C 308.103 3.19814 2.84434 0
M  V30 3222 C 307.429 3.25244 4.24406 0
M  V30 3223 C 308.729 4.58133 2.50822 0
M  V30 3224 H 310.423 2.74835 1.1877 0
M  V30 3225 H 307.969 1.32242 0.569917 0
M  V30 3226 H 309.922 2.238 3.57059 0
M  V30 3227 H 308.646 1.09804 3.07588 0
M  V30 3228 H 307.305 2.9987 2.10887 0
M  V30 3229 H 306.953 2.28646 4.48029 0
M  V30 3230 H 306.653 4.03054 4.27576 0
M  V30 3231 H 308.177 3.47228 5.0226 0
M  V30 3232 H 309.591 4.77995 3.16534 0
M  V30 3233 H 307.988 5.38276 2.6529 0
M  V30 3234 H 309.058 4.62387 1.46034 0
M  V30 3235 N 310.401 -0.613514 1.45168 0
M  V30 3236 C 311.65 -1.36874 1.4815 0
M  V30 3237 C 311.963 -1.952 0.124982 0
M  V30 3238 O 313.169 -2.71481 0.0324176 0
M  V30 3239 C 311.625 -2.47905 2.60904 0
M  V30 3240 C 311.233 -1.96016 4.02842 0
M  V30 3241 C 312.977 -3.24965 2.73126 0
M  V30 3242 C 310.884 -3.04494 5.06988 0
M  V30 3243 H 309.814 -0.514428 0.551253 0
M  V30 3244 H 312.465 -0.658182 1.7129 0
M  V30 3245 H 310.847 -3.21618 2.31037 0
M  V30 3246 H 312.021 -1.29051 4.4236 0
M  V30 3247 H 310.336 -1.31719 3.95018 0
M  V30 3248 H 312.933 -4.05865 3.48106 0
M  V30 3249 H 313.276 -3.75588 1.79553 0
M  V30 3250 H 313.809 -2.5835 3.0249 0
M  V30 3251 H 310.548 -2.58795 6.0225 0
M  V30 3252 H 310.068 -3.70044 4.72046 0
M  V30 3253 H 311.747 -3.68976 5.31475 0
M  V30 3254 N 311.879 -1.3236 -0.855495 0
M  V30 3255 C 313.125 -1.23054 -1.612 0
M  V30 3256 C 313.458 0.207404 -1.93089 0
M  V30 3257 O 312.733 1.14432 -1.57275 0
M  V30 3258 C 313.016 -2.08937 -2.93287 0
M  V30 3259 C 312.869 -3.61105 -2.68185 0
M  V30 3260 C 314.188 -1.94986 -3.94549 0
M  V30 3261 H 311.307 -0.448364 -0.584926 0
M  V30 3262 H 313.949 -1.62297 -0.987917 0
M  V30 3263 H 312.099 -1.75599 -3.46551 0
M  V30 3264 H 313.771 -4.04652 -2.21483 0
M  V30 3265 H 312.014 -3.83813 -2.02164 0
M  V30 3266 H 312.685 -4.16522 -3.62234 0
M  V30 3267 H 315.161 -2.24189 -3.5054 0
M  V30 3268 H 314.037 -2.57356 -4.84829 0
M  V30 3269 H 314.298 -0.917263 -4.3248 0
M  V30 3270 N 313.357 1.07166 -1.15556 0
M  V30 3271 C 314.29 2.13808 -0.797593 0
M  V30 3272 C 315.268 1.6101 0.226812 0
M  V30 3273 O 316.452 1.88161 0.112932 0
M  V30 3274 C 313.579 3.38187 -0.186371 0
M  V30 3275 C 312.625 4.09766 -1.18297 0
M  V30 3276 S 313.458 4.60932 -2.72584 0
M  V30 3277 C 314.614 5.88583 -2.12886 0
M  V30 3278 H 314.847 2.43843 -1.70083 0
M  V30 3279 H 312.38 1.19467 -0.978106 0
M  V30 3280 H 314.338 4.10189 0.159837 0
M  V30 3281 H 312.999 3.06326 0.694489 0
M  V30 3282 H 312.192 4.99065 -0.703562 0
M  V30 3283 H 311.794 3.43736 -1.47381 0
M  V30 3284 H 314.086 6.60866 -1.49208 0
M  V30 3285 H 315.029 6.41241 -3.0036 0
M  V30 3286 H 315.437 5.42194 -1.57116 0
M  V30 3287 N 314.835 0.952656 1.25548 0
M  V30 3288 C 316.083 0.605176 1.92826 0
M  V30 3289 C 316.404 -0.860261 1.74999 0
M  V30 3290 O 315.674 -1.6125 1.11244 0
M  V30 3291 H 314.254 0.220832 0.713612 0
M  V30 3292 H 316.916 1.21047 1.52754 0
M  V30 3293 H 316.012 0.832798 3.00784 0
M  V30 3294 N 316.313 -1.40141 0.720998 0
M  V30 3295 C 317.276 -2.29058 0.0805834 0
M  V30 3296 C 318.276 -1.45632 -0.681758 0
M  V30 3297 O 319.466 -1.6648 -0.512856 0
M  V30 3298 C 316.598 -3.28925 -0.895593 0
M  V30 3299 H 317.791 -2.87191 0.863793 0
M  V30 3300 H 315.344 -1.48553 0.485975 0
M  V30 3301 H 316.079 -2.75822 -1.70566 0
M  V30 3302 H 315.864 -3.90519 -0.351766 0
M  V30 3303 H 317.354 -3.95494 -1.34069 0
M  V30 3304 N 317.792 -0.46758 -1.50504 0
M  V30 3305 C 319.203 -0.0116166 -1.86696 0
M  V30 3306 C 319.554 1.39202 -1.38265 0
M  V30 3307 O 318.679 2.0313 -0.746132 0
M  V30 3308 C 319.274 -0.0143044 -3.38797 0
M  V30 3309 C 317.833 0.386175 -3.74414 0
M  V30 3310 C 316.98 -0.401287 -2.74381 0
M  V30 3311 H 319.931 -0.682022 -1.43297 0
M  V30 3312 H 319.952 0.788641 -3.72237 0
M  V30 3313 H 319.464 -1.03602 -3.74016 0
M  V30 3314 H 317.565 1.41237 -3.44794 0
M  V30 3315 H 317.678 0.0899596 -4.79016 0
M  V30 3316 H 316.042 0.144536 -2.5429 0
M  V30 3317 H 316.825 -1.42244 -3.12444 0
M  V30 3318 N 319.27 1.56325 -0.20005 0
M  V30 3319 C 320.518 1.97329 0.436547 0
M  V30 3320 C 320.839 1.08826 1.61808 0
M  V30 3321 O 320.109 0.160604 1.95241 0
M  V30 3322 H 318.689 0.728714 0.164272 0
M  V30 3323 H 321.351 1.92761 -0.287937 0
M  V30 3324 H 320.447 3.02264 0.777353 0
M  V30 3325 N 320.748 -0.0735177 1.57428 0
M  V30 3326 C 321.973 -0.789787 1.91774 0
M  V30 3327 C 322.398 -1.70413 0.796306 0
M  V30 3328 O 321.756 -1.79555 -0.250961 0
M  V30 3329 C 321.804 -1.5609 3.25067 0
M  V30 3330 O 320.908 -2.67144 3.14178 0
M  V30 3331 H 320.249 -0.215582 0.628029 0
M  V30 3332 H 322.779 -0.0422781 2.04556 0
M  V30 3333 H 322.789 -1.94052 3.58898 0
M  V30 3334 H 321.464 -0.890015 4.06265 0
M  V30 3335 H 320.041 -2.32052 2.91901 0
M  V30 3336 N 322.226 -1.5378 -0.344866 0
M  V30 3337 C 323.451 -1.75211 -1.10977 0
M  V30 3338 C 323.876 -0.48936 -1.81623 0
M  V30 3339 O 323.234 0.557925 -1.72502 0
M  V30 3340 C 323.282 -2.93147 -2.09993 0
M  V30 3341 O 322.386 -2.63203 -3.17487 0
M  V30 3342 H 321.727 -0.581241 -0.321021 0
M  V30 3343 H 324.257 -2.00738 -0.395661 0
M  V30 3344 H 324.267 -3.19898 -2.53237 0
M  V30 3345 H 322.942 -3.84731 -1.5797 0
M  V30 3346 H 321.519 -2.47336 -2.79069 0
M  V30 3347 N 323.704 0.605807 -1.45491 0
M  V30 3348 C 324.934 1.38934 -1.52908 0
M  V30 3349 C 325.342 1.88513 -0.161086 0
M  V30 3350 O 324.685 1.62962 0.847891 0
M  V30 3351 C 324.747 2.62737 -2.45376 0
M  V30 3352 C 324.411 2.34785 -3.92078 0
M  V30 3353 C 325.408 1.95038 -4.8193 0
M  V30 3354 C 323.093 2.47642 -4.37011 0
M  V30 3355 C 325.087 1.68511 -6.14722 0
M  V30 3356 C 322.774 2.20728 -5.69844 0
M  V30 3357 C 323.772 1.81225 -6.58519 0
M  V30 3358 O 323.46 1.54627 -7.88889 0
M  V30 3359 H 323.192 0.431629 -0.520262 0
M  V30 3360 H 325.746 0.74573 -1.91384 0
M  V30 3361 H 323.976 3.29824 -2.01874 0
M  V30 3362 H 325.665 3.24783 -2.43456 0
M  V30 3363 H 326.431 1.84639 -4.48479 0
M  V30 3364 H 322.31 2.77356 -3.68232 0
M  V30 3365 H 325.854 1.37602 -6.83894 0
M  V30 3366 H 321.751 2.30744 -6.02849 0
M  V30 3367 H 322.519 1.68665 -8.00933 0
M  V30 3368 N 325.182 1.32811 0.848464 0
M  V30 3369 C 326.428 1.24917 1.60522 0
M  V30 3370 C 326.783 -0.185761 1.91501 0
M  V30 3371 O 326.076 -1.12524 1.55077 0
M  V30 3372 C 326.27 2.04831 2.92881 0
M  V30 3373 C 326.099 3.55949 2.74828 0
M  V30 3374 C 324.869 4.25277 2.72887 0
M  V30 3375 C 327.067 4.50476 2.48145 0
M  V30 3376 N 325.049 5.62408 2.46111 0
M  V30 3377 C 326.42 5.75427 2.30832 0
M  V30 3378 C 328.475 4.39665 2.33664 0
M  V30 3379 C 327.178 6.90789 2.00508 0
M  V30 3380 C 329.204 5.54833 2.04731 0
M  V30 3381 C 328.566 6.78787 1.88223 0
M  V30 3382 H 324.665 0.512279 0.590842 0
M  V30 3383 H 327.249 1.67246 0.996839 0
M  V30 3384 H 325.42 1.64837 3.51686 0
M  V30 3385 H 327.152 1.88782 3.57971 0
M  V30 3386 H 323.907 3.77456 2.86049 0
M  V30 3387 H 324.331 6.3467 2.35634 0
M  V30 3388 H 328.973 3.44477 2.45144 0
M  V30 3389 H 326.691 7.85984 1.87765 0
M  V30 3390 H 330.277 5.48398 1.94295 0
M  V30 3391 H 329.157 7.66396 1.66155 0
M  V30 3392 N 326.66 -1.06551 1.16123 0
M  V30 3393 C 327.888 -1.83005 0.965237 0
M  V30 3394 C 328.303 -1.82423 -0.486542 0
M  V30 3395 O 327.66 -1.24152 -1.33763 0
M  V30 3396 C 327.711 -3.29733 1.48183 0
M  V30 3397 O 327.432 -3.30416 2.87674 0
M  V30 3398 C 328.933 -4.22926 1.32848 0
M  V30 3399 H 326.153 -0.577118 0.342309 0
M  V30 3400 H 328.697 -1.3445 1.54089 0
M  V30 3401 H 326.852 -3.75609 0.948517 0
M  V30 3402 H 327.266 -4.22149 3.11272 0
M  V30 3403 H 328.74 -5.23916 1.73827 0
M  V30 3404 H 329.217 -4.38346 0.273692 0
M  V30 3405 H 329.823 -3.82894 1.85127 0
M  V30 3406 N 328.138 -0.959301 -1.25041 0
M  V30 3407 C 329.386 -0.615393 -1.92503 0
M  V30 3408 C 329.707 0.850969 -1.75452 0
M  V30 3409 O 328.977 1.60658 -1.12098 0
M  V30 3410 H 327.557 -0.224613 -0.712431 0
M  V30 3411 H 330.219 -1.21855 -1.5211 0
M  V30 3412 H 329.315 -0.848738 -3.00338 0
M  V30 3413 N 329.616 1.39756 -0.72842 0
M  V30 3414 C 330.841 2.05472 -0.282159 0
M  V30 3415 C 331.266 1.54549 1.07221 0
M  V30 3416 O 330.624 0.686372 1.67805 0
M  V30 3417 C 330.672 3.59462 -0.286264 0
M  V30 3418 O 329.776 4.05918 0.728298 0
M  V30 3419 H 329.117 0.651226 -0.129618 0
M  V30 3420 H 331.647 1.78915 -0.992499 0
M  V30 3421 H 331.657 4.07798 -0.128373 0
M  V30 3422 H 330.332 3.95889 -1.27456 0
M  V30 3423 H 328.909 3.69012 0.537081 0
M  V30 3424 N 331.094 0.475555 1.50254 0
M  V30 3425 C 332.024 -0.30611 2.31485 0
M  V30 3426 C 333.005 -0.986228 1.38591 0
M  V30 3427 O 334.19 -0.982541 1.67511 0
M  V30 3428 C 331.32 -1.38588 3.1845 0
M  V30 3429 C 330.274 -0.827115 4.19932 0
M  V30 3430 C 329.6 -2.00551 4.95665 0
M  V30 3431 C 330.9 0.16463 5.2204 0
M  V30 3432 H 332.594 0.371866 2.97082 0
M  V30 3433 H 330.14 0.180282 1.42867 0
M  V30 3434 H 332.093 -1.94023 3.74076 0
M  V30 3435 H 330.817 -2.09269 2.50747 0
M  V30 3436 H 329.476 -0.294702 3.65414 0
M  V30 3437 H 329.124 -2.6994 4.2443 0
M  V30 3438 H 328.824 -1.63784 5.64313 0
M  V30 3439 H 330.348 -2.56468 5.54127 0
M  V30 3440 H 331.762 -0.300699 5.72511 0
M  V30 3441 H 330.159 0.446813 5.98434 0
M  V30 3442 H 331.229 1.08905 4.72512 0
M  V30 3443 N 332.573 -1.56217 0.208337 0
M  V30 3444 C 333.82 -1.97949 -0.42692 0
M  V30 3445 C 334.148 -1.09562 -1.60706 0
M  V30 3446 O 333.403 -0.137616 -1.95216 0
M  V30 3447 C 333.702 -3.45441 -0.916797 0
M  V30 3448 C 333.368 -4.50646 0.151391 0
M  V30 3449 C 332.03 -4.79139 0.444867 0
M  V30 3450 C 334.382 -5.13811 0.874492 0
M  V30 3451 C 331.71 -5.68084 1.46619 0
M  V30 3452 C 334.062 -6.03861 1.88506 0
M  V30 3453 C 332.726 -6.30704 2.18559 0
M  V30 3454 H 331.996 -0.724345 -0.156221 0
M  V30 3455 H 334.643 -1.89006 0.308084 0
M  V30 3456 H 332.948 -3.51521 -1.73032 0
M  V30 3457 H 334.645 -3.75094 -1.41794 0
M  V30 3458 H 331.235 -4.28511 -0.0875068 0
M  V30 3459 H 335.419 -4.91879 0.660996 0
M  V30 3460 H 330.675 -5.87151 1.7048 0
M  V30 3461 H 334.849 -6.51861 2.45051 0
M  V30 3462 H 332.476 -6.99424 2.97843 0
M  V30 3463 N 334.051 0.0651679 -1.57465 0
M  V30 3464 C 335.297 0.764193 -1.87851 0
M  V30 3465 C 335.63 1.76889 -0.801495 0
M  V30 3466 O 334.905 1.93594 0.187528 0
M  V30 3467 C 335.188 1.46625 -3.28897 0
M  V30 3468 C 335.041 0.477515 -4.47258 0
M  V30 3469 C 336.36 2.4095 -3.68281 0
M  V30 3470 H 333.479 0.276351 -0.683227 0
M  V30 3471 H 336.121 0.0272868 -1.8998 0
M  V30 3472 H 334.271 2.09438 -3.27212 0
M  V30 3473 H 335.943 -0.145922 -4.61069 0
M  V30 3474 H 334.186 -0.206576 -4.33308 0
M  V30 3475 H 334.857 1.0065 -5.42746 0
M  V30 3476 H 337.333 1.88209 -3.71102 0
M  V30 3477 H 336.209 2.87072 -4.67847 0
M  V30 3478 H 336.47 3.26049 -2.98571 0
M  V30 3479 N 335.529 1.53961 0.336706 0
M  V30 3480 C 336.759 1.75229 1.09446 0
M  V30 3481 C 337.167 0.494602 1.82621 0
M  V30 3482 O 336.51 -0.543764 1.75468 0
M  V30 3483 C 336.572 2.88288 2.1478 0
M  V30 3484 C 336.236 4.27656 1.6112 0
M  V30 3485 C 337.233 5.08981 1.0599 0
M  V30 3486 C 334.918 4.74161 1.6576 0
M  V30 3487 C 336.912 6.34916 0.562129 0
M  V30 3488 C 334.599 6.00067 1.15595 0
M  V30 3489 C 335.597 6.80278 0.609147 0
M  V30 3490 O 335.285 8.03818 0.114999 0
M  V30 3491 H 335.017 0.588881 0.331956 0
M  V30 3492 H 337.571 2.01614 0.392566 0
M  V30 3493 H 335.801 2.57443 2.88548 0
M  V30 3494 H 337.49 2.97461 2.76174 0
M  V30 3495 H 338.256 4.74213 1.01722 0
M  V30 3496 H 334.135 4.11781 2.07261 0
M  V30 3497 H 337.679 6.9747 0.134668 0
M  V30 3498 H 333.576 6.3433 1.19566 0
M  V30 3499 H 334.344 8.18172 0.231651 0
M  V30 3500 N 337.007 -0.598083 1.45811 0
M  V30 3501 C 337.955 -1.72932 1.55555 0
M  V30 3502 C 338.949 -1.63984 0.424921 0
M  V30 3503 O 340.155 -1.69663 0.601205 0
M  V30 3504 H 336.53 -0.571489 0.488779 0
M  V30 3505 H 338.501 -1.61842 2.50699 0
M  V30 3506 C 337.25 -3.11318 1.54843 0
M  V30 3507 H 336.573 -3.18867 2.41172 0
M  V30 3508 H 338.013 -3.90274 1.65717 0
M  V30 3509 C 336.472 -3.3578 0.274427 0
M  V30 3510 O 337.002 -3.9654 -0.641778 0
M  V30 3511 N 335.208 -2.90119 0.167139 0
M  V30 3512 H 334.755 -2.40855 0.913596 0
M  V30 3513 H 334.713 -3.0686 -0.684435 0
M  V30 3514 N 338.485 -1.33259 -0.841409 0
M  V30 3515 C 339.734 -1.23921 -1.59143 0
M  V30 3516 C 340.047 0.1941 -1.94635 0
M  V30 3517 O 341.253 0.409474 -2.68394 0
M  V30 3518 C 339.709 -2.17119 -2.87032 0
M  V30 3519 C 339.317 -3.65606 -2.58914 0
M  V30 3520 C 341.061 -2.16648 -3.65053 0
M  V30 3521 C 338.968 -4.50726 -3.82884 0
M  V30 3522 H 337.898 -0.460264 -0.597221 0
M  V30 3523 H 340.549 -1.58307 -0.927959 0
M  V30 3524 H 338.931 -1.75663 -3.54906 0
M  V30 3525 H 340.105 -4.15487 -1.99267 0
M  V30 3526 H 338.42 -3.68341 -1.942 0
M  V30 3527 H 341.017 -2.77474 -4.57069 0
M  V30 3528 H 341.36 -1.16088 -3.99787 0
M  V30 3529 H 341.893 -2.56453 -3.041 0
M  V30 3530 H 338.632 -5.52151 -3.53283 0
M  V30 3531 H 338.152 -4.0559 -4.41879 0
M  V30 3532 H 339.831 -4.64401 -4.50489 0
M  V30 3533 N 339.963 1.05934 -1.16686 0
M  V30 3534 C 341.191 1.8249 -0.974929 0
M  V30 3535 C 341.606 1.82679 0.476861 0
M  V30 3536 O 340.963 1.2486 1.33103 0
M  V30 3537 C 341.014 3.28943 -1.49929 0
M  V30 3538 O 340.735 3.28886 -2.89423 0
M  V30 3539 C 342.236 4.22215 -1.35089 0
M  V30 3540 H 339.456 0.575295 -0.345365 0
M  V30 3541 H 342 1.33631 -1.548 0
M  V30 3542 H 340.155 3.751 -0.968423 0
M  V30 3543 H 340.569 4.20493 -3.13506 0
M  V30 3544 H 342.043 5.22987 -1.76603 0
M  V30 3545 H 342.52 4.38195 -0.296935 0
M  V30 3546 H 343.126 3.81907 -1.87155 0
M  V30 3547 N 341.441 0.965919 1.2453 0
M  V30 3548 C 342.669 0.644385 1.96609 0
M  V30 3549 C 343.084 -0.785823 1.71669 0
M  V30 3550 O 342.441 -1.52703 0.999399 0
M  V30 3551 C 342.492 0.907375 3.49927 0
M  V30 3552 O 342.213 2.28136 3.74013 0
M  V30 3553 C 343.714 0.599784 4.39224 0
M  V30 3554 H 340.934 0.240588 0.626385 0
M  V30 3555 H 343.478 1.29337 1.58405 0
M  V30 3556 H 341.633 0.304631 3.862 0
M  V30 3557 H 342.047 2.36002 4.68405 0
M  V30 3558 H 343.521 0.834263 5.45659 0
M  V30 3559 H 343.998 -0.465921 4.36722 0
M  V30 3560 H 344.604 1.18235 4.08535 0
M  V30 3561 N 342.919 -1.39368 0.735821 0
M  V30 3562 C 343.867 -2.32443 0.0855131 0
M  V30 3563 C 344.861 -1.53104 -0.724954 0
M  V30 3564 O 346.067 -1.68762 -0.626047 0
M  V30 3565 H 342.442 -0.751948 0.00885257 0
M  V30 3566 H 344.413 -2.84916 0.886883 0
M  V30 3567 C 343.162 -3.38206 -0.806983 0
M  V30 3568 H 342.485 -3.99335 -0.19274 0
M  V30 3569 H 343.925 -4.05779 -1.2296 0
M  V30 3570 C 342.384 -2.75321 -1.94165 0
M  V30 3571 O 342.914 -2.63231 -3.03435 0
M  V30 3572 N 341.12 -2.33396 -1.73132 0
M  V30 3573 H 340.667 -2.4343 -0.842596 0
M  V30 3574 H 340.625 -1.91661 -2.49225 0
M  V30 3575 N 344.397 -0.483516 -1.5 0
M  V30 3576 C 345.344 0.304164 -2.28787 0
M  V30 3577 C 346.314 0.976114 -1.34392 0
M  V30 3578 O 347.499 0.986156 -1.63339 0
M  V30 3579 C 344.639 1.37298 -3.16612 0
M  V30 3580 C 343.752 0.714561 -4.26049 0
M  V30 3581 C 342.887 1.76232 -5.01114 0
M  V30 3582 C 341.926 1.08483 -6.0241 0
M  V30 3583 N 341.063 2.076 -6.70706 0
M  V30 3584 H 345.903 -0.373981 -2.95644 0
M  V30 3585 H 343.44 -0.196275 -1.45785 0
M  V30 3586 H 345.398 2.00445 -3.65893 0
M  V30 3587 H 344.028 2.02012 -2.51776 0
M  V30 3588 H 343.08 -0.0297798 -3.80388 0
M  V30 3589 H 344.392 0.180383 -4.98474 0
M  V30 3590 H 343.546 2.46929 -5.54176 0
M  V30 3591 H 342.285 2.33033 -4.28424 0
M  V30 3592 H 341.29 0.363545 -5.48597 0
M  V30 3593 H 342.515 0.523551 -6.77079 0
M  V30 3594 H 340.461 2.63394 -6.00799 0
M  V30 3595 H 340.378 1.59201 -7.39047 0
M  V30 3596 H 341.646 2.77639 -7.2838 0
M  V30 3597 N 345.875 1.56104 -0.216619 0
M  V30 3598 C 347.105 2.02269 0.420802 0
M  V30 3599 C 347.513 1.09575 1.5424 0
M  V30 3600 O 346.856 0.0967308 1.83445 0
M  V30 3601 C 346.918 3.44784 1.01806 0
M  V30 3602 C 346.582 4.56988 0.0325154 0
M  V30 3603 C 347.579 5.14225 -0.766055 0
M  V30 3604 C 345.264 5.02228 -0.0848092 0
M  V30 3605 C 347.258 6.15169 -1.6687 0
M  V30 3606 C 344.945 6.03011 -0.990994 0
M  V30 3607 C 345.943 6.59357 -1.78149 0
M  V30 3608 O 345.631 7.58179 -2.67245 0
M  V30 3609 H 345.363 0.667353 0.107776 0
M  V30 3610 H 347.917 2.02747 -0.329034 0
M  V30 3611 H 346.147 3.41359 1.81689 0
M  V30 3612 H 347.836 3.74626 1.56237 0
M  V30 3613 H 348.602 4.80126 -0.685836 0
M  V30 3614 H 344.481 4.58054 0.520349 0
M  V30 3615 H 348.025 6.59076 -2.28615 0
M  V30 3616 H 343.922 6.36532 -1.07225 0
M  V30 3617 H 344.69 7.75682 -2.61265 0
M  V30 3618 N 347.353 -0.0568162 1.57498 0
M  V30 3619 C 348.3 -1.06591 2.04712 0
M  V30 3620 C 349.27 -1.3758 0.930644 0
M  V30 3621 O 350.455 -1.48392 1.19935 0
M  V30 3622 C 347.595 -2.3701 2.50839 0
M  V30 3623 C 346.708 -2.12421 3.76167 0
M  V30 3624 C 345.843 -3.36511 4.11015 0
M  V30 3625 C 344.882 -3.07353 5.2934 0
M  V30 3626 N 344.019 -4.23816 5.59754 0
M  V30 3627 H 348.859 -0.65631 2.90683 0
M  V30 3628 H 346.396 -0.312481 1.43743 0
M  V30 3629 H 348.354 -3.13175 2.7564 0
M  V30 3630 H 346.984 -2.75744 1.67825 0
M  V30 3631 H 346.036 -1.2688 3.58616 0
M  V30 3632 H 347.348 -1.86894 4.62463 0
M  V30 3633 H 346.502 -4.21062 4.36797 0
M  V30 3634 H 345.241 -3.65128 3.23315 0
M  V30 3635 H 344.246 -2.212 5.03339 0
M  V30 3636 H 345.471 -2.80043 6.1867 0
M  V30 3637 H 343.417 -4.52436 4.75014 0
M  V30 3638 H 343.334 -4.01614 6.40501 0
M  V30 3639 H 344.602 -5.0932 5.90096 0
M  V30 3640 N 348.832 -1.54138 -0.328536 0
M  V30 3641 C 349.795 -1.82462 -1.38709 0
M  V30 3642 C 350.795 -0.696229 -1.44946 0
M  V30 3643 O 351.985 -0.964535 -1.4506 0
M  V30 3644 C 349.117 -1.98018 -2.77492 0
M  V30 3645 H 350.31 -2.77037 -1.14851 0
M  V30 3646 H 347.863 -1.45779 -0.563751 0
M  V30 3647 H 348.598 -1.05637 -3.06613 0
M  V30 3648 H 348.383 -2.80124 -2.74359 0
M  V30 3649 H 349.873 -2.21396 -3.54081 0
M  V30 3650 N 350.31 0.590341 -1.46126 0
M  V30 3651 C 351.557 1.34882 -1.5104 0
M  V30 3652 C 351.885 1.93849 -0.159021 0
M  V30 3653 O 351.14 1.76544 0.844436 0
M  V30 3654 C 351.439 2.5032 -2.55097 0
M  V30 3655 C 351.105 2.09394 -3.99331 0
M  V30 3656 C 349.767 1.97947 -4.38601 0
M  V30 3657 C 352.119 1.77712 -4.89967 0
M  V30 3658 C 349.447 1.53065 -5.66381 0
M  V30 3659 C 351.799 1.34312 -6.18177 0
M  V30 3660 C 350.463 1.21436 -6.56361 0
M  V30 3661 H 349.733 0.493568 -0.552695 0
M  V30 3662 H 352.38 0.665539 -1.79563 0
M  V30 3663 H 350.685 3.24062 -2.20207 0
M  V30 3664 H 352.382 3.08541 -2.56132 0
M  V30 3665 H 348.972 2.19235 -3.68285 0
M  V30 3666 H 353.156 1.85445 -4.60352 0
M  V30 3667 H 348.412 1.41733 -5.94745 0
M  V30 3668 H 352.586 1.08849 -6.87841 0
M  V30 3669 H 350.213 0.864345 -7.5527 0
M  V30 3670 N 351.788 1.33704 0.83433 0
M  V30 3671 C 352.718 1.26967 1.95963 0
M  V30 3672 C 353.699 0.149337 1.69443 0
M  V30 3673 O 354.884 0.339852 1.91203 0
M  V30 3674 C 352.014 1.01275 3.32206 0
M  V30 3675 C 350.968 2.09652 3.73136 0
M  V30 3676 C 350.294 1.69166 5.07235 0
M  V30 3677 C 351.594 3.51372 3.86439 0
M  V30 3678 H 353.288 2.2112 2.01857 0
M  V30 3679 H 350.834 1.06447 0.969793 0
M  V30 3680 H 352.787 0.952106 4.10503 0
M  V30 3681 H 351.511 0.0356203 3.26581 0
M  V30 3682 H 350.17 2.14766 2.97104 0
M  V30 3683 H 349.818 0.701437 4.98085 0
M  V30 3684 H 349.518 2.41694 5.35591 0
M  V30 3685 H 351.042 1.64576 5.88003 0
M  V30 3686 H 352.456 3.48734 4.55036 0
M  V30 3687 H 350.853 4.22425 4.26236 0
M  V30 3688 H 351.923 3.89546 2.88759 0
M  V30 3689 N 353.266 -1.05314 1.17247 0
M  V30 3690 C 354.543 -1.75184 0.87005 0
M  V30 3691 C 354.923 -2.01481 -0.629965 0
M  V30 3692 O 354.271 -1.64988 -1.58086 0
M  V30 3693 C 354.481 -3.04594 1.70363 0
M  V30 3694 C 355.829 -3.78567 1.92281 0
M  V30 3695 O 356.853 -3.14461 1.67311 0
M  V30 3696 O 355.712 -4.93755 2.3424 0
M  V30 3697 H 352.806 -0.761729 0.322021 0
M  V30 3698 H 355.352 -1.11493 1.27935 0
M  V30 3699 H 354.124 -2.81201 2.72106 0
M  V30 3700 H 353.747 -3.76022 1.29202 0
M  V30 3701 N 354.744 -0.972509 -1.24016 0
M  V30 3702 C 355.691 -0.505969 -2.25186 0
M  V30 3703 C 356.661 0.451009 -1.5986 0
M  V30 3704 O 357.846 0.360307 -1.87367 0
M  V30 3705 C 354.986 0.193089 -3.44559 0
M  V30 3706 C 354.099 -0.803222 -4.24467 0
M  V30 3707 C 353.234 -0.0797793 -5.3114 0
M  V30 3708 C 352.273 -1.06583 -6.02749 0
M  V30 3709 N 351.41 -0.372074 -7.01113 0
M  V30 3710 H 356.25 -1.37351 -2.64459 0
M  V30 3711 H 353.787 -0.688419 -1.29997 0
M  V30 3712 H 355.745 0.615125 -4.1264 0
M  V30 3713 H 354.375 1.02455 -3.06109 0
M  V30 3714 H 353.427 -1.34368 -3.55878 0
M  V30 3715 H 354.739 -1.55494 -4.73944 0
M  V30 3716 H 353.893 0.400015 -6.0538 0
M  V30 3717 H 352.632 0.704597 -4.82583 0
M  V30 3718 H 351.637 -1.55645 -5.27309 0
M  V30 3719 H 352.862 -1.85074 -6.53395 0
M  V30 3720 H 350.808 0.393238 -6.5482 0
M  V30 3721 H 350.725 -1.06258 -7.48495 0
M  V30 3722 H 351.993 0.0855932 -7.79453 0
M  V30 3723 N 356.222 1.38976 -0.743202 0
M  V30 3724 C 357.154 2.29096 -0.0689228 0
M  V30 3725 C 358.167 1.47229 0.694791 0
M  V30 3726 O 359.356 1.70212 0.537597 0
M  V30 3727 C 356.456 3.25988 0.926548 0
M  V30 3728 C 355.629 4.36833 0.222647 0
M  V30 3729 C 354.688 5.13981 1.12739 0
M  V30 3730 O 353.714 5.6601 0.601795 0
M  V30 3731 N 354.916 5.25966 2.45641 0
M  V30 3732 H 357.681 2.87604 -0.842846 0
M  V30 3733 H 355.242 1.50645 -0.593109 0
M  V30 3734 H 357.234 3.74476 1.5346 0
M  V30 3735 H 355.804 2.68453 1.60162 0
M  V30 3736 H 355.024 3.90116 -0.565983 0
M  V30 3737 H 356.312 5.0811 -0.264841 0
M  V30 3738 H 355.71 4.85228 2.9081 0
M  V30 3739 H 354.267 5.77865 3.01522 0
M  V30 3740 N 357.7 0.491464 1.49741 0
M  V30 3741 C 358.648 -0.305837 2.30581 0
M  V30 3742 C 359.642 -0.971642 1.38764 0
M  V30 3743 O 360.848 -0.90042 1.5586 0
M  V30 3744 H 357.223 -0.117482 0.742767 0
M  V30 3745 H 359.194 0.396093 2.95759 0
M  V30 3746 C 357.943 -1.36319 3.19863 0
M  V30 3747 H 357.266 -0.860258 3.90435 0
M  V30 3748 H 358.706 -1.89323 3.79385 0
M  V30 3749 C 357.165 -2.37621 2.38826 0
M  V30 3750 O 357.695 -3.43311 2.08567 0
M  V30 3751 N 355.901 -2.09849 2.01026 0
M  V30 3752 H 355.448 -1.23922 2.25834 0
M  V30 3753 H 355.406 -2.77859 1.47112 0
M  V30 3754 N 359.178 -1.55987 0.224894 0
M  V30 3755 C 360.11 -2.17722 -0.716224 0
M  V30 3756 C 361.123 -1.14723 -1.15509 0
M  V30 3757 O 362.312 -1.41688 -1.08567 0
M  V30 3758 C 359.412 -2.74873 -1.98238 0
M  V30 3759 C 358.585 -4.03074 -1.69853 0
M  V30 3760 C 357.644 -4.44757 -2.81208 0
M  V30 3761 O 356.67 -5.11587 -2.49534 0
M  V30 3762 N 357.872 -4.10716 -4.10235 0
M  V30 3763 H 360.637 -2.99109 -0.188123 0
M  V30 3764 H 358.198 -1.6184 0.0440123 0
M  V30 3765 H 360.19 -2.99727 -2.7193 0
M  V30 3766 H 358.76 -1.9777 -2.42086 0
M  V30 3767 H 357.98 -3.86041 -0.797875 0
M  V30 3768 H 359.268 -4.86701 -1.48324 0
M  V30 3769 H 358.666 -3.57019 -4.38809 0
M  V30 3770 H 357.223 -4.40455 -4.80461 0
M  V30 3771 N 360.656 0.0484629 -1.57525 0
M  V30 3772 C 361.902 0.744226 -1.88651 0
M  V30 3773 C 362.235 1.76029 -0.820212 0
M  V30 3774 O 361.51 1.93782 0.166985 0
M  V30 3775 C 361.793 1.43128 -3.30434 0
M  V30 3776 C 361.646 0.43005 -4.47739 0
M  V30 3777 C 362.965 2.37031 -3.70816 0
M  V30 3778 H 360.084 0.269089 -0.68612 0
M  V30 3779 H 362.726 0.00713532 -1.89999 0
M  V30 3780 H 360.876 2.05956 -3.29415 0
M  V30 3781 H 362.548 -0.194816 -4.60888 0
M  V30 3782 H 360.791 -0.252522 -4.33064 0
M  V30 3783 H 361.462 0.948874 -5.43783 0
M  V30 3784 H 363.938 1.84263 -3.73077 0
M  V30 3785 H 362.814 2.82094 -4.70865 0
M  V30 3786 H 363.075 3.22864 -3.02012 0
M  V30 3787 N 362.134 1.5431 0.320358 0
M  V30 3788 C 363.081 1.83918 1.39438 0
M  V30 3789 C 364.051 0.686525 1.51248 0
M  V30 3790 O 365.236 0.933269 1.66417 0
M  V30 3791 C 362.376 2.075 2.75749 0
M  V30 3792 C 361.489 3.35177 2.72544 0
M  V30 3793 C 360.624 3.48704 4.00723 0
M  V30 3794 C 359.663 4.70244 3.91838 0
M  V30 3795 N 358.8 4.80679 5.11754 0
M  V30 3796 H 363.64 2.75544 1.13489 0
M  V30 3797 H 361.177 1.36459 0.549309 0
M  V30 3798 H 363.135 2.19166 3.54996 0
M  V30 3799 H 361.765 1.19163 3 0
M  V30 3800 H 360.817 3.32233 1.85271 0
M  V30 3801 H 362.129 4.24534 2.61863 0
M  V30 3802 H 361.283 3.59928 4.88402 0
M  V30 3803 H 360.022 2.57445 4.14214 0
M  V30 3804 H 359.027 4.59072 3.02544 0
M  V30 3805 H 360.252 5.6289 3.7991 0
M  V30 3806 H 358.198 3.92337 5.25745 0
M  V30 3807 H 358.115 5.64007 5.0342 0
M  V30 3808 H 359.383 4.96239 6.01138 0
M  V30 3809 N 363.613 -0.582584 1.46437 0
M  V30 3810 C 364.86 -1.34079 1.51753 0
M  V30 3811 C 365.188 -1.93762 0.169299 0
M  V30 3812 O 364.443 -1.76989 -0.835062 0
M  V30 3813 C 364.742 -2.48964 2.56421 0
M  V30 3814 C 364.408 -2.07273 4.00436 0
M  V30 3815 C 363.07 -1.95618 4.39644 0
M  V30 3816 C 365.422 -1.75111 4.90903 0
M  V30 3817 C 362.75 -1.5006 5.67185 0
M  V30 3818 C 365.102 -1.31032 6.18881 0
M  V30 3819 C 363.766 -1.17954 6.56996 0
M  V30 3820 H 363.036 -0.49063 0.555304 0
M  V30 3821 H 365.683 -0.656007 1.79913 0
M  V30 3822 H 363.988 -3.22889 2.21923 0
M  V30 3823 H 365.685 -3.07178 2.57765 0
M  V30 3824 H 362.275 -2.17279 3.69443 0
M  V30 3825 H 366.459 -1.83001 4.61329 0
M  V30 3826 H 361.715 -1.38577 5.95488 0
M  V30 3827 H 365.889 -1.052 6.88408 0
M  V30 3828 H 363.516 -0.824279 7.55718 0
M  V30 3829 N 365.091 -1.34144 -0.827227 0
M  V30 3830 C 366.339 -1.26009 -1.58007 0
M  V30 3831 C 366.66 0.170971 -1.94249 0
M  V30 3832 O 365.93 1.10256 -1.61927 0
M  V30 3833 H 364.51 -0.463414 -0.585881 0
M  V30 3834 H 367.172 -1.68005 -0.987951 0
M  V30 3835 H 366.268 -1.86187 -2.50481 0
M  V30 3836 N 366.569 1.04691 -1.17803 0
M  V30 3837 C 367.794 1.81984 -0.994813 0
M  V30 3838 C 368.219 1.82586 0.452112 0
M  V30 3839 O 367.577 1.23854 1.324 0
M  V30 3840 C 367.625 3.2575 -1.54659 0
M  V30 3841 O 366.729 4.05267 -0.763728 0
M  V30 3842 H 366.07 0.562483 -0.352857 0
M  V30 3843 H 368.6 1.3189 -1.56417 0
M  V30 3844 H 368.61 3.76541 -1.57102 0
M  V30 3845 H 367.285 3.24627 -2.59981 0
M  V30 3846 H 365.862 3.63972 -0.811108 0
M  V30 3847 N 368.047 0.979072 1.23499 0
M  V30 3848 C 369.277 0.664237 1.95631 0
M  V30 3849 C 369.685 -0.772653 1.72704 0
M  V30 3850 O 369.028 -1.53141 1.01457 0
M  V30 3851 C 369.09 0.873115 3.48736 0
M  V30 3852 C 368.754 2.29182 3.95379 0
M  V30 3853 C 369.751 3.2704 4.04155 0
M  V30 3854 C 367.436 2.62256 4.28401 0
M  V30 3855 C 369.43 4.56052 4.45304 0
M  V30 3856 C 367.117 3.91491 4.69231 0
M  V30 3857 C 368.115 4.88201 4.77649 0
M  V30 3858 O 367.803 6.15129 5.17563 0
M  V30 3859 H 367.535 0.245915 0.629684 0
M  V30 3860 H 370.089 1.3127 1.57979 0
M  V30 3861 H 368.319 0.167476 3.86337 0
M  V30 3862 H 370.008 0.555642 4.02079 0
M  V30 3863 H 370.774 3.02819 3.78848 0
M  V30 3864 H 366.653 1.87692 4.21061 0
M  V30 3865 H 370.197 5.31538 4.51789 0
M  V30 3866 H 366.094 4.15508 4.93987 0
M  V30 3867 H 366.862 6.18862 5.35679 0
M  V30 3868 N 369.525 -1.3858 0.750561 0
M  V30 3869 C 370.455 -2.33102 0.136237 0
M  V30 3870 C 371.436 -1.54713 -0.706965 0
M  V30 3871 O 372.621 -1.83043 -0.648769 0
M  V30 3872 C 369.751 -3.38882 -0.760017 0
M  V30 3873 C 368.705 -4.27995 -0.0197785 0
M  V30 3874 C 368.031 -5.24605 -1.03408 0
M  V30 3875 C 369.331 -5.09554 1.14684 0
M  V30 3876 H 371.025 -2.84726 0.925822 0
M  V30 3877 H 368.571 -1.36898 0.446654 0
M  V30 3878 H 370.524 -4.0397 -1.19943 0
M  V30 3879 H 369.248 -2.85734 -1.58189 0
M  V30 3880 H 367.907 -3.64409 0.400184 0
M  V30 3881 H 367.555 -4.67746 -1.84994 0
M  V30 3882 H 367.255 -5.85081 -0.543464 0
M  V30 3883 H 368.779 -5.9257 -1.47288 0
M  V30 3884 H 370.193 -5.67899 0.785118 0
M  V30 3885 H 368.59 -5.7925 1.56812 0
M  V30 3886 H 369.66 -4.4347 1.96118 0
M  V30 3887 N 371.003 -0.499398 -1.49478 0
M  V30 3888 C 372.251 0.0455996 -2.02049 0
M  V30 3889 C 372.572 1.37633 -1.38138 0
M  V30 3890 O 371.842 1.8842 -0.536166 0
M  V30 3891 H 370.422 0.0198416 -0.746736 0
M  V30 3892 H 373.084 -0.656274 -1.83519 0
M  V30 3893 H 372.18 0.176445 -3.11601 0
M  V30 3894 N 372.481 1.55866 -0.233164 0
M  V30 3895 C 373.711 2.02704 0.399325 0
M  V30 3896 C 374.119 1.11204 1.53069 0
M  V30 3897 O 373.462 0.116182 1.83332 0
M  V30 3898 C 373.524 3.45844 0.981429 0
M  V30 3899 C 373.188 4.56997 -0.0159561 0
M  V30 3900 C 374.185 5.13384 -0.820552 0
M  V30 3901 C 371.87 5.0211 -0.138072 0
M  V30 3902 C 373.864 6.13365 -1.73386 0
M  V30 3903 C 371.551 6.01926 -1.0549 0
M  V30 3904 C 372.549 6.57431 -1.85132 0
M  V30 3905 O 372.237 7.55302 -2.75272 0
M  V30 3906 H 371.969 0.668459 0.100692 0
M  V30 3907 H 374.523 2.02387 -0.35052 0
M  V30 3908 H 372.753 3.43267 1.78058 0
M  V30 3909 H 374.442 3.76262 1.52255 0
M  V30 3910 H 375.208 4.79372 -0.736721 0
M  V30 3911 H 371.087 4.5858 0.471737 0
M  V30 3912 H 374.631 6.56614 -2.35592 0
M  V30 3913 H 370.528 6.35359 -1.1397 0
M  V30 3914 H 371.296 7.72867 -2.69477 0
M  V30 3915 N 373.959 -0.0401083 1.57549 0
M  V30 3916 C 375.184 -0.748931 1.93406 0
M  V30 3917 C 375.609 -1.68686 0.832274 0
M  V30 3918 O 374.967 -1.80047 -0.212818 0
M  V30 3919 C 375.015 -1.4916 3.28304 0
M  V30 3920 O 374.119 -2.6042 3.19774 0
M  V30 3921 H 373.46 -0.202212 0.63246 0
M  V30 3922 H 375.99 0.00112086 2.046 0
M  V30 3923 H 376 -1.86395 3.62934 0
M  V30 3924 H 374.675 -0.80364 4.08062 0
M  V30 3925 H 373.252 -2.25808 2.96758 0
M  V30 3926 N 375.437 -1.54477 -0.31217 0
M  V30 3927 C 376.683 -1.73483 -1.0503 0
M  V30 3928 C 377.016 -0.513125 -1.87298 0
M  V30 3929 O 376.291 0.489864 -1.8823 0
M  V30 3930 C 376.574 -3.01723 -1.96558 0
M  V30 3931 C 376.427 -4.3417 -1.17545 0
M  V30 3932 C 377.746 -3.25772 -2.95907 0
M  V30 3933 H 374.865 -0.631222 -0.380432 0
M  V30 3934 H 377.507 -1.87184 -0.325932 0
M  V30 3935 H 375.657 -2.90174 -2.58324 0
M  V30 3936 H 377.329 -4.5762 -0.581513 0
M  V30 3937 H 375.572 -4.31159 -0.477925 0
M  V30 3938 H 376.243 -5.20143 -1.84811 0
M  V30 3939 H 378.719 -3.36857 -2.44267 0
M  V30 3940 H 377.595 -4.16838 -3.57123 0
M  V30 3941 H 377.856 -2.43537 -3.68974 0
M  V30 3942 N 376.915 0.57481 -1.46744 0
M  V30 3943 C 378.163 1.33009 -1.52161 0
M  V30 3944 C 378.484 1.94185 -0.178092 0
M  V30 3945 O 377.754 1.7899 0.796196 0
M  V30 3946 H 376.334 0.493873 -0.560445 0
M  V30 3947 H 378.996 0.672589 -1.82927 0
M  V30 3948 H 378.092 2.13273 -2.27862 0
M  V30 3949 N 378.394 1.34581 0.820102 0
M  V30 3950 C 379.357 1.2628 1.91275 0
M  V30 3951 C 380.357 0.177344 1.59819 0
M  V30 3952 O 381.547 0.430156 1.68806 0
M  V30 3953 C 378.679 0.950327 3.27386 0
M  V30 3954 H 379.872 2.23421 2.00057 0
M  V30 3955 H 377.425 1.1891 1.0144 0
M  V30 3956 H 378.16 -0.0177938 3.24295 0
M  V30 3957 H 377.945 1.73549 3.51601 0
M  V30 3958 H 379.435 0.917492 4.07396 0
M  V30 3959 N 379.872 -1.04064 1.18357 0
M  V30 3960 C 381.12 -1.76915 0.977013 0
M  V30 3961 C 381.441 -1.88624 -0.494577 0
M  V30 3962 O 380.711 -1.41125 -1.3587 0
M  V30 3963 H 379.291 -0.65535 0.358504 0
M  V30 3964 H 381.953 -1.25592 1.49039 0
M  V30 3965 H 381.049 -2.78178 1.41504 0
M  V30 3966 N 381.35 -0.985608 -1.22978 0
M  V30 3967 C 382.3 -0.50118 -2.22423 0
M  V30 3968 C 383.284 0.426649 -1.5514 0
M  V30 3969 O 384.476 0.254656 -1.75159 0
M  V30 3970 C 381.605 0.190003 -3.42774 0
M  V30 3971 C 380.691 -0.757703 -4.17276 0
M  V30 3972 N 381.082 -1.90251 -4.68656 0
M  V30 3973 C 379.38 -0.57209 -4.42316 0
M  V30 3974 C 380.081 -2.49676 -5.25392 0
M  V30 3975 N 379.057 -1.78013 -5.13627 0
M  V30 3976 H 382.859 -1.37441 -2.59783 0
M  V30 3977 H 380.373 -0.846941 -1.38567 0
M  V30 3978 H 382.37 0.55439 -4.13197 0
M  V30 3979 H 381.03 1.05946 -3.06929 0
M  V30 3980 H 382.041 -2.28354 -4.64839 0
M  V30 3981 H 378.718 0.251909 -4.16739 0
M  V30 3982 H 380.108 -3.46384 -5.75732 0
M  V30 3983 N 382.828 1.3818 -0.7579 0
M  V30 3984 C 384.075 2.00019 -0.315985 0
M  V30 3985 C 384.403 1.60163 1.10355 0
M  V30 3986 O 383.658 0.83264 1.77103 0
M  V30 3987 C 383.957 3.55252 -0.391218 0
M  V30 3988 C 383.623 4.14834 -1.76702 0
M  V30 3989 C 382.285 4.30821 -2.14353 0
M  V30 3990 C 384.637 4.47658 -2.66931 0
M  V30 3991 C 381.965 4.76928 -3.41696 0
M  V30 3992 C 384.317 4.95184 -3.93669 0
M  V30 3993 C 382.981 5.09377 -4.31383 0
M  V30 3994 H 382.251 0.731923 -0.115627 0
M  V30 3995 H 384.898 1.65161 -0.969223 0
M  V30 3996 H 383.203 3.90273 0.34558 0
M  V30 3997 H 384.9 4.00988 -0.030805 0
M  V30 3998 H 381.49 4.02808 -1.46435 0
M  V30 3999 H 385.674 4.34904 -2.39106 0
M  V30 4000 H 380.93 4.86103 -3.70829 0
M  V30 4001 H 385.104 5.19551 -4.63724 0
M  V30 4002 H 382.731 5.44865 -5.30119 0
M  V30 4003 N 384.306 0.507319 1.49211 0
M  V30 4004 C 385.722 0.163682 1.58758 0
M  V30 4005 C 385.922 -1.33208 1.51188 0
M  V30 4006 O 384.978 -2.10855 1.38911 0
M  V30 4007 C 386.291 0.746095 2.91297 0
M  V30 4008 C 387.839 0.712773 3.04776 0
M  V30 4009 C 388.314 1.27336 4.39943 0
M  V30 4010 N 389.805 1.23433 4.46451 0
M  V30 4011 C 390.54 1.63821 5.495 0
M  V30 4012 N 390.036 2.11832 6.5962 0
M  V30 4013 N 391.829 1.55198 5.4025 0
M  V30 4014 H 383.98 1.47972 1.52375 0
M  V30 4015 H 386.243 0.614147 0.722168 0
M  V30 4016 H 385.949 1.79534 3.02424 0
M  V30 4017 H 385.823 0.210137 3.76614 0
M  V30 4018 H 388.21 -0.327656 2.93275 0
M  V30 4019 H 388.291 1.28595 2.21127 0
M  V30 4020 H 387.935 2.3126 4.52196 0
M  V30 4021 H 387.865 0.676066 5.22242 0
M  V30 4022 H 390.356 0.882627 3.67448 0
M  V30 4023 H 390.669 2.40703 7.34358 0
M  V30 4024 H 389.014 2.1581 6.60644 0
M  V30 4025 H 392.205 1.17505 4.53112 0
M  V30 4026 H 392.378 1.86997 6.20432 0
M  V30 4027 N 385.784 -1.5574 0.241426 0
M  V30 4028 C 387.009 -2.0366 -0.392111 0
M  V30 4029 C 387.434 -1.11969 -1.51144 0
M  V30 4030 O 386.792 -0.111594 -1.80956 0
M  V30 4031 C 386.84 -3.49638 -0.882371 0
M  V30 4032 O 385.944 -3.6108 -1.99235 0
M  V30 4033 H 385.285 -0.658379 -0.0862122 0
M  V30 4034 H 387.815 -2.01302 0.365881 0
M  V30 4035 H 387.825 -3.90351 -1.18702 0
M  V30 4036 H 386.5 -4.15852 -0.0632361 0
M  V30 4037 H 385.077 -3.32262 -1.69282 0
M  V30 4038 N 387.262 0.0317525 -1.57568 0
M  V30 4039 C 388.194 1.06073 -2.03178 0
M  V30 4040 C 389.207 1.32627 -0.944132 0
M  V30 4041 O 390.396 1.30162 -1.22148 0
M  V30 4042 C 387.496 2.40297 -2.38978 0
M  V30 4043 C 386.669 2.33137 -3.70089 0
M  V30 4044 C 385.728 3.49787 -3.9311 0
M  V30 4045 O 384.754 3.29403 -4.64201 0
M  V30 4046 N 385.956 4.71562 -3.38541 0
M  V30 4047 H 388.721 0.672006 -2.92069 0
M  V30 4048 H 386.282 0.219745 -1.60402 0
M  V30 4049 H 388.274 3.1705 -2.51518 0
M  V30 4050 H 386.844 2.71024 -1.55771 0
M  V30 4051 H 386.064 1.415 -3.67928 0
M  V30 4052 H 387.352 2.25493 -4.56104 0
M  V30 4053 H 386.75 4.91024 -2.80912 0
M  V30 4054 H 385.307 5.45689 -3.56464 0
M  V30 4055 N 388.74 1.54641 0.303973 0
M  V30 4056 C 389.69 1.8177 1.37636 0
M  V30 4057 C 390.674 0.674697 1.46071 0
M  V30 4058 O 391.866 0.935251 1.50273 0
M  V30 4059 C 388.995 2.06584 2.74186 0
M  V30 4060 C 388.081 3.2706 2.69986 0
M  V30 4061 N 388.472 4.47682 2.35402 0
M  V30 4062 C 386.77 3.29028 3.01092 0
M  V30 4063 C 387.471 5.29689 2.40426 0
M  V30 4064 N 386.447 4.67339 2.7766 0
M  V30 4065 H 390.249 2.72596 1.09857 0
M  V30 4066 H 387.763 1.541 0.51254 0
M  V30 4067 H 389.76 2.24166 3.51504 0
M  V30 4068 H 388.42 1.17024 3.02879 0
M  V30 4069 H 389.431 4.74336 2.07908 0
M  V30 4070 H 386.108 2.49565 3.34699 0
M  V30 4071 H 387.498 6.3606 2.16512 0
M  V30 4072 N 390.218 -0.567019 1.47046 0
M  V30 4073 C 391.446 -1.35027 1.56765 0
M  V30 4074 C 391.861 -1.8758 0.214316 0
M  V30 4075 O 391.218 -1.64471 -0.790919 0
M  V30 4076 C 391.269 -2.52698 2.58507 0
M  V30 4077 O 390.99 -2.0232 3.88585 0
M  V30 4078 C 392.491 -3.45043 2.78316 0
M  V30 4079 H 389.711 -0.41195 0.529658 0
M  V30 4080 H 392.255 -0.687832 1.92585 0
M  V30 4081 H 390.41 -3.149 2.25648 0
M  V30 4082 H 390.824 -2.79068 4.44096 0
M  V30 4083 H 392.298 -4.2405 3.53391 0
M  V30 4084 H 392.775 -3.97971 1.85784 0
M  V30 4085 H 393.381 -2.88665 3.12334 0
M  V30 4086 N 391.696 -1.35014 -0.812953 0
M  V30 4087 C 392.924 -1.31031 -1.6012 0
M  V30 4088 C 393.339 0.113558 -1.88458 0
M  V30 4089 O 392.696 1.06363 -1.48301 0
M  V30 4090 C 392.747 -2.10872 -2.93624 0
M  V30 4091 O 392.468 -3.47706 -2.66518 0
M  V30 4092 C 393.969 -2.14401 -3.88004 0
M  V30 4093 H 391.189 -0.45037 -0.497401 0
M  V30 4094 H 393.733 -1.77775 -1.01076 0
M  V30 4095 H 391.888 -1.67744 -3.492 0
M  V30 4096 H 392.302 -3.89097 -3.51715 0
M  V30 4097 H 393.776 -2.74669 -4.78812 0
M  V30 4098 H 394.253 -1.14105 -4.24119 0
M  V30 4099 H 394.859 -2.57662 -3.38364 0
M  V30 4100 N 393.175 1.03435 -1.18907 0
M  V30 4101 C 394.085 2.15075 -0.937015 0
M  V30 4102 C 395.101 1.73706 0.101085 0
M  V30 4103 O 396.277 2.01232 -0.0822948 0
M  V30 4104 C 393.342 3.43458 -0.473057 0
M  V30 4105 C 392.403 3.99172 -1.57989 0
M  V30 4106 C 391.636 5.21427 -1.13797 0
M  V30 4107 O 391.859 5.704 0.000725941 0
M  V30 4108 O 390.793 5.69837 -1.9383 0
M  V30 4109 H 394.619 2.39198 -1.87131 0
M  V30 4110 H 392.204 1.13506 -0.971427 0
M  V30 4111 H 394.086 4.20811 -0.222702 0
M  V30 4112 H 392.761 3.20793 0.432869 0
M  V30 4113 H 391.668 3.23178 -1.88433 0
M  V30 4114 H 393.001 4.2619 -2.46217 0
M  V30 4115 N 394.653 0.992116 1.22453 0
M  V30 4116 C 395.899 0.668523 1.91464 0
M  V30 4117 C 396.232 -0.797313 1.77078 0
M  V30 4118 O 395.507 -1.5765 1.13916 0
M  V30 4119 C 395.79 1.07424 3.43703 0
M  V30 4120 C 395.643 2.59857 3.67143 0
M  V30 4121 C 396.962 0.626891 4.35612 0
M  V30 4122 H 394.081 0.244341 0.695318 0
M  V30 4123 H 396.723 1.2355 1.44345 0
M  V30 4124 H 394.873 0.591816 3.83966 0
M  V30 4125 H 396.545 3.15764 3.3629 0
M  V30 4126 H 394.788 3.01961 3.11451 0
M  V30 4127 H 395.459 2.83296 4.73759 0
M  V30 4128 H 397.935 1.04125 4.02861 0
M  V30 4129 H 396.811 0.939076 5.40807 0
M  V30 4130 H 397.072 -0.472457 4.39568 0
M  V30 4131 N 396.131 -1.37776 0.765217 0
M  V30 4132 C 397.377 -2.00145 0.327072 0
M  V30 4133 C 397.71 -1.60607 -1.09175 0
M  V30 4134 O 396.985 -0.849127 -1.74986 0
M  V30 4135 C 397.268 -3.57109 0.46319 0
M  V30 4136 C 397.121 -4.06576 1.92395 0
M  V30 4137 C 398.44 -4.39888 -0.136473 0
M  V30 4138 H 395.559 -0.727113 0.120316 0
M  V30 4139 H 398.201 -1.63549 0.967039 0
M  V30 4140 H 396.351 -3.88414 -0.0816358 0
M  V30 4141 H 398.023 -3.85864 2.52798 0
M  V30 4142 H 396.266 -3.59011 2.43503 0
M  V30 4143 H 396.937 -5.15639 1.97028 0
M  V30 4144 H 399.413 -4.14803 0.328317 0
M  V30 4145 H 398.289 -5.48899 -0.0110582 0
M  V30 4146 H 398.55 -4.24758 -1.22608 0
M  V30 4147 N 397.609 -0.515225 -1.4894 0
M  V30 4148 C 398.857 0.0241671 -2.02086 0
M  V30 4149 C 399.178 1.3616 -1.3959 0
M  V30 4150 O 398.448 1.87841 -0.556121 0
M  V30 4151 H 397.028 0.0119203 -0.746905 0
M  V30 4152 H 399.69 -0.675702 -1.82812 0
M  V30 4153 H 398.786 0.143385 -3.1177 0
M  V30 4154 N 399.087 1.5561 -0.249682 0
M  V30 4155 C 400.335 1.98618 0.373548 0
M  V30 4156 C 400.656 1.13919 1.58264 0
M  V30 4157 O 399.926 0.222637 1.94631 0
M  V30 4158 H 398.506 0.733571 0.141006 0
M  V30 4159 H 401.168 1.91748 -0.349117 0
M  V30 4160 H 400.264 3.04584 0.680796 0
M  V30 4161 N 400.565 -0.0233959 1.57583 0
M  V30 4162 C 401.528 -1.00693 2.05897 0
M  V30 4163 C 402.528 -1.28693 0.964092 0
M  V30 4164 O 403.718 -1.23602 1.22753 0
M  V30 4165 C 400.85 -2.33825 2.4807 0
M  V30 4166 H 402.043 -0.589476 2.9405 0
M  V30 4167 H 399.596 -0.270354 1.53944 0
M  V30 4168 H 400.331 -2.80307 1.6309 0
M  V30 4169 H 400.116 -2.1483 3.2801 0
M  V30 4170 H 401.606 -3.04426 2.85857 0
M  V30 4171 N 402.043 -1.548 -0.295768 0
M  V30 4172 C 403.454 -1.65274 -0.868411 0
M  V30 4173 C 403.805 -0.56481 -1.87894 0
M  V30 4174 O 402.93 0.29767 -2.14343 0
M  V30 4175 C 403.525 -2.99603 -1.58188 0
M  V30 4176 C 402.084 -3.12181 -2.10286 0
M  V30 4177 C 401.231 -2.6098 -0.93727 0
M  V30 4178 H 404.182 -1.58534 -0.0726422 0
M  V30 4179 H 404.203 -2.91319 -2.44772 0
M  V30 4180 H 403.715 -3.78764 -0.846151 0
M  V30 4181 H 401.816 -2.3775 -2.8689 0
M  V30 4182 H 401.929 -4.18415 -2.33379 0
M  V30 4183 H 400.293 -2.17564 -1.32431 0
M  V30 4184 H 401.076 -3.42623 -0.215414 0
M  V30 4185 N 403.521 0.559213 -1.47345 0
M  V30 4186 C 404.453 1.68161 -1.55738 0
M  V30 4187 C 405.466 1.56636 -0.443744 0
M  V30 4188 O 406.655 1.6363 -0.713258 0
M  V30 4189 C 403.755 3.06611 -1.4437 0
M  V30 4190 C 402.928 3.4391 -2.70268 0
M  V30 4191 C 401.987 4.61515 -2.52765 0
M  V30 4192 O 401.013 4.66197 -3.26572 0
M  V30 4193 N 402.215 5.57883 -1.6046 0
M  V30 4194 H 404.98 1.61408 -2.52522 0
M  V30 4195 H 402.541 0.7458 -1.43699 0
M  V30 4196 H 404.533 3.83117 -1.30398 0
M  V30 4197 H 403.103 3.07602 -0.556766 0
M  V30 4198 H 402.323 2.56873 -2.99015 0
M  V30 4199 H 403.611 3.65605 -3.53851 0
M  V30 4200 H 403.009 5.56855 -0.996422 0
M  V30 4201 H 401.566 6.33723 -1.52441 0
M  V30 4202 N 404.999 1.35443 0.805782 0
M  V30 4203 C 405.949 1.24972 1.90699 0
M  V30 4204 C 406.933 0.144806 1.60247 0
M  V30 4205 O 408.125 0.376102 1.72958 0
M  V30 4206 C 405.254 1.02475 3.27649 0
M  V30 4207 C 404.34 2.17361 3.64164 0
M  V30 4208 N 404.731 3.42591 3.72109 0
M  V30 4209 C 403.029 2.08765 3.94123 0
M  V30 4210 C 403.73 4.18144 4.04389 0
M  V30 4211 N 402.706 3.4691 4.18515 0
M  V30 4212 H 406.508 2.19852 1.95044 0
M  V30 4213 H 404.022 1.27928 1.00041 0
M  V30 4214 H 406.019 0.930617 4.06381 0
M  V30 4215 H 404.679 0.0848009 3.24589 0
M  V30 4216 H 405.69 3.76932 3.55166 0
M  V30 4217 H 402.367 1.22629 3.99084 0
M  V30 4218 H 403.757 5.26367 4.17597 0
M  V30 4219 N 406.477 -1.02803 1.19454 0
M  V30 4220 C 407.387 -2.14575 0.948408 0
M  V30 4221 C 408.403 -1.73757 -0.091871 0
M  V30 4222 O 409.579 -2.01185 0.0929654 0
M  V30 4223 C 406.644 -3.43202 0.491265 0
M  V30 4224 C 405.705 -3.98328 1.60103 0
M  V30 4225 C 404.938 -5.20816 1.16561 0
M  V30 4226 O 405.161 -5.70392 0.0295238 0
M  V30 4227 O 404.095 -5.68801 1.96849 0
M  V30 4228 H 407.921 -2.38202 1.88397 0
M  V30 4229 H 405.506 -1.12989 0.977433 0
M  V30 4230 H 407.388 -4.20687 0.245015 0
M  V30 4231 H 406.063 -3.21018 -0.415851 0
M  V30 4232 H 404.97 -3.22174 1.90144 0
M  V30 4233 H 406.303 -4.24879 2.48473 0
M  V30 4234 N 407.956 -0.998596 -1.21925 0
M  V30 4235 C 408.888 -0.511879 -2.23411 0
M  V30 4236 C 409.901 0.396094 -1.57908 0
M  V30 4237 O 411.09 0.197316 -1.77406 0
M  V30 4238 C 408.19 0.276802 -3.37768 0
M  V30 4239 C 407.363 -0.628687 -4.32858 0
M  V30 4240 C 406.422 0.109272 -5.26087 0
M  V30 4241 O 405.448 -0.507237 -5.66935 0
M  V30 4242 N 406.65 1.38983 -5.63617 0
M  V30 4243 H 409.415 -1.38457 -2.658 0
M  V30 4244 H 406.976 -0.873981 -1.36283 0
M  V30 4245 H 408.968 0.77928 -3.97126 0
M  V30 4246 H 407.538 1.05063 -2.94415 0
M  V30 4247 H 406.758 -1.31175 -3.71735 0
M  V30 4248 H 408.046 -1.24514 -4.93329 0
M  V30 4249 H 407.444 1.91194 -5.32411 0
M  V30 4250 H 406.001 1.83739 -6.25367 0
M  V30 4251 N 409.434 1.37368 -0.772513 0
M  V30 4252 C 410.683 1.98918 -0.333861 0
M  V30 4253 C 410.996 1.62017 1.09589 0
M  V30 4254 O 412.202 2.16676 1.63596 0
M  V30 4255 C 410.658 3.55735 -0.545971 0
M  V30 4256 C 410.266 4.01573 -1.98603 0
M  V30 4257 C 412.01 4.24156 -0.170979 0
M  V30 4258 C 409.917 5.51102 -2.1457 0
M  V30 4259 H 408.847 0.744214 -0.121085 0
M  V30 4260 H 411.498 1.56888 -0.95175 0
M  V30 4261 H 409.88 3.95748 0.141387 0
M  V30 4262 H 411.054 3.72803 -2.7084 0
M  V30 4263 H 409.369 3.45937 -2.31769 0
M  V30 4264 H 411.966 5.34024 -0.26878 0
M  V30 4265 H 412.309 4.06917 0.878855 0
M  V30 4266 H 412.842 3.89447 -0.810914 0
M  V30 4267 H 409.581 5.73268 -3.17875 0
M  V30 4268 H 409.101 5.81554 -1.46817 0
M  V30 4269 H 410.78 6.17083 -1.94468 0
M  V30 4270 N 410.912 0.523116 1.48665 0
M  V30 4271 C 412.16 -0.0134497 2.02096 0
M  V30 4272 C 412.481 -1.35418 1.40311 0
M  V30 4273 O 411.751 -1.87543 0.566074 0
M  V30 4274 H 410.331 -0.00795915 0.746958 0
M  V30 4275 H 412.993 0.685388 1.82451 0
M  V30 4276 H 412.089 -0.126849 3.11842 0
M  V30 4277 N 412.39 -1.55475 0.257931 0
M  V30 4278 C 413.337 -2.21837 -0.636939 0
M  V30 4279 C 414.307 -1.18596 -1.16294 0
M  V30 4280 O 415.492 -1.47081 -1.21539 0
M  V30 4281 C 412.632 -2.9301 -1.82317 0
M  V30 4282 C 411.745 -4.10931 -1.33265 0
M  V30 4283 C 410.88 -4.69791 -2.47931 0
M  V30 4284 C 409.919 -5.7994 -1.95796 0
M  V30 4285 N 409.056 -6.32935 -3.0387 0
M  V30 4286 H 413.896 -2.9793 -0.0643591 0
M  V30 4287 H 411.433 -1.47086 -0.0200031 0
M  V30 4288 H 413.391 -3.3248 -2.52018 0
M  V30 4289 H 412.021 -2.1937 -2.36805 0
M  V30 4290 H 411.073 -3.76699 -0.52931 0
M  V30 4291 H 412.385 -4.90417 -0.910654 0
M  V30 4292 H 411.539 -5.11892 -3.25656 0
M  V30 4293 H 410.278 -3.89545 -2.93438 0
M  V30 4294 H 409.283 -5.37305 -1.16546 0
M  V30 4295 H 410.508 -6.62043 -1.51246 0
M  V30 4296 H 408.454 -5.55591 -3.48791 0
M  V30 4297 H 408.371 -7.07645 -2.66035 0
M  V30 4298 H 409.639 -6.79695 -3.81621 0
M  V30 4299 N 413.868 0.0150385 -1.57593 0
M  V30 4300 C 414.831 0.995996 -2.06428 0
M  V30 4301 C 415.831 1.2818 -0.970903 0
M  V30 4302 O 417.021 1.22949 -1.23406 0
M  V30 4303 C 414.153 2.32506 -2.49307 0
M  V30 4304 H 415.346 0.573873 -2.94358 0
M  V30 4305 H 412.899 0.262186 -1.54085 0
M  V30 4306 H 413.634 2.79438 -1.64575 0
M  V30 4307 H 413.419 2.13087 -3.29145 0
M  V30 4308 H 414.909 3.02906 -2.87468 0
M  V30 4309 N 415.346 1.54954 0.287554 0
M  V30 4310 C 416.576 1.78622 1.03816 0
M  V30 4311 C 416.984 0.552451 1.80955 0
M  V30 4312 O 416.327 -0.487665 1.77109 0
M  V30 4313 C 416.389 2.94975 2.055 0
M  V30 4314 C 416.053 4.32565 1.47433 0
M  V30 4315 C 417.05 5.12096 0.897436 0
M  V30 4316 C 414.735 4.79195 1.50591 0
M  V30 4317 C 416.729 6.36383 0.359851 0
M  V30 4318 C 414.416 6.03441 0.964459 0
M  V30 4319 C 415.414 6.81872 0.392413 0
M  V30 4320 O 415.102 8.03777 -0.140788 0
M  V30 4321 H 414.834 0.599144 0.313053 0
M  V30 4322 H 417.388 2.02761 0.328225 0
M  V30 4323 H 415.618 2.66493 2.80211 0
M  V30 4324 H 417.307 3.06097 2.6657 0
M  V30 4325 H 418.073 4.77209 0.865841 0
M  V30 4326 H 413.952 4.18167 1.94055 0
M  V30 4327 H 417.496 6.97545 -0.0872951 0
M  V30 4328 H 413.393 6.37813 0.993246 0
M  V30 4329 H 414.161 8.18495 -0.0287617 0
M  V30 4330 N 416.824 -0.551391 1.4764 0
M  V30 4331 C 418.073 -1.30467 1.53822 0
M  V30 4332 C 418.386 -1.94495 0.207661 0
M  V30 4333 O 419.592 -2.71099 0.147533 0
M  V30 4334 C 418.048 -2.36616 2.71184 0
M  V30 4335 C 417.656 -1.78754 4.10793 0
M  V30 4336 C 419.4 -3.13088 2.86663 0
M  V30 4337 C 417.307 -2.82717 5.19447 0
M  V30 4338 H 416.237 -0.490584 0.572576 0
M  V30 4339 H 418.888 -0.58494 1.73927 0
M  V30 4340 H 417.27 -3.11529 2.4447 0
M  V30 4341 H 418.444 -1.10173 4.47435 0
M  V30 4342 H 416.759 -1.14846 4.00249 0
M  V30 4343 H 419.356 -3.90736 3.65007 0
M  V30 4344 H 419.699 -3.67635 1.95321 0
M  V30 4345 H 420.232 -2.45288 3.13175 0
M  V30 4346 H 416.971 -2.33018 6.12685 0
M  V30 4347 H 416.491 -3.4969 4.87316 0
M  V30 4348 H 418.17 -3.46102 5.46646 0
M  V30 4349 N 418.302 -1.35869 -0.798587 0
M  V30 4350 C 419.549 -1.29588 -1.55606 0
M  V30 4351 C 419.877 0.127456 -1.94082 0
M  V30 4352 O 419.132 1.09461 -1.62225 0
M  V30 4353 C 419.431 -2.1556 -2.85077 0
M  V30 4354 C 419.097 -3.6424 -2.65781 0
M  V30 4355 C 417.759 -4.04766 -2.60227 0
M  V30 4356 C 420.111 -4.58547 -2.47758 0
M  V30 4357 C 417.439 -5.37753 -2.34603 0
M  V30 4358 C 419.791 -5.91742 -2.23662 0
M  V30 4359 C 418.455 -6.31402 -2.16534 0
M  V30 4360 H 417.725 -0.474197 -0.569402 0
M  V30 4361 H 420.372 -1.67839 -0.922086 0
M  V30 4362 H 418.677 -1.70216 -3.52893 0
M  V30 4363 H 420.374 -2.08031 -3.42818 0
M  V30 4364 H 416.964 -3.32086 -2.70956 0
M  V30 4365 H 421.148 -4.28117 -2.51056 0
M  V30 4366 H 416.404 -5.67474 -2.2756 0
M  V30 4367 H 420.578 -6.6439 -2.08708 0
M  V30 4368 H 418.205 -7.34381 -1.96441 0
M  V30 4369 N 419.78 1.02168 -1.19998 0
M  V30 4370 C 421.005 1.79833 -1.03319 0
M  V30 4371 C 421.43 1.83504 0.413281 0
M  V30 4372 O 420.788 1.26635 1.29743 0
M  V30 4373 C 420.836 3.22396 -1.61533 0
M  V30 4374 O 419.94 4.03555 -0.849519 0
M  V30 4375 H 419.281 0.554872 -0.364709 0
M  V30 4376 H 421.811 1.28542 -1.59179 0
M  V30 4377 H 421.821 3.73124 -1.65054 0
M  V30 4378 H 420.496 3.19039 -2.66809 0
M  V30 4379 H 419.073 3.62169 -0.888129 0
M  V30 4380 N 421.258 1.00505 1.21394 0
M  V30 4381 C 422.507 0.683159 1.89778 0
M  V30 4382 C 422.82 -0.789471 1.7896 0
M  V30 4383 O 424.026 -1.22344 2.42372 0
M  V30 4384 C 422.482 1.17146 3.40301 0
M  V30 4385 C 422.09 2.67017 3.5973 0
M  V30 4386 C 423.834 0.924461 4.14311 0
M  V30 4387 C 421.741 3.09387 5.04017 0
M  V30 4388 H 420.671 0.25183 0.710702 0
M  V30 4389 H 423.322 1.21622 1.37406 0
M  V30 4390 H 421.704 0.566451 3.91928 0
M  V30 4391 H 422.878 3.32968 3.18542 0
M  V30 4392 H 421.193 2.89732 2.99073 0
M  V30 4393 H 423.79 1.21658 5.20676 0
M  V30 4394 H 424.133 -0.139286 4.16067 0
M  V30 4395 H 424.666 1.49226 3.6875 0
M  V30 4396 H 421.405 4.14989 5.07409 0
M  V30 4397 H 420.925 2.48149 5.46061 0
M  V30 4398 H 422.604 3.01371 5.72525 0
M  V30 4399 N 422.737 -1.36956 0.779787 0
M  V30 4400 C 424.014 -1.93697 0.272156 0
M  V30 4401 C 424.394 -1.71267 -1.23413 0
M  V30 4402 O 423.742 -1.06607 -2.02107 0
M  V30 4403 C 423.952 -3.42812 0.654291 0
M  V30 4404 C 425.3 -4.19921 0.628602 0
M  V30 4405 O 426.324 -3.51209 0.594172 0
M  V30 4406 O 425.183 -5.42465 0.662864 0
M  V30 4407 H 422.277 -0.824447 0.0649286 0
M  V30 4408 H 424.823 -1.46196 0.861682 0
M  V30 4409 H 423.595 -3.52754 1.69353 0
M  V30 4410 H 423.218 -3.97582 0.0381369 0
M  V30 4411 N 424.215 -0.530993 -1.48385 0
M  V30 4412 C 425.125 0.23503 -2.3342 0
M  V30 4413 C 426.141 0.93801 -1.46552 0
M  V30 4414 O 427.317 0.912745 -1.7953 0
M  V30 4415 C 424.382 1.26778 -3.22689 0
M  V30 4416 C 423.443 0.575038 -4.25431 0
M  V30 4417 C 422.676 1.55858 -5.10435 0
M  V30 4418 O 422.899 2.79129 -4.97437 0
M  V30 4419 O 421.833 1.09742 -5.91811 0
M  V30 4420 H 425.659 -0.461794 -3.00169 0
M  V30 4421 H 423.244 -0.291903 -1.46521 0
M  V30 4422 H 425.126 1.86457 -3.77904 0
M  V30 4423 H 423.801 1.94699 -2.586 0
M  V30 4424 H 422.708 -0.0622782 -3.74048 0
M  V30 4425 H 424.041 -0.062253 -4.92161 0
M  V30 4426 N 425.693 1.55336 -0.266172 0
M  V30 4427 C 426.64 2.22172 0.625165 0
M  V30 4428 C 427.61 1.19211 1.15663 0
M  V30 4429 O 428.795 1.47723 1.20758 0
M  V30 4430 C 425.935 2.93972 1.8076 0
M  V30 4431 C 425.048 4.11632 1.31084 0
M  V30 4432 C 424.183 4.71099 2.45436 0
M  V30 4433 C 423.222 5.8097 1.92718 0
M  V30 4434 N 422.359 6.34538 3.00509 0
M  V30 4435 H 427.199 2.9796 0.0485582 0
M  V30 4436 H 424.736 1.47095 0.0122024 0
M  V30 4437 H 426.694 3.33811 2.50251 0
M  V30 4438 H 425.324 2.20623 2.35638 0
M  V30 4439 H 424.376 3.76975 0.509326 0
M  V30 4440 H 425.688 4.90893 0.884633 0
M  V30 4441 H 424.842 5.13612 3.22936 0
M  V30 4442 H 423.581 3.91096 2.91368 0
M  V30 4443 H 422.586 5.37916 1.13695 0
M  V30 4444 H 423.811 6.62836 1.47733 0
M  V30 4445 H 421.757 5.57433 3.45839 0
M  V30 4446 H 421.674 7.09046 2.62279 0
M  V30 4447 H 422.942 6.81709 3.78011 0
M  V30 4448 N 427.171 -0.0066808 1.57599 0
M  V30 4449 C 428.081 -1.01671 2.11424 0
M  V30 4450 C 429.097 -1.38143 1.05795 0
M  V30 4451 O 430.273 -1.47011 1.37658 0
M  V30 4452 C 427.338 -2.29192 2.60139 0
M  V30 4453 C 426.399 -1.99094 3.80342 0
M  V30 4454 C 425.632 -3.20535 4.26724 0
M  V30 4455 O 425.855 -4.3199 3.72479 0
M  V30 4456 O 424.789 -3.04924 5.18946 0
M  V30 4457 H 428.615 -0.589181 2.9793 0
M  V30 4458 H 426.2 -0.225091 1.47695 0
M  V30 4459 H 428.082 -3.0412 2.917 0
M  V30 4460 H 426.757 -2.71195 1.76733 0
M  V30 4461 H 425.664 -1.21663 3.53764 0
M  V30 4462 H 426.997 -1.61931 4.648 0
M  V30 4463 N 428.649 -1.55105 -0.279332 0
M  V30 4464 C 429.579 -1.90557 -1.34945 0
M  V30 4465 C 430.56 -0.766738 -1.51839 0
M  V30 4466 O 431.745 -1.02434 -1.64988 0
M  V30 4467 C 428.875 -2.17193 -2.71006 0
M  V30 4468 C 427.829 -3.33021 -2.68851 0
M  V30 4469 C 427.155 -3.45123 -4.08405 0
M  V30 4470 C 428.455 -4.69578 -2.28678 0
M  V30 4471 H 430.149 -2.80188 -1.05522 0
M  V30 4472 H 427.695 -1.34811 -0.506173 0
M  V30 4473 H 429.648 -2.40581 -3.45975 0
M  V30 4474 H 428.372 -1.24355 -3.01999 0
M  V30 4475 H 427.031 -3.0959 -1.9634 0
M  V30 4476 H 426.679 -2.49762 -4.3661 0
M  V30 4477 H 426.379 -4.22995 -4.07859 0
M  V30 4478 H 427.903 -3.70796 -4.85121 0
M  V30 4479 H 429.317 -4.92553 -2.93368 0
M  V30 4480 H 427.714 -5.5032 -2.39306 0
M  V30 4481 H 428.784 -4.68828 -1.23807 0
M  V30 4482 N 430.127 0.543554 -1.4793 0
M  V30 4483 C 431.075 1.67039 -1.61866 0
M  V30 4484 C 432.069 1.62294 -0.48549 0
M  V30 4485 O 433.275 1.67315 -0.66376 0
M  V30 4486 H 429.65 0.552954 -0.509652 0
M  V30 4487 H 431.621 1.52426 -2.56533 0
M  V30 4488 C 430.37 3.05357 -1.6629 0
M  V30 4489 H 429.693 3.09696 -2.5284 0
M  V30 4490 H 431.133 3.83855 -1.80088 0
M  V30 4491 C 429.592 3.34531 -0.398861 0
M  V30 4492 O 430.122 3.98649 0.494162 0
M  V30 4493 N 428.328 2.89299 -0.2747 0
M  V30 4494 H 427.875 2.37298 -1.00236 0
M  V30 4495 H 427.833 3.09188 0.570075 0
M  V30 4496 N 431.605 1.3629 0.791371 0
M  V30 4497 C 432.854 1.29742 1.54434 0
M  V30 4498 C 433.167 -0.121729 1.95221 0
M  V30 4499 O 434.373 -0.309579 2.69729 0
M  V30 4500 C 432.829 2.27623 2.78776 0
M  V30 4501 C 432.437 3.74963 2.45166 0
M  V30 4502 C 434.181 2.30047 3.56761 0
M  V30 4503 C 432.088 4.64626 3.65891 0
M  V30 4504 H 431.018 0.482113 0.579727 0
M  V30 4505 H 433.669 1.61642 0.868565 0
M  V30 4506 H 432.051 1.88714 3.48142 0
M  V30 4507 H 433.225 4.22596 1.83709 0
M  V30 4508 H 431.54 3.75295 1.80396 0
M  V30 4509 H 434.137 2.94247 4.46456 0
M  V30 4510 H 434.48 1.30846 3.95203 0
M  V30 4511 H 435.013 2.67563 2.94372 0
M  V30 4512 H 431.752 5.64883 3.32547 0
M  V30 4513 H 431.272 4.2171 4.26521 0
M  V30 4514 H 432.951 4.80801 4.32943 0
M  V30 4515 N 433.083 -1.0153 1.20538 0
M  V30 4516 C 434.013 -2.11972 0.979295 0
M  V30 4517 C 434.994 -1.6985 -0.0921787 0
M  V30 4518 O 436.179 -1.94089 0.0655932 0
M  V30 4519 C 433.309 -3.43201 0.531984 0
M  V30 4520 C 432.263 -3.9907 1.54685 0
M  V30 4521 C 431.589 -5.26082 0.956127 0
M  V30 4522 C 432.889 -4.32313 2.93092 0
M  V30 4523 H 434.583 -2.31143 1.90298 0
M  V30 4524 H 432.129 -1.11079 0.916372 0
M  V30 4525 H 434.082 -4.1985 0.361044 0
M  V30 4526 H 432.806 -3.23792 -0.427327 0
M  V30 4527 H 431.465 -3.2453 1.70517 0
M  V30 4528 H 431.113 -5.02999 -0.0111538 0
M  V30 4529 H 430.813 -5.64426 1.63393 0
M  V30 4530 H 432.337 -6.05386 0.796284 0
M  V30 4531 H 433.751 -4.99845 2.80763 0
M  V30 4532 H 432.148 -4.81774 3.57791 0
M  V30 4533 H 433.218 -3.41025 3.44717 0
M  V30 4534 N 434.561 -1.01147 -1.20859 0
M  V30 4535 C 435.511 -0.548247 -2.2131 0
M  V30 4536 C 436.495 0.393646 -1.5601 0
M  V30 4537 O 437.687 0.217445 -1.75659 0
M  V30 4538 C 434.816 0.117252 -3.431 0
M  V30 4539 C 433.902 -0.846043 -4.15575 0
M  V30 4540 N 434.293 -2.00149 -4.64515 0
M  V30 4541 C 432.591 -0.665783 -4.41003 0
M  V30 4542 C 433.292 -2.60764 -5.19978 0
M  V30 4543 N 432.268 -1.88868 -5.09735 0
M  V30 4544 H 436.07 -1.42921 -2.56809 0
M  V30 4545 H 433.584 -0.876142 -1.36739 0
M  V30 4546 H 435.581 0.46662 -4.1428 0
M  V30 4547 H 434.241 0.994115 -3.09107 0
M  V30 4548 H 435.252 -2.38162 -4.5989 0
M  V30 4549 H 431.929 0.163456 -4.1718 0
M  V30 4550 H 433.319 -3.58519 -5.68255 0
M  V30 4551 N 436.039 1.36541 -0.78704 0
M  V30 4552 C 436.949 2.3387 -0.184896 0
M  V30 4553 C 437.965 1.60927 0.661697 0
M  V30 4554 O 439.141 1.92927 0.57804 0
M  V30 4555 C 436.206 3.40122 0.672145 0
M  V30 4556 C 435.267 4.28867 -0.19267 0
M  V30 4557 C 434.5 5.30045 0.623561 0
M  V30 4558 O 434.723 5.39232 1.8597 0
M  V30 4559 O 433.657 6.01895 0.0247068 0
M  V30 4560 H 437.483 2.87126 -0.989562 0
M  V30 4561 H 435.068 1.38969 -0.548455 0
M  V30 4562 H 436.95 4.05093 1.16094 0
M  V30 4563 H 435.625 2.89169 1.45474 0
M  V30 4564 H 434.532 3.66945 -0.728166 0
M  V30 4565 H 435.865 4.83165 -0.938722 0
M  V30 4566 N 437.518 0.538854 1.48102 0
M  V30 4567 C 438.451 -0.266495 2.26639 0
M  V30 4568 C 439.429 -0.93687 1.32897 0
M  V30 4569 O 440.613 -0.959507 1.62252 0
M  V30 4570 C 437.74 -1.37814 3.09394 0
M  V30 4571 C 436.786 -0.818247 4.18577 0
M  V30 4572 S 437.619 0.320848 5.34538 0
M  V30 4573 C 438.775 -0.793059 6.20855 0
M  V30 4574 H 439.008 0.399994 2.94597 0
M  V30 4575 H 436.541 0.324808 1.50945 0
M  V30 4576 H 438.499 -2.01488 3.57649 0
M  V30 4577 H 437.16 -2.01639 2.40833 0
M  V30 4578 H 436.353 -1.65247 4.7614 0
M  V30 4579 H 435.955 -0.258036 3.73109 0
M  V30 4580 H 438.247 -1.68961 6.56093 0
M  V30 4581 H 439.19 -0.255204 7.0764 0
M  V30 4582 H 439.598 -1.07746 5.54122 0
M  V30 4583 N 438.996 -1.55193 0.274407 0
M  V30 4584 C 439.943 -2.225 -0.613374 0
M  V30 4585 C 440.913 -1.19823 -1.15029 0
M  V30 4586 O 442.098 -1.48362 -1.19973 0
M  V30 4587 C 439.238 -2.94927 -1.79199 0
M  V30 4588 C 438.351 -4.12322 -1.28899 0
M  V30 4589 C 437.486 -4.72394 -2.42934 0
M  V30 4590 C 436.525 -5.81984 -1.89634 0
M  V30 4591 N 435.662 -6.36123 -2.9714 0
M  V30 4592 H 440.502 -2.97982 -0.032756 0
M  V30 4593 H 438.039 -1.47099 -0.00440146 0
M  V30 4594 H 439.997 -3.35134 -2.48478 0
M  V30 4595 H 438.627 -2.2187 -2.34465 0
M  V30 4596 H 437.679 -3.7724 -0.489327 0
M  V30 4597 H 438.991 -4.91355 -0.858587 0
M  V30 4598 H 438.145 -5.15317 -3.20208 0
M  V30 4599 H 436.884 -3.92636 -2.8929 0
M  V30 4600 H 435.889 -5.38511 -1.1084 0
M  V30 4601 H 437.114 -6.6361 -1.44215 0
M  V30 4602 H 435.06 -5.59259 -3.42878 0
M  V30 4603 H 434.977 -7.10427 -2.58515 0
M  V30 4604 H 436.245 -6.83704 -3.74391 0
M  V30 4605 N 440.474 -0.00167713 -1.576 0
M  V30 4606 C 441.722 0.681471 -1.90264 0
M  V30 4607 C 442.043 1.7422 -0.875924 0
M  V30 4608 O 441.313 1.95709 0.0864412 0
M  V30 4609 H 439.893 0.254696 -0.702239 0
M  V30 4610 H 442.555 -0.0429996 -1.94853 0
M  V30 4611 H 441.651 1.15166 -2.90075 0
M  V30 4612 N 441.952 1.55251 0.271103 0
M  V30 4613 C 442.899 1.88261 1.33516 0
M  V30 4614 C 443.869 0.734296 1.48988 0
M  V30 4615 O 445.054 0.985741 1.63364 0
M  V30 4616 C 442.194 2.16168 2.69008 0
M  V30 4617 C 441.307 3.43678 2.61743 0
M  V30 4618 C 440.442 3.61276 3.89427 0
M  V30 4619 C 439.481 4.82472 3.7668 0
M  V30 4620 N 438.618 4.96717 4.96202 0
M  V30 4621 H 443.458 2.79015 1.04665 0
M  V30 4622 H 440.995 1.38137 0.505618 0
M  V30 4623 H 442.953 2.30349 3.47844 0
M  V30 4624 H 441.583 1.28646 2.96057 0
M  V30 4625 H 440.635 3.37959 1.74607 0
M  V30 4626 H 441.947 4.3265 2.48224 0
M  V30 4627 H 441.101 3.75284 4.76704 0
M  V30 4628 H 439.84 2.70492 4.05814 0
M  V30 4629 H 438.845 4.68465 2.87786 0
M  V30 4630 H 440.07 5.74692 3.61809 0
M  V30 4631 H 438.016 4.08865 5.12997 0
M  V30 4632 H 437.933 5.79738 4.85222 0
M  V30 4633 H 439.201 5.15113 5.85046 0
M  V30 4634 N 443.43 -0.535701 1.48216 0
M  V30 4635 C 444.377 -1.64083 1.62312 0
M  V30 4636 C 445.347 -1.59448 0.465365 0
M  V30 4637 O 446.532 -1.77959 0.688135 0
M  V30 4638 C 443.672 -3.0236 1.66349 0
M  V30 4639 C 442.785 -3.17273 2.93193 0
M  V30 4640 C 441.92 -4.46075 2.88427 0
M  V30 4641 C 440.959 -4.54496 4.1 0
M  V30 4642 N 440.096 -5.7468 4.03345 0
M  V30 4643 H 444.936 -1.51374 2.5669 0
M  V30 4644 H 442.473 -0.737059 1.27302 0
M  V30 4645 H 444.431 -3.82461 1.66672 0
M  V30 4646 H 443.061 -3.13854 0.754672 0
M  V30 4647 H 442.113 -2.30462 3.02641 0
M  V30 4648 H 443.425 -3.19357 3.83162 0
M  V30 4649 H 442.579 -5.3446 2.87119 0
M  V30 4650 H 441.318 -4.46504 1.96177 0
M  V30 4651 H 440.323 -3.64519 4.11589 0
M  V30 4652 H 441.548 -4.5581 5.03402 0
M  V30 4653 H 439.494 -5.76017 3.13912 0
M  V30 4654 H 439.411 -5.78234 4.87013 0
M  V30 4655 H 440.679 -6.65367 4.06087 0
M  V30 4656 N 444.908 -1.36708 -0.784132 0
M  V30 4657 C 445.838 -1.34153 -1.91116 0
M  V30 4658 C 446.819 -0.212121 -1.68772 0
M  V30 4659 O 448.004 -0.410581 -1.8981 0
M  V30 4660 C 445.134 -1.13535 -3.28218 0
M  V30 4661 C 444.088 -2.23356 -3.65097 0
M  V30 4662 C 443.414 -1.87875 -5.00607 0
M  V30 4663 C 444.714 -3.65473 -3.73131 0
M  V30 4664 H 446.408 -2.28459 -1.93512 0
M  V30 4665 H 443.954 -1.09973 -0.929618 0
M  V30 4666 H 445.907 -1.10381 -4.06687 0
M  V30 4667 H 444.631 -0.156804 -3.26223 0
M  V30 4668 H 443.29 -2.25645 -2.88929 0
M  V30 4669 H 442.938 -0.885814 -4.95139 0
M  V30 4670 H 442.638 -2.61406 -5.26252 0
M  V30 4671 H 444.162 -1.86286 -5.81489 0
M  V30 4672 H 445.576 -3.65382 -4.41779 0
M  V30 4673 H 443.973 -4.37953 -4.10265 0
M  V30 4674 H 445.043 -3.99995 -2.74102 0
M  V30 4675 N 446.386 1.0089 -1.21074 0
M  V30 4676 C 447.634 1.74262 -1.02358 0
M  V30 4677 C 447.955 1.89869 0.444393 0
M  V30 4678 O 447.225 1.44677 1.32081 0
M  V30 4679 H 445.805 0.645615 -0.375754 0
M  V30 4680 H 448.467 1.21596 -1.52317 0
M  V30 4681 H 447.563 2.74328 -1.4883 0
M  V30 4682 N 447.864 1.01787 1.20321 0
M  V30 4683 C 449.089 0.727009 1.9424 0
M  V30 4684 C 449.514 -0.706179 1.74341 0
M  V30 4685 O 448.872 -1.48609 1.03852 0
M  V30 4686 C 448.92 1.06958 3.44372 0
M  V30 4687 O 448.024 0.181983 4.11998 0
M  V30 4688 H 447.365 0.269626 0.606793 0
M  V30 4689 H 449.895 1.36158 1.52716 0
M  V30 4690 H 449.905 1.02182 3.94997 0
M  V30 4691 H 448.58 2.11378 3.58179 0
M  V30 4692 H 447.157 0.287378 3.71791 0
M  V30 4693 N 449.342 -1.36122 0.79427 0
M  V30 4694 C 450.572 -2.03067 0.380437 0
M  V30 4695 C 450.98 -1.60018 -1.00949 0
M  V30 4696 O 450.323 -0.787425 -1.65968 0
M  V30 4697 C 450.385 -3.57587 0.37034 0
M  V30 4698 C 450.049 -4.23855 1.70867 0
M  V30 4699 C 451.046 -4.46404 2.66496 0
M  V30 4700 C 448.731 -4.61229 1.9893 0
M  V30 4701 C 450.725 -5.05412 3.88378 0
M  V30 4702 C 448.412 -5.19953 3.21079 0
M  V30 4703 C 449.41 -5.41985 4.15621 0
M  V30 4704 O 449.098 -5.99475 5.35616 0
M  V30 4705 H 448.83 -0.658168 0.154243 0
M  V30 4706 H 451.384 -1.7498 1.0757 0
M  V30 4707 H 449.614 -3.84814 -0.381444 0
M  V30 4708 H 451.303 -4.05895 -0.0194894 0
M  V30 4709 H 452.069 -4.17921 2.46103 0
M  V30 4710 H 447.948 -4.43402 1.26158 0
M  V30 4711 H 451.492 -5.22524 4.62185 0
M  V30 4712 H 447.389 -5.47862 3.41347 0
M  V30 4713 H 448.157 -6.17937 5.36745 0
M  V30 4714 N 450.82 -0.546701 -1.47814 0
M  V30 4715 C 452.067 -0.0187407 -2.02491 0
M  V30 4716 C 452.395 1.32685 -1.42215 0
M  V30 4717 O 451.65 1.87413 -0.563454 0
M  V30 4718 C 451.949 0.134869 -3.57145 0
M  V30 4719 C 451.615 -1.13849 -4.3629 0
M  V30 4720 C 450.277 -1.48743 -4.57634 0
M  V30 4721 C 452.629 -1.98277 -4.82012 0
M  V30 4722 C 449.957 -2.67932 -5.21948 0
M  V30 4723 C 452.309 -3.16659 -5.4764 0
M  V30 4724 C 450.973 -3.51879 -5.67219 0
M  V30 4725 H 450.243 -0.0068577 -0.740968 0
M  V30 4726 H 452.89 -0.716097 -1.77607 0
M  V30 4727 H 451.195 0.915118 -3.80963 0
M  V30 4728 H 452.892 0.558556 -3.97091 0
M  V30 4729 H 449.482 -0.856767 -4.19949 0
M  V30 4730 H 453.666 -1.72628 -4.6531 0
M  V30 4731 H 448.922 -2.95401 -5.35302 0
M  V30 4732 H 453.096 -3.82374 -5.82033 0
M  V30 4733 H 450.723 -4.44331 -6.16825 0
M  V30 4734 N 452.299 1.55045 -0.282633 0
M  V30 4735 C 453.547 1.99365 0.331334 0
M  V30 4736 C 453.868 1.1725 1.55812 0
M  V30 4737 O 453.138 0.263871 1.94115 0
M  V30 4738 H 451.718 0.736397 0.125414 0
M  V30 4739 H 454.38 1.90964 -0.389711 0
M  V30 4740 H 453.476 3.0596 0.616036 0
M  V30 4741 N 453.777 0.010035 1.57597 0
M  V30 4742 C 454.74 -0.963029 2.07986 0
M  V30 4743 C 455.74 -1.26619 0.991173 0
M  V30 4744 O 456.93 -1.2097 1.25347 0
M  V30 4745 C 454.062 -2.2851 2.52974 0
M  V30 4746 H 455.255 -0.526971 2.95234 0
M  V30 4747 H 452.808 -0.237639 1.54483 0
M  V30 4748 H 453.543 -2.76784 1.69 0
M  V30 4749 H 453.328 -2.07824 3.32493 0
M  V30 4750 H 454.818 -2.98294 2.9225 0
M  V30 4751 N 455.255 -1.55392 -0.262866 0
M  V30 4752 C 456.48 -1.80847 -1.01533 0
M  V30 4753 C 456.905 -0.584946 -1.78774 0
M  V30 4754 O 456.263 0.465701 -1.75217 0
M  V30 4755 C 456.311 -3.03866 -1.94159 0
M  V30 4756 O 455.415 -2.79662 -3.03089 0
M  V30 4757 H 454.756 -0.597441 -0.289759 0
M  V30 4758 H 457.286 -2.02553 -0.288698 0
M  V30 4759 H 457.296 -3.32872 -2.35924 0
M  V30 4760 H 455.971 -3.92564 -1.37354 0
M  V30 4761 H 454.548 -2.61781 -2.65566 0
M  V30 4762 N 456.733 0.527833 -1.48498 0
M  V30 4763 C 457.979 1.28545 -1.56857 0
M  V30 4764 C 458.312 1.92678 -0.242651 0
M  V30 4765 O 457.587 1.79394 0.751545 0
M  V30 4766 C 457.87 2.37314 -2.70839 0
M  V30 4767 C 457.723 1.77858 -4.13142 0
M  V30 4768 C 459.042 3.39068 -2.80573 0
M  V30 4769 H 456.161 0.466006 -0.570971 0
M  V30 4770 H 458.803 0.587784 -1.8068 0
M  V30 4771 H 456.953 2.96821 -2.50658 0
M  V30 4772 H 458.625 1.22385 -4.44769 0
M  V30 4773 H 456.868 1.08383 -4.20042 0
M  V30 4774 H 457.539 2.56624 -4.88721 0
M  V30 4775 H 460.015 2.89518 -2.98862 0
M  V30 4776 H 458.891 4.12566 -3.6205 0
M  V30 4777 H 459.152 3.9975 -1.88818 0
M  V30 4778 N 458.211 1.37122 0.776871 0
M  V30 4779 C 459.451 1.33441 1.54831 0
M  V30 4780 C 459.815 -0.0818963 1.91825 0
M  V30 4781 O 461.016 -0.24338 2.67696 0
M  V30 4782 C 459.287 2.24267 2.78279 0
M  V30 4783 S 460.846 2.38389 3.68397 0
M  V30 4784 H 457.664 0.473791 0.530135 0
M  V30 4785 H 460.266 1.7282 0.913968 0
M  V30 4786 H 458.97 3.261 2.49173 0
M  V30 4787 H 458.501 1.85953 3.46677 0
M  V30 4788 H 460.516 1.59068 4.70013 0
M  V30 4789 N 459.689 -1.00246 1.21608 0
M  V30 4790 C 460.652 -2.07233 0.979133 0
M  V30 4791 C 461.652 -1.6072 -0.0508219 0
M  V30 4792 O 462.842 -1.73196 0.186712 0
M  V30 4793 C 459.974 -3.37546 0.477016 0
M  V30 4794 H 461.167 -2.29687 1.92831 0
M  V30 4795 H 458.72 -1.17261 1.03342 0
M  V30 4796 H 459.455 -3.20773 -0.476966 0
M  V30 4797 H 459.24 -3.72638 1.21997 0
M  V30 4798 H 460.73 -4.16285 0.331181 0
M  V30 4799 N 461.167 -1.02423 -1.1978 0
M  V30 4800 C 462.413 -0.719051 -1.89625 0
M  V30 4801 C 462.746 0.750083 -1.7913 0
M  V30 4802 O 462.021 1.54574 -1.18056 0
M  V30 4803 C 462.304 -1.16499 -3.40735 0
M  V30 4804 C 462.157 -2.695 -3.60125 0
M  V30 4805 C 463.476 -0.742166 -4.33797 0
M  V30 4806 H 460.595 -0.26269 -0.688595 0
M  V30 4807 H 463.237 -1.27333 -1.41018 0
M  V30 4808 H 461.387 -0.69341 -3.82262 0
M  V30 4809 H 463.059 -3.24569 -3.278 0
M  V30 4810 H 461.302 -3.10113 -3.03336 0
M  V30 4811 H 461.973 -2.95757 -4.66081 0
M  V30 4812 H 464.449 -1.1477 -3.99959 0
M  V30 4813 H 463.325 -1.08213 -5.38127 0
M  V30 4814 H 463.586 0.355747 -4.40666 0
M  V30 4815 N 462.645 1.35699 -0.801477 0
M  V30 4816 C 463.922 1.9324 -0.302937 0
M  V30 4817 C 464.302 1.73209 1.20672 0
M  V30 4818 O 463.65 1.09809 2.00385 0
M  V30 4819 C 463.86 3.41728 -0.708747 0
M  V30 4820 C 465.208 4.18868 -0.695328 0
M  V30 4821 O 466.232 3.5022 -0.649971 0
M  V30 4822 O 465.091 5.41342 -0.749081 0
M  V30 4823 H 462.185 0.82331 -0.0780367 0
M  V30 4824 H 464.731 1.44806 -0.884832 0
M  V30 4825 H 463.503 3.50015 -1.74944 0
M  V30 4826 H 463.126 3.97471 -0.101384 0
M  V30 4827 N 464.123 0.554532 1.47522 0
M  V30 4828 C 465.053 -0.182974 2.32782 0
M  V30 4829 C 466.034 -0.911377 1.43624 0
M  V30 4830 O 467.219 -0.892366 1.72483 0
M  V30 4831 C 464.349 -1.21513 3.25349 0
M  V30 4832 C 463.303 -0.603355 4.23726 0
M  V30 4833 C 462.629 -1.73995 5.05598 0
M  V30 4834 C 463.929 0.441121 5.20434 0
M  V30 4835 H 465.623 0.52882 2.94693 0
M  V30 4836 H 463.169 0.255759 1.41711 0
M  V30 4837 H 465.122 -1.73922 3.83835 0
M  V30 4838 H 463.846 -1.95683 2.61487 0
M  V30 4839 H 462.505 -0.10059 3.66462 0
M  V30 4840 H 462.153 -2.47063 4.38143 0
M  V30 4841 H 461.853 -1.3364 5.72201 0
M  V30 4842 H 463.377 -2.26735 5.66942 0
M  V30 4843 H 464.791 0.00319931 5.733 0
M  V30 4844 H 463.188 0.763402 5.95224 0
M  V30 4845 H 464.258 1.33799 4.66075 0
M  V30 4846 N 465.601 -1.54893 0.290851 0
M  V30 4847 C 466.549 -2.24579 -0.605576 0
M  V30 4848 C 467.543 -1.24824 -1.14522 0
M  V30 4849 O 468.749 -1.42706 -1.09704 0
M  V30 4850 H 465.124 -0.720946 -0.213872 0
M  V30 4851 H 467.095 -2.984 0.0048173 0
M  V30 4852 C 465.844 -2.99224 -1.77088 0
M  V30 4853 H 465.167 -3.75782 -1.36484 0
M  V30 4854 H 466.607 -3.51281 -2.3744 0
M  V30 4855 C 465.066 -2.05602 -2.66888 0
M  V30 4856 O 465.596 -1.61745 -3.67698 0
M  V30 4857 N 463.802 -1.71771 -2.34399 0
M  V30 4858 H 463.349 -2.07633 -1.52468 0
M  V30 4859 H 463.307 -1.09403 -2.94751 0
M  V30 4860 N 467.08 -0.0183926 -1.57589 0
M  V30 4861 C 468.043 0.951986 -2.08494 0
M  V30 4862 C 469.043 1.26092 -0.997874 0
M  V30 4863 O 470.233 1.20304 -1.25987 0
M  V30 4864 C 467.365 2.27165 -2.54182 0
M  V30 4865 H 468.558 0.511307 -2.95509 0
M  V30 4866 H 466.111 0.229444 -1.54607 0
M  V30 4867 H 466.846 2.75884 -1.70465 0
M  V30 4868 H 466.631 2.06057 -3.33591 0
M  V30 4869 H 468.121 2.9674 -2.93828 0
M  V30 4870 N 468.558 1.5553 0.254621 0
M  V30 4871 C 469.835 1.6774 1.00611 0
M  V30 4872 C 470.215 0.555993 2.03647 0
M  V30 4873 O 469.563 -0.441583 2.24193 0
M  V30 4874 C 469.773 3.07725 1.6464 0
M  V30 4875 C 471.121 3.66074 2.15116 0
M  V30 4876 O 472.145 3.10476 1.74595 0
M  V30 4877 O 471.004 4.63526 2.89493 0
M  V30 4878 H 468.098 0.681958 0.467828 0
M  V30 4879 H 470.644 1.67863 0.24902 0
M  V30 4880 H 469.416 3.80792 0.900734 0
M  V30 4881 H 469.039 3.1158 2.46989 0
M  V30 4882 N 470.036 -0.519951 1.48776 0
M  V30 4883 C 471.284 -1.2727 1.56993 0
M  V30 4884 C 471.605 -1.9339 0.25004 0
M  V30 4885 O 470.875 -1.81822 -0.729216 0
M  V30 4886 H 469.455 -0.472732 0.578389 0
M  V30 4887 H 472.117 -0.604234 1.85297 0
M  V30 4888 H 471.213 -2.04669 2.3562 0
M  V30 4889 N 471.514 -1.37532 -0.769588 0
M  V30 4890 C 472.761 -1.3286 -1.52822 0
M  V30 4891 C 473.089 0.0862597 -1.94309 0
M  V30 4892 O 472.344 1.05995 -1.6451 0
M  V30 4893 C 472.643 -2.21558 -2.8044 0
M  V30 4894 C 472.309 -3.69796 -2.57996 0
M  V30 4895 C 470.971 -4.10194 -2.51583 0
M  V30 4896 C 473.323 -4.63699 -2.37976 0
M  V30 4897 C 470.651 -5.42608 -2.23144 0
M  V30 4898 C 473.003 -5.96353 -2.1106 0
M  V30 4899 C 471.667 -6.35853 -2.03093 0
M  V30 4900 H 470.937 -0.486168 -0.559215 0
M  V30 4901 H 473.584 -1.69757 -0.886277 0
M  V30 4902 H 471.889 -1.77663 -3.49204 0
M  V30 4903 H 473.586 -2.15256 -3.38328 0
M  V30 4904 H 470.176 -3.37759 -2.63851 0
M  V30 4905 H 474.36 -4.33346 -2.41919 0
M  V30 4906 H 469.616 -5.72173 -2.15472 0
M  V30 4907 H 473.79 -6.68667 -1.94568 0
M  V30 4908 H 471.417 -7.38382 -1.8082 0
M  V30 4909 N 472.992 0.995999 -1.22138 0
M  V30 4910 C 474.217 1.77601 -1.0711 0
M  V30 4911 C 474.642 1.84339 0.374264 0
M  V30 4912 O 474 1.29359 1.27028 0
M  V30 4913 C 474.048 3.18897 -1.68336 0
M  V30 4914 O 473.152 4.01663 -0.934928 0
M  V30 4915 H 472.493 0.547011 -0.376397 0
M  V30 4916 H 475.023 1.25137 -1.6187 0
M  V30 4917 H 475.033 3.69539 -1.72931 0
M  V30 4918 H 473.708 3.13308 -2.73516 0
M  V30 4919 H 472.285 3.60204 -0.964751 0
M  V30 4920 N 474.47 1.03057 1.19235 0
M  V30 4921 C 475.747 0.642608 1.84743 0
M  V30 4922 C 476.127 -0.878577 1.91948 0
M  V30 4923 O 475.475 -1.77597 1.43776 0
M  V30 4924 C 475.685 1.30665 3.23616 0
M  V30 4925 C 477.033 1.43098 3.9976 0
M  V30 4926 O 478.057 1.26396 3.3302 0
M  V30 4927 O 476.916 1.70223 5.19313 0
M  V30 4928 H 474.01 0.223573 0.796206 0
M  V30 4929 H 476.556 1.12883 1.26711 0
M  V30 4930 H 475.328 2.34544 3.13217 0
M  V30 4931 H 474.951 0.808405 3.89295 0
M  V30 4932 N 475.948 -1.35272 0.808662 0
M  V30 4933 C 476.878 -2.32315 0.234981 0
M  V30 4934 C 477.859 -1.57572 -0.64071 0
M  V30 4935 O 479.044 -1.8563 -0.570551 0
M  V30 4936 C 476.174 -3.41801 -0.615601 0
M  V30 4937 C 475.128 -4.27694 0.161767 0
M  V30 4938 C 474.454 -5.28519 -0.810649 0
M  V30 4939 C 475.754 -5.04231 1.36193 0
M  V30 4940 H 477.448 -2.80543 1.04575 0
M  V30 4941 H 474.994 -1.3488 0.504315 0
M  V30 4942 H 476.947 -4.08693 -1.02702 0
M  V30 4943 H 475.671 -2.92186 -1.45928 0
M  V30 4944 H 474.33 -3.62384 0.554382 0
M  V30 4945 H 473.978 -4.75171 -1.64988 0
M  V30 4946 H 473.678 -5.8686 -0.294822 0
M  V30 4947 H 475.202 -5.98283 -1.22023 0
M  V30 4948 H 476.616 -5.64058 1.02528 0
M  V30 4949 H 475.013 -5.72077 1.81239 0
M  V30 4950 H 476.083 -4.34753 2.14751 0
M  V30 4951 N 477.426 -0.562348 -1.47226 0
M  V30 4952 C 478.356 0.170627 -2.32876 0
M  V30 4953 C 479.337 0.903748 -1.44106 0
M  V30 4954 O 480.522 0.883206 -1.72954 0
M  V30 4955 C 477.652 1.19786 -3.25989 0
M  V30 4956 C 476.606 0.580875 -4.2404 0
M  V30 4957 C 475.932 1.71311 -5.06514 0
M  V30 4958 C 477.232 -0.468714 -5.20193 0
M  V30 4959 H 478.926 -0.544441 -2.94408 0
M  V30 4960 H 476.472 -0.263271 -1.41573 0
M  V30 4961 H 478.425 1.71884 -3.84752 0
M  V30 4962 H 477.149 1.94294 -2.62521 0
M  V30 4963 H 475.808 0.0811538 -3.6651 0
M  V30 4964 H 475.456 2.44736 -4.39447 0
M  V30 4965 H 475.156 1.30604 -5.72902 0
M  V30 4966 H 476.68 2.23725 -5.68137 0
M  V30 4967 H 478.094 -0.0336028 -5.7329 0
M  V30 4968 H 476.491 -0.794957 -5.94811 0
M  V30 4969 H 477.561 -1.36269 -4.65359 0
M  V30 4970 N 478.904 1.54736 -0.299062 0
M  V30 4971 C 480.15 2.00397 0.311244 0
M  V30 4972 C 480.483 1.18716 1.53688 0
M  V30 4973 O 479.758 0.263154 1.92712 0
M  V30 4974 C 480.041 3.53817 0.669761 0
M  V30 4975 C 479.894 4.46239 -0.564882 0
M  V30 4976 C 481.213 4.13856 1.49702 0
M  V30 4977 H 478.332 0.728493 0.111653 0
M  V30 4978 H 480.974 1.85506 -0.410774 0
M  V30 4979 H 479.124 3.66637 1.28491 0
M  V30 4980 H 480.796 4.45328 -1.20337 0
M  V30 4981 H 479.039 4.16916 -1.19849 0
M  V30 4982 H 479.71 5.5134 -0.269918 0
M  V30 4983 H 482.186 4.04461 0.977284 0
M  V30 4984 H 481.062 5.21365 1.71666 0
M  V30 4985 H 481.323 3.65608 2.48563 0
M  V30 4986 N 480.382 0.0267497 1.57577 0
M  V30 4987 C 481.63 -0.651116 1.91324 0
M  V30 4988 C 481.951 -1.72804 0.90353 0
M  V30 4989 O 481.221 -1.95822 -0.0552946 0
M  V30 4990 H 479.801 -0.243491 0.706202 0
M  V30 4991 H 482.463 0.0739935 1.94759 0
M  V30 4992 H 481.559 -1.10536 2.9187 0
M  V30 4993 N 481.861 -1.55662 -0.24637 0
M  V30 4994 C 482.824 -1.89558 -1.28842 0
M  V30 4995 C 483.824 -0.772082 -1.41052 0
M  V30 4996 O 485.014 -1.04007 -1.39743 0
M  V30 4997 C 482.146 -2.12449 -2.66605 0
M  V30 4998 H 483.339 -2.82735 -1.00004 0
M  V30 4999 H 480.892 -1.48562 -0.485684 0
M  V30 5000 H 481.627 -1.21742 -3.00582 0
M  V30 5001 H 481.412 -2.94273 -2.59125 0
M  V30 5002 H 482.902 -2.39854 -3.41847 0
M  V30 5003 N 483.339 0.512053 -1.4905 0
M  V30 5004 C 484.75 1.09376 -1.51307 0
M  V30 5005 C 485.101 1.94 -0.292971 0
M  V30 5006 O 484.226 2.07965 0.598277 0
M  V30 5007 C 484.821 1.99031 -2.74176 0
M  V30 5008 C 483.38 2.52385 -2.79247 0
M  V30 5009 C 482.527 1.29749 -2.45073 0
M  V30 5010 H 485.478 0.296467 -1.55906 0
M  V30 5011 H 485.499 2.83569 -2.53711 0
M  V30 5012 H 485.011 1.37412 -3.62959 0
M  V30 5013 H 483.112 3.17673 -1.94716 0
M  V30 5014 H 483.225 2.90293 -3.81139 0
M  V30 5015 H 481.589 1.61912 -1.96612 0
M  V30 5016 H 482.372 0.698555 -3.36118 0
M  V30 5017 N 484.817 1.37938 0.762283 0
M  V30 5018 C 485.75 1.2884 1.88349 0
M  V30 5019 C 486.728 0.167084 1.61739 0
M  V30 5020 O 487.912 0.34292 1.85355 0
M  V30 5021 C 485.039 0.994257 3.23778 0
M  V30 5022 C 484.085 2.13376 3.69287 0
M  V30 5023 S 484.918 3.75439 3.81845 0
M  V30 5024 C 486.074 3.48195 5.20107 0
M  V30 5025 H 486.307 2.23736 1.95779 0
M  V30 5026 H 483.84 1.23672 0.924368 0
M  V30 5027 H 485.798 0.83138 4.01993 0
M  V30 5028 H 484.459 0.0626251 3.14038 0
M  V30 5029 H 483.652 1.88319 4.67495 0
M  V30 5030 H 483.254 2.25726 2.98201 0
M  V30 5031 H 485.546 3.0377 6.05583 0
M  V30 5032 H 486.489 4.45765 5.50181 0
M  V30 5033 H 486.897 2.82905 4.88493 0
M  V30 5034 N 486.295 -0.989507 1.22664 0
M  V30 5035 C 487.227 -2.0824 0.957542 0
M  V30 5036 C 488.24 -1.6267 -0.0651098 0
M  V30 5037 O 489.429 -1.77695 0.169312 0
M  V30 5038 C 486.529 -3.36298 0.419145 0
M  V30 5039 C 485.702 -4.10882 1.49982 0
M  V30 5040 C 484.761 -5.17221 0.967904 0
M  V30 5041 O 483.787 -5.44613 1.65487 0
M  V30 5042 N 484.989 -5.80124 -0.20896 0
M  V30 5043 H 487.754 -2.31904 1.89843 0
M  V30 5044 H 485.315 -1.15552 1.13399 0
M  V30 5045 H 487.307 -4.04671 0.0485451 0
M  V30 5046 H 485.877 -3.09671 -0.426937 0
M  V30 5047 H 485.097 -3.37092 2.04359 0
M  V30 5048 H 486.385 -4.57482 2.22682 0
M  V30 5049 H 485.783 -5.60244 -0.783818 0
M  V30 5050 H 484.34 -6.49715 -0.520913 0
M  V30 5051 N 487.773 -1.03688 -1.18687 0
M  V30 5052 C 488.998 -0.757819 -1.93059 0
M  V30 5053 C 489.423 0.678353 -1.75442 0
M  V30 5054 O 488.781 1.46938 -1.06203 0
M  V30 5055 C 488.829 -1.12423 -3.42627 0
M  V30 5056 O 487.933 -0.247505 -4.11657 0
M  V30 5057 H 487.274 -0.279245 -0.602427 0
M  V30 5058 H 489.804 -1.3857 -1.5053 0
M  V30 5059 H 489.814 -1.08454 -3.93322 0
M  V30 5060 H 488.489 -2.17049 -3.54771 0
M  V30 5061 H 487.066 -0.34649 -3.71287 0
M  V30 5062 N 489.251 1.34841 -0.815825 0
M  V30 5063 C 490.479 2.0273 -0.413294 0
M  V30 5064 C 490.894 1.61459 0.978599 0
M  V30 5065 O 490.251 0.816584 1.63212 0
M  V30 5066 C 490.302 3.58058 -0.497676 0
M  V30 5067 O 490.023 3.97832 -1.8347 0
M  V30 5068 C 491.524 4.4321 -0.0891339 0
M  V30 5069 H 488.744 0.649956 -0.166728 0
M  V30 5070 H 491.288 1.72267 -1.10201 0
M  V30 5071 H 489.443 3.87136 0.142886 0
M  V30 5072 H 489.857 4.92501 -1.80396 0
M  V30 5073 H 491.331 5.5164 -0.199274 0
M  V30 5074 H 491.808 4.28432 0.966571 0
M  V30 5075 H 492.414 4.19446 -0.703214 0
M  V30 5076 N 490.729 0.570148 1.46925 0
M  V30 5077 C 491.978 0.0487352 2.01641 0
M  V30 5078 C 492.291 -1.31433 1.44861 0
M  V30 5079 O 493.497 -1.92638 1.91318 0
M  V30 5080 C 491.953 0.0365817 3.59881 0
M  V30 5081 C 491.561 1.39719 4.25655 0
M  V30 5082 C 493.305 -0.431545 4.22301 0
M  V30 5083 C 491.212 1.34345 5.75939 0
M  V30 5084 H 490.142 0.0144492 0.753862 0
M  V30 5085 H 492.793 0.719928 1.68788 0
M  V30 5086 H 491.175 -0.700522 3.89755 0
M  V30 5087 H 492.349 2.15303 4.07408 0
M  V30 5088 H 490.664 1.80431 3.75278 0
M  V30 5089 H 493.261 -0.490354 5.32447 0
M  V30 5090 H 493.604 -1.44638 3.90366 0
M  V30 5091 H 494.137 0.251102 3.97007 0
M  V30 5092 H 490.876 2.33469 6.12513 0
M  V30 5093 H 490.396 0.629615 5.96486 0
M  V30 5094 H 492.075 1.051 6.38407 0
M  V30 5095 N 492.207 -1.54576 0.307264 0
M  V30 5096 C 493.623 -1.59534 -0.0459251 0
M  V30 5097 C 493.823 -1.32414 -1.51884 0
M  V30 5098 O 492.879 -1.1006 -2.27251 0
M  V30 5099 C 494.192 -2.98566 0.357649 0
M  V30 5100 C 495.74 -3.11491 0.306937 0
M  V30 5101 C 496.215 -4.52842 0.685427 0
M  V30 5102 N 497.706 -4.58782 0.638203 0
M  V30 5103 C 498.441 -5.66238 0.903458 0
M  V30 5104 N 497.937 -6.81703 1.23501 0
M  V30 5105 N 499.73 -5.55937 0.830102 0
M  V30 5106 H 491.881 -1.70464 1.26712 0
M  V30 5107 H 494.144 -0.79647 0.514139 0
M  V30 5108 H 493.85 -3.23356 1.38325 0
M  V30 5109 H 493.724 -3.76117 -0.285565 0
M  V30 5110 H 496.111 -2.86446 -0.709424 0
M  V30 5111 H 496.192 -2.36081 0.984861 0
M  V30 5112 H 495.836 -4.78618 1.69963 0
M  V30 5113 H 495.766 -5.26598 -0.0146346 0
M  V30 5114 H 498.257 -3.75849 0.393138 0
M  V30 5115 H 498.57 -7.59582 1.42322 0
M  V30 5116 H 496.915 -6.8324 1.27311 0
M  V30 5117 H 500.106 -4.64608 0.570693 0
M  V30 5118 H 500.279 -6.39597 1.04019 0
M  V30 5119 N 493.685 -0.035106 -1.57561 0
M  V30 5120 C 494.595 0.960295 -2.14046 0
M  V30 5121 C 495.611 1.3529 -1.0942 0
M  V30 5122 O 496.787 1.43309 -1.41508 0
M  V30 5123 C 493.852 2.22214 -2.66124 0
M  V30 5124 C 492.913 1.8894 -3.85487 0
M  V30 5125 C 492.146 3.09109 -4.35072 0
M  V30 5126 O 492.369 4.21963 -3.83802 0
M  V30 5127 O 491.303 2.91058 -5.26848 0
M  V30 5128 H 495.129 0.509983 -2.99387 0
M  V30 5129 H 492.714 0.185853 -1.48239 0
M  V30 5130 H 494.596 2.96279 -2.99661 0
M  V30 5131 H 493.271 2.66414 -1.83862 0
M  V30 5132 H 492.178 1.12241 -3.56865 0
M  V30 5133 H 493.511 1.49551 -4.6893 0
M  V30 5134 N 495.163 1.55791 0.238111 0
M  V30 5135 C 496.073 1.94196 1.31625 0
M  V30 5136 C 497.089 0.843545 1.52185 0
M  V30 5137 O 498.265 1.1457 1.65637 0
M  V30 5138 C 495.33 2.2365 2.64918 0
M  V30 5139 C 494.391 3.46971 2.52804 0
M  V30 5140 C 493.624 3.7501 3.79741 0
M  V30 5141 O 493.847 3.04982 4.82019 0
M  V30 5142 O 492.781 4.68525 3.77846 0
M  V30 5143 H 496.607 2.86044 1.02043 0
M  V30 5144 H 494.192 1.42786 0.439603 0
M  V30 5145 H 496.074 2.43863 3.4367 0
M  V30 5146 H 494.749 1.34979 2.94215 0
M  V30 5147 H 493.656 3.32055 1.72309 0
M  V30 5148 H 494.989 4.35971 2.28451 0
M  V30 5149 N 496.642 -0.504142 1.49319 0
M  V30 5150 C 497.89 -1.25598 1.58334 0
M  V30 5151 C 498.211 -1.93114 0.270538 0
M  V30 5152 O 497.481 -1.82585 -0.709891 0
M  V30 5153 H 496.061 -0.466571 0.58337 0
M  V30 5154 H 498.723 -0.584547 1.85928 0
M  V30 5155 H 497.819 -2.02159 2.37778 0
M  V30 5156 N 498.12 -1.38341 -0.754957 0
M  V30 5157 C 499.536 -1.19508 -1.05783 0
M  V30 5158 C 499.736 -0.0428005 -2.01455 0
M  V30 5159 O 498.792 0.611861 -2.44975 0
M  V30 5160 C 500.105 -2.52091 -1.63923 0
M  V30 5161 C 501.653 -2.58762 -1.76101 0
M  V30 5162 C 502.128 -3.91517 -2.37652 0
M  V30 5163 N 503.619 -3.93049 -2.45085 0
M  V30 5164 C 504.354 -4.9253 -2.93602 0
M  V30 5165 N 503.85 -6.02408 -3.42165 0
M  V30 5166 N 505.643 -4.79921 -2.92629 0
M  V30 5167 H 497.794 -2.1206 -0.120056 0
M  V30 5168 H 500.057 -0.94089 -0.11589 0
M  V30 5169 H 499.763 -3.36858 -1.01093 0
M  V30 5170 H 499.637 -2.70388 -2.63003 0
M  V30 5171 H 502.024 -1.74391 -2.38058 0
M  V30 5172 H 502.105 -2.44333 -0.757294 0
M  V30 5173 H 501.749 -4.76309 -1.76329 0
M  V30 5174 H 501.679 -4.03256 -3.38662 0
M  V30 5175 H 504.17 -3.13685 -2.10736 0
M  V30 5176 H 504.483 -6.74248 -3.77637 0
M  V30 5177 H 502.828 -6.0603 -3.40225 0
M  V30 5178 H 506.019 -3.93194 -2.54001 0
M  V30 5179 H 506.192 -5.57601 -3.30128 0
M  V30 5180 N 499.598 0.982988 -1.23187 0
M  V30 5181 C 500.844 1.72648 -1.06398 0
M  V30 5182 C 501.177 1.90066 0.398561 0
M  V30 5183 O 500.452 1.45105 1.29518 0
M  V30 5184 C 500.735 3.12627 -1.78707 0
M  V30 5185 C 500.588 3.02795 -3.32618 0
M  V30 5186 C 501.907 4.11997 -1.54747 0
M  V30 5187 H 499.026 0.626649 -0.387918 0
M  V30 5188 H 501.668 1.14455 -1.51658 0
M  V30 5189 H 499.818 3.62308 -1.40234 0
M  V30 5190 H 501.49 2.60659 -3.80598 0
M  V30 5191 H 499.733 2.39362 -3.61785 0
M  V30 5192 H 500.404 4.01893 -3.78399 0
M  V30 5193 H 502.88 3.71114 -1.88186 0
M  V30 5194 H 501.756 5.08037 -2.07821 0
M  V30 5195 H 502.017 4.39462 -0.482249 0
M  V30 5196 N 501.076 1.04316 1.18135 0
M  V30 5197 C 502.323 0.74802 1.88178 0
M  V30 5198 C 502.651 -0.72441 1.80506 0
M  V30 5199 O 501.906 -1.54463 1.20165 0
M  V30 5200 C 502.205 1.16271 3.37958 0
M  V30 5201 C 501.871 2.63585 3.65833 0
M  V30 5202 C 500.533 3.03829 3.73151 0
M  V30 5203 C 502.885 3.58822 3.78016 0
M  V30 5204 C 500.213 4.38194 3.90132 0
M  V30 5205 C 502.565 4.92909 3.96514 0
M  V30 5206 C 501.229 5.3282 4.02068 0
M  V30 5207 H 500.499 0.27372 0.688592 0
M  V30 5208 H 503.146 1.30863 1.39811 0
M  V30 5209 H 501.451 0.520938 3.88321 0
M  V30 5210 H 503.148 0.911672 3.90499 0
M  V30 5211 H 499.738 2.31414 3.60757 0
M  V30 5212 H 503.922 3.28875 3.71692 0
M  V30 5213 H 499.178 4.68631 3.92677 0
M  V30 5214 H 503.352 5.66606 4.04883 0
M  V30 5215 H 500.979 6.36943 4.14979 0
M  V30 5216 N 502.554 -1.34406 0.822964 0
M  V30 5217 C 503.8 -1.98578 0.411666 0
M  V30 5218 C 504.133 -1.65093 -1.02264 0
M  V30 5219 O 503.408 -0.92258 -1.71227 0
M  V30 5220 C 503.691 -3.54823 0.614235 0
M  V30 5221 C 503.544 -3.9805 2.09466 0
M  V30 5222 C 504.863 -4.40071 0.050221 0
M  V30 5223 H 501.982 -0.721355 0.151047 0
M  V30 5224 H 504.624 -1.59301 1.03554 0
M  V30 5225 H 502.774 -3.88411 0.0831774 0
M  V30 5226 H 504.446 -3.74795 2.68936 0
M  V30 5227 H 502.689 -3.4836 2.5851 0
M  V30 5228 H 503.36 -5.06819 2.18721 0
M  V30 5229 H 505.836 -4.13037 0.503953 0
M  V30 5230 H 504.712 -5.48452 0.221759 0
M  V30 5231 H 504.973 -4.29576 -1.04482 0
M  V30 5232 N 504.032 -0.577932 -1.46621 0
M  V30 5233 C 505.262 -0.0670668 -2.06491 0
M  V30 5234 C 505.67 1.24119 -1.42798 0
M  V30 5235 O 505.013 1.76016 -0.525759 0
M  V30 5236 C 505.075 0.177995 -3.59059 0
M  V30 5237 C 504.739 -1.04394 -4.44917 0
M  V30 5238 C 505.736 -1.95479 -4.81751 0
M  V30 5239 C 503.421 -1.26444 -4.86125 0
M  V30 5240 C 505.415 -3.06965 -5.58615 0
M  V30 5241 C 503.102 -2.38237 -5.62749 0
M  V30 5242 C 504.1 -3.28327 -5.98908 0
M  V30 5243 O 503.788 -4.38179 -6.73984 0
M  V30 5244 H 503.52 -0.0523159 -0.673973 0
M  V30 5245 H 506.074 -0.796966 -1.89308 0
M  V30 5246 H 504.304 0.962451 -3.74531 0
M  V30 5247 H 505.993 0.636782 -4.00874 0
M  V30 5248 H 506.759 -1.79657 -4.50498 0
M  V30 5249 H 502.638 -0.572316 -4.57434 0
M  V30 5250 H 506.182 -3.77309 -5.86757 0
M  V30 5251 H 502.079 -2.54023 -5.93416 0
M  V30 5252 H 502.847 -4.36486 -6.92403 0
M  V30 5253 N 505.51 1.54411 -0.315457 0
M  V30 5254 C 506.759 1.99599 0.290395 0
M  V30 5255 C 507.072 1.20746 1.53882 0
M  V30 5256 O 508.278 1.56272 2.22017 0
M  V30 5257 C 506.734 3.5539 0.56797 0
M  V30 5258 C 506.342 4.43068 -0.662945 0
M  V30 5259 C 508.086 4.09067 1.13422 0
M  V30 5260 C 505.993 5.90317 -0.357722 0
M  V30 5261 H 504.923 0.745592 0.112286 0
M  V30 5262 H 507.574 1.78477 -0.426418 0
M  V30 5263 H 505.956 3.72468 1.34476 0
M  V30 5264 H 507.13 4.37765 -1.43869 0
M  V30 5265 H 505.445 4.00238 -1.14884 0
M  V30 5266 H 508.042 5.16663 1.37707 0
M  V30 5267 H 508.385 3.60552 2.08106 0
M  V30 5268 H 508.918 3.95589 0.418805 0
M  V30 5269 H 505.657 6.4301 -1.27351 0
M  V30 5270 H 505.177 5.98592 0.380472 0
M  V30 5271 H 506.856 6.4699 0.0354284 0
M  V30 5272 N 506.988 0.0434614 1.5754 0
M  V30 5273 C 507.936 -0.951465 2.1225 0
M  V30 5274 C 508.93 -1.3274 1.05245 0
M  V30 5275 O 510.136 -1.30795 1.23663 0
M  V30 5276 H 506.511 -0.324667 0.678303 0
M  V30 5277 H 508.482 -0.464855 2.94757 0
M  V30 5278 C 507.231 -2.21972 2.67626 0
M  V30 5279 H 506.554 -1.93923 3.4962 0
M  V30 5280 H 507.994 -2.89765 3.09536 0
M  V30 5281 C 506.453 -2.95919 1.61038 0
M  V30 5282 O 506.983 -3.8857 1.01862 0
M  V30 5283 N 505.189 -2.58511 1.32741 0
M  V30 5284 H 504.736 -1.83244 1.81051 0
M  V30 5285 H 504.694 -3.08296 0.616531 0
M  V30 5286 N 508.466 -1.55915 -0.229846 0
M  V30 5287 C 509.691 -1.8296 -0.976743 0
M  V30 5288 C 510.116 -0.622735 -1.77493 0
M  V30 5289 O 509.474 0.428431 -1.76165 0
M  V30 5290 C 509.522 -3.07916 -1.8767 0
M  V30 5291 O 508.626 -2.86028 -2.97088 0
M  V30 5292 H 507.967 -0.603453 -0.277021 0
M  V30 5293 H 510.497 -2.0312 -0.245669 0
M  V30 5294 H 510.507 -3.37802 -2.2881 0
M  V30 5295 H 509.182 -3.95389 -1.28996 0
M  V30 5296 H 507.759 -2.67355 -2.59954 0
M  V30 5297 N 509.944 0.496216 -1.49584 0
M  V30 5298 C 511.192 1.24756 -1.58998 0
M  V30 5299 C 511.513 1.92968 -0.280775 0
M  V30 5300 O 510.783 1.82959 0.700198 0
M  V30 5301 H 509.363 0.463471 -0.585836 0
M  V30 5302 H 512.025 0.574678 -1.86235 0
M  V30 5303 H 511.121 2.00895 -2.38847 0
M  V30 5304 N 511.423 1.38739 0.74761 0
M  V30 5305 C 512.648 1.38702 1.54197 0
M  V30 5306 C 513.073 -0.019664 1.8809 0
M  V30 5307 O 512.431 -1.00333 1.51006 0
M  V30 5308 C 512.479 2.25492 2.814 0
M  V30 5309 O 511.583 1.67613 3.76802 0
M  V30 5310 H 510.924 0.472863 0.466151 0
M  V30 5311 H 513.454 1.82577 0.923413 0
M  V30 5312 H 513.464 2.39561 3.30264 0
M  V30 5313 H 512.139 3.27727 2.56062 0
M  V30 5314 H 510.716 1.62718 3.35526 0
M  V30 5315 N 512.901 -0.976442 1.23707 0
M  V30 5316 C 514.149 -1.71487 1.06942 0
M  V30 5317 C 514.47 -1.9098 -0.393897 0
M  V30 5318 O 513.74 -1.48128 -1.28198 0
M  V30 5319 H 512.32 -0.635425 0.392739 0
M  V30 5320 H 514.982 -1.17515 1.55487 0
M  V30 5321 H 514.078 -2.70286 1.56051 0
M  V30 5322 N 514.379 -1.04941 -1.1758 0
M  V30 5323 C 515.342 -0.652456 -2.19717 0
M  V30 5324 C 516.342 0.294745 -1.58076 0
M  V30 5325 O 517.532 0.0789579 -1.74021 0
M  V30 5326 C 514.664 0.0420712 -3.40874 0
M  V30 5327 H 515.857 -1.55642 -2.5635 0
M  V30 5328 H 513.41 -0.842995 -1.31618 0
M  V30 5329 H 514.145 0.95943 -3.09783 0
M  V30 5330 H 513.93 -0.638844 -3.86861 0
M  V30 5331 H 515.42 0.306 -4.16477 0
M  V30 5332 N 515.857 1.33968 -0.830081 0
M  V30 5333 C 517.103 1.98357 -0.422191 0
M  V30 5334 C 517.436 1.65633 1.01387 0
M  V30 5335 O 516.711 0.931648 1.70735 0
M  V30 5336 C 516.994 3.54492 -0.633043 0
M  V30 5337 C 516.847 3.96934 -2.11574 0
M  V30 5338 C 518.166 4.40039 -0.0735584 0
M  V30 5339 H 515.285 0.720544 -0.154871 0
M  V30 5340 H 517.927 1.58749 -1.04397 0
M  V30 5341 H 516.077 3.88361 -0.103775 0
M  V30 5342 H 517.749 3.73363 -2.7092 0
M  V30 5343 H 515.992 3.46984 -2.60354 0
M  V30 5344 H 516.663 5.05651 -2.21406 0
M  V30 5345 H 519.139 4.12764 -0.52585 0
M  V30 5346 H 518.015 5.48327 -0.250841 0
M  V30 5347 H 518.276 4.30124 1.02202 0
M  V30 5348 N 517.335 0.585699 1.46312 0
M  V30 5349 C 518.268 -0.194257 2.27372 0
M  V30 5350 C 519.246 -0.894116 1.3581 0
M  V30 5351 O 520.43 -0.907402 1.65222 0
M  V30 5352 C 517.557 -1.27901 3.13622 0
M  V30 5353 C 516.603 -0.684666 4.20969 0
M  V30 5354 S 517.436 0.490745 5.33247 0
M  V30 5355 C 518.592 -0.595137 6.23064 0
M  V30 5356 H 518.825 0.493515 2.93175 0
M  V30 5357 H 516.358 0.372666 1.49835 0
M  V30 5358 H 518.316 -1.90008 3.63878 0
M  V30 5359 H 516.977 -1.93875 2.47126 0
M  V30 5360 H 516.17 -1.50015 4.81156 0
M  V30 5361 H 515.772 -0.139204 3.73741 0
M  V30 5362 H 518.064 -1.48002 6.61137 0
M  V30 5363 H 519.007 -0.0299446 7.08094 0
M  V30 5364 H 519.415 -0.900627 5.57269 0
M  V30 5365 N 518.813 -1.54241 0.323641 0
M  V30 5366 C 519.761 -2.25813 -0.557804 0
M  V30 5367 C 520.755 -1.27225 -1.11849 0
M  V30 5368 O 521.961 -1.45001 -1.06652 0
M  V30 5369 H 518.336 -0.72532 -0.198532 0
M  V30 5370 H 520.307 -2.98322 0.0681112 0
M  V30 5371 C 519.056 -3.02913 -1.70701 0
M  V30 5372 H 518.379 -3.78593 -1.28482 0
M  V30 5373 H 519.819 -3.56238 -2.29935 0
M  V30 5374 C 518.278 -2.11217 -2.62467 0
M  V30 5375 O 518.808 -1.69508 -3.64184 0
M  V30 5376 N 517.014 -1.76704 -2.30703 0
M  V30 5377 H 516.561 -2.1082 -1.48029 0
M  V30 5378 H 516.519 -1.15631 -2.92364 0
M  V30 5379 N 520.291 -0.0518155 -1.57515 0
M  V30 5380 C 521.254 0.907547 -2.10467 0
M  V30 5381 C 522.254 1.23947 -1.02439 0
M  V30 5382 O 523.444 1.17604 -1.2851 0
M  V30 5383 C 520.576 2.21723 -2.58944 0
M  V30 5384 H 521.769 0.44851 -2.96527 0
M  V30 5385 H 519.322 0.196598 -1.55059 0
M  V30 5386 H 520.057 2.72206 -1.76279 0
M  V30 5387 H 519.842 1.98935 -3.37886 0
M  V30 5388 H 521.332 2.90441 -3.00056 0
M  V30 5389 N 521.769 1.56035 0.221574 0
M  V30 5390 C 522.702 1.87427 1.30178 0
M  V30 5391 C 523.68 0.731658 1.45209 0
M  V30 5392 O 524.864 0.980016 1.61022 0
M  V30 5393 C 521.991 2.08127 2.67209 0
M  V30 5394 C 521.037 3.30813 2.69194 0
M  V30 5395 S 521.87 4.86738 2.23263 0
M  V30 5396 C 523.026 5.10474 3.62171 0
M  V30 5397 H 523.259 2.78756 1.03355 0
M  V30 5398 H 520.792 1.48469 0.423813 0
M  V30 5399 H 522.75 2.20736 3.46101 0
M  V30 5400 H 521.411 1.17595 2.91256 0
M  V30 5401 H 520.604 3.42341 3.6989 0
M  V30 5402 H 520.206 3.1706 1.98366 0
M  V30 5403 H 522.498 4.9937 4.5786 0
M  V30 5404 H 523.441 6.12359 3.55558 0
M  V30 5405 H 523.849 4.38208 3.55857 0
M  V30 5406 N 523.247 -0.488276 1.49845 0
M  V30 5407 C 524.157 -1.61451 1.70207 0
M  V30 5408 C 525.173 -1.63877 0.584846 0
M  V30 5409 O 526.349 -1.82063 0.861107 0
M  V30 5410 C 523.414 -2.9776 1.77594 0
M  V30 5411 C 522.475 -3.05861 3.01243 0
M  V30 5412 C 521.708 -4.35668 3.08268 0
M  V30 5413 O 521.931 -5.25197 2.22541 0
M  V30 5414 O 520.865 -4.49005 4.00847 0
M  V30 5415 H 524.691 -1.47199 2.65643 0
M  V30 5416 H 522.276 -0.665939 1.33737 0
M  V30 5417 H 524.158 -3.7875 1.84732 0
M  V30 5418 H 522.833 -3.12248 0.8534 0
M  V30 5419 H 521.74 -2.24012 2.99616 0
M  V30 5420 H 523.073 -2.96304 3.9302 0
M  V30 5421 N 524.725 -1.39134 -0.740242 0
M  V30 5422 C 525.953 -1.39334 -1.5295 0
M  V30 5423 C 526.368 0.0135008 -1.88795 0
M  V30 5424 O 525.725 0.983524 -1.5373 0
M  V30 5425 C 525.776 -2.2614 -2.82034 0
M  V30 5426 O 525.497 -3.61345 -2.47712 0
M  V30 5427 C 526.998 -2.34666 -3.76094 0
M  V30 5428 H 524.218 -0.476103 -0.472828 0
M  V30 5429 H 526.762 -1.82883 -0.9151 0
M  V30 5430 H 524.917 -1.86018 -3.39818 0
M  V30 5431 H 525.331 -4.07194 -3.30595 0
M  V30 5432 H 526.805 -2.99663 -4.63579 0
M  V30 5433 H 527.282 -1.36426 -4.17474 0
M  V30 5434 H 527.888 -2.75236 -3.2423 0
M  V30 5435 N 526.204 0.969867 -1.24223 0
M  V30 5436 C 527.152 2.08535 -1.03034 0
M  V30 5437 C 528.146 1.69366 0.0340379 0
M  V30 5438 O 529.352 1.79597 -0.12034 0
M  V30 5439 H 525.727 0.682313 -0.316154 0
M  V30 5440 H 527.698 2.23569 -1.97635 0
M  V30 5441 C 526.447 3.4158 -0.649509 0
M  V30 5442 H 525.77 3.72177 -1.46028 0
M  V30 5443 H 527.21 4.20536 -0.540841 0
M  V30 5444 C 525.669 3.30703 0.643194 0
M  V30 5445 O 526.199 3.64443 1.68951 0
M  V30 5446 N 524.405 2.83841 0.623095 0
M  V30 5447 H 523.952 2.56583 -0.228719 0
M  V30 5448 H 523.91 2.76946 1.48823 0
M  V30 5449 N 527.682 1.05563 1.17022 0
M  V30 5450 C 528.612 0.681026 2.23348 0
M  V30 5451 C 529.593 -0.322983 1.67005 0
M  V30 5452 O 530.778 -0.199746 1.9317 0
M  V30 5453 C 527.908 0.0589053 3.4725 0
M  V30 5454 C 526.862 0.988082 4.16438 0
M  V30 5455 C 526.188 0.229646 5.34207 0
M  V30 5456 C 527.488 2.31388 4.68249 0
M  V30 5457 H 529.182 1.56993 2.54938 0
M  V30 5458 H 526.728 0.756302 1.2254 0
M  V30 5459 H 528.681 -0.214982 4.20851 0
M  V30 5460 H 527.405 -0.864968 3.14938 0
M  V30 5461 H 526.064 1.24659 3.44754 0
M  V30 5462 H 525.712 -0.697111 4.98146 0
M  V30 5463 H 525.412 0.848815 5.81437 0
M  V30 5464 H 526.936 -0.0368694 6.10589 0
M  V30 5465 H 528.35 2.09964 5.33468 0
M  V30 5466 H 526.747 2.88736 5.26072 0
M  V30 5467 H 527.817 2.94982 3.84855 0
M  V30 5468 N 529.16 -1.33526 0.837174 0
M  V30 5469 C 530.406 -1.9813 0.432704 0
M  V30 5470 C 530.739 -1.66168 -1.00508 0
M  V30 5471 O 530.014 -0.94069 -1.70239 0
M  V30 5472 C 530.297 -3.54151 0.651834 0
M  V30 5473 C 530.15 -3.95806 2.13676 0
M  V30 5474 C 531.469 -4.39993 0.0968937 0
M  V30 5475 H 528.588 -0.719713 0.15869 0
M  V30 5476 H 531.23 -1.58193 1.05237 0
M  V30 5477 H 529.38 -3.88301 0.124369 0
M  V30 5478 H 531.052 -3.71921 2.72896 0
M  V30 5479 H 529.295 -3.45599 2.62191 0
M  V30 5480 H 529.966 -5.0447 2.24084 0
M  V30 5481 H 532.442 -4.12479 0.547733 0
M  V30 5482 H 531.318 -5.48186 0.279917 0
M  V30 5483 H 531.579 -4.3066 -0.9992 0
M  V30 5484 N 530.638 -0.59345 -1.46 0
M  V30 5485 C 531.886 -0.082988 -2.0193 0
M  V30 5486 C 532.207 1.28569 -1.46612 0
M  V30 5487 O 531.477 1.84629 -0.654909 0
M  V30 5488 H 530.057 -0.0276882 -0.746487 0
M  V30 5489 H 532.719 -0.771657 -1.78973 0
M  V30 5490 H 531.815 -0.022079 -3.12092 0
M  V30 5491 N 532.116 1.54067 -0.331816 0
M  V30 5492 C 533.341 2.05599 0.272705 0
M  V30 5493 C 533.766 1.2059 1.44359 0
M  V30 5494 O 533.124 0.216907 1.79998 0
M  V30 5495 C 533.172 3.54188 0.677021 0
M  V30 5496 O 532.276 3.72082 1.77844 0
M  V30 5497 H 531.617 0.662286 0.0476801 0
M  V30 5498 H 534.147 1.98826 -0.482624 0
M  V30 5499 H 534.157 3.96608 0.957415 0
M  V30 5500 H 532.832 4.15513 -0.179325 0
M  V30 5501 H 531.409 3.41566 1.49622 0
M  V30 5502 N 533.594 0.0601682 1.57485 0
M  V30 5503 C 534.871 -0.651956 1.84415 0
M  V30 5504 C 535.251 -1.88498 0.950361 0
M  V30 5505 O 534.599 -2.28496 0.0136719 0
M  V30 5506 C 534.809 -1.00069 3.34346 0
M  V30 5507 C 536.157 -1.37915 4.01578 0
M  V30 5508 O 537.181 -1.09277 3.39024 0
M  V30 5509 O 536.04 -1.91399 5.11887 0
M  V30 5510 H 533.134 -0.322668 0.761455 0
M  V30 5511 H 535.68 0.0902159 1.6946 0
M  V30 5512 H 534.452 -0.124463 3.91102 0
M  V30 5513 H 534.075 -1.80001 3.54521 0
M  V30 5514 N 535.072 -1.5615 -0.213296 0
M  V30 5515 C 536.019 -1.93086 -1.26437 0
M  V30 5516 C 536.989 -0.789086 -1.4616 0
M  V30 5517 O 538.174 -1.04569 -1.59593 0
M  V30 5518 C 535.314 -2.26003 -2.608 0
M  V30 5519 C 534.427 -3.53156 -2.48807 0
M  V30 5520 C 533.562 -3.7548 -3.7575 0
M  V30 5521 C 532.601 -4.96119 -3.58514 0
M  V30 5522 N 531.738 -5.14791 -4.77425 0
M  V30 5523 H 536.578 -2.82707 -0.942376 0
M  V30 5524 H 534.115 -1.39919 -0.454001 0
M  V30 5525 H 536.073 -2.431 -3.39055 0
M  V30 5526 H 534.703 -1.39546 -2.91079 0
M  V30 5527 H 533.755 -3.44207 -1.61944 0
M  V30 5528 H 535.067 -4.41565 -2.31996 0
M  V30 5529 H 534.221 -3.92718 -4.62447 0
M  V30 5530 H 532.96 -2.85368 -3.95495 0
M  V30 5531 H 531.965 -4.78823 -2.70201 0
M  V30 5532 H 533.19 -5.87724 -3.40231 0
M  V30 5533 H 531.136 -4.27623 -4.97468 0
M  V30 5534 H 531.053 -5.97347 -4.63371 0
M  V30 5535 H 532.321 -5.36471 -5.65525 0
M  V30 5536 N 536.55 0.480323 -1.50102 0
M  V30 5537 C 537.78 1.25475 -1.64133 0
M  V30 5538 C 538.188 1.8647 -0.320272 0
M  V30 5539 O 537.531 1.69561 0.70673 0
M  V30 5540 C 537.593 2.40996 -2.6676 0
M  V30 5541 C 537.257 2.00711 -4.10565 0
M  V30 5542 C 538.254 1.53492 -4.96725 0
M  V30 5543 C 535.939 2.09714 -4.56427 0
M  V30 5544 C 537.933 1.15806 -6.26792 0
M  V30 5545 C 535.62 1.7164 -5.86501 0
M  V30 5546 C 536.618 1.24763 -6.71508 0
M  V30 5547 O 536.306 0.872122 -7.99155 0
M  V30 5548 H 536.038 0.385983 -0.554971 0
M  V30 5549 H 538.592 0.580848 -1.97016 0
M  V30 5550 H 536.822 3.11528 -2.291 0
M  V30 5551 H 538.511 3.02981 -2.70106 0
M  V30 5552 H 539.277 1.45966 -4.62514 0
M  V30 5553 H 535.156 2.4515 -3.90413 0
M  V30 5554 H 538.7 0.791465 -6.93096 0
M  V30 5555 H 534.597 1.78822 -6.20236 0
M  V30 5556 H 535.365 1.00178 -8.12346 0
M  V30 5557 N 538.028 1.39524 0.732853 0
M  V30 5558 C 538.991 1.38189 1.82857 0
M  V30 5559 C 539.991 0.278624 1.58368 0
M  V30 5560 O 541.181 0.536639 1.65728 0
M  V30 5561 C 538.313 1.15661 3.2068 0
M  V30 5562 H 539.506 2.35692 1.85444 0
M  V30 5563 H 537.059 1.2512 0.936728 0
M  V30 5564 H 537.794 0.188482 3.23752 0
M  V30 5565 H 537.579 1.95559 3.39852 0
M  V30 5566 H 539.069 1.17472 4.00737 0
M  V30 5567 N 539.506 -0.963266 1.24736 0
M  V30 5568 C 540.469 -2.04013 1.04457 0
M  V30 5569 C 541.469 -1.608 0.000335555 0
M  V30 5570 O 542.659 -1.72515 0.241719 0
M  V30 5571 C 539.791 -3.35858 0.584162 0
M  V30 5572 H 540.984 -2.23436 2.00041 0
M  V30 5573 H 538.537 -1.13914 1.07021 0
M  V30 5574 H 539.272 -3.22128 -0.374673 0
M  V30 5575 H 539.057 -3.68568 1.3379 0
M  V30 5576 H 540.547 -4.1502 0.463451 0
M  V30 5577 N 540.985 -1.06182 -1.16461 0
M  V30 5578 C 542.401 -0.785065 -1.38956 0
M  V30 5579 C 542.601 0.616103 -1.9185 0
M  V30 5580 O 541.657 1.37686 -2.11657 0
M  V30 5581 C 542.97 -1.84902 -2.37132 0
M  V30 5582 C 544.518 -1.8724 -2.50819 0
M  V30 5583 C 544.993 -2.92686 -3.52277 0
M  V30 5584 N 546.484 -2.91712 -3.59803 0
M  V30 5585 C 547.219 -3.69949 -4.38093 0
M  V30 5586 N 546.715 -4.58 -5.19815 0
M  V30 5587 N 548.508 -3.58346 -4.33064 0
M  V30 5588 H 540.659 -1.96569 -0.804634 0
M  V30 5589 H 542.922 -0.851747 -0.416211 0
M  V30 5590 H 542.628 -2.85518 -2.0536 0
M  V30 5591 H 542.502 -1.69908 -3.36766 0
M  V30 5592 H 544.889 -0.872827 -2.81897 0
M  V30 5593 H 544.97 -2.06311 -1.51226 0
M  V30 5594 H 544.614 -3.92835 -3.21937 0
M  V30 5595 H 544.544 -2.70864 -4.51598 0
M  V30 5596 H 547.035 -2.27876 -3.01464 0
M  V30 5597 H 547.348 -5.14357 -5.76764 0
M  V30 5598 H 545.693 -4.62056 -5.19162 0
M  V30 5599 H 548.884 -2.88943 -3.68279 0
M  V30 5600 H 549.057 -4.19563 -4.93833 0
M  V30 5601 N 542.463 1.3308 -0.844243 0
M  V30 5602 C 543.71 1.97605 -0.44255 0
M  V30 5603 C 544.038 1.66856 0.999458 0
M  V30 5604 O 543.293 0.943586 1.7145 0
M  V30 5605 C 543.592 3.52045 -0.616354 0
M  V30 5606 C 543.258 4.02757 -2.02726 0
M  V30 5607 C 541.92 4.16316 -2.41317 0
M  V30 5608 C 544.272 4.29776 -2.9486 0
M  V30 5609 C 541.6 4.54232 -3.71335 0
M  V30 5610 C 543.952 4.69146 -4.24364 0
M  V30 5611 C 542.616 4.80911 -4.62904 0
M  V30 5612 H 541.886 0.723088 -0.161941 0
M  V30 5613 H 544.533 1.58663 -1.0723 0
M  V30 5614 H 542.838 3.91681 0.0966812 0
M  V30 5615 H 544.535 3.99981 -0.285756 0
M  V30 5616 H 541.125 3.9268 -1.71756 0
M  V30 5617 H 545.309 4.18818 -2.6628 0
M  V30 5618 H 540.565 4.61535 -4.00993 0
M  V30 5619 H 544.739 4.89008 -4.95827 0
M  V30 5620 H 542.366 5.10048 -5.63698 0
M  V30 5621 N 543.941 0.601185 1.45683 0
M  V30 5622 C 545.189 0.0936957 2.01883 0
M  V30 5623 C 545.51 -1.2779 1.47291 0
M  V30 5624 O 544.78 -1.84279 0.664691 0
M  V30 5625 H 543.36 0.0316466 0.746329 0
M  V30 5626 H 546.022 0.781137 1.78562 0
M  V30 5627 H 545.118 0.0386297 3.12076 0
M  V30 5628 N 545.419 -1.53889 0.339982 0
M  V30 5629 C 546.329 -2.28604 -0.526988 0
M  V30 5630 C 547.345 -1.33578 -1.11503 0
M  V30 5631 O 548.521 -1.66612 -1.13148 0
M  V30 5632 C 545.586 -3.04164 -1.66389 0
M  V30 5633 C 544.647 -4.14809 -1.10599 0
M  V30 5634 C 543.88 -4.86756 -2.18871 0
M  V30 5635 O 544.103 -4.58343 -3.39526 0
M  V30 5636 O 543.037 -5.73289 -1.83366 0
M  V30 5637 H 546.863 -3.03594 0.0802707 0
M  V30 5638 H 544.448 -1.4903 0.105141 0
M  V30 5639 H 546.33 -3.51427 -2.32544 0
M  V30 5640 H 545.005 -2.32035 -2.25703 0
M  V30 5641 H 543.912 -3.71857 -0.409067 0
M  V30 5642 H 545.245 -4.89029 -0.557771 0
M  V30 5643 N 546.897 -0.0685191 -1.57451 0
M  V30 5644 C 548.122 0.613919 -1.98106 0
M  V30 5645 C 548.547 1.62551 -0.946501 0
M  V30 5646 O 547.905 1.81085 0.0882824 0
M  V30 5647 C 547.953 1.26189 -3.378 0
M  V30 5648 O 547.057 2.37773 -3.36954 0
M  V30 5649 H 546.398 0.158163 -0.644888 0
M  V30 5650 H 548.928 -0.142063 -2.04106 0
M  V30 5651 H 548.938 1.60951 -3.74912 0
M  V30 5652 H 547.613 0.520625 -4.12629 0
M  V30 5653 H 546.19 2.04829 -3.11608 0
M  V30 5654 N 548.375 1.56261 0.205012 0
M  V30 5655 C 549.624 1.79236 0.925058 0
M  V30 5656 C 549.937 0.640011 1.84833 0
M  V30 5657 O 551.143 0.753809 2.60826 0
M  V30 5658 C 549.599 3.17475 1.69522 0
M  V30 5659 C 549.207 4.40482 0.817269 0
M  V30 5660 C 550.951 3.49766 2.4055 0
M  V30 5661 C 548.858 5.69744 1.58573 0
M  V30 5662 H 547.788 0.668287 0.349153 0
M  V30 5663 H 550.439 1.82629 0.178544 0
M  V30 5664 H 548.821 3.08304 2.48526 0
M  V30 5665 H 549.995 4.60752 0.0665988 0
M  V30 5666 H 548.31 4.15827 0.218316 0
M  V30 5667 H 550.907 4.43573 2.98575 0
M  V30 5668 H 551.25 2.73041 3.14252 0
M  V30 5669 H 551.783 3.60341 1.68522 0
M  V30 5670 H 548.522 6.49407 0.891679 0
M  V30 5671 H 548.042 5.53509 2.31059 0
M  V30 5672 H 549.721 6.1051 2.14212 0
M  V30 5673 N 549.853 -0.472356 1.50355 0
M  V30 5674 C 551.099 -1.22634 1.6152 0
M  V30 5675 C 551.432 -1.91645 0.313995 0
M  V30 5676 O 550.707 -1.82059 -0.684446 0
M  V30 5677 C 550.99 -2.27099 2.7946 0
M  V30 5678 C 550.843 -1.62402 4.19459 0
M  V30 5679 C 552.162 -3.28421 2.92964 0
M  V30 5680 H 549.281 -0.444494 0.587873 0
M  V30 5681 H 551.923 -0.520321 1.82737 0
M  V30 5682 H 550.073 -2.87314 2.61501 0
M  V30 5683 H 551.745 -1.05793 4.49005 0
M  V30 5684 H 549.988 -0.927184 4.23776 0
M  V30 5685 H 550.659 -2.38309 4.97909 0
M  V30 5686 H 553.135 -2.78227 3.09401 0
M  V30 5687 H 552.011 -3.98845 3.77113 0
M  V30 5688 H 552.272 -3.92467 2.03525 0
M  V30 5689 N 551.331 -1.39911 -0.725443 0
M  V30 5690 C 552.279 -1.39552 -1.86086 0
M  V30 5691 C 553.273 -0.277334 -1.67114 0
M  V30 5692 O 554.479 -0.447865 -1.74339 0
M  V30 5693 H 550.854 -0.435993 -0.612711 0
M  V30 5694 H 552.825 -2.35305 -1.83505 0
M  V30 5695 C 551.574 -1.26529 -3.2386 0
M  V30 5696 H 550.897 -2.11845 -3.3906 0
M  V30 5697 H 552.337 -1.30336 -4.03471 0
M  V30 5698 C 550.796 0.0254168 -3.3689 0
M  V30 5699 O 551.326 0.992048 -3.89257 0
M  V30 5700 N 549.532 0.0916528 -2.90455 0
M  V30 5701 H 549.079 -0.695675 -2.48028 0
M  V30 5702 H 549.037 0.954745 -2.99553 0
M  V30 5703 N 552.809 0.956637 -1.25245 0
M  V30 5704 C 553.739 2.07058 -1.07931 0
M  V30 5705 C 554.72 1.70096 0.0110361 0
M  V30 5706 O 555.905 1.93555 -0.158121 0
M  V30 5707 C 553.035 3.40272 -0.695124 0
M  V30 5708 C 551.989 3.91235 -1.73549 0
M  V30 5709 C 551.315 5.20921 -1.20604 0
M  V30 5710 C 552.615 4.17837 -3.13385 0
M  V30 5711 H 554.309 2.218 -2.01109 0
M  V30 5712 H 551.855 1.06581 -0.968326 0
M  V30 5713 H 553.808 4.1765 -0.560949 0
M  V30 5714 H 552.532 3.25462 0.272355 0
M  V30 5715 H 551.191 3.16025 -1.85807 0
M  V30 5716 H 550.839 5.02479 -0.228846 0
M  V30 5717 H 550.539 5.55987 -1.90136 0
M  V30 5718 H 552.063 6.00897 -1.08421 0
M  V30 5719 H 553.477 4.8588 -3.04292 0
M  V30 5720 H 551.874 4.64154 -3.80369 0
M  V30 5721 H 552.944 3.2419 -3.60595 0
M  V30 5722 N 554.287 1.06798 1.15896 0
M  V30 5723 C 555.535 0.786211 1.8618 0
M  V30 5724 C 555.856 -0.689547 1.82401 0
M  V30 5725 O 555.126 -1.49913 1.26107 0
M  V30 5726 H 553.706 0.287843 0.689315 0
M  V30 5727 H 556.368 1.35055 1.40521 0
M  V30 5728 H 555.464 1.1157 2.91477 0
M  V30 5729 N 555.766 -1.3263 0.851289 0
M  V30 5730 C 557.043 -1.91982 0.374448 0
M  V30 5731 C 557.423 -1.77568 -1.14161 0
M  V30 5732 O 556.771 -1.1717 -1.96172 0
M  V30 5733 C 556.981 -3.38862 0.835088 0
M  V30 5734 C 558.329 -4.15999 0.850309 0
M  V30 5735 O 559.353 -3.47566 0.779505 0
M  V30 5736 O 558.212 -5.38189 0.949481 0
M  V30 5737 H 555.306 -0.819846 0.10854 0
M  V30 5738 H 557.852 -1.41422 0.937966 0
M  V30 5739 H 556.624 -3.43281 1.87814 0
M  V30 5740 H 556.247 -3.96821 0.248833 0
M  V30 5741 N 557.244 -0.608902 -1.45362 0
M  V30 5742 C 558.493 -0.10218 -2.01441 0
M  V30 5743 C 558.806 1.27546 -1.48295 0
M  V30 5744 O 560.012 1.87498 -1.96359 0
M  V30 5745 C 558.468 -0.131985 -3.59658 0
M  V30 5746 C 558.076 -1.50956 -4.21801 0
M  V30 5747 C 559.82 0.319427 -4.23296 0
M  V30 5748 C 557.727 -1.49568 -5.72174 0
M  V30 5749 H 556.657 -0.0344314 -0.753213 0
M  V30 5750 H 559.308 -0.764426 -1.6682 0
M  V30 5751 H 557.69 0.596939 -3.91475 0
M  V30 5752 H 558.864 -2.26029 -4.01556 0
M  V30 5753 H 557.179 -1.90318 -3.70362 0
M  V30 5754 H 559.776 0.349013 -5.3356 0
M  V30 5755 H 560.119 1.34237 -3.94064 0
M  V30 5756 H 560.652 -0.356273 -3.96201 0
M  V30 5757 H 557.391 -2.49626 -6.06108 0
M  V30 5758 H 556.911 -0.787542 -5.94607 0
M  V30 5759 H 558.59 -1.21989 -6.35396 0
M  V30 5760 N 558.722 1.53707 -0.348139 0
M  V30 5761 C 559.999 1.93247 0.302475 0
M  V30 5762 C 560.379 1.28012 1.67857 0
M  V30 5763 O 559.727 0.43274 2.24365 0
M  V30 5764 C 559.937 3.47031 0.370159 0
M  V30 5765 C 561.285 4.20066 0.61882 0
M  V30 5766 O 562.309 3.53319 0.452087 0
M  V30 5767 O 561.168 5.38318 0.94215 0
M  V30 5768 H 558.262 0.807736 0.177458 0
M  V30 5769 H 560.808 1.64927 -0.399651 0
M  V30 5770 H 559.58 3.86745 -0.59534 0
M  V30 5771 H 559.203 3.81532 1.11888 0
M  V30 5772 N 560.2 0.0768682 1.57412 0
M  V30 5773 C 561.148 -0.906229 2.1422 0
M  V30 5774 C 562.142 -1.30477 1.08037 0
M  V30 5775 O 563.348 -1.28143 1.2641 0
M  V30 5776 H 559.723 -0.310207 0.685037 0
M  V30 5777 H 561.694 -0.402228 2.95677 0
M  V30 5778 C 560.443 -2.16245 2.72274 0
M  V30 5779 H 559.766 -1.86463 3.53655 0
M  V30 5780 H 561.206 -2.83134 3.15613 0
M  V30 5781 C 559.665 -2.92437 1.67279 0
M  V30 5782 O 560.195 -3.86322 1.10081 0
M  V30 5783 N 558.401 -2.55637 1.38195 0
M  V30 5784 H 557.948 -1.79363 1.84897 0
M  V30 5785 H 557.906 -3.06919 0.681787 0
M  V30 5786 N 561.678 -1.56367 -0.196722 0
M  V30 5787 C 562.955 -1.71359 -0.943159 0
M  V30 5788 C 563.335 -0.631192 -2.01443 0
M  V30 5789 O 562.683 0.358071 -2.25677 0
M  V30 5790 C 562.893 -3.13623 -1.53106 0
M  V30 5791 C 564.241 -3.73806 -2.01381 0
M  V30 5792 O 565.265 -3.16742 -1.62951 0
M  V30 5793 O 564.124 -4.73951 -2.7209 0
M  V30 5794 H 561.218 -0.698851 -0.442195 0
M  V30 5795 H 563.764 -1.68672 -0.186547 0
M  V30 5796 H 562.536 -3.83873 -0.758785 0
M  V30 5797 H 562.159 -3.20532 -2.35255 0
M  V30 5798 N 563.156 0.464375 -1.50603 0
M  V30 5799 C 564.404 1.21356 -1.61608 0
M  V30 5800 C 564.725 1.92329 -0.321643 0
M  V30 5801 O 563.995 1.84403 0.661232 0
M  V30 5802 H 562.575 0.45094 -0.595535 0
M  V30 5803 H 565.237 0.535046 -1.87412 0
M  V30 5804 H 564.333 1.95783 -2.43054 0
M  V30 5805 N 564.634 1.40294 0.718013 0
M  V30 5806 C 565.881 1.3844 1.47786 0
M  V30 5807 C 566.209 -0.0140838 1.94495 0
M  V30 5808 O 565.464 -0.998165 1.68331 0
M  V30 5809 C 565.763 2.31814 2.72024 0
M  V30 5810 C 565.429 3.79117 2.44093 0
M  V30 5811 C 564.091 4.19249 2.36185 0
M  V30 5812 C 566.443 4.72212 2.20602 0
M  V30 5813 C 563.771 5.50516 2.02851 0
M  V30 5814 C 566.123 6.03775 1.88781 0
M  V30 5815 C 564.787 6.42953 1.79354 0
M  V30 5816 H 564.057 0.506588 0.540786 0
M  V30 5817 H 566.704 1.72929 0.822663 0
M  V30 5818 H 565.009 1.90501 3.42369 0
M  V30 5819 H 566.706 2.27664 3.30106 0
M  V30 5820 H 563.296 3.47318 2.51133 0
M  V30 5821 H 567.48 4.42026 2.25669 0
M  V30 5822 H 562.736 5.79776 1.94088 0
M  V30 5823 H 566.91 6.75428 1.69617 0
M  V30 5824 H 564.537 7.44584 1.53291 0
M  V30 5825 N 566.112 -0.949982 1.2575 0
M  V30 5826 C 567.022 -2.08109 1.08295 0
M  V30 5827 C 568.038 -1.7399 0.0188181 0
M  V30 5828 O 569.214 -2.00187 0.220724 0
M  V30 5829 C 566.279 -3.39383 0.708534 0
M  V30 5830 C 565.34 -3.8734 1.85111 0
M  V30 5831 C 564.573 -5.12349 1.49447 0
M  V30 5832 O 564.796 -5.6905 0.392212 0
M  V30 5833 O 563.73 -5.5513 2.32624 0
M  V30 5834 H 567.556 -2.25738 2.03165 0
M  V30 5835 H 565.141 -1.06545 1.04731 0
M  V30 5836 H 567.023 -4.18277 0.512061 0
M  V30 5837 H 565.698 -3.23013 -0.210854 0
M  V30 5838 H 564.605 -3.09429 2.10248 0
M  V30 5839 H 565.938 -4.08216 2.74991 0
M  V30 5840 N 567.59 -1.07411 -1.15328 0
M  V30 5841 C 568.867 -0.710732 -1.82231 0
M  V30 5842 C 569.247 0.806732 -1.95077 0
M  V30 5843 O 568.595 1.72139 -1.50268 0
M  V30 5844 C 568.805 -1.42586 -3.18544 0
M  V30 5845 C 570.153 -1.57836 -3.94174 0
M  V30 5846 O 571.177 -1.38669 -3.281 0
M  V30 5847 O 570.036 -1.8938 -5.12638 0
M  V30 5848 H 567.13 -0.25297 -0.78736 0
M  V30 5849 H 569.676 -1.17508 -1.22434 0
M  V30 5850 H 568.448 -2.46008 -3.04296 0
M  V30 5851 H 568.071 -0.952332 -3.86026 0
M  V30 5852 N 569.068 1.32177 -0.85831 0
M  V30 5853 C 570.314 1.97417 -0.46417 0
M  V30 5854 C 570.647 1.67746 0.978514 0
M  V30 5855 O 569.922 0.967654 1.68721 0
M  V30 5856 C 570.205 3.53069 -0.708094 0
M  V30 5857 C 570.058 3.92357 -2.19946 0
M  V30 5858 C 571.377 4.39783 -0.166881 0
M  V30 5859 H 568.496 0.717097 -0.17012 0
M  V30 5860 H 571.138 1.56499 -1.07741 0
M  V30 5861 H 569.288 3.88054 -0.186128 0
M  V30 5862 H 570.96 3.67533 -2.78779 0
M  V30 5863 H 569.203 3.41384 -2.67656 0
M  V30 5864 H 569.874 5.00841 -2.32082 0
M  V30 5865 H 572.35 4.11556 -0.613285 0
M  V30 5866 H 571.226 5.47671 -0.367093 0
M  V30 5867 H 571.487 4.32196 0.930559 0
M  V30 5868 N 570.547 0.616602 1.45037 0
M  V30 5869 C 571.51 -0.0871112 2.29034 0
M  V30 5870 C 572.51 -0.786414 1.40258 0
M  V30 5871 O 573.7 -0.633207 1.62284 0
M  V30 5872 C 570.832 -1.13369 3.21497 0
M  V30 5873 H 572.025 0.651497 2.92738 0
M  V30 5874 H 569.578 0.376058 1.51709 0
M  V30 5875 H 570.313 -1.90277 2.62612 0
M  V30 5876 H 570.098 -0.636358 3.86902 0
M  V30 5877 H 571.588 -1.62627 3.84633 0
M  V30 5878 N 572.025 -1.5352 0.356285 0
M  V30 5879 C 573.274 -2.00298 -0.237373 0
M  V30 5880 C 573.587 -1.24784 -1.50627 0
M  V30 5881 O 574.793 -1.62103 -2.17795 0
M  V30 5882 C 573.249 -3.56771 -0.473545 0
M  V30 5883 C 572.857 -4.41154 0.780183 0
M  V30 5884 C 574.601 -4.1193 -1.02537 0
M  V30 5885 C 572.508 -5.89161 0.514108 0
M  V30 5886 H 571.438 -0.748307 -0.092478 0
M  V30 5887 H 574.089 -1.77283 0.473588 0
M  V30 5888 H 572.471 -3.75902 -1.24553 0
M  V30 5889 H 573.645 -4.33797 1.55425 0
M  V30 5890 H 571.96 -3.97052 1.25455 0
M  V30 5891 H 574.557 -5.20133 -1.2396 0
M  V30 5892 H 574.9 -3.65943 -1.98473 0
M  V30 5893 H 575.433 -3.96561 -0.313775 0
M  V30 5894 H 572.172 -6.39408 1.44355 0
M  V30 5895 H 571.692 -5.9939 -0.221632 0
M  V30 5896 H 573.371 -6.46857 0.136122 0
M  V30 5897 N 573.503 -0.0852151 -1.57369 0
M  V30 5898 C 574.751 0.579658 -1.93609 0
M  V30 5899 C 575.072 1.69332 -0.967043 0
M  V30 5900 O 574.342 1.95892 -0.0174215 0
M  V30 5901 H 572.922 0.217113 -0.714752 0
M  V30 5902 H 575.584 -0.146226 -1.94351 0
M  V30 5903 H 574.68 0.996276 -2.95771 0
M  V30 5904 N 574.981 1.5647 0.188427 0
M  V30 5905 C 575.944 1.9421 1.21718 0
M  V30 5906 C 576.944 0.823901 1.38089 0
M  V30 5907 O 578.134 1.09122 1.35787 0
M  V30 5908 C 575.266 2.22197 2.58537 0
M  V30 5909 H 576.459 2.86252 0.894418 0
M  V30 5910 H 574.012 1.50263 0.430211 0
M  V30 5911 H 574.747 1.32814 2.95856 0
M  V30 5912 H 574.532 3.03688 2.48025 0
M  V30 5913 H 576.022 2.52376 3.3271 0
M  V30 5914 N 576.459 -0.456382 1.50847 0
M  V30 5915 C 577.87 -1.03685 1.55262 0
M  V30 5916 C 578.221 -1.92779 0.364771 0
M  V30 5917 O 577.346 -2.10043 -0.52068 0
M  V30 5918 C 577.941 -1.88718 2.81374 0
M  V30 5919 C 576.5 -2.41847 2.88422 0
M  V30 5920 C 575.647 -1.20564 2.49719 0
M  V30 5921 H 578.598 -0.238399 1.56899 0
M  V30 5922 H 578.619 -2.73957 2.6406 0
M  V30 5923 H 578.131 -1.23847 3.67809 0
M  V30 5924 H 576.232 -3.10228 2.06372 0
M  V30 5925 H 576.345 -2.75947 3.9165 0
M  V30 5926 H 574.709 -1.54504 2.02486 0
M  V30 5927 H 575.492 -0.573326 3.38479 0
M  V30 5928 N 577.937 -1.40673 -0.710563 0
M  V30 5929 C 578.869 -1.37256 -1.83558 0
M  V30 5930 C 579.882 -0.277133 -1.60424 0
M  V30 5931 O 581.071 -0.537831 -1.70205 0
M  V30 5932 C 578.171 -1.1144 -3.20054 0
M  V30 5933 C 577.344 -2.32734 -3.70342 0
M  V30 5934 C 576.403 -2.03002 -4.85465 0
M  V30 5935 O 575.429 -2.75912 -4.97857 0
M  V30 5936 N 576.631 -1.01105 -5.71627 0
M  V30 5937 H 579.396 -2.34215 -1.86985 0
M  V30 5938 H 576.957 -1.35091 -0.892301 0
M  V30 5939 H 578.949 -0.895265 -3.94673 0
M  V30 5940 H 577.519 -0.231307 -3.11743 0
M  V30 5941 H 576.739 -2.70446 -2.86798 0
M  V30 5942 H 578.027 -3.13584 -4.00678 0
M  V30 5943 H 577.425 -0.407303 -5.64232 0
M  V30 5944 H 575.982 -0.85182 -6.4621 0
M  V30 5945 N 579.415 0.9433 -1.26252 0
M  V30 5946 C 580.325 2.07532 -1.09397 0
M  V30 5947 C 581.341 1.73977 -0.0280449 0
M  V30 5948 O 582.517 2.00067 -0.231337 0
M  V30 5949 C 579.582 3.39002 -0.726523 0
M  V30 5950 C 578.643 3.86353 -1.87163 0
M  V30 5951 C 577.876 5.11549 -1.52162 0
M  V30 5952 O 578.099 5.68834 -0.422385 0
M  V30 5953 O 577.033 5.53889 -2.35565 0
M  V30 5954 H 580.859 2.24658 -2.04359 0
M  V30 5955 H 578.444 1.05988 -1.05295 0
M  V30 5956 H 580.326 4.18 -0.534236 0
M  V30 5957 H 579.001 3.2312 0.193721 0
M  V30 5958 H 577.908 3.0831 -2.11886 0
M  V30 5959 H 579.241 4.06752 -2.77152 0
M  V30 5960 N 580.893 1.08022 1.14757 0
M  V30 5961 C 582.17 0.720386 1.81851 0
M  V30 5962 C 582.55 -0.796375 1.95502 0
M  V30 5963 O 581.898 -1.71339 1.51179 0
M  V30 5964 C 582.108 1.44273 3.17783 0
M  V30 5965 C 583.456 1.59925 3.93331 0
M  V30 5966 O 584.48 1.40407 3.2736 0
M  V30 5967 O 583.339 1.92096 5.11626 0
M  V30 5968 H 580.433 0.257142 0.786007 0
M  V30 5969 H 582.979 1.18155 1.21809 0
M  V30 5970 H 581.751 2.47618 3.02987 0
M  V30 5971 H 581.374 0.97279 3.85516 0
M  V30 5972 N 582.371 -1.3172 0.865308 0
M  V30 5973 C 583.648 -1.91574 0.394789 0
M  V30 5974 C 584.028 -1.78769 -1.12271 0
M  V30 5975 O 583.376 -1.19245 -1.94918 0
M  V30 5976 C 583.586 -3.37957 0.870982 0
M  V30 5977 C 584.934 -4.15073 0.894384 0
M  V30 5978 O 585.958 -3.4672 0.816325 0
M  V30 5979 O 584.817 -5.37151 1.00651 0
M  V30 5980 H 581.911 -0.818649 0.117229 0
M  V30 5981 H 584.457 -1.4042 0.952913 0
M  V30 5982 H 583.229 -3.41269 1.91444 0
M  V30 5983 H 582.852 -3.96534 0.290907 0
M  V30 5984 N 583.85 -0.624285 -1.44708 0
M  V30 5985 C 584.779 0.0717025 -2.3339 0
M  V30 5986 C 585.76 0.841814 -1.47809 0
M  V30 5987 O 586.946 0.809056 -1.76544 0
M  V30 5988 C 584.076 1.05852 -3.30776 0
M  V30 5989 C 583.029 0.400503 -4.26122 0
M  V30 5990 C 582.356 1.49674 -5.13324 0
M  V30 5991 C 583.656 -0.688924 -5.17737 0
M  V30 5992 H 585.35 -0.668819 -2.91834 0
M  V30 5993 H 582.896 -0.32308 -1.40329 0
M  V30 5994 H 584.849 1.5541 -3.91696 0
M  V30 5995 H 583.572 1.82984 -2.70526 0
M  V30 5996 H 582.231 -0.0743687 -3.66525 0
M  V30 5997 H 581.88 2.25877 -4.49431 0
M  V30 5998 H 581.58 1.06188 -5.77926 0
M  V30 5999 H 583.104 1.99427 -5.77115 0
M  V30 6000 H 584.518 -0.276724 -5.72632 0
M  V30 6001 H 582.915 -1.04652 -5.90904 0
M  V30 6002 H 583.985 -1.55884 -4.5916 0
M  V30 6003 N 585.328 1.53329 -0.364422 0
M  V30 6004 C 586.26 2.23286 0.517293 0
M  V30 6005 C 587.273 1.24657 1.04711 0
M  V30 6006 O 588.462 1.50887 0.95369 0
M  V30 6007 C 585.562 2.91604 1.72685 0
M  V30 6008 C 584.735 4.1673 1.32873 0
M  V30 6009 C 583.794 4.68269 2.40022 0
M  V30 6010 O 582.82 5.31976 2.02461 0
M  V30 6011 N 584.022 4.45983 3.7159 0
M  V30 6012 H 586.787 2.99588 -0.0819391 0
M  V30 6013 H 584.348 1.60787 -0.189544 0
M  V30 6014 H 586.34 3.22992 2.4384 0
M  V30 6015 H 584.91 2.18763 2.23297 0
M  V30 6016 H 584.13 3.91657 0.447069 0
M  V30 6017 H 585.418 4.98078 1.03902 0
M  V30 6018 H 584.816 3.95077 4.04883 0
M  V30 6019 H 583.373 4.81924 4.38854 0
M  V30 6020 N 586.806 0.0935595 1.57322 0
M  V30 6021 C 588.054 -0.569383 1.93913 0
M  V30 6022 C 588.375 -1.68817 0.976009 0
M  V30 6023 O 587.645 -1.9588 0.0278099 0
M  V30 6024 H 586.225 -0.21332 0.715894 0
M  V30 6025 H 588.887 0.156531 1.9427 0
M  V30 6026 H 587.983 -0.980577 2.96296 0
M  V30 6027 N 588.284 -1.56567 -0.180126 0
M  V30 6028 C 589.247 -1.94852 -1.20686 0
M  V30 6029 C 590.247 -0.831212 -1.3765 0
M  V30 6030 O 591.437 -1.09841 -1.35206 0
M  V30 6031 C 588.569 -2.23565 -2.57355 0
M  V30 6032 H 589.762 -2.86722 -0.879225 0
M  V30 6033 H 587.315 -1.50489 -0.422237 0
M  V30 6034 H 588.05 -1.34381 -2.95148 0
M  V30 6035 H 587.835 -3.04999 -2.46411 0
M  V30 6036 H 589.325 -2.54137 -3.31367 0
M  V30 6037 N 589.762 0.448376 -1.51087 0
M  V30 6038 C 591.011 1.19561 -1.62444 0
M  V30 6039 C 591.324 1.92602 -0.341151 0
M  V30 6040 O 592.53 2.69439 -0.333936 0
M  V30 6041 C 590.986 2.17373 -2.8684 0
M  V30 6042 C 590.594 1.5003 -4.22131 0
M  V30 6043 C 592.338 2.92597 -3.0755 0
M  V30 6044 C 590.245 2.46262 -5.37689 0
M  V30 6045 H 589.175 0.449975 -0.605011 0
M  V30 6046 H 591.826 0.463735 -1.77544 0
M  V30 6047 H 590.208 2.93948 -2.65349 0
M  V30 6048 H 591.382 0.790886 -4.53962 0
M  V30 6049 H 589.697 0.870011 -4.0721 0
M  V30 6050 H 592.294 3.64663 -3.91056 0
M  V30 6051 H 592.637 3.53306 -2.20183 0
M  V30 6052 H 593.17 2.23131 -3.29329 0
M  V30 6053 H 589.909 1.90258 -6.27281 0
M  V30 6054 H 589.429 3.15289 -5.10248 0
M  V30 6055 H 591.108 3.07623 -5.6919 0
M  V30 6056 N 591.24 1.41047 0.703093 0
M  V30 6057 C 592.47 1.43133 1.48985 0
M  V30 6058 C 592.878 0.0328537 1.89171 0
M  V30 6059 O 592.221 -0.956469 1.56835 0
M  V30 6060 C 592.283 2.26991 2.78775 0
M  V30 6061 C 591.947 3.7525 2.60837 0
M  V30 6062 C 592.944 4.67591 2.27276 0
M  V30 6063 C 590.629 4.19208 2.76712 0
M  V30 6064 C 592.623 6.01877 2.09817 0
M  V30 6065 C 590.31 5.53561 2.5887 0
M  V30 6066 C 591.308 6.4471 2.25472 0
M  V30 6067 O 590.996 7.76584 2.07778 0
M  V30 6068 H 590.728 0.489788 0.465922 0
M  V30 6069 H 593.282 1.85886 0.873822 0
M  V30 6070 H 591.512 1.79038 3.42757 0
M  V30 6071 H 593.201 2.20867 3.40547 0
M  V30 6072 H 593.967 4.34923 2.14633 0
M  V30 6073 H 589.846 3.48572 3.01693 0
M  V30 6074 H 593.39 6.72986 1.83671 0
M  V30 6075 H 589.287 5.85811 2.71102 0
M  V30 6076 H 590.055 7.87649 2.22601 0
M  V30 6077 N 592.718 -0.936591 1.26751 0
M  V30 6078 C 593.967 -1.67778 1.11953 0
M  V30 6079 C 594.28 -1.92694 -0.33589 0
M  V30 6080 O 595.486 -2.64682 -0.604618 0
M  V30 6081 C 593.942 -3.02138 1.95551 0
M  V30 6082 C 593.55 -2.84953 3.45696 0
M  V30 6083 C 595.294 -3.79917 1.89377 0
M  V30 6084 C 593.201 -4.14814 4.21525 0
M  V30 6085 H 592.131 -0.629275 0.415366 0
M  V30 6086 H 594.782 -1.04122 1.51099 0
M  V30 6087 H 593.164 -3.668 1.49243 0
M  V30 6088 H 594.338 -2.29112 3.99805 0
M  V30 6089 H 592.653 -2.20612 3.53156 0
M  V30 6090 H 595.25 -4.76134 2.43312 0
M  V30 6091 H 595.593 -4.07204 0.865464 0
M  V30 6092 H 596.126 -3.22037 2.33532 0
M  V30 6093 H 592.865 -3.92709 5.24843 0
M  V30 6094 H 592.385 -4.70352 3.72195 0
M  V30 6095 H 594.064 -4.83239 4.3022 0
M  V30 6096 N 594.196 -1.08629 -1.14182 0
M  V30 6097 C 595.426 -0.837673 -1.88856 0
M  V30 6098 C 595.834 0.614024 -1.78959 0
M  V30 6099 O 595.177 1.43384 -1.14833 0
M  V30 6100 C 595.239 -1.18355 -3.39459 0
M  V30 6101 C 594.903 -2.63848 -3.73139 0
M  V30 6102 C 595.9 -3.62099 -3.73069 0
M  V30 6103 C 593.585 -2.99761 -4.03049 0
M  V30 6104 C 595.579 -4.94292 -4.02435 0
M  V30 6105 C 593.266 -4.32147 -4.32078 0
M  V30 6106 C 594.264 -5.29223 -4.31755 0
M  V30 6107 O 593.952 -6.59229 -4.60079 0
M  V30 6108 H 593.684 -0.301609 -0.604986 0
M  V30 6109 H 596.238 -1.44961 -1.45518 0
M  V30 6110 H 594.468 -0.514628 -3.8326 0
M  V30 6111 H 596.157 -0.915391 -3.95443 0
M  V30 6112 H 596.923 -3.35698 -3.50046 0
M  V30 6113 H 592.802 -2.2484 -4.02453 0
M  V30 6114 H 596.346 -5.70055 -4.02098 0
M  V30 6115 H 592.243 -4.58296 -4.54571 0
M  V30 6116 H 593.011 -6.64578 -4.77785 0
M  V30 6117 N 595.674 1.31259 -0.872281 0
M  V30 6118 C 596.622 2.30404 -0.318897 0
M  V30 6119 C 597.616 1.5962 0.567267 0
M  V30 6120 O 598.822 1.74204 0.453111 0
M  V30 6121 H 595.197 0.747243 -0.0844474 0
M  V30 6122 H 597.168 2.74549 -1.16899 0
M  V30 6123 C 595.917 3.44608 0.462683 0
M  V30 6124 H 595.24 3.99248 -0.209936 0
M  V30 6125 H 596.68 4.1609 0.815187 0
M  V30 6126 C 595.139 2.93456 1.65485 0
M  V30 6127 O 595.669 2.92418 2.75417 0
M  V30 6128 N 593.875 2.49628 1.48776 0
M  V30 6129 H 593.422 2.50671 0.593452 0
M  V30 6130 H 593.38 2.15759 2.28682 0
M  V30 6131 N 597.152 0.631951 1.44375 0
M  V30 6132 C 598.4 0.136497 2.01639 0
M  V30 6133 C 598.721 -1.24637 1.49969 0
M  V30 6134 O 597.991 -1.82827 0.70363 0
M  V30 6135 H 596.571 0.0474703 0.74549 0
M  V30 6136 H 599.233 0.818837 1.76865 0
M  V30 6137 H 598.329 0.104817 3.11924 0
M  V30 6138 N 598.631 -1.53133 0.372548 0
M  V30 6139 C 600.047 -1.59585 0.02178 0
M  V30 6140 C 600.247 -1.38736 -1.46132 0
M  V30 6141 O 599.303 -1.19599 -2.22379 0
M  V30 6142 C 600.616 -2.9678 0.483959 0
M  V30 6143 C 602.164 -3.09909 0.438775 0
M  V30 6144 C 602.639 -4.49527 0.876876 0
M  V30 6145 N 604.13 -4.55663 0.832214 0
M  V30 6146 C 604.865 -5.61896 1.14281 0
M  V30 6147 N 604.361 -6.75852 1.52303 0
M  V30 6148 N 606.154 -5.51916 1.06515 0
M  V30 6149 H 598.305 -1.64936 1.33827 0
M  V30 6150 H 600.568 -0.773947 0.547458 0
M  V30 6151 H 600.274 -3.17198 1.51915 0
M  V30 6152 H 600.148 -3.7699 -0.125784 0
M  V30 6153 H 602.535 -2.89197 -0.587294 0
M  V30 6154 H 602.616 -2.31691 1.0841 0
M  V30 6155 H 602.26 -4.70979 1.90109 0
M  V30 6156 H 602.19 -5.26186 0.208727 0
M  V30 6157 H 604.681 -3.73844 0.552195 0
M  V30 6158 H 604.994 -7.52862 1.7441 0
M  V30 6159 H 603.339 -6.77226 1.56175 0
M  V30 6160 H 606.53 -4.6177 0.767235 0
M  V30 6161 H 606.703 -6.34609 1.31053 0
M  V30 6162 N 600.109 -0.101901 -1.5727 0
M  V30 6163 C 601.072 0.840129 -2.13247 0
M  V30 6164 C 602.072 1.20625 -1.06331 0
M  V30 6165 O 603.262 1.13456 -1.32186 0
M  V30 6166 C 600.394 2.13372 -2.65867 0
M  V30 6167 H 601.587 0.353945 -2.97804 0
M  V30 6168 H 599.14 0.147167 -1.55606 0
M  V30 6169 H 599.875 2.66461 -1.84849 0
M  V30 6170 H 599.66 1.88085 -3.44044 0
M  V30 6171 H 601.15 2.80748 -3.09145 0
M  V30 6172 N 601.587 1.56661 0.17182 0
M  V30 6173 C 602.864 1.72838 0.915778 0
M  V30 6174 C 603.244 0.66316 2.00413 0
M  V30 6175 O 602.592 -0.322123 2.26218 0
M  V30 6176 C 602.802 3.16019 1.48097 0
M  V30 6177 C 604.15 3.76962 1.95408 0
M  V30 6178 O 605.174 3.19294 1.57892 0
M  V30 6179 O 604.033 4.78219 2.64516 0
M  V30 6180 H 601.127 0.705797 0.431021 0
M  V30 6181 H 603.673 1.68947 0.159689 0
M  V30 6182 H 602.445 3.85031 0.697618 0
M  V30 6183 H 602.068 3.24234 2.30126 0
M  V30 6184 N 603.065 -0.440357 1.51323 0
M  V30 6185 C 604.313 -1.18769 1.63518 0
M  V30 6186 C 604.634 -1.91793 0.352201 0
M  V30 6187 O 603.904 -1.85432 -0.631811 0
M  V30 6188 H 602.484 -0.441408 0.602634 0
M  V30 6189 H 605.146 -0.505162 1.8824 0
M  V30 6190 H 604.242 -1.91892 2.46138 0
M  V30 6191 N 604.543 -1.41418 -0.695603 0
M  V30 6192 C 605.792 -1.40073 -1.4513 0
M  V30 6193 C 606.105 -0.0130439 -1.95596 0
M  V30 6194 O 607.311 0.123032 -2.71221 0
M  V30 6195 C 605.767 -2.46286 -2.62433 0
M  V30 6196 C 605.375 -3.90962 -2.18753 0
M  V30 6197 C 607.119 -2.54077 -3.40066 0
M  V30 6198 C 605.026 -4.88728 -3.33015 0
M  V30 6199 H 603.956 -0.520903 -0.545138 0
M  V30 6200 H 606.607 -1.67242 -0.75515 0
M  V30 6201 H 604.989 -2.12248 -3.34315 0
M  V30 6202 H 606.163 -4.34248 -1.54161 0
M  V30 6203 H 604.478 -3.86831 -1.54114 0
M  V30 6204 H 607.075 -3.24303 -4.25125 0
M  V30 6205 H 607.418 -1.5776 -3.8525 0
M  V30 6206 H 607.951 -2.87206 -2.75241 0
M  V30 6207 H 604.69 -5.86449 -2.92844 0
M  V30 6208 H 604.21 -4.50091 -3.96457 0
M  V30 6209 H 605.889 -5.09483 -3.98793 0
M  V30 6210 N 606.021 0.929856 -1.27246 0
M  V30 6211 C 607.246 1.71674 -1.16374 0
M  V30 6212 C 607.671 1.86064 0.276024 0
M  V30 6213 O 607.029 1.3591 1.19992 0
M  V30 6214 C 607.077 3.09526 -1.85003 0
M  V30 6215 O 606.181 3.96142 -1.14653 0
M  V30 6216 H 605.522 0.52629 -0.404863 0
M  V30 6217 H 608.052 1.16381 -1.68276 0
M  V30 6218 H 608.062 3.59852 -1.92276 0
M  V30 6219 H 606.737 2.98369 -2.89739 0
M  V30 6220 H 605.314 3.54584 -1.15433 0
M  V30 6221 N 607.499 1.09233 1.13605 0
M  V30 6222 C 608.724 0.849067 1.89224 0
M  V30 6223 C 609.149 -0.593875 1.78479 0
M  V30 6224 O 608.507 -1.41703 1.13092 0
M  V30 6225 C 608.555 1.28642 3.36873 0
M  V30 6226 O 607.659 0.44363 4.10007 0
M  V30 6227 H 607 0.30767 0.588417 0
M  V30 6228 H 609.53 1.45595 1.43748 0
M  V30 6229 H 609.54 1.27096 3.87699 0
M  V30 6230 H 608.215 2.33729 3.44011 0
M  V30 6231 H 606.792 0.523241 3.69211 0
M  V30 6232 N 608.977 -1.30795 0.87923 0
M  V30 6233 C 610.205 -2.00527 0.509548 0
M  V30 6234 C 610.62 -1.65944 -0.90045 0
M  V30 6235 O 609.977 -0.893525 -1.5913 0
M  V30 6236 C 610.028 -3.55276 0.667943 0
M  V30 6237 O 609.749 -3.88625 2.02242 0
M  V30 6238 C 611.25 -4.4228 0.300494 0
M  V30 6239 H 608.47 -0.641261 0.197549 0
M  V30 6240 H 611.014 -1.66813 1.18295 0
M  V30 6241 H 609.169 -3.87377 0.0419843 0
M  V30 6242 H 609.583 -4.83334 2.03688 0
M  V30 6243 H 611.057 -5.50061 0.462242 0
M  V30 6244 H 611.534 -4.32556 -0.76106 0
M  V30 6245 H 612.14 -4.15613 0.902536 0
M  V30 6246 N 610.455 -0.639598 -1.44038 0
M  V30 6247 C 611.702 -0.14748 -2.01962 0
M  V30 6248 C 612.03 1.23372 -1.50365 0
M  V30 6249 O 611.285 1.8345 -0.681501 0
M  V30 6250 C 611.584 -0.0925348 -3.5728 0
M  V30 6251 C 611.25 -1.41365 -4.28167 0
M  V30 6252 C 609.912 -1.77545 -4.47248 0
M  V30 6253 C 612.264 -2.2853 -4.68427 0
M  V30 6254 C 609.592 -3.00583 -5.03852 0
M  V30 6255 C 611.944 -3.50846 -5.26393 0
M  V30 6256 C 610.608 -3.8724 -5.43692 0
M  V30 6257 H 609.878 -0.0539666 -0.739032 0
M  V30 6258 H 612.525 -0.827599 -1.72694 0
M  V30 6259 H 610.83 0.670987 -3.86012 0
M  V30 6260 H 612.527 0.304891 -3.99839 0
M  V30 6261 H 609.117 -1.1221 -4.13651 0
M  V30 6262 H 613.301 -2.0187 -4.5339 0
M  V30 6263 H 608.557 -3.28846 -5.15432 0
M  V30 6264 H 612.731 -4.18616 -5.56537 0
M  V30 6265 H 610.358 -4.8266 -5.87319 0
M  V30 6266 N 611.933 1.52934 -0.380664 0
M  V30 6267 C 613.158 2.06363 0.207157 0
M  V30 6268 C 613.583 1.25122 1.4045 0
M  V30 6269 O 612.941 0.274062 1.79217 0
M  V30 6270 C 612.989 3.56162 0.563996 0
M  V30 6271 O 612.093 3.77552 1.65917 0
M  V30 6272 H 611.434 0.663468 0.0265859 0
M  V30 6273 H 613.964 1.9719 -0.545635 0
M  V30 6274 H 613.974 3.99453 0.830752 0
M  V30 6275 H 612.649 4.14732 -0.311427 0
M  V30 6276 H 611.226 3.46154 1.3868 0
M  V30 6277 N 613.412 0.11024 1.57214 0
M  V30 6278 C 614.344 -0.873497 2.11902 0
M  V30 6279 C 615.357 -1.23588 1.05971 0
M  V30 6280 O 616.546 -1.18636 1.33371 0
M  V30 6281 C 613.646 -2.17805 2.59643 0
M  V30 6282 C 612.819 -1.98869 3.89576 0
M  V30 6283 C 611.878 -3.12974 4.23006 0
M  V30 6284 O 610.904 -2.86272 4.91973 0
M  V30 6285 N 612.106 -4.39167 3.79622 0
M  V30 6286 H 614.871 -0.406317 2.96933 0
M  V30 6287 H 612.432 -0.074437 1.61729 0
M  V30 6288 H 614.424 -2.93117 2.79042 0
M  V30 6289 H 612.994 -2.55899 1.7954 0
M  V30 6290 H 612.214 -1.078 3.79174 0
M  V30 6291 H 613.502 -1.83512 4.74553 0
M  V30 6292 H 612.9 -4.63739 3.2398 0
M  V30 6293 H 611.457 -5.11379 4.04147 0
M  V30 6294 N 614.89 -1.56749 -0.16351 0
M  V30 6295 C 616.306 -1.51043 -0.515567 0
M  V30 6296 C 616.506 -0.815855 -1.84245 0
M  V30 6297 O 615.562 -0.379477 -2.49632 0
M  V30 6298 C 616.875 -2.95791 -0.541114 0
M  V30 6299 C 618.423 -3.0664 -0.627776 0
M  V30 6300 C 618.898 -4.52861 -0.684141 0
M  V30 6301 N 620.389 -4.5714 -0.746818 0
M  V30 6302 C 621.124 -5.67634 -0.811137 0
M  V30 6303 N 620.62 -6.8774 -0.835811 0
M  V30 6304 N 622.413 -5.55624 -0.850756 0
M  V30 6305 H 614.564 -2.00307 0.70645 0
M  V30 6306 H 616.827 -0.912876 0.255659 0
M  V30 6307 H 616.533 -3.49797 0.365329 0
M  V30 6308 H 616.407 -3.50858 -1.38487 0
M  V30 6309 H 618.794 -2.52663 -1.52464 0
M  V30 6310 H 618.875 -2.54645 0.242805 0
M  V30 6311 H 618.519 -5.07472 0.2085 0
M  V30 6312 H 618.449 -5.02621 -1.57098 0
M  V30 6313 H 620.94 -3.70669 -0.735717 0
M  V30 6314 H 621.253 -7.67701 -0.886279 0
M  V30 6315 H 619.598 -6.90334 -0.803958 0
M  V30 6316 H 622.789 -4.60709 -0.828535 0
M  V30 6317 H 622.962 -6.41756 -0.897418 0
M  V30 6318 N 616.368 0.432326 -1.51554 0
M  V30 6319 C 617.617 1.17831 -1.63703 0
M  V30 6320 C 617.93 1.92229 -0.36156 0
M  V30 6321 O 619.136 2.69069 -0.362495 0
M  V30 6322 C 617.592 2.14318 -2.89129 0
M  V30 6323 C 617.2 1.45544 -4.23699 0
M  V30 6324 C 618.944 2.89319 -3.10636 0
M  V30 6325 C 616.851 2.40545 -5.4027 0
M  V30 6326 H 615.781 0.443533 -0.60975 0
M  V30 6327 H 618.432 0.444878 -1.78026 0
M  V30 6328 H 616.814 2.91117 -2.68452 0
M  V30 6329 H 617.988 0.742693 -4.54775 0
M  V30 6330 H 616.303 0.826772 -4.0811 0
M  V30 6331 H 618.9 3.60495 -3.94902 0
M  V30 6332 H 619.243 3.50951 -2.23918 0
M  V30 6333 H 619.776 2.19625 -3.31677 0
M  V30 6334 H 616.515 1.83594 -6.29264 0
M  V30 6335 H 616.035 3.09859 -5.13563 0
M  V30 6336 H 617.714 3.01569 -5.72421 0
M  V30 6337 N 617.846 1.41785 0.688094 0
M  V30 6338 C 618.756 1.46596 1.83158 0
M  V30 6339 C 619.772 0.355862 1.70322 0
M  V30 6340 O 620.948 0.604737 1.92106 0
M  V30 6341 C 618.013 1.35322 3.192 0
M  V30 6342 C 617.074 2.56711 3.4409 0
M  V30 6343 C 616.307 2.45965 4.73642 0
M  V30 6344 O 616.53 1.48827 5.50642 0
M  V30 6345 O 615.464 3.35859 4.99482 0
M  V30 6346 H 619.29 2.43083 1.82056 0
M  V30 6347 H 616.875 1.23404 0.842126 0
M  V30 6348 H 618.757 1.31347 4.00407 0
M  V30 6349 H 617.432 0.419536 3.2097 0
M  V30 6350 H 616.339 2.66262 2.62784 0
M  V30 6351 H 617.672 3.48933 3.47141 0
M  V30 6352 N 619.324 -0.923095 1.27737 0
M  V30 6353 C 620.572 -1.66797 1.14119 0
M  V30 6354 C 620.893 -1.92479 -0.312541 0
M  V30 6355 O 620.163 -1.53432 -1.218 0
M  V30 6356 H 618.743 -0.618196 0.419336 0
M  V30 6357 H 621.405 -1.10815 1.60331 0
M  V30 6358 H 620.501 -2.63424 1.67374 0
M  V30 6359 N 620.802 -1.09834 -1.13024 0
M  V30 6360 C 621.732 -0.763451 -2.20666 0
M  V30 6361 C 622.713 0.260778 -1.68089 0
M  V30 6362 O 623.898 0.127915 -1.93778 0
M  V30 6363 C 621.028 -0.187744 -3.46792 0
M  V30 6364 C 619.982 -1.14196 -4.12484 0
M  V30 6365 C 619.308 -0.427755 -5.32986 0
M  V30 6366 C 620.608 -2.48607 -4.59338 0
M  V30 6367 H 622.302 -1.66347 -2.48936 0
M  V30 6368 H 619.848 -0.801261 -1.19649 0
M  V30 6369 H 621.801 0.0586375 -4.21359 0
M  V30 6370 H 620.525 0.747485 -3.17931 0
M  V30 6371 H 619.184 -1.37369 -3.3989 0
M  V30 6372 H 618.832 0.511747 -5.0039 0
M  V30 6373 H 618.532 -1.06403 -5.77886 0
M  V30 6374 H 620.056 -0.189772 -6.10305 0
M  V30 6375 H 621.47 -2.29618 -5.25308 0
M  V30 6376 H 619.867 -3.08062 -5.14993 0
M  V30 6377 H 620.937 -3.09062 -3.73642 0
M  V30 6378 N 622.28 1.30327 -0.886154 0
M  V30 6379 C 623.212 2.27079 -0.311072 0
M  V30 6380 C 624.225 1.53758 0.53502 0
M  V30 6381 O 625.414 1.74947 0.354378 0
M  V30 6382 C 622.514 3.33965 0.576228 0
M  V30 6383 C 621.687 4.36735 -0.241064 0
M  V30 6384 C 620.746 5.23028 0.576916 0
M  V30 6385 O 619.772 5.692 -0.000802231 0
M  V30 6386 N 620.974 5.49016 1.88579 0
M  V30 6387 H 623.739 2.77065 -1.14259 0
M  V30 6388 H 621.3 1.43519 -0.749258 0
M  V30 6389 H 623.292 3.88618 1.12953 0
M  V30 6390 H 621.862 2.839 1.30842 0
M  V30 6391 H 621.082 3.81932 -0.975805 0
M  V30 6392 H 622.37 5.02451 -0.801272 0
M  V30 6393 H 621.768 5.13288 2.37806 0
M  V30 6394 H 620.325 6.06539 2.38651 0
M  V30 6395 N 623.758 0.647228 1.43697 0
M  V30 6396 C 625.007 0.155552 2.01099 0
M  V30 6397 C 625.32 -1.23569 1.51624 0
M  V30 6398 O 626.526 -1.82226 2.01261 0
M  V30 6399 C 624.982 0.227296 3.59182 0
M  V30 6400 C 624.59 1.62086 4.17651 0
M  V30 6401 C 626.334 -0.207085 4.23995 0
M  V30 6402 C 624.241 1.64685 5.68008 0
M  V30 6403 H 623.171 0.0543895 0.752036 0
M  V30 6404 H 625.822 0.808386 1.64734 0
M  V30 6405 H 624.204 -0.492937 3.9292 0
M  V30 6406 H 625.378 2.36597 3.95422 0
M  V30 6407 H 623.693 2.0007 3.65186 0
M  V30 6408 H 626.29 -0.207426 5.34298 0
M  V30 6409 H 626.633 -1.23742 3.97484 0
M  V30 6410 H 627.166 0.461193 3.95118 0
M  V30 6411 H 623.905 2.65608 5.99277 0
M  V30 6412 H 623.425 0.944914 5.9231 0
M  V30 6413 H 625.104 1.38792 6.31938 0
M  V30 6414 N 625.236 -1.5273 0.388769 0
M  V30 6415 C 626.461 -2.0647 -0.19621 0
M  V30 6416 C 626.886 -1.25865 -1.39784 0
M  V30 6417 O 626.244 -0.283562 -1.79069 0
M  V30 6418 C 626.292 -3.56456 -0.5451 0
M  V30 6419 O 625.396 -3.78426 -1.63912 0
M  V30 6420 H 624.737 -0.663599 -0.023067 0
M  V30 6421 H 627.267 -1.96898 0.556084 0
M  V30 6422 H 627.277 -3.99888 -0.809557 0
M  V30 6423 H 625.952 -4.14561 0.333417 0
M  V30 6424 H 624.529 -3.46884 -1.36842 0
M  V30 6425 N 626.714 -0.118576 -1.57153 0
M  V30 6426 C 627.661 0.831789 -2.1529 0
M  V30 6427 C 628.631 1.26385 -1.07778 0
M  V30 6428 O 629.816 1.34144 -1.35684 0
M  V30 6429 C 626.956 2.07664 -2.75626 0
M  V30 6430 C 626.069 1.69298 -3.97444 0
M  V30 6431 C 625.204 2.88747 -4.45868 0
M  V30 6432 C 624.243 2.46619 -5.60219 0
M  V30 6433 N 623.38 3.5898 -6.03389 0
M  V30 6434 H 628.22 0.329183 -2.96176 0
M  V30 6435 H 625.757 0.150792 -1.46325 0
M  V30 6436 H 627.715 2.80601 -3.08738 0
M  V30 6437 H 626.345 2.55384 -1.97431 0
M  V30 6438 H 625.397 0.862374 -3.70496 0
M  V30 6439 H 626.709 1.34338 -4.80369 0
M  V30 6440 H 625.863 3.69909 -4.80887 0
M  V30 6441 H 624.602 3.26933 -3.61892 0
M  V30 6442 H 623.607 1.63889 -5.24805 0
M  V30 6443 H 624.832 2.0955 -6.45961 0
M  V30 6444 H 622.778 3.9684 -5.22354 0
M  V30 6445 H 622.695 3.27942 -6.81168 0
M  V30 6446 H 623.963 4.40583 -6.43045 0
M  V30 6447 N 628.193 1.56834 0.155195 0
M  V30 6448 C 629.418 1.87412 0.888337 0
M  V30 6449 C 629.843 0.70671 1.74319 0
M  V30 6450 O 629.201 -0.343892 1.78009 0
M  V30 6451 C 629.249 3.1652 1.72765 0
M  V30 6452 O 628.353 2.99877 2.83103 0
M  V30 6453 H 627.694 0.615983 0.247914 0
M  V30 6454 H 630.224 2.04061 0.148478 0
M  V30 6455 H 630.234 3.48334 2.12433 0
M  V30 6456 H 628.909 4.01094 1.09985 0
M  V30 6457 H 627.486 2.79453 2.46902 0
M  V30 6458 N 629.671 -0.424282 1.51781 0
M  V30 6459 C 630.601 -1.52305 1.7699 0
M  V30 6460 C 631.582 -1.5839 0.620209 0
M  V30 6461 O 632.767 -1.73908 0.864268 0
M  V30 6462 C 629.897 -2.90271 1.90683 0
M  V30 6463 C 628.851 -2.99043 3.06198 0
M  V30 6464 C 628.177 -4.39116 3.05092 0
M  V30 6465 C 629.477 -2.7192 4.45934 0
M  V30 6466 H 631.171 -1.31461 2.68995 0
M  V30 6467 H 628.717 -0.630985 1.29439 0
M  V30 6468 H 630.67 -3.6711 2.06901 0
M  V30 6469 H 629.394 -3.12376 0.953365 0
M  V30 6470 H 628.053 -2.24646 2.89706 0
M  V30 6471 H 627.701 -4.58207 2.07498 0
M  V30 6472 H 627.401 -4.45912 3.82669 0
M  V30 6473 H 628.925 -5.17911 3.2342 0
M  V30 6474 H 630.339 -3.38487 4.62709 0
M  V30 6475 H 628.736 -2.90111 5.25315 0
M  V30 6476 H 629.806 -1.67445 4.55072 0
M  V30 6477 N 631.149 -1.42148 -0.680565 0
M  V30 6478 C 632.374 -1.45901 -1.47403 0
M  V30 6479 C 632.799 -0.0700985 -1.87969 0
M  V30 6480 O 632.157 0.930145 -1.55621 0
M  V30 6481 C 632.205 -2.38661 -2.70321 0
M  V30 6482 O 631.309 -1.85399 -3.68376 0
M  V30 6483 H 630.65 -0.494565 -0.443059 0
M  V30 6484 H 633.18 -1.86774 -0.835251 0
M  V30 6485 H 633.19 -2.55046 -3.18458 0
M  V30 6486 H 631.865 -3.39571 -2.40134 0
M  V30 6487 H 630.442 -1.78541 -3.2738 0
M  V30 6488 N 632.627 0.916307 -1.28225 0
M  V30 6489 C 633.56 2.01954 -1.06254 0
M  V30 6490 C 634.538 1.62587 0.0205983 0
M  V30 6491 O 635.722 1.88073 -0.126824 0
M  V30 6492 C 632.849 3.33086 -0.614141 0
M  V30 6493 C 631.895 3.91435 -1.69354 0
M  V30 6494 S 632.728 4.22603 -3.28887 0
M  V30 6495 C 633.884 5.568 -2.85876 0
M  V30 6496 H 634.117 2.20281 -1.99659 0
M  V30 6497 H 631.65 1.06085 -1.12184 0
M  V30 6498 H 633.608 4.089 -0.36213 0
M  V30 6499 H 632.269 3.12664 0.300036 0
M  V30 6500 H 631.462 4.86098 -1.33136 0
M  V30 6501 H 631.064 3.22248 -1.89821 0
M  V30 6502 H 633.356 6.3658 -2.31888 0
M  V30 6503 H 634.299 5.97927 -3.79326 0
M  V30 6504 H 634.707 5.17865 -2.24669 0
M  V30 6505 N 634.105 1.10431 1.1244 0
M  V30 6506 C 635.352 0.846717 1.83948 0
M  V30 6507 C 635.68 -0.627709 1.84093 0
M  V30 6508 O 634.935 -1.47876 1.28184 0
M  V30 6509 C 635.234 1.34022 3.3132 0
M  V30 6510 C 634.9 2.82606 3.51347 0
M  V30 6511 C 633.562 3.23182 3.56521 0
M  V30 6512 C 635.914 3.78356 3.58464 0
M  V30 6513 C 633.242 4.58258 3.66356 0
M  V30 6514 C 635.594 5.13234 3.69829 0
M  V30 6515 C 634.258 5.53384 3.73259 0
M  V30 6516 H 633.528 0.309836 0.673114 0
M  V30 6517 H 636.175 1.38091 1.32677 0
M  V30 6518 H 634.48 0.726047 3.85014 0
M  V30 6519 H 636.177 1.11739 3.85118 0
M  V30 6520 H 632.767 2.50212 3.47983 0
M  V30 6521 H 636.951 3.48115 3.53737 0
M  V30 6522 H 632.207 4.88787 3.67284 0
M  V30 6523 H 636.381 5.87272 3.74279 0
M  V30 6524 H 634.008 6.58045 3.80633 0
M  V30 6525 N 635.583 -1.29855 0.893053 0
M  V30 6526 C 636.831 -1.9544 0.514566 0
M  V30 6527 C 637.152 -1.70795 -0.940959 0
M  V30 6528 O 636.422 -1.03601 -1.66264 0
M  V30 6529 H 635.002 -0.723137 0.187302 0
M  V30 6530 H 637.664 -1.58234 1.13789 0
M  V30 6531 H 636.76 -3.04341 0.691581 0
M  V30 6532 N 637.061 -0.65484 -1.43351 0
M  V30 6533 C 637.993 0.0744757 -2.29079 0
M  V30 6534 C 639.006 0.7855 -1.42596 0
M  V30 6535 O 640.195 0.642986 -1.66517 0
M  V30 6536 C 637.295 1.12859 -3.19556 0
M  V30 6537 C 636.468 0.495381 -4.34586 0
M  V30 6538 C 635.527 1.44659 -5.05925 0
M  V30 6539 O 634.553 0.954567 -5.61139 0
M  V30 6540 N 635.755 2.78051 -5.09576 0
M  V30 6541 H 638.52 -0.661346 -2.92312 0
M  V30 6542 H 636.081 -0.497744 -1.54059 0
M  V30 6543 H 638.073 1.76577 -3.64147 0
M  V30 6544 H 636.643 1.76636 -2.57912 0
M  V30 6545 H 635.863 -0.32092 -3.92892 0
M  V30 6546 H 637.151 0.0534203 -5.08772 0
M  V30 6547 H 636.549 3.20584 -4.66093 0
M  V30 6548 H 635.106 3.37068 -5.57878 0
M  V30 6549 N 638.539 1.52521 -0.396863 0
M  V30 6550 C 639.764 2.06571 0.185258 0
M  V30 6551 C 640.189 1.26605 1.39115 0
M  V30 6552 O 639.547 0.293055 1.78916 0
M  V30 6553 C 639.595 3.5674 0.526189 0
M  V30 6554 O 638.699 3.7929 1.61903 0
M  V30 6555 H 638.04 0.663712 0.0195474 0
M  V30 6556 H 640.57 1.966 -0.566519 0
M  V30 6557 H 640.58 4.00311 0.788338 0
M  V30 6558 H 639.255 4.14379 -0.355397 0
M  V30 6559 H 637.832 3.47605 1.35 0
M  V30 6560 N 640.017 0.126909 1.57088 0
M  V30 6561 C 641.266 -0.529024 1.94639 0
M  V30 6562 C 641.579 -1.67323 1.01304 0
M  V30 6563 O 642.785 -2.39245 1.28352 0
M  V30 6564 C 641.241 -0.992483 3.45945 0
M  V30 6565 C 640.849 0.123691 4.47829 0
M  V30 6566 C 642.593 -1.61934 3.924 0
M  V30 6567 C 640.5 -0.356911 5.90322 0
M  V30 6568 H 639.43 -0.201397 0.726605 0
M  V30 6569 H 642.081 0.208032 1.82317 0
M  V30 6570 H 640.463 -1.7842 3.53528 0
M  V30 6571 H 641.637 0.900168 4.51922 0
M  V30 6572 H 639.952 0.657699 4.11173 0
M  V30 6573 H 642.549 -1.9902 4.96281 0
M  V30 6574 H 642.892 -2.50075 3.32819 0
M  V30 6575 H 643.425 -0.892894 3.8765 0
M  V30 6576 H 640.164 0.488636 6.53676 0
M  V30 6577 H 639.684 -1.0997 5.89633 0
M  V30 6578 H 641.363 -0.815547 6.41839 0
M  V30 6579 N 641.495 -1.56914 -0.146875 0
M  V30 6580 C 642.72 -1.87881 -0.878386 0
M  V30 6581 C 643.145 -0.715945 -1.73942 0
M  V30 6582 O 642.503 0.334447 -1.78189 0
M  V30 6583 C 642.551 -3.17431 -1.71084 0
M  V30 6584 O 641.655 -3.01374 -2.81509 0
M  V30 6585 H 640.996 -0.617289 -0.244644 0
M  V30 6586 H 643.526 -2.04136 -0.137654 0
M  V30 6587 H 643.536 -3.49455 -2.10582 0
M  V30 6588 H 642.211 -4.01671 -1.07856 0
M  V30 6589 H 640.788 -2.80758 -2.45416 0
M  V30 6590 N 642.974 0.416227 -1.52004 0
M  V30 6591 C 644.222 1.16153 -1.65387 0
M  V30 6592 C 644.543 1.91208 -0.382669 0
M  V30 6593 O 643.813 1.86413 0.602231 0
M  V30 6594 H 642.393 0.431765 -0.60958 0
M  V30 6595 H 645.055 0.475151 -1.89019 0
M  V30 6596 H 644.151 1.87952 -2.4916 0
M  V30 6597 N 644.452 1.42507 0.673017 0
M  V30 6598 C 645.384 1.42074 1.79854 0
M  V30 6599 C 646.397 0.319569 1.59633 0
M  V30 6600 O 647.586 0.582769 1.68719 0
M  V30 6601 C 644.686 1.19886 3.16987 0
M  V30 6602 C 643.859 2.42471 3.64042 0
M  V30 6603 C 642.918 2.15802 4.79913 0
M  V30 6604 O 641.944 2.89015 4.90366 0
M  V30 6605 N 643.146 1.16225 5.68746 0
M  V30 6606 H 645.911 2.3909 1.8071 0
M  V30 6607 H 643.472 1.37409 0.856171 0
M  V30 6608 H 645.464 0.999591 3.92161 0
M  V30 6609 H 644.034 0.313879 3.1102 0
M  V30 6610 H 643.254 2.77954 2.79526 0
M  V30 6611 H 644.542 3.24097 3.92223 0
M  V30 6612 H 643.94 0.556756 5.62954 0
M  V30 6613 H 642.497 1.02285 6.43724 0
M  V30 6614 N 645.93 -0.909495 1.28709 0
M  V30 6615 C 647.179 -1.65365 1.15487 0
M  V30 6616 C 647.492 -1.93364 -0.294941 0
M  V30 6617 O 648.698 -2.65905 -0.548338 0
M  V30 6618 C 647.154 -2.97923 2.01916 0
M  V30 6619 C 646.762 -2.77556 3.51663 0
M  V30 6620 C 648.506 -3.75814 1.97393 0
M  V30 6621 C 646.413 -4.0578 4.30229 0
M  V30 6622 H 645.343 -0.620323 0.42862 0
M  V30 6623 H 647.994 -1.00894 1.53273 0
M  V30 6624 H 646.376 -3.63552 1.5699 0
M  V30 6625 H 647.55 -2.2058 4.04575 0
M  V30 6626 H 645.865 -2.13072 3.57756 0
M  V30 6627 H 648.462 -4.70866 2.53357 0
M  V30 6628 H 648.805 -4.05277 0.951643 0
M  V30 6629 H 649.338 -3.1701 2.40311 0
M  V30 6630 H 646.077 -3.81488 5.33055 0
M  V30 6631 H 645.597 -4.62351 3.82089 0
M  V30 6632 H 647.276 -4.74004 4.40374 0
M  V30 6633 N 647.408 -1.11026 -1.11852 0
M  V30 6634 C 648.685 -0.768347 -1.79877 0
M  V30 6635 C 649.065 0.744261 -1.97545 0
M  V30 6636 O 648.413 1.67271 -1.55669 0
M  V30 6637 C 648.623 -1.52648 -3.13846 0
M  V30 6638 C 649.971 -1.70297 -3.88953 0
M  V30 6639 O 650.995 -1.49037 -3.23522 0
M  V30 6640 O 649.854 -2.05593 -5.06353 0
M  V30 6641 H 646.948 -0.277891 -0.778913 0
M  V30 6642 H 649.494 -1.21343 -1.18633 0
M  V30 6643 H 648.266 -2.55564 -2.96315 0
M  V30 6644 H 647.889 -1.07466 -3.82801 0
M  V30 6645 N 648.886 1.2938 -0.899927 0
M  V30 6646 C 649.849 2.25983 -0.382677 0
M  V30 6647 C 650.849 1.53366 0.483259 0
M  V30 6648 O 652.039 1.71798 0.28828 0
M  V30 6649 C 649.171 3.37878 0.452915 0
M  V30 6650 H 650.364 2.73252 -1.23586 0
M  V30 6651 H 647.917 1.40825 -0.678088 0
M  V30 6652 H 648.652 2.95949 1.32608 0
M  V30 6653 H 648.437 3.91742 -0.167562 0
M  V30 6654 H 649.927 4.09746 0.806107 0
M  V30 6655 N 650.364 0.662433 1.43002 0
M  V30 6656 C 651.641 0.109096 1.95296 0
M  V30 6657 C 652.021 -1.37313 1.60338 0
M  V30 6658 O 651.369 -2.1032 0.893187 0
M  V30 6659 C 651.579 0.365096 3.47085 0
M  V30 6660 C 652.927 0.274964 4.23709 0
M  V30 6661 O 653.951 0.29816 3.5495 0
M  V30 6662 O 652.81 0.206549 5.4611 0
M  V30 6663 H 649.904 -0.00429724 0.826989 0
M  V30 6664 H 652.45 0.736308 1.52894 0
M  V30 6665 H 651.222 1.39237 3.65689 0
M  V30 6666 H 650.845 -0.294733 3.96506 0
M  V30 6667 N 651.842 -1.52309 0.404946 0
M  V30 6668 C 652.79 -2.28452 -0.437321 0
M  V30 6669 C 653.784 -1.32975 -1.04948 0
M  V30 6670 O 654.99 -1.50451 -0.988159 0
M  V30 6671 H 651.365 -0.734824 -0.159805 0
M  V30 6672 H 653.336 -2.97542 0.22615 0
M  V30 6673 C 652.085 -3.11536 -1.54404 0
M  V30 6674 H 651.408 -3.84871 -1.08233 0
M  V30 6675 H 652.848 -3.67926 -2.10729 0
M  V30 6676 C 651.307 -2.24833 -2.50902 0
M  V30 6677 O 651.837 -1.88574 -3.54687 0
M  V30 6678 N 650.043 -1.88685 -2.21012 0
M  V30 6679 H 649.59 -2.18371 -1.36646 0
M  V30 6680 H 649.548 -1.30966 -2.85824 0
M  V30 6681 N 653.32 -0.135238 -1.57019 0
M  V30 6682 C 654.268 0.826099 -2.17436 0
M  V30 6683 C 655.262 1.26378 -1.12805 0
M  V30 6684 O 656.468 1.23363 -1.31079 0
M  V30 6685 H 652.843 0.284568 -0.696078 0
M  V30 6686 H 654.814 0.292212 -2.96966 0
M  V30 6687 C 653.563 2.05991 -2.80112 0
M  V30 6688 H 652.886 1.73209 -3.60331 0
M  V30 6689 H 654.326 2.71225 -3.25903 0
M  V30 6690 C 652.785 2.86027 -1.78017 0
M  V30 6691 O 653.315 3.81971 -1.24344 0
M  V30 6692 N 651.521 2.50332 -1.47588 0
M  V30 6693 H 651.068 1.72377 -1.91426 0
M  V30 6694 H 651.026 3.04177 -0.795228 0
M  V30 6695 N 654.798 1.5699 0.138552 0
M  V30 6696 C 656.046 1.83446 0.848053 0
M  V30 6697 C 656.367 0.71744 1.81322 0
M  V30 6698 O 655.637 -0.260228 1.94164 0
M  V30 6699 H 654.217 0.676792 0.316166 0
M  V30 6700 H 656.879 1.94462 0.130538 0
M  V30 6701 H 655.975 2.78677 1.40518 0
M  V30 6702 N 656.276 -0.40816 1.52223 0
M  V30 6703 C 657.506 -1.17501 1.69932 0
M  V30 6704 C 657.914 -1.84729 0.408874 0
M  V30 6705 O 657.257 -1.7274 -0.625025 0
M  V30 6706 C 657.319 -2.27994 2.77955 0
M  V30 6707 C 656.983 -1.80894 4.19674 0
M  V30 6708 C 657.98 -1.29618 5.03483 0
M  V30 6709 C 655.665 -1.87698 4.65913 0
M  V30 6710 C 657.659 -0.857695 6.31603 0
M  V30 6711 C 655.346 -1.43461 5.94022 0
M  V30 6712 C 656.344 -0.925822 6.76696 0
M  V30 6713 O 656.032 -0.489841 8.02406 0
M  V30 6714 H 655.764 -0.359065 0.572755 0
M  V30 6715 H 658.318 -0.486188 1.99563 0
M  V30 6716 H 656.548 -3.00243 2.43703 0
M  V30 6717 H 658.237 -2.89749 2.84254 0
M  V30 6718 H 659.003 -1.23733 4.68951 0
M  V30 6719 H 654.882 -2.26244 4.01665 0
M  V30 6720 H 658.426 -0.459879 6.96083 0
M  V30 6721 H 654.323 -1.49026 6.28062 0
M  V30 6722 H 655.091 -0.613062 8.16201 0
M  V30 6723 N 657.755 -1.42862 -0.66545 0
M  V30 6724 C 659.001 -1.44043 -1.42757 0
M  V30 6725 C 659.334 -0.0599629 -1.94107 0
M  V30 6726 O 658.609 0.917286 -1.71511 0
M  V30 6727 C 658.892 -2.47266 -2.61786 0
M  V30 6728 C 658.745 -3.94539 -2.16007 0
M  V30 6729 C 660.064 -2.47365 -3.64003 0
M  V30 6730 H 657.183 -0.524506 -0.517748 0
M  V30 6731 H 659.825 -1.74335 -0.755466 0
M  V30 6732 H 657.975 -2.21565 -3.19126 0
M  V30 6733 H 659.647 -4.31254 -1.63762 0
M  V30 6734 H 657.89 -4.07957 -1.47491 0
M  V30 6735 H 658.561 -4.62357 -3.01546 0
M  V30 6736 H 661.037 -2.70243 -3.16399 0
M  V30 6737 H 659.913 -3.21552 -4.44854 0
M  V30 6738 H 660.174 -1.50299 -4.15767 0
M  V30 6739 N 659.233 0.902656 -1.29189 0
M  V30 6740 C 660.51 1.63296 -1.07674 0
M  V30 6741 C 660.89 2.07649 0.380137 0
M  V30 6742 O 660.238 1.82997 1.36837 0
M  V30 6743 C 660.448 2.81603 -2.06158 0
M  V30 6744 C 661.796 3.52359 -2.36914 0
M  V30 6745 O 662.82 2.91767 -2.04329 0
M  V30 6746 O 661.679 4.61586 -2.92576 0
M  V30 6747 H 658.773 0.716889 -0.41231 0
M  V30 6748 H 661.319 0.950984 -1.4055 0
M  V30 6749 H 660.091 2.46004 -3.04299 0
M  V30 6750 H 659.714 3.57508 -1.73993 0
M  V30 6751 N 660.711 1.11618 1.11262 0
M  V30 6752 C 661.957 0.867463 1.83311 0
M  V30 6753 C 662.29 -0.605366 1.84524 0
M  V30 6754 O 661.565 -1.44704 1.29965 0
M  V30 6755 C 661.848 1.43207 3.30399 0
M  V30 6756 C 661.701 2.97265 3.3757 0
M  V30 6757 C 663.02 1.08454 4.26528 0
M  V30 6758 H 660.139 0.316578 0.665543 0
M  V30 6759 H 662.781 1.38137 1.30454 0
M  V30 6760 H 660.931 0.994982 3.75543 0
M  V30 6761 H 662.603 3.49591 3.00971 0
M  V30 6762 H 660.846 3.33237 2.77733 0
M  V30 6763 H 661.517 3.31859 4.41105 0
M  V30 6764 H 663.993 1.4619 3.89574 0
M  V30 6765 H 662.869 1.50633 5.27826 0
M  V30 6766 H 663.13 -0.00444568 4.421 0
M  V30 6767 N 662.189 -1.289 0.906776 0
M  V30 6768 C 663.152 -2.25777 0.394656 0
M  V30 6769 C 664.152 -1.53621 -0.475119 0
M  V30 6770 O 665.342 -1.71949 -0.279165 0
M  V30 6771 C 662.474 -3.38113 -0.43499 0
M  V30 6772 H 663.667 -2.72592 1.25033 0
M  V30 6773 H 661.22 -1.40463 0.685547 0
M  V30 6774 H 661.955 -2.96648 -1.31036 0
M  V30 6775 H 661.74 -3.91647 0.188334 0
M  V30 6776 H 663.23 -4.10168 -0.784365 0
M  V30 6777 N 663.667 -0.670007 -1.42649 0
M  V30 6778 C 664.913 -0.190568 -2.01903 0
M  V30 6779 C 665.246 1.19817 -1.52832 0
M  V30 6780 O 664.521 1.80342 -0.728485 0
M  V30 6781 C 664.804 -0.21991 -3.59428 0
M  V30 6782 C 664.657 -1.64376 -4.18689 0
M  V30 6783 C 665.976 0.434519 -4.3795 0
M  V30 6784 H 663.095 -0.0707219 -0.733599 0
M  V30 6785 H 665.737 -0.853883 -1.69732 0
M  V30 6786 H 663.887 0.344894 -3.86966 0
M  V30 6787 H 665.559 -2.26044 -4.02122 0
M  V30 6788 H 663.802 -2.18591 -3.747 0
M  V30 6789 H 664.473 -1.61601 -5.27815 0
M  V30 6790 H 666.949 -0.0462156 -4.16074 0
M  V30 6791 H 665.825 0.38333 -5.4756 0
M  V30 6792 H 666.086 1.51135 -4.15464 0
M  V30 6793 N 665.145 1.52092 -0.413018 0
M  V30 6794 C 666.393 2.01456 0.161178 0
M  V30 6795 C 666.714 1.30034 1.45314 0
M  V30 6796 O 665.984 0.427435 1.9118 0
M  V30 6797 H 664.564 0.744376 0.0625526 0
M  V30 6798 H 667.226 1.86974 -0.550151 0
M  V30 6799 H 666.322 3.1008 0.354517 0
M  V30 6800 N 666.623 0.143563 1.56945 0
M  V30 6801 C 667.586 -0.783295 2.154 0
M  V30 6802 C 668.586 -1.17763 1.09492 0
M  V30 6803 O 669.776 -1.09912 1.35148 0
M  V30 6804 C 666.908 -2.06248 2.7143 0
M  V30 6805 H 668.101 -0.274863 2.98638 0
M  V30 6806 H 665.654 -0.105859 1.55941 0
M  V30 6807 H 666.389 -2.61466 1.91849 0
M  V30 6808 H 666.174 -1.78897 3.4891 0
M  V30 6809 H 667.664 -2.72453 3.16479 0
M  V30 6810 N 668.101 -1.57061 -0.130224 0
M  V30 6811 C 669.348 -1.84257 -0.839972 0
M  V30 6812 C 669.676 -0.726986 -1.80403 0
M  V30 6813 O 668.931 0.282632 -1.93648 0
M  V30 6814 C 669.23 -3.17878 -1.63365 0
M  V30 6815 C 668.896 -4.43475 -0.814891 0
M  V30 6816 C 667.558 -4.77581 -0.589066 0
M  V30 6817 C 669.91 -5.20631 -0.243437 0
M  V30 6818 C 667.238 -5.86292 0.218648 0
M  V30 6819 C 669.59 -6.30192 0.551408 0
M  V30 6820 C 668.254 -6.62837 0.787653 0
M  V30 6821 H 667.524 -0.674245 -0.307367 0
M  V30 6822 H 670.171 -1.91224 -0.102832 0
M  V30 6823 H 668.476 -3.06437 -2.44138 0
M  V30 6824 H 670.173 -3.3614 -2.18658 0
M  V30 6825 H 666.763 -4.16747 -1.00098 0
M  V30 6826 H 670.947 -4.94644 -0.405145 0
M  V30 6827 H 666.203 -6.10017 0.411016 0
M  V30 6828 H 670.377 -6.89165 1.00126 0
M  V30 6829 H 668.004 -7.46908 1.41537 0
M  V30 6830 N 669.579 0.400081 -1.52437 0
M  V30 6831 C 670.995 0.739359 -1.41441 0
M  V30 6832 C 671.195 1.94512 -0.526053 0
M  V30 6833 O 670.251 2.525 0.00472502 0
M  V30 6834 C 671.564 0.984824 -2.84116 0
M  V30 6835 C 673.112 1.08698 -2.93519 0
M  V30 6836 C 673.587 1.36515 -4.37181 0
M  V30 6837 N 675.078 1.43361 -4.40457 0
M  V30 6838 C 675.813 1.66528 -5.48686 0
M  V30 6839 N 675.309 1.87239 -6.67018 0
M  V30 6840 N 677.102 1.68617 -5.36213 0
M  V30 6841 H 669.253 -0.393484 -2.08723 0
M  V30 6842 H 671.516 -0.1138 -0.941145 0
M  V30 6843 H 671.222 0.171096 -3.51284 0
M  V30 6844 H 671.096 1.90253 -3.25705 0
M  V30 6845 H 673.483 1.89129 -2.26526 0
M  V30 6846 H 673.564 0.147432 -2.55375 0
M  V30 6847 H 673.208 0.565982 -5.04737 0
M  V30 6848 H 673.138 2.31737 -4.7287 0
M  V30 6849 H 675.629 1.29108 -3.55161 0
M  V30 6850 H 675.942 2.04392 -7.45281 0
M  V30 6851 H 674.287 1.84486 -6.70067 0
M  V30 6852 H 677.478 1.5198 -4.42741 0
M  V30 6853 H 677.651 1.86332 -6.20632 0
M  V30 6854 N 671.057 1.43213 0.657864 0
M  V30 6855 C 672.282 1.48227 1.45064 0
M  V30 6856 C 672.707 0.0999939 1.87834 0
M  V30 6857 O 672.065 -0.905269 1.57081 0
M  V30 6858 C 672.113 2.42931 2.6649 0
M  V30 6859 O 671.217 1.91237 3.6538 0
M  V30 6860 H 670.558 0.501551 0.435135 0
M  V30 6861 H 673.088 1.8808 0.805431 0
M  V30 6862 H 673.098 2.6008 3.1436 0
M  V30 6863 H 671.773 3.43348 2.34701 0
M  V30 6864 H 670.35 1.83726 3.24498 0
M  V30 6865 N 672.536 -0.895792 1.29666 0
M  V30 6866 C 673.813 -1.62723 1.08538 0
M  V30 6867 C 674.193 -2.07848 -0.369119 0
M  V30 6868 O 673.541 -1.8372 -1.35864 0
M  V30 6869 C 673.751 -2.80505 2.07648 0
M  V30 6870 C 675.099 -3.51098 2.3878 0
M  V30 6871 O 676.123 -2.90679 2.05874 0
M  V30 6872 O 674.982 -4.60028 2.9502 0
M  V30 6873 H 672.076 -0.714692 0.416106 0
M  V30 6874 H 674.622 -0.943517 1.41053 0
M  V30 6875 H 673.394 -2.44386 3.05599 0
M  V30 6876 H 673.017 -3.5658 1.75887 0
M  V30 6877 N 674.014 -1.12206 -1.10668 0
M  V30 6878 C 675.239 -0.898938 -1.86906 0
M  V30 6879 C 675.664 0.546346 -1.79991 0
M  V30 6880 O 675.022 1.38655 -1.1681 0
M  V30 6881 C 675.07 -1.37529 -3.33344 0
M  V30 6882 O 674.174 -0.55218 -4.08687 0
M  V30 6883 H 673.515 -0.323163 -0.580053 0
M  V30 6884 H 676.045 -1.49355 -1.39837 0
M  V30 6885 H 676.055 -1.3733 -3.84193 0
M  V30 6886 H 674.73 -2.42767 -3.37693 0
M  V30 6887 H 673.307 -0.620947 -3.67694 0
M  V30 6888 N 675.492 1.28418 -0.913599 0
M  V30 6889 C 676.455 2.25564 -0.406624 0
M  V30 6890 C 677.455 1.5387 0.466965 0
M  V30 6891 O 678.645 1.72094 0.270042 0
M  V30 6892 C 675.777 3.38339 0.417053 0
M  V30 6893 H 676.97 2.71926 -1.26477 0
M  V30 6894 H 674.523 1.40098 -0.692986 0
M  V30 6895 H 675.258 2.97339 1.29461 0
M  V30 6896 H 675.043 3.91542 -0.209102 0
M  V30 6897 H 676.533 4.10578 0.762602 0
M  V30 6898 N 676.97 0.677563 1.42291 0
M  V30 6899 C 678.216 0.201272 2.01799 0
M  V30 6900 C 678.549 -1.19004 1.53465 0
M  V30 6901 O 677.824 -1.79953 0.738039 0
M  V30 6902 C 678.107 0.238968 3.59306 0
M  V30 6903 C 677.96 1.66594 4.17812 0
M  V30 6904 C 679.279 -0.411287 4.38174 0
M  V30 6905 H 676.398 0.0746114 0.733214 0
M  V30 6906 H 679.04 0.862872 1.69276 0
M  V30 6907 H 677.19 -0.324368 3.87144 0
M  V30 6908 H 678.862 2.28173 4.00917 0
M  V30 6909 H 677.105 2.20576 3.73536 0
M  V30 6910 H 677.776 1.64398 5.26951 0
M  V30 6911 H 680.252 0.0682804 4.16044 0
M  V30 6912 H 679.128 -0.354286 5.47755 0
M  V30 6913 H 679.389 -1.4893 4.1626 0
M  V30 6914 N 678.448 -1.51871 0.421078 0
M  V30 6915 C 679.378 -2.30231 -0.389363 0
M  V30 6916 C 680.359 -1.34946 -1.03555 0
M  V30 6917 O 681.544 -1.63859 -1.04229 0
M  V30 6918 C 678.674 -3.13247 -1.49979 0
M  V30 6919 C 677.628 -4.16677 -0.977966 0
M  V30 6920 C 676.954 -4.88112 -2.1829 0
M  V30 6921 C 678.254 -5.22295 -0.0236775 0
M  V30 6922 H 679.948 -2.98229 0.264524 0
M  V30 6923 H 677.494 -1.43424 0.12866 0
M  V30 6924 H 679.447 -3.66838 -2.07383 0
M  V30 6925 H 678.171 -2.4304 -2.18173 0
M  V30 6926 H 676.83 -3.64114 -0.426245 0
M  V30 6927 H 676.478 -4.14423 -2.85066 0
M  V30 6928 H 676.178 -5.58041 -1.84021 0
M  V30 6929 H 677.702 -5.44521 -2.76278 0
M  V30 6930 H 679.116 -5.71055 -0.506899 0
M  V30 6931 H 677.513 -5.99656 0.230782 0
M  V30 6932 H 678.583 -4.76131 0.917999 0
M  V30 6933 N 679.926 -0.151884 -1.56866 0
M  V30 6934 C 680.856 0.781943 -2.20018 0
M  V30 6935 C 681.837 1.25347 -1.14987 0
M  V30 6936 O 683.022 1.31015 -1.43348 0
M  V30 6937 C 680.152 2.01928 -2.82564 0
M  V30 6938 C 679.106 1.68434 -3.93464 0
M  V30 6939 C 678.432 2.99472 -4.42968 0
M  V30 6940 C 679.732 0.927244 -5.14003 0
M  V30 6941 H 681.426 0.255607 -2.98307 0
M  V30 6942 H 678.972 0.121502 -1.43486 0
M  V30 6943 H 680.925 2.67741 -3.25411 0
M  V30 6944 H 679.649 2.56943 -2.01614 0
M  V30 6945 H 678.308 1.04998 -3.51242 0
M  V30 6946 H 677.956 3.52488 -3.58834 0
M  V30 6947 H 677.656 2.77823 -5.17772 0
M  V30 6948 H 679.18 3.66348 -4.88489 0
M  V30 6949 H 680.594 1.48756 -5.53665 0
M  V30 6950 H 678.991 0.810513 -5.94601 0
M  V30 6951 H 680.061 -0.0801163 -4.84834 0
M  V30 6952 N 681.404 1.57128 0.121893 0
M  V30 6953 C 682.82 1.52357 0.47534 0
M  V30 6954 C 683.02 0.864417 1.82017 0
M  V30 6955 O 682.076 0.445529 2.48538 0
M  V30 6956 C 683.389 2.97122 0.4625 0
M  V30 6957 C 684.937 3.08196 0.546255 0
M  V30 6958 C 685.412 4.54516 0.563833 0
M  V30 6959 N 686.903 4.58959 0.625353 0
M  V30 6960 C 687.638 5.69585 0.660354 0
M  V30 6961 N 687.134 6.89714 0.653175 0
M  V30 6962 N 688.927 5.57685 0.703143 0
M  V30 6963 H 681.078 1.98364 -0.75931 0
M  V30 6964 H 683.341 0.905777 -0.279772 0
M  V30 6965 H 683.047 3.48706 -0.457943 0
M  V30 6966 H 682.921 3.54406 1.29136 0
M  V30 6967 H 685.308 2.56617 1.45712 0
M  V30 6968 H 685.389 2.53912 -0.310234 0
M  V30 6969 H 685.033 5.06741 -0.342974 0
M  V30 6970 H 684.963 5.06609 1.43716 0
M  V30 6971 H 687.454 3.72489 0.637182 0
M  V30 6972 H 687.767 7.69781 0.682425 0
M  V30 6973 H 686.112 6.92223 0.620646 0
M  V30 6974 H 689.303 4.62744 0.706095 0
M  V30 6975 H 689.476 6.43909 0.726952 0
M  V30 6976 N 682.882 -0.391992 1.52647 0
M  V30 6977 C 684.11 -1.1586 1.71418 0
M  V30 6978 C 684.525 -1.8381 0.431216 0
M  V30 6979 O 683.882 -1.7256 -0.594085 0
M  V30 6980 C 683.933 -2.20888 2.86165 0
M  V30 6981 O 683.654 -1.5571 4.09495 0
M  V30 6982 C 685.155 -3.103 3.1659 0
M  V30 6983 H 682.375 -0.347494 0.574011 0
M  V30 6984 H 684.919 -0.458972 1.99283 0
M  V30 6985 H 683.074 -2.86492 2.6077 0
M  V30 6986 H 683.488 -2.25474 4.73563 0
M  V30 6987 H 684.962 -3.8003 4.00351 0
M  V30 6988 H 685.439 -3.73639 2.30848 0
M  V30 6989 H 686.045 -2.50345 3.43813 0
M  V30 6990 N 684.36 -1.4356 -0.65026 0
M  V30 6991 C 685.776 -1.27025 -0.966269 0
M  V30 6992 C 685.976 -0.192117 -2.00582 0
M  V30 6993 O 685.032 0.428459 -2.48838 0
M  V30 6994 C 686.345 -2.63556 -1.44772 0
M  V30 6995 C 687.893 -2.71111 -1.56421 0
M  V30 6996 C 688.368 -4.08067 -2.07956 0
M  V30 6997 N 689.859 -4.10146 -2.15254 0
M  V30 6998 C 690.594 -5.12952 -2.56258 0
M  V30 6999 N 690.09 -6.26129 -2.96537 0
M  V30 7000 N 691.883 -5.00306 -2.56224 0
M  V30 7001 H 684.034 -2.12367 0.0375758 0
M  V30 7002 H 686.297 -0.946894 -0.0457782 0
M  V30 7003 H 686.003 -3.43429 -0.758271 0
M  V30 7004 H 685.877 -2.89152 -2.42221 0
M  V30 7005 H 688.264 -1.91569 -2.24467 0
M  V30 7006 H 688.345 -2.49277 -0.573967 0
M  V30 7007 H 687.989 -4.88077 -1.40511 0
M  V30 7008 H 687.919 -4.27266 -3.07817 0
M  V30 7009 H 690.41 -3.28453 -1.86887 0
M  V30 7010 H 690.723 -7.00403 -3.26582 0
M  V30 7011 H 689.068 -6.29597 -2.94334 0
M  V30 7012 H 692.259 -4.10952 -2.24135 0
M  V30 7013 H 692.432 -5.80553 -2.87857 0
M  V30 7014 N 685.838 0.888903 -1.30139 0
M  V30 7015 C 687.249 1.45578 -1.16893 0
M  V30 7016 C 687.6 1.94825 0.231866 0
M  V30 7017 O 686.725 1.84661 1.12824 0
M  V30 7018 C 687.32 2.646 -2.11595 0
M  V30 7019 C 685.879 3.17389 -2.02339 0
M  V30 7020 C 685.026 1.90081 -2.01902 0
M  V30 7021 H 687.977 0.69921 -1.42467 0
M  V30 7022 H 687.998 3.40687 -1.69449 0
M  V30 7023 H 687.51 2.28726 -3.13538 0
M  V30 7024 H 685.611 3.5793 -1.03523 0
M  V30 7025 H 685.724 3.80955 -2.90534 0
M  V30 7026 H 684.088 2.08246 -1.46648 0
M  V30 7027 H 684.871 1.5647 -3.05568 0
M  V30 7028 N 687.317 1.12792 1.10072 0
M  V30 7029 C 688.563 0.886857 1.82381 0
M  V30 7030 C 688.896 -0.58576 1.85155 0
M  V30 7031 O 688.171 -1.43317 1.31493 0
M  V30 7032 C 688.454 1.46703 3.28862 0
M  V30 7033 C 688.307 3.00829 3.34398 0
M  V30 7034 C 689.626 1.12971 4.25353 0
M  V30 7035 H 686.745 0.32362 0.662148 0
M  V30 7036 H 689.387 1.39513 1.28982 0
M  V30 7037 H 687.537 1.03476 3.74466 0
M  V30 7038 H 689.209 3.52764 2.97247 0
M  V30 7039 H 687.452 3.36164 2.74183 0
M  V30 7040 H 688.123 3.36519 4.3756 0
M  V30 7041 H 690.599 1.50313 3.88001 0
M  V30 7042 H 689.475 1.56223 5.26199 0
M  V30 7043 H 689.736 0.0424452 4.4208 0
M  V30 7044 N 688.795 -1.27931 0.920396 0
M  V30 7045 C 690.041 -1.94977 0.557832 0
M  V30 7046 C 690.374 -1.72224 -0.897365 0
M  V30 7047 O 689.649 -1.04705 -1.63912 0
M  V30 7048 C 689.932 -3.49289 0.875741 0
M  V30 7049 C 689.785 -3.81416 2.38416 0
M  V30 7050 C 691.104 -4.38486 0.376517 0
M  V30 7051 H 688.223 -0.708164 0.20414 0
M  V30 7052 H 690.865 -1.5118 1.15085 0
M  V30 7053 H 689.015 -3.86724 0.371062 0
M  V30 7054 H 690.687 -3.53813 2.95997 0
M  V30 7055 H 688.93 -3.28225 2.83639 0
M  V30 7056 H 689.601 -4.89198 2.55713 0
M  V30 7057 H 692.077 -4.08161 0.808945 0
M  V30 7058 H 690.953 -5.45296 0.627976 0
M  V30 7059 H 691.214 -4.36143 -0.723293 0
M  V30 7060 N 690.273 -0.685099 -1.4193 0
M  V30 7061 C 691.522 -0.208816 -2.00616 0
M  V30 7062 C 691.835 1.19506 -1.54847 0
M  V30 7063 O 693.041 1.76826 -2.06021 0
M  V30 7064 C 691.497 -0.322446 -3.58453 0
M  V30 7065 C 691.105 -1.73102 -4.13206 0
M  V30 7066 C 692.849 0.0945979 -4.24395 0
M  V30 7067 C 690.756 -1.79687 -5.63442 0
M  V30 7068 H 689.686 -0.0743092 -0.750329 0
M  V30 7069 H 692.337 -0.851778 -1.62533 0
M  V30 7070 H 690.719 0.388588 -3.94089 0
M  V30 7071 H 691.893 -2.46997 -3.8901 0
M  V30 7072 H 690.208 -2.09682 -3.59753 0
M  V30 7073 H 692.805 0.0656937 -5.3466 0
M  V30 7074 H 693.148 1.1316 -4.00625 0
M  V30 7075 H 693.681 -0.56579 -3.93756 0
M  V30 7076 H 690.42 -2.81404 -5.92024 0
M  V30 7077 H 689.94 -1.10162 -5.89597 0
M  V30 7078 H 691.619 -1.55498 -6.28036 0
M  V30 7079 N 691.751 1.51645 -0.429126 0
M  V30 7080 C 692.997 2.02314 0.140286 0
M  V30 7081 C 693.33 1.31314 1.43074 0
M  V30 7082 O 692.605 0.425531 1.89788 0
M  V30 7083 C 692.888 3.5822 0.36749 0
M  V30 7084 C 692.741 4.39846 -0.941039 0
M  V30 7085 C 694.06 4.25055 1.14089 0
M  V30 7086 H 691.179 0.735335 0.0495112 0
M  V30 7087 H 693.821 1.81358 -0.566514 0
M  V30 7088 H 691.971 3.76207 0.969556 0
M  V30 7089 H 693.643 4.33527 -1.57646 0
M  V30 7090 H 691.886 4.05259 -1.54751 0
M  V30 7091 H 692.557 5.47069 -0.73621 0
M  V30 7092 H 695.033 4.11288 0.630986 0
M  V30 7093 H 693.909 5.34038 1.26863 0
M  V30 7094 H 694.17 3.85358 2.16683 0
M  V30 7095 N 693.229 0.160201 1.56784 0
M  V30 7096 C 694.506 -0.533355 1.88188 0
M  V30 7097 C 694.886 -1.82072 1.06831 0
M  V30 7098 O 694.234 -2.27946 0.158959 0
M  V30 7099 C 694.444 -0.786034 3.40033 0
M  V30 7100 C 695.792 -1.12097 4.09536 0
M  V30 7101 O 696.816 -0.874949 3.45287 0
M  V30 7102 O 695.675 -1.58457 5.23023 0
M  V30 7103 H 692.769 -0.273589 0.780434 0
M  V30 7104 H 695.315 0.197803 1.68543 0
M  V30 7105 H 694.087 0.124515 3.91102 0
M  V30 7106 H 693.71 -1.57091 3.65251 0
M  V30 7107 N 694.707 -1.5719 -0.113559 0
M  V30 7108 C 695.67 -1.99796 -1.12314 0
M  V30 7109 C 696.67 -0.888847 -1.34001 0
M  V30 7110 O 697.86 -1.15476 -1.30426 0
M  V30 7111 C 694.992 -2.34279 -2.47641 0
M  V30 7112 H 696.185 -2.90193 -0.756825 0
M  V30 7113 H 693.738 -1.52144 -0.358029 0
M  V30 7114 H 694.473 -1.46778 -2.89183 0
M  V30 7115 H 694.258 -3.15175 -2.33253 0
M  V30 7116 H 695.748 -2.67963 -3.2029 0
M  V30 7117 N 696.185 0.383891 -1.52853 0
M  V30 7118 C 697.41 1.154 -1.7233 0
M  V30 7119 C 697.835 1.82809 -0.44298 0
M  V30 7120 O 697.193 1.71026 0.601645 0
M  V30 7121 C 697.241 2.17386 -2.87708 0
M  V30 7122 O 696.345 3.24082 -2.55038 0
M  V30 7123 H 695.686 0.335709 -0.572883 0
M  V30 7124 H 698.216 0.44662 -1.99666 0
M  V30 7125 H 698.226 2.61296 -3.1335 0
M  V30 7126 H 696.901 1.6771 -3.80587 0
M  V30 7127 H 695.478 2.85273 -2.40153 0
M  V30 7128 N 697.663 1.43903 0.642637 0
M  V30 7129 C 698.593 1.52697 1.76652 0
M  V30 7130 C 699.574 0.380816 1.65782 0
M  V30 7131 O 700.759 0.599432 1.84717 0
M  V30 7132 C 697.889 1.45975 3.15133 0
M  V30 7133 C 696.843 2.58949 3.40778 0
M  V30 7134 C 696.169 2.37279 4.79169 0
M  V30 7135 C 697.469 4.01153 3.34475 0
M  V30 7136 H 699.163 2.46766 1.69549 0
M  V30 7137 H 696.709 1.18767 0.814279 0
M  V30 7138 H 698.662 1.5073 3.93521 0
M  V30 7139 H 697.386 0.484162 3.22991 0
M  V30 7140 H 696.045 2.53564 2.64765 0
M  V30 7141 H 695.693 1.37939 4.83717 0
M  V30 7142 H 695.393 3.13016 4.97287 0
M  V30 7143 H 696.917 2.43834 5.59801 0
M  V30 7144 H 698.331 4.07968 4.02784 0
M  V30 7145 H 696.728 4.77001 3.64129 0
M  V30 7146 H 697.798 4.25539 2.32475 0
M  V30 7147 N 699.141 -0.881989 1.30609 0
M  V30 7148 C 700.366 -1.67236 1.22665 0
M  V30 7149 C 700.791 -1.8696 -0.206777 0
M  V30 7150 O 700.149 -1.4027 -1.14865 0
M  V30 7151 C 700.197 -3.02446 1.96363 0
M  V30 7152 O 699.301 -3.91614 1.29276 0
M  V30 7153 H 698.642 -0.510902 0.424117 0
M  V30 7154 H 701.172 -1.10055 1.72479 0
M  V30 7155 H 701.182 -3.52468 2.055 0
M  V30 7156 H 699.857 -2.8741 3.00613 0
M  V30 7157 H 698.434 -3.50055 1.28514 0
M  V30 7158 N 700.619 -1.13374 -1.09472 0
M  V30 7159 C 701.569 -0.77946 -2.14263 0
M  V30 7160 C 702.553 0.226271 -1.59301 0
M  V30 7161 O 703.745 0.0302581 -1.76974 0
M  V30 7162 C 700.874 -0.246635 -3.42413 0
M  V30 7163 C 699.96 -1.28124 -4.04283 0
M  V30 7164 N 700.351 -2.48201 -4.40715 0
M  V30 7165 C 698.649 -1.12892 -4.31476 0
M  V30 7166 C 699.35 -3.14347 -4.8945 0
M  V30 7167 N 698.326 -2.41771 -4.86876 0
M  V30 7168 H 702.128 -1.69305 -2.40235 0
M  V30 7169 H 699.642 -1.01598 -1.26695 0
M  V30 7170 H 701.639 0.0254131 -4.16892 0
M  V30 7171 H 700.299 0.661287 -3.17895 0
M  V30 7172 H 701.31 -2.85511 -4.32093 0
M  V30 7173 H 697.987 -0.279117 -4.16566 0
M  V30 7174 H 699.377 -4.16663 -5.27107 0
M  V30 7175 N 702.098 1.27442 -0.927168 0
M  V30 7176 C 703.509 1.76385 -0.611979 0
M  V30 7177 C 703.86 1.75715 0.872853 0
M  V30 7178 O 702.985 1.3603 1.683 0
M  V30 7179 C 703.58 3.20303 -1.10414 0
M  V30 7180 C 702.139 3.66916 -0.839628 0
M  V30 7181 C 701.286 2.46859 -1.26317 0
M  V30 7182 H 704.237 1.13716 -1.107 0
M  V30 7183 H 704.258 3.77811 -0.451578 0
M  V30 7184 H 703.77 3.20759 -2.18484 0
M  V30 7185 H 701.871 3.71906 0.227292 0
M  V30 7186 H 701.984 4.56415 -1.45679 0
M  V30 7187 H 700.348 2.45407 -0.681723 0
M  V30 7188 H 701.131 2.50025 -2.3525 0
M  V30 7189 N 703.576 0.692616 1.41565 0
M  V30 7190 C 704.486 0.0258451 2.34586 0
M  V30 7191 C 705.502 -0.769324 1.56069 0
M  V30 7192 O 706.678 -0.707563 1.88562 0
M  V30 7193 C 703.743 -0.901289 3.3478 0
M  V30 7194 C 702.804 -0.0986579 4.29187 0
M  V30 7195 C 702.037 -0.981634 5.24595 0
M  V30 7196 O 702.26 -2.22115 5.25377 0
M  V30 7197 O 701.194 -0.432892 6.00341 0
M  V30 7198 H 705.02 0.792537 2.93177 0
M  V30 7199 H 702.605 0.452935 1.42369 0
M  V30 7200 H 704.487 -1.43302 3.96286 0
M  V30 7201 H 703.162 -1.64752 2.78637 0
M  V30 7202 H 702.069 0.477604 3.71039 0
M  V30 7203 H 703.402 0.608848 4.8842 0
M  V30 7204 N 705.054 -1.51416 0.437162 0
M  V30 7205 C 706.279 -2.0699 -0.130424 0
M  V30 7206 C 706.704 -1.30249 -1.35709 0
M  V30 7207 O 706.062 -0.340388 -1.78076 0
M  V30 7208 C 706.11 -3.5801 -0.43142 0
M  V30 7209 O 705.214 -3.8345 -1.5179 0
M  V30 7210 H 704.555 -0.663997 -0.00194339 0
M  V30 7211 H 707.085 -1.95029 0.618445 0
M  V30 7212 H 707.095 -4.02261 -0.681926 0
M  V30 7213 H 705.77 -4.13291 0.465137 0
M  V30 7214 H 704.347 -3.51062 -1.25737 0
M  V30 7215 N 706.532 -0.168513 -1.56696 0
M  V30 7216 C 707.778 0.477865 -1.9709 0
M  V30 7217 C 708.111 1.63084 -1.05438 0
M  V30 7218 O 707.386 1.94238 -0.10095 0
M  V30 7219 C 707.669 0.963521 -3.4697 0
M  V30 7220 C 707.522 -0.189443 -4.49401 0
M  V30 7221 C 708.841 1.83813 -3.99876 0
M  V30 7222 H 705.96 0.172229 -0.716593 0
M  V30 7223 H 708.602 -0.254083 -1.88293 0
M  V30 7224 H 706.752 1.58724 -3.54597 0
M  V30 7225 H 708.424 -0.826451 -4.53836 0
M  V30 7226 H 706.667 -0.845366 -4.25483 0
M  V30 7227 H 707.338 0.192446 -5.51664 0
M  V30 7228 H 709.814 1.31235 -3.94863 0
M  V30 7229 H 708.69 2.14697 -5.0517 0
M  V30 7230 H 708.951 2.78289 -3.43523 0
M  V30 7231 N 708.01 1.57248 0.105221 0
M  V30 7232 C 708.958 2.02337 1.14728 0
M  V30 7233 C 709.952 0.922652 1.42069 0
M  V30 7234 O 711.158 1.10785 1.41869 0
M  V30 7235 H 707.533 0.644682 0.387155 0
M  V30 7236 H 709.504 2.89063 0.740607 0
M  V30 7237 C 708.253 2.45513 2.46209 0
M  V30 7238 H 707.576 3.29785 2.26013 0
M  V30 7239 H 709.016 2.80846 3.1765 0
M  V30 7240 C 707.475 1.3243 3.09781 0
M  V30 7241 O 708.005 0.647841 3.96442 0
M  V30 7242 N 706.211 1.07785 2.69872 0
M  V30 7243 H 705.758 1.62973 1.99493 0
M  V30 7244 H 705.716 0.323204 3.12734 0
M  V30 7245 N 709.488 -0.375779 1.53054 0
M  V30 7246 C 710.904 -0.716764 1.426 0
M  V30 7247 C 711.104 -1.93651 0.556931 0
M  V30 7248 O 710.16 -2.52475 0.0354461 0
M  V30 7249 C 711.473 -0.939499 2.85646 0
M  V30 7250 C 713.021 -1.04015 2.95212 0
M  V30 7251 C 713.496 -1.29543 4.39298 0
M  V30 7252 N 714.987 -1.36335 4.42682 0
M  V30 7253 C 715.722 -1.57778 5.51266 0
M  V30 7254 N 715.218 -1.76604 6.69913 0
M  V30 7255 N 717.011 -1.60065 5.38828 0
M  V30 7256 H 709.162 0.42664 2.08071 0
M  V30 7257 H 711.425 0.128758 0.939215 0
M  V30 7258 H 711.131 -0.115189 3.51511 0
M  V30 7259 H 711.005 -1.85048 3.2869 0
M  V30 7260 H 713.392 -1.85501 2.29507 0
M  V30 7261 H 713.473 -0.106785 2.55577 0
M  V30 7262 H 713.117 -0.485611 5.05573 0
M  V30 7263 H 713.047 -2.24184 4.76497 0
M  V30 7264 H 715.538 -1.23441 3.5717 0
M  V30 7265 H 715.851 -1.9251 7.48438 0
M  V30 7266 H 714.196 -1.73802 6.72917 0
M  V30 7267 H 717.387 -1.44917 4.45103 0
M  V30 7268 H 717.56 -1.76435 6.23518 0
M  V30 7269 N 710.966 -1.44241 -0.634997 0
M  V30 7270 C 712.194 -1.50296 -1.42193 0
M  V30 7271 C 712.609 -0.12658 -1.88375 0
M  V30 7272 O 711.966 0.86678 -1.60603 0
M  V30 7273 C 712.017 -2.46437 -2.64482 0
M  V30 7274 O 711.738 -3.78724 -2.20226 0
M  V30 7275 C 713.239 -2.61918 -3.57651 0
M  V30 7276 H 710.459 -0.509865 -0.43621 0
M  V30 7277 H 713.003 -1.89167 -0.776921 0
M  V30 7278 H 711.158 -2.10712 -3.25083 0
M  V30 7279 H 711.572 -4.30595 -2.9948 0
M  V30 7280 H 713.046 -3.33225 -4.40074 0
M  V30 7281 H 713.523 -1.67017 -4.06204 0
M  V30 7282 H 714.129 -2.98528 -3.02921 0
M  V30 7283 N 712.444 0.87505 -1.31075 0
M  V30 7284 C 713.391 1.98178 -1.18296 0
M  V30 7285 C 714.361 1.65952 -0.0699923 0
M  V30 7286 O 715.546 1.8926 -0.241951 0
M  V30 7287 C 712.686 3.33399 -0.891024 0
M  V30 7288 C 711.799 3.78253 -2.08684 0
M  V30 7289 C 710.934 5.02166 -1.73212 0
M  V30 7290 C 709.973 5.39455 -2.89231 0
M  V30 7291 N 709.11 6.54549 -2.53989 0
M  V30 7292 H 713.95 2.0844 -2.12971 0
M  V30 7293 H 711.487 1.02047 -1.05948 0
M  V30 7294 H 713.445 4.11246 -0.702338 0
M  V30 7295 H 712.075 3.22794 0.0188799 0
M  V30 7296 H 711.127 2.9623 -2.38646 0
M  V30 7297 H 712.439 4.01821 -2.95536 0
M  V30 7298 H 711.593 5.87666 -1.50777 0
M  V30 7299 H 710.332 4.80491 -0.83544 0
M  V30 7300 H 709.337 4.52477 -3.12321 0
M  V30 7301 H 710.562 5.63098 -3.79601 0
M  V30 7302 H 708.508 6.3443 -1.66838 0
M  V30 7303 H 708.425 6.78035 -3.34372 0
M  V30 7304 H 709.693 7.43254 -2.34934 0
M  V30 7305 N 713.922 1.13953 1.08869 0
M  V30 7306 C 715.169 0.90481 1.81161 0
M  V30 7307 C 715.497 -0.568824 1.85996 0
M  V30 7308 O 714.752 -1.43723 1.32823 0
M  V30 7309 C 715.051 1.44495 3.26888 0
M  V30 7310 C 714.717 2.93641 3.42178 0
M  V30 7311 C 713.379 3.34361 3.46059 0
M  V30 7312 C 715.731 3.89568 3.46246 0
M  V30 7313 C 713.059 4.69681 3.51592 0
M  V30 7314 C 715.411 5.2474 3.53314 0
M  V30 7315 C 714.075 5.64979 3.55465 0
M  V30 7316 H 713.345 0.331094 0.662916 0
M  V30 7317 H 715.992 1.42242 1.28217 0
M  V30 7318 H 714.297 0.848169 3.82509 0
M  V30 7319 H 715.994 1.23934 3.81368 0
M  V30 7320 H 712.584 2.61156 3.39846 0
M  V30 7321 H 716.768 3.59192 3.42483 0
M  V30 7322 H 712.024 5.00224 3.51547 0
M  V30 7323 H 716.198 5.98882 3.55406 0
M  V30 7324 H 713.825 6.69821 3.59505 0
M  V30 7325 N 715.4 -1.26948 0.933913 0
M  V30 7326 C 716.677 -1.89212 0.495784 0
M  V30 7327 C 717.057 -1.84469 -1.02637 0
M  V30 7328 O 716.405 -1.29409 -1.88323 0
M  V30 7329 C 716.615 -3.32865 1.0489 0
M  V30 7330 C 717.963 -4.09749 1.11315 0
M  V30 7331 O 718.987 -3.41905 0.998966 0
M  V30 7332 O 717.846 -5.31061 1.28983 0
M  V30 7333 H 714.94 -0.811284 0.160459 0
M  V30 7334 H 717.486 -1.35171 1.02601 0
M  V30 7335 H 716.258 -3.30642 2.09265 0
M  V30 7336 H 715.881 -3.94435 0.500692 0
M  V30 7337 N 716.879 -0.700114 -1.41195 0
M  V30 7338 C 718.119 -0.237223 -2.03019 0
M  V30 7339 C 718.483 1.14304 -1.54268 0
M  V30 7340 O 719.684 1.70204 -2.08048 0
M  V30 7341 C 717.955 -0.297442 -3.5616 0
M  V30 7342 S 719.514 0.0907367 -4.38706 0
M  V30 7343 H 716.332 -0.0952147 -0.704596 0
M  V30 7344 H 718.934 -0.918901 -1.72559 0
M  V30 7345 H 717.638 -1.30391 -3.89135 0
M  V30 7346 H 717.169 0.403233 -3.91328 0
M  V30 7347 H 719.184 1.31721 -4.78397 0
M  V30 7348 N 718.357 1.51182 -0.445186 0
M  V30 7349 C 719.603 2.02452 0.11882 0
M  V30 7350 C 719.936 1.32824 1.41673 0
M  V30 7351 O 719.211 0.445637 1.89326 0
M  V30 7352 C 719.494 3.5859 0.329475 0
M  V30 7353 C 719.347 4.38823 -0.987638 0
M  V30 7354 C 720.666 4.26241 1.09575 0
M  V30 7355 H 717.785 0.735819 0.0417092 0
M  V30 7356 H 720.427 1.80747 -0.585718 0
M  V30 7357 H 718.577 3.77214 0.9296 0
M  V30 7358 H 720.249 4.3183 -1.62235 0
M  V30 7359 H 718.492 4.03594 -1.59041 0
M  V30 7360 H 719.163 5.46257 -0.794192 0
M  V30 7361 H 721.639 4.11934 0.587328 0
M  V30 7362 H 720.515 5.35354 1.21191 0
M  V30 7363 H 720.776 3.87635 2.12584 0
M  V30 7364 N 719.835 0.176821 1.56605 0
M  V30 7365 C 720.745 -0.763682 2.21822 0
M  V30 7366 C 721.761 -1.24889 1.21156 0
M  V30 7367 O 722.937 -1.29987 1.53836 0
M  V30 7368 C 720.002 -1.97352 2.8505 0
M  V30 7369 C 719.063 -1.53466 4.00932 0
M  V30 7370 C 718.296 -2.68682 4.61135 0
M  V30 7371 O 718.519 -3.85694 4.20234 0
M  V30 7372 O 717.453 -2.42442 5.50913 0
M  V30 7373 H 721.279 -0.238363 3.02763 0
M  V30 7374 H 718.864 -0.0516331 1.49311 0
M  V30 7375 H 720.746 -2.68096 3.25119 0
M  V30 7376 H 719.421 -2.48779 2.07101 0
M  V30 7377 H 718.328 -0.796551 3.65521 0
M  V30 7378 H 719.661 -1.06724 4.8049 0
M  V30 7379 N 721.313 -1.57302 -0.09688 0
M  V30 7380 C 722.261 -2.02942 -1.13654 0
M  V30 7381 C 723.255 -0.930173 -1.41577 0
M  V30 7382 O 724.461 -1.11535 -1.41279 0
M  V30 7383 H 720.836 -0.646726 -0.383731 0
M  V30 7384 H 722.807 -2.89452 -0.725267 0
M  V30 7385 C 721.556 -2.46815 -2.44903 0
M  V30 7386 H 720.879 -3.30979 -2.24261 0
M  V30 7387 H 722.319 -2.82527 -3.16156 0
M  V30 7388 C 720.778 -1.34071 -3.09074 0
M  V30 7389 O 721.308 -0.668856 -3.96092 0
M  V30 7390 N 719.514 -1.09214 -2.69296 0
M  V30 7391 H 719.061 -1.64029 -1.98626 0
M  V30 7392 H 719.019 -0.339785 -3.12559 0
M  V30 7393 N 722.791 0.367657 -1.53252 0
M  V30 7394 C 724.039 1.10832 -1.68999 0
M  V30 7395 C 724.36 1.89894 -0.443306 0
M  V30 7396 O 723.63 1.88235 0.54262 0
M  V30 7397 H 722.21 0.412153 -0.623008 0
M  V30 7398 H 724.872 0.414775 -1.90435 0
M  V30 7399 H 723.968 1.7993 -2.55013 0
M  V30 7400 N 724.269 1.44576 0.627338 0
M  V30 7401 C 725.515 1.4877 1.38705 0
M  V30 7402 C 725.87 0.119976 1.92026 0
M  V30 7403 O 725.163 -0.865341 1.70946 0
M  V30 7404 C 725.357 2.48644 2.56731 0
M  V30 7405 C 725.186 3.94994 2.14965 0
M  V30 7406 C 723.956 4.63139 2.02065 0
M  V30 7407 C 726.154 4.841 1.73643 0
M  V30 7408 N 724.136 5.94296 1.53902 0
M  V30 7409 C 725.507 6.0473 1.36753 0
M  V30 7410 C 727.562 4.71131 1.61058 0
M  V30 7411 C 726.265 7.13831 0.885353 0
M  V30 7412 C 728.291 5.8026 1.14244 0
M  V30 7413 C 727.653 7.00034 0.783067 0
M  V30 7414 H 723.752 0.599415 0.50222 0
M  V30 7415 H 726.336 1.80926 0.719285 0
M  V30 7416 H 724.507 2.18472 3.2113 0
M  V30 7417 H 726.239 2.4311 3.23542 0
M  V30 7418 H 722.994 4.18007 2.22637 0
M  V30 7419 H 723.418 6.63985 1.32108 0
M  V30 7420 H 728.06 3.78964 1.87473 0
M  V30 7421 H 725.778 8.05804 0.608716 0
M  V30 7422 H 729.364 5.72254 1.0496 0
M  V30 7423 H 728.244 7.8304 0.426381 0
M  V30 7424 N 725.747 -0.868086 1.31537 0
M  V30 7425 C 727.158 -1.437 1.19195 0
M  V30 7426 C 727.509 -1.95169 -0.200842 0
M  V30 7427 O 726.634 -1.86432 -1.09872 0
M  V30 7428 C 727.229 -2.612 2.15778 0
M  V30 7429 C 725.788 -3.1413 2.07363 0
M  V30 7430 C 724.935 -1.86845 2.049 0
M  V30 7431 H 727.886 -0.676457 1.43561 0
M  V30 7432 H 727.907 -3.37948 1.74847 0
M  V30 7433 H 727.419 -2.23709 3.17137 0
M  V30 7434 H 725.52 -3.56238 1.09204 0
M  V30 7435 H 725.633 -3.76285 2.96557 0
M  V30 7436 H 723.997 -2.05886 1.49943 0
M  V30 7437 H 724.78 -1.51589 3.08019 0
M  V30 7438 N 727.225 -1.14528 -1.08264 0
M  V30 7439 C 728.45 -0.938381 -1.84957 0
M  V30 7440 C 728.875 0.508044 -1.81109 0
M  V30 7441 O 728.233 1.36146 -1.19724 0
M  V30 7442 C 728.281 -1.44568 -3.30352 0
M  V30 7443 O 727.385 -0.638745 -4.07423 0
M  V30 7444 H 726.726 -0.335394 -0.573068 0
M  V30 7445 H 729.256 -1.52287 -1.36637 0
M  V30 7446 H 729.266 -1.45449 -3.81194 0
M  V30 7447 H 727.941 -2.49876 -3.32468 0
M  V30 7448 H 726.518 -0.698801 -3.66294 0
M  V30 7449 N 728.703 1.26451 -0.940633 0
M  V30 7450 C 729.949 1.94065 -0.58878 0
M  V30 7451 C 730.282 1.7363 0.869853 0
M  V30 7452 O 729.557 1.073 1.62225 0
M  V30 7453 C 729.84 3.47852 -0.931199 0
M  V30 7454 C 729.693 3.77575 -2.44453 0
M  V30 7455 C 731.012 4.37832 -0.446229 0
M  V30 7456 H 728.131 0.704827 -0.21538 0
M  V30 7457 H 730.773 1.4933 -1.17475 0
M  V30 7458 H 728.923 3.86085 -0.432539 0
M  V30 7459 H 730.595 3.49059 -3.01588 0
M  V30 7460 H 728.838 3.23671 -2.88825 0
M  V30 7461 H 729.509 4.85068 -2.63464 0
M  V30 7462 H 731.985 4.06822 -0.873778 0
M  V30 7463 H 730.861 5.44228 -0.714648 0
M  V30 7464 H 731.122 4.37239 0.653815 0
M  V30 7465 N 730.181 0.707592 1.40822 0
M  V30 7466 C 731.421 0.247986 2.0289 0
M  V30 7467 C 731.785 -1.13484 1.54872 0
M  V30 7468 O 732.986 -1.69098 2.08948 0
M  V30 7469 C 731.257 0.316326 3.55997 0
M  V30 7470 S 732.816 -0.0674698 4.38748 0
M  V30 7471 H 729.634 0.09895 0.704081 0
M  V30 7472 H 732.236 0.928039 1.72069 0
M  V30 7473 H 730.94 1.32453 3.88438 0
M  V30 7474 H 730.471 -0.382474 3.91536 0
M  V30 7475 H 732.486 -1.29182 4.79089 0
M  V30 7476 N 731.66 -1.50943 0.453197 0
M  V30 7477 C 732.909 -2.01402 -0.10951 0
M  V30 7478 C 733.222 -1.3411 -1.42386 0
M  V30 7479 O 734.428 -1.75626 -2.07045 0
M  V30 7480 C 732.884 -3.5906 -0.245693 0
M  V30 7481 C 732.492 -4.353 1.05916 0
M  V30 7482 C 734.236 -4.17617 -0.761318 0
M  V30 7483 C 732.143 -5.84699 0.887752 0
M  V30 7484 H 731.073 -0.752674 -0.0447013 0
M  V30 7485 H 733.724 -1.73913 0.585375 0
M  V30 7486 H 732.106 -3.83062 -1.00395 0
M  V30 7487 H 733.28 -4.23034 1.82698 0
M  V30 7488 H 731.595 -3.88269 1.50452 0
M  V30 7489 H 734.192 -5.26963 -0.906306 0
M  V30 7490 H 734.535 -3.77824 -1.74799 0
M  V30 7491 H 735.068 -3.97753 -0.0609416 0
M  V30 7492 H 731.807 -6.28933 1.84726 0
M  V30 7493 H 731.327 -5.99587 0.160006 0
M  V30 7494 H 733.006 -6.44682 0.547223 0
M  V30 7495 N 733.138 -0.185124 -1.56509 0
M  V30 7496 C 734.415 0.503348 -1.89013 0
M  V30 7497 C 734.795 1.80349 -1.09715 0
M  V30 7498 O 734.143 2.27665 -0.195203 0
M  V30 7499 C 734.353 0.731839 -3.41241 0
M  V30 7500 C 735.701 1.05568 -4.11267 0
M  V30 7501 O 736.725 0.819906 -3.46635 0
M  V30 7502 O 735.584 1.50116 -5.25478 0
M  V30 7503 H 732.678 0.261139 -0.784688 0
M  V30 7504 H 735.224 -0.224592 -1.68207 0
M  V30 7505 H 733.996 -0.18672 -3.90854 0
M  V30 7506 H 733.619 1.5126 -3.67704 0
M  V30 7507 N 734.616 1.57351 0.0885366 0
M  V30 7508 C 735.546 2.05561 1.10757 0
M  V30 7509 C 736.527 0.945789 1.41382 0
M  V30 7510 O 737.712 1.21747 1.51299 0
M  V30 7511 C 734.842 2.48554 2.42566 0
M  V30 7512 C 733.796 3.63259 2.26334 0
M  V30 7513 C 733.122 3.9225 3.63378 0
M  V30 7514 C 734.422 4.93913 1.69844 0
M  V30 7515 H 736.116 2.90946 0.706468 0
M  V30 7516 H 733.662 1.39968 0.338385 0
M  V30 7517 H 735.615 2.8089 3.14132 0
M  V30 7518 H 734.339 1.60176 2.84625 0
M  V30 7519 H 732.998 3.31179 1.57213 0
M  V30 7520 H 732.646 3.0103 4.02976 0
M  V30 7521 H 732.346 4.69478 3.53362 0
M  V30 7522 H 733.87 4.27067 4.36401 0
M  V30 7523 H 735.284 5.24588 2.31258 0
M  V30 7524 H 733.681 5.75349 1.70569 0
M  V30 7525 H 734.751 4.80409 0.65843 0
M  V30 7526 N 736.094 -0.359525 1.53444 0
M  V30 7527 C 737.322 -1.12198 1.73837 0
M  V30 7528 C 737.737 -1.82854 0.470107 0
M  V30 7529 O 737.094 -1.73781 -0.557349 0
M  V30 7530 C 737.145 -2.14769 2.90786 0
M  V30 7531 O 736.866 -1.46989 4.12706 0
M  V30 7532 C 738.367 -3.03514 3.231 0
M  V30 7533 H 735.587 -0.33524 0.581253 0
M  V30 7534 H 738.131 -0.416598 2.00212 0
M  V30 7535 H 736.286 -2.80896 2.66788 0
M  V30 7536 H 736.7 -2.15378 4.78239 0
M  V30 7537 H 738.174 -3.71453 4.08322 0
M  V30 7538 H 738.651 -3.68658 2.38721 0
M  V30 7539 H 739.257 -2.42996 3.49046 0
M  V30 7540 N 737.572 -1.44907 -0.619662 0
M  V30 7541 C 738.502 -1.55488 -1.742 0
M  V30 7542 C 739.483 -0.407143 -1.65156 0
M  V30 7543 O 740.668 -0.628743 -1.8374 0
M  V30 7544 C 737.798 -1.5097 -3.1277 0
M  V30 7545 C 736.752 -2.64337 -3.36615 0
M  V30 7546 C 736.078 -2.44872 -4.75333 0
M  V30 7547 C 737.378 -4.06423 -3.28051 0
M  V30 7548 H 739.072 -2.49432 -1.65602 0
M  V30 7549 H 736.618 -1.20047 -0.795281 0
M  V30 7550 H 738.571 -1.56971 -3.91073 0
M  V30 7551 H 737.295 -0.535486 -3.2218 0
M  V30 7552 H 735.954 -2.57744 -2.60698 0
M  V30 7553 H 735.602 -1.45617 -4.81461 0
M  V30 7554 H 735.302 -3.20888 -4.92244 0
M  V30 7555 H 736.826 -2.52709 -5.55851 0
M  V30 7556 H 738.24 -4.14324 -3.96243 0
M  V30 7557 H 736.637 -4.82733 -3.56495 0
M  V30 7558 H 737.707 -4.29183 -2.25676 0
M  V30 7559 N 739.05 0.861098 -1.31996 0
M  V30 7560 C 740.29 1.62873 -1.23498 0
M  V30 7561 C 740.654 1.90938 0.201692 0
M  V30 7562 O 741.855 2.6565 0.410305 0
M  V30 7563 C 740.126 2.91759 -2.06426 0
M  V30 7564 S 741.685 3.82583 -2.14885 0
M  V30 7565 H 738.503 0.558726 -0.439712 0
M  V30 7566 H 741.105 1.02025 -1.66767 0
M  V30 7567 H 739.809 2.69077 -3.0988 0
M  V30 7568 H 739.34 3.57627 -1.6391 0
M  V30 7569 H 741.355 4.7904 -1.29364 0
M  V30 7570 N 740.528 1.15101 1.07655 0
M  V30 7571 C 741.775 0.923974 1.80191 0
M  V30 7572 C 742.103 -0.549065 1.86589 0
M  V30 7573 O 741.358 -1.42307 1.3434 0
M  V30 7574 C 741.657 1.47954 3.25337 0
M  V30 7575 C 741.323 2.97253 3.39044 0
M  V30 7576 C 739.985 3.38012 3.42493 0
M  V30 7577 C 742.337 3.93219 3.42094 0
M  V30 7578 C 739.665 4.73384 3.4659 0
M  V30 7579 C 742.017 5.28458 3.47728 0
M  V30 7580 C 740.681 5.68717 3.49453 0
M  V30 7581 H 739.951 0.338106 0.659367 0
M  V30 7582 H 742.598 1.43594 1.26701 0
M  V30 7583 H 740.903 0.888691 3.81588 0
M  V30 7584 H 742.6 1.27972 3.80032 0
M  V30 7585 H 739.19 2.64746 3.37057 0
M  V30 7586 H 743.374 3.62805 3.38654 0
M  V30 7587 H 738.63 5.03925 3.46222 0
M  V30 7588 H 742.804 6.02618 3.49034 0
M  V30 7589 H 740.431 6.73596 3.5238 0
M  V30 7590 N 742.006 -1.2595 0.947325 0
M  V30 7591 C 743.231 -1.98083 0.614633 0
M  V30 7592 C 743.656 -1.70013 -0.804815 0
M  V30 7593 O 743.014 -0.95175 -1.54309 0
M  V30 7594 C 743.062 -3.4993 0.870706 0
M  V30 7595 O 742.166 -4.12364 -0.0541451 0
M  V30 7596 H 741.507 -0.621232 0.234451 0
M  V30 7597 H 744.037 -1.60259 1.27193 0
M  V30 7598 H 744.047 -4.00198 0.794051 0
M  V30 7599 H 742.722 -3.69691 1.90529 0
M  V30 7600 H 741.299 -3.72826 0.0740917 0
M  V30 7601 N 743.484 -0.715051 -1.40445 0
M  V30 7602 C 744.714 -0.263576 -2.04912 0
M  V30 7603 C 745.122 1.09943 -1.53978 0
M  V30 7604 O 744.465 1.70203 -0.691133 0
M  V30 7605 C 744.527 -0.165048 -3.59121 0
M  V30 7606 C 744.191 -1.46325 -4.32941 0
M  V30 7607 C 745.188 -2.40506 -4.60926 0
M  V30 7608 C 742.873 -1.72203 -4.7186 0
M  V30 7609 C 744.867 -3.58812 -5.26814 0
M  V30 7610 C 742.554 -2.9079 -5.3748 0
M  V30 7611 C 743.552 -3.83917 -5.64887 0
M  V30 7612 O 743.24 -5.00424 -6.29151 0
M  V30 7613 H 742.972 -0.116317 -0.665918 0
M  V30 7614 H 745.526 -0.973774 -1.8085 0
M  V30 7615 H 743.756 0.601088 -3.82 0
M  V30 7616 H 745.445 0.251794 -4.05118 0
M  V30 7617 H 746.211 -2.21778 -4.31323 0
M  V30 7618 H 742.09 -1.00571 -4.49896 0
M  V30 7619 H 745.634 -4.31517 -5.48123 0
M  V30 7620 H 741.531 -3.09428 -5.66502 0
M  V30 7621 H 742.299 -5.00494 -6.47648 0
M  V30 7622 N 744.962 1.50701 -0.461195 0
M  V30 7623 C 745.909 2.2831 0.338094 0
M  V30 7624 C 746.879 1.32928 0.995957 0
M  V30 7625 O 748.064 1.61857 1.0103 0
M  V30 7626 C 745.204 3.14539 1.41983 0
M  V30 7627 C 744.317 4.24942 0.77773 0
M  V30 7628 C 743.452 4.98443 1.83652 0
M  V30 7629 C 742.491 6.00733 1.17413 0
M  V30 7630 N 741.628 6.6755 2.17533 0
M  V30 7631 H 746.468 2.96167 -0.330051 0
M  V30 7632 H 744.005 1.4606 -0.174611 0
M  V30 7633 H 745.963 3.62877 2.05855 0
M  V30 7634 H 744.593 2.48749 2.05727 0
M  V30 7635 H 743.645 3.80391 0.0266924 0
M  V30 7636 H 744.957 4.98151 0.254362 0
M  V30 7637 H 744.111 5.50449 2.55129 0
M  V30 7638 H 742.85 4.24917 2.39367 0
M  V30 7639 H 741.855 5.47997 0.444944 0
M  V30 7640 H 743.08 6.76227 0.624006 0
M  V30 7641 H 741.026 5.96823 2.72284 0
M  V30 7642 H 740.943 7.36603 1.70154 0
M  V30 7643 H 742.211 7.24178 2.88421 0
M  V30 7644 N 746.441 0.193421 1.56409 0
M  V30 7645 C 747.689 -0.444908 1.97142 0
M  V30 7646 C 748.01 -1.62268 1.08139 0
M  V30 7647 O 747.28 -1.95307 0.152326 0
M  V30 7648 H 745.86 -0.16736 0.728011 0
M  V30 7649 H 748.522 0.279763 1.92882 0
M  V30 7650 H 747.618 -0.790159 3.01932 0
M  V30 7651 N 747.919 -1.57396 -0.0801906 0
M  V30 7652 C 748.866 -2.03107 -1.09618 0
M  V30 7653 C 749.836 -0.910118 -1.38946 0
M  V30 7654 O 751.021 -1.17719 -1.50156 0
M  V30 7655 C 748.161 -2.47293 -2.40708 0
M  V30 7656 C 747.274 -3.72972 -2.17982 0
M  V30 7657 C 746.409 -4.05975 -3.42576 0
M  V30 7658 C 745.448 -5.24719 -3.15177 0
M  V30 7659 N 744.585 -5.53401 -4.32078 0
M  V30 7660 H 749.425 -2.89677 -0.69939 0
M  V30 7661 H 746.962 -1.43263 -0.333785 0
M  V30 7662 H 748.92 -2.7096 -3.17232 0
M  V30 7663 H 747.55 -1.63713 -2.78205 0
M  V30 7664 H 746.602 -3.56693 -1.32189 0
M  V30 7665 H 747.914 -4.59638 -1.93738 0
M  V30 7666 H 747.068 -4.30498 -4.275 0
M  V30 7667 H 745.807 -3.17859 -3.69887 0
M  V30 7668 H 744.812 -5 -2.28648 0
M  V30 7669 H 746.037 -6.14445 -2.89197 0
M  V30 7670 H 743.983 -4.68245 -4.59437 0
M  V30 7671 H 743.9 -6.34469 -4.11078 0
M  V30 7672 H 745.168 -5.8247 -5.18024 0
M  V30 7673 N 749.397 0.351382 -1.53633 0
M  V30 7674 C 750.307 1.45471 -1.84052 0
M  V30 7675 C 751.323 1.57945 -0.730015 0
M  V30 7676 O 752.499 1.73571 -1.02153 0
M  V30 7677 C 749.564 2.80562 -2.03681 0
M  V30 7678 C 748.625 2.77497 -3.27558 0
M  V30 7679 C 747.858 4.06144 -3.46241 0
M  V30 7680 O 748.081 5.03028 -2.68922 0
M  V30 7681 O 747.015 4.11092 -4.39645 0
M  V30 7682 H 750.841 1.22684 -2.77817 0
M  V30 7683 H 748.426 0.542827 -1.3919 0
M  V30 7684 H 750.308 3.6058 -2.18082 0
M  V30 7685 H 748.983 3.03296 -1.13106 0
M  V30 7686 H 747.89 1.96126 -3.18568 0
M  V30 7687 H 749.223 2.59716 -4.18101 0
M  V30 7688 N 750.875 1.45233 0.611969 0
M  V30 7689 C 752.121 1.49242 1.37312 0
M  V30 7690 C 752.454 0.131963 1.93751 0
M  V30 7691 O 751.729 -0.852999 1.74798 0
M  V30 7692 C 752.012 2.56811 2.52428 0
M  V30 7693 C 751.865 4.02284 2.01215 0
M  V30 7694 C 753.184 2.60705 3.54572 0
M  V30 7695 H 750.303 0.54336 0.497925 0
M  V30 7696 H 752.945 1.77019 0.690242 0
M  V30 7697 H 751.095 2.33256 3.10683 0
M  V30 7698 H 752.767 4.37035 1.47643 0
M  V30 7699 H 751.01 4.1315 1.32248 0
M  V30 7700 H 751.681 4.7323 2.84178 0
M  V30 7701 H 754.157 2.81799 3.06151 0
M  V30 7702 H 753.033 3.37841 4.32614 0
M  V30 7703 H 753.294 1.65627 4.09903 0
M  V30 7704 N 752.353 -0.854086 1.3245 0
M  V30 7705 C 753.764 -1.42427 1.20712 0
M  V30 7706 C 754.115 -1.95371 -0.18013 0
M  V30 7707 O 753.24 -1.87587 -1.07889 0
M  V30 7708 C 753.835 -2.58897 2.18536 0
M  V30 7709 C 752.394 -3.11913 2.10683 0
M  V30 7710 C 751.541 -1.84661 2.06871 0
M  V30 7711 H 754.492 -0.661192 1.4427 0
M  V30 7712 H 754.513 -3.36074 1.78422 0
M  V30 7713 H 754.025 -2.20333 3.19492 0
M  V30 7714 H 752.126 -3.55059 1.12977 0
M  V30 7715 H 752.239 -3.73119 3.00532 0
M  V30 7716 H 750.603 -2.04285 1.52118 0
M  V30 7717 H 751.386 -1.48314 3.09609 0
M  V30 7718 N 753.831 -1.1567 -1.07043 0
M  V30 7719 C 755.079 -0.931673 -1.79344 0
M  V30 7720 C 755.4 0.542421 -1.87304 0
M  V30 7721 O 754.67 1.39418 -1.37621 0
M  V30 7722 H 753.25 -0.34171 -0.664262 0
M  V30 7723 H 755.912 -1.45795 -1.29344 0
M  V30 7724 H 755.008 -1.34379 -2.81689 0
M  V30 7725 N 755.309 1.25446 -0.953992 0
M  V30 7726 C 756.539 1.96929 -0.624688 0
M  V30 7727 C 756.947 1.71112 0.807292 0
M  V30 7728 O 756.29 0.983512 1.55154 0
M  V30 7729 C 756.352 3.50425 -0.802676 0
M  V30 7730 C 756.016 3.99916 -2.21169 0
M  V30 7731 C 757.013 4.10662 -3.18831 0
M  V30 7732 C 754.698 4.33598 -2.53571 0
M  V30 7733 C 756.692 4.54401 -4.46988 0
M  V30 7734 C 754.379 4.77024 -3.81958 0
M  V30 7735 C 755.377 4.87388 -4.78478 0
M  V30 7736 O 755.065 5.29851 -6.04577 0
M  V30 7737 H 754.797 0.634511 -0.233179 0
M  V30 7738 H 757.351 1.60591 -1.28061 0
M  V30 7739 H 755.581 3.86596 -0.0896044 0
M  V30 7740 H 757.27 4.03117 -0.47452 0
M  V30 7741 H 758.036 3.84872 -2.95124 0
M  V30 7742 H 753.915 4.24757 -1.79171 0
M  V30 7743 H 757.459 4.62406 -5.22328 0
M  V30 7744 H 753.356 5.02258 -4.05471 0
M  V30 7745 H 754.124 5.48039 -6.07944 0
M  V30 7746 N 756.787 0.722489 1.40064 0
M  V30 7747 C 758.036 0.261932 1.99992 0
M  V30 7748 C 758.349 -1.15358 1.57961 0
M  V30 7749 O 759.555 -1.71301 2.10637 0
M  V30 7750 C 758.011 0.41737 3.57472 0
M  V30 7751 C 757.619 1.83997 4.08472 0
M  V30 7752 C 759.363 0.0179561 4.24496 0
M  V30 7753 C 757.27 1.94563 5.5848 0
M  V30 7754 H 756.2 0.0941768 0.748095 0
M  V30 7755 H 758.851 0.894572 1.60218 0
M  V30 7756 H 757.233 -0.283965 3.94981 0
M  V30 7757 H 758.407 2.57224 3.82325 0
M  V30 7758 H 756.722 2.19147 3.54067 0
M  V30 7759 H 759.319 0.076085 5.34646 0
M  V30 7760 H 759.662 -1.02498 4.03485 0
M  V30 7761 H 760.195 0.669988 3.92117 0
M  V30 7762 H 756.934 2.97001 5.84355 0
M  V30 7763 H 756.454 1.25756 5.86469 0
M  V30 7764 H 758.133 1.72095 6.23692 0
M  V30 7765 N 758.265 -1.50454 0.469181 0
M  V30 7766 C 759.511 -2.02615 -0.0865971 0
M  V30 7767 C 759.844 -1.35062 -1.39542 0
M  V30 7768 O 759.119 -0.475701 -1.88593 0
M  V30 7769 C 759.402 -3.59068 -0.272385 0
M  V30 7770 C 759.255 -4.37196 1.05733 0
M  V30 7771 C 760.574 -4.2793 -1.0278 0
M  V30 7772 H 757.693 -0.736389 -0.0299977 0
M  V30 7773 H 760.335 -1.79792 0.614399 0
M  V30 7774 H 758.485 -3.78646 -0.869471 0
M  V30 7775 H 760.157 -4.29195 1.69084 0
M  V30 7776 H 758.4 -4.01013 1.65442 0
M  V30 7777 H 759.071 -5.44924 0.880997 0
M  V30 7778 H 761.547 -4.12816 -0.521718 0
M  V30 7779 H 760.423 -5.37214 -1.12659 0
M  V30 7780 H 760.684 -3.90968 -2.0639 0
M  V30 7781 N 759.743 -0.201713 -1.56304 0
M  V30 7782 C 760.673 0.71155 -2.22394 0
M  V30 7783 C 761.654 1.21625 -1.18917 0
M  V30 7784 O 762.839 1.26388 -1.47444 0
M  V30 7785 C 759.969 1.92837 -2.88845 0
M  V30 7786 C 758.923 1.55831 -3.98623 0
M  V30 7787 C 758.249 2.85228 -4.52271 0
M  V30 7788 C 759.549 0.763249 -5.16693 0
M  V30 7789 H 761.243 0.160573 -2.98969 0
M  V30 7790 H 758.789 0.0757916 -1.438 0
M  V30 7791 H 760.742 2.57253 -3.33764 0
M  V30 7792 H 759.466 2.50398 -2.09686 0
M  V30 7793 H 758.125 0.9377 -3.54405 0
M  V30 7794 H 757.773 3.40893 -3.69866 0
M  V30 7795 H 757.473 2.6121 -5.26349 0
M  V30 7796 H 758.997 3.50622 -4.99897 0
M  V30 7797 H 760.411 1.31066 -5.58117 0
M  V30 7798 H 758.808 0.620935 -5.96879 0
M  V30 7799 H 759.878 -0.234322 -4.84334 0
M  V30 7800 N 761.222 1.57436 0.0718424 0
M  V30 7801 C 762.469 1.87248 0.771007 0
M  V30 7802 C 762.797 0.793441 1.7758 0
M  V30 7803 O 762.052 -0.210565 1.94564 0
M  V30 7804 C 762.351 3.23723 1.51455 0
M  V30 7805 C 762.017 4.46194 0.649736 0
M  V30 7806 C 760.679 4.79438 0.411409 0
M  V30 7807 C 763.031 5.21176 0.05004 0
M  V30 7808 C 760.359 5.85077 -0.436096 0
M  V30 7809 C 762.711 6.27712 -0.784919 0
M  V30 7810 C 761.375 6.59457 -1.03312 0
M  V30 7811 H 760.645 0.685188 0.282132 0
M  V30 7812 H 763.292 1.91474 0.0317896 0
M  V30 7813 H 761.597 3.15287 2.32597 0
M  V30 7814 H 763.294 3.44023 2.06031 0
M  V30 7815 H 759.884 4.20175 0.84562 0
M  V30 7816 H 764.068 4.95806 0.221282 0
M  V30 7817 H 759.324 6.08071 -0.637136 0
M  V30 7818 H 763.498 6.84974 -1.25635 0
M  V30 7819 H 761.125 7.4114 -1.6916 0
M  V30 7820 N 762.7 -0.34323 1.53817 0
M  V30 7821 C 763.93 -1.10188 1.74763 0
M  V30 7822 C 764.338 -1.82829 0.486856 0
M  V30 7823 O 763.681 -1.75236 -0.551198 0
M  V30 7824 C 763.743 -2.16 2.87375 0
M  V30 7825 C 763.407 -1.62931 4.26969 0
M  V30 7826 C 764.404 -1.08147 5.08528 0
M  V30 7827 C 762.089 -1.67769 4.73454 0
M  V30 7828 C 764.083 -0.589039 6.34672 0
M  V30 7829 C 761.77 -1.18138 5.99572 0
M  V30 7830 C 762.768 -0.637979 6.80014 0
M  V30 7831 O 762.456 -0.149073 8.03762 0
M  V30 7832 H 762.188 -0.33445 0.587469 0
M  V30 7833 H 764.742 -0.401109 2.01445 0
M  V30 7834 H 762.972 -2.89637 2.56218 0
M  V30 7835 H 764.661 -2.77432 2.96287 0
M  V30 7836 H 765.427 -1.03732 4.73777 0
M  V30 7837 H 761.306 -2.09004 4.10899 0
M  V30 7838 H 764.85 -0.164233 6.97407 0
M  V30 7839 H 760.747 -1.22254 6.33817 0
M  V30 7840 H 761.515 -0.266332 8.18067 0
M  V30 7841 N 764.178 -1.45556 -0.604258 0
M  V30 7842 C 765.126 -1.5482 -1.7359 0
M  V30 7843 C 766.12 -0.417966 -1.64163 0
M  V30 7844 O 767.326 -0.594007 -1.69916 0
M  V30 7845 H 763.701 -0.486352 -0.573556 0
M  V30 7846 H 765.672 -2.5001 -1.62903 0
M  V30 7847 C 764.421 -1.53521 -3.11972 0
M  V30 7848 H 763.744 -2.39818 -3.19886 0
M  V30 7849 H 765.184 -1.64061 -3.90973 0
M  V30 7850 C 763.643 -0.260191 -3.35894 0
M  V30 7851 O 764.173 0.658582 -3.96265 0
M  V30 7852 N 762.379 -0.154839 -2.90187 0
M  V30 7853 H 761.926 -0.903378 -2.4124 0
M  V30 7854 H 761.884 0.697437 -3.06567 0
M  V30 7855 N 765.656 0.84705 -1.32902 0
M  V30 7856 C 766.589 1.96038 -1.1681 0
M  V30 7857 C 767.567 1.62468 -0.0656144 0
M  V30 7858 O 768.751 1.87136 -0.226339 0
M  V30 7859 C 765.878 3.29362 -0.789839 0
M  V30 7860 C 764.924 3.81908 -1.89865 0
M  V30 7861 S 765.757 4.04576 -3.50826 0
M  V30 7862 C 766.913 5.40863 -3.14989 0
M  V30 7863 H 767.146 2.09387 -2.11055 0
M  V30 7864 H 764.679 0.999896 -1.1765 0
M  V30 7865 H 766.637 4.06405 -0.578369 0
M  V30 7866 H 765.298 3.13815 0.133878 0
M  V30 7867 H 764.491 4.78357 -1.58716 0
M  V30 7868 H 764.093 3.11733 -2.06636 0
M  V30 7869 H 766.385 6.23393 -2.65306 0
M  V30 7870 H 767.328 5.7698 -4.10488 0
M  V30 7871 H 767.736 5.05228 -2.51804 0
M  V30 7872 N 767.134 1.16236 1.06428 0
M  V30 7873 C 768.359 0.967688 1.83441 0
M  V30 7874 C 768.784 -0.479167 1.81894 0
M  V30 7875 O 768.142 -1.34224 1.21875 0
M  V30 7876 C 768.19 1.49806 3.2801 0
M  V30 7877 O 767.294 0.703481 4.06356 0
M  V30 7878 H 766.635 0.344468 0.56766 0
M  V30 7879 H 769.165 1.54442 1.34197 0
M  V30 7880 H 769.175 1.51495 3.78831 0
M  V30 7881 H 767.85 2.55133 3.2845 0
M  V30 7882 H 766.427 0.756986 3.65136 0
M  V30 7883 N 768.612 -1.24939 0.960631 0
M  V30 7884 C 769.542 -2.28 0.503815 0
M  V30 7885 C 770.523 -1.63959 -0.452928 0
M  V30 7886 O 771.708 -1.91009 -0.350585 0
M  V30 7887 C 768.838 -3.46643 -0.213535 0
M  V30 7888 C 767.792 -4.22903 0.658535 0
M  V30 7889 C 767.118 -5.34363 -0.189902 0
M  V30 7890 C 768.418 -4.84949 1.93963 0
M  V30 7891 H 770.112 -2.66462 1.36521 0
M  V30 7892 H 767.658 -1.28093 0.657897 0
M  V30 7893 H 769.611 -4.1787 -0.544286 0
M  V30 7894 H 768.335 -3.07187 -1.10923 0
M  V30 7895 H 766.994 -3.53467 0.972455 0
M  V30 7896 H 766.642 -4.91147 -1.08553 0
M  V30 7897 H 766.342 -5.86302 0.390331 0
M  V30 7898 H 767.866 -6.0842 -0.515484 0
M  V30 7899 H 769.28 -5.48288 1.67491 0
M  V30 7900 H 767.677 -5.47091 2.46601 0
M  V30 7901 H 768.747 -4.06799 2.639 0
M  V30 7902 N 770.09 -0.729906 -1.39679 0
M  V30 7903 C 771.367 -0.202149 -1.94553 0
M  V30 7904 C 771.747 1.29507 -1.66707 0
M  V30 7905 O 771.095 2.05819 -0.992517 0
M  V30 7906 C 771.305 -0.530279 -3.44948 0
M  V30 7907 C 772.653 -0.476808 -4.21914 0
M  V30 7908 O 773.677 -0.467171 -3.53123 0
M  V30 7909 O 772.536 -0.466869 -5.44502 0
M  V30 7910 H 769.63 -0.0351644 -0.826252 0
M  V30 7911 H 772.176 -0.808417 -1.49207 0
M  V30 7912 H 770.948 -1.56526 -3.5863 0
M  V30 7913 H 770.571 0.10522 -3.97461 0
M  V30 7914 N 771.568 1.50203 -0.477153 0
M  V30 7915 C 772.814 2.02658 0.0758507 0
M  V30 7916 C 773.147 1.358 1.38824 0
M  V30 7917 O 772.422 0.485696 1.88338 0
M  V30 7918 C 772.705 3.59208 0.253339 0
M  V30 7919 C 772.558 4.36629 -1.0805 0
M  V30 7920 C 773.877 4.28469 1.00509 0
M  V30 7921 H 770.996 0.736538 0.0260921 0
M  V30 7922 H 773.638 1.79464 -0.623925 0
M  V30 7923 H 771.788 3.79101 0.849378 0
M  V30 7924 H 773.46 4.28292 -1.71358 0
M  V30 7925 H 771.703 4.0013 -1.67566 0
M  V30 7926 H 772.374 5.44449 -0.909883 0
M  V30 7927 H 774.85 4.13087 0.499818 0
M  V30 7928 H 773.726 5.37804 1.09808 0
M  V30 7929 H 773.987 3.92057 2.04314 0
M  V30 7930 N 773.046 0.209999 1.56195 0
M  V30 7931 C 773.994 -0.721416 2.2113 0
M  V30 7932 C 774.988 -1.20852 1.18706 0
M  V30 7933 O 776.194 -1.16968 1.36815 0
M  V30 7934 H 772.569 -0.251033 0.708863 0
M  V30 7935 H 774.54 -0.150193 2.98022 0
M  V30 7936 C 773.289 -1.92392 2.89621 0
M  V30 7937 H 772.612 -1.5582 3.68185 0
M  V30 7938 H 774.052 -2.55367 3.38473 0
M  V30 7939 C 772.511 -2.77208 1.91461 0
M  V30 7940 O 773.041 -3.75603 1.42426 0
M  V30 7941 N 771.247 -2.43006 1.59363 0
M  V30 7942 H 770.794 -1.63047 1.99433 0
M  V30 7943 H 770.752 -3.00036 0.939449 0
M  V30 7944 N 774.524 -1.57472 -0.0634922 0
M  V30 7945 C 775.94 -1.54016 -0.418466 0
M  V30 7946 C 776.14 -0.931376 -1.78683 0
M  V30 7947 O 775.196 -0.537465 -2.46714 0
M  V30 7948 C 776.509 -2.98634 -0.351906 0
M  V30 7949 C 778.057 -3.10012 -0.431494 0
M  V30 7950 C 778.532 -4.56296 -0.394754 0
M  V30 7951 N 780.023 -4.60964 -0.454583 0
M  V30 7952 C 780.758 -5.71643 -0.448501 0
M  V30 7953 N 780.254 -6.91663 -0.396742 0
M  V30 7954 N 782.047 -5.5991 -0.495677 0
M  V30 7955 H 774.198 -1.95409 0.832408 0
M  V30 7956 H 776.461 -0.894769 0.313197 0
M  V30 7957 H 776.167 -3.46766 0.587048 0
M  V30 7958 H 776.041 -3.58955 -1.15893 0
M  V30 7959 H 778.428 -2.61848 -1.36087 0
M  V30 7960 H 778.509 -2.52585 0.404258 0
M  V30 7961 H 778.153 -5.05119 0.530811 0
M  V30 7962 H 778.083 -5.11594 -1.24815 0
M  V30 7963 H 780.574 -3.74598 -0.498496 0
M  V30 7964 H 780.887 -7.71783 -0.396256 0
M  V30 7965 H 779.232 -6.9405 -0.363304 0
M  V30 7966 H 782.423 -4.65046 -0.533864 0
M  V30 7967 H 782.596 -6.46164 -0.487469 0
M  V30 7968 N 776.003 0.335068 -1.53997 0
M  V30 7969 C 776.95 1.41187 -1.82579 0
M  V30 7970 C 777.92 1.51897 -0.672061 0
M  V30 7971 O 779.105 1.673 -0.917346 0
M  V30 7972 C 776.245 2.77717 -2.0486 0
M  V30 7973 C 775.358 2.7573 -3.32561 0
M  V30 7974 C 774.493 4.04032 -3.44864 0
M  V30 7975 C 773.532 3.96308 -4.66483 0
M  V30 7976 N 772.669 5.16317 -4.75774 0
M  V30 7977 H 777.509 1.16113 -2.74448 0
M  V30 7978 H 775.046 0.562305 -1.35928 0
M  V30 7979 H 777.004 3.57071 -2.15768 0
M  V30 7980 H 775.634 3.01124 -1.16294 0
M  V30 7981 H 774.686 1.88432 -3.3045 0
M  V30 7982 H 775.998 2.65902 -4.22016 0
M  V30 7983 H 775.152 4.91814 -3.55251 0
M  V30 7984 H 773.891 4.16652 -2.53481 0
M  V30 7985 H 772.896 3.06911 -4.56164 0
M  V30 7986 H 774.121 3.85263 -5.5924 0
M  V30 7987 H 772.067 5.29464 -3.87303 0
M  V30 7988 H 771.984 5.08779 -5.59178 0
M  V30 7989 H 773.252 6.05846 -4.9048 0
M  V30 7990 N 777.481 1.45874 0.596531 0
M  V30 7991 C 778.444 1.54988 1.68853 0
M  V30 7992 C 779.444 0.428302 1.54991 0
M  V30 7993 O 780.634 0.692158 1.59859 0
M  V30 7994 C 777.766 1.457 3.08195 0
M  V30 7995 H 778.959 2.52294 1.62135 0
M  V30 7996 H 776.512 1.33479 0.813206 0
M  V30 7997 H 777.247 0.496204 3.20481 0
M  V30 7998 H 777.032 2.27061 3.19665 0
M  V30 7999 H 778.522 1.55133 3.87716 0
M  V30 8000 N 778.959 -0.83999 1.33349 0
M  V30 8001 C 779.869 -1.98182 1.25543 0
M  V30 8002 C 780.885 -1.73204 0.166208 0
M  V30 8003 O 782.061 -1.97596 0.389589 0
M  V30 8004 C 779.126 -3.32157 0.993614 0
M  V30 8005 C 778.187 -3.70258 2.17273 0
M  V30 8006 C 777.42 -4.9784 1.92331 0
M  V30 8007 O 777.643 -5.63679 0.873074 0
M  V30 8008 O 776.577 -5.33418 2.78835 0
M  V30 8009 H 780.403 -2.07708 2.21565 0
M  V30 8010 H 777.988 -0.972852 1.13384 0
M  V30 8011 H 779.87 -4.12433 0.864711 0
M  V30 8012 H 778.545 -3.23637 0.0636596 0
M  V30 8013 H 777.452 -2.90497 2.35716 0
M  V30 8014 H 778.785 -3.83442 3.08598 0
M  V30 8015 N 780.437 -1.16799 -1.0581 0
M  V30 8016 C 781.662 -0.977402 -1.82925 0
M  V30 8017 C 782.087 0.469514 -1.82146 0
M  V30 8018 O 781.445 1.33576 -1.22585 0
M  V30 8019 C 781.493 -1.51543 -3.27211 0
M  V30 8020 O 780.597 -0.725021 -4.05977 0
M  V30 8021 H 779.938 -0.347474 -0.565825 0
M  V30 8022 H 782.468 -1.55151 -1.33376 0
M  V30 8023 H 782.478 -1.53502 -3.78023 0
M  V30 8024 H 781.153 -2.56872 -3.27093 0
M  V30 8025 H 779.73 -0.77634 -3.64729 0
M  V30 8026 N 781.915 1.24427 -0.967243 0
M  V30 8027 C 783.326 1.74349 -0.667785 0
M  V30 8028 C 783.677 1.78403 0.816509 0
M  V30 8029 O 782.802 1.41315 1.63887 0
M  V30 8030 C 783.397 3.16628 -1.20548 0
M  V30 8031 C 781.956 3.64059 -0.955934 0
M  V30 8032 C 781.103 2.42715 -1.34106 0
M  V30 8033 H 784.054 1.10136 -1.14262 0
M  V30 8034 H 784.075 3.76183 -0.571547 0
M  V30 8035 H 783.587 3.13646 -2.28578 0
M  V30 8036 H 781.688 3.72441 0.108858 0
M  V30 8037 H 781.801 4.51549 -1.60126 0
M  V30 8038 H 780.165 2.43114 -0.759452 0
M  V30 8039 H 780.948 2.42414 -2.43085 0
M  V30 8040 N 783.393 0.737304 1.3929 0
M  V30 8041 C 784.804 0.355966 1.83275 0
M  V30 8042 C 785.155 -1.11295 1.6158 0
M  V30 8043 O 784.28 -1.85871 1.10819 0
M  V30 8044 C 784.875 0.63931 3.32713 0
M  V30 8045 C 783.434 0.31144 3.75109 0
M  V30 8046 C 782.581 0.900765 2.62262 0
M  V30 8047 H 785.532 0.934763 1.28249 0
M  V30 8048 H 785.553 -0.0881293 3.80398 0
M  V30 8049 H 785.065 1.70847 3.48472 0
M  V30 8050 H 783.166 -0.751791 3.64937 0
M  V30 8051 H 783.279 0.795611 4.72448 0
M  V30 8052 H 781.643 0.327239 2.52589 0
M  V30 8053 H 782.426 1.97463 2.80826 0
M  V30 8054 N 784.871 -1.49948 0.485112 0
M  V30 8055 C 786.287 -1.58984 0.140096 0
M  V30 8056 C 786.487 -1.49194 -1.35438 0
M  V30 8057 O 785.543 -1.35765 -2.12894 0
M  V30 8058 C 786.856 -2.92372 0.702769 0
M  V30 8059 C 788.404 -3.05801 0.66745 0
M  V30 8060 C 788.879 -4.41785 1.20791 0
M  V30 8061 N 790.37 -4.48234 1.16792 0
M  V30 8062 C 791.105 -5.51871 1.55646 0
M  V30 8063 N 790.601 -6.62692 2.02016 0
M  V30 8064 N 792.394 -5.42494 1.47161 0
M  V30 8065 H 784.545 -1.54555 1.45693 0
M  V30 8066 H 786.808 -0.731206 0.603359 0
M  V30 8067 H 786.514 -3.05056 1.75025 0
M  V30 8068 H 786.388 -3.76885 0.154205 0
M  V30 8069 H 788.775 -2.92757 -0.371157 0
M  V30 8070 H 788.856 -2.23011 1.25298 0
M  V30 8071 H 788.5 -4.55579 2.24522 0
M  V30 8072 H 788.43 -5.23188 0.598464 0
M  V30 8073 H 790.921 -3.68718 0.827982 0
M  V30 8074 H 791.234 -7.3785 2.29775 0
M  V30 8075 H 789.579 -6.63775 2.05979 0
M  V30 8076 H 792.77 -4.54806 1.10765 0
M  V30 8077 H 792.943 -6.2314 1.77766 0
M  V30 8078 N 786.349 -0.21828 -1.56081 0
M  V30 8079 C 787.596 0.414307 -1.98216 0
M  V30 8080 C 787.924 1.60005 -1.10584 0
M  V30 8081 O 787.179 1.95124 -0.150043 0
M  V30 8082 C 787.478 0.894782 -3.46018 0
M  V30 8083 C 787.144 -0.180083 -4.5054 0
M  V30 8084 C 785.806 -0.475367 -4.78846 0
M  V30 8085 C 788.158 -0.907191 -5.13244 0
M  V30 8086 C 785.486 -1.50233 -5.67139 0
M  V30 8087 C 787.838 -1.92347 -6.02649 0
M  V30 8088 C 786.502 -2.22571 -6.293 0
M  V30 8089 H 785.772 0.151606 -0.725325 0
M  V30 8090 H 788.419 -0.320113 -1.88806 0
M  V30 8091 H 786.724 1.7079 -3.52616 0
M  V30 8092 H 788.421 1.39403 -3.75989 0
M  V30 8093 H 785.011 0.06022 -4.28558 0
M  V30 8094 H 789.195 -0.692303 -4.91448 0
M  V30 8095 H 784.451 -1.74215 -5.86054 0
M  V30 8096 H 788.625 -2.49197 -6.50288 0
M  V30 8097 H 786.252 -3.0229 -6.97513 0
M  V30 8098 N 787.827 1.57504 0.0551401 0
M  V30 8099 C 789.057 1.92015 0.762472 0
M  V30 8100 C 789.465 0.814088 1.7079 0
M  V30 8101 O 788.808 -0.220273 1.82375 0
M  V30 8102 C 788.87 3.22132 1.59598 0
M  V30 8103 C 788.534 4.49617 0.818141 0
M  V30 8104 C 789.531 5.19738 0.129933 0
M  V30 8105 C 787.216 4.96201 0.780387 0
M  V30 8106 C 789.21 6.34704 -0.585616 0
M  V30 8107 C 786.897 6.11069 0.0610756 0
M  V30 8108 C 787.895 6.80174 -0.62071 0
M  V30 8109 O 787.583 7.92849 -1.3284 0
M  V30 8110 H 787.315 0.638866 0.220967 0
M  V30 8111 H 789.869 2.05385 0.0246362 0
M  V30 8112 H 788.099 3.05016 2.37701 0
M  V30 8113 H 789.788 3.42166 2.18351 0
M  V30 8114 H 790.554 4.84767 0.150299 0
M  V30 8115 H 786.433 4.42275 1.30054 0
M  V30 8116 H 789.977 6.88578 -1.11833 0
M  V30 8117 H 785.874 6.45488 0.0386945 0
M  V30 8118 H 786.642 8.09062 -1.23938 0
M  V30 8119 N 789.305 -0.326896 1.54172 0
M  V30 8120 C 790.552 -1.06523 1.72218 0
M  V30 8121 C 790.88 -1.88119 0.494114 0
M  V30 8122 O 790.135 -1.8855 -0.524147 0
M  V30 8123 C 790.434 -2.0208 2.94785 0
M  V30 8124 C 790.1 -1.36665 4.2969 0
M  V30 8125 C 788.762 -1.18556 4.66367 0
M  V30 8126 C 791.114 -0.896868 5.13425 0
M  V30 8127 C 788.442 -0.521113 5.84381 0
M  V30 8128 C 790.794 -0.246261 6.3212 0
M  V30 8129 C 789.458 -0.052987 6.67479 0
M  V30 8130 H 788.728 -0.389796 0.63019 0
M  V30 8131 H 791.375 -0.342725 1.88408 0
M  V30 8132 H 789.68 -2.8077 2.73268 0
M  V30 8133 H 791.377 -2.59231 3.05941 0
M  V30 8134 H 787.967 -1.51762 4.00832 0
M  V30 8135 H 792.151 -1.02458 4.85609 0
M  V30 8136 H 787.407 -0.36014 6.10338 0
M  V30 8137 H 791.581 0.125775 6.96286 0
M  V30 8138 H 789.208 0.463903 7.58783 0
M  V30 8139 N 790.784 -1.46188 -0.588786 0
M  V30 8140 C 792.009 -1.5498 -1.37826 0
M  V30 8141 C 792.434 -0.189498 -1.87143 0
M  V30 8142 O 791.792 0.829293 -1.61222 0
M  V30 8143 C 791.84 -2.55369 -2.54596 0
M  V30 8144 O 790.944 -2.08452 -3.55839 0
M  V30 8145 H 790.285 -0.521741 -0.41071 0
M  V30 8146 H 792.815 -1.91708 -0.714779 0
M  V30 8147 H 792.825 -2.74782 -3.01594 0
M  V30 8148 H 791.5 -3.54155 -2.18052 0
M  V30 8149 H 790.077 -1.98999 -3.15363 0
M  V30 8150 N 792.262 0.832906 -1.33792 0
M  V30 8151 C 793.487 1.62568 -1.28788 0
M  V30 8152 C 793.912 1.87599 0.137246 0
M  V30 8153 O 793.27 1.44436 1.0958 0
M  V30 8154 C 793.318 2.9495 -2.07453 0
M  V30 8155 O 792.422 3.86546 -1.43722 0
M  V30 8156 H 791.763 0.494809 -0.442787 0
M  V30 8157 H 794.293 1.03578 -1.76445 0
M  V30 8158 H 794.303 3.44599 -2.1844 0
M  V30 8159 H 792.978 2.76055 -3.11073 0
M  V30 8160 H 791.555 3.45044 -1.41417 0
M  V30 8161 N 793.74 1.17359 1.05189 0
M  V30 8162 C 794.688 0.886527 2.15043 0
M  V30 8163 C 795.682 -0.148834 1.68745 0
M  V30 8164 O 796.888 -0.00175123 1.8 0
M  V30 8165 H 793.263 0.269147 0.702185 0
M  V30 8166 H 795.234 1.82016 2.36459 0
M  V30 8167 C 793.983 0.416333 3.45198 0
M  V30 8168 H 793.306 1.20449 3.81225 0
M  V30 8169 H 794.746 0.254362 4.23236 0
M  V30 8170 C 793.205 -0.866016 3.25579 0
M  V30 8171 O 793.735 -1.9328 3.52144 0
M  V30 8172 N 791.941 -0.814179 2.78961 0
M  V30 8173 H 791.488 0.0541618 2.57543 0
M  V30 8174 H 791.446 -1.67264 2.66214 0
M  V30 8175 N 795.218 -1.23913 0.973828 0
M  V30 8176 C 796.466 -1.91771 0.637817 0
M  V30 8177 C 796.787 -1.76434 -0.830435 0
M  V30 8178 O 796.057 -1.13965 -1.59339 0
M  V30 8179 H 794.637 -0.709761 0.232912 0
M  V30 8180 H 797.299 -1.50677 1.23622 0
M  V30 8181 H 796.395 -2.99327 0.883731 0
M  V30 8182 N 796.696 -0.74468 -1.38897 0
M  V30 8183 C 797.924 -0.307428 -2.04603 0
M  V30 8184 C 798.339 1.06115 -1.56157 0
M  V30 8185 O 797.696 1.67233 -0.730701 0
M  V30 8186 C 797.747 -0.31101 -3.6016 0
M  V30 8187 O 797.468 -1.62557 -4.06825 0
M  V30 8188 C 798.969 0.141213 -4.43075 0
M  V30 8189 H 796.189 -0.132741 -0.657739 0
M  V30 8190 H 798.733 -1.01104 -1.77759 0
M  V30 8191 H 796.888 0.343792 -3.85872 0
M  V30 8192 H 797.302 -1.54569 -5.01207 0
M  V30 8193 H 798.776 0.0875449 -5.51931 0
M  V30 8194 H 799.253 1.18782 -4.22833 0
M  V30 8195 H 799.859 -0.484383 -4.22533 0
M  V30 8196 N 798.174 1.49689 -0.493057 0
M  V30 8197 C 799.399 2.07331 0.0535114 0
M  V30 8198 C 799.824 1.35196 1.30781 0
M  V30 8199 O 799.182 0.406246 1.7669 0
M  V30 8200 C 799.23 3.59364 0.29825 0
M  V30 8201 O 798.334 3.88819 1.37454 0
M  V30 8202 H 797.675 0.663612 -0.0227018 0
M  V30 8203 H 800.205 1.926 -0.690402 0
M  V30 8204 H 800.215 4.04515 0.532159 0
M  V30 8205 H 798.89 4.1128 -0.618207 0
M  V30 8206 H 797.467 3.55487 1.12621 0
M  V30 8207 N 799.652 0.226554 1.55963 0
M  V30 8208 C 800.929 -0.453058 1.90281 0
M  V30 8209 C 801.309 -1.77377 1.14458 0
M  V30 8210 O 800.657 -2.27067 0.255496 0
M  V30 8211 C 800.867 -0.641108 3.43061 0
M  V30 8212 C 802.215 -0.946265 4.13921 0
M  V30 8213 O 803.239 -0.727713 3.48687 0
M  V30 8214 O 802.098 -1.36131 5.29274 0
M  V30 8215 H 799.192 -0.240242 0.791336 0
M  V30 8216 H 801.738 0.26911 1.67553 0
M  V30 8217 H 800.51 0.290283 3.90222 0
M  V30 8218 H 800.133 -1.41458 3.71585 0
M  V30 8219 N 801.13 -1.57531 -0.0467866 0
M  V30 8220 C 802.376 -1.8873 -0.742218 0
M  V30 8221 C 802.709 -0.822084 -1.75941 0
M  V30 8222 O 801.984 0.164922 -1.938 0
M  V30 8223 C 802.267 -3.30586 -1.42776 0
M  V30 8224 C 802.12 -4.47785 -0.425285 0
M  V30 8225 C 803.439 -3.71068 -2.36636 0
M  V30 8226 H 800.558 -0.686406 -0.268359 0
M  V30 8227 H 803.2 -1.89999 -0.00511341 0
M  V30 8228 H 801.35 -3.29634 -2.05605 0
M  V30 8229 H 803.022 -4.60867 0.199721 0
M  V30 8230 H 801.265 -4.33037 0.25713 0
M  V30 8231 H 801.936 -5.43884 -0.943086 0
M  V30 8232 H 804.412 -3.73273 -1.83866 0
M  V30 8233 H 803.288 -4.71165 -2.81593 0
M  V30 8234 H 803.549 -3.02355 -3.22542 0
M  V30 8235 N 802.608 0.318715 -1.54344 0
M  V30 8236 C 803.857 1.05363 -1.71993 0
M  V30 8237 C 804.17 1.89018 -0.503155 0
M  V30 8238 O 805.376 2.65639 -0.561085 0
M  V30 8239 C 803.832 1.92281 -3.0423 0
M  V30 8240 C 803.44 1.13715 -4.33328 0
M  V30 8241 C 805.184 2.65479 -3.31242 0
M  V30 8242 C 803.091 1.99806 -5.56625 0
M  V30 8243 H 802.021 0.397081 -0.64097 0
M  V30 8244 H 804.672 0.311598 -1.80835 0
M  V30 8245 H 803.054 2.70402 -2.89307 0
M  V30 8246 H 804.228 0.403305 -4.59032 0
M  V30 8247 H 802.543 0.521769 -4.13118 0
M  V30 8248 H 805.14 3.30209 -4.20555 0
M  V30 8249 H 805.483 3.33374 -2.49334 0
M  V30 8250 H 806.016 1.94417 -3.47054 0
M  V30 8251 H 802.755 1.36411 -6.41149 0
M  V30 8252 H 802.275 2.70911 -5.35133 0
M  V30 8253 H 803.954 2.58277 -5.93213 0
M  V30 8254 N 804.086 1.46499 0.581025 0
M  V30 8255 C 805.314 1.5547 1.36517 0
M  V30 8256 C 805.729 0.196407 1.87776 0
M  V30 8257 O 805.086 -0.806577 1.63709 0
M  V30 8258 C 805.137 2.56084 2.55154 0
M  V30 8259 O 804.858 3.86637 2.06018 0
M  V30 8260 C 806.359 2.75011 3.47683 0
M  V30 8261 H 803.579 0.525703 0.416986 0
M  V30 8262 H 806.123 1.9192 0.706177 0
M  V30 8263 H 804.278 2.22633 3.17039 0
M  V30 8264 H 804.692 4.41413 2.83292 0
M  V30 8265 H 806.166 3.49329 4.27403 0
M  V30 8266 H 806.643 1.81978 3.99726 0
M  V30 8267 H 807.249 3.09565 2.91632 0
M  V30 8268 N 805.565 -0.825799 1.34232 0
M  V30 8269 C 806.813 -1.57873 1.26177 0
M  V30 8270 C 807.134 -1.94267 -0.168904 0
M  V30 8271 O 806.404 -1.62045 -1.10084 0
M  V30 8272 H 804.984 -0.585388 0.464037 0
M  V30 8273 H 807.646 -0.986163 1.6811 0
M  V30 8274 H 806.742 -2.50283 1.86453 0
M  V30 8275 N 807.043 -1.17915 -1.04565 0
M  V30 8276 C 808.268 -0.996749 -1.81878 0
M  V30 8277 C 808.693 0.450169 -1.82634 0
M  V30 8278 O 808.051 1.32268 -1.23995 0
M  V30 8279 C 808.099 -1.55005 -3.25585 0
M  V30 8280 O 807.203 -0.76804 -4.05185 0
M  V30 8281 H 806.544 -0.353456 -0.562108 0
M  V30 8282 H 809.074 -1.56557 -1.31723 0
M  V30 8283 H 809.084 -1.57503 -3.76373 0
M  V30 8284 H 807.759 -2.60327 -3.2435 0
M  V30 8285 H 806.336 -0.81498 -3.63885 0
M  V30 8286 N 808.521 1.23394 -0.980386 0
M  V30 8287 C 809.77 1.91116 -0.644785 0
M  V30 8288 C 810.083 1.77333 0.825367 0
M  V30 8289 O 811.289 2.39858 1.27203 0
M  V30 8290 C 809.745 3.42592 -1.10266 0
M  V30 8291 C 809.353 3.65037 -2.59715 0
M  V30 8292 C 811.097 4.1609 -0.8408 0
M  V30 8293 C 809.004 5.10148 -2.9917 0
M  V30 8294 H 807.934 0.715632 -0.23746 0
M  V30 8295 H 810.585 1.39829 -1.18828 0
M  V30 8296 H 808.967 3.92989 -0.487372 0
M  V30 8297 H 810.141 3.25186 -3.26482 0
M  V30 8298 H 808.456 3.04849 -2.83647 0
M  V30 8299 H 811.053 5.23021 -1.11143 0
M  V30 8300 H 811.396 4.15702 0.223085 0
M  V30 8301 H 811.929 3.71681 -1.41767 0
M  V30 8302 H 808.668 5.15668 -4.04682 0
M  V30 8303 H 808.188 5.50949 -2.37097 0
M  V30 8304 H 809.867 5.7848 -2.89775 0
M  V30 8305 N 809.999 0.752036 1.385 0
M  V30 8306 C 810.931 0.0835089 2.29048 0
M  V30 8307 C 811.944 -0.685402 1.47669 0
M  V30 8308 O 813.133 -0.526748 1.70551 0
M  V30 8309 C 810.233 -0.905772 3.26572 0
M  V30 8310 C 809.406 -0.194828 4.36966 0
M  V30 8311 C 808.465 -1.09464 5.14688 0
M  V30 8312 O 807.491 -0.565743 5.66381 0
M  V30 8313 N 808.693 -2.42287 5.2752 0
M  V30 8314 H 811.458 0.861142 2.87062 0
M  V30 8315 H 809.019 0.602689 1.50264 0
M  V30 8316 H 811.011 -1.51072 3.75446 0
M  V30 8317 H 809.581 -1.58449 2.69467 0
M  V30 8318 H 808.801 0.590812 3.89747 0
M  V30 8319 H 810.089 0.297189 5.07931 0
M  V30 8320 H 809.487 -2.87715 4.8707 0
M  V30 8321 H 808.044 -2.97836 5.79773 0
M  V30 8322 N 811.477 -1.49425 0.500989 0
M  V30 8323 C 812.723 -2.02753 -0.0436 0
M  V30 8324 C 813.056 -1.37991 -1.36646 0
M  V30 8325 O 812.331 -0.515597 -1.87542 0
M  V30 8326 C 812.614 -3.59565 -0.19616 0
M  V30 8327 C 812.467 -4.34855 1.14982 0
M  V30 8328 C 813.786 -4.30014 -0.936795 0
M  V30 8329 H 810.905 -0.73686 -0.0143711 0
M  V30 8330 H 813.547 -1.78448 0.652397 0
M  V30 8331 H 811.697 -3.80405 -0.788959 0
M  V30 8332 H 813.369 -4.25512 1.7815 0
M  V30 8333 H 811.612 -3.97414 1.73911 0
M  V30 8334 H 812.283 -5.42933 0.996385 0
M  V30 8335 H 814.759 -4.1383 -0.434036 0
M  V30 8336 H 813.635 -5.39483 -1.01238 0
M  V30 8337 H 813.896 -3.95257 -1.9805 0
M  V30 8338 N 812.955 -0.234822 -1.55841 0
M  V30 8339 C 814.18 0.400741 -2.03492 0
M  V30 8340 C 814.605 1.51618 -1.11327 0
M  V30 8341 O 813.963 1.81002 -0.103922 0
M  V30 8342 C 814.011 0.897184 -3.49261 0
M  V30 8343 O 813.115 2.00764 -3.60233 0
M  V30 8344 H 812.456 0.0890023 -0.658008 0
M  V30 8345 H 814.986 -0.357345 -2.01455 0
M  V30 8346 H 814.996 1.20356 -3.89844 0
M  V30 8347 H 813.671 0.0808639 -4.15821 0
M  V30 8348 H 812.248 1.70689 -3.31541 0
M  V30 8349 N 814.433 1.57553 0.0384317 0
M  V30 8350 C 815.658 1.93485 0.746872 0
M  V30 8351 C 816.083 0.834069 1.68597 0
M  V30 8352 O 815.441 -0.210902 1.80069 0
M  V30 8353 C 815.489 3.28463 1.4881 0
M  V30 8354 O 814.593 3.20051 2.60079 0
M  V30 8355 H 813.934 0.632675 0.201539 0
M  V30 8356 H 816.464 2.046 -0.00329815 0
M  V30 8357 H 816.474 3.63132 1.86009 0
M  V30 8358 H 815.149 4.08147 0.799297 0
M  V30 8359 H 813.726 2.96998 2.25492 0
M  V30 8360 N 815.911 -0.310526 1.54511 0
M  V30 8361 C 817.327 -0.655637 1.45511 0
M  V30 8362 C 817.527 -1.91114 0.638564 0
M  V30 8363 O 816.583 -2.52098 0.142497 0
M  V30 8364 C 817.896 -0.817501 2.89374 0
M  V30 8365 C 819.444 -0.914003 2.99358 0
M  V30 8366 C 819.919 -1.10794 4.44397 0
M  V30 8367 N 821.41 -1.17437 4.48066 0
M  V30 8368 C 822.145 -1.34255 5.57461 0
M  V30 8369 N 821.641 -1.48032 6.768 0
M  V30 8370 N 823.434 -1.37067 5.45132 0
M  V30 8371 H 815.585 0.514506 2.06074 0
M  V30 8372 H 817.848 0.168478 0.932909 0
M  V30 8373 H 817.554 0.034003 3.51684 0
M  V30 8374 H 817.428 -1.7094 3.36243 0
M  V30 8375 H 819.815 -1.756 2.37168 0
M  V30 8376 H 819.896 0.00170958 2.558 0
M  V30 8377 H 819.54 -0.270743 5.07178 0
M  V30 8378 H 819.47 -2.03773 4.85576 0
M  V30 8379 H 821.961 -1.08181 3.62084 0
M  V30 8380 H 822.274 -1.60593 7.5593 0
M  V30 8381 H 820.619 -1.45105 6.79683 0
M  V30 8382 H 823.81 -1.25909 4.50849 0
M  V30 8383 H 823.983 -1.49831 6.3044 0
M  V30 8384 N 817.389 -1.46805 -0.573248 0
M  V30 8385 C 818.299 -1.60687 -1.70929 0
M  V30 8386 C 819.315 -0.490084 -1.66956 0
M  V30 8387 O 820.491 -0.755482 -1.86693 0
M  V30 8388 C 817.556 -1.60259 -3.07438 0
M  V30 8389 C 816.617 -2.83242 -3.22603 0
M  V30 8390 C 815.85 -2.82825 -4.52599 0
M  V30 8391 O 816.073 -1.92113 -5.37074 0
M  V30 8392 O 815.007 -3.74489 -4.71213 0
M  V30 8393 H 818.833 -2.56782 -1.62163 0
M  V30 8394 H 816.418 -1.29706 -0.741399 0
M  V30 8395 H 818.3 -1.6275 -3.88704 0
M  V30 8396 H 816.975 -0.673268 -3.16621 0
M  V30 8397 H 815.882 -2.86302 -2.40794 0
M  V30 8398 H 817.215 -3.75415 -3.18315 0
M  V30 8399 N 818.867 0.818669 -1.34668 0
M  V30 8400 C 819.83 1.9114 -1.26483 0
M  V30 8401 C 820.83 1.598 -0.179044 0
M  V30 8402 O 822.02 1.6876 -0.431952 0
M  V30 8403 C 819.152 3.27285 -0.95381 0
M  V30 8404 H 820.345 1.9982 -2.23634 0
M  V30 8405 H 817.898 1.01314 -1.19018 0
M  V30 8406 H 818.633 3.24297 0.0143428 0
M  V30 8407 H 818.418 3.51416 -1.73924 0
M  V30 8408 H 819.908 4.07299 -0.921827 0
M  V30 8409 N 820.346 1.18468 1.03938 0
M  V30 8410 C 821.294 0.909286 2.14091 0
M  V30 8411 C 822.288 -0.130928 1.68893 0
M  V30 8412 O 823.494 0.0173403 1.79992 0
M  V30 8413 H 819.869 0.27658 0.699291 0
M  V30 8414 H 821.84 1.84514 2.34515 0
M  V30 8415 C 820.589 0.452922 3.44737 0
M  V30 8416 H 819.912 1.24485 3.79926 0
M  V30 8417 H 821.352 0.299238 4.22943 0
M  V30 8418 C 819.811 -0.831435 3.26479 0
M  V30 8419 O 820.341 -1.89535 3.54174 0
M  V30 8420 N 818.547 -0.784545 2.79809 0
M  V30 8421 H 818.094 0.0814746 2.57471 0
M  V30 8422 H 818.052 -1.64431 2.67973 0
M  V30 8423 N 821.824 -1.22873 0.986916 0
M  V30 8424 C 823.064 -1.93192 0.667543 0
M  V30 8425 C 823.428 -1.7521 -0.785196 0
M  V30 8426 O 824.629 -2.39737 -1.2157 0
M  V30 8427 C 822.9 -3.4147 1.05513 0
M  V30 8428 S 824.459 -4.30425 0.853218 0
M  V30 8429 H 821.277 -0.667726 0.244261 0
M  V30 8430 H 823.879 -1.48808 1.26793 0
M  V30 8431 H 822.583 -3.52069 2.10892 0
M  V30 8432 H 822.114 -3.9086 0.446293 0
M  V30 8433 H 824.129 -4.95521 -0.259444 0
M  V30 8434 N 823.302 -0.75937 -1.38099 0
M  V30 8435 C 824.718 -0.437606 -1.53483 0
M  V30 8436 C 824.918 1.04849 -1.72072 0
M  V30 8437 O 823.974 1.83448 -1.73502 0
M  V30 8438 C 825.287 -1.24189 -2.73857 0
M  V30 8439 C 826.835 -1.23255 -2.8771 0
M  V30 8440 C 827.31 -2.01992 -4.11051 0
M  V30 8441 N 828.801 -1.99282 -4.1814 0
M  V30 8442 C 829.536 -2.56996 -5.12583 0
M  V30 8443 N 829.032 -3.23446 -6.12662 0
M  V30 8444 N 830.825 -2.46894 -5.04975 0
M  V30 8445 H 822.976 -1.72242 -1.24283 0
M  V30 8446 H 825.239 -0.730507 -0.604205 0
M  V30 8447 H 824.945 -2.29449 -2.66545 0
M  V30 8448 H 824.819 -0.862672 -3.67203 0
M  V30 8449 H 827.206 -0.187988 -2.94501 0
M  V30 8450 H 827.287 -1.65132 -1.95359 0
M  V30 8451 H 826.931 -3.06462 -4.05023 0
M  V30 8452 H 826.861 -1.57505 -5.02494 0
M  V30 8453 H 829.352 -1.50893 -3.46467 0
M  V30 8454 H 829.665 -3.6489 -6.81231 0
M  V30 8455 H 828.01 -3.27543 -6.12977 0
M  V30 8456 H 831.201 -1.94604 -4.25731 0
M  V30 8457 H 831.374 -2.92168 -5.78396 0
M  V30 8458 N 824.78 1.49157 -0.508906 0
M  V30 8459 C 826.008 2.06879 0.0293734 0
M  V30 8460 C 826.423 1.36823 1.30095 0
M  V30 8461 O 825.78 0.449034 1.7689 0
M  V30 8462 C 825.831 3.60423 0.278791 0
M  V30 8463 O 825.552 4.27844 -0.942389 0
M  V30 8464 C 827.053 4.34881 0.859825 0
M  V30 8465 H 824.273 0.67057 -0.0240184 0
M  V30 8466 H 826.817 1.91834 -0.708526 0
M  V30 8467 H 824.972 3.75145 0.966689 0
M  V30 8468 H 825.386 5.19671 -0.710097 0
M  V30 8469 H 826.86 5.43161 0.983884 0
M  V30 8470 H 827.337 3.9789 1.85958 0
M  V30 8471 H 827.943 4.24785 0.209152 0
M  V30 8472 N 826.258 0.243083 1.55714 0
M  V30 8473 C 827.208 -0.671915 2.17875 0
M  V30 8474 C 828.192 -1.14199 1.13347 0
M  V30 8475 O 829.384 -1.09239 1.39269 0
M  V30 8476 C 826.513 -1.87027 2.87881 0
M  V30 8477 C 825.599 -1.41888 3.99661 0
M  V30 8478 N 825.99 -0.681465 5.01188 0
M  V30 8479 C 824.288 -1.70447 4.12145 0
M  V30 8480 C 824.989 -0.448285 5.7997 0
M  V30 8481 N 823.965 -1.01137 5.34109 0
M  V30 8482 H 827.767 -0.100321 2.93729 0
M  V30 8483 H 825.281 0.0452371 1.62337 0
M  V30 8484 H 827.278 -2.53674 3.3084 0
M  V30 8485 H 825.938 -2.44613 2.13529 0
M  V30 8486 H 826.949 -0.331959 5.16835 0
M  V30 8487 H 823.626 -2.29198 3.48962 0
M  V30 8488 H 825.016 0.140141 6.71754 0
M  V30 8489 N 827.736 -1.57571 -0.0300757 0
M  V30 8490 C 828.668 -2.0329 -1.05857 0
M  V30 8491 C 829.681 -0.945543 -1.32527 0
M  V30 8492 O 830.87 -1.22287 -1.30032 0
M  V30 8493 C 827.97 -2.39234 -2.40042 0
M  V30 8494 C 827.143 -3.70337 -2.32743 0
M  V30 8495 C 826.202 -3.93482 -3.49369 0
M  V30 8496 O 825.228 -4.64551 -3.28909 0
M  V30 8497 N 826.43 -3.39042 -4.71201 0
M  V30 8498 H 829.195 -2.9214 -0.668897 0
M  V30 8499 H 826.756 -1.60425 -0.218038 0
M  V30 8500 H 828.748 -2.51856 -3.16782 0
M  V30 8501 H 827.318 -1.5606 -2.70858 0
M  V30 8502 H 826.538 -3.68079 -1.41109 0
M  V30 8503 H 827.826 -4.56343 -2.25007 0
M  V30 8504 H 827.224 -2.81434 -4.90725 0
M  V30 8505 H 825.781 -3.57045 -5.45309 0
M  V30 8506 N 829.214 0.302327 -1.54673 0
M  V30 8507 C 830.177 1.35592 -1.8479 0
M  V30 8508 C 831.177 1.43743 -0.72073 0
M  V30 8509 O 832.367 1.43402 -0.989017 0
M  V30 8510 C 829.499 2.74091 -2.02699 0
M  V30 8511 H 830.692 1.10132 -2.78946 0
M  V30 8512 H 828.245 0.538926 -1.46715 0
M  V30 8513 H 828.98 3.04775 -1.10826 0
M  V30 8514 H 828.765 2.69565 -2.8474 0
M  V30 8515 H 830.255 3.50272 -2.27374 0
M  V30 8516 N 830.692 1.47107 0.565454 0
M  V30 8517 C 831.939 1.53308 1.32299 0
M  V30 8518 C 832.267 0.1919 1.93551 0
M  V30 8519 O 831.522 -0.81435 1.77952 0
M  V30 8520 C 831.821 2.59309 2.45954 0
M  V30 8521 C 831.487 4.02827 2.02586 0
M  V30 8522 C 830.149 4.41897 1.90474 0
M  V30 8523 C 832.501 4.92913 1.6937 0
M  V30 8524 C 829.829 5.68898 1.4343 0
M  V30 8525 C 832.181 6.20368 1.238 0
M  V30 8526 C 830.845 6.58327 1.10278 0
M  V30 8527 H 830.115 0.560993 0.484116 0
M  V30 8528 H 832.762 1.80667 0.634965 0
M  V30 8529 H 831.067 2.25676 3.20277 0
M  V30 8530 H 832.764 2.61332 3.04149 0
M  V30 8531 H 829.354 3.71953 2.12952 0
M  V30 8532 H 833.538 4.63433 1.77605 0
M  V30 8533 H 828.794 5.97065 1.31618 0
M  V30 8534 H 832.968 6.89589 0.971586 0
M  V30 8535 H 830.595 7.56628 0.736027 0
M  V30 8536 N 832.17 -0.811516 1.35101 0
M  V30 8537 C 833.103 -1.92872 1.21966 0
M  V30 8538 C 834.081 -1.62236 0.108667 0
M  V30 8539 O 835.265 -1.8647 0.275875 0
M  V30 8540 C 832.392 -3.27152 0.876886 0
M  V30 8541 C 831.438 -3.7674 1.99924 0
M  V30 8542 S 832.271 -3.95132 3.61429 0
M  V30 8543 C 833.427 -5.32322 3.29218 0
M  V30 8544 H 833.66 -2.03718 2.16532 0
M  V30 8545 H 831.193 -0.968352 1.20259 0
M  V30 8546 H 833.151 -4.04729 0.685917 0
M  V30 8547 H 831.812 -3.14059 -0.0506289 0
M  V30 8548 H 831.005 -4.73981 1.71343 0
M  V30 8549 H 830.607 -3.06145 2.14829 0
M  V30 8550 H 832.899 -6.1614 2.8174 0
M  V30 8551 H 833.842 -5.65893 4.25641 0
M  V30 8552 H 834.25 -4.98374 2.65111 0
M  V30 8553 N 833.648 -1.19017 -1.03309 0
M  V30 8554 C 835.064 -0.941483 -1.28873 0
M  V30 8555 C 835.264 0.388587 -1.97718 0
M  V30 8556 O 834.32 1.12111 -2.26246 0
M  V30 8557 C 835.633 -2.11249 -2.13996 0
M  V30 8558 C 837.181 -2.15164 -2.27318 0
M  V30 8559 C 837.656 -3.31704 -3.15811 0
M  V30 8560 N 839.147 -3.31613 -3.23399 0
M  V30 8561 C 839.882 -4.18431 -3.9205 0
M  V30 8562 N 839.378 -5.15397 -4.62966 0
M  V30 8563 N 841.171 -4.06321 -3.88406 0
M  V30 8564 H 833.322 -2.04599 -0.570343 0
M  V30 8565 H 835.585 -0.894406 -0.314232 0
M  V30 8566 H 835.291 -3.07482 -1.70727 0
M  V30 8567 H 835.165 -2.07955 -3.14697 0
M  V30 8568 H 837.552 -1.19504 -2.6982 0
M  V30 8569 H 837.633 -2.22513 -1.26182 0
M  V30 8570 H 837.277 -4.2764 -2.74019 0
M  V30 8571 H 837.207 -3.21592 -4.16997 0
M  V30 8572 H 839.698 -2.6142 -2.72888 0
M  V30 8573 H 840.011 -5.78 -5.12968 0
M  V30 8574 H 838.356 -5.19349 -4.61846 0
M  V30 8575 H 841.547 -3.29849 -3.3214 0
M  V30 8576 H 841.72 -4.74196 -4.41635 0
M  V30 8577 N 835.127 1.22348 -0.993418 0
M  V30 8578 C 836.074 2.24294 -0.544118 0
M  V30 8579 C 837.044 1.60602 0.42381 0
M  V30 8580 O 838.229 1.87952 0.328453 0
M  V30 8581 C 835.369 3.44837 0.134578 0
M  V30 8582 C 834.482 4.23043 -0.875151 0
M  V30 8583 C 833.617 5.30928 -0.169919 0
M  V30 8584 C 832.656 6.00853 -1.16798 0
M  V30 8585 N 831.793 7.00381 -0.491021 0
M  V30 8586 H 836.633 2.6209 -1.4182 0
M  V30 8587 H 834.17 1.2881 -0.710384 0
M  V30 8588 H 836.128 4.13625 0.544998 0
M  V30 8589 H 834.758 3.07804 0.972446 0
M  V30 8590 H 833.81 3.53546 -1.40389 0
M  V30 8591 H 835.122 4.71237 -1.63516 0
M  V30 8592 H 834.276 6.05972 0.297205 0
M  V30 8593 H 833.015 4.8371 0.622586 0
M  V30 8594 H 832.02 5.24591 -1.64573 0
M  V30 8595 H 833.245 6.50159 -1.96137 0
M  V30 8596 H 831.191 6.55393 0.282037 0
M  V30 8597 H 831.108 7.46584 -1.18947 0
M  V30 8598 H 832.376 7.79486 -0.0467169 0
M  V30 8599 N 836.605 0.766683 1.37694 0
M  V30 8600 C 837.882 0.25366 1.93948 0
M  V30 8601 C 838.262 -1.25041 1.70082 0
M  V30 8602 O 837.61 -2.03115 1.04674 0
M  V30 8603 C 837.82 0.621549 3.43421 0
M  V30 8604 C 839.168 0.588504 4.20502 0
M  V30 8605 O 840.192 0.560632 3.5176 0
M  V30 8606 O 839.051 0.61107 5.43073 0
M  V30 8607 H 836.145 0.0570586 0.825029 0
M  V30 8608 H 838.691 0.847693 1.47011 0
M  V30 8609 H 837.463 1.65979 3.54354 0
M  V30 8610 H 837.086 0.000197027 3.976 0
M  V30 8611 N 838.083 -1.48885 0.516809 0
M  V30 8612 C 839.329 -2.02788 -0.0220928 0
M  V30 8613 C 839.662 -1.39433 -1.35175 0
M  V30 8614 O 838.937 -0.535459 -1.86984 0
M  V30 8615 C 839.22 -3.59753 -0.158012 0
M  V30 8616 C 839.073 -4.33611 1.19588 0
M  V30 8617 C 840.392 -4.30984 -0.891133 0
M  V30 8618 H 837.511 -0.736971 -0.00655488 0
M  V30 8619 H 840.153 -1.77746 0.671287 0
M  V30 8620 H 838.303 -3.8122 -0.748568 0
M  V30 8621 H 839.975 -4.23598 1.82653 0
M  V30 8622 H 838.218 -3.95547 1.78116 0
M  V30 8623 H 838.889 -5.41846 1.05391 0
M  V30 8624 H 841.365 -4.14267 -0.39012 0
M  V30 8625 H 840.241 -5.40527 -0.955107 0
M  V30 8626 H 840.502 -3.97336 -1.93847 0
M  V30 8627 N 839.561 -0.251338 -1.55583 0
M  V30 8628 C 840.977 0.103409 -1.59265 0
M  V30 8629 C 841.177 1.56559 -1.26852 0
M  V30 8630 O 840.233 2.31071 -1.01796 0
M  V30 8631 C 841.546 -0.249781 -2.99661 0
M  V30 8632 C 843.094 -0.194442 -3.12395 0
M  V30 8633 C 843.569 -0.521728 -4.55019 0
M  V30 8634 N 845.06 -0.472393 -4.60785 0
M  V30 8635 C 845.795 -0.698737 -5.69127 0
M  V30 8636 N 845.291 -0.988443 -6.85713 0
M  V30 8637 N 847.084 -0.629143 -5.58568 0
M  V30 8638 H 839.235 -1.20484 -1.74921 0
M  V30 8639 H 841.498 -0.485092 -0.814488 0
M  V30 8640 H 841.204 -1.26577 -3.28133 0
M  V30 8641 H 841.078 0.420973 -3.74844 0
M  V30 8642 H 843.465 0.812229 -2.83702 0
M  V30 8643 H 843.546 -0.899111 -2.39478 0
M  V30 8644 H 843.19 -1.52597 -4.84434 0
M  V30 8645 H 843.12 0.204468 -5.26203 0
M  V30 8646 H 845.611 -0.257386 -3.77022 0
M  V30 8647 H 845.924 -1.14846 -7.64219 0
M  V30 8648 H 844.269 -1.02596 -6.87386 0
M  V30 8649 H 847.46 -0.402826 -4.66364 0
M  V30 8650 H 847.633 -0.808935 -6.42931 0
M  V30 8651 N 841.039 1.57585 0.0217189 0
M  V30 8652 C 842.316 1.80779 0.74687 0
M  V30 8653 C 842.696 0.851163 1.9318 0
M  V30 8654 O 842.044 -0.105039 2.28258 0
M  V30 8655 C 842.254 3.28696 1.17302 0
M  V30 8656 C 843.602 3.93871 1.58589 0
M  V30 8657 O 844.626 3.3289 1.2674 0
M  V30 8658 O 843.485 5.01254 2.1773 0
M  V30 8659 H 840.579 0.743666 0.361786 0
M  V30 8660 H 843.125 1.697 -0.00206785 0
M  V30 8661 H 841.897 3.89927 0.327453 0
M  V30 8662 H 841.52 3.44692 1.98174 0
M  V30 8663 N 842.517 -0.29412 1.54831 0
M  V30 8664 C 843.766 -1.02614 1.73647 0
M  V30 8665 C 844.079 -1.88193 0.533162 0
M  V30 8666 O 845.285 -2.64713 0.603275 0
M  V30 8667 C 843.741 -1.87417 3.07251 0
M  V30 8668 C 843.349 -1.06806 4.35082 0
M  V30 8669 C 845.093 -2.60176 3.35423 0
M  V30 8670 C 843 -1.90926 5.59733 0
M  V30 8671 H 841.93 -0.386834 0.647206 0
M  V30 8672 H 844.581 -0.282789 1.81308 0
M  V30 8673 H 842.963 -2.65765 2.93572 0
M  V30 8674 H 844.137 -0.330226 4.59615 0
M  V30 8675 H 842.452 -0.455979 4.13896 0
M  V30 8676 H 845.049 -3.23476 4.25755 0
M  V30 8677 H 845.392 -3.29365 2.54606 0
M  V30 8678 H 845.925 -1.88871 3.50103 0
M  V30 8679 H 842.664 -1.26194 6.43238 0
M  V30 8680 H 842.184 -2.62363 5.39375 0
M  V30 8681 H 843.863 -2.48807 5.97247 0
M  V30 8682 N 843.995 -1.47404 -0.557645 0
M  V30 8683 C 844.925 -1.62736 -1.67449 0
M  V30 8684 C 845.906 -0.476824 -1.6328 0
M  V30 8685 O 847.091 -0.706108 -1.80908 0
M  V30 8686 C 844.221 -1.641 -3.06086 0
M  V30 8687 C 843.175 -2.78377 -3.25101 0
M  V30 8688 C 842.501 -2.64812 -4.6452 0
M  V30 8689 C 843.801 -4.19971 -3.10518 0
M  V30 8690 H 845.495 -2.56232 -1.54873 0
M  V30 8691 H 843.041 -1.23312 -0.743649 0
M  V30 8692 H 844.994 -1.73417 -3.84063 0
M  V30 8693 H 843.718 -0.671652 -3.19619 0
M  V30 8694 H 842.377 -2.6857 -2.49531 0
M  V30 8695 H 842.025 -1.65906 -4.74852 0
M  V30 8696 H 841.725 -3.41477 -4.78191 0
M  V30 8697 H 843.249 -2.76057 -5.44633 0
M  V30 8698 H 844.663 -4.30757 -3.78313 0
M  V30 8699 H 843.06 -4.97419 -3.35699 0
M  V30 8700 H 844.13 -4.38369 -2.0727 0
M  V30 8701 N 845.473 0.80434 -1.35529 0
M  V30 8702 C 846.701 1.59283 -1.32048 0
M  V30 8703 C 847.116 1.88527 0.101556 0
M  V30 8704 O 846.473 1.48975 1.05417 0
M  V30 8705 C 846.524 2.92276 -2.12737 0
M  V30 8706 O 846.245 2.64299 -3.49396 0
M  V30 8707 C 847.746 3.86631 -2.16867 0
M  V30 8708 H 844.966 0.494523 -0.453528 0
M  V30 8709 H 847.51 0.999415 -1.78415 0
M  V30 8710 H 845.665 3.48125 -1.69964 0
M  V30 8711 H 846.079 3.4923 -3.91329 0
M  V30 8712 H 847.553 4.77053 -2.77712 0
M  V30 8713 H 848.03 4.23384 -1.16803 0
M  V30 8714 H 848.636 3.36717 -2.59811 0
M  V30 8715 N 846.951 1.19563 1.02676 0
M  V30 8716 C 848.362 1.00158 1.57561 0
M  V30 8717 C 848.713 -0.444922 1.91089 0
M  V30 8718 O 847.838 -1.32466 1.71119 0
M  V30 8719 C 848.433 1.81181 2.86284 0
M  V30 8720 C 846.992 1.66171 3.37734 0
M  V30 8721 C 846.139 1.7975 2.11152 0
M  V30 8722 H 849.09 1.33904 0.85179 0
M  V30 8723 H 849.111 1.30916 3.57269 0
M  V30 8724 H 848.623 2.86454 2.6185 0
M  V30 8725 H 846.724 0.634927 3.6715 0
M  V30 8726 H 846.837 2.46832 4.10622 0
M  V30 8727 H 845.201 1.22833 2.23123 0
M  V30 8728 H 845.984 2.86487 1.89157 0
M  V30 8729 N 848.429 -1.21819 0.999893 0
M  V30 8730 C 849.678 -1.90066 0.675108 0
M  V30 8731 C 849.991 -1.78624 -0.79705 0
M  V30 8732 O 851.197 -2.41851 -1.23371 0
M  V30 8733 C 849.653 -3.40795 1.15702 0
M  V30 8734 C 849.261 -3.60859 2.6549 0
M  V30 8735 C 851.005 -4.147 0.906889 0
M  V30 8736 C 848.912 -5.05324 3.07248 0
M  V30 8737 H 847.842 -0.711763 0.248815 0
M  V30 8738 H 850.493 -1.3792 1.21038 0
M  V30 8739 H 848.875 -3.92164 0.549832 0
M  V30 8740 H 850.049 -3.19951 3.31614 0
M  V30 8741 H 848.364 -3.00298 2.88461 0
M  V30 8742 H 850.961 -5.21187 1.1945 0
M  V30 8743 H 851.304 -4.16004 -0.156923 0
M  V30 8744 H 851.837 -3.69379 1.47662 0
M  V30 8745 H 848.576 -5.09164 4.12834 0
M  V30 8746 H 848.096 -5.47108 2.45832 0
M  V30 8747 H 849.775 -5.73797 2.98941 0
M  V30 8748 N 849.908 -0.773975 -1.37286 0
M  V30 8749 C 850.84 -0.119938 -2.28886 0
M  V30 8750 C 851.853 0.661822 -1.48741 0
M  V30 8751 O 853.042 0.499548 -1.71367 0
M  V30 8752 C 850.142 0.853703 -3.27971 0
M  V30 8753 C 849.315 0.125286 -4.37221 0
M  V30 8754 C 848.374 1.01261 -5.16365 0
M  V30 8755 O 847.4 0.475565 -5.6721 0
M  V30 8756 N 848.602 2.33864 -5.31308 0
M  V30 8757 H 851.367 -0.906702 -2.85655 0
M  V30 8758 H 848.928 -0.626519 -1.49286 0
M  V30 8759 H 850.92 1.4508 -3.77801 0
M  V30 8760 H 849.49 1.54142 -2.71954 0
M  V30 8761 H 848.71 -0.652742 -3.88758 0
M  V30 8762 H 849.998 -0.377959 -5.07394 0
M  V30 8763 H 849.396 2.79929 -4.91585 0
M  V30 8764 H 847.953 2.88575 -5.84438 0
M  V30 8765 N 851.386 1.48609 -0.524698 0
M  V30 8766 C 852.635 2.01696 0.0132937 0
M  V30 8767 C 852.948 1.40751 1.35825 0
M  V30 8768 O 854.154 1.85304 1.9843 0
M  V30 8769 C 852.61 3.59824 0.0741012 0
M  V30 8770 C 852.218 4.2975 -1.26564 0
M  V30 8771 C 853.962 4.20774 0.5612 0
M  V30 8772 C 851.869 5.79798 -1.16571 0
M  V30 8773 H 850.799 0.753949 0.00873931 0
M  V30 8774 H 853.45 1.70922 -0.667684 0
M  V30 8775 H 851.832 3.87416 0.820043 0
M  V30 8776 H 853.006 4.13836 -2.02674 0
M  V30 8777 H 851.321 3.80649 -1.68806 0
M  V30 8778 H 853.918 5.30687 0.653853 0
M  V30 8779 H 854.261 3.85734 1.56573 0
M  V30 8780 H 854.794 3.97591 -0.128901 0
M  V30 8781 H 851.533 6.19403 -2.14523 0
M  V30 8782 H 851.053 5.9814 -0.445894 0
M  V30 8783 H 852.732 6.41337 -0.854186 0
M  V30 8784 N 852.864 0.259585 1.55447 0
M  V30 8785 C 853.774 -0.645026 2.25558 0
M  V30 8786 C 854.79 -1.18291 1.27606 0
M  V30 8787 O 855.966 -1.21649 1.6051 0
M  V30 8788 C 853.031 -1.81964 2.9511 0
M  V30 8789 C 852.092 -1.31997 4.08504 0
M  V30 8790 C 851.325 -2.43861 4.74729 0
M  V30 8791 O 851.548 -3.62876 4.40088 0
M  V30 8792 O 850.482 -2.12898 5.6299 0
M  V30 8793 H 854.308 -0.0775399 3.03601 0
M  V30 8794 H 851.893 0.0275859 1.49375 0
M  V30 8795 H 853.775 -2.50485 3.38873 0
M  V30 8796 H 852.45 -2.37451 2.19997 0
M  V30 8797 H 851.357 -0.601676 3.6923 0
M  V30 8798 H 852.69 -0.811045 4.85472 0
M  V30 8799 N 854.342 -1.57594 -0.0133615 0
M  V30 8800 C 855.305 -2.06534 -0.993799 0
M  V30 8801 C 856.305 -0.972267 -1.28077 0
M  V30 8802 O 857.495 -1.23537 -1.22818 0
M  V30 8803 C 854.627 -2.49554 -2.3224 0
M  V30 8804 H 855.82 -2.94419 -0.570741 0
M  V30 8805 H 853.373 -1.54113 -0.260546 0
M  V30 8806 H 854.108 -1.64872 -2.79263 0
M  V30 8807 H 853.893 -3.29371 -2.12737 0
M  V30 8808 H 855.383 -2.8779 -3.026 0
M  V30 8809 N 855.82 0.285905 -1.54985 0
M  V30 8810 C 856.783 1.33625 -1.86218 0
M  V30 8811 C 857.783 1.42971 -0.735936 0
M  V30 8812 O 858.973 1.42345 -1.00417 0
M  V30 8813 C 856.105 2.71926 -2.05595 0
M  V30 8814 H 857.298 1.07167 -2.80099 0
M  V30 8815 H 854.851 0.523335 -1.47278 0
M  V30 8816 H 855.586 3.03583 -1.14053 0
M  V30 8817 H 855.371 2.6653 -2.87583 0
M  V30 8818 H 856.861 3.47841 -2.31077 0
M  V30 8819 N 857.298 1.47698 0.54982 0
M  V30 8820 C 858.528 1.58101 1.32995 0
M  V30 8821 C 858.936 0.232939 1.87761 0
M  V30 8822 O 858.279 -0.785058 1.6608 0
M  V30 8823 C 858.341 2.55228 2.53178 0
M  V30 8824 C 858.005 4.00756 2.19645 0
M  V30 8825 C 859.002 4.89025 1.76496 0
M  V30 8826 C 856.687 4.46147 2.30777 0
M  V30 8827 C 858.681 6.20707 1.44919 0
M  V30 8828 C 856.368 5.77856 1.98812 0
M  V30 8829 C 857.366 6.64957 1.55952 0
M  V30 8830 O 857.054 7.94217 1.24396 0
M  V30 8831 H 856.786 0.536362 0.411451 0
M  V30 8832 H 859.34 1.94092 0.67212 0
M  V30 8833 H 857.57 2.14319 3.21876 0
M  V30 8834 H 859.259 2.55678 3.15251 0
M  V30 8835 H 860.025 4.55201 1.67383 0
M  V30 8836 H 855.904 3.78552 2.63096 0
M  V30 8837 H 859.448 6.88649 1.11392 0
M  V30 8838 H 855.345 6.11219 2.0756 0
M  V30 8839 H 856.113 8.06789 1.37964 0
M  V30 8840 N 858.776 -0.797141 1.35954 0
M  V30 8841 C 859.726 -1.89899 1.26184 0
M  V30 8842 C 860.71 -1.60152 0.155007 0
M  V30 8843 O 861.902 -1.72715 0.387108 0
M  V30 8844 C 859.031 -3.2699 1.04559 0
M  V30 8845 C 858.117 -3.62772 2.19675 0
M  V30 8846 N 858.508 -3.6992 3.44953 0
M  V30 8847 C 856.806 -3.92786 2.1127 0
M  V30 8848 C 857.507 -4.01718 4.20711 0
M  V30 8849 N 856.483 -4.16298 3.49567 0
M  V30 8850 H 860.285 -1.9364 2.2109 0
M  V30 8851 H 857.799 -0.992246 1.28562 0
M  V30 8852 H 859.796 -4.0578 0.956474 0
M  V30 8853 H 858.456 -3.24529 0.105467 0
M  V30 8854 H 859.467 -3.52759 3.79185 0
M  V30 8855 H 856.144 -3.98295 1.25168 0
M  V30 8856 H 857.534 -4.14237 5.29016 0
M  V30 8857 N 860.254 -1.20106 -1.0204 0
M  V30 8858 C 861.184 -0.970301 -2.12385 0
M  V30 8859 C 862.165 0.099378 -1.69809 0
M  V30 8860 O 863.35 -0.057365 -1.94115 0
M  V30 8861 C 860.48 -0.517431 -3.43424 0
M  V30 8862 C 859.434 -1.52992 -3.99722 0
M  V30 8863 C 858.76 -0.933817 -5.26483 0
M  V30 8864 C 860.06 -2.91257 -4.33551 0
M  V30 8865 H 861.754 -1.89316 -2.31948 0
M  V30 8866 H 859.3 -0.911655 -1.11467 0
M  V30 8867 H 861.253 -0.343243 -4.2 0
M  V30 8868 H 859.977 0.441049 -3.23608 0
M  V30 8869 H 858.636 -1.6914 -3.2525 0
M  V30 8870 H 858.284 0.0324763 -5.0299 0
M  V30 8871 H 857.984 -1.60999 -5.65113 0
M  V30 8872 H 859.508 -0.770614 -6.05718 0
M  V30 8873 H 860.922 -2.78642 -5.0103 0
M  V30 8874 H 859.319 -3.55745 -4.83286 0
M  V30 8875 H 860.389 -3.43269 -3.42483 0
M  V30 8876 N 861.732 1.21287 -1.00634 0
M  V30 8877 C 862.98 1.90013 -0.688438 0
M  V30 8878 C 863.301 1.78573 0.783365 0
M  V30 8879 O 862.571 1.1815 1.56261 0
M  V30 8880 H 861.151 0.703336 -0.251648 0
M  V30 8881 H 863.813 1.47346 -1.27574 0
M  V30 8882 H 862.909 2.96879 -0.962781 0
M  V30 8883 N 863.21 0.781244 1.36873 0
M  V30 8884 C 864.621 0.414093 1.8205 0
M  V30 8885 C 864.972 -1.06098 1.65039 0
M  V30 8886 O 864.097 -1.82251 1.16677 0
M  V30 8887 C 864.692 0.744837 3.30511 0
M  V30 8888 C 863.251 0.430621 3.73929 0
M  V30 8889 C 862.398 0.983746 2.59264 0
M  V30 8890 H 865.349 0.975091 1.2521 0
M  V30 8891 H 865.37 0.032936 3.80486 0
M  V30 8892 H 864.882 1.81847 3.42861 0
M  V30 8893 H 862.983 -0.635308 3.67144 0
M  V30 8894 H 863.096 0.945514 4.69677 0
M  V30 8895 H 861.46 0.407433 2.5142 0
M  V30 8896 H 862.243 2.06297 2.74402 0
M  V30 8897 N 864.689 -1.48329 0.532571 0
M  V30 8898 C 865.639 -2.2664 -0.24868 0
M  V30 8899 C 866.623 -1.32861 -0.907563 0
M  V30 8900 O 867.815 -1.57382 -0.809942 0
M  V30 8901 C 864.944 -3.18004 -1.29339 0
M  V30 8902 C 864.03 -4.19256 -0.639166 0
M  V30 8903 N 864.421 -5.05043 0.276597 0
M  V30 8904 C 862.719 -4.36906 -0.896062 0
M  V30 8905 C 863.42 -5.78009 0.654261 0
M  V30 8906 N 862.396 -5.43598 0.0147447 0
M  V30 8907 H 866.198 -2.90344 0.455792 0
M  V30 8908 H 863.712 -1.58566 0.350778 0
M  V30 8909 H 865.709 -3.72767 -1.86682 0
M  V30 8910 H 864.369 -2.55855 -1.99921 0
M  V30 8911 H 865.38 -5.13813 0.649351 0
M  V30 8912 H 862.057 -3.85945 -1.59226 0
M  V30 8913 H 863.447 -6.57039 1.40532 0
M  V30 8914 N 866.167 -0.267825 -1.55308 0
M  V30 8915 C 867.413 0.351556 -1.9973 0
M  V30 8916 C 867.746 1.56049 -1.15596 0
M  V30 8917 O 867.021 1.93203 -0.224274 0
M  V30 8918 C 867.304 0.74091 -3.52395 0
M  V30 8919 C 867.157 -0.474861 -4.47286 0
M  V30 8920 C 868.476 1.5801 -4.10756 0
M  V30 8921 H 865.595 0.126308 -0.726096 0
M  V30 8922 H 868.237 -0.373316 -1.86296 0
M  V30 8923 H 866.387 1.35851 -3.63973 0
M  V30 8924 H 868.059 -1.1134 -4.47662 0
M  V30 8925 H 866.302 -1.11425 -4.19246 0
M  V30 8926 H 866.973 -0.158782 -5.51772 0
M  V30 8927 H 869.449 1.05857 -4.0241 0
M  V30 8928 H 868.325 1.82135 -5.17801 0
M  V30 8929 H 868.586 2.55878 -3.60526 0
M  V30 8930 N 867.645 1.57599 0.00500368 0
M  V30 8931 C 868.894 1.89528 0.690061 0
M  V30 8932 C 869.207 0.869451 1.75214 0
M  V30 8933 O 870.413 1.07879 2.49147 0
M  V30 8934 C 868.869 3.36425 1.27852 0
M  V30 8935 C 868.477 4.47293 0.251531 0
M  V30 8936 C 870.221 3.77471 1.94206 0
M  V30 8937 C 868.128 5.85264 0.8497 0
M  V30 8938 H 867.058 0.707201 0.2615 0
M  V30 8939 H 869.709 1.83418 -0.0547209 0
M  V30 8940 H 868.091 3.37356 2.07381 0
M  V30 8941 H 869.265 4.5787 -0.518796 0
M  V30 8942 H 867.58 4.15235 -0.311281 0
M  V30 8943 H 870.177 4.77884 2.39855 0
M  V30 8944 H 870.52 3.10722 2.77051 0
M  V30 8945 H 871.053 3.78817 1.21419 0
M  V30 8946 H 867.792 6.55472 0.0601408 0
M  V30 8947 H 867.312 5.78361 1.5893 0
M  V30 8948 H 868.991 6.32762 1.34984 0
M  V30 8949 N 869.123 -0.277682 1.55134 0
M  V30 8950 C 870.348 -1.03254 1.7987 0
M  V30 8951 C 870.773 -1.79324 0.567861 0
M  V30 8952 O 870.131 -1.74764 -0.4824 0
M  V30 8953 C 870.179 -1.9705 3.02 0
M  V30 8954 O 869.283 -3.05744 2.76757 0
M  V30 8955 H 868.624 -0.295447 0.594649 0
M  V30 8956 H 871.154 -0.308013 2.02268 0
M  V30 8957 H 871.164 -2.3909 3.30606 0
M  V30 8958 H 869.839 -1.41094 3.91236 0
M  V30 8959 H 868.416 -2.68052 2.59235 0
M  V30 8960 N 870.601 -1.47988 -0.541979 0
M  V30 8961 C 871.548 -1.61615 -1.6477 0
M  V30 8962 C 872.518 -0.458602 -1.59644 0
M  V30 8963 O 873.703 -0.680585 -1.78249 0
M  V30 8964 C 870.843 -1.65066 -3.03063 0
M  V30 8965 C 869.956 -2.91845 -3.18513 0
M  V30 8966 C 869.091 -2.86534 -4.47294 0
M  V30 8967 C 868.13 -4.0807 -4.5623 0
M  V30 8968 N 867.267 -4.00905 -5.76385 0
M  V30 8969 H 872.107 -2.56046 -1.52461 0
M  V30 8970 H 869.644 -1.26989 -0.742449 0
M  V30 8971 H 871.602 -1.65049 -3.83164 0
M  V30 8972 H 870.232 -0.74136 -3.14171 0
M  V30 8973 H 869.284 -3.01661 -2.31743 0
M  V30 8974 H 870.596 -3.81804 -3.20978 0
M  V30 8975 H 869.75 -2.84851 -5.35672 0
M  V30 8976 H 868.489 -1.94283 -4.47332 0
M  V30 8977 H 867.494 -4.10041 -3.66261 0
M  V30 8978 H 868.719 -5.01465 -4.5794 0
M  V30 8979 H 866.665 -3.11467 -5.77342 0
M  V30 8980 H 866.582 -4.84557 -5.80293 0
M  V30 8981 H 867.85 -4.03263 -6.67083 0
M  V30 8982 N 872.079 0.78992 -1.36375 0
M  V30 8983 C 873.495 1.0879 -1.16777 0
M  V30 8984 C 873.695 2.01498 0.00848236 0
M  V30 8985 O 872.751 2.43338 0.674007 0
M  V30 8986 C 874.064 1.70285 -2.47837 0
M  V30 8987 C 875.612 1.82629 -2.54196 0
M  V30 8988 C 876.087 2.47539 -3.85342 0
M  V30 8989 N 877.578 2.55008 -3.86685 0
M  V30 8990 C 878.313 3.06041 -4.84898 0
M  V30 8991 N 877.809 3.57385 -5.93505 0
M  V30 8992 N 879.602 3.04748 -4.72319 0
M  V30 8993 H 871.753 0.173985 -2.11686 0
M  V30 8994 H 874.016 0.139798 -0.937636 0
M  V30 8995 H 873.722 1.09633 -3.34176 0
M  V30 8996 H 873.596 2.69799 -2.63607 0
M  V30 8997 H 875.983 2.42419 -1.68276 0
M  V30 8998 H 876.064 0.81923 -2.42327 0
M  V30 8999 H 875.708 1.88393 -4.71668 0
M  V30 9000 H 875.638 3.48815 -3.94507 0
M  V30 9001 H 878.129 2.18651 -3.08221 0
M  V30 9002 H 878.442 3.94674 -6.64419 0
M  V30 9003 H 876.787 3.55538 -5.97175 0
M  V30 9004 H 879.978 2.63925 -3.86602 0
M  V30 9005 H 880.151 3.44212 -5.49019 0
M  V30 9006 N 873.557 1.20646 1.01402 0
M  V30 9007 C 874.782 1.04462 1.79172 0
M  V30 9008 C 875.207 -0.401588 1.83763 0
M  V30 9009 O 874.565 -1.28934 1.27459 0
M  V30 9010 C 874.613 1.63583 3.21361 0
M  V30 9011 O 873.717 0.875198 4.03006 0
M  V30 9012 H 873.058 0.368235 0.552539 0
M  V30 9013 H 875.588 1.59994 1.27526 0
M  V30 9014 H 875.598 1.67426 3.72065 0
M  V30 9015 H 874.273 2.68835 3.17334 0
M  V30 9016 H 872.85 0.911172 3.61597 0
M  V30 9017 N 875.035 -1.20752 1.01276 0
M  V30 9018 C 876.263 -1.94006 0.718976 0
M  V30 9019 C 876.678 -1.74544 -0.719711 0
M  V30 9020 O 876.035 -1.05697 -1.48776 0
M  V30 9021 C 876.086 -3.46208 1.04031 0
M  V30 9022 O 875.807 -3.65031 2.42248 0
M  V30 9023 C 877.308 -4.36614 0.767032 0
M  V30 9024 H 874.528 -0.616743 0.264327 0
M  V30 9025 H 877.072 -1.53352 1.3529 0
M  V30 9026 H 875.227 -3.84756 0.451852 0
M  V30 9027 H 875.641 -4.59054 2.53712 0
M  V30 9028 H 877.115 -5.42076 1.04198 0
M  V30 9029 H 877.592 -4.38182 -0.298851 0
M  V30 9030 H 878.198 -4.03723 1.33746 0
M  V30 9031 N 876.513 -0.788492 -1.36457 0
M  V30 9032 C 877.423 -0.187385 -2.3385 0
M  V30 9033 C 878.439 0.659984 -1.60998 0
M  V30 9034 O 879.615 0.575986 -1.92988 0
M  V30 9035 C 876.68 0.668525 -3.40194 0
M  V30 9036 C 875.741 -0.197234 -4.28847 0
M  V30 9037 C 874.974 0.61792 -5.30111 0
M  V30 9038 O 875.197 1.85396 -5.3943 0
M  V30 9039 O 874.131 0.0183016 -6.01897 0
M  V30 9040 H 877.957 -0.992617 -2.87021 0
M  V30 9041 H 875.542 -0.549934 -1.3891 0
M  V30 9042 H 877.424 1.15663 -4.05216 0
M  V30 9043 H 876.099 1.45166 -2.89324 0
M  V30 9044 H 875.006 -0.73207 -3.66867 0
M  V30 9045 H 876.339 -0.943863 -4.83065 0
M  V30 9046 N 877.991 1.48044 -0.54043 0
M  V30 9047 C 878.901 2.33565 0.220163 0
M  V30 9048 C 879.917 1.47146 0.928659 0
M  V30 9049 O 881.093 1.80107 0.901295 0
M  V30 9050 C 878.158 3.2349 1.2472 0
M  V30 9051 C 877.219 4.25789 0.547938 0
M  V30 9052 C 876.452 5.11417 1.52605 0
M  V30 9053 O 876.675 4.99204 2.75956 0
M  V30 9054 O 875.609 5.92498 1.05972 0
M  V30 9055 H 879.435 2.99868 -0.480898 0
M  V30 9056 H 877.02 1.46332 -0.301226 0
M  V30 9057 H 878.902 3.79084 1.84047 0
M  V30 9058 H 877.577 2.59835 1.93048 0
M  V30 9059 H 876.484 3.74001 -0.0860941 0
M  V30 9060 H 877.817 4.92111 -0.0935896 0
M  V30 9061 N 879.47 0.276058 1.55163 0
M  V30 9062 C 880.717 -0.340455 1.99618 0
M  V30 9063 C 881.045 -1.5579 1.16446 0
M  V30 9064 O 880.3 -1.94433 0.222359 0
M  V30 9065 C 880.599 -0.765744 3.491 0
M  V30 9066 C 880.265 0.347174 4.49561 0
M  V30 9067 C 878.927 0.65276 4.76752 0
M  V30 9068 C 881.279 1.09705 5.09523 0
M  V30 9069 C 878.607 1.71179 5.61173 0
M  V30 9070 C 880.959 2.14581 5.95095 0
M  V30 9071 C 879.623 2.45773 6.20606 0
M  V30 9072 H 878.893 -0.124581 0.730452 0
M  V30 9073 H 881.54 0.389966 1.87487 0
M  V30 9074 H 879.845 -1.57585 3.58712 0
M  V30 9075 H 881.542 -1.25352 3.80904 0
M  V30 9076 H 878.132 0.0988779 4.28486 0
M  V30 9077 H 882.316 0.874223 4.8854 0
M  V30 9078 H 877.572 1.95846 5.79184 0
M  V30 9079 H 881.746 2.7316 6.40591 0
M  V30 9080 H 879.373 3.27969 6.85813 0
M  V30 9081 N 880.948 -1.576 0.00335426 0
M  V30 9082 C 882.359 -1.7875 -0.539008 0
M  V30 9083 C 882.71 -0.911097 -1.73763 0
M  V30 9084 O 881.835 -0.114476 -2.16097 0
M  V30 9085 C 882.43 -3.24177 -0.984611 0
M  V30 9086 C 880.989 -3.46412 -1.47226 0
M  V30 9087 C 880.136 -2.74024 -0.425004 0
M  V30 9088 H 883.087 -1.57032 0.229511 0
M  V30 9089 H 883.108 -3.32474 -1.85044 0
M  V30 9090 H 882.62 -3.87938 -0.112035 0
M  V30 9091 H 880.721 -2.8787 -2.36562 0
M  V30 9092 H 880.834 -4.55098 -1.49741 0
M  V30 9093 H 879.198 -2.38741 -0.887394 0
M  V30 9094 H 879.981 -3.40486 0.438662 0
M  V30 9095 N 882.426 0.269451 -1.5528 0
M  V30 9096 C 883.837 0.840233 -1.66724 0
M  V30 9097 C 884.188 1.86909 -0.596621 0
M  V30 9098 O 883.313 2.14817 0.261246 0
M  V30 9099 C 883.908 1.5308 -3.02245 0
M  V30 9100 C 882.467 2.04957 -3.15705 0
M  V30 9101 C 881.614 0.892838 -2.62533 0
M  V30 9102 H 884.565 0.0457236 -1.58634 0
M  V30 9103 H 884.586 2.39792 -2.95432 0
M  V30 9104 H 884.098 0.781741 -3.80145 0
M  V30 9105 H 882.199 2.82813 -2.42585 0
M  V30 9106 H 882.312 2.26244 -4.22316 0
M  V30 9107 H 880.676 1.28719 -2.19781 0
M  V30 9108 H 881.459 0.157229 -3.4294 0
M  V30 9109 N 883.904 1.48273 0.534124 0
M  V30 9110 C 884.834 1.6538 1.64839 0
M  V30 9111 C 885.815 0.502741 1.62501 0
M  V30 9112 O 887 0.734799 1.79762 0
M  V30 9113 C 884.13 1.68949 3.03436 0
M  V30 9114 C 883.084 2.83513 3.20631 0
M  V30 9115 C 882.41 2.72169 4.60248 0
M  V30 9116 C 883.71 4.24858 3.03797 0
M  V30 9117 H 885.404 2.58663 1.50777 0
M  V30 9118 H 882.95 1.24479 0.723937 0
M  V30 9119 H 884.903 1.79505 3.81256 0
M  V30 9120 H 883.627 0.722415 3.1851 0
M  V30 9121 H 882.286 2.72505 2.45227 0
M  V30 9122 H 881.934 1.7344 4.72152 0
M  V30 9123 H 881.634 3.49042 4.72698 0
M  V30 9124 H 883.158 2.84687 5.40172 0
M  V30 9125 H 884.572 4.36721 3.71413 0
M  V30 9126 H 882.969 5.02697 3.27743 0
M  V30 9127 H 884.039 4.41611 2.0027 0
M  V30 9128 N 885.382 -0.782676 1.36792 0
M  V30 9129 C 886.314 -1.9044 1.27536 0
M  V30 9130 C 887.327 -1.61647 0.193426 0
M  V30 9131 O 888.516 -1.72769 0.448692 0
M  V30 9132 C 885.616 -3.2541 0.946641 0
M  V30 9133 C 884.789 -3.81932 2.13183 0
M  V30 9134 C 883.848 -4.95355 1.7751 0
M  V30 9135 O 882.874 -5.11517 2.49678 0
M  V30 9136 N 884.076 -5.76108 0.712755 0
M  V30 9137 H 886.841 -1.98899 2.24186 0
M  V30 9138 H 884.402 -0.96127 1.30274 0
M  V30 9139 H 886.394 -3.98791 0.689043 0
M  V30 9140 H 884.964 -3.12524 0.0690591 0
M  V30 9141 H 884.184 -3.00459 2.55183 0
M  V30 9142 H 885.472 -4.16426 2.92347 0
M  V30 9143 H 884.87 -5.65586 0.113662 0
M  V30 9144 H 883.427 -6.49762 0.514995 0
M  V30 9145 N 886.86 -1.21182 -1.00761 0
M  V30 9146 C 888.271 -1.02652 -1.55947 0
M  V30 9147 C 888.622 0.414466 -1.91772 0
M  V30 9148 O 887.747 1.29727 -1.73204 0
M  V30 9149 C 888.342 -1.85713 -2.83366 0
M  V30 9150 C 886.901 -1.71523 -3.35048 0
M  V30 9151 C 886.048 -1.83087 -2.08265 0
M  V30 9152 H 888.999 -1.35242 -0.830379 0
M  V30 9153 H 889.02 -1.36583 -3.55141 0
M  V30 9154 H 888.532 -2.90584 -2.5726 0
M  V30 9155 H 886.633 -0.693257 -3.66094 0
M  V30 9156 H 886.746 -2.53333 -4.06644 0
M  V30 9157 H 885.11 -1.26367 -2.21141 0
M  V30 9158 H 885.893 -2.8946 -1.84575 0
M  V30 9159 N 888.338 1.20213 -1.01915 0
M  V30 9160 C 889.587 1.88968 -0.705261 0
M  V30 9161 C 889.9 1.79869 0.768531 0
M  V30 9162 O 891.106 2.43783 1.19508 0
M  V30 9163 C 889.562 3.38911 -1.21109 0
M  V30 9164 C 889.17 3.5659 -2.71197 0
M  V30 9165 C 890.914 4.13204 -0.97275 0
M  V30 9166 C 888.821 5.00372 -3.15248 0
M  V30 9167 H 887.751 0.707715 -0.260107 0
M  V30 9168 H 890.402 1.35977 -1.23217 0
M  V30 9169 H 888.784 3.9124 -0.612152 0
M  V30 9170 H 889.958 3.14635 -3.36662 0
M  V30 9171 H 888.273 2.95671 -2.93202 0
M  V30 9172 H 890.87 5.19221 -1.27726 0
M  V30 9173 H 891.213 4.16201 0.09072 0
M  V30 9174 H 891.746 3.66983 -1.5352 0
M  V30 9175 H 888.485 5.02532 -4.20882 0
M  V30 9176 H 888.005 5.43127 -2.54505 0
M  V30 9177 H 889.684 5.68969 -3.08032 0
M  V30 9178 N 889.816 0.795718 1.36037 0
M  V30 9179 C 890.746 0.212803 2.32528 0
M  V30 9180 C 891.727 -0.655716 1.56953 0
M  V30 9181 O 892.912 -0.588238 1.85077 0
M  V30 9182 C 890.042 -0.648189 3.41198 0
M  V30 9183 C 888.996 0.120948 4.27829 0
M  V30 9184 C 888.322 -0.861044 5.27722 0
M  V30 9185 C 889.622 1.31375 5.05508 0
M  V30 9186 H 891.316 1.01893 2.81528 0
M  V30 9187 H 888.862 0.491422 1.35355 0
M  V30 9188 H 890.815 -1.06597 4.07695 0
M  V30 9189 H 889.539 -1.48709 2.9078 0
M  V30 9190 H 888.198 0.519777 3.62897 0
M  V30 9191 H 887.846 -1.69515 4.73575 0
M  V30 9192 H 887.546 -0.350808 5.86552 0
M  V30 9193 H 889.07 -1.27726 5.97092 0
M  V30 9194 H 890.484 0.971406 5.6501 0
M  V30 9195 H 888.881 1.75772 5.73781 0
M  V30 9196 H 889.951 2.10593 4.36782 0
M  V30 9197 N 891.294 -1.47756 0.548274 0
M  V30 9198 C 892.226 -2.27921 -0.24177 0
M  V30 9199 C 893.239 -1.36471 -0.887658 0
M  V30 9200 O 894.428 -1.6137 -0.763016 0
M  V30 9201 C 891.528 -3.10449 -1.35922 0
M  V30 9202 C 890.701 -4.298 -0.811808 0
M  V30 9203 C 889.76 -4.93994 -1.81264 0
M  V30 9204 O 888.786 -5.52657 -1.3623 0
M  V30 9205 N 889.988 -4.87882 -3.14566 0
M  V30 9206 H 892.753 -2.96365 0.445848 0
M  V30 9207 H 890.314 -1.57286 0.383769 0
M  V30 9208 H 892.306 -3.50261 -2.02729 0
M  V30 9209 H 890.876 -2.44306 -1.95021 0
M  V30 9210 H 890.096 -3.94186 0.0327929 0
M  V30 9211 H 891.384 -5.0702 -0.425272 0
M  V30 9212 H 890.782 -4.41405 -3.53805 0
M  V30 9213 H 889.339 -5.3174 -3.76956 0
M  V30 9214 N 892.772 -0.284283 -1.55015 0
M  V30 9215 C 893.704 0.63258 -2.20298 0
M  V30 9216 C 894.717 1.11045 -1.1905 0
M  V30 9217 O 895.906 1.03078 -1.4573 0
M  V30 9218 C 893.006 1.87599 -2.82241 0
M  V30 9219 C 892.179 1.5434 -4.09265 0
M  V30 9220 C 891.238 2.64023 -4.55169 0
M  V30 9221 O 890.264 2.29821 -5.20741 0
M  V30 9222 N 891.466 3.94255 -4.26079 0
M  V30 9223 H 894.231 0.0737928 -2.99609 0
M  V30 9224 H 891.792 -0.105767 -1.61554 0
M  V30 9225 H 893.784 2.60289 -3.0989 0
M  V30 9226 H 892.354 2.3436 -2.06868 0
M  V30 9227 H 891.574 0.649912 -3.88806 0
M  V30 9228 H 892.862 1.29634 -4.92009 0
M  V30 9229 H 892.26 4.24859 -3.73512 0
M  V30 9230 H 890.817 4.63295 -4.58477 0
M  V30 9231 N 894.251 1.57596 -0.0117121 0
M  V30 9232 C 895.198 2.09153 0.975897 0
M  V30 9233 C 896.168 0.989579 1.33404 0
M  V30 9234 O 897.353 1.26273 1.43038 0
M  V30 9235 C 894.493 2.60906 2.2588 0
M  V30 9236 C 893.606 3.85046 1.95866 0
M  V30 9237 C 892.741 4.25257 3.18323 0
M  V30 9238 C 891.78 5.42202 2.84049 0
M  V30 9239 N 890.917 5.77651 3.99079 0
M  V30 9240 H 895.757 2.93261 0.52931 0
M  V30 9241 H 893.294 1.44965 0.249691 0
M  V30 9242 H 895.252 2.88995 3.00895 0
M  V30 9243 H 893.882 1.79654 2.68187 0
M  V30 9244 H 892.934 3.63794 1.11168 0
M  V30 9245 H 894.246 4.70151 1.66611 0
M  V30 9246 H 893.4 4.5469 4.01674 0
M  V30 9247 H 892.139 3.38884 3.50726 0
M  V30 9248 H 891.144 5.1248 1.99107 0
M  V30 9249 H 892.369 6.3026 2.52881 0
M  V30 9250 H 890.315 4.94235 4.31356 0
M  V30 9251 H 890.232 6.57356 3.73388 0
M  V30 9252 H 891.5 6.11681 4.83183 0
M  V30 9253 N 895.729 -0.261212 1.5542 0
M  V30 9254 C 896.676 -1.32315 1.89107 0
M  V30 9255 C 897.646 -1.48517 0.743767 0
M  V30 9256 O 898.831 -1.62733 0.996123 0
M  V30 9257 C 895.971 -2.67626 2.17877 0
M  V30 9258 C 895.084 -2.59549 3.45338 0
M  V30 9259 C 894.219 -3.87118 3.63748 0
M  V30 9260 C 893.258 -3.736 4.8486 0
M  V30 9261 N 892.395 -4.93029 4.99867 0
M  V30 9262 H 897.235 -1.02886 2.79675 0
M  V30 9263 H 894.772 -0.496812 1.38456 0
M  V30 9264 H 896.73 -3.4637 2.32559 0
M  V30 9265 H 895.36 -2.95232 1.30529 0
M  V30 9266 H 894.412 -1.72452 3.39064 0
M  V30 9267 H 895.724 -2.45465 4.34222 0
M  V30 9268 H 894.878 -4.74305 3.78312 0
M  V30 9269 H 893.617 -4.04084 2.73071 0
M  V30 9270 H 892.622 -2.84797 4.70288 0
M  V30 9271 H 893.847 -3.58143 5.76984 0
M  V30 9272 H 891.793 -5.10383 4.12123 0
M  V30 9273 H 891.71 -4.81521 5.82815 0
M  V30 9274 H 892.978 -5.81754 5.18828 0
M  V30 9275 N 897.207 -1.48554 -0.526253 0
M  V30 9276 C 898.117 -1.66044 -1.65731 0
M  V30 9277 C 899.133 -0.542951 -1.65312 0
M  V30 9278 O 900.309 -0.814495 -1.84195 0
M  V30 9279 C 897.374 -1.69959 -3.02184 0
M  V30 9280 C 896.435 -2.93362 -3.13428 0
M  V30 9281 C 895.668 -2.97081 -4.43372 0
M  V30 9282 O 895.891 -2.09103 -5.3069 0
M  V30 9283 O 894.825 -3.8929 -4.59061 0
M  V30 9284 H 898.651 -2.61811 -1.53912 0
M  V30 9285 H 896.236 -1.31999 -0.699759 0
M  V30 9286 H 898.118 -1.75033 -3.83329 0
M  V30 9287 H 896.793 -0.773658 -3.14319 0
M  V30 9288 H 895.7 -2.93818 -2.31564 0
M  V30 9289 H 897.033 -3.85352 -3.06211 0
M  V30 9290 N 898.685 0.775411 -1.37205 0
M  V30 9291 C 899.632 1.88857 -1.32671 0
M  V30 9292 C 900.602 1.64976 -0.192899 0
M  V30 9293 O 901.787 1.86944 -0.381673 0
M  V30 9294 C 898.927 3.25871 -1.13588 0
M  V30 9295 C 898.04 3.61731 -2.36167 0
M  V30 9296 C 897.175 4.87934 -2.09985 0
M  V30 9297 C 896.214 5.16514 -3.2845 0
M  V30 9298 N 895.351 6.33905 -3.01842 0
M  V30 9299 H 900.191 1.92068 -2.27846 0
M  V30 9300 H 897.728 0.939066 -1.13225 0
M  V30 9301 H 899.686 4.04903 -1.00546 0
M  V30 9302 H 898.316 3.22045 -0.220613 0
M  V30 9303 H 897.368 2.77712 -2.59962 0
M  V30 9304 H 898.68 3.78792 -3.24528 0
M  V30 9305 H 897.834 5.74863 -1.93953 0
M  V30 9306 H 896.573 4.7297 -1.18956 0
M  V30 9307 H 895.578 4.28063 -3.45025 0
M  V30 9308 H 896.803 5.33389 -4.20325 0
M  V30 9309 H 894.749 6.20306 -2.13439 0
M  V30 9310 H 894.666 6.51364 -3.83746 0
M  V30 9311 H 895.934 7.23779 -2.8942 0
M  V30 9312 N 900.163 1.21714 1.00117 0
M  V30 9313 C 901.44 0.945391 1.71236 0
M  V30 9314 C 901.82 -0.541772 2.0403 0
M  V30 9315 O 901.168 -1.50763 1.71705 0
M  V30 9316 C 901.378 1.83444 2.96899 0
M  V30 9317 C 902.726 2.08558 3.69849 0
M  V30 9318 O 903.75 1.80824 3.06889 0
M  V30 9319 O 902.609 2.55485 4.83104 0
M  V30 9320 H 899.703 0.354834 0.747009 0
M  V30 9321 H 902.249 1.32661 1.05825 0
M  V30 9322 H 901.021 2.84075 2.69105 0
M  V30 9323 H 900.644 1.45428 3.70049 0
M  V30 9324 N 901.641 -1.19671 1.02551 0
M  V30 9325 C 902.89 -1.88591 0.715272 0
M  V30 9326 C 903.203 -1.80274 -0.758982 0
M  V30 9327 O 904.409 -2.44413 -1.18213 0
M  V30 9328 C 902.865 -3.38264 1.22905 0
M  V30 9329 C 902.473 -3.55146 2.73084 0
M  V30 9330 C 904.217 -4.12683 0.994649 0
M  V30 9331 C 902.124 -4.98693 3.17897 0
M  V30 9332 H 901.054 -0.706326 0.263857 0
M  V30 9333 H 903.705 -1.35322 1.23936 0
M  V30 9334 H 902.087 -3.9091 0.632892 0
M  V30 9335 H 903.261 -3.12845 3.38326 0
M  V30 9336 H 901.576 -2.94112 2.94766 0
M  V30 9337 H 904.173 -5.18536 1.30478 0
M  V30 9338 H 904.516 -4.16243 -0.0686466 0
M  V30 9339 H 905.049 -3.66164 1.55464 0
M  V30 9340 H 901.788 -5.00293 4.23542 0
M  V30 9341 H 901.308 -5.4177 2.57381 0
M  V30 9342 H 902.987 -5.67327 3.11045 0
M  V30 9343 N 903.119 -0.802921 -1.35613 0
M  V30 9344 C 904.052 -0.156345 -2.27664 0
M  V30 9345 C 905.03 0.675517 -1.47904 0
M  V30 9346 O 906.214 0.643589 -1.77173 0
M  V30 9347 C 903.341 0.78348 -3.29514 0
M  V30 9348 C 902.387 0.0317062 -4.26488 0
M  V30 9349 S 903.22 -1.30183 -5.19435 0
M  V30 9350 C 904.376 -0.366354 -6.24827 0
M  V30 9351 H 904.609 -0.936803 -2.82155 0
M  V30 9352 H 902.142 -0.597799 -1.42358 0
M  V30 9353 H 904.1 1.32023 -3.8869 0
M  V30 9354 H 902.761 1.53729 -2.73909 0
M  V30 9355 H 901.954 0.745364 -4.98458 0
M  V30 9356 H 901.556 -0.43497 -3.71462 0
M  V30 9357 H 903.848 0.44976 -6.76005 0
M  V30 9358 H 904.791 -1.05513 -7.00195 0
M  V30 9359 H 905.199 0.0363203 -5.64488 0
M  V30 9360 N 904.597 1.47463 -0.556102 0
M  V30 9361 C 905.544 2.29998 0.192213 0
M  V30 9362 C 906.514 1.38993 0.909403 0
M  V30 9363 O 907.699 1.67954 0.905316 0
M  V30 9364 C 904.839 3.22932 1.21692 0
M  V30 9365 C 903.952 4.29027 0.505908 0
M  V30 9366 C 903.087 5.09114 1.51581 0
M  V30 9367 C 902.126 6.06984 0.789714 0
M  V30 9368 N 901.263 6.80033 1.74639 0
M  V30 9369 H 906.103 2.93468 -0.517734 0
M  V30 9370 H 903.64 1.44654 -0.267147 0
M  V30 9371 H 905.598 3.75234 1.8236 0
M  V30 9372 H 904.228 2.61329 1.89491 0
M  V30 9373 H 903.28 3.7979 -0.215276 0
M  V30 9374 H 904.592 4.9876 -0.062958 0
M  V30 9375 H 903.746 5.6556 2.19606 0
M  V30 9376 H 902.485 4.3928 2.11859 0
M  V30 9377 H 901.49 5.49717 0.0955382 0
M  V30 9378 H 902.715 6.78827 0.192688 0
M  V30 9379 H 900.661 6.12931 2.33777 0
M  V30 9380 H 900.578 7.45933 1.22965 0
M  V30 9381 H 901.846 7.41054 2.41782 0
M  V30 9382 N 906.075 0.2925 1.54862 0
M  V30 9383 C 907.022 -0.587365 2.23201 0
M  V30 9384 C 907.992 -1.13623 1.21157 0
M  V30 9385 O 909.177 -1.18233 1.49752 0
M  V30 9386 C 906.317 -1.75745 2.96998 0
M  V30 9387 C 905.43 -1.24078 4.13798 0
M  V30 9388 C 904.565 -2.37405 4.75197 0
M  V30 9389 C 903.604 -1.82829 5.84157 0
M  V30 9390 N 902.741 -2.89696 6.39547 0
M  V30 9391 H 907.581 0.00202207 2.98 0
M  V30 9392 H 905.118 0.012766 1.47094 0
M  V30 9393 H 907.076 -2.44549 3.38011 0
M  V30 9394 H 905.706 -2.3186 2.24591 0
M  V30 9395 H 904.758 -0.445268 3.77785 0
M  V30 9396 H 906.07 -0.801186 4.92324 0
M  V30 9397 H 905.224 -3.14172 5.19019 0
M  V30 9398 H 903.963 -2.84688 3.95985 0
M  V30 9399 H 902.968 -1.04548 5.39768 0
M  V30 9400 H 904.193 -1.36461 6.65248 0
M  V30 9401 H 902.139 -3.36328 5.63222 0
M  V30 9402 H 902.056 -2.50206 7.13395 0
M  V30 9403 H 903.324 -3.66386 6.88027 0
M  V30 9404 N 907.553 -1.57587 0.0200696 0
M  V30 9405 C 908.781 -1.95718 -0.670964 0
M  V30 9406 C 909.196 -0.896081 -1.6618 0
M  V30 9407 O 908.553 0.123037 -1.82085 0
M  V30 9408 C 908.604 -3.33904 -1.38529 0
M  V30 9409 O 908.325 -4.35943 -0.434167 0
M  V30 9410 C 909.826 -3.86614 -2.16898 0
M  V30 9411 H 907.046 -0.644819 -0.185606 0
M  V30 9412 H 909.59 -2.04354 0.0771495 0
M  V30 9413 H 907.745 -3.26515 -2.08487 0
M  V30 9414 H 908.159 -5.16001 -0.940378 0
M  V30 9415 H 909.633 -4.85673 -2.62346 0
M  V30 9416 H 910.11 -3.20379 -3.00423 0
M  V30 9417 H 910.716 -3.97243 -1.51916 0
M  V30 9418 N 909.032 0.252966 -1.55557 0
M  V30 9419 C 910.281 0.979736 -1.76307 0
M  V30 9420 C 910.594 1.86714 -0.582871 0
M  V30 9421 O 911.8 2.6302 -0.673247 0
M  V30 9422 C 910.256 1.79205 -3.12112 0
M  V30 9423 C 909.864 0.952333 -4.37761 0
M  V30 9424 C 911.608 2.51191 -3.42203 0
M  V30 9425 C 909.515 1.76018 -5.64599 0
M  V30 9426 H 908.445 0.369538 -0.657235 0
M  V30 9427 H 911.096 0.234619 -1.81994 0
M  V30 9428 H 909.478 2.57888 -3.00515 0
M  V30 9429 H 910.652 0.208251 -4.60329 0
M  V30 9430 H 908.967 0.346082 -4.14959 0
M  V30 9431 H 911.564 3.12074 -4.34182 0
M  V30 9432 H 911.907 3.22499 -2.63249 0
M  V30 9433 H 912.44 1.79523 -3.54988 0
M  V30 9434 H 909.179 1.09095 -6.46358 0
M  V30 9435 H 908.699 2.4797 -5.46142 0
M  V30 9436 H 910.378 2.32884 -6.03634 0
M  V30 9437 N 910.51 1.48831 0.518367 0
M  V30 9438 C 911.458 1.64678 1.64268 0
M  V30 9439 C 912.452 0.512967 1.61447 0
M  V30 9440 O 913.658 0.692063 1.66164 0
M  V30 9441 H 910.033 0.518964 0.544224 0
M  V30 9442 H 912.004 2.59083 1.4805 0
M  V30 9443 C 910.753 1.71449 3.0249 0
M  V30 9444 H 910.076 2.58061 3.0536 0
M  V30 9445 H 911.516 1.86577 3.80743 0
M  V30 9446 C 909.975 0.455584 3.33805 0
M  V30 9447 O 910.505 -0.426428 3.9943 0
M  V30 9448 N 908.711 0.323763 2.88791 0
M  V30 9449 H 908.258 1.04249 2.35563 0
M  V30 9450 H 908.216 -0.517514 3.10112 0
M  V30 9451 N 911.988 -0.768124 1.37614 0
M  V30 9452 C 913.235 -1.5268 1.33022 0
M  V30 9453 C 913.563 -1.94318 -0.0841918 0
M  V30 9454 O 912.818 -1.64623 -1.0582 0
M  V30 9455 C 913.117 -2.80204 2.21856 0
M  V30 9456 C 912.783 -2.57602 3.7007 0
M  V30 9457 C 911.445 -2.51146 4.10462 0
M  V30 9458 C 913.797 -2.37482 4.63952 0
M  V30 9459 C 911.125 -2.22566 5.42846 0
M  V30 9460 C 913.477 -2.10425 5.96577 0
M  V30 9461 C 912.141 -2.02416 6.36069 0
M  V30 9462 H 911.411 -0.558697 0.486763 0
M  V30 9463 H 914.058 -0.88447 1.69851 0
M  V30 9464 H 912.363 -3.49014 1.78034 0
M  V30 9465 H 914.06 -3.38099 2.15615 0
M  V30 9466 H 910.65 -2.63491 3.38039 0
M  V30 9467 H 914.834 -2.41457 4.33604 0
M  V30 9468 H 910.09 -2.14863 5.72402 0
M  V30 9469 H 914.264 -1.93857 6.68874 0
M  V30 9470 H 911.891 -1.80034 7.38574 0
M  V30 9471 N 913.466 -1.22244 -0.994698 0
M  V30 9472 C 914.429 -0.992308 -2.06606 0
M  V30 9473 C 915.429 0.0405872 -1.60749 0
M  V30 9474 O 916.619 -0.197737 -1.73074 0
M  V30 9475 C 913.751 -0.498499 -3.37236 0
M  V30 9476 H 914.944 -1.9429 -2.28455 0
M  V30 9477 H 912.497 -1.04087 -1.166 0
M  V30 9478 H 913.232 0.456531 -3.21071 0
M  V30 9479 H 913.017 -1.24367 -3.71854 0
M  V30 9480 H 914.507 -0.35768 -4.16065 0
M  V30 9481 N 914.944 1.19125 -1.03184 0
M  V30 9482 C 916.36 1.40909 -0.749447 0
M  V30 9483 C 916.56 1.9022 0.664729 0
M  V30 9484 O 915.616 2.08085 1.43028 0
M  V30 9485 C 916.929 2.41761 -1.78807 0
M  V30 9486 C 918.477 2.55503 -1.80796 0
M  V30 9487 C 918.952 3.59612 -2.83626 0
M  V30 9488 N 920.443 3.6711 -2.82461 0
M  V30 9489 C 921.178 4.47366 -3.5868 0
M  V30 9490 N 920.674 5.31302 -4.44623 0
M  V30 9491 N 922.467 4.42044 -3.47208 0
M  V30 9492 H 914.618 0.854399 -1.94458 0
M  V30 9493 H 916.881 0.437753 -0.840878 0
M  V30 9494 H 916.587 2.12559 -2.80199 0
M  V30 9495 H 916.461 3.40981 -1.61283 0
M  V30 9496 H 918.848 2.84027 -0.800803 0
M  V30 9497 H 918.929 1.56427 -2.02396 0
M  V30 9498 H 918.573 3.3183 -3.84515 0
M  V30 9499 H 918.503 4.58345 -2.59283 0
M  V30 9500 H 920.994 3.07166 -2.2013 0
M  V30 9501 H 921.307 5.89667 -4.99512 0
M  V30 9502 H 919.652 5.30753 -4.48694 0
M  V30 9503 H 922.843 3.75513 -2.79477 0
M  V30 9504 H 923.016 5.0435 -4.06859 0
M  V30 9505 N 916.422 0.810101 1.35185 0
M  V30 9506 C 917.669 0.392117 1.98667 0
M  V30 9507 C 917.997 -1.0416 1.64259 0
M  V30 9508 O 917.252 -1.73795 0.899647 0
M  V30 9509 C 917.551 0.526561 3.535 0
M  V30 9510 C 917.217 1.92411 4.07785 0
M  V30 9511 C 915.879 2.30644 4.22323 0
M  V30 9512 C 918.231 2.83827 4.37141 0
M  V30 9513 C 915.559 3.59655 4.63536 0
M  V30 9514 C 917.911 4.12287 4.79794 0
M  V30 9515 C 916.575 4.50515 4.92536 0
M  V30 9516 H 915.845 0.143486 0.726975 0
M  V30 9517 H 918.492 1.03157 1.61341 0
M  V30 9518 H 916.797 -0.19633 3.91308 0
M  V30 9519 H 918.494 0.183871 4.00578 0
M  V30 9520 H 915.084 1.61707 3.96924 0
M  V30 9521 H 919.268 2.55536 4.25459 0
M  V30 9522 H 914.524 3.89117 4.71591 0
M  V30 9523 H 918.698 4.83221 5.01468 0
M  V30 9524 H 916.325 5.50535 5.24229 0
M  V30 9525 N 917.9 -1.47166 0.563914 0
M  V30 9526 C 919.14 -2.04351 0.0448121 0
M  V30 9527 C 919.504 -1.42808 -1.28336 0
M  V30 9528 O 920.705 -1.91079 -1.89056 0
M  V30 9529 C 918.976 -3.57378 -0.0395795 0
M  V30 9530 S 920.535 -4.35898 -0.503833 0
M  V30 9531 H 917.353 -0.710433 0.0283795 0
M  V30 9532 H 919.955 -1.80451 0.752166 0
M  V30 9533 H 918.659 -3.99693 0.931326 0
M  V30 9534 H 918.19 -3.85785 -0.770282 0
M  V30 9535 H 920.205 -4.63852 -1.76225 0
M  V30 9536 N 919.378 -0.300708 -1.54705 0
M  V30 9537 C 920.341 0.562648 -2.22187 0
M  V30 9538 C 921.341 1.06152 -1.20782 0
M  V30 9539 O 922.531 0.957596 -1.45519 0
M  V30 9540 C 919.663 1.77899 -2.908 0
M  V30 9541 H 920.856 -0.0269361 -2.99888 0
M  V30 9542 H 918.409 -0.0515412 -1.56215 0
M  V30 9543 H 919.144 2.40841 -2.17177 0
M  V30 9544 H 918.929 1.42892 -3.65136 0
M  V30 9545 H 920.419 2.39236 -3.42281 0
M  V30 9546 N 920.856 1.57574 -0.0284266 0
M  V30 9547 C 921.806 2.06674 0.962804 0
M  V30 9548 C 922.79 0.967115 1.28591 0
M  V30 9549 O 923.982 1.23068 1.27214 0
M  V30 9550 C 921.111 2.59682 2.24545 0
M  V30 9551 C 920.197 3.76573 1.95073 0
M  V30 9552 N 920.588 4.8721 1.35869 0
M  V30 9553 C 918.886 3.85046 2.25068 0
M  V30 9554 C 919.587 5.68436 1.23514 0
M  V30 9555 N 918.563 5.15323 1.73041 0
M  V30 9556 H 922.365 2.89615 0.500013 0
M  V30 9557 H 919.879 1.61437 0.176604 0
M  V30 9558 H 921.876 2.93148 2.96428 0
M  V30 9559 H 920.536 1.7817 2.71451 0
M  V30 9560 H 921.547 5.07477 1.03379 0
M  V30 9561 H 918.224 3.14439 2.74653 0
M  V30 9562 H 919.614 6.67387 0.777403 0
M  V30 9563 N 922.334 -0.244713 1.55689 0
M  V30 9564 C 923.244 -1.32447 1.93636 0
M  V30 9565 C 924.26 -1.52541 0.837086 0
M  V30 9566 O 925.436 -1.66121 1.13867 0
M  V30 9567 C 922.501 -2.65864 2.22525 0
M  V30 9568 C 921.562 -2.54273 3.45896 0
M  V30 9569 C 920.795 -3.81327 3.73397 0
M  V30 9570 O 921.018 -4.83307 3.02936 0
M  V30 9571 O 919.952 -3.79829 4.66919 0
M  V30 9572 H 923.778 -1.03255 2.85608 0
M  V30 9573 H 921.363 -0.445652 1.42598 0
M  V30 9574 H 923.245 -3.447 2.42404 0
M  V30 9575 H 921.92 -2.94784 1.33731 0
M  V30 9576 H 920.827 -1.73715 3.31321 0
M  V30 9577 H 922.16 -2.30297 4.34999 0
M  V30 9578 N 923.813 -1.49104 -0.510467 0
M  V30 9579 C 924.761 -1.65547 -1.63392 0
M  V30 9580 C 925.755 -0.521522 -1.61172 0
M  V30 9581 O 926.961 -0.700865 -1.65795 0
M  V30 9582 H 923.336 -0.521843 -0.541464 0
M  V30 9583 H 925.307 -2.59864 -1.46673 0
M  V30 9584 C 924.056 -1.73051 -3.01577 0
M  V30 9585 H 923.379 -2.59676 -3.03987 0
M  V30 9586 H 924.819 -1.88594 -3.79748 0
M  V30 9587 C 923.278 -0.47328 -3.33559 0
M  V30 9588 O 923.808 0.405239 -3.99651 0
M  V30 9589 N 922.014 -0.339074 -2.88615 0
M  V30 9590 H 921.561 -1.05497 -2.35007 0
M  V30 9591 H 921.519 0.501061 -3.10382 0
M  V30 9592 N 925.291 0.760815 -1.38019 0
M  V30 9593 C 926.531 1.53264 -1.35239 0
M  V30 9594 C 926.895 1.91908 0.0595038 0
M  V30 9595 O 928.096 2.67962 0.212122 0
M  V30 9596 C 926.367 2.75643 -2.27499 0
M  V30 9597 S 927.926 3.6559 -2.42672 0
M  V30 9598 H 924.744 0.52457 -0.479945 0
M  V30 9599 H 927.346 0.893737 -1.73875 0
M  V30 9600 H 926.05 2.4535 -3.28986 0
M  V30 9601 H 925.581 3.44483 -1.89987 0
M  V30 9602 H 927.596 4.68124 -1.64542 0
M  V30 9603 N 926.769 1.22769 0.988202 0
M  V30 9604 C 927.994 1.08239 1.76915 0
M  V30 9605 C 928.419 -0.362519 1.84574 0
M  V30 9606 O 927.777 -1.26202 1.30165 0
M  V30 9607 C 927.825 1.70363 3.17819 0
M  V30 9608 O 926.929 0.960484 4.01059 0
M  V30 9609 H 926.27 0.379872 0.544604 0
M  V30 9610 H 928.8 1.62663 1.24104 0
M  V30 9611 H 928.81 1.7528 3.6843 0
M  V30 9612 H 927.485 2.75505 3.1156 0
M  V30 9613 H 926.062 0.987667 3.59582 0
M  V30 9614 N 928.247 -1.18576 1.03814 0
M  V30 9615 C 929.21 -2.2033 0.63146 0
M  V30 9616 C 930.21 -1.57787 -0.309816 0
M  V30 9617 O 931.4 -1.73938 -0.0955598 0
M  V30 9618 C 928.532 -3.40818 -0.0745963 0
M  V30 9619 H 929.725 -2.57824 1.53189 0
M  V30 9620 H 927.278 -1.32416 0.830398 0
M  V30 9621 H 928.013 -3.08853 -0.988947 0
M  V30 9622 H 927.798 -3.87453 0.6019 0
M  V30 9623 H 929.288 -4.16166 -0.345727 0
M  V30 9624 N 929.725 -0.817259 -1.34754 0
M  V30 9625 C 931.002 -0.325468 -1.92873 0
M  V30 9626 C 931.382 1.18643 -1.74606 0
M  V30 9627 O 930.73 1.9909 -1.1214 0
M  V30 9628 C 930.94 -0.74858 -3.40877 0
M  V30 9629 C 932.288 -0.744165 -4.18028 0
M  V30 9630 O 933.312 -0.690799 -3.49437 0
M  V30 9631 O 932.171 -0.812207 -5.40431 0
M  V30 9632 H 929.265 -0.0876397 -0.822343 0
M  V30 9633 H 931.811 -0.901671 -1.43764 0
M  V30 9634 H 930.583 -1.79017 -3.47949 0
M  V30 9635 H 930.206 -0.147764 -3.97325 0
M  V30 9636 N 931.203 1.46865 -0.571711 0
M  V30 9637 C 932.133 2.3298 0.155795 0
M  V30 9638 C 933.114 1.44678 0.894553 0
M  V30 9639 O 934.299 1.73513 0.872176 0
M  V30 9640 C 931.429 3.26745 1.17708 0
M  V30 9641 C 930.383 4.24401 0.553863 0
M  V30 9642 C 929.709 5.07595 1.68083 0
M  V30 9643 C 931.009 5.19884 -0.501827 0
M  V30 9644 H 932.703 2.94056 -0.563176 0
M  V30 9645 H 930.249 1.41402 -0.27228 0
M  V30 9646 H 932.202 3.85838 1.6943 0
M  V30 9647 H 930.926 2.63753 1.92618 0
M  V30 9648 H 929.585 3.66554 0.057815 0
M  V30 9649 H 929.233 4.40996 2.41933 0
M  V30 9650 H 928.933 5.73722 1.26953 0
M  V30 9651 H 930.457 5.6955 2.20103 0
M  V30 9652 H 931.871 5.73257 -0.0701057 0
M  V30 9653 H 930.268 5.94293 -0.832815 0
M  V30 9654 H 931.338 4.64482 -1.39229 0
M  V30 9655 N 932.681 0.308908 1.54543 0
M  V30 9656 C 933.613 -0.597453 2.21276 0
M  V30 9657 C 934.626 -1.09137 1.20801 0
M  V30 9658 O 935.815 -1.00747 1.47351 0
M  V30 9659 C 932.915 -1.83085 2.85189 0
M  V30 9660 C 932.088 -1.4781 4.11669 0
M  V30 9661 C 931.147 -2.56748 4.59311 0
M  V30 9662 O 930.173 -2.21507 5.24331 0
M  V30 9663 N 931.375 -3.87427 4.32297 0
M  V30 9664 H 934.14 -0.0261183 2.99689 0
M  V30 9665 H 931.701 0.131456 1.61365 0
M  V30 9666 H 933.693 -2.55326 3.13992 0
M  V30 9667 H 932.263 -2.31039 2.1057 0
M  V30 9668 H 931.483 -0.587974 3.8979 0
M  V30 9669 H 932.771 -1.2179 4.94009 0
M  V30 9670 H 932.169 -4.18863 3.80224 0
M  V30 9671 H 930.726 -4.55942 4.6579 0
M  V30 9672 N 934.159 -1.57557 0.0367827 0
M  V30 9673 C 935.405 -1.92399 -0.641133 0
M  V30 9674 C 935.738 -0.914191 -1.71336 0
M  V30 9675 O 935.013 0.0619616 -1.94401 0
M  V30 9676 C 935.296 -3.37689 -1.25052 0
M  V30 9677 C 935.149 -4.4941 -0.187326 0
M  V30 9678 C 936.468 -3.8309 -2.16634 0
M  V30 9679 H 933.587 -0.699666 -0.231597 0
M  V30 9680 H 936.229 -1.89759 0.0956083 0
M  V30 9681 H 934.379 -3.40069 -1.87843 0
M  V30 9682 H 936.051 -4.59161 0.443736 0
M  V30 9683 H 934.294 -4.31065 0.486313 0
M  V30 9684 H 934.965 -5.48119 -0.653459 0
M  V30 9685 H 937.441 -3.82494 -1.63821 0
M  V30 9686 H 936.317 -4.85429 -2.56222 0
M  V30 9687 H 936.578 -3.19028 -3.06062 0
M  V30 9688 N 935.637 0.236453 -1.55816 0
M  V30 9689 C 936.862 0.98449 -1.82545 0
M  V30 9690 C 937.287 1.77755 -0.615206 0
M  V30 9691 O 936.645 1.75982 0.435895 0
M  V30 9692 C 936.693 1.88973 -3.07118 0
M  V30 9693 O 935.797 2.98298 -2.84766 0
M  V30 9694 H 935.138 0.279577 -0.602273 0
M  V30 9695 H 937.668 0.254277 -2.03014 0
M  V30 9696 H 937.678 2.3024 -3.36829 0
M  V30 9697 H 936.353 1.30671 -3.94839 0
M  V30 9698 H 934.93 2.61085 -2.6625 0
M  V30 9699 N 937.115 1.49373 0.502552 0
M  V30 9700 C 938.078 1.65413 1.58654 0
M  V30 9701 C 939.078 0.526003 1.51953 0
M  V30 9702 O 940.268 0.792421 1.55133 0
M  V30 9703 C 937.4 1.65005 2.98306 0
M  V30 9704 H 938.593 2.62095 1.45762 0
M  V30 9705 H 936.146 1.38381 0.726672 0
M  V30 9706 H 936.881 0.699014 3.16677 0
M  V30 9707 H 936.666 2.46931 3.04578 0
M  V30 9708 H 938.156 1.79477 3.77065 0
M  V30 9709 N 938.594 -0.753485 1.38421 0
M  V30 9710 C 939.541 -1.86723 1.35659 0
M  V30 9711 C 940.511 -1.64648 0.219121 0
M  V30 9712 O 941.696 -1.86313 0.411366 0
M  V30 9713 C 938.836 -3.24023 1.18758 0
M  V30 9714 C 937.949 -3.57928 2.41892 0
M  V30 9715 C 937.084 -4.84532 2.17721 0
M  V30 9716 C 936.123 -5.11224 3.36626 0
M  V30 9717 N 935.26 -6.29023 3.11889 0
M  V30 9718 H 940.1 -1.88419 2.30873 0
M  V30 9719 H 937.637 -0.920934 1.14705 0
M  V30 9720 H 939.595 -4.03252 1.06974 0
M  V30 9721 H 938.225 -3.21654 0.27182 0
M  V30 9722 H 937.277 -2.73541 2.64347 0
M  V30 9723 H 938.589 -3.73581 3.30513 0
M  V30 9724 H 937.743 -5.71704 2.03074 0
M  V30 9725 H 936.482 -4.71018 1.26465 0
M  V30 9726 H 935.487 -4.2252 3.51791 0
M  V30 9727 H 936.712 -5.26635 4.28757 0
M  V30 9728 H 934.658 -6.16832 2.2328 0
M  V30 9729 H 934.575 -6.45177 3.9406 0
M  V30 9730 H 935.843 -7.19083 3.00898 0
M  V30 9731 N 940.072 -1.23292 -0.981677 0
M  V30 9732 C 941.321 -1.05832 -1.71705 0
M  V30 9733 C 941.634 0.40514 -1.91358 0
M  V30 9734 O 942.84 0.699645 -2.6233 0
M  V30 9735 C 941.296 -1.84532 -3.08992 0
M  V30 9736 C 940.904 -3.35199 -2.9723 0
M  V30 9737 C 942.648 -1.75557 -3.86497 0
M  V30 9738 C 940.555 -4.06296 -4.29741 0
M  V30 9739 H 939.485 -0.39241 -0.64384 0
M  V30 9740 H 942.136 -1.47247 -1.09502 0
M  V30 9741 H 940.518 -1.35923 -3.71942 0
M  V30 9742 H 941.692 -3.91286 -2.43377 0
M  V30 9743 H 940.007 -3.44973 -2.332 0
M  V30 9744 H 942.604 -2.25989 -4.84596 0
M  V30 9745 H 942.947 -0.718101 -4.1006 0
M  V30 9746 H 943.48 -2.21771 -3.30246 0
M  V30 9747 H 940.219 -5.10344 -4.11375 0
M  V30 9748 H 939.739 -3.54997 -4.83464 0
M  V30 9749 H 941.418 -4.12519 -4.98434 0
M  V30 9750 N 941.55 1.18024 -1.04442 0
M  V30 9751 C 942.798 1.87727 -0.74854 0
M  V30 9752 C 943.119 1.80975 0.726156 0
M  V30 9753 O 942.389 1.23061 1.52423 0
M  V30 9754 H 940.969 0.694974 -0.273897 0
M  V30 9755 H 943.631 1.43213 -1.32197 0
M  V30 9756 H 942.727 2.93665 -1.05674 0
M  V30 9757 N 943.028 0.824394 1.34319 0
M  V30 9758 C 944.275 0.413167 1.9824 0
M  V30 9759 C 944.603 -1.02412 1.65354 0
M  V30 9760 O 943.858 -1.72831 0.91803 0
M  V30 9761 C 944.157 0.564024 3.52921 0
M  V30 9762 C 943.823 1.96725 4.05722 0
M  V30 9763 C 942.485 2.35111 4.19853 0
M  V30 9764 C 944.837 2.88447 4.34106 0
M  V30 9765 C 942.165 3.64551 4.59695 0
M  V30 9766 C 944.517 4.17353 4.75394 0
M  V30 9767 C 943.181 4.55714 4.8773 0
M  V30 9768 H 942.451 0.151188 0.725412 0
M  V30 9769 H 945.098 1.04863 1.60238 0
M  V30 9770 H 943.403 -0.154816 3.91494 0
M  V30 9771 H 945.1 0.226347 4.00361 0
M  V30 9772 H 941.69 1.65908 3.95187 0
M  V30 9773 H 945.874 2.60034 4.22725 0
M  V30 9774 H 941.13 3.94097 4.67437 0
M  V30 9775 H 945.304 4.88512 4.96315 0
M  V30 9776 H 942.931 5.56064 5.1836 0
M  V30 9777 N 944.506 -1.46559 0.579492 0
M  V30 9778 C 945.436 -2.33059 -0.143437 0
M  V30 9779 C 946.417 -1.4515 -0.886868 0
M  V30 9780 O 947.602 -1.73973 -0.862961 0
M  V30 9781 C 944.732 -3.27364 -1.15973 0
M  V30 9782 C 943.686 -4.24689 -0.531348 0
M  V30 9783 C 943.012 -5.08479 -1.65388 0
M  V30 9784 C 944.312 -5.1961 0.529391 0
M  V30 9785 H 946.006 -2.93753 0.578762 0
M  V30 9786 H 943.552 -1.41256 0.279775 0
M  V30 9787 H 945.505 -3.86732 -1.67382 0
M  V30 9788 H 944.229 -2.64771 -1.91217 0
M  V30 9789 H 942.888 -3.6658 -0.0383749 0
M  V30 9790 H 942.536 -4.42273 -2.3959 0
M  V30 9791 H 942.236 -5.74387 -1.23909 0
M  V30 9792 H 943.76 -5.70709 -2.17079 0
M  V30 9793 H 945.174 -5.73212 0.100506 0
M  V30 9794 H 943.571 -5.93843 0.86432 0
M  V30 9795 H 944.641 -4.63737 1.4169 0
M  V30 9796 N 945.984 -0.3171 -1.54377 0
M  V30 9797 C 946.931 0.551782 -2.24107 0
M  V30 9798 C 947.901 1.11681 -1.22949 0
M  V30 9799 O 949.086 1.15836 -1.51614 0
M  V30 9800 C 946.226 1.70997 -2.99756 0
M  V30 9801 C 945.339 1.17479 -4.15719 0
M  V30 9802 C 944.474 2.29815 -4.78914 0
M  V30 9803 C 943.513 1.73513 -5.86992 0
M  V30 9804 N 942.65 2.79485 -6.44075 0
M  V30 9805 H 947.49 -0.049431 -2.97959 0
M  V30 9806 H 945.027 -0.0361658 -1.47056 0
M  V30 9807 H 946.985 2.39141 -3.41859 0
M  V30 9808 H 945.615 2.28257 -2.28251 0
M  V30 9809 H 944.667 0.385109 -3.78446 0
M  V30 9810 H 945.979 0.72276 -4.93536 0
M  V30 9811 H 945.133 3.05875 -5.23952 0
M  V30 9812 H 943.872 2.78352 -4.00464 0
M  V30 9813 H 942.877 0.959475 -5.41363 0
M  V30 9814 H 944.102 1.2586 -6.67335 0
M  V30 9815 H 942.048 3.27325 -5.68502 0
M  V30 9816 H 941.965 2.38825 -7.17286 0
M  V30 9817 H 943.233 3.55394 -6.93769 0
M  V30 9818 N 947.462 1.57535 -0.0451378 0
M  V30 9819 C 948.873 1.80116 0.491426 0
M  V30 9820 C 949.224 0.956846 1.71286 0
M  V30 9821 O 948.349 0.17173 2.15718 0
M  V30 9822 C 948.944 3.26674 0.898315 0
M  V30 9823 C 947.503 3.50194 1.37989 0
M  V30 9824 C 946.65 2.75054 0.352202 0
M  V30 9825 H 949.601 1.56368 -0.271065 0
M  V30 9826 H 949.622 3.37263 1.76164 0
M  V30 9827 H 949.134 3.88099 0.009141 0
M  V30 9828 H 947.235 2.94041 2.28846 0
M  V30 9829 H 947.348 4.58909 1.37622 0
M  V30 9830 H 945.712 2.4101 0.823784 0
M  V30 9831 H 946.495 3.39203 -0.528782 0
M  V30 9832 N 948.94 -0.228186 1.55939 0
M  V30 9833 C 949.89 -1.28607 1.88267 0
M  V30 9834 C 950.874 -1.42606 0.745139 0
M  V30 9835 O 952.066 -1.45533 1.00743 0
M  V30 9836 C 949.195 -2.63783 2.19712 0
M  V30 9837 C 948.281 -2.53712 3.3984 0
M  V30 9838 N 948.672 -2.13287 4.58631 0
M  V30 9839 C 946.97 -2.84686 3.43322 0
M  V30 9840 C 947.671 -2.14305 5.40785 0
M  V30 9841 N 946.647 -2.54536 4.80325 0
M  V30 9842 H 950.449 -0.964307 2.7763 0
M  V30 9843 H 947.963 -0.436769 1.56416 0
M  V30 9844 H 949.96 -3.40152 2.41044 0
M  V30 9845 H 948.62 -2.9681 1.31657 0
M  V30 9846 H 949.631 -1.84525 4.83912 0
M  V30 9847 H 946.308 -3.22129 2.65592 0
M  V30 9848 H 947.698 -1.85231 6.45863 0
M  V30 9849 N 950.418 -1.49637 -0.494624 0
M  V30 9850 C 951.328 -1.69522 -1.62172 0
M  V30 9851 C 952.344 -0.577894 -1.64123 0
M  V30 9852 O 953.52 -0.853382 -1.82426 0
M  V30 9853 C 950.585 -1.7633 -2.9851 0
M  V30 9854 C 949.646 -2.99944 -3.07135 0
M  V30 9855 C 948.879 -3.06419 -4.36971 0
M  V30 9856 O 949.102 -2.20312 -5.26136 0
M  V30 9857 O 948.036 -3.9894 -4.507 0
M  V30 9858 H 951.862 -2.65017 -1.48324 0
M  V30 9859 H 949.447 -1.33454 -0.671603 0
M  V30 9860 H 951.329 -1.83125 -3.7953 0
M  V30 9861 H 950.004 -0.840155 -3.12607 0
M  V30 9862 H 948.911 -2.98664 -2.2528 0
M  V30 9863 H 950.244 -3.9176 -2.97968 0
M  V30 9864 N 951.896 0.746133 -1.38819 0
M  V30 9865 C 952.844 1.88137 -1.36774 0
M  V30 9866 C 953.838 1.67508 -0.252495 0
M  V30 9867 O 955.044 1.74985 -0.421935 0
M  V30 9868 H 951.419 0.619116 -0.426849 0
M  V30 9869 H 953.39 1.86978 -2.32555 0
M  V30 9870 C 952.139 3.25703 -1.21708 0
M  V30 9871 H 951.462 3.42168 -2.06788 0
M  V30 9872 H 952.902 4.05361 -1.24332 0
M  V30 9873 C 951.361 3.36816 0.0754257 0
M  V30 9874 O 951.891 3.87742 1.04972 0
M  V30 9875 N 950.097 2.90287 0.134761 0
M  V30 9876 H 949.644 2.49034 -0.658779 0
M  V30 9877 H 949.602 2.98103 0.999109 0
M  V30 9878 N 953.375 1.23811 0.975125 0
M  V30 9879 C 954.322 1.02394 2.06843 0
M  V30 9880 C 955.292 -0.060337 1.6599 0
M  V30 9881 O 956.477 0.0928187 1.90574 0
M  V30 9882 C 953.617 0.626882 3.39359 0
M  V30 9883 C 952.73 1.78385 3.9345 0
M  V30 9884 C 951.865 1.33307 5.14201 0
M  V30 9885 C 950.904 2.46045 5.60471 0
M  V30 9886 N 950.041 2.01888 6.72448 0
M  V30 9887 H 954.881 1.95973 2.24496 0
M  V30 9888 H 952.418 0.976206 1.10039 0
M  V30 9889 H 954.376 0.377742 4.15486 0
M  V30 9890 H 953.006 -0.271907 3.21653 0
M  V30 9891 H 952.058 2.14685 3.14029 0
M  V30 9892 H 953.37 2.63122 4.23755 0
M  V30 9893 H 952.524 1.04237 5.97678 0
M  V30 9894 H 951.263 0.456143 4.85562 0
M  V30 9895 H 950.268 2.75884 4.75571 0
M  V30 9896 H 951.493 3.34283 5.91127 0
M  V30 9897 H 949.439 1.16583 6.45558 0
M  V30 9898 H 949.356 2.80182 7.02164 0
M  V30 9899 H 950.624 1.75937 7.59386 0
M  V30 9900 N 954.853 -1.17469 1.05066 0
M  V30 9901 C 956.081 -1.9162 0.780334 0
M  V30 9902 C 956.496 -1.76745 -0.663817 0
M  V30 9903 O 955.853 -1.10377 -1.45338 0
M  V30 9904 C 955.904 -3.42723 1.14992 0
M  V30 9905 O 955.625 -3.57139 2.53739 0
M  V30 9906 C 957.126 -4.33952 0.905549 0
M  V30 9907 H 954.346 -0.608022 0.283814 0
M  V30 9908 H 956.89 -1.4897 1.401 0
M  V30 9909 H 955.045 -3.83124 0.57403 0
M  V30 9910 H 955.459 -4.5075 2.68189 0
M  V30 9911 H 956.933 -5.38487 1.21391 0
M  V30 9912 H 957.41 -4.38911 -0.159295 0
M  V30 9913 H 958.016 -3.99263 1.46522 0
M  V30 9914 N 956.331 -0.831506 -1.3388 0
M  V30 9915 C 957.561 -0.436292 -2.01941 0
M  V30 9916 C 957.969 0.964979 -1.62741 0
M  V30 9917 O 957.312 1.63733 -0.832894 0
M  V30 9918 C 957.374 -0.468811 -3.5643 0
M  V30 9919 C 957.038 -1.82491 -4.18982 0
M  V30 9920 C 958.035 -2.78705 -4.38885 0
M  V30 9921 C 955.72 -2.11574 -4.55568 0
M  V30 9922 C 957.714 -4.02168 -4.94509 0
M  V30 9923 C 955.401 -3.35296 -5.10901 0
M  V30 9924 C 956.399 -4.3041 -5.30317 0
M  V30 9925 O 956.087 -5.51944 -5.84477 0
M  V30 9926 H 955.819 -0.172335 -0.653664 0
M  V30 9927 H 958.373 -1.12354 -1.71947 0
M  V30 9928 H 956.603 0.275179 -3.8572 0
M  V30 9929 H 958.292 -0.0924518 -4.05795 0
M  V30 9930 H 959.058 -2.57534 -4.10976 0
M  V30 9931 H 954.937 -1.38338 -4.39754 0
M  V30 9932 H 958.481 -4.76418 -5.09579 0
M  V30 9933 H 954.378 -3.56326 -5.3824 0
M  V30 9934 H 955.146 -5.53582 -6.029 0
M  V30 9935 N 957.809 1.4625 -0.587256 0
M  V30 9936 C 958.739 2.33132 0.131076 0
M  V30 9937 C 959.72 1.45619 0.879158 0
M  V30 9938 O 960.905 1.74428 0.853723 0
M  V30 9939 C 958.035 3.27975 1.14236 0
M  V30 9940 C 956.989 4.24965 0.508819 0
M  V30 9941 C 956.315 5.09349 1.62689 0
M  V30 9942 C 957.615 5.19322 -0.55694 0
M  V30 9943 H 959.309 2.93442 -0.594333 0
M  V30 9944 H 956.855 1.41106 -0.287263 0
M  V30 9945 H 958.808 3.87614 1.65328 0
M  V30 9946 H 957.532 2.65781 1.8981 0
M  V30 9947 H 956.191 3.66595 0.0189337 0
M  V30 9948 H 955.839 4.43537 2.37242 0
M  V30 9949 H 955.539 5.75036 1.20861 0
M  V30 9950 H 957.063 5.71852 2.14049 0
M  V30 9951 H 958.477 5.73151 -0.130903 0
M  V30 9952 H 956.874 5.93376 -0.895801 0
M  V30 9953 H 957.944 4.62979 -1.44148 0
M  V30 9954 N 959.287 0.325282 1.54207 0
M  V30 9955 C 960.25 -0.527228 2.23054 0
M  V30 9956 C 961.25 -1.04217 1.22456 0
M  V30 9957 O 962.44 -0.934325 1.47024 0
M  V30 9958 C 959.572 -1.7325 2.93594 0
M  V30 9959 H 960.765 0.0746423 2.99807 0
M  V30 9960 H 958.318 0.0763872 1.56113 0
M  V30 9961 H 959.053 -2.37356 2.20981 0
M  V30 9962 H 958.838 -1.37065 3.67363 0
M  V30 9963 H 960.328 -2.3376 3.46043 0
M  V30 9964 N 960.765 -1.57509 0.0534917 0
M  V30 9965 C 962.011 -1.93068 -0.62069 0
M  V30 9966 C 962.344 -0.932313 -1.70357 0
M  V30 9967 O 961.619 0.0413393 -1.94456 0
M  V30 9968 C 961.902 -3.38997 -1.21463 0
M  V30 9969 C 961.755 -4.49583 -0.13965 0
M  V30 9970 C 963.074 -3.85366 -2.12558 0
M  V30 9971 H 960.193 -0.702083 -0.224163 0
M  V30 9972 H 962.835 -1.89647 0.115729 0
M  V30 9973 H 960.985 -3.42043 -1.84226 0
M  V30 9974 H 962.657 -4.58664 0.492411 0
M  V30 9975 H 960.9 -4.30525 0.532006 0
M  V30 9976 H 961.571 -5.48781 -0.595287 0
M  V30 9977 H 964.047 -3.8421 -1.59755 0
M  V30 9978 H 962.923 -4.8812 -2.51058 0
M  V30 9979 H 963.184 -3.22256 -3.02661 0
M  V30 9980 N 962.243 0.219913 -1.56058 0
M  V30 9981 C 963.491 0.942199 -1.78793 0
M  V30 9982 C 963.812 1.84804 -0.622284 0
M  V30 9983 O 963.082 1.9255 0.360735 0
M  V30 9984 H 961.662 0.350895 -0.659455 0
M  V30 9985 H 964.324 0.231376 -1.93522 0
M  V30 9986 H 963.42 1.54804 -2.71002 0
M  V30 9987 N 963.721 1.49897 0.486681 0
M  V30 9988 C 964.946 1.64106 1.26823 0
M  V30 9989 C 965.371 0.317967 1.85393 0
M  V30 9990 O 964.729 -0.71626 1.66551 0
M  V30 9991 C 964.777 2.72301 2.36399 0
M  V30 9992 O 963.881 2.32469 3.40634 0
M  V30 9993 H 963.222 0.548794 0.373793 0
M  V30 9994 H 965.752 1.96177 0.581017 0
M  V30 9995 H 965.762 2.94906 2.81948 0
M  V30 9996 H 964.437 3.68335 1.93137 0
M  V30 9997 H 963.014 2.20251 3.00905 0
M  V30 9998 N 965.199 -0.738761 1.39212 0
M  V30 9999 C 966.132 -1.86135 1.32018 0
M  V30 10000 C 967.11 -1.61432 0.194512 0
M  V30 10001 O 968.294 -1.84746 0.374331 0
M  V30 10002 C 965.421 -3.22044 1.04907 0
M  V30 10003 C 964.467 -3.65612 2.19613 0
M  V30 10004 S 965.3 -3.75418 3.81866 0
M  V30 10005 C 966.456 -5.14122 3.56972 0
M  V30 10006 H 966.689 -1.91954 2.27027 0
M  V30 10007 H 964.222 -0.903244 1.25223 0
M  V30 10008 H 966.18 -4.00524 0.899491 0
M  V30 10009 H 964.841 -3.13886 0.115918 0
M  V30 10010 H 964.034 -4.64232 1.96227 0
M  V30 10011 H 963.636 -2.94327 2.30755 0
M  V30 10012 H 965.928 -6.00339 3.14005 0
M  V30 10013 H 966.871 -5.42535 4.55039 0
M  V30 10014 H 967.279 -4.8362 2.91156 0
M  V30 10015 N 966.677 -1.24326 -0.968545 0
M  V30 10016 C 967.624 -1.0349 -2.06297 0
M  V30 10017 C 968.594 0.0515333 -1.6602 0
M  V30 10018 O 969.779 -0.102924 -1.90522 0
M  V30 10019 C 966.919 -0.64487 -3.39021 0
M  V30 10020 C 966.032 -1.80469 -3.92498 0
M  V30 10021 C 965.167 -1.36032 -5.13487 0
M  V30 10022 C 964.206 -2.49014 -5.59159 0
M  V30 10023 N 963.343 -2.05451 -6.71367 0
M  V30 10024 H 968.183 -1.97161 -2.23454 0
M  V30 10025 H 965.72 -0.982028 -1.0952 0
M  V30 10026 H 967.678 -0.399771 -4.1528 0
M  V30 10027 H 966.308 0.254845 -3.21792 0
M  V30 10028 H 965.36 -2.16348 -3.12886 0
M  V30 10029 H 966.672 -2.65365 -4.22354 0
M  V30 10030 H 965.826 -1.07405 -5.97117 0
M  V30 10031 H 964.565 -0.481887 -4.85313 0
M  V30 10032 H 963.57 -2.78402 -4.74102 0
M  V30 10033 H 964.795 -3.37413 -5.89346 0
M  V30 10034 H 962.741 -1.20004 -6.4493 0
M  V30 10035 H 962.658 -2.83901 -7.00668 0
M  V30 10036 H 963.926 -1.79962 -7.58442 0
M  V30 10037 N 968.156 1.1691 -1.05688 0
M  V30 10038 C 969.384 1.91204 -0.790485 0
M  V30 10039 C 969.799 1.77095 0.654434 0
M  V30 10040 O 969.156 1.11146 1.44751 0
M  V30 10041 C 969.207 3.42108 -1.16808 0
M  V30 10042 O 968.928 3.55788 -2.55629 0
M  V30 10043 C 970.429 4.33466 -0.92855 0
M  V30 10044 H 967.649 0.606508 -0.287035 0
M  V30 10045 H 970.193 1.48225 -1.40888 0
M  V30 10046 H 968.348 3.82814 -0.59434 0
M  V30 10047 H 968.762 4.49321 -2.70575 0
M  V30 10048 H 970.236 5.37836 -1.24245 0
M  V30 10049 H 970.713 4.38989 0.136016 0
M  V30 10050 H 971.319 3.98481 -1.48638 0
M  V30 10051 N 969.634 0.838594 1.33437 0
M  V30 10052 C 970.564 0.286672 2.31734 0
M  V30 10053 C 971.545 -0.605451 1.5896 0
M  V30 10054 O 972.73 -0.529059 1.86854 0
M  V30 10055 C 969.86 -0.539311 3.43087 0
M  V30 10056 C 968.814 0.256997 4.27228 0
M  V30 10057 C 968.14 -0.692718 5.30194 0
M  V30 10058 C 969.44 1.47391 5.01072 0
M  V30 10059 H 971.134 1.10798 2.78144 0
M  V30 10060 H 968.68 0.534235 1.33723 0
M  V30 10061 H 970.633 -0.935724 4.1088 0
M  V30 10062 H 969.357 -1.39383 2.95364 0
M  V30 10063 H 968.016 0.634967 3.61059 0
M  V30 10064 H 967.664 -1.54363 4.78729 0
M  V30 10065 H 967.364 -0.164023 5.87371 0
M  V30 10066 H 968.888 -1.08665 6.00853 0
M  V30 10067 H 970.302 1.15067 5.61634 0
M  V30 10068 H 968.699 1.93937 5.67898 0
M  V30 10069 H 969.769 2.24382 4.29861 0
M  V30 10070 N 971.112 -1.45937 0.595003 0
M  V30 10071 C 972.045 -2.27491 -0.179775 0
M  V30 10072 C 973.023 -1.36376 -0.88545 0
M  V30 10073 O 974.207 -1.65797 -0.896863 0
M  V30 10074 C 971.334 -3.1443 -1.25902 0
M  V30 10075 C 970.38 -4.21396 -0.657847 0
M  V30 10076 S 971.213 -5.32923 0.524689 0
M  V30 10077 C 972.369 -6.2343 -0.555452 0
M  V30 10078 H 972.602 -2.92855 0.512173 0
M  V30 10079 H 970.135 -1.49595 0.382199 0
M  V30 10080 H 972.093 -3.65081 -1.87687 0
M  V30 10081 H 970.754 -2.48356 -1.92297 0
M  V30 10082 H 969.947 -4.82102 -1.46948 0
M  V30 10083 H 969.549 -3.73822 -0.115403 0
M  V30 10084 H 971.841 -6.62066 -1.43789 0
M  V30 10085 H 972.784 -7.08098 0.0151431 0
M  V30 10086 H 973.192 -5.57831 -0.865125 0
M  V30 10087 N 972.59 -0.333456 -1.54032 0
M  V30 10088 C 973.52 0.52051 -2.27625 0
M  V30 10089 C 974.501 1.1111 -1.28797 0
M  V30 10090 O 975.686 1.13438 -1.57625 0
M  V30 10091 C 972.816 1.67663 -3.04149 0
M  V30 10092 C 971.77 1.21487 -4.10396 0
M  V30 10093 C 971.096 2.45872 -4.74817 0
M  V30 10094 C 972.396 0.322603 -5.21303 0
M  V30 10095 H 974.09 -0.0933823 -2.99254 0
M  V30 10096 H 971.636 -0.0463526 -1.43925 0
M  V30 10097 H 973.589 2.28041 -3.54366 0
M  V30 10098 H 972.313 2.31727 -2.30153 0
M  V30 10099 H 970.972 0.633966 -3.61077 0
M  V30 10100 H 970.62 3.0832 -3.97426 0
M  V30 10101 H 970.32 2.15662 -5.46593 0
M  V30 10102 H 971.844 3.06994 -5.27814 0
M  V30 10103 H 973.258 0.832942 -5.67217 0
M  V30 10104 H 971.655 0.112843 -5.99994 0
M  V30 10105 H 972.725 -0.643954 -4.80605 0
M  V30 10106 N 974.068 1.57479 -0.061844 0
M  V30 10107 C 975.016 2.13346 0.926629 0
M  V30 10108 C 976.01 1.06787 1.31502 0
M  V30 10109 O 977.216 1.25181 1.29343 0
M  V30 10110 H 973.591 0.682046 0.316729 0
M  V30 10111 H 975.562 2.95279 0.430424 0
M  V30 10112 C 974.311 2.70198 2.18834 0
M  V30 10113 H 973.634 3.51859 1.89829 0
M  V30 10114 H 975.074 3.12897 2.86132 0
M  V30 10115 C 973.533 1.64481 2.9402 0
M  V30 10116 O 974.063 1.0639 3.87355 0
M  V30 10117 N 972.269 1.35749 2.56944 0
M  V30 10118 H 971.816 1.83177 1.81119 0
M  V30 10119 H 971.774 0.652469 3.07555 0
M  V30 10120 N 975.546 -0.211634 1.56173 0
M  V30 10121 C 976.792 -0.935935 1.79911 0
M  V30 10122 C 977.125 -1.83589 0.633155 0
M  V30 10123 O 976.4 -1.91004 -0.367132 0
M  V30 10124 C 976.683 -1.76638 3.13801 0
M  V30 10125 C 976.536 -0.892259 4.40861 0
M  V30 10126 C 977.855 -2.74224 3.44223 0
M  V30 10127 H 974.974 -0.338822 0.654499 0
M  V30 10128 H 977.616 -0.20422 1.88899 0
M  V30 10129 H 975.766 -2.39021 3.0627 0
M  V30 10130 H 977.438 -0.284407 4.60422 0
M  V30 10131 H 975.681 -0.198145 4.33347 0
M  V30 10132 H 976.352 -1.50793 5.31004 0
M  V30 10133 H 978.828 -2.21975 3.51946 0
M  V30 10134 H 977.704 -3.29424 4.39057 0
M  V30 10135 H 977.965 -3.52455 2.66885 0
M  V30 10136 N 977.024 -1.50153 -0.478725 0
M  V30 10137 C 978.249 -1.64776 -1.2595 0
M  V30 10138 C 978.674 -0.327794 -1.85222 0
M  V30 10139 O 978.032 0.707418 -1.66929 0
M  V30 10140 C 978.08 -2.73551 -2.34952 0
M  V30 10141 O 977.184 -2.34273 -3.39397 0
M  V30 10142 H 976.525 -0.550769 -0.370877 0
M  V30 10143 H 979.055 -1.96482 -0.570605 0
M  V30 10144 H 979.065 -2.96397 -2.8038 0
M  V30 10145 H 977.74 -3.69354 -1.91181 0
M  V30 10146 H 976.317 -2.21844 -2.99733 0
M  V30 10147 N 978.502 0.731368 -1.39602 0
M  V30 10148 C 979.432 1.85855 -1.41351 0
M  V30 10149 C 980.413 1.67839 -0.2764 0
M  V30 10150 O 981.598 1.88104 -0.482747 0
M  V30 10151 C 978.728 3.23644 -1.25983 0
M  V30 10152 C 977.682 3.56304 -2.37132 0
M  V30 10153 C 977.008 4.93069 -2.0685 0
M  V30 10154 C 978.308 3.58906 -3.79452 0
M  V30 10155 H 980.002 1.84648 -2.3568 0
M  V30 10156 H 977.548 0.886955 -1.13442 0
M  V30 10157 H 979.501 4.02176 -1.25826 0
M  V30 10158 H 978.225 3.25387 -0.281234 0
M  V30 10159 H 976.884 2.80104 -2.36511 0
M  V30 10160 H 976.532 4.91396 -1.0742 0
M  V30 10161 H 976.232 5.15888 -2.81306 0
M  V30 10162 H 977.756 5.73953 -2.0835 0
M  V30 10163 H 979.17 4.27508 -3.81982 0
M  V30 10164 H 977.567 3.93246 -4.53297 0
M  V30 10165 H 978.637 2.58631 -4.10168 0
M  V30 10166 N 979.98 1.24838 0.961938 0
M  V30 10167 C 981.227 1.09151 1.70564 0
M  V30 10168 C 981.555 -0.368719 1.90973 0
M  V30 10169 O 980.81 -1.28854 1.47293 0
M  V30 10170 C 981.109 1.78289 3.09754 0
M  V30 10171 C 980.775 3.28216 3.09169 0
M  V30 10172 C 979.437 3.69118 3.08716 0
M  V30 10173 C 981.789 4.24035 3.03058 0
M  V30 10174 C 979.117 5.04263 2.99892 0
M  V30 10175 C 981.469 5.59195 2.95776 0
M  V30 10176 C 980.133 5.99436 2.93655 0
M  V30 10177 H 979.403 0.399414 0.624139 0
M  V30 10178 H 982.05 1.55016 1.12438 0
M  V30 10179 H 980.355 1.24835 3.7138 0
M  V30 10180 H 982.052 1.63612 3.66104 0
M  V30 10181 H 978.642 2.95667 3.10289 0
M  V30 10182 H 982.826 3.93431 3.02532 0
M  V30 10183 H 978.082 5.3463 2.96615 0
M  V30 10184 H 982.256 6.33142 2.90007 0
M  V30 10185 H 979.883 7.04116 2.86573 0
M  V30 10186 N 981.458 -1.16348 1.06306 0
M  V30 10187 C 982.406 -2.22799 0.668087 0
M  V30 10188 C 983.4 -1.66426 -0.316051 0
M  V30 10189 O 984.606 -1.79089 -0.180902 0
M  V30 10190 H 980.981 -0.725487 0.19792 0
M  V30 10191 H 982.952 -2.53401 1.57577 0
M  V30 10192 C 981.701 -3.47628 0.0706797 0
M  V30 10193 H 981.024 -3.9132 0.819064 0
M  V30 10194 H 982.464 -4.23666 -0.16816 0
M  V30 10195 C 980.923 -3.15343 -1.18577 0
M  V30 10196 O 981.453 -3.31158 -2.27371 0
M  V30 10197 N 979.659 -2.69472 -1.08779 0
M  V30 10198 H 979.206 -2.56803 -0.202447 0
M  V30 10199 H 979.164 -2.48244 -1.92931 0
M  V30 10200 N 982.937 -0.845659 -1.3299 0
M  V30 10201 C 983.9 -0.288905 -2.27372 0
M  V30 10202 C 984.9 0.546263 -1.51237 0
M  V30 10203 O 986.09 0.359072 -1.70459 0
M  V30 10204 C 983.222 0.59224 -3.35716 0
M  V30 10205 H 984.415 -1.12181 -2.78128 0
M  V30 10206 H 981.968 -0.619276 -1.43508 0
M  V30 10207 H 982.703 1.44732 -2.90212 0
M  V30 10208 H 982.488 -0.00543255 -3.921 0
M  V30 10209 H 983.978 0.974848 -4.06062 0
M  V30 10210 N 984.415 1.45619 -0.602734 0
M  V30 10211 C 985.663 2.01873 -0.095844 0
M  V30 10212 C 985.984 1.47427 1.27633 0
M  V30 10213 O 985.254 0.666652 1.84208 0
M  V30 10214 H 983.834 0.746295 -0.0324408 0
M  V30 10215 H 986.496 1.78478 -0.783037 0
M  V30 10216 H 985.592 3.12072 -0.0419507 0
M  V30 10217 N 985.893 0.34162 1.53853 0
M  V30 10218 C 987.17 -0.310664 1.93117 0
M  V30 10219 C 987.55 -1.68398 1.273 0
M  V30 10220 O 986.898 -2.24546 0.423225 0
M  V30 10221 C 987.108 -0.384867 3.46871 0
M  V30 10222 C 988.456 -0.636621 4.198 0
M  V30 10223 O 989.48 -0.467061 3.53125 0
M  V30 10224 O 988.339 -0.964962 5.37913 0
M  V30 10225 H 985.433 -0.180881 0.806977 0
M  V30 10226 H 987.979 0.392656 1.65095 0
M  V30 10227 H 986.751 0.57894 3.86994 0
M  V30 10228 H 986.374 -1.13505 3.81054 0
M  V30 10229 N 987.371 -1.57444 0.0701946 0
M  V30 10230 C 988.648 -1.84826 -0.6402 0
M  V30 10231 C 989.028 -0.962344 -1.87889 0
M  V30 10232 O 988.376 -0.0282209 -2.28483 0
M  V30 10233 C 988.586 -3.34976 -0.979382 0
M  V30 10234 C 989.934 -4.02448 -1.35355 0
M  V30 10235 O 990.958 -3.39713 -1.07116 0
M  V30 10236 O 989.817 -5.13096 -1.88136 0
M  V30 10237 H 986.911 -0.763494 -0.317813 0
M  V30 10238 H 989.457 -1.69399 0.101004 0
M  V30 10239 H 988.229 -3.91173 -0.0995576 0
M  V30 10240 H 987.852 -3.5566 -1.7774 0
M  V30 10241 N 988.849 0.203349 -1.56283 0
M  V30 10242 C 989.812 1.23566 -1.93039 0
M  V30 10243 C 990.812 1.38869 -0.810687 0
M  V30 10244 O 992.002 1.36822 -1.07821 0
M  V30 10245 C 989.134 2.60645 -2.1972 0
M  V30 10246 H 990.327 0.921692 -2.85385 0
M  V30 10247 H 987.88 0.44453 -1.49845 0
M  V30 10248 H 988.615 2.9711 -1.29985 0
M  V30 10249 H 988.4 2.50911 -3.01307 0
M  V30 10250 H 989.89 3.35103 -2.4919 0
M  V30 10251 N 990.327 1.50405 0.470755 0
M  V30 10252 C 991.557 1.64928 1.24428 0
M  V30 10253 C 991.965 0.332139 1.86262 0
M  V30 10254 O 991.308 -0.695919 1.70008 0
M  V30 10255 C 991.37 2.6829 2.39293 0
M  V30 10256 C 991.034 4.11835 1.98093 0
M  V30 10257 C 992.031 4.97693 1.50326 0
M  V30 10258 C 989.716 4.57753 2.06803 0
M  V30 10259 C 991.71 6.27516 1.11813 0
M  V30 10260 C 989.397 5.87582 1.67902 0
M  V30 10261 C 990.395 6.72289 1.20485 0
M  V30 10262 O 990.083 7.99694 0.821219 0
M  V30 10263 H 989.815 0.557418 0.382442 0
M  V30 10264 H 992.369 1.97382 0.568292 0
M  V30 10265 H 990.599 2.31079 3.10063 0
M  V30 10266 H 992.288 2.7203 3.01255 0
M  V30 10267 H 993.054 4.63434 1.43018 0
M  V30 10268 H 988.933 3.91966 2.42659 0
M  V30 10269 H 992.477 6.93586 0.747317 0
M  V30 10270 H 988.374 6.21362 1.74869 0
M  V30 10271 H 989.142 8.12968 0.950038 0
M  V30 10272 N 991.805 -0.723954 1.39988 0
M  V30 10273 C 992.715 -1.86829 1.41887 0
M  V30 10274 C 993.731 -1.71173 0.312401 0
M  V30 10275 O 994.907 -1.93583 0.555651 0
M  V30 10276 C 991.972 -3.22541 1.27154 0
M  V30 10277 C 991.033 -3.50512 2.47871 0
M  V30 10278 C 990.266 -4.79749 2.33831 0
M  V30 10279 O 990.489 -5.54251 1.34765 0
M  V30 10280 O 989.423 -5.07868 3.23039 0
M  V30 10281 H 993.249 -1.88183 2.38371 0
M  V30 10282 H 990.834 -0.873259 1.21221 0
M  V30 10283 H 992.716 -4.0362 1.21114 0
M  V30 10284 H 991.391 -3.21933 0.337715 0
M  V30 10285 H 990.298 -2.69475 2.59488 0
M  V30 10286 H 991.631 -3.55909 3.39985 0
M  V30 10287 N 993.283 -1.25346 -0.955304 0
M  V30 10288 C 994.511 -1.12793 -1.73451 0
M  V30 10289 C 994.926 0.318344 -1.86097 0
M  V30 10290 O 994.283 1.21897 -1.35821 0
M  V30 10291 C 994.334 -1.77603 -3.14864 0
M  V30 10292 O 994.055 -3.16577 -3.02837 0
M  V30 10293 C 995.556 -1.70821 -4.09066 0
M  V30 10294 H 992.776 -0.393457 -0.543537 0
M  V30 10295 H 995.32 -1.65696 -1.19855 0
M  V30 10296 H 993.475 -1.28673 -3.65407 0
M  V30 10297 H 993.889 -3.48433 -3.92039 0
M  V30 10298 H 995.363 -2.2083 -5.05903 0
M  V30 10299 H 995.84 -0.671858 -4.34031 0
M  V30 10300 H 996.446 -2.19237 -3.64438 0
M  V30 10301 N 994.761 1.15782 -1.06922 0
M  V30 10302 C 995.989 1.90355 -0.81072 0
M  V30 10303 C 996.404 1.77779 0.635614 0
M  V30 10304 O 995.761 1.12675 1.43564 0
M  V30 10305 C 995.812 3.4085 -1.2043 0
M  V30 10306 O 995.533 3.53057 -2.59388 0
M  V30 10307 C 997.034 4.32457 -0.974473 0
M  V30 10308 H 994.254 0.60343 -0.293451 0
M  V30 10309 H 996.798 1.46723 -1.42452 0
M  V30 10310 H 994.953 3.82162 -0.634909 0
M  V30 10311 H 995.367 4.46426 -2.75326 0
M  V30 10312 H 996.841 5.36488 -1.29942 0
M  V30 10313 H 997.318 4.39109 0.0894481 0
M  V30 10314 H 997.924 3.96882 -1.52856 0
M  V30 10315 N 996.239 0.8527 1.3254 0
M  V30 10316 C 997.169 0.311234 2.31416 0
M  V30 10317 C 998.15 -0.588557 1.59593 0
M  V30 10318 O 999.335 -0.509211 1.87405 0
M  V30 10319 C 996.465 -0.502892 3.4364 0
M  V30 10320 C 995.419 0.302296 4.26931 0
M  V30 10321 C 994.745 -0.636445 5.30899 0
M  V30 10322 C 996.045 1.52697 4.99481 0
M  V30 10323 H 997.739 1.13742 2.76953 0
M  V30 10324 H 995.285 0.548389 1.33149 0
M  V30 10325 H 997.238 -0.892092 4.11849 0
M  V30 10326 H 995.962 -1.36242 2.96826 0
M  V30 10327 H 994.621 0.673226 3.60365 0
M  V30 10328 H 994.269 -1.49277 4.80339 0
M  V30 10329 H 993.969 -0.101716 5.87512 0
M  V30 10330 H 995.493 -1.02286 6.01972 0
M  V30 10331 H 996.907 1.21017 5.60382 0
M  V30 10332 H 995.304 1.9995 5.65809 0
M  V30 10333 H 996.374 2.28929 4.27457 0
M  V30 10334 N 997.718 -1.45297 0.610449 0
M  V30 10335 C 998.668 -2.27639 -0.128194 0
M  V30 10336 C 999.652 -1.37485 -0.835861 0
M  V30 10337 O 1000.84 -1.61454 -0.725378 0
M  V30 10338 C 997.973 -3.24413 -1.123 0
M  V30 10339 C 997.059 -4.22055 -0.416029 0
M  V30 10340 N 997.45 -5.02867 0.543921 0
M  V30 10341 C 995.748 -4.41041 -0.663208 0
M  V30 10342 C 996.449 -5.73728 0.959731 0
M  V30 10343 N 995.425 -5.42756 0.302873 0
M  V30 10344 H 999.227 -2.8752 0.609056 0
M  V30 10345 H 996.741 -1.56484 0.434338 0
M  V30 10346 H 998.738 -3.82139 -1.6666 0
M  V30 10347 H 997.398 -2.66092 -1.86078 0
M  V30 10348 H 998.409 -5.09649 0.920799 0
M  V30 10349 H 995.086 -3.93842 -1.38544 0
M  V30 10350 H 996.476 -6.48666 1.75163 0
M  V30 10351 N 999.196 -0.349774 -1.5367 0
M  V30 10352 C 1000.44 0.245189 -2.01312 0
M  V30 10353 C 1000.77 1.49702 -1.23705 0
M  V30 10354 O 1000.05 1.91742 -0.326371 0
M  V30 10355 C 1000.33 0.553071 -3.55827 0
M  V30 10356 C 1000.19 -0.71129 -4.4414 0
M  V30 10357 C 1001.5 1.36015 -4.18555 0
M  V30 10358 H 998.624 0.0876415 -0.73177 0
M  V30 10359 H 1001.27 -0.471543 -1.84056 0
M  V30 10360 H 999.416 1.16367 -3.70663 0
M  V30 10361 H 1001.09 -1.34913 -4.41131 0
M  V30 10362 H 999.331 -1.33491 -4.1275 0
M  V30 10363 H 1000 -0.45104 -5.50154 0
M  V30 10364 H 1002.48 0.843778 -4.07455 0
M  V30 10365 H 1001.35 1.54432 -5.26728 0
M  V30 10366 H 1001.61 2.36408 -3.73582 0
M  V30 10367 N 1000.67 1.57404 -0.0785433 0
M  V30 10368 C 1001.62 2.13104 0.88631 0
M  V30 10369 C 1002.59 1.04527 1.29086 0
M  V30 10370 O 1003.78 1.32226 1.37553 0
M  V30 10371 C 1000.92 2.70252 2.14611 0
M  V30 10372 C 1000.03 3.93007 1.79358 0
M  V30 10373 C 999.164 4.38376 3 0
M  V30 10374 C 998.203 5.53761 2.60796 0
M  V30 10375 N 997.34 5.94058 3.74219 0
M  V30 10376 H 1002.18 2.95243 0.404452 0
M  V30 10377 H 999.717 1.45894 0.187982 0
M  V30 10378 H 1001.67 3.01497 2.88367 0
M  V30 10379 H 1000.3 1.90868 2.60326 0
M  V30 10380 H 999.357 3.68181 0.956384 0
M  V30 10381 H 1000.67 4.76795 1.4652 0
M  V30 10382 H 999.823 4.71317 3.82027 0
M  V30 10383 H 998.562 3.53455 3.36037 0
M  V30 10384 H 997.567 5.20464 1.77192 0
M  V30 10385 H 998.792 6.40419 2.25922 0
M  V30 10386 H 996.738 5.12085 4.10005 0
M  V30 10387 H 996.655 6.72602 3.45171 0
M  V30 10388 H 997.923 6.31624 4.56805 0
M  V30 10389 N 1002.15 -0.195058 1.56388 0
M  V30 10390 C 1003.08 -1.24444 1.97575 0
M  V30 10391 C 1004.06 -1.47471 0.847717 0
M  V30 10392 O 1005.25 -1.59208 1.11205 0
M  V30 10393 C 1002.38 -2.58866 2.31529 0
M  V30 10394 C 1001.33 -2.50451 3.47071 0
M  V30 10395 C 1000.66 -3.89146 3.667 0
M  V30 10396 C 1001.96 -2.02953 4.81256 0
M  V30 10397 H 1003.65 -0.902178 2.85484 0
M  V30 10398 H 1001.2 -0.43254 1.3735 0
M  V30 10399 H 1003.15 -3.3246 2.58936 0
M  V30 10400 H 1001.87 -2.94833 1.40502 0
M  V30 10401 H 1000.53 -1.79313 3.19754 0
M  V30 10402 H 1000.18 -4.22466 2.73004 0
M  V30 10403 H 999.882 -3.84391 4.44429 0
M  V30 10404 H 1001.41 -4.64363 3.96484 0
M  V30 10405 H 1002.82 -2.66306 5.07695 0
M  V30 10406 H 1001.22 -2.092 5.62455 0
M  V30 10407 H 1002.29 -0.982757 4.74837 0
M  V30 10408 N 1003.63 -1.50653 -0.462772 0
M  V30 10409 C 1005.04 -1.54821 -1.04342 0
M  V30 10410 C 1005.39 -0.356595 -1.92932 0
M  V30 10411 O 1004.52 0.529579 -2.0982 0
M  V30 10412 C 1005.11 -2.80571 -1.89909 0
M  V30 10413 C 1003.67 -2.87394 -2.43067 0
M  V30 10414 C 1002.82 -2.49206 -1.21621 0
M  V30 10415 H 1005.77 -1.56797 -0.245048 0
M  V30 10416 H 1005.79 -2.62897 -2.75074 0
M  V30 10417 H 1005.3 -3.67281 -1.25405 0
M  V30 10418 H 1003.4 -2.05055 -3.111 0
M  V30 10419 H 1003.52 -3.90477 -2.77605 0
M  V30 10420 H 1001.88 -2.01829 -1.55361 0
M  V30 10421 H 1002.66 -3.38233 -0.587669 0
M  V30 10422 N 1005.11 0.71652 -1.4037 0
M  V30 10423 C 1006.35 1.47857 -1.38803 0
M  V30 10424 C 1006.69 1.94197 0.0100536 0
M  V30 10425 O 1005.96 1.68093 0.978521 0
M  V30 10426 C 1006.25 2.7053 -2.37667 0
M  V30 10427 C 1006.1 2.3009 -3.86496 0
M  V30 10428 C 1007.42 3.72684 -2.34082 0
M  V30 10429 H 1004.54 0.53632 -0.505499 0
M  V30 10430 H 1007.18 0.817824 -1.71498 0
M  V30 10431 H 1005.33 3.26906 -2.09916 0
M  V30 10432 H 1007 1.79202 -4.2507 0
M  V30 10433 H 1005.24 1.62102 -4.02375 0
M  V30 10434 H 1005.91 3.18018 -4.51186 0
M  V30 10435 H 1008.39 3.25935 -2.58661 0
M  V30 10436 H 1007.27 4.56157 -3.05306 0
M  V30 10437 H 1007.53 4.20916 -1.35213 0
M  V30 10438 N 1006.59 1.25851 0.948643 0
M  V30 10439 C 1007.83 1.10735 1.69062 0
M  V30 10440 C 1008.16 -0.351257 1.9181 0
M  V30 10441 O 1007.43 -1.24867 1.50947 0
M  V30 10442 H 1006.01 0.406796 0.626519 0
M  V30 10443 H 1008.67 1.58066 1.14022 0
M  V30 10444 H 1007.76 1.62033 2.66743 0
M  V30 10445 N 1008.06 -1.15214 1.07534 0
M  V30 10446 C 1008.99 -2.2216 0.718837 0
M  V30 10447 C 1009.98 -1.6753 -0.29459 0
M  V30 10448 O 1011.16 -1.93481 -0.166931 0
M  V30 10449 C 1008.29 -3.471 0.117836 0
M  V30 10450 C 1007.24 -4.14701 1.05862 0
M  V30 10451 C 1006.57 -5.3374 0.320284 0
M  V30 10452 C 1007.87 -4.64254 2.39302 0
M  V30 10453 H 1009.56 -2.52237 1.61297 0
M  V30 10454 H 1007.11 -1.21239 0.776992 0
M  V30 10455 H 1009.06 -4.21156 -0.143519 0
M  V30 10456 H 1007.79 -3.16361 -0.811389 0
M  V30 10457 H 1006.45 -3.42589 1.30493 0
M  V30 10458 H 1006.09 -4.99257 -0.61246 0
M  V30 10459 H 1005.79 -5.79912 0.947381 0
M  V30 10460 H 1007.32 -6.10563 0.0667721 0
M  V30 10461 H 1008.73 -5.29827 2.18988 0
M  V30 10462 H 1007.13 -5.21095 2.97623 0
M  V30 10463 H 1008.2 -3.79793 3.01472 0
M  V30 10464 N 1009.54 -0.859717 -1.32086 0
M  V30 10465 C 1010.77 -0.479028 -2.0097 0
M  V30 10466 C 1011.18 0.930242 -1.64752 0
M  V30 10467 O 1010.52 1.6193 -0.867437 0
M  V30 10468 C 1010.59 -0.54431 -3.55355 0
M  V30 10469 C 1010.25 -1.91337 -4.15017 0
M  V30 10470 C 1011.25 -2.87951 -4.32874 0
M  V30 10471 C 1008.93 -2.21189 -4.50977 0
M  V30 10472 C 1010.93 -4.12567 -4.85867 0
M  V30 10473 C 1008.61 -3.46057 -5.03674 0
M  V30 10474 C 1009.61 -4.41562 -5.21068 0
M  V30 10475 O 1009.3 -5.64218 -5.72637 0
M  V30 10476 H 1009.03 -0.186161 -0.649861 0
M  V30 10477 H 1011.58 -1.15976 -1.69525 0
M  V30 10478 H 1009.81 0.1933 -3.86217 0
M  V30 10479 H 1011.5 -0.178506 -4.05507 0
M  V30 10480 H 1012.27 -2.66194 -4.05421 0
M  V30 10481 H 1008.15 -1.47635 -4.36721 0
M  V30 10482 H 1011.69 -4.8712 -4.99359 0
M  V30 10483 H 1007.59 -3.67662 -5.30561 0
M  V30 10484 H 1008.36 -5.66246 -5.91023 0
M  V30 10485 N 1011.02 1.44971 -0.618145 0
M  V30 10486 C 1012.27 2.02159 -0.117482 0
M  V30 10487 C 1012.6 1.48517 1.2559 0
M  V30 10488 O 1011.85 0.654192 1.84442 0
M  V30 10489 C 1012.15 3.57378 -0.0394861 0
M  V30 10490 C 1011.82 4.30218 -1.34993 0
M  V30 10491 C 1010.48 4.49835 -1.70886 0
M  V30 10492 C 1012.83 4.71768 -2.21551 0
M  V30 10493 C 1010.16 5.08258 -2.9307 0
M  V30 10494 C 1012.51 5.31543 -3.42993 0
M  V30 10495 C 1011.17 5.49381 -3.79126 0
M  V30 10496 H 1010.44 0.739752 -0.0429897 0
M  V30 10497 H 1013.09 1.73903 -0.801871 0
M  V30 10498 H 1011.4 3.84973 0.728217 0
M  V30 10499 H 1013.09 3.99343 0.364213 0
M  V30 10500 H 1009.68 4.15271 -1.06057 0
M  V30 10501 H 1013.87 4.56336 -1.95117 0
M  V30 10502 H 1009.12 5.20257 -3.21158 0
M  V30 10503 H 1013.3 5.62691 -4.10308 0
M  V30 10504 H 1010.92 5.94419 -4.73888 0
M  V30 10505 N 1012.5 0.357919 1.53482 0
M  V30 10506 C 1013.75 -0.235241 2.00324 0
M  V30 10507 C 1014.06 -1.50494 1.24944 0
M  V30 10508 O 1015.27 -2.17623 1.62335 0
M  V30 10509 C 1013.72 -0.469748 3.56821 0
M  V30 10510 C 1013.33 0.784877 4.41071 0
M  V30 10511 C 1015.07 -1.02098 4.12039 0
M  V30 10512 C 1012.98 0.520377 5.89106 0
M  V30 10513 H 1011.91 -0.0916816 0.748405 0
M  V30 10514 H 1014.56 0.475474 1.77233 0
M  V30 10515 H 1012.94 -1.24153 3.76035 0
M  V30 10516 H 1014.12 1.55886 4.33631 0
M  V30 10517 H 1012.43 1.25878 3.96918 0
M  V30 10518 H 1015.03 -1.23406 5.20264 0
M  V30 10519 H 1015.37 -1.98084 3.66154 0
M  V30 10520 H 1015.91 -0.309554 3.96594 0
M  V30 10521 H 1012.65 1.45035 6.39254 0
M  V30 10522 H 1012.17 -0.215254 5.99414 0
M  V30 10523 H 1013.84 0.143006 6.46842 0
M  V30 10524 N 1013.98 -1.5736 0.0868897 0
M  V30 10525 C 1014.92 -2.13571 -0.874996 0
M  V30 10526 C 1015.89 -1.0521 -1.2853 0
M  V30 10527 O 1017.08 -1.32954 -1.3685 0
M  V30 10528 C 1014.22 -2.71386 -2.13175 0
M  V30 10529 C 1013.33 -3.93953 -1.77272 0
M  V30 10530 C 1012.47 -4.3996 -2.97671 0
M  V30 10531 C 1011.51 -5.55137 -2.57856 0
M  V30 10532 N 1010.64 -5.96034 -3.71064 0
M  V30 10533 H 1015.48 -2.95453 -0.388789 0
M  V30 10534 H 1013.02 -1.45992 -0.180242 0
M  V30 10535 H 1014.98 -3.03022 -2.86764 0
M  V30 10536 H 1013.61 -1.92245 -2.5931 0
M  V30 10537 H 1012.66 -3.68683 -0.936845 0
M  V30 10538 H 1013.97 -4.77565 -1.43989 0
M  V30 10539 H 1013.13 -4.73337 -3.79522 0
M  V30 10540 H 1011.86 -3.55232 -3.34158 0
M  V30 10541 H 1010.87 -5.21397 -1.7443 0
M  V30 10542 H 1012.09 -6.41608 -2.22522 0
M  V30 10543 H 1010.04 -5.14253 -4.07284 0
M  V30 10544 H 1009.96 -6.74423 -3.41599 0
M  V30 10545 H 1011.23 -6.34038 -4.53449 0
M  V30 10546 N 1015.45 0.186762 -1.56489 0
M  V30 10547 C 1016.7 0.904077 -1.80303 0
M  V30 10548 C 1017.02 1.84073 -0.661538 0
M  V30 10549 O 1018.22 2.59928 -0.784197 0
M  V30 10550 C 1016.68 1.65806 -3.19432 0
M  V30 10551 C 1016.29 0.765807 -4.41406 0
M  V30 10552 C 1018.03 2.36451 -3.52549 0
M  V30 10553 C 1015.94 1.51913 -5.71556 0
M  V30 10554 H 1014.87 0.34133 -0.672317 0
M  V30 10555 H 1017.52 0.157218 -1.82825 0
M  V30 10556 H 1015.9 2.44911 -3.11183 0
M  V30 10557 H 1017.07 0.0128225 -4.60798 0
M  V30 10558 H 1015.39 0.169772 -4.16054 0
M  V30 10559 H 1017.99 2.93378 -4.47027 0
M  V30 10560 H 1018.33 3.11044 -2.7669 0
M  V30 10561 H 1018.86 1.64305 -3.62283 0
M  V30 10562 H 1015.6 0.815829 -6.50403 0
M  V30 10563 H 1015.12 2.24583 -5.56168 0
M  V30 10564 H 1016.8 2.07073 -6.12968 0
M  V30 10565 N 1016.93 1.50896 0.454776 0
M  V30 10566 C 1017.86 1.73885 1.5584 0
M  V30 10567 C 1018.84 0.588172 1.59607 0
M  V30 10568 O 1020.03 0.829054 1.75614 0
M  V30 10569 C 1017.16 1.84796 2.94054 0
M  V30 10570 C 1016.11 3.00111 3.05152 0
M  V30 10571 C 1015.44 2.96183 4.45174 0
M  V30 10572 C 1016.74 4.40365 2.80849 0
M  V30 10573 H 1018.43 2.66292 1.36854 0
M  V30 10574 H 1015.98 1.28142 0.656936 0
M  V30 10575 H 1017.93 1.99462 3.71204 0
M  V30 10576 H 1016.66 0.890235 3.14233 0
M  V30 10577 H 1015.31 2.85121 2.30438 0
M  V30 10578 H 1014.96 1.98224 4.62295 0
M  V30 10579 H 1014.66 3.73608 4.53532 0
M  V30 10580 H 1016.19 3.1292 5.24322 0
M  V30 10581 H 1017.6 4.55795 3.47741 0
M  V30 10582 H 1016 5.19363 3.00636 0
M  V30 10583 H 1017.07 4.51606 1.76579 0
M  V30 10584 N 1018.41 -0.709066 1.40748 0
M  V30 10585 C 1019.32 -1.85314 1.43861 0
M  V30 10586 C 1020.34 -1.70832 0.330539 0
M  V30 10587 O 1021.51 -1.92983 0.576152 0
M  V30 10588 C 1018.58 -3.21174 1.30568 0
M  V30 10589 C 1017.64 -3.47863 2.51574 0
M  V30 10590 C 1016.87 -4.77241 2.38906 0
M  V30 10591 O 1017.09 -5.52791 1.40636 0
M  V30 10592 O 1016.03 -5.04413 3.28407 0
M  V30 10593 H 1019.85 -1.85644 2.40354 0
M  V30 10594 H 1017.44 -0.860352 1.2214 0
M  V30 10595 H 1019.32 -4.02313 1.25388 0
M  V30 10596 H 1018 -3.21557 0.371841 0
M  V30 10597 H 1016.9 -2.66708 2.62331 0
M  V30 10598 H 1018.24 -3.52283 3.43741 0
M  V30 10599 N 1019.89 -1.26353 -0.941956 0
M  V30 10600 C 1020.82 -1.10341 -2.05784 0
M  V30 10601 C 1021.8 -0.00881565 -1.70098 0
M  V30 10602 O 1022.99 -0.180699 -1.93357 0
M  V30 10603 C 1020.12 -0.734788 -3.39438 0
M  V30 10604 C 1019.07 -1.78103 -3.89183 0
M  V30 10605 C 1018.4 -1.26675 -5.19478 0
M  V30 10606 C 1019.7 -3.1824 -4.14151 0
M  V30 10607 H 1021.39 -2.03684 -2.19438 0
M  V30 10608 H 1018.94 -0.980698 -1.05443 0
M  V30 10609 H 1020.89 -0.609653 -4.16967 0
M  V30 10610 H 1019.61 0.234354 -3.25758 0
M  V30 10611 H 1018.27 -1.89482 -3.13835 0
M  V30 10612 H 1017.92 -0.287472 -5.02178 0
M  V30 10613 H 1017.62 -1.96612 -5.53731 0
M  V30 10614 H 1019.14 -1.15427 -5.99591 0
M  V30 10615 H 1020.56 -3.09942 -4.82296 0
M  V30 10616 H 1018.95 -3.8576 -4.59684 0
M  V30 10617 H 1020.02 -3.64354 -3.19959 0
M  V30 10618 N 1021.37 1.14642 -1.08144 0
M  V30 10619 C 1022.28 2.23257 -0.720668 0
M  V30 10620 C 1023.29 1.71866 0.271648 0
M  V30 10621 O 1024.47 2.01064 0.116266 0
M  V30 10622 C 1021.53 3.46447 -0.132542 0
M  V30 10623 C 1020.6 4.12789 -1.17913 0
M  V30 10624 C 1019.83 5.30099 -0.618971 0
M  V30 10625 O 1020.05 5.6762 0.562418 0
M  V30 10626 O 1018.99 5.86154 -1.36774 0
M  V30 10627 H 1022.81 2.56463 -1.62667 0
M  V30 10628 H 1020.4 1.22521 -0.854932 0
M  V30 10629 H 1022.28 4.20959 0.19277 0
M  V30 10630 H 1020.95 3.14971 0.746662 0
M  V30 10631 H 1019.86 3.40163 -1.55693 0
M  V30 10632 H 1021.19 4.48365 -2.03051 0
M  V30 10633 N 1022.85 0.866709 1.31628 0
M  V30 10634 C 1023.76 0.323408 2.3236 0
M  V30 10635 C 1024.77 -0.564995 1.64572 0
M  V30 10636 O 1025.95 -0.462489 1.96018 0
M  V30 10637 C 1023.01 -0.469045 3.43513 0
M  V30 10638 C 1022.07 0.446928 4.26967 0
M  V30 10639 C 1021.31 -0.307799 5.32812 0
M  V30 10640 O 1021.53 -1.5363 5.49321 0
M  V30 10641 O 1020.46 0.332653 6.0098 0
M  V30 10642 H 1024.29 1.15827 2.80745 0
M  V30 10643 H 1021.87 0.629987 1.35468 0
M  V30 10644 H 1023.76 -0.918405 4.1127 0
M  V30 10645 H 1022.43 -1.28051 2.97296 0
M  V30 10646 H 1021.34 0.944719 3.61975 0
M  V30 10647 H 1022.67 1.2239 4.76741 0
M  V30 10648 N 1024.32 -1.44642 0.625825 0
M  V30 10649 C 1025.27 -2.30653 -0.082259 0
M  V30 10650 C 1026.24 -1.43174 -0.842052 0
M  V30 10651 O 1027.43 -1.72082 -0.824151 0
M  V30 10652 C 1024.57 -3.2837 -1.06146 0
M  V30 10653 C 1023.68 -4.30953 -0.300638 0
M  V30 10654 C 1022.81 -5.15766 -1.27118 0
M  V30 10655 C 1021.85 -6.10061 -0.499215 0
M  V30 10656 N 1020.99 -6.87591 -1.41995 0
M  V30 10657 H 1025.83 -2.90664 0.657161 0
M  V30 10658 H 1023.37 -1.43215 0.335859 0
M  V30 10659 H 1025.32 -3.83507 -1.6425 0
M  V30 10660 H 1023.95 -2.70072 -1.76807 0
M  V30 10661 H 1023.01 -3.78331 0.396234 0
M  V30 10662 H 1024.32 -4.97892 0.300851 0
M  V30 10663 H 1023.47 -5.75394 -1.92372 0
M  V30 10664 H 1022.21 -4.48888 -1.9066 0
M  V30 10665 H 1021.22 -5.49547 0.166848 0
M  V30 10666 H 1022.44 -6.78973 0.131409 0
M  V30 10667 H 1020.39 -6.23387 -2.04267 0
M  V30 10668 H 1020.3 -7.5095 -0.872354 0
M  V30 10669 H 1021.57 -7.51746 -2.0615 0
M  V30 10670 N 1025.8 -0.366053 -1.5329 0
M  V30 10671 C 1026.73 0.514916 -2.23341 0
M  V30 10672 C 1027.75 1.04579 -1.24768 0
M  V30 10673 O 1028.94 0.952084 -1.50989 0
M  V30 10674 C 1026.04 1.72374 -2.91788 0
M  V30 10675 C 1025.21 1.32429 -4.16871 0
M  V30 10676 C 1024.27 2.39524 -4.68524 0
M  V30 10677 O 1023.29 2.01895 -5.32191 0
M  V30 10678 N 1024.5 3.71116 -4.46378 0
M  V30 10679 H 1027.26 -0.0851272 -2.99579 0
M  V30 10680 H 1024.82 -0.191255 -1.60766 0
M  V30 10681 H 1026.81 2.43496 -3.23252 0
M  V30 10682 H 1025.38 2.23064 -2.19 0
M  V30 10683 H 1024.6 0.442901 -3.91704 0
M  V30 10684 H 1025.89 1.03372 -4.98188 0
M  V30 10685 H 1025.29 4.04463 -3.95508 0
M  V30 10686 H 1023.85 4.38341 -4.82391 0
M  V30 10687 N 1027.28 1.57312 -0.0952337 0
M  V30 10688 C 1028.53 1.93533 0.568131 0
M  V30 10689 C 1028.84 0.979121 1.6933 0
M  V30 10690 O 1030.05 1.23506 2.41782 0
M  V30 10691 C 1028.5 3.43875 1.06198 0
M  V30 10692 C 1028.11 4.47988 -0.0334397 0
M  V30 10693 C 1029.86 3.89057 1.69807 0
M  V30 10694 C 1027.76 5.89483 0.475774 0
M  V30 10695 H 1026.69 0.7224 0.215995 0
M  V30 10696 H 1029.34 1.82699 -0.171257 0
M  V30 10697 H 1027.73 3.49862 1.85506 0
M  V30 10698 H 1028.9 4.53644 -0.808934 0
M  V30 10699 H 1027.21 4.12415 -0.574725 0
M  V30 10700 H 1029.81 4.92171 2.08978 0
M  V30 10701 H 1030.15 3.27713 2.5673 0
M  V30 10702 H 1030.69 3.85772 0.970815 0
M  V30 10703 H 1027.43 6.54528 -0.356837 0
M  V30 10704 H 1026.95 5.87297 1.21827 0
M  V30 10705 H 1028.63 6.40066 0.944697 0
M  V30 10706 N 1028.76 -0.17846 1.56586 0
M  V30 10707 C 1029.71 -1.24042 1.96765 0
M  V30 10708 C 1030.7 -1.46218 0.855375 0
M  V30 10709 O 1031.91 -1.46882 1.04046 0
M  V30 10710 H 1028.28 -0.416807 0.62592 0
M  V30 10711 H 1030.25 -0.874644 2.85294 0
M  V30 10712 C 1029 -2.57394 2.3376 0
M  V30 10713 H 1028.32 -2.41151 3.18883 0
M  V30 10714 H 1029.76 -3.30405 2.65723 0
M  V30 10715 C 1028.22 -3.15621 1.17835 0
M  V30 10716 O 1028.75 -3.99032 0.462202 0
M  V30 10717 N 1026.96 -2.74606 0.950783 0
M  V30 10718 H 1026.51 -2.06878 1.5349 0
M  V30 10719 H 1026.46 -3.13902 0.176967 0
M  V30 10720 N 1030.24 -1.51135 -0.446768 0
M  V30 10721 C 1031.48 -1.64989 -1.20656 0
M  V30 10722 C 1031.84 -0.353882 -1.88711 0
M  V30 10723 O 1033.04 -0.368099 -2.66268 0
M  V30 10724 C 1031.31 -2.81371 -2.20375 0
M  V30 10725 S 1032.87 -3.15501 -3.04967 0
M  V30 10726 H 1029.69 -0.581372 -0.409301 0
M  V30 10727 H 1032.29 -1.89008 -0.499613 0
M  V30 10728 H 1030.99 -3.73988 -1.69001 0
M  V30 10729 H 1030.53 -2.59512 -2.95664 0
M  V30 10730 H 1032.54 -2.61205 -4.21884 0
M  V30 10731 N 1031.71 0.701592 -1.41122 0
M  V30 10732 C 1032.62 1.84548 -1.44841 0
M  V30 10733 C 1033.64 1.70654 -0.339594 0
M  V30 10734 O 1034.82 1.92675 -0.586378 0
M  V30 10735 C 1031.88 3.20477 -1.3227 0
M  V30 10736 C 1030.94 3.46524 -2.53415 0
M  V30 10737 C 1030.17 4.75968 -2.41434 0
M  V30 10738 O 1030.4 5.52037 -1.43566 0
M  V30 10739 O 1029.33 5.02664 -3.31078 0
M  V30 10740 H 1033.16 1.84367 -2.41335 0
M  V30 10741 H 1030.74 0.853863 -1.22595 0
M  V30 10742 H 1032.62 4.01642 -1.2752 0
M  V30 10743 H 1031.3 3.21355 -0.388889 0
M  V30 10744 H 1030.21 2.65313 -2.63742 0
M  V30 10745 H 1031.54 3.50455 -3.45604 0
M  V30 10746 N 1033.19 1.2685 0.935242 0
M  V30 10747 C 1034.44 1.12912 1.6846 0
M  V30 10748 C 1034.77 -0.325708 1.91449 0
M  V30 10749 O 1034.05 -1.23884 1.49944 0
M  V30 10750 C 1034.33 1.90513 3.05576 0
M  V30 10751 C 1034.18 3.43936 2.89876 0
M  V30 10752 C 1035.5 1.70363 4.05789 0
M  V30 10753 H 1032.62 0.411559 0.611382 0
M  V30 10754 H 1035.26 1.55917 1.08582 0
M  V30 10755 H 1033.41 1.53963 3.5669 0
M  V30 10756 H 1035.08 3.90272 2.45939 0
M  V30 10757 H 1033.33 3.70659 2.25376 0
M  V30 10758 H 1034 3.93467 3.87153 0
M  V30 10759 H 1036.47 2.02217 3.63659 0
M  V30 10760 H 1035.35 2.27066 4.99732 0
M  V30 10761 H 1035.61 0.649674 4.373 0
M  V30 10762 N 1034.67 -1.14067 1.0875 0
M  V30 10763 C 1035.9 -1.89041 0.840902 0
M  V30 10764 C 1036.31 -1.78768 -0.60725 0
M  V30 10765 O 1035.67 -1.14945 -1.41753 0
M  V30 10766 C 1035.72 -3.38891 1.25838 0
M  V30 10767 O 1035.44 -3.48886 2.64972 0
M  V30 10768 C 1036.94 -4.30852 1.04315 0
M  V30 10769 H 1034.16 -0.598685 0.303014 0
M  V30 10770 H 1036.71 -1.44438 1.44769 0
M  V30 10771 H 1034.86 -3.81103 0.695627 0
M  V30 10772 H 1035.28 -4.41989 2.82393 0
M  V30 10773 H 1036.75 -5.34353 1.38461 0
M  V30 10774 H 1037.23 -4.39196 -0.0195784 0
M  V30 10775 H 1037.83 -3.944 1.59151 0
M  V30 10776 N 1036.15 -0.873678 -1.31166 0
M  V30 10777 C 1037.43 -0.40698 -1.91319 0
M  V30 10778 C 1037.81 1.1113 -1.79481 0
M  V30 10779 O 1037.15 1.94155 -1.20483 0
M  V30 10780 C 1037.36 -0.892484 -3.37396 0
M  V30 10781 C 1038.71 -0.920795 -4.14496 0
M  V30 10782 O 1039.74 -0.838386 -3.46193 0
M  V30 10783 O 1038.59 -1.04069 -5.365 0
M  V30 10784 H 1035.69 -0.122439 -0.817886 0
M  V30 10785 H 1038.23 -0.961835 -1.3981 0
M  V30 10786 H 1037.01 -1.93613 -3.40044 0
M  V30 10787 H 1036.63 -0.31615 -3.96341 0
M  V30 10788 N 1037.63 1.44308 -0.633487 0
M  V30 10789 C 1038.57 2.32455 0.0821956 0
M  V30 10790 C 1039.57 1.47482 0.833388 0
M  V30 10791 O 1040.77 1.63812 0.746021 0
M  V30 10792 H 1037.15 0.750631 0.045352 0
M  V30 10793 H 1039.12 2.90566 -0.679282 0
M  V30 10794 C 1037.87 3.31512 1.04858 0
M  V30 10795 H 1037.19 3.96908 0.479979 0
M  V30 10796 H 1038.63 3.95865 1.51879 0
M  V30 10797 C 1037.09 2.60615 2.13498 0
M  V30 10798 O 1037.62 2.40682 3.21613 0
M  V30 10799 N 1035.83 2.20315 1.89499 0
M  V30 10800 H 1035.37 2.36726 1.01581 0
M  V30 10801 H 1035.33 1.73205 2.62388 0
M  V30 10802 N 1039.1 0.374177 1.53094 0
M  V30 10803 C 1040.33 -0.215903 2.06273 0
M  V30 10804 C 1040.75 -1.40979 1.24526 0
M  V30 10805 O 1040.11 -1.79331 0.266462 0
M  V30 10806 C 1040.16 -0.579089 3.5592 0
M  V30 10807 O 1039.26 -1.67516 3.76845 0
M  V30 10808 H 1038.61 -0.0293981 0.663349 0
M  V30 10809 H 1041.14 0.537271 1.9742 0
M  V30 10810 H 1041.15 -0.847678 3.99097 0
M  V30 10811 H 1039.82 0.293843 4.14861 0
M  V30 10812 H 1038.4 -1.40146 3.45563 0
M  V30 10813 N 1040.58 -1.57259 0.103575 0
M  V30 10814 C 1041.83 -1.94272 -0.557024 0
M  V30 10815 C 1042.15 -0.986739 -1.68192 0
M  V30 10816 O 1041.42 -0.0402818 -1.95859 0
M  V30 10817 H 1040 -0.717237 -0.208757 0
M  V30 10818 H 1042.66 -1.94167 0.168898 0
M  V30 10819 H 1041.76 -2.96914 -0.961691 0
M  V30 10820 N 1042.06 0.170153 -1.56679 0
M  V30 10821 C 1043.31 0.887906 -1.8233 0
M  V30 10822 C 1043.64 1.81845 -0.681608 0
M  V30 10823 O 1042.91 1.9191 0.316362 0
M  V30 10824 C 1043.2 1.68256 -3.18374 0
M  V30 10825 C 1043.05 0.775059 -4.43072 0
M  V30 10826 C 1044.37 2.65001 -3.51372 0
M  V30 10827 H 1041.49 0.32135 -0.663252 0
M  V30 10828 H 1044.13 0.154065 -1.89374 0
M  V30 10829 H 1042.28 2.30817 -3.12499 0
M  V30 10830 H 1043.95 0.162234 -4.61015 0
M  V30 10831 H 1042.2 0.0831809 -4.3372 0
M  V30 10832 H 1042.87 1.36661 -5.34816 0
M  V30 10833 H 1045.34 2.12566 -3.57708 0
M  V30 10834 H 1044.22 3.17667 -4.47637 0
M  V30 10835 H 1044.48 3.45255 -2.76136 0
M  V30 10836 N 1043.54 1.5137 0.438746 0
M  V30 10837 C 1044.78 1.64211 1.19006 0
M  V30 10838 C 1045.12 0.356607 1.90898 0
M  V30 10839 O 1044.39 -0.643722 1.83539 0
M  V30 10840 C 1044.68 2.8445 2.20817 0
M  V30 10841 C 1044.53 4.22972 1.53018 0
M  V30 10842 C 1045.85 3.00207 3.21813 0
M  V30 10843 H 1042.97 0.597628 0.431288 0
M  V30 10844 H 1045.61 1.8385 0.479487 0
M  V30 10845 H 1043.76 2.67836 2.81418 0
M  V30 10846 H 1045.43 4.5125 0.957654 0
M  V30 10847 H 1043.67 4.25736 0.832556 0
M  V30 10848 H 1044.34 5.03094 2.27158 0
M  V30 10849 H 1046.82 3.15522 2.71266 0
M  V30 10850 H 1045.7 3.85904 3.90345 0
M  V30 10851 H 1045.96 2.12216 3.87836 0
M  V30 10852 N 1045.02 -0.694098 1.41492 0
M  V30 10853 C 1045.95 -1.81943 1.39389 0
M  V30 10854 C 1046.96 -1.6009 0.295836 0
M  V30 10855 O 1048.15 -1.69565 0.557658 0
M  V30 10856 C 1045.25 -3.18731 1.15167 0
M  V30 10857 C 1044.42 -3.67601 2.37041 0
M  V30 10858 C 1043.48 -4.83063 2.08654 0
M  V30 10859 O 1042.51 -4.94603 2.81704 0
M  V30 10860 N 1043.71 -5.70409 1.0777 0
M  V30 10861 H 1046.48 -1.84239 2.36381 0
M  V30 10862 H 1044.04 -0.876475 1.36123 0
M  V30 10863 H 1046.03 -3.93602 0.941264 0
M  V30 10864 H 1044.6 -3.11452 0.267673 0
M  V30 10865 H 1043.82 -2.83622 2.73774 0
M  V30 10866 H 1045.11 -3.96991 3.18239 0
M  V30 10867 H 1044.5 -5.63718 0.473123 0
M  V30 10868 H 1043.06 -6.45172 0.927177 0
M  V30 10869 N 1046.49 -1.27344 -0.928501 0
M  V30 10870 C 1047.42 -1.12517 -2.04602 0
M  V30 10871 C 1048.41 -0.0268563 -1.70079 0
M  V30 10872 O 1049.59 -0.201197 -1.93155 0
M  V30 10873 C 1046.72 -0.770749 -3.3864 0
M  V30 10874 C 1045.67 -1.8222 -3.87272 0
M  V30 10875 C 1045 -1.32178 -5.18105 0
M  V30 10876 C 1046.3 -3.22614 -4.10752 0
M  V30 10877 H 1047.99 -2.06 -2.17265 0
M  V30 10878 H 1045.54 -0.991827 -1.04397 0
M  V30 10879 H 1047.49 -0.653843 -4.16297 0
M  V30 10880 H 1046.22 0.19979 -3.25988 0
M  V30 10881 H 1044.88 -1.928 -3.11807 0
M  V30 10882 H 1044.52 -0.340719 -5.01845 0
M  V30 10883 H 1044.22 -2.02474 -5.51614 0
M  V30 10884 H 1045.75 -1.2178 -5.98333 0
M  V30 10885 H 1047.16 -3.1504 -4.78981 0
M  V30 10886 H 1045.56 -3.90614 -4.55566 0
M  V30 10887 H 1046.63 -3.67727 -3.16077 0
M  V30 10888 N 1047.97 1.13488 -1.09353 0
M  V30 10889 C 1049.25 1.80998 -0.741559 0
M  V30 10890 C 1049.63 1.96418 0.773505 0
M  V30 10891 O 1048.98 1.53168 1.69563 0
M  V30 10892 C 1049.19 3.16078 -1.47972 0
M  V30 10893 C 1050.54 3.91438 -1.64504 0
M  V30 10894 O 1051.56 3.25699 -1.44218 0
M  V30 10895 O 1050.42 5.0935 -1.98054 0
M  V30 10896 H 1047.51 0.782953 -0.266297 0
M  V30 10897 H 1050.06 1.20422 -1.19569 0
M  V30 10898 H 1048.83 3.00076 -2.51137 0
M  V30 10899 H 1048.45 3.84354 -1.01772 0
M  V30 10900 N 1049.45 0.880621 1.30701 0
M  V30 10901 C 1050.69 0.503519 1.98101 0
M  V30 10902 C 1051.06 -0.929075 1.68024 0
M  V30 10903 O 1052.26 -1.41208 2.28722 0
M  V30 10904 C 1050.53 0.765652 3.49102 0
M  V30 10905 S 1052.09 0.490001 4.36056 0
M  V30 10906 H 1048.9 0.187522 0.685825 0
M  V30 10907 H 1051.51 1.13895 1.58897 0
M  V30 10908 H 1050.21 1.80688 3.68484 0
M  V30 10909 H 1049.74 0.117616 3.93224 0
M  V30 10910 H 1051.76 -0.673236 4.91612 0
M  V30 10911 N 1050.93 -1.4397 0.641131 0
M  V30 10912 C 1052.15 -2.06818 0.155318 0
M  V30 10913 C 1052.58 -1.47665 -1.16519 0
M  V30 10914 O 1051.94 -0.58192 -1.71707 0
M  V30 10915 C 1051.99 -3.60542 0.0647537 0
M  V30 10916 O 1051.09 -4.00674 -0.976447 0
M  V30 10917 H 1050.43 -0.657962 0.0893404 0
M  V30 10918 H 1052.96 -1.84678 0.88064 0
M  V30 10919 H 1052.97 -4.07816 -0.122552 0
M  V30 10920 H 1051.65 -4.02975 1.02878 0
M  V30 10921 H 1050.22 -3.65013 -0.762905 0
M  V30 10922 N 1052.41 -0.382291 -1.52893 0
M  V30 10923 C 1053.66 0.203342 -2.00672 0
M  V30 10924 C 1053.97 1.48487 -1.27322 0
M  V30 10925 O 1055.18 2.15013 -1.65776 0
M  V30 10926 C 1053.63 0.412922 -3.57523 0
M  V30 10927 C 1053.24 -0.854949 -4.39767 0
M  V30 10928 C 1054.98 0.955301 -4.13611 0
M  V30 10929 C 1052.89 -0.614033 -5.88204 0
M  V30 10930 H 1051.82 0.0797635 -0.749769 0
M  V30 10931 H 1054.47 -0.50361 -1.76454 0
M  V30 10932 H 1052.85 1.18155 -3.77962 0
M  V30 10933 H 1054.03 -1.62765 -4.31096 0
M  V30 10934 H 1052.34 -1.32176 -3.94865 0
M  V30 10935 H 1054.94 1.15114 -5.22162 0
M  V30 10936 H 1055.28 1.92233 -3.69259 0
M  V30 10937 H 1055.82 0.24642 -3.97036 0
M  V30 10938 H 1052.55 -1.55187 -6.36865 0
M  V30 10939 H 1052.07 0.119865 -5.9968 0
M  V30 10940 H 1053.75 -0.245895 -6.46533 0
M  V30 10941 N 1053.89 1.57202 -0.111913 0
M  V30 10942 C 1055.13 1.94565 0.546713 0
M  V30 10943 C 1055.45 0.995644 1.67666 0
M  V30 10944 O 1054.72 0.0506681 1.95834 0
M  V30 10945 H 1053.3 0.718334 0.204951 0
M  V30 10946 H 1055.97 1.94074 -0.179193 0
M  V30 10947 H 1055.06 2.9742 0.945931 0
M  V30 10948 N 1055.36 -0.161842 1.56767 0
M  V30 10949 C 1056.59 -0.890953 1.86402 0
M  V30 10950 C 1057 -1.75918 0.696373 0
M  V30 10951 O 1056.34 -1.80461 -0.343463 0
M  V30 10952 C 1056.41 -1.81079 3.10565 0
M  V30 10953 C 1056.07 -1.12121 4.43032 0
M  V30 10954 C 1057.07 -0.482152 5.17659 0
M  V30 10955 C 1054.75 -1.11514 4.89765 0
M  V30 10956 C 1056.75 0.153772 6.37214 0
M  V30 10957 C 1054.43 -0.4754 6.09248 0
M  V30 10958 C 1055.43 0.157944 6.82817 0
M  V30 10959 O 1055.12 0.787579 8.00033 0
M  V30 10960 H 1054.85 -0.26379 0.622407 0
M  V30 10961 H 1057.41 -0.163884 2.04745 0
M  V30 10962 H 1055.64 -2.57842 2.88192 0
M  V30 10963 H 1057.32 -2.41056 3.26568 0
M  V30 10964 H 1058.09 -0.478752 4.82631 0
M  V30 10965 H 1053.97 -1.59752 4.32435 0
M  V30 10966 H 1057.51 0.648716 6.94577 0
M  V30 10967 H 1053.41 -0.476416 6.43739 0
M  V30 10968 H 1054.18 0.687769 8.15605 0
M  V30 10969 N 1056.84 -1.516 -0.430713 0
M  V30 10970 C 1058.09 -1.63829 -1.17657 0
M  V30 10971 C 1058.4 -0.363605 -1.92191 0
M  V30 10972 O 1059.61 -0.365358 -2.6903 0
M  V30 10973 C 1058.07 -2.89357 -2.14011 0
M  V30 10974 C 1057.67 -4.23854 -1.45094 0
M  V30 10975 C 1059.42 -3.10944 -2.88988 0
M  V30 10976 C 1057.32 -5.40526 -2.3997 0
M  V30 10977 H 1056.25 -0.610221 -0.442884 0
M  V30 10978 H 1058.91 -1.78073 -0.442984 0
M  V30 10979 H 1057.29 -2.68762 -2.90832 0
M  V30 10980 H 1058.46 -4.54854 -0.737853 0
M  V30 10981 H 1056.78 -4.08197 -0.822429 0
M  V30 10982 H 1059.37 -3.95286 -3.60074 0
M  V30 10983 H 1059.72 -2.24291 -3.50712 0
M  V30 10984 H 1060.25 -3.3191 -2.19272 0
M  V30 10985 H 1056.99 -6.29459 -1.82925 0
M  V30 10986 H 1056.51 -5.13893 -3.09313 0
M  V30 10987 H 1058.19 -5.72741 -3.00959 0
M  V30 10988 N 1058.32 0.686584 -1.41858 0
M  V30 10989 C 1059.55 1.47305 -1.44862 0
M  V30 10990 C 1059.96 1.8912 -0.0549286 0
M  V30 10991 O 1059.3 1.57941 0.938101 0
M  V30 10992 C 1059.36 2.76107 -2.30229 0
M  V30 10993 C 1059.03 2.5644 -3.78269 0
M  V30 10994 C 1060.02 2.21803 -4.70212 0
M  V30 10995 C 1057.71 2.71801 -4.22409 0
M  V30 10996 C 1059.7 2.02778 -6.04284 0
M  V30 10997 C 1057.39 2.52392 -5.56544 0
M  V30 10998 C 1058.39 2.17933 -6.47298 0
M  V30 10999 O 1058.08 1.98701 -7.78956 0
M  V30 11000 H 1057.81 0.460174 -0.495193 0
M  V30 11001 H 1060.36 0.852069 -1.86893 0
M  V30 11002 H 1058.59 3.40644 -1.83026 0
M  V30 11003 H 1060.28 3.37947 -2.24826 0
M  V30 11004 H 1061.05 2.09542 -4.37398 0
M  V30 11005 H 1056.93 2.97605 -3.52069 0
M  V30 11006 H 1060.47 1.75805 -6.75084 0
M  V30 11007 H 1056.37 2.64246 -5.88935 0
M  V30 11008 H 1057.13 2.13393 -7.90193 0
M  V30 11009 N 1059.8 1.27835 0.921735 0
M  V30 11010 C 1061.04 1.14692 1.67253 0
M  V30 11011 C 1061.38 -0.305384 1.91784 0
M  V30 11012 O 1060.65 -1.22286 1.51249 0
M  V30 11013 C 1060.93 1.93743 3.03539 0
M  V30 11014 C 1060.79 3.46991 2.86212 0
M  V30 11015 C 1062.11 1.74658 4.03959 0
M  V30 11016 H 1059.23 0.418021 0.606983 0
M  V30 11017 H 1061.87 1.5706 1.06922 0
M  V30 11018 H 1060.02 1.57738 3.55037 0
M  V30 11019 H 1061.69 3.92858 2.41785 0
M  V30 11020 H 1059.93 3.73029 2.21432 0
M  V30 11021 H 1060.6 3.97551 3.82958 0
M  V30 11022 H 1063.08 2.06063 3.61493 0
M  V30 11023 H 1061.96 2.32353 4.97296 0
M  V30 11024 H 1062.22 0.696019 4.36587 0
M  V30 11025 N 1061.28 -1.12907 1.09954 0
M  V30 11026 C 1062.55 -1.80602 0.751148 0
M  V30 11027 C 1062.93 -1.96826 -0.763077 0
M  V30 11028 O 1062.28 -1.54066 -1.68749 0
M  V30 11029 C 1062.49 -3.15289 1.49646 0
M  V30 11030 C 1063.84 -3.9056 1.66578 0
M  V30 11031 O 1064.86 -3.24929 1.45943 0
M  V30 11032 O 1063.72 -5.08292 2.00752 0
M  V30 11033 H 1060.82 -0.781529 0.270446 0
M  V30 11034 H 1063.36 -1.19786 1.20206 0
M  V30 11035 H 1062.13 -2.9874 2.52725 0
M  V30 11036 H 1061.76 -3.83809 1.03808 0
M  V30 11037 N 1062.75 -0.88754 -1.30232 0
M  V30 11038 C 1063.7 -0.327649 -2.25633 0
M  V30 11039 C 1064.69 0.545362 -1.51376 0
M  V30 11040 O 1065.88 0.389366 -1.72664 0
M  V30 11041 C 1063.01 0.454546 -3.40277 0
M  V30 11042 C 1062.09 -0.432698 -4.21887 0
M  V30 11043 N 1062.49 -1.53434 -4.81966 0
M  V30 11044 C 1060.78 -0.228275 -4.45415 0
M  V30 11045 C 1061.48 -2.08292 -5.43129 0
M  V30 11046 N 1060.46 -1.37754 -5.25856 0
M  V30 11047 H 1064.26 -1.16937 -2.69635 0
M  V30 11048 H 1061.78 -0.737232 -1.44702 0
M  V30 11049 H 1063.77 0.87231 -4.07672 0
M  V30 11050 H 1062.43 1.29367 -2.97816 0
M  V30 11051 H 1063.44 -1.91717 -4.81108 0
M  V30 11052 H 1060.12 0.573475 -4.13543 0
M  V30 11053 H 1061.51 -3.00818 -6.00798 0
M  V30 11054 N 1064.23 1.43628 -0.648757 0
M  V30 11055 C 1065.16 2.33478 0.0320785 0
M  V30 11056 C 1066.14 1.49217 0.816605 0
M  V30 11057 O 1067.33 1.77892 0.778974 0
M  V30 11058 C 1064.46 3.32525 1.00222 0
M  V30 11059 C 1063.41 4.2674 0.328119 0
M  V30 11060 C 1062.74 5.15791 1.4094 0
M  V30 11061 C 1064.04 5.16493 -0.776701 0
M  V30 11062 H 1065.73 2.90657 -0.718257 0
M  V30 11063 H 1063.28 1.3976 -0.346852 0
M  V30 11064 H 1065.23 3.94277 1.4874 0
M  V30 11065 H 1063.96 2.73593 1.78366 0
M  V30 11066 H 1062.61 3.66346 -0.136569 0
M  V30 11067 H 1062.26 4.53201 2.18216 0
M  V30 11068 H 1061.96 5.79645 0.963631 0
M  V30 11069 H 1063.49 5.80416 1.89603 0
M  V30 11070 H 1064.9 5.7208 -0.373878 0
M  V30 11071 H 1063.3 5.89043 -1.14667 0
M  V30 11072 H 1064.37 4.56448 -1.63654 0
M  V30 11073 N 1065.71 0.390394 1.52688 0
M  V30 11074 C 1066.94 -0.194013 2.06491 0
M  V30 11075 C 1067.36 -1.3965 1.26014 0
M  V30 11076 O 1066.72 -1.79038 0.285468 0
M  V30 11077 C 1066.77 -0.541306 3.56514 0
M  V30 11078 O 1065.87 -1.63509 3.78601 0
M  V30 11079 H 1065.21 -0.0223608 0.663623 0
M  V30 11080 H 1067.74 0.558179 1.96839 0
M  V30 11081 H 1067.75 -0.805301 3.99974 0
M  V30 11082 H 1066.43 0.337828 4.14526 0
M  V30 11083 H 1065 -1.36473 3.4703 0
M  V30 11084 N 1067.19 -1.57141 0.120249 0
M  V30 11085 C 1068.6 -1.5784 -0.236335 0
M  V30 11086 C 1068.8 -1.13304 -1.66626 0
M  V30 11087 O 1067.86 -0.821004 -2.3878 0
M  V30 11088 C 1069.17 -3.007 -0.00188211 0
M  V30 11089 C 1070.72 -3.12927 -0.0676838 0
M  V30 11090 C 1071.2 -4.57789 0.139092 0
M  V30 11091 N 1072.69 -4.63122 0.085104 0
M  V30 11092 C 1073.42 -5.72978 0.219983 0
M  V30 11093 N 1072.92 -6.91579 0.411102 0
M  V30 11094 N 1074.71 -5.61874 0.159469 0
M  V30 11095 H 1066.86 -1.84391 1.05422 0
M  V30 11096 H 1069.13 -0.852228 0.415225 0
M  V30 11097 H 1068.83 -3.37575 0.986718 0
M  V30 11098 H 1068.71 -3.70005 -0.733203 0
M  V30 11099 H 1071.09 -2.75909 -1.04681 0
M  V30 11100 H 1071.17 -2.46162 0.695538 0
M  V30 11101 H 1070.82 -4.95506 1.1152 0
M  V30 11102 H 1070.75 -5.22646 -0.644131 0
M  V30 11103 H 1073.24 -3.77854 -0.0590479 0
M  V30 11104 H 1073.55 -7.71149 0.504851 0
M  V30 11105 H 1071.9 -6.9356 0.447091 0
M  V30 11106 H 1075.09 -4.68099 0.0111131 0
M  V30 11107 H 1075.26 -6.47445 0.268028 0
M  V30 11108 N 1068.67 0.153526 -1.5685 0
M  V30 11109 C 1069.92 0.865628 -1.82181 0
M  V30 11110 C 1070.23 1.82629 -0.700434 0
M  V30 11111 O 1071.43 2.58206 -0.839155 0
M  V30 11112 C 1069.89 1.58993 -3.22877 0
M  V30 11113 C 1069.5 0.672006 -4.42931 0
M  V30 11114 C 1071.24 2.2892 -3.57486 0
M  V30 11115 C 1069.15 1.39755 -5.7465 0
M  V30 11116 H 1068.08 0.326993 -0.679406 0
M  V30 11117 H 1070.73 0.118403 -1.83118 0
M  V30 11118 H 1069.11 2.38255 -3.16308 0
M  V30 11119 H 1070.29 -0.0849226 -4.60722 0
M  V30 11120 H 1068.6 0.0814825 -4.1632 0
M  V30 11121 H 1071.2 2.8383 -4.5315 0
M  V30 11122 H 1071.54 3.05105 -2.83226 0
M  V30 11123 H 1072.07 1.56583 -3.65686 0
M  V30 11124 H 1068.81 0.677686 -6.51987 0
M  V30 11125 H 1068.33 2.12736 -5.60806 0
M  V30 11126 H 1070.01 1.94024 -6.17223 0
M  V30 11127 N 1070.14 1.51827 0.422667 0
M  V30 11128 C 1071.42 1.55772 1.18299 0
M  V30 11129 C 1071.8 0.330657 2.08494 0
M  V30 11130 O 1071.15 -0.683373 2.18042 0
M  V30 11131 C 1071.36 2.87941 1.97208 0
M  V30 11132 C 1072.71 3.4044 2.53744 0
M  V30 11133 O 1073.73 2.8959 2.07403 0
M  V30 11134 O 1072.59 4.29201 3.38303 0
M  V30 11135 H 1069.68 0.626889 0.539388 0
M  V30 11136 H 1072.23 1.64147 0.430545 0
M  V30 11137 H 1071 3.68702 1.31052 0
M  V30 11138 H 1070.63 2.82795 2.79486 0
M  V30 11139 N 1071.62 -0.679052 1.4222 0
M  V30 11140 C 1072.87 -1.43485 1.41757 0
M  V30 11141 C 1073.18 -1.95567 0.0358698 0
M  V30 11142 O 1074.39 -2.71346 -0.0913713 0
M  V30 11143 C 1072.85 -2.59541 2.49332 0
M  V30 11144 C 1072.45 -2.14176 3.93488 0
M  V30 11145 C 1074.2 -3.37078 2.58029 0
M  V30 11146 C 1072.11 -3.27289 4.92581 0
M  V30 11147 H 1071.04 -0.539022 0.52723 0
M  V30 11148 H 1073.69 -0.735581 1.68111 0
M  V30 11149 H 1072.07 -3.31815 2.16135 0
M  V30 11150 H 1073.24 -1.49082 4.36017 0
M  V30 11151 H 1071.56 -1.49589 3.88603 0
M  V30 11152 H 1074.15 -4.21312 3.29242 0
M  V30 11153 H 1074.5 -3.83383 1.62245 0
M  V30 11154 H 1075.03 -2.7187 2.90399 0
M  V30 11155 H 1071.77 -2.8598 5.89827 0
M  V30 11156 H 1071.29 -3.91178 4.54687 0
M  V30 11157 H 1072.97 -3.9282 5.14103 0
M  V30 11158 N 1073.1 -1.28322 -0.914942 0
M  V30 11159 C 1074.33 -1.1837 -1.70304 0
M  V30 11160 C 1074.75 0.254291 -1.86373 0
M  V30 11161 O 1074.11 1.18398 -1.37301 0
M  V30 11162 C 1074.16 -1.88603 -3.07346 0
M  V30 11163 O 1073.26 -1.19268 -3.94777 0
M  V30 11164 H 1072.6 -0.410978 -0.52153 0
M  V30 11165 H 1075.13 -1.69622 -1.14409 0
M  V30 11166 H 1075.14 -1.96463 -3.57584 0
M  V30 11167 H 1073.82 -2.93201 -2.94967 0
M  V30 11168 H 1072.39 -1.19563 -3.53212 0
M  V30 11169 N 1074.58 1.12322 -1.10551 0
M  V30 11170 C 1075.83 1.83858 -0.848674 0
M  V30 11171 C 1076.15 1.84159 0.62575 0
M  V30 11172 O 1075.41 1.28341 1.4774 0
M  V30 11173 C 1075.71 3.31177 -1.34375 0
M  V30 11174 C 1075.37 3.51046 -2.8298 0
M  V30 11175 C 1074.04 3.56177 -3.23561 0
M  V30 11176 C 1076.39 3.58061 -3.78737 0
M  V30 11177 C 1073.72 3.65868 -4.58647 0
M  V30 11178 C 1076.07 3.69283 -5.13627 0
M  V30 11179 C 1074.73 3.7267 -5.53781 0
M  V30 11180 H 1074 0.672784 -0.310552 0
M  V30 11181 H 1076.65 1.3253 -1.38232 0
M  V30 11182 H 1074.95 3.84937 -0.730144 0
M  V30 11183 H 1076.65 3.84998 -1.12148 0
M  V30 11184 H 1073.24 3.47716 -2.50582 0
M  V30 11185 H 1077.42 3.53366 -3.48491 0
M  V30 11186 H 1072.68 3.66763 -4.89178 0
M  V30 11187 H 1076.85 3.73654 -5.8767 0
M  V30 11188 H 1074.48 3.79932 -6.58449 0
M  V30 11189 N 1076.06 0.894434 1.2976 0
M  V30 11190 C 1076.99 0.3847 2.30309 0
M  V30 11191 C 1077.97 -0.537486 1.61385 0
M  V30 11192 O 1079.15 -0.449332 1.8893 0
M  V30 11193 C 1076.28 -0.393311 3.45066 0
M  V30 11194 C 1075.24 0.437968 4.25753 0
M  V30 11195 C 1074.56 -0.467221 5.32655 0
M  V30 11196 C 1075.86 1.6851 4.9437 0
M  V30 11197 H 1077.56 1.22496 2.73194 0
M  V30 11198 H 1075.1 0.590471 1.31337 0
M  V30 11199 H 1077.06 -0.760614 4.14479 0
M  V30 11200 H 1075.78 -1.2673 3.0101 0
M  V30 11201 H 1074.44 0.787533 3.58041 0
M  V30 11202 H 1074.09 -1.33919 4.84845 0
M  V30 11203 H 1073.79 0.0852482 5.87538 0
M  V30 11204 H 1075.31 -0.830833 6.04921 0
M  V30 11205 H 1076.72 1.38784 5.56248 0
M  V30 11206 H 1075.12 2.17849 5.59162 0
M  V30 11207 H 1076.19 2.42412 4.19958 0
M  V30 11208 N 1077.53 -1.43282 0.656365 0
M  V30 11209 C 1078.46 -2.33492 -0.0196962 0
M  V30 11210 C 1079.45 -1.49647 -0.80868 0
M  V30 11211 O 1080.63 -1.78303 -0.769529 0
M  V30 11212 C 1077.76 -3.33052 -0.984574 0
M  V30 11213 C 1076.71 -4.26908 -0.305483 0
M  V30 11214 C 1076.04 -5.16531 -1.38202 0
M  V30 11215 C 1077.34 -5.16073 0.804081 0
M  V30 11216 H 1079.03 -2.90272 0.733661 0
M  V30 11217 H 1076.58 -1.39574 0.354259 0
M  V30 11218 H 1078.53 -3.9506 -1.46647 0
M  V30 11219 H 1077.26 -2.74535 -1.76913 0
M  V30 11220 H 1075.92 -3.66268 0.155995 0
M  V30 11221 H 1075.56 -4.54351 -2.1581 0
M  V30 11222 H 1075.26 -5.80148 -0.932878 0
M  V30 11223 H 1076.79 -5.81414 -1.86522 0
M  V30 11224 H 1078.2 -5.71873 0.404212 0
M  V30 11225 H 1076.6 -5.88427 1.17789 0
M  V30 11226 H 1077.67 -4.55574 1.66073 0
M  V30 11227 N 1079.01 -0.398486 -1.52479 0
M  V30 11228 C 1080.29 0.238776 -1.94137 0
M  V30 11229 C 1080.67 1.63558 -1.33462 0
M  V30 11230 O 1080.02 2.22821 -0.506272 0
M  V30 11231 C 1080.23 0.255863 -3.48061 0
M  V30 11232 C 1081.58 0.480376 -4.21874 0
M  V30 11233 O 1082.6 0.335679 -3.54615 0
M  V30 11234 O 1081.46 0.764654 -5.41124 0
M  V30 11235 H 1078.55 0.150806 -0.813134 0
M  V30 11236 H 1081.1 -0.453659 -1.63524 0
M  V30 11237 H 1079.87 -0.722171 -3.84578 0
M  V30 11238 H 1079.49 0.99284 -3.85004 0
M  V30 11239 N 1080.49 1.57075 -0.12858 0
M  V30 11240 C 1081.74 1.9581 0.527868 0
M  V30 11241 C 1082.07 1.01253 1.65715 0
M  V30 11242 O 1081.35 0.0514853 1.94432 0
M  V30 11243 C 1081.63 3.44406 1.05151 0
M  V30 11244 C 1081.48 4.49737 -0.0750113 0
M  V30 11245 C 1082.8 3.95069 1.9393 0
M  V30 11246 H 1079.92 0.711978 0.19041 0
M  V30 11247 H 1082.56 1.88879 -0.206081 0
M  V30 11248 H 1080.71 3.50443 1.67697 0
M  V30 11249 H 1082.38 4.55793 -0.710685 0
M  V30 11250 H 1080.63 4.27497 -0.736809 0
M  V30 11251 H 1081.3 5.50996 0.332779 0
M  V30 11252 H 1083.77 3.91395 1.41241 0
M  V30 11253 H 1082.65 4.99542 2.27484 0
M  V30 11254 H 1082.91 3.36329 2.86941 0
M  V30 11255 N 1081.97 -0.145205 1.5693 0
M  V30 11256 C 1083.19 -0.876386 1.87974 0
M  V30 11257 C 1083.62 -1.73866 0.717795 0
M  V30 11258 O 1082.98 -1.78224 -0.332551 0
M  V30 11259 C 1083.03 -1.70746 3.17613 0
M  V30 11260 O 1082.13 -2.81188 3.01674 0
M  V30 11261 H 1081.47 -0.243987 0.617549 0
M  V30 11262 H 1084 -0.135482 2.04151 0
M  V30 11263 H 1084.01 -2.1021 3.49679 0
M  V30 11264 H 1082.69 -1.07429 4.01786 0
M  V30 11265 H 1081.26 -2.45117 2.81019 0
M  V30 11266 N 1083.45 -1.52049 -0.414609 0
M  V30 11267 C 1084.67 -1.6997 -1.18848 0
M  V30 11268 C 1085.1 -0.406058 -1.83665 0
M  V30 11269 O 1084.46 0.635981 -1.69779 0
M  V30 11270 C 1084.5 -2.8327 -2.23138 0
M  V30 11271 O 1083.61 -2.48457 -3.29155 0
M  V30 11272 H 1082.95 -0.566003 -0.347183 0
M  V30 11273 H 1085.48 -1.98726 -0.486757 0
M  V30 11274 H 1085.49 -3.08022 -2.67557 0
M  V30 11275 H 1084.16 -3.7713 -1.75344 0
M  V30 11276 H 1082.74 -2.34357 -2.90054 0
M  V30 11277 N 1084.93 0.6715 -1.42579 0
M  V30 11278 C 1085.86 1.79693 -1.49107 0
M  V30 11279 C 1086.84 1.66516 -0.347338 0
M  V30 11280 O 1088.02 1.85887 -0.562094 0
M  V30 11281 C 1085.15 3.1801 -1.39596 0
M  V30 11282 C 1084.11 3.45926 -2.5203 0
M  V30 11283 C 1083.43 4.83852 -2.27577 0
M  V30 11284 C 1084.73 3.4249 -3.94333 0
M  V30 11285 H 1086.43 1.74486 -2.433 0
M  V30 11286 H 1083.97 0.838042 -1.17102 0
M  V30 11287 H 1085.92 3.96478 -1.42771 0
M  V30 11288 H 1084.65 3.23901 -0.418989 0
M  V30 11289 H 1083.31 2.6982 -2.48178 0
M  V30 11290 H 1082.96 4.86398 -1.28165 0
M  V30 11291 H 1082.66 5.03493 -3.02934 0
M  V30 11292 H 1084.18 5.646 -2.32506 0
M  V30 11293 H 1085.59 4.10922 -3.9977 0
M  V30 11294 H 1083.99 3.73666 -4.69568 0
M  V30 11295 H 1085.06 2.41002 -4.20768 0
M  V30 11296 N 1086.4 1.28806 0.908124 0
M  V30 11297 C 1087.63 1.19271 1.69674 0
M  V30 11298 C 1088.05 -0.244403 1.86505 0
M  V30 11299 O 1087.41 -1.17668 1.37927 0
M  V30 11300 C 1087.46 1.9023 3.06341 0
M  V30 11301 O 1086.56 1.2136 3.94139 0
M  V30 11302 H 1085.9 0.413738 0.519343 0
M  V30 11303 H 1088.43 1.70227 1.13508 0
M  V30 11304 H 1088.44 1.98356 3.56537 0
M  V30 11305 H 1087.12 2.94762 2.93408 0
M  V30 11306 H 1085.7 1.21435 3.52573 0
M  V30 11307 N 1087.88 -1.11734 1.11145 0
M  V30 11308 C 1089.3 -1.35412 0.844736 0
M  V30 11309 C 1089.5 -1.94347 -0.532111 0
M  V30 11310 O 1088.55 -2.17443 -1.28353 0
M  V30 11311 C 1089.87 -2.28869 1.95037 0
M  V30 11312 C 1091.41 -2.42442 1.97967 0
M  V30 11313 C 1091.89 -3.39219 3.07725 0
M  V30 11314 N 1093.38 -3.4678 3.07079 0
M  V30 11315 C 1094.12 -4.21595 3.88646 0
M  V30 11316 N 1093.61 -4.99411 4.80167 0
M  V30 11317 N 1095.4 -4.17075 3.76835 0
M  V30 11318 H 1087.56 -0.718412 1.99881 0
M  V30 11319 H 1089.82 -0.378787 0.869037 0
M  V30 11320 H 1089.52 -1.92752 2.94176 0
M  V30 11321 H 1089.4 -3.2906 1.84389 0
M  V30 11322 H 1091.79 -2.77835 0.994561 0
M  V30 11323 H 1091.87 -1.42113 2.12691 0
M  V30 11324 H 1091.51 -3.04553 4.0646 0
M  V30 11325 H 1091.44 -4.39394 2.90242 0
M  V30 11326 H 1093.93 -2.91272 2.40767 0
M  V30 11327 H 1094.24 -5.53856 5.38946 0
M  V30 11328 H 1092.59 -4.98582 4.84191 0
M  V30 11329 H 1095.78 -3.55369 3.04681 0
M  V30 11330 H 1095.95 -4.75125 4.40637 0
M  V30 11331 N 1089.36 -0.901303 -1.29284 0
M  V30 11332 C 1090.32 -0.385081 -2.25942 0
M  V30 11333 C 1091.32 0.481626 -1.53418 0
M  V30 11334 O 1092.51 0.286451 -1.71829 0
M  V30 11335 C 1089.64 0.449319 -3.37926 0
M  V30 11336 H 1090.84 -1.23877 -2.7312 0
M  V30 11337 H 1088.39 -0.679586 -1.40753 0
M  V30 11338 H 1089.13 1.32292 -2.9609 0
M  V30 11339 H 1088.91 -0.171731 -3.91724 0
M  V30 11340 H 1090.4 0.801746 -4.09831 0
M  V30 11341 N 1090.84 1.42931 -0.663954 0
M  V30 11342 C 1091.75 2.3459 0.0214234 0
M  V30 11343 C 1092.76 1.54487 0.800611 0
M  V30 11344 O 1093.94 1.87098 0.74541 0
M  V30 11345 C 1091 3.32896 0.968556 0
M  V30 11346 C 1090.07 4.28901 0.185108 0
M  V30 11347 C 1089.3 5.2251 1.08713 0
M  V30 11348 O 1089.52 5.20795 2.32655 0
M  V30 11349 O 1088.46 5.99347 0.553758 0
M  V30 11350 H 1092.28 2.94714 -0.733308 0
M  V30 11351 H 1089.87 1.43252 -0.424159 0
M  V30 11352 H 1091.75 3.93318 1.51257 0
M  V30 11353 H 1090.42 2.75261 1.70333 0
M  V30 11354 H 1089.33 3.71926 -0.402752 0
M  V30 11355 H 1090.66 4.89547 -0.510319 0
M  V30 11356 N 1092.32 0.406567 1.52266 0
M  V30 11357 C 1093.23 -0.4271 2.30679 0
M  V30 11358 C 1094.24 -1.0559 1.383 0
M  V30 11359 O 1095.42 -1.05797 1.71374 0
M  V30 11360 C 1092.48 -1.53008 3.1111 0
M  V30 11361 C 1091.54 -0.924604 4.19225 0
M  V30 11362 C 1090.78 -1.97502 4.95811 0
M  V30 11363 O 1091 -3.19277 4.72671 0
M  V30 11364 O 1089.93 -1.58268 5.80719 0
M  V30 11365 H 1093.76 0.212187 3.02958 0
M  V30 11366 H 1091.34 0.169835 1.48432 0
M  V30 11367 H 1093.23 -2.17046 3.61205 0
M  V30 11368 H 1091.9 -2.15401 2.41628 0
M  V30 11369 H 1090.81 -0.247009 3.73284 0
M  V30 11370 H 1092.14 -0.34463 4.90992 0
M  V30 11371 N 1093.79 -1.57004 0.136909 0
M  V30 11372 C 1095.07 -1.87375 -0.561233 0
M  V30 11373 C 1095.45 -1.04117 -1.83638 0
M  V30 11374 O 1094.8 -0.125103 -2.28157 0
M  V30 11375 C 1095.01 -3.38829 -0.836426 0
M  V30 11376 C 1096.36 -4.07826 -1.18164 0
M  V30 11377 O 1097.38 -3.4395 -0.92611 0
M  V30 11378 O 1096.24 -5.20614 -1.66204 0
M  V30 11379 H 1093.33 -0.776287 -0.285145 0
M  V30 11380 H 1095.88 -1.68818 0.172761 0
M  V30 11381 H 1094.65 -3.91244 0.066442 0
M  V30 11382 H 1094.28 -3.62879 -1.62496 0
M  V30 11383 N 1095.27 0.136881 -1.57004 0
M  V30 11384 C 1096.2 1.17026 -2.02057 0
M  V30 11385 C 1097.18 1.44223 -0.901866 0
M  V30 11386 O 1098.37 1.54971 -1.17037 0
M  V30 11387 C 1095.5 2.50095 -2.40977 0
M  V30 11388 C 1094.45 2.37398 -3.56127 0
M  V30 11389 C 1093.78 3.75268 -3.80891 0
M  V30 11390 C 1095.08 1.84952 -4.88457 0
M  V30 11391 H 1096.77 0.795601 -2.88636 0
M  V30 11392 H 1094.32 0.381266 -1.38861 0
M  V30 11393 H 1096.27 3.22621 -2.71097 0
M  V30 11394 H 1095 2.89416 -1.51348 0
M  V30 11395 H 1093.65 1.67322 -3.26188 0
M  V30 11396 H 1093.3 4.12043 -2.88496 0
M  V30 11397 H 1093 3.67631 -4.5839 0
M  V30 11398 H 1094.53 4.49327 -4.13446 0
M  V30 11399 H 1095.94 2.4728 -5.17229 0
M  V30 11400 H 1094.34 1.88181 -5.69832 0
M  V30 11401 H 1095.41 0.805848 -4.78157 0
M  V30 11402 N 1096.75 1.52266 0.40654 0
M  V30 11403 C 1097.98 1.70598 1.17945 0
M  V30 11404 C 1098.4 0.415793 1.83447 0
M  V30 11405 O 1097.76 -0.626968 1.70114 0
M  V30 11406 C 1097.81 2.84449 2.21633 0
M  V30 11407 O 1096.91 2.50199 3.27833 0
M  V30 11408 H 1096.25 0.567837 0.344177 0
M  V30 11409 H 1098.78 1.98981 0.476211 0
M  V30 11410 H 1098.79 3.09436 2.65919 0
M  V30 11411 H 1097.47 3.78055 1.73341 0
M  V30 11412 H 1096.04 2.35892 2.88807 0
M  V30 11413 N 1098.23 -0.663929 1.42933 0
M  V30 11414 C 1099.48 -1.41973 1.43271 0
M  V30 11415 C 1099.79 -1.95518 0.0566103 0
M  V30 11416 O 1101 -2.71428 -0.0625862 0
M  V30 11417 C 1099.45 -2.56882 2.52071 0
M  V30 11418 C 1099.06 -2.0999 3.95737 0
M  V30 11419 C 1100.8 -3.34322 2.61589 0
M  V30 11420 C 1098.71 -3.22046 4.96025 0
M  V30 11421 H 1097.64 -0.5334 0.532917 0
M  V30 11422 H 1100.29 -0.717709 1.68882 0
M  V30 11423 H 1098.67 -3.29504 2.19643 0
M  V30 11424 H 1099.85 -1.44449 4.37574 0
M  V30 11425 H 1098.16 -1.45459 3.90168 0
M  V30 11426 H 1100.76 -4.17796 3.33692 0
M  V30 11427 H 1101.1 -3.8164 1.66302 0
M  V30 11428 H 1101.64 -2.68775 2.93266 0
M  V30 11429 H 1098.38 -2.79708 5.92827 0
M  V30 11430 H 1097.9 -3.86333 4.5881 0
M  V30 11431 H 1099.57 -3.87345 5.1824 0
M  V30 11432 N 1099.71 -1.29285 -0.901281 0
M  V30 11433 C 1100.93 -1.20048 -1.68511 0
M  V30 11434 C 1101.35 0.239128 -1.8728 0
M  V30 11435 O 1100.71 1.16027 -1.40869 0
M  V30 11436 C 1100.76 -1.90798 -3.07048 0
M  V30 11437 O 1100.48 -3.29137 -2.89138 0
M  V30 11438 C 1101.98 -1.88017 -4.01453 0
M  V30 11439 H 1099.2 -0.416157 -0.52636 0
M  V30 11440 H 1101.74 -1.7063 -1.12719 0
M  V30 11441 H 1099.9 -1.44055 -3.5962 0
M  V30 11442 H 1100.31 -3.64747 -3.76908 0
M  V30 11443 H 1101.79 -2.42088 -4.96082 0
M  V30 11444 H 1102.26 -0.855341 -4.30791 0
M  V30 11445 H 1102.87 -2.34497 -3.54812 0
M  V30 11446 N 1101.18 1.11143 -1.11736 0
M  V30 11447 C 1102.43 1.83219 -0.869413 0
M  V30 11448 C 1102.76 1.84588 0.603402 0
M  V30 11449 O 1102.04 1.30119 1.44566 0
M  V30 11450 C 1102.32 3.30247 -1.43559 0
M  V30 11451 C 1102.17 3.37253 -2.97624 0
M  V30 11452 C 1103.49 4.26412 -1.08907 0
M  V30 11453 H 1100.61 0.665205 -0.317286 0
M  V30 11454 H 1103.25 1.30307 -1.38275 0
M  V30 11455 H 1101.4 3.75437 -0.998978 0
M  V30 11456 H 1103.08 3.00599 -3.49911 0
M  V30 11457 H 1101.32 2.77378 -3.33532 0
M  V30 11458 H 1101.99 4.40752 -3.32328 0
M  V30 11459 H 1104.47 3.89418 -1.46604 0
M  V30 11460 H 1103.34 5.27666 -1.51195 0
M  V30 11461 H 1103.6 4.421 -0.000259009 0
M  V30 11462 N 1102.66 0.908147 1.28804 0
M  V30 11463 C 1103.61 0.363504 2.25084 0
M  V30 11464 C 1104.6 -0.52121 1.52224 0
M  V30 11465 O 1105.79 -0.361848 1.73262 0
M  V30 11466 C 1102.92 -0.400353 3.40958 0
M  V30 11467 C 1102 0.499761 4.21145 0
M  V30 11468 N 1102.39 1.61082 4.79464 0
M  V30 11469 C 1100.69 0.299108 4.44996 0
M  V30 11470 C 1101.39 2.16906 5.39747 0
M  V30 11471 N 1100.37 1.46103 5.23598 0
M  V30 11472 H 1104.17 1.21212 2.6774 0
M  V30 11473 H 1101.69 0.760159 1.43511 0
M  V30 11474 H 1103.68 -0.807343 4.09008 0
M  V30 11475 H 1102.34 -1.24613 2.99836 0
M  V30 11476 H 1103.35 1.99347 4.77997 0
M  V30 11477 H 1100.03 -0.507611 4.14403 0
M  V30 11478 H 1101.42 3.10338 5.95936 0
M  V30 11479 N 1104.14 -1.42577 0.671525 0
M  V30 11480 C 1105.1 -2.292 0.000392482 0
M  V30 11481 C 1106.1 -1.43158 -0.732294 0
M  V30 11482 O 1107.29 -1.64583 -0.570789 0
M  V30 11483 C 1104.43 -3.25591 -1.01013 0
M  V30 11484 H 1105.62 -2.90037 0.762783 0
M  V30 11485 H 1103.17 -1.50162 0.433703 0
M  V30 11486 H 1103.91 -2.69685 -1.80112 0
M  V30 11487 H 1103.69 -3.89049 -0.488183 0
M  V30 11488 H 1105.18 -3.90561 -1.47824 0
M  V30 11489 N 1105.62 -0.414636 -1.52048 0
M  V30 11490 C 1106.85 0.158686 -2.06291 0
M  V30 11491 C 1107.26 1.38397 -1.2842 0
M  V30 11492 O 1106.62 1.79351 -0.337539 0
M  V30 11493 C 1106.67 0.503634 -3.57975 0
M  V30 11494 O 1106.39 -0.672996 -4.329 0
M  V30 11495 C 1107.89 1.13009 -4.28653 0
M  V30 11496 H 1105.11 0.0179622 -0.67076 0
M  V30 11497 H 1107.66 -0.587177 -1.95889 0
M  V30 11498 H 1105.81 1.19939 -3.68366 0
M  V30 11499 H 1106.22 -0.383735 -5.23094 0
M  V30 11500 H 1107.7 1.32162 -5.35945 0
M  V30 11501 H 1108.18 2.10476 -3.85482 0
M  V30 11502 H 1108.78 0.474379 -4.22646 0
M  V30 11503 N 1107.1 1.56929 -0.145233 0
M  V30 11504 C 1108.34 1.97959 0.509092 0
M  V30 11505 C 1108.7 1.02813 1.62153 0
M  V30 11506 O 1109.9 1.3288 2.33659 0
M  V30 11507 C 1108.17 3.43012 1.00388 0
M  V30 11508 S 1109.73 4.06064 1.66305 0
M  V30 11509 H 1106.55 0.69167 0.164663 0
M  V30 11510 H 1109.15 1.94064 -0.236529 0
M  V30 11511 H 1107.86 4.0999 0.183454 0
M  V30 11512 H 1107.39 3.50615 1.78417 0
M  V30 11513 H 1109.4 3.98971 2.9502 0
M  V30 11514 N 1108.58 -0.128553 1.57075 0
M  V30 11515 C 1109.49 -1.17718 2.02927 0
M  V30 11516 C 1110.5 -1.45912 0.947932 0
M  V30 11517 O 1111.68 -1.57217 1.25876 0
M  V30 11518 C 1108.74 -2.48625 2.41633 0
M  V30 11519 C 1107.8 -2.27914 3.63804 0
M  V30 11520 C 1107.04 -3.52579 4.00654 0
M  V30 11521 O 1107.26 -4.59505 3.37952 0
M  V30 11522 O 1106.19 -3.44147 4.93808 0
M  V30 11523 H 1110.02 -0.817846 2.92481 0
M  V30 11524 H 1107.6 -0.338649 1.45511 0
M  V30 11525 H 1109.49 -3.2577 2.67305 0
M  V30 11526 H 1108.16 -2.84052 1.55229 0
M  V30 11527 H 1107.07 -1.4866 3.43294 0
M  V30 11528 H 1108.4 -1.97395 4.50883 0
M  V30 11529 N 1110.05 -1.5248 -0.398459 0
M  V30 11530 C 1111 -1.77211 -1.50662 0
M  V30 11531 C 1112 -0.639638 -1.5686 0
M  V30 11532 O 1113.2 -0.821917 -1.60139 0
M  V30 11533 H 1109.58 -0.56057 -0.501264 0
M  V30 11534 H 1111.55 -2.70028 -1.26993 0
M  V30 11535 C 1110.3 -1.94944 -2.8791 0
M  V30 11536 H 1109.62 -2.8151 -2.83888 0
M  V30 11537 H 1111.06 -2.16243 -3.64712 0
M  V30 11538 C 1109.52 -0.719402 -3.29129 0
M  V30 11539 O 1110.05 0.107671 -4.01556 0
M  V30 11540 N 1108.25 -0.552228 -2.85305 0
M  V30 11541 H 1107.8 -1.22638 -2.26534 0
M  V30 11542 H 1107.76 0.269447 -3.13243 0
M  V30 11543 N 1111.53 0.65634 -1.43283 0
M  V30 11544 C 1112.44 1.79847 -1.50639 0
M  V30 11545 C 1113.46 1.69487 -0.393714 0
M  V30 11546 O 1114.63 1.90712 -0.647379 0
M  V30 11547 C 1111.7 3.16107 -1.42398 0
M  V30 11548 C 1110.76 3.38287 -2.64312 0
M  V30 11549 C 1109.99 4.68046 -2.56454 0
M  V30 11550 O 1110.22 5.4719 -1.61056 0
M  V30 11551 O 1109.15 4.91877 -3.46902 0
M  V30 11552 H 1112.98 1.76596 -2.47078 0
M  V30 11553 H 1110.56 0.814428 -1.25249 0
M  V30 11554 H 1112.44 3.97382 -1.40233 0
M  V30 11555 H 1111.12 3.19956 -0.490929 0
M  V30 11556 H 1110.02 2.56788 -2.72049 0
M  V30 11557 H 1111.36 3.39282 -3.56579 0
M  V30 11558 N 1113.01 1.29761 0.894412 0
M  V30 11559 C 1113.92 1.1724 2.03204 0
M  V30 11560 C 1114.94 0.0944452 1.73743 0
M  V30 11561 O 1116.11 0.307549 1.99038 0
M  V30 11562 C 1113.18 0.855416 3.35981 0
M  V30 11563 C 1112.24 2.01777 3.78926 0
M  V30 11564 C 1111.47 1.71581 5.05367 0
M  V30 11565 O 1111.69 0.639245 5.66807 0
M  V30 11566 O 1110.63 2.56539 5.44492 0
M  V30 11567 H 1114.45 2.12787 2.16692 0
M  V30 11568 H 1112.04 1.09264 1.0189 0
M  V30 11569 H 1113.92 0.693429 4.15656 0
M  V30 11570 H 1112.6 -0.0702195 3.23624 0
M  V30 11571 H 1111.5 2.23502 2.99996 0
M  V30 11572 H 1112.84 2.92479 3.95875 0
M  V30 11573 N 1114.49 -1.10549 1.12324 0
M  V30 11574 C 1115.4 -2.20428 0.803032 0
M  V30 11575 C 1116.41 -1.72756 -0.207674 0
M  V30 11576 O 1117.59 -2.01357 -0.0415623 0
M  V30 11577 C 1114.65 -3.45716 0.261032 0
M  V30 11578 C 1113.72 -4.08129 1.33152 0
M  V30 11579 C 1112.95 -5.27436 0.815288 0
M  V30 11580 O 1113.17 -5.69317 -0.351361 0
M  V30 11581 O 1112.11 -5.80674 1.58434 0
M  V30 11582 H 1115.93 -2.50249 1.72073 0
M  V30 11583 H 1113.52 -1.19263 0.899815 0
M  V30 11584 H 1115.4 -4.21384 -0.0364007 0
M  V30 11585 H 1114.07 -3.17525 -0.629249 0
M  V30 11586 H 1112.98 -3.3415 1.6821 0
M  V30 11587 H 1114.31 -4.4052 2.19552 0
M  V30 11588 N 1115.97 -0.914965 -1.28321 0
M  V30 11589 C 1116.9 -0.348729 -2.2552 0
M  V30 11590 C 1117.88 0.547737 -1.53097 0
M  V30 11591 O 1119.06 0.491119 -1.8199 0
M  V30 11592 C 1116.19 0.501397 -3.34968 0
M  V30 11593 C 1115.23 -0.329859 -4.25223 0
M  V30 11594 S 1116.07 -1.73737 -5.06533 0
M  V30 11595 C 1117.22 -0.89458 -6.19474 0
M  V30 11596 H 1117.46 -1.17256 -2.732 0
M  V30 11597 H 1114.99 -0.716297 -1.36779 0
M  V30 11598 H 1116.95 0.986061 -3.98481 0
M  V30 11599 H 1115.61 1.29962 -2.85952 0
M  V30 11600 H 1114.8 0.320236 -5.02982 0
M  V30 11601 H 1114.4 -0.748221 -3.66439 0
M  V30 11602 H 1116.69 -0.124776 -6.77385 0
M  V30 11603 H 1117.64 -1.64475 -6.88733 0
M  V30 11604 H 1118.05 -0.442217 -5.62765 0
M  V30 11605 N 1117.44 1.42219 -0.679077 0
M  V30 11606 C 1118.72 1.95155 -0.13188 0
M  V30 11607 C 1119.1 1.6193 1.35433 0
M  V30 11608 O 1118.45 0.917672 2.09263 0
M  V30 11609 C 1118.66 3.46635 -0.405578 0
M  V30 11610 C 1120.01 4.23359 -0.324394 0
M  V30 11611 O 1121.03 3.54578 -0.339564 0
M  V30 11612 O 1119.89 5.45831 -0.270268 0
M  V30 11613 H 1116.98 0.826983 -0.00535438 0
M  V30 11614 H 1119.53 1.52024 -0.754101 0
M  V30 11615 H 1118.3 3.6404 -1.43495 0
M  V30 11616 H 1117.92 3.96823 0.248439 0
M  V30 11617 N 1118.92 0.422693 1.51826 0
M  V30 11618 C 1119.87 -0.41063 2.28947 0
M  V30 11619 C 1120.86 -1.03389 1.34191 0
M  V30 11620 O 1122.07 -0.970533 1.51594 0
M  V30 11621 H 1118.44 -0.151219 0.736639 0
M  V30 11622 H 1120.42 0.260859 2.97258 0
M  V30 11623 C 1119.16 -1.50758 3.13317 0
M  V30 11624 H 1118.49 -1.03734 3.86108 0
M  V30 11625 H 1119.93 -2.0642 3.7036 0
M  V30 11626 C 1118.39 -2.48261 2.27746 0
M  V30 11627 O 1118.92 -3.52462 1.92701 0
M  V30 11628 N 1117.12 -2.18795 1.91251 0
M  V30 11629 H 1116.67 -1.34088 2.1995 0
M  V30 11630 H 1116.63 -2.84276 1.34293 0
M  V30 11631 N 1120.4 -1.5685 0.153553 0
M  V30 11632 C 1121.33 -2.20101 -0.779601 0
M  V30 11633 C 1122.31 -1.15121 -1.25225 0
M  V30 11634 O 1123.5 -1.43487 -1.30862 0
M  V30 11635 C 1120.63 -2.82778 -2.01628 0
M  V30 11636 C 1119.58 -3.93643 -1.68015 0
M  V30 11637 C 1118.91 -4.43286 -2.99001 0
M  V30 11638 C 1120.21 -5.14102 -0.921774 0
M  V30 11639 H 1121.9 -2.98334 -0.252432 0
M  V30 11640 H 1119.45 -1.43499 -0.119975 0
M  V30 11641 H 1121.4 -3.25696 -2.67395 0
M  V30 11642 H 1120.12 -2.01887 -2.56728 0
M  V30 11643 H 1118.78 -3.51354 -1.04624 0
M  V30 11644 H 1118.43 -3.59208 -3.52106 0
M  V30 11645 H 1118.13 -5.18068 -2.77272 0
M  V30 11646 H 1119.65 -4.88878 -3.65828 0
M  V30 11647 H 1121.07 -5.53823 -1.48167 0
M  V30 11648 H 1119.46 -5.94687 -0.804185 0
M  V30 11649 H 1120.53 -4.84825 0.0852757 0
M  V30 11650 N 1121.88 0.120221 -1.57141 0
M  V30 11651 C 1122.82 1.14751 -2.00252 0
M  V30 11652 C 1123.79 1.41217 -0.874462 0
M  V30 11653 O 1124.98 1.53104 -1.13859 0
M  V30 11654 C 1122.12 2.46923 -2.41087 0
M  V30 11655 C 1121.23 2.27403 -3.67303 0
M  V30 11656 C 1120.37 3.52797 -3.97125 0
M  V30 11657 C 1119.41 3.28429 -5.16528 0
M  V30 11658 N 1118.54 4.46022 -5.42226 0
M  V30 11659 H 1123.38 0.772884 -2.87803 0
M  V30 11660 H 1120.92 0.370137 -1.42367 0
M  V30 11661 H 1122.88 3.24025 -2.62799 0
M  V30 11662 H 1121.51 2.82281 -1.5658 0
M  V30 11663 H 1120.56 1.41224 -3.53214 0
M  V30 11664 H 1121.87 2.05373 -4.54558 0
M  V30 11665 H 1121.03 4.38318 -4.19479 0
M  V30 11666 H 1119.77 3.77857 -3.08343 0
M  V30 11667 H 1118.77 2.41299 -4.94019 0
M  V30 11668 H 1120 3.0474 -6.06886 0
M  V30 11669 H 1117.94 4.71205 -4.56401 0
M  V30 11670 H 1117.86 4.27092 -6.23802 0
M  V30 11671 H 1119.13 5.3268 -5.69098 0
M  V30 11672 N 1123.36 1.52689 0.390367 0
M  V30 11673 C 1124.31 1.73751 1.4763 0
M  V30 11674 C 1125.29 0.591572 1.4963 0
M  V30 11675 O 1126.48 0.849354 1.5529 0
M  V30 11676 C 1123.61 1.90855 2.85358 0
M  V30 11677 C 1122.7 3.11377 2.87933 0
M  V30 11678 N 1123.09 4.33751 2.6018 0
M  V30 11679 C 1121.39 3.11594 3.19101 0
M  V30 11680 C 1122.09 5.15346 2.69803 0
M  V30 11681 N 1121.06 4.51002 3.03476 0
M  V30 11682 H 1124.87 2.65994 1.24997 0
M  V30 11683 H 1122.38 1.50977 0.598301 0
M  V30 11684 H 1124.38 2.04065 3.63542 0
M  V30 11685 H 1123.04 0.998241 3.08974 0
M  V30 11686 H 1124.05 4.61907 2.34227 0
M  V30 11687 H 1120.72 2.30368 3.48191 0
M  V30 11688 H 1122.11 6.22892 2.51902 0
M  V30 11689 N 1124.83 -0.648732 1.43629 0
M  V30 11690 C 1126.06 -1.44117 1.49148 0
M  V30 11691 C 1126.48 -1.87767 0.111952 0
M  V30 11692 O 1125.84 -1.57655 -0.895249 0
M  V30 11693 C 1125.89 -2.64938 2.44623 0
M  V30 11694 O 1124.99 -3.64155 1.93559 0
M  V30 11695 H 1124.34 -0.431933 0.504312 0
M  V30 11696 H 1126.87 -0.793439 1.88589 0
M  V30 11697 H 1126.88 -3.12698 2.62076 0
M  V30 11698 H 1125.55 -2.3251 3.44836 0
M  V30 11699 H 1124.13 -3.23322 1.85789 0
M  V30 11700 N 1126.31 -1.30234 -0.887518 0
M  V30 11701 C 1127.73 -1.0851 -1.17037 0
M  V30 11702 C 1127.93 0.155788 -2.00897 0
M  V30 11703 O 1126.98 0.850123 -2.37759 0
M  V30 11704 C 1128.3 -2.34723 -1.87951 0
M  V30 11705 C 1129.85 -2.40163 -2.00726 0
M  V30 11706 C 1130.32 -3.66211 -2.75051 0
M  V30 11707 N 1131.81 -3.67004 -2.82599 0
M  V30 11708 C 1132.55 -4.61224 -3.40676 0
M  V30 11709 N 1132.04 -5.65786 -3.99823 0
M  V30 11710 N 1133.84 -4.48772 -3.38467 0
M  V30 11711 H 1125.99 -2.09847 -0.328297 0
M  V30 11712 H 1128.25 -0.924904 -0.20798 0
M  V30 11713 H 1127.96 -3.25265 -1.33773 0
M  V30 11714 H 1127.83 -2.43175 -2.8835 0
M  V30 11715 H 1130.22 -1.50101 -2.54074 0
M  V30 11716 H 1130.3 -2.35688 -0.994218 0
M  V30 11717 H 1129.94 -4.56631 -2.22376 0
M  V30 11718 H 1129.87 -3.67947 -3.76726 0
M  V30 11719 H 1132.36 -2.91409 -2.40602 0
M  V30 11720 H 1132.68 -6.33783 -4.42197 0
M  V30 11721 H 1131.02 -5.69581 -3.9825 0
M  V30 11722 H 1134.21 -3.6627 -2.91485 0
M  V30 11723 H 1134.38 -5.22382 -3.83433 0
M  V30 11724 N 1127.79 1.09952 -1.12909 0
M  V30 11725 C 1129.04 1.82286 -0.888797 0
M  V30 11726 C 1129.37 1.85218 0.58379 0
M  V30 11727 O 1128.64 1.31645 1.43177 0
M  V30 11728 C 1128.93 3.28706 -1.47053 0
M  V30 11729 C 1128.78 3.34078 -3.01184 0
M  V30 11730 C 1130.1 4.25233 -1.13424 0
M  V30 11731 H 1127.22 0.661803 -0.324324 0
M  V30 11732 H 1129.86 1.28833 -1.3965 0
M  V30 11733 H 1128.01 3.74356 -1.03874 0
M  V30 11734 H 1129.68 2.96871 -3.5308 0
M  V30 11735 H 1127.93 2.73825 -3.36455 0
M  V30 11736 H 1128.6 4.37202 -3.36984 0
M  V30 11737 H 1131.07 3.87841 -1.50726 0
M  V30 11738 H 1129.95 5.26033 -1.56783 0
M  V30 11739 H 1130.21 4.42075 -0.0471496 0
M  V30 11740 N 1129.27 0.921757 1.27833 0
M  V30 11741 C 1130.5 0.575202 1.98744 0
M  V30 11742 C 1130.91 -0.845405 1.68815 0
M  V30 11743 O 1130.27 -1.56106 0.94536 0
M  V30 11744 C 1130.32 0.784389 3.52888 0
M  V30 11745 O 1130.04 2.1491 3.81766 0
M  V30 11746 C 1131.54 0.445744 4.41053 0
M  V30 11747 H 1128.76 0.218525 0.634419 0
M  V30 11748 H 1131.31 1.23715 1.62834 0
M  V30 11749 H 1129.46 0.169323 3.8703 0
M  V30 11750 H 1129.87 2.19469 4.76375 0
M  V30 11751 H 1131.35 0.64284 5.48244 0
M  V30 11752 H 1131.83 -0.618433 4.34824 0
M  V30 11753 H 1132.43 1.03869 4.12421 0
M  V30 11754 N 1130.75 -1.41857 0.686609 0
M  V30 11755 C 1131.99 -2.01666 0.214118 0
M  V30 11756 C 1132.33 -1.5422 -1.18025 0
M  V30 11757 O 1131.6 -0.749482 -1.7948 0
M  V30 11758 C 1131.88 -3.59147 0.261841 0
M  V30 11759 C 1131.74 -4.16742 1.69251 0
M  V30 11760 C 1133.06 -4.38427 -0.383378 0
M  V30 11761 H 1130.17 -0.732724 0.0792785 0
M  V30 11762 H 1132.82 -1.68724 0.873633 0
M  V30 11763 H 1130.97 -3.87342 -0.29971 0
M  V30 11764 H 1132.64 -3.99456 2.30722 0
M  V30 11765 H 1130.88 -3.72124 2.2295 0
M  V30 11766 H 1131.55 -5.25894 1.6775 0
M  V30 11767 H 1134.03 -4.15992 0.0947701 0
M  V30 11768 H 1132.9 -5.4797 -0.319401 0
M  V30 11769 H 1133.17 -4.172 -1.46276 0
M  V30 11770 N 1132.22 -0.430739 -1.51599 0
M  V30 11771 C 1133.19 0.372319 -2.26156 0
M  V30 11772 C 1134.19 0.955338 -1.29344 0
M  V30 11773 O 1135.38 0.830823 -1.53111 0
M  V30 11774 C 1132.51 1.52613 -3.04831 0
M  V30 11775 H 1133.7 -0.280996 -2.98581 0
M  V30 11776 H 1131.26 -0.183749 -1.55216 0
M  V30 11777 H 1131.99 2.21569 -2.36807 0
M  V30 11778 H 1131.78 1.11433 -3.75932 0
M  V30 11779 H 1133.27 2.09366 -3.61325 0
M  V30 11780 N 1133.7 1.56767 -0.161869 0
M  V30 11781 C 1134.95 1.95769 0.485536 0
M  V30 11782 C 1135.26 1.05006 1.65025 0
M  V30 11783 O 1136.47 1.33649 2.36326 0
M  V30 11784 C 1134.93 3.4807 0.915176 0
M  V30 11785 C 1134.53 4.47443 -0.223416 0
M  V30 11786 C 1136.28 3.95909 1.53153 0
M  V30 11787 C 1134.19 5.90971 0.225325 0
M  V30 11788 H 1133.12 0.730911 0.185161 0
M  V30 11789 H 1135.77 1.81808 -0.248592 0
M  V30 11790 H 1134.15 3.57415 1.705 0
M  V30 11791 H 1135.32 4.49805 -1.00061 0
M  V30 11792 H 1133.64 4.09606 -0.749127 0
M  V30 11793 H 1136.23 5.00592 1.87915 0
M  V30 11794 H 1136.58 3.38307 2.42599 0
M  V30 11795 H 1137.11 3.89542 0.806322 0
M  V30 11796 H 1133.85 6.52426 -0.634124 0
M  V30 11797 H 1133.37 5.91936 0.96808 0
M  V30 11798 H 1135.05 6.43497 0.672373 0
M  V30 11799 N 1135.18 -0.111886 1.57202 0
M  V30 11800 C 1136.59 -0.668261 1.74331 0
M  V30 11801 C 1136.94 -1.79959 0.781609 0
M  V30 11802 O 1136.07 -2.16356 -0.043833 0
M  V30 11803 C 1136.66 -1.219 3.1611 0
M  V30 11804 C 1135.22 -1.7216 3.34721 0
M  V30 11805 C 1134.37 -0.624223 2.70183 0
M  V30 11806 H 1137.32 0.114081 1.58289 0
M  V30 11807 H 1137.34 -2.08858 3.18054 0
M  V30 11808 H 1136.85 -0.395381 3.86081 0
M  V30 11809 H 1134.95 -2.56976 2.69803 0
M  V30 11810 H 1135.07 -1.82615 4.42932 0
M  V30 11811 H 1133.43 -1.05958 2.31614 0
M  V30 11812 H 1134.21 0.188537 3.42782 0
M  V30 11813 N 1136.66 -1.52894 -0.382264 0
M  V30 11814 C 1137.59 -1.81122 -1.47367 0
M  V30 11815 C 1138.57 -0.663653 -1.56619 0
M  V30 11816 O 1139.75 -0.911898 -1.71459 0
M  V30 11817 C 1136.88 -1.98615 -2.84902 0
M  V30 11818 C 1135.84 -3.14328 -2.90485 0
M  V30 11819 C 1135.16 -3.17086 -4.30535 0
M  V30 11820 C 1136.46 -4.53263 -2.59519 0
M  V30 11821 H 1138.16 -2.72518 -1.23993 0
M  V30 11822 H 1135.7 -1.3113 -0.595049 0
M  V30 11823 H 1137.66 -2.16946 -3.61265 0
M  V30 11824 H 1136.38 -1.03915 -3.09628 0
M  V30 11825 H 1135.04 -2.95791 -2.16572 0
M  V30 11826 H 1134.69 -2.20055 -4.52311 0
M  V30 11827 H 1134.39 -3.94821 -4.3519 0
M  V30 11828 H 1135.91 -3.3758 -5.08795 0
M  V30 11829 H 1137.33 -4.71867 -3.25598 0
M  V30 11830 H 1135.72 -5.33115 -2.75514 0
M  V30 11831 H 1136.79 -4.59516 -1.54831 0
M  V30 11832 N 1138.14 0.641106 -1.43971 0
M  V30 11833 C 1139.08 1.75352 -1.50068 0
M  V30 11834 C 1140.05 1.62386 -0.349266 0
M  V30 11835 O 1141.24 1.82455 -0.558118 0
M  V30 11836 C 1138.38 3.13561 -1.4413 0
M  V30 11837 C 1137.49 3.37574 -2.6957 0
M  V30 11838 C 1136.63 4.65698 -2.55535 0
M  V30 11839 C 1135.67 4.82857 -3.76186 0
M  V30 11840 N 1134.8 6.02249 -3.60888 0
M  V30 11841 H 1139.64 1.69477 -2.45116 0
M  V30 11842 H 1137.18 0.826871 -1.2166 0
M  V30 11843 H 1139.14 3.93476 -1.38681 0
M  V30 11844 H 1137.77 3.18476 -0.526563 0
M  V30 11845 H 1136.82 2.5167 -2.85248 0
M  V30 11846 H 1138.13 3.46135 -3.59154 0
M  V30 11847 H 1137.29 5.53759 -2.47862 0
M  V30 11848 H 1136.03 4.59479 -1.63495 0
M  V30 11849 H 1135.03 3.93229 -3.84254 0
M  V30 11850 H 1136.26 4.90898 -4.6925 0
M  V30 11851 H 1134.2 5.97138 -2.71591 0
M  V30 11852 H 1134.12 6.11822 -4.44083 0
M  V30 11853 H 1135.39 6.92898 -3.57088 0
M  V30 11854 N 1139.62 1.30703 0.880598 0
M  V30 11855 C 1140.85 1.22536 1.66339 0
M  V30 11856 C 1141.25 -0.213507 1.87991 0
M  V30 11857 O 1140.6 -1.15236 1.43061 0
M  V30 11858 C 1140.66 1.88798 3.05934 0
M  V30 11859 C 1140.32 3.38131 3.07435 0
M  V30 11860 C 1141.32 4.34053 2.86171 0
M  V30 11861 C 1139 3.79651 3.28893 0
M  V30 11862 C 1141 5.69469 2.86328 0
M  V30 11863 C 1138.69 5.15182 3.2868 0
M  V30 11864 C 1139.68 6.09902 3.07423 0
M  V30 11865 O 1139.37 7.42957 3.07034 0
M  V30 11866 H 1139.1 0.425018 0.525677 0
M  V30 11867 H 1141.66 1.72939 1.1082 0
M  V30 11868 H 1139.89 1.3293 3.63134 0
M  V30 11869 H 1141.58 1.74691 3.66385 0
M  V30 11870 H 1142.34 4.03307 2.69385 0
M  V30 11871 H 1138.22 3.06365 3.44473 0
M  V30 11872 H 1141.77 6.43375 2.69655 0
M  V30 11873 H 1137.66 5.45567 3.45002 0
M  V30 11874 H 1138.43 7.52 3.23169 0
M  V30 11875 N 1141.09 -1.09351 1.1349 0
M  V30 11876 C 1142 -2.19564 0.826366 0
M  V30 11877 C 1143.02 -1.72967 -0.189339 0
M  V30 11878 O 1144.2 -2.0139 -0.0202033 0
M  V30 11879 C 1141.26 -3.4542 0.297685 0
M  V30 11880 C 1140.32 -4.06694 1.37473 0
M  V30 11881 C 1139.55 -5.26542 0.871183 0
M  V30 11882 O 1139.78 -5.69657 -0.290958 0
M  V30 11883 O 1138.71 -5.78961 1.64584 0
M  V30 11884 H 1142.54 -2.4841 1.74718 0
M  V30 11885 H 1140.12 -1.18302 0.912414 0
M  V30 11886 H 1142 -4.21399 0.00829479 0
M  V30 11887 H 1140.68 -3.18175 -0.595536 0
M  V30 11888 H 1139.59 -3.32347 1.71745 0
M  V30 11889 H 1140.92 -4.38166 2.24212 0
M  V30 11890 N 1142.57 -0.928524 -1.27343 0
M  V30 11891 C 1143.82 -0.570235 -1.94618 0
M  V30 11892 C 1144.15 0.886381 -1.72792 0
M  V30 11893 O 1143.43 1.63242 -1.05747 0
M  V30 11894 C 1143.71 -0.897964 -3.48724 0
M  V30 11895 C 1143.56 -2.40839 -3.7989 0
M  V30 11896 C 1144.88 -0.404429 -4.38238 0
M  V30 11897 H 1142 -0.208645 -0.70685 0
M  V30 11898 H 1144.64 -1.16045 -1.50444 0
M  V30 11899 H 1142.79 -0.395679 -3.8648 0
M  V30 11900 H 1144.46 -2.98243 -3.51921 0
M  V30 11901 H 1142.71 -2.85723 -3.26412 0
M  V30 11902 H 1143.38 -2.58823 -4.8756 0
M  V30 11903 H 1145.85 -0.834918 -4.07637 0
M  V30 11904 H 1144.73 -0.662684 -5.44885 0
M  V30 11905 H 1144.99 0.695507 -4.36595 0
M  V30 11906 N 1144.05 1.41491 -0.694123 0
M  V30 11907 C 1145 2.30783 -0.0278824 0
M  V30 11908 C 1145.97 1.47028 0.772783 0
M  V30 11909 O 1147.15 1.75819 0.74111 0
M  V30 11910 C 1144.29 3.33061 0.903579 0
M  V30 11911 C 1143.4 4.31896 0.0946823 0
M  V30 11912 C 1142.54 5.21243 1.02365 0
M  V30 11913 C 1141.58 6.11748 0.207578 0
M  V30 11914 N 1140.72 6.93583 1.09028 0
M  V30 11915 H 1145.56 2.87197 -0.795092 0
M  V30 11916 H 1143.09 1.41449 -0.403806 0
M  V30 11917 H 1145.05 3.90907 1.45765 0
M  V30 11918 H 1143.68 2.782 1.6372 0
M  V30 11919 H 1142.73 3.76009 -0.576289 0
M  V30 11920 H 1144.04 4.95889 -0.538059 0
M  V30 11921 H 1143.2 5.83917 1.647 0
M  V30 11922 H 1141.94 4.57473 1.69025 0
M  V30 11923 H 1140.94 5.48125 -0.428854 0
M  V30 11924 H 1142.17 6.77573 -0.455206 0
M  V30 11925 H 1140.11 6.32422 1.74292 0
M  V30 11926 H 1140.03 7.54257 0.513073 0
M  V30 11927 H 1141.3 7.60726 1.70048 0
M  V30 11928 N 1145.53 0.438773 1.51369 0
M  V30 11929 C 1146.46 -0.362467 2.3067 0
M  V30 11930 C 1147.44 -1.01973 1.36145 0
M  V30 11931 O 1148.62 -1.0231 1.65065 0
M  V30 11932 C 1145.75 -1.46313 3.14976 0
M  V30 11933 C 1144.71 -0.929272 4.1779 0
M  V30 11934 C 1144.03 -2.12579 4.90627 0
M  V30 11935 C 1145.33 0.0372782 5.22287 0
M  V30 11936 H 1147.03 0.29931 2.979 0
M  V30 11937 H 1144.57 0.14539 1.43264 0
M  V30 11938 H 1146.53 -2.03088 3.69233 0
M  V30 11939 H 1145.25 -2.15321 2.45569 0
M  V30 11940 H 1143.91 -0.383722 3.64586 0
M  V30 11941 H 1143.56 -2.8021 4.17722 0
M  V30 11942 H 1143.26 -1.77496 5.60151 0
M  V30 11943 H 1144.78 -2.69905 5.47708 0
M  V30 11944 H 1146.2 -0.44022 5.71607 0
M  V30 11945 H 1144.59 0.300748 5.99346 0
M  V30 11946 H 1145.66 0.973503 4.75027 0
M  V30 11947 N 1147.01 -1.56678 0.170181 0
M  V30 11948 C 1148.23 -2.01223 -0.481362 0
M  V30 11949 C 1148.65 -1.05039 -1.56883 0
M  V30 11950 O 1148.01 -0.0510751 -1.82429 0
M  V30 11951 C 1148.06 -3.45588 -1.06073 0
M  V30 11952 O 1147.78 -4.38097 -0.0166754 0
M  V30 11953 C 1149.28 -4.05527 -1.79061 0
M  V30 11954 H 1146.5 -0.659574 -0.1233 0
M  V30 11955 H 1149.04 -2.02689 0.271576 0
M  V30 11956 H 1147.2 -3.449 -1.76417 0
M  V30 11957 H 1147.61 -5.22615 -0.444276 0
M  V30 11958 H 1149.09 -5.08467 -2.1486 0
M  V30 11959 H 1149.56 -3.47554 -2.68519 0
M  V30 11960 H 1150.17 -4.09914 -1.13361 0
M  V30 11961 N 1148.48 0.103547 -1.57259 0
M  V30 11962 C 1149.73 0.809774 -1.85931 0
M  V30 11963 C 1150.06 1.78791 -0.758122 0
M  V30 11964 O 1149.34 1.93079 0.234682 0
M  V30 11965 C 1149.62 1.54601 -3.25224 0
M  V30 11966 C 1149.47 0.586439 -4.45961 0
M  V30 11967 C 1150.79 2.4986 -3.62296 0
M  V30 11968 H 1147.91 0.29293 -0.676285 0
M  V30 11969 H 1150.55 0.0736065 -1.89857 0
M  V30 11970 H 1148.7 2.17355 -3.22008 0
M  V30 11971 H 1150.38 -0.0334441 -4.61288 0
M  V30 11972 H 1148.62 -0.10085 -4.33683 0
M  V30 11973 H 1149.29 1.13855 -5.40131 0
M  V30 11974 H 1151.77 1.97203 -3.66402 0
M  V30 11975 H 1150.64 2.98396 -4.60707 0
M  V30 11976 H 1150.9 3.33233 -2.90531 0
M  V30 11977 N 1149.96 1.53094 0.37415 0
M  V30 11978 C 1150.91 1.75307 1.45779 0
M  V30 11979 C 1151.9 0.607409 1.48994 0
M  V30 11980 O 1153.09 0.865777 1.5438 0
M  V30 11981 C 1150.22 1.93871 2.83318 0
M  V30 11982 C 1149.3 3.14413 2.84614 0
M  V30 11983 N 1149.69 4.36486 2.55565 0
M  V30 11984 C 1147.99 3.14961 3.15778 0
M  V30 11985 C 1148.69 5.18178 2.64322 0
M  V30 11986 N 1147.67 4.54196 2.98675 0
M  V30 11987 H 1151.47 2.67305 1.22169 0
M  V30 11988 H 1148.98 1.51603 0.582254 0
M  V30 11989 H 1150.98 2.0791 3.61357 0
M  V30 11990 H 1149.64 1.03096 3.07898 0
M  V30 11991 H 1150.65 4.64366 2.29314 0
M  V30 11992 H 1147.33 2.34048 3.45728 0
M  V30 11993 H 1148.72 6.25529 2.45282 0
M  V30 11994 N 1151.44 -0.633461 1.44309 0
M  V30 11995 C 1152.69 -1.39031 1.46679 0
M  V30 11996 C 1153.01 -1.94745 0.0997165 0
M  V30 11997 O 1152.28 -1.75637 -0.867659 0
M  V30 11998 H 1150.86 -0.516051 0.540093 0
M  V30 11999 H 1153.52 -0.745739 1.80069 0
M  V30 12000 H 1152.62 -2.2228 2.19085 0
M  V30 12001 N 1152.92 -1.31168 -0.873655 0
M  V30 12002 C 1154.17 -1.20642 -1.6264 0
M  V30 12003 C 1154.49 0.236286 -1.93059 0
M  V30 12004 O 1153.75 1.18401 -1.55819 0
M  V30 12005 C 1154.05 -1.99204 -2.96736 0
M  V30 12006 C 1153.71 -3.48734 -2.85824 0
M  V30 12007 C 1152.38 -3.89507 -2.82555 0
M  V30 12008 C 1154.73 -4.43905 -2.73127 0
M  V30 12009 C 1152.06 -5.23724 -2.64442 0
M  V30 12010 C 1154.41 -5.78242 -2.56551 0
M  V30 12011 C 1153.07 -6.18241 -2.51663 0
M  V30 12012 H 1152.34 -0.44146 -0.595142 0
M  V30 12013 H 1154.99 -1.62394 -1.01492 0
M  V30 12014 H 1153.29 -1.50122 -3.61899 0
M  V30 12015 H 1154.99 -1.88443 -3.53963 0
M  V30 12016 H 1151.58 -3.1634 -2.89184 0
M  V30 12017 H 1155.76 -4.13338 -2.7471 0
M  V30 12018 H 1151.02 -5.53794 -2.59081 0
M  V30 12019 H 1155.19 -6.51616 -2.45702 0
M  V30 12020 H 1152.82 -7.22185 -2.37387 0
M  V30 12021 N 1154.4 1.08748 -1.14068 0
M  V30 12022 C 1155.64 1.81333 -0.908081 0
M  V30 12023 C 1155.98 1.85826 0.564112 0
M  V30 12024 O 1155.25 1.33157 1.41773 0
M  V30 12025 C 1155.53 3.27127 -1.50531 0
M  V30 12026 C 1155.39 3.30865 -3.04711 0
M  V30 12027 C 1156.71 4.24006 -1.17928 0
M  V30 12028 H 1153.82 0.658326 -0.331325 0
M  V30 12029 H 1156.47 1.27345 -1.41008 0
M  V30 12030 H 1154.62 3.73233 -1.07839 0
M  V30 12031 H 1156.29 2.93109 -3.56209 0
M  V30 12032 H 1154.53 2.70241 -3.39341 0
M  V30 12033 H 1155.2 4.33603 -3.41603 0
M  V30 12034 H 1157.68 3.86221 -1.54831 0
M  V30 12035 H 1156.55 5.2434 -1.62353 0
M  V30 12036 H 1156.82 4.42 -0.0940349 0
M  V30 12037 N 1155.87 0.935264 1.26849 0
M  V30 12038 C 1156.82 0.430895 2.28574 0
M  V30 12039 C 1157.82 -0.488739 1.62196 0
M  V30 12040 O 1159.02 -0.367605 1.76206 0
M  V30 12041 H 1155.4 0.120793 0.742235 0
M  V30 12042 H 1157.37 1.3015 2.68521 0
M  V30 12043 C 1156.12 -0.294053 3.46454 0
M  V30 12044 H 1155.44 0.404416 3.97749 0
M  V30 12045 H 1156.88 -0.611272 4.19571 0
M  V30 12046 C 1155.34 -1.50975 3.01178 0
M  V30 12047 O 1155.87 -2.60826 3.05504 0
M  V30 12048 N 1154.08 -1.36423 2.56587 0
M  V30 12049 H 1153.62 -0.470483 2.53267 0
M  V30 12050 H 1153.58 -2.17886 2.26656 0
M  V30 12051 N 1157.35 -1.41121 0.701616 0
M  V30 12052 C 1158.76 -1.84122 0.309208 0
M  V30 12053 C 1159.11 -1.58695 -1.15371 0
M  V30 12054 O 1158.24 -1.06053 -1.88631 0
M  V30 12055 C 1158.83 -3.34233 0.554429 0
M  V30 12056 C 1157.39 -3.7578 0.215876 0
M  V30 12057 C 1156.54 -2.6447 0.833729 0
M  V30 12058 H 1159.49 -1.30587 0.901822 0
M  V30 12059 H 1159.51 -3.8005 -0.18491 0
M  V30 12060 H 1159.02 -3.52707 1.61923 0
M  V30 12061 H 1157.13 -3.62905 -0.844421 0
M  V30 12062 H 1157.24 -4.74319 0.675118 0
M  V30 12063 H 1155.6 -2.5334 0.262851 0
M  V30 12064 H 1156.39 -2.85761 1.90252 0
M  V30 12065 N 1158.83 -0.446794 -1.51134 0
M  V30 12066 C 1160.06 0.114893 -2.06581 0
M  V30 12067 C 1160.47 1.35642 -1.31327 0
M  V30 12068 O 1159.83 1.78595 -0.375506 0
M  V30 12069 C 1159.88 0.427589 -3.58962 0
M  V30 12070 O 1159.6 -0.764669 -4.31375 0
M  V30 12071 C 1161.1 1.03891 -4.30954 0
M  V30 12072 H 1158.32 0.00373031 -0.67099 0
M  V30 12073 H 1160.87 -0.628596 -1.94599 0
M  V30 12074 H 1159.02 1.12099 -3.70827 0
M  V30 12075 H 1159.44 -0.494605 -5.22163 0
M  V30 12076 H 1160.91 1.20764 -5.38628 0
M  V30 12077 H 1161.39 2.02252 -3.8986 0
M  V30 12078 H 1161.99 0.384623 -4.23557 0
M  V30 12079 N 1160.31 1.56586 -0.178487 0
M  V30 12080 C 1161.53 2.01915 0.473841 0
M  V30 12081 C 1161.96 1.05789 1.55533 0
M  V30 12082 O 1161.32 0.0386018 1.81259 0
M  V30 12083 C 1161.36 3.45799 1.02251 0
M  V30 12084 O 1160.47 3.52761 2.1362 0
M  V30 12085 H 1159.81 0.654372 0.112666 0
M  V30 12086 H 1162.34 2.02613 -0.284486 0
M  V30 12087 H 1162.35 3.85252 1.34332 0
M  V30 12088 H 1161.02 4.1526 0.230719 0
M  V30 12089 H 1159.6 3.25172 1.8253 0
M  V30 12090 N 1161.79 -0.095206 1.57312 0
M  V30 12091 C 1163.03 -0.798719 1.86083 0
M  V30 12092 C 1163.36 -1.78739 0.766991 0
M  V30 12093 O 1162.62 -1.9423 -0.239425 0
M  V30 12094 C 1162.92 -1.56244 3.21438 0
M  V30 12095 C 1162.58 -0.715903 4.4518 0
M  V30 12096 C 1161.24 -0.482537 4.78774 0
M  V30 12097 C 1163.6 -0.127404 5.21044 0
M  V30 12098 C 1160.92 0.349193 5.8566 0
M  V30 12099 C 1163.28 0.691649 6.28808 0
M  V30 12100 C 1161.94 0.935107 6.60918 0
M  V30 12101 H 1161.21 -0.292272 0.680924 0
M  V30 12102 H 1163.86 -0.0602105 1.91405 0
M  V30 12103 H 1162.16 -2.37251 3.118 0
M  V30 12104 H 1163.86 -2.11116 3.40927 0
M  V30 12105 H 1160.45 -0.907902 4.18874 0
M  V30 12106 H 1164.63 -0.29486 4.95423 0
M  V30 12107 H 1159.89 0.546797 6.0895 0
M  V30 12108 H 1164.06 1.15452 6.86763 0
M  V30 12109 H 1161.69 1.58139 7.4357 0
M  V30 12110 N 1163.26 -1.53291 -0.366026 0
M  V30 12111 C 1164.51 -1.69702 -1.11036 0
M  V30 12112 C 1164.84 -0.44728 -1.88979 0
M  V30 12113 O 1164.12 0.55542 -1.86401 0
M  V30 12114 C 1164.4 -2.94661 -2.06995 0
M  V30 12115 C 1164.25 -4.29791 -1.32663 0
M  V30 12116 C 1165.57 -3.15219 -3.07123 0
M  V30 12117 H 1162.69 -0.617525 -0.402284 0
M  V30 12118 H 1165.33 -1.85929 -0.391223 0
M  V30 12119 H 1163.48 -2.80958 -2.68318 0
M  V30 12120 H 1165.16 -4.55305 -0.741266 0
M  V30 12121 H 1163.4 -4.29223 -0.628484 0
M  V30 12122 H 1164.07 -5.13359 -2.02896 0
M  V30 12123 H 1166.55 -3.28105 -2.55903 0
M  V30 12124 H 1165.42 -4.04088 -3.71489 0
M  V30 12125 H 1165.68 -2.30479 -3.77269 0
M  V30 12126 N 1164.74 0.6258 -1.44643 0
M  V30 12127 C 1165.97 1.41028 -1.50979 0
M  V30 12128 C 1166.38 1.88717 -0.135092 0
M  V30 12129 O 1165.72 1.61778 0.870268 0
M  V30 12130 C 1165.79 2.66094 -2.41732 0
M  V30 12131 C 1165.45 2.40166 -3.88805 0
M  V30 12132 C 1166.45 2.01661 -4.79196 0
M  V30 12133 C 1164.13 2.53641 -4.33557 0
M  V30 12134 C 1166.13 1.76966 -6.12341 0
M  V30 12135 C 1163.81 2.2856 -5.66748 0
M  V30 12136 C 1164.81 1.90282 -6.55959 0
M  V30 12137 O 1164.5 1.65484 -7.86683 0
M  V30 12138 H 1164.23 0.438757 -0.514265 0
M  V30 12139 H 1166.78 0.772034 -1.90339 0
M  V30 12140 H 1165.01 3.32575 -1.97309 0
M  V30 12141 H 1166.7 3.28107 -2.38957 0
M  V30 12142 H 1167.47 1.90802 -4.45892 0
M  V30 12143 H 1163.35 2.82404 -3.64375 0
M  V30 12144 H 1166.89 1.47014 -6.81933 0
M  V30 12145 H 1162.79 2.3903 -5.99612 0
M  V30 12146 H 1163.56 1.79686 -7.98533 0
M  V30 12147 N 1166.22 1.31629 0.866686 0
M  V30 12148 C 1167.47 1.21263 1.61678 0
M  V30 12149 C 1167.79 -0.228562 1.93656 0
M  V30 12150 O 1167.06 -1.15014 1.58583 0
M  V30 12151 H 1165.64 0.445817 0.59938 0
M  V30 12152 H 1168.3 1.64998 1.03739 0
M  V30 12153 H 1167.4 1.78669 2.55898 0
M  V30 12154 N 1167.7 -1.08142 1.14644 0
M  V30 12155 C 1168.92 -1.84857 0.940349 0
M  V30 12156 C 1169.35 -1.81163 -0.506117 0
M  V30 12157 O 1168.71 -1.19869 -1.36019 0
M  V30 12158 C 1168.76 -3.30198 1.4492 0
M  V30 12159 O 1167.86 -4.07355 0.64308 0
M  V30 12160 H 1167.2 -0.572711 0.336003 0
M  V30 12161 H 1169.73 -1.36475 1.52432 0
M  V30 12162 H 1169.74 -3.81039 1.45854 0
M  V30 12163 H 1168.42 -3.32202 2.50229 0
M  V30 12164 H 1166.99 -3.66219 0.702698 0
M  V30 12165 N 1169.18 -0.941978 -1.26351 0
M  V30 12166 C 1170.13 -0.443011 -2.28342 0
M  V30 12167 C 1171.12 0.48013 -1.62453 0
M  V30 12168 O 1172.33 0.358255 -1.76399 0
M  V30 12169 H 1168.7 -0.124728 -0.741584 0
M  V30 12170 H 1170.67 -1.31573 -2.67827 0
M  V30 12171 C 1169.42 0.275675 -3.46605 0
M  V30 12172 H 1168.74 -0.425504 -3.97529 0
M  V30 12173 H 1170.18 0.589012 -4.19889 0
M  V30 12174 C 1168.64 1.49376 -3.01974 0
M  V30 12175 O 1169.17 2.59203 -3.06883 0
M  V30 12176 N 1167.38 1.35061 -2.57307 0
M  V30 12177 H 1166.93 0.457045 -2.53513 0
M  V30 12178 H 1166.88 2.16681 -2.27809 0
M  V30 12179 N 1170.66 1.40747 -0.709091 0
M  V30 12180 C 1171.93 1.94831 -0.173246 0
M  V30 12181 C 1172.31 1.64766 1.31967 0
M  V30 12182 O 1171.66 0.961853 2.07269 0
M  V30 12183 C 1171.87 3.45697 -0.479013 0
M  V30 12184 C 1173.22 4.22576 -0.414122 0
M  V30 12185 O 1174.24 3.53778 -0.414699 0
M  V30 12186 O 1173.1 5.45135 -0.385986 0
M  V30 12187 H 1170.2 0.826683 -0.0228947 0
M  V30 12188 H 1172.74 1.50391 -0.786178 0
M  V30 12189 H 1171.51 3.60914 -1.51185 0
M  V30 12190 H 1171.14 3.97261 0.164211 0
M  V30 12191 N 1172.13 0.454803 1.50895 0
M  V30 12192 C 1173.04 -0.353495 2.31921 0
M  V30 12193 C 1174.06 -1.01136 1.41589 0
M  V30 12194 O 1175.24 -1.00291 1.74653 0
M  V30 12195 C 1172.3 -1.43032 3.15821 0
M  V30 12196 C 1171.36 -0.790763 4.21954 0
M  V30 12197 C 1170.59 -1.81628 5.01843 0
M  V30 12198 O 1170.82 -3.04078 4.8259 0
M  V30 12199 O 1169.75 -1.39713 5.8546 0
M  V30 12200 H 1173.58 0.308463 3.02129 0
M  V30 12201 H 1171.16 0.216971 1.47816 0
M  V30 12202 H 1173.04 -2.05444 3.67927 0
M  V30 12203 H 1171.72 -2.07605 2.48358 0
M  V30 12204 H 1170.63 -0.128127 3.73881 0
M  V30 12205 H 1171.96 -0.188251 4.9184 0
M  V30 12206 N 1173.61 -1.56489 0.186789 0
M  V30 12207 C 1174.56 -2.20034 -0.754164 0
M  V30 12208 C 1175.55 -1.16899 -1.22601 0
M  V30 12209 O 1176.76 -1.35064 -1.18987 0
M  V30 12210 H 1173.13 -0.705058 -0.261529 0
M  V30 12211 H 1175.11 -2.97766 -0.194418 0
M  V30 12212 C 1173.85 -2.86733 -1.9667 0
M  V30 12213 H 1173.18 -3.65831 -1.61268 0
M  V30 12214 H 1174.62 -3.34645 -2.60363 0
M  V30 12215 C 1173.08 -1.87325 -2.8002 0
M  V30 12216 O 1173.61 -1.36835 -3.77676 0
M  V30 12217 N 1171.81 -1.55738 -2.45345 0
M  V30 12218 H 1171.36 -1.9699 -1.6599 0
M  V30 12219 H 1171.32 -0.894805 -3.01398 0
M  V30 12220 N 1175.09 0.086862 -1.5736 0
M  V30 12221 C 1176 1.12297 -2.05977 0
M  V30 12222 C 1177.02 1.43347 -0.986284 0
M  V30 12223 O 1178.19 1.53825 -1.3 0
M  V30 12224 C 1175.26 2.42131 -2.4814 0
M  V30 12225 C 1174.32 2.18189 -3.69719 0
M  V30 12226 C 1173.55 3.41833 -4.09861 0
M  V30 12227 O 1173.77 4.50383 -3.50016 0
M  V30 12228 O 1172.71 3.30934 -5.02759 0
M  V30 12229 H 1176.53 0.740012 -2.94546 0
M  V30 12230 H 1174.12 0.29995 -1.46358 0
M  V30 12231 H 1176 3.18568 -2.75848 0
M  V30 12232 H 1174.68 2.79837 -1.62705 0
M  V30 12233 H 1173.58 1.39506 -3.47115 0
M  V30 12234 H 1174.92 1.85372 -4.55959 0
M  V30 12235 N 1176.57 1.53483 0.357892 0
M  V30 12236 C 1177.98 1.61641 0.934289 0
M  V30 12237 C 1178.33 0.488655 1.90017 0
M  V30 12238 O 1177.45 -0.38378 2.1297 0
M  V30 12239 C 1178.05 2.92987 1.7013 0
M  V30 12240 C 1176.61 3.03456 2.22692 0
M  V30 12241 C 1175.76 2.56992 1.04165 0
M  V30 12242 H 1178.71 1.58112 0.136452 0
M  V30 12243 H 1178.73 2.81221 2.5631 0
M  V30 12244 H 1178.24 3.75047 0.998056 0
M  V30 12245 H 1176.34 2.25999 2.96235 0
M  V30 12246 H 1176.45 4.08673 2.50046 0
M  V30 12247 H 1174.82 2.12052 1.41088 0
M  V30 12248 H 1175.6 3.41477 0.353272 0
M  V30 12249 N 1178.05 -0.61812 1.44973 0
M  V30 12250 C 1178.96 -1.7579 1.55355 0
M  V30 12251 C 1179.97 -1.68384 0.438512 0
M  V30 12252 O 1181.15 -1.88928 0.697715 0
M  V30 12253 C 1178.21 -3.1222 1.50729 0
M  V30 12254 C 1177.27 -3.3116 2.73188 0
M  V30 12255 C 1176.51 -4.61082 2.68774 0
M  V30 12256 O 1176.73 -5.42728 1.75507 0
M  V30 12257 O 1175.66 -4.82506 3.59821 0
M  V30 12258 H 1179.49 -1.69983 2.51674 0
M  V30 12259 H 1177.07 -0.780934 1.27365 0
M  V30 12260 H 1178.96 -3.93524 1.5072 0
M  V30 12261 H 1177.63 -3.18541 0.575587 0
M  V30 12262 H 1176.54 -2.49485 2.78762 0
M  V30 12263 H 1177.87 -3.29709 3.65449 0
M  V30 12264 N 1179.52 -1.32087 -0.859693 0
M  V30 12265 C 1180.75 -1.25348 -1.64607 0
M  V30 12266 C 1181.17 0.179425 -1.87945 0
M  V30 12267 O 1180.52 1.11487 -1.44489 0
M  V30 12268 C 1180.57 -2.0047 -3.00822 0
M  V30 12269 O 1180.3 -3.38169 -2.7852 0
M  V30 12270 C 1181.8 -2.00694 -3.95268 0
M  V30 12271 H 1179.02 -0.432692 -0.512854 0
M  V30 12272 H 1181.56 -1.7413 -1.07234 0
M  V30 12273 H 1179.72 -1.55423 -3.54855 0
M  V30 12274 H 1180.13 -3.76553 -3.65113 0
M  V30 12275 H 1181.6 -2.57748 -4.88129 0
M  V30 12276 H 1182.08 -0.99196 -4.27851 0
M  V30 12277 H 1182.69 -2.45666 -3.47172 0
M  V30 12278 N 1181 1.07532 -1.15215 0
M  V30 12279 C 1182.24 1.81689 -0.936396 0
M  V30 12280 C 1182.61 1.84622 0.527136 0
M  V30 12281 O 1183.81 2.54632 0.861159 0
M  V30 12282 C 1182.08 3.22919 -1.53161 0
M  V30 12283 S 1183.64 4.13845 -1.4587 0
M  V30 12284 H 1180.45 0.626036 -0.337045 0
M  V30 12285 H 1183.06 1.29191 -1.4673 0
M  V30 12286 H 1181.76 3.18372 -2.58974 0
M  V30 12287 H 1181.29 3.80492 -0.999482 0
M  V30 12288 H 1183.31 4.94152 -0.450317 0
M  V30 12289 N 1182.48 0.948665 1.2585 0
M  V30 12290 C 1183.41 0.408398 2.24516 0
M  V30 12291 C 1184.39 -0.506954 1.54495 0
M  V30 12292 O 1185.58 -0.442695 1.83228 0
M  V30 12293 C 1182.7 -0.41241 3.3618 0
M  V30 12294 C 1181.75 0.442483 4.24198 0
M  V30 12295 S 1182.58 1.87106 5.01749 0
M  V30 12296 C 1183.74 1.05851 6.16884 0
M  V30 12297 H 1183.97 1.24458 2.69995 0
M  V30 12298 H 1181.5 0.752309 1.34832 0
M  V30 12299 H 1183.46 -0.880064 4.00955 0
M  V30 12300 H 1182.12 -1.22335 2.89297 0
M  V30 12301 H 1181.32 -0.186767 5.03654 0
M  V30 12302 H 1180.92 0.845113 3.64327 0
M  V30 12303 H 1183.21 0.304329 6.76816 0
M  V30 12304 H 1184.15 1.82678 6.8413 0
M  V30 12305 H 1184.56 0.591269 5.61395 0
M  V30 12306 N 1183.96 -1.40369 0.716545 0
M  V30 12307 C 1185.2 -2.01167 0.256846 0
M  V30 12308 C 1185.54 -1.56689 -1.14727 0
M  V30 12309 O 1184.81 -0.787384 -1.7785 0
M  V30 12310 C 1185.1 -3.58511 0.337963 0
M  V30 12311 C 1184.95 -4.13059 1.78052 0
M  V30 12312 C 1186.27 -4.39142 -0.290295 0
M  V30 12313 H 1183.39 -0.730877 0.0948028 0
M  V30 12314 H 1186.03 -1.66833 0.909225 0
M  V30 12315 H 1184.18 -3.87891 -0.217482 0
M  V30 12316 H 1185.85 -3.94472 2.39143 0
M  V30 12317 H 1184.09 -3.67311 2.30793 0
M  V30 12318 H 1184.76 -5.22217 1.78867 0
M  V30 12319 H 1187.24 -4.15697 0.182987 0
M  V30 12320 H 1186.12 -5.48524 -0.203097 0
M  V30 12321 H 1186.38 -4.20209 -1.37394 0
M  V30 12322 N 1185.44 -0.462799 -1.50652 0
M  V30 12323 C 1186.35 0.341191 -2.32106 0
M  V30 12324 C 1187.36 1.00384 -1.42123 0
M  V30 12325 O 1188.54 0.993635 -1.75182 0
M  V30 12326 C 1185.6 1.41356 -3.16575 0
M  V30 12327 C 1184.66 0.768375 -4.22368 0
M  V30 12328 C 1183.9 1.78964 -5.028 0
M  V30 12329 O 1184.12 3.01515 -4.84195 0
M  V30 12330 O 1183.05 1.36606 -5.86193 0
M  V30 12331 H 1186.88 -0.324482 -3.01962 0
M  V30 12332 H 1184.47 -0.224807 -1.47699 0
M  V30 12333 H 1186.35 2.0349 -3.69012 0
M  V30 12334 H 1185.02 2.06285 -2.49456 0
M  V30 12335 H 1183.93 0.108297 -3.73943 0
M  V30 12336 H 1185.26 0.162164 -4.91933 0
M  V30 12337 N 1186.91 1.56388 -0.195085 0
M  V30 12338 C 1187.86 2.19091 0.725793 0
M  V30 12339 C 1188.83 1.13814 1.20977 0
M  V30 12340 O 1190.02 1.42065 1.27366 0
M  V30 12341 C 1187.16 2.85427 1.93973 0
M  V30 12342 C 1186.27 4.05229 1.49712 0
M  V30 12343 C 1185.4 4.59421 2.66656 0
M  V30 12344 C 1184.44 5.71581 2.19001 0
M  V30 12345 N 1183.58 6.2018 3.29123 0
M  V30 12346 H 1188.42 2.97429 0.184334 0
M  V30 12347 H 1185.96 1.46886 0.0792434 0
M  V30 12348 H 1187.92 3.22057 2.65208 0
M  V30 12349 H 1186.55 2.09652 2.4545 0
M  V30 12350 H 1185.6 3.74261 0.680641 0
M  V30 12351 H 1186.91 4.8635 1.10749 0
M  V30 12352 H 1186.06 4.98357 3.46014 0
M  V30 12353 H 1184.8 3.77407 3.08893 0
M  V30 12354 H 1183.81 5.32174 1.38097 0
M  V30 12355 H 1185.03 6.55413 1.77795 0
M  V30 12356 H 1182.98 5.41088 3.70891 0
M  V30 12357 H 1182.9 6.96353 2.94328 0
M  V30 12358 H 1184.16 6.63769 4.08694 0
M  V30 12359 N 1188.39 -0.0785156 1.57404 0
M  V30 12360 C 1189.33 -1.12563 1.98506 0
M  V30 12361 C 1190.3 -1.3794 0.860891 0
M  V30 12362 O 1191.49 -1.51425 1.12262 0
M  V30 12363 C 1188.61 -2.47139 2.31603 0
M  V30 12364 C 1187.66 -2.3794 3.53959 0
M  V30 12365 S 1188.49 -1.77997 5.05052 0
M  V30 12366 C 1189.65 -3.14164 5.41342 0
M  V30 12367 H 1189.88 -0.775328 2.87012 0
M  V30 12368 H 1187.42 -0.286806 1.51713 0
M  V30 12369 H 1189.37 -3.24554 2.51346 0
M  V30 12370 H 1188.03 -2.79333 1.43638 0
M  V30 12371 H 1187.23 -3.37168 3.74612 0
M  V30 12372 H 1186.83 -1.68659 3.33812 0
M  V30 12373 H 1189.12 -4.10467 5.39002 0
M  V30 12374 H 1190.06 -2.98298 6.42202 0
M  V30 12375 H 1190.47 -3.1446 4.68802 0
M  V30 12376 N 1189.87 -1.5367 -0.349747 0
M  V30 12377 C 1190.82 -1.81914 -1.44948 0
M  V30 12378 C 1191.81 -0.689218 -1.54745 0
M  V30 12379 O 1193.02 -0.872448 -1.57443 0
M  V30 12380 H 1189.39 -0.576234 -0.483176 0
M  V30 12381 H 1191.36 -2.73932 -1.18338 0
M  V30 12382 C 1190.11 -2.04005 -2.81562 0
M  V30 12383 H 1189.44 -2.90399 -2.74788 0
M  V30 12384 H 1190.88 -2.27737 -3.57648 0
M  V30 12385 C 1189.34 -0.823748 -3.26674 0
M  V30 12386 O 1189.87 -0.0201351 -4.01695 0
M  V30 12387 N 1188.07 -0.642716 -2.83403 0
M  V30 12388 H 1187.62 -1.29783 -2.22517 0
M  V30 12389 H 1187.58 0.169654 -3.13942 0
M  V30 12390 N 1191.35 0.610423 -1.45298 0
M  V30 12391 C 1192.28 1.73207 -1.56594 0
M  V30 12392 C 1193.26 1.64893 -0.417651 0
M  V30 12393 O 1194.44 1.83336 -0.64043 0
M  V30 12394 C 1191.57 3.11803 -1.52959 0
M  V30 12395 C 1190.53 3.34925 -2.66475 0
M  V30 12396 C 1189.85 4.73764 -2.47894 0
M  V30 12397 C 1191.15 3.25456 -4.08504 0
M  V30 12398 H 1192.85 1.6401 -2.50482 0
M  V30 12399 H 1190.39 0.787621 -1.20551 0
M  V30 12400 H 1192.35 3.90065 -1.59458 0
M  V30 12401 H 1191.07 3.21833 -0.55599 0
M  V30 12402 H 1189.73 2.59051 -2.59399 0
M  V30 12403 H 1189.38 4.80524 -1.4868 0
M  V30 12404 H 1189.08 4.90191 -3.24016 0
M  V30 12405 H 1190.6 5.54231 -2.56243 0
M  V30 12406 H 1192.02 3.93597 -4.16839 0
M  V30 12407 H 1190.41 3.53414 -4.84994 0
M  V30 12408 H 1191.48 2.22939 -4.30612 0
M  V30 12409 N 1192.83 1.32541 0.852676 0
M  V30 12410 C 1194.05 1.2622 1.6394 0
M  V30 12411 C 1194.47 -0.169455 1.88038 0
M  V30 12412 O 1193.83 -1.10719 1.45078 0
M  V30 12413 C 1193.88 2.02062 2.99755 0
M  V30 12414 O 1193.6 3.39641 2.76723 0
M  V30 12415 C 1195.1 2.02787 3.94198 0
M  V30 12416 H 1192.32 0.435405 0.510552 0
M  V30 12417 H 1194.86 1.74696 1.06309 0
M  V30 12418 H 1193.02 1.57303 3.54026 0
M  V30 12419 H 1193.43 3.78484 3.63111 0
M  V30 12420 H 1194.91 2.60333 4.86755 0
M  V30 12421 H 1195.38 1.01464 4.27319 0
M  V30 12422 H 1195.99 2.47504 3.45864 0
M  V30 12423 N 1194.3 -1.0692 1.15784 0
M  V30 12424 C 1195.55 -1.796 0.935429 0
M  V30 12425 C 1195.88 -1.86935 -0.537173 0
M  V30 12426 O 1195.13 -1.35244 -1.41448 0
M  V30 12427 C 1195.43 -3.24389 1.50022 0
M  V30 12428 C 1195.1 -3.37145 2.99406 0
M  V30 12429 C 1193.76 -3.40334 3.40186 0
M  V30 12430 C 1196.11 -3.39584 3.95389 0
M  V30 12431 C 1193.44 -3.43569 4.75581 0
M  V30 12432 C 1195.79 -3.44356 5.30661 0
M  V30 12433 C 1194.46 -3.45824 5.70931 0
M  V30 12434 H 1193.73 -0.657201 0.342298 0
M  V30 12435 H 1196.37 -1.25784 1.44397 0
M  V30 12436 H 1194.68 -3.81015 0.91297 0
M  V30 12437 H 1196.38 -3.79209 1.30389 0
M  V30 12438 H 1192.97 -3.35365 2.66887 0
M  V30 12439 H 1197.15 -3.36337 3.64954 0
M  V30 12440 H 1192.41 -3.43006 5.06119 0
M  V30 12441 H 1196.58 -3.4519 6.04828 0
M  V30 12442 H 1194.21 -3.48084 6.75826 0
M  V30 12443 N 1195.78 -0.955326 -1.25345 0
M  V30 12444 C 1196.73 -0.446792 -2.23579 0
M  V30 12445 C 1197.72 0.464354 -1.54054 0
M  V30 12446 O 1198.91 0.297293 -1.74485 0
M  V30 12447 C 1196.04 0.273533 -3.42209 0
M  V30 12448 C 1195.12 -0.655722 -4.19 0
M  V30 12449 N 1195.51 -1.78766 -4.73156 0
M  V30 12450 C 1193.81 -0.464059 -4.43579 0
M  V30 12451 C 1194.51 -2.36789 -5.31324 0
M  V30 12452 N 1193.49 -1.65435 -5.17815 0
M  V30 12453 H 1197.29 -1.31065 -2.63057 0
M  V30 12454 H 1194.81 -0.812899 -1.40591 0
M  V30 12455 H 1196.8 0.654986 -4.11723 0
M  V30 12456 H 1195.46 1.13399 -3.04254 0
M  V30 12457 H 1196.47 -2.1695 -4.70269 0
M  V30 12458 H 1193.15 0.353459 -4.16001 0
M  V30 12459 H 1194.54 -3.32242 -5.84008 0
M  V30 12460 N 1197.26 1.39987 -0.723979 0
M  V30 12461 C 1198.51 2.01028 -0.267511 0
M  V30 12462 C 1198.84 1.57295 1.13894 0
M  V30 12463 O 1198.12 0.796805 1.7743 0
M  V30 12464 C 1198.4 3.58326 -0.356971 0
M  V30 12465 C 1198.25 4.12109 -1.8024 0
M  V30 12466 C 1199.57 4.39289 0.267003 0
M  V30 12467 H 1196.69 0.730364 -0.0986775 0
M  V30 12468 H 1199.33 1.66348 -0.91806 0
M  V30 12469 H 1197.48 3.88001 0.196908 0
M  V30 12470 H 1199.15 3.93199 -2.41231 0
M  V30 12471 H 1197.4 3.66082 -2.32737 0
M  V30 12472 H 1198.07 5.21261 -1.81634 0
M  V30 12473 H 1200.54 4.15595 -0.20503 0
M  V30 12474 H 1199.42 5.48624 0.174004 0
M  V30 12475 H 1199.68 4.20931 1.35164 0
M  V30 12476 N 1198.74 0.470782 1.50404 0
M  V30 12477 C 1199.99 -0.0859981 2.01517 0
M  V30 12478 C 1200.3 -1.40811 1.35763 0
M  V30 12479 O 1201.51 -2.04982 1.7803 0
M  V30 12480 C 1199.96 -0.203773 3.59323 0
M  V30 12481 C 1199.57 1.10989 4.34034 0
M  V30 12482 C 1201.32 -0.712528 4.18477 0
M  V30 12483 C 1199.22 0.955928 5.83623 0
M  V30 12484 H 1198.15 -0.0359142 0.753144 0
M  V30 12485 H 1200.8 0.605631 1.73218 0
M  V30 12486 H 1199.19 -0.959177 3.84208 0
M  V30 12487 H 1200.36 1.87623 4.20873 0
M  V30 12488 H 1198.67 1.54973 3.86487 0
M  V30 12489 H 1201.27 -0.844745 5.27985 0
M  V30 12490 H 1201.61 -1.70377 3.79838 0
M  V30 12491 H 1202.15 -0.0145179 3.97797 0
M  V30 12492 H 1198.89 1.92054 6.26734 0
M  V30 12493 H 1198.41 0.22997 5.99359 0
M  V30 12494 H 1200.09 0.622423 6.43999 0
M  V30 12495 N 1200.22 -1.56282 0.203376 0
M  V30 12496 C 1201.17 -2.20822 -0.730784 0
M  V30 12497 C 1202.16 -1.18193 -1.21354 0
M  V30 12498 O 1203.37 -1.36318 -1.17547 0
M  V30 12499 H 1199.74 -0.707792 -0.254036 0
M  V30 12500 H 1201.71 -2.97955 -0.162825 0
M  V30 12501 C 1200.46 -2.88803 -1.93618 0
M  V30 12502 H 1199.78 -3.67521 -1.57379 0
M  V30 12503 H 1201.22 -3.37387 -2.56799 0
M  V30 12504 C 1199.68 -1.90285 -2.78017 0
M  V30 12505 O 1200.21 -1.40833 -3.76203 0
M  V30 12506 N 1198.42 -1.58332 -2.43679 0
M  V30 12507 H 1197.97 -1.9874 -1.63891 0
M  V30 12508 H 1197.92 -0.926722 -3.00432 0
M  V30 12509 N 1201.7 0.070167 -1.57444 0
M  V30 12510 C 1202.92 0.781894 -1.91557 0
M  V30 12511 C 1203.34 1.71037 -0.799489 0
M  V30 12512 O 1202.7 1.81082 0.227062 0
M  V30 12513 C 1202.75 1.57415 -3.25427 0
M  V30 12514 O 1202.47 0.682991 -4.32743 0
M  V30 12515 C 1203.97 2.38673 -3.73564 0
M  V30 12516 H 1201.19 0.222211 -0.633138 0
M  V30 12517 H 1203.73 0.0399504 -2.04461 0
M  V30 12518 H 1201.89 2.26835 -3.14045 0
M  V30 12519 H 1202.3 1.2342 -5.09772 0
M  V30 12520 H 1203.78 2.89716 -4.6986 0
M  V30 12521 H 1204.25 3.18269 -3.02657 0
M  V30 12522 H 1204.86 1.74405 -3.87896 0
M  V30 12523 N 1203.17 1.53854 0.341593 0
M  V30 12524 C 1204.42 1.70856 1.07948 0
M  V30 12525 C 1204.74 0.475474 1.89114 0
M  V30 12526 O 1204.01 -0.510592 1.89129 0
M  V30 12527 H 1202.59 0.629914 0.401519 0
M  V30 12528 H 1205.25 1.91112 0.382393 0
M  V30 12529 H 1204.35 2.5803 1.75575 0
M  V30 12530 N 1204.65 -0.602709 1.4562 0
M  V30 12531 C 1205.6 -1.73425 1.55005 0
M  V30 12532 C 1206.59 -1.64118 0.419713 0
M  V30 12533 O 1207.8 -1.69853 0.595815 0
M  V30 12534 H 1204.17 -0.573038 0.486962 0
M  V30 12535 H 1206.15 -1.62637 2.50184 0
M  V30 12536 C 1204.89 -3.11808 1.53853 0
M  V30 12537 H 1204.22 -3.19631 2.40158 0
M  V30 12538 H 1205.66 -3.90798 1.64477 0
M  V30 12539 C 1204.12 -3.35866 0.263765 0
M  V30 12540 O 1204.65 -3.96334 -0.654364 0
M  V30 12541 N 1202.85 -2.90171 0.157927 0
M  V30 12542 H 1202.4 -2.41144 0.905944 0
M  V30 12543 H 1202.36 -3.06641 -0.694175 0
M  V30 12544 N 1206.13 -1.32992 -0.845635 0
M  V30 12545 C 1207.35 -1.27231 -1.6379 0
M  V30 12546 C 1207.78 0.155141 -1.87459 0
M  V30 12547 O 1207.14 1.10953 -1.43384 0
M  V30 12548 C 1207.19 -2.04629 -2.96916 0
M  V30 12549 O 1206.29 -1.40027 -3.879 0
M  V30 12550 H 1205.63 -0.438045 -0.499011 0
M  V30 12551 H 1208.16 -1.75448 -1.05257 0
M  V30 12552 H 1208.17 -2.15141 -3.46667 0
M  V30 12553 H 1206.85 -3.08425 -2.79011 0
M  V30 12554 H 1205.42 -1.38118 -3.46378 0
M  V30 12555 N 1207.61 1.06304 -1.1635 0
M  V30 12556 C 1208.54 2.13209 -0.81346 0
M  V30 12557 C 1209.52 1.61174 0.21484 0
M  V30 12558 O 1210.7 1.8824 0.0989458 0
M  V30 12559 C 1207.83 3.38039 -0.211498 0
M  V30 12560 C 1206.88 4.08875 -1.21339 0
M  V30 12561 S 1207.71 4.58894 -2.76001 0
M  V30 12562 C 1208.86 5.86985 -2.17254 0
M  V30 12563 H 1209.1 2.42572 -1.7189 0
M  V30 12564 H 1206.63 1.18737 -0.986957 0
M  V30 12565 H 1208.59 4.10296 0.129349 0
M  V30 12566 H 1207.25 3.06834 0.671705 0
M  V30 12567 H 1206.44 4.98528 -0.740631 0
M  V30 12568 H 1206.04 3.42632 -1.49932 0
M  V30 12569 H 1208.34 6.59738 -1.54115 0
M  V30 12570 H 1209.28 6.38991 -3.05117 0
M  V30 12571 H 1209.69 5.41012 -1.61141 0
M  V30 12572 N 1209.09 0.96196 1.24836 0
M  V30 12573 C 1210.05 0.492443 2.23847 0
M  V30 12574 C 1211.05 -0.40788 1.55541 0
M  V30 12575 O 1212.24 -0.204143 1.73 0
M  V30 12576 C 1209.37 -0.287578 3.39685 0
M  V30 12577 H 1210.56 1.36767 2.66899 0
M  V30 12578 H 1208.12 0.745967 1.3735 0
M  V30 12579 H 1208.85 -1.18015 3.02064 0
M  V30 12580 H 1208.64 0.358431 3.90458 0
M  V30 12581 H 1210.13 -0.605297 4.1319 0
M  V30 12582 N 1210.56 -1.39601 0.731392 0
M  V30 12583 C 1211.97 -1.83424 0.348194 0
M  V30 12584 C 1212.33 -1.61106 -1.11979 0
M  V30 12585 O 1211.45 -1.1003 -1.86339 0
M  V30 12586 C 1212.05 -3.32982 0.6252 0
M  V30 12587 C 1210.6 -3.75238 0.295536 0
M  V30 12588 C 1209.75 -2.62642 0.88964 0
M  V30 12589 H 1212.7 -1.28644 0.929318 0
M  V30 12590 H 1212.72 -3.80357 -0.104254 0
M  V30 12591 H 1212.24 -3.49193 1.69368 0
M  V30 12592 H 1210.34 -3.64615 -0.767254 0
M  V30 12593 H 1210.45 -4.72781 0.775576 0
M  V30 12594 H 1208.81 -2.52726 0.316529 0
M  V30 12595 H 1209.6 -2.81661 1.96271 0
M  V30 12596 N 1212.04 -0.478751 -1.50152 0
M  V30 12597 C 1212.99 0.325375 -2.30313 0
M  V30 12598 C 1213.98 0.983372 -1.37935 0
M  V30 12599 O 1215.19 0.913601 -1.55091 0
M  V30 12600 H 1211.57 0.123775 -0.741744 0
M  V30 12601 H 1213.54 -0.371004 -2.96085 0
M  V30 12602 C 1212.29 1.39026 -3.18696 0
M  V30 12603 H 1211.61 0.893329 -3.89692 0
M  V30 12604 H 1213.05 1.92533 -3.77766 0
M  V30 12605 C 1211.51 2.39637 -2.36803 0
M  V30 12606 O 1212.04 3.45067 -2.05649 0
M  V30 12607 N 1210.24 2.11546 -1.9924 0
M  V30 12608 H 1209.79 1.25832 -2.24775 0
M  V30 12609 H 1209.75 2.79096 -1.44751 0
M  V30 12610 N 1213.52 1.56172 -0.211661 0
M  V30 12611 C 1214.77 1.98332 0.423332 0
M  V30 12612 C 1215.1 1.09895 1.60115 0
M  V30 12613 O 1214.37 0.154477 1.93886 0
M  V30 12614 C 1214.66 3.49495 0.86747 0
M  V30 12615 C 1214.51 4.48708 -0.313302 0
M  V30 12616 C 1215.83 4.04793 1.72716 0
M  V30 12617 H 1212.95 0.72107 0.152402 0
M  V30 12618 H 1215.59 1.87521 -0.305912 0
M  V30 12619 H 1213.74 3.58839 1.48885 0
M  V30 12620 H 1215.41 4.51385 -0.951291 0
M  V30 12621 H 1213.66 4.2299 -0.96238 0
M  V30 12622 H 1214.33 5.51985 0.0402402 0
M  V30 12623 H 1216.8 3.98332 1.20296 0
M  V30 12624 H 1215.68 5.10898 2.00684 0
M  V30 12625 H 1215.94 3.51067 2.68709 0
M  V30 12626 N 1215 -0.0618163 1.57479 0
M  V30 12627 C 1216.22 -0.775513 1.92355 0
M  V30 12628 C 1216.65 -1.69816 0.808949 0
M  V30 12629 O 1216.01 -1.79736 -0.23761 0
M  V30 12630 C 1216.05 -1.5367 3.26218 0
M  V30 12631 O 1215.16 -2.64802 3.16155 0
M  V30 12632 H 1214.5 -0.210909 0.629614 0
M  V30 12633 H 1217.03 -0.0270752 2.04582 0
M  V30 12634 H 1217.04 -1.91379 3.6033 0
M  V30 12635 H 1215.71 -0.859798 4.06916 0
M  V30 12636 H 1214.29 -2.29876 2.93618 0
M  V30 12637 N 1216.48 -1.54033 -0.333429 0
M  V30 12638 C 1217.72 -1.72019 -1.07411 0
M  V30 12639 C 1218.06 -0.487265 -1.87988 0
M  V30 12640 O 1217.33 0.515757 -1.87537 0
M  V30 12641 C 1217.61 -2.98986 -2.00698 0
M  V30 12642 C 1217.47 -4.32509 -1.23517 0
M  V30 12643 C 1218.79 -3.21663 -3.00368 0
M  V30 12644 H 1215.9 -0.625919 -0.389094 0
M  V30 12645 H 1218.55 -1.86717 -0.351697 0
M  V30 12646 H 1216.7 -2.86586 -2.62298 0
M  V30 12647 H 1218.37 -4.56775 -0.644522 0
M  V30 12648 H 1216.61 -4.3046 -0.537298 0
M  V30 12649 H 1217.28 -5.17547 -1.91962 0
M  V30 12650 H 1219.76 -3.33459 -2.48886 0
M  V30 12651 H 1218.63 -4.11877 -3.62834 0
M  V30 12652 H 1218.9 -2.3843 -3.72295 0
M  V30 12653 N 1217.95 0.594978 -1.45938 0
M  V30 12654 C 1218.86 1.73296 -1.58132 0
M  V30 12655 C 1219.88 1.67665 -0.465245 0
M  V30 12656 O 1221.06 1.87794 -0.727684 0
M  V30 12657 C 1218.12 3.09783 -1.55677 0
M  V30 12658 C 1217.18 3.26772 -2.78422 0
M  V30 12659 C 1216.42 4.56748 -2.76075 0
M  V30 12660 O 1216.64 5.39867 -1.84119 0
M  V30 12661 O 1215.57 4.76721 -3.67452 0
M  V30 12662 H 1219.4 1.65957 -2.54346 0
M  V30 12663 H 1216.98 0.760572 -1.28591 0
M  V30 12664 H 1218.87 3.91077 -1.56961 0
M  V30 12665 H 1217.54 3.17585 -0.626191 0
M  V30 12666 H 1216.45 2.45018 -2.82696 0
M  V30 12667 H 1217.78 3.23853 -3.70648 0
M  V30 12668 N 1219.43 1.33438 0.838571 0
M  V30 12669 C 1220.68 1.24259 1.58879 0
M  V30 12670 C 1220.99 -0.189957 1.94675 0
M  V30 12671 O 1222.2 -0.40376 2.68481 0
M  V30 12672 C 1220.66 2.1773 2.86569 0
M  V30 12673 C 1220.26 3.66156 2.58135 0
M  V30 12674 C 1222.01 2.17424 3.64591 0
M  V30 12675 C 1219.92 4.5154 3.81923 0
M  V30 12676 H 1218.85 0.461534 0.59624 0
M  V30 12677 H 1221.5 1.58504 0.924588 0
M  V30 12678 H 1219.88 1.76418 3.54532 0
M  V30 12679 H 1221.05 4.1591 1.98382 0
M  V30 12680 H 1219.37 3.68754 1.93416 0
M  V30 12681 H 1221.96 2.78446 4.56478 0
M  V30 12682 H 1222.31 1.16939 3.99539 0
M  V30 12683 H 1222.84 2.571 3.03553 0
M  V30 12684 H 1219.58 5.52902 3.52107 0
M  V30 12685 H 1219.1 4.06529 4.41015 0
M  V30 12686 H 1220.78 4.65359 4.495 0
M  V30 12687 N 1220.91 -1.05686 1.16912 0
M  V30 12688 C 1221.84 -2.12775 0.824755 0
M  V30 12689 C 1222.82 -1.61286 -0.206289 0
M  V30 12690 O 1224.01 -1.8829 -0.0889616 0
M  V30 12691 C 1221.13 -3.37922 0.229422 0
M  V30 12692 C 1220.18 -4.08226 1.23506 0
M  V30 12693 S 1221.01 -4.57424 2.78431 0
M  V30 12694 C 1222.17 -5.85825 2.20364 0
M  V30 12695 H 1222.4 -2.41657 1.73174 0
M  V30 12696 H 1219.93 -1.18212 0.99324 0
M  V30 12697 H 1221.89 -4.10359 -0.107588 0
M  V30 12698 H 1220.55 -3.07186 -0.655424 0
M  V30 12699 H 1219.75 -4.98129 0.767059 0
M  V30 12700 H 1219.35 -3.41832 1.51747 0
M  V30 12701 H 1221.64 -6.58912 1.57611 0
M  V30 12702 H 1222.58 -6.37364 3.08501 0
M  V30 12703 H 1222.99 -5.4015 1.64008 0
M  V30 12704 N 1222.39 -0.968567 -1.24324 0
M  V30 12705 C 1223.63 -0.631863 -1.92705 0
M  V30 12706 C 1223.97 0.83096 -1.75524 0
M  V30 12707 O 1223.24 1.59795 -1.10887 0
M  V30 12708 C 1223.53 -1.00845 -3.45691 0
M  V30 12709 C 1223.38 -2.52803 -3.72036 0
M  V30 12710 C 1224.7 -0.543647 -4.36729 0
M  V30 12711 H 1221.82 -0.231027 -0.699854 0
M  V30 12712 H 1224.46 -1.20773 -1.46676 0
M  V30 12713 H 1222.61 -0.518434 -3.85025 0
M  V30 12714 H 1224.28 -3.09289 -3.42255 0
M  V30 12715 H 1222.52 -2.95963 -3.17157 0
M  V30 12716 H 1223.19 -2.74203 -4.79079 0
M  V30 12717 H 1225.67 -0.964182 -4.04775 0
M  V30 12718 H 1224.55 -0.8357 -5.42501 0
M  V30 12719 H 1224.81 0.556256 -4.38587 0
M  V30 12720 N 1223.87 1.39211 -0.738786 0
M  V30 12721 C 1225.28 1.83237 -0.357916 0
M  V30 12722 C 1225.63 1.61698 1.11123 0
M  V30 12723 O 1224.75 1.11017 1.85753 0
M  V30 12724 C 1225.35 3.32645 -0.64285 0
M  V30 12725 C 1223.91 3.75076 -0.315432 0
M  V30 12726 C 1223.05 2.62166 -0.903556 0
M  V30 12727 H 1226.01 1.2815 -0.936127 0
M  V30 12728 H 1226.03 3.80407 0.0840812 0
M  V30 12729 H 1225.54 3.4829 -1.71218 0
M  V30 12730 H 1223.64 3.65017 0.747907 0
M  V30 12731 H 1223.75 4.72363 -0.800638 0
M  V30 12732 H 1222.12 2.52554 -0.329927 0
M  V30 12733 H 1222.9 2.80616 -1.97761 0
M  V30 12734 N 1225.34 0.486708 1.49896 0
M  V30 12735 C 1226.29 -0.313156 2.30482 0
M  V30 12736 C 1227.29 -0.976043 1.38455 0
M  V30 12737 O 1228.49 -0.905364 1.55574 0
M  V30 12738 H 1224.87 -0.119839 0.74239 0
M  V30 12739 H 1226.84 0.386701 2.95884 0
M  V30 12740 C 1225.59 -1.37334 3.19429 0
M  V30 12741 H 1224.91 -0.87265 3.9016 0
M  V30 12742 H 1226.35 -1.90526 3.78782 0
M  V30 12743 C 1224.81 -2.38378 2.38071 0
M  V30 12744 O 1225.34 -3.43972 2.07476 0
M  V30 12745 N 1223.55 -2.10486 2.00359 0
M  V30 12746 H 1223.09 -1.24638 2.2544 0
M  V30 12747 H 1223.05 -2.78324 1.46229 0
M  V30 12748 N 1226.82 -1.56058 0.219941 0
M  V30 12749 C 1228.05 -2.031 -0.42014 0
M  V30 12750 C 1228.47 -1.09875 -1.52673 0
M  V30 12751 O 1227.83 -0.0866458 -1.81093 0
M  V30 12752 C 1227.88 -3.48389 -0.93047 0
M  V30 12753 O 1226.98 -3.583 -2.04192 0
M  V30 12754 H 1226.32 -0.657129 -0.0952772 0
M  V30 12755 H 1228.85 -2.01787 0.338105 0
M  V30 12756 H 1228.86 -3.88678 -1.2407 0
M  V30 12757 H 1227.54 -4.15725 -0.120539 0
M  V30 12758 H 1226.12 -3.29898 -1.73845 0
M  V30 12759 N 1228.3 0.053464 -1.57509 0
M  V30 12760 C 1229.55 0.749102 -1.88135 0
M  V30 12761 C 1229.88 1.76642 -0.814111 0
M  V30 12762 O 1229.13 1.94796 0.187845 0
M  V30 12763 C 1229.43 1.47666 -3.25468 0
M  V30 12764 C 1229.1 0.597619 -4.46922 0
M  V30 12765 C 1227.76 0.355429 -4.79886 0
M  V30 12766 C 1230.11 -0.0107869 -5.21199 0
M  V30 12767 C 1227.44 -0.504347 -5.84528 0
M  V30 12768 C 1229.79 -0.858123 -6.26753 0
M  V30 12769 C 1228.45 -1.11001 -6.58206 0
M  V30 12770 H 1227.72 0.274116 -0.688434 0
M  V30 12771 H 1230.37 0.00944162 -1.91498 0
M  V30 12772 H 1228.68 2.28901 -3.1798 0
M  V30 12773 H 1230.37 2.02002 -3.46404 0
M  V30 12774 H 1226.96 0.796526 -4.21134 0
M  V30 12775 H 1231.15 0.163404 -4.96031 0
M  V30 12776 H 1226.4 -0.708057 -6.07286 0
M  V30 12777 H 1230.58 -1.3362 -6.83461 0
M  V30 12778 H 1228.2 -1.77798 -7.39116 0
M  V30 12779 N 1229.78 1.54207 0.325255 0
M  V30 12780 C 1231 1.7661 1.08736 0
M  V30 12781 C 1231.43 0.512449 1.80985 0
M  V30 12782 O 1230.79 -0.535913 1.73198 0
M  V30 12783 C 1230.84 2.95797 2.06243 0
M  V30 12784 O 1229.94 2.67225 3.14109 0
M  V30 12785 H 1229.28 0.585282 0.313593 0
M  V30 12786 H 1231.81 2.01225 0.370066 0
M  V30 12787 H 1231.82 3.23097 2.49143 0
M  V30 12788 H 1230.5 3.86712 1.53058 0
M  V30 12789 H 1229.07 2.50869 2.75897 0
M  V30 12790 N 1231.26 -0.58723 1.46251 0
M  V30 12791 C 1232.67 -1.16933 1.45546 0
M  V30 12792 C 1233.02 -1.9524 0.193879 0
M  V30 12793 O 1232.14 -2.04652 -0.70332 0
M  V30 12794 C 1232.74 -2.12723 2.63693 0
M  V30 12795 C 1231.3 -2.66267 2.66043 0
M  V30 12796 C 1230.45 -1.42051 2.38153 0
M  V30 12797 H 1233.4 -0.375411 1.54196 0
M  V30 12798 H 1233.42 -2.96111 2.38953 0
M  V30 12799 H 1232.93 -1.55703 3.55497 0
M  V30 12800 H 1231.03 -3.2717 1.783 0
M  V30 12801 H 1231.14 -3.0931 3.65874 0
M  V30 12802 H 1229.51 -1.71707 1.88119 0
M  V30 12803 H 1230.29 -0.868675 3.32128 0
M  V30 12804 N 1232.74 -1.33881 -0.831482 0
M  V30 12805 C 1233.67 -1.20587 -1.94914 0
M  V30 12806 C 1234.68 -0.135026 -1.62239 0
M  V30 12807 O 1235.87 -0.386116 -1.74274 0
M  V30 12808 C 1232.97 -0.828712 -3.28612 0
M  V30 12809 C 1232.14 -1.99275 -3.89369 0
M  V30 12810 C 1231.2 -1.59537 -5.01432 0
M  V30 12811 O 1230.23 -2.31076 -5.20185 0
M  V30 12812 N 1231.43 -0.5046 -5.78303 0
M  V30 12813 H 1234.19 -2.16869 -2.06852 0
M  V30 12814 H 1231.76 -1.26723 -1.00761 0
M  V30 12815 H 1233.75 -0.544827 -4.01016 0
M  V30 12816 H 1232.32 0.0436534 -3.1257 0
M  V30 12817 H 1231.54 -2.44185 -3.09463 0
M  V30 12818 H 1232.83 -2.77145 -4.26694 0
M  V30 12819 H 1232.22 0.0903105 -5.65628 0
M  V30 12820 H 1230.78 -0.280415 -6.51197 0
M  V30 12821 N 1234.21 1.05064 -1.1747 0
M  V30 12822 C 1235.44 1.81761 -0.988464 0
M  V30 12823 C 1235.86 1.83028 0.463272 0
M  V30 12824 O 1235.21 1.25846 1.32171 0
M  V30 12825 C 1235.26 3.2782 -1.5237 0
M  V30 12826 O 1234.99 3.26726 -2.91859 0
M  V30 12827 C 1236.49 4.212 -1.38223 0
M  V30 12828 H 1233.71 0.572712 -0.349631 0
M  V30 12829 H 1236.25 1.32477 -1.55789 0
M  V30 12830 H 1234.41 3.7437 -0.996272 0
M  V30 12831 H 1234.82 4.18151 -3.16623 0
M  V30 12832 H 1236.29 5.2166 -1.80485 0
M  V30 12833 H 1236.77 4.37962 -0.329491 0
M  V30 12834 H 1237.38 3.80506 -1.89988 0
M  V30 12835 N 1235.69 0.975146 1.23809 0
M  V30 12836 C 1236.97 0.557725 1.8748 0
M  V30 12837 C 1237.35 -0.965164 1.87744 0
M  V30 12838 O 1236.7 -1.83966 1.35531 0
M  V30 12839 C 1236.91 1.15777 3.29236 0
M  V30 12840 C 1238.25 1.24726 4.05868 0
M  V30 12841 O 1239.28 1.11084 3.38436 0
M  V30 12842 O 1238.14 1.46373 5.26533 0
M  V30 12843 H 1235.23 0.187045 0.80557 0
M  V30 12844 H 1237.78 1.06989 1.31725 0
M  V30 12845 H 1236.55 2.20023 3.23583 0
M  V30 12846 H 1236.17 0.630103 3.92575 0
M  V30 12847 N 1237.17 -1.38817 0.746158 0
M  V30 12848 C 1238.12 -2.30521 0.113517 0
M  V30 12849 C 1239.09 -1.49795 -0.717682 0
M  V30 12850 O 1240.27 -1.78448 -0.675345 0
M  V30 12851 C 1237.41 -3.36185 -0.779343 0
M  V30 12852 C 1236.52 -4.3195 0.0656784 0
M  V30 12853 C 1235.66 -5.24684 -0.829492 0
M  V30 12854 C 1234.7 -6.12097 0.0196112 0
M  V30 12855 N 1233.84 -6.97152 -0.832107 0
M  V30 12856 H 1238.68 -2.84048 0.901136 0
M  V30 12857 H 1236.21 -1.39853 0.456025 0
M  V30 12858 H 1238.17 -3.96048 -1.31156 0
M  V30 12859 H 1236.8 -2.84085 -1.53282 0
M  V30 12860 H 1235.85 -3.73611 0.715445 0
M  V30 12861 H 1237.16 -4.93551 0.721735 0
M  V30 12862 H 1236.32 -5.89627 -1.42915 0
M  V30 12863 H 1235.06 -4.63431 -1.5193 0
M  V30 12864 H 1234.06 -5.46156 0.631991 0
M  V30 12865 H 1235.29 -6.75416 0.706369 0
M  V30 12866 H 1233.23 -6.38456 -1.507 0
M  V30 12867 H 1233.15 -7.55642 -0.232782 0
M  V30 12868 H 1234.42 -7.66513 -1.41697 0
M  V30 12869 N 1238.65 -0.49465 -1.49636 0
M  V30 12870 C 1239.58 0.276606 -2.31856 0
M  V30 12871 C 1240.56 0.968499 -1.39836 0
M  V30 12872 O 1241.74 0.96113 -1.68748 0
M  V30 12873 C 1238.87 1.34522 -3.20189 0
M  V30 12874 C 1237.83 0.773571 -4.20951 0
M  V30 12875 C 1237.15 1.94223 -4.98178 0
M  V30 12876 C 1238.45 -0.231096 -5.21788 0
M  V30 12877 H 1240.15 -0.409668 -2.96584 0
M  V30 12878 H 1237.69 -0.198461 -1.42626 0
M  V30 12879 H 1239.65 1.89244 -3.76517 0
M  V30 12880 H 1238.37 2.06059 -2.53392 0
M  V30 12881 H 1237.03 0.248144 -3.65759 0
M  V30 12882 H 1236.68 2.64514 -4.27834 0
M  V30 12883 H 1236.38 1.56584 -5.66353 0
M  V30 12884 H 1237.9 2.49391 -5.57348 0
M  V30 12885 H 1239.32 0.227768 -5.72847 0
M  V30 12886 H 1237.71 -0.522984 -5.97817 0
M  V30 12887 H 1238.78 -1.14914 -4.71087 0
M  V30 12888 N 1240.13 1.55939 -0.228214 0
M  V30 12889 C 1241.37 1.98476 0.401677 0
M  V30 12890 C 1241.7 1.116 1.59297 0
M  V30 12891 O 1240.96 0.162465 1.95024 0
M  V30 12892 C 1241.25 3.46581 0.872732 0
M  V30 12893 C 1240.92 4.50416 -0.208767 0
M  V30 12894 C 1239.58 4.78534 -0.505847 0
M  V30 12895 C 1241.93 5.12656 -0.939852 0
M  V30 12896 C 1239.26 5.66171 -1.53841 0
M  V30 12897 C 1241.61 6.01412 -1.9618 0
M  V30 12898 C 1240.28 6.2787 -2.26573 0
M  V30 12899 H 1239.55 0.726276 0.146984 0
M  V30 12900 H 1242.2 1.88598 -0.332128 0
M  V30 12901 H 1240.5 3.53696 1.68541 0
M  V30 12902 H 1242.2 3.76869 1.37006 0
M  V30 12903 H 1238.79 4.28587 0.0329308 0
M  V30 12904 H 1242.97 4.90997 -0.723581 0
M  V30 12905 H 1238.23 5.84933 -1.77944 0
M  V30 12906 H 1242.4 6.48688 -2.53332 0
M  V30 12907 H 1240.03 6.95574 -3.06725 0
M  V30 12908 N 1241.6 -0.0451101 1.57535 0
M  V30 12909 C 1242.55 -1.0692 2.06569 0
M  V30 12910 C 1243.55 -1.38443 0.976218 0
M  V30 12911 O 1244.75 -1.37536 1.1612 0
M  V30 12912 H 1241.13 -0.36226 0.658993 0
M  V30 12913 H 1243.1 -0.629709 2.9168 0
M  V30 12914 C 1241.85 -2.36656 2.54733 0
M  V30 12915 H 1241.17 -2.13257 3.38174 0
M  V30 12916 H 1242.61 -3.06696 2.92769 0
M  V30 12917 C 1241.07 -3.04499 1.4416 0
M  V30 12918 O 1241.6 -3.93679 0.798721 0
M  V30 12919 N 1239.81 -2.6556 1.18009 0
M  V30 12920 H 1239.35 -1.93126 1.7047 0
M  V30 12921 H 1239.31 -3.11272 0.442363 0
M  V30 12922 N 1243.08 -1.54377 -0.317073 0
M  V30 12923 C 1244.33 -1.72105 -1.0518 0
M  V30 12924 C 1244.64 -0.505166 -1.88964 0
M  V30 12925 O 1245.85 -0.563912 -2.65579 0
M  V30 12926 C 1244.31 -3.04435 -1.91957 0
M  V30 12927 C 1243.91 -4.33449 -1.13253 0
M  V30 12928 C 1245.66 -3.31524 -2.65127 0
M  V30 12929 C 1243.57 -5.56837 -1.99214 0
M  V30 12930 H 1242.5 -0.641392 -0.396399 0
M  V30 12931 H 1245.15 -1.80868 -0.309673 0
M  V30 12932 H 1243.53 -2.89595 -2.70094 0
M  V30 12933 H 1244.7 -4.59074 -0.39842 0
M  V30 12934 H 1243.02 -4.13173 -0.517372 0
M  V30 12935 H 1245.61 -4.20906 -3.29761 0
M  V30 12936 H 1245.96 -2.49688 -3.33109 0
M  V30 12937 H 1246.49 -3.47261 -1.94048 0
M  V30 12938 H 1243.23 -6.41294 -1.35729 0
M  V30 12939 H 1242.75 -5.35421 -2.70341 0
M  V30 12940 H 1244.43 -5.93488 -2.57646 0
M  V30 12941 N 1244.56 0.579466 -1.4656 0
M  V30 12942 C 1245.49 1.69846 -1.60233 0
M  V30 12943 C 1246.47 1.6397 -0.452533 0
M  V30 12944 O 1247.66 1.81936 -0.679174 0
M  V30 12945 C 1244.79 3.08488 -1.59538 0
M  V30 12946 C 1243.74 3.29197 -2.7352 0
M  V30 12947 C 1243.07 4.684 -2.57887 0
M  V30 12948 C 1244.37 3.16718 -4.15315 0
M  V30 12949 H 1246.06 1.5866 -2.53904 0
M  V30 12950 H 1243.61 0.761873 -1.22194 0
M  V30 12951 H 1245.56 3.86595 -1.67696 0
M  V30 12952 H 1244.28 3.20581 -0.62413 0
M  V30 12953 H 1242.94 2.53491 -2.64836 0
M  V30 12954 H 1242.59 4.77262 -1.58839 0
M  V30 12955 H 1242.29 4.83208 -3.34341 0
M  V30 12956 H 1243.81 5.48671 -2.67942 0
M  V30 12957 H 1245.23 3.84666 -4.25094 0
M  V30 12958 H 1243.63 3.43047 -4.92381 0
M  V30 12959 H 1244.7 2.13755 -4.35244 0
M  V30 12960 N 1246.04 1.3432 0.824371 0
M  V30 12961 C 1247.32 1.17178 1.56616 0
M  V30 12962 C 1247.7 -0.256195 2.0954 0
M  V30 12963 O 1247.04 -1.25732 1.90798 0
M  V30 12964 C 1247.25 2.22511 2.68867 0
M  V30 12965 C 1248.6 2.57414 3.37673 0
M  V30 12966 O 1249.63 2.2129 2.79122 0
M  V30 12967 O 1248.48 3.19462 4.43403 0
M  V30 12968 H 1245.58 0.454141 0.691147 0
M  V30 12969 H 1248.12 1.45948 0.865869 0
M  V30 12970 H 1246.9 3.18366 2.27505 0
M  V30 12971 H 1246.52 1.9491 3.46548 0
M  V30 12972 N 1247.52 -1.0444 1.18026 0
M  V30 12973 C 1248.76 -1.77838 0.974756 0
M  V30 12974 C 1249.1 -1.87792 -0.494755 0
M  V30 12975 O 1248.37 -1.38327 -1.36733 0
M  V30 12976 C 1248.65 -3.21315 1.62569 0
M  V30 12977 C 1248.51 -3.19327 3.16781 0
M  V30 12978 C 1249.83 -4.19337 1.33583 0
M  V30 12979 H 1246.94 -0.645575 0.35553 0
M  V30 12980 H 1249.59 -1.22023 1.45638 0
M  V30 12981 H 1247.74 -3.68974 1.21617 0
M  V30 12982 H 1249.41 -2.79687 3.66842 0
M  V30 12983 H 1247.65 -2.57461 3.49137 0
M  V30 12984 H 1248.32 -4.20626 3.5746 0
M  V30 12985 H 1250.8 -3.80208 1.69059 0
M  V30 12986 H 1249.67 -5.17953 1.81702 0
M  V30 12987 H 1249.94 -4.41346 0.258016 0
M  V30 12988 N 1248.99 -0.981699 -1.2329 0
M  V30 12989 C 1249.93 -0.481042 -2.24095 0
M  V30 12990 C 1250.94 0.417818 -1.57347 0
M  V30 12991 O 1252.13 0.221746 -1.77117 0
M  V30 12992 C 1249.23 0.323324 -3.37354 0
M  V30 12993 C 1248.4 -0.568975 -4.33684 0
M  V30 12994 C 1247.46 0.181761 -5.25886 0
M  V30 12995 O 1246.49 -0.429059 -5.67581 0
M  V30 12996 N 1247.69 1.46737 -5.61648 0
M  V30 12997 H 1250.45 -1.34781 -2.67683 0
M  V30 12998 H 1248.01 -0.855117 -1.37475 0
M  V30 12999 H 1250.01 0.833934 -3.96015 0
M  V30 13000 H 1248.58 1.09111 -2.9294 0
M  V30 13001 H 1247.8 -1.2604 -3.73507 0
M  V30 13002 H 1249.08 -1.17704 -4.94998 0
M  V30 13003 H 1248.48 1.98513 -5.29725 0
M  V30 13004 H 1247.04 1.92339 -6.22775 0
M  V30 13005 N 1250.47 1.3842 -0.753509 0
M  V30 13006 C 1251.7 2.04403 -0.320449 0
M  V30 13007 C 1252.12 1.5683 1.05118 0
M  V30 13008 O 1251.47 0.741335 1.66765 0
M  V30 13009 C 1251.52 3.59954 -0.333937 0
M  V30 13010 O 1251.24 4.05782 -1.65144 0
M  V30 13011 C 1252.75 4.43156 0.112997 0
M  V30 13012 H 1249.97 0.656881 -0.136927 0
M  V30 13013 H 1252.51 1.77112 -1.02234 0
M  V30 13014 H 1250.66 3.86083 0.319215 0
M  V30 13015 H 1251.08 5.00213 -1.57757 0
M  V30 13016 H 1252.55 5.51975 0.0523995 0
M  V30 13017 H 1253.03 4.23581 1.16087 0
M  V30 13018 H 1253.64 4.22216 -0.511278 0
M  V30 13019 N 1251.95 0.502579 1.49372 0
M  V30 13020 C 1253.18 -0.0381429 2.06865 0
M  V30 13021 C 1253.59 -1.30674 1.36271 0
M  V30 13022 O 1252.95 -1.77078 0.441532 0
M  V30 13023 C 1253 -0.294068 3.60302 0
M  V30 13024 O 1252.72 0.924244 4.2824 0
M  V30 13025 C 1254.22 -0.878253 4.34513 0
M  V30 13026 H 1251.44 0.0211756 0.670666 0
M  V30 13027 H 1253.99 0.700387 1.92132 0
M  V30 13028 H 1252.14 -0.982583 3.74732 0
M  V30 13029 H 1252.56 0.688062 5.19967 0
M  V30 13030 H 1254.03 -1.0069 5.42739 0
M  V30 13031 H 1254.51 -1.87643 3.97098 0
M  V30 13032 H 1255.11 -0.227157 4.24693 0
M  V30 13033 N 1253.43 -1.55816 0.23648 0
M  V30 13034 C 1254.66 -2.03083 -0.395584 0
M  V30 13035 C 1255.07 -1.11599 -1.52286 0
M  V30 13036 O 1254.43 -0.128403 -1.82048 0
M  V30 13037 C 1254.48 -3.49776 -0.913197 0
M  V30 13038 O 1254.2 -4.37773 0.169151 0
M  V30 13039 C 1255.7 -4.12756 -1.617 0
M  V30 13040 H 1252.92 -0.66421 -0.0952146 0
M  V30 13041 H 1255.47 -2.01354 0.357299 0
M  V30 13042 H 1253.62 -3.52072 -1.6163 0
M  V30 13043 H 1254.03 -5.24029 -0.222217 0
M  V30 13044 H 1255.51 -5.17123 -1.93101 0
M  V30 13045 H 1255.99 -3.58631 -2.53537 0
M  V30 13046 H 1256.59 -4.14353 -0.958736 0
M  V30 13047 N 1254.91 0.036755 -1.57557 0
M  V30 13048 C 1256.15 0.727665 -1.88546 0
M  V30 13049 C 1256.48 1.76304 -0.833179 0
M  V30 13050 O 1255.75 1.9544 0.13414 0
M  V30 13051 H 1254.33 0.271744 -0.695819 0
M  V30 13052 H 1256.99 0.00452915 -1.94899 0
M  V30 13053 H 1256.08 1.22205 -2.8718 0
M  V30 13054 N 1256.39 1.54543 0.308881 0
M  V30 13055 C 1257.3 1.87994 1.4034 0
M  V30 13056 C 1258.31 0.773294 1.55872 0
M  V30 13057 O 1259.49 1.069 1.70688 0
M  V30 13058 C 1256.55 2.11341 2.74838 0
M  V30 13059 C 1255.61 3.35086 2.68358 0
M  V30 13060 C 1254.85 3.5731 3.96441 0
M  V30 13061 O 1255.07 2.82692 4.9542 0
M  V30 13062 O 1254 4.50814 3.98811 0
M  V30 13063 H 1257.83 2.81094 1.14976 0
M  V30 13064 H 1255.41 1.40634 0.504236 0
M  V30 13065 H 1257.3 2.27943 3.54429 0
M  V30 13066 H 1255.97 1.21427 3.00062 0
M  V30 13067 H 1254.88 3.23855 1.87267 0
M  V30 13068 H 1256.21 4.25104 2.48087 0
M  V30 13069 N 1257.86 -0.571685 1.46866 0
M  V30 13070 C 1259.1 -1.34041 1.54313 0
M  V30 13071 C 1259.47 -1.9101 0.194708 0
M  V30 13072 O 1260.67 -2.68414 0.143968 0
M  V30 13073 C 1258.94 -2.4315 2.61941 0
M  V30 13074 S 1260.5 -3.30301 2.88871 0
M  V30 13075 H 1257.32 -0.45652 0.545078 0
M  V30 13076 H 1259.92 -0.656041 1.84164 0
M  V30 13077 H 1258.62 -1.99707 3.58532 0
M  V30 13078 H 1258.15 -3.16345 2.33858 0
M  V30 13079 H 1260.17 -4.42265 2.24981 0
M  V30 13080 N 1259.34 -1.34755 -0.817236 0
M  V30 13081 C 1260.29 -1.23351 -1.91751 0
M  V30 13082 C 1261.28 -0.131215 -1.60364 0
M  V30 13083 O 1262.47 -0.361425 -1.73271 0
M  V30 13084 C 1259.6 -0.996932 -3.28506 0
M  V30 13085 C 1258.68 -2.14265 -3.65993 0
M  V30 13086 N 1259.07 -3.39424 -3.75 0
M  V30 13087 C 1257.37 -2.05416 -3.95879 0
M  V30 13088 C 1258.07 -4.14701 -4.07919 0
M  V30 13089 N 1257.05 -3.43349 -4.21441 0
M  V30 13090 H 1260.85 -2.18191 -1.96901 0
M  V30 13091 H 1258.36 -1.27075 -1.01122 0
M  V30 13092 H 1260.36 -0.89613 -4.07155 0
M  V30 13093 H 1259.02 -0.0572789 -3.24649 0
M  V30 13094 H 1260.03 -3.73907 -3.58349 0
M  V30 13095 H 1256.71 -1.19242 -4.0011 0
M  V30 13096 H 1258.1 -5.22808 -4.22044 0
M  V30 13097 N 1260.82 1.03812 -1.18578 0
M  V30 13098 C 1262.07 1.77056 -0.982718 0
M  V30 13099 C 1262.39 1.88294 0.487421 0
M  V30 13100 O 1261.65 1.38946 1.37813 0
M  V30 13101 C 1261.95 3.20297 -1.5857 0
M  V30 13102 C 1261.61 3.29088 -3.0824 0
M  V30 13103 C 1260.28 3.31194 -3.4909 0
M  V30 13104 C 1262.63 3.28981 -4.04253 0
M  V30 13105 C 1259.96 3.30839 -4.84523 0
M  V30 13106 C 1262.31 3.30166 -5.39605 0
M  V30 13107 C 1260.97 3.30565 -5.79899 0
M  V30 13108 H 1260.24 0.647895 -0.359602 0
M  V30 13109 H 1262.89 1.21911 -1.47682 0
M  V30 13110 H 1261.19 3.7846 -1.01367 0
M  V30 13111 H 1262.89 3.75619 -1.40398 0
M  V30 13112 H 1259.48 3.28171 -2.75685 0
M  V30 13113 H 1263.67 3.26543 -3.73743 0
M  V30 13114 H 1258.92 3.29467 -5.15035 0
M  V30 13115 H 1263.1 3.29033 -6.13767 0
M  V30 13116 H 1260.72 3.30044 -6.84818 0
M  V30 13117 N 1262.3 0.988223 1.22768 0
M  V30 13118 C 1263.21 0.543407 2.2822 0
M  V30 13119 C 1264.22 -0.405563 1.69208 0
M  V30 13120 O 1265.4 -0.273551 1.99534 0
M  V30 13121 C 1262.46 -0.139495 3.46419 0
M  V30 13122 C 1261.53 0.851853 4.20764 0
M  V30 13123 C 1260.76 0.201446 5.3332 0
M  V30 13124 O 1260.98 -1.00573 5.61464 0
M  V30 13125 O 1259.92 0.903956 5.95073 0
M  V30 13126 H 1263.74 1.42059 2.68427 0
M  V30 13127 H 1261.33 0.756239 1.28846 0
M  V30 13128 H 1263.21 -0.522226 4.18152 0
M  V30 13129 H 1261.88 -0.991315 3.08147 0
M  V30 13130 H 1260.79 1.28543 3.51322 0
M  V30 13131 H 1262.12 1.67273 4.62905 0
M  V30 13132 N 1263.78 -1.38018 0.760839 0
M  V30 13133 C 1264.72 -2.32251 0.127425 0
M  V30 13134 C 1265.72 -1.54387 -0.69722 0
M  V30 13135 O 1266.92 -1.69864 -0.595505 0
M  V30 13136 H 1263.3 -0.751666 0.0224141 0
M  V30 13137 H 1265.27 -2.8327 0.93813 0
M  V30 13138 C 1264.02 -3.39606 -0.745849 0
M  V30 13139 H 1263.34 -3.99618 -0.120679 0
M  V30 13140 H 1264.78 -4.07931 -1.15621 0
M  V30 13141 C 1263.24 -2.78778 -1.89167 0
M  V30 13142 O 1263.77 -2.68661 -2.98637 0
M  V30 13143 N 1261.98 -2.36481 -1.68894 0
M  V30 13144 H 1261.52 -2.4491 -0.798551 0
M  V30 13145 H 1261.48 -1.96126 -2.45728 0
M  V30 13146 N 1265.25 -0.510493 -1.49103 0
M  V30 13147 C 1266.48 0.0271324 -2.06582 0
M  V30 13148 C 1266.89 1.30499 -1.36991 0
M  V30 13149 O 1266.23 1.78229 -0.444976 0
M  V30 13150 C 1266.3 0.341488 -3.57874 0
M  V30 13151 C 1265.96 -0.840037 -4.49213 0
M  V30 13152 C 1266.96 -1.73315 -4.90161 0
M  V30 13153 C 1264.64 -1.04153 -4.91383 0
M  V30 13154 C 1266.64 -2.81182 -5.72028 0
M  V30 13155 C 1264.32 -2.12336 -5.73024 0
M  V30 13156 C 1265.32 -3.00684 -6.13252 0
M  V30 13157 O 1265.01 -4.06999 -6.93258 0
M  V30 13158 H 1264.74 -0.0215383 -0.675657 0
M  V30 13159 H 1267.3 -0.709841 -1.92744 0
M  V30 13160 H 1265.53 1.13218 -3.69755 0
M  V30 13161 H 1267.21 0.818859 -3.97554 0
M  V30 13162 H 1267.98 -1.58934 -4.58219 0
M  V30 13163 H 1263.86 -0.363199 -4.59567 0
M  V30 13164 H 1267.4 -3.50169 -6.03347 0
M  V30 13165 H 1263.3 -2.26708 -6.04379 0
M  V30 13166 H 1264.07 -4.04469 -7.11581 0
M  V30 13167 N 1266.73 1.55688 -0.24474 0
M  V30 13168 C 1267.66 2.18616 0.68844 0
M  V30 13169 C 1268.68 1.16185 1.14039 0
M  V30 13170 O 1269.87 1.43059 1.06754 0
M  V30 13171 C 1266.97 2.77375 1.94721 0
M  V30 13172 C 1266.14 4.05204 1.64706 0
M  V30 13173 C 1265.2 4.48302 2.75521 0
M  V30 13174 O 1264.22 5.14723 2.42999 0
M  V30 13175 N 1265.43 4.15907 4.04971 0
M  V30 13176 H 1268.19 2.99324 0.150018 0
M  V30 13177 H 1265.75 1.61771 -0.0646183 0
M  V30 13178 H 1267.74 3.03165 2.68091 0
M  V30 13179 H 1266.31 2.00837 2.39548 0
M  V30 13180 H 1265.53 3.87026 0.74865 0
M  V30 13181 H 1266.82 4.8855 1.42114 0
M  V30 13182 H 1266.22 3.62579 4.34227 0
M  V30 13183 H 1264.78 4.46538 4.74813 0
M  V30 13184 N 1268.21 -0.0283989 1.57574 0
M  V30 13185 C 1269.63 -0.384054 1.5491 0
M  V30 13186 C 1269.83 -1.76564 0.970947 0
M  V30 13187 O 1268.88 -2.45455 0.592288 0
M  V30 13188 C 1270.19 -0.285297 2.99344 0
M  V30 13189 C 1271.74 -0.36233 3.10896 0
M  V30 13190 C 1272.22 -0.293014 4.57062 0
M  V30 13191 N 1273.71 -0.351788 4.61862 0
M  V30 13192 C 1274.44 -0.321054 5.725 0
M  V30 13193 N 1273.94 -0.242573 6.92375 0
M  V30 13194 N 1275.73 -0.370832 5.60875 0
M  V30 13195 H 1267.88 0.87573 1.93506 0
M  V30 13196 H 1270.15 0.33305 0.887571 0
M  V30 13197 H 1269.85 0.664146 3.45372 0
M  V30 13198 H 1269.73 -1.07869 3.61447 0
M  V30 13199 H 1272.11 -1.30221 2.64814 0
M  V30 13200 H 1272.19 0.460422 2.51622 0
M  V30 13201 H 1271.84 0.643197 5.03811 0
M  V30 13202 H 1271.77 -1.13388 5.14248 0
M  V30 13203 H 1274.26 -0.414929 3.75615 0
M  V30 13204 H 1274.57 -0.224239 7.72475 0
M  V30 13205 H 1272.92 -0.208612 6.94687 0
M  V30 13206 H 1276.11 -0.430141 4.6612 0
M  V30 13207 H 1276.28 -0.343412 6.47089 0
M  V30 13208 N 1269.69 -1.54705 -0.300681 0
M  V30 13209 C 1270.93 -1.74259 -1.03738 0
M  V30 13210 C 1271.27 -0.52703 -1.86912 0
M  V30 13211 O 1270.54 0.475862 -1.88589 0
M  V30 13212 C 1270.82 -3.03175 -1.94311 0
M  V30 13213 C 1270.68 -4.35031 -1.14315 0
M  V30 13214 C 1272 -3.27962 -2.93478 0
M  V30 13215 H 1269.12 -0.634031 -0.37573 0
M  V30 13216 H 1271.76 -1.87421 -0.312012 0
M  V30 13217 H 1269.91 -2.92086 -2.5616 0
M  V30 13218 H 1271.58 -4.5804 -0.547489 0
M  V30 13219 H 1269.82 -4.31503 -0.44587 0
M  V30 13220 H 1270.49 -5.21502 -1.80941 0
M  V30 13221 H 1272.97 -3.38663 -2.41757 0
M  V30 13222 H 1271.85 -4.19481 -3.54016 0
M  V30 13223 H 1272.11 -2.46273 -3.67154 0
M  V30 13224 N 1271.17 0.563888 -1.47167 0
M  V30 13225 C 1272.41 1.33221 -1.55021 0
M  V30 13226 C 1272.77 1.90904 -0.204835 0
M  V30 13227 O 1273.97 2.68334 -0.158201 0
M  V30 13228 C 1272.24 2.41757 -2.63227 0
M  V30 13229 S 1273.8 3.28765 -2.90619 0
M  V30 13230 H 1270.62 0.453623 -0.547491 0
M  V30 13231 H 1273.22 0.646265 -1.84509 0
M  V30 13232 H 1271.93 1.97803 -3.59586 0
M  V30 13233 H 1271.46 3.151 -2.35532 0
M  V30 13234 H 1273.47 4.41065 -2.27323 0
M  V30 13235 N 1272.64 1.35187 0.810078 0
M  V30 13236 C 1273.61 1.27698 1.90331 0
M  V30 13237 C 1274.61 0.189216 1.59683 0
M  V30 13238 O 1275.8 0.442689 1.68481 0
M  V30 13239 C 1272.93 0.974631 3.26671 0
M  V30 13240 H 1274.12 2.24902 1.98392 0
M  V30 13241 H 1271.68 1.1966 1.00554 0
M  V30 13242 H 1272.41 0.0063068 3.24299 0
M  V30 13243 H 1272.2 1.76158 3.50301 0
M  V30 13244 H 1273.69 0.947743 4.06703 0
M  V30 13245 N 1274.12 -1.03182 1.19127 0
M  V30 13246 C 1275.05 -2.13301 0.94999 0
M  V30 13247 C 1276.03 -1.69707 -0.115577 0
M  V30 13248 O 1277.22 -1.94161 0.0388395 0
M  V30 13249 C 1274.35 -3.43902 0.484637 0
M  V30 13250 C 1273.3 -4.01164 1.4917 0
M  V30 13251 C 1272.63 -5.2735 0.883537 0
M  V30 13252 C 1273.93 -4.36311 2.87107 0
M  V30 13253 H 1275.62 -2.33743 1.87095 0
M  V30 13254 H 1273.17 -1.12332 0.900977 0
M  V30 13255 H 1275.12 -4.20308 0.30315 0
M  V30 13256 H 1273.85 -3.23173 -0.471909 0
M  V30 13257 H 1272.5 -3.26849 1.66028 0
M  V30 13258 H 1272.15 -5.02936 -0.0804712 0
M  V30 13259 H 1271.85 -5.66624 1.55599 0
M  V30 13260 H 1273.38 -6.06425 0.71278 0
M  V30 13261 H 1274.79 -5.03666 2.73848 0
M  V30 13262 H 1273.19 -4.86659 3.51117 0
M  V30 13263 H 1274.26 -3.45743 3.39985 0
M  V30 13264 N 1275.6 -0.99472 -1.22242 0
M  V30 13265 C 1276.51 -0.555502 -2.27928 0
M  V30 13266 C 1277.53 0.396584 -1.6942 0
M  V30 13267 O 1278.7 0.262965 -1.99676 0
M  V30 13268 C 1275.77 0.121121 -3.46488 0
M  V30 13269 C 1274.83 -0.874155 -4.20306 0
M  V30 13270 C 1274.06 -0.229726 -5.33205 0
M  V30 13271 O 1274.28 0.975935 -5.61989 0
M  V30 13272 O 1273.22 -0.935501 -5.94586 0
M  V30 13273 H 1277.04 -1.4348 -2.6767 0
M  V30 13274 H 1274.63 -0.763061 -1.28444 0
M  V30 13275 H 1276.51 0.500043 -4.18423 0
M  V30 13276 H 1275.19 0.974959 -3.08668 0
M  V30 13277 H 1274.09 -1.30404 -3.50636 0
M  V30 13278 H 1275.43 -1.69725 -4.62011 0
M  V30 13279 N 1277.08 1.37613 -0.768148 0
M  V30 13280 C 1278.01 2.28935 -0.110234 0
M  V30 13281 C 1279.02 1.48459 0.668122 0
M  V30 13282 O 1280.21 1.71154 0.506808 0
M  V30 13283 C 1277.31 3.27606 0.867598 0
M  V30 13284 C 1276.49 4.37163 0.143819 0
M  V30 13285 C 1275.54 5.15931 1.03449 0
M  V30 13286 O 1274.57 5.67003 0.499605 0
M  V30 13287 N 1275.77 5.30311 2.36114 0
M  V30 13288 H 1278.54 2.86037 -0.894585 0
M  V30 13289 H 1276.1 1.4955 -0.620185 0
M  V30 13290 H 1278.09 3.77183 1.4668 0
M  V30 13291 H 1276.66 2.71298 1.55294 0
M  V30 13292 H 1275.88 3.89031 -0.636257 0
M  V30 13293 H 1277.17 5.0755 -0.356446 0
M  V30 13294 H 1276.57 4.90394 2.82011 0
M  V30 13295 H 1275.12 5.83209 2.9105 0
M  V30 13296 N 1278.56 0.518393 1.4883 0
M  V30 13297 C 1279.49 -0.287642 2.27388 0
M  V30 13298 C 1280.5 -0.914974 1.34655 0
M  V30 13299 O 1281.69 -0.795373 1.598 0
M  V30 13300 C 1278.79 -1.42149 3.07647 0
M  V30 13301 C 1277.96 -0.898238 4.28078 0
M  V30 13302 C 1277.02 -1.91179 4.90242 0
M  V30 13303 O 1276.05 -1.47337 5.498 0
M  V30 13304 N 1277.25 -3.24331 4.81445 0
M  V30 13305 H 1280.02 0.386047 2.97203 0
M  V30 13306 H 1277.58 0.352002 1.58027 0
M  V30 13307 H 1279.57 -2.09745 3.46106 0
M  V30 13308 H 1278.14 -1.99903 2.40328 0
M  V30 13309 H 1277.36 -0.0466326 3.94172 0
M  V30 13310 H 1278.65 -0.527338 5.0606 0
M  V30 13311 H 1278.04 -3.62627 4.34187 0
M  V30 13312 H 1276.6 -3.87593 5.24037 0
M  V30 13313 N 1280.03 -1.55556 0.252993 0
M  V30 13314 C 1280.98 -2.21634 -0.643979 0
M  V30 13315 C 1281.95 -1.18226 -1.1667 0
M  V30 13316 O 1283.14 -1.46694 -1.22006 0
M  V30 13317 C 1280.28 -2.92429 -1.83246 0
M  V30 13318 C 1279.39 -4.10506 -1.34569 0
M  V30 13319 C 1278.52 -4.69001 -2.49421 0
M  V30 13320 C 1277.56 -5.79315 -1.97636 0
M  V30 13321 N 1276.7 -6.31967 -3.05878 0
M  V30 13322 H 1281.54 -2.97909 -0.0738178 0
M  V30 13323 H 1279.08 -1.47079 -0.0246728 0
M  V30 13324 H 1281.04 -3.31678 -2.53072 0
M  V30 13325 H 1279.67 -2.18617 -2.375 0
M  V30 13326 H 1278.72 -3.76529 -0.541268 0
M  V30 13327 H 1280.03 -4.90125 -0.92622 0
M  V30 13328 H 1279.18 -5.10855 -3.27279 0
M  V30 13329 H 1277.92 -3.88612 -2.94673 0
M  V30 13330 H 1276.93 -5.36933 -1.18251 0
M  V30 13331 H 1278.15 -6.6156 -1.53347 0
M  V30 13332 H 1276.1 -5.5448 -3.50553 0
M  V30 13333 H 1276.02 -7.06797 -2.68281 0
M  V30 13334 H 1277.28 -6.7848 -3.83777 0
M  V30 13335 N 1281.51 0.0200419 -1.57587 0
M  V30 13336 C 1282.74 0.724241 -1.94344 0
M  V30 13337 C 1283.16 1.67612 -0.853688 0
M  V30 13338 O 1282.52 1.80303 0.189873 0
M  V30 13339 C 1282.57 1.44967 -3.30177 0
M  V30 13340 O 1281.67 2.56326 -3.23064 0
M  V30 13341 H 1281.01 0.194142 -0.634984 0
M  V30 13342 H 1283.54 -0.0271756 -2.04582 0
M  V30 13343 H 1283.55 1.81758 -3.65278 0
M  V30 13344 H 1282.23 0.75161 -4.09052 0
M  V30 13345 H 1280.81 2.22011 -2.99609 0
M  V30 13346 N 1282.99 1.54862 0.292472 0
M  V30 13347 C 1283.95 1.8565 1.34413 0
M  V30 13348 C 1284.95 0.729868 1.43281 0
M  V30 13349 O 1286.14 0.998128 1.42769 0
M  V30 13350 C 1283.28 2.0444 2.72795 0
M  V30 13351 H 1284.47 2.79642 1.08354 0
M  V30 13352 H 1282.02 1.47055 0.529574 0
M  V30 13353 H 1282.76 1.12765 3.04063 0
M  V30 13354 H 1282.54 2.86451 2.67747 0
M  V30 13355 H 1284.03 2.296 3.48817 0
M  V30 13356 N 1284.47 -0.556076 1.47464 0
M  V30 13357 C 1285.4 -1.67872 1.54578 0
M  V30 13358 C 1286.38 -1.57658 0.397853 0
M  V30 13359 O 1287.56 -1.785 0.605811 0
M  V30 13360 C 1284.69 -3.06122 1.44937 0
M  V30 13361 C 1283.74 -3.34778 2.64246 0
M  V30 13362 S 1284.57 -3.23909 4.26431 0
M  V30 13363 C 1285.73 -4.64651 4.19345 0
M  V30 13364 H 1285.96 -1.61583 2.49556 0
M  V30 13365 H 1283.49 -0.736985 1.35676 0
M  V30 13366 H 1285.45 -3.85866 1.40062 0
M  V30 13367 H 1284.11 -3.09876 0.513412 0
M  V30 13368 H 1283.3 -4.35569 2.53567 0
M  V30 13369 H 1282.91 -2.62655 2.66248 0
M  V30 13370 H 1285.2 -5.55625 3.87669 0
M  V30 13371 H 1286.14 -4.80386 5.20225 0
M  V30 13372 H 1286.55 -4.42751 3.50189 0
M  V30 13373 N 1285.95 -1.35615 -0.802897 0
M  V30 13374 C 1286.88 -1.24695 -1.92312 0
M  V30 13375 C 1287.89 -0.169409 -1.61916 0
M  V30 13376 O 1289.08 -0.422995 -1.73416 0
M  V30 13377 C 1286.18 -0.898229 -3.2678 0
M  V30 13378 C 1285.35 -2.07489 -3.85054 0
M  V30 13379 C 1284.41 -1.70137 -4.97936 0
M  V30 13380 O 1283.44 -2.42057 -5.15167 0
M  V30 13381 N 1284.64 -0.627153 -5.77102 0
M  V30 13382 H 1287.41 -2.21208 -2.02205 0
M  V30 13383 H 1284.97 -1.28832 -0.980503 0
M  V30 13384 H 1286.96 -0.629766 -3.9977 0
M  V30 13385 H 1285.53 -0.0226571 -3.12592 0
M  V30 13386 H 1284.75 -2.50694 -3.04214 0
M  V30 13387 H 1286.04 -2.86133 -4.2072 0
M  V30 13388 H 1285.44 -0.0296879 -5.65692 0
M  V30 13389 H 1283.99 -0.41848 -6.50455 0
M  V30 13390 N 1287.43 1.02549 -1.19673 0
M  V30 13391 C 1288.65 1.79623 -1.0268 0
M  V30 13392 C 1289.07 1.83969 0.424345 0
M  V30 13393 O 1288.43 1.28621 1.29472 0
M  V30 13394 C 1288.48 3.24514 -1.59289 0
M  V30 13395 O 1288.2 3.20462 -2.98723 0
M  V30 13396 C 1289.7 4.18173 -1.47126 0
M  V30 13397 H 1286.92 0.565167 -0.3617 0
M  V30 13398 H 1289.46 1.29143 -1.58564 0
M  V30 13399 H 1287.62 3.72173 -1.07546 0
M  V30 13400 H 1288.03 4.11341 -3.25421 0
M  V30 13401 H 1289.51 5.17714 -1.9151 0
M  V30 13402 H 1289.98 4.37165 -0.422315 0
M  V30 13403 H 1290.59 3.7639 -1.98017 0
M  V30 13404 N 1288.9 1.00119 1.21713 0
M  V30 13405 C 1289.83 0.578504 2.2622 0
M  V30 13406 C 1290.81 -0.398777 1.6536 0
M  V30 13407 O 1292 -0.287596 1.92059 0
M  V30 13408 C 1289.13 -0.0994508 3.47158 0
M  V30 13409 C 1288.08 0.79722 4.2051 0
M  V30 13410 C 1287.41 -0.0141125 5.34698 0
M  V30 13411 C 1288.71 2.09802 4.7831 0
M  V30 13412 H 1290.4 1.45208 2.6183 0
M  V30 13413 H 1287.95 0.699656 1.2586 0
M  V30 13414 H 1289.9 -0.406605 4.19434 0
M  V30 13415 H 1288.63 -1.00763 3.10667 0
M  V30 13416 H 1287.29 1.08814 3.50079 0
M  V30 13417 H 1286.93 -0.923468 4.9445 0
M  V30 13418 H 1286.63 0.582883 5.84702 0
M  V30 13419 H 1288.16 -0.31517 6.09786 0
M  V30 13420 H 1289.57 1.85427 5.42485 0
M  V30 13421 H 1287.97 2.64455 5.38687 0
M  V30 13422 H 1289.04 2.77132 3.97902 0
M  V30 13423 N 1290.38 -1.37203 0.775435 0
M  V30 13424 C 1291.33 -2.30228 0.162388 0
M  V30 13425 C 1292.3 -1.51284 -0.685747 0
M  V30 13426 O 1293.48 -1.7984 -0.637342 0
M  V30 13427 C 1290.62 -3.37762 -0.707858 0
M  V30 13428 C 1289.74 -4.31714 0.157287 0
M  V30 13429 C 1288.87 -5.26325 -0.718012 0
M  V30 13430 C 1287.91 -6.11918 0.149442 0
M  V30 13431 N 1287.05 -6.9876 -0.684043 0
M  V30 13432 H 1291.89 -2.82073 0.961184 0
M  V30 13433 H 1289.42 -1.38854 0.485587 0
M  V30 13434 H 1291.38 -3.98741 -1.22726 0
M  V30 13435 H 1290.01 -2.87273 -1.47222 0
M  V30 13436 H 1289.06 -3.7201 0.794533 0
M  V30 13437 H 1290.38 -4.91909 0.826262 0
M  V30 13438 H 1289.53 -5.92526 -1.30376 0
M  V30 13439 H 1288.27 -4.6655 -1.42066 0
M  V30 13440 H 1287.27 -5.44692 0.747697 0
M  V30 13441 H 1288.5 -6.73766 0.849476 0
M  V30 13442 H 1286.45 -6.41508 -1.37124 0
M  V30 13443 H 1286.36 -7.55965 -0.0724464 0
M  V30 13444 H 1287.63 -7.69346 -1.25407 0
M  V30 13445 N 1291.86 -0.526279 -1.48553 0
M  V30 13446 C 1293.11 0.00914839 -2.02098 0
M  V30 13447 C 1293.43 1.35119 -1.40598 0
M  V30 13448 O 1292.7 1.87422 -0.570065 0
M  V30 13449 H 1291.28 0.00636935 -0.746973 0
M  V30 13450 H 1293.94 -0.689269 -1.82305 0
M  V30 13451 H 1293.04 0.120212 -3.11868 0
M  V30 13452 N 1293.34 1.5542 -0.261239 0
M  V30 13453 C 1294.59 1.9846 0.360052 0
M  V30 13454 C 1294.9 1.15288 1.58013 0
M  V30 13455 O 1296.11 1.48408 2.27348 0
M  V30 13456 C 1294.56 3.53185 0.691964 0
M  V30 13457 C 1294.17 4.45116 -0.507521 0
M  V30 13458 C 1295.91 4.04848 1.27665 0
M  V30 13459 C 1293.82 5.91207 -0.150966 0
M  V30 13460 H 1292.75 0.741207 0.138303 0
M  V30 13461 H 1295.4 1.79859 -0.363712 0
M  V30 13462 H 1293.78 3.67535 1.47425 0
M  V30 13463 H 1294.96 4.42531 -1.28465 0
M  V30 13464 H 1293.27 4.04013 -1.0081 0
M  V30 13465 H 1295.87 5.11529 1.55699 0
M  V30 13466 H 1296.21 3.5305 2.20593 0
M  V30 13467 H 1296.75 3.93882 0.556955 0
M  V30 13468 H 1293.48 6.47072 -1.04776 0
M  V30 13469 H 1293 5.96894 0.589671 0
M  V30 13470 H 1294.68 6.4647 0.261772 0
M  V30 13471 N 1294.82 -0.0116844 1.57596 0
M  V30 13472 C 1296.06 -0.699994 1.90336 0
M  V30 13473 C 1296.39 -1.74067 0.861072 0
M  V30 13474 O 1295.67 -1.94119 -0.121712 0
M  V30 13475 C 1295.95 -1.35377 3.33684 0
M  V30 13476 C 1295.81 -0.325434 4.48621 0
M  V30 13477 C 1297.12 -2.28312 3.76247 0
M  V30 13478 H 1294.24 -0.253002 0.692213 0
M  V30 13479 H 1296.89 0.037211 1.89964 0
M  V30 13480 H 1295.04 -1.98212 3.34132 0
M  V30 13481 H 1296.71 0.302331 4.60308 0
M  V30 13482 H 1294.95 0.353527 4.32357 0
M  V30 13483 H 1295.62 -0.8217 5.4585 0
M  V30 13484 H 1298.1 -1.75505 3.77276 0
M  V30 13485 H 1296.97 -2.71028 4.77321 0
M  V30 13486 H 1297.23 -3.15727 3.09465 0
M  V30 13487 N 1296.29 -1.55015 -0.284256 0
M  V30 13488 C 1297.71 -1.46603 -0.630845 0
M  V30 13489 C 1297.91 -0.67091 -1.90003 0
M  V30 13490 O 1296.97 -0.185266 -2.51819 0
M  V30 13491 C 1298.28 -2.9072 -0.768268 0
M  V30 13492 C 1299.83 -3.00866 -0.863061 0
M  V30 13493 C 1300.3 -4.46214 -1.03235 0
M  V30 13494 N 1301.79 -4.49994 -1.09815 0
M  V30 13495 C 1302.53 -5.5966 -1.24773 0
M  V30 13496 N 1302.02 -6.79215 -1.36523 0
M  V30 13497 N 1303.82 -5.4738 -1.27795 0
M  V30 13498 H 1295.97 -2.05171 0.549409 0
M  V30 13499 H 1298.23 -0.929915 0.184288 0
M  V30 13500 H 1297.94 -3.51575 0.0936899 0
M  V30 13501 H 1297.81 -3.39096 -1.65209 0
M  V30 13502 H 1300.2 -2.40114 -1.71549 0
M  V30 13503 H 1300.28 -2.5576 0.0451267 0
M  V30 13504 H 1299.92 -5.07564 -0.18462 0
M  V30 13505 H 1299.85 -4.88965 -1.95502 0
M  V30 13506 H 1302.34 -3.63869 -1.0202 0
M  V30 13507 H 1302.66 -7.58547 -1.47739 0
M  V30 13508 H 1301 -6.82048 -1.33548 0
M  V30 13509 H 1304.19 -4.52921 -1.18238 0
M  V30 13510 H 1304.37 -6.32892 -1.39109 0
M  V30 13511 N 1297.77 0.548248 -1.47757 0
M  V30 13512 C 1299.02 1.30501 -1.54841 0
M  V30 13513 C 1299.35 1.93314 -0.214476 0
M  V30 13514 O 1298.6 1.7889 0.793526 0
M  V30 13515 C 1298.9 2.42911 -2.62162 0
M  V30 13516 C 1298.57 1.97871 -4.05164 0
M  V30 13517 C 1297.23 1.85304 -4.4409 0
M  V30 13518 C 1299.58 1.63606 -4.94856 0
M  V30 13519 C 1296.91 1.36781 -5.70533 0
M  V30 13520 C 1299.26 1.16552 -6.2177 0
M  V30 13521 C 1297.92 1.02588 -6.5957 0
M  V30 13522 H 1297.19 0.477536 -0.566604 0
M  V30 13523 H 1299.84 0.613837 -1.81395 0
M  V30 13524 H 1298.15 3.17622 -2.29398 0
M  V30 13525 H 1299.84 3.01078 -2.64864 0
M  V30 13526 H 1296.43 2.08597 -3.74413 0
M  V30 13527 H 1300.62 1.72184 -4.65474 0
M  V30 13528 H 1295.87 1.24641 -5.9856 0
M  V30 13529 H 1300.05 0.891041 -6.90676 0
M  V30 13530 H 1297.67 0.647675 -7.57436 0
M  V30 13531 N 1299.25 1.36039 0.795694 0
M  V30 13532 C 1300.18 1.32528 1.92246 0
M  V30 13533 C 1301.16 0.197805 1.68946 0
M  V30 13534 O 1302.35 0.394474 1.90151 0
M  V30 13535 C 1299.48 1.10748 3.29169 0
M  V30 13536 C 1298.43 2.20253 3.66978 0
M  V30 13537 C 1297.76 1.83624 5.02181 0
M  V30 13538 C 1299.06 3.62296 3.76216 0
M  V30 13539 H 1300.75 2.2681 1.95442 0
M  V30 13540 H 1298.3 1.09181 0.938908 0
M  V30 13541 H 1300.25 1.06929 4.07608 0
M  V30 13542 H 1298.97 0.129141 3.26345 0
M  V30 13543 H 1297.63 2.23187 2.90832 0
M  V30 13544 H 1297.28 0.843804 4.95872 0
M  V30 13545 H 1296.98 2.56935 5.28449 0
M  V30 13546 H 1298.5 1.81349 5.83048 0
M  V30 13547 H 1299.92 3.61623 4.44861 0
M  V30 13548 H 1298.31 4.34459 4.13963 0
M  V30 13549 H 1299.38 3.97657 2.77483 0
M  V30 13550 N 1300.73 -1.01913 1.20215 0
M  V30 13551 C 1301.95 -1.79613 1.03702 0
M  V30 13552 C 1302.38 -1.83591 -0.409374 0
M  V30 13553 O 1301.74 -1.26911 -1.29473 0
M  V30 13554 C 1301.78 -3.22052 1.62219 0
M  V30 13555 O 1300.89 -4.03374 0.858106 0
M  V30 13556 H 1300.23 -0.554095 0.365889 0
M  V30 13557 H 1302.76 -1.28203 1.59452 0
M  V30 13558 H 1302.77 -3.72772 1.65847 0
M  V30 13559 H 1301.44 -3.18471 2.67487 0
M  V30 13560 H 1300.02 -3.6198 0.895835 0
M  V30 13561 N 1302.21 -1.00763 -1.2118 0
M  V30 13562 C 1303.15 -0.570257 -2.23644 0
M  V30 13563 C 1304.12 0.405039 -1.61086 0
M  V30 13564 O 1305.31 0.306496 -1.88322 0
M  V30 13565 C 1302.45 0.094325 -3.44971 0
M  V30 13566 C 1301.56 -0.924463 -4.21993 0
M  V30 13567 C 1300.7 -0.231869 -5.30694 0
M  V30 13568 C 1299.74 -1.23803 -5.99449 0
M  V30 13569 N 1298.87 -0.572725 -6.9976 0
M  V30 13570 H 1303.71 -1.44869 -2.60417 0
M  V30 13571 H 1301.25 -0.725369 -1.27972 0
M  V30 13572 H 1303.21 0.496689 -4.14233 0
M  V30 13573 H 1301.84 0.936457 -3.08918 0
M  V30 13574 H 1300.89 -1.44505 -3.51884 0
M  V30 13575 H 1302.2 -1.69004 -4.69296 0
M  V30 13576 H 1301.36 0.226465 -6.06277 0
M  V30 13577 H 1300.09 0.566092 -4.84403 0
M  V30 13578 H 1299.1 -1.70684 -5.22635 0
M  V30 13579 H 1300.32 -2.03711 -6.47826 0
M  V30 13580 H 1298.27 0.205531 -6.55678 0
M  V30 13581 H 1298.19 -1.27651 -7.45145 0
M  V30 13582 H 1299.46 -0.137683 -7.79378 0
M  V30 13583 N 1303.68 1.3679 -0.7827 0
M  V30 13584 C 1304.91 2.03678 -0.363734 0
M  V30 13585 C 1305.33 1.59024 1.01768 0
M  V30 13586 O 1304.68 0.776541 1.65155 0
M  V30 13587 C 1304.74 3.59165 -0.410213 0
M  V30 13588 O 1304.46 4.02188 -1.73714 0
M  V30 13589 C 1305.96 4.43296 0.018972 0
M  V30 13590 H 1303.18 0.653828 -0.150829 0
M  V30 13591 H 1305.72 1.74903 -1.05968 0
M  V30 13592 H 1303.88 3.86673 0.237249 0
M  V30 13593 H 1304.29 4.96754 -1.68332 0
M  V30 13594 H 1305.76 5.51962 -0.0646943 0
M  V30 13595 H 1306.24 4.25948 1.07076 0
M  V30 13596 H 1306.85 4.21036 -0.600721 0
M  V30 13597 N 1305.16 0.53415 1.48272 0
M  V30 13598 C 1306.44 -0.0630181 1.95498 0
M  V30 13599 C 1306.82 -1.50877 1.47646 0
M  V30 13600 O 1306.17 -2.17358 0.704829 0
M  V30 13601 C 1306.38 0.0585475 3.48951 0
M  V30 13602 C 1307.73 -0.0985978 4.24486 0
M  V30 13603 O 1308.75 -0.0150438 3.56197 0
M  V30 13604 O 1307.61 -0.274356 5.45811 0
M  V30 13605 H 1304.7 -0.0769841 0.823409 0
M  V30 13606 H 1307.25 0.599043 1.58775 0
M  V30 13607 H 1306.02 1.06549 3.76514 0
M  V30 13608 H 1305.64 -0.642175 3.9238 0
M  V30 13609 N 1306.64 -1.55279 0.269478 0
M  V30 13610 C 1307.59 -2.22304 -0.620435 0
M  V30 13611 C 1308.56 -1.19457 -1.15409 0
M  V30 13612 O 1309.74 -1.4798 -1.20443 0
M  V30 13613 C 1306.88 -2.94356 -1.80134 0
M  V30 13614 C 1306 -4.1191 -1.30207 0
M  V30 13615 C 1305.13 -4.71621 -2.44433 0
M  V30 13616 C 1304.17 -5.81379 -1.91481 0
M  V30 13617 N 1303.31 -6.35176 -2.99158 0
M  V30 13618 H 1308.15 -2.9797 -0.0422165 0
M  V30 13619 H 1305.68 -1.47097 -0.00907173 0
M  V30 13620 H 1307.64 -3.34343 -2.4954 0
M  V30 13621 H 1306.27 -2.21124 -2.35168 0
M  V30 13622 H 1305.32 -3.77082 -0.501301 0
M  V30 13623 H 1306.64 -4.9108 -0.874183 0
M  V30 13624 H 1305.79 -5.14298 -3.21842 0
M  V30 13625 H 1304.53 -3.91715 -2.90535 0
M  V30 13626 H 1303.53 -5.38157 -1.12549 0
M  V30 13627 H 1304.76 -6.63149 -1.46322 0
M  V30 13628 H 1302.7 -5.58167 -3.44652 0
M  V30 13629 H 1302.62 -7.09602 -2.60769 0
M  V30 13630 H 1303.89 -6.82512 -3.7656 0
M  V30 13631 N 1308.12 0.00332656 -1.576 0
M  V30 13632 C 1309.53 0.359361 -1.55502 0
M  V30 13633 C 1309.73 1.74997 -0.998914 0
M  V30 13634 O 1308.79 2.44482 -0.631263 0
M  V30 13635 C 1310.1 0.237638 -2.9976 0
M  V30 13636 C 1311.65 0.312824 -3.11433 0
M  V30 13637 C 1312.13 0.220262 -4.5747 0
M  V30 13638 N 1313.62 0.278265 -4.62363 0
M  V30 13639 C 1314.35 0.229933 -5.72939 0
M  V30 13640 N 1313.85 0.132391 -6.92673 0
M  V30 13641 N 1315.64 0.281555 -5.61394 0
M  V30 13642 H 1307.79 -0.906404 -1.92089 0
M  V30 13643 H 1310.06 -0.347129 -0.88216 0
M  V30 13644 H 1309.76 -0.719007 -3.44272 0
M  V30 13645 H 1309.64 1.02105 -3.63118 0
M  V30 13646 H 1312.02 1.25991 -2.66852 0
M  V30 13647 H 1312.1 -0.500395 -2.50858 0
M  V30 13648 H 1311.75 -0.723267 -5.02724 0
M  V30 13649 H 1311.68 1.05192 -5.15987 0
M  V30 13650 H 1314.17 0.35512 -3.76228 0
M  V30 13651 H 1314.48 0.101317 -7.72734 0
M  V30 13652 H 1312.83 0.0980665 -6.94931 0
M  V30 13653 H 1316.02 0.355931 -4.66745 0
M  V30 13654 H 1316.19 0.240423 -6.47554 0
M  V30 13655 N 1309.6 1.55164 0.276031 0
M  V30 13656 C 1310.53 1.90844 1.34539 0
M  V30 13657 C 1311.51 0.769968 1.51676 0
M  V30 13658 O 1312.69 1.02785 1.64769 0
M  V30 13659 C 1309.82 2.17769 2.70543 0
M  V30 13660 C 1308.78 3.33592 2.68142 0
M  V30 13661 C 1308.1 3.45991 4.07669 0
M  V30 13662 C 1309.4 4.70064 2.27678 0
M  V30 13663 H 1311.1 2.80412 1.04926 0
M  V30 13664 H 1308.64 1.34918 0.503303 0
M  V30 13665 H 1310.6 2.41317 3.45462 0
M  V30 13666 H 1309.32 1.24997 3.01734 0
M  V30 13667 H 1307.98 3.10007 1.95681 0
M  V30 13668 H 1307.63 2.50691 4.36077 0
M  V30 13669 H 1307.33 4.23862 4.06958 0
M  V30 13670 H 1308.85 3.71828 4.84331 0
M  V30 13671 H 1310.26 4.93176 2.92319 0
M  V30 13672 H 1308.66 5.50829 2.38134 0
M  V30 13673 H 1309.73 4.69091 1.22808 0
M  V30 13674 N 1311.07 -0.540404 1.48045 0
M  V30 13675 C 1312 -1.65538 1.6468 0
M  V30 13676 C 1312.99 -1.62713 0.495847 0
M  V30 13677 O 1314.17 -1.80072 0.727172 0
M  V30 13678 C 1311.3 -3.0415 1.67661 0
M  V30 13679 C 1310.25 -3.2183 2.82152 0
M  V30 13680 C 1309.58 -4.61397 2.70216 0
M  V30 13681 C 1310.88 -3.05596 4.23567 0
M  V30 13682 H 1312.57 -1.51873 2.58021 0
M  V30 13683 H 1310.12 -0.729208 1.24171 0
M  V30 13684 H 1312.07 -3.82013 1.77887 0
M  V30 13685 H 1310.8 -3.18814 0.708907 0
M  V30 13686 H 1309.46 -2.4638 2.71463 0
M  V30 13687 H 1309.1 -4.72883 1.71437 0
M  V30 13688 H 1308.8 -4.74174 3.47035 0
M  V30 13689 H 1310.33 -5.41374 2.82395 0
M  V30 13690 H 1311.74 -3.73261 4.35143 0
M  V30 13691 H 1310.14 -3.29871 5.01303 0
M  V30 13692 H 1311.21 -2.0214 4.40758 0
M  V30 13693 N 1312.55 -1.36459 -0.788468 0
M  V30 13694 C 1313.78 -1.33703 -1.57502 0
M  V30 13695 C 1314.19 0.0834961 -1.89016 0
M  V30 13696 O 1313.53 1.05107 -1.50659 0
M  V30 13697 C 1313.6 -2.09424 -2.92201 0
M  V30 13698 C 1313.26 -3.58507 -2.83411 0
M  V30 13699 C 1314.26 -4.52736 -2.5559 0
M  V30 13700 C 1311.94 -4.01405 -3.01959 0
M  V30 13701 C 1313.94 -5.87841 -2.46419 0
M  V30 13702 C 1311.62 -5.366 -2.92409 0
M  V30 13703 C 1312.62 -6.29631 -2.64677 0
M  V30 13704 O 1312.31 -7.62343 -2.55124 0
M  V30 13705 H 1312.04 -0.460221 -0.495149 0
M  V30 13706 H 1314.59 -1.80163 -0.986437 0
M  V30 13707 H 1312.82 -1.5763 -3.53114 0
M  V30 13708 H 1314.51 -1.99515 -3.53481 0
M  V30 13709 H 1315.28 -4.20906 -2.40962 0
M  V30 13710 H 1311.16 -3.29367 -3.2255 0
M  V30 13711 H 1314.7 -6.60423 -2.24694 0
M  V30 13712 H 1310.6 -5.68038 -3.066 0
M  V30 13713 H 1311.37 -7.72476 -2.70598 0
M  V30 13714 N 1314.03 1.01274 -1.20754 0
M  V30 13715 C 1315.27 1.7647 -1.03139 0
M  V30 13716 C 1315.63 1.87157 0.428531 0
M  V30 13717 O 1316.84 2.58839 0.724973 0
M  V30 13718 C 1315.11 3.14346 -1.70063 0
M  V30 13719 S 1316.67 4.05531 -1.67602 0
M  V30 13720 H 1313.48 0.60729 -0.369756 0
M  V30 13721 H 1316.09 1.21232 -1.53372 0
M  V30 13722 H 1314.79 3.04197 -2.75486 0
M  V30 13723 H 1314.32 3.74659 -1.19977 0
M  V30 13724 H 1316.34 4.91071 -0.711623 0
M  V30 13725 N 1315.51 1.01404 1.20644 0
M  V30 13726 C 1316.76 0.697244 1.89265 0
M  V30 13727 C 1317.07 -0.776149 1.79542 0
M  V30 13728 O 1318.28 -1.2054 2.43274 0
M  V30 13729 C 1316.73 1.19672 3.39421 0
M  V30 13730 C 1316.34 2.69683 3.57736 0
M  V30 13731 C 1318.09 0.955225 4.13613 0
M  V30 13732 C 1315.99 3.13124 5.01704 0
M  V30 13733 H 1314.92 0.257105 0.708811 0
M  V30 13734 H 1317.57 1.22639 1.36499 0
M  V30 13735 H 1315.96 0.595562 3.91496 0
M  V30 13736 H 1317.13 3.35326 3.16059 0
M  V30 13737 H 1315.44 2.91946 2.96911 0
M  V30 13738 H 1318.04 1.25524 5.19757 0
M  V30 13739 H 1318.38 -0.108362 4.16159 0
M  V30 13740 H 1318.92 1.51962 3.67631 0
M  V30 13741 H 1315.66 4.18748 5.04311 0
M  V30 13742 H 1315.18 2.522 5.44201 0
M  V30 13743 H 1316.86 3.05617 5.70269 0
M  V30 13744 N 1316.99 -1.36373 0.789944 0
M  V30 13745 C 1317.93 -2.30043 0.186798 0
M  V30 13746 C 1318.9 -1.52002 -0.669663 0
M  V30 13747 O 1320.09 -1.80506 -0.618232 0
M  V30 13748 C 1317.23 -3.38494 -0.671994 0
M  V30 13749 C 1316.34 -4.31522 0.203067 0
M  V30 13750 C 1315.48 -5.27057 -0.662148 0
M  V30 13751 C 1314.52 -6.11725 0.214335 0
M  V30 13752 N 1313.65 -6.99446 -0.609892 0
M  V30 13753 H 1318.49 -2.81038 0.991048 0
M  V30 13754 H 1316.03 -1.38331 0.500288 0
M  V30 13755 H 1317.99 -4.0002 -1.1849 0
M  V30 13756 H 1316.62 -2.88818 -1.44167 0
M  V30 13757 H 1315.67 -3.71146 0.833945 0
M  V30 13758 H 1316.98 -4.91005 0.878389 0
M  V30 13759 H 1316.14 -5.93875 -1.24084 0
M  V30 13760 H 1314.88 -4.6803 -1.37109 0
M  V30 13761 H 1313.88 -5.43868 0.805426 0
M  V30 13762 H 1315.11 -6.72827 0.92089 0
M  V30 13763 H 1313.05 -6.42927 -1.30312 0
M  V30 13764 H 1312.97 -7.56 0.00773786 0
M  V30 13765 H 1314.24 -7.70633 -1.1724 0
M  V30 13766 N 1318.47 -0.542005 -1.47987 0
M  V30 13767 C 1319.43 0.203537 -2.28294 0
M  V30 13768 C 1320.43 0.856762 -1.36074 0
M  V30 13769 O 1321.62 0.71496 -1.58852 0
M  V30 13770 C 1318.75 1.29581 -3.15312 0
M  V30 13771 H 1319.94 -0.501701 -2.95674 0
M  V30 13772 H 1317.5 -0.298378 -1.53426 0
M  V30 13773 H 1318.23 2.03393 -2.5259 0
M  V30 13774 H 1318.02 0.832398 -3.83163 0
M  V30 13775 H 1319.51 1.81988 -3.75859 0
M  V30 13776 N 1319.94 1.55134 -0.277709 0
M  V30 13777 C 1321.22 1.91667 0.390253 0
M  V30 13778 C 1321.6 1.20228 1.73518 0
M  V30 13779 O 1320.95 0.330013 2.26104 0
M  V30 13780 C 1321.16 3.44983 0.52797 0
M  V30 13781 C 1322.51 4.16809 0.809665 0
M  V30 13782 O 1323.53 3.50891 0.612679 0
M  V30 13783 O 1322.39 5.33463 1.18656 0
M  V30 13784 H 1319.48 0.798807 0.214095 0
M  V30 13785 H 1322.03 1.66577 -0.324053 0
M  V30 13786 H 1320.8 3.89056 -0.418422 0
M  V30 13787 H 1320.42 3.76035 1.29164 0
M  V30 13788 N 1321.42 0.00503138 1.57599 0
M  V30 13789 C 1322.83 -0.537106 1.78807 0
M  V30 13790 C 1323.18 -1.73666 0.912945 0
M  V30 13791 O 1322.31 -2.16085 0.116775 0
M  V30 13792 C 1322.9 -0.98116 3.24282 0
M  V30 13793 C 1321.46 -1.46857 3.46569 0
M  V30 13794 C 1320.61 -0.422088 2.74069 0
M  V30 13795 H 1323.56 0.231182 1.57007 0
M  V30 13796 H 1323.58 -1.8469 3.32671 0
M  V30 13797 H 1323.09 -0.107907 3.8795 0
M  V30 13798 H 1321.19 -2.36255 2.88122 0
M  V30 13799 H 1321.31 -1.49256 4.55258 0
M  V30 13800 H 1319.67 -0.884853 2.38836 0
M  V30 13801 H 1320.45 0.442285 3.40439 0
M  V30 13802 N 1322.9 -1.55308 -0.267798 0
M  V30 13803 C 1323.85 -1.84933 -1.33356 0
M  V30 13804 C 1324.83 -0.708605 -1.44456 0
M  V30 13805 O 1326.03 -0.970069 -1.4805 0
M  V30 13806 C 1323.15 -2.12927 -2.69289 0
M  V30 13807 C 1322.24 -3.33273 -2.62279 0
M  V30 13808 N 1322.63 -4.53055 -2.24889 0
M  V30 13809 C 1320.93 -3.35966 -2.93331 0
M  V30 13810 C 1321.63 -5.35156 -2.27998 0
M  V30 13811 N 1320.61 -4.73692 -2.66677 0
M  V30 13812 H 1324.41 -2.75086 -1.03465 0
M  V30 13813 H 1321.92 -1.55254 -0.476435 0
M  V30 13814 H 1323.92 -2.32309 -3.46177 0
M  V30 13815 H 1322.58 -1.24061 -3.00065 0
M  V30 13816 H 1323.59 -4.79059 -1.9678 0
M  V30 13817 H 1320.27 -2.57308 -3.28784 0
M  V30 13818 H 1321.66 -6.4094 -2.01608 0
M  V30 13819 N 1324.38 0.532545 -1.4833 0
M  V30 13820 C 1325.62 1.29902 -1.57812 0
M  V30 13821 C 1325.98 1.90427 -0.245283 0
M  V30 13822 O 1327.18 2.67938 -0.215083 0
M  V30 13823 C 1325.45 2.36119 -2.68296 0
M  V30 13824 S 1327.01 3.22526 -2.97527 0
M  V30 13825 H 1323.83 0.441908 -0.55699 0
M  V30 13826 H 1326.43 0.606983 -1.85839 0
M  V30 13827 H 1325.14 1.90131 -3.63701 0
M  V30 13828 H 1324.67 3.10033 -2.42163 0
M  V30 13829 H 1326.68 4.36144 -2.36628 0
M  V30 13830 N 1325.86 1.36875 0.78122 0
M  V30 13831 C 1326.79 1.34559 1.9083 0
M  V30 13832 C 1327.77 0.215713 1.68727 0
M  V30 13833 O 1328.95 0.41462 1.89722 0
M  V30 13834 C 1326.08 1.14233 3.27976 0
M  V30 13835 C 1325.04 2.24132 3.64621 0
M  V30 13836 C 1324.36 1.8894 5.00206 0
M  V30 13837 C 1325.66 3.66266 3.72353 0
M  V30 13838 H 1327.36 2.28871 1.93025 0
M  V30 13839 H 1324.9 1.10171 0.927275 0
M  V30 13840 H 1326.85 1.11246 4.06451 0
M  V30 13841 H 1325.58 0.163747 3.26189 0
M  V30 13842 H 1324.24 2.26259 2.88448 0
M  V30 13843 H 1323.89 0.896351 4.94949 0
M  V30 13844 H 1323.59 2.62525 5.25694 0
M  V30 13845 H 1325.11 1.87523 5.81092 0
M  V30 13846 H 1326.52 3.66321 4.41001 0
M  V30 13847 H 1324.92 4.38825 4.09332 0
M  V30 13848 H 1325.99 4.00578 2.7325 0
M  V30 13849 N 1327.33 -1.00632 1.21289 0
M  V30 13850 C 1328.28 -2.11502 0.96798 0
M  V30 13851 C 1329.28 -1.6919 -0.0843024 0
M  V30 13852 O 1330.48 -1.79875 0.06697 0
M  V30 13853 H 1326.86 -0.691398 0.295759 0
M  V30 13854 H 1328.83 -2.29337 1.90911 0
M  V30 13855 C 1327.58 -3.43357 0.547818 0
M  V30 13856 H 1326.9 -3.76348 1.34915 0
M  V30 13857 H 1328.34 -4.21957 0.415759 0
M  V30 13858 C 1326.8 -3.28648 -0.741086 0
M  V30 13859 O 1327.33 -3.59267 -1.79695 0
M  V30 13860 N 1325.53 -2.81866 -0.707084 0
M  V30 13861 H 1325.08 -2.57149 0.152447 0
M  V30 13862 H 1325.04 -2.72406 -1.56979 0
M  V30 13863 N 1328.81 -1.02043 -1.20104 0
M  V30 13864 C 1330.06 -0.711973 -1.89571 0
M  V30 13865 C 1330.39 0.758725 -1.79091 0
M  V30 13866 O 1329.64 1.56728 -1.17195 0
M  V30 13867 C 1329.94 -1.098 -3.40116 0
M  V30 13868 C 1329.61 -2.56555 -3.70797 0
M  V30 13869 C 1328.27 -2.96653 -3.78881 0
M  V30 13870 C 1330.62 -3.51543 -3.84795 0
M  V30 13871 C 1327.95 -4.30669 -3.98424 0
M  V30 13872 C 1330.3 -4.85252 -4.05849 0
M  V30 13873 C 1328.96 -5.2505 -4.12163 0
M  V30 13874 H 1328.23 -0.260529 -0.69369 0
M  V30 13875 H 1330.88 -1.28172 -1.42282 0
M  V30 13876 H 1329.19 -0.446738 -3.89245 0
M  V30 13877 H 1330.88 -0.836985 -3.92168 0
M  V30 13878 H 1327.47 -2.24488 -3.65107 0
M  V30 13879 H 1331.66 -3.21721 -3.77901 0
M  V30 13880 H 1326.91 -4.61052 -4.01548 0
M  V30 13881 H 1331.09 -5.58777 -4.15622 0
M  V30 13882 H 1328.71 -6.28908 -4.27059 0
M  V30 13883 N 1330.29 1.35952 -0.797165 0
M  V30 13884 C 1331.22 2.32506 -0.215277 0
M  V30 13885 C 1332.2 1.57023 0.654046 0
M  V30 13886 O 1333.39 1.85139 0.586268 0
M  V30 13887 C 1330.52 3.41266 0.644557 0
M  V30 13888 C 1329.47 4.27816 -0.125501 0
M  V30 13889 C 1328.8 5.27813 0.855428 0
M  V30 13890 C 1330.1 5.05367 -1.31913 0
M  V30 13891 H 1331.79 2.8142 -1.02193 0
M  V30 13892 H 1329.34 1.35303 -0.492862 0
M  V30 13893 H 1331.29 4.07808 1.06163 0
M  V30 13894 H 1330.01 2.90938 1.484 0
M  V30 13895 H 1328.67 3.62841 -0.523639 0
M  V30 13896 H 1328.32 4.73755 1.69011 0
M  V30 13897 H 1328.02 5.86589 0.344566 0
M  V30 13898 H 1329.54 5.97227 1.2709 0
M  V30 13899 H 1330.96 5.64907 -0.977418 0
M  V30 13900 H 1329.36 5.73593 -1.76382 0
M  V30 13901 H 1330.43 4.36558 -2.11057 0
M  V30 13902 N 1331.77 0.549846 1.47697 0
M  V30 13903 C 1333.01 0.0253105 2.04384 0
M  V30 13904 C 1333.37 -1.29692 1.41576 0
M  V30 13905 O 1334.57 -1.9087 1.89267 0
M  V30 13906 C 1332.84 -0.0736795 3.57324 0
M  V30 13907 S 1334.4 -0.545405 4.35397 0
M  V30 13908 H 1331.22 0.0215991 0.710672 0
M  V30 13909 H 1333.82 0.734912 1.81161 0
M  V30 13910 H 1332.53 0.893144 4.00563 0
M  V30 13911 H 1332.06 -0.80706 3.85033 0
M  V30 13912 H 1334.07 -1.80644 4.6215 0
M  V30 13913 N 1333.25 -1.54984 0.285932 0
M  V30 13914 C 1334.19 -2.24385 -0.612703 0
M  V30 13915 C 1335.19 -1.24459 -1.14918 0
M  V30 13916 O 1336.39 -1.42357 -1.10156 0
M  V30 13917 H 1332.77 -0.720263 -0.21616 0
M  V30 13918 H 1334.74 -2.984 -0.00465668 0
M  V30 13919 C 1333.49 -2.98661 -1.78037 0
M  V30 13920 H 1332.81 -3.75347 -1.37676 0
M  V30 13921 H 1334.25 -3.50525 -2.38554 0
M  V30 13922 C 1332.71 -2.04754 -2.67539 0
M  V30 13923 O 1333.24 -1.60577 -3.68209 0
M  V30 13924 N 1331.45 -1.71026 -2.34944 0
M  V30 13925 H 1330.99 -2.07148 -1.53126 0
M  V30 13926 H 1330.95 -1.08467 -2.95097 0
M  V30 13927 N 1334.72 -0.0133892 -1.57594 0
M  V30 13928 C 1335.97 0.668634 -1.91143 0
M  V30 13929 C 1336.3 1.7303 -0.888299 0
M  V30 13930 O 1335.55 1.95418 0.105056 0
M  V30 13931 C 1335.85 1.33729 -3.31438 0
M  V30 13932 C 1335.52 0.407527 -4.49055 0
M  V30 13933 C 1334.18 0.151573 -4.80961 0
M  V30 13934 C 1336.53 -0.231835 -5.20684 0
M  V30 13935 C 1333.86 -0.751812 -5.81863 0
M  V30 13936 C 1336.21 -1.12318 -6.22549 0
M  V30 13937 C 1334.88 -1.38818 -6.52906 0
M  V30 13938 H 1334.15 0.24467 -0.699441 0
M  V30 13939 H 1336.79 -0.0717876 -1.91365 0
M  V30 13940 H 1335.1 2.15209 -3.27403 0
M  V30 13941 H 1336.8 1.87128 -3.5466 0
M  V30 13942 H 1333.39 0.617192 -4.24133 0
M  V30 13943 H 1337.57 -0.0471268 -4.96278 0
M  V30 13944 H 1332.83 -0.964991 -6.03737 0
M  V30 13945 H 1337 -1.62488 -6.77179 0
M  V30 13946 H 1334.63 -2.08986 -7.3091 0
M  V30 13947 N 1336.2 1.55448 0.259558 0
M  V30 13948 C 1337.45 1.76337 0.987396 0
M  V30 13949 C 1337.77 0.57505 1.86328 0
M  V30 13950 O 1337.04 -0.409621 1.9157 0
M  V30 13951 H 1335.62 0.650312 0.367565 0
M  V30 13952 H 1338.28 1.9287 0.280551 0
M  V30 13953 H 1337.38 2.66975 1.61651 0
M  V30 13954 N 1337.68 -0.524672 1.4861 0
M  V30 13955 C 1338.63 -1.62872 1.63527 0
M  V30 13956 C 1339.6 -1.59097 0.477202 0
M  V30 13957 O 1340.78 -1.77443 0.701341 0
M  V30 13958 C 1337.92 -3.01116 1.68592 0
M  V30 13959 C 1337.04 -3.15085 2.95542 0
M  V30 13960 C 1336.17 -4.4392 2.91734 0
M  V30 13961 C 1335.21 -4.51436 4.13366 0
M  V30 13962 N 1334.35 -5.71667 4.07605 0
M  V30 13963 H 1339.19 -1.49462 2.57808 0
M  V30 13964 H 1336.72 -0.727578 1.27846 0
M  V30 13965 H 1338.68 -3.81212 1.6951 0
M  V30 13966 H 1337.31 -3.13285 0.777975 0
M  V30 13967 H 1336.36 -2.28207 3.04345 0
M  V30 13968 H 1337.68 -3.165 3.85524 0
M  V30 13969 H 1336.83 -5.32312 2.91083 0
M  V30 13970 H 1335.57 -4.45034 1.9949 0
M  V30 13971 H 1334.57 -3.6145 4.14287 0
M  V30 13972 H 1335.8 -4.52057 5.06776 0
M  V30 13973 H 1333.74 -5.73668 3.18184 0
M  V30 13974 H 1333.66 -5.74599 4.91297 0
M  V30 13975 H 1334.93 -6.62331 4.1102 0
M  V30 13976 N 1339.16 -1.37287 -0.77395 0
M  V30 13977 C 1340.09 -1.27239 -1.89435 0
M  V30 13978 C 1341.07 -0.153365 -1.61875 0
M  V30 13979 O 1342.25 -0.327193 -1.85639 0
M  V30 13980 C 1339.38 -0.966771 -3.24609 0
M  V30 13981 C 1338.43 -2.10237 -3.71083 0
M  V30 13982 S 1339.26 -3.72188 -3.85014 0
M  V30 13983 C 1340.42 -3.43773 -5.2304 0
M  V30 13984 H 1340.65 -2.22068 -1.97669 0
M  V30 13985 H 1338.18 -1.22884 -0.93482 0
M  V30 13986 H 1340.14 -0.797268 -4.02683 0
M  V30 13987 H 1338.8 -0.0359985 -3.14079 0
M  V30 13988 H 1337.99 -1.84349 -4.69075 0
M  V30 13989 H 1337.6 -2.23189 -3.00104 0
M  V30 13990 H 1339.89 -2.98625 -6.08136 0
M  V30 13991 H 1340.83 -4.41085 -5.5394 0
M  V30 13992 H 1341.24 -2.78753 -4.90873 0
M  V30 13993 N 1340.64 0.999871 -1.21821 0
M  V30 13994 C 1341.55 2.12303 -0.99823 0
M  V30 13995 C 1342.56 1.73924 0.0512923 0
M  V30 13996 O 1343.74 2.00914 -0.139895 0
M  V30 13997 C 1340.8 3.41962 -0.571232 0
M  V30 13998 C 1339.86 3.94483 -1.69356 0
M  V30 13999 C 1339.1 5.17954 -1.28685 0
M  V30 14000 O 1339.32 5.70168 -0.162641 0
M  V30 14001 O 1338.25 5.64051 -2.10071 0
M  V30 14002 H 1342.08 2.3374 -1.93905 0
M  V30 14003 H 1339.67 1.10677 -1.00354 0
M  V30 14004 H 1341.55 4.20001 -0.343134 0
M  V30 14005 H 1340.22 3.21901 0.340814 0
M  V30 14006 H 1339.13 3.17648 -1.97612 0
M  V30 14007 H 1340.46 4.18964 -2.58322 0
M  V30 14008 N 1342.11 1.02678 1.19562 0
M  V30 14009 C 1343.34 0.741424 1.93695 0
M  V30 14010 C 1343.76 -0.693203 1.74861 0
M  V30 14011 O 1343.12 -1.47833 1.04953 0
M  V30 14012 C 1343.17 1.09514 3.43568 0
M  V30 14013 O 1342.27 0.212596 4.11852 0
M  V30 14014 H 1341.62 0.274128 0.604773 0
M  V30 14015 H 1344.15 1.37289 1.517 0
M  V30 14016 H 1344.16 1.05115 3.94227 0
M  V30 14017 H 1342.83 2.14034 3.56598 0
M  V30 14018 H 1341.41 0.315 3.71567 0
M  V30 14019 N 1343.59 -1.35528 0.804364 0
M  V30 14020 C 1344.84 -1.98439 0.382934 0
M  V30 14021 C 1345.16 -1.64132 -1.05289 0
M  V30 14022 O 1344.43 -0.922693 -1.7281 0
M  V30 14023 H 1343.01 -0.734028 0.138605 0
M  V30 14024 H 1345.67 -1.65478 1.02971 0
M  V30 14025 H 1344.77 -3.08279 0.486846 0
M  V30 14026 N 1345.07 -0.557671 -1.47404 0
M  V30 14027 C 1346.02 0.189765 -2.30019 0
M  V30 14028 C 1346.99 0.907923 -1.3909 0
M  V30 14029 O 1348.17 0.903528 -1.68051 0
M  V30 14030 C 1345.31 1.21348 -3.23061 0
M  V30 14031 C 1344.43 0.501343 -4.29081 0
M  V30 14032 C 1343.56 1.51039 -5.09275 0
M  V30 14033 C 1342.6 0.783254 -6.07068 0
M  V30 14034 N 1341.74 1.73916 -6.80219 0
M  V30 14035 H 1346.58 -0.520856 -2.93413 0
M  V30 14036 H 1344.11 -0.268686 -1.44625 0
M  V30 14037 H 1346.07 1.81961 -3.75428 0
M  V30 14038 H 1344.7 1.89213 -2.61531 0
M  V30 14039 H 1343.75 -0.219317 -3.79767 0
M  V30 14040 H 1345.07 -0.0682656 -4.98753 0
M  V30 14041 H 1344.22 2.19004 -5.65793 0
M  V30 14042 H 1342.96 2.11392 -4.39505 0
M  V30 14043 H 1341.96 0.0896883 -5.49727 0
M  V30 14044 H 1343.19 0.185464 -6.78847 0
M  V30 14045 H 1341.14 2.33125 -6.13179 0
M  V30 14046 H 1341.05 1.22171 -7.46063 0
M  V30 14047 H 1342.32 2.40993 -7.41311 0
M  V30 14048 N 1346.55 1.54831 -0.294147 0
M  V30 14049 C 1347.46 2.26939 0.594621 0
M  V30 14050 C 1348.48 1.30209 1.15419 0
M  V30 14051 O 1349.65 1.6318 1.18044 0
M  V30 14052 C 1346.72 2.9909 1.75345 0
M  V30 14053 C 1345.78 4.11342 1.22865 0
M  V30 14054 C 1345.01 4.80043 2.33225 0
M  V30 14055 O 1345.23 4.48062 3.52983 0
M  V30 14056 O 1344.17 5.67593 2.00304 0
M  V30 14057 H 1347.99 3.03698 0.00989235 0
M  V30 14058 H 1345.58 1.49276 -0.0608528 0
M  V30 14059 H 1347.46 3.44369 2.42875 0
M  V30 14060 H 1346.14 2.25232 2.32492 0
M  V30 14061 H 1345.04 3.70478 0.519279 0
M  V30 14062 H 1346.38 4.87158 0.702703 0
M  V30 14063 N 1348.03 0.0217466 1.57585 0
M  V30 14064 C 1348.99 -0.947546 2.08696 0
M  V30 14065 C 1349.99 -1.25879 1.00055 0
M  V30 14066 O 1351.18 -1.20035 1.26242 0
M  V30 14067 C 1348.31 -2.26624 2.54665 0
M  V30 14068 H 1349.51 -0.505016 2.95617 0
M  V30 14069 H 1347.06 -0.226152 1.54655 0
M  V30 14070 H 1347.79 -2.75521 1.71052 0
M  V30 14071 H 1347.58 -2.05347 3.34028 0
M  V30 14072 H 1349.07 -2.96114 2.94459 0
M  V30 14073 N 1349.51 -1.55583 -0.251311 0
M  V30 14074 C 1350.73 -1.81597 -1.00186 0
M  V30 14075 C 1351.16 -0.598216 -1.78334 0
M  V30 14076 O 1350.51 0.452667 -1.75558 0
M  V30 14077 C 1350.56 -3.05301 -1.91895 0
M  V30 14078 O 1349.67 -2.81907 -3.01002 0
M  V30 14079 H 1349.01 -0.599578 -0.285311 0
M  V30 14080 H 1351.54 -2.02762 -0.273638 0
M  V30 14081 H 1351.55 -3.34616 -2.33444 0
M  V30 14082 H 1350.22 -3.93574 -1.34433 0
M  V30 14083 H 1348.8 -2.63747 -2.63613 0
M  V30 14084 N 1350.98 0.516783 -1.48886 0
M  V30 14085 C 1352.23 1.27375 -1.57808 0
M  V30 14086 C 1352.56 1.92492 -0.256963 0
M  V30 14087 O 1351.84 1.79947 0.738193 0
M  V30 14088 C 1352.12 2.35295 -2.72595 0
M  V30 14089 C 1351.97 1.74783 -4.14453 0
M  V30 14090 C 1353.29 3.36973 -2.83085 0
M  V30 14091 H 1350.41 0.46175 -0.574418 0
M  V30 14092 H 1353.05 0.57434 -1.81111 0
M  V30 14093 H 1351.2 2.94951 -2.52857 0
M  V30 14094 H 1352.88 1.19076 -4.45666 0
M  V30 14095 H 1351.12 1.05258 -4.20836 0
M  V30 14096 H 1351.79 2.52985 -4.90615 0
M  V30 14097 H 1354.27 2.87289 -3.01005 0
M  V30 14098 H 1353.14 4.09864 -3.65106 0
M  V30 14099 H 1353.4 3.98336 -1.91784 0
M  V30 14100 N 1352.46 1.37696 0.766659 0
M  V30 14101 C 1353.41 1.30383 1.87041 0
M  V30 14102 C 1354.4 0.190643 1.59767 0
M  V30 14103 O 1355.59 0.425485 1.7181 0
M  V30 14104 C 1352.72 1.11817 3.2458 0
M  V30 14105 C 1351.8 2.27701 3.57789 0
M  V30 14106 N 1352.19 3.53108 3.62144 0
M  V30 14107 C 1350.49 2.19967 3.87983 0
M  V30 14108 C 1351.19 4.29555 3.92247 0
M  V30 14109 N 1350.17 3.58754 4.08408 0
M  V30 14110 H 1353.97 2.25348 1.88668 0
M  V30 14111 H 1351.48 1.30741 0.963362 0
M  V30 14112 H 1353.48 1.04663 4.03548 0
M  V30 14113 H 1352.14 0.177731 3.24213 0
M  V30 14114 H 1353.15 3.86949 3.44225 0
M  V30 14115 H 1349.83 1.34009 3.95408 0
M  V30 14116 H 1351.22 5.38112 4.0235 0
M  V30 14117 N 1353.94 -0.993397 1.22349 0
M  V30 14118 C 1355.19 -1.72707 1.04189 0
M  V30 14119 C 1355.5 -1.90963 -0.423381 0
M  V30 14120 O 1356.71 -2.61651 -0.724645 0
M  V30 14121 C 1355.16 -3.10739 1.81575 0
M  V30 14122 C 1354.77 -3.00415 3.32347 0
M  V30 14123 C 1356.52 -3.88155 1.71861 0
M  V30 14124 C 1354.42 -4.33598 4.02177 0
M  V30 14125 H 1353.35 -0.647556 0.386248 0
M  V30 14126 H 1356 -1.10902 1.46195 0
M  V30 14127 H 1354.39 -3.73222 1.32367 0
M  V30 14128 H 1355.56 -2.47099 3.88946 0
M  V30 14129 H 1353.87 -2.36482 3.42732 0
M  V30 14130 H 1356.47 -4.8673 2.21354 0
M  V30 14131 H 1356.81 -4.10726 0.678939 0
M  V30 14132 H 1357.35 -3.32347 2.18609 0
M  V30 14133 H 1354.09 -4.16226 5.06395 0
M  V30 14134 H 1353.61 -4.86829 3.50367 0
M  V30 14135 H 1355.29 -5.02348 4.07744 0
M  V30 14136 N 1355.42 -1.03311 -1.19015 0
M  V30 14137 C 1356.35 -0.575655 -2.21853 0
M  V30 14138 C 1357.36 0.350705 -1.58978 0
M  V30 14139 O 1358.55 0.146425 -1.77898 0
M  V30 14140 C 1355.65 0.179949 -3.38422 0
M  V30 14141 C 1354.82 -0.752403 -4.3088 0
M  V30 14142 C 1353.88 -0.0414484 -5.26184 0
M  V30 14143 O 1352.91 -0.669403 -5.6525 0
M  V30 14144 N 1354.11 1.22783 -5.67366 0
M  V30 14145 H 1356.88 -1.46013 -2.61726 0
M  V30 14146 H 1354.44 -0.912655 -1.33724 0
M  V30 14147 H 1356.43 0.66522 -3.99195 0
M  V30 14148 H 1355 0.965879 -2.97304 0
M  V30 14149 H 1354.22 -1.41768 -3.67825 0
M  V30 14150 H 1355.51 -1.38592 -4.89561 0
M  V30 14151 H 1354.91 1.75867 -5.37668 0
M  V30 14152 H 1353.46 1.65752 -6.30372 0
M  V30 14153 N 1356.9 1.35099 -0.81154 0
M  V30 14154 C 1357.83 2.32264 -0.239925 0
M  V30 14155 C 1358.81 1.57708 0.637354 0
M  V30 14156 O 1359.99 1.85751 0.566598 0
M  V30 14157 C 1357.12 3.41931 0.608325 0
M  V30 14158 C 1356.08 4.27659 -0.170869 0
M  V30 14159 C 1355.4 5.28691 0.799398 0
M  V30 14160 C 1356.7 5.0394 -1.37266 0
M  V30 14161 H 1358.4 2.8032 -1.05172 0
M  V30 14162 H 1355.94 1.34773 -0.507185 0
M  V30 14163 H 1357.89 4.08911 1.01832 0
M  V30 14164 H 1356.62 2.92496 1.45306 0
M  V30 14165 H 1355.28 3.62265 -0.562094 0
M  V30 14166 H 1354.93 4.75521 1.63977 0
M  V30 14167 H 1354.63 5.86921 0.282331 0
M  V30 14168 H 1356.15 5.98542 1.20749 0
M  V30 14169 H 1357.56 5.63838 -1.03728 0
M  V30 14170 H 1355.96 5.7169 -1.82456 0
M  V30 14171 H 1357.03 4.34295 -2.15676 0
M  V30 14172 N 1358.37 0.56548 1.47106 0
M  V30 14173 C 1359.28 -0.180488 2.33905 0
M  V30 14174 C 1360.3 -0.90355 1.48701 0
M  V30 14175 O 1361.48 -0.870595 1.81611 0
M  V30 14176 C 1358.54 -1.19212 3.2556 0
M  V30 14177 C 1357.6 -0.475589 4.26658 0
M  V30 14178 C 1356.83 -1.43902 5.13934 0
M  V30 14179 O 1357.06 -2.67443 5.03816 0
M  V30 14180 O 1355.99 -0.958998 5.94211 0
M  V30 14181 H 1359.82 0.531726 2.99009 0
M  V30 14182 H 1357.4 0.32602 1.45799 0
M  V30 14183 H 1359.28 -1.77586 3.82153 0
M  V30 14184 H 1357.96 -1.8861 2.63074 0
M  V30 14185 H 1356.87 0.149561 3.73801 0
M  V30 14186 H 1358.2 0.177103 4.91881 0
M  V30 14187 N 1359.85 -1.54672 0.302354 0
M  V30 14188 C 1361.1 -1.99771 -0.305919 0
M  V30 14189 C 1361.42 -1.19225 -1.54306 0
M  V30 14190 O 1360.69 -0.288569 -1.93763 0
M  V30 14191 H 1359.27 -0.737934 -0.116026 0
M  V30 14192 H 1361.93 -1.90452 0.413997 0
M  V30 14193 H 1361.03 -3.06719 -0.577024 0
M  V30 14194 N 1361.33 -0.0301034 -1.57571 0
M  V30 14195 C 1362.75 0.326296 -1.56229 0
M  V30 14196 C 1362.95 1.72839 -1.03581 0
M  V30 14197 O 1362 2.43088 -0.682979 0
M  V30 14198 C 1363.32 0.174001 -3.00196 0
M  V30 14199 C 1364.86 0.246694 -3.12026 0
M  V30 14200 C 1365.34 0.123177 -4.57834 0
M  V30 14201 N 1366.83 0.180129 -4.6285 0
M  V30 14202 C 1367.56 0.108353 -5.73298 0
M  V30 14203 N 1367.06 -0.0145648 -6.92798 0
M  V30 14204 N 1368.85 0.162411 -5.61865 0
M  V30 14205 H 1361 -0.946945 -1.90123 0
M  V30 14206 H 1363.27 -0.365762 -0.874598 0
M  V30 14207 H 1362.97 -0.791871 -3.42669 0
M  V30 14208 H 1362.85 0.943794 -3.65202 0
M  V30 14209 H 1365.23 1.20303 -2.69465 0
M  V30 14210 H 1365.32 -0.553493 -2.4974 0
M  V30 14211 H 1364.96 -0.82974 -5.01077 0
M  V30 14212 H 1364.89 0.94224 -5.18102 0
M  V30 14213 H 1367.38 0.275236 -3.76896 0
M  V30 14214 H 1367.69 -0.062614 -7.72775 0
M  V30 14215 H 1366.04 -0.0493606 -6.94982 0
M  V30 14216 H 1369.23 0.256847 -4.67395 0
M  V30 14217 H 1369.4 0.103013 -6.47918 0
M  V30 14218 N 1362.81 1.55714 0.243056 0
M  V30 14219 C 1364.22 1.68126 0.811814 0
M  V30 14220 C 1364.57 0.628259 1.85869 0
M  V30 14221 O 1363.7 -0.224747 2.1523 0
M  V30 14222 C 1364.29 3.048 1.47928 0
M  V30 14223 C 1362.85 3.19138 1.99569 0
M  V30 14224 C 1362 2.64011 0.848149 0
M  V30 14225 H 1364.95 1.58689 0.0187918 0
M  V30 14226 H 1364.97 2.99459 2.34743 0
M  V30 14227 H 1364.48 3.81417 0.717106 0
M  V30 14228 H 1362.58 2.4735 2.78655 0
M  V30 14229 H 1362.69 4.26095 2.19043 0
M  V30 14230 H 1361.06 2.21934 1.2497 0
M  V30 14231 H 1361.84 3.43157 0.0989987 0
M  V30 14232 N 1364.29 -0.50888 1.49158 0
M  V30 14233 C 1365.51 -1.29245 1.62205 0
M  V30 14234 C 1365.94 -1.85845 0.29041 0
M  V30 14235 O 1365.29 -1.6547 -0.740906 0
M  V30 14236 C 1365.34 -2.40415 2.68762 0
M  V30 14237 O 1364.45 -3.44048 2.27387 0
M  V30 14238 H 1363.79 -0.381898 0.543185 0
M  V30 14239 H 1366.32 -0.610076 1.95293 0
M  V30 14240 H 1366.33 -2.86295 2.90688 0
M  V30 14241 H 1365 -1.98584 3.65427 0
M  V30 14242 H 1363.58 -3.04141 2.1576 0
M  V30 14243 N 1365.76 -1.381 -0.759346 0
M  V30 14244 C 1367.01 -1.33311 -1.51364 0
M  V30 14245 C 1367.33 0.0761325 -1.95452 0
M  V30 14246 O 1368.53 0.246541 -2.70378 0
M  V30 14247 C 1366.99 -2.34067 -2.73387 0
M  V30 14248 C 1366.6 -3.80583 -2.36348 0
M  V30 14249 C 1368.34 -2.38311 -3.51295 0
M  V30 14250 C 1366.25 -4.73039 -3.54948 0
M  V30 14251 H 1365.18 -0.495512 -0.568317 0
M  V30 14252 H 1367.83 -1.63625 -0.830602 0
M  V30 14253 H 1366.21 -1.96788 -3.43643 0
M  V30 14254 H 1367.38 -4.26769 -1.73796 0
M  V30 14255 H 1365.7 -3.79403 -1.71587 0
M  V30 14256 H 1368.3 -3.04586 -4.39467 0
M  V30 14257 H 1368.64 -1.40034 -3.92041 0
M  V30 14258 H 1369.17 -2.74361 -2.88047 0
M  V30 14259 H 1365.91 -5.7249 -3.19273 0
M  V30 14260 H 1365.43 -4.3155 -4.16563 0
M  V30 14261 H 1367.11 -4.90775 -4.21603 0
M  V30 14262 N 1367.24 0.986894 -1.22875 0
M  V30 14263 C 1368.17 2.09628 -1.0285 0
M  V30 14264 C 1369.15 1.70019 0.0525118 0
M  V30 14265 O 1370.34 1.93883 -0.110874 0
M  V30 14266 C 1367.47 3.41866 -0.61194 0
M  V30 14267 C 1366.42 3.95351 -1.63956 0
M  V30 14268 C 1365.75 5.23707 -1.07865 0
M  V30 14269 C 1367.05 4.25354 -3.03102 0
M  V30 14270 H 1368.74 2.26639 -1.95641 0
M  V30 14271 H 1366.29 1.0891 -0.942048 0
M  V30 14272 H 1368.24 4.18893 -0.458936 0
M  V30 14273 H 1366.97 3.24701 0.35164 0
M  V30 14274 H 1365.62 3.20462 -1.78045 0
M  V30 14275 H 1365.27 5.02888 -0.106246 0
M  V30 14276 H 1364.97 5.60459 -1.76522 0
M  V30 14277 H 1366.5 6.03362 -0.937359 0
M  V30 14278 H 1367.91 4.93156 -2.92353 0
M  V30 14279 H 1366.31 4.73292 -3.68938 0
M  V30 14280 H 1367.38 3.32887 -3.52583 0
M  V30 14281 N 1368.72 1.0394 1.18466 0
M  V30 14282 C 1369.63 0.639714 2.2571 0
M  V30 14283 C 1370.65 -0.333431 1.70775 0
M  V30 14284 O 1371.82 -0.188676 2.00514 0
M  V30 14285 C 1368.89 0.007559 3.46699 0
M  V30 14286 C 1367.95 1.02955 4.16772 0
M  V30 14287 C 1367.18 0.427464 5.31985 0
M  V30 14288 O 1367.4 -0.766684 5.65224 0
M  V30 14289 O 1366.34 1.15553 5.90704 0
M  V30 14290 H 1370.16 1.53316 2.6216 0
M  V30 14291 H 1367.75 0.810206 1.25523 0
M  V30 14292 H 1369.63 -0.344404 4.1999 0
M  V30 14293 H 1368.31 -0.859727 3.12074 0
M  V30 14294 H 1367.21 1.43328 3.45554 0
M  V30 14295 H 1368.55 1.86756 4.55393 0
M  V30 14296 N 1370.2 -1.34667 0.818693 0
M  V30 14297 C 1371.13 -2.27466 0.182904 0
M  V30 14298 C 1372.11 -1.48682 -0.65821 0
M  V30 14299 O 1373.29 -1.77912 -0.622868 0
M  V30 14300 C 1370.42 -3.30406 -0.744971 0
M  V30 14301 C 1369.47 -4.26496 0.018069 0
M  V30 14302 S 1370.3 -5.1788 1.36236 0
M  V30 14303 C 1371.46 -6.24357 0.43925 0
M  V30 14304 H 1371.69 -2.81042 0.969668 0
M  V30 14305 H 1369.22 -1.4165 0.614372 0
M  V30 14306 H 1371.18 -3.90205 -1.27478 0
M  V30 14307 H 1369.84 -2.75684 -1.50522 0
M  V30 14308 H 1369.03 -4.99294 -0.687141 0
M  V30 14309 H 1368.64 -3.70929 0.478291 0
M  V30 14310 H 1370.93 -6.76484 -0.370837 0
M  V30 14311 H 1371.87 -6.98916 1.13678 0
M  V30 14312 H 1372.28 -5.64492 0.0295605 0
M  V30 14313 N 1371.68 -0.573274 -1.46804 0
M  V30 14314 C 1372.95 0.011163 -1.95597 0
M  V30 14315 C 1373.33 1.4691 -1.51594 0
M  V30 14316 O 1372.68 2.15413 -0.76221 0
M  V30 14317 C 1372.89 -0.151045 -3.48673 0
M  V30 14318 C 1374.24 -0.0139817 -4.24598 0
M  V30 14319 O 1375.26 -0.0794008 -3.56111 0
M  V30 14320 O 1374.12 0.129547 -5.46346 0
M  V30 14321 H 1371.22 0.0551258 -0.825161 0
M  V30 14322 H 1373.76 -0.640928 -1.57131 0
M  V30 14323 H 1372.53 -1.16494 -3.73557 0
M  V30 14324 H 1372.16 0.537917 -3.93944 0
M  V30 14325 N 1373.15 1.5451 -0.310553 0
M  V30 14326 C 1374.06 2.27557 0.570518 0
M  V30 14327 C 1375.08 1.31426 1.14032 0
M  V30 14328 O 1376.26 1.64423 1.16306 0
M  V30 14329 C 1373.32 3.00933 1.72163 0
M  V30 14330 C 1372.38 4.12623 1.18495 0
M  V30 14331 C 1371.62 4.8249 2.28121 0
M  V30 14332 O 1371.84 4.5178 3.48211 0
M  V30 14333 O 1370.77 5.69686 1.94273 0
M  V30 14334 H 1374.6 3.03692 -0.0223195 0
M  V30 14335 H 1372.18 1.49203 -0.0766821 0
M  V30 14336 H 1374.07 3.46925 2.39208 0
M  V30 14337 H 1372.74 2.27685 2.3009 0
M  V30 14338 H 1371.65 3.71008 0.479956 0
M  V30 14339 H 1372.98 4.87876 0.650994 0
M  V30 14340 N 1374.63 0.0384594 1.57553 0
M  V30 14341 C 1375.86 -0.648077 1.96488 0
M  V30 14342 C 1376.28 -1.65123 0.915414 0
M  V30 14343 O 1375.63 -1.82216 -0.101779 0
M  V30 14344 C 1375.68 -1.34623 3.35498 0
M  V30 14345 O 1375.41 -0.383261 4.3642 0
M  V30 14346 C 1376.91 -2.12372 3.89119 0
M  V30 14347 H 1374.13 -0.178068 0.646941 0
M  V30 14348 H 1376.67 0.100993 2.0425 0
M  V30 14349 H 1374.83 -2.04663 3.28926 0
M  V30 14350 H 1375.24 -0.880095 5.17063 0
M  V30 14351 H 1376.71 -2.5666 4.88702 0
M  V30 14352 H 1377.19 -2.96664 3.23863 0
M  V30 14353 H 1377.8 -1.4727 3.98988 0
M  V30 14354 N 1376.11 -1.55841 -0.234795 0
M  V30 14355 C 1377.34 -1.82649 -0.982547 0
M  V30 14356 C 1377.76 -0.617097 -1.77689 0
M  V30 14357 O 1377.12 0.434022 -1.76028 0
M  V30 14358 C 1377.17 -3.07319 -1.88646 0
M  V30 14359 O 1376.27 -2.85084 -2.97995 0
M  V30 14360 H 1375.61 -0.60257 -0.278936 0
M  V30 14361 H 1378.14 -2.03041 -0.252117 0
M  V30 14362 H 1378.15 -3.37073 -2.29882 0
M  V30 14363 H 1376.83 -3.94978 -1.30251 0
M  V30 14364 H 1375.4 -2.66528 -2.60801 0
M  V30 14365 N 1377.59 0.500963 -1.49426 0
M  V30 14366 C 1378.55 1.58478 -1.65582 0
M  V30 14367 C 1379.55 1.51897 -0.52762 0
M  V30 14368 O 1380.74 1.55049 -0.794071 0
M  V30 14369 C 1377.87 2.9813 -1.65322 0
M  V30 14370 H 1379.07 1.45483 -2.6225 0
M  V30 14371 H 1376.62 0.725199 -1.38458 0
M  V30 14372 H 1377.36 3.16602 -0.702384 0
M  V30 14373 H 1377.14 3.04315 -2.47255 0
M  V30 14374 H 1378.63 3.76874 -1.79878 0
M  V30 14375 N 1379.07 1.38501 0.752011 0
M  V30 14376 C 1380 1.38577 1.87933 0
M  V30 14377 C 1380.98 0.251454 1.68231 0
M  V30 14378 O 1382.16 0.45477 1.888 0
M  V30 14379 C 1379.29 1.21164 3.25479 0
M  V30 14380 C 1378.25 2.31816 3.59785 0
M  V30 14381 C 1377.57 1.99508 4.96085 0
M  V30 14382 C 1378.87 3.74082 3.645 0
M  V30 14383 H 1380.57 2.32913 1.88127 0
M  V30 14384 H 1378.11 1.12113 0.903698 0
M  V30 14385 H 1380.07 1.19842 4.04 0
M  V30 14386 H 1378.79 0.232899 3.25769 0
M  V30 14387 H 1377.45 2.32327 2.83584 0
M  V30 14388 H 1377.1 1.00114 4.92936 0
M  V30 14389 H 1376.8 2.73617 5.20007 0
M  V30 14390 H 1378.32 1.99807 5.76983 0
M  V30 14391 H 1379.74 3.75593 4.33131 0
M  V30 14392 H 1378.13 4.47409 3.99931 0
M  V30 14393 H 1379.2 4.06284 2.64692 0
M  V30 14394 N 1380.55 -0.980364 1.23396 0
M  V30 14395 C 1381.49 -2.07275 1.01516 0
M  V30 14396 C 1382.46 -1.65963 -0.0673729 0
M  V30 14397 O 1383.65 -1.90612 0.0847392 0
M  V30 14398 C 1380.79 -3.39621 0.61249 0
M  V30 14399 C 1379.9 -3.94203 1.76715 0
M  V30 14400 C 1379.04 -5.14761 1.31126 0
M  V30 14401 C 1378.07 -5.61509 2.43667 0
M  V30 14402 N 1377.21 -6.73297 1.99035 0
M  V30 14403 H 1382.05 -2.25325 1.9502 0
M  V30 14404 H 1379.59 -1.10452 0.971532 0
M  V30 14405 H 1381.55 -4.15643 0.360126 0
M  V30 14406 H 1380.18 -3.21535 -0.285539 0
M  V30 14407 H 1379.23 -3.14937 2.13352 0
M  V30 14408 H 1380.54 -4.24867 2.61323 0
M  V30 14409 H 1379.69 -5.98115 1.01702 0
M  V30 14410 H 1378.43 -4.85751 0.435555 0
M  V30 14411 H 1377.44 -4.76737 2.73865 0
M  V30 14412 H 1378.66 -5.92539 3.31774 0
M  V30 14413 H 1376.61 -6.46046 1.13845 0
M  V30 14414 H 1376.53 -7.03345 2.77203 0
M  V30 14415 H 1377.79 -7.60125 1.72716 0
M  V30 14416 N 1382.02 -1.04567 -1.17913 0
M  V30 14417 C 1383.27 -0.752023 -1.88018 0
M  V30 14418 C 1383.6 0.720567 -1.8066 0
M  V30 14419 O 1382.85 1.54207 -1.20493 0
M  V30 14420 C 1383.15 -1.1699 -3.3771 0
M  V30 14421 C 1382.82 -2.64363 -3.65271 0
M  V30 14422 C 1381.48 -3.04622 -3.72503 0
M  V30 14423 C 1383.83 -3.59626 -3.77251 0
M  V30 14424 C 1381.16 -4.39023 -3.89199 0
M  V30 14425 C 1383.51 -4.93752 -3.95465 0
M  V30 14426 C 1382.18 -5.33675 -4.00933 0
M  V30 14427 H 1381.45 -0.275185 -0.688008 0
M  V30 14428 H 1384.09 -1.31161 -1.39532 0
M  V30 14429 H 1382.4 -0.529202 -3.8821 0
M  V30 14430 H 1384.1 -0.919981 -3.90304 0
M  V30 14431 H 1380.69 -2.32182 -3.60263 0
M  V30 14432 H 1384.87 -3.29665 -3.70992 0
M  V30 14433 H 1380.13 -4.69466 -3.91679 0
M  V30 14434 H 1384.3 -5.67467 -4.03676 0
M  V30 14435 H 1381.93 -6.37825 -4.13623 0
M  V30 14436 N 1383.5 1.34231 -0.825823 0
M  V30 14437 C 1384.41 2.33245 -0.251803 0
M  V30 14438 C 1385.43 1.62756 0.615334 0
M  V30 14439 O 1386.6 1.94503 0.522547 0
M  V30 14440 C 1383.67 3.41908 0.574456 0
M  V30 14441 C 1382.73 4.2814 -0.315422 0
M  V30 14442 C 1381.96 5.31613 0.471496 0
M  V30 14443 O 1382.19 5.44337 1.70449 0
M  V30 14444 O 1381.12 6.01719 -0.147691 0
M  V30 14445 H 1384.95 2.84174 -1.07139 0
M  V30 14446 H 1382.53 1.37341 -0.588032 0
M  V30 14447 H 1384.41 4.08252 1.04444 0
M  V30 14448 H 1383.09 2.93217 1.37132 0
M  V30 14449 H 1381.99 3.64709 -0.832963 0
M  V30 14450 H 1383.33 4.80279 -1.07672 0
M  V30 14451 N 1384.98 0.581051 1.46498 0
M  V30 14452 C 1386.23 0.0637189 2.01599 0
M  V30 14453 C 1386.54 -1.30353 1.45834 0
M  V30 14454 O 1387.75 -1.91211 1.92745 0
M  V30 14455 C 1386.2 0.0633254 3.59844 0
M  V30 14456 C 1385.81 1.42879 4.24605 0
M  V30 14457 C 1387.56 -0.400149 4.2261 0
M  V30 14458 C 1385.46 1.38621 5.74924 0
M  V30 14459 H 1384.39 0.0200512 0.753733 0
M  V30 14460 H 1387.04 0.732451 1.68248 0
M  V30 14461 H 1385.43 -0.671538 3.90264 0
M  V30 14462 H 1386.6 2.18325 4.05796 0
M  V30 14463 H 1384.91 1.83215 3.73927 0
M  V30 14464 H 1387.51 -0.450771 5.32797 0
M  V30 14465 H 1387.85 -1.41733 3.9143 0
M  V30 14466 H 1388.39 0.280598 3.96809 0
M  V30 14467 H 1385.13 2.38014 6.10761 0
M  V30 14468 H 1384.65 0.673926 5.96002 0
M  V30 14469 H 1386.33 1.09841 6.37608 0
M  V30 14470 N 1386.46 -1.54343 0.318742 0
M  V30 14471 C 1387.87 -1.59564 -0.034068 0
M  V30 14472 C 1388.07 -1.33539 -1.50896 0
M  V30 14473 O 1387.13 -1.11746 -2.26427 0
M  V30 14474 C 1388.44 -2.98291 0.379827 0
M  V30 14475 C 1389.99 -3.11255 0.330078 0
M  V30 14476 C 1390.47 -4.5232 0.719061 0
M  V30 14477 N 1391.96 -4.58295 0.67228 0
M  V30 14478 C 1392.69 -5.65551 0.945513 0
M  V30 14479 N 1392.19 -6.80767 1.28563 0
M  V30 14480 N 1393.98 -5.55305 0.871394 0
M  V30 14481 H 1386.13 -1.69518 1.27975 0
M  V30 14482 H 1388.39 -0.792627 0.520044 0
M  V30 14483 H 1388.1 -3.22319 1.40724 0
M  V30 14484 H 1387.97 -3.76319 -0.257606 0
M  V30 14485 H 1390.36 -2.86965 -0.688117 0
M  V30 14486 H 1390.44 -2.35342 1.00238 0
M  V30 14487 H 1390.09 -4.77342 1.73515 0
M  V30 14488 H 1390.02 -5.26594 0.0245001 0
M  V30 14489 H 1392.51 -3.75547 0.421059 0
M  V30 14490 H 1392.82 -7.58503 1.47963 0
M  V30 14491 H 1391.17 -6.82275 1.32385 0
M  V30 14492 H 1394.36 -4.64171 0.605205 0
M  V30 14493 H 1394.53 -6.38806 1.08769 0
M  V30 14494 N 1387.94 -0.0468143 -1.5753 0
M  V30 14495 C 1388.9 0.914225 -2.10177 0
M  V30 14496 C 1389.9 1.24271 -1.02045 0
M  V30 14497 O 1391.09 1.18012 -1.28136 0
M  V30 14498 C 1388.22 2.22544 -2.58238 0
M  V30 14499 H 1389.41 0.457922 -2.96383 0
M  V30 14500 H 1386.97 0.20152 -1.54995 0
M  V30 14501 H 1387.7 2.72765 -1.75413 0
M  V30 14502 H 1387.49 2.00007 -3.37253 0
M  V30 14503 H 1388.98 2.91392 -2.99133 0
M  V30 14504 N 1389.41 1.55964 0.226527 0
M  V30 14505 C 1390.64 1.82823 0.968673 0
M  V30 14506 C 1391.06 0.625281 1.78145 0
M  V30 14507 O 1390.41 -0.40617 1.77923 0
M  V30 14508 C 1390.47 3.08143 1.89024 0
M  V30 14509 O 1390.19 4.23797 1.11032 0
M  V30 14510 C 1391.69 3.47954 2.74669 0
M  V30 14511 H 1388.91 0.607876 0.284126 0
M  V30 14512 H 1391.45 2.03048 0.243258 0
M  V30 14513 H 1389.61 2.89908 2.56967 0
M  V30 14514 H 1390.02 4.94957 1.73546 0
M  V30 14515 H 1391.49 4.38691 3.35044 0
M  V30 14516 H 1391.97 2.69476 3.46813 0
M  V30 14517 H 1392.58 3.6861 2.12147 0
M  V30 14518 N 1390.89 -0.493031 1.4969 0
M  V30 14519 C 1392.14 -1.24418 1.59263 0
M  V30 14520 C 1392.46 -1.92908 0.284882 0
M  V30 14521 O 1391.73 -1.83108 -0.696302 0
M  V30 14522 H 1390.31 -0.462223 0.586821 0
M  V30 14523 H 1392.97 -0.570713 1.86357 0
M  V30 14524 H 1392.07 -2.00386 2.39274 0
M  V30 14525 N 1392.37 -1.38898 -0.744656 0
M  V30 14526 C 1393.62 -1.35595 -1.50401 0
M  V30 14527 C 1393.95 0.0511979 -1.94433 0
M  V30 14528 O 1393.2 1.03011 -1.66395 0
M  V30 14529 C 1393.5 -2.2658 -2.76398 0
M  V30 14530 C 1393.17 -3.74389 -2.51283 0
M  V30 14531 C 1391.83 -4.14666 -2.44143 0
M  V30 14532 C 1394.18 -4.67916 -2.29573 0
M  V30 14533 C 1391.51 -5.46545 -2.1332 0
M  V30 14534 C 1393.86 -6.00063 -2.00269 0
M  V30 14535 C 1392.52 -6.39413 -1.91591 0
M  V30 14536 H 1391.79 -0.496176 -0.550355 0
M  V30 14537 H 1394.44 -1.71328 -0.855514 0
M  V30 14538 H 1392.75 -1.83933 -3.45942 0
M  V30 14539 H 1394.44 -2.21323 -3.34391 0
M  V30 14540 H 1391.03 -3.42463 -2.57715 0
M  V30 14541 H 1395.22 -4.37639 -2.34063 0
M  V30 14542 H 1390.47 -5.75966 -2.05117 0
M  V30 14543 H 1394.65 -6.72068 -1.82476 0
M  V30 14544 H 1392.27 -7.41524 -1.67472 0
M  V30 14545 N 1393.85 0.973806 -1.23914 0
M  V30 14546 C 1395.26 1.53057 -1.06913 0
M  V30 14547 C 1395.61 1.92842 0.361423 0
M  V30 14548 O 1394.74 1.76716 1.24901 0
M  V30 14549 C 1395.33 2.78137 -1.93457 0
M  V30 14550 C 1393.89 3.3019 -1.80697 0
M  V30 14551 C 1393.04 2.03137 -1.88761 0
M  V30 14552 H 1395.99 0.792767 -1.37481 0
M  V30 14553 H 1396.01 3.5124 -1.46325 0
M  V30 14554 H 1395.52 2.49149 -2.97568 0
M  V30 14555 H 1393.62 3.64043 -0.793951 0
M  V30 14556 H 1393.73 3.99503 -2.64451 0
M  V30 14557 H 1392.1 2.17572 -1.32418 0
M  V30 14558 H 1392.88 1.76522 -2.9444 0
M  V30 14559 N 1395.33 1.05191 1.17357 0
M  V30 14560 C 1396.24 0.663617 2.25018 0
M  V30 14561 C 1397.25 -0.315299 1.71119 0
M  V30 14562 O 1398.43 -0.167398 2.00703 0
M  V30 14563 C 1395.49 0.0443307 3.46672 0
M  V30 14564 C 1394.55 1.07369 4.15656 0
M  V30 14565 C 1393.79 0.483864 5.31502 0
M  V30 14566 O 1394.01 -0.706692 5.66005 0
M  V30 14567 O 1392.94 1.21812 5.89445 0
M  V30 14568 H 1396.77 1.56088 2.60519 0
M  V30 14569 H 1394.36 0.823474 1.24657 0
M  V30 14570 H 1396.24 -0.299839 4.20332 0
M  V30 14571 H 1394.91 -0.826579 3.12969 0
M  V30 14572 H 1393.82 1.46985 3.44015 0
M  V30 14573 H 1395.15 1.91575 4.53387 0
M  V30 14574 N 1396.8 -1.33791 0.83293 0
M  V30 14575 C 1398.22 -1.80336 0.483294 0
M  V30 14576 C 1398.57 -1.68969 -0.997195 0
M  V30 14577 O 1397.69 -1.23549 -1.77664 0
M  V30 14578 C 1398.29 -3.27427 0.870475 0
M  V30 14579 C 1396.85 -3.72012 0.573064 0
M  V30 14580 C 1395.99 -2.55319 1.08201 0
M  V30 14581 H 1398.94 -1.21396 1.02218 0
M  V30 14582 H 1398.96 -3.80083 0.178173 0
M  V30 14583 H 1398.48 -3.35668 1.94804 0
M  V30 14584 H 1396.58 -3.69302 -0.494678 0
M  V30 14585 H 1396.69 -4.65725 1.12414 0
M  V30 14586 H 1395.05 -2.49681 0.503123 0
M  V30 14587 H 1395.84 -2.66326 2.16623 0
M  V30 14588 N 1398.28 -0.588812 -1.46187 0
M  V30 14589 C 1399.23 0.153638 -2.32092 0
M  V30 14590 C 1400.22 0.878346 -1.4485 0
M  V30 14591 O 1401.43 0.796042 -1.61441 0
M  V30 14592 H 1397.81 0.0684129 -0.748882 0
M  V30 14593 H 1399.78 -0.58961 -2.92517 0
M  V30 14594 C 1398.53 1.15003 -3.28131 0
M  V30 14595 H 1397.85 0.601804 -3.95245 0
M  V30 14596 H 1399.29 1.6398 -3.91007 0
M  V30 14597 C 1397.75 2.21411 -2.53926 0
M  V30 14598 O 1398.28 3.28862 -2.30679 0
M  V30 14599 N 1396.48 1.96184 -2.14383 0
M  V30 14600 H 1396.03 1.08812 -2.3349 0
M  V30 14601 H 1395.99 2.6759 -1.65055 0
M  V30 14602 N 1399.76 1.54172 -0.326923 0
M  V30 14603 C 1401.17 1.86009 0.160446 0
M  V30 14604 C 1401.52 1.24851 1.51349 0
M  V30 14605 O 1400.65 0.555804 2.09141 0
M  V30 14606 C 1401.24 3.37488 0.297909 0
M  V30 14607 C 1399.8 3.69263 0.7295 0
M  V30 14608 C 1398.95 2.76911 -0.146778 0
M  V30 14609 H 1401.9 1.48972 -0.547093 0
M  V30 14610 H 1401.92 3.63388 1.12825 0
M  V30 14611 H 1401.43 3.81971 -0.687007 0
M  V30 14612 H 1399.53 3.30314 1.72404 0
M  V30 14613 H 1399.65 4.76149 0.53092 0
M  V30 14614 H 1398.01 2.51876 0.378212 0
M  V30 14615 H 1398.79 3.24221 -1.12852 0
M  V30 14616 N 1401.24 0.0551678 1.57503 0
M  V30 14617 C 1402.65 -0.3014 1.56728 0
M  V30 14618 C 1402.85 -1.71169 1.06317 0
M  V30 14619 O 1401.91 -2.4197 0.721566 0
M  V30 14620 C 1403.22 -0.12622 3.00435 0
M  V30 14621 C 1404.77 -0.197022 3.12379 0
M  V30 14622 C 1405.25 -0.0503235 4.57972 0
M  V30 14623 N 1406.74 -0.106471 4.63078 0
M  V30 14624 C 1407.47 -0.0171325 5.73397 0
M  V30 14625 N 1406.97 0.124781 6.92688 0
M  V30 14626 N 1408.76 -0.0730028 5.62053 0
M  V30 14627 H 1400.91 0.977072 1.88592 0
M  V30 14628 H 1403.18 0.37963 0.868668 0
M  V30 14629 H 1402.88 0.846286 3.41366 0
M  V30 14630 H 1402.76 -0.885574 3.66657 0
M  V30 14631 H 1405.14 -1.16 2.71345 0
M  V30 14632 H 1405.22 0.593155 2.48828 0
M  V30 14633 H 1404.87 0.909352 4.99693 0
M  V30 14634 H 1404.8 -0.859695 5.19535 0
M  V30 14635 H 1407.29 -0.215241 3.77287 0
M  V30 14636 H 1407.6 0.185548 7.72577 0
M  V30 14637 H 1405.95 0.15992 6.94816 0
M  V30 14638 H 1409.14 -0.182456 4.67744 0
M  V30 14639 H 1409.31 7.85052e-05 6.48 0
M  V30 14640 N 1402.72 -1.56081 -0.218252 0
M  V30 14641 C 1403.96 -1.79513 -0.943553 0
M  V30 14642 C 1404.3 -0.625367 -1.83855 0
M  V30 14643 O 1403.57 0.375226 -1.90846 0
M  V30 14644 C 1403.85 -3.13049 -1.77967 0
M  V30 14645 C 1403.71 -4.40479 -0.910939 0
M  V30 14646 C 1405.03 -3.43057 -2.7568 0
M  V30 14647 H 1402.14 -0.653057 -0.341593 0
M  V30 14648 H 1404.79 -1.88811 -0.212226 0
M  V30 14649 H 1402.94 -3.05254 -2.40318 0
M  V30 14650 H 1404.61 -4.60298 -0.303922 0
M  V30 14651 H 1402.85 -4.33259 -0.216513 0
M  V30 14652 H 1403.52 -5.3036 -1.53042 0
M  V30 14653 H 1406 -3.51002 -2.23465 0
M  V30 14654 H 1404.87 -4.37657 -3.31282 0
M  V30 14655 H 1405.14 -2.65389 -3.53584 0
M  V30 14656 N 1404.2 0.485086 -1.49949 0
M  V30 14657 C 1405.44 1.23486 -1.5948 0
M  V30 14658 C 1405.76 1.93377 -0.294082 0
M  V30 14659 O 1406.96 2.70173 -0.268133 0
M  V30 14660 C 1405.42 2.24303 -2.81454 0
M  V30 14661 C 1405.03 1.60279 -4.18347 0
M  V30 14662 C 1406.77 3.0001 -3.00324 0
M  V30 14663 C 1404.68 2.593 -5.31524 0
M  V30 14664 H 1403.61 0.464595 -0.593858 0
M  V30 14665 H 1406.26 0.506893 -1.7636 0
M  V30 14666 H 1404.64 3.00332 -2.58102 0
M  V30 14667 H 1405.82 0.901352 -4.51899 0
M  V30 14668 H 1404.13 0.969053 -4.04967 0
M  V30 14669 H 1406.73 3.74091 -3.82048 0
M  V30 14670 H 1407.07 3.5857 -2.11502 0
M  V30 14671 H 1407.6 2.31095 -3.2379 0
M  V30 14672 H 1404.34 2.05498 -6.22455 0
M  V30 14673 H 1403.86 3.27638 -5.02408 0
M  V30 14674 H 1405.54 3.21411 -5.61519 0
M  V30 14675 N 1405.67 1.39291 0.737279 0
M  V30 14676 C 1406.58 1.40098 1.88175 0
M  V30 14677 C 1407.6 0.296053 1.71463 0
M  V30 14678 O 1408.78 0.537153 1.94105 0
M  V30 14679 C 1405.84 1.24071 3.2374 0
M  V30 14680 C 1404.9 2.44515 3.52861 0
M  V30 14681 C 1404.13 2.29243 4.81958 0
M  V30 14682 O 1404.36 1.2947 5.55512 0
M  V30 14683 O 1403.29 3.18178 5.10927 0
M  V30 14684 H 1407.12 2.36565 1.90449 0
M  V30 14685 H 1404.7 1.20382 0.884786 0
M  V30 14686 H 1406.58 1.17257 4.04758 0
M  V30 14687 H 1405.26 0.30698 3.22241 0
M  V30 14688 H 1404.17 2.56905 2.71939 0
M  V30 14689 H 1405.5 3.36573 3.59137 0
M  V30 14690 N 1407.15 -0.967221 1.24429 0
M  V30 14691 C 1408.08 -2.07966 1.06172 0
M  V30 14692 C 1409.06 -1.70081 -0.0254566 0
M  V30 14693 O 1410.25 -1.93682 0.141705 0
M  V30 14694 C 1407.38 -3.4085 0.666251 0
M  V30 14695 C 1406.33 -3.92692 1.70225 0
M  V30 14696 C 1405.66 -5.21925 1.16183 0
M  V30 14697 C 1406.96 -4.20478 3.09831 0
M  V30 14698 H 1408.65 -2.23497 1.99222 0
M  V30 14699 H 1406.2 -1.07398 0.959255 0
M  V30 14700 H 1408.15 -4.1811 0.52552 0
M  V30 14701 H 1406.87 -3.2522 -0.299939 0
M  V30 14702 H 1405.53 -3.17588 1.83121 0
M  V30 14703 H 1405.18 -5.02655 0.186237 0
M  V30 14704 H 1404.88 -5.57579 1.85416 0
M  V30 14705 H 1406.41 -6.01795 1.03323 0
M  V30 14706 H 1407.82 -4.88442 3.00162 0
M  V30 14707 H 1406.22 -4.67362 3.7642 0
M  V30 14708 H 1407.29 -3.27235 3.57834 0
M  V30 14709 N 1408.63 -1.05812 -1.16797 0
M  V30 14710 C 1409.58 -0.658636 -2.2308 0
M  V30 14711 C 1410.57 0.323104 -1.6629 0
M  V30 14712 O 1411.78 0.188492 -1.7901 0
M  V30 14713 H 1408.15 -0.194843 -0.72632 0
M  V30 14714 H 1410.12 -1.56501 -2.54067 0
M  V30 14715 C 1408.87 -0.0559428 -3.47655 0
M  V30 14716 H 1408.2 -0.802468 -3.91664 0
M  V30 14717 H 1409.64 0.186118 -4.23591 0
M  V30 14718 C 1408.09 1.19913 -3.14837 0
M  V30 14719 O 1408.62 2.28772 -3.30191 0
M  V30 14720 N 1406.83 1.09921 -2.69009 0
M  V30 14721 H 1406.38 0.213331 -2.56715 0
M  V30 14722 H 1406.34 1.93981 -2.47424 0
M  V30 14723 N 1410.11 1.33347 -0.840014 0
M  V30 14724 C 1411.05 2.29191 -0.272048 0
M  V30 14725 C 1412.02 1.54383 0.612787 0
M  V30 14726 O 1413.21 1.82676 0.550812 0
M  V30 14727 C 1410.35 3.40755 0.545901 0
M  V30 14728 C 1409.46 4.30471 -0.363084 0
M  V30 14729 C 1408.6 5.29151 0.466078 0
M  V30 14730 C 1407.64 6.10508 -0.441225 0
M  V30 14731 N 1406.77 7.01228 0.349877 0
M  V30 14732 H 1411.61 2.77166 -1.09467 0
M  V30 14733 H 1409.15 1.36379 -0.551284 0
M  V30 14734 H 1411.11 4.04142 1.03562 0
M  V30 14735 H 1409.74 2.9397 1.33348 0
M  V30 14736 H 1408.79 3.67795 -0.971119 0
M  V30 14737 H 1410.1 4.87406 -1.06002 0
M  V30 14738 H 1409.26 5.98072 1.01957 0
M  V30 14739 H 1408 4.72796 1.19644 0
M  V30 14740 H 1407 5.40504 -1.00672 0
M  V30 14741 H 1408.23 6.68946 -1.16997 0
M  V30 14742 H 1406.17 6.4732 1.0636 0
M  V30 14743 H 1406.09 7.5545 -0.288317 0
M  V30 14744 H 1407.36 7.74453 0.885573 0
M  V30 14745 N 1411.59 0.596556 1.45873 0
M  V30 14746 C 1412.86 0.0199562 1.9559 0
M  V30 14747 C 1413.24 -1.44479 1.53912 0
M  V30 14748 O 1412.59 -2.14173 0.796384 0
M  V30 14749 C 1412.8 0.206497 3.48389 0
M  V30 14750 C 1414.15 0.0815298 4.24522 0
M  V30 14751 O 1415.17 0.136045 3.5594 0
M  V30 14752 O 1414.03 -0.0426117 5.46483 0
M  V30 14753 H 1411.13 -0.0419913 0.825933 0
M  V30 14754 H 1413.67 0.665846 1.56092 0
M  V30 14755 H 1412.44 1.22422 3.71656 0
M  V30 14756 H 1412.07 -0.475175 3.9475 0
M  V30 14757 N 1413.06 -1.53996 0.335095 0
M  V30 14758 C 1413.97 -2.28436 -0.534244 0
M  V30 14759 C 1414.99 -1.33224 -1.11926 0
M  V30 14760 O 1416.17 -1.66252 -1.13676 0
M  V30 14761 C 1413.23 -3.03634 -1.67354 0
M  V30 14762 C 1412.29 -4.14455 -1.11916 0
M  V30 14763 C 1411.52 -4.86058 -2.20416 0
M  V30 14764 O 1411.75 -4.57263 -3.40979 0
M  V30 14765 O 1410.68 -5.72704 -1.85185 0
M  V30 14766 H 1414.51 -3.03618 0.0706314 0
M  V30 14767 H 1412.09 -1.49062 0.100409 0
M  V30 14768 H 1413.97 -3.50687 -2.33659 0
M  V30 14769 H 1412.65 -2.31317 -2.26438 0
M  V30 14770 H 1411.56 -3.71725 -0.420871 0
M  V30 14771 H 1412.89 -4.8885 -0.573295 0
M  V30 14772 N 1414.54 -0.0635198 -1.57472 0
M  V30 14773 C 1415.49 0.924358 -2.13444 0
M  V30 14774 C 1416.48 1.31389 -1.06927 0
M  V30 14775 O 1417.69 1.2921 -1.25319 0
M  V30 14776 H 1414.06 0.316003 -0.682383 0
M  V30 14777 H 1416.04 0.427281 -2.95325 0
M  V30 14778 C 1414.78 2.18546 -2.70431 0
M  V30 14779 H 1414.11 1.89455 -3.52061 0
M  V30 14780 H 1415.55 2.85799 -3.13201 0
M  V30 14781 C 1414.01 2.93845 -1.64794 0
M  V30 14782 O 1414.54 3.87242 -1.06802 0
M  V30 14783 N 1412.74 2.568 -1.36023 0
M  V30 14784 H 1412.29 1.80924 -1.83369 0
M  V30 14785 H 1412.25 3.07486 -0.655741 0
M  V30 14786 N 1416.02 1.56195 0.209972 0
M  V30 14787 C 1417.27 1.80011 0.93402 0
M  V30 14788 C 1417.6 0.635109 1.83521 0
M  V30 14789 O 1416.87 -0.365099 1.91043 0
M  V30 14790 C 1417.16 3.13989 1.76304 0
M  V30 14791 C 1417.01 4.40956 0.887567 0
M  V30 14792 C 1418.33 3.44514 2.73857 0
M  V30 14793 H 1415.45 0.654859 0.338125 0
M  V30 14794 H 1418.09 1.88921 0.20221 0
M  V30 14795 H 1416.24 3.06524 2.38695 0
M  V30 14796 H 1417.91 4.60452 0.279507 0
M  V30 14797 H 1416.15 4.33368 0.193533 0
M  V30 14798 H 1416.83 5.31164 1.50228 0
M  V30 14799 H 1419.3 3.52182 2.216 0
M  V30 14800 H 1418.18 4.39407 3.28957 0
M  V30 14801 H 1418.44 2.6726 3.52171 0
M  V30 14802 N 1417.5 -0.477127 1.50204 0
M  V30 14803 C 1418.46 -1.55824 1.68082 0
M  V30 14804 C 1419.46 -1.51039 0.551719 0
M  V30 14805 O 1420.65 -1.53766 0.818638 0
M  V30 14806 C 1417.78 -2.95462 1.70044 0
M  V30 14807 H 1418.98 -1.41292 2.64531 0
M  V30 14808 H 1416.53 -0.70308 1.39594 0
M  V30 14809 H 1417.26 -3.15445 0.752663 0
M  V30 14810 H 1417.05 -3.00343 2.52065 0
M  V30 14811 H 1418.54 -3.73964 1.85851 0
M  V30 14812 N 1418.98 -1.3968 -0.729882 0
M  V30 14813 C 1419.93 -1.35296 -1.83518 0
M  V30 14814 C 1420.91 -0.232935 -1.59205 0
M  V30 14815 O 1422.1 -0.470887 -1.70621 0
M  V30 14816 C 1419.23 -1.20383 -3.21501 0
M  V30 14817 C 1418.32 -2.37108 -3.51626 0
M  V30 14818 N 1418.71 -3.62585 -3.52655 0
M  V30 14819 C 1417.01 -2.30177 -3.82014 0
M  V30 14820 C 1417.71 -4.39803 -3.8072 0
M  V30 14821 N 1416.68 -3.69456 -3.98752 0
M  V30 14822 H 1420.49 -2.30271 -1.82627 0
M  V30 14823 H 1418 -1.33249 -0.92836 0
M  V30 14824 H 1420 -1.15325 -4.00632 0
M  V30 14825 H 1418.66 -0.263628 -3.23628 0
M  V30 14826 H 1419.67 -3.9594 -3.33845 0
M  V30 14827 H 1416.34 -1.44446 -3.91716 0
M  V30 14828 H 1417.73 -5.4859 -3.87941 0
M  V30 14829 N 1420.45 0.960609 -1.2494 0
M  V30 14830 C 1421.7 1.70701 -1.09495 0
M  V30 14831 C 1422.03 1.90754 0.364214 0
M  V30 14832 O 1421.31 1.47417 1.26879 0
M  V30 14833 C 1421.59 3.09353 -1.84317 0
M  V30 14834 C 1421.44 2.96747 -3.38026 0
M  V30 14835 C 1422.76 4.09139 -1.62153 0
M  V30 14836 H 1419.88 0.61955 -0.399158 0
M  V30 14837 H 1422.52 1.11701 -1.53698 0
M  V30 14838 H 1420.67 3.59719 -1.46746 0
M  V30 14839 H 1422.35 2.53752 -3.85237 0
M  V30 14840 H 1420.59 2.32798 -3.66043 0
M  V30 14841 H 1421.26 3.95002 -3.85587 0
M  V30 14842 H 1423.74 3.67659 -1.94849 0
M  V30 14843 H 1422.61 5.04206 -2.16951 0
M  V30 14844 H 1422.87 4.38521 -0.561437 0
M  V30 14845 N 1421.93 1.0643 1.16234 0
M  V30 14846 C 1422.86 0.697605 2.22836 0
M  V30 14847 C 1423.84 -0.310563 1.67241 0
M  V30 14848 O 1425.03 -0.185385 1.93313 0
M  V30 14849 C 1422.16 0.0847097 3.47197 0
M  V30 14850 C 1421.11 1.019 4.15693 0
M  V30 14851 C 1420.44 0.269339 5.34021 0
M  V30 14852 C 1421.74 2.34861 4.66516 0
M  V30 14853 H 1423.43 1.58883 2.53765 0
M  V30 14854 H 1420.98 0.765388 1.21975 0
M  V30 14855 H 1422.93 -0.1837 4.20999 0
M  V30 14856 H 1421.66 -0.84154 3.15572 0
M  V30 14857 H 1420.31 1.27218 3.43818 0
M  V30 14858 H 1419.96 -0.660072 4.9865 0
M  V30 14859 H 1419.66 0.892001 5.8079 0
M  V30 14860 H 1421.19 0.00850775 6.10599 0
M  V30 14861 H 1422.6 2.13922 5.31893 0
M  V30 14862 H 1421 2.92637 5.23912 0
M  V30 14863 H 1422.07 2.97834 3.82653 0
M  V30 14864 N 1423.41 -1.329 0.847073 0
M  V30 14865 C 1424.34 -2.31546 0.301422 0
M  V30 14866 C 1425.32 -1.59342 -0.595317 0
M  V30 14867 O 1426.51 -1.87188 -0.517151 0
M  V30 14868 C 1423.64 -3.43423 -0.517454 0
M  V30 14869 C 1422.59 -4.27055 0.284195 0
M  V30 14870 C 1421.92 -5.30624 -0.658944 0
M  V30 14871 C 1423.22 -5.00123 1.50578 0
M  V30 14872 H 1424.91 -2.77433 1.12567 0
M  V30 14873 H 1422.46 -1.3338 0.542739 0
M  V30 14874 H 1424.41 -4.11467 -0.909543 0
M  V30 14875 H 1423.13 -2.96246 -1.37499 0
M  V30 14876 H 1421.79 -3.60648 0.657944 0
M  V30 14877 H 1421.44 -4.79702 -1.51311 0
M  V30 14878 H 1421.14 -5.87464 -0.12662 0
M  V30 14879 H 1422.66 -6.01533 -1.04837 0
M  V30 14880 H 1424.08 -5.6089 1.18641 0
M  V30 14881 H 1422.48 -5.66652 1.97549 0
M  V30 14882 H 1423.55 -4.28424 2.27115 0
M  V30 14883 N 1424.89 -0.604284 -1.45555 0
M  V30 14884 C 1425.8 0.118409 -2.34301 0
M  V30 14885 C 1426.81 0.863807 -1.51044 0
M  V30 14886 O 1427.99 0.822138 -1.83856 0
M  V30 14887 C 1425.06 1.10538 -3.28606 0
M  V30 14888 C 1424.12 0.362301 -4.27768 0
M  V30 14889 C 1423.35 1.30226 -5.17568 0
M  V30 14890 O 1423.57 2.53991 -5.10729 0
M  V30 14891 O 1422.51 0.801116 -5.96545 0
M  V30 14892 H 1426.33 -0.610816 -2.97494 0
M  V30 14893 H 1423.92 -0.364562 -1.44884 0
M  V30 14894 H 1425.8 1.67392 -3.86727 0
M  V30 14895 H 1424.47 1.81569 -2.67982 0
M  V30 14896 H 1423.38 -0.248616 -3.73273 0
M  V30 14897 H 1424.71 -0.307454 -4.91239 0
M  V30 14898 N 1426.37 1.53816 -0.343257 0
M  V30 14899 C 1427.61 2.00512 0.252845 0
M  V30 14900 C 1427.94 1.23274 1.51091 0
M  V30 14901 O 1427.21 0.339841 1.9293 0
M  V30 14902 H 1425.79 0.740751 0.0964202 0
M  V30 14903 H 1428.45 1.89288 -0.464347 0
M  V30 14904 H 1427.54 3.08142 0.495499 0
M  V30 14905 N 1427.84 0.0718701 1.57436 0
M  V30 14906 C 1428.77 -0.89288 2.15754 0
M  V30 14907 C 1429.76 -1.31036 1.0846 0
M  V30 14908 O 1430.94 -1.38139 1.36496 0
M  V30 14909 C 1428.07 -2.16044 2.71923 0
M  V30 14910 C 1427.02 -1.88236 3.84384 0
M  V30 14911 C 1426.35 -3.21624 4.27156 0
M  V30 14912 C 1427.65 -1.18758 5.0862 0
M  V30 14913 H 1429.34 -0.407061 2.9662 0
M  V30 14914 H 1426.89 -0.194354 1.42682 0
M  V30 14915 H 1428.84 -2.83952 3.11366 0
M  V30 14916 H 1427.57 -2.66868 1.88279 0
M  V30 14917 H 1426.23 -1.22734 3.45445 0
M  V30 14918 H 1425.87 -3.70289 3.40433 0
M  V30 14919 H 1425.57 -3.03809 5.02965 0
M  V30 14920 H 1427.1 -3.90729 4.69215 0
M  V30 14921 H 1428.51 -1.76735 5.45378 0
M  V30 14922 H 1426.91 -1.11201 5.89707 0
M  V30 14923 H 1427.98 -0.166682 4.84613 0
M  V30 14924 N 1429.32 -1.56304 -0.201686 0
M  V30 14925 C 1430.27 -1.90422 -1.25393 0
M  V30 14926 C 1431.26 -0.769236 -1.41321 0
M  V30 14927 O 1432.45 -1.03199 -1.43802 0
M  V30 14928 C 1429.58 -2.24157 -2.60016 0
M  V30 14929 C 1428.66 -3.44097 -2.47908 0
M  V30 14930 N 1429.05 -4.62185 -2.05471 0
M  V30 14931 C 1427.35 -3.48105 -2.78817 0
M  V30 14932 C 1428.05 -5.44345 -2.05095 0
M  V30 14933 N 1427.03 -4.84576 -2.46346 0
M  V30 14934 H 1430.83 -2.79227 -0.917045 0
M  V30 14935 H 1428.35 -1.57135 -0.410157 0
M  V30 14936 H 1430.34 -2.46782 -3.36012 0
M  V30 14937 H 1429 -1.36676 -2.94533 0
M  V30 14938 H 1430.01 -4.86974 -1.76285 0
M  V30 14939 H 1426.69 -2.71022 -3.17574 0
M  V30 14940 H 1428.08 -6.48914 -1.74242 0
M  V30 14941 N 1430.8 0.469154 -1.50455 0
M  V30 14942 C 1431.75 1.56456 -1.65848 0
M  V30 14943 C 1432.73 1.52501 -0.513048 0
M  V30 14944 O 1433.93 1.59492 -0.767542 0
M  V30 14945 C 1431.06 2.94887 -1.75774 0
M  V30 14946 C 1430.14 3.03719 -2.96 0
M  V30 14947 N 1430.53 2.8236 -4.1965 0
M  V30 14948 C 1428.83 3.34856 -2.94597 0
M  V30 14949 C 1429.53 2.96208 -5.00635 0
M  V30 14950 N 1428.51 3.26494 -4.3463 0
M  V30 14951 H 1432.31 1.38646 -2.59142 0
M  V30 14952 H 1429.82 0.675918 -1.47666 0
M  V30 14953 H 1431.82 3.73652 -1.84905 0
M  V30 14954 H 1430.48 3.13743 -0.836396 0
M  V30 14955 H 1431.49 2.57904 -4.49117 0
M  V30 14956 H 1428.17 3.59687 -2.1197 0
M  V30 14957 H 1429.56 2.83918 -6.08966 0
M  V30 14958 N 1432.28 1.40065 0.722464 0
M  V30 14959 C 1433.21 1.35695 1.84715 0
M  V30 14960 C 1434.22 0.263522 1.60653 0
M  V30 14961 O 1435.41 0.523382 1.70655 0
M  V30 14962 C 1432.51 1.08722 3.20987 0
M  V30 14963 C 1431.69 2.29586 3.72302 0
M  V30 14964 C 1430.74 1.98879 4.87169 0
M  V30 14965 O 1429.77 2.71681 5.00178 0
M  V30 14966 N 1430.97 0.962554 5.72464 0
M  V30 14967 H 1433.74 2.32621 1.88964 0
M  V30 14968 H 1431.3 1.3433 0.903723 0
M  V30 14969 H 1433.29 0.861772 3.95418 0
M  V30 14970 H 1431.86 0.204869 3.11928 0
M  V30 14971 H 1431.08 2.68004 2.8908 0
M  V30 14972 H 1432.37 3.10176 4.03322 0
M  V30 14973 H 1431.77 0.359452 5.64557 0
M  V30 14974 H 1430.32 0.797003 6.46909 0
M  V30 14975 N 1433.76 -0.95397 1.25448 0
M  V30 14976 C 1435.17 -1.22516 1.02284 0
M  V30 14977 C 1435.37 -1.99816 -0.259933 0
M  V30 14978 O 1434.43 -2.33022 -0.972479 0
M  V30 14979 C 1435.74 -1.9989 2.24643 0
M  V30 14980 C 1437.29 -2.1293 2.29412 0
M  V30 14981 C 1437.77 -2.93703 3.51429 0
M  V30 14982 N 1439.26 -3.01281 3.51829 0
M  V30 14983 C 1439.99 -3.64174 4.42905 0
M  V30 14984 N 1439.49 -4.28673 5.44253 0
M  V30 14985 N 1441.28 -3.61321 4.30585 0
M  V30 14986 H 1433.43 -0.436859 2.07859 0
M  V30 14987 H 1435.69 -0.255744 0.912852 0
M  V30 14988 H 1435.4 -1.50489 3.17877 0
M  V30 14989 H 1435.27 -3.00593 2.27868 0
M  V30 14990 H 1437.66 -2.61528 1.367 0
M  V30 14991 H 1437.74 -1.1153 2.30206 0
M  V30 14992 H 1437.39 -2.45795 4.44463 0
M  V30 14993 H 1437.32 -3.95331 3.47881 0
M  V30 14994 H 1439.81 -2.55414 2.78517 0
M  V30 14995 H 1440.12 -4.74522 6.09958 0
M  V30 14996 H 1438.47 -4.27299 5.48125 0
M  V30 14997 H 1441.66 -3.10118 3.50634 0
M  V30 14998 H 1441.83 -4.1005 5.0176 0
M  V30 14999 N 1435.24 -1.07045 -1.15668 0
M  V30 15000 C 1436.65 -0.814932 -1.67975 0
M  V30 15001 C 1437 0.660408 -1.84751 0
M  V30 15002 O 1436.12 1.51156 -1.54857 0
M  V30 15003 C 1436.72 -1.47274 -3.05116 0
M  V30 15004 C 1435.28 -1.26481 -3.54513 0
M  V30 15005 C 1434.42 -1.54439 -2.30312 0
M  V30 15006 H 1437.37 -1.23291 -0.999251 0
M  V30 15007 H 1437.4 -0.892244 -3.69891 0
M  V30 15008 H 1436.91 -2.54649 -2.92874 0
M  V30 15009 H 1435.01 -0.211138 -3.72001 0
M  V30 15010 H 1435.12 -1.98283 -4.36143 0
M  V30 15011 H 1433.49 -0.965269 -2.357 0
M  V30 15012 H 1434.27 -2.6299 -2.20661 0
M  V30 15013 N 1436.71 1.32449 -0.85411 0
M  V30 15014 C 1437.66 2.2889 -0.296341 0
M  V30 15015 C 1438.63 1.55024 0.596378 0
M  V30 15016 O 1439.82 1.8325 0.531406 0
M  V30 15017 C 1436.96 3.41315 0.509729 0
M  V30 15018 C 1436.07 4.30062 -0.40872 0
M  V30 15019 C 1435.2 5.29616 0.409928 0
M  V30 15020 C 1434.24 6.10005 -0.505953 0
M  V30 15021 N 1433.38 7.01559 0.275483 0
M  V30 15022 H 1438.22 2.75989 -1.12401 0
M  V30 15023 H 1435.76 1.35787 -0.565717 0
M  V30 15024 H 1437.71 4.05218 0.992697 0
M  V30 15025 H 1436.34 2.95367 1.30223 0
M  V30 15026 H 1435.4 3.66745 -1.01007 0
M  V30 15027 H 1436.71 4.86255 -1.11165 0
M  V30 15028 H 1435.86 5.99119 0.956083 0
M  V30 15029 H 1434.6 4.74039 1.14623 0
M  V30 15030 H 1433.61 5.39406 -1.064 0
M  V30 15031 H 1434.83 6.67667 -1.24086 0
M  V30 15032 H 1432.78 6.48412 0.994887 0
M  V30 15033 H 1432.69 7.55102 -0.368426 0
M  V30 15034 H 1433.96 7.75349 0.803382 0
M  V30 15035 N 1438.19 0.611994 1.45232 0
M  V30 15036 C 1439.61 0.276005 1.57195 0
M  V30 15037 C 1439.81 -1.22136 1.60266 0
M  V30 15038 O 1438.86 -2.00459 1.53533 0
M  V30 15039 C 1440.18 0.951064 2.85263 0
M  V30 15040 C 1441.72 0.927398 2.98945 0
M  V30 15041 C 1442.2 1.58255 4.2979 0
M  V30 15042 N 1443.69 1.54825 4.36559 0
M  V30 15043 C 1444.43 2.02428 5.3648 0
M  V30 15044 N 1443.92 2.58137 6.42913 0
M  V30 15045 N 1445.71 1.9317 5.27865 0
M  V30 15046 H 1437.87 1.58418 1.41483 0
M  V30 15047 H 1440.13 0.663879 0.676734 0
M  V30 15048 H 1439.83 2.00557 2.88912 0
M  V30 15049 H 1439.71 0.477044 3.74171 0
M  V30 15050 H 1442.1 -0.118571 2.94862 0
M  V30 15051 H 1442.18 1.43973 2.11437 0
M  V30 15052 H 1441.82 2.62787 4.34632 0
M  V30 15053 H 1441.75 1.04521 5.16123 0
M  V30 15054 H 1444.24 1.14133 3.60253 0
M  V30 15055 H 1444.55 2.92243 7.15412 0
M  V30 15056 H 1442.9 2.62179 6.43652 0
M  V30 15057 H 1446.09 1.49384 4.43624 0
M  V30 15058 H 1446.26 2.30582 6.05587 0
M  V30 15059 N 1439.67 -1.53632 0.351409 0
M  V30 15060 C 1440.9 -2.0516 -0.243498 0
M  V30 15061 C 1441.31 -1.22559 -1.44138 0
M  V30 15062 O 1440.65 -0.255726 -1.81911 0
M  V30 15063 C 1440.71 -3.52324 -0.71469 0
M  V30 15064 C 1440.38 -4.55543 0.364598 0
M  V30 15065 C 1441.37 -5.05626 1.20987 0
M  V30 15066 C 1439.06 -4.99593 0.520779 0
M  V30 15067 C 1441.05 -5.98347 2.1968 0
M  V30 15068 C 1438.74 -5.92123 1.51109 0
M  V30 15069 C 1439.74 -6.41389 2.34754 0
M  V30 15070 O 1439.43 -7.32097 3.32098 0
M  V30 15071 H 1439.16 -0.674193 -0.0493948 0
M  V30 15072 H 1441.71 -1.99123 0.503919 0
M  V30 15073 H 1439.94 -3.55852 -1.51348 0
M  V30 15074 H 1441.63 -3.86783 -1.23102 0
M  V30 15075 H 1442.4 -4.72353 1.10033 0
M  V30 15076 H 1438.28 -4.60843 -0.120466 0
M  V30 15077 H 1441.82 -6.36724 2.85005 0
M  V30 15078 H 1437.72 -6.24811 1.62116 0
M  V30 15079 H 1438.48 -7.50053 3.27662 0
M  V30 15080 N 1441.15 -0.0802183 -1.57396 0
M  V30 15081 C 1442.39 0.586962 -1.93807 0
M  V30 15082 C 1442.72 1.69107 -0.960887 0
M  V30 15083 O 1441.98 1.95688 0.0220779 0
M  V30 15084 C 1442.28 1.19551 -3.36812 0
M  V30 15085 C 1441.94 0.216701 -4.50379 0
M  V30 15086 C 1440.6 -0.0525552 -4.81171 0
M  V30 15087 C 1442.96 -0.452467 -5.19232 0
M  V30 15088 C 1440.28 -0.997923 -5.78151 0
M  V30 15089 C 1442.64 -1.38621 -6.17225 0
M  V30 15090 C 1441.3 -1.66385 -6.4643 0
M  V30 15091 H 1440.57 0.214785 -0.709189 0
M  V30 15092 H 1443.22 -0.152888 -1.90889 0
M  V30 15093 H 1441.52 2.01129 -3.36236 0
M  V30 15094 H 1443.22 1.71918 -3.62278 0
M  V30 15095 H 1439.81 0.436747 -4.26369 0
M  V30 15096 H 1443.99 -0.257573 -4.95631 0
M  V30 15097 H 1439.25 -1.22019 -5.991 0
M  V30 15098 H 1443.42 -1.91063 -6.69677 0
M  V30 15099 H 1441.05 -2.39799 -7.21388 0
M  V30 15100 N 1442.63 1.56409 0.193394 0
M  V30 15101 C 1443.85 1.84837 0.929676 0
M  V30 15102 C 1444.27 0.662928 1.76779 0
M  V30 15103 O 1443.63 -0.368339 1.78744 0
M  V30 15104 C 1443.68 3.12083 1.82445 0
M  V30 15105 O 1443.4 4.26056 1.02018 0
M  V30 15106 C 1444.9 3.53701 2.67227 0
M  V30 15107 H 1442.12 0.613766 0.271168 0
M  V30 15108 H 1444.66 2.03518 0.200134 0
M  V30 15109 H 1442.82 2.95294 2.5076 0
M  V30 15110 H 1443.23 4.98526 1.63008 0
M  V30 15111 H 1444.71 4.45699 3.25663 0
M  V30 15112 H 1445.18 2.76771 3.41019 0
M  V30 15113 H 1445.79 3.73027 2.04281 0
M  V30 15114 N 1444.1 -0.461169 1.50702 0
M  V30 15115 C 1445.35 -1.20934 1.61425 0
M  V30 15116 C 1445.67 -1.92884 0.32481 0
M  V30 15117 O 1446.87 -2.69712 0.311081 0
M  V30 15118 C 1445.33 -2.19797 2.84987 0
M  V30 15119 C 1444.94 -1.53604 4.20844 0
M  V30 15120 C 1446.68 -2.95194 3.05059 0
M  V30 15121 C 1444.59 -2.50811 5.35582 0
M  V30 15122 H 1443.52 -0.455088 0.601174 0
M  V30 15123 H 1446.17 -0.478771 1.77144 0
M  V30 15124 H 1444.55 -2.96187 2.62848 0
M  V30 15125 H 1445.72 -0.829345 4.53275 0
M  V30 15126 H 1444.04 -0.904504 4.06457 0
M  V30 15127 H 1446.64 -3.67965 3.87951 0
M  V30 15128 H 1446.98 -3.5516 2.1718 0
M  V30 15129 H 1447.51 -2.25915 3.27425 0
M  V30 15130 H 1444.25 -1.9557 6.25646 0
M  V30 15131 H 1443.77 -3.19604 5.07556 0
M  V30 15132 H 1445.45 -3.12437 5.66561 0
M  V30 15133 N 1445.58 -1.40446 -0.715026 0
M  V30 15134 C 1446.83 -1.3896 -1.47709 0
M  V30 15135 C 1447.16 0.00798698 -1.94198 0
M  V30 15136 O 1446.44 0.976732 -1.68197 0
M  V30 15137 C 1446.72 -2.37955 -2.70277 0
M  V30 15138 C 1446.57 -3.8674 -2.29678 0
M  V30 15139 C 1447.89 -2.34478 -3.72435 0
M  V30 15140 H 1445.01 -0.50607 -0.535782 0
M  V30 15141 H 1447.65 -1.71585 -0.815999 0
M  V30 15142 H 1445.8 -2.10264 -3.26682 0
M  V30 15143 H 1447.47 -4.2526 -1.7875 0
M  V30 15144 H 1445.72 -4.02547 -1.61674 0
M  V30 15145 H 1446.39 -4.51524 -3.17538 0
M  V30 15146 H 1448.86 -2.59007 -3.2566 0
M  V30 15147 H 1447.74 -3.05791 -4.55832 0
M  V30 15148 H 1448 -1.35661 -4.20771 0
M  V30 15149 N 1447.06 0.947303 -1.25952 0
M  V30 15150 C 1448.31 1.68721 -1.10527 0
M  V30 15151 C 1448.62 1.92403 0.352215 0
M  V30 15152 O 1449.83 2.6416 0.627036 0
M  V30 15153 C 1448.28 3.03785 -1.92983 0
M  V30 15154 C 1447.89 2.87873 -3.43268 0
M  V30 15155 C 1449.64 3.81509 -1.86149 0
M  V30 15156 C 1447.54 4.18373 -4.17993 0
M  V30 15157 H 1446.47 0.632774 -0.410016 0
M  V30 15158 H 1449.12 1.054 -1.5021 0
M  V30 15159 H 1447.51 3.68052 -1.46128 0
M  V30 15160 H 1448.68 2.32493 -3.97848 0
M  V30 15161 H 1446.99 2.23598 -3.51273 0
M  V30 15162 H 1449.59 4.78179 -2.39267 0
M  V30 15163 H 1449.93 4.07923 -0.83091 0
M  V30 15164 H 1450.47 3.24005 -2.30794 0
M  V30 15165 H 1447.21 3.97145 -5.21494 0
M  V30 15166 H 1446.73 4.7349 -3.68194 0
M  V30 15167 H 1448.41 4.86869 -4.26108 0
M  V30 15168 N 1448.54 1.07657 1.15099 0
M  V30 15169 C 1449.79 0.796589 1.85303 0
M  V30 15170 C 1450.1 -0.679887 1.83404 0
M  V30 15171 O 1451.31 -1.07475 2.49322 0
M  V30 15172 C 1449.76 1.37495 3.326 0
M  V30 15173 C 1449.37 2.88267 3.42938 0
M  V30 15174 C 1451.11 1.17313 4.07968 0
M  V30 15175 C 1449.02 3.39278 4.84401 0
M  V30 15176 H 1447.95 0.294316 0.694186 0
M  V30 15177 H 1450.6 1.29702 1.29806 0
M  V30 15178 H 1448.98 0.802248 3.87789 0
M  V30 15179 H 1450.16 3.51608 2.9784 0
M  V30 15180 H 1448.47 3.07275 2.81018 0
M  V30 15181 H 1451.07 1.52899 5.12373 0
M  V30 15182 H 1451.41 0.112387 4.16148 0
M  V30 15183 H 1451.95 1.71236 3.59059 0
M  V30 15184 H 1448.69 4.44892 4.81406 0
M  V30 15185 H 1448.21 2.80692 5.30068 0
M  V30 15186 H 1449.88 3.35416 5.53267 0
M  V30 15187 N 1450.02 -1.31994 0.861122 0
M  V30 15188 C 1451.24 -2.01745 0.481013 0
M  V30 15189 C 1451.67 -1.6426 -0.916527 0
M  V30 15190 O 1451.02 -0.846603 -1.60319 0
M  V30 15191 C 1451.07 -3.54963 0.635134 0
M  V30 15192 O 1450.18 -4.11083 -0.329337 0
M  V30 15193 H 1449.52 -0.635499 0.192452 0
M  V30 15194 H 1452.05 -1.68394 1.1621 0
M  V30 15195 H 1452.06 -4.04607 0.525089 0
M  V30 15196 H 1450.73 -3.81587 1.65422 0
M  V30 15197 H 1449.31 -3.72489 -0.174989 0
M  V30 15198 N 1451.49 -0.619688 -1.44906 0
M  V30 15199 C 1452.72 -0.124598 -2.07025 0
M  V30 15200 C 1453.14 1.18698 -1.45919 0
M  V30 15201 O 1452.5 1.72552 -0.556366 0
M  V30 15202 C 1452.55 -0.0112238 -3.60598 0
M  V30 15203 O 1451.65 1.03582 -3.9918 0
M  V30 15204 H 1451 -0.0795631 -0.659216 0
M  V30 15205 H 1453.53 -0.853127 -1.85965 0
M  V30 15206 H 1453.54 0.183079 -4.07589 0
M  V30 15207 H 1452.21 -0.968849 -4.04458 0
M  V30 15208 H 1450.79 0.817008 -3.6384 0
M  V30 15209 N 1452.97 1.53444 -0.359552 0
M  V30 15210 C 1454.2 2.06058 0.235576 0
M  V30 15211 C 1454.62 1.23175 1.42161 0
M  V30 15212 O 1453.98 0.249338 1.79577 0
M  V30 15213 C 1454.03 3.55351 0.613025 0
M  V30 15214 O 1453.13 3.75229 1.71104 0
M  V30 15215 H 1452.47 0.663038 0.0357266 0
M  V30 15216 H 1455 1.97923 -0.518408 0
M  V30 15217 H 1455.01 3.9827 0.885722 0
M  V30 15218 H 1453.69 4.15122 -0.254243 0
M  V30 15219 H 1452.27 3.4421 1.43437 0
M  V30 15220 N 1454.45 0.0885642 1.57351 0
M  V30 15221 C 1455.38 -0.869946 2.16689 0
M  V30 15222 C 1456.36 -1.29878 1.09844 0
M  V30 15223 O 1457.55 -1.36684 1.37954 0
M  V30 15224 C 1454.68 -2.13148 2.74199 0
M  V30 15225 C 1453.63 -1.84149 3.86359 0
M  V30 15226 C 1452.96 -3.17075 4.30543 0
M  V30 15227 C 1454.26 -1.13357 5.09851 0
M  V30 15228 H 1455.95 -0.375578 2.97035 0
M  V30 15229 H 1453.5 -0.17921 1.42881 0
M  V30 15230 H 1455.45 -2.80634 3.14361 0
M  V30 15231 H 1454.17 -2.64856 1.91098 0
M  V30 15232 H 1452.83 -1.19063 3.46727 0
M  V30 15233 H 1452.48 -3.66658 3.44342 0
M  V30 15234 H 1452.18 -2.98457 5.06159 0
M  V30 15235 H 1453.7 -3.85731 4.73333 0
M  V30 15236 H 1455.12 -1.70941 5.47222 0
M  V30 15237 H 1453.52 -1.0494 5.90853 0
M  V30 15238 H 1454.59 -0.115273 4.84763 0
M  V30 15239 N 1455.93 -1.56509 -0.185096 0
M  V30 15240 C 1456.86 -1.98363 -1.23184 0
M  V30 15241 C 1457.84 -0.85709 -1.46929 0
M  V30 15242 O 1459.02 -1.12216 -1.58497 0
M  V30 15243 C 1456.15 -2.33172 -2.57387 0
M  V30 15244 C 1455.11 -3.48658 -2.48236 0
M  V30 15245 C 1454.43 -3.69171 -3.86804 0
M  V30 15246 C 1455.73 -4.82538 -1.99885 0
M  V30 15247 H 1457.43 -2.86053 -0.883982 0
M  V30 15248 H 1454.97 -1.37623 -0.423786 0
M  V30 15249 H 1456.93 -2.61048 -3.30805 0
M  V30 15250 H 1455.65 -1.42377 -2.93933 0
M  V30 15251 H 1454.31 -3.20889 -1.77273 0
M  V30 15252 H 1453.96 -2.75689 -4.20719 0
M  V30 15253 H 1453.66 -4.46868 -3.81553 0
M  V30 15254 H 1455.18 -3.99433 -4.61829 0
M  V30 15255 H 1456.6 -5.0938 -2.63068 0
M  V30 15256 H 1454.99 -5.63775 -2.05614 0
M  V30 15257 H 1456.06 -4.75453 -0.952503 0
M  V30 15258 N 1457.41 0.45317 -1.50944 0
M  V30 15259 C 1458.34 1.55655 -1.74051 0
M  V30 15260 C 1459.32 1.59545 -0.58987 0
M  V30 15261 O 1460.5 1.75526 -0.830922 0
M  V30 15262 C 1457.63 2.93857 -1.85109 0
M  V30 15263 C 1456.59 3.04832 -3.00435 0
M  V30 15264 C 1455.91 4.44858 -2.96657 0
M  V30 15265 C 1457.21 2.80381 -4.40663 0
M  V30 15266 H 1458.91 1.36571 -2.66437 0
M  V30 15267 H 1456.45 0.655572 -1.28212 0
M  V30 15268 H 1458.41 3.70992 -1.99857 0
M  V30 15269 H 1457.13 3.14138 -0.893579 0
M  V30 15270 H 1455.79 2.30134 -2.85366 0
M  V30 15271 H 1455.44 4.62083 -1.98716 0
M  V30 15272 H 1455.14 4.53134 -3.7409 0
M  V30 15273 H 1456.66 5.23989 -3.13478 0
M  V30 15274 H 1458.07 3.47255 -4.56165 0
M  V30 15275 H 1456.47 3.00083 -5.19683 0
M  V30 15276 H 1457.54 1.76099 -4.51793 0
M  V30 15277 N 1458.88 1.40823 0.707568 0
M  V30 15278 C 1460.13 1.39259 1.46463 0
M  V30 15279 C 1460.45 -0.00157854 1.95 0
M  V30 15280 O 1459.72 -0.957723 1.70893 0
M  V30 15281 H 1458.3 0.512558 0.543409 0
M  V30 15282 H 1460.97 1.75952 0.838269 0
M  V30 15283 H 1460.06 2.07243 2.3336 0
M  V30 15284 N 1460.36 -0.94061 1.26453 0
M  V30 15285 C 1461.29 -2.05667 1.10559 0
M  V30 15286 C 1462.27 -1.70097 0.0106258 0
M  V30 15287 O 1463.46 -1.93338 0.182756 0
M  V30 15288 C 1460.59 -3.3936 0.7384 0
M  V30 15289 C 1459.54 -3.88993 1.78517 0
M  V30 15290 C 1458.87 -5.19343 1.27228 0
M  V30 15291 C 1460.17 -4.13812 3.1868 0
M  V30 15292 H 1461.86 -2.19221 2.03918 0
M  V30 15293 H 1459.41 -1.05339 0.98182 0
M  V30 15294 H 1461.36 -4.16902 0.61409 0
M  V30 15295 H 1460.09 -3.25783 -0.230887 0
M  V30 15296 H 1458.74 -3.13633 1.89816 0
M  V30 15297 H 1458.39 -5.02147 0.292816 0
M  V30 15298 H 1458.09 -5.53521 1.97201 0
M  V30 15299 H 1459.62 -5.99468 1.16065 0
M  V30 15300 H 1461.03 -4.81966 3.10455 0
M  V30 15301 H 1459.43 -4.59273 3.86249 0
M  V30 15302 H 1460.5 -3.19571 3.64695 0
M  V30 15303 N 1461.84 -1.08266 -1.14527 0
M  V30 15304 C 1463.09 -0.806405 -1.84878 0
M  V30 15305 C 1463.4 0.670151 -1.83762 0
M  V30 15306 O 1464.61 1.06151 -2.49888 0
M  V30 15307 C 1463.06 -1.39257 -3.31867 0
M  V30 15308 C 1462.67 -2.90081 -3.41404 0
M  V30 15309 C 1464.42 -1.19475 -4.0734 0
M  V30 15310 C 1462.32 -3.41842 -4.82595 0
M  V30 15311 H 1461.25 -0.297993 -0.692615 0
M  V30 15312 H 1463.9 -1.30389 -1.29116 0
M  V30 15313 H 1462.29 -0.822802 -3.87358 0
M  V30 15314 H 1463.46 -3.53182 -2.95971 0
M  V30 15315 H 1461.78 -3.08761 -2.79385 0
M  V30 15316 H 1464.37 -1.55614 -5.11555 0
M  V30 15317 H 1464.72 -0.134455 -4.16083 0
M  V30 15318 H 1465.25 -1.73138 -3.58145 0
M  V30 15319 H 1461.99 -4.47439 -4.79039 0
M  V30 15320 H 1461.51 -2.835 -5.28572 0
M  V30 15321 H 1463.19 -3.38346 -5.51481 0
M  V30 15322 N 1463.32 1.31536 -0.86811 0
M  V30 15323 C 1464.57 1.97066 -0.478829 0
M  V30 15324 C 1464.9 1.68469 0.966021 0
M  V30 15325 O 1464.17 0.980166 1.67997 0
M  V30 15326 C 1464.46 3.52533 -0.734313 0
M  V30 15327 C 1464.31 3.90711 -2.22856 0
M  V30 15328 C 1465.63 4.39647 -0.199559 0
M  V30 15329 H 1462.75 0.715813 -0.175444 0
M  V30 15330 H 1465.39 1.55694 -1.08901 0
M  V30 15331 H 1463.54 3.87905 -0.214962 0
M  V30 15332 H 1465.21 3.65451 -2.81502 0
M  V30 15333 H 1463.45 3.39385 -2.70185 0
M  V30 15334 H 1464.13 4.99103 -2.35797 0
M  V30 15335 H 1466.6 4.11088 -0.643853 0
M  V30 15336 H 1465.48 5.47383 -0.407783 0
M  V30 15337 H 1465.74 4.32875 0.898414 0
M  V30 15338 N 1464.8 0.627364 1.44575 0
M  V30 15339 C 1465.73 -0.066735 2.33405 0
M  V30 15340 C 1466.71 -0.838666 1.47988 0
M  V30 15341 O 1467.89 -0.805296 1.76716 0
M  V30 15342 C 1465.02 -1.05148 3.31 0
M  V30 15343 C 1463.98 -0.391433 4.26206 0
M  V30 15344 C 1463.3 -1.48581 5.13642 0
M  V30 15345 C 1464.6 0.699942 5.17589 0
M  V30 15346 H 1466.3 0.675029 2.91691 0
M  V30 15347 H 1463.84 0.326066 1.4026 0
M  V30 15348 H 1465.8 -1.54576 3.92026 0
M  V30 15349 H 1464.52 -1.82408 2.70915 0
M  V30 15350 H 1463.18 0.0821694 3.66508 0
M  V30 15351 H 1462.83 -2.2492 4.49911 0
M  V30 15352 H 1462.53 -1.04957 5.7815 0
M  V30 15353 H 1464.05 -1.98198 5.77538 0
M  V30 15354 H 1465.47 0.288911 5.72572 0
M  V30 15355 H 1463.86 1.0591 5.9068 0
M  V30 15356 H 1464.93 1.5686 4.58828 0
M  V30 15357 N 1466.28 -1.53251 0.367684 0
M  V30 15358 C 1467.21 -2.28728 -0.469676 0
M  V30 15359 C 1468.19 -1.3124 -1.08213 0
M  V30 15360 O 1469.37 -1.60112 -1.09898 0
M  V30 15361 C 1466.5 -3.07808 -1.60846 0
M  V30 15362 C 1465.46 -4.13 -1.12315 0
M  V30 15363 C 1464.78 -4.80176 -2.35234 0
M  V30 15364 C 1466.08 -5.21892 -0.2064 0
M  V30 15365 H 1467.78 -2.98972 0.160019 0
M  V30 15366 H 1465.32 -1.43786 0.0784011 0
M  V30 15367 H 1467.27 -3.59358 -2.20091 0
M  V30 15368 H 1466 -2.35258 -2.26542 0
M  V30 15369 H 1464.66 -3.62399 -0.553378 0
M  V30 15370 H 1464.31 -4.04196 -2.99391 0
M  V30 15371 H 1464.01 -5.51261 -2.03433 0
M  V30 15372 H 1465.53 -5.34521 -2.9516 0
M  V30 15373 H 1466.94 -5.68932 -0.706386 0
M  V30 15374 H 1465.34 -6.00096 0.0208362 0
M  V30 15375 H 1466.41 -4.79051 0.750851 0
M  V30 15376 N 1467.75 -0.0969077 -1.57302 0
M  V30 15377 C 1468.68 0.858443 -2.17147 0
M  V30 15378 C 1469.66 1.29294 -1.10531 0
M  V30 15379 O 1470.85 1.3595 -1.38676 0
M  V30 15380 C 1467.98 2.11691 -2.75326 0
M  V30 15381 C 1466.93 1.82097 -3.8733 0
M  V30 15382 C 1466.26 3.14787 -4.32219 0
M  V30 15383 C 1467.56 1.10651 -5.10444 0
M  V30 15384 H 1469.25 0.35982 -2.9723 0
M  V30 15385 H 1466.8 0.17163 -1.42974 0
M  V30 15386 H 1468.75 2.78963 -3.15844 0
M  V30 15387 H 1467.48 2.63839 -1.925 0
M  V30 15388 H 1466.14 1.17222 -3.47354 0
M  V30 15389 H 1465.78 3.64826 -3.46281 0
M  V30 15390 H 1465.48 2.95769 -5.07735 0
M  V30 15391 H 1467.01 3.83215 -4.75372 0
M  V30 15392 H 1468.42 1.68036 -5.48121 0
M  V30 15393 H 1466.82 1.01805 -5.91401 0
M  V30 15394 H 1467.89 0.0895634 -4.84817 0
M  V30 15395 N 1469.23 1.56605 0.176793 0
M  V30 15396 C 1470.48 1.80875 0.892578 0
M  V30 15397 C 1470.79 0.673245 1.83648 0
M  V30 15398 O 1472 0.800732 2.59423 0
M  V30 15399 C 1470.46 3.20481 1.63768 0
M  V30 15400 C 1470.06 4.41885 0.737685 0
M  V30 15401 C 1471.81 3.54048 2.34202 0
M  V30 15402 C 1469.71 5.72512 1.48271 0
M  V30 15403 H 1468.64 0.674476 0.337042 0
M  V30 15404 H 1471.3 1.82922 0.145574 0
M  V30 15405 H 1469.68 3.12736 2.42924 0
M  V30 15406 H 1470.85 4.60797 -0.0165186 0
M  V30 15407 H 1469.17 4.16153 0.143277 0
M  V30 15408 H 1471.76 4.48886 2.90526 0
M  V30 15409 H 1472.11 2.78665 3.09276 0
M  V30 15410 H 1472.64 3.63322 1.61995 0
M  V30 15411 H 1469.38 6.5091 0.774399 0
M  V30 15412 H 1468.9 5.57586 2.21038 0
M  V30 15413 H 1470.58 6.14274 2.03165 0
M  V30 15414 N 1470.71 -0.445159 1.51182 0
M  V30 15415 C 1471.93 -1.22249 1.67541 0
M  V30 15416 C 1472.36 -1.84446 0.368972 0
M  V30 15417 O 1471.72 -1.68463 -0.670058 0
M  V30 15418 C 1471.77 -2.288 2.78717 0
M  V30 15419 O 1470.87 -3.34094 2.41775 0
M  V30 15420 H 1470.21 -0.358516 0.558894 0
M  V30 15421 H 1472.74 -0.526696 1.97704 0
M  V30 15422 H 1472.75 -2.73708 3.02569 0
M  V30 15423 H 1471.43 -1.82906 3.73521 0
M  V30 15424 H 1470 -2.94717 2.28466 0
M  V30 15425 N 1472.19 -1.41197 -0.700089 0
M  V30 15426 C 1473.42 -1.43449 -1.4868 0
M  V30 15427 C 1473.83 -0.0368799 -1.89164 0
M  V30 15428 O 1473.17 0.953129 -1.57039 0
M  V30 15429 C 1473.23 -2.27583 -2.78291 0
M  V30 15430 C 1472.89 -3.75805 -2.60038 0
M  V30 15431 C 1473.89 -4.68074 -2.2628 0
M  V30 15432 C 1471.58 -4.19796 -2.75819 0
M  V30 15433 C 1473.57 -6.02322 -2.08535 0
M  V30 15434 C 1471.26 -5.5411 -2.57692 0
M  V30 15435 C 1472.26 -6.45189 -2.24099 0
M  V30 15436 O 1471.94 -7.77025 -2.06125 0
M  V30 15437 H 1471.68 -0.490779 -0.464879 0
M  V30 15438 H 1474.23 -1.86071 -0.869864 0
M  V30 15439 H 1472.46 -1.79767 -3.42375 0
M  V30 15440 H 1474.15 -2.21591 -3.40077 0
M  V30 15441 H 1474.91 -4.35379 -2.13707 0
M  V30 15442 H 1470.79 -3.49213 -3.0095 0
M  V30 15443 H 1474.34 -6.73376 -1.82238 0
M  V30 15444 H 1470.23 -5.86386 -2.69854 0
M  V30 15445 H 1471 -7.88121 -2.20924 0
M  V30 15446 N 1473.67 0.933891 -1.2695 0
M  V30 15447 C 1474.91 1.6834 -1.13091 0
M  V30 15448 C 1475.24 1.91484 0.32367 0
M  V30 15449 O 1474.52 1.50075 1.23724 0
M  V30 15450 C 1474.8 3.05374 -1.90838 0
M  V30 15451 C 1474.66 2.8951 -3.44244 0
M  V30 15452 C 1475.97 4.05607 -1.70795 0
M  V30 15453 H 1473.09 0.610944 -0.41221 0
M  V30 15454 H 1475.74 1.08416 -1.56032 0
M  V30 15455 H 1473.89 3.56526 -1.54343 0
M  V30 15456 H 1475.56 2.45523 -3.90533 0
M  V30 15457 H 1473.8 2.24981 -3.70899 0
M  V30 15458 H 1474.47 3.86734 -3.93879 0
M  V30 15459 H 1476.95 3.63443 -2.02604 0
M  V30 15460 H 1475.82 4.9949 -2.27597 0
M  V30 15461 H 1476.08 4.37231 -0.654327 0
M  V30 15462 N 1475.14 1.08871 1.13951 0
M  V30 15463 C 1476.08 0.666975 2.18235 0
M  V30 15464 C 1477.05 -0.323664 1.59346 0
M  V30 15465 O 1478.24 -0.226394 1.87136 0
M  V30 15466 C 1475.37 -0.018268 3.38695 0
M  V30 15467 C 1474.41 0.933273 4.16164 0
M  V30 15468 S 1475.24 2.44241 4.76557 0
M  V30 15469 C 1476.4 1.76941 6.00369 0
M  V30 15470 H 1476.63 1.55042 2.53672 0
M  V30 15471 H 1474.17 0.904149 1.25158 0
M  V30 15472 H 1476.12 -0.407339 4.08474 0
M  V30 15473 H 1474.79 -0.878272 3.01571 0
M  V30 15474 H 1473.98 0.400793 5.02404 0
M  V30 15475 H 1473.58 1.26347 3.52012 0
M  V30 15476 H 1475.87 1.09012 6.68672 0
M  V30 15477 H 1476.82 2.61074 6.58214 0
M  V30 15478 H 1477.22 1.24075 5.50696 0
M  V30 15479 N 1476.62 -1.31073 0.875073 0
M  V30 15480 C 1477.87 -1.97194 0.498612 0
M  V30 15481 C 1478.22 -1.67884 -0.939819 0
M  V30 15482 O 1477.52 -0.967708 -1.65366 0
M  V30 15483 C 1477.71 -3.50511 0.698351 0
M  V30 15484 C 1477.54 -3.94722 2.15465 0
M  V30 15485 C 1476.31 -4.2081 2.79726 0
M  V30 15486 C 1478.51 -4.08283 3.12745 0
M  V30 15487 N 1476.49 -4.51411 4.16055 0
M  V30 15488 C 1477.86 -4.42653 4.34117 0
M  V30 15489 C 1479.91 -3.90678 3.08667 0
M  V30 15490 C 1478.62 -4.61255 5.51939 0
M  V30 15491 C 1480.64 -4.10476 4.25751 0
M  V30 15492 C 1480.01 -4.45182 5.45887 0
M  V30 15493 H 1476.1 -0.74692 0.231592 0
M  V30 15494 H 1478.69 -1.585 1.13074 0
M  V30 15495 H 1476.86 -3.88282 0.0957804 0
M  V30 15496 H 1478.59 -4.03661 0.289771 0
M  V30 15497 H 1475.35 -4.13641 2.30648 0
M  V30 15498 H 1475.77 -4.70862 4.86434 0
M  V30 15499 H 1480.41 -3.6293 2.16892 0
M  V30 15500 H 1478.13 -4.8785 6.44227 0
M  V30 15501 H 1481.72 -3.98334 4.24054 0
M  V30 15502 H 1480.6 -4.60189 6.34977 0
M  V30 15503 N 1478.1 -0.635022 -1.4424 0
M  V30 15504 C 1479.05 0.0675707 -2.30701 0
M  V30 15505 C 1480.02 0.832919 -1.43707 0
M  V30 15506 O 1481.2 0.813177 -1.72604 0
M  V30 15507 C 1478.34 1.04053 -3.2904 0
M  V30 15508 C 1477.46 0.273191 -4.31135 0
M  V30 15509 C 1476.59 1.23831 -5.16565 0
M  V30 15510 C 1475.63 0.460359 -6.10366 0
M  V30 15511 N 1474.77 1.37614 -6.88481 0
M  V30 15512 H 1479.61 -0.675656 -2.90239 0
M  V30 15513 H 1477.14 -0.344971 -1.42998 0
M  V30 15514 H 1479.1 1.61805 -3.84545 0
M  V30 15515 H 1477.73 1.75084 -2.71193 0
M  V30 15516 H 1476.78 -0.420315 -3.78071 0
M  V30 15517 H 1478.1 -0.332548 -4.9769 0
M  V30 15518 H 1477.25 1.88704 -5.76607 0
M  V30 15519 H 1475.99 1.87797 -4.50093 0
M  V30 15520 H 1474.99 -0.201836 -5.49429 0
M  V30 15521 H 1476.22 -0.174639 -6.78875 0
M  V30 15522 H 1474.16 2.00294 -6.24675 0
M  V30 15523 H 1474.08 0.82452 -7.5149 0
M  V30 15524 H 1475.35 2.01359 -7.53044 0
M  V30 15525 N 1479.58 1.53054 -0.375806 0
M  V30 15526 C 1480.54 2.24666 0.453608 0
M  V30 15527 C 1481.54 1.25816 1.00135 0
M  V30 15528 O 1482.73 1.50016 0.885481 0
M  V30 15529 C 1479.86 2.99131 1.63503 0
M  V30 15530 H 1481.06 2.994 -0.173172 0
M  V30 15531 H 1478.61 1.55778 -0.127673 0
M  V30 15532 H 1479.34 2.28666 2.29962 0
M  V30 15533 H 1479.13 3.71671 1.24913 0
M  V30 15534 H 1480.62 3.53542 2.22256 0
M  V30 15535 N 1481.06 0.105248 1.57248 0
M  V30 15536 C 1482.3 -0.554956 1.94331 0
M  V30 15537 C 1482.63 -1.68087 0.988528 0
M  V30 15538 O 1481.9 -1.95854 0.042366 0
M  V30 15539 H 1480.48 -0.207994 0.717459 0
M  V30 15540 H 1483.14 0.170964 1.94149 0
M  V30 15541 H 1482.23 -0.95853 2.97016 0
M  V30 15542 N 1482.53 -1.56697 -0.168486 0
M  V30 15543 C 1483.78 -1.82154 -0.884654 0
M  V30 15544 C 1484.11 -0.682778 -1.82122 0
M  V30 15545 O 1483.36 0.32977 -1.92902 0
M  V30 15546 C 1483.66 -3.138 -1.71068 0
M  V30 15547 C 1483.33 -4.41356 -0.922793 0
M  V30 15548 C 1481.99 -4.76002 -0.705352 0
M  V30 15549 C 1484.34 -5.19883 -0.370323 0
M  V30 15550 C 1481.67 -5.86651 0.0756121 0
M  V30 15551 C 1484.02 -6.31349 0.397568 0
M  V30 15552 C 1482.69 -6.6456 0.625782 0
M  V30 15553 H 1481.96 -0.666549 -0.323718 0
M  V30 15554 H 1484.6 -1.90916 -0.149432 0
M  V30 15555 H 1482.91 -3.00393 -2.51538 0
M  V30 15556 H 1484.61 -3.30708 -2.2679 0
M  V30 15557 H 1481.2 -4.14182 -1.10231 0
M  V30 15558 H 1485.38 -4.93509 -0.525646 0
M  V30 15559 H 1480.64 -6.10838 0.262137 0
M  V30 15560 H 1484.81 -6.91401 0.832902 0
M  V30 15561 H 1482.44 -7.50137 1.23281 0
M  V30 15562 N 1484.01 0.437135 -1.51416 0
M  V30 15563 C 1485.26 1.18655 -1.64095 0
M  V30 15564 C 1485.59 1.9119 -0.35728 0
M  V30 15565 O 1484.84 1.84283 0.658644 0
M  V30 15566 C 1485.14 2.22795 -2.79458 0
M  V30 15567 C 1484.81 1.67271 -4.18726 0
M  V30 15568 C 1483.47 1.51852 -4.56612 0
M  V30 15569 C 1485.82 1.26448 -5.05629 0
M  V30 15570 C 1483.15 0.940834 -5.79107 0
M  V30 15571 C 1485.5 0.701095 -6.28703 0
M  V30 15572 C 1484.17 0.533801 -6.65362 0
M  V30 15573 H 1483.44 0.434191 -0.600466 0
M  V30 15574 H 1486.08 0.477592 -1.85449 0
M  V30 15575 H 1484.39 2.99731 -2.52327 0
M  V30 15576 H 1486.08 2.80602 -2.86467 0
M  V30 15577 H 1482.67 1.80249 -3.88855 0
M  V30 15578 H 1486.86 1.37182 -4.76964 0
M  V30 15579 H 1482.11 0.798982 -6.06157 0
M  V30 15580 H 1486.29 0.37626 -6.95383 0
M  V30 15581 H 1483.92 0.0840431 -7.60154 0
M  V30 15582 N 1485.49 1.41566 0.692592 0
M  V30 15583 C 1486.44 1.43648 1.80648 0
M  V30 15584 C 1487.41 0.290497 1.6354 0
M  V30 15585 O 1488.59 0.491979 1.84348 0
M  V30 15586 C 1485.73 1.32733 3.18553 0
M  V30 15587 C 1484.85 2.57224 3.47073 0
M  V30 15588 C 1483.98 2.38581 4.74608 0
M  V30 15589 C 1483.02 3.58534 4.96105 0
M  V30 15590 N 1482.16 3.38942 6.14868 0
M  V30 15591 H 1487 2.38847 1.78203 0
M  V30 15592 H 1484.53 1.186 0.870193 0
M  V30 15593 H 1486.49 1.24405 3.9822 0
M  V30 15594 H 1485.12 0.411407 3.20168 0
M  V30 15595 H 1484.17 2.7599 2.6179 0
M  V30 15596 H 1485.49 3.46443 3.58858 0
M  V30 15597 H 1484.64 2.27738 5.62335 0
M  V30 15598 H 1483.38 1.46824 4.65074 0
M  V30 15599 H 1482.38 3.69828 4.06826 0
M  V30 15600 H 1483.61 4.51248 5.07496 0
M  V30 15601 H 1481.55 2.49887 6.06541 0
M  V30 15602 H 1481.47 4.21737 6.27434 0
M  V30 15603 H 1482.74 3.31877 7.05321 0
M  V30 15604 N 1486.97 -0.927146 1.27443 0
M  V30 15605 C 1488.38 -1.20319 1.0486 0
M  V30 15606 C 1488.58 -2.00323 -0.217491 0
M  V30 15607 O 1487.64 -2.35032 -0.922833 0
M  V30 15608 C 1488.95 -1.9508 2.28833 0
M  V30 15609 C 1490.5 -2.08016 2.33877 0
M  V30 15610 C 1490.98 -2.86183 3.5758 0
M  V30 15611 N 1492.47 -2.93751 3.58141 0
M  V30 15612 C 1493.2 -3.54698 4.5053 0
M  V30 15613 N 1492.7 -4.17032 5.53223 0
M  V30 15614 N 1494.49 -3.52107 4.38152 0
M  V30 15615 H 1486.64 -0.392671 2.08739 0
M  V30 15616 H 1488.91 -0.236323 0.918072 0
M  V30 15617 H 1488.61 -1.43712 3.20998 0
M  V30 15618 H 1488.49 -2.95692 2.34193 0
M  V30 15619 H 1490.87 -2.5857 1.42217 0
M  V30 15620 H 1490.95 -1.06622 2.3252 0
M  V30 15621 H 1490.6 -2.36312 4.49576 0
M  V30 15622 H 1490.53 -3.87863 3.56188 0
M  V30 15623 H 1493.02 -2.49449 2.83872 0
M  V30 15624 H 1493.33 -4.61477 6.19886 0
M  V30 15625 H 1491.68 -4.15576 5.57065 0
M  V30 15626 H 1494.87 -3.02611 3.57134 0
M  V30 15627 H 1495.04 -3.99315 5.10344 0
M  V30 15628 N 1488.45 -1.09474 -1.13372 0
M  V30 15629 C 1489.38 -0.692446 -2.1849 0
M  V30 15630 C 1490.39 0.265942 -1.60613 0
M  V30 15631 O 1491.58 0.0519189 -1.78424 0
M  V30 15632 C 1488.68 0.000306083 -3.389 0
M  V30 15633 C 1487.85 -0.979745 -4.26286 0
M  V30 15634 C 1486.91 -0.320309 -5.25224 0
M  V30 15635 O 1485.94 -0.968089 -5.60907 0
M  V30 15636 N 1487.14 0.92536 -5.73077 0
M  V30 15637 H 1489.91 -1.59681 -2.53618 0
M  V30 15638 H 1487.47 -0.982256 -1.28699 0
M  V30 15639 H 1489.46 0.45268 -4.0216 0
M  V30 15640 H 1488.03 0.806927 -3.02006 0
M  V30 15641 H 1487.25 -1.61067 -3.59793 0
M  V30 15642 H 1488.54 -1.64348 -4.81526 0
M  V30 15643 H 1487.93 1.47119 -5.46235 0
M  V30 15644 H 1486.49 1.32105 -6.38272 0
M  V30 15645 N 1489.92 1.30607 -0.882012 0
M  V30 15646 C 1491.15 2.00128 -0.51307 0
M  V30 15647 C 1491.56 1.66307 0.902144 0
M  V30 15648 O 1490.91 0.894797 1.60434 0
M  V30 15649 C 1490.97 3.5438 -0.604547 0
M  V30 15650 C 1490.63 4.1171 -1.98354 0
M  V30 15651 C 1491.63 4.27924 -2.95257 0
M  V30 15652 C 1489.31 4.47158 -2.28812 0
M  V30 15653 C 1491.31 4.78795 -4.20755 0
M  V30 15654 C 1488.99 4.97728 -3.54556 0
M  V30 15655 C 1489.99 5.13499 -4.50342 0
M  V30 15656 O 1489.68 5.62978 -5.73856 0
M  V30 15657 H 1489.41 0.646608 -0.197165 0
M  V30 15658 H 1491.97 1.67532 -1.18837 0
M  V30 15659 H 1490.2 3.86489 0.127719 0
M  V30 15660 H 1491.89 4.05146 -0.247308 0
M  V30 15661 H 1492.65 4.00844 -2.73037 0
M  V30 15662 H 1488.53 4.34152 -1.55026 0
M  V30 15663 H 1492.07 4.91019 -4.95526 0
M  V30 15664 H 1487.97 5.24244 -3.76615 0
M  V30 15665 H 1488.74 5.81326 -5.76196 0
M  V30 15666 N 1491.4 0.642663 1.43901 0
M  V30 15667 C 1492.35 -0.0553351 2.30734 0
M  V30 15668 C 1493.32 -0.825286 1.44147 0
M  V30 15669 O 1494.5 -0.804012 1.73033 0
M  V30 15670 C 1491.64 -1.02306 3.29587 0
M  V30 15671 C 1490.76 -0.250323 4.31274 0
M  V30 15672 C 1489.89 -1.2109 5.17214 0
M  V30 15673 C 1488.93 -0.427984 6.10602 0
M  V30 15674 N 1488.07 -1.33961 6.89202 0
M  V30 15675 H 1492.91 0.691038 2.89877 0
M  V30 15676 H 1490.45 0.352549 1.42813 0
M  V30 15677 H 1492.4 -1.59763 3.85398 0
M  V30 15678 H 1491.03 -1.73643 2.72117 0
M  V30 15679 H 1490.09 0.440359 3.77843 0
M  V30 15680 H 1491.4 0.358937 4.97507 0
M  V30 15681 H 1490.55 -1.85644 5.776 0
M  V30 15682 H 1489.29 -1.85408 4.51082 0
M  V30 15683 H 1488.3 0.230971 5.49315 0
M  V30 15684 H 1489.52 0.210639 6.78773 0
M  V30 15685 H 1487.47 -1.96978 6.25728 0
M  V30 15686 H 1487.38 -0.784655 7.51917 0
M  V30 15687 H 1488.65 -1.97363 7.54101 0
M  V30 15688 N 1492.88 -1.52852 0.383918 0
M  V30 15689 C 1494.11 -2.06406 -0.202764 0
M  V30 15690 C 1494.53 -1.25421 -1.40183 0
M  V30 15691 O 1493.89 -0.277876 -1.79158 0
M  V30 15692 C 1493.94 -3.56281 -0.556414 0
M  V30 15693 O 1493.04 -3.77904 -1.65113 0
M  V30 15694 H 1492.38 -0.663523 -0.0251737 0
M  V30 15695 H 1494.91 -1.97074 0.54983 0
M  V30 15696 H 1494.92 -3.99629 -0.822249 0
M  V30 15697 H 1493.6 -4.14665 0.320253 0
M  V30 15698 H 1492.17 -3.46448 -1.37943 0
M  V30 15699 N 1494.36 -0.113586 -1.5719 0
M  V30 15700 C 1495.61 0.545507 -1.94183 0
M  V30 15701 C 1495.92 1.68176 -0.998816 0
M  V30 15702 O 1497.13 2.40324 -1.26319 0
M  V30 15703 C 1495.58 1.02178 -3.45091 0
M  V30 15704 C 1495.19 -0.0857195 -4.47918 0
M  V30 15705 C 1496.94 1.65255 -3.91013 0
M  V30 15706 C 1494.84 0.406946 -5.89998 0
M  V30 15707 H 1493.77 0.20755 -0.724872 0
M  V30 15708 H 1496.42 -0.192567 -1.82487 0
M  V30 15709 H 1494.81 1.81411 -3.52003 0
M  V30 15710 H 1495.98 -0.861821 -4.52669 0
M  V30 15711 H 1494.29 -0.622816 -4.11716 0
M  V30 15712 H 1496.89 2.0322 -4.94576 0
M  V30 15713 H 1497.23 2.52888 -3.30687 0
M  V30 15714 H 1497.77 0.925727 -3.86879 0
M  V30 15715 H 1494.51 -0.433199 -6.54067 0
M  V30 15716 H 1494.03 1.14965 -5.88679 0
M  V30 15717 H 1495.71 0.869934 -6.41125 0
M  V30 15718 N 1495.84 1.56784 0.160173 0
M  V30 15719 C 1496.77 2.00298 1.20012 0
M  V30 15720 C 1497.75 0.880356 1.45546 0
M  V30 15721 O 1498.93 1.14724 1.56691 0
M  V30 15722 C 1496.06 2.37238 2.53645 0
M  V30 15723 C 1495.02 3.52563 2.42658 0
M  V30 15724 C 1494.34 3.75278 3.80881 0
M  V30 15725 C 1495.64 4.85657 1.92183 0
M  V30 15726 H 1497.34 2.87423 0.838362 0
M  V30 15727 H 1494.88 1.3828 0.401838 0
M  V30 15728 H 1496.84 2.66278 3.2661 0
M  V30 15729 H 1495.56 1.47035 2.9163 0
M  V30 15730 H 1494.22 3.23669 1.72146 0
M  V30 15731 H 1493.87 2.82347 4.1628 0
M  V30 15732 H 1493.57 4.52882 3.74396 0
M  V30 15733 H 1495.09 4.0673 4.55415 0
M  V30 15734 H 1496.51 5.13501 2.54931 0
M  V30 15735 H 1494.9 5.66975 1.96619 0
M  V30 15736 H 1495.97 4.76908 0.876742 0
M  V30 15737 N 1497.32 -0.429099 1.51646 0
M  V30 15738 C 1498.25 -1.53996 1.69758 0
M  V30 15739 C 1499.26 -1.52189 0.578138 0
M  V30 15740 O 1500.45 -1.56816 0.852709 0
M  V30 15741 C 1497.55 -2.9291 1.7046 0
M  V30 15742 C 1496.72 -3.19132 2.99122 0
M  V30 15743 C 1495.78 -4.37813 2.91901 0
M  V30 15744 O 1494.81 -4.36065 3.65836 0
M  V30 15745 N 1496.01 -5.41834 2.08317 0
M  V30 15746 H 1498.77 -1.38861 2.65589 0
M  V30 15747 H 1496.34 -0.618148 1.49635 0
M  V30 15748 H 1498.33 -3.7034 1.63187 0
M  V30 15749 H 1496.9 -3.01602 0.821877 0
M  V30 15750 H 1496.12 -2.29926 3.20199 0
M  V30 15751 H 1497.41 -3.33483 3.84274 0
M  V30 15752 H 1496.8 -5.46094 1.4764 0
M  V30 15753 H 1495.36 -6.18085 2.06917 0
M  V30 15754 N 1498.79 -1.41931 -0.685074 0
M  V30 15755 C 1499.7 -1.46985 -1.82846 0
M  V30 15756 C 1500.72 -0.359487 -1.70246 0
M  V30 15757 O 1501.9 -0.608824 -1.91977 0
M  V30 15758 C 1498.96 -1.36001 -3.18912 0
M  V30 15759 C 1498.02 -2.57442 -3.43543 0
M  V30 15760 C 1497.25 -2.46972 -4.73118 0
M  V30 15761 O 1497.48 -1.49999 -5.50324 0
M  V30 15762 O 1496.41 -3.36922 -4.98766 0
M  V30 15763 H 1500.24 -2.4347 -1.81538 0
M  V30 15764 H 1497.82 -1.23583 -0.839497 0
M  V30 15765 H 1499.7 -1.32198 -4.00127 0
M  V30 15766 H 1498.38 -0.426366 -3.2088 0
M  V30 15767 H 1497.29 -2.66821 -2.62217 0
M  V30 15768 H 1498.62 -3.49671 -3.46398 0
M  V30 15769 N 1500.27 0.920374 -1.27933 0
M  V30 15770 C 1501.18 2.05525 -1.13123 0
M  V30 15771 C 1502.2 1.73899 -0.059421 0
M  V30 15772 O 1503.37 1.99617 -0.267386 0
M  V30 15773 C 1500.44 3.37637 -0.787551 0
M  V30 15774 C 1499.5 3.82914 -1.94101 0
M  V30 15775 C 1498.73 5.08721 -1.61364 0
M  V30 15776 O 1498.96 5.6798 -0.524918 0
M  V30 15777 O 1497.89 5.4955 -2.45517 0
M  V30 15778 H 1501.72 2.20935 -2.08378 0
M  V30 15779 H 1499.3 1.04071 -1.07189 0
M  V30 15780 H 1501.18 4.16968 -0.609544 0
M  V30 15781 H 1499.86 3.23417 0.135407 0
M  V30 15782 H 1498.76 3.04438 -2.17413 0
M  V30 15783 H 1500.1 4.01687 -2.84444 0
M  V30 15784 N 1501.75 1.10074 1.1279 0
M  V30 15785 C 1502.7 0.740977 2.20482 0
M  V30 15786 C 1503.69 -0.261163 1.67375 0
M  V30 15787 O 1504.9 -0.121923 1.79587 0
M  V30 15788 H 1501.27 0.221666 0.718588 0
M  V30 15789 H 1503.24 1.65823 2.48083 0
M  V30 15790 C 1501.99 0.184934 3.47208 0
M  V30 15791 H 1501.32 0.947278 3.88416 0
M  V30 15792 H 1502.76 -0.0287769 4.2399 0
M  V30 15793 C 1501.21 -1.08145 3.19071 0
M  V30 15794 O 1501.74 -2.1636 3.38454 0
M  V30 15795 N 1499.95 -0.998609 2.72903 0
M  V30 15796 H 1499.5 -0.117906 2.5733 0
M  V30 15797 H 1499.46 -1.84664 2.54453 0
M  V30 15798 N 1503.23 -1.30138 0.888926 0
M  V30 15799 C 1504.64 -1.48552 0.583486 0
M  V30 15800 C 1504.84 -1.81376 -0.877781 0
M  V30 15801 O 1503.9 -1.90374 -1.65873 0
M  V30 15802 C 1505.21 -2.60613 1.50004 0
M  V30 15803 C 1506.76 -2.74493 1.50409 0
M  V30 15804 C 1507.24 -3.89672 2.40666 0
M  V30 15805 N 1508.73 -3.96988 2.38652 0
M  V30 15806 C 1509.46 -4.85429 3.05199 0
M  V30 15807 N 1508.96 -5.78638 3.80985 0
M  V30 15808 N 1510.75 -4.78831 2.9441 0
M  V30 15809 H 1502.9 -1.07105 1.83418 0
M  V30 15810 H 1505.16 -0.530991 0.785336 0
M  V30 15811 H 1504.87 -2.43191 2.54069 0
M  V30 15812 H 1504.74 -3.5718 1.21254 0
M  V30 15813 H 1507.13 -2.91318 0.470933 0
M  V30 15814 H 1507.21 -1.78535 1.83191 0
M  V30 15815 H 1506.86 -3.73603 3.44069 0
M  V30 15816 H 1506.79 -4.84975 2.05198 0
M  V30 15817 H 1509.28 -3.30313 1.83581 0
M  V30 15818 H 1509.59 -6.42894 4.28844 0
M  V30 15819 H 1507.94 -5.78558 3.85092 0
M  V30 15820 H 1511.13 -4.04995 2.34727 0
M  V30 15821 H 1511.3 -5.47547 3.46549 0
M  V30 15822 N 1504.71 -0.650285 -1.43559 0
M  V30 15823 C 1506.12 -0.317586 -1.56408 0
M  V30 15824 C 1506.32 1.17844 -1.63447 0
M  V30 15825 O 1505.38 1.96318 -1.58794 0
M  V30 15826 C 1506.69 -1.02636 -2.82642 0
M  V30 15827 C 1508.24 -1.00633 -2.96381 0
M  V30 15828 C 1508.71 -1.69595 -4.25443 0
M  V30 15829 N 1510.2 -1.66345 -4.323 0
M  V30 15830 C 1510.94 -2.16581 -5.30924 0
M  V30 15831 N 1510.44 -2.75092 -6.35843 0
M  V30 15832 N 1512.23 -2.07098 -5.22558 0
M  V30 15833 H 1504.38 -1.62114 -1.37233 0
M  V30 15834 H 1506.64 -0.681588 -0.658895 0
M  V30 15835 H 1506.35 -2.08146 -2.83493 0
M  V30 15836 H 1506.22 -0.576081 -3.72775 0
M  V30 15837 H 1508.61 0.0403519 -2.95072 0
M  V30 15838 H 1508.69 -1.49528 -2.07545 0
M  V30 15839 H 1508.33 -2.74218 -4.27512 0
M  V30 15840 H 1508.26 -1.18168 -5.1317 0
M  V30 15841 H 1510.76 -1.23644 -3.571 0
M  V30 15842 H 1511.07 -3.11108 -7.07412 0
M  V30 15843 H 1509.41 -2.79152 -6.36474 0
M  V30 15844 H 1512.6 -1.61093 -4.39507 0
M  V30 15845 H 1512.78 -2.46557 -5.99261 0
M  V30 15846 N 1506.18 1.52647 -0.392018 0
M  V30 15847 C 1507.46 1.94034 0.247004 0
M  V30 15848 C 1507.84 1.32767 1.64122 0
M  V30 15849 O 1507.19 0.496822 2.23033 0
M  V30 15850 C 1507.4 3.47949 0.270615 0
M  V30 15851 C 1508.75 4.21666 0.498256 0
M  V30 15852 O 1509.77 3.54469 0.350708 0
M  V30 15853 O 1508.63 5.40795 0.787586 0
M  V30 15854 H 1505.72 0.812487 0.154251 0
M  V30 15855 H 1508.27 1.63715 -0.446723 0
M  V30 15856 H 1507.04 3.84881 -0.705862 0
M  V30 15857 H 1506.66 3.8458 1.00915 0
M  V30 15858 N 1507.66 0.121921 1.57128 0
M  V30 15859 C 1508.89 -0.546325 2.00075 0
M  V30 15860 C 1509.31 -1.59245 1.00113 0
M  V30 15861 O 1508.67 -1.8128 -0.0267687 0
M  V30 15862 C 1508.72 -1.14651 3.41888 0
M  V30 15863 O 1507.82 -2.26199 3.4483 0
M  V30 15864 H 1507.16 -0.136184 0.649885 0
M  V30 15865 H 1509.69 0.211257 2.03506 0
M  V30 15866 H 1509.7 -1.48133 3.80159 0
M  V30 15867 H 1508.38 -0.380273 4.14158 0
M  V30 15868 H 1506.96 -1.94134 3.18381 0
M  V30 15869 N 1509.14 -1.56867 -0.151857 0
M  V30 15870 C 1510.39 -1.84242 -0.861767 0
M  V30 15871 C 1510.74 -0.705229 -1.79009 0
M  V30 15872 O 1510.03 0.297135 -1.89282 0
M  V30 15873 C 1510.23 -3.15597 -1.6773 0
M  V30 15874 C 1510.06 -4.41985 -0.829442 0
M  V30 15875 C 1508.83 -5.0285 -0.496943 0
M  V30 15876 C 1511.03 -5.14045 -0.162006 0
M  V30 15877 N 1509.01 -6.12814 0.365022 0
M  V30 15878 C 1510.38 -6.17463 0.560301 0
M  V30 15879 C 1512.43 -4.97832 -0.0821767 0
M  V30 15880 C 1511.14 -7.06424 1.35489 0
M  V30 15881 C 1513.16 -5.87253 0.699138 0
M  V30 15882 C 1512.52 -6.90149 1.40974 0
M  V30 15883 H 1508.62 -0.724902 -0.293329 0
M  V30 15884 H 1511.21 -1.94282 -0.127448 0
M  V30 15885 H 1509.38 -3.06713 -2.3829 0
M  V30 15886 H 1511.11 -3.30897 -2.33001 0
M  V30 15887 H 1507.87 -4.66242 -0.831596 0
M  V30 15888 H 1508.29 -6.72411 0.786886 0
M  V30 15889 H 1512.93 -4.18271 -0.617211 0
M  V30 15890 H 1510.65 -7.85417 1.9012 0
M  V30 15891 H 1514.24 -5.76777 0.762833 0
M  V30 15892 H 1513.12 -7.58146 2.00461 0
M  V30 15893 N 1510.62 0.421051 -1.51871 0
M  V30 15894 C 1511.84 1.19568 -1.69465 0
M  V30 15895 C 1512.27 1.83835 -0.398269 0
M  V30 15896 O 1511.63 1.69508 0.643172 0
M  V30 15897 C 1511.67 2.24337 -2.82321 0
M  V30 15898 O 1510.78 3.30205 -2.47059 0
M  V30 15899 H 1510.12 0.349579 -0.564527 0
M  V30 15900 H 1512.65 0.495177 -1.98517 0
M  V30 15901 H 1512.66 2.6886 -3.06885 0
M  V30 15902 H 1511.33 1.76941 -3.76384 0
M  V30 15903 H 1509.91 2.91045 -2.33125 0
M  V30 15904 N 1512.1 1.42293 0.677538 0
M  V30 15905 C 1513.33 1.45797 1.46379 0
M  V30 15906 C 1513.73 0.0669696 1.89081 0
M  V30 15907 O 1513.08 -0.928025 1.58535 0
M  V30 15908 C 1513.14 2.31982 2.74635 0
M  V30 15909 C 1512.8 3.79894 2.54026 0
M  V30 15910 C 1513.8 4.71615 2.18805 0
M  V30 15911 C 1511.49 4.24131 2.69106 0
M  V30 15912 C 1513.48 6.05563 1.98927 0
M  V30 15913 C 1511.17 5.5814 2.48844 0
M  V30 15914 C 1512.16 6.48672 2.13807 0
M  V30 15915 O 1511.85 7.80206 1.93737 0
M  V30 15916 H 1511.58 0.498113 0.457012 0
M  V30 15917 H 1514.14 1.87432 0.840151 0
M  V30 15918 H 1512.37 1.85191 3.39472 0
M  V30 15919 H 1514.06 2.26974 3.36508 0
M  V30 15920 H 1514.82 4.38723 2.06753 0
M  V30 15921 H 1510.7 3.53957 2.95357 0
M  V30 15922 H 1514.25 6.7619 1.71502 0
M  V30 15923 H 1510.14 5.90605 2.60491 0
M  V30 15924 H 1510.91 7.91536 2.08357 0
M  V30 15925 N 1513.57 -0.913576 1.28419 0
M  V30 15926 C 1514.82 -1.65731 1.14961 0
M  V30 15927 C 1515.14 -1.93269 -0.301079 0
M  V30 15928 O 1516.34 -2.6573 -0.556778 0
M  V30 15929 C 1514.8 -2.98562 2.00969 0
M  V30 15930 C 1514.41 -2.78671 3.5078 0
M  V30 15931 C 1516.15 -3.76439 1.96198 0
M  V30 15932 C 1514.06 -4.07144 4.28938 0
M  V30 15933 H 1512.99 -0.621681 0.426648 0
M  V30 15934 H 1515.64 -1.0138 1.52952 0
M  V30 15935 H 1514.02 -3.64049 1.55835 0
M  V30 15936 H 1515.19 -2.21864 4.03873 0
M  V30 15937 H 1513.51 -2.14206 3.57078 0
M  V30 15938 H 1516.11 -4.71668 2.51861 0
M  V30 15939 H 1516.45 -4.05577 0.938771 0
M  V30 15940 H 1516.98 -3.17772 2.39303 0
M  V30 15941 H 1513.72 -3.83178 5.31841 0
M  V30 15942 H 1513.24 -4.63562 3.80619 0
M  V30 15943 H 1514.92 -4.754 4.38866 0
M  V30 15944 N 1515.05 -1.1067 -1.12204 0
M  V30 15945 C 1516 -0.752659 -2.20086 0
M  V30 15946 C 1516.99 0.252284 -1.67511 0
M  V30 15947 O 1518.2 0.112398 -1.79649 0
M  V30 15948 H 1514.58 -0.225473 -0.717402 0
M  V30 15949 H 1516.55 -1.67136 -2.472 0
M  V30 15950 C 1515.3 -0.203345 -3.47105 0
M  V30 15951 H 1514.62 -0.967864 -3.87908 0
M  V30 15952 H 1516.06 0.00629123 -4.24 0
M  V30 15953 C 1514.52 1.06452 -3.1964 0
M  V30 15954 O 1515.05 2.14562 -3.39597 0
M  V30 15955 N 1513.25 0.984122 -2.73429 0
M  V30 15956 H 1512.8 0.104258 -2.57389 0
M  V30 15957 H 1512.76 1.83312 -2.55429 0
M  V30 15958 N 1516.53 1.29665 -0.895815 0
M  V30 15959 C 1517.76 2.00399 -0.534333 0
M  V30 15960 C 1518.18 1.66632 0.872654 0
M  V30 15961 O 1517.54 0.888811 1.58018 0
M  V30 15962 C 1517.59 3.53154 -0.729023 0
M  V30 15963 O 1516.69 4.11812 0.22023 0
M  V30 15964 H 1516.03 0.630173 -0.209233 0
M  V30 15965 H 1518.56 1.65253 -1.20634 0
M  V30 15966 H 1518.57 4.03073 -0.632179 0
M  V30 15967 H 1517.25 3.77067 -1.75481 0
M  V30 15968 H 1515.82 3.72822 0.0761687 0
M  V30 15969 N 1518.01 0.657889 1.43212 0
M  V30 15970 C 1518.96 -0.0308596 2.30779 0
M  V30 15971 C 1519.93 -0.809951 1.45014 0
M  V30 15972 O 1521.11 -0.785615 1.73876 0
M  V30 15973 C 1518.25 -0.988048 3.30653 0
M  V30 15974 C 1517.36 -0.204567 4.31515 0
M  V30 15975 C 1516.5 -1.15598 5.1847 0
M  V30 15976 C 1515.54 -0.363197 6.11022 0
M  V30 15977 N 1514.67 -1.26644 6.90584 0
M  V30 15978 H 1519.51 0.721745 2.89128 0
M  V30 15979 H 1517.05 0.367677 1.42431 0
M  V30 15980 H 1519.01 -1.55666 3.87071 0
M  V30 15981 H 1517.64 -1.70747 2.73944 0
M  V30 15982 H 1516.69 0.48041 3.77354 0
M  V30 15983 H 1518 0.411684 4.97098 0
M  V30 15984 H 1517.16 -1.79507 5.79536 0
M  V30 15985 H 1515.9 -1.80613 4.53023 0
M  V30 15986 H 1514.9 0.28922 5.49039 0
M  V30 15987 H 1516.13 0.28262 6.78512 0
M  V30 15988 H 1514.07 -1.90331 6.27782 0
M  V30 15989 H 1513.99 -0.70486 7.52707 0
M  V30 15990 H 1515.26 -1.89353 7.56152 0
M  V30 15991 N 1519.49 -1.52437 0.400108 0
M  V30 15992 C 1520.71 -2.0661 -0.180861 0
M  V30 15993 C 1521.14 -1.269 -1.38845 0
M  V30 15994 O 1520.49 -0.296862 -1.78853 0
M  V30 15995 C 1520.54 -3.56851 -0.518595 0
M  V30 15996 O 1519.65 -3.79634 -1.61095 0
M  V30 15997 H 1518.99 -0.663752 -0.0181348 0
M  V30 15998 H 1521.52 -1.96479 0.570702 0
M  V30 15999 H 1521.53 -4.00478 -0.779817 0
M  V30 16000 H 1520.2 -4.14302 0.364216 0
M  V30 16001 H 1518.78 -3.47892 -1.3426 0
M  V30 16002 N 1520.96 -0.130252 -1.57061 0
M  V30 16003 C 1521.91 0.832998 -2.17173 0
M  V30 16004 C 1522.91 1.26735 -1.12403 0
M  V30 16005 O 1524.11 1.23778 -1.30686 0
M  V30 16006 H 1520.49 0.286777 -0.695171 0
M  V30 16007 H 1522.46 0.301639 -2.96872 0
M  V30 16008 C 1521.21 2.06879 -2.79457 0
M  V30 16009 H 1520.53 1.74352 -3.5978 0
M  V30 16010 H 1521.97 2.72258 -3.25041 0
M  V30 16011 C 1520.43 2.86591 -1.77108 0
M  V30 16012 O 1520.96 3.82363 -1.2313 0
M  V30 16013 N 1519.17 2.508 -1.46792 0
M  V30 16014 H 1518.71 1.72984 -1.90878 0
M  V30 16015 H 1518.67 3.04428 -0.785566 0
M  V30 16016 N 1522.44 1.56945 0.143535 0
M  V30 16017 C 1523.72 1.74461 0.884454 0
M  V30 16018 C 1524.1 0.699201 1.99184 0
M  V30 16019 O 1523.45 -0.281267 2.26762 0
M  V30 16020 C 1523.66 3.18639 1.42373 0
M  V30 16021 C 1525.01 3.80426 1.88577 0
M  V30 16022 O 1526.03 3.2209 1.52107 0
M  V30 16023 O 1524.89 4.82913 2.55847 0
M  V30 16024 H 1521.98 0.713457 0.41822 0
M  V30 16025 H 1524.53 1.69208 0.12919 0
M  V30 16026 H 1523.3 3.86227 0.628056 0
M  V30 16027 H 1522.92 3.28332 2.2424 0
M  V30 16028 N 1523.92 -0.412991 1.52093 0
M  V30 16029 C 1525.2 -1.17304 1.56522 0
M  V30 16030 C 1525.58 -2.0828 0.343926 0
M  V30 16031 O 1524.93 -2.18473 -0.669475 0
M  V30 16032 C 1525.14 -1.95371 2.89191 0
M  V30 16033 C 1526.48 -2.51571 3.42048 0
M  V30 16034 O 1527.51 -2.05555 2.90905 0
M  V30 16035 O 1526.37 -3.35563 4.31347 0
M  V30 16036 H 1523.46 -0.535386 0.63031 0
M  V30 16037 H 1526.01 -0.420084 1.64418 0
M  V30 16038 H 1524.78 -1.28701 3.69529 0
M  V30 16039 H 1524.4 -2.7768 2.84569 0
M  V30 16040 O 1525.44 -1.51522 -0.558858 0
M  V30 16041 H 1526.13 -1.50938 -1.21398 0
M  V30 END ATOM
M  V30 BEGIN BOND
M  V30 END BOND
M  V30 END CTAB
M  END
$$$$
