drugbank_target|P13645 Keratin, type I cytoskeletal 10 (DB01593; DB09130; DB14487)
 OpenBabel12092121073D

  0  0  0     0  0            999 V3000
M  V30 BEGIN CTAB
M  V30 COUNTS 7981 8038 0 0 0
M  V30 BEGIN ATOM
M  V30 1 H -0.908 1.98254 -0.117106 0
M  V30 2 N 0 1.576 0 0
M  V30 3 C 0.933 2.03868 1.02534 0
M  V30 4 C 1.911 0.928543 1.3348 0
M  V30 5 O 3.095 1.19667 1.45644 0
M  V30 6 C 0.222 2.43627 2.35294 0
M  V30 7 C -0.732 3.65373 2.2001 0
M  V30 8 S 0.101 5.13292 1.52614 0
M  V30 9 C 1.257 5.56322 2.86805 0
M  V30 10 H 1.49 2.90518 0.631377 0
M  V30 11 H -0.977 1.52953 0.210867 0
M  V30 12 H 0.981 2.67203 3.11629 0
M  V30 13 H -0.358 1.57376 2.7183 0
M  V30 14 H -1.165 3.90944 3.18086 0
M  V30 15 H -1.563 3.418 1.51819 0
M  V30 16 H 0.729 5.58782 3.83104 0
M  V30 17 H 1.672 6.56266 2.65933 0
M  V30 18 H 2.08 4.83886 2.90714 0
M  V30 19 N 1.4781 -0.272755 1.55222 0
M  V30 20 C 2.7031 -1.02683 1.80197 0
M  V30 21 C 3.1281 -1.79142 0.573551 0
M  V30 22 O 2.4861 -1.74917 -0.476849 0
M  V30 23 C 2.5341 -1.9609 3.02624 0
M  V30 24 O 1.6381 -3.04863 2.77727 0
M  V30 25 H 0.9791 -0.293557 0.595584 0
M  V30 26 H 3.5091 -0.30159 2.02365 0
M  V30 27 H 3.5191 -2.38039 3.31363 0
M  V30 28 H 2.1941 -1.39851 3.91682 0
M  V30 29 H 0.7711 -2.67228 2.60084 0
M  V30 30 N 2.9562 -1.48159 -0.537278 0
M  V30 31 C 4.2022 -1.56035 -1.29541 0
M  V30 32 C 4.5352 -0.230377 -1.92829 0
M  V30 33 O 3.8102 0.762952 -1.78911 0
M  V30 34 C 4.0932 -2.69323 -2.39034 0
M  V30 35 C 3.9462 -4.12002 -1.80485 0
M  V30 36 C 5.2652 -2.78408 -3.40847 0
M  V30 37 H 2.3842 -0.567992 -0.469632 0
M  V30 38 H 5.0262 -1.80302 -0.599277 0
M  V30 39 H 3.1762 -2.48763 -2.98412 0
M  V30 40 H 4.8482 -4.43981 -1.25215 0
M  V30 41 H 3.0912 -4.19344 -1.11055 0
M  V30 42 H 3.7622 -4.87077 -2.59731 0
M  V30 43 H 6.2382 -2.97012 -2.91416 0
M  V30 44 H 5.1142 -3.59416 -4.14863 0
M  V30 45 H 5.3752 -1.86269 -4.00944 0
M  V30 46 N 4.4343 0.785586 -1.36625 0
M  V30 47 C 5.8503 1.08419 -1.17122 0
M  V30 48 C 6.0503 2.015 0.00208491 0
M  V30 49 O 5.1063 2.43551 0.666278 0
M  V30 50 C 6.4193 1.69498 -2.48377 0
M  V30 51 C 7.9673 1.81821 -2.54775 0
M  V30 52 C 8.4423 2.46315 -3.86126 0
M  V30 53 N 9.9333 2.53779 -3.87492 0
M  V30 54 C 10.6683 3.045 -4.85868 0
M  V30 55 N 10.1643 3.55499 -5.94637 0
M  V30 56 N 11.9573 3.03247 -4.73284 0
M  V30 57 H 4.1083 0.167264 -2.1174 0
M  V30 58 H 6.3713 0.13682 -0.938075 0
M  V30 59 H 6.0773 1.08571 -3.34522 0
M  V30 60 H 5.9513 2.6896 -2.64462 0
M  V30 61 H 8.3383 2.41884 -1.69045 0
M  V30 62 H 8.4193 0.811532 -2.42586 0
M  V30 63 H 8.0633 1.86895 -4.72263 0
M  V30 64 H 7.9933 3.47561 -3.95612 0
M  V30 65 H 10.4843 2.17672 -3.08913 0
M  V30 66 H 10.7973 3.92562 -6.65669 0
M  V30 67 H 9.1423 3.5364 -5.98301 0
M  V30 68 H 12.3333 2.62696 -3.87438 0
M  V30 69 H 12.5063 3.42467 -5.50109 0
M  V30 70 N 5.9124 1.20967 1.01018 0
M  V30 71 C 7.1424 1.04803 1.78044 0
M  V30 72 C 7.5504 -0.405462 1.84804 0
M  V30 73 O 6.8934 -1.2932 1.30468 0
M  V30 74 C 6.9554 1.56377 3.23707 0
M  V30 75 C 6.6194 3.04767 3.40538 0
M  V30 76 C 7.6164 4.02366 3.29239 0
M  V30 77 C 5.3014 3.43862 3.66147 0
M  V30 78 C 7.2954 5.37049 3.43304 0
M  V30 79 C 4.9824 4.78699 3.79855 0
M  V30 80 C 5.9804 5.75101 3.68439 0
M  V30 81 O 5.6684 7.07493 3.81719 0
M  V30 82 H 5.4004 0.368778 0.56655 0
M  V30 83 H 7.9544 1.60642 1.27997 0
M  V30 84 H 6.1844 0.949297 3.74867 0
M  V30 85 H 7.8734 1.36136 3.8239 0
M  V30 86 H 8.6394 3.73506 3.09384 0
M  V30 87 H 4.5184 2.69364 3.74118 0
M  V30 88 H 8.0624 6.12277 3.34309 0
M  V30 89 H 3.9594 5.07247 3.99213 0
M  V30 90 H 4.7274 7.1483 3.98697 0
M  V30 91 N 7.3905 -1.2043 1.01659 0
M  V30 92 C 8.6155 -1.94318 0.724942 0
M  V30 93 C 9.0405 -1.74266 -0.708034 0
M  V30 94 O 8.3985 -1.03694 -1.48719 0
M  V30 95 C 8.4465 -3.44486 1.06591 0
M  V30 96 O 7.5505 -4.12017 0.177599 0
M  V30 97 H 6.8915 -0.60708 0.26898 0
M  V30 98 H 9.4215 -1.52861 1.35995 0
M  V30 99 H 9.4315 -3.95106 1.01762 0
M  V30 100 H 8.1065 -3.58404 2.10997 0
M  V30 101 H 6.6835 -3.71821 0.283421 0
M  V30 102 N 8.8686 -0.792821 -1.36206 0
M  V30 103 C 10.0936 -0.377701 -2.03932 0
M  V30 104 C 10.5186 0.998947 -1.59382 0
M  V30 105 O 9.8766 1.64421 -0.763903 0
M  V30 106 C 9.9246 -0.453635 -3.57735 0
M  V30 107 O 9.0286 0.538151 -4.08874 0
M  V30 108 H 8.3696 -0.159855 -0.644471 0
M  V30 109 H 10.8996 -1.07488 -1.7409 0
M  V30 110 H 10.9096 -0.318464 -4.06755 0
M  V30 111 H 9.5846 -1.45784 -3.89512 0
M  V30 112 H 8.1616 0.364359 -3.71116 0
M  V30 113 N 10.3467 1.47872 -0.545128 0
M  V30 114 C 11.5717 2.07391 -0.0190611 0
M  V30 115 C 11.9967 1.39688 1.25971 0
M  V30 116 O 11.3547 0.467816 1.7516 0
M  V30 117 C 11.4027 3.60188 0.172335 0
M  V30 118 O 10.5067 3.9339 1.23766 0
M  V30 119 H 9.8477 0.662411 -0.0459059 0
M  V30 120 H 12.3777 1.90066 -0.757365 0
M  V30 121 H 12.3877 4.06129 0.390305 0
M  V30 122 H 11.0627 4.08865 -0.761725 0
M  V30 123 H 9.6397 3.5921 1.00114 0
M  V30 124 N 11.8248 0.280983 1.55075 0
M  V30 125 C 12.7718 -0.603937 2.22758 0
M  V30 126 C 13.7418 -1.1452 1.20309 0
M  V30 127 O 14.9268 -1.19343 1.48869 0
M  V30 128 C 12.0668 -1.77947 2.95684 0
M  V30 129 C 11.1798 -1.2715 4.12864 0
M  V30 130 C 10.3148 -2.4093 4.7342 0
M  V30 131 C 9.3538 -1.87165 5.82783 0
M  V30 132 N 8.4908 -2.94441 6.37377 0
M  V30 133 H 13.3308 -0.020124 2.97993 0
M  V30 134 H 10.8678 0.00183425 1.471 0
M  V30 135 H 12.8258 -2.47055 3.36184 0
M  V30 136 H 11.4558 -2.33522 2.22861 0
M  V30 137 H 10.5078 -0.473331 3.77444 0
M  V30 138 H 11.8198 -0.837751 4.91715 0
M  V30 139 H 10.9738 -3.18021 5.1667 0
M  V30 140 H 9.7128 -2.87623 3.93859 0
M  V30 141 H 8.7178 -1.08556 5.38976 0
M  V30 142 H 9.9428 -1.41401 6.64216 0
M  V30 143 H 7.8888 -3.40505 5.60707 0
M  V30 144 H 7.8058 -2.55501 7.11516 0
M  V30 145 H 9.0738 -3.71489 6.85285 0
M  V30 146 N 13.3029 -1.57598 0.00835791 0
M  V30 147 C 14.2529 -2.05431 -0.989045 0
M  V30 148 C 15.2369 -0.950662 -1.29812 0
M  V30 149 O 16.4289 -1.21438 -1.28771 0
M  V30 150 C 13.5579 -2.56801 -2.27833 0
M  V30 151 C 12.6439 -3.74058 -1.99853 0
M  V30 152 N 13.0349 -4.8544 -1.42062 0
M  V30 153 C 11.3329 -3.82148 -2.29953 0
M  V30 154 C 12.0339 -5.66817 -1.30743 0
M  V30 155 N 11.0099 -5.13077 -1.7959 0
M  V30 156 H 14.8119 -2.88955 -0.536853 0
M  V30 157 H 12.3259 -1.61199 -0.197148 0
M  V30 158 H 14.3229 -2.89349 -3.00137 0
M  V30 159 H 12.9829 -1.74699 -2.73698 0
M  V30 160 H 13.9939 -5.0612 -1.09833 0
M  V30 161 H 10.6709 -3.10916 -2.78635 0
M  V30 162 H 12.0609 -6.66343 -0.862328 0
M  V30 163 N 14.781 0.264519 -1.55364 0
M  V30 164 C 16.011 1.01153 -1.80143 0
M  V30 165 C 16.419 1.80115 -0.579253 0
M  V30 166 O 15.762 1.77813 0.46132 0
M  V30 167 C 15.824 2.01098 -2.97993 0
M  V30 168 C 15.488 1.40995 -4.34706 0
M  V30 169 C 16.485 0.821316 -5.13372 0
M  V30 170 C 14.17 1.43461 -4.81378 0
M  V30 171 C 16.164 0.265339 -6.36847 0
M  V30 172 C 13.851 0.874771 -6.04807 0
M  V30 173 C 14.849 0.291146 -6.82379 0
M  V30 174 O 14.537 -0.260093 -8.03479 0
M  V30 175 H 14.269 0.304125 -0.603725 0
M  V30 176 H 16.823 0.298089 -2.03225 0
M  V30 177 H 15.053 2.76224 -2.70623 0
M  V30 178 H 16.742 2.61997 -3.1002 0
M  V30 179 H 17.508 0.794903 -4.78442 0
M  V30 180 H 13.387 1.87826 -4.21002 0
M  V30 181 H 16.931 -0.190837 -6.97339 0
M  V30 182 H 12.828 0.898452 -6.39217 0
M  V30 183 H 13.596 -0.150265 -8.18362 0
M  V30 184 N 16.2591 1.48442 0.529413 0
M  V30 185 C 17.4841 1.60406 1.31471 0
M  V30 186 C 17.9091 0.264738 1.86228 0
M  V30 187 O 17.2671 -0.763668 1.64432 0
M  V30 188 C 17.3151 2.65419 2.44101 0
M  V30 189 O 16.4191 2.22618 3.47153 0
M  V30 190 H 15.7601 0.537863 0.389357 0
M  V30 191 H 18.2901 1.94432 0.636965 0
M  V30 192 H 18.3001 2.86709 2.90279 0
M  V30 193 H 16.9751 3.62652 2.03608 0
M  V30 194 H 15.5521 2.11543 3.0709 0
M  V30 195 N 17.7372 -0.778329 1.37039 0
M  V30 196 C 18.9622 -1.57248 1.35233 0
M  V30 197 C 19.3872 -1.87999 -0.0615568 0
M  V30 198 O 18.7452 -1.48734 -1.03672 0
M  V30 199 C 18.7932 -2.86353 2.19167 0
M  V30 200 O 17.8972 -3.80442 1.59178 0
M  V30 201 H 17.2382 -0.476569 0.462362 0
M  V30 202 H 19.7682 -0.963853 1.80474 0
M  V30 203 H 19.7782 -3.35519 2.32145 0
M  V30 204 H 18.4532 -2.63299 3.21942 0
M  V30 205 H 17.0302 -3.39067 1.55203 0
M  V30 206 N 19.2153 -1.21501 -1.00376 0
M  V30 207 C 20.4403 -1.05977 -1.78279 0
M  V30 208 C 20.8653 0.385994 -1.84097 0
M  V30 209 O 20.2233 1.27849 -1.28547 0
M  V30 210 C 20.2713 -1.66302 -3.19963 0
M  V30 211 O 19.3753 -0.909333 -4.0225 0
M  V30 212 H 18.7163 -0.372906 -0.549397 0
M  V30 213 H 21.2463 -1.6107 -1.26165 0
M  V30 214 H 21.2563 -1.70574 -3.70632 0
M  V30 215 H 19.9313 -2.71515 -3.15043 0
M  V30 216 H 18.5083 -0.941795 -3.60811 0
M  V30 217 N 20.6934 1.19889 -1.02296 0
M  V30 218 C 22.1094 1.41462 -0.738954 0
M  V30 219 C 22.3094 1.89721 0.678846 0
M  V30 220 O 21.3654 2.07016 1.4457 0
M  V30 221 C 22.6784 2.43083 -1.77005 0
M  V30 222 C 24.2264 2.5684 -1.78892 0
M  V30 223 C 24.7014 3.61709 -2.80945 0
M  V30 224 N 26.1924 3.69199 -2.79725 0
M  V30 225 C 26.9274 4.50019 -3.55345 0
M  V30 226 N 26.4234 5.34592 -4.40662 0
M  V30 227 N 28.2164 4.44612 -3.43914 0
M  V30 228 H 20.3674 0.868827 -1.93817 0
M  V30 229 H 22.6304 0.44399 -0.837602 0
M  V30 230 H 22.3364 2.14636 -2.78612 0
M  V30 231 H 22.2104 3.4217 -1.58744 0
M  V30 232 H 24.5974 2.84614 -0.779674 0
M  V30 233 H 24.6784 1.57927 -2.01228 0
M  V30 234 H 24.3224 3.34678 -3.82038 0
M  V30 235 H 24.2524 4.60259 -2.5587 0
M  V30 236 H 26.7434 3.08794 -2.17842 0
M  V30 237 H 27.0564 5.93363 -4.95116 0
M  V30 238 H 25.4014 5.34073 -4.44737 0
M  V30 239 H 28.5924 3.7758 -2.76679 0
M  V30 240 H 28.7654 5.0736 -4.031 0
M  V30 241 N 22.1715 0.800033 1.35784 0
M  V30 242 C 23.3965 0.388511 2.03729 0
M  V30 243 C 23.8215 -0.990481 1.5991 0
M  V30 244 O 23.1795 -1.64013 0.772612 0
M  V30 245 C 23.2275 0.4726 3.5749 0
M  V30 246 O 22.3315 -0.51646 4.09153 0
M  V30 247 H 21.6725 0.163271 0.643614 0
M  V30 248 H 24.2025 1.0841 1.73518 0
M  V30 249 H 24.2125 0.34003 4.06581 0
M  V30 250 H 22.8875 1.47848 3.88734 0
M  V30 251 H 21.4645 -0.344673 3.71304 0
M  V30 252 N 23.6496 -1.47581 0.552962 0
M  V30 253 C 24.8976 -2.02082 0.0272703 0
M  V30 254 C 25.2186 -1.4301 -1.32563 0
M  V30 255 O 24.4886 -0.603745 -1.86365 0
M  V30 256 H 23.0686 -0.746966 0.00709182 0
M  V30 257 H 25.7306 -1.81033 0.722008 0
M  V30 258 H 24.8266 -3.12034 -0.0639951 0
M  V30 259 N 25.1277 -0.289203 -1.54924 0
M  V30 260 C 26.3757 0.322879 -1.99504 0
M  V30 261 C 26.6967 1.55313 -1.1791 0
M  V30 262 O 25.9667 1.94001 -0.272097 0
M  V30 263 H 24.5467 0.122291 -0.736922 0
M  V30 264 H 27.2087 -0.397802 -1.90797 0
M  V30 265 H 26.3047 0.603061 -3.06218 0
M  V30 266 N 26.6058 1.57591 -0.0167156 0
M  V30 267 C 27.8538 1.90906 0.663285 0
M  V30 268 C 28.1748 0.892509 1.73376 0
M  V30 269 O 27.4448 -0.0677623 1.95783 0
M  V30 270 H 26.0248 0.704637 0.247983 0
M  V30 271 H 28.6868 1.94803 -0.0615909 0
M  V30 272 H 27.7828 2.9116 1.12393 0
M  V30 273 N 28.0839 -0.256276 1.55502 0
M  V30 274 C 29.3319 -0.983672 1.76545 0
M  V30 275 C 29.6529 -1.86206 0.578982 0
M  V30 276 O 28.9229 -1.91656 -0.405577 0
M  V30 277 H 27.5029 -0.366191 0.651086 0
M  V30 278 H 30.1649 -0.276479 1.92929 0
M  V30 279 H 29.2609 -1.61087 2.67315 0
M  V30 280 N 29.562 -1.4872 -0.521534 0
M  V30 281 C 30.81 -1.56857 -1.27437 0
M  V30 282 C 31.131 -0.247982 -1.93417 0
M  V30 283 O 30.401 0.731151 -1.81744 0
M  V30 284 H 28.981 -0.577885 -0.473347 0
M  V30 285 H 31.643 -1.85233 -0.606205 0
M  V30 286 H 30.739 -2.35402 -2.0492 0
M  V30 287 N 31.0401 0.771051 -1.3745 0
M  V30 288 C 32.2881 1.52661 -1.32435 0
M  V30 289 C 32.6091 1.9479 0.0905024 0
M  V30 290 O 31.8791 1.66348 1.03466 0
M  V30 291 H 30.4591 0.566218 -0.487244 0
M  V30 292 H 33.1211 0.917636 -1.71946 0
M  V30 293 H 32.2171 2.42568 -1.96385 0
M  V30 294 N 32.5182 1.22032 0.997298 0
M  V30 295 C 33.7662 1.04016 1.73278 0
M  V30 296 C 34.0872 -0.426255 1.90284 0
M  V30 297 O 33.3572 -1.30694 1.45931 0
M  V30 298 H 31.9372 0.381897 0.642 0
M  V30 299 H 34.5992 1.5347 1.20137 0
M  V30 300 H 33.6952 1.51441 2.72896 0
M  V30 301 N 33.9963 -1.19345 1.0293 0
M  V30 302 C 35.2443 -1.88665 0.724574 0
M  V30 303 C 35.5653 -1.80036 -0.749144 0
M  V30 304 O 34.8353 -1.2111 -1.53978 0
M  V30 305 H 33.4153 -0.698406 0.265025 0
M  V30 306 H 36.0773 -1.44885 1.30362 0
M  V30 307 H 35.1733 -2.94987 1.01926 0
M  V30 308 N 35.4744 -0.807222 -1.35358 0
M  V30 309 C 36.7144 -0.393534 -2.00576 0
M  V30 310 C 37.0784 1.0203 -1.62647 0
M  V30 311 O 38.2794 1.53603 -2.20589 0
M  V30 312 C 36.5504 -0.572017 -3.52793 0
M  V30 313 S 38.1094 -0.248845 -4.38094 0
M  V30 314 H 34.9274 -0.149425 -0.695121 0
M  V30 315 H 37.5294 -1.04961 -1.64935 0
M  V30 316 H 36.2334 -1.60097 -3.77885 0
M  V30 317 H 35.7644 0.099359 -3.93275 0
M  V30 318 H 37.7794 0.943253 -4.87152 0
M  V30 319 N 36.9525 1.47285 -0.560781 0
M  V30 320 C 38.2005 2.02064 -0.0379868 0
M  V30 321 C 38.5215 1.43711 1.31803 0
M  V30 322 O 37.7915 0.61362 1.86042 0
M  V30 323 H 36.3715 0.746918 -0.0110531 0
M  V30 324 H 39.0335 1.80648 -0.731598 0
M  V30 325 H 38.1295 3.12064 0.0474463 0
M  V30 326 N 38.4306 0.297415 1.54768 0
M  V30 327 C 39.6786 -0.312295 1.99673 0
M  V30 328 C 39.9996 -1.54686 1.18732 0
M  V30 329 O 39.2696 -1.93854 0.282382 0
M  V30 330 H 37.8496 -0.118381 0.73756 0
M  V30 331 H 40.5116 0.407915 1.90583 0
M  V30 332 H 39.6076 -0.586813 3.06534 0
M  V30 333 N 39.9087 -1.5758 0.0250728 0
M  V30 334 C 41.1567 -1.91255 -0.653151 0
M  V30 335 C 41.4777 -0.901691 -1.729 0
M  V30 336 O 40.7477 0.0573785 -1.95816 0
M  V30 337 H 39.3277 -0.705942 -0.244243 0
M  V30 338 H 41.9897 -1.94767 0.0719209 0
M  V30 339 H 41.0857 -2.91752 -1.10847 0
M  V30 340 N 41.3868 0.248026 -1.55636 0
M  V30 341 C 42.6348 0.974295 -1.77065 0
M  V30 342 C 42.9558 1.85897 -0.588849 0
M  V30 343 O 42.2258 1.91868 0.395407 0
M  V30 344 H 40.8058 0.362733 -0.653019 0
M  V30 345 H 43.4678 0.266244 -1.93073 0
M  V30 346 H 42.5638 1.59667 -2.68166 0
M  V30 347 N 42.8649 1.48995 0.513639 0
M  V30 348 C 44.1129 1.57531 1.26604 0
M  V30 349 C 44.4339 0.258236 1.93283 0
M  V30 350 O 43.7039 -0.721502 1.8213 0
M  V30 351 H 42.2839 0.580387 0.470276 0
M  V30 352 H 44.9459 1.85552 0.596373 0
M  V30 353 H 44.0419 2.36486 2.03669 0
M  V30 354 N 44.343 -0.763751 1.37857 0
M  V30 355 C 45.589 -1.52483 1.33704 0
M  V30 356 C 45.922 -1.94051 -0.0759612 0
M  V30 357 O 45.197 -1.64675 -1.03501 0
M  V30 358 C 45.48 -2.78441 2.28348 0
M  V30 359 C 45.333 -2.43075 3.78463 0
M  V30 360 C 46.652 -3.80415 2.21298 0
M  V30 361 H 43.771 -0.553169 0.487005 0
M  V30 362 H 46.413 -0.875562 1.68624 0
M  V30 363 H 44.563 -3.33842 1.987 0
M  V30 364 H 46.235 -1.93527 4.18742 0
M  V30 365 H 44.478 -1.75666 3.96641 0
M  V30 366 H 45.149 -3.33149 4.40132 0
M  V30 367 H 47.625 -3.34527 2.47449 0
M  V30 368 H 46.501 -4.66257 2.89647 0
M  V30 369 H 46.762 -4.25262 1.20849 0
M  V30 370 N 45.8211 -1.22559 -0.990812 0
M  V30 371 C 47.0461 -1.07862 -1.77145 0
M  V30 372 C 47.4711 0.366447 -1.84496 0
M  V30 373 O 46.8291 1.26478 -1.29896 0
M  V30 374 C 46.8771 -1.69686 -3.18181 0
M  V30 375 O 45.9811 -0.951946 -4.01263 0
M  V30 376 H 45.3221 -0.378712 -0.545411 0
M  V30 377 H 47.8521 -1.62399 -1.2445 0
M  V30 378 H 47.8621 -1.74496 -3.68802 0
M  V30 379 H 46.5371 -2.74841 -3.12146 0
M  V30 380 H 45.1141 -0.980011 -3.59792 0
M  V30 381 N 47.2992 1.18797 -1.03562 0
M  V30 382 C 48.5242 1.9314 -0.755764 0
M  V30 383 C 48.9492 1.7537 0.68022 0
M  V30 384 O 48.3072 1.06046 1.47051 0
M  V30 385 C 48.3552 3.42747 -1.12058 0
M  V30 386 O 47.4592 4.11683 -0.243124 0
M  V30 387 H 46.8002 0.602724 -0.278604 0
M  V30 388 H 49.3302 1.50678 -1.3841 0
M  V30 389 H 49.3402 3.93437 -1.08035 0
M  V30 390 H 48.0152 3.55002 -2.16672 0
M  V30 391 H 46.5922 3.71323 -0.342539 0
M  V30 392 N 48.7773 0.814389 1.34928 0
M  V30 393 C 49.7073 0.244827 2.32213 0
M  V30 394 C 50.6883 -0.634024 1.57842 0
M  V30 395 O 51.8733 -0.562676 1.8587 0
M  V30 396 C 49.0033 -0.601106 3.42058 0
M  V30 397 C 47.9573 0.179896 4.27622 0
M  V30 398 C 47.2833 -0.788237 5.28858 0
M  V30 399 C 48.5833 1.38329 5.03649 0
M  V30 400 H 50.2773 1.05763 2.80097 0
M  V30 401 H 47.8233 0.510029 1.34665 0
M  V30 402 H 49.7763 -1.00968 4.09125 0
M  V30 403 H 48.5003 -1.44688 2.92802 0
M  V30 404 H 47.1593 0.569739 3.62146 0
M  V30 405 H 46.8073 -1.62973 4.75866 0
M  V30 406 H 46.5073 -0.269942 5.8698 0
M  V30 407 H 48.0313 -1.19485 5.98795 0
M  V30 408 H 49.4453 1.04918 5.63618 0
M  V30 409 H 47.8423 1.83662 5.71304 0
M  V30 410 H 48.9123 2.16592 4.33839 0
M  V30 411 N 50.2554 -1.46986 0.568584 0
M  V30 412 C 51.6714 -1.57946 0.229189 0
M  V30 413 C 51.8714 -1.56567 -1.26843 0
M  V30 414 O 50.9274 -1.47511 -2.04931 0
M  V30 415 C 52.2404 -2.87963 0.865909 0
M  V30 416 C 53.7884 -3.01568 0.838188 0
M  V30 417 C 54.2634 -4.34301 1.45419 0
M  V30 418 N 55.7544 -4.40965 1.41788 0
M  V30 419 C 56.4894 -5.42256 1.86403 0
M  V30 420 N 55.9854 -6.50297 2.38926 0
M  V30 421 N 57.7784 -5.3337 1.77405 0
M  V30 422 H 49.9294 -1.46126 1.54146 0
M  V30 423 H 52.1924 -0.696156 0.643484 0
M  V30 424 H 51.8984 -2.94742 1.91886 0
M  V30 425 H 51.7724 -3.75423 0.365687 0
M  V30 426 H 54.1594 -2.94379 -0.206106 0
M  V30 427 H 54.2404 -2.1562 1.37629 0
M  V30 428 H 53.8844 -4.42247 2.49761 0
M  V30 429 H 53.8144 -5.19 0.891435 0
M  V30 430 H 56.3054 -3.63484 1.03381 0
M  V30 431 H 56.6184 -7.23777 2.70863 0
M  V30 432 H 54.9634 -6.51155 2.42944 0
M  V30 433 H 58.1544 -4.47865 1.3614 0
M  V30 434 H 58.3274 -6.12169 2.12492 0
M  V30 435 N 51.7335 -0.305618 -1.54608 0
M  V30 436 C 52.9825 0.303098 -1.9941 0
M  V30 437 C 53.2955 1.54648 -1.19764 0
M  V30 438 O 54.5015 2.23007 -1.54855 0
M  V30 439 C 52.9575 0.590588 -3.55021 0
M  V30 440 C 52.5655 -0.634719 -4.43481 0
M  V30 441 C 54.3095 1.16025 -4.08336 0
M  V30 442 C 52.2165 -0.320126 -5.90533 0
M  V30 443 H 51.1465 0.117031 -0.744862 0
M  V30 444 H 53.7975 -0.415045 -1.78745 0
M  V30 445 H 52.1795 1.36845 -3.71604 0
M  V30 446 H 53.3535 -1.41079 -4.38672 0
M  V30 447 H 51.6685 -1.12333 -4.00962 0
M  V30 448 H 54.2655 1.40994 -5.15776 0
M  V30 449 H 54.6085 2.10397 -3.5922 0
M  V30 450 H 55.1415 0.443985 -3.95315 0
M  V30 451 H 51.8805 -1.23254 -6.43808 0
M  V30 452 H 51.4005 0.418579 -5.98338 0
M  V30 453 H 53.0795 0.0766241 -6.46955 0
M  V30 454 N 53.2116 1.57565 -0.0334293 0
M  V30 455 C 54.4366 1.96689 0.657895 0
M  V30 456 C 54.8616 0.910057 1.64619 0
M  V30 457 O 54.2196 -0.128598 1.80843 0
M  V30 458 C 54.2676 3.34905 1.33683 0
M  V30 459 O 53.3716 3.31574 2.45219 0
M  V30 460 H 52.7126 0.641205 0.172489 0
M  V30 461 H 55.2426 2.04372 -0.0965621 0
M  V30 462 H 55.2526 3.71234 1.69262 0
M  V30 463 H 53.9276 4.11366 0.612411 0
M  V30 464 H 52.5046 3.06968 2.11719 0
M  V30 465 N 54.6897 -0.239769 1.55765 0
M  V30 466 C 55.9147 -0.988373 1.82335 0
M  V30 467 C 56.3397 -1.77886 0.611421 0
M  V30 468 O 55.6977 -1.75889 -0.439639 0
M  V30 469 C 55.7457 -1.89627 3.06715 0
M  V30 470 O 54.8497 -2.98904 2.84131 0
M  V30 471 H 54.1907 -0.280858 0.601677 0
M  V30 472 H 56.7207 -0.258597 2.02959 0
M  V30 473 H 56.7307 -2.30957 3.36338 0
M  V30 474 H 55.4057 -1.31511 3.9456 0
M  V30 475 H 53.9827 -2.61651 2.65694 0
M  V30 476 N 56.1678 -1.49265 -0.50573 0
M  V30 477 C 57.3928 -1.62478 -1.28902 0
M  V30 478 C 57.8178 -0.294332 -1.85783 0
M  V30 479 O 57.1758 0.737412 -1.65626 0
M  V30 480 C 57.2238 -2.69268 -2.39848 0
M  V30 481 O 56.3278 -2.28113 -3.43567 0
M  V30 482 H 55.6688 -0.54399 -0.380751 0
M  V30 483 H 58.1988 -1.95421 -0.605952 0
M  V30 484 H 58.2088 -2.91291 -2.85681 0
M  V30 485 H 56.8838 -3.65846 -1.97812 0
M  V30 486 H 55.4608 -2.16401 -3.03685 0
M  V30 487 N 57.6459 0.756429 -1.3826 0
M  V30 488 C 58.5929 1.87011 -1.35261 0
M  V30 489 C 59.5629 1.64695 -0.215616 0
M  V30 490 O 60.7479 1.864 -0.407399 0
M  V30 491 C 57.8879 3.24275 -1.18068 0
M  V30 492 C 57.0009 3.58442 -2.41129 0
M  V30 493 C 56.1359 4.84994 -2.16689 0
M  V30 494 C 55.1749 5.11939 -3.35537 0
M  V30 495 N 54.3119 6.29685 -3.10549 0
M  V30 496 H 59.1519 1.8891 -2.30472 0
M  V30 497 H 56.6889 0.923373 -1.14509 0
M  V30 498 H 58.6469 4.03479 -1.06116 0
M  V30 499 H 57.2769 3.21711 -0.264973 0
M  V30 500 H 56.3289 2.74103 -2.63764 0
M  V30 501 H 57.6409 3.74283 -3.29717 0
M  V30 502 H 56.7949 5.72135 -2.01857 0
M  V30 503 H 55.5339 4.71286 -1.25462 0
M  V30 504 H 54.5389 4.23268 -3.50891 0
M  V30 505 H 55.7639 5.27546 -4.27635 0
M  V30 506 H 53.7099 6.17306 -2.21967 0
M  V30 507 H 53.6269 6.46014 -3.92686 0
M  V30 508 H 54.8949 7.19722 -2.99367 0
M  V30 509 N 59.124 1.23083 0.984299 0
M  V30 510 C 60.372 1.05848 1.72165 0
M  V30 511 C 60.693 -0.406049 1.90726 0
M  V30 512 O 59.963 -1.29139 1.47309 0
M  V30 513 H 58.543 0.388685 0.637913 0
M  V30 514 H 61.205 1.54736 1.18503 0
M  V30 515 H 60.301 1.54327 2.71274 0
M  V30 516 N 60.6021 -1.18246 1.0419 0
M  V30 517 C 61.8271 -1.92736 0.765996 0
M  V30 518 C 62.2521 -1.75728 -0.67091 0
M  V30 519 O 61.6101 -1.06825 -1.46486 0
M  V30 520 C 61.6581 -3.42148 1.13875 0
M  V30 521 O 60.7621 -4.11548 0.264954 0
M  V30 522 H 60.1031 -0.601238 0.281797 0
M  V30 523 H 62.6331 -1.49942 1.39207 0
M  V30 524 H 62.6431 -3.92858 1.1012 0
M  V30 525 H 61.3181 -3.53848 2.18551 0
M  V30 526 H 59.8951 -3.71137 0.362226 0
M  V30 527 N 62.0802 -0.821533 -1.34494 0
M  V30 528 C 63.0102 -0.257138 -2.3208 0
M  V30 529 C 63.9912 0.625645 -1.58176 0
M  V30 530 O 65.1762 0.552811 -1.86166 0
M  V30 531 C 62.3062 0.582958 -3.42372 0
M  V30 532 C 61.2602 -0.202571 -4.2752 0
M  V30 533 C 60.5862 0.760179 -5.29269 0
M  V30 534 C 61.8862 -1.40998 -5.02908 0
M  V30 535 H 63.5802 -1.07247 -2.79532 0
M  V30 536 H 61.1262 -0.517163 -1.34393 0
M  V30 537 H 63.0792 0.987972 -4.09655 0
M  V30 538 H 61.8032 1.43133 -2.93565 0
M  V30 539 H 60.4622 -0.588936 -3.61838 0
M  V30 540 H 60.1102 1.60447 -4.76724 0
M  V30 541 H 59.8102 0.238809 -5.87115 0
M  V30 542 H 61.3342 1.16308 -5.9942 0
M  V30 543 H 62.7482 -1.07905 -5.63054 0
M  V30 544 H 61.1452 -1.86689 -5.70322 0
M  V30 545 H 62.2152 -2.1889 -4.32684 0
M  V30 546 N 63.5583 1.46682 -0.576371 0
M  V30 547 C 64.8063 2.02013 -0.0594163 0
M  V30 548 C 65.1273 1.45101 1.30271 0
M  V30 549 O 64.3973 0.633317 1.8538 0
M  V30 550 H 62.9773 0.746759 -0.0189745 0
M  V30 551 H 65.6393 1.79862 -0.750717 0
M  V30 552 H 64.7353 3.12097 0.014345 0
M  V30 553 N 65.0364 0.313813 1.54444 0
M  V30 554 C 66.2844 -0.291099 1.99993 0
M  V30 555 C 66.6054 -1.53418 1.20366 0
M  V30 556 O 65.8754 -1.93544 0.302927 0
M  V30 557 H 64.4554 -0.110552 0.738774 0
M  V30 558 H 67.1174 0.428106 1.9014 0
M  V30 559 H 66.2134 -0.554268 3.07139 0
M  V30 560 N 66.5145 -1.57545 0.0417849 0
M  V30 561 C 67.7625 -1.91937 -0.632829 0
M  V30 562 C 68.0835 -0.919978 -1.71934 0
M  V30 563 O 67.3535 0.0366064 -1.95866 0
M  V30 564 H 65.9335 -0.708493 -0.236742 0
M  V30 565 H 68.5955 -1.9468 0.0925745 0
M  V30 566 H 67.6915 -2.92912 -1.07746 0
M  V30 567 N 67.9926 0.231505 -1.5589 0
M  V30 568 C 69.2396 0.957352 -1.78441 0
M  V30 569 C 69.5676 1.84726 -0.60882 0
M  V30 570 O 68.8226 1.91416 0.40725 0
M  V30 571 C 69.1216 1.83577 -3.0665 0
M  V30 572 C 68.7876 1.09993 -4.37278 0
M  V30 573 C 67.4496 0.896629 -4.72773 0
M  V30 574 C 69.8016 0.579558 -5.17968 0
M  V30 575 C 67.1296 0.160896 -5.86479 0
M  V30 576 C 69.4816 -0.142783 -6.32439 0
M  V30 577 C 68.1456 -0.357427 -6.66542 0
M  V30 578 H 67.4156 0.35032 -0.65296 0
M  V30 579 H 70.0626 0.226259 -1.90159 0
M  V30 580 H 68.3676 2.63441 -2.90011 0
M  V30 581 H 70.0646 2.39934 -3.21298 0
M  V30 582 H 66.6546 1.26835 -4.09403 0
M  V30 583 H 70.8386 0.724125 -4.90989 0
M  V30 584 H 66.0946 -0.0157293 -6.11398 0
M  V30 585 H 70.2686 -0.553559 -6.94196 0
M  V30 586 H 67.8956 -0.929466 -7.54497 0
M  V30 587 N 69.4707 1.49531 0.497807 0
M  V30 588 C 70.6957 1.63159 1.28039 0
M  V30 589 C 71.1207 0.30418 1.85624 0
M  V30 590 O 70.4787 -0.728618 1.66015 0
M  V30 591 C 70.5267 2.70537 2.38416 0
M  V30 592 O 69.6307 2.29931 3.42353 0
M  V30 593 H 68.9717 0.546001 0.377861 0
M  V30 594 H 71.5017 1.9574 0.59558 0
M  V30 595 H 71.5117 2.92802 2.84132 0
M  V30 596 H 70.1867 3.6689 1.95869 0
M  V30 597 H 68.7637 2.18009 3.02533 0
M  V30 598 N 70.9488 -0.749086 1.3866 0
M  V30 599 C 72.1738 -1.54344 1.38538 0
M  V30 600 C 72.5988 -1.88088 -0.0216655 0
M  V30 601 O 71.9568 -1.50899 -1.00494 0
M  V30 602 C 72.0048 -2.8164 2.25192 0
M  V30 603 O 71.1088 -3.7698 1.67212 0
M  V30 604 H 70.4498 -0.466654 0.472367 0
M  V30 605 H 72.9798 -0.925355 1.82478 0
M  V30 606 H 72.9898 -3.30519 2.3921 0
M  V30 607 H 71.6648 -2.56411 3.27454 0
M  V30 608 H 70.2418 -3.35699 1.6236 0
M  V30 609 N 72.4269 -1.23603 -0.977757 0
M  V30 610 C 73.6749 -1.06759 -1.71601 0
M  V30 611 C 73.9959 0.395929 -1.90938 0
M  V30 612 O 73.2659 1.28356 -1.47992 0
M  V30 613 H 71.8459 -0.392062 -0.635843 0
M  V30 614 H 74.5079 -1.55362 -1.1768 0
M  V30 615 H 73.6039 -1.55763 -2.70452 0
M  V30 616 N 73.905 1.17692 -1.04816 0
M  V30 617 C 75.153 1.87488 -0.754497 0
M  V30 618 C 75.474 1.81205 0.720407 0
M  V30 619 O 74.744 1.23544 1.52032 0
M  V30 620 H 73.324 0.694101 -0.276102 0
M  V30 621 H 75.986 1.42793 -1.32651 0
M  V30 622 H 75.082 2.93328 -1.06606 0
M  V30 623 N 75.3831 0.828654 1.34056 0
M  V30 624 C 76.6301 0.419458 1.98108 0
M  V30 625 C 76.9581 -1.01886 1.65679 0
M  V30 626 O 76.2131 -1.72539 0.923512 0
M  V30 627 C 76.5121 0.575226 3.52741 0
M  V30 628 C 76.1781 1.98012 4.05095 0
M  V30 629 C 74.8401 2.36442 4.19104 0
M  V30 630 C 77.1921 2.89824 4.33188 0
M  V30 631 C 74.5201 3.66009 4.58535 0
M  V30 632 C 76.8721 4.1886 4.74066 0
M  V30 633 C 75.5361 4.5726 4.86281 0
M  V30 634 H 74.8061 0.153491 0.724929 0
M  V30 635 H 77.4531 1.05371 1.59904 0
M  V30 636 H 75.7581 -0.142385 3.91541 0
M  V30 637 H 77.4551 0.239057 4.00287 0
M  V30 638 H 74.0451 1.67162 3.94658 0
M  V30 639 H 78.2291 2.61375 4.21897 0
M  V30 640 H 73.4851 3.95579 4.66184 0
M  V30 641 H 77.6591 4.90086 4.94761 0
M  V30 642 H 75.2861 5.57707 5.16592 0
M  V30 643 N 76.8612 -1.46375 0.584142 0
M  V30 644 C 78.0862 -2.07268 0.0740405 0
M  V30 645 C 78.5112 -1.42979 -1.22223 0
M  V30 646 O 77.8692 -0.514092 -1.73859 0
M  V30 647 C 77.9172 -3.60518 -0.0767769 0
M  V30 648 O 77.0212 -3.96533 -1.13292 0
M  V30 649 H 76.3622 -0.660961 0.0634524 0
M  V30 650 H 78.8922 -1.87991 0.807492 0
M  V30 651 H 78.9022 -4.07021 -0.282489 0
M  V30 652 H 77.5772 -4.06702 0.86986 0
M  V30 653 H 76.1542 -3.61738 -0.905553 0
M  V30 654 N 78.3393 -0.321999 -1.54275 0
M  V30 655 C 79.5873 0.280489 -2.00144 0
M  V30 656 C 79.9083 1.52777 -1.21178 0
M  V30 657 O 79.1783 1.9338 -0.313187 0
M  V30 658 H 77.7583 0.106632 -0.73935 0
M  V30 659 H 80.4203 -0.438184 -1.8991 0
M  V30 660 H 79.5163 0.537972 -3.07428 0
M  V30 661 N 79.8174 1.5752 -0.0501392 0
M  V30 662 C 81.0654 1.9227 0.622642 0
M  V30 663 C 81.3864 0.929083 1.71444 0
M  V30 664 O 80.6564 -0.0262186 1.95882 0
M  V30 665 H 79.2364 0.709739 0.232981 0
M  V30 666 H 81.8984 1.94628 -0.102898 0
M  V30 667 H 80.9944 2.93479 1.06191 0
M  V30 668 N 81.2955 -0.223234 1.56011 0
M  V30 669 C 82.5205 -0.968978 1.83373 0
M  V30 670 C 82.9455 -1.77227 0.630254 0
M  V30 671 O 82.3035 -1.76345 -0.420959 0
M  V30 672 C 82.3515 -1.86363 3.08709 0
M  V30 673 O 81.4555 -2.95873 2.87285 0
M  V30 674 H 80.7965 -0.274461 0.604622 0
M  V30 675 H 83.3265 -0.237056 2.03222 0
M  V30 676 H 83.3365 -2.27376 3.38768 0
M  V30 677 H 82.0115 -1.27319 3.95933 0
M  V30 678 H 80.5885 -2.58818 2.68454 0
M  V30 679 N 82.7736 -1.49793 -0.48987 0
M  V30 680 C 84.0206 -1.59841 -1.24327 0
M  V30 681 C 84.3486 -0.290135 -1.92324 0
M  V30 682 O 83.6036 0.722749 -1.81865 0
M  V30 683 C 83.9026 -2.71488 -2.32441 0
M  V30 684 C 83.5686 -4.12614 -1.81826 0
M  V30 685 C 82.2306 -4.51017 -1.67742 0
M  V30 686 C 84.5826 -5.00892 -1.4407 0
M  V30 687 C 81.9106 -5.75459 -1.14297 0
M  V30 688 C 84.2626 -6.25863 -0.920742 0
M  V30 689 C 82.9266 -6.63086 -0.766383 0
M  V30 690 H 82.1966 -0.584899 -0.454944 0
M  V30 691 H 84.8436 -1.83663 -0.542215 0
M  V30 692 H 83.1486 -2.4168 -3.0838 0
M  V30 693 H 84.8456 -2.76469 -2.90458 0
M  V30 694 H 81.4356 -3.82307 -1.93751 0
M  V30 695 H 85.6196 -4.7187 -1.53794 0
M  V30 696 H 80.8756 -6.02989 -1.01068 0
M  V30 697 H 85.0496 -6.9364 -0.619448 0
M  V30 698 H 82.6766 -7.59393 -0.350083 0
M  V30 699 N 84.2517 0.741722 -1.39055 0
M  V30 700 C 85.4767 1.53607 -1.39354 0
M  V30 701 C 85.9017 1.88096 0.0116905 0
M  V30 702 O 85.2597 1.5143 0.996924 0
M  V30 703 C 85.3077 2.80441 -2.26682 0
M  V30 704 O 84.4117 3.76088 -1.69208 0
M  V30 705 H 83.7527 0.464142 -0.474835 0
M  V30 706 H 86.2827 0.915665 -1.82967 0
M  V30 707 H 86.2927 3.29246 -2.40959 0
M  V30 708 H 84.9677 2.5467 -3.2881 0
M  V30 709 H 83.5447 3.34833 -1.64138 0
M  V30 710 N 85.7298 1.2412 0.971189 0
M  V30 711 C 87.1458 1.00584 1.23916 0
M  V30 712 C 87.3458 -0.287481 1.99439 0
M  V30 713 O 86.4018 -1.00454 2.31658 0
M  V30 714 C 87.7148 2.21864 2.0297 0
M  V30 715 C 89.2628 2.26452 2.16076 0
M  V30 716 C 89.7378 3.47343 2.98524 0
M  V30 717 N 91.2288 3.47639 3.06107 0
M  V30 718 C 91.9638 4.37837 3.70251 0
M  V30 719 N 91.4598 5.38286 4.36142 0
M  V30 720 N 93.2528 4.25558 3.67228 0
M  V30 721 H 85.4038 2.07236 0.465499 0
M  V30 722 H 87.6668 0.909236 0.268315 0
M  V30 723 H 87.3728 3.15771 1.54861 0
M  V30 724 H 87.2468 2.23698 3.03709 0
M  V30 725 H 89.6338 1.33078 2.6339 0
M  V30 726 H 89.7148 2.28645 1.14696 0
M  V30 727 H 89.3588 4.41029 2.51905 0
M  V30 728 H 89.2888 3.42393 4.00093 0
M  V30 729 H 91.7798 2.74966 2.59233 0
M  V30 730 H 92.0928 6.03352 4.82894 0
M  V30 731 H 90.4378 5.42176 4.34822 0
M  V30 732 H 93.6288 3.46322 3.14927 0
M  V30 733 H 93.8018 4.96054 4.16935 0
M  V30 734 N 87.2079 -1.17134 1.05439 0
M  V30 735 C 88.4559 -1.87085 0.764429 0
M  V30 736 C 88.7769 -1.81584 -0.710787 0
M  V30 737 O 88.0469 -1.24349 -1.51374 0
M  V30 738 H 86.6269 -0.692627 0.279779 0
M  V30 739 H 89.2889 -1.42087 1.33406 0
M  V30 740 H 88.3849 -2.92759 1.0816 0
M  V30 741 N 88.686 -0.835752 -1.33615 0
M  V30 742 C 89.911 -0.442389 -2.02627 0
M  V30 743 C 90.336 0.947735 -1.62479 0
M  V30 744 O 89.694 1.61907 -0.815826 0
M  V30 745 C 89.742 -0.567216 -3.56111 0
M  V30 746 O 88.846 0.407799 -4.10379 0
M  V30 747 H 88.187 -0.180278 -0.639059 0
M  V30 748 H 90.717 -1.12972 -1.70583 0
M  V30 749 H 90.727 -0.447708 -4.05536 0
M  V30 750 H 89.402 -1.58103 -3.84677 0
M  V30 751 H 87.979 0.246107 -3.72087 0
M  V30 752 N 90.1641 1.46063 -0.591896 0
M  V30 753 C 91.3891 2.07226 -0.0850314 0
M  V30 754 C 91.8141 1.43625 1.21463 0
M  V30 755 O 91.1721 0.523305 1.73583 0
M  V30 756 C 91.2201 3.60554 0.0576567 0
M  V30 757 O 90.3241 3.97128 1.11188 0
M  V30 758 H 89.6651 0.660615 -0.0669568 0
M  V30 759 H 92.1951 1.8756 -0.81745 0
M  V30 760 H 92.2051 4.07165 0.2609 0
M  V30 761 H 90.8801 4.06235 -0.891416 0
M  V30 762 H 89.4571 3.62213 0.886356 0
M  V30 763 N 91.6422 0.330177 1.54103 0
M  V30 764 C 92.8902 -0.269871 2.0029 0
M  V30 765 C 93.2112 -1.52133 1.21986 0
M  V30 766 O 92.4812 -1.93212 0.323438 0
M  V30 767 H 91.0612 -0.10271 0.739905 0
M  V30 768 H 93.7232 0.448249 1.89675 0
M  V30 769 H 92.8192 -0.52166 3.07709 0
M  V30 770 N 93.1203 -1.57491 0.0584922 0
M  V30 771 C 94.3683 -1.92597 -0.612436 0
M  V30 772 C 94.6893 -0.938162 -1.70949 0
M  V30 773 O 93.9593 0.0158301 -1.95894 0
M  V30 774 H 92.5393 -0.710964 -0.229214 0
M  V30 775 H 95.2013 -1.94571 0.113218 0
M  V30 776 H 94.2973 -2.94038 -1.04633 0
M  V30 777 N 94.5984 0.214957 -1.56127 0
M  V30 778 C 95.8464 0.936518 -1.79091 0
M  V30 779 C 96.1674 1.84606 -0.628148 0
M  V30 780 O 95.4374 1.92664 0.35462 0
M  V30 781 H 94.0174 0.3488 -0.660566 0
M  V30 782 H 96.6794 0.22523 -1.93594 0
M  V30 783 H 95.7754 1.53943 -2.71492 0
M  V30 784 N 96.0765 1.50051 0.48192 0
M  V30 785 C 97.3165 1.62128 1.24474 0
M  V30 786 C 97.6805 0.309742 1.89485 0
M  V30 787 O 98.8815 0.305854 2.67054 0
M  V30 788 C 97.1525 2.76151 2.26882 0
M  V30 789 S 98.7115 3.08297 3.12247 0
M  V30 790 H 95.5295 0.571661 0.422759 0
M  V30 791 H 98.1315 1.87791 0.54359 0
M  V30 792 H 96.8355 3.69942 1.77683 0
M  V30 793 H 96.3665 2.52541 3.0164 0
M  V30 794 H 98.3815 2.51287 4.27866 0
M  V30 795 N 97.5546 -0.734337 1.39446 0
M  V30 796 C 98.8016 -1.49391 1.36706 0
M  V30 797 C 99.1296 -1.94465 -0.0367813 0
M  V30 798 O 98.3846 -1.67154 -1.01774 0
M  V30 799 C 98.6836 -2.74711 2.28623 0
M  V30 800 C 98.3496 -2.48501 3.76242 0
M  V30 801 C 97.0116 -2.41062 4.16464 0
M  V30 802 C 99.3636 -2.26098 4.69606 0
M  V30 803 C 96.6916 -2.09262 5.48112 0
M  V30 804 C 99.0436 -1.95814 6.01531 0
M  V30 805 C 97.7076 -1.86845 6.40816 0
M  V30 806 H 96.9776 -0.546661 0.500243 0
M  V30 807 H 99.6246 -0.842788 1.71957 0
M  V30 808 H 97.9296 -3.44569 1.86492 0
M  V30 809 H 99.6266 -3.32741 2.23796 0
M  V30 810 H 96.2166 -2.55169 3.44364 0
M  V30 811 H 100.401 -2.30812 4.39363 0
M  V30 812 H 95.6566 -2.00841 5.77471 0
M  V30 813 H 99.8306 -1.77488 6.73403 0
M  V30 814 H 97.4576 -1.6197 7.42745 0
M  V30 815 N 99.0327 -1.24633 -0.964593 0
M  V30 816 C 100.281 -1.08573 -1.70459 0
M  V30 817 C 100.602 0.375655 -1.91347 0
M  V30 818 O 99.8717 1.26779 -1.49345 0
M  V30 819 H 98.4517 -0.398784 -0.631649 0
M  V30 820 H 101.114 -1.56601 -1.16026 0
M  V30 821 H 100.21 -1.58623 -2.68785 0
M  V30 822 N 100.511 1.16574 -1.06058 0
M  V30 823 C 101.759 1.86677 -0.77434 0
M  V30 824 C 102.08 1.81959 0.701147 0
M  V30 825 O 101.35 1.2515 1.50713 0
M  V30 826 H 99.9298 0.691134 -0.283449 0
M  V30 827 H 102.592 1.41378 -1.34158 0
M  V30 828 H 101.688 2.92181 -1.09711 0
M  V30 829 N 101.989 0.842826 1.3317 0
M  V30 830 C 103.214 0.453129 2.02389 0
M  V30 831 C 103.639 -0.939105 1.6298 0
M  V30 832 O 102.997 -1.61472 0.8244 0
M  V30 833 C 103.045 0.586094 3.55805 0
M  V30 834 O 102.149 -0.386029 4.10589 0
M  V30 835 H 101.49 0.183664 0.638094 0
M  V30 836 H 104.02 1.13875 1.69981 0
M  V30 837 H 104.03 0.469209 4.05293 0
M  V30 838 H 102.705 1.6014 3.83833 0
M  V30 839 H 101.282 -0.226371 3.72212 0
M  V30 840 N 103.467 -1.45747 0.599634 0
M  V30 841 C 104.692 -2.07178 0.0960198 0
M  V30 842 C 105.117 -1.44268 -1.207 0
M  V30 843 O 104.475 -0.532503 -1.73303 0
M  V30 844 C 104.523 -3.60579 -0.0385348 0
M  V30 845 O 103.627 -3.97713 -1.0908 0
M  V30 846 H 102.968 -0.660251 0.0704593 0
M  V30 847 H 105.498 -1.87124 0.827385 0
M  V30 848 H 105.508 -4.07298 -0.239304 0
M  V30 849 H 104.183 -4.05756 0.912947 0
M  V30 850 H 102.76 -3.62678 -0.867135 0
M  V30 851 N 104.945 -0.338344 -1.53925 0
M  V30 852 C 106.193 0.259245 -2.0043 0
M  V30 853 C 106.514 1.51484 -1.22791 0
M  V30 854 O 105.784 1.93037 -0.33368 0
M  V30 855 H 104.364 0.0987845 -0.740439 0
M  V30 856 H 107.026 -0.458302 -1.89435 0
M  V30 857 H 106.122 0.505334 -3.07982 0
M  V30 858 N 106.423 1.57458 -0.0668435 0
M  V30 859 C 107.671 1.92919 0.602214 0
M  V30 860 C 107.992 0.947215 1.70449 0
M  V30 861 O 107.262 -0.00544117 1.95899 0
M  V30 862 H 105.842 0.71217 0.22544 0
M  V30 863 H 108.504 1.94508 -0.123535 0
M  V30 864 H 107.6 2.94589 1.03073 0
M  V30 865 N 107.901 -0.206675 1.56239 0
M  V30 866 C 109.131 -0.943975 1.83773 0
M  V30 867 C 109.539 -1.77841 0.645703 0
M  V30 868 O 108.882 -1.79403 -0.395008 0
M  V30 869 C 108.944 -1.899 3.05251 0
M  V30 870 C 108.608 -1.24764 4.39639 0
M  V30 871 C 109.605 -0.630216 5.16066 0
M  V30 872 C 107.29 -1.25496 4.8637 0
M  V30 873 C 109.284 -0.0287946 6.37393 0
M  V30 874 C 106.971 -0.649698 6.07637 0
M  V30 875 C 107.969 -0.0376845 6.8299 0
M  V30 876 O 107.657 0.55812 8.0196 0
M  V30 877 H 107.389 -0.281508 0.614597 0
M  V30 878 H 109.943 -0.222458 2.04192 0
M  V30 879 H 108.173 -2.6599 2.80689 0
M  V30 880 H 109.862 -2.5031 3.1953 0
M  V30 881 H 110.628 -0.616785 4.81062 0
M  V30 882 H 106.507 -1.72072 4.27683 0
M  V30 883 H 110.051 0.449518 6.9615 0
M  V30 884 H 105.948 -0.660592 6.42111 0
M  V30 885 H 106.716 0.453891 8.17241 0
M  V30 886 N 109.379 -1.50304 -0.473955 0
M  V30 887 C 110.627 -1.60832 -1.22382 0
M  V30 888 C 110.948 -0.30939 -1.9253 0
M  V30 889 O 110.218 0.67296 -1.83978 0
M  V30 890 H 108.798 -0.592652 -0.454723 0
M  V30 891 H 111.46 -1.87068 -0.546968 0
M  V30 892 H 110.556 -2.41803 -1.97327 0
M  V30 893 N 110.857 0.726932 -1.39834 0
M  V30 894 C 112.105 1.4837 -1.37225 0
M  V30 895 C 112.426 1.94979 0.0284857 0
M  V30 896 O 111.696 1.69555 0.981213 0
M  V30 897 H 110.276 0.55043 -0.505011 0
M  V30 898 H 112.938 0.862468 -1.74778 0
M  V30 899 H 112.034 2.36198 -2.04003 0
M  V30 900 N 112.336 1.25143 0.95797 0
M  V30 901 C 113.266 1.07711 2.07173 0
M  V30 902 C 114.247 -0.0128462 1.70095 0
M  V30 903 O 115.432 0.156061 1.93572 0
M  V30 904 C 112.562 0.691503 3.40346 0
M  V30 905 C 111.516 1.73132 3.9142 0
M  V30 906 C 110.842 1.20049 5.21049 0
M  V30 907 C 112.142 3.1294 4.1817 0
M  V30 908 H 113.836 2.00873 2.22014 0
M  V30 909 H 111.382 0.967191 1.06684 0
M  V30 910 H 113.335 0.556505 4.17709 0
M  V30 911 H 112.059 -0.275819 3.25433 0
M  V30 912 H 110.718 1.8547 3.16222 0
M  V30 913 H 110.366 0.223499 5.02503 0
M  V30 914 H 110.066 1.89545 5.56189 0
M  V30 915 H 111.59 1.07782 6.01012 0
M  V30 916 H 113.004 3.03775 4.86203 0
M  V30 917 H 111.401 3.79875 4.64559 0
M  V30 918 H 112.471 3.6025 3.24573 0
M  V30 919 N 113.814 -1.1601 1.06675 0
M  V30 920 C 115.062 -1.86264 0.784229 0
M  V30 921 C 115.383 -1.82328 -0.691488 0
M  V30 922 O 114.653 -1.25947 -1.50047 0
M  V30 923 H 113.233 -0.689621 0.28711 0
M  V30 924 H 115.895 -1.40664 1.34906 0
M  V30 925 H 114.991 -2.91595 1.11259 0
M  V30 926 N 115.292 -0.849877 -1.32721 0
M  V30 927 C 116.54 -0.450032 -1.97026 0
M  V30 928 C 116.861 0.996604 -1.67609 0
M  V30 929 O 116.131 1.6958 -0.980786 0
M  V30 930 H 114.711 -0.163426 -0.728904 0
M  V30 931 H 117.373 -1.08526 -1.6189 0
M  V30 932 H 116.469 -0.591146 -3.0645 0
M  V30 933 N 116.77 1.45427 -0.607355 0
M  V30 934 C 118.017 2.02241 -0.102455 0
M  V30 935 C 118.345 1.4758 1.26691 0
M  V30 936 O 117.6 0.640468 1.84923 0
M  V30 937 C 117.899 3.57398 -0.0129263 0
M  V30 938 C 117.565 4.3121 -1.31792 0
M  V30 939 C 116.227 4.51092 -1.67539 0
M  V30 940 C 118.579 4.73401 -2.18039 0
M  V30 941 C 115.907 5.10422 -2.89285 0
M  V30 942 C 118.259 5.34078 -3.39034 0
M  V30 943 C 116.923 5.52184 -3.75033 0
M  V30 944 H 116.193 0.740051 -0.037491 0
M  V30 945 H 118.84 1.74494 -0.788926 0
M  V30 946 H 117.145 3.84421 0.756806 0
M  V30 947 H 118.842 3.99061 0.393881 0
M  V30 948 H 115.432 4.16047 -1.02968 0
M  V30 949 H 119.616 4.57774 -1.91721 0
M  V30 950 H 114.872 5.22629 -3.17283 0
M  V30 951 H 119.046 5.65724 -4.06115 0
M  V30 952 H 116.673 5.97925 -4.69457 0
M  V30 953 N 118.248 0.346503 1.53744 0
M  V30 954 C 119.496 -0.248612 2.00565 0
M  V30 955 C 119.817 -1.5083 1.23593 0
M  V30 956 O 119.087 -1.92858 0.343912 0
M  V30 957 H 117.667 -0.0948564 0.740953 0
M  V30 958 H 120.329 0.468341 1.89189 0
M  V30 959 H 119.425 -0.488994 3.08245 0
M  V30 960 N 119.726 -1.57421 0.075193 0
M  V30 961 C 120.974 -1.93236 -0.591974 0
M  V30 962 C 121.295 -0.956241 -1.69944 0
M  V30 963 O 120.565 -0.00494792 -1.95899 0
M  V30 964 H 119.145 -0.713355 -0.22166 0
M  V30 965 H 121.807 -1.9444 0.133848 0
M  V30 966 H 120.903 -2.95131 -1.01509 0
M  V30 967 N 121.204 0.198386 -1.56346 0
M  V30 968 C 122.452 0.91747 -1.80075 0
M  V30 969 C 122.773 1.83929 -0.647692 0
M  V30 970 O 122.043 1.93029 0.334166 0
M  V30 971 H 120.623 0.341774 -0.664228 0
M  V30 972 H 123.285 0.204684 -1.93822 0
M  V30 973 H 122.381 1.51055 -2.7311 0
M  V30 974 N 122.682 1.50554 0.465978 0
M  V30 975 C 123.907 1.65838 1.24549 0
M  V30 976 C 124.332 0.343486 1.84937 0
M  V30 977 O 123.69 -0.69324 1.67523 0
M  V30 978 C 123.738 2.75533 2.32624 0
M  V30 979 O 122.842 2.37142 3.37398 0
M  V30 980 H 122.183 0.553893 0.366194 0
M  V30 981 H 124.713 1.96959 0.553927 0
M  V30 982 H 124.723 2.98763 2.77857 0
M  V30 983 H 123.398 3.70962 1.88043 0
M  V30 984 H 121.975 2.24377 2.97841 0
M  V30 985 N 124.16 -0.719506 1.40217 0
M  V30 986 C 125.407 -1.47933 1.38283 0
M  V30 987 C 125.735 -1.94493 -0.0161536 0
M  V30 988 O 124.99 -1.68224 -0.999956 0
M  V30 989 C 125.289 -2.72271 2.31524 0
M  V30 990 C 124.955 -2.44496 3.78857 0
M  V30 991 C 123.617 -2.36631 4.18998 0
M  V30 992 C 125.969 -2.21104 4.71977 0
M  V30 993 C 123.297 -2.03437 5.503 0
M  V30 994 C 125.649 -1.89423 6.03574 0
M  V30 995 C 124.313 -1.80038 6.42762 0
M  V30 996 H 123.583 -0.541325 0.506012 0
M  V30 997 H 126.23 -0.824502 1.72842 0
M  V30 998 H 124.535 -3.42572 1.90137 0
M  V30 999 H 126.232 -3.30348 2.27313 0
M  V30 1000 H 122.822 -2.51503 3.47051 0
M  V30 1001 H 127.006 -2.26139 4.41786 0
M  V30 1002 H 122.262 -1.94705 5.79569 0
M  V30 1003 H 126.436 -1.70336 6.75247 0
M  V30 1004 H 124.063 -1.54083 7.44421 0
M  V30 1005 N 125.638 -1.25649 -0.95132 0
M  V30 1006 C 127.054 -1.02542 -1.223 0
M  V30 1007 C 127.254 0.255715 -1.99871 0
M  V30 1008 O 126.31 0.967558 -2.33226 0
M  V30 1009 C 127.623 -2.25065 -1.99415 0
M  V30 1010 C 129.171 -2.29861 -2.12446 0
M  V30 1011 C 129.646 -3.52048 -2.92961 0
M  V30 1012 N 131.137 -3.52465 -3.00538 0
M  V30 1013 C 131.872 -4.43672 -3.63239 0
M  V30 1014 N 131.368 -5.45157 -4.27523 0
M  V30 1015 N 133.161 -4.31346 -3.60412 0
M  V30 1016 H 125.312 -2.07951 -0.432471 0
M  V30 1017 H 127.575 -0.91339 -0.253816 0
M  V30 1018 H 127.281 -3.18194 -1.49817 0
M  V30 1019 H 127.155 -2.28502 -3.00111 0
M  V30 1020 H 129.542 -1.37252 -2.61239 0
M  V30 1021 H 129.623 -2.3044 -1.11044 0
M  V30 1022 H 129.267 -4.44981 -2.44856 0
M  V30 1023 H 129.197 -3.48715 -3.94596 0
M  V30 1024 H 131.688 -2.79056 -2.54826 0
M  V30 1025 H 132.001 -6.10958 -4.73234 0
M  V30 1026 H 130.346 -5.49025 -4.26141 0
M  V30 1027 H 133.537 -3.51288 -3.09377 0
M  V30 1028 H 133.71 -5.02624 -4.0899 0
M  V30 1029 N 127.117 1.15442 -1.07289 0
M  V30 1030 C 128.365 1.85845 -0.794096 0
M  V30 1031 C 128.686 1.82692 0.681809 0
M  V30 1032 O 127.956 1.26741 1.49377 0
M  V30 1033 H 126.536 0.688089 -0.290763 0
M  V30 1034 H 129.198 1.39947 -1.3565 0
M  V30 1035 H 128.294 2.91001 -1.12804 0
M  V30 1036 N 128.595 0.856903 1.32268 0
M  V30 1037 C 129.82 0.474569 2.01897 0
M  V30 1038 C 130.245 -0.921766 1.63967 0
M  V30 1039 O 129.603 -1.60589 0.84148 0
M  V30 1040 C 129.651 0.623799 3.55164 0
M  V30 1041 O 128.755 -0.342459 4.10976 0
M  V30 1042 H 128.096 0.190422 0.63611 0
M  V30 1043 H 130.626 1.15672 1.68764 0
M  V30 1044 H 130.636 0.512169 4.04773 0
M  V30 1045 H 129.311 1.64202 3.82113 0
M  V30 1046 H 127.888 -0.18688 3.72431 0
M  V30 1047 N 130.073 -1.45103 0.615059 0
M  V30 1048 C 131.303 -2.06254 0.119596 0
M  V30 1049 C 131.711 -1.4591 -1.20445 0
M  V30 1050 O 131.054 -0.570384 -1.7462 0
M  V30 1051 C 131.116 -3.59396 -0.0865591 0
M  V30 1052 C 130.78 -4.42116 1.15683 0
M  V30 1053 C 131.777 -4.7662 2.07676 0
M  V30 1054 C 129.462 -4.82749 1.38775 0
M  V30 1055 C 131.456 -5.50622 3.21082 0
M  V30 1056 C 129.143 -5.56504 2.52481 0
M  V30 1057 C 130.141 -5.90358 3.43463 0
M  V30 1058 O 129.829 -6.62615 4.55189 0
M  V30 1059 H 129.561 -0.672423 0.0694512 0
M  V30 1060 H 132.115 -1.87219 0.844885 0
M  V30 1061 H 130.345 -3.76859 -0.866823 0
M  V30 1062 H 132.034 -4.02365 -0.534555 0
M  V30 1063 H 132.8 -4.4578 1.91063 0
M  V30 1064 H 128.679 -4.55829 0.688545 0
M  V30 1065 H 132.223 -5.76965 3.92119 0
M  V30 1066 H 128.12 -5.86759 2.69043 0
M  V30 1067 H 128.888 -6.81071 4.53966 0
M  V30 1068 N 131.551 -0.354651 -1.53558 0
M  V30 1069 C 132.799 0.237972 -2.00694 0
M  V30 1070 C 133.12 1.50173 -1.24391 0
M  V30 1071 O 132.39 1.92673 -0.354135 0
M  V30 1072 H 130.97 0.0909256 -0.741446 0
M  V30 1073 H 133.632 -0.478368 -1.88938 0
M  V30 1074 H 132.728 0.47264 -3.085 0
M  V30 1075 N 133.029 1.57378 -0.0835403 0
M  V30 1076 C 134.254 1.98682 0.594987 0
M  V30 1077 C 134.679 0.961969 1.61641 0
M  V30 1078 O 134.037 -0.0709989 1.81161 0
M  V30 1079 C 134.085 3.38988 1.2296 0
M  V30 1080 O 133.189 3.39208 2.34546 0
M  V30 1081 H 132.53 0.646368 0.152002 0
M  V30 1082 H 135.06 2.03961 -0.161533 0
M  V30 1083 H 135.07 3.76431 1.57366 0
M  V30 1084 H 133.745 4.13107 0.481228 0
M  V30 1085 H 132.322 3.13548 2.01846 0
M  V30 1086 N 134.507 -0.190092 1.56449 0
M  V30 1087 C 135.732 -0.929864 1.85387 0
M  V30 1088 C 136.157 -1.7585 0.667704 0
M  V30 1089 O 135.515 -1.77198 -0.383459 0
M  V30 1090 C 135.563 -1.79773 3.12593 0
M  V30 1091 O 134.667 -2.89713 2.93496 0
M  V30 1092 H 134.008 -0.261574 0.610307 0
M  V30 1093 H 136.538 -0.193896 2.03679 0
M  V30 1094 H 136.548 -2.20139 3.43515 0
M  V30 1095 H 135.223 -1.18892 3.98544 0
M  V30 1096 H 133.8 -2.53065 2.73884 0
M  V30 1097 N 135.985 -1.50799 -0.457987 0
M  V30 1098 C 137.21 -1.66496 -1.23668 0
M  V30 1099 C 137.635 -0.353288 -1.84752 0
M  V30 1100 O 136.993 0.684346 -1.67888 0
M  V30 1101 C 137.041 -2.76763 -2.3116 0
M  V30 1102 O 136.145 -2.38928 -3.36136 0
M  V30 1103 H 135.486 -0.555828 -0.363252 0
M  V30 1104 H 138.016 -1.9725 -0.543474 0
M  V30 1105 H 138.026 -3.00232 -2.76269 0
M  V30 1106 H 136.701 -3.71954 -1.86073 0
M  V30 1107 H 135.278 -2.25953 -2.96647 0
M  V30 1108 N 137.463 0.71206 -1.40597 0
M  V30 1109 C 138.71 1.47197 -1.39065 0
M  V30 1110 C 139.038 1.94499 0.00583891 0
M  V30 1111 O 138.293 1.68752 0.99102 0
M  V30 1112 C 138.592 2.71039 -2.32965 0
M  V30 1113 C 138.258 2.42484 -3.80148 0
M  V30 1114 C 136.92 2.34406 -4.20247 0
M  V30 1115 C 139.272 2.18598 -4.73143 0
M  V30 1116 C 136.6 2.00516 -5.51371 0
M  V30 1117 C 138.952 1.8622 -6.0457 0
M  V30 1118 C 137.616 1.76626 -6.43708 0
M  V30 1119 H 136.886 0.538634 -0.508876 0
M  V30 1120 H 139.533 0.815325 -1.73276 0
M  V30 1121 H 137.838 3.41558 -1.91951 0
M  V30 1122 H 139.535 3.29138 -2.29061 0
M  V30 1123 H 136.125 2.49659 -3.4838 0
M  V30 1124 H 140.309 2.23793 -4.42979 0
M  V30 1125 H 135.565 1.91628 -5.80593 0
M  V30 1126 H 139.739 1.66752 -6.76141 0
M  V30 1127 H 137.366 1.50133 -7.45228 0
M  V30 1128 N 138.941 1.26152 0.944643 0
M  V30 1129 C 140.189 1.11271 1.6871 0
M  V30 1130 C 140.51 -0.345166 1.91921 0
M  V30 1131 O 139.78 -1.24387 1.51343 0
M  V30 1132 H 138.36 0.408783 0.625224 0
M  V30 1133 H 141.022 1.58427 1.1352 0
M  V30 1134 H 140.118 1.62879 2.66227 0
M  V30 1135 N 140.419 -1.14872 1.07899 0
M  V30 1136 C 141.667 -1.85422 0.803941 0
M  V30 1137 C 141.988 -1.83051 -0.67211 0
M  V30 1138 O 141.258 -1.27532 -1.48703 0
M  V30 1139 H 139.838 -0.686537 0.294408 0
M  V30 1140 H 142.5 -1.39226 1.3639 0
M  V30 1141 H 141.596 -2.90399 1.14346 0
M  V30 1142 N 141.898 -0.863906 -1.31812 0
M  V30 1143 C 143.123 -0.48527 -2.01643 0
M  V30 1144 C 143.548 0.913058 -1.64453 0
M  V30 1145 O 142.906 1.6014 -0.849985 0
M  V30 1146 C 142.954 -0.642625 -3.54828 0
M  V30 1147 O 142.058 0.320659 -4.11151 0
M  V30 1148 H 141.399 -0.193793 -0.635091 0
M  V30 1149 H 143.929 -1.16565 -1.68148 0
M  V30 1150 H 143.939 -0.533628 -4.04495 0
M  V30 1151 H 142.614 -1.66227 -3.81237 0
M  V30 1152 H 141.191 0.167126 -3.72525 0
M  V30 1153 N 143.376 1.44774 -0.622745 0
M  V30 1154 C 144.606 2.06187 -0.130532 0
M  V30 1155 C 145.014 1.46547 1.19669 0
M  V30 1156 O 144.357 0.579636 1.74316 0
M  V30 1157 C 144.419 3.59437 0.0674983 0
M  V30 1158 C 144.083 4.41496 -1.18026 0
M  V30 1159 C 145.08 4.75512 -2.102 0
M  V30 1160 C 142.765 4.82007 -1.41333 0
M  V30 1161 C 144.759 5.48912 -3.23998 0
M  V30 1162 C 142.446 5.55157 -2.55429 0
M  V30 1163 C 143.444 5.88528 -3.46589 0
M  V30 1164 O 143.132 6.60191 -4.58697 0
M  V30 1165 H 142.864 0.672045 -0.0730162 0
M  V30 1166 H 145.418 1.86768 -0.854802 0
M  V30 1167 H 143.648 3.77314 0.846825 0
M  V30 1168 H 145.337 4.02642 0.513209 0
M  V30 1169 H 146.103 4.4476 -1.93425 0
M  V30 1170 H 141.982 4.55457 -0.712709 0
M  V30 1171 H 145.526 5.74877 -3.95174 0
M  V30 1172 H 141.423 5.85324 -2.72151 0
M  V30 1173 H 142.191 6.78654 -4.57571 0
M  V30 1174 N 144.854 0.36279 1.53368 0
M  V30 1175 C 146.102 -0.227326 2.00817 0
M  V30 1176 C 146.423 -1.49511 1.25186 0
M  V30 1177 O 145.693 -1.92482 0.364348 0
M  V30 1178 H 144.273 -0.0869923 0.741917 0
M  V30 1179 H 146.935 0.488381 1.88682 0
M  V30 1180 H 146.031 -0.456273 3.08747 0
M  V30 1181 N 146.332 -1.57332 0.0918853 0
M  V30 1182 C 147.58 -1.93853 -0.571446 0
M  V30 1183 C 147.901 -0.974212 -1.6892 0
M  V30 1184 O 147.171 -0.0257254 -1.95883 0
M  V30 1185 H 145.751 -0.715666 -0.214082 0
M  V30 1186 H 148.413 -1.94287 0.154464 0
M  V30 1187 H 147.509 -2.96191 -0.983729 0
M  V30 1188 N 147.81 0.181792 -1.56548 0
M  V30 1189 C 149.059 0.898348 -1.8059 0
M  V30 1190 C 149.372 1.83862 -0.667379 0
M  V30 1191 O 150.578 2.59678 -0.792446 0
M  V30 1192 C 149.034 1.64791 -3.19956 0
M  V30 1193 C 148.642 0.751789 -4.41647 0
M  V30 1194 C 150.386 2.35331 -3.53298 0
M  V30 1195 C 148.293 1.50098 -5.72035 0
M  V30 1196 H 147.223 0.339194 -0.673397 0
M  V30 1197 H 149.874 0.151413 -1.82874 0
M  V30 1198 H 148.256 2.43921 -3.11959 0
M  V30 1199 H 149.43 -0.0018076 -4.608 0
M  V30 1200 H 147.745 0.156562 -4.16106 0
M  V30 1201 H 150.342 2.91958 -4.47956 0
M  V30 1202 H 150.685 3.10164 -2.77676 0
M  V30 1203 H 151.218 1.63154 -3.62803 0
M  V30 1204 H 147.957 0.795175 -6.50659 0
M  V30 1205 H 147.477 2.22817 -5.56878 0
M  V30 1206 H 149.156 2.05125 -6.13622 0
M  V30 1207 N 149.288 1.51039 0.449983 0
M  V30 1208 C 150.535 1.63081 1.20045 0
M  V30 1209 C 150.863 0.341024 1.91487 0
M  V30 1210 O 150.118 -0.674276 1.83717 0
M  V30 1211 C 150.417 2.77556 2.25161 0
M  V30 1212 C 150.083 4.17289 1.70823 0
M  V30 1213 C 148.745 4.55305 1.55725 0
M  V30 1214 C 151.097 5.04536 1.3074 0
M  V30 1215 C 148.425 5.78287 0.989999 0
M  V30 1216 C 150.777 6.28085 0.754482 0
M  V30 1217 C 149.441 6.64885 0.590308 0
M  V30 1218 H 148.711 0.596755 0.439277 0
M  V30 1219 H 151.358 1.85037 0.49333 0
M  V30 1220 H 149.663 2.49771 3.01863 0
M  V30 1221 H 151.36 2.84073 2.83026 0
M  V30 1222 H 147.95 3.8731 1.83546 0
M  V30 1223 H 152.134 4.75782 1.41229 0
M  V30 1224 H 147.39 6.05456 0.850451 0
M  V30 1225 H 151.564 6.95038 0.435324 0
M  V30 1226 H 149.191 7.60055 0.14862 0
M  V30 1227 N 150.766 -0.704594 1.40972 0
M  V30 1228 C 152.014 -1.46169 1.39568 0
M  V30 1229 C 152.335 -1.95 0.00253745 0
M  V30 1230 O 151.605 -1.71095 -0.954114 0
M  V30 1231 H 150.185 -0.542326 0.513704 0
M  V30 1232 H 152.847 -0.834553 1.76128 0
M  V30 1233 H 151.943 -2.32922 2.07735 0
M  V30 1234 N 152.244 -1.26651 -0.937939 0
M  V30 1235 C 153.492 -1.12165 -1.68118 0
M  V30 1236 C 153.813 0.334983 -1.92101 0
M  V30 1237 O 153.083 1.23583 -1.52 0
M  V30 1238 H 151.663 -0.412093 -0.623048 0
M  V30 1239 H 154.325 -1.59027 -1.12678 0
M  V30 1240 H 153.421 -1.64289 -2.6536 0
M  V30 1241 N 153.722 1.14298 -1.08507 0
M  V30 1242 C 154.97 1.84993 -0.813763 0
M  V30 1243 C 155.291 1.83405 0.662393 0
M  V30 1244 O 154.561 1.28319 1.48024 0
M  V30 1245 H 153.141 0.684966 -0.298045 0
M  V30 1246 H 155.803 1.385 -1.37126 0
M  V30 1247 H 154.899 2.89788 -1.15884 0
M  V30 1248 N 155.201 0.870884 1.31352 0
M  V30 1249 C 156.426 0.495957 2.01383 0
M  V30 1250 C 156.851 -0.904324 1.64935 0
M  V30 1251 O 156.209 -1.59687 0.858466 0
M  V30 1252 C 156.257 0.661433 3.54482 0
M  V30 1253 O 155.361 -0.298851 4.11316 0
M  V30 1254 H 154.702 0.197158 0.634054 0
M  V30 1255 H 157.232 1.17455 1.67527 0
M  V30 1256 H 157.242 0.555072 4.04207 0
M  V30 1257 H 155.917 1.68246 3.8035 0
M  V30 1258 H 154.494 -0.147368 3.72609 0
M  V30 1259 N 156.679 -1.44442 0.630414 0
M  V30 1260 C 157.926 -2.02052 0.134617 0
M  V30 1261 C 158.254 -1.49576 -1.24327 0
M  V30 1262 O 157.509 -0.669806 -1.83881 0
M  V30 1263 C 157.808 -3.57332 0.0697835 0
M  V30 1264 C 157.474 -4.29058 1.38635 0
M  V30 1265 C 156.136 -4.4837 1.74694 0
M  V30 1266 C 158.488 -4.69872 2.25543 0
M  V30 1267 C 155.816 -5.05756 2.97369 0
M  V30 1268 C 158.168 -5.28616 3.47487 0
M  V30 1269 C 156.832 -5.46147 3.8377 0
M  V30 1270 H 156.102 -0.739361 0.0492598 0
M  V30 1271 H 158.749 -1.73217 0.816586 0
M  V30 1272 H 157.054 -3.85577 -0.695553 0
M  V30 1273 H 158.751 -3.99637 -0.330344 0
M  V30 1274 H 155.341 -4.14357 1.09574 0
M  V30 1275 H 159.525 -4.54666 1.98979 0
M  V30 1276 H 154.781 -5.17515 3.25558 0
M  V30 1277 H 158.955 -5.59192 4.15063 0
M  V30 1278 H 156.582 -5.9038 4.7891 0
M  V30 1279 N 158.157 -0.370918 -1.53173 0
M  V30 1280 C 159.405 0.216673 -2.00935 0
M  V30 1281 C 159.726 1.48845 -1.25977 0
M  V30 1282 O 158.996 1.92286 -0.374551 0
M  V30 1283 H 157.576 0.0830565 -0.742368 0
M  V30 1284 H 160.238 -0.49838 -1.8842 0
M  V30 1285 H 159.334 0.439893 -3.08984 0
M  V30 1286 N 159.635 1.57281 -0.100228 0
M  V30 1287 C 160.883 1.94153 0.561157 0
M  V30 1288 C 161.204 0.983157 1.68401 0
M  V30 1289 O 160.474 0.0361132 1.95867 0
M  V30 1290 H 159.054 0.716791 0.210283 0
M  V30 1291 H 161.716 1.94202 -0.164765 0
M  V30 1292 H 160.812 2.96709 0.968008 0
M  V30 1293 N 161.113 -0.173488 1.56642 0
M  V30 1294 C 162.361 -0.888706 1.81512 0
M  V30 1295 C 162.682 -1.82875 0.676872 0
M  V30 1296 O 161.952 -1.93536 -0.303414 0
M  V30 1297 H 160.532 -0.331164 0.669582 0
M  V30 1298 H 163.194 -0.173823 1.94123 0
M  V30 1299 H 162.29 -1.46691 2.75478 0
M  V30 1300 N 162.591 -1.51276 -0.441967 0
M  V30 1301 C 163.816 -1.67799 -1.21895 0
M  V30 1302 C 164.241 -0.372864 -1.84367 0
M  V30 1303 O 163.599 0.666501 -1.68604 0
M  V30 1304 C 163.647 -2.79199 -2.28211 0
M  V30 1305 O 162.751 -2.42479 -3.33583 0
M  V30 1306 H 162.092 -0.559649 -0.357336 0
M  V30 1307 H 164.622 -1.97815 -0.522522 0
M  V30 1308 H 164.632 -3.03146 -2.73069 0
M  V30 1309 H 163.307 -3.73906 -1.82118 0
M  V30 1310 H 161.884 -2.29087 -2.94234 0
M  V30 1311 N 164.069 0.697108 -1.41344 0
M  V30 1312 C 165.316 1.45714 -1.40619 0
M  V30 1313 C 165.644 1.94494 -0.0147907 0
M  V30 1314 O 164.899 1.69794 0.973066 0
M  V30 1315 C 165.198 2.68553 -2.35826 0
M  V30 1316 C 164.864 2.38438 -3.82698 0
M  V30 1317 C 163.526 2.29936 -4.22709 0
M  V30 1318 C 165.878 2.13567 -4.75435 0
M  V30 1319 C 163.206 1.94656 -5.53467 0
M  V30 1320 C 165.558 1.79797 -6.06511 0
M  V30 1321 C 164.222 1.69789 -6.45545 0
M  V30 1322 H 163.492 0.533206 -0.51456 0
M  V30 1323 H 166.139 0.796901 -1.74131 0
M  V30 1324 H 164.444 3.39503 -1.95563 0
M  V30 1325 H 166.141 3.2669 -2.32539 0
M  V30 1326 H 162.731 2.4595 -3.51008 0
M  V30 1327 H 166.915 2.19082 -4.45328 0
M  V30 1328 H 162.171 1.8546 -5.82593 0
M  V30 1329 H 166.345 1.59572 -6.77872 0
M  V30 1330 H 163.972 1.4222 -7.46778 0
M  V30 1331 N 165.547 1.27147 0.931209 0
M  V30 1332 C 166.795 1.13055 1.6752 0
M  V30 1333 C 167.116 -0.324791 1.92276 0
M  V30 1334 O 166.386 -1.22775 1.52654 0
M  V30 1335 H 164.966 0.415391 0.620854 0
M  V30 1336 H 167.628 1.59623 1.11833 0
M  V30 1337 H 166.724 1.65694 2.64485 0
M  V30 1338 N 167.025 -1.13721 1.09112 0
M  V30 1339 C 168.273 -1.84559 0.823562 0
M  V30 1340 C 168.594 -1.83754 -0.652658 0
M  V30 1341 O 167.864 -1.29102 -1.47342 0
M  V30 1342 H 166.444 -0.683376 0.301673 0
M  V30 1343 H 169.106 -1.37771 1.37859 0
M  V30 1344 H 168.202 -2.8917 1.17419 0
M  V30 1345 N 168.503 -0.877838 -1.30888 0
M  V30 1346 C 169.751 -0.491723 -1.96027 0
M  V30 1347 C 170.072 0.960827 -1.69685 0
M  V30 1348 O 169.342 1.67462 -1.01654 0
M  V30 1349 H 167.922 -0.17885 -0.725273 0
M  V30 1350 H 170.584 -1.11935 -1.59551 0
M  V30 1351 H 169.68 -0.656016 -3.05128 0
M  V30 1352 N 169.982 1.44106 -0.638065 0
M  V30 1353 C 171.207 2.0685 -0.150916 0
M  V30 1354 C 171.632 1.47417 1.16833 0
M  V30 1355 O 170.99 0.578264 1.71831 0
M  V30 1356 C 171.038 3.60555 -0.05708 0
M  V30 1357 O 170.142 4.00465 0.984972 0
M  V30 1358 H 169.483 0.658151 -0.0879399 0
M  V30 1359 H 172.013 1.84865 -0.876707 0
M  V30 1360 H 172.023 4.07789 0.131232 0
M  V30 1361 H 170.698 4.03193 -1.02021 0
M  V30 1362 H 169.275 3.64849 0.770672 0
M  V30 1363 N 171.46 0.379036 1.52974 0
M  V30 1364 C 172.707 -0.206421 2.01445 0
M  V30 1365 C 173.035 -1.47668 1.26587 0
M  V30 1366 O 172.29 -1.92514 0.351675 0
M  V30 1367 C 172.589 -0.53096 3.53434 0
M  V30 1368 C 172.255 0.646546 4.46241 0
M  V30 1369 C 170.917 0.969604 4.7133 0
M  V30 1370 C 173.269 1.43479 5.01062 0
M  V30 1371 C 170.597 2.08263 5.48492 0
M  V30 1372 C 172.949 2.53834 5.7944 0
M  V30 1373 C 171.613 2.86659 6.02812 0
M  V30 1374 H 170.883 -0.0755349 0.73714 0
M  V30 1375 H 173.53 0.514271 1.84465 0
M  V30 1376 H 171.835 -1.33285 3.68432 0
M  V30 1377 H 173.532 -0.996417 3.88423 0
M  V30 1378 H 170.122 0.384734 4.2687 0
M  V30 1379 H 174.306 1.19844 4.81613 0
M  V30 1380 H 169.562 2.34078 5.64816 0
M  V30 1381 H 173.736 3.15319 6.20924 0
M  V30 1382 H 171.363 3.73026 6.62387 0
M  V30 1383 N 172.938 -1.57226 0.108567 0
M  V30 1384 C 174.186 -1.94448 -0.550853 0
M  V30 1385 C 174.507 -0.992074 -1.67878 0
M  V30 1386 O 173.777 -0.0465 -1.95845 0
M  V30 1387 H 172.357 -0.717897 -0.206479 0
M  V30 1388 H 175.019 -1.94112 0.175062 0
M  V30 1389 H 174.115 -2.97218 -0.952259 0
M  V30 1390 N 174.416 0.165178 -1.56732 0
M  V30 1391 C 175.664 0.879068 -1.8198 0
M  V30 1392 C 175.985 1.82514 -0.686561 0
M  V30 1393 O 175.255 1.93694 0.293146 0
M  V30 1394 H 173.835 0.327608 -0.671329 0
M  V30 1395 H 176.497 0.163526 -1.94213 0
M  V30 1396 H 175.593 1.45228 -2.76252 0
M  V30 1397 N 175.894 1.51508 0.433938 0
M  V30 1398 C 177.142 1.6402 1.18075 0
M  V30 1399 C 177.463 0.360328 1.91642 0
M  V30 1400 O 176.733 -0.623945 1.85698 0
M  V30 1401 H 175.313 0.6045 0.43885 0
M  V30 1402 H 177.975 1.88452 0.497178 0
M  V30 1403 H 177.071 2.46949 1.90847 0
M  V30 1404 N 177.372 -0.689602 1.41712 0
M  V30 1405 C 178.62 -1.4468 1.4111 0
M  V30 1406 C 178.941 -1.94986 0.0232196 0
M  V30 1407 O 178.211 -1.72097 -0.935913 0
M  V30 1408 H 176.791 -0.536847 0.519427 0
M  V30 1409 H 179.453 -0.815825 1.77004 0
M  V30 1410 H 178.549 -2.30706 2.10193 0
M  V30 1411 N 178.85 -1.27639 -0.924453 0
M  V30 1412 C 180.097 -1.14167 -1.67249 0
M  V30 1413 C 180.425 0.311863 -1.91984 0
M  V30 1414 O 179.68 1.24425 -1.51053 0
M  V30 1415 C 179.979 -1.87407 -3.04325 0
M  V30 1416 C 179.645 -3.37249 -2.99289 0
M  V30 1417 C 178.307 -3.7812 -2.97622 0
M  V30 1418 C 180.659 -4.32845 -2.90336 0
M  V30 1419 C 177.987 -5.12944 -2.8479 0
M  V30 1420 C 180.339 -5.6773 -2.79045 0
M  V30 1421 C 179.003 -6.07889 -2.7573 0
M  V30 1422 H 178.273 -0.417766 -0.612007 0
M  V30 1423 H 180.92 -1.58286 -1.07786 0
M  V30 1424 H 179.225 -1.35805 -3.67511 0
M  V30 1425 H 180.922 -1.74408 -3.61086 0
M  V30 1426 H 177.512 -3.04748 -3.01374 0
M  V30 1427 H 181.696 -4.02239 -2.90719 0
M  V30 1428 H 176.952 -5.432 -2.80612 0
M  V30 1429 H 181.126 -6.41472 -2.71083 0
M  V30 1430 H 178.753 -7.12314 -2.65544 0
M  V30 1431 N 180.328 1.1314 -1.09713 0
M  V30 1432 C 181.576 1.84119 -0.833338 0
M  V30 1433 C 181.897 1.84097 0.642904 0
M  V30 1434 O 181.167 1.29881 1.46655 0
M  V30 1435 H 179.747 0.681766 -0.305293 0
M  V30 1436 H 182.409 1.37038 -1.38588 0
M  V30 1437 H 181.505 2.88543 -1.18951 0
M  V30 1438 N 181.806 0.884767 1.30421 0
M  V30 1439 C 183.054 0.502112 1.95763 0
M  V30 1440 C 183.375 -0.951815 1.70192 0
M  V30 1441 O 182.645 -1.6692 1.0254 0
M  V30 1442 H 181.225 0.182694 0.724315 0
M  V30 1443 H 183.887 1.1278 1.58955 0
M  V30 1444 H 182.983 0.672188 3.04775 0
M  V30 1445 N 183.284 -1.43765 0.645699 0
M  V30 1446 C 184.532 -2.01499 0.155731 0
M  V30 1447 C 184.853 -1.51151 -1.232 0
M  V30 1448 O 184.123 -0.721044 -1.82148 0
M  V30 1449 H 182.703 -0.745003 0.0545817 0
M  V30 1450 H 185.365 -1.76075 0.835677 0
M  V30 1451 H 184.461 -3.1181 0.134577 0
M  V30 1452 N 184.763 -0.387143 -1.52771 0
M  V30 1453 C 186.011 0.195349 -2.01154 0
M  V30 1454 C 186.332 1.475 -1.27549 0
M  V30 1455 O 185.602 1.91878 -0.394924 0
M  V30 1456 H 184.182 0.075178 -0.743207 0
M  V30 1457 H 186.844 -0.518337 -1.87881 0
M  V30 1458 H 185.94 0.407096 -3.09434 0
M  V30 1459 N 186.241 1.57166 -0.116904 0
M  V30 1460 C 187.488 1.95123 0.541603 0
M  V30 1461 C 187.816 1.00006 1.6682 0
M  V30 1462 O 187.071 0.0235658 1.95686 0
M  V30 1463 C 187.37 3.39508 1.11664 0
M  V30 1464 C 187.036 4.50762 0.111606 0
M  V30 1465 C 185.698 4.80918 -0.164758 0
M  V30 1466 C 188.05 5.18036 -0.573438 0
M  V30 1467 C 185.378 5.75666 -1.13249 0
M  V30 1468 C 187.73 6.13824 -1.52978 0
M  V30 1469 C 186.394 6.42374 -1.81415 0
M  V30 1470 H 185.664 0.714005 0.198187 0
M  V30 1471 H 188.311 1.9048 -0.197365 0
M  V30 1472 H 186.616 3.40835 1.93232 0
M  V30 1473 H 188.313 3.66189 1.63422 0
M  V30 1474 H 184.903 4.27272 0.337192 0
M  V30 1475 H 189.087 4.94896 -0.373092 0
M  V30 1476 H 184.343 5.96092 -1.35958 0
M  V30 1477 H 188.517 6.65039 -2.06629 0
M  V30 1478 H 186.144 7.15599 -2.56557 0
M  V30 1479 N 187.719 -0.156864 1.56817 0
M  V30 1480 C 188.967 -0.869404 1.82444 0
M  V30 1481 C 189.288 -1.82147 0.69623 0
M  V30 1482 O 188.558 -1.93847 -0.28287 0
M  V30 1483 H 187.138 -0.324043 0.673056 0
M  V30 1484 H 189.8 -0.153224 1.94297 0
M  V30 1485 H 188.896 -1.43761 2.77019 0
M  V30 1486 N 189.197 -1.51736 -0.425897 0
M  V30 1487 C 190.445 -1.64644 -1.17204 0
M  V30 1488 C 190.766 -0.370486 -1.91448 0
M  V30 1489 O 190.036 0.614088 -1.86026 0
M  V30 1490 H 188.616 -0.606819 -0.435638 0
M  V30 1491 H 191.278 -1.88713 -0.487177 0
M  V30 1492 H 190.374 -2.47958 -1.89534 0
M  V30 1493 N 190.675 0.682077 -1.42076 0
M  V30 1494 C 191.923 1.4393 -1.41876 0
M  V30 1495 C 192.244 1.94971 -0.0335599 0
M  V30 1496 O 191.514 1.72591 0.926773 0
M  V30 1497 H 190.094 0.534085 -0.522267 0
M  V30 1498 H 192.756 0.806427 -1.77434 0
M  V30 1499 H 191.852 2.29588 -2.11414 0
M  V30 1500 N 192.153 1.28127 0.917671 0
M  V30 1501 C 193.4 1.15052 1.66641 0
M  V30 1502 C 193.728 -0.301677 1.92146 0
M  V30 1503 O 192.983 -1.23622 1.51711 0
M  V30 1504 C 193.282 1.89018 3.03327 0
M  V30 1505 C 192.948 3.38832 2.97496 0
M  V30 1506 C 191.61 3.79693 2.95613 0
M  V30 1507 C 193.962 4.34378 2.88036 0
M  V30 1508 C 191.29 5.14447 2.82066 0
M  V30 1509 C 193.642 5.69201 2.7603 0
M  V30 1510 C 192.306 6.09343 2.72502 0
M  V30 1511 H 191.576 0.421006 0.609783 0
M  V30 1512 H 194.223 1.58855 1.06945 0
M  V30 1513 H 192.528 1.37752 3.66785 0
M  V30 1514 H 194.225 1.76321 3.60156 0
M  V30 1515 H 190.815 3.06342 2.99754 0
M  V30 1516 H 194.999 4.03775 2.88581 0
M  V30 1517 H 190.255 5.44681 2.77728 0
M  V30 1518 H 194.429 6.42901 2.67678 0
M  V30 1519 H 192.056 7.13712 2.61762 0
M  V30 1520 N 193.631 -1.12557 1.10312 0
M  V30 1521 C 194.879 -1.83675 0.843091 0
M  V30 1522 C 195.2 -1.84435 -0.633131 0
M  V30 1523 O 194.47 -1.30657 -1.45964 0
M  V30 1524 H 193.05 -0.680138 0.308904 0
M  V30 1525 H 195.712 -1.36301 1.39313 0
M  V30 1526 H 194.808 -2.87908 1.2048 0
M  V30 1527 N 195.109 -0.891671 -1.2995 0
M  V30 1528 C 196.357 -0.512486 -1.95494 0
M  V30 1529 C 196.678 0.942776 -1.70695 0
M  V30 1530 O 195.948 1.66374 -1.03424 0
M  V30 1531 H 194.528 -0.186533 -0.723336 0
M  V30 1532 H 197.19 -1.13621 -1.58355 0
M  V30 1533 H 196.286 -0.688342 -3.04415 0
M  V30 1534 N 196.587 1.43421 -0.653314 0
M  V30 1535 C 197.835 2.01414 -0.166415 0
M  V30 1536 C 198.156 1.51803 1.22397 0
M  V30 1537 O 197.426 0.730693 1.81763 0
M  V30 1538 H 196.006 0.744703 -0.0585319 0
M  V30 1539 H 198.668 1.75629 -0.845003 0
M  V30 1540 H 197.764 3.11734 -0.151111 0
M  V30 1541 N 198.065 0.39524 1.52563 0
M  V30 1542 C 199.312 -0.185044 2.01653 0
M  V30 1543 C 199.64 -1.46317 1.28146 0
M  V30 1544 O 198.895 -1.9213 0.372074 0
M  V30 1545 C 199.194 -0.493444 3.53977 0
M  V30 1546 C 198.86 0.69384 4.4553 0
M  V30 1547 C 197.522 1.01954 4.70275 0
M  V30 1548 C 199.874 1.48785 4.99512 0
M  V30 1549 C 197.202 2.14069 5.46252 0
M  V30 1550 C 199.554 2.59965 5.76716 0
M  V30 1551 C 198.218 2.93037 5.99738 0
M  V30 1552 H 197.488 -0.0677123 0.7379 0
M  V30 1553 H 200.135 0.533807 1.8391 0
M  V30 1554 H 198.44 -1.29369 3.69825 0
M  V30 1555 H 200.137 -0.955163 3.89458 0
M  V30 1556 H 196.727 0.429987 4.26438 0
M  V30 1557 H 200.911 1.24946 4.80315 0
M  V30 1558 H 196.167 2.40056 5.62302 0
M  V30 1559 H 200.341 3.21887 6.17545 0
M  V30 1560 H 197.968 3.8003 6.58393 0
M  V30 1561 N 199.544 -1.57102 0.125237 0
M  V30 1562 C 200.792 -1.95021 -0.530198 0
M  V30 1563 C 201.113 -1.00982 -1.66816 0
M  V30 1564 O 200.383 -0.0672693 -1.95784 0
M  V30 1565 H 198.963 -0.720046 -0.198853 0
M  V30 1566 H 201.625 -1.93916 0.19564 0
M  V30 1567 H 200.721 -2.98211 -0.920681 0
M  V30 1568 N 201.022 0.148545 -1.56898 0
M  V30 1569 C 202.27 0.859717 -1.82902 0
M  V30 1570 C 202.591 1.81775 -0.70588 0
M  V30 1571 O 201.861 1.93994 0.272586 0
M  V30 1572 H 200.441 0.320469 -0.674766 0
M  V30 1573 H 203.103 0.142918 -1.94375 0
M  V30 1574 H 202.199 1.4229 -2.77777 0
M  V30 1575 N 202.5 1.5196 0.417844 0
M  V30 1576 C 203.777 1.56146 1.17803 0
M  V30 1577 C 204.157 0.337275 2.08388 0
M  V30 1578 O 203.505 -0.676447 2.18258 0
M  V30 1579 C 203.715 2.88566 1.96293 0
M  V30 1580 C 205.063 3.41244 2.52662 0
M  V30 1581 O 206.087 2.90247 2.06483 0
M  V30 1582 O 204.946 4.30273 3.36938 0
M  V30 1583 H 202.04 0.628598 0.537395 0
M  V30 1584 H 204.586 1.64283 0.425331 0
M  V30 1585 H 203.358 3.69116 1.2988 0
M  V30 1586 H 202.981 2.83681 2.78587 0
M  V30 1587 N 203.978 -0.674533 1.42435 0
M  V30 1588 C 205.226 -1.43175 1.42637 0
M  V30 1589 C 205.547 -1.94951 0.0438992 0
M  V30 1590 O 204.817 -1.7308 -0.917607 0
M  V30 1591 H 203.397 -0.531307 0.525092 0
M  V30 1592 H 206.059 -0.797006 1.77859 0
M  V30 1593 H 205.155 -2.28463 2.12629 0
M  V30 1594 N 205.456 -1.28612 -0.910864 0
M  V30 1595 C 206.704 -1.15705 -1.65701 0
M  V30 1596 C 207.025 0.29416 -1.92769 0
M  V30 1597 O 206.295 1.20331 -1.54588 0
M  V30 1598 H 204.875 -0.425216 -0.614167 0
M  V30 1599 H 207.537 -1.61381 -1.0928 0
M  V30 1600 H 206.633 -1.6988 -2.61815 0
M  V30 1601 N 206.934 1.1197 -1.10907 0
M  V30 1602 C 207.864 2.19928 -0.784473 0
M  V30 1603 C 208.845 1.6833 0.244726 0
M  V30 1604 O 210.03 1.93892 0.109418 0
M  V30 1605 C 207.16 3.46597 -0.220827 0
M  V30 1606 C 206.114 4.11376 -1.18127 0
M  V30 1607 C 205.44 5.32554 -0.478594 0
M  V30 1608 C 206.74 4.56945 -2.52979 0
M  V30 1609 H 208.434 2.47337 -1.68715 0
M  V30 1610 H 205.98 1.18879 -0.812642 0
M  V30 1611 H 207.933 4.21396 0.0184278 0
M  V30 1612 H 206.657 3.1863 0.717113 0
M  V30 1613 H 205.316 3.38564 -1.40606 0
M  V30 1614 H 204.964 5.00856 0.463976 0
M  V30 1615 H 204.664 5.76844 -1.11912 0
M  V30 1616 H 206.188 6.10096 -0.248 0
M  V30 1617 H 207.602 5.23093 -2.3462 0
M  V30 1618 H 205.999 5.1203 -3.12962 0
M  V30 1619 H 207.069 3.70676 -3.12614 0
M  V30 1620 N 208.412 0.89855 1.29475 0
M  V30 1621 C 209.342 0.39201 2.30186 0
M  V30 1622 C 210.323 -0.532359 1.61555 0
M  V30 1623 O 211.508 -0.443331 1.89072 0
M  V30 1624 C 208.638 -0.382353 3.45189 0
M  V30 1625 C 207.592 0.451483 4.25612 0
M  V30 1626 C 206.918 -0.450307 5.328 0
M  V30 1627 C 208.218 1.70079 4.93832 0
M  V30 1628 H 209.912 1.23362 2.72804 0
M  V30 1629 H 207.458 0.594638 1.31149 0
M  V30 1630 H 209.411 -0.747451 4.14718 0
M  V30 1631 H 208.135 -1.25774 3.01411 0
M  V30 1632 H 206.794 0.798897 3.57789 0
M  V30 1633 H 206.442 -1.32379 4.85268 0
M  V30 1634 H 206.142 0.103902 5.87508 0
M  V30 1635 H 207.666 -0.811623 6.05182 0
M  V30 1636 H 209.08 1.40549 5.55805 0
M  V30 1637 H 207.477 2.19623 5.58467 0
M  V30 1638 H 208.547 2.43744 4.19186 0
M  V30 1639 N 209.89 -1.43072 0.660911 0
M  V30 1640 C 211.115 -2.06584 0.183805 0
M  V30 1641 C 211.54 -1.49257 -1.14472 0
M  V30 1642 O 210.898 -0.605528 -1.70889 0
M  V30 1643 C 210.946 -3.60418 0.114434 0
M  V30 1644 O 210.05 -4.01981 -0.921137 0
M  V30 1645 H 209.391 -0.656669 0.0983994 0
M  V30 1646 H 211.921 -1.83447 0.906006 0
M  V30 1647 H 211.931 -4.07946 -0.0663394 0
M  V30 1648 H 210.606 -4.01519 1.08422 0
M  V30 1649 H 209.183 -3.66029 -0.71253 0
M  V30 1650 N 211.368 -0.403325 -1.52352 0
M  V30 1651 C 212.616 0.174003 -2.0135 0
M  V30 1652 C 212.937 1.46139 -1.29106 0
M  V30 1653 O 212.207 1.91448 -0.415253 0
M  V30 1654 H 210.787 0.0672911 -0.743963 0
M  V30 1655 H 213.449 -0.538235 -1.87321 0
M  V30 1656 H 212.545 0.374254 -3.09848 0
M  V30 1657 N 212.846 1.57033 -0.133567 0
M  V30 1658 C 213.794 2.17348 0.828412 0
M  V30 1659 C 214.788 1.12671 1.26498 0
M  V30 1660 O 215.994 1.30947 1.23502 0
M  V30 1661 H 212.369 0.695775 0.285309 0
M  V30 1662 H 214.34 2.96935 0.295372 0
M  V30 1663 C 213.089 2.79893 2.06289 0
M  V30 1664 H 212.412 3.60147 1.73592 0
M  V30 1665 H 213.852 3.25615 2.71572 0
M  V30 1666 C 212.311 1.77713 2.86216 0
M  V30 1667 O 212.841 1.23937 3.82103 0
M  V30 1668 N 211.047 1.47321 2.50489 0
M  V30 1669 H 210.594 1.91243 1.7258 0
M  V30 1670 H 210.552 0.79199 3.04261 0
M  V30 1671 N 214.325 -0.140222 1.56975 0
M  V30 1672 C 215.235 -1.19223 2.02047 0
M  V30 1673 C 216.251 -1.46612 0.937062 0
M  V30 1674 O 217.427 -1.58148 1.24704 0
M  V30 1675 C 214.492 -2.50414 2.39778 0
M  V30 1676 C 213.553 -2.30612 3.621 0
M  V30 1677 C 212.786 -3.55547 3.98023 0
M  V30 1678 O 213.009 -4.62004 3.34528 0
M  V30 1679 O 211.943 -3.47808 4.91237 0
M  V30 1680 H 215.769 -0.839559 2.91865 0
M  V30 1681 H 213.354 -0.349453 1.45256 0
M  V30 1682 H 215.236 -3.27747 2.64877 0
M  V30 1683 H 213.911 -2.85198 1.53114 0
M  V30 1684 H 212.818 -1.51207 3.4218 0
M  V30 1685 H 214.151 -2.00741 4.49404 0
M  V30 1686 N 215.803 -1.52179 -0.40978 0
M  V30 1687 C 216.75 -1.75475 -1.49924 0
M  V30 1688 C 217.72 -0.597175 -1.54994 0
M  V30 1689 O 218.905 -0.834655 -1.71575 0
M  V30 1690 C 216.045 -1.9107 -2.87378 0
M  V30 1691 C 215.158 -3.18717 -2.91622 0
M  V30 1692 C 214.293 -3.24747 -4.20372 0
M  V30 1693 C 213.332 -4.46598 -4.18588 0
M  V30 1694 N 212.469 -4.50025 -5.38908 0
M  V30 1695 H 217.309 -2.68458 -1.29361 0
M  V30 1696 H 214.846 -1.33024 -0.627934 0
M  V30 1697 H 216.804 -1.98096 -3.6717 0
M  V30 1698 H 215.434 -1.01469 -3.06437 0
M  V30 1699 H 214.486 -3.20866 -2.04326 0
M  V30 1700 H 215.798 -4.08544 -2.86169 0
M  V30 1701 H 214.952 -3.30841 -5.08556 0
M  V30 1702 H 213.691 -2.32857 -4.28519 0
M  V30 1703 H 212.696 -4.40652 -3.28794 0
M  V30 1704 H 213.921 -5.39783 -4.12081 0
M  V30 1705 H 211.867 -3.61017 -5.47725 0
M  V30 1706 H 211.784 -5.33697 -5.35447 0
M  V30 1707 H 213.052 -4.60347 -6.29048 0
M  V30 1708 N 217.281 0.66697 -1.42791 0
M  V30 1709 C 218.527 1.4291 -1.43891 0
M  V30 1710 C 218.86 1.94114 -0.0578972 0
M  V30 1711 O 218.135 1.71414 0.91911 0
M  V30 1712 C 218.418 2.62049 -2.46987 0
M  V30 1713 C 218.271 2.16426 -3.94309 0
M  V30 1714 C 219.59 3.64266 -2.46978 0
M  V30 1715 H 216.709 0.518306 -0.523954 0
M  V30 1716 H 219.351 0.757321 -1.74255 0
M  V30 1717 H 217.501 3.19361 -2.21225 0
M  V30 1718 H 219.173 1.64221 -4.31079 0
M  V30 1719 H 217.416 1.47925 -4.078 0
M  V30 1720 H 218.087 3.02038 -4.62036 0
M  V30 1721 H 220.563 3.16686 -2.69906 0
M  V30 1722 H 219.439 4.45196 -3.21079 0
M  V30 1723 H 219.7 4.15927 -1.49857 0
M  V30 1724 N 218.759 1.29093 0.90403 0
M  V30 1725 C 219.987 1.19689 1.68766 0
M  V30 1726 C 220.402 -0.243113 1.87228 0
M  V30 1727 O 219.759 -1.16326 1.40621 0
M  V30 1728 C 219.81 1.90144 3.07453 0
M  V30 1729 O 219.531 3.2852 2.89838 0
M  V30 1730 C 221.032 1.87162 4.01852 0
M  V30 1731 H 218.252 0.415035 0.527244 0
M  V30 1732 H 220.796 1.7039 1.13082 0
M  V30 1733 H 218.951 1.43289 3.59926 0
M  V30 1734 H 219.365 3.63944 3.77684 0
M  V30 1735 H 220.839 2.41032 4.96596 0
M  V30 1736 H 221.316 0.84617 4.30972 0
M  V30 1737 H 221.922 2.33741 3.5531 0
M  V30 1738 N 220.237 -1.11381 1.11499 0
M  V30 1739 C 221.17 -2.16621 0.71769 0
M  V30 1740 C 222.148 -1.60058 -0.286413 0
M  V30 1741 O 223.332 -1.87613 -0.182689 0
M  V30 1742 C 220.459 -3.38646 0.0607265 0
M  V30 1743 C 219.505 -4.13874 1.03008 0
M  V30 1744 S 220.338 -4.70731 2.55289 0
M  V30 1745 C 221.494 -5.96079 1.90895 0
M  V30 1746 H 221.727 -2.49987 1.60915 0
M  V30 1747 H 219.26 -1.23015 0.933092 0
M  V30 1748 H 221.218 -4.09313 -0.311965 0
M  V30 1749 H 219.879 -3.03537 -0.807702 0
M  V30 1750 H 219.072 -5.01333 0.517853 0
M  V30 1751 H 218.674 -3.4897 1.34522 0
M  V30 1752 H 220.966 -6.65948 1.24577 0
M  V30 1753 H 221.909 -6.51946 2.76354 0
M  V30 1754 H 222.317 -5.47652 1.36885 0
M  V30 1755 N 221.715 -0.905404 -1.28997 0
M  V30 1756 C 222.647 -0.344748 -2.26592 0
M  V30 1757 C 223.66 0.512135 -1.54535 0
M  V30 1758 O 224.849 0.328368 -1.75454 0
M  V30 1759 C 221.949 0.526587 -3.34784 0
M  V30 1760 C 221.122 -0.305871 -4.36329 0
M  V30 1761 C 220.181 0.499209 -5.23827 0
M  V30 1762 O 219.207 -0.0853004 -5.69136 0
M  V30 1763 N 220.409 1.80408 -5.51755 0
M  V30 1764 H 223.174 -1.18359 -2.75338 0
M  V30 1765 H 220.735 -0.770481 -1.42391 0
M  V30 1766 H 222.727 1.07171 -3.90252 0
M  V30 1767 H 221.297 1.26613 -2.85811 0
M  V30 1768 H 220.517 -1.0324 -3.80441 0
M  V30 1769 H 221.805 -0.875773 -5.01206 0
M  V30 1770 H 221.203 2.3016 -5.16762 0
M  V30 1771 H 219.76 2.29621 -6.10014 0
M  V30 1772 N 223.193 1.4272 -0.668489 0
M  V30 1773 C 224.141 2.32586 0.0254857 0
M  V30 1774 C 225.135 1.49471 0.797176 0
M  V30 1775 O 226.341 1.65583 0.705853 0
M  V30 1776 H 222.716 0.751514 0.0270339 0
M  V30 1777 H 224.687 2.88823 -0.749936 0
M  V30 1778 C 223.436 3.3397 0.967427 0
M  V30 1779 H 222.759 3.97961 0.383048 0
M  V30 1780 H 224.199 3.9945 1.42181 0
M  V30 1781 C 222.658 2.65744 2.0708 0
M  V30 1782 O 223.188 2.48454 3.15648 0
M  V30 1783 N 221.394 2.2487 1.8407 0
M  V30 1784 H 220.941 2.39132 0.95778 0
M  V30 1785 H 220.899 1.79552 2.58086 0
M  V30 1786 N 224.671 0.411399 1.52136 0
M  V30 1787 C 225.601 -0.404015 2.29978 0
M  V30 1788 C 226.582 -1.04412 1.34284 0
M  V30 1789 O 227.767 -1.0527 1.63192 0
M  V30 1790 C 224.897 -1.5197 3.12286 0
M  V30 1791 C 223.851 -1.00448 4.16046 0
M  V30 1792 C 223.177 -2.21393 4.86712 0
M  V30 1793 C 224.477 -0.0569336 5.22269 0
M  V30 1794 H 226.171 0.245529 2.98392 0
M  V30 1795 H 223.717 0.119525 1.43503 0
M  V30 1796 H 225.67 -2.09715 3.6551 0
M  V30 1797 H 224.394 -2.19716 2.41646 0
M  V30 1798 H 223.053 -0.449421 3.63835 0
M  V30 1799 H 222.701 -2.87699 4.12599 0
M  V30 1800 H 222.401 -1.87571 5.56858 0
M  V30 1801 H 223.925 -2.7974 5.4275 0
M  V30 1802 H 225.339 -0.54325 5.7072 0
M  V30 1803 H 223.736 0.192594 5.99791 0
M  V30 1804 H 224.806 0.887663 4.76706 0
M  V30 1805 N 226.149 -1.5696 0.141893 0
M  V30 1806 C 227.097 -2.17784 -0.816874 0
M  V30 1807 C 228.091 -1.1334 -1.25899 0
M  V30 1808 O 229.297 -1.316 -1.22806 0
M  V30 1809 H 225.672 -0.697278 -0.281615 0
M  V30 1810 H 227.643 -2.97087 -0.279621 0
M  V30 1811 C 226.392 -2.80983 -2.04802 0
M  V30 1812 H 225.715 -3.61062 -1.7168 0
M  V30 1813 H 227.155 -3.2705 -2.69841 0
M  V30 1814 C 225.614 -1.79228 -2.8527 0
M  V30 1815 O 226.144 -1.25962 -3.8144 0
M  V30 1816 N 224.35 -1.48647 -2.49704 0
M  V30 1817 H 223.897 -1.92155 -1.71564 0
M  V30 1818 H 223.855 -0.808115 -3.03837 0
M  V30 1819 N 227.627 0.131896 -1.57047 0
M  V30 1820 C 228.904 0.871495 -1.75112 0
M  V30 1821 C 229.284 1.9866 -0.713949 0
M  V30 1822 O 228.632 2.26965 0.264447 0
M  V30 1823 C 228.842 1.40007 -3.19686 0
M  V30 1824 C 230.19 1.85752 -3.81813 0
M  V30 1825 O 231.214 1.49715 -3.23209 0
M  V30 1826 O 230.073 2.5226 -4.84796 0
M  V30 1827 H 227.167 0.412919 -0.716538 0
M  V30 1828 H 229.713 0.116641 -1.69299 0
M  V30 1829 H 228.485 0.599404 -3.86682 0
M  V30 1830 H 228.108 2.218 -3.29986 0
M  V30 1831 N 229.106 1.52395 0.401703 0
M  V30 1832 C 230.522 1.41363 0.740864 0
M  V30 1833 C 230.722 0.523982 1.94568 0
M  V30 1834 O 229.778 -0.00741204 2.52499 0
M  V30 1835 C 231.091 2.84011 0.987847 0
M  V30 1836 C 232.639 2.93404 1.09011 0
M  V30 1837 C 233.114 4.37036 1.3698 0
M  V30 1838 N 234.605 4.40304 1.43829 0
M  V30 1839 C 235.34 5.48508 1.67112 0
M  V30 1840 N 234.836 6.66819 1.87949 0
M  V30 1841 N 236.629 5.36034 1.69187 0
M  V30 1842 H 228.78 2.08765 -0.391262 0
M  V30 1843 H 231.043 0.941265 -0.112798 0
M  V30 1844 H 230.749 3.51265 0.174835 0
M  V30 1845 H 230.623 3.25502 1.906 0
M  V30 1846 H 233.01 2.26325 1.8937 0
M  V30 1847 H 233.091 2.55359 0.15015 0
M  V30 1848 H 232.735 5.04676 0.571353 0
M  V30 1849 H 232.665 4.72623 2.3224 0
M  V30 1850 H 235.156 3.55024 1.29486 0
M  V30 1851 H 235.469 7.45063 2.05185 0
M  V30 1852 H 233.814 6.6987 1.85199 0
M  V30 1853 H 237.005 4.42579 1.52451 0
M  V30 1854 H 237.178 6.20434 1.86993 0
M  V30 1855 N 230.584 -0.659388 1.43143 0
M  V30 1856 C 231.514 -1.78422 1.50625 0
M  V30 1857 C 232.495 -1.66216 0.361443 0
M  V30 1858 O 233.68 -1.85404 0.577834 0
M  V30 1859 C 230.81 -3.16815 1.42287 0
M  V30 1860 C 229.764 -3.43777 2.54954 0
M  V30 1861 C 229.09 -4.81905 2.31671 0
M  V30 1862 C 230.39 -3.39134 3.97222 0
M  V30 1863 H 232.084 -1.72417 2.44771 0
M  V30 1864 H 229.63 -0.828084 1.17808 0
M  V30 1865 H 231.583 -3.95253 1.46127 0
M  V30 1866 H 230.307 -3.23534 0.446435 0
M  V30 1867 H 228.966 -2.67707 2.50457 0
M  V30 1868 H 228.614 -4.85294 1.32284 0
M  V30 1869 H 228.314 -5.00906 3.07192 0
M  V30 1870 H 229.838 -5.62609 2.37284 0
M  V30 1871 H 231.252 -4.07518 4.03239 0
M  V30 1872 H 229.649 -3.69671 4.72719 0
M  V30 1873 H 230.719 -2.37426 4.22797 0
M  V30 1874 N 232.062 -1.29571 -0.897171 0
M  V30 1875 C 233.025 -1.14913 -1.98312 0
M  V30 1876 C 234.025 -0.0838629 -1.60581 0
M  V30 1877 O 235.215 -0.331006 -1.71026 0
M  V30 1878 C 232.347 -0.757835 -3.3237 0
M  V30 1879 H 233.54 -2.11377 -2.12743 0
M  V30 1880 H 231.093 -1.12793 -1.08201 0
M  V30 1881 H 231.828 0.206837 -3.2364 0
M  V30 1882 H 231.613 -1.52755 -3.61121 0
M  V30 1883 H 233.103 -0.678408 -4.12053 0
M  V30 1884 N 233.54 1.10788 -1.12088 0
M  V30 1885 C 234.765 1.87002 -0.896949 0
M  V30 1886 C 235.19 1.79933 0.548261 0
M  V30 1887 O 234.548 1.16662 1.38779 0
M  V30 1888 C 234.596 3.3349 -1.37174 0
M  V30 1889 O 233.7 4.08745 -0.547831 0
M  V30 1890 H 233.041 0.580397 -0.322545 0
M  V30 1891 H 235.571 1.39996 -1.49206 0
M  V30 1892 H 235.581 3.84339 -1.36922 0
M  V30 1893 H 234.256 3.37951 -2.42408 0
M  V30 1894 H 232.833 3.6776 -0.617034 0
M  V30 1895 N 235.018 0.912232 1.28515 0
M  V30 1896 C 236.248 0.559604 1.98877 0
M  V30 1897 C 236.656 -0.863113 1.68366 0
M  V30 1898 O 235.999 -1.58304 0.931969 0
M  V30 1899 C 236.061 0.68703 3.52874 0
M  V30 1900 C 235.725 2.07901 4.06972 0
M  V30 1901 C 236.722 3.05157 4.20922 0
M  V30 1902 C 234.407 2.39178 4.417 0
M  V30 1903 C 236.401 4.31806 4.68852 0
M  V30 1904 C 234.088 3.66068 4.89324 0
M  V30 1905 C 235.086 4.62195 5.02856 0
M  V30 1906 O 234.774 5.86829 5.49442 0
M  V30 1907 H 234.506 0.212191 0.641834 0
M  V30 1908 H 237.06 1.22712 1.64715 0
M  V30 1909 H 235.29 -0.0375486 3.86682 0
M  V30 1910 H 236.979 0.341727 4.04459 0
M  V30 1911 H 237.745 2.82311 3.94367 0
M  V30 1912 H 233.624 1.65109 4.30418 0
M  V30 1913 H 237.168 5.06842 4.79329 0
M  V30 1914 H 233.065 3.88739 5.15318 0
M  V30 1915 H 233.833 5.89597 5.6773 0
M  V30 1916 N 236.496 -1.42363 0.676048 0
M  V30 1917 C 237.426 -2.33497 0.0124832 0
M  V30 1918 C 238.407 -1.50748 -0.787981 0
M  V30 1919 O 239.592 -1.79346 -0.744884 0
M  V30 1920 C 236.722 -3.34377 -0.938582 0
M  V30 1921 C 235.676 -4.27289 -0.246622 0
M  V30 1922 C 235.002 -5.18386 -1.31071 0
M  V30 1923 C 236.302 -5.14916 0.875125 0
M  V30 1924 H 237.996 -2.89233 0.773593 0
M  V30 1925 H 235.542 -1.39073 0.37346 0
M  V30 1926 H 237.495 -3.97044 -1.41188 0
M  V30 1927 H 236.219 -2.76947 -1.73113 0
M  V30 1928 H 234.878 -3.66018 0.206456 0
M  V30 1929 H 234.526 -4.57282 -2.09528 0
M  V30 1930 H 234.226 -5.81378 -0.852839 0
M  V30 1931 H 235.75 -5.83929 -1.78492 0
M  V30 1932 H 237.164 -5.71262 0.482983 0
M  V30 1933 H 235.561 -5.86747 1.25887 0
M  V30 1934 H 236.631 -4.53242 1.72335 0
M  V30 1935 N 237.974 -0.419461 -1.51915 0
M  V30 1936 C 239.251 0.211999 -1.94448 0
M  V30 1937 C 239.631 1.61703 -1.35703 0
M  V30 1938 O 238.979 2.22102 -0.536931 0
M  V30 1939 C 239.189 0.207872 -3.4838 0
M  V30 1940 C 240.537 0.422192 -4.22496 0
M  V30 1941 O 241.561 0.286778 -3.55044 0
M  V30 1942 O 240.42 0.690009 -5.42126 0
M  V30 1943 H 237.514 0.139586 -0.815135 0
M  V30 1944 H 240.06 -0.476151 -1.62883 0
M  V30 1945 H 238.832 -0.775102 -3.83546 0
M  V30 1946 H 238.455 0.939688 -3.86336 0
M  V30 1947 N 239.452 1.56882 -0.150215 0
M  V30 1948 C 240.399 2.16922 0.788244 0
M  V30 1949 C 241.369 1.10303 1.24187 0
M  V30 1950 O 242.554 1.38359 1.31383 0
M  V30 1951 C 239.694 2.79754 2.02068 0
M  V30 1952 C 238.807 4.00775 1.61257 0
M  V30 1953 C 237.942 4.51595 2.79705 0
M  V30 1954 C 236.981 5.65074 2.35282 0
M  V30 1955 N 236.118 6.10499 3.4675 0
M  V30 1956 H 240.958 2.96779 0.269444 0
M  V30 1957 H 238.495 1.46599 0.12128 0
M  V30 1958 H 240.453 3.14329 2.74323 0
M  V30 1959 H 239.083 2.02536 2.51354 0
M  V30 1960 H 238.135 3.72158 0.787553 0
M  V30 1961 H 239.447 4.82978 1.24633 0
M  V30 1962 H 238.601 4.88242 3.60145 0
M  V30 1963 H 237.34 3.68406 3.19576 0
M  V30 1964 H 236.345 5.28 1.53283 0
M  V30 1965 H 237.57 6.50052 1.96493 0
M  V30 1966 H 235.516 5.30243 3.86236 0
M  V30 1967 H 235.433 6.87637 3.14152 0
M  V30 1968 H 236.701 6.51791 4.27537 0
M  V30 1969 N 240.93 -0.123565 1.57115 0
M  V30 1970 C 242.176 -0.833386 1.84885 0
M  V30 1971 C 242.509 -1.79742 0.735292 0
M  V30 1972 O 241.784 -1.92764 -0.25925 0
M  V30 1973 C 242.067 -1.5873 3.23228 0
M  V30 1974 C 241.92 -0.643183 4.45178 0
M  V30 1975 C 243.239 -2.54453 3.59085 0
M  V30 1976 H 240.358 -0.301518 0.6725 0
M  V30 1977 H 243 -0.097778 1.89748 0
M  V30 1978 H 241.15 -2.21438 3.19214 0
M  V30 1979 H 242.822 -0.0253015 4.61293 0
M  V30 1980 H 241.065 0.0456139 4.33776 0
M  V30 1981 H 241.736 -1.20724 5.38637 0
M  V30 1982 H 244.212 -2.01853 3.63861 0
M  V30 1983 H 243.088 -3.04238 4.5687 0
M  V30 1984 H 243.349 -3.36906 2.86264 0
M  V30 1985 N 242.408 -1.52605 -0.393616 0
M  V30 1986 C 243.824 -1.41753 -0.733357 0
M  V30 1987 C 244.024 -0.534293 -1.94287 0
M  V30 1988 O 243.08 -0.0059787 -2.52499 0
M  V30 1989 C 244.393 -2.84531 -0.972772 0
M  V30 1990 C 245.941 -2.93978 -1.07453 0
M  V30 1991 C 246.416 -4.37756 -1.3466 0
M  V30 1992 N 247.907 -4.4106 -1.41492 0
M  V30 1993 C 248.642 -5.49387 -1.642 0
M  V30 1994 N 248.138 -6.67806 -1.8441 0
M  V30 1995 N 249.931 -5.36923 -1.66342 0
M  V30 1996 H 242.082 -2.08555 0.402328 0
M  V30 1997 H 244.345 -0.940654 0.117789 0
M  V30 1998 H 244.051 -3.51353 -0.156204 0
M  V30 1999 H 243.925 -3.26508 -1.88871 0
M  V30 2000 H 246.312 -2.27326 -1.88167 0
M  V30 2001 H 246.393 -2.55435 -0.136605 0
M  V30 2002 H 246.037 -5.04972 -0.544581 0
M  V30 2003 H 245.967 -4.73848 -2.2973 0
M  V30 2004 H 248.458 -3.55705 -1.27601 0
M  V30 2005 H 248.771 -7.46141 -2.01231 0
M  V30 2006 H 247.116 -6.70843 -1.81644 0
M  V30 2007 H 250.307 -4.43381 -1.50102 0
M  V30 2008 H 250.48 -6.21416 -1.837 0
M  V30 2009 N 243.887 0.651787 -1.4349 0
M  V30 2010 C 244.85 1.74647 -1.48429 0
M  V30 2011 C 245.85 1.56513 -0.368817 0
M  V30 2012 O 247.04 1.62385 -0.630623 0
M  V30 2013 C 244.172 3.13533 -1.33827 0
M  V30 2014 H 245.365 1.71649 -2.4592 0
M  V30 2015 H 242.918 0.863573 -1.30277 0
M  V30 2016 H 243.653 3.22142 -0.37349 0
M  V30 2017 H 243.438 3.28101 -2.14691 0
M  V30 2018 H 244.928 3.93356 -1.40218 0
M  V30 2019 N 245.365 1.30045 0.890287 0
M  V30 2020 C 246.295 1.18541 2.01172 0
M  V30 2021 C 247.276 0.0773356 1.69924 0
M  V30 2022 O 248.461 0.25845 1.92473 0
M  V30 2023 C 245.591 0.870941 3.36202 0
M  V30 2024 C 244.545 1.93637 3.81692 0
M  V30 2025 C 243.871 1.475 5.13953 0
M  V30 2026 C 245.171 3.34666 4.00994 0
M  V30 2027 H 246.865 2.12359 2.11054 0
M  V30 2028 H 244.411 1.02238 1.01407 0
M  V30 2029 H 246.364 0.777141 4.14172 0
M  V30 2030 H 245.088 -0.102926 3.26438 0
M  V30 2031 H 243.747 2.01972 3.05946 0
M  V30 2032 H 243.395 0.489551 5.00612 0
M  V30 2033 H 243.095 2.1876 5.4536 0
M  V30 2034 H 244.619 1.39489 5.94454 0
M  V30 2035 H 246.033 3.2912 4.69417 0
M  V30 2036 H 244.43 4.03966 4.43769 0
M  V30 2037 H 245.5 3.76949 3.05021 0
M  V30 2038 N 246.843 -1.10192 1.12674 0
M  V30 2039 C 247.753 -2.20172 0.810026 0
M  V30 2040 C 248.769 -1.72821 -0.202188 0
M  V30 2041 O 249.945 -2.01369 -0.0351691 0
M  V30 2042 C 247.01 -3.45631 0.272007 0
M  V30 2043 C 246.071 -4.07704 1.34447 0
M  V30 2044 C 245.304 -5.27175 0.832029 0
M  V30 2045 O 245.527 -5.69425 -0.333284 0
M  V30 2046 O 244.461 -5.80168 1.60277 0
M  V30 2047 H 248.287 -2.49701 1.72867 0
M  V30 2048 H 245.872 -1.18977 0.903597 0
M  V30 2049 H 247.754 -4.21394 -0.0230219 0
M  V30 2050 H 246.429 -3.17723 -0.619164 0
M  V30 2051 H 245.336 -3.33614 1.6927 0
M  V30 2052 H 246.669 -4.3982 2.2095 0
M  V30 2053 N 248.321 -0.919034 -1.28029 0
M  V30 2054 C 249.231 -0.416756 -2.30869 0
M  V30 2055 C 250.247 0.498235 -1.66714 0
M  V30 2056 O 251.423 0.383144 -1.97722 0
M  V30 2057 C 248.488 0.330274 -3.45123 0
M  V30 2058 C 247.549 -0.618578 -4.2482 0
M  V30 2059 C 246.782 0.0928959 -5.33619 0
M  V30 2060 O 247.005 1.31375 -5.55065 0
M  V30 2061 O 245.939 -0.574499 -5.99152 0
M  V30 2062 H 249.765 -1.27043 -2.75851 0
M  V30 2063 H 247.35 -0.684052 -1.3282 0
M  V30 2064 H 249.232 0.751972 -4.14636 0
M  V30 2065 H 247.907 1.1597 -3.02213 0
M  V30 2066 H 246.814 -1.08978 -3.57875 0
M  V30 2067 H 248.147 -1.41497 -4.71423 0
M  V30 2068 N 249.799 1.42003 -0.683588 0
M  V30 2069 C 251.024 2.06265 -0.216647 0
M  V30 2070 C 251.449 1.51059 1.12083 0
M  V30 2071 O 250.807 0.632638 1.69904 0
M  V30 2072 C 250.855 3.60191 -0.171759 0
M  V30 2073 O 249.959 4.03396 0.857069 0
M  V30 2074 H 249.3 0.65502 -0.108834 0
M  V30 2075 H 251.83 1.81982 -0.935077 0
M  V30 2076 H 251.84 4.08 0.0014303 0
M  V30 2077 H 250.515 3.99743 -1.14796 0
M  V30 2078 H 249.092 3.67117 0.654208 0
M  V30 2079 N 251.277 0.427512 1.51691 0
M  V30 2080 C 252.225 -0.403359 2.29076 0
M  V30 2081 C 253.219 -1.02962 1.34518 0
M  V30 2082 O 254.425 -0.965715 1.51901 0
M  V30 2083 H 250.8 -0.148879 0.737115 0
M  V30 2084 H 252.771 0.270295 2.97173 0
M  V30 2085 C 251.52 -1.49763 3.13794 0
M  V30 2086 H 250.843 -1.02508 3.86435 0
M  V30 2087 H 252.283 -2.05244 3.71014 0
M  V30 2088 C 250.742 -2.47536 2.28533 0
M  V30 2089 O 251.272 -3.51848 1.93819 0
M  V30 2090 N 249.478 -2.18187 1.91945 0
M  V30 2091 H 249.025 -1.33389 2.20375 0
M  V30 2092 H 248.983 -2.83848 1.35195 0
M  V30 2093 N 252.755 -1.56801 0.158532 0
M  V30 2094 C 253.985 -2.00568 -0.495583 0
M  V30 2095 C 254.393 -1.03774 -1.58201 0
M  V30 2096 O 253.736 -0.0285797 -1.83678 0
M  V30 2097 C 253.798 -3.40768 -1.14532 0
M  V30 2098 C 253.462 -4.56553 -0.202101 0
M  V30 2099 C 254.459 -5.16714 0.574675 0
M  V30 2100 C 252.144 -5.02197 -0.101648 0
M  V30 2101 C 254.138 -6.20939 1.43924 0
M  V30 2102 C 251.825 -6.06274 0.766508 0
M  V30 2103 C 252.823 -6.65515 1.53555 0
M  V30 2104 O 252.511 -7.67575 2.38922 0
M  V30 2105 H 252.243 -0.662893 -0.13247 0
M  V30 2106 H 254.797 -2.03829 0.253559 0
M  V30 2107 H 253.027 -3.34381 -1.94233 0
M  V30 2108 H 254.716 -3.6857 -1.70033 0
M  V30 2109 H 255.482 -4.82341 0.507167 0
M  V30 2110 H 251.361 -4.55807 -0.689994 0
M  V30 2111 H 254.905 -6.67107 2.03996 0
M  V30 2112 H 250.802 -6.40073 0.835266 0
M  V30 2113 H 251.57 -7.84844 2.32296 0
M  V30 2114 N 254.233 0.115231 -1.57178 0
M  V30 2115 C 255.143 1.15994 -2.03918 0
M  V30 2116 C 256.159 1.45103 -0.960268 0
M  V30 2117 O 257.335 1.56144 -1.27204 0
M  V30 2118 C 254.4 2.46568 -2.43732 0
M  V30 2119 C 253.461 2.24822 -3.65723 0
M  V30 2120 C 252.694 3.4917 -4.03629 0
M  V30 2121 O 252.917 4.56623 -3.41835 0
M  V30 2122 O 251.851 3.39949 -4.96708 0
M  V30 2123 H 255.677 0.793019 -2.93164 0
M  V30 2124 H 253.262 0.3263 -1.45793 0
M  V30 2125 H 255.144 3.23492 -2.70057 0
M  V30 2126 H 253.819 2.82726 -1.57631 0
M  V30 2127 H 252.726 1.45744 -3.44542 0
M  V30 2128 H 254.059 1.93566 -4.52541 0
M  V30 2129 N 255.711 1.52812 0.385517 0
M  V30 2130 C 256.641 1.80808 1.47752 0
M  V30 2131 C 257.622 0.660318 1.5676 0
M  V30 2132 O 258.807 0.908246 1.71652 0
M  V30 2133 C 255.937 1.98008 2.85324 0
M  V30 2134 C 254.891 3.13709 2.91154 0
M  V30 2135 C 254.217 3.16169 4.31209 0
M  V30 2136 C 255.517 4.52709 2.60483 0
M  V30 2137 H 257.211 2.72253 1.24573 0
M  V30 2138 H 254.757 1.31003 0.597839 0
M  V30 2139 H 256.71 2.16176 3.61726 0
M  V30 2140 H 255.434 1.03255 3.09848 0
M  V30 2141 H 254.093 2.95329 2.17201 0
M  V30 2142 H 253.741 2.19092 4.52778 0
M  V30 2143 H 253.441 3.93894 4.36029 0
M  V30 2144 H 254.965 3.36496 5.09512 0
M  V30 2145 H 256.379 4.71173 3.26602 0
M  V30 2146 H 254.776 5.32528 2.76648 0
M  V30 2147 H 255.846 4.59186 1.55809 0
M  V30 2148 N 257.189 -0.644168 1.43834 0
M  V30 2149 C 258.099 -1.78563 1.52159 0
M  V30 2150 C 259.115 -1.69147 0.408069 0
M  V30 2151 O 260.291 -1.90156 0.663524 0
M  V30 2152 C 257.356 -3.14888 1.45073 0
M  V30 2153 C 256.417 -3.36034 2.6717 0
M  V30 2154 C 255.65 -4.65855 2.60413 0
M  V30 2155 O 255.873 -5.45805 1.65689 0
M  V30 2156 O 254.807 -4.88918 3.5106 0
M  V30 2157 H 258.633 -1.74494 2.48567 0
M  V30 2158 H 256.218 -0.80378 1.25935 0
M  V30 2159 H 258.1 -3.96179 1.43597 0
M  V30 2160 H 256.775 -3.19528 0.518037 0
M  V30 2161 H 255.682 -2.54472 2.74217 0
M  V30 2162 H 257.015 -3.36247 3.59442 0
M  V30 2163 N 258.668 -1.30515 -0.883378 0
M  V30 2164 C 259.916 -1.19194 -1.63209 0
M  V30 2165 C 260.237 0.253205 -1.93349 0
M  V30 2166 O 259.507 1.17025 -1.57105 0
M  V30 2167 H 258.087 -0.438148 -0.605009 0
M  V30 2168 H 260.749 -1.63663 -1.05832 0
M  V30 2169 H 259.845 -1.75396 -2.58153 0
M  V30 2170 N 260.146 1.09593 -1.13257 0
M  V30 2171 C 261.093 2.1618 -0.808381 0
M  V30 2172 C 262.063 1.64517 0.228754 0
M  V30 2173 O 263.248 1.9053 0.101381 0
M  V30 2174 C 260.388 3.43973 -0.278675 0
M  V30 2175 C 259.501 4.09545 -1.37466 0
M  V30 2176 C 258.636 5.25088 -0.803479 0
M  V30 2177 C 257.675 5.82579 -1.87799 0
M  V30 2178 N 256.812 6.89486 -1.32488 0
M  V30 2179 H 261.652 2.43254 -1.72138 0
M  V30 2180 H 259.189 1.19392 -0.859294 0
M  V30 2181 H 261.147 4.17174 0.0465583 0
M  V30 2182 H 259.777 3.17223 0.597459 0
M  V30 2183 H 258.829 3.34226 -1.81652 0
M  V30 2184 H 260.141 4.48307 -2.18684 0
M  V30 2185 H 259.295 6.05178 -0.429427 0
M  V30 2186 H 258.034 4.87684 0.0397956 0
M  V30 2187 H 257.039 5.01152 -2.26113 0
M  V30 2188 H 258.264 6.22045 -2.72463 0
M  V30 2189 H 256.21 6.54064 -0.503575 0
M  V30 2190 H 256.127 7.27007 -2.07355 0
M  V30 2191 H 257.395 7.73336 -0.978336 0
M  V30 2192 N 261.624 0.925811 1.2754 0
M  V30 2193 C 262.873 0.561084 1.93739 0
M  V30 2194 C 263.186 -0.901685 1.73577 0
M  V30 2195 O 264.392 -1.37511 2.34101 0
M  V30 2196 C 262.848 0.952668 3.47062 0
M  V30 2197 C 262.456 2.43599 3.75983 0
M  V30 2198 C 264.2 0.659103 4.19352 0
M  V30 2199 C 262.107 2.76707 5.22673 0
M  V30 2200 H 261.037 0.206122 0.725279 0
M  V30 2201 H 263.688 1.12637 1.44863 0
M  V30 2202 H 262.07 0.316053 3.94737 0
M  V30 2203 H 263.244 3.12035 3.39073 0
M  V30 2204 H 261.559 2.70125 3.16893 0
M  V30 2205 H 264.156 0.882985 5.27359 0
M  V30 2206 H 264.499 -0.403607 4.14339 0
M  V30 2207 H 265.032 1.25473 3.77494 0
M  V30 2208 H 261.771 3.8188 5.32774 0
M  V30 2209 H 261.291 2.12919 5.60737 0
M  V30 2210 H 262.97 2.6435 5.90532 0
M  V30 2211 N 263.102 -1.41638 0.69111 0
M  V30 2212 C 264.049 -2.30789 0.0229705 0
M  V30 2213 C 265.019 -1.46863 -0.775911 0
M  V30 2214 O 266.204 -1.75661 -0.74485 0
M  V30 2215 C 263.344 -3.32868 -0.910666 0
M  V30 2216 C 262.457 -4.31875 -0.103874 0
M  V30 2217 C 261.592 -5.21024 -1.03475 0
M  V30 2218 C 260.631 -6.11702 -0.220598 0
M  V30 2219 N 259.768 -6.93349 -1.10504 0
M  V30 2220 H 264.608 -2.87366 0.788978 0
M  V30 2221 H 262.145 -1.41535 0.400794 0
M  V30 2222 H 264.103 -3.90596 -1.46597 0
M  V30 2223 H 262.733 -2.77851 -1.64312 0
M  V30 2224 H 261.785 -3.76131 0.568285 0
M  V30 2225 H 263.097 -4.96003 0.527504 0
M  V30 2226 H 262.251 -5.83565 -1.65943 0
M  V30 2227 H 260.99 -4.57112 -1.69999 0
M  V30 2228 H 259.995 -5.48215 0.417187 0
M  V30 2229 H 261.22 -6.77668 0.440784 0
M  V30 2230 H 259.166 -6.3205 -1.75638 0
M  V30 2231 H 259.083 -7.54146 -0.529125 0
M  V30 2232 H 260.351 -7.60362 -1.71667 0
M  V30 2233 N 264.58 -0.43555 -1.51462 0
M  V30 2234 C 265.49 0.383001 -2.31453 0
M  V30 2235 C 266.506 1.02931 -1.4029 0
M  V30 2236 O 267.682 1.02507 -1.73362 0
M  V30 2237 C 264.747 1.47043 -3.13973 0
M  V30 2238 C 263.808 0.844433 -4.20913 0
M  V30 2239 C 263.041 1.88004 -4.9949 0
M  V30 2240 O 263.264 3.10199 -4.78678 0
M  V30 2241 O 262.198 1.47157 -5.83634 0
M  V30 2242 H 266.024 -0.269964 -3.02498 0
M  V30 2243 H 263.609 -0.19813 -1.4808 0
M  V30 2244 H 265.491 2.10113 -3.65281 0
M  V30 2245 H 264.166 2.10751 -2.45695 0
M  V30 2246 H 263.073 0.175729 -3.73687 0
M  V30 2247 H 264.406 0.250869 -4.9156 0
M  V30 2248 N 266.058 1.56714 -0.166846 0
M  V30 2249 C 267.304 1.97813 0.473473 0
M  V30 2250 C 267.659 1.05095 1.61161 0
M  V30 2251 O 266.952 0.0897541 1.9139 0
M  V30 2252 C 267.146 3.42889 1.00806 0
M  V30 2253 C 266.975 4.49635 -0.0767392 0
M  V30 2254 C 265.745 5.02566 -0.524894 0
M  V30 2255 C 267.943 5.06793 -0.875504 0
M  V30 2256 N 265.925 5.9294 -1.59047 0
M  V30 2257 C 267.296 5.93565 -1.79111 0
M  V30 2258 C 269.351 4.89306 -0.921083 0
M  V30 2259 C 268.054 6.64721 -2.74843 0
M  V30 2260 C 270.08 5.61179 -1.86633 0
M  V30 2261 C 269.442 6.47675 -2.76942 0
M  V30 2262 H 265.541 0.769093 0.141489 0
M  V30 2263 H 268.125 1.92874 -0.266031 0
M  V30 2264 H 266.296 3.48382 1.7171 0
M  V30 2265 H 268.028 3.71008 1.61664 0
M  V30 2266 H 264.783 4.73439 -0.123432 0
M  V30 2267 H 265.207 6.42831 -2.12361 0
M  V30 2268 H 269.849 4.22136 -0.23692 0
M  V30 2269 H 267.567 7.31107 -3.44249 0
M  V30 2270 H 271.153 5.49636 -1.90764 0
M  V30 2271 H 270.033 7.02313 -3.48893 0
M  V30 2272 N 267.536 -0.106894 1.57237 0
M  V30 2273 C 268.766 -0.825191 1.89405 0
M  V30 2274 C 269.174 -1.73374 0.757496 0
M  V30 2275 O 268.517 -1.81552 -0.280115 0
M  V30 2276 C 268.579 -1.70102 3.1671 0
M  V30 2277 C 268.243 -0.965523 4.46684 0
M  V30 2278 C 269.24 -0.300741 5.19029 0
M  V30 2279 C 266.925 -0.943105 4.93367 0
M  V30 2280 C 268.919 0.376622 6.36286 0
M  V30 2281 C 266.606 -0.261949 6.10538 0
M  V30 2282 C 267.604 0.396748 6.81847 0
M  V30 2283 O 267.292 1.06701 7.96787 0
M  V30 2284 H 267.024 -0.241852 0.631255 0
M  V30 2285 H 269.578 -0.0921491 2.05193 0
M  V30 2286 H 267.808 -2.47601 2.97036 0
M  V30 2287 H 269.497 -2.29483 3.34802 0
M  V30 2288 H 270.263 -0.309599 4.84011 0
M  V30 2289 H 266.142 -1.44524 4.3776 0
M  V30 2290 H 269.686 0.891334 6.91882 0
M  V30 2291 H 265.583 -0.250896 6.45012 0
M  V30 2292 H 266.351 0.972707 8.127 0
M  V30 2293 N 269.014 -1.53014 -0.377408 0
M  V30 2294 C 269.924 -1.81557 -1.48574 0
M  V30 2295 C 270.94 -0.703102 -1.59162 0
M  V30 2296 O 272.116 -0.99192 -1.75279 0
M  V30 2297 C 269.181 -1.9889 -2.83978 0
M  V30 2298 C 268.242 -3.22801 -2.83016 0
M  V30 2299 C 267.475 -3.39298 -4.11962 0
M  V30 2300 O 267.698 -2.60345 -5.0752 0
M  V30 2301 O 266.632 -4.32604 -4.18494 0
M  V30 2302 H 270.458 -2.75695 -1.27382 0
M  V30 2303 H 268.043 -1.38248 -0.566373 0
M  V30 2304 H 269.925 -2.11931 -3.6423 0
M  V30 2305 H 268.6 -1.07942 -3.05172 0
M  V30 2306 H 267.507 -3.15193 -2.01505 0
M  V30 2307 H 268.84 -4.13632 -2.66775 0
M  V30 2308 N 270.492 0.636531 -1.44174 0
M  V30 2309 C 271.439 1.74875 -1.50624 0
M  V30 2310 C 272.409 1.62275 -0.35442 0
M  V30 2311 O 273.594 1.82276 -0.563908 0
M  V30 2312 C 270.734 3.13102 -1.45125 0
M  V30 2313 C 269.847 3.36717 -2.7064 0
M  V30 2314 C 268.982 4.64885 -2.57013 0
M  V30 2315 C 268.021 4.8166 -3.77717 0
M  V30 2316 N 267.158 6.01101 -3.62798 0
M  V30 2317 H 271.998 1.68697 -2.45653 0
M  V30 2318 H 269.535 0.823004 -1.21922 0
M  V30 2319 H 271.493 3.93034 -1.39929 0
M  V30 2320 H 270.123 3.18308 -0.536671 0
M  V30 2321 H 269.175 2.50763 -2.86046 0
M  V30 2322 H 270.487 3.44993 -3.60252 0
M  V30 2323 H 269.641 5.52969 -2.49619 0
M  V30 2324 H 268.38 4.58957 -1.64953 0
M  V30 2325 H 267.385 3.92007 -3.85501 0
M  V30 2326 H 268.61 4.89406 -4.70807 0
M  V30 2327 H 266.556 5.96273 -2.73486 0
M  V30 2328 H 266.473 6.10409 -4.46023 0
M  V30 2329 H 267.741 6.91761 -3.59286 0
M  V30 2330 N 271.97 1.30982 0.876444 0
M  V30 2331 C 272.92 1.14688 1.97055 0
M  V30 2332 C 273.904 0.0596593 1.60789 0
M  V30 2333 O 275.096 0.283892 1.74708 0
M  V30 2334 C 272.225 0.849627 3.3262 0
M  V30 2335 C 271.311 1.97752 3.75173 0
M  V30 2336 N 271.702 3.22384 3.89746 0
M  V30 2337 C 270 1.8758 4.04635 0
M  V30 2338 C 270.701 3.96121 4.25985 0
M  V30 2339 N 269.677 3.24237 4.36315 0
M  V30 2340 H 273.479 2.09204 2.06424 0
M  V30 2341 H 270.993 1.22445 1.06682 0
M  V30 2342 H 272.99 0.713895 4.10742 0
M  V30 2343 H 271.65 -0.087376 3.24582 0
M  V30 2344 H 272.661 3.57575 3.74647 0
M  V30 2345 H 269.338 1.01303 4.05024 0
M  V30 2346 H 270.728 5.03491 4.44911 0
M  V30 2347 N 273.449 -1.08991 1.13837 0
M  V30 2348 C 274.697 -1.80899 0.901098 0
M  V30 2349 C 275.018 -1.86356 -0.574134 0
M  V30 2350 O 274.288 -1.35235 -1.41733 0
M  V30 2351 H 272.868 -0.669966 0.330386 0
M  V30 2352 H 275.53 -1.318 1.43578 0
M  V30 2353 H 274.626 -2.83929 1.29578 0
M  V30 2354 N 274.927 -0.932562 -1.27047 0
M  V30 2355 C 275.875 -0.42603 -2.28665 0
M  V30 2356 C 276.869 0.49219 -1.62092 0
M  V30 2357 O 278.075 0.371355 -1.76128 0
M  V30 2358 H 274.45 -0.119213 -0.742491 0
M  V30 2359 H 276.421 -1.29579 -2.68797 0
M  V30 2360 C 275.17 0.301426 -3.46391 0
M  V30 2361 H 274.493 -0.39595 -3.97834 0
M  V30 2362 H 275.933 0.6202 -4.1944 0
M  V30 2363 C 274.392 1.51616 -3.00856 0
M  V30 2364 O 274.922 2.61476 -3.04948 0
M  V30 2365 N 273.128 1.36969 -2.56296 0
M  V30 2366 H 272.675 0.475873 -2.53166 0
M  V30 2367 H 272.633 2.18368 -2.26192 0
M  V30 2368 N 276.405 1.4127 -0.698611 0
M  V30 2369 C 277.63 2.06024 -0.238512 0
M  V30 2370 C 278.055 1.5224 1.10475 0
M  V30 2371 O 277.413 0.650623 1.69223 0
M  V30 2372 C 277.461 3.59988 -0.209952 0
M  V30 2373 O 276.565 4.04282 0.814235 0
M  V30 2374 H 275.906 0.653829 -0.115775 0
M  V30 2375 H 278.436 1.8098 -0.954326 0
M  V30 2376 H 278.446 4.07979 -0.0418436 0
M  V30 2377 H 277.121 3.98503 -1.1903 0
M  V30 2378 H 275.698 3.6779 0.615234 0
M  V30 2379 N 277.883 0.443576 1.51229 0
M  V30 2380 C 278.833 -0.382787 2.24764 0
M  V30 2381 C 279.817 -0.984836 1.27239 0
M  V30 2382 O 281.009 -0.901943 1.52296 0
M  V30 2383 C 278.138 -1.47989 3.09765 0
M  V30 2384 C 277.224 -0.886931 4.14722 0
M  V30 2385 N 277.615 -0.0237103 5.05794 0
M  V30 2386 C 275.913 -1.15385 4.30816 0
M  V30 2387 C 276.614 0.309971 5.80874 0
M  V30 2388 N 275.59 -0.307989 5.42727 0
M  V30 2389 H 279.392 0.282624 2.92538 0
M  V30 2390 H 276.906 0.256027 1.60369 0
M  V30 2391 H 278.903 -2.08482 3.61027 0
M  V30 2392 H 277.563 -2.14758 2.43535 0
M  V30 2393 H 278.574 0.34318 5.16762 0
M  V30 2394 H 275.251 -1.81857 3.75812 0
M  V30 2395 H 276.641 1.01279 6.64223 0
M  V30 2396 N 279.361 -1.56624 0.175154 0
M  V30 2397 C 280.293 -2.15333 -0.785128 0
M  V30 2398 C 281.306 -1.1099 -1.19101 0
M  V30 2399 O 282.495 -1.38162 -1.13019 0
M  V30 2400 C 279.595 -2.68427 -2.06882 0
M  V30 2401 C 278.768 -3.97466 -1.8259 0
M  V30 2402 C 277.827 -4.35585 -2.95215 0
M  V30 2403 O 276.853 -5.03389 -2.65684 0
M  V30 2404 N 278.055 -3.97457 -4.23094 0
M  V30 2405 H 280.82 -2.98359 -0.283187 0
M  V30 2406 H 278.381 -1.61898 -0.00749817 0
M  V30 2407 H 280.373 -2.90924 -2.81328 0
M  V30 2408 H 278.943 -1.89968 -2.48256 0
M  V30 2409 H 278.163 -3.83307 -0.920287 0
M  V30 2410 H 279.451 -4.81736 -1.63733 0
M  V30 2411 H 278.849 -3.42878 -4.49945 0
M  V30 2412 H 277.406 -4.24947 -4.9423 0
M  V30 2413 N 280.839 0.0985539 -1.57292 0
M  V30 2414 C 282.087 0.801092 -1.85545 0
M  V30 2415 C 282.408 1.79438 -0.763353 0
M  V30 2416 O 281.678 1.94763 0.21073 0
M  V30 2417 H 280.258 0.29884 -0.684619 0
M  V30 2418 H 282.92 0.0810064 -1.94732 0
M  V30 2419 H 282.016 1.3338 -2.82163 0
M  V30 2420 N 282.317 1.53212 0.369288 0
M  V30 2421 C 283.227 1.82342 1.47609 0
M  V30 2422 C 284.243 0.711532 1.58787 0
M  V30 2423 O 285.419 1.0012 1.74751 0
M  V30 2424 C 282.484 2.00393 2.8292 0
M  V30 2425 C 281.545 3.24297 2.81301 0
M  V30 2426 C 280.778 3.41478 4.10157 0
M  V30 2427 O 281.001 2.63033 5.06132 0
M  V30 2428 O 279.935 4.34817 4.16194 0
M  V30 2429 H 283.761 2.76366 1.25918 0
M  V30 2430 H 281.346 1.38547 0.559034 0
M  V30 2431 H 283.228 2.13859 3.63101 0
M  V30 2432 H 281.903 1.09559 3.04596 0
M  V30 2433 H 280.81 3.16257 1.99831 0
M  V30 2434 H 282.143 4.15041 2.64578 0
M  V30 2435 N 283.795 -0.628877 1.44509 0
M  V30 2436 C 285.206 -1.21054 1.42137 0
M  V30 2437 C 285.557 -1.95715 0.137881 0
M  V30 2438 O 284.682 -2.02554 -0.761645 0
M  V30 2439 C 285.277 -2.20189 2.57493 0
M  V30 2440 C 283.836 -2.73777 2.58308 0
M  V30 2441 C 282.983 -1.48813 2.33987 0
M  V30 2442 H 285.934 -0.41942 1.53057 0
M  V30 2443 H 285.955 -3.02833 2.30375 0
M  V30 2444 H 285.467 -1.6582 3.50892 0
M  V30 2445 H 283.568 -3.32142 1.68856 0
M  V30 2446 H 283.681 -3.19662 3.56865 0
M  V30 2447 H 282.045 -1.77024 1.83124 0
M  V30 2448 H 282.828 -0.963442 3.29504 0
M  V30 2449 N 285.273 -1.31445 -0.869486 0
M  V30 2450 C 286.689 -1.10113 -1.15531 0
M  V30 2451 C 286.889 0.128087 -2.01092 0
M  V30 2452 O 285.945 0.817276 -2.38908 0
M  V30 2453 C 287.258 -2.37291 -1.84698 0
M  V30 2454 C 288.806 -2.42906 -1.97397 0
M  V30 2455 C 289.281 -3.69967 -2.69979 0
M  V30 2456 N 290.772 -3.70864 -2.77514 0
M  V30 2457 C 291.507 -4.65875 -3.34287 0
M  V30 2458 N 291.003 -5.71242 -3.91988 0
M  V30 2459 N 292.796 -4.53394 -3.3225 0
M  V30 2460 H 284.947 -2.1028 -0.299347 0
M  V30 2461 H 287.21 -0.927683 -0.195214 0
M  V30 2462 H 286.916 -3.27078 -1.29278 0
M  V30 2463 H 286.79 -2.47125 -2.84972 0
M  V30 2464 H 289.177 -1.53588 -2.51982 0
M  V30 2465 H 289.258 -2.37036 -0.961643 0
M  V30 2466 H 288.902 -4.59652 -2.16062 0
M  V30 2467 H 288.832 -3.73103 -3.7162 0
M  V30 2468 H 291.323 -2.94697 -2.36563 0
M  V30 2469 H 291.636 -6.39817 -4.33421 0
M  V30 2470 H 289.981 -5.75015 -3.90362 0
M  V30 2471 H 293.172 -3.70252 -2.8641 0
M  V30 2472 H 293.345 -5.27617 -3.76197 0
M  V30 2473 N 286.751 1.08385 -1.14413 0
M  V30 2474 C 288.028 1.77429 -0.823297 0
M  V30 2475 C 288.408 1.9974 0.683163 0
M  V30 2476 O 287.756 1.60739 1.62405 0
M  V30 2477 C 287.966 3.09004 -1.62227 0
M  V30 2478 C 289.314 3.83532 -1.82177 0
M  V30 2479 O 290.338 3.18786 -1.58915 0
M  V30 2480 O 289.197 4.99792 -2.21067 0
M  V30 2481 H 286.291 0.769999 -0.301712 0
M  V30 2482 H 288.837 1.14846 -1.24934 0
M  V30 2483 H 287.609 2.88316 -2.64555 0
M  V30 2484 H 287.232 3.79316 -1.19187 0
M  V30 2485 N 288.23 0.939286 1.26551 0
M  V30 2486 C 289.46 0.601663 1.97645 0
M  V30 2487 C 289.868 -0.827206 1.70159 0
M  V30 2488 O 289.211 -1.56291 0.965338 0
M  V30 2489 C 289.273 0.761725 3.51337 0
M  V30 2490 C 288.937 2.16487 4.0247 0
M  V30 2491 C 289.934 3.14016 4.14355 0
M  V30 2492 C 287.619 2.48494 4.36527 0
M  V30 2493 C 289.613 4.41654 4.59587 0
M  V30 2494 C 287.3 3.76364 4.81449 0
M  V30 2495 C 288.298 4.72758 4.92939 0
M  V30 2496 O 287.986 5.98352 5.36871 0
M  V30 2497 H 287.718 0.225758 0.637189 0
M  V30 2498 H 290.272 1.26178 1.62075 0
M  V30 2499 H 288.502 0.0444808 3.86674 0
M  V30 2500 H 290.191 0.427442 4.03643 0
M  V30 2501 H 290.957 2.90613 3.8829 0
M  V30 2502 H 286.836 1.74202 4.26819 0
M  V30 2503 H 290.38 5.16896 4.68471 0
M  V30 2504 H 286.277 3.99582 5.06956 0
M  V30 2505 H 287.045 6.01507 5.55096 0
M  V30 2506 N 289.708 -1.40897 0.706093 0
M  V30 2507 C 290.933 -2.05895 0.249435 0
M  V30 2508 C 291.358 -1.52823 -1.09666 0
M  V30 2509 O 290.716 -0.659589 -1.68876 0
M  V30 2510 C 290.764 -3.59872 0.22904 0
M  V30 2511 O 289.868 -4.04708 -0.792784 0
M  V30 2512 H 289.209 -0.653206 0.119241 0
M  V30 2513 H 291.739 -1.80471 0.96391 0
M  V30 2514 H 291.749 -4.07951 0.0634791 0
M  V30 2515 H 290.424 -3.97866 1.21141 0
M  V30 2516 H 289.001 -3.68111 -0.59572 0
M  V30 2517 N 291.186 -0.45159 -1.50991 0
M  V30 2518 C 292.133 0.352625 -2.2809 0
M  V30 2519 C 293.103 1.0044 -1.32291 0
M  V30 2520 O 294.288 1.02058 -1.6121 0
M  V30 2521 C 291.428 1.43983 -3.13629 0
M  V30 2522 C 290.541 0.804772 -4.24438 0
M  V30 2523 C 289.676 1.86822 -4.97263 0
M  V30 2524 C 288.715 1.21236 -5.99973 0
M  V30 2525 N 287.852 2.2178 -6.66152 0
M  V30 2526 H 292.692 -0.311186 -2.96371 0
M  V30 2527 H 290.229 -0.165308 -1.46168 0
M  V30 2528 H 292.187 2.08161 -3.61559 0
M  V30 2529 H 290.817 2.07307 -2.47434 0
M  V30 2530 H 289.869 0.0509129 -3.80366 0
M  V30 2531 H 291.181 0.286076 -4.97979 0
M  V30 2532 H 290.335 2.58628 -5.48813 0
M  V30 2533 H 289.074 2.42068 -4.23385 0
M  V30 2534 H 288.079 0.479828 -5.47702 0
M  V30 2535 H 289.304 0.667051 -6.75816 0
M  V30 2536 H 287.25 2.76079 -5.95077 0
M  V30 2537 H 287.167 1.74841 -7.35504 0
M  V30 2538 H 288.435 2.93026 -7.22327 0
M  V30 2539 N 292.664 1.56529 -0.183458 0
M  V30 2540 C 293.894 2.01331 0.463612 0
M  V30 2541 C 294.302 1.06278 1.5653 0
M  V30 2542 O 293.645 0.0577976 1.83609 0
M  V30 2543 C 293.707 3.42547 1.09096 0
M  V30 2544 C 293.371 4.56817 0.129442 0
M  V30 2545 C 294.368 5.15734 -0.656807 0
M  V30 2546 C 292.053 5.02295 0.02174 0
M  V30 2547 C 294.047 6.1857 -1.53784 0
M  V30 2548 C 291.734 6.04978 -0.862864 0
M  V30 2549 C 292.732 6.62988 -1.64123 0
M  V30 2550 O 292.42 7.63677 -2.51103 0
M  V30 2551 H 292.152 0.664917 0.121907 0
M  V30 2552 H 294.706 2.034 -0.285954 0
M  V30 2553 H 292.936 3.37428 1.88889 0
M  V30 2554 H 294.625 3.71228 1.64148 0
M  V30 2555 H 295.391 4.81473 -0.583839 0
M  V30 2556 H 291.27 4.56847 0.617392 0
M  V30 2557 H 294.814 6.63777 -2.14583 0
M  V30 2558 H 290.711 6.38663 -0.93699 0
M  V30 2559 H 291.479 7.81049 -2.44753 0
M  V30 2560 N 294.142 -0.090211 1.57342 0
M  V30 2561 C 295.372 -0.805055 1.90269 0
M  V30 2562 C 295.78 -1.72561 0.775842 0
M  V30 2563 O 295.123 -1.81839 -0.260843 0
M  V30 2564 C 295.185 -1.66734 3.18497 0
M  V30 2565 C 294.849 -0.918092 4.47683 0
M  V30 2566 C 295.846 -0.245674 5.19319 0
M  V30 2567 C 293.531 -0.890724 4.94339 0
M  V30 2568 C 295.525 0.444088 6.35851 0
M  V30 2569 C 293.212 -0.197179 6.10782 0
M  V30 2570 C 294.21 0.469044 6.81388 0
M  V30 2571 O 293.898 1.15146 7.95611 0
M  V30 2572 H 293.63 -0.235143 0.633785 0
M  V30 2573 H 296.184 -0.0703805 2.05279 0
M  V30 2574 H 294.414 -2.44437 2.99646 0
M  V30 2575 H 296.103 -2.25919 3.37217 0
M  V30 2576 H 296.869 -0.258246 4.84312 0
M  V30 2577 H 292.748 -1.39873 4.39268 0
M  V30 2578 H 296.292 0.964667 6.90898 0
M  V30 2579 H 292.189 -0.18247 6.45242 0
M  V30 2580 H 292.957 1.05885 8.11622 0
M  V30 2581 N 295.62 -1.53406 -0.361157 0
M  V30 2582 C 296.567 -1.80156 -1.44265 0
M  V30 2583 C 297.537 -0.646183 -1.53015 0
M  V30 2584 O 298.722 -0.888818 -1.68833 0
M  V30 2585 C 295.862 -2.00116 -2.81154 0
M  V30 2586 C 294.975 -3.27833 -2.81335 0
M  V30 2587 C 294.11 -3.37957 -4.09828 0
M  V30 2588 C 293.149 -4.59689 -4.04168 0
M  V30 2589 N 292.286 -4.66942 -5.24318 0
M  V30 2590 H 297.126 -2.72438 -1.20754 0
M  V30 2591 H 294.663 -1.34954 -0.585296 0
M  V30 2592 H 296.621 -2.09677 -3.60682 0
M  V30 2593 H 295.251 -1.11167 -3.03054 0
M  V30 2594 H 294.303 -3.27204 -1.94014 0
M  V30 2595 H 295.615 -4.17442 -2.73027 0
M  V30 2596 H 294.769 -3.46853 -4.97773 0
M  V30 2597 H 293.508 -2.46372 -4.20894 0
M  V30 2598 H 292.513 -4.50889 -3.14609 0
M  V30 2599 H 293.738 -5.5262 -3.947 0
M  V30 2600 H 291.684 -3.7826 -5.35962 0
M  V30 2601 H 291.601 -5.50462 -5.18197 0
M  V30 2602 H 292.869 -4.80127 -6.14084 0
M  V30 2603 N 297.098 0.621204 -1.44841 0
M  V30 2604 C 298.326 1.40752 -1.51646 0
M  V30 2605 C 298.741 1.88246 -0.144549 0
M  V30 2606 O 298.098 1.61422 0.851416 0
M  V30 2607 C 298.149 2.62119 -2.4895 0
M  V30 2608 O 297.87 2.16602 -3.80808 0
M  V30 2609 C 299.371 3.55135 -2.65319 0
M  V30 2610 H 296.591 0.431325 -0.514004 0
M  V30 2611 H 299.135 0.758835 -1.899 0
M  V30 2612 H 297.29 3.23058 -2.13805 0
M  V30 2613 H 297.704 2.95358 -4.33433 0
M  V30 2614 H 299.178 4.36874 -3.37409 0
M  V30 2615 H 299.655 4.04592 -1.70886 0
M  V30 2616 H 300.261 3.00058 -3.01405 0
M  V30 2617 N 298.576 1.31904 0.862503 0
M  V30 2618 C 299.825 1.21373 1.61094 0
M  V30 2619 C 300.138 -0.22504 1.94301 0
M  V30 2620 O 301.344 -0.452121 2.67709 0
M  V30 2621 C 299.8 2.12525 2.9045 0
M  V30 2622 C 299.408 3.61441 2.64697 0
M  V30 2623 C 301.152 2.10813 3.68454 0
M  V30 2624 C 299.059 4.44578 3.90006 0
M  V30 2625 H 297.989 0.450705 0.604468 0
M  V30 2626 H 300.64 1.56811 0.953027 0
M  V30 2627 H 299.022 1.69994 3.57656 0
M  V30 2628 H 300.196 4.12264 2.05851 0
M  V30 2629 H 298.511 3.65205 2.00036 0
M  V30 2630 H 301.108 2.70167 4.61426 0
M  V30 2631 H 301.451 1.09713 4.01583 0
M  V30 2632 H 301.984 2.51583 3.08141 0
M  V30 2633 H 298.723 5.46461 3.62023 0
M  V30 2634 H 298.243 3.98508 4.48276 0
M  V30 2635 H 299.922 4.57176 4.5782 0
M  V30 2636 N 300.054 -1.07777 1.14986 0
M  V30 2637 C 301.331 -1.7699 0.832695 0
M  V30 2638 C 301.711 -2.001 -0.672561 0
M  V30 2639 O 301.059 -1.61598 -1.6155 0
M  V30 2640 C 301.269 -3.08139 1.63863 0
M  V30 2641 C 302.617 -3.8256 1.84208 0
M  V30 2642 O 303.641 -3.17939 1.60603 0
M  V30 2643 O 302.5 -4.98612 2.23714 0
M  V30 2644 H 299.594 -0.768389 0.305791 0
M  V30 2645 H 302.14 -1.14182 1.25541 0
M  V30 2646 H 300.912 -2.86909 2.6608 0
M  V30 2647 H 300.535 -3.78678 1.21197 0
M  V30 2648 N 301.532 -0.945985 -1.26051 0
M  V30 2649 C 302.809 -0.513816 -1.88731 0
M  V30 2650 C 303.189 1.00872 -1.8544 0
M  V30 2651 O 302.537 1.8708 -1.312 0
M  V30 2652 C 302.747 -1.08062 -3.31849 0
M  V30 2653 C 304.095 -1.1522 -4.08668 0
M  V30 2654 O 305.119 -1.03155 -3.40936 0
M  V30 2655 O 303.978 -1.34044 -5.29806 0
M  V30 2656 H 301.072 -0.168193 -0.809716 0
M  V30 2657 H 303.618 -1.03886 -1.34186 0
M  V30 2658 H 302.39 -2.1241 -3.2863 0
M  V30 2659 H 302.013 -0.538307 -3.93939 0
M  V30 2660 N 303.011 1.40521 -0.713556 0
M  V30 2661 C 303.941 2.33381 -0.0743864 0
M  V30 2662 C 304.922 1.52784 0.747735 0
M  V30 2663 O 306.107 1.81258 0.697071 0
M  V30 2664 C 303.237 3.36748 0.849598 0
M  V30 2665 C 302.191 4.27793 0.133247 0
M  V30 2666 C 301.517 5.21679 1.17281 0
M  V30 2667 C 302.817 5.12415 -1.01134 0
M  V30 2668 H 304.511 2.87081 -0.850007 0
M  V30 2669 H 302.057 1.38034 -0.410201 0
M  V30 2670 H 304.01 4.00648 1.30612 0
M  V30 2671 H 302.734 2.81439 1.65709 0
M  V30 2672 H 301.393 3.65342 -0.303426 0
M  V30 2673 H 301.041 4.62677 1.9733 0
M  V30 2674 H 300.741 5.83435 0.698397 0
M  V30 2675 H 302.265 5.88456 1.62947 0
M  V30 2676 H 303.679 5.69781 -0.634274 0
M  V30 2677 H 302.076 5.83203 -1.41399 0
M  V30 2678 H 303.146 4.48514 -1.84292 0
M  V30 2679 N 304.489 0.459591 1.5075 0
M  V30 2680 C 305.436 -0.340524 2.28274 0
M  V30 2681 C 306.406 -0.997371 1.32822 0
M  V30 2682 O 307.591 -1.01202 1.61749 0
M  V30 2683 C 304.731 -1.42317 3.14388 0
M  V30 2684 C 303.844 -0.782251 4.24859 0
M  V30 2685 C 302.979 -1.84182 4.98247 0
M  V30 2686 C 302.018 -1.18053 6.00608 0
M  V30 2687 N 301.155 -2.18244 6.67319 0
M  V30 2688 H 305.995 0.326899 2.96202 0
M  V30 2689 H 303.532 0.173057 1.46078 0
M  V30 2690 H 305.49 -2.06241 3.62658 0
M  V30 2691 H 304.12 -2.05992 2.4853 0
M  V30 2692 H 303.172 -0.0307404 3.80388 0
M  V30 2693 H 304.484 -0.259663 4.98124 0
M  V30 2694 H 303.638 -2.55714 5.50177 0
M  V30 2695 H 302.377 -2.39819 4.24662 0
M  V30 2696 H 301.382 -0.450776 5.47949 0
M  V30 2697 H 302.607 -0.631202 6.7616 0
M  V30 2698 H 300.553 -2.72919 5.96533 0
M  V30 2699 H 300.47 -1.70938 7.36421 0
M  V30 2700 H 301.738 -2.89191 7.23871 0
M  V30 2701 N 305.967 -1.56429 0.191757 0
M  V30 2702 C 306.915 -2.20273 -0.747174 0
M  V30 2703 C 307.909 -1.17288 -1.22229 0
M  V30 2704 O 309.115 -1.35441 -1.18557 0
M  V30 2705 H 305.49 -0.705885 -0.259289 0
M  V30 2706 H 307.461 -2.97826 -0.184963 0
M  V30 2707 C 306.21 -2.87356 -1.95759 0
M  V30 2708 H 305.533 -3.66341 -1.60106 0
M  V30 2709 H 306.973 -3.3547 -2.59299 0
M  V30 2710 C 305.432 -1.88213 -2.79423 0
M  V30 2711 O 305.962 -1.38033 -3.7724 0
M  V30 2712 N 304.168 -1.56516 -2.44849 0
M  V30 2713 H 303.715 -1.97516 -1.65364 0
M  V30 2714 H 303.673 -0.904369 -3.01112 0
M  V30 2715 N 307.445 0.0818655 -1.57387 0
M  V30 2716 C 308.377 1.12484 -1.997 0
M  V30 2717 C 309.39 1.35564 -0.90146 0
M  V30 2718 O 310.579 1.33982 -1.17945 0
M  V30 2719 C 307.679 2.47778 -2.31213 0
M  V30 2720 C 306.852 2.44793 -3.62485 0
M  V30 2721 C 305.911 3.62117 -3.81782 0
M  V30 2722 O 304.937 3.44005 -4.53486 0
M  V30 2723 N 306.139 4.82094 -3.23367 0
M  V30 2724 H 308.904 0.764585 -2.89783 0
M  V30 2725 H 306.465 0.270664 -1.59621 0
M  V30 2726 H 308.457 3.24891 -2.41304 0
M  V30 2727 H 307.027 2.75843 -1.4707 0
M  V30 2728 H 306.247 1.53134 -3.6324 0
M  V30 2729 H 307.535 2.39889 -4.48699 0
M  V30 2730 H 306.933 4.99713 -2.65148 0
M  V30 2731 H 305.49 5.56753 -3.38923 0
M  V30 2732 N 308.923 1.53595 0.353017 0
M  V30 2733 C 310.172 1.69603 1.09168 0
M  V30 2734 C 310.485 0.460925 1.90092 0
M  V30 2735 O 311.691 0.501774 2.66823 0
M  V30 2736 C 310.147 2.99872 1.9901 0
M  V30 2737 C 309.755 4.30687 1.23339 0
M  V30 2738 C 311.499 3.25246 2.72792 0
M  V30 2739 C 309.406 5.52036 2.12156 0
M  V30 2740 H 308.336 0.631966 0.411261 0
M  V30 2741 H 310.987 1.80096 0.351802 0
M  V30 2742 H 309.369 2.83212 2.7678 0
M  V30 2743 H 310.543 4.58019 0.505456 0
M  V30 2744 H 308.858 4.11853 0.613663 0
M  V30 2745 H 311.455 4.13095 3.39495 0
M  V30 2746 H 311.798 2.41846 3.38846 0
M  V30 2747 H 312.331 3.42638 2.021 0
M  V30 2748 H 309.07 6.37951 1.50659 0
M  V30 2749 H 308.59 5.28966 2.82764 0
M  V30 2750 H 310.269 5.87313 2.71427 0
M  V30 2751 N 310.401 -0.613514 1.45168 0
M  V30 2752 C 311.331 -1.7354 1.56225 0
M  V30 2753 C 312.312 -1.64981 0.41414 0
M  V30 2754 O 313.497 -1.83472 0.636526 0
M  V30 2755 C 310.627 -3.12128 1.52295 0
M  V30 2756 C 309.581 -3.35491 2.65762 0
M  V30 2757 C 308.907 -4.74291 2.46885 0
M  V30 2758 C 310.207 -3.26325 4.0781 0
M  V30 2759 H 311.901 -1.64543 2.50132 0
M  V30 2760 H 309.447 -0.790185 1.20383 0
M  V30 2761 H 311.4 -3.90404 1.58628 0
M  V30 2762 H 310.124 -3.2195 0.549139 0
M  V30 2763 H 308.783 -2.59603 2.58847 0
M  V30 2764 H 308.431 -4.80839 1.47657 0
M  V30 2765 H 308.131 -4.9088 3.22972 0
M  V30 2766 H 309.655 -5.54775 2.55063 0
M  V30 2767 H 311.069 -3.94483 4.16 0
M  V30 2768 H 309.466 -3.54445 4.8424 0
M  V30 2769 H 310.536 -2.23855 4.30136 0
M  V30 2770 N 311.879 -1.3236 -0.855495 0
M  V30 2771 C 312.827 -1.2118 -1.9854 0
M  V30 2772 C 313.821 -0.116788 -1.68997 0
M  V30 2773 O 315.027 -0.279657 -1.77814 0
M  V30 2774 H 311.402 -0.375608 -0.651477 0
M  V30 2775 H 313.373 -2.16743 -2.05098 0
M  V30 2776 C 312.122 -0.950849 -3.34446 0
M  V30 2777 H 311.445 -1.78563 -3.57708 0
M  V30 2778 H 312.885 -0.912863 -4.14057 0
M  V30 2779 C 311.344 0.346404 -3.35114 0
M  V30 2780 O 311.874 1.35855 -3.7803 0
M  V30 2781 N 310.08 0.36808 -2.88259 0
M  V30 2782 H 309.627 -0.456102 -2.5353 0
M  V30 2783 H 309.585 1.23591 -2.89089 0
M  V30 2784 N 313.357 1.07166 -1.15556 0
M  V30 2785 C 314.287 2.16403 -0.877046 0
M  V30 2786 C 315.268 1.69217 0.173111 0
M  V30 2787 O 316.453 1.94181 0.027084 0
M  V30 2788 C 313.583 3.45349 -0.367632 0
M  V30 2789 C 312.537 4.05995 -1.35468 0
M  V30 2790 C 311.863 5.30045 -0.704038 0
M  V30 2791 C 313.163 4.45804 -2.72132 0
M  V30 2792 H 314.857 2.39959 -1.79053 0
M  V30 2793 H 312.403 1.15325 -0.862331 0
M  V30 2794 H 314.356 4.21095 -0.160317 0
M  V30 2795 H 313.08 3.21385 0.581326 0
M  V30 2796 H 311.739 3.32296 -1.54839 0
M  V30 2797 H 311.387 5.02373 0.251128 0
M  V30 2798 H 311.087 5.71579 -1.36277 0
M  V30 2799 H 312.611 6.08495 -0.50654 0
M  V30 2800 H 314.025 5.12671 -2.56595 0
M  V30 2801 H 312.422 4.98296 -3.34397 0
M  V30 2802 H 313.492 3.57083 -3.28054 0
M  V30 2803 N 314.835 0.952656 1.25548 0
M  V30 2804 C 316.063 0.623496 1.97282 0
M  V30 2805 C 316.478 -0.803987 1.70826 0
M  V30 2806 O 315.835 -1.53755 0.983147 0
M  V30 2807 C 315.886 0.870209 3.5087 0
M  V30 2808 O 315.607 2.24156 3.76412 0
M  V30 2809 C 317.108 0.553164 4.39835 0
M  V30 2810 H 314.328 0.233931 0.628902 0
M  V30 2811 H 316.872 1.27649 1.59768 0
M  V30 2812 H 315.027 0.263652 3.86502 0
M  V30 2813 H 315.441 2.31021 4.70882 0
M  V30 2814 H 316.915 0.776342 5.46513 0
M  V30 2815 H 317.392 -0.512215 4.36203 0
M  V30 2816 H 317.998 1.13896 4.09766 0
M  V30 2817 N 316.313 -1.40141 0.720998 0
M  V30 2818 C 317.541 -2.05096 0.272656 0
M  V30 2819 C 317.956 -1.54334 -1.0875 0
M  V30 2820 O 317.313 -0.702211 -1.6845 0
M  V30 2821 C 317.364 -3.60636 0.249835 0
M  V30 2822 O 317.085 -4.09526 1.55629 0
M  V30 2823 C 318.586 -4.42772 -0.216396 0
M  V30 2824 H 315.806 -0.659897 0.121558 0
M  V30 2825 H 318.35 -1.79449 0.980723 0
M  V30 2826 H 316.505 -3.85232 -0.409237 0
M  V30 2827 H 316.919 -5.03758 1.4604 0
M  V30 2828 H 318.393 -5.51702 -0.181212 0
M  V30 2829 H 318.87 -4.20756 -1.25941 0
M  V30 2830 H 319.476 -4.23294 0.412596 0
M  V30 2831 N 317.792 -0.46758 -1.50504 0
M  V30 2832 C 319.069 0.15003 -1.95024 0
M  V30 2833 C 319.449 1.57304 -1.40779 0
M  V30 2834 O 318.797 2.20281 -0.607319 0
M  V30 2835 C 319.007 0.0969324 -3.48865 0
M  V30 2836 C 320.355 0.287565 -4.23625 0
M  V30 2837 O 321.379 0.173678 -3.55776 0
M  V30 2838 O 320.238 0.517186 -5.44047 0
M  V30 2839 H 317.332 0.113582 -0.819163 0
M  V30 2840 H 319.878 -0.52773 -1.61286 0
M  V30 2841 H 318.65 -0.896732 -3.80886 0
M  V30 2842 H 318.273 0.816303 -3.8913 0
M  V30 2843 N 319.27 1.56325 -0.20005 0
M  V30 2844 C 320.218 2.20666 0.735482 0
M  V30 2845 C 321.212 1.17934 1.21605 0
M  V30 2846 O 322.418 1.36068 1.17837 0
M  V30 2847 H 318.793 0.70725 0.255542 0
M  V30 2848 H 320.764 2.9792 0.169166 0
M  V30 2849 C 319.513 2.88391 1.94232 0
M  V30 2850 H 318.836 3.67185 1.58161 0
M  V30 2851 H 320.276 3.3684 2.57517 0
M  V30 2852 C 318.735 1.89692 2.78421 0
M  V30 2853 O 319.265 1.40032 3.76502 0
M  V30 2854 N 317.471 1.57813 2.44015 0
M  V30 2855 H 317.018 1.9839 1.64314 0
M  V30 2856 H 316.976 0.920325 3.00628 0
M  V30 2857 N 320.748 -0.0735177 1.57428 0
M  V30 2858 C 321.711 -1.07192 2.02589 0
M  V30 2859 C 322.711 -1.31695 0.922661 0
M  V30 2860 O 323.901 -1.27445 1.18758 0
M  V30 2861 C 321.033 -2.41599 2.40506 0
M  V30 2862 H 322.226 -0.682727 2.92025 0
M  V30 2863 H 319.779 -0.319193 1.53006 0
M  V30 2864 H 320.514 -2.85354 1.5409 0
M  V30 2865 H 320.299 -2.25156 3.21009 0
M  V30 2866 H 321.789 -3.13367 2.76027 0
M  V30 2867 N 322.226 -1.5378 -0.344866 0
M  V30 2868 C 323.174 -1.82373 -1.4437 0
M  V30 2869 C 324.168 -0.694128 -1.54526 0
M  V30 2870 O 325.374 -0.877442 -1.57165 0
M  V30 2871 H 321.749 -0.577765 -0.481344 0
M  V30 2872 H 323.72 -2.74306 -1.17468 0
M  V30 2873 C 322.469 -2.04898 -2.80913 0
M  V30 2874 H 321.792 -2.9127 -2.73865 0
M  V30 2875 H 323.232 -2.28871 -3.56923 0
M  V30 2876 C 321.691 -0.834116 -3.26411 0
M  V30 2877 O 322.221 -0.0328885 -4.01687 0
M  V30 2878 N 320.427 -0.65171 -2.83198 0
M  V30 2879 H 319.974 -1.30489 -2.22104 0
M  V30 2880 H 319.932 0.159686 -3.13994 0
M  V30 2881 N 323.704 0.605807 -1.45491 0
M  V30 2882 C 324.953 1.36086 -1.48874 0
M  V30 2883 C 325.266 1.95131 -0.135333 0
M  V30 2884 O 326.472 2.7146 -0.0468144 0
M  V30 2885 C 324.928 2.46518 -2.62215 0
M  V30 2886 C 324.536 1.93877 -4.03876 0
M  V30 2887 C 326.28 3.23512 -2.74846 0
M  V30 2888 C 324.187 3.01801 -5.08596 0
M  V30 2889 H 323.117 0.511497 -0.553974 0
M  V30 2890 H 325.768 0.649089 -1.71636 0
M  V30 2891 H 324.15 3.20388 -2.32739 0
M  V30 2892 H 325.324 1.26704 -4.43038 0
M  V30 2893 H 323.639 1.29622 -3.95711 0
M  V30 2894 H 326.236 4.04013 -3.50253 0
M  V30 2895 H 326.579 3.74631 -1.81542 0
M  V30 2896 H 327.112 2.56742 -3.03856 0
M  V30 2897 H 323.851 2.55597 -6.03614 0
M  V30 2898 H 323.371 3.67535 -4.74002 0
M  V30 2899 H 325.05 3.66152 -5.33424 0
M  V30 2900 N 325.182 1.32811 0.848464 0
M  V30 2901 C 326.112 1.24882 1.97299 0
M  V30 2902 C 327.093 0.131357 1.69592 0
M  V30 2903 O 328.278 0.319553 1.91553 0
M  V30 2904 C 325.408 0.97746 3.33261 0
M  V30 2905 C 324.362 2.05682 3.75338 0
M  V30 2906 C 323.688 1.63777 5.09 0
M  V30 2907 C 324.988 3.47254 3.90144 0
M  V30 2908 H 326.682 2.18966 2.04191 0
M  V30 2909 H 324.228 1.05413 0.981029 0
M  V30 2910 H 326.181 0.908513 4.1149 0
M  V30 2911 H 324.905 0.000980011 3.266 0
M  V30 2912 H 323.564 2.11603 2.99366 0
M  V30 2913 H 323.212 0.648569 4.98801 0
M  V30 2914 H 322.912 2.36 5.38124 0
M  V30 2915 H 324.436 1.5833 5.89715 0
M  V30 2916 H 325.85 3.43888 4.58709 0
M  V30 2917 H 324.247 4.1788 4.30693 0
M  V30 2918 H 325.317 3.86462 2.92874 0
M  V30 2919 N 326.66 -1.06551 1.16123 0
M  V30 2920 C 327.59 -2.15935 0.88851 0
M  V30 2921 C 328.571 -1.69306 -0.164135 0
M  V30 2922 O 329.756 -1.94193 -0.0167857 0
M  V30 2923 C 326.886 -3.45149 0.385942 0
M  V30 2924 C 325.84 -4.05271 1.3762 0
M  V30 2925 C 325.166 -5.29664 0.732137 0
M  V30 2926 C 326.466 -4.44355 2.74493 0
M  V30 2927 H 328.16 -2.39006 1.80323 0
M  V30 2928 H 325.706 -1.14866 0.868435 0
M  V30 2929 H 327.659 -4.21004 0.182647 0
M  V30 2930 H 326.383 -3.21689 -0.564274 0
M  V30 2931 H 325.042 -3.3147 1.56599 0
M  V30 2932 H 324.69 -5.02499 -0.224483 0
M  V30 2933 H 324.39 -5.70848 1.39307 0
M  V30 2934 H 325.914 -6.08218 0.538802 0
M  V30 2935 H 327.328 -5.11303 2.59311 0
M  V30 2936 H 325.725 -4.96515 3.37035 0
M  V30 2937 H 326.795 -3.55339 3.29943 0
M  V30 2938 N 328.138 -0.959301 -1.25041 0
M  V30 2939 C 329.07 -0.440543 -2.24926 0
M  V30 2940 C 330.083 0.446131 -1.56568 0
M  V30 2941 O 331.272 0.253657 -1.76689 0
M  V30 2942 C 328.372 0.38412 -3.36716 0
M  V30 2943 C 327.545 -0.490658 -4.34639 0
M  V30 2944 C 326.604 0.276587 -5.25473 0
M  V30 2945 O 325.63 -0.326614 -5.68262 0
M  V30 2946 N 326.832 1.56844 -5.5891 0
M  V30 2947 H 329.597 -1.29931 -2.70071 0
M  V30 2948 H 327.158 -0.830181 -1.38995 0
M  V30 2949 H 329.15 0.905228 -3.94446 0
M  V30 2950 H 327.72 1.14377 -2.90924 0
M  V30 2951 H 326.94 -1.19282 -3.7572 0
M  V30 2952 H 328.228 -1.08756 -4.97041 0
M  V30 2953 H 327.626 2.08036 -5.26059 0
M  V30 2954 H 326.183 2.03541 -6.19205 0
M  V30 2955 N 329.616 1.39756 -0.72842 0
M  V30 2956 C 330.865 1.99879 -0.270407 0
M  V30 2957 C 331.178 1.58449 1.14688 0
M  V30 2958 O 332.384 2.11362 1.70407 0
M  V30 2959 C 330.84 3.57292 -0.43252 0
M  V30 2960 C 330.448 4.07688 -1.85727 0
M  V30 2961 C 332.192 4.24485 -0.0359507 0
M  V30 2962 C 330.099 5.5765 -1.96928 0
M  V30 2963 H 329.029 0.747689 -0.0973472 0
M  V30 2964 H 331.68 1.59837 -0.901355 0
M  V30 2965 H 330.062 3.95097 0.267219 0
M  V30 2966 H 331.236 3.81231 -2.58843 0
M  V30 2967 H 329.551 3.53135 -2.20646 0
M  V30 2968 H 332.148 5.34609 -0.0987484 0
M  V30 2969 H 332.491 4.03915 1.00787 0
M  V30 2970 H 333.024 3.9183 -0.686604 0
M  V30 2971 H 329.763 5.8309 -2.99476 0
M  V30 2972 H 329.283 5.8593 -1.28241 0
M  V30 2973 H 330.962 6.22957 -1.74737 0
M  V30 2974 N 331.094 0.475555 1.50254 0
M  V30 2975 C 332.371 -0.139685 1.95101 0
M  V30 2976 C 332.751 -1.56555 1.41611 0
M  V30 2977 O 332.099 -2.19956 0.618993 0
M  V30 2978 C 332.309 -0.0784298 3.48912 0
M  V30 2979 C 333.657 -0.265095 4.23772 0
M  V30 2980 O 334.681 -0.154808 3.55863 0
M  V30 2981 O 333.54 -0.488327 5.44314 0
M  V30 2982 H 330.634 -0.109236 0.819754 0
M  V30 2983 H 333.18 0.536276 1.61004 0
M  V30 2984 H 331.952 0.916918 3.80405 0
M  V30 2985 H 331.575 -0.795655 3.89558 0
M  V30 2986 N 332.573 -1.56217 0.208337 0
M  V30 2987 C 333.521 -2.21053 -0.723769 0
M  V30 2988 C 334.515 -1.18578 -1.20978 0
M  V30 2989 O 335.721 -1.36691 -1.17114 0
M  V30 2990 H 332.096 -0.708595 -0.251788 0
M  V30 2991 H 334.067 -2.98006 -0.153365 0
M  V30 2992 C 332.816 -2.89417 -1.927 0
M  V30 2993 H 332.139 -3.68019 -1.56212 0
M  V30 2994 H 333.579 -3.38201 -2.55727 0
M  V30 2995 C 332.038 -1.91166 -2.77411 0
M  V30 2996 O 332.568 -1.42026 -3.75754 0
M  V30 2997 N 330.774 -1.59105 -2.43175 0
M  V30 2998 H 330.321 -1.99259 -1.63259 0
M  V30 2999 H 330.279 -0.936255 -3.00136 0
M  V30 3000 N 334.051 0.0651679 -1.57465 0
M  V30 3001 C 335.014 1.06117 -2.03155 0
M  V30 3002 C 336.014 1.31204 -0.929632 0
M  V30 3003 O 337.204 1.26813 -1.19432 0
M  V30 3004 C 334.336 2.4032 -2.41783 0
M  V30 3005 H 335.529 0.667231 -2.92383 0
M  V30 3006 H 333.082 0.311075 -1.53173 0
M  V30 3007 H 333.817 2.84532 -1.55601 0
M  V30 3008 H 333.602 2.23451 -3.22199 0
M  V30 3009 H 335.092 3.11898 -2.77685 0
M  V30 3010 N 335.529 1.53961 0.336706 0
M  V30 3011 C 336.945 1.44378 0.680241 0
M  V30 3012 C 337.145 0.606034 1.9217 0
M  V30 3013 O 336.201 0.099688 2.52303 0
M  V30 3014 C 337.514 2.87945 0.8665 0
M  V30 3015 C 339.062 2.97763 0.964682 0
M  V30 3016 C 339.537 4.42453 1.18321 0
M  V30 3017 N 341.028 4.46008 1.25025 0
M  V30 3018 C 341.763 5.55102 1.43697 0
M  V30 3019 N 341.259 6.7419 1.59498 0
M  V30 3020 N 343.052 5.42727 1.463 0
M  V30 3021 H 335.203 2.06918 -0.479455 0
M  V30 3022 H 337.466 0.935634 -0.152619 0
M  V30 3023 H 337.172 3.51691 0.0256937 0
M  V30 3024 H 337.046 3.33293 1.76623 0
M  V30 3025 H 339.433 2.34153 1.796 0
M  V30 3026 H 339.514 2.55766 0.041708 0
M  V30 3027 H 339.158 5.06645 0.356788 0
M  V30 3028 H 339.088 4.82048 2.11985 0
M  V30 3029 H 341.579 3.60196 1.14312 0
M  V30 3030 H 341.892 7.53095 1.734 0
M  V30 3031 H 340.237 6.77123 1.56621 0
M  V30 3032 H 343.428 4.48647 1.33543 0
M  V30 3033 H 343.601 6.27806 1.6051 0
M  V30 3034 N 337.007 -0.598083 1.45811 0
M  V30 3035 C 337.937 -1.71873 1.58057 0
M  V30 3036 C 338.918 -1.64533 0.431615 0
M  V30 3037 O 340.103 -1.82787 0.65595 0
M  V30 3038 C 337.233 -3.10495 1.55597 0
M  V30 3039 C 336.187 -3.32654 2.69305 0
M  V30 3040 C 335.513 -4.71646 2.51902 0
M  V30 3041 C 336.813 -3.21981 4.11248 0
M  V30 3042 H 338.507 -1.61881 2.51863 0
M  V30 3043 H 336.053 -0.777372 1.21214 0
M  V30 3044 H 338.006 -3.88699 1.6276 0
M  V30 3045 H 336.73 -3.2135 0.583255 0
M  V30 3046 H 335.389 -2.56843 2.61586 0
M  V30 3047 H 335.037 -4.79246 1.52748 0
M  V30 3048 H 334.737 -4.87426 3.2816 0
M  V30 3049 H 336.261 -5.52038 2.60933 0
M  V30 3050 H 337.675 -3.90049 4.20161 0
M  V30 3051 H 336.072 -3.49289 4.87972 0
M  V30 3052 H 337.142 -2.1928 4.32486 0
M  V30 3053 N 338.485 -1.33259 -0.841409 0
M  V30 3054 C 339.448 -1.23221 -1.9326 0
M  V30 3055 C 340.448 -0.151895 -1.60081 0
M  V30 3056 O 341.638 -0.403246 -1.69468 0
M  V30 3057 C 338.77 -0.898123 -3.28856 0
M  V30 3058 H 339.963 -2.2021 -2.03587 0
M  V30 3059 H 337.516 -1.17281 -1.03319 0
M  V30 3060 H 338.251 0.0693841 -3.24226 0
M  V30 3061 H 338.036 -1.67934 -3.54317 0
M  V30 3062 H 339.526 -0.852563 -4.08805 0
M  V30 3063 N 339.963 1.05934 -1.16686 0
M  V30 3064 C 340.926 2.11669 -0.879144 0
M  V30 3065 C 341.926 1.60294 0.127445 0
M  V30 3066 O 343.116 1.7389 -0.103865 0
M  V30 3067 C 340.248 3.39438 -0.315425 0
M  V30 3068 H 341.441 2.38626 -1.81653 0
M  V30 3069 H 338.994 1.22058 -0.976299 0
M  V30 3070 H 339.729 3.18132 0.629468 0
M  V30 3071 H 339.514 3.78034 -1.04079 0
M  V30 3072 H 341.004 4.17391 -0.132189 0
M  V30 3073 N 341.441 0.965919 1.2453 0
M  V30 3074 C 342.718 0.543777 1.87889 0
M  V30 3075 C 343.098 -0.97909 1.87021 0
M  V30 3076 O 342.446 -1.84969 1.3416 0
M  V30 3077 C 342.656 1.13327 3.30088 0
M  V30 3078 C 344.004 1.21707 4.06783 0
M  V30 3079 O 345.028 1.08566 3.39252 0
M  V30 3080 O 343.887 1.42456 5.27606 0
M  V30 3081 H 340.981 0.181054 0.806938 0
M  V30 3082 H 343.527 1.06007 1.32516 0
M  V30 3083 H 342.299 2.17612 3.25209 0
M  V30 3084 H 341.922 0.600911 3.93033 0
M  V30 3085 N 342.919 -1.39368 0.735821 0
M  V30 3086 C 344.196 -1.94465 0.210395 0
M  V30 3087 C 344.576 -1.67254 -1.28799 0
M  V30 3088 O 343.924 -1.00123 -2.05396 0
M  V30 3089 C 344.134 -3.4472 0.544897 0
M  V30 3090 C 345.482 -4.21708 0.494689 0
M  V30 3091 O 346.506 -3.52922 0.482136 0
M  V30 3092 O 345.365 -5.44299 0.489947 0
M  V30 3093 H 342.459 -0.826096 0.0386666 0
M  V30 3094 H 345.005 -1.48863 0.814735 0
M  V30 3095 H 343.777 -3.57963 1.58045 0
M  V30 3096 H 343.4 -3.97502 -0.08837 0
M  V30 3097 N 344.397 -0.483516 -1.5 0
M  V30 3098 C 345.644 0.0671597 -2.02389 0
M  V30 3099 C 345.972 1.38597 -1.36459 0
M  V30 3100 O 345.227 1.89634 -0.483458 0
M  V30 3101 C 345.526 0.286226 -3.56252 0
M  V30 3102 C 345.192 -0.952416 -4.40726 0
M  V30 3103 C 343.854 -1.29199 -4.63531 0
M  V30 3104 C 346.206 -1.77655 -4.89988 0
M  V30 3105 C 343.534 -2.45553 -5.32842 0
M  V30 3106 C 345.886 -2.93147 -5.60578 0
M  V30 3107 C 344.55 -3.27505 -5.81633 0
M  V30 3108 H 343.82 0.0245755 -0.740592 0
M  V30 3109 H 346.467 -0.640124 -1.80485 0
M  V30 3110 H 344.772 1.07587 -3.76739 0
M  V30 3111 H 346.469 0.726473 -3.94365 0
M  V30 3112 H 343.059 -0.677881 -4.23205 0
M  V30 3113 H 347.243 -1.52737 -4.72213 0
M  V30 3114 H 342.499 -2.72431 -5.47349 0
M  V30 3115 H 346.673 -3.57344 -5.97727 0
M  V30 3116 H 344.3 -4.1777 -6.35116 0
M  V30 3117 N 345.875 1.56104 -0.216619 0
M  V30 3118 C 347.291 1.58995 0.13886 0
M  V30 3119 C 347.491 1.23333 1.59346 0
M  V30 3120 O 346.547 0.966234 2.33281 0
M  V30 3121 C 347.86 3.00143 -0.182968 0
M  V30 3122 C 349.408 3.12751 -0.124807 0
M  V30 3123 C 349.883 4.56068 -0.420241 0
M  V30 3124 N 351.374 4.61723 -0.369634 0
M  V30 3125 C 352.109 5.70542 -0.571789 0
M  V30 3126 N 351.605 6.87744 -0.835453 0
M  V30 3127 N 353.398 5.59831 -0.504563 0
M  V30 3128 H 345.549 1.77562 -1.16557 0
M  V30 3129 H 347.812 0.825091 -0.466828 0
M  V30 3130 H 347.518 3.30871 -1.19237 0
M  V30 3131 H 347.392 3.73813 0.504367 0
M  V30 3132 H 349.779 2.81822 0.875223 0
M  V30 3133 H 349.86 2.41421 -0.845544 0
M  V30 3134 H 349.504 4.87713 -1.41769 0
M  V30 3135 H 349.434 5.25617 0.321631 0
M  V30 3136 H 351.925 3.77502 -0.173338 0
M  V30 3137 H 352.238 7.66587 -0.977938 0
M  V30 3138 H 350.583 6.895 -0.872592 0
M  V30 3139 H 353.774 4.67145 -0.298842 0
M  V30 3140 H 353.947 6.44573 -0.665519 0
M  V30 3141 N 347.353 -0.0568162 1.57498 0
M  V30 3142 C 348.283 -1.06593 2.0775 0
M  V30 3143 C 349.264 -1.39448 0.974082 0
M  V30 3144 O 350.449 -1.48815 1.24771 0
M  V30 3145 C 347.579 -2.37509 2.5339 0
M  V30 3146 C 346.533 -2.1897 3.67745 0
M  V30 3147 C 345.859 -3.55402 3.99492 0
M  V30 3148 C 347.159 -1.59859 4.97235 0
M  V30 3149 H 348.853 -0.647706 2.9231 0
M  V30 3150 H 346.399 -0.310116 1.40621 0
M  V30 3151 H 348.352 -3.08409 2.87162 0
M  V30 3152 H 347.076 -2.8134 1.65878 0
M  V30 3153 H 345.735 -1.50508 3.3428 0
M  V30 3154 H 345.383 -3.9683 3.09088 0
M  V30 3155 H 345.083 -3.43831 4.76502 0
M  V30 3156 H 346.607 -4.27708 4.35773 0
M  V30 3157 H 348.021 -2.20642 5.29141 0
M  V30 3158 H 346.418 -1.58942 5.78669 0
M  V30 3159 H 347.488 -0.561506 4.81638 0
M  V30 3160 N 348.832 -1.54138 -0.328536 0
M  V30 3161 C 349.779 -1.83176 -1.40411 0
M  V30 3162 C 350.749 -0.678494 -1.5161 0
M  V30 3163 O 351.934 -0.92443 -1.6691 0
M  V30 3164 C 349.074 -2.06035 -2.76846 0
M  V30 3165 C 348.187 -3.33727 -2.74318 0
M  V30 3166 C 347.322 -3.46574 -4.02567 0
M  V30 3167 C 346.361 -4.68159 -3.94327 0
M  V30 3168 N 345.498 -4.77959 -5.14296 0
M  V30 3169 H 350.338 -2.74938 -1.14948 0
M  V30 3170 H 347.875 -1.36166 -0.556538 0
M  V30 3171 H 349.833 -2.1728 -3.56153 0
M  V30 3172 H 348.463 -1.1757 -3.00628 0
M  V30 3173 H 347.515 -3.31246 -1.8703 0
M  V30 3174 H 348.827 -4.23139 -2.64111 0
M  V30 3175 H 347.981 -3.57333 -4.90304 0
M  V30 3176 H 346.72 -2.55245 -4.15574 0
M  V30 3177 H 345.725 -4.57461 -3.04974 0
M  V30 3178 H 346.95 -5.60868 -3.82889 0
M  V30 3179 H 344.896 -3.89544 -5.27818 0
M  V30 3180 H 344.813 -5.6133 -5.06404 0
M  V30 3181 H 346.081 -4.93044 -6.03761 0
M  V30 3182 N 350.31 0.590341 -1.46126 0
M  V30 3183 C 351.54 1.37304 -1.54373 0
M  V30 3184 C 351.948 1.88332 -0.181071 0
M  V30 3185 O 351.291 1.63852 0.830559 0
M  V30 3186 C 351.353 2.6012 -2.48149 0
M  V30 3187 C 351.017 2.30613 -3.94546 0
M  V30 3188 C 352.014 1.89915 -4.83971 0
M  V30 3189 C 349.699 2.42993 -4.39613 0
M  V30 3190 C 351.693 1.61981 -6.16475 0
M  V30 3191 C 349.38 2.14672 -5.72153 0
M  V30 3192 C 350.378 1.7423 -6.60404 0
M  V30 3193 O 350.066 1.46251 -7.90485 0
M  V30 3194 H 349.798 0.426086 -0.524811 0
M  V30 3195 H 352.352 0.72539 -1.92165 0
M  V30 3196 H 350.582 3.27664 -2.05361 0
M  V30 3197 H 352.271 3.22182 -2.46887 0
M  V30 3198 H 353.037 1.79872 -4.50412 0
M  V30 3199 H 348.916 2.73435 -3.71153 0
M  V30 3200 H 352.46 1.30341 -6.85315 0
M  V30 3201 H 348.357 2.24337 -6.05263 0
M  V30 3202 H 349.125 1.6016 -8.02677 0
M  V30 3203 N 351.788 1.33704 0.83433 0
M  V30 3204 C 352.698 1.26382 1.97648 0
M  V30 3205 C 353.714 0.173548 1.73132 0
M  V30 3206 O 354.89 0.397962 1.97429 0
M  V30 3207 C 351.955 1.00769 3.31733 0
M  V30 3208 C 351.016 2.1884 3.69334 0
M  V30 3209 C 350.249 1.9444 4.9702 0
M  V30 3210 O 350.472 0.896961 5.63303 0
M  V30 3211 O 349.406 2.81093 5.32231 0
M  V30 3212 H 353.232 2.22444 2.06767 0
M  V30 3213 H 350.817 1.13795 0.968037 0
M  V30 3214 H 352.699 0.882186 4.12062 0
M  V30 3215 H 351.374 0.0773783 3.23608 0
M  V30 3216 H 350.281 2.36946 2.89495 0
M  V30 3217 H 351.614 3.10221 3.82131 0
M  V30 3218 N 353.266 -1.05314 1.17247 0
M  V30 3219 C 354.214 -2.15137 0.884238 0
M  V30 3220 C 355.208 -1.68729 -0.15063 0
M  V30 3221 O 356.414 -1.8 -0.00366673 0
M  V30 3222 H 352.789 -0.702471 0.2684 0
M  V30 3223 H 354.76 -2.36652 1.81764 0
M  V30 3224 C 353.509 -3.45243 0.412659 0
M  V30 3225 H 352.832 -3.81352 1.20043 0
M  V30 3226 H 354.272 -4.23263 0.249858 0
M  V30 3227 C 352.731 -3.25487 -0.86948 0
M  V30 3228 O 353.261 -3.51938 -1.93655 0
M  V30 3229 N 351.467 -2.78875 -0.817147 0
M  V30 3230 H 351.014 -2.57549 0.0514211 0
M  V30 3231 H 350.972 -2.66036 -1.67547 0
M  V30 3232 N 354.744 -0.972509 -1.24016 0
M  V30 3233 C 355.654 -0.5143 -2.28893 0
M  V30 3234 C 356.67 0.427078 -1.68677 0
M  V30 3235 O 357.846 0.298939 -1.99169 0
M  V30 3236 C 354.911 0.183598 -3.46214 0
M  V30 3237 C 353.972 -0.798202 -4.21814 0
M  V30 3238 C 353.205 -0.133514 -5.33533 0
M  V30 3239 O 353.428 1.07714 -5.60137 0
M  V30 3240 O 352.362 -0.828103 -5.96176 0
M  V30 3241 H 356.188 -1.38629 -2.70214 0
M  V30 3242 H 353.773 -0.739769 -1.29799 0
M  V30 3243 H 355.655 0.575433 -4.17453 0
M  V30 3244 H 354.33 1.03048 -3.0686 0
M  V30 3245 H 353.237 -1.24059 -3.52931 0
M  V30 3246 H 354.57 -1.61364 -4.64997 0
M  V30 3247 N 356.222 1.38976 -0.743202 0
M  V30 3248 C 357.468 2.0064 -0.295189 0
M  V30 3249 C 357.801 1.5885 1.11716 0
M  V30 3250 O 357.076 0.821181 1.76315 0
M  V30 3251 C 357.359 3.578 -0.406318 0
M  V30 3252 C 357.212 4.09586 -1.85903 0
M  V30 3253 C 358.531 4.39616 0.206439 0
M  V30 3254 H 355.65 0.728935 -0.108733 0
M  V30 3255 H 358.292 1.65067 -0.940897 0
M  V30 3256 H 356.442 3.88235 0.143419 0
M  V30 3257 H 358.114 3.89837 -2.46627 0
M  V30 3258 H 356.357 3.6284 -2.3776 0
M  V30 3259 H 357.028 5.18708 -1.888 0
M  V30 3260 H 359.504 4.15273 -0.262283 0
M  V30 3261 H 358.38 5.48812 0.0983819 0
M  V30 3262 H 358.641 4.22754 1.2935 0
M  V30 3263 N 357.7 0.491464 1.49741 0
M  V30 3264 C 358.663 -0.280906 2.27472 0
M  V30 3265 C 359.663 -0.902454 1.33088 0
M  V30 3266 O 360.853 -0.768465 1.56334 0
M  V30 3267 C 357.985 -1.40209 3.10732 0
M  V30 3268 H 359.178 0.401056 2.97206 0
M  V30 3269 H 356.731 0.246131 1.5435 0
M  V30 3270 H 357.466 -2.11849 2.45541 0
M  V30 3271 H 357.251 -0.961969 3.80117 0
M  V30 3272 H 358.741 -1.9464 3.69466 0
M  V30 3273 N 359.178 -1.55987 0.224894 0
M  V30 3274 C 360.108 -2.23426 -0.678457 0
M  V30 3275 C 361.089 -1.20709 -1.19847 0
M  V30 3276 O 362.274 -1.49304 -1.24186 0
M  V30 3277 C 359.404 -2.91676 -1.88527 0
M  V30 3278 C 358.358 -4.00893 -1.49896 0
M  V30 3279 C 357.684 -4.56455 -2.78483 0
M  V30 3280 C 358.984 -5.17769 -0.686461 0
M  V30 3281 H 360.678 -2.99175 -0.116173 0
M  V30 3282 H 358.224 -1.43897 -0.054436 0
M  V30 3283 H 360.177 -3.37547 -2.5227 0
M  V30 3284 H 358.901 -2.1338 -2.47258 0
M  V30 3285 H 357.56 -3.55758 -0.884985 0
M  V30 3286 H 357.208 -3.74886 -3.35365 0
M  V30 3287 H 356.908 -5.30169 -2.53368 0
M  V30 3288 H 358.432 -5.05047 -3.43162 0
M  V30 3289 H 359.846 -5.60001 -1.22767 0
M  V30 3290 H 358.243 -5.97735 -0.532259 0
M  V30 3291 H 359.313 -4.83932 0.306196 0
M  V30 3292 N 360.656 0.0484629 -1.57525 0
M  V30 3293 C 362.072 0.40375 -1.54409 0
M  V30 3294 C 362.272 1.77786 -0.948384 0
M  V30 3295 O 361.328 2.46189 -0.560983 0
M  V30 3296 C 362.641 0.323394 -2.98956 0
M  V30 3297 C 364.189 0.401892 -3.10409 0
M  V30 3298 C 364.664 0.351195 -4.56652 0
M  V30 3299 N 366.155 0.410576 -4.61377 0
M  V30 3300 C 366.89 0.393933 -5.72045 0
M  V30 3301 N 366.386 0.330724 -6.9201 0
M  V30 3302 N 368.179 0.442227 -5.60358 0
M  V30 3303 H 360.33 -0.851016 -1.94606 0
M  V30 3304 H 362.593 -0.321721 -0.89174 0
M  V30 3305 H 362.299 -0.62011 -3.4619 0
M  V30 3306 H 362.173 1.12463 -3.60044 0
M  V30 3307 H 364.56 1.33582 -2.63134 0
M  V30 3308 H 364.641 -0.428342 -2.52188 0
M  V30 3309 H 364.285 -0.578987 -5.04589 0
M  V30 3310 H 364.215 1.19928 -5.12762 0
M  V30 3311 H 366.706 0.462729 -3.75056 0
M  V30 3312 H 367.019 0.322592 -7.72126 0
M  V30 3313 H 365.364 0.29706 -6.94365 0
M  V30 3314 H 368.555 0.489464 -4.65534 0
M  V30 3315 H 368.728 0.425788 -6.466 0
M  V30 3316 N 362.134 1.5431 0.320358 0
M  V30 3317 C 363.066 1.80262 1.41556 0
M  V30 3318 C 364.079 0.684723 1.477 0
M  V30 3319 O 365.268 0.961886 1.50366 0
M  V30 3320 C 362.368 1.90825 2.8007 0
M  V30 3321 C 361.541 3.21023 2.97091 0
M  V30 3322 C 360.6 3.22247 4.15985 0
M  V30 3323 O 359.626 3.95871 4.08992 0
M  V30 3324 N 360.828 2.46258 5.25678 0
M  V30 3325 H 363.593 2.74778 1.19655 0
M  V30 3326 H 361.154 1.53646 0.510358 0
M  V30 3327 H 363.146 1.89067 3.57821 0
M  V30 3328 H 361.716 1.03392 2.95006 0
M  V30 3329 H 360.936 3.35715 2.06614 0
M  V30 3330 H 362.224 4.0698 3.05361 0
M  V30 3331 H 361.622 1.86037 5.34235 0
M  V30 3332 H 360.179 2.50275 6.01835 0
M  V30 3333 N 363.613 -0.582584 1.46437 0
M  V30 3334 C 364.838 -1.37168 1.55563 0
M  V30 3335 C 365.263 -1.87061 0.19743 0
M  V30 3336 O 364.621 -1.61572 -0.822451 0
M  V30 3337 C 364.669 -2.53511 2.56446 0
M  V30 3338 O 363.773 -3.54953 2.09958 0
M  V30 3339 H 363.114 -0.408494 0.523477 0
M  V30 3340 H 365.644 -0.706646 1.9201 0
M  V30 3341 H 365.654 -3.00426 2.76058 0
M  V30 3342 H 364.329 -2.16549 3.55076 0
M  V30 3343 H 362.906 -3.14516 2.00334 0
M  V30 3344 N 365.091 -1.34144 -0.827227 0
M  V30 3345 C 366.337 -1.26446 -1.58554 0
M  V30 3346 C 366.67 0.1664 -1.93486 0
M  V30 3347 O 365.945 1.1107 -1.59667 0
M  V30 3348 C 366.228 -2.15111 -2.8879 0
M  V30 3349 C 366.081 -3.66712 -2.60465 0
M  V30 3350 C 367.4 -2.03311 -3.90324 0
M  V30 3351 H 364.519 -0.46067 -0.575284 0
M  V30 3352 H 367.161 -1.64356 -0.953269 0
M  V30 3353 H 365.311 -1.8291 -3.42748 0
M  V30 3354 H 366.983 -4.09259 -2.1285 0
M  V30 3355 H 365.226 -3.88014 -1.93978 0
M  V30 3356 H 365.897 -4.24112 -3.53317 0
M  V30 3357 H 368.373 -2.31574 -3.45706 0
M  V30 3358 H 367.249 -2.67582 -4.79261 0
M  V30 3359 H 367.51 -1.00879 -4.30437 0
M  V30 3360 N 366.569 1.04691 -1.17803 0
M  V30 3361 C 367.479 2.16057 -0.914151 0
M  V30 3362 C 368.495 1.73589 0.119503 0
M  V30 3363 O 369.671 2.01308 -0.0609468 0
M  V30 3364 C 366.736 3.4394 -0.436603 0
M  V30 3365 C 365.797 4.00825 -1.53746 0
M  V30 3366 C 365.03 5.22604 -1.0826 0
M  V30 3367 O 365.253 5.70367 0.0612244 0
M  V30 3368 O 364.187 5.7186 -1.87775 0
M  V30 3369 H 368.013 2.41169 -1.84584 0
M  V30 3370 H 365.598 1.1453 -0.959334 0
M  V30 3371 H 367.48 4.21024 -0.178057 0
M  V30 3372 H 366.155 3.20316 0.466869 0
M  V30 3373 H 365.062 3.25158 -1.84995 0
M  V30 3374 H 366.395 4.28778 -2.41683 0
M  V30 3375 N 368.047 0.979072 1.23499 0
M  V30 3376 C 369.01 0.523244 2.23147 0
M  V30 3377 C 370.01 -0.386406 1.56088 0
M  V30 3378 O 371.2 -0.180283 1.73265 0
M  V30 3379 C 368.332 -0.240739 3.40049 0
M  V30 3380 H 369.525 1.40432 2.64989 0
M  V30 3381 H 367.078 0.764824 1.36309 0
M  V30 3382 H 367.813 -1.13841 3.03662 0
M  V30 3383 H 367.598 0.412207 3.89927 0
M  V30 3384 H 369.088 -0.548297 4.13985 0
M  V30 3385 N 369.525 -1.3858 0.750561 0
M  V30 3386 C 370.802 -1.94231 0.231009 0
M  V30 3387 C 371.182 -1.68611 -1.27018 0
M  V30 3388 O 370.53 -1.02296 -2.04323 0
M  V30 3389 C 370.74 -3.44123 0.581428 0
M  V30 3390 C 372.088 -4.2116 0.539389 0
M  V30 3391 O 373.112 -3.52391 0.519541 0
M  V30 3392 O 371.971 -5.43749 0.54765 0
M  V30 3393 H 369.065 -0.825639 0.0474263 0
M  V30 3394 H 371.611 -1.4799 0.830478 0
M  V30 3395 H 370.383 -3.56267 1.61833 0
M  V30 3396 H 370.006 -3.97573 -0.0462047 0
M  V30 3397 N 371.003 -0.499398 -1.49478 0
M  V30 3398 C 372.252 0.0475259 -2.01644 0
M  V30 3399 C 372.565 1.38195 -1.38425 0
M  V30 3400 O 373.771 2.01547 -1.8191 0
M  V30 3401 C 372.227 0.135164 -3.59646 0
M  V30 3402 C 371.835 -1.19252 -4.31837 0
M  V30 3403 C 373.579 0.632538 -4.19761 0
M  V30 3404 C 371.486 -1.06713 -5.81693 0
M  V30 3405 H 370.416 0.0215349 -0.753692 0
M  V30 3406 H 373.067 -0.638577 -1.7203 0
M  V30 3407 H 371.449 0.885681 -3.85969 0
M  V30 3408 H 372.623 -1.9562 -4.17216 0
M  V30 3409 H 370.938 -1.62321 -3.83459 0
M  V30 3410 H 373.535 0.743833 -5.29501 0
M  V30 3411 H 373.878 1.63098 -3.83021 0
M  V30 3412 H 374.411 -0.0613987 -3.97753 0
M  V30 3413 H 371.15 -2.03979 -6.22955 0
M  V30 3414 H 370.67 -0.344307 -5.98811 0
M  V30 3415 H 372.349 -0.745208 -6.42694 0
M  V30 3416 N 372.481 1.55866 -0.233164 0
M  V30 3417 C 373.429 2.22176 0.68851 0
M  V30 3418 C 374.423 1.20487 1.19076 0
M  V30 3419 O 375.629 1.38536 1.14925 0
M  V30 3420 H 372.004 0.712511 0.240483 0
M  V30 3421 H 373.975 2.98212 0.105935 0
M  V30 3422 C 372.724 2.92446 1.88071 0
M  V30 3423 H 372.047 3.70458 1.50337 0
M  V30 3424 H 373.487 3.42226 2.50314 0
M  V30 3425 C 371.946 1.95555 2.74335 0
M  V30 3426 O 372.476 1.47986 3.73447 0
M  V30 3427 N 370.682 1.62953 2.40613 0
M  V30 3428 H 370.229 2.01831 1.60069 0
M  V30 3429 H 370.187 0.983886 2.98609 0
M  V30 3430 N 373.959 -0.0401083 1.57549 0
M  V30 3431 C 375.207 -0.731677 1.8839 0
M  V30 3432 C 375.528 -1.76481 0.829425 0
M  V30 3433 O 374.798 -1.95411 -0.1383 0
M  V30 3434 H 373.378 -0.273225 0.695239 0
M  V30 3435 H 376.04 -0.00867725 1.94898 0
M  V30 3436 H 375.136 -1.22816 2.86919 0
M  V30 3437 N 375.437 -1.54477 -0.31217 0
M  V30 3438 C 376.367 -1.87652 -1.38957 0
M  V30 3439 C 377.348 -0.734358 -1.53431 0
M  V30 3440 O 378.533 -0.98911 -1.67123 0
M  V30 3441 C 375.663 -2.11396 -2.75552 0
M  V30 3442 C 374.617 -3.27243 -2.75855 0
M  V30 3443 C 373.943 -3.36382 -4.15633 0
M  V30 3444 C 375.243 -4.64622 -2.38587 0
M  V30 3445 H 376.937 -2.77887 -1.11442 0
M  V30 3446 H 374.483 -1.33707 -0.534655 0
M  V30 3447 H 376.436 -2.33189 -3.51 0
M  V30 3448 H 375.16 -1.17921 -3.04569 0
M  V30 3449 H 373.819 -3.05356 -2.02863 0
M  V30 3450 H 373.467 -2.40445 -4.41809 0
M  V30 3451 H 373.167 -4.14249 -4.1674 0
M  V30 3452 H 374.691 -3.60422 -4.92877 0
M  V30 3453 H 376.105 -4.86219 -3.03749 0
M  V30 3454 H 374.502 -5.45121 -2.50925 0
M  V30 3455 H 375.572 -4.66097 -1.33723 0
M  V30 3456 N 376.915 0.57481 -1.46744 0
M  V30 3457 C 378.331 0.898981 -1.31873 0
M  V30 3458 C 378.531 1.99313 -0.29605 0
M  V30 3459 O 377.587 2.50728 0.298621 0
M  V30 3460 C 378.9 1.30886 -2.7072 0
M  V30 3461 C 380.448 1.42127 -2.78871 0
M  V30 3462 C 380.923 1.86478 -4.18318 0
M  V30 3463 N 382.414 1.93658 -4.20774 0
M  V30 3464 C 383.149 2.29267 -5.2557 0
M  V30 3465 N 382.645 2.63612 -6.40688 0
M  V30 3466 N 384.438 2.29889 -5.1294 0
M  V30 3467 H 376.589 -0.147839 -2.11885 0
M  V30 3468 H 378.852 -0.00347013 -0.947994 0
M  V30 3469 H 378.558 0.578853 -3.46904 0
M  V30 3470 H 378.432 2.26874 -3.01343 0
M  V30 3471 H 380.819 2.14213 -2.0297 0
M  V30 3472 H 380.9 0.443705 -2.51922 0
M  V30 3473 H 380.544 1.14968 -4.94717 0
M  V30 3474 H 380.474 2.85207 -4.42679 0
M  V30 3475 H 382.965 1.69574 -3.37718 0
M  V30 3476 H 383.278 2.89759 -7.16421 0
M  V30 3477 H 381.623 2.61232 -6.44036 0
M  V30 3478 H 384.814 2.02485 -4.22039 0
M  V30 3479 H 384.987 2.57312 -5.94722 0
M  V30 3480 N 378.394 1.34581 0.820102 0
M  V30 3481 C 379.81 1.14325 1.11364 0
M  V30 3482 C 380.01 -0.0533648 2.01429 0
M  V30 3483 O 379.066 -0.728044 2.41776 0
M  V30 3484 C 380.379 2.43983 1.75764 0
M  V30 3485 C 381.927 2.50065 1.88246 0
M  V30 3486 C 382.402 3.79732 2.56061 0
M  V30 3487 N 383.893 3.80908 2.63558 0
M  V30 3488 C 384.628 4.77961 3.16766 0
M  V30 3489 N 384.124 5.85397 3.70517 0
M  V30 3490 N 385.917 4.65413 3.15194 0
M  V30 3491 H 378.068 2.11246 0.221096 0
M  V30 3492 H 380.331 0.934289 0.160649 0
M  V30 3493 H 380.037 3.31651 1.1705 0
M  V30 3494 H 379.911 2.57531 2.75604 0
M  V30 3495 H 382.298 1.62834 2.46108 0
M  V30 3496 H 382.379 2.40442 0.873006 0
M  V30 3497 H 382.023 4.67354 1.98853 0
M  V30 3498 H 381.953 3.86639 3.57516 0
M  V30 3499 H 384.444 3.03274 2.25463 0
M  V30 3500 H 384.757 6.55463 4.09376 0
M  V30 3501 H 383.102 5.89107 3.68752 0
M  V30 3502 H 386.293 3.80627 2.72471 0
M  V30 3503 H 386.466 5.41216 3.56356 0
M  V30 3504 N 379.872 -1.04064 1.18357 0
M  V30 3505 C 381.118 -1.77528 0.980397 0
M  V30 3506 C 381.451 -1.87948 -0.48879 0
M  V30 3507 O 380.726 -1.3876 -1.36293 0
M  V30 3508 C 381.009 -3.20797 1.63588 0
M  V30 3509 C 380.862 -3.1832 3.17793 0
M  V30 3510 C 382.181 -4.18911 1.34914 0
M  V30 3511 H 379.3 -0.644443 0.357578 0
M  V30 3512 H 381.942 -1.2156 1.46024 0
M  V30 3513 H 380.092 -3.68586 1.22788 0
M  V30 3514 H 381.764 -2.78521 3.67728 0
M  V30 3515 H 380.007 -2.56351 3.49952 0
M  V30 3516 H 380.678 -4.19489 3.58794 0
M  V30 3517 H 383.154 -3.7967 1.70265 0
M  V30 3518 H 382.03 -5.17374 1.83346 0
M  V30 3519 H 382.291 -4.41262 0.272027 0
M  V30 3520 N 381.35 -0.985608 -1.22978 0
M  V30 3521 C 382.28 -0.549649 -2.26939 0
M  V30 3522 C 383.261 0.419803 -1.64838 0
M  V30 3523 O 384.446 0.31203 -1.91677 0
M  V30 3524 C 381.576 0.143652 -3.47003 0
M  V30 3525 C 380.53 -0.743606 -4.21491 0
M  V30 3526 C 379.856 0.0822027 -5.34637 0
M  V30 3527 C 381.156 -2.03694 -4.80943 0
M  V30 3528 H 382.85 -1.41862 -2.63658 0
M  V30 3529 H 380.396 -0.683571 -1.26741 0
M  V30 3530 H 382.349 0.459985 -4.18882 0
M  V30 3531 H 381.073 1.04711 -3.09359 0
M  V30 3532 H 379.732 -1.04347 -3.51436 0
M  V30 3533 H 379.38 0.986359 -4.93234 0
M  V30 3534 H 379.08 -0.508377 -5.85397 0
M  V30 3535 H 380.604 0.392797 -6.09335 0
M  V30 3536 H 382.018 -1.78504 -5.44802 0
M  V30 3537 H 380.415 -2.57573 -5.42011 0
M  V30 3538 H 381.485 -2.72042 -4.01399 0
M  V30 3539 N 382.828 1.3818 -0.7579 0
M  V30 3540 C 384.105 1.94106 -0.241306 0
M  V30 3541 C 384.485 1.69282 1.26122 0
M  V30 3542 O 383.833 1.03378 2.03777 0
M  V30 3543 C 384.043 3.43809 -0.59967 0
M  V30 3544 C 385.391 4.20868 -0.561717 0
M  V30 3545 O 386.415 3.5211 -0.538222 0
M  V30 3546 O 385.274 5.43451 -0.576478 0
M  V30 3547 H 382.368 0.825376 -0.0518042 0
M  V30 3548 H 384.914 1.47548 -0.838315 0
M  V30 3549 H 383.686 3.55403 -1.6372 0
M  V30 3550 H 383.309 3.97592 0.0251197 0
M  V30 3551 N 384.306 0.507319 1.49211 0
M  V30 3552 C 385.216 -0.272136 2.33016 0
M  V30 3553 C 386.232 -0.961206 1.45041 0
M  V30 3554 O 387.408 -0.941191 1.78055 0
M  V30 3555 C 384.473 -1.31895 3.20631 0
M  V30 3556 C 383.534 -0.642648 4.24463 0
M  V30 3557 C 382.767 -1.63959 5.07891 0
M  V30 3558 O 382.99 -2.87007 4.92933 0
M  V30 3559 O 381.924 -1.19143 5.8999 0
M  V30 3560 H 385.75 0.413982 3.00865 0
M  V30 3561 H 383.335 0.268556 1.46966 0
M  V30 3562 H 385.217 -1.92446 3.7489 0
M  V30 3563 H 383.892 -1.98788 2.5547 0
M  V30 3564 H 382.799 0.00276252 3.741 0
M  V30 3565 H 384.132 -0.0160534 4.92197 0
M  V30 3566 N 385.784 -1.5574 0.241426 0
M  V30 3567 C 386.714 -2.24133 -0.654722 0
M  V30 3568 C 387.695 -1.21974 -1.1856 0
M  V30 3569 O 388.88 -1.50612 -1.22595 0
M  V30 3570 C 386.01 -2.93659 -1.85423 0
M  V30 3571 C 384.964 -4.0246 -1.45636 0
M  V30 3572 C 384.29 -4.59383 -2.73626 0
M  V30 3573 C 385.59 -5.18468 -0.631506 0
M  V30 3574 H 387.284 -2.99281 -0.0844353 0
M  V30 3575 H 384.83 -1.43947 -0.0391707 0
M  V30 3576 H 386.783 -3.40203 -2.48676 0
M  V30 3577 H 385.507 -2.15991 -2.44981 0
M  V30 3578 H 384.166 -3.56676 -0.847202 0
M  V30 3579 H 383.814 -3.78422 -3.3137 0
M  V30 3580 H 383.514 -5.32826 -2.4773 0
M  V30 3581 H 385.038 -5.08658 -3.37786 0
M  V30 3582 H 386.452 -5.61272 -1.1682 0
M  V30 3583 H 384.849 -5.98266 -0.468831 0
M  V30 3584 H 385.919 -4.8358 0.357506 0
M  V30 3585 N 387.262 0.0317525 -1.57568 0
M  V30 3586 C 388.49 0.734949 -1.93407 0
M  V30 3587 C 388.905 1.69036 -0.84096 0
M  V30 3588 O 388.262 1.81582 0.182836 0
M  V30 3589 C 388.313 1.49432 -3.29169 0
M  V30 3590 O 388.034 0.577261 -4.3428 0
M  V30 3591 C 389.535 2.29492 -3.79273 0
M  V30 3592 H 386.755 0.206706 -0.638368 0
M  V30 3593 H 389.299 -0.00992046 -2.04498 0
M  V30 3594 H 387.454 2.1911 -3.19483 0
M  V30 3595 H 387.868 1.10952 -5.1263 0
M  V30 3596 H 389.342 2.78172 -4.76785 0
M  V30 3597 H 389.819 3.10794 -3.10328 0
M  V30 3598 H 390.425 1.64894 -3.92033 0
M  V30 3599 N 388.74 1.54641 0.303973 0
M  V30 3600 C 389.67 1.88386 1.3796 0
M  V30 3601 C 390.651 0.742485 1.5304 0
M  V30 3602 O 391.836 0.997959 1.66597 0
M  V30 3603 C 388.966 2.12854 2.74427 0
M  V30 3604 C 387.92 3.28702 2.74115 0
M  V30 3605 C 387.246 3.38582 4.13844 0
M  V30 3606 C 388.546 4.65881 2.3612 0
M  V30 3607 H 390.24 2.78474 1.09966 0
M  V30 3608 H 387.786 1.33988 0.527556 0
M  V30 3609 H 389.739 2.35047 3.49758 0
M  V30 3610 H 388.463 1.19535 3.03939 0
M  V30 3611 H 387.122 3.06428 2.0124 0
M  V30 3612 H 386.77 2.42784 4.40528 0
M  V30 3613 H 386.47 4.16453 4.14537 0
M  V30 3614 H 387.994 3.63031 4.90959 0
M  V30 3615 H 389.408 4.87823 3.01167 0
M  V30 3616 H 387.805 5.46444 2.48031 0
M  V30 3617 H 388.875 4.66799 1.3125 0
M  V30 3618 N 390.218 -0.567019 1.47046 0
M  V30 3619 C 391.446 -1.35027 1.56765 0
M  V30 3620 C 391.861 -1.8758 0.214316 0
M  V30 3621 O 391.218 -1.64471 -0.790919 0
M  V30 3622 C 391.269 -2.52698 2.58507 0
M  V30 3623 O 390.99 -2.0232 3.88585 0
M  V30 3624 C 392.491 -3.45043 2.78316 0
M  V30 3625 H 389.711 -0.41195 0.529658 0
M  V30 3626 H 392.255 -0.687832 1.92585 0
M  V30 3627 H 390.41 -3.149 2.25648 0
M  V30 3628 H 390.824 -2.79068 4.44096 0
M  V30 3629 H 392.298 -4.2405 3.53391 0
M  V30 3630 H 392.775 -3.97971 1.85784 0
M  V30 3631 H 393.381 -2.88665 3.12334 0
M  V30 3632 N 391.696 -1.35014 -0.812953 0
M  V30 3633 C 392.643 -1.27412 -1.92444 0
M  V30 3634 C 393.613 -0.14733 -1.65445 0
M  V30 3635 O 394.798 -0.329974 -1.87925 0
M  V30 3636 C 391.938 -1.04558 -3.28879 0
M  V30 3637 C 391.051 -2.26101 -3.68106 0
M  V30 3638 C 390.186 -1.96449 -4.9354 0
M  V30 3639 C 389.225 -3.14081 -5.25376 0
M  V30 3640 N 388.362 -2.84246 -6.41988 0
M  V30 3641 H 393.202 -2.22463 -1.98278 0
M  V30 3642 H 390.739 -1.10593 -0.969933 0
M  V30 3643 H 392.697 -0.893413 -4.07522 0
M  V30 3644 H 391.327 -0.131719 -3.22531 0
M  V30 3645 H 390.379 -2.52204 -2.84775 0
M  V30 3646 H 391.691 -3.13959 -3.87597 0
M  V30 3647 H 390.845 -1.78026 -5.79993 0
M  V30 3648 H 389.584 -1.05867 -4.76071 0
M  V30 3649 H 388.589 -3.33089 -4.37415 0
M  V30 3650 H 389.814 -4.05455 -5.44778 0
M  V30 3651 H 387.76 -1.96252 -6.25956 0
M  V30 3652 H 387.677 -3.65637 -6.61699 0
M  V30 3653 H 388.945 -2.6935 -7.31485 0
M  V30 3654 N 393.175 1.03435 -1.18907 0
M  V30 3655 C 394.138 2.09756 -0.923844 0
M  V30 3656 C 395.138 1.60528 0.093416 0
M  V30 3657 O 396.328 1.73631 -0.140727 0
M  V30 3658 C 393.46 3.38692 -0.387354 0
M  V30 3659 H 394.653 2.34719 -1.86674 0
M  V30 3660 H 392.206 1.19959 -1.00197 0
M  V30 3661 H 392.941 3.19396 0.561845 0
M  V30 3662 H 392.726 3.75742 -1.12074 0
M  V30 3663 H 394.216 4.17016 -0.220694 0
M  V30 3664 N 394.653 0.992116 1.22453 0
M  V30 3665 C 395.93 0.583508 1.86694 0
M  V30 3666 C 396.31 -0.9392 1.89056 0
M  V30 3667 O 395.658 -1.82081 1.38053 0
M  V30 3668 C 395.868 1.20304 3.2761 0
M  V30 3669 C 397.216 1.30308 4.0411 0
M  V30 3670 O 398.24 1.15737 3.36873 0
M  V30 3671 O 397.099 1.53615 5.24466 0
M  V30 3672 H 394.193 0.198129 0.802916 0
M  V30 3673 H 396.739 1.08794 1.30238 0
M  V30 3674 H 395.511 2.24461 3.2052 0
M  V30 3675 H 395.134 0.684144 3.9167 0
M  V30 3676 N 396.131 -1.37776 0.765217 0
M  V30 3677 C 397.061 -2.32945 0.160953 0
M  V30 3678 C 398.042 -1.55454 -0.690516 0
M  V30 3679 O 399.227 -1.83721 -0.629318 0
M  V30 3680 C 396.357 -3.39669 -0.724031 0
M  V30 3681 C 395.311 -4.27992 0.0256173 0
M  V30 3682 C 394.637 -5.25673 -0.978383 0
M  V30 3683 C 395.937 -5.08309 1.20082 0
M  V30 3684 H 397.631 -2.83728 0.955969 0
M  V30 3685 H 395.177 -1.36416 0.461149 0
M  V30 3686 H 397.13 -4.05219 -1.15652 0
M  V30 3687 H 395.854 -2.87396 -1.5515 0
M  V30 3688 H 394.513 -3.63964 0.438812 0
M  V30 3689 H 394.161 -4.69682 -1.80022 0
M  V30 3690 H 393.861 -5.85625 -0.481378 0
M  V30 3691 H 395.385 -5.94098 -1.40995 0
M  V30 3692 H 396.799 -5.67034 0.845307 0
M  V30 3693 H 395.196 -5.77554 1.62947 0
M  V30 3694 H 396.266 -4.41365 2.00811 0
M  V30 3695 N 397.609 -0.515225 -1.4894 0
M  V30 3696 C 398.519 0.259774 -2.33157 0
M  V30 3697 C 399.535 0.953501 -1.45548 0
M  V30 3698 O 400.711 0.931735 -1.78552 0
M  V30 3699 C 397.776 1.30193 -3.21326 0
M  V30 3700 C 396.837 0.620129 -4.24797 0
M  V30 3701 C 396.07 1.61263 -5.08753 0
M  V30 3702 O 396.293 2.84389 -4.94448 0
M  V30 3703 O 395.227 1.16013 -5.90614 0
M  V30 3704 H 399.053 -0.429932 -3.00641 0
M  V30 3705 H 396.638 -0.276346 -1.46822 0
M  V30 3706 H 398.52 1.90455 -3.75905 0
M  V30 3707 H 397.195 1.97431 -2.56521 0
M  V30 3708 H 396.102 -0.0226019 -3.74093 0
M  V30 3709 H 397.435 -0.0100493 -4.92199 0
M  V30 3710 N 399.087 1.5561 -0.249682 0
M  V30 3711 C 400.02 2.17537 0.689408 0
M  V30 3712 C 400.998 1.12829 1.17083 0
M  V30 3713 O 402.182 1.41229 1.24846 0
M  V30 3714 C 399.309 2.77828 1.93725 0
M  V30 3715 C 398.355 3.95615 1.59346 0
M  V30 3716 S 399.188 5.30988 0.69367 0
M  V30 3717 C 400.344 5.94734 1.95046 0
M  V30 3718 H 400.577 2.96852 0.163142 0
M  V30 3719 H 398.11 1.54362 -0.0341166 0
M  V30 3720 H 400.068 3.13199 2.65361 0
M  V30 3721 H 398.729 1.98454 2.43465 0
M  V30 3722 H 397.922 4.364 2.52132 0
M  V30 3723 H 397.524 3.61535 0.957512 0
M  V30 3724 H 399.816 6.12419 2.89739 0
M  V30 3725 H 400.759 6.90109 1.58604 0
M  V30 3726 H 401.167 5.23832 2.10381 0
M  V30 3727 N 400.565 -0.0233959 1.57583 0
M  V30 3728 C 401.497 -1.04994 2.03737 0
M  V30 3729 C 402.51 -1.32125 0.951152 0
M  V30 3730 O 403.699 -1.29512 1.22837 0
M  V30 3731 C 400.799 -2.39026 2.40249 0
M  V30 3732 C 399.972 -2.31171 3.7132 0
M  V30 3733 C 399.031 -3.47698 3.94959 0
M  V30 3734 O 398.057 -3.26937 4.65941 0
M  V30 3735 N 399.259 -4.6976 3.41037 0
M  V30 3736 H 402.024 -0.656507 2.92421 0
M  V30 3737 H 399.585 -0.211235 1.60516 0
M  V30 3738 H 401.577 -3.15712 2.53196 0
M  V30 3739 H 400.147 -2.70194 1.57207 0
M  V30 3740 H 399.367 -1.39547 3.68674 0
M  V30 3741 H 400.655 -2.23071 4.57293 0
M  V30 3742 H 400.053 -4.89528 2.83512 0
M  V30 3743 H 398.61 -5.43791 3.59353 0
M  V30 3744 N 402.043 -1.548 -0.295768 0
M  V30 3745 C 403.292 -1.73538 -1.02798 0
M  V30 3746 C 403.605 -0.531159 -1.8825 0
M  V30 3747 O 404.811 -0.600458 -2.64777 0
M  V30 3748 C 403.267 -3.07051 -1.87744 0
M  V30 3749 C 402.875 -4.34968 -1.07269 0
M  V30 3750 C 404.619 -3.35146 -2.60533 0
M  V30 3751 C 402.526 -5.5953 -1.91521 0
M  V30 3752 H 401.456 -0.646794 -0.387522 0
M  V30 3753 H 404.107 -1.81278 -0.284718 0
M  V30 3754 H 402.489 -2.93289 -2.66078 0
M  V30 3755 H 403.663 -4.5958 -0.335117 0
M  V30 3756 H 401.978 -4.13847 -0.460384 0
M  V30 3757 H 404.575 -4.2541 -3.23929 0
M  V30 3758 H 404.918 -2.54255 -3.29636 0
M  V30 3759 H 405.451 -3.49902 -1.89244 0
M  V30 3760 H 402.19 -6.43103 -1.26878 0
M  V30 3761 H 401.71 -5.39096 -2.62937 0
M  V30 3762 H 403.389 -5.96982 -2.49442 0
M  V30 3763 N 403.521 0.559213 -1.47345 0
M  V30 3764 C 404.431 1.69388 -1.62311 0
M  V30 3765 C 405.447 1.6648 -0.505993 0
M  V30 3766 O 406.623 1.85964 -0.773262 0
M  V30 3767 C 403.688 3.05894 -1.63185 0
M  V30 3768 C 402.749 3.19885 -2.86307 0
M  V30 3769 C 401.982 4.49879 -2.87131 0
M  V30 3770 O 402.205 5.35217 -1.97229 0
M  V30 3771 O 401.139 4.67618 -3.78968 0
M  V30 3772 H 404.965 1.59706 -2.58317 0
M  V30 3773 H 402.55 0.728989 -1.30407 0
M  V30 3774 H 404.432 3.87133 -1.66451 0
M  V30 3775 H 403.107 3.15964 -0.70345 0
M  V30 3776 H 402.014 2.38052 -2.88587 0
M  V30 3777 H 403.347 3.14718 -3.78435 0
M  V30 3778 N 404.999 1.35443 0.805782 0
M  V30 3779 C 406.224 1.32037 1.59941 0
M  V30 3780 C 406.649 -0.0994215 1.87837 0
M  V30 3781 O 406.007 -1.06648 1.46615 0
M  V30 3782 C 406.055 2.13354 2.90711 0
M  V30 3783 O 405.159 1.5148 3.83572 0
M  V30 3784 H 404.5 0.452666 0.485787 0
M  V30 3785 H 407.03 1.78496 1.00002 0
M  V30 3786 H 407.04 2.25338 3.40128 0
M  V30 3787 H 405.715 3.16572 2.69732 0
M  V30 3788 H 404.292 1.4834 3.42125 0
M  V30 3789 N 406.477 -1.02803 1.19454 0
M  V30 3790 C 407.407 -2.12999 0.956758 0
M  V30 3791 C 408.388 -1.69743 -0.110188 0
M  V30 3792 O 409.573 -1.94148 0.0450038 0
M  V30 3793 C 406.703 -3.43746 0.495553 0
M  V30 3794 C 405.657 -4.00688 1.50443 0
M  V30 3795 C 404.983 -5.27067 0.900275 0
M  V30 3796 C 406.283 -4.35397 2.8849 0
M  V30 3797 H 407.977 -2.33148 1.87836 0
M  V30 3798 H 405.523 -1.12045 0.904539 0
M  V30 3799 H 407.476 -4.2021 0.316493 0
M  V30 3800 H 406.2 -3.23321 -0.461646 0
M  V30 3801 H 404.859 -3.2632 1.67065 0
M  V30 3802 H 404.507 -5.02959 -0.064503 0
M  V30 3803 H 404.207 -5.66127 1.57397 0
M  V30 3804 H 405.731 -6.06196 0.73203 0
M  V30 3805 H 407.145 -5.02795 2.75446 0
M  V30 3806 H 405.542 -4.85541 3.52661 0
M  V30 3807 H 406.612 -3.44662 3.41081 0
M  V30 3808 N 407.956 -0.998596 -1.21925 0
M  V30 3809 C 409.184 -0.696286 -1.94832 0
M  V30 3810 C 409.599 0.740032 -1.73692 0
M  V30 3811 O 408.956 1.5 -1.03953 0
M  V30 3812 C 409.007 -0.999833 -3.47398 0
M  V30 3813 O 408.728 -2.37972 -3.67833 0
M  V30 3814 C 410.229 -0.716025 -4.37479 0
M  V30 3815 H 407.449 -0.257111 -0.619786 0
M  V30 3816 H 409.993 -1.33491 -1.54921 0
M  V30 3817 H 408.148 -0.406918 -3.85257 0
M  V30 3818 H 408.562 -2.48338 -4.61983 0
M  V30 3819 H 410.036 -0.978642 -5.43256 0
M  V30 3820 H 410.513 0.349968 -4.37803 0
M  V30 3821 H 411.119 -1.29025 -4.05256 0
M  V30 3822 N 409.434 1.37368 -0.772513 0
M  V30 3823 C 410.344 2.34053 -0.160081 0
M  V30 3824 C 411.36 1.60216 0.678728 0
M  V30 3825 O 412.536 1.92303 0.59847 0
M  V30 3826 C 409.601 3.3939 0.708182 0
M  V30 3827 C 408.662 4.29048 -0.147172 0
M  V30 3828 C 407.895 5.29354 0.679744 0
M  V30 3829 O 408.118 5.3723 1.91678 0
M  V30 3830 O 407.052 6.01835 0.0885444 0
M  V30 3831 H 410.878 2.88159 -0.959053 0
M  V30 3832 H 408.463 1.39543 -0.533685 0
M  V30 3833 H 410.345 4.03839 1.20384 0
M  V30 3834 H 409.02 2.8761 1.48533 0
M  V30 3835 H 407.927 3.67697 -0.689205 0
M  V30 3836 H 409.26 4.84134 -0.887423 0
M  V30 3837 N 410.912 0.523116 1.48665 0
M  V30 3838 C 411.822 -0.247406 2.33292 0
M  V30 3839 C 412.838 -0.945769 1.46052 0
M  V30 3840 O 414.014 -0.922253 1.79043 0
M  V30 3841 C 411.079 -1.28487 3.22012 0
M  V30 3842 C 410.14 -0.597592 4.2512 0
M  V30 3843 C 409.373 -1.58563 5.09601 0
M  V30 3844 O 409.596 -2.81763 4.95949 0
M  V30 3845 O 408.53 -1.12879 5.91221 0
M  V30 3846 H 412.356 0.445869 3.00409 0
M  V30 3847 H 409.941 0.284128 1.46673 0
M  V30 3848 H 411.823 -1.88459 3.7691 0
M  V30 3849 H 410.498 -1.96068 2.57564 0
M  V30 3850 H 409.405 0.0424407 3.74076 0
M  V30 3851 H 410.738 0.0361517 4.92187 0
M  V30 3852 N 412.39 -1.55475 0.257931 0
M  V30 3853 C 413.32 -2.24815 -0.630912 0
M  V30 3854 C 414.301 -1.23224 -1.17259 0
M  V30 3855 O 415.486 -1.51904 -1.20991 0
M  V30 3856 C 412.616 -2.95609 -1.82298 0
M  V30 3857 C 411.57 -4.03982 -1.41359 0
M  V30 3858 C 410.896 -4.6226 -2.68738 0
M  V30 3859 C 412.196 -5.19109 -0.57648 0
M  V30 3860 H 413.89 -2.99354 -0.0526878 0
M  V30 3861 H 411.436 -1.4398 -0.023901 0
M  V30 3862 H 413.389 -3.42822 -2.45054 0
M  V30 3863 H 412.113 -2.18577 -2.42676 0
M  V30 3864 H 410.772 -3.57555 -0.809324 0
M  V30 3865 H 410.42 -3.81915 -3.27338 0
M  V30 3866 H 410.12 -5.35424 -2.42065 0
M  V30 3867 H 411.644 -5.12212 -3.32372 0
M  V30 3868 H 413.058 -5.62479 -1.10861 0
M  V30 3869 H 411.455 -5.98729 -0.405351 0
M  V30 3870 H 412.525 -4.83174 0.408776 0
M  V30 3871 N 413.868 0.0150385 -1.57593 0
M  V30 3872 C 414.831 0.995996 -2.06428 0
M  V30 3873 C 415.831 1.2818 -0.970903 0
M  V30 3874 O 417.021 1.22949 -1.23406 0
M  V30 3875 C 414.153 2.32506 -2.49307 0
M  V30 3876 H 415.346 0.573873 -2.94358 0
M  V30 3877 H 412.899 0.262186 -1.54085 0
M  V30 3878 H 413.634 2.79438 -1.64575 0
M  V30 3879 H 413.419 2.13087 -3.29145 0
M  V30 3880 H 414.909 3.02906 -2.87468 0
M  V30 3881 N 415.346 1.54954 0.287554 0
M  V30 3882 C 416.576 1.78622 1.03816 0
M  V30 3883 C 416.984 0.552451 1.80955 0
M  V30 3884 O 416.327 -0.487665 1.77109 0
M  V30 3885 C 416.389 2.94975 2.055 0
M  V30 3886 C 416.053 4.32565 1.47433 0
M  V30 3887 C 417.05 5.12096 0.897436 0
M  V30 3888 C 414.735 4.79195 1.50591 0
M  V30 3889 C 416.729 6.36383 0.359851 0
M  V30 3890 C 414.416 6.03441 0.964459 0
M  V30 3891 C 415.414 6.81872 0.392413 0
M  V30 3892 O 415.102 8.03777 -0.140788 0
M  V30 3893 H 414.834 0.599144 0.313053 0
M  V30 3894 H 417.388 2.02761 0.328225 0
M  V30 3895 H 415.618 2.66493 2.80211 0
M  V30 3896 H 417.307 3.06097 2.6657 0
M  V30 3897 H 418.073 4.77209 0.865841 0
M  V30 3898 H 413.952 4.18167 1.94055 0
M  V30 3899 H 417.496 6.97545 -0.0872951 0
M  V30 3900 H 413.393 6.37813 0.993246 0
M  V30 3901 H 414.161 8.18495 -0.0287617 0
M  V30 3902 N 416.824 -0.551391 1.4764 0
M  V30 3903 C 417.754 -1.66757 1.63445 0
M  V30 3904 C 418.735 -1.63077 0.483742 0
M  V30 3905 O 419.92 -1.80607 0.71377 0
M  V30 3906 C 417.05 -3.05387 1.65396 0
M  V30 3907 C 416.004 -3.23918 2.79752 0
M  V30 3908 C 415.33 -4.63393 2.66779 0
M  V30 3909 C 416.63 -3.08735 4.21284 0
M  V30 3910 H 418.324 -1.53786 2.56886 0
M  V30 3911 H 415.87 -0.738415 1.23626 0
M  V30 3912 H 417.823 -3.83325 1.75043 0
M  V30 3913 H 416.547 -3.19332 0.685195 0
M  V30 3914 H 415.206 -2.48391 2.69625 0
M  V30 3915 H 414.854 -4.74144 1.67918 0
M  V30 3916 H 414.554 -4.7674 3.43501 0
M  V30 3917 H 416.078 -5.43458 2.78364 0
M  V30 3918 H 417.492 -3.76484 4.32357 0
M  V30 3919 H 415.889 -3.33588 4.98838 0
M  V30 3920 H 416.959 -2.0541 4.39243 0
M  V30 3921 N 418.302 -1.35869 -0.798587 0
M  V30 3922 C 419.249 -1.29446 -1.91082 0
M  V30 3923 C 420.219 -0.16487 -1.6528 0
M  V30 3924 O 421.404 -0.349888 -1.87564 0
M  V30 3925 C 418.544 -1.0804 -3.27752 0
M  V30 3926 C 417.657 -2.29993 -3.65687 0
M  V30 3927 C 416.792 -2.01673 -4.91428 0
M  V30 3928 C 415.831 -3.19636 -5.22015 0
M  V30 3929 N 414.968 -2.91039 -6.38937 0
M  V30 3930 H 419.808 -2.24553 -1.95907 0
M  V30 3931 H 417.345 -1.11615 -0.958148 0
M  V30 3932 H 419.303 -0.936586 -4.06551 0
M  V30 3933 H 417.933 -0.16592 -3.22373 0
M  V30 3934 H 416.985 -2.55211 -2.82085 0
M  V30 3935 H 418.297 -3.18052 -3.84245 0
M  V30 3936 H 417.451 -1.84168 -5.78072 0
M  V30 3937 H 416.19 -1.10911 -4.74921 0
M  V30 3938 H 415.195 -3.37709 -4.33858 0
M  V30 3939 H 416.42 -4.11211 -5.40447 0
M  V30 3940 H 414.366 -2.0288 -6.2384 0
M  V30 3941 H 414.283 -3.72635 -6.57784 0
M  V30 3942 H 415.551 -2.77093 -7.28587 0
M  V30 3943 N 419.78 1.02168 -1.19998 0
M  V30 3944 C 420.727 2.10601 -0.944228 0
M  V30 3945 C 421.697 1.65639 0.123664 0
M  V30 3946 O 422.882 1.9079 -0.0199941 0
M  V30 3947 C 420.022 3.41504 -0.496865 0
M  V30 3948 C 419.135 3.99973 -1.63234 0
M  V30 3949 C 418.27 5.18915 -1.13579 0
M  V30 3950 C 417.309 5.69456 -2.24468 0
M  V30 3951 N 416.446 6.79665 -1.76068 0
M  V30 3952 H 421.286 2.31814 -1.8726 0
M  V30 3953 H 418.823 1.13686 -0.933483 0
M  V30 3954 H 420.781 4.16626 -0.218843 0
M  V30 3955 H 419.411 3.2038 0.394508 0
M  V30 3956 H 418.463 3.21997 -2.0254 0
M  V30 3957 H 419.775 4.33492 -2.46752 0
M  V30 3958 H 418.929 6.01222 -0.813429 0
M  V30 3959 H 417.668 4.8695 -0.270434 0
M  V30 3960 H 416.673 4.85757 -2.57526 0
M  V30 3961 H 417.898 6.03459 -3.11472 0
M  V30 3962 H 415.844 6.49538 -0.918516 0
M  V30 3963 H 415.761 7.12349 -2.5317 0
M  V30 3964 H 417.029 7.65549 -1.46817 0
M  V30 3965 N 421.258 1.00505 1.21394 0
M  V30 3966 C 422.206 0.558623 2.25792 0
M  V30 3967 C 423.2 -0.396848 1.64686 0
M  V30 3968 O 424.406 -0.268035 1.77993 0
M  V30 3969 H 420.781 0.1623 0.734277 0
M  V30 3970 H 422.752 1.4503 2.60785 0
M  V30 3971 C 421.501 -0.0989574 3.47559 0
M  V30 3972 H 420.824 0.627225 3.94849 0
M  V30 3973 H 422.264 -0.3746 4.22342 0
M  V30 3974 C 420.723 -1.33817 3.09184 0
M  V30 3975 O 421.253 -2.43252 3.19674 0
M  V30 3976 N 419.459 -1.21793 2.63846 0
M  V30 3977 H 419.006 -0.32746 2.5551 0
M  V30 3978 H 418.964 -2.04809 2.38539 0
M  V30 3979 N 422.737 -1.36956 0.779787 0
M  V30 3980 C 423.687 -2.27539 0.144892 0
M  V30 3981 C 424.671 -1.46493 -0.665488 0
M  V30 3982 O 425.863 -1.68968 -0.527141 0
M  V30 3983 C 422.992 -3.35512 -0.727082 0
M  V30 3984 C 422.078 -4.24001 0.0915642 0
M  V30 3985 N 422.469 -4.92757 1.14125 0
M  V30 3986 C 420.767 -4.45807 -0.131141 0
M  V30 3987 C 421.468 -5.58138 1.6388 0
M  V30 3988 N 420.444 -5.35241 0.94962 0
M  V30 3989 H 424.246 -2.78176 0.948446 0
M  V30 3990 H 421.76 -1.50169 0.618315 0
M  V30 3991 H 423.757 -3.99324 -1.19776 0
M  V30 3992 H 422.417 -2.86431 -1.52929 0
M  V30 3993 H 423.428 -4.94984 1.52353 0
M  V30 3994 H 420.105 -4.07582 -0.904621 0
M  V30 3995 H 421.495 -6.23071 2.51461 0
M  V30 3996 N 424.215 -0.530993 -1.48385 0
M  V30 3997 C 425.125 0.23503 -2.3342 0
M  V30 3998 C 426.141 0.93801 -1.46552 0
M  V30 3999 O 427.317 0.912745 -1.7953 0
M  V30 4000 C 424.382 1.26778 -3.22689 0
M  V30 4001 C 423.443 0.575038 -4.25431 0
M  V30 4002 C 422.676 1.55858 -5.10435 0
M  V30 4003 O 422.899 2.79129 -4.97437 0
M  V30 4004 O 421.833 1.09742 -5.91811 0
M  V30 4005 H 425.659 -0.461794 -3.00169 0
M  V30 4006 H 423.244 -0.291903 -1.46521 0
M  V30 4007 H 425.126 1.86457 -3.77904 0
M  V30 4008 H 423.801 1.94699 -2.586 0
M  V30 4009 H 422.708 -0.0622782 -3.74048 0
M  V30 4010 H 424.041 -0.062253 -4.92161 0
M  V30 4011 N 425.693 1.55336 -0.266172 0
M  V30 4012 C 426.603 2.2583 0.635458 0
M  V30 4013 C 427.619 1.28106 1.17749 0
M  V30 4014 O 428.795 1.61024 1.20968 0
M  V30 4015 C 425.86 2.95879 1.80712 0
M  V30 4016 C 424.921 4.09059 1.30265 0
M  V30 4017 C 424.154 4.75759 2.41846 0
M  V30 4018 O 424.377 4.41622 3.61007 0
M  V30 4019 O 423.311 5.63888 2.1051 0
M  V30 4020 H 427.137 3.03631 0.0646693 0
M  V30 4021 H 424.722 1.49361 -0.0339177 0
M  V30 4022 H 426.604 3.39932 2.49047 0
M  V30 4023 H 425.279 2.21002 2.36516 0
M  V30 4024 H 424.186 3.69482 0.586019 0
M  V30 4025 H 425.519 4.85811 0.790458 0
M  V30 4026 N 427.171 -0.0066808 1.57599 0
M  V30 4027 C 428.081 -1.01671 2.11424 0
M  V30 4028 C 429.097 -1.38143 1.05795 0
M  V30 4029 O 430.273 -1.47011 1.37658 0
M  V30 4030 C 427.338 -2.29192 2.60139 0
M  V30 4031 C 426.399 -1.99094 3.80342 0
M  V30 4032 C 425.632 -3.20535 4.26724 0
M  V30 4033 O 425.855 -4.3199 3.72479 0
M  V30 4034 O 424.789 -3.04924 5.18946 0
M  V30 4035 H 428.615 -0.589181 2.9793 0
M  V30 4036 H 426.2 -0.225091 1.47695 0
M  V30 4037 H 428.082 -3.0412 2.917 0
M  V30 4038 H 426.757 -2.71195 1.76733 0
M  V30 4039 H 425.664 -1.21663 3.53764 0
M  V30 4040 H 426.997 -1.61931 4.648 0
M  V30 4041 N 428.649 -1.55105 -0.279332 0
M  V30 4042 C 429.582 -1.82467 -1.37044 0
M  V30 4043 C 430.56 -0.677261 -1.47824 0
M  V30 4044 O 431.744 -0.919578 -1.64548 0
M  V30 4045 C 428.871 -1.98066 -2.7475 0
M  V30 4046 C 427.917 -3.20594 -2.81286 0
M  V30 4047 S 428.75 -4.78116 -2.41175 0
M  V30 4048 C 429.906 -4.9668 -3.80867 0
M  V30 4049 H 430.139 -2.74728 -1.1363 0
M  V30 4050 H 427.672 -1.46794 -0.478625 0
M  V30 4051 H 429.63 -2.07739 -3.54055 0
M  V30 4052 H 428.291 -1.06704 -2.9542 0
M  V30 4053 H 427.484 -3.28376 -3.82341 0
M  V30 4054 H 427.086 -3.09479 -2.09996 0
M  V30 4055 H 429.378 -4.82033 -4.76078 0
M  V30 4056 H 430.321 -5.98741 -3.78041 0
M  V30 4057 H 430.729 -4.24698 -3.71876 0
M  V30 4058 N 430.127 0.543554 -1.4793 0
M  V30 4059 C 431.074 1.64942 -1.6144 0
M  V30 4060 C 432.044 1.59692 -0.456903 0
M  V30 4061 O 433.229 1.78321 -0.678688 0
M  V30 4062 C 430.369 3.03238 -1.64744 0
M  V30 4063 C 429.482 3.18823 -2.91506 0
M  V30 4064 C 428.617 4.47599 -2.86057 0
M  V30 4065 C 427.656 4.56664 -4.07584 0
M  V30 4066 N 426.793 5.76811 -4.00292 0
M  V30 4067 H 431.633 1.52733 -2.55884 0
M  V30 4068 H 429.17 0.7438 -1.2691 0
M  V30 4069 H 431.128 3.83339 -1.64641 0
M  V30 4070 H 429.758 3.1425 -0.738017 0
M  V30 4071 H 428.81 2.32064 -3.01414 0
M  V30 4072 H 430.122 3.21384 -3.81463 0
M  V30 4073 H 429.276 5.35975 -2.84281 0
M  V30 4074 H 428.015 4.47538 -1.93807 0
M  V30 4075 H 427.02 3.66697 -4.09651 0
M  V30 4076 H 428.245 4.58474 -5.00978 0
M  V30 4077 H 426.191 5.77673 -3.10853 0
M  V30 4078 H 426.108 5.80808 -4.8394 0
M  V30 4079 H 427.376 6.67512 -4.02553 0
M  V30 4080 N 431.605 1.3629 0.791371 0
M  V30 4081 C 432.882 1.20962 1.53712 0
M  V30 4082 C 433.262 -0.205021 2.10102 0
M  V30 4083 O 432.61 -1.21042 1.93807 0
M  V30 4084 C 432.82 2.29002 2.63361 0
M  V30 4085 C 434.168 2.65572 3.31295 0
M  V30 4086 O 435.192 2.2803 2.73643 0
M  V30 4087 O 434.051 3.3018 4.35481 0
M  V30 4088 H 431.145 0.47086 0.679867 0
M  V30 4089 H 433.691 1.48016 0.830021 0
M  V30 4090 H 432.463 3.2382 2.19674 0
M  V30 4091 H 432.086 2.03303 3.41692 0
M  V30 4092 N 433.083 -1.0153 1.20538 0
M  V30 4093 C 434.013 -2.11972 0.979295 0
M  V30 4094 C 434.994 -1.6985 -0.0921787 0
M  V30 4095 O 436.179 -1.94089 0.0655932 0
M  V30 4096 C 433.309 -3.43201 0.531984 0
M  V30 4097 C 432.263 -3.9907 1.54685 0
M  V30 4098 C 431.589 -5.26082 0.956127 0
M  V30 4099 C 432.889 -4.32313 2.93092 0
M  V30 4100 H 434.583 -2.31143 1.90298 0
M  V30 4101 H 432.129 -1.11079 0.916372 0
M  V30 4102 H 434.082 -4.1985 0.361044 0
M  V30 4103 H 432.806 -3.23792 -0.427327 0
M  V30 4104 H 431.465 -3.2453 1.70517 0
M  V30 4105 H 431.113 -5.02999 -0.0111538 0
M  V30 4106 H 430.813 -5.64426 1.63393 0
M  V30 4107 H 432.337 -6.05386 0.796284 0
M  V30 4108 H 433.751 -4.99845 2.80763 0
M  V30 4109 H 432.148 -4.81774 3.57791 0
M  V30 4110 H 433.218 -3.41025 3.44717 0
M  V30 4111 N 434.561 -1.01147 -1.20859 0
M  V30 4112 C 435.977 -0.725422 -1.42161 0
M  V30 4113 C 436.177 0.696919 -1.89064 0
M  V30 4114 O 435.233 1.46539 -2.05627 0
M  V30 4115 C 436.546 -1.74678 -2.44761 0
M  V30 4116 C 438.094 -1.76433 -2.58535 0
M  V30 4117 C 438.569 -2.77481 -3.64374 0
M  V30 4118 N 440.06 -2.76189 -3.71852 0
M  V30 4119 C 440.795 -3.51035 -4.53389 0
M  V30 4120 N 440.291 -4.35541 -5.38773 0
M  V30 4121 N 442.084 -3.39655 -4.47873 0
M  V30 4122 H 434.235 -1.92979 -0.887282 0
M  V30 4123 H 436.498 -0.833327 -0.451962 0
M  V30 4124 H 436.204 -2.76551 -2.17285 0
M  V30 4125 H 436.078 -1.55472 -3.43669 0
M  V30 4126 H 438.465 -0.75248 -2.85345 0
M  V30 4127 H 438.546 -1.99712 -1.5984 0
M  V30 4128 H 438.19 -3.78827 -3.38308 0
M  V30 4129 H 438.12 -2.51466 -4.6268 0
M  V30 4130 H 440.611 -2.14885 -3.10858 0
M  V30 4131 H 440.924 -4.89432 -5.98061 0
M  V30 4132 H 439.269 -4.39621 -5.38292 0
M  V30 4133 H 442.46 -2.73063 -3.80203 0
M  V30 4134 H 442.633 -3.9824 -5.11184 0
M  V30 4135 N 436.039 1.36541 -0.78704 0
M  V30 4136 C 436.987 2.31965 -0.171724 0
M  V30 4137 C 437.981 1.55689 0.667631 0
M  V30 4138 O 439.187 1.70969 0.562981 0
M  V30 4139 H 435.562 0.751101 -0.0367545 0
M  V30 4140 H 437.533 2.81428 -0.992017 0
M  V30 4141 C 436.282 3.40968 0.680904 0
M  V30 4142 H 435.605 3.99775 0.0443961 0
M  V30 4143 H 437.045 4.10063 1.07815 0
M  V30 4144 C 435.504 2.82338 1.83813 0
M  V30 4145 O 436.034 2.74311 2.93456 0
M  V30 4146 N 434.24 2.39661 1.6435 0
M  V30 4147 H 433.787 2.46389 0.751668 0
M  V30 4148 H 433.745 2.00779 2.4194 0
M  V30 4149 N 437.518 0.538854 1.48102 0
M  V30 4150 C 438.764 0.00801365 2.02798 0
M  V30 4151 C 439.097 -1.3309 1.41424 0
M  V30 4152 O 438.372 -1.86169 0.563158 0
M  V30 4153 C 438.655 -0.104589 3.59948 0
M  V30 4154 C 438.508 1.26012 4.31788 0
M  V30 4155 C 439.827 -0.827055 4.32259 0
M  V30 4156 H 436.946 0.00438624 0.736987 0
M  V30 4157 H 439.588 0.6976 1.7673 0
M  V30 4158 H 437.738 -0.691893 3.82289 0
M  V30 4159 H 439.41 1.88922 4.2084 0
M  V30 4160 H 437.653 1.83968 3.92859 0
M  V30 4161 H 438.324 1.13424 5.40221 0
M  V30 4162 H 440.8 -0.328578 4.14801 0
M  V30 4163 H 439.676 -0.87476 5.41885 0
M  V30 4164 H 439.937 -1.87927 4.0017 0
M  V30 4165 N 438.996 -1.55193 0.274407 0
M  V30 4166 C 440.221 -2.04446 -0.348824 0
M  V30 4167 C 440.646 -1.15149 -1.48735 0
M  V30 4168 O 440.004 -0.149952 -1.80679 0
M  V30 4169 C 440.052 -3.51431 -0.808009 0
M  V30 4170 O 439.156 -3.65225 -1.91531 0
M  V30 4171 H 438.497 -0.66006 -0.0722276 0
M  V30 4172 H 441.027 -2.00481 0.408498 0
M  V30 4173 H 441.037 -3.92781 -1.10395 0
M  V30 4174 H 439.712 -4.15892 0.0249865 0
M  V30 4175 H 438.289 -3.35778 -1.62196 0
M  V30 4176 N 440.474 -0.00167713 -1.576 0
M  V30 4177 C 441.702 0.693759 -1.94922 0
M  V30 4178 C 442.117 1.67215 -0.876626 0
M  V30 4179 O 441.474 1.81929 0.144279 0
M  V30 4180 C 441.525 1.42416 -3.32265 0
M  V30 4181 O 441.246 0.485014 -4.35407 0
M  V30 4182 C 442.747 2.21395 -3.84056 0
M  V30 4183 H 439.967 0.193118 -0.642609 0
M  V30 4184 H 442.511 -0.0532952 -2.04431 0
M  V30 4185 H 440.666 2.12284 -3.24059 0
M  V30 4186 H 441.08 1.00053 -5.14868 0
M  V30 4187 H 442.554 2.67996 -4.82578 0
M  V30 4188 H 443.031 3.04142 -3.16851 0
M  V30 4189 H 443.637 1.56542 -3.95443 0
M  V30 4190 N 441.952 1.55251 0.271103 0
M  V30 4191 C 443.2 1.75599 1.00047 0
M  V30 4192 C 443.521 0.561188 1.8675 0
M  V30 4193 O 442.791 -0.423846 1.9126 0
M  V30 4194 H 441.371 0.647562 0.372387 0
M  V30 4195 H 444.033 1.92656 0.294876 0
M  V30 4196 H 443.129 2.65766 1.6363 0
M  V30 4197 N 443.43 -0.535701 1.48216 0
M  V30 4198 C 444.707 -1.29683 1.46429 0
M  V30 4199 C 445.087 -2.10391 0.172852 0
M  V30 4200 O 444.435 -2.12282 -0.845488 0
M  V30 4201 C 444.645 -2.18313 2.72287 0
M  V30 4202 C 445.993 -2.78639 3.20383 0
M  V30 4203 O 447.017 -2.28604 2.73164 0
M  V30 4204 O 445.876 -3.69636 4.02531 0
M  V30 4205 H 442.97 -0.585026 0.584529 0
M  V30 4206 H 445.516 -0.552827 1.60443 0
M  V30 4207 H 444.288 -1.58421 3.57797 0
M  V30 4208 H 443.911 -2.99971 2.60966 0
M  V30 4209 N 444.908 -1.36708 -0.784132 0
M  V30 4210 C 446.154 -1.31426 -1.54451 0
M  V30 4211 C 446.487 0.10476 -1.93917 0
M  V30 4212 O 445.762 1.05934 -1.6312 0
M  V30 4213 C 446.045 -2.24189 -2.818 0
M  V30 4214 C 445.898 -3.74813 -2.48667 0
M  V30 4215 C 447.217 -2.15626 -3.83658 0
M  V30 4216 H 444.336 -0.478739 -0.560337 0
M  V30 4217 H 446.978 -1.67305 -0.900498 0
M  V30 4218 H 445.128 -1.93722 -3.36755 0
M  V30 4219 H 446.8 -4.15823 -1.99722 0
M  V30 4220 H 445.043 -3.93989 -1.81535 0
M  V30 4221 H 445.714 -4.35138 -3.39646 0
M  V30 4222 H 448.19 -2.42456 -3.38163 0
M  V30 4223 H 447.066 -2.82694 -4.70506 0
M  V30 4224 H 447.327 -1.14522 -4.27009 0
M  V30 4225 N 446.386 1.0089 -1.21074 0
M  V30 4226 C 447.334 2.11707 -0.963476 0
M  V30 4227 C 448.328 1.69172 0.0879032 0
M  V30 4228 O 449.534 1.79889 -0.0631415 0
M  V30 4229 H 445.909 0.692026 -0.294287 0
M  V30 4230 H 447.88 2.29743 -1.90422 0
M  V30 4231 C 446.629 3.43473 -0.540509 0
M  V30 4232 H 445.952 3.76634 -1.34114 0
M  V30 4233 H 447.392 4.22044 -0.406777 0
M  V30 4234 C 445.851 3.2849 0.748079 0
M  V30 4235 O 446.381 3.58883 1.8046 0
M  V30 4236 N 444.587 2.81715 0.713081 0
M  V30 4237 H 444.134 2.5718 -0.146973 0
M  V30 4238 H 444.092 2.72071 1.57558 0
M  V30 4239 N 447.864 1.01787 1.20321 0
M  V30 4240 C 449.11 0.708985 1.90003 0
M  V30 4241 C 449.443 -0.759572 1.78729 0
M  V30 4242 O 448.718 -1.55198 1.17234 0
M  V30 4243 C 449.001 1.1469 3.41348 0
M  V30 4244 C 448.854 2.67586 3.61549 0
M  V30 4245 C 450.173 0.71915 4.34185 0
M  V30 4246 H 447.292 0.259034 0.689978 0
M  V30 4247 H 449.934 1.26584 1.41692 0
M  V30 4248 H 448.084 0.673128 3.82624 0
M  V30 4249 H 449.756 3.22826 3.29517 0
M  V30 4250 H 447.999 3.085 3.04976 0
M  V30 4251 H 448.67 2.93281 4.67643 0
M  V30 4252 H 451.146 1.12647 4.00562 0
M  V30 4253 H 450.022 1.05358 5.38694 0
M  V30 4254 H 450.283 -0.379111 4.40472 0
M  V30 4255 N 449.342 -1.36122 0.79427 0
M  V30 4256 C 450.252 -2.33769 0.197296 0
M  V30 4257 C 451.268 -1.61276 -0.653153 0
M  V30 4258 O 452.444 -1.9323 -0.5678 0
M  V30 4259 C 449.509 -3.40474 -0.654098 0
M  V30 4260 C 448.57 -4.28759 0.215411 0
M  V30 4261 C 447.803 -5.30368 -0.595443 0
M  V30 4262 O 448.026 -5.40211 -1.83107 0
M  V30 4263 O 446.96 -6.019 0.00721351 0
M  V30 4264 H 450.786 -2.86597 1.00478 0
M  V30 4265 H 448.371 -1.38676 0.555818 0
M  V30 4266 H 450.253 -4.05703 -1.13944 0
M  V30 4267 H 448.928 -2.89937 -1.43938 0
M  V30 4268 H 447.835 -3.66554 0.747615 0
M  V30 4269 H 449.168 -4.82661 0.964332 0
M  V30 4270 N 450.82 -0.546701 -1.47814 0
M  V30 4271 C 451.753 0.254472 -2.26777 0
M  V30 4272 C 452.731 0.929809 -1.33392 0
M  V30 4273 O 453.915 0.950889 -1.62759 0
M  V30 4274 C 451.042 1.36171 -3.10121 0
M  V30 4275 C 450.088 0.796038 -4.19005 0
M  V30 4276 S 450.921 -0.349191 -5.3436 0
M  V30 4277 C 452.077 0.760122 -6.21267 0
M  V30 4278 H 452.31 -0.415612 -2.94381 0
M  V30 4279 H 449.843 -0.332809 -1.5077 0
M  V30 4280 H 451.801 1.99588 -3.58713 0
M  V30 4281 H 450.462 2.00359 -2.41899 0
M  V30 4282 H 449.655 1.62719 -4.7701 0
M  V30 4283 H 449.257 0.238246 -3.7324 0
M  V30 4284 H 451.549 1.65479 -6.5698 0
M  V30 4285 H 452.492 0.217673 -7.07765 0
M  V30 4286 H 452.9 1.04806 -5.54685 0
M  V30 4287 N 452.299 1.55045 -0.282633 0
M  V30 4288 C 453.247 2.24254 0.617478 0
M  V30 4289 C 454.241 1.24215 1.15183 0
M  V30 4290 O 455.447 1.42123 1.10459 0
M  V30 4291 H 451.822 0.719801 0.217693 0
M  V30 4292 H 453.793 2.98398 0.0110076 0
M  V30 4293 C 452.542 2.98281 1.78672 0
M  V30 4294 H 451.865 3.75053 1.38475 0
M  V30 4295 H 453.305 3.50017 2.393 0
M  V30 4296 C 451.764 2.04184 2.67975 0
M  V30 4297 O 452.294 1.59792 3.6855 0
M  V30 4298 N 450.5 1.70526 2.35307 0
M  V30 4299 H 450.047 2.06821 1.53567 0
M  V30 4300 H 450.005 1.07839 2.95327 0
M  V30 4301 N 453.777 0.010035 1.57597 0
M  V30 4302 C 454.74 -0.963029 2.07986 0
M  V30 4303 C 455.74 -1.26619 0.991173 0
M  V30 4304 O 456.93 -1.2097 1.25347 0
M  V30 4305 C 454.062 -2.2851 2.52974 0
M  V30 4306 H 455.255 -0.526971 2.95234 0
M  V30 4307 H 452.808 -0.237639 1.54483 0
M  V30 4308 H 453.543 -2.76784 1.69 0
M  V30 4309 H 453.328 -2.07824 3.32493 0
M  V30 4310 H 454.818 -2.98294 2.9225 0
M  V30 4311 N 455.255 -1.55392 -0.262866 0
M  V30 4312 C 456.218 -1.88181 -1.30846 0
M  V30 4313 C 457.218 -0.757079 -1.41862 0
M  V30 4314 O 458.408 -1.02519 -1.40838 0
M  V30 4315 C 455.54 -2.09609 -2.68844 0
M  V30 4316 H 456.733 -2.81659 -1.02997 0
M  V30 4317 H 454.286 -1.48039 -0.501414 0
M  V30 4318 H 455.021 -1.18547 -3.01856 0
M  V30 4319 H 454.806 -2.91508 -2.62231 0
M  V30 4320 H 456.296 -2.36215 -3.44372 0
M  V30 4321 N 456.733 0.527833 -1.48498 0
M  V30 4322 C 458.144 1.10975 -1.50138 0
M  V30 4323 C 458.495 1.943 -0.272378 0
M  V30 4324 O 457.62 2.07319 0.620301 0
M  V30 4325 C 458.215 2.01927 -2.72049 0
M  V30 4326 C 456.774 2.55332 -2.76554 0
M  V30 4327 C 455.921 1.32341 -2.43683 0
M  V30 4328 H 458.872 0.312986 -1.55583 0
M  V30 4329 H 458.893 2.86244 -2.50689 0
M  V30 4330 H 458.405 1.41254 -3.61481 0
M  V30 4331 H 456.506 3.19721 -1.91336 0
M  V30 4332 H 456.619 2.94319 -3.78038 0
M  V30 4333 H 454.983 1.63989 -1.94884 0
M  V30 4334 H 455.766 0.734165 -3.35358 0
M  V30 4335 N 458.211 1.37122 0.776871 0
M  V30 4336 C 459.459 1.31787 1.53221 0
M  V30 4337 C 459.78 -0.0987589 1.9475 0
M  V30 4338 O 459.05 -1.0417 1.65908 0
M  V30 4339 H 457.63 0.484839 0.568278 0
M  V30 4340 H 460.292 1.71556 0.924917 0
M  V30 4341 H 459.388 1.95355 2.43398 0
M  V30 4342 N 459.689 -1.00246 1.21608 0
M  V30 4343 C 460.935 -1.74319 1.03638 0
M  V30 4344 C 461.268 -1.89408 -0.428749 0
M  V30 4345 O 460.543 -1.43026 -1.3181 0
M  V30 4346 C 460.826 -3.15431 1.73711 0
M  V30 4347 C 460.679 -3.08049 3.27759 0
M  V30 4348 C 461.998 -4.14407 1.48173 0
M  V30 4349 H 459.117 -0.632741 0.377899 0
M  V30 4350 H 461.759 -1.16853 1.49818 0
M  V30 4351 H 459.909 -3.64493 1.34452 0
M  V30 4352 H 461.581 -2.66681 3.76403 0
M  V30 4353 H 459.824 -2.45088 3.57931 0
M  V30 4354 H 460.495 -4.07862 3.71958 0
M  V30 4355 H 462.971 -3.74061 1.82258 0
M  V30 4356 H 461.847 -5.11279 1.99713 0
M  V30 4357 H 462.108 -4.40174 0.412273 0
M  V30 4358 N 461.167 -1.02423 -1.1978 0
M  V30 4359 C 462.444 -0.632802 -1.85081 0
M  V30 4360 C 462.824 0.888745 -1.9148 0
M  V30 4361 O 462.172 1.78357 -1.42832 0
M  V30 4362 C 462.382 -1.28947 -3.24305 0
M  V30 4363 C 463.73 -1.40976 -4.00513 0
M  V30 4364 O 464.754 -1.24628 -3.33686 0
M  V30 4365 O 463.613 -1.67467 -5.20209 0
M  V30 4366 H 460.707 -0.219348 -0.79738 0
M  V30 4367 H 463.253 -1.12209 -1.27307 0
M  V30 4368 H 462.025 -2.3288 -3.14456 0
M  V30 4369 H 461.648 -0.787748 -3.89718 0
M  V30 4370 N 462.645 1.35699 -0.801477 0
M  V30 4371 C 463.575 2.32436 -0.222658 0
M  V30 4372 C 464.556 1.5723 0.649057 0
M  V30 4373 O 465.741 1.85324 0.580387 0
M  V30 4374 C 462.871 3.41469 0.633719 0
M  V30 4375 C 461.825 4.27774 -0.139083 0
M  V30 4376 C 461.151 5.28082 0.838666 0
M  V30 4377 C 462.451 5.04946 -1.33517 0
M  V30 4378 H 464.145 2.81094 -1.03086 0
M  V30 4379 H 461.691 1.35146 -0.497155 0
M  V30 4380 H 463.644 4.08143 1.04868 0
M  V30 4381 H 462.368 2.91408 1.47475 0
M  V30 4382 H 461.027 3.62673 -0.535156 0
M  V30 4383 H 460.675 4.7429 1.67506 0
M  V30 4384 H 460.375 5.86695 0.32594 0
M  V30 4385 H 461.899 5.97628 1.25194 0
M  V30 4386 H 463.313 5.64593 -0.995349 0
M  V30 4387 H 461.71 5.7303 -1.78202 0
M  V30 4388 H 462.78 4.35886 -2.12442 0
M  V30 4389 N 464.123 0.554532 1.47522 0
M  V30 4390 C 465.351 0.034257 2.06872 0
M  V30 4391 C 465.766 -1.25826 1.40759 0
M  V30 4392 O 465.123 -1.75425 0.503217 0
M  V30 4393 C 465.174 -0.167827 3.6111 0
M  V30 4394 O 464.895 1.07351 4.24744 0
M  V30 4395 C 466.396 -0.72569 4.3732 0
M  V30 4396 H 463.616 0.0446275 0.669514 0
M  V30 4397 H 466.16 0.767181 1.89564 0
M  V30 4398 H 464.315 -0.850872 3.7794 0
M  V30 4399 H 464.729 0.869563 5.17242 0
M  V30 4400 H 466.203 -0.816394 5.45929 0
M  V30 4401 H 466.68 -1.73635 4.0342 0
M  V30 4402 H 467.286 -0.0784292 4.25228 0
M  V30 4403 N 465.601 -1.54893 0.290851 0
M  V30 4404 C 466.533 -2.20564 -0.623236 0
M  V30 4405 C 467.546 -1.19519 -1.1054 0
M  V30 4406 O 468.735 -1.46165 -1.02459 0
M  V30 4407 C 465.835 -2.83033 -1.86401 0
M  V30 4408 C 465.008 -4.09916 -1.52604 0
M  V30 4409 C 464.067 -4.56284 -2.62091 0
M  V30 4410 O 463.093 -5.2171 -2.27612 0
M  V30 4411 N 464.295 -4.27746 -3.92446 0
M  V30 4412 H 467.06 -2.99638 -0.0610915 0
M  V30 4413 H 464.621 -1.61508 0.112615 0
M  V30 4414 H 466.613 -3.1099 -2.58973 0
M  V30 4415 H 465.183 -2.0786 -2.33481 0
M  V30 4416 H 464.403 -3.89078 -0.633424 0
M  V30 4417 H 465.691 -4.92554 -1.27547 0
M  V30 4418 H 465.089 -3.7531 -4.23272 0
M  V30 4419 H 463.646 -4.60437 -4.61347 0
M  V30 4420 N 467.08 -0.0183926 -1.57589 0
M  V30 4421 C 468.01 0.965596 -2.12599 0
M  V30 4422 C 468.991 1.34641 -1.0395 0
M  V30 4423 O 470.176 1.42693 -1.31729 0
M  V30 4424 C 467.306 2.25149 -2.64434 0
M  V30 4425 C 466.26 2.01175 -3.77773 0
M  V30 4426 C 465.586 3.35937 -4.15994 0
M  V30 4427 C 466.886 1.35953 -5.04296 0
M  V30 4428 H 468.58 0.507504 -2.95067 0
M  V30 4429 H 466.126 0.242671 -1.41941 0
M  V30 4430 H 468.079 2.94357 -3.01549 0
M  V30 4431 H 466.803 2.73105 -1.79112 0
M  V30 4432 H 465.462 1.34388 -3.4108 0
M  V30 4433 H 465.11 3.81631 -3.27669 0
M  V30 4434 H 464.81 3.20705 -4.92364 0
M  V30 4435 H 466.334 4.0643 -4.55683 0
M  V30 4436 H 467.748 1.95144 -5.39065 0
M  V30 4437 H 466.145 1.31152 -5.85593 0
M  V30 4438 H 467.215 0.331071 -4.83768 0
M  V30 4439 N 468.558 1.5553 0.254621 0
M  V30 4440 C 469.488 1.9268 1.31897 0
M  V30 4441 C 470.469 0.790797 1.506 0
M  V30 4442 O 471.654 1.05045 1.63337 0
M  V30 4443 C 468.784 2.21477 2.67517 0
M  V30 4444 C 467.738 3.37256 2.63519 0
M  V30 4445 C 467.064 3.51576 4.02862 0
M  V30 4446 C 468.364 4.73157 2.21179 0
M  V30 4447 H 470.058 2.81832 1.01051 0
M  V30 4448 H 467.604 1.35599 0.484662 0
M  V30 4449 H 469.557 2.46055 3.42104 0
M  V30 4450 H 468.281 1.29144 2.99982 0
M  V30 4451 H 466.94 3.12675 1.9139 0
M  V30 4452 H 466.588 2.56676 4.32581 0
M  V30 4453 H 466.288 4.2943 4.01078 0
M  V30 4454 H 467.812 3.78467 4.79161 0
M  V30 4455 H 469.226 4.97158 2.85494 0
M  V30 4456 H 467.623 5.54058 2.30521 0
M  V30 4457 H 468.693 4.70739 1.16332 0
M  V30 4458 N 470.036 -0.519951 1.48776 0
M  V30 4459 C 470.984 -1.64443 1.64503 0
M  V30 4460 C 471.978 -1.61501 0.511248 0
M  V30 4461 O 473.184 -1.66238 0.690294 0
M  V30 4462 H 469.559 -0.544776 0.518385 0
M  V30 4463 H 471.53 -1.48325 2.58925 0
M  V30 4464 C 470.279 -3.02673 1.71127 0
M  V30 4465 H 469.602 -3.05635 2.57735 0
M  V30 4466 H 471.042 -3.80941 1.86172 0
M  V30 4467 C 469.501 -3.33854 0.452032 0
M  V30 4468 O 470.031 -3.99385 -0.430678 0
M  V30 4469 N 468.237 -2.88825 0.32069 0
M  V30 4470 H 467.784 -2.35674 1.03998 0
M  V30 4471 H 467.742 -3.10056 -0.520814 0
M  V30 4472 N 471.514 -1.37532 -0.769588 0
M  V30 4473 C 472.462 -1.33561 -1.90432 0
M  V30 4474 C 473.456 -0.224027 -1.67912 0
M  V30 4475 O 474.662 -0.392174 -1.75676 0
M  V30 4476 H 471.037 -0.416279 -0.626271 0
M  V30 4477 H 473.008 -2.29348 -1.90899 0
M  V30 4478 C 471.757 -1.16162 -3.27722 0
M  V30 4479 H 471.08 -2.00951 -3.45628 0
M  V30 4480 H 472.52 -1.17434 -4.07413 0
M  V30 4481 C 470.979 0.132583 -3.36639 0
M  V30 4482 O 471.509 1.11539 -3.85904 0
M  V30 4483 N 469.715 0.184013 -2.90017 0
M  V30 4484 H 469.262 -0.616415 -2.50116 0
M  V30 4485 H 469.22 1.04956 -2.96364 0
M  V30 4486 N 472.992 0.995999 -1.22138 0
M  V30 4487 C 473.925 2.08302 -0.931952 0
M  V30 4488 C 474.903 1.62127 0.123956 0
M  V30 4489 O 476.087 1.88499 -0.00696004 0
M  V30 4490 C 473.214 3.36317 -0.401068 0
M  V30 4491 C 472.26 4.01413 -1.44117 0
M  V30 4492 S 473.093 4.42664 -3.01345 0
M  V30 4493 C 474.249 5.73853 -2.49887 0
M  V30 4494 H 474.482 2.32532 -1.85246 0
M  V30 4495 H 472.015 1.13005 -1.0521 0
M  V30 4496 H 473.973 4.10375 -0.101352 0
M  V30 4497 H 472.634 3.10123 0.498272 0
M  V30 4498 H 471.827 4.9358 -1.01952 0
M  V30 4499 H 471.429 3.33668 -1.68943 0
M  V30 4500 H 473.721 6.50039 -1.90934 0
M  V30 4501 H 474.664 6.20841 -3.40532 0
M  V30 4502 H 475.072 5.31105 -1.9128 0
M  V30 4503 N 474.47 1.03057 1.19235 0
M  V30 4504 C 475.886 0.747947 1.40989 0
M  V30 4505 C 476.086 -0.666752 1.90149 0
M  V30 4506 O 475.142 -1.43249 2.07933 0
M  V30 4507 C 476.455 1.7855 2.41951 0
M  V30 4508 C 478.003 1.80524 2.55695 0
M  V30 4509 C 478.478 2.83243 3.59913 0
M  V30 4510 N 479.969 2.8207 3.67411 0
M  V30 4511 C 480.704 3.58204 4.47747 0
M  V30 4512 N 480.2 4.44057 5.31775 0
M  V30 4513 N 481.993 3.46738 4.42413 0
M  V30 4514 H 474.144 1.94367 0.856468 0
M  V30 4515 H 476.407 0.840412 0.438647 0
M  V30 4516 H 476.113 2.79973 2.12857 0
M  V30 4517 H 475.987 1.6092 3.41152 0
M  V30 4518 H 478.374 0.79778 2.84112 0
M  V30 4519 H 478.455 2.02229 1.56643 0
M  V30 4520 H 478.099 3.84161 3.32239 0
M  V30 4521 H 478.029 2.58795 4.5862 0
M  V30 4522 H 480.52 2.19803 3.074 0
M  V30 4523 H 480.833 4.98884 5.90199 0
M  V30 4524 H 479.178 4.48129 5.3123 0
M  V30 4525 H 482.369 2.79077 3.75811 0
M  V30 4526 H 482.542 4.06322 5.04783 0
M  V30 4527 N 475.948 -1.35272 0.808662 0
M  V30 4528 C 477.173 -2.03477 0.401475 0
M  V30 4529 C 477.598 -1.60537 -0.980279 0
M  V30 4530 O 476.956 -0.78304 -1.63518 0
M  V30 4531 C 477.004 -3.57181 0.495354 0
M  V30 4532 O 476.108 -4.09474 -0.490397 0
M  V30 4533 H 475.449 -0.642561 0.167366 0
M  V30 4534 H 477.979 -1.72824 1.09512 0
M  V30 4535 H 477.989 -4.06356 0.365912 0
M  V30 4536 H 476.664 -3.87784 1.5032 0
M  V30 4537 H 475.241 -3.71516 -0.321023 0
M  V30 4538 N 477.426 -0.562348 -1.47226 0
M  V30 4539 C 478.358 0.220011 -2.28142 0
M  V30 4540 C 479.371 0.874596 -1.37312 0
M  V30 4541 O 480.56 0.747583 -1.62091 0
M  V30 4542 C 477.66 1.32953 -3.11732 0
M  V30 4543 C 476.833 0.770759 -4.30556 0
M  V30 4544 C 475.892 1.76541 -4.95701 0
M  V30 4545 O 474.918 1.3095 -5.53932 0
M  V30 4546 N 476.12 3.09896 -4.90861 0
M  V30 4547 H 478.885 -0.474107 -2.95926 0
M  V30 4548 H 476.446 -0.398761 -1.56912 0
M  V30 4549 H 478.438 1.99378 -3.5218 0
M  V30 4550 H 477.008 1.92681 -2.46156 0
M  V30 4551 H 476.228 -0.0704056 -3.94137 0
M  V30 4552 H 477.516 0.376872 -5.07402 0
M  V30 4553 H 476.914 3.49577 -4.44761 0
M  V30 4554 H 475.471 3.71865 -5.35313 0
M  V30 4555 N 478.904 1.54736 -0.299062 0
M  V30 4556 C 480.134 2.04215 0.312992 0
M  V30 4557 C 480.542 1.17596 1.48215 0
M  V30 4558 O 479.885 0.193835 1.82674 0
M  V30 4559 C 479.947 3.49696 0.833862 0
M  V30 4560 C 479.611 4.56518 -0.20977 0
M  V30 4561 C 480.608 5.09442 -1.03756 0
M  V30 4562 C 478.293 5.01073 -0.35091 0
M  V30 4563 C 480.287 6.05459 -1.99244 0
M  V30 4564 C 477.974 5.9691 -1.30924 0
M  V30 4565 C 478.972 6.48987 -2.1285 0
M  V30 4566 O 478.66 7.42947 -3.07059 0
M  V30 4567 H 478.392 0.672128 0.0722494 0
M  V30 4568 H 480.946 2.00718 -0.436043 0
M  V30 4569 H 479.176 3.5051 1.63339 0
M  V30 4570 H 480.865 3.82381 1.36159 0
M  V30 4571 H 481.631 4.75816 -0.939376 0
M  V30 4572 H 477.51 4.60168 0.276813 0
M  V30 4573 H 481.054 6.46031 -2.63229 0
M  V30 4574 H 476.951 6.29953 -1.40815 0
M  V30 4575 H 477.719 7.60743 -3.02015 0
M  V30 4576 N 480.382 0.0267497 1.57577 0
M  V30 4577 C 481.292 -0.971633 2.13533 0
M  V30 4578 C 482.308 -1.35868 1.08701 0
M  V30 4579 O 483.484 -1.44058 1.40746 0
M  V30 4580 C 480.549 -2.23622 2.64941 0
M  V30 4581 C 479.61 -1.90982 3.8448 0
M  V30 4582 C 478.843 -3.11411 4.33427 0
M  V30 4583 O 479.066 -4.23992 3.81558 0
M  V30 4584 O 478 -2.93848 5.25297 0
M  V30 4585 H 481.826 -0.525853 2.99113 0
M  V30 4586 H 479.411 -0.193712 1.48139 0
M  V30 4587 H 481.293 -2.97864 2.98086 0
M  V30 4588 H 479.968 -2.67386 1.82446 0
M  V30 4589 H 478.875 -1.14132 3.56265 0
M  V30 4590 H 480.208 -1.52036 4.6813 0
M  V30 4591 N 481.861 -1.55662 -0.24637 0
M  V30 4592 C 482.793 -1.86811 -1.32794 0
M  V30 4593 C 483.806 -0.754413 -1.44265 0
M  V30 4594 O 484.995 -1.03253 -1.45606 0
M  V30 4595 C 482.095 -2.0397 -2.70646 0
M  V30 4596 C 481.268 -3.34832 -2.81436 0
M  V30 4597 C 480.327 -3.41727 -4.00136 0
M  V30 4598 O 479.353 -4.14934 -3.89639 0
M  V30 4599 N 480.555 -2.71058 -5.1333 0
M  V30 4600 H 483.32 -2.80174 -1.06409 0
M  V30 4601 H 480.881 -1.55906 -0.43647 0
M  V30 4602 H 482.873 -2.05924 -3.48393 0
M  V30 4603 H 481.443 -1.1735 -2.89738 0
M  V30 4604 H 480.663 -3.4519 -1.90361 0
M  V30 4605 H 481.951 -4.21085 -2.85595 0
M  V30 4606 H 481.349 -2.11314 -5.2475 0
M  V30 4607 H 479.906 -2.78704 -5.89209 0
M  V30 4608 N 483.339 0.512053 -1.4905 0
M  V30 4609 C 484.269 1.62365 -1.67809 0
M  V30 4610 C 485.25 1.61737 -0.526809 0
M  V30 4611 O 486.435 1.78651 -0.761404 0
M  V30 4612 C 483.565 3.00895 -1.73435 0
M  V30 4613 C 482.519 3.16387 -2.88242 0
M  V30 4614 C 481.845 4.56157 -2.78971 0
M  V30 4615 C 483.145 2.97457 -4.29321 0
M  V30 4616 H 484.839 1.46921 -2.60873 0
M  V30 4617 H 482.385 0.705379 -1.2554 0
M  V30 4618 H 484.338 3.78549 -1.85145 0
M  V30 4619 H 483.062 3.17403 -0.769619 0
M  V30 4620 H 481.721 2.41155 -2.76116 0
M  V30 4621 H 481.369 4.69525 -1.8043 0
M  V30 4622 H 481.069 4.67465 -3.5602 0
M  V30 4623 H 482.593 5.35886 -2.92675 0
M  V30 4624 H 484.007 3.64888 -4.42187 0
M  V30 4625 H 482.404 3.20245 -5.07507 0
M  V30 4626 H 483.474 1.93692 -4.44535 0
M  V30 4627 N 484.817 1.37938 0.762283 0
M  V30 4628 C 485.78 1.34279 1.85747 0
M  V30 4629 C 486.78 0.244969 1.58923 0
M  V30 4630 O 487.97 0.501365 1.66829 0
M  V30 4631 C 485.102 1.08833 3.23061 0
M  V30 4632 H 486.295 2.31705 1.90401 0
M  V30 4633 H 483.848 1.23105 0.963057 0
M  V30 4634 H 484.583 0.119767 3.24079 0
M  V30 4635 H 484.368 1.88306 3.43923 0
M  V30 4636 H 485.858 1.08946 4.03138 0
M  V30 4637 N 486.295 -0.989507 1.22664 0
M  V30 4638 C 487.205 -2.11449 1.01619 0
M  V30 4639 C 488.221 -1.73962 -0.036545 0
M  V30 4640 O 489.397 -2.00788 0.156924 0
M  V30 4641 C 486.462 -3.41465 0.600204 0
M  V30 4642 C 485.523 -3.93033 1.72695 0
M  V30 4643 C 484.756 -5.16844 1.33071 0
M  V30 4644 O 484.979 -5.7001 0.210975 0
M  V30 4645 O 483.913 -5.6225 2.14845 0
M  V30 4646 H 487.739 -2.32088 1.9588 0
M  V30 4647 H 485.324 -1.09823 1.01289 0
M  V30 4648 H 487.206 -4.19695 0.37873 0
M  V30 4649 H 485.881 -3.22178 -0.313511 0
M  V30 4650 H 484.788 -3.15961 2.00298 0
M  V30 4651 H 486.121 -4.16758 2.61865 0
M  V30 4652 N 487.773 -1.03688 -1.18687 0
M  V30 4653 C 488.705 -0.582696 -2.21669 0
M  V30 4654 C 489.718 0.345656 -1.59088 0
M  V30 4655 O 490.907 0.140776 -1.77944 0
M  V30 4656 C 488.007 0.169204 -3.38477 0
M  V30 4657 C 487.18 -0.766079 -4.30639 0
M  V30 4658 C 486.239 -0.0581541 -5.26168 0
M  V30 4659 O 485.265 -0.687346 -5.65035 0
M  V30 4660 N 486.467 1.20981 -5.67753 0
M  V30 4661 H 489.232 -1.46843 -2.61261 0
M  V30 4662 H 486.793 -0.916896 -1.33434 0
M  V30 4663 H 488.785 0.652543 -3.99405 0
M  V30 4664 H 487.355 0.956435 -2.97609 0
M  V30 4665 H 486.575 -1.42935 -3.67373 0
M  V30 4666 H 487.863 -1.40146 -4.89118 0
M  V30 4667 H 487.261 1.74159 -5.38224 0
M  V30 4668 H 485.818 1.6375 -6.30896 0
M  V30 4669 N 489.251 1.34841 -0.815825 0
M  V30 4670 C 490.199 2.31549 -0.220888 0
M  V30 4671 C 491.193 1.5707 0.634457 0
M  V30 4672 O 492.399 1.72125 0.526589 0
M  V30 4673 H 488.774 0.750153 -0.0526782 0
M  V30 4674 H 490.745 2.7926 -1.05149 0
M  V30 4675 C 489.494 3.42335 0.608427 0
M  V30 4676 H 488.817 3.9978 -0.0404121 0
M  V30 4677 H 490.257 4.12258 0.990931 0
M  V30 4678 C 488.716 2.86173 1.77782 0
M  V30 4679 O 489.246 2.80474 2.87571 0
M  V30 4680 N 487.452 2.43093 1.59229 0
M  V30 4681 H 486.999 2.47928 0.699237 0
M  V30 4682 H 486.957 2.05866 2.37627 0
M  V30 4683 N 490.729 0.570148 1.46925 0
M  V30 4684 C 492.145 0.23087 1.57921 0
M  V30 4685 C 492.345 -1.26676 1.56702 0
M  V30 4686 O 491.401 -2.04774 1.47729 0
M  V30 4687 C 492.714 0.868973 2.8787 0
M  V30 4688 C 494.262 0.841397 3.01479 0
M  V30 4689 C 494.737 1.45881 4.34146 0
M  V30 4690 N 496.228 1.42258 4.40814 0
M  V30 4691 C 496.963 1.8698 5.42057 0
M  V30 4692 N 496.459 2.39618 6.50042 0
M  V30 4693 N 498.252 1.77972 5.33181 0
M  V30 4694 H 490.403 1.54301 1.45962 0
M  V30 4695 H 492.666 0.644224 0.69547 0
M  V30 4696 H 492.372 1.922 2.94537 0
M  V30 4697 H 492.246 0.369682 3.75384 0
M  V30 4698 H 494.633 -0.202973 2.94401 0
M  V30 4699 H 494.714 1.37858 2.15474 0
M  V30 4700 H 494.358 2.50231 4.4198 0
M  V30 4701 H 494.288 0.896958 5.18905 0
M  V30 4702 H 496.779 1.03768 3.63374 0
M  V30 4703 H 497.092 2.71633 7.23488 0
M  V30 4704 H 495.437 2.43636 6.50897 0
M  V30 4705 H 498.628 1.36617 4.4772 0
M  V30 4706 H 498.801 2.13143 6.11943 0
M  V30 4707 N 492.207 -1.54576 0.307264 0
M  V30 4708 C 493.154 -2.23751 -0.56604 0
M  V30 4709 C 494.124 -1.22235 -1.12462 0
M  V30 4710 O 495.309 -1.50873 -1.16799 0
M  V30 4711 C 492.449 -2.98661 -1.72903 0
M  V30 4712 C 491.562 -4.14963 -1.20124 0
M  V30 4713 C 490.697 -4.77441 -2.3286 0
M  V30 4714 C 489.736 -5.85875 -1.77247 0
M  V30 4715 N 488.873 -6.42282 -2.8358 0
M  V30 4716 H 493.713 -2.97984 0.0304578 0
M  V30 4717 H 491.25 -1.47076 0.0268015 0
M  V30 4718 H 493.208 -3.40329 -2.41313 0
M  V30 4719 H 491.838 -2.26793 -2.29706 0
M  V30 4720 H 490.89 -3.78193 -0.409198 0
M  V30 4721 H 492.202 -4.93066 -0.754171 0
M  V30 4722 H 491.356 -5.21993 -3.09205 0
M  V30 4723 H 490.095 -3.98684 -2.80896 0
M  V30 4724 H 489.1 -5.40741 -0.993926 0
M  V30 4725 H 490.325 -6.6652 -1.30107 0
M  V30 4726 H 488.271 -5.66406 -3.30939 0
M  V30 4727 H 488.188 -7.1575 -2.43388 0
M  V30 4728 H 489.456 -6.91492 -3.59804 0
M  V30 4729 N 493.685 -0.035106 -1.57561 0
M  V30 4730 C 494.962 0.681212 -1.83354 0
M  V30 4731 C 495.342 1.89986 -0.920252 0
M  V30 4732 O 494.69 2.28489 0.0226815 0
M  V30 4733 C 494.9 1.05376 -3.32712 0
M  V30 4734 C 496.248 1.44286 -3.99333 0
M  V30 4735 O 497.272 1.14656 -3.37242 0
M  V30 4736 O 496.131 1.99518 -5.08778 0
M  V30 4737 H 493.225 0.334741 -0.756226 0
M  V30 4738 H 495.771 -0.0632448 -1.69582 0
M  V30 4739 H 494.543 0.186668 -3.90854 0
M  V30 4740 H 494.166 1.85619 -3.51613 0
M  V30 4741 N 495.163 1.55791 0.238111 0
M  V30 4742 C 496.126 1.90239 1.27835 0
M  V30 4743 C 497.126 0.779552 1.4064 0
M  V30 4744 O 498.316 1.04747 1.3919 0
M  V30 4745 C 495.448 2.13859 2.65475 0
M  V30 4746 H 496.641 2.83262 0.985034 0
M  V30 4747 H 494.194 1.48818 0.477799 0
M  V30 4748 H 494.929 1.23334 2.99932 0
M  V30 4749 H 494.714 2.95643 2.57561 0
M  V30 4750 H 496.204 2.41664 3.40571 0
M  V30 4751 N 496.642 -0.504142 1.49319 0
M  V30 4752 C 497.552 -1.63248 1.68486 0
M  V30 4753 C 498.568 -1.64488 0.567432 0
M  V30 4754 O 499.744 -1.82966 0.841749 0
M  V30 4755 C 496.809 -2.99627 1.74426 0
M  V30 4756 C 495.87 -3.09039 2.97982 0
M  V30 4757 C 495.103 -4.38913 3.0363 0
M  V30 4758 O 495.326 -5.27528 2.16958 0
M  V30 4759 O 494.26 -4.53231 3.96062 0
M  V30 4760 H 498.086 -1.50008 2.64067 0
M  V30 4761 H 495.671 -0.680086 1.33023 0
M  V30 4762 H 497.553 -3.80689 1.80705 0
M  V30 4763 H 496.228 -3.13136 0.820233 0
M  V30 4764 H 495.135 -2.27177 2.97223 0
M  V30 4765 H 496.468 -3.00456 3.89855 0
M  V30 4766 N 498.12 -1.38341 -0.754957 0
M  V30 4767 C 499.083 -1.35262 -1.85032 0
M  V30 4768 C 500.083 -0.253393 -1.58791 0
M  V30 4769 O 501.273 -0.510205 -1.66561 0
M  V30 4770 C 498.405 -1.10544 -3.22479 0
M  V30 4771 H 499.598 -2.32712 -1.8917 0
M  V30 4772 H 497.151 -1.23614 -0.956515 0
M  V30 4773 H 497.886 -0.136952 -3.24011 0
M  V30 4774 H 497.671 -1.90127 -3.4292 0
M  V30 4775 H 499.161 -1.11082 -4.02555 0
M  V30 4776 N 499.598 0.982988 -1.23187 0
M  V30 4777 C 500.844 1.7273 -1.07405 0
M  V30 4778 C 501.199 1.885 0.385447 0
M  V30 4779 O 500.492 1.4243 1.28157 0
M  V30 4780 C 500.686 3.12736 -1.73006 0
M  V30 4781 C 500.515 3.10621 -3.25184 0
M  V30 4782 C 499.285 3.15957 -3.94334 0
M  V30 4783 C 501.483 2.93992 -4.21987 0
M  V30 4784 N 499.465 3.03701 -5.33516 0
M  V30 4785 C 500.836 2.8987 -5.48065 0
M  V30 4786 C 502.891 2.78457 -4.12754 0
M  V30 4787 C 501.594 2.71804 -6.65969 0
M  V30 4788 C 503.62 2.61754 -5.30319 0
M  V30 4789 C 502.982 2.58328 -6.55321 0
M  V30 4790 H 499.081 0.641279 -0.447533 0
M  V30 4791 H 501.665 1.16664 -1.55877 0
M  V30 4792 H 499.836 3.67026 -1.2707 0
M  V30 4793 H 501.568 3.75786 -1.50224 0
M  V30 4794 H 498.323 3.24034 -3.45397 0
M  V30 4795 H 498.747 3.00855 -6.06478 0
M  V30 4796 H 503.389 2.79898 -3.16886 0
M  V30 4797 H 501.107 2.69108 -7.61975 0
M  V30 4798 H 504.693 2.50702 -5.25014 0
M  V30 4799 H 503.573 2.45564 -7.4476 0
M  V30 4800 N 501.076 1.04316 1.18135 0
M  V30 4801 C 502.323 0.74802 1.88178 0
M  V30 4802 C 502.651 -0.72441 1.80506 0
M  V30 4803 O 501.906 -1.54463 1.20165 0
M  V30 4804 C 502.205 1.16271 3.37958 0
M  V30 4805 C 501.871 2.63585 3.65833 0
M  V30 4806 C 500.533 3.03829 3.73151 0
M  V30 4807 C 502.885 3.58822 3.78016 0
M  V30 4808 C 500.213 4.38194 3.90132 0
M  V30 4809 C 502.565 4.92909 3.96514 0
M  V30 4810 C 501.229 5.3282 4.02068 0
M  V30 4811 H 500.499 0.27372 0.688592 0
M  V30 4812 H 503.146 1.30863 1.39811 0
M  V30 4813 H 501.451 0.520938 3.88321 0
M  V30 4814 H 503.148 0.911672 3.90499 0
M  V30 4815 H 499.738 2.31414 3.60757 0
M  V30 4816 H 503.922 3.28875 3.71692 0
M  V30 4817 H 499.178 4.68631 3.92677 0
M  V30 4818 H 503.352 5.66606 4.04883 0
M  V30 4819 H 500.979 6.36943 4.14979 0
M  V30 4820 N 502.554 -1.34406 0.822964 0
M  V30 4821 C 503.502 -2.31428 0.233165 0
M  V30 4822 C 504.496 -1.57404 -0.626118 0
M  V30 4823 O 505.702 -1.72402 -0.517453 0
M  V30 4824 H 502.077 -0.749863 0.0566557 0
M  V30 4825 H 504.048 -2.78699 1.06628 0
M  V30 4826 C 502.797 -3.42653 -0.590264 0
M  V30 4827 H 502.12 -3.99753 0.0616129 0
M  V30 4828 H 503.56 -4.12778 -0.969054 0
M  V30 4829 C 502.019 -2.87112 -1.76262 0
M  V30 4830 O 502.549 -2.81995 -2.8608 0
M  V30 4831 N 500.755 -2.43934 -1.57938 0
M  V30 4832 H 500.302 -2.48296 -0.686078 0
M  V30 4833 H 500.26 -2.07123 -2.36532 0
M  V30 4834 N 504.032 -0.577932 -1.46621 0
M  V30 4835 C 504.942 0.160651 -2.34049 0
M  V30 4836 C 505.958 0.890911 -1.49462 0
M  V30 4837 O 507.134 0.855166 -1.82343 0
M  V30 4838 C 504.199 1.16447 -3.26559 0
M  V30 4839 C 503.26 0.4394 -4.27045 0
M  V30 4840 C 502.493 1.3954 -5.15135 0
M  V30 4841 O 502.716 2.63162 -5.06065 0
M  V30 4842 O 501.65 0.908585 -5.95003 0
M  V30 4843 H 505.476 -0.557057 -2.98547 0
M  V30 4844 H 503.061 -0.338369 -1.45518 0
M  V30 4845 H 504.943 1.7434 -3.83645 0
M  V30 4846 H 503.618 1.86373 -2.64663 0
M  V30 4847 H 502.525 -0.181247 -3.73661 0
M  V30 4848 H 503.858 -0.218799 -4.91713 0
M  V30 4849 N 505.51 1.54411 -0.315457 0
M  V30 4850 C 506.457 2.24048 0.554166 0
M  V30 4851 C 507.427 1.2283 1.11812 0
M  V30 4852 O 508.612 1.51491 1.15997 0
M  V30 4853 C 505.752 2.99574 1.71316 0
M  V30 4854 C 504.865 4.15594 1.17922 0
M  V30 4855 C 504 4.78669 2.30324 0
M  V30 4856 C 503.039 5.86807 1.74137 0
M  V30 4857 N 502.176 6.43777 2.8017 0
M  V30 4858 H 507.016 2.97964 -0.0462602 0
M  V30 4859 H 504.553 1.47059 -0.0346009 0
M  V30 4860 H 506.511 3.41604 2.39505 0
M  V30 4861 H 505.141 2.28008 2.285 0
M  V30 4862 H 504.193 3.78404 0.389136 0
M  V30 4863 H 505.505 4.93459 0.728012 0
M  V30 4864 H 504.659 5.23626 3.06433 0
M  V30 4865 H 503.398 4.00168 2.78778 0
M  V30 4866 H 502.403 5.41261 0.965236 0
M  V30 4867 H 503.628 6.67201 1.2657 0
M  V30 4868 H 501.574 5.68153 3.2793 0
M  V30 4869 H 501.491 7.17031 2.39588 0
M  V30 4870 H 502.759 6.9339 3.56132 0
M  V30 4871 N 506.988 0.0434614 1.5754 0
M  V30 4872 C 508.213 -0.645358 1.97104 0
M  V30 4873 C 508.638 -1.64037 0.920521 0
M  V30 4874 O 507.996 -1.80922 -0.11708 0
M  V30 4875 C 508.044 -1.31547 3.35749 0
M  V30 4876 O 507.148 -2.43103 3.33129 0
M  V30 4877 H 506.489 -0.168403 0.64229 0
M  V30 4878 H 509.019 0.109573 2.04306 0
M  V30 4879 H 509.029 -1.66895 3.72304 0
M  V30 4880 H 507.704 -0.586205 4.11748 0
M  V30 4881 H 506.281 -2.0976 3.0831 0
M  V30 4882 N 508.466 -1.55915 -0.229846 0
M  V30 4883 C 509.413 -1.91734 -1.28478 0
M  V30 4884 C 510.383 -0.773539 -1.46988 0
M  V30 4885 O 511.568 -1.02871 -1.60693 0
M  V30 4886 C 508.708 -2.23224 -2.63182 0
M  V30 4887 C 507.821 -3.50497 -2.52539 0
M  V30 4888 C 506.956 -3.71474 -3.79711 0
M  V30 4889 C 505.995 -4.92289 -3.63755 0
M  V30 4890 N 505.132 -5.09698 -4.82858 0
M  V30 4891 H 509.972 -2.81692 -0.972308 0
M  V30 4892 H 507.509 -1.39429 -0.468815 0
M  V30 4893 H 509.467 -2.3949 -3.41614 0
M  V30 4894 H 508.097 -1.36451 -2.92542 0
M  V30 4895 H 507.149 -3.4247 -1.65585 0
M  V30 4896 H 508.461 -4.39079 -2.36666 0
M  V30 4897 H 507.615 -3.87791 -4.66586 0
M  V30 4898 H 506.354 -2.81157 -3.985 0
M  V30 4899 H 505.359 -4.7593 -2.75264 0
M  V30 4900 H 506.584 -5.84083 -3.46445 0
M  V30 4901 H 504.53 -4.22322 -5.01976 0
M  V30 4902 H 504.447 -5.92399 -4.69681 0
M  V30 4903 H 505.715 -5.30443 -5.71183 0
M  V30 4904 N 509.944 0.496216 -1.49584 0
M  V30 4905 C 510.854 1.62352 -1.69349 0
M  V30 4906 C 511.87 1.64184 -0.576147 0
M  V30 4907 O 513.046 1.82517 -0.85144 0
M  V30 4908 C 510.111 2.98698 -1.76013 0
M  V30 4909 C 509.172 3.07454 -2.99617 0
M  V30 4910 C 508.405 4.37296 -3.05953 0
M  V30 4911 O 508.628 5.2637 -2.19752 0
M  V30 4912 O 507.562 4.51124 -3.9846 0
M  V30 4913 H 511.388 1.48606 -2.64859 0
M  V30 4914 H 508.973 0.673022 -1.33382 0
M  V30 4915 H 510.855 3.79725 -1.82721 0
M  V30 4916 H 509.53 3.12696 -0.836828 0
M  V30 4917 H 508.437 2.25597 -2.98424 0
M  V30 4918 H 509.77 2.98385 -3.91443 0
M  V30 4919 N 511.423 1.38739 0.74761 0
M  V30 4920 C 512.353 1.39173 1.87492 0
M  V30 4921 C 513.334 0.256794 1.6815 0
M  V30 4922 O 514.519 0.460762 1.88655 0
M  V30 4923 C 511.649 1.22197 3.25093 0
M  V30 4924 C 510.603 2.32957 3.59047 0
M  V30 4925 C 509.929 2.01082 4.95449 0
M  V30 4926 C 511.229 3.75237 3.6331 0
M  V30 4927 H 512.923 2.3351 1.87386 0
M  V30 4928 H 510.469 1.12399 0.900134 0
M  V30 4929 H 512.422 1.21124 4.03617 0
M  V30 4930 H 511.146 0.243241 3.25693 0
M  V30 4931 H 509.805 2.33226 2.82845 0
M  V30 4932 H 509.453 1.01678 4.92616 0
M  V30 4933 H 509.153 2.75267 5.19136 0
M  V30 4934 H 510.677 2.01638 5.76346 0
M  V30 4935 H 512.091 3.76966 4.31937 0
M  V30 4936 H 510.488 4.48677 3.98509 0
M  V30 4937 H 511.558 4.07122 2.634 0
M  V30 4938 N 512.901 -0.976442 1.23707 0
M  V30 4939 C 514.129 -1.75341 1.09833 0
M  V30 4940 C 514.544 -1.8553 -0.349885 0
M  V30 4941 O 513.901 -1.33732 -1.24185 0
M  V30 4942 C 513.952 -3.17833 1.72233 0
M  V30 4943 O 513.673 -3.08167 3.11391 0
M  V30 4944 C 515.174 -4.11906 1.63853 0
M  V30 4945 H 512.394 -0.550137 0.384175 0
M  V30 4946 H 514.938 -1.2265 1.63638 0
M  V30 4947 H 513.093 -3.67538 1.22452 0
M  V30 4948 H 513.507 -3.97897 3.41729 0
M  V30 4949 H 514.981 -5.09579 2.12211 0
M  V30 4950 H 515.458 -4.35109 0.598092 0
M  V30 4951 H 516.064 -3.68107 2.13019 0
M  V30 4952 N 514.379 -1.04941 -1.1758 0
M  V30 4953 C 515.607 -0.778294 -1.91703 0
M  V30 4954 C 516.022 0.665697 -1.76675 0
M  V30 4955 O 515.379 1.45456 -1.10222 0
M  V30 4956 C 515.43 -1.14628 -3.42845 0
M  V30 4957 O 515.151 -2.53359 -3.57409 0
M  V30 4958 C 516.652 -0.900931 -4.34049 0
M  V30 4959 H 513.872 -0.283167 -0.608323 0
M  V30 4960 H 516.416 -1.39942 -1.49119 0
M  V30 4961 H 514.571 -0.569953 -3.83184 0
M  V30 4962 H 514.985 -2.67709 -4.51035 0
M  V30 4963 H 516.459 -1.20817 -5.38616 0
M  V30 4964 H 516.936 0.163966 -4.38894 0
M  V30 4965 H 517.542 -1.46097 -3.99419 0
M  V30 4966 N 515.857 1.33968 -0.830081 0
M  V30 4967 C 516.767 2.33164 -0.259207 0
M  V30 4968 C 517.783 1.62951 0.610164 0
M  V30 4969 O 518.959 1.94668 0.516369 0
M  V30 4970 C 516.024 3.42088 0.563598 0
M  V30 4971 C 515.085 4.28037 -0.329014 0
M  V30 4972 C 514.318 5.3176 0.454616 0
M  V30 4973 O 514.541 5.44876 1.6872 0
M  V30 4974 O 513.475 6.01669 -0.166794 0
M  V30 4975 H 517.301 2.83832 -1.08041 0
M  V30 4976 H 514.886 1.37154 -0.59239 0
M  V30 4977 H 516.768 4.08581 1.03147 0
M  V30 4978 H 515.443 2.93651 1.36201 0
M  V30 4979 H 514.35 3.64443 -0.844538 0
M  V30 4980 H 515.683 4.79934 -1.09196 0
M  V30 4981 N 517.335 0.585699 1.46312 0
M  V30 4982 C 518.584 0.0701192 2.01578 0
M  V30 4983 C 518.897 -1.29889 1.46247 0
M  V30 4984 O 520.103 -1.90598 1.93351 0
M  V30 4985 C 518.559 0.0747499 3.59822 0
M  V30 4986 C 518.167 1.44226 4.24149 0
M  V30 4987 C 519.911 -0.38673 4.22735 0
M  V30 4988 C 517.818 1.40446 5.74481 0
M  V30 4989 H 516.748 0.0224441 0.753666 0
M  V30 4990 H 519.399 0.737789 1.68015 0
M  V30 4991 H 517.781 -0.659144 3.90476 0
M  V30 4992 H 518.955 2.19612 4.05101 0
M  V30 4993 H 517.27 1.84401 3.73343 0
M  V30 4994 H 519.867 -0.433853 5.32937 0
M  V30 4995 H 520.21 -1.40489 3.91878 0
M  V30 4996 H 520.743 0.293195 3.96718 0
M  V30 4997 H 517.482 2.39952 6.10003 0
M  V30 4998 H 517.002 0.692845 5.95785 0
M  V30 4999 H 518.681 1.11865 6.37256 0
M  V30 5000 N 518.813 -1.54241 0.323641 0
M  V30 5001 C 520.09 -1.92741 -0.333181 0
M  V30 5002 C 520.47 -1.25326 -1.69872 0
M  V30 5003 O 519.818 -0.396991 -2.25025 0
M  V30 5004 C 520.028 -3.46399 -0.425322 0
M  V30 5005 C 521.376 -4.19029 -0.68557 0
M  V30 5006 O 522.4 -3.52555 -0.50824 0
M  V30 5007 O 521.259 -5.36751 -1.02767 0
M  V30 5008 H 518.353 -0.804811 -0.190286 0
M  V30 5009 H 520.899 -1.65542 0.373361 0
M  V30 5010 H 519.671 -3.87643 0.533737 0
M  V30 5011 H 519.294 -3.79704 -1.17944 0
M  V30 5012 N 520.291 -0.0518155 -1.57515 0
M  V30 5013 C 521.239 0.940195 -2.12751 0
M  V30 5014 C 522.233 1.3218 -1.05948 0
M  V30 5015 O 523.439 1.30138 -1.24355 0
M  V30 5016 H 519.814 0.321066 -0.680015 0
M  V30 5017 H 521.785 0.449217 -2.94999 0
M  V30 5018 C 520.534 2.2055 -2.68799 0
M  V30 5019 H 519.857 1.92066 -3.50643 0
M  V30 5020 H 521.297 2.88119 -3.11068 0
M  V30 5021 C 519.756 2.95061 -1.62605 0
M  V30 5022 O 520.286 3.88025 -1.03921 0
M  V30 5023 N 518.492 2.57804 -1.34111 0
M  V30 5024 H 518.039 1.82281 -1.8202 0
M  V30 5025 H 517.997 3.07964 -0.632872 0
M  V30 5026 N 521.769 1.56035 0.221574 0
M  V30 5027 C 522.717 1.93269 1.29421 0
M  V30 5028 C 523.711 0.814727 1.48521 0
M  V30 5029 O 524.917 0.999559 1.49696 0
M  V30 5030 H 521.292 0.614188 0.43391 0
M  V30 5031 H 523.263 2.82773 0.952987 0
M  V30 5032 C 522.012 2.26573 2.63742 0
M  V30 5033 H 521.335 3.12112 2.49853 0
M  V30 5034 H 522.775 2.5651 3.37607 0
M  V30 5035 C 521.234 1.09086 3.1875 0
M  V30 5036 O 521.764 0.351985 4.00155 0
M  V30 5037 N 519.97 0.874693 2.77124 0
M  V30 5038 H 519.517 1.47726 2.11033 0
M  V30 5039 H 519.475 0.0903349 3.1427 0
M  V30 5040 N 523.247 -0.488276 1.49845 0
M  V30 5041 C 524.496 -1.23826 1.59217 0
M  V30 5042 C 524.809 -1.93439 0.289966 0
M  V30 5043 O 526.015 -2.70229 0.262382 0
M  V30 5044 C 524.471 -2.24902 2.80976 0
M  V30 5045 C 524.079 -1.6117 4.18005 0
M  V30 5046 C 525.823 -3.00648 2.99685 0
M  V30 5047 C 523.73 -2.60431 5.3097 0
M  V30 5048 H 522.66 -0.465858 0.592868 0
M  V30 5049 H 525.311 -0.510645 1.76252 0
M  V30 5050 H 523.693 -3.0088 2.57463 0
M  V30 5051 H 524.867 -0.910968 4.51706 0
M  V30 5052 H 523.182 -0.97767 4.0476 0
M  V30 5053 H 525.779 -3.74903 3.81251 0
M  V30 5054 H 526.122 -3.5902 2.10738 0
M  V30 5055 H 526.655 -2.31784 3.23297 0
M  V30 5056 H 523.394 -2.06823 6.22017 0
M  V30 5057 H 522.914 -3.28707 5.01709 0
M  V30 5058 H 524.593 -3.22606 5.60834 0
M  V30 5059 N 524.725 -1.39134 -0.740242 0
M  V30 5060 C 525.635 -1.39697 -1.88473 0
M  V30 5061 C 526.651 -0.292403 -1.71526 0
M  V30 5062 O 527.827 -0.533021 -1.94219 0
M  V30 5063 C 524.892 -1.23382 -3.24003 0
M  V30 5064 C 523.953 -2.43763 -3.53381 0
M  V30 5065 C 523.186 -2.28216 -4.82445 0
M  V30 5066 O 523.409 -1.28288 -5.55786 0
M  V30 5067 O 522.343 -3.1709 -5.11603 0
M  V30 5068 H 526.169 -2.36159 -1.90952 0
M  V30 5069 H 523.754 -1.20194 -0.887346 0
M  V30 5070 H 525.636 -1.16395 -4.05006 0
M  V30 5071 H 524.311 -0.300121 -3.22306 0
M  V30 5072 H 523.218 -2.56325 -2.72485 0
M  V30 5073 H 524.551 -3.35808 -3.59852 0
M  V30 5074 N 526.204 0.969867 -1.24223 0
M  V30 5075 C 527.136 2.0669 -0.99055 0
M  V30 5076 C 528.149 1.62753 0.0392222 0
M  V30 5077 O 529.338 1.77403 -0.197561 0
M  V30 5078 C 526.438 3.35589 -0.472594 0
M  V30 5079 C 525.611 4.08444 -1.56499 0
M  V30 5080 C 524.67 5.15616 -1.05007 0
M  V30 5081 O 523.696 5.41911 -1.7413 0
M  V30 5082 N 524.898 5.80383 0.116641 0
M  V30 5083 H 527.663 2.28855 -1.93508 0
M  V30 5084 H 525.224 1.13733 -1.15223 0
M  V30 5085 H 527.216 4.04542 -0.112919 0
M  V30 5086 H 525.786 3.10311 0.377617 0
M  V30 5087 H 525.006 3.33798 -2.09696 0
M  V30 5088 H 526.294 4.53882 -2.29932 0
M  V30 5089 H 525.692 5.6142 0.694589 0
M  V30 5090 H 524.249 6.50462 0.417483 0
M  V30 5091 N 527.682 1.05563 1.17022 0
M  V30 5092 C 528.931 0.763036 1.8671 0
M  V30 5093 C 529.244 -0.712857 1.82147 0
M  V30 5094 O 530.45 -1.11955 2.47343 0
M  V30 5095 C 528.906 1.31474 3.35026 0
M  V30 5096 C 528.514 2.82034 3.48081 0
M  V30 5097 C 530.258 1.09935 4.10018 0
M  V30 5098 C 528.165 3.30486 4.90442 0
M  V30 5099 H 527.095 0.281747 0.699382 0
M  V30 5100 H 529.746 1.2734 1.32124 0
M  V30 5101 H 528.128 0.732171 3.89173 0
M  V30 5102 H 529.302 3.46178 3.04133 0
M  V30 5103 H 527.617 3.02156 2.86515 0
M  V30 5104 H 530.214 1.43632 5.15048 0
M  V30 5105 H 530.557 0.0373072 4.16283 0
M  V30 5106 H 531.09 1.64732 3.62089 0
M  V30 5107 H 527.829 4.36137 4.89352 0
M  V30 5108 H 527.349 2.71086 5.35044 0
M  V30 5109 H 529.028 3.25382 5.59227 0
M  V30 5110 N 529.16 -1.33526 0.837174 0
M  V30 5111 C 530.385 -2.0258 0.444545 0
M  V30 5112 C 530.81 -1.6258 -0.946006 0
M  V30 5113 O 530.168 -0.817548 -1.6182 0
M  V30 5114 C 530.216 -3.5605 0.571006 0
M  V30 5115 O 529.32 -4.10422 -0.403431 0
M  V30 5116 H 528.661 -0.638866 0.180958 0
M  V30 5117 H 531.191 -1.70462 1.13154 0
M  V30 5118 H 531.201 -4.05488 0.452024 0
M  V30 5119 H 529.876 -3.84509 1.58512 0
M  V30 5120 H 528.453 -3.72113 -0.242147 0
M  V30 5121 N 530.638 -0.59345 -1.46 0
M  V30 5122 C 531.863 -0.0872365 -2.07216 0
M  V30 5123 C 532.288 1.2131 -1.43755 0
M  V30 5124 O 531.646 1.73528 -0.525152 0
M  V30 5125 C 531.694 0.0538197 -3.6056 0
M  V30 5126 O 530.798 1.10765 -3.97247 0
M  V30 5127 H 530.139 -0.0676598 -0.660544 0
M  V30 5128 H 532.669 -0.819445 -1.87473 0
M  V30 5129 H 532.679 0.256567 -4.07193 0
M  V30 5130 H 531.354 -0.895739 -4.0614 0
M  V30 5131 H 529.931 0.882501 -3.62307 0
M  V30 5132 N 532.116 1.54067 -0.331816 0
M  V30 5133 C 533.346 2.04833 0.269605 0
M  V30 5134 C 533.754 1.20714 1.45687 0
M  V30 5135 O 533.097 0.232539 1.82222 0
M  V30 5136 C 533.159 3.51386 0.759499 0
M  V30 5137 C 532.823 4.55971 -0.306557 0
M  V30 5138 C 533.82 5.07126 -1.14538 0
M  V30 5139 C 531.505 5.00216 -0.457116 0
M  V30 5140 C 533.499 6.01096 -2.12042 0
M  V30 5141 C 531.186 5.93999 -1.43556 0
M  V30 5142 C 532.184 6.44326 -2.26568 0
M  V30 5143 O 531.872 7.36267 -3.22749 0
M  V30 5144 H 531.604 0.673509 0.0579763 0
M  V30 5145 H 534.158 1.99748 -0.478521 0
M  V30 5146 H 532.388 3.53896 1.55867 0
M  V30 5147 H 534.077 3.85184 1.28017 0
M  V30 5148 H 534.843 4.73716 -1.04009 0
M  V30 5149 H 530.722 4.60652 0.179142 0
M  V30 5150 H 534.266 6.40302 -2.76873 0
M  V30 5151 H 530.163 6.26825 -1.54146 0
M  V30 5152 H 530.931 7.54165 -3.18083 0
M  V30 5153 N 533.594 0.0601682 1.57485 0
M  V30 5154 C 534.541 -0.91112 2.12055 0
M  V30 5155 C 535.511 -1.30298 1.03013 0
M  V30 5156 O 536.696 -1.39087 1.30612 0
M  V30 5157 C 533.836 -2.1775 2.67729 0
M  V30 5158 C 532.949 -1.83933 3.90887 0
M  V30 5159 C 532.084 -3.05096 4.34845 0
M  V30 5160 C 531.123 -2.67241 5.5068 0
M  V30 5161 N 530.26 -3.81127 5.8965 0
M  V30 5162 H 535.1 -0.43888 2.9475 0
M  V30 5163 H 532.637 -0.204995 1.45665 0
M  V30 5164 H 534.595 -2.91866 2.98111 0
M  V30 5165 H 533.225 -2.62535 1.87816 0
M  V30 5166 H 532.277 -0.999287 3.6704 0
M  V30 5167 H 533.589 -1.52074 4.75052 0
M  V30 5168 H 532.743 -3.87502 4.66827 0
M  V30 5169 H 531.482 -3.40139 3.49509 0
M  V30 5170 H 530.487 -1.83254 5.18361 0
M  V30 5171 H 531.712 -2.3338 6.37738 0
M  V30 5172 H 529.658 -4.15954 5.07266 0
M  V30 5173 H 529.575 -3.52997 6.68528 0
M  V30 5174 H 530.843 -4.64145 6.2625 0
M  V30 5175 N 535.072 -1.5615 -0.213296 0
M  V30 5176 C 536.297 -1.83986 -0.957282 0
M  V30 5177 C 536.722 -0.641526 -1.76822 0
M  V30 5178 O 536.08 0.409722 -1.7661 0
M  V30 5179 C 536.128 -3.09889 -1.84393 0
M  V30 5180 O 535.232 -2.89163 -2.94038 0
M  V30 5181 H 534.573 -0.606357 -0.270605 0
M  V30 5182 H 537.103 -2.03369 -0.224111 0
M  V30 5183 H 537.113 -3.40209 -2.25215 0
M  V30 5184 H 535.788 -3.96735 -1.24795 0
M  V30 5185 H 534.365 -2.70097 -2.57103 0
M  V30 5186 N 536.55 0.480323 -1.50102 0
M  V30 5187 C 537.46 1.60547 -1.71061 0
M  V30 5188 C 538.476 1.63564 -0.593529 0
M  V30 5189 O 539.652 1.81604 -0.870751 0
M  V30 5190 C 536.717 2.96814 -1.79171 0
M  V30 5191 C 535.778 3.04259 -3.02861 0
M  V30 5192 C 535.011 4.34027 -3.10574 0
M  V30 5193 O 535.234 5.24009 -2.25323 0
M  V30 5194 O 534.168 4.46873 -4.03223 0
M  V30 5195 H 537.994 1.45788 -2.6642 0
M  V30 5196 H 535.579 0.658838 -1.34088 0
M  V30 5197 H 537.461 3.77765 -1.86738 0
M  V30 5198 H 536.136 3.11791 -0.869947 0
M  V30 5199 H 535.043 2.22419 -3.008 0
M  V30 5200 H 536.376 2.94216 -3.94586 0
M  V30 5201 N 538.028 1.39524 0.732853 0
M  V30 5202 C 539.277 1.36175 1.48792 0
M  V30 5203 C 539.59 -0.0388195 1.95561 0
M  V30 5204 O 540.796 -0.194899 2.708 0
M  V30 5205 C 539.252 2.39242 2.68871 0
M  V30 5206 C 538.86 3.85024 2.29042 0
M  V30 5207 C 540.604 2.44972 3.46683 0
M  V30 5208 C 538.511 4.79727 3.45856 0
M  V30 5209 H 537.441 0.506267 0.558757 0
M  V30 5210 H 540.092 1.65181 0.799226 0
M  V30 5211 H 538.474 2.0331 3.39825 0
M  V30 5212 H 539.648 4.30008 1.6562 0
M  V30 5213 H 537.963 3.82609 1.64316 0
M  V30 5214 H 540.56 3.12918 4.33574 0
M  V30 5215 H 540.903 1.4749 3.89297 0
M  V30 5216 H 541.436 2.79808 2.82759 0
M  V30 5217 H 538.175 5.78479 3.08289 0
M  V30 5218 H 537.695 4.39421 4.08251 0
M  V30 5219 H 539.374 4.98731 4.12161 0
M  V30 5220 N 539.506 -0.963266 1.24736 0
M  V30 5221 C 540.734 -1.74166 1.11686 0
M  V30 5222 C 541.149 -1.8589 -0.330187 0
M  V30 5223 O 540.506 -1.35042 -1.2276 0
M  V30 5224 C 540.557 -3.15989 1.75595 0
M  V30 5225 O 540.278 -3.04847 3.14642 0
M  V30 5226 C 541.779 -4.10145 1.68213 0
M  V30 5227 H 538.999 -0.546031 0.389989 0
M  V30 5228 H 541.543 -1.20907 1.64929 0
M  V30 5229 H 539.698 -3.66219 1.26343 0
M  V30 5230 H 540.112 -3.9425 3.4593 0
M  V30 5231 H 541.586 -5.07299 2.17604 0
M  V30 5232 H 542.063 -4.3445 0.644208 0
M  V30 5233 H 542.669 -3.65827 2.16912 0
M  V30 5234 N 540.985 -1.06182 -1.16461 0
M  V30 5235 C 541.895 -0.682671 -2.24448 0
M  V30 5236 C 542.911 0.30078 -1.71381 0
M  V30 5237 O 544.087 0.150376 -2.00838 0
M  V30 5238 C 541.152 -0.0737202 -3.46622 0
M  V30 5239 C 540.213 -1.10889 -4.14731 0
M  V30 5240 C 539.446 -0.528908 -5.31073 0
M  V30 5241 O 539.669 0.65868 -5.66584 0
M  V30 5242 O 538.603 -1.26805 -5.88391 0
M  V30 5243 H 542.429 -1.58291 -2.59187 0
M  V30 5244 H 540.014 -0.834013 -1.23954 0
M  V30 5245 H 541.896 0.264192 -4.20571 0
M  V30 5246 H 540.571 0.800015 -3.13658 0
M  V30 5247 H 539.478 -1.49896 -3.42756 0
M  V30 5248 H 540.811 -1.95412 -4.51747 0
M  V30 5249 N 542.463 1.3308 -0.844243 0
M  V30 5250 C 543.393 2.3161 -0.296493 0
M  V30 5251 C 544.374 1.59215 0.598707 0
M  V30 5252 O 545.559 1.87077 0.521134 0
M  V30 5253 C 542.689 3.43313 0.524762 0
M  V30 5254 C 541.643 4.27115 -0.275106 0
M  V30 5255 C 540.969 5.30483 0.670236 0
M  V30 5256 C 542.269 5.00443 -1.49514 0
M  V30 5257 H 543.963 2.77672 -1.11976 0
M  V30 5258 H 541.509 1.33496 -0.539899 0
M  V30 5259 H 543.462 4.11273 0.918298 0
M  V30 5260 H 542.186 2.95952 1.3813 0
M  V30 5261 H 540.845 3.60787 -0.650267 0
M  V30 5262 H 540.493 4.79379 1.52332 0
M  V30 5263 H 540.193 5.87435 0.139123 0
M  V30 5264 H 541.717 6.01308 1.06117 0
M  V30 5265 H 543.131 5.61141 -1.17447 0
M  V30 5266 H 541.528 5.67071 -1.96343 0
M  V30 5267 H 542.598 4.28906 -2.26202 0
M  V30 5268 N 543.941 0.601185 1.45683 0
M  V30 5269 C 545.357 0.264315 1.57396 0
M  V30 5270 C 545.557 -1.23324 1.59353 0
M  V30 5271 O 544.613 -2.01594 1.52039 0
M  V30 5272 C 545.926 0.929839 2.85962 0
M  V30 5273 C 547.474 0.905156 2.99626 0
M  V30 5274 C 547.949 1.55057 4.30954 0
M  V30 5275 N 549.44 1.51576 4.37697 0
M  V30 5276 C 550.175 1.98436 5.37969 0
M  V30 5277 N 549.671 2.53352 6.44813 0
M  V30 5278 N 551.464 1.89242 5.29286 0
M  V30 5279 H 543.615 1.57363 1.42656 0
M  V30 5280 H 545.878 0.658831 0.681649 0
M  V30 5281 H 545.584 1.98404 2.90394 0
M  V30 5282 H 545.458 0.449224 3.74515 0
M  V30 5283 H 547.845 -0.14048 2.94765 0
M  V30 5284 H 547.926 1.42397 2.12501 0
M  V30 5285 H 547.57 2.5955 4.36573 0
M  V30 5286 H 547.5 1.00682 5.16886 0
M  V30 5287 H 549.991 1.11452 3.61091 0
M  V30 5288 H 550.304 2.86918 7.17564 0
M  V30 5289 H 548.649 2.57388 6.45582 0
M  V30 5290 H 551.84 1.46083 4.44722 0
M  V30 5291 H 552.013 2.26075 6.07284 0
M  V30 5292 N 545.419 -1.53889 0.339982 0
M  V30 5293 C 546.835 -1.59595 -0.0120752 0
M  V30 5294 C 547.035 -1.35605 -1.49042 0
M  V30 5295 O 546.091 -1.14856 -2.24865 0
M  V30 5296 C 547.404 -2.9774 0.420898 0
M  V30 5297 C 548.952 -3.1077 0.37294 0
M  V30 5298 C 549.427 -4.51286 0.781327 0
M  V30 5299 N 550.918 -4.57325 0.735374 0
M  V30 5300 C 551.653 -5.64194 1.02336 0
M  V30 5301 N 551.149 -6.7893 1.37933 0
M  V30 5302 N 552.942 -5.54051 0.947838 0
M  V30 5303 H 545.093 -1.67738 1.30299 0
M  V30 5304 H 547.356 -0.785385 0.530918 0
M  V30 5305 H 547.062 -3.20349 1.45152 0
M  V30 5306 H 546.936 -3.76639 -0.205721 0
M  V30 5307 H 549.323 -2.87886 -0.648505 0
M  V30 5308 H 549.404 -2.33939 1.03472 0
M  V30 5309 H 549.048 -4.74905 1.80077 0
M  V30 5310 H 548.978 -5.26511 0.0970679 0
M  V30 5311 H 551.469 -3.74931 0.472773 0
M  V30 5312 H 551.782 -7.56392 1.58402 0
M  V30 5313 H 550.127 -6.80386 1.41774 0
M  V30 5314 H 553.318 -4.63293 0.669115 0
M  V30 5315 H 553.491 -6.37246 1.17563 0
M  V30 5316 N 546.897 -0.0685191 -1.57451 0
M  V30 5317 C 547.845 0.917577 -2.13736 0
M  V30 5318 C 548.839 1.31049 -1.07344 0
M  V30 5319 O 550.045 1.28811 -1.25728 0
M  V30 5320 H 546.42 0.313835 -0.683382 0
M  V30 5321 H 548.391 0.417903 -2.95459 0
M  V30 5322 C 547.14 2.17686 -2.71123 0
M  V30 5323 H 546.463 1.88336 -3.52661 0
M  V30 5324 H 547.903 2.84803 -3.14107 0
M  V30 5325 C 546.362 2.9332 -1.65726 0
M  V30 5326 O 546.892 3.86901 -1.08031 0
M  V30 5327 N 545.098 2.56367 -1.36837 0
M  V30 5328 H 544.645 1.80341 -1.83943 0
M  V30 5329 H 544.603 3.07276 -0.665501 0
M  V30 5330 N 548.375 1.56261 0.205012 0
M  V30 5331 C 549.621 1.80306 0.9283 0
M  V30 5332 C 549.954 0.640932 1.83319 0
M  V30 5333 O 549.229 -0.359032 1.91158 0
M  V30 5334 C 549.512 3.14547 1.75306 0
M  V30 5335 C 549.365 4.41236 0.873562 0
M  V30 5336 C 550.684 3.45382 2.72762 0
M  V30 5337 H 547.803 0.655929 0.336044 0
M  V30 5338 H 550.445 1.88984 0.196211 0
M  V30 5339 H 548.595 3.0728 2.37721 0
M  V30 5340 H 550.267 4.60539 0.264887 0
M  V30 5341 H 548.51 4.33427 0.179773 0
M  V30 5342 H 549.181 5.31639 1.48541 0
M  V30 5343 H 551.657 3.52884 2.20481 0
M  V30 5344 H 550.533 4.40449 3.2756 0
M  V30 5345 H 550.794 2.68377 3.51321 0
M  V30 5346 N 549.853 -0.472356 1.50355 0
M  V30 5347 C 550.785 -1.58795 1.65278 0
M  V30 5348 C 551.798 -1.53782 0.534313 0
M  V30 5349 O 552.987 -1.59193 0.807446 0
M  V30 5350 C 550.087 -2.97672 1.62001 0
M  V30 5351 C 549.26 -3.27568 2.89859 0
M  V30 5352 C 548.319 -4.45993 2.79242 0
M  V30 5353 O 547.345 -4.46364 3.53197 0
M  V30 5354 N 548.547 -5.47578 1.92713 0
M  V30 5355 H 551.312 -1.46411 2.61503 0
M  V30 5356 H 548.873 -0.660751 1.47803 0
M  V30 5357 H 550.865 -3.74862 1.52513 0
M  V30 5358 H 549.435 -3.03832 0.735159 0
M  V30 5359 H 548.655 -2.39003 3.13483 0
M  V30 5360 H 549.943 -3.44352 3.74565 0
M  V30 5361 H 549.341 -5.50099 1.31939 0
M  V30 5362 H 547.898 -6.23757 1.8913 0
M  V30 5363 N 551.331 -1.39911 -0.725443 0
M  V30 5364 C 552.294 -1.39156 -1.82121 0
M  V30 5365 C 553.294 -0.287018 -1.58218 0
M  V30 5366 O 554.484 -0.545421 -1.65441 0
M  V30 5367 C 551.616 -1.1736 -3.20062 0
M  V30 5368 H 552.809 -2.36672 -1.84191 0
M  V30 5369 H 550.362 -1.25615 -0.930079 0
M  V30 5370 H 551.097 -0.205648 -3.23647 0
M  V30 5371 H 550.882 -1.97358 -3.3881 0
M  V30 5372 H 552.372 -1.19596 -4.00108 0
M  V30 5373 N 552.809 0.956637 -1.25245 0
M  V30 5374 C 553.739 2.07058 -1.07931 0
M  V30 5375 C 554.72 1.70096 0.0110361 0
M  V30 5376 O 555.905 1.93555 -0.158121 0
M  V30 5377 C 553.035 3.40272 -0.695124 0
M  V30 5378 C 551.989 3.91235 -1.73549 0
M  V30 5379 C 551.315 5.20921 -1.20604 0
M  V30 5380 C 552.615 4.17837 -3.13385 0
M  V30 5381 H 554.309 2.218 -2.01109 0
M  V30 5382 H 551.855 1.06581 -0.968326 0
M  V30 5383 H 553.808 4.1765 -0.560949 0
M  V30 5384 H 552.532 3.25462 0.272355 0
M  V30 5385 H 551.191 3.16025 -1.85807 0
M  V30 5386 H 550.839 5.02479 -0.228846 0
M  V30 5387 H 550.539 5.55987 -1.90136 0
M  V30 5388 H 552.063 6.00897 -1.08421 0
M  V30 5389 H 553.477 4.8588 -3.04292 0
M  V30 5390 H 551.874 4.64154 -3.80369 0
M  V30 5391 H 552.944 3.2419 -3.60595 0
M  V30 5392 N 554.287 1.06798 1.15896 0
M  V30 5393 C 555.197 0.694564 2.24083 0
M  V30 5394 C 556.213 -0.291687 1.71538 0
M  V30 5395 O 557.389 -0.139723 2.00915 0
M  V30 5396 C 554.454 0.0921014 3.46578 0
M  V30 5397 C 553.515 1.13087 4.14137 0
M  V30 5398 C 552.748 0.557064 5.30785 0
M  V30 5399 O 552.971 -0.628623 5.66925 0
M  V30 5400 O 551.905 1.29924 5.8771 0
M  V30 5401 H 555.731 1.59663 2.58344 0
M  V30 5402 H 553.316 0.840575 1.2351 0
M  V30 5403 H 555.198 -0.241884 4.20705 0
M  V30 5404 H 553.873 -0.78337 3.14078 0
M  V30 5405 H 552.78 1.51712 3.41957 0
M  V30 5406 H 554.113 1.97805 4.50704 0
M  V30 5407 N 555.766 -1.3263 0.851289 0
M  V30 5408 C 557.015 -1.96633 0.449267 0
M  V30 5409 C 557.328 -1.68131 -0.999562 0
M  V30 5410 O 558.534 -2.25845 -1.50685 0
M  V30 5411 C 556.99 -3.51946 0.752446 0
M  V30 5412 C 556.598 -3.89311 2.21678 0
M  V30 5413 C 558.342 -4.22437 0.417983 0
M  V30 5414 C 556.249 -5.37655 2.46336 0
M  V30 5415 H 555.179 -0.735888 0.164269 0
M  V30 5416 H 557.83 -1.51073 1.0416 0
M  V30 5417 H 556.212 -3.95899 0.0895858 0
M  V30 5418 H 557.386 -3.56378 2.92115 0
M  V30 5419 H 555.701 -3.31836 2.51543 0
M  V30 5420 H 558.298 -5.31549 0.579674 0
M  V30 5421 H 558.641 -4.11349 -0.640115 0
M  V30 5422 H 559.174 -3.84057 1.03659 0
M  V30 5423 H 555.913 -5.5376 3.50757 0
M  V30 5424 H 555.433 -5.72005 1.80473 0
M  V30 5425 H 557.112 -6.04695 2.30115 0
M  V30 5426 N 557.244 -0.608902 -1.45362 0
M  V30 5427 C 558.154 0.110969 -2.34337 0
M  V30 5428 C 559.17 0.859007 -1.51318 0
M  V30 5429 O 560.346 0.816296 -1.84116 0
M  V30 5430 C 557.411 1.09494 -3.28956 0
M  V30 5431 C 556.472 0.348718 -4.27881 0
M  V30 5432 C 555.705 1.28582 -5.17979 0
M  V30 5433 O 555.928 2.52369 -5.11533 0
M  V30 5434 O 554.862 0.782172 -5.96796 0
M  V30 5435 H 558.688 -0.620258 -2.97299 0
M  V30 5436 H 556.273 -0.36916 -1.44767 0
M  V30 5437 H 558.155 1.66163 -3.87257 0
M  V30 5438 H 556.83 1.80717 -2.68557 0
M  V30 5439 H 555.737 -0.260465 -3.73192 0
M  V30 5440 H 557.07 -0.323049 -4.91139 0
M  V30 5441 N 558.722 1.53707 -0.348139 0
M  V30 5442 C 559.652 2.28111 0.498766 0
M  V30 5443 C 560.633 1.29851 1.09876 0
M  V30 5444 O 561.818 1.587 1.11928 0
M  V30 5445 C 558.948 3.05735 1.64753 0
M  V30 5446 C 557.902 4.11537 1.17565 0
M  V30 5447 C 557.228 4.77142 2.4133 0
M  V30 5448 C 558.528 5.21587 0.272844 0
M  V30 5449 H 560.222 2.99152 -0.121934 0
M  V30 5450 H 557.768 1.43875 -0.0600842 0
M  V30 5451 H 559.721 3.56526 2.24649 0
M  V30 5452 H 558.445 2.32354 2.2952 0
M  V30 5453 H 557.104 3.61665 0.599483 0
M  V30 5454 H 556.752 4.0035 3.04514 0
M  V30 5455 H 556.452 5.48626 2.10436 0
M  V30 5456 H 557.976 5.30719 3.01943 0
M  V30 5457 H 559.39 5.67986 0.778779 0
M  V30 5458 H 557.787 6.00074 0.0555849 0
M  V30 5459 H 558.857 4.79969 -0.689785 0
M  V30 5460 N 560.2 0.0768682 1.57412 0
M  V30 5461 C 561.132 -0.918248 2.10002 0
M  V30 5462 C 562.145 -1.25808 1.03325 0
M  V30 5463 O 563.334 -1.21438 1.30824 0
M  V30 5464 C 560.434 -2.23263 2.54964 0
M  V30 5465 C 559.607 -2.07088 3.8527 0
M  V30 5466 C 558.666 -3.21876 4.16272 0
M  V30 5467 O 557.692 -2.96643 4.8579 0
M  V30 5468 N 558.894 -4.4712 3.70221 0
M  V30 5469 H 561.659 -0.469209 2.96004 0
M  V30 5470 H 559.22 -0.108725 1.61535 0
M  V30 5471 H 561.212 -2.9897 2.72762 0
M  V30 5472 H 559.782 -2.59649 1.74072 0
M  V30 5473 H 559.002 -1.15818 3.76802 0
M  V30 5474 H 560.29 -1.93537 4.70554 0
M  V30 5475 H 559.688 -4.70506 3.1407 0
M  V30 5476 H 558.245 -5.19837 3.93209 0
M  V30 5477 N 561.678 -1.56367 -0.196722 0
M  V30 5478 C 562.903 -1.84991 -0.937714 0
M  V30 5479 C 563.328 -0.660244 -1.76132 0
M  V30 5480 O 562.686 0.390967 -1.77034 0
M  V30 5481 C 562.734 -3.11828 -1.81096 0
M  V30 5482 O 561.838 -2.92266 -2.90955 0
M  V30 5483 H 561.179 -0.609193 -0.264159 0
M  V30 5484 H 563.709 -2.03595 -0.202529 0
M  V30 5485 H 563.719 -3.42579 -2.21594 0
M  V30 5486 H 562.394 -3.98037 -1.2058 0
M  V30 5487 H 560.971 -2.72809 -2.54224 0
M  V30 5488 N 563.156 0.464375 -1.50603 0
M  V30 5489 C 564.088 1.57916 -1.66118 0
M  V30 5490 C 565.101 1.53497 -0.54246 0
M  V30 5491 O 566.29 1.58763 -0.815877 0
M  V30 5492 C 563.39 2.96809 -1.63577 0
M  V30 5493 C 562.563 3.26026 -2.91592 0
M  V30 5494 C 561.622 4.44506 -2.81604 0
M  V30 5495 O 560.648 4.44484 -3.55559 0
M  V30 5496 N 561.85 5.46549 -1.95614 0
M  V30 5497 H 564.615 1.45022 -2.62276 0
M  V30 5498 H 562.176 0.652903 -1.48151 0
M  V30 5499 H 564.168 3.74048 -1.54499 0
M  V30 5500 H 562.738 3.03438 -0.751262 0
M  V30 5501 H 561.958 2.37337 -3.14746 0
M  V30 5502 H 563.246 3.42361 -3.76386 0
M  V30 5503 H 562.644 5.49391 -1.34854 0
M  V30 5504 H 561.201 6.22746 -1.92435 0
M  V30 5505 N 564.634 1.40294 0.718013 0
M  V30 5506 C 565.564 1.43118 1.84498 0
M  V30 5507 C 566.545 0.292403 1.67568 0
M  V30 5508 O 567.73 0.500675 1.87635 0
M  V30 5509 C 564.86 1.29065 3.22427 0
M  V30 5510 C 563.814 2.40521 3.54025 0
M  V30 5511 C 563.14 2.11546 4.91073 0
M  V30 5512 C 564.44 3.82859 3.55269 0
M  V30 5513 H 566.134 2.37432 1.82391 0
M  V30 5514 H 563.68 1.14283 0.87609 0
M  V30 5515 H 565.633 1.29658 4.00957 0
M  V30 5516 H 564.357 0.312271 3.25104 0
M  V30 5517 H 563.016 2.39173 2.77834 0
M  V30 5518 H 562.664 1.12104 4.90348 0
M  V30 5519 H 562.364 2.86216 5.1318 0
M  V30 5520 H 563.888 2.13817 5.71939 0
M  V30 5521 H 565.302 3.86044 4.23843 0
M  V30 5522 H 563.699 4.57029 3.88902 0
M  V30 5523 H 564.769 4.12617 2.54706 0
M  V30 5524 N 566.112 -0.949982 1.2575 0
M  V30 5525 C 567.075 -2.02894 1.06615 0
M  V30 5526 C 568.075 -1.60791 0.0173905 0
M  V30 5527 O 569.265 -1.72249 0.260003 0
M  V30 5528 C 566.397 -3.35219 0.619751 0
M  V30 5529 H 567.59 -2.21302 2.02399 0
M  V30 5530 H 565.143 -1.12772 1.08223 0
M  V30 5531 H 565.878 -3.22508 -0.340486 0
M  V30 5532 H 565.663 -3.67129 1.37692 0
M  V30 5533 H 567.153 -4.14505 0.507443 0
M  V30 5534 N 567.59 -1.07411 -1.15328 0
M  V30 5535 C 568.52 -0.716472 -2.22236 0
M  V30 5536 C 569.501 0.296373 -1.67498 0
M  V30 5537 O 570.686 0.168989 -1.93463 0
M  V30 5538 C 567.816 -0.114142 -3.47112 0
M  V30 5539 C 566.77 -1.05421 -4.14814 0
M  V30 5540 C 566.096 -0.314604 -5.33774 0
M  V30 5541 C 567.396 -2.38808 -4.64508 0
M  V30 5542 H 569.09 -1.61029 -2.52408 0
M  V30 5543 H 566.636 -0.775702 -1.21321 0
M  V30 5544 H 568.589 0.148001 -4.2114 0
M  V30 5545 H 567.313 0.814755 -3.16274 0
M  V30 5546 H 565.972 -1.30128 -3.42728 0
M  V30 5547 H 565.62 0.617772 -4.99192 0
M  V30 5548 H 565.32 -0.941209 -5.80013 0
M  V30 5549 H 566.844 -0.0602747 -6.1057 0
M  V30 5550 H 568.258 -2.18424 -5.3006 0
M  V30 5551 H 566.655 -2.97069 -5.21412 0
M  V30 5552 H 567.725 -3.01067 -3.80114 0
M  V30 5553 N 569.068 1.32177 -0.85831 0
M  V30 5554 C 570.015 2.28794 -0.303607 0
M  V30 5555 C 570.985 1.55213 0.591453 0
M  V30 5556 O 572.17 1.83418 0.525585 0
M  V30 5557 C 569.31 3.41475 0.49889 0
M  V30 5558 C 568.423 4.2993 -0.422373 0
M  V30 5559 C 567.558 5.29743 0.393111 0
M  V30 5560 C 566.597 6.09842 -0.525317 0
M  V30 5561 N 565.734 7.01643 0.253208 0
M  V30 5562 H 570.574 2.75631 -1.13276 0
M  V30 5563 H 568.111 1.35606 -0.570026 0
M  V30 5564 H 570.069 4.05531 0.979826 0
M  V30 5565 H 568.699 2.95779 1.29284 0
M  V30 5566 H 567.751 3.66422 -1.02171 0
M  V30 5567 H 569.063 4.85899 -1.12709 0
M  V30 5568 H 568.217 5.9942 0.937056 0
M  V30 5569 H 566.956 4.744 1.13117 0
M  V30 5570 H 565.961 5.39066 -1.08112 0
M  V30 5571 H 567.186 6.6727 -1.26205 0
M  V30 5572 H 565.132 6.48725 0.974295 0
M  V30 5573 H 565.049 7.54981 -0.392398 0
M  V30 5574 H 566.317 7.756 0.778761 0
M  V30 5575 N 570.547 0.616602 1.45037 0
M  V30 5576 C 571.479 -0.135186 2.28801 0
M  V30 5577 C 572.492 -0.82303 1.40464 0
M  V30 5578 O 573.681 -0.686909 1.64754 0
M  V30 5579 C 570.781 -1.21292 3.16451 0
M  V30 5580 C 569.954 -0.61043 4.3312 0
M  V30 5581 C 569.013 -1.58022 5.01912 0
M  V30 5582 O 568.039 -1.10301 5.58411 0
M  V30 5583 N 569.241 -2.91464 5.02025 0
M  V30 5584 H 572.006 0.583612 2.93963 0
M  V30 5585 H 569.567 0.456723 1.55324 0
M  V30 5586 H 571.559 -1.86169 3.59337 0
M  V30 5587 H 570.129 -1.83412 2.53138 0
M  V30 5588 H 569.349 0.216638 3.93604 0
M  V30 5589 H 570.637 -0.188293 5.08451 0
M  V30 5590 H 570.035 -3.32829 4.57429 0
M  V30 5591 H 568.592 -3.51741 5.48745 0
M  V30 5592 N 572.025 -1.5352 0.356285 0
M  V30 5593 C 573.25 -2.06007 -0.239961 0
M  V30 5594 C 573.675 -1.22872 -1.42422 0
M  V30 5595 O 573.033 -0.245516 -1.7963 0
M  V30 5596 C 573.081 -3.5522 -0.620587 0
M  V30 5597 O 572.185 -3.74864 -1.71902 0
M  V30 5598 H 571.526 -0.662961 -0.0371377 0
M  V30 5599 H 574.056 -1.98033 0.514194 0
M  V30 5600 H 574.066 -3.98081 -0.894197 0
M  V30 5601 H 572.741 -4.15175 0.245407 0
M  V30 5602 H 571.318 -3.43904 -1.44169 0
M  V30 5603 N 573.503 -0.0852151 -1.57369 0
M  V30 5604 C 574.433 0.874556 -2.16503 0
M  V30 5605 C 575.414 1.30111 -1.09568 0
M  V30 5606 O 576.599 1.36977 -1.37662 0
M  V30 5607 C 573.729 2.13731 -2.73745 0
M  V30 5608 C 572.683 1.84971 -3.85966 0
M  V30 5609 C 572.009 3.17991 -4.29867 0
M  V30 5610 C 573.309 1.14442 -5.09608 0
M  V30 5611 H 575.003 0.381899 -2.96954 0
M  V30 5612 H 572.549 0.18225 -1.42842 0
M  V30 5613 H 574.502 2.81302 -3.13763 0
M  V30 5614 H 573.226 2.65263 -1.90534 0
M  V30 5615 H 571.885 1.19801 -3.46473 0
M  V30 5616 H 571.533 3.6739 -3.4356 0
M  V30 5617 H 571.233 2.99534 -5.05523 0
M  V30 5618 H 572.757 3.86737 -4.72511 0
M  V30 5619 H 574.171 1.72105 -5.46857 0
M  V30 5620 H 572.568 1.06197 -5.90629 0
M  V30 5621 H 573.638 0.12559 -4.84737 0
M  V30 5622 N 574.981 1.5647 0.188427 0
M  V30 5623 C 575.891 1.98285 1.2538 0
M  V30 5624 C 576.907 0.891535 1.49424 0
M  V30 5625 O 578.083 1.19782 1.61908 0
M  V30 5626 C 575.148 2.31965 2.57669 0
M  V30 5627 C 574.209 3.54838 2.41638 0
M  V30 5628 C 573.442 3.86901 3.67618 0
M  V30 5629 O 573.665 3.20163 4.72072 0
M  V30 5630 O 572.599 4.80309 3.62749 0
M  V30 5631 H 576.425 2.89145 0.928912 0
M  V30 5632 H 574.01 1.44112 0.393955 0
M  V30 5633 H 575.892 2.54673 3.35737 0
M  V30 5634 H 574.567 1.44271 2.89771 0
M  V30 5635 H 573.474 3.37369 1.61658 0
M  V30 5636 H 574.807 4.43019 2.14465 0
M  V30 5637 N 576.459 -0.456382 1.50847 0
M  V30 5638 C 577.422 -1.53493 1.70213 0
M  V30 5639 C 578.422 -1.50264 0.572481 0
M  V30 5640 O 579.612 -1.52623 0.839751 0
M  V30 5641 C 576.744 -2.93091 1.741 0
M  V30 5642 H 577.937 -1.37633 2.66453 0
M  V30 5643 H 575.49 -0.683776 1.4055 0
M  V30 5644 H 576.225 -3.14378 0.796063 0
M  V30 5645 H 576.01 -2.9684 2.5618 0
M  V30 5646 H 577.5 -3.71368 1.90987 0
M  V30 5647 N 577.937 -1.40673 -0.710563 0
M  V30 5648 C 579.162 -1.42741 -1.50465 0
M  V30 5649 C 579.587 -0.0302116 -1.88076 0
M  V30 5650 O 578.945 0.962945 -1.53613 0
M  V30 5651 C 578.993 -2.32873 -2.75322 0
M  V30 5652 O 578.097 -1.77544 -3.72226 0
M  V30 5653 H 577.438 -0.485056 -0.45345 0
M  V30 5654 H 579.968 -1.84961 -0.874681 0
M  V30 5655 H 579.978 -2.48233 -3.23797 0
M  V30 5656 H 578.653 -3.34401 -2.47283 0
M  V30 5657 H 577.23 -1.71556 -3.31093 0
M  V30 5658 N 579.415 0.9433 -1.26252 0
M  V30 5659 C 580.345 2.05902 -1.10122 0
M  V30 5660 C 581.326 1.70099 -0.00700552 0
M  V30 5661 O 582.511 1.93377 -0.178641 0
M  V30 5662 C 579.641 3.39516 -0.731175 0
M  V30 5663 C 578.595 3.89372 -1.77688 0
M  V30 5664 C 577.921 5.19613 -1.26122 0
M  V30 5665 C 579.221 4.14489 -3.17799 0
M  V30 5666 H 580.915 2.19655 -2.03451 0
M  V30 5667 H 578.461 1.05548 -0.979576 0
M  V30 5668 H 580.414 4.17031 -0.605215 0
M  V30 5669 H 579.138 3.25733 0.23782 0
M  V30 5670 H 577.797 3.14036 -1.89148 0
M  V30 5671 H 577.445 5.02208 -0.282128 0
M  V30 5672 H 577.145 5.53939 -1.96023 0
M  V30 5673 H 578.669 5.99713 -1.14789 0
M  V30 5674 H 580.083 4.82625 -3.09428 0
M  V30 5675 H 578.48 4.60094 -3.85271 0
M  V30 5676 H 579.55 3.20347 -3.64014 0
M  V30 5677 N 580.893 1.08022 1.14757 0
M  V30 5678 C 581.856 0.71048 2.1791 0
M  V30 5679 C 582.856 -0.252731 1.58801 0
M  V30 5680 O 584.046 -0.0327915 1.74169 0
M  V30 5681 C 581.178 0.0483203 3.40866 0
M  V30 5682 H 582.371 1.62384 2.52134 0
M  V30 5683 H 579.924 0.877595 1.29337 0
M  V30 5684 H 580.659 -0.876959 3.12218 0
M  V30 5685 H 580.444 0.741189 3.85031 0
M  V30 5686 H 581.934 -0.195471 4.17142 0
M  V30 5687 N 582.371 -1.3172 0.865308 0
M  V30 5688 C 583.281 -2.32394 0.320935 0
M  V30 5689 C 584.297 -1.64511 -0.566746 0
M  V30 5690 O 585.473 -1.95969 -0.464575 0
M  V30 5691 C 582.538 -3.43462 -0.472701 0
M  V30 5692 C 581.599 -4.27015 0.442385 0
M  V30 5693 C 580.832 -5.32779 -0.313469 0
M  V30 5694 O 581.055 -5.49158 -1.54214 0
M  V30 5695 O 579.989 -6.01015 0.326257 0
M  V30 5696 H 583.815 -2.80868 1.15528 0
M  V30 5697 H 581.4 -1.35535 0.628545 0
M  V30 5698 H 583.282 -4.11172 -0.922781 0
M  V30 5699 H 581.957 -2.97159 -1.28367 0
M  V30 5700 H 580.864 -3.62075 0.940866 0
M  V30 5701 H 582.197 -4.76871 1.21882 0
M  V30 5702 N 583.85 -0.624285 -1.44708 0
M  V30 5703 C 585.077 -0.132919 -2.06473 0
M  V30 5704 C 585.493 1.18967 -1.46602 0
M  V30 5705 O 584.85 1.72824 -0.586341 0
M  V30 5706 C 584.901 -0.00465418 -3.615 0
M  V30 5707 O 584.622 -1.27494 -4.19138 0
M  V30 5708 C 586.123 0.516213 -4.40284 0
M  V30 5709 H 583.343 -0.0765201 -0.666623 0
M  V30 5710 H 585.887 -0.856751 -1.85688 0
M  V30 5711 H 584.042 0.669583 -3.8157 0
M  V30 5712 H 584.456 -1.11536 -5.12504 0
M  V30 5713 H 585.93 0.554994 -5.49203 0
M  V30 5714 H 586.407 1.5419 -4.11245 0
M  V30 5715 H 587.013 -0.124542 -4.25118 0
M  V30 5716 N 585.328 1.53329 -0.364422 0
M  V30 5717 C 586.238 2.29414 0.490552 0
M  V30 5718 C 587.254 1.35335 1.09363 0
M  V30 5719 O 588.43 1.68391 1.10483 0
M  V30 5720 C 585.495 3.06772 1.61529 0
M  V30 5721 C 584.556 4.16516 1.03986 0
M  V30 5722 C 583.789 4.90176 2.111 0
M  V30 5723 O 584.012 4.63687 3.32191 0
M  V30 5724 O 582.946 5.76134 1.74222 0
M  V30 5725 H 586.772 3.03428 -0.12856 0
M  V30 5726 H 584.357 1.48843 -0.128837 0
M  V30 5727 H 586.239 3.55082 2.26924 0
M  V30 5728 H 584.914 2.35596 2.21983 0
M  V30 5729 H 583.821 3.7246 0.349856 0
M  V30 5730 H 585.154 4.89855 0.4799 0
M  V30 5731 N 586.806 0.0935595 1.57322 0
M  V30 5732 C 588.054 -0.569383 1.93913 0
M  V30 5733 C 588.375 -1.68817 0.976009 0
M  V30 5734 O 587.645 -1.9588 0.0278099 0
M  V30 5735 H 586.225 -0.21332 0.715894 0
M  V30 5736 H 588.887 0.156531 1.9427 0
M  V30 5737 H 587.983 -0.980577 2.96296 0
M  V30 5738 N 588.284 -1.56567 -0.180126 0
M  V30 5739 C 589.7 -1.50488 -0.531559 0
M  V30 5740 C 589.9 -0.796267 -1.851 0
M  V30 5741 O 588.956 -0.352978 -2.50021 0
M  V30 5742 C 590.269 -2.95201 -0.572456 0
M  V30 5743 C 591.817 -3.05957 -0.660264 0
M  V30 5744 C 592.292 -4.5211 -0.732135 0
M  V30 5745 N 593.783 -4.56322 -0.795262 0
M  V30 5746 C 594.518 -5.66742 -0.871296 0
M  V30 5747 N 594.014 -6.86815 -0.908708 0
M  V30 5748 N 595.807 -5.54691 -0.909639 0
M  V30 5749 H 587.958 -2.01045 0.685165 0
M  V30 5750 H 590.221 -0.915536 0.245962 0
M  V30 5751 H 589.927 -3.50165 0.328208 0
M  V30 5752 H 589.801 -3.49369 -1.422 0
M  V30 5753 H 592.188 -2.51032 -1.55136 0
M  V30 5754 H 592.269 -2.54888 0.215783 0
M  V30 5755 H 591.913 -5.07664 0.154664 0
M  V30 5756 H 591.843 -5.00926 -1.6242 0
M  V30 5757 H 594.334 -3.69868 -0.77499 0
M  V30 5758 H 594.647 -7.66718 -0.967654 0
M  V30 5759 H 592.992 -6.89443 -0.877132 0
M  V30 5760 H 596.183 -4.59804 -0.877353 0
M  V30 5761 H 596.356 -6.40768 -0.965434 0
M  V30 5762 N 589.762 0.448376 -1.51087 0
M  V30 5763 C 590.992 1.21965 -1.66757 0
M  V30 5764 C 591.4 1.85748 -0.359753 0
M  V30 5765 O 590.743 1.71022 0.670604 0
M  V30 5766 C 590.805 2.35284 -2.71812 0
M  V30 5767 C 590.469 1.91957 -4.1473 0
M  V30 5768 C 591.466 1.42921 -4.9987 0
M  V30 5769 C 589.151 1.99985 -4.60772 0
M  V30 5770 C 591.145 1.02485 -6.29107 0
M  V30 5771 C 588.832 1.5916 -5.90009 0
M  V30 5772 C 589.83 1.10491 -6.74004 0
M  V30 5773 O 589.518 0.702413 -8.00825 0
M  V30 5774 H 589.25 0.374125 -0.563034 0
M  V30 5775 H 591.804 0.538927 -1.98204 0
M  V30 5776 H 590.034 3.06599 -2.35657 0
M  V30 5777 H 591.723 2.97184 -2.76472 0
M  V30 5778 H 592.489 1.36123 -4.65506 0
M  V30 5779 H 588.368 2.36814 -3.95525 0
M  V30 5780 H 591.912 0.644271 -6.94619 0
M  V30 5781 H 587.809 1.65626 -6.2389 0
M  V30 5782 H 588.577 0.829248 -8.14288 0
M  V30 5783 N 591.24 1.41047 0.703093 0
M  V30 5784 C 592.48 1.41461 1.4754 0
M  V30 5785 C 592.844 0.0199013 1.9199 0
M  V30 5786 O 594.045 -0.101138 2.6861 0
M  V30 5787 C 592.316 2.38703 2.66 0
M  V30 5788 S 593.875 2.57582 3.55242 0
M  V30 5789 H 590.693 0.501226 0.504275 0
M  V30 5790 H 593.295 1.77422 0.821074 0
M  V30 5791 H 591.999 3.3885 2.31536 0
M  V30 5792 H 591.53 2.04069 3.36333 0
M  V30 5793 H 593.545 1.83758 4.6092 0
M  V30 5794 N 592.718 -0.936591 1.26751 0
M  V30 5795 C 593.964 -1.6858 1.12733 0
M  V30 5796 C 594.297 -1.91414 -0.327745 0
M  V30 5797 O 593.572 -1.49812 -1.24043 0
M  V30 5798 C 593.855 -3.05779 1.90187 0
M  V30 5799 C 593.708 -2.90242 3.43627 0
M  V30 5800 C 595.027 -4.0597 1.69931 0
M  V30 5801 H 592.146 -0.61182 0.410908 0
M  V30 5802 H 594.788 -1.08747 1.55801 0
M  V30 5803 H 592.938 -3.56853 1.53584 0
M  V30 5804 H 594.61 -2.46354 3.9001 0
M  V30 5805 H 592.853 -2.2577 3.70419 0
M  V30 5806 H 593.524 -3.87572 3.93055 0
M  V30 5807 H 596 -3.63874 2.0183 0
M  V30 5808 H 594.876 -4.99974 2.26534 0
M  V30 5809 H 595.137 -4.37369 0.64502 0
M  V30 5810 N 594.196 -1.08629 -1.14182 0
M  V30 5811 C 595.128 -0.676189 -2.18998 0
M  V30 5812 C 596.141 0.277871 -1.60411 0
M  V30 5813 O 597.33 0.0651771 -1.78381 0
M  V30 5814 C 594.43 0.0254916 -3.3889 0
M  V30 5815 C 593.603 -0.948039 -4.27002 0
M  V30 5816 C 592.662 -0.281268 -5.25448 0
M  V30 5817 O 591.688 -0.926378 -5.61611 0
M  V30 5818 N 592.89 0.967923 -5.72374 0
M  V30 5819 H 595.655 -1.57792 -2.54798 0
M  V30 5820 H 593.216 -0.972665 -1.29425 0
M  V30 5821 H 595.208 0.482554 -4.01813 0
M  V30 5822 H 593.778 0.829348 -3.01398 0
M  V30 5823 H 592.998 -1.58388 -3.6098 0
M  V30 5824 H 594.286 -1.60765 -4.82734 0
M  V30 5825 H 593.684 1.51175 -5.45126 0
M  V30 5826 H 592.241 1.36844 -6.37273 0
M  V30 5827 N 595.674 1.31259 -0.872281 0
M  V30 5828 C 596.604 2.30929 -0.345554 0
M  V30 5829 C 597.585 1.60449 0.5648 0
M  V30 5830 O 598.77 1.8814 0.481335 0
M  V30 5831 C 595.9 3.44348 0.451823 0
M  V30 5832 C 594.854 4.26435 -0.365641 0
M  V30 5833 C 594.18 5.31785 0.557562 0
M  V30 5834 C 595.48 4.97159 -1.60095 0
M  V30 5835 H 597.174 2.75234 -1.17841 0
M  V30 5836 H 594.72 1.3232 -0.568094 0
M  V30 5837 H 596.673 4.13128 0.830854 0
M  V30 5838 H 595.397 2.98816 1.31821 0
M  V30 5839 H 594.056 3.59326 -0.726649 0
M  V30 5840 H 593.704 4.82502 1.4213 0
M  V30 5841 H 593.404 5.87598 0.0144878 0
M  V30 5842 H 594.928 6.03424 0.933387 0
M  V30 5843 H 596.342 5.58523 -1.29323 0
M  V30 5844 H 594.739 5.62779 -2.08327 0
M  V30 5845 H 595.809 4.24012 -2.35249 0
M  V30 5846 N 597.152 0.631951 1.44375 0
M  V30 5847 C 598.377 0.142146 2.06912 0
M  V30 5848 C 598.802 -1.17456 1.4692 0
M  V30 5849 O 598.16 -1.72074 0.570975 0
M  V30 5850 C 598.208 0.0417952 3.60576 0
M  V30 5851 O 597.312 -1.00194 4.00044 0
M  V30 5852 H 596.653 0.0851491 0.658518 0
M  V30 5853 H 599.183 0.868863 1.85235 0
M  V30 5854 H 599.193 -0.148517 4.0773 0
M  V30 5855 H 597.868 1.0031 4.03622 0
M  V30 5856 H 596.445 -0.786131 3.64519 0
M  V30 5857 N 598.631 -1.53133 0.372548 0
M  V30 5858 C 599.563 -2.23557 -0.505444 0
M  V30 5859 C 600.576 -1.25211 -1.04049 0
M  V30 5860 O 601.765 -1.51391 -0.945675 0
M  V30 5861 C 598.865 -2.92516 -1.71136 0
M  V30 5862 C 598.038 -4.17428 -1.30661 0
M  V30 5863 C 597.097 -4.69535 -2.37536 0
M  V30 5864 O 596.123 -5.33042 -1.99637 0
M  V30 5865 N 597.325 -4.47947 -3.6922 0
M  V30 5866 H 600.09 -2.9954 0.0978259 0
M  V30 5867 H 597.651 -1.60684 0.198068 0
M  V30 5868 H 599.643 -3.24281 -2.42124 0
M  V30 5869 H 598.213 -2.19944 -2.22134 0
M  V30 5870 H 597.433 -3.91888 -0.426292 0
M  V30 5871 H 598.721 -4.98622 -1.01259 0
M  V30 5872 H 598.119 -3.97219 -4.02783 0
M  V30 5873 H 596.676 -4.84245 -4.36292 0
M  V30 5874 N 600.109 -0.101901 -1.5727 0
M  V30 5875 C 601.358 0.559922 -1.93772 0
M  V30 5876 C 601.671 1.68913 -0.98629 0
M  V30 5877 O 602.877 2.41256 -1.24529 0
M  V30 5878 C 601.333 1.04739 -3.44322 0
M  V30 5879 C 600.941 -0.05243 -4.47969 0
M  V30 5880 C 602.685 1.68157 -3.89774 0
M  V30 5881 C 600.592 0.450781 -5.8968 0
M  V30 5882 H 599.522 0.212931 -0.723309 0
M  V30 5883 H 602.173 -0.179001 -1.82625 0
M  V30 5884 H 600.555 1.84021 -3.50645 0
M  V30 5885 H 601.729 -0.828157 -4.53297 0
M  V30 5886 H 600.044 -0.592202 -4.12167 0
M  V30 5887 H 602.641 2.0689 -4.93052 0
M  V30 5888 H 602.984 2.55338 -3.28798 0
M  V30 5889 H 603.517 0.954453 -3.8618 0
M  V30 5890 H 600.256 -0.38458 -6.54371 0
M  V30 5891 H 599.776 1.19336 -5.87809 0
M  V30 5892 H 601.455 0.917555 -6.40461 0
M  V30 5893 N 601.587 1.56661 0.17182 0
M  V30 5894 C 602.519 1.92934 1.2373 0
M  V30 5895 C 603.532 0.822385 1.40502 0
M  V30 5896 O 604.721 1.10083 1.40514 0
M  V30 5897 C 601.821 2.16651 2.60607 0
M  V30 5898 C 600.994 3.47878 2.6514 0
M  V30 5899 C 600.053 3.60429 3.83377 0
M  V30 5900 O 599.079 4.33051 3.69398 0
M  V30 5901 N 600.281 2.95241 4.99813 0
M  V30 5902 H 603.046 2.84931 0.929205 0
M  V30 5903 H 600.607 1.5781 0.361588 0
M  V30 5904 H 602.599 2.22312 3.38171 0
M  V30 5905 H 601.169 1.3104 2.83809 0
M  V30 5906 H 600.389 3.53879 1.73675 0
M  V30 5907 H 601.677 4.34232 2.6518 0
M  V30 5908 H 601.075 2.3611 5.14071 0
M  V30 5909 H 599.632 3.06499 5.75241 0
M  V30 5910 N 603.065 -0.440357 1.51323 0
M  V30 5911 C 604.028 -1.51679 1.71832 0
M  V30 5912 C 605.028 -1.49648 0.588386 0
M  V30 5913 O 606.218 -1.51724 0.855891 0
M  V30 5914 C 603.35 -2.91228 1.77199 0
M  V30 5915 H 604.543 -1.34799 2.67898 0
M  V30 5916 H 602.096 -0.66883 1.41267 0
M  V30 5917 H 602.831 -3.13516 0.829363 0
M  V30 5918 H 602.616 -2.94107 2.59314 0
M  V30 5919 H 604.106 -3.69321 1.94915 0
M  V30 5920 N 604.543 -1.41418 -0.695603 0
M  V30 5921 C 605.475 -1.39195 -1.82092 0
M  V30 5922 C 606.488 -0.294132 -1.60121 0
M  V30 5923 O 607.677 -0.555854 -1.69625 0
M  V30 5924 C 604.777 -1.14828 -3.18854 0
M  V30 5925 C 603.95 -2.36649 -3.67853 0
M  V30 5926 C 603.009 -2.08139 -4.83285 0
M  V30 5927 O 602.035 -2.81177 -4.94902 0
M  V30 5928 N 603.237 -1.07162 -5.70523 0
M  V30 5929 H 606.002 -2.36185 -1.84491 0
M  V30 5930 H 603.563 -1.3603 -0.877923 0
M  V30 5931 H 605.555 -0.937075 -3.93702 0
M  V30 5932 H 604.125 -0.264358 -3.1148 0
M  V30 5933 H 603.345 -2.73472 -2.83913 0
M  V30 5934 H 604.633 -3.17816 -3.97329 0
M  V30 5935 H 604.031 -0.467124 -5.63768 0
M  V30 5936 H 602.588 -0.920311 -6.4527 0
M  V30 5937 N 606.021 0.929856 -1.27246 0
M  V30 5938 C 607.27 1.67182 -1.12842 0
M  V30 5939 C 607.583 1.9287 0.325666 0
M  V30 5940 O 608.789 2.64999 0.590572 0
M  V30 5941 C 607.245 3.01097 -1.97151 0
M  V30 5942 C 606.853 2.83115 -3.47203 0
M  V30 5943 C 608.597 3.78907 -1.91389 0
M  V30 5944 C 606.504 4.12573 -4.23719 0
M  V30 5945 H 605.434 0.627064 -0.418697 0
M  V30 5946 H 608.085 1.0332 -1.51649 0
M  V30 5947 H 606.467 3.66004 -1.51186 0
M  V30 5948 H 607.641 2.26989 -4.01015 0
M  V30 5949 H 605.956 2.18736 -3.54321 0
M  V30 5950 H 608.553 4.74837 -2.45834 0
M  V30 5951 H 608.896 4.0674 -0.887047 0
M  V30 5952 H 609.429 3.20794 -2.35237 0
M  V30 5953 H 606.168 3.8992 -5.26918 0
M  V30 5954 H 605.688 4.68371 -3.74685 0
M  V30 5955 H 607.367 4.8095 -4.32777 0
M  V30 5956 N 607.499 1.09233 1.13605 0
M  V30 5957 C 608.724 0.849067 1.89224 0
M  V30 5958 C 609.149 -0.593875 1.78479 0
M  V30 5959 O 608.507 -1.41703 1.13092 0
M  V30 5960 C 608.555 1.28642 3.36873 0
M  V30 5961 O 607.659 0.44363 4.10007 0
M  V30 5962 H 607 0.30767 0.588417 0
M  V30 5963 H 609.53 1.45595 1.43748 0
M  V30 5964 H 609.54 1.27096 3.87699 0
M  V30 5965 H 608.215 2.33729 3.44011 0
M  V30 5966 H 606.792 0.523241 3.69211 0
M  V30 5967 N 608.977 -1.30795 0.87923 0
M  V30 5968 C 609.94 -2.26563 0.346676 0
M  V30 5969 C 610.94 -1.52578 -0.507597 0
M  V30 5970 O 612.13 -1.71318 -0.315575 0
M  V30 5971 C 609.262 -3.37115 -0.506611 0
M  V30 5972 H 610.455 -2.75183 1.19223 0
M  V30 5973 H 608.008 -1.41886 0.655598 0
M  V30 5974 H 608.743 -2.93802 -1.37299 0
M  V30 5975 H 608.528 -3.91959 0.105218 0
M  V30 5976 H 610.018 -4.08412 -0.871192 0
M  V30 5977 N 610.455 -0.639598 -1.44038 0
M  V30 5978 C 611.385 0.0469443 -2.33453 0
M  V30 5979 C 612.366 0.82609 -1.48694 0
M  V30 5980 O 613.551 0.790285 -1.77393 0
M  V30 5981 C 610.681 1.02338 -3.3188 0
M  V30 5982 C 609.635 0.355284 -4.26523 0
M  V30 5983 C 608.961 1.44221 -5.14883 0
M  V30 5984 C 610.261 -0.743798 -5.16977 0
M  V30 5985 H 611.955 -0.699735 -2.91108 0
M  V30 5986 H 609.501 -0.337946 -1.39978 0
M  V30 5987 H 611.454 1.51247 -3.93322 0
M  V30 5988 H 610.178 1.80105 -2.72451 0
M  V30 5989 H 608.837 -0.113239 -3.66425 0
M  V30 5990 H 608.485 2.21097 -4.51802 0
M  V30 5991 H 608.185 1.00052 -5.79019 0
M  V30 5992 H 609.709 1.93295 -5.79197 0
M  V30 5993 H 611.123 -0.337444 -5.72306 0
M  V30 5994 H 609.52 -1.10914 -5.89761 0
M  V30 5995 H 610.59 -1.60745 -4.57481 0
M  V30 5996 N 611.933 1.52934 -0.380664 0
M  V30 5997 C 612.843 2.29921 0.466192 0
M  V30 5998 C 613.859 1.36488 1.07922 0
M  V30 5999 O 615.035 1.69553 1.0869 0
M  V30 6000 C 612.1 3.08468 1.58266 0
M  V30 6001 C 611.161 4.17595 0.995627 0
M  V30 6002 C 610.394 4.92387 2.05889 0
M  V30 6003 O 610.617 4.67184 3.27254 0
M  V30 6004 O 609.551 5.77949 1.68102 0
M  V30 6005 H 613.377 3.03274 -0.160735 0
M  V30 6006 H 610.962 1.48698 -0.144617 0
M  V30 6007 H 612.844 3.57469 2.23145 0
M  V30 6008 H 611.519 2.37937 2.19471 0
M  V30 6009 H 610.426 3.72811 0.310332 0
M  V30 6010 H 611.759 4.90336 0.427918 0
M  V30 6011 N 613.412 0.11024 1.57214 0
M  V30 6012 C 614.322 -0.857077 2.18383 0
M  V30 6013 C 615.338 -1.29915 1.1575 0
M  V30 6014 O 616.514 -1.36394 1.48184 0
M  V30 6015 C 613.579 -2.09264 2.76423 0
M  V30 6016 C 612.64 -1.70333 3.94063 0
M  V30 6017 C 611.873 -2.87999 4.49324 0
M  V30 6018 O 612.096 -4.0317 4.03497 0
M  V30 6019 O 611.03 -2.6559 5.40135 0
M  V30 6020 H 614.856 -0.366561 3.0148 0
M  V30 6021 H 612.441 -0.114914 1.48957 0
M  V30 6022 H 614.323 -2.81644 3.13456 0
M  V30 6023 H 612.998 -2.57339 1.96363 0
M  V30 6024 H 611.905 -0.950864 3.61814 0
M  V30 6025 H 613.238 -1.27007 4.75531 0
M  V30 6026 N 614.89 -1.56749 -0.16351 0
M  V30 6027 C 615.822 -1.93587 -1.22705 0
M  V30 6028 C 616.835 -0.829824 -1.40063 0
M  V30 6029 O 618.024 -1.10826 -1.39928 0
M  V30 6030 C 615.124 -2.1803 -2.59454 0
M  V30 6031 C 614.297 -3.4928 -2.63292 0
M  V30 6032 C 613.356 -3.62457 -3.8146 0
M  V30 6033 O 612.382 -4.35004 -3.67096 0
M  V30 6034 N 613.584 -2.97888 -4.9824 0
M  V30 6035 H 616.349 -2.8542 -0.914081 0
M  V30 6036 H 613.91 -1.58 -0.353214 0
M  V30 6037 H 615.902 -2.24102 -3.36987 0
M  V30 6038 H 614.472 -1.32543 -2.8311 0
M  V30 6039 H 613.692 -3.54795 -1.71796 0
M  V30 6040 H 614.98 -4.35632 -2.62873 0
M  V30 6041 H 614.378 -2.38833 -5.12811 0
M  V30 6042 H 612.935 -3.09545 -5.73607 0
M  V30 6043 N 616.368 0.432326 -1.51554 0
M  V30 6044 C 617.298 1.53242 -1.76179 0
M  V30 6045 C 618.279 1.58717 -0.611801 0
M  V30 6046 O 619.464 1.74364 -0.855033 0
M  V30 6047 C 616.594 2.91278 -1.89141 0
M  V30 6048 C 615.548 3.00663 -3.04608 0
M  V30 6049 C 614.874 4.40728 -3.02759 0
M  V30 6050 C 616.174 2.74281 -4.44485 0
M  V30 6051 H 617.868 1.32886 -2.68294 0
M  V30 6052 H 615.414 0.637841 -1.29103 0
M  V30 6053 H 617.367 3.68203 -2.04951 0
M  V30 6054 H 616.091 3.12877 -0.936785 0
M  V30 6055 H 614.75 2.26179 -2.88511 0
M  V30 6056 H 614.398 4.59301 -2.05065 0
M  V30 6057 H 614.098 4.47936 -3.80299 0
M  V30 6058 H 615.622 5.19619 -3.20669 0
M  V30 6059 H 617.036 3.40936 -4.60907 0
M  V30 6060 H 615.433 2.92893 -5.23769 0
M  V30 6061 H 616.503 1.69856 -4.54177 0
M  V30 6062 N 617.846 1.41785 0.688094 0
M  V30 6063 C 618.778 1.40159 1.81351 0
M  V30 6064 C 619.791 0.30262 1.59963 0
M  V30 6065 O 620.98 0.564841 1.69327 0
M  V30 6066 C 618.08 1.16517 3.1824 0
M  V30 6067 C 617.253 2.38597 3.66593 0
M  V30 6068 C 616.312 2.10699 4.82174 0
M  V30 6069 O 615.338 2.83798 4.93404 0
M  V30 6070 N 616.54 1.10187 5.69947 0
M  V30 6071 H 619.305 2.3716 1.83236 0
M  V30 6072 H 616.866 1.36494 0.870697 0
M  V30 6073 H 618.858 0.957941 3.93199 0
M  V30 6074 H 617.428 0.280873 3.11336 0
M  V30 6075 H 616.648 2.74974 2.82459 0
M  V30 6076 H 617.936 3.19919 3.95638 0
M  V30 6077 H 617.334 0.497016 5.63512 0
M  V30 6078 H 615.891 0.954518 6.44773 0
M  V30 6079 N 619.324 -0.923095 1.27737 0
M  V30 6080 C 620.256 -2.02871 1.06658 0
M  V30 6081 C 621.269 -1.62786 0.0212095 0
M  V30 6082 O 622.458 -1.76548 0.263267 0
M  V30 6083 C 619.558 -3.33603 0.59682 0
M  V30 6084 C 618.731 -4.02354 1.71551 0
M  V30 6085 C 617.79 -5.11364 1.24071 0
M  V30 6086 O 616.816 -5.35075 1.94123 0
M  V30 6087 N 618.018 -5.80416 0.0988444 0
M  V30 6088 H 620.783 -2.21515 2.01869 0
M  V30 6089 H 618.344 -1.09378 1.19365 0
M  V30 6090 H 620.336 -4.03845 0.262984 0
M  V30 6091 H 618.906 -3.11499 -0.262187 0
M  V30 6092 H 618.126 -3.25786 2.2194 0
M  V30 6093 H 619.414 -4.45035 2.46619 0
M  V30 6094 H 618.812 -5.63611 -0.485743 0
M  V30 6095 H 617.369 -6.51563 -0.17578 0
M  V30 6096 N 620.802 -1.09834 -1.13024 0
M  V30 6097 C 622.051 -0.831806 -1.83749 0
M  V30 6098 C 622.364 0.644763 -1.84668 0
M  V30 6099 O 623.57 1.02697 -2.51327 0
M  V30 6100 C 622.026 -1.43817 -3.29916 0
M  V30 6101 C 621.634 -2.94759 -3.37374 0
M  V30 6102 C 623.378 -1.25077 -4.05655 0
M  V30 6103 C 621.285 -3.48461 -4.77838 0
M  V30 6104 H 620.215 -0.30751 -0.688443 0
M  V30 6105 H 622.866 -1.32156 -1.27307 0
M  V30 6106 H 621.248 -0.876106 -3.86187 0
M  V30 6107 H 622.422 -3.57228 -2.91076 0
M  V30 6108 H 620.737 -3.12581 -2.75103 0
M  V30 6109 H 623.334 -1.62649 -5.09362 0
M  V30 6110 H 623.677 -0.191782 -4.15858 0
M  V30 6111 H 624.21 -1.78057 -3.55725 0
M  V30 6112 H 620.949 -4.53998 -4.72828 0
M  V30 6113 H 620.469 -2.90757 -5.24615 0
M  V30 6114 H 622.148 -3.45914 -5.46766 0
M  V30 6115 N 622.28 1.30327 -0.886154 0
M  V30 6116 C 623.696 1.48676 -0.580323 0
M  V30 6117 C 623.896 1.81189 0.881639 0
M  V30 6118 O 622.952 1.90021 1.66278 0
M  V30 6119 C 624.265 2.60932 -1.49449 0
M  V30 6120 C 625.813 2.74812 -1.49824 0
M  V30 6121 C 626.288 3.90183 -2.39836 0
M  V30 6122 N 627.779 3.97495 -2.37806 0
M  V30 6123 C 628.514 4.86078 -3.04165 0
M  V30 6124 N 628.01 5.79448 -3.79753 0
M  V30 6125 N 629.803 4.79456 -2.93391 0
M  V30 6126 H 621.954 1.07495 -1.8319 0
M  V30 6127 H 624.217 0.532661 -0.784204 0
M  V30 6128 H 623.923 2.43731 -2.5355 0
M  V30 6129 H 623.797 3.57437 -1.20494 0
M  V30 6130 H 626.184 2.91418 -0.464731 0
M  V30 6131 H 626.265 1.78924 -1.82811 0
M  V30 6132 H 625.909 3.74334 -3.43273 0
M  V30 6133 H 625.839 4.85411 -2.04166 0
M  V30 6134 H 628.33 3.30703 -1.82877 0
M  V30 6135 H 628.643 6.43805 -4.27475 0
M  V30 6136 H 626.988 5.79376 -3.8386 0
M  V30 6137 H 630.179 4.05494 -2.33864 0
M  V30 6138 H 630.352 5.48283 -3.45383 0
M  V30 6139 N 623.758 0.647228 1.43697 0
M  V30 6140 C 624.721 -0.0385101 2.29168 0
M  V30 6141 C 625.721 -0.756487 1.41894 0
M  V30 6142 O 626.911 -0.598641 1.63591 0
M  V30 6143 C 624.043 -1.06524 3.23829 0
M  V30 6144 H 625.236 0.713445 2.9129 0
M  V30 6145 H 622.789 0.408153 1.50877 0
M  V30 6146 H 623.524 -1.84664 2.66589 0
M  V30 6147 H 623.309 -0.554147 3.88164 0
M  V30 6148 H 624.799 -1.54432 3.87996 0
M  V30 6149 N 625.236 -1.5273 0.388769 0
M  V30 6150 C 626.146 -2.30165 -0.453993 0
M  V30 6151 C 627.162 -1.37058 -1.07197 0
M  V30 6152 O 628.338 -1.70127 -1.0779 0
M  V30 6153 C 625.403 -3.09303 -1.56628 0
M  V30 6154 C 624.464 -4.18117 -0.973467 0
M  V30 6155 C 623.697 -4.93472 -2.03275 0
M  V30 6156 O 623.92 -4.68913 -3.24772 0
M  V30 6157 O 622.854 -5.78833 -1.65034 0
M  V30 6158 H 626.68 -3.03185 0.176816 0
M  V30 6159 H 624.265 -1.4862 0.152501 0
M  V30 6160 H 626.147 -3.58648 -2.21246 0
M  V30 6161 H 624.822 -2.39098 -2.18206 0
M  V30 6162 H 623.729 -3.7297 -0.290556 0
M  V30 6163 H 625.062 -4.90556 -0.401908 0
M  V30 6164 N 626.714 -0.118576 -1.57153 0
M  V30 6165 C 627.942 0.54726 -1.99531 0
M  V30 6166 C 628.357 1.60251 -0.998246 0
M  V30 6167 O 627.714 1.82498 0.00893106 0
M  V30 6168 C 627.765 1.17378 -3.41913 0
M  V30 6169 O 627.486 0.160703 -4.37805 0
M  V30 6170 C 628.987 1.92297 -3.9942 0
M  V30 6171 H 626.207 0.144919 -0.655164 0
M  V30 6172 H 628.751 -0.20479 -2.03472 0
M  V30 6173 H 626.906 1.87661 -3.38913 0
M  V30 6174 H 627.32 0.61586 -5.20872 0
M  V30 6175 H 628.794 2.31462 -5.01128 0
M  V30 6176 H 629.271 2.79801 -3.38538 0
M  V30 6177 H 629.877 1.26777 -4.05965 0
M  V30 6178 N 628.193 1.56834 0.155195 0
M  V30 6179 C 629.103 2.009 1.21146 0
M  V30 6180 C 630.119 0.923029 1.475 0
M  V30 6181 O 631.295 1.23189 1.59331 0
M  V30 6182 C 628.36 2.37378 2.52691 0
M  V30 6183 C 627.421 3.59883 2.34057 0
M  V30 6184 C 626.654 3.94612 3.59329 0
M  V30 6185 O 626.877 3.30104 4.65175 0
M  V30 6186 O 625.811 4.87895 3.52479 0
M  V30 6187 H 629.637 2.9105 0.867371 0
M  V30 6188 H 627.222 1.44916 0.363298 0
M  V30 6189 H 629.104 2.61737 3.3026 0
M  V30 6190 H 627.779 1.50385 2.86646 0
M  V30 6191 H 626.686 3.40722 1.54465 0
M  V30 6192 H 628.019 4.47468 2.0502 0
M  V30 6193 N 629.671 -0.424282 1.51781 0
M  V30 6194 C 630.911 -1.18194 1.66762 0
M  V30 6195 C 631.275 -1.88164 0.381857 0
M  V30 6196 O 632.476 -2.65692 0.407586 0
M  V30 6197 C 630.747 -2.16173 2.84612 0
M  V30 6198 S 632.306 -3.0025 3.19993 0
M  V30 6199 H 629.124 -0.400626 0.587384 0
M  V30 6200 H 631.726 -0.471499 1.89729 0
M  V30 6201 H 630.43 -1.6343 3.76455 0
M  V30 6202 H 629.961 -2.91778 2.63873 0
M  V30 6203 H 631.976 -4.1796 2.67439 0
M  V30 6204 N 631.149 -1.42148 -0.680565 0
M  V30 6205 C 632.081 -1.41119 -1.80605 0
M  V30 6206 C 633.094 -0.311099 -1.598 0
M  V30 6207 O 634.283 -0.573813 -1.69026 0
M  V30 6208 C 631.383 -1.18204 -3.17618 0
M  V30 6209 C 630.556 -2.40537 -3.65322 0
M  V30 6210 C 629.615 -2.13254 -4.8105 0
M  V30 6211 O 628.641 -2.8641 -4.91892 0
M  V30 6212 N 629.843 -1.13208 -5.69354 0
M  V30 6213 H 632.608 -2.38128 -1.81975 0
M  V30 6214 H 630.169 -1.36953 -0.863446 0
M  V30 6215 H 632.161 -0.97878 -3.92686 0
M  V30 6216 H 630.731 -0.29738 -3.11182 0
M  V30 6217 H 629.951 -2.76468 -2.80996 0
M  V30 6218 H 631.239 -3.22012 -3.93936 0
M  V30 6219 H 630.637 -0.526893 -5.63241 0
M  V30 6220 H 629.194 -0.988699 -6.44258 0
M  V30 6221 N 632.627 0.916307 -1.28225 0
M  V30 6222 C 633.575 2.03977 -1.11786 0
M  V30 6223 C 634.569 1.69358 -0.0378265 0
M  V30 6224 O 635.775 1.78925 -0.196405 0
M  V30 6225 H 632.15 0.66829 -0.344809 0
M  V30 6226 H 634.121 2.14985 -2.06939 0
M  V30 6227 C 632.87 3.38518 -0.7938 0
M  V30 6228 H 632.193 3.65649 -1.61682 0
M  V30 6229 H 633.633 4.17864 -0.718719 0
M  V30 6230 C 632.092 3.33134 0.502353 0
M  V30 6231 O 632.622 3.71281 1.53341 0
M  V30 6232 N 630.828 2.86229 0.502147 0
M  V30 6233 H 630.375 2.55382 -0.337338 0
M  V30 6234 H 630.333 2.83009 1.36942 0
M  V30 6235 N 634.105 1.10431 1.1244 0
M  V30 6236 C 635.333 0.868872 1.87772 0
M  V30 6237 C 635.748 -0.580645 1.7965 0
M  V30 6238 O 635.105 -1.40031 1.17036 0
M  V30 6239 C 635.156 1.30855 3.36986 0
M  V30 6240 O 634.877 2.70123 3.44914 0
M  V30 6241 C 636.378 1.107 4.29256 0
M  V30 6242 H 633.598 0.311868 0.59412 0
M  V30 6243 H 636.142 1.46897 1.42273 0
M  V30 6244 H 634.297 0.752126 3.80029 0
M  V30 6245 H 634.711 2.88923 4.37748 0
M  V30 6246 H 636.185 1.46378 5.32238 0
M  V30 6247 H 636.662 0.0456228 4.39176 0
M  V30 6248 H 637.268 1.64988 3.91994 0
M  V30 6249 N 635.583 -1.29855 0.893053 0
M  V30 6250 C 636.493 -2.31661 0.370157 0
M  V30 6251 C 637.509 -1.65677 -0.531723 0
M  V30 6252 O 638.685 -1.9691 -0.422902 0
M  V30 6253 C 635.75 -3.44388 -0.399741 0
M  V30 6254 C 634.811 -4.2598 0.532861 0
M  V30 6255 C 634.044 -5.33324 -0.200388 0
M  V30 6256 O 634.267 -5.52305 -1.42531 0
M  V30 6257 O 633.201 -6.00188 0.453668 0
M  V30 6258 H 637.027 -2.78354 1.2146 0
M  V30 6259 H 634.612 -1.34171 0.657153 0
M  V30 6260 H 636.494 -4.13037 -0.835358 0
M  V30 6261 H 635.169 -2.99815 -1.22035 0
M  V30 6262 H 634.076 -3.59998 1.01746 0
M  V30 6263 H 635.409 -4.74178 1.3197 0
M  V30 6264 N 637.061 -0.65484 -1.43351 0
M  V30 6265 C 638.291 -0.176429 -2.05845 0
M  V30 6266 C 638.699 1.16375 -1.49176 0
M  V30 6267 O 638.042 1.72981 -0.618322 0
M  V30 6268 C 638.104 -0.0125844 -3.59498 0
M  V30 6269 C 637.768 -1.27831 -4.38758 0
M  V30 6270 C 638.765 -2.2074 -4.70712 0
M  V30 6271 C 636.45 -1.52035 -4.78739 0
M  V30 6272 C 638.444 -3.36145 -5.41558 0
M  V30 6273 C 636.131 -2.67732 -5.49329 0
M  V30 6274 C 637.129 -3.59612 -5.80662 0
M  V30 6275 O 636.817 -4.73289 -6.4981 0
M  V30 6276 H 636.549 -0.0879682 -0.670252 0
M  V30 6277 H 639.103 -0.896193 -1.84818 0
M  V30 6278 H 637.333 0.762567 -3.79107 0
M  V30 6279 H 639.022 0.423392 -4.03686 0
M  V30 6280 H 639.788 -2.03284 -4.40341 0
M  V30 6281 H 635.667 -0.813987 -4.53757 0
M  V30 6282 H 639.211 -4.07881 -5.65932 0
M  V30 6283 H 635.108 -2.85122 -5.79116 0
M  V30 6284 H 635.876 -4.72575 -6.68293 0
M  V30 6285 N 638.539 1.52521 -0.396863 0
M  V30 6286 C 639.471 2.24333 0.469814 0
M  V30 6287 C 640.484 1.2685 1.02043 0
M  V30 6288 O 641.673 1.52876 0.92147 0
M  V30 6289 C 638.773 2.95202 1.66461 0
M  V30 6290 C 637.946 4.19454 1.24003 0
M  V30 6291 C 637.005 4.73255 2.30036 0
M  V30 6292 O 636.031 5.36151 1.91131 0
M  V30 6293 N 637.233 4.53765 3.62047 0
M  V30 6294 H 639.998 2.99347 -0.145468 0
M  V30 6295 H 637.559 1.60348 -0.223606 0
M  V30 6296 H 639.551 3.28092 2.36934 0
M  V30 6297 H 638.121 2.2345 2.18607 0
M  V30 6298 H 637.341 3.92517 0.363892 0
M  V30 6299 H 638.629 5.0017 0.933135 0
M  V30 6300 H 638.027 4.03576 3.96412 0
M  V30 6301 H 636.584 4.91124 4.28533 0
M  V30 6302 N 640.017 0.126909 1.57088 0
M  V30 6303 C 640.949 -0.850973 2.12817 0
M  V30 6304 C 641.962 -1.22457 1.07276 0
M  V30 6305 O 643.151 -1.17215 1.34622 0
M  V30 6306 C 640.251 -2.15039 2.61938 0
M  V30 6307 C 639.424 -1.94726 3.91664 0
M  V30 6308 C 638.483 -3.0847 4.26301 0
M  V30 6309 O 637.509 -2.81038 4.94981 0
M  V30 6310 N 638.711 -4.35116 3.84259 0
M  V30 6311 H 641.476 -0.3748 2.97347 0
M  V30 6312 H 639.037 -0.0572793 1.61799 0
M  V30 6313 H 641.029 -2.90141 2.82135 0
M  V30 6314 H 639.599 -2.5398 1.82244 0
M  V30 6315 H 638.819 -1.03772 3.80296 0
M  V30 6316 H 640.107 -1.78469 4.76473 0
M  V30 6317 H 639.505 -4.60276 3.2888 0
M  V30 6318 H 638.062 -5.07064 4.09548 0
M  V30 6319 N 641.495 -1.56914 -0.146875 0
M  V30 6320 C 642.425 -2.01308 -1.1831 0
M  V30 6321 C 643.406 -0.892664 -1.44795 0
M  V30 6322 O 644.591 -1.16048 -1.55713 0
M  V30 6323 C 641.721 -2.3938 -2.51624 0
M  V30 6324 C 640.675 -3.54608 -2.3966 0
M  V30 6325 C 640.001 -3.78493 -3.77686 0
M  V30 6326 C 641.301 -4.87269 -1.88058 0
M  V30 6327 H 642.995 -2.88123 -0.813964 0
M  V30 6328 H 640.541 -1.38615 -0.3901 0
M  V30 6329 H 642.494 -2.69037 -3.24341 0
M  V30 6330 H 641.218 -1.49502 -2.90373 0
M  V30 6331 H 639.877 -3.25116 -1.69396 0
M  V30 6332 H 639.525 -2.85866 -4.13871 0
M  V30 6333 H 639.225 -4.56039 -3.70543 0
M  V30 6334 H 640.749 -4.10576 -4.51951 0
M  V30 6335 H 642.163 -5.15644 -2.50568 0
M  V30 6336 H 640.56 -5.68622 -1.91805 0
M  V30 6337 H 641.63 -4.77634 -0.836277 0
M  V30 6338 N 642.974 0.416227 -1.52004 0
M  V30 6339 C 643.904 1.51365 -1.77795 0
M  V30 6340 C 644.885 1.58059 -0.628601 0
M  V30 6341 O 646.07 1.73447 -0.873478 0
M  V30 6342 C 643.2 2.89256 -1.92219 0
M  V30 6343 C 642.154 2.97415 -3.0778 0
M  V30 6344 C 641.48 4.37492 -3.07417 0
M  V30 6345 C 642.78 2.69551 -4.47369 0
M  V30 6346 H 644.474 1.30033 -2.69688 0
M  V30 6347 H 642.02 0.624112 -1.29772 0
M  V30 6348 H 643.973 3.66008 -2.08845 0
M  V30 6349 H 642.697 3.11866 -0.969917 0
M  V30 6350 H 641.356 2.23107 -2.90893 0
M  V30 6351 H 641.004 4.571 -2.09925 0
M  V30 6352 H 640.704 4.43877 -3.85029 0
M  V30 6353 H 642.228 5.16188 -3.26162 0
M  V30 6354 H 643.642 3.36028 -4.64497 0
M  V30 6355 H 642.039 2.87321 -5.26846 0
M  V30 6356 H 643.109 1.65029 -4.55953 0
M  V30 6357 N 644.452 1.42507 0.673017 0
M  V30 6358 C 645.729 1.33554 1.42908 0
M  V30 6359 C 646.109 -0.0262211 2.11084 0
M  V30 6360 O 645.457 -1.04181 2.03368 0
M  V30 6361 C 645.667 2.50498 2.43006 0
M  V30 6362 C 647.015 2.92694 3.07596 0
M  V30 6363 O 648.039 2.50401 2.53333 0
M  V30 6364 O 646.898 3.65899 4.05931 0
M  V30 6365 H 643.992 0.526785 0.637516 0
M  V30 6366 H 646.538 1.54518 0.701591 0
M  V30 6367 H 645.31 3.41272 1.9144 0
M  V30 6368 H 644.933 2.3153 3.23233 0
M  V30 6369 N 645.93 -0.909495 1.28709 0
M  V30 6370 C 647.179 -1.65365 1.15487 0
M  V30 6371 C 647.492 -1.93364 -0.294941 0
M  V30 6372 O 648.698 -2.65905 -0.548338 0
M  V30 6373 C 647.154 -2.97923 2.01916 0
M  V30 6374 C 646.762 -2.77556 3.51663 0
M  V30 6375 C 648.506 -3.75814 1.97393 0
M  V30 6376 C 646.413 -4.0578 4.30229 0
M  V30 6377 H 645.343 -0.620323 0.42862 0
M  V30 6378 H 647.994 -1.00894 1.53273 0
M  V30 6379 H 646.376 -3.63552 1.5699 0
M  V30 6380 H 647.55 -2.2058 4.04575 0
M  V30 6381 H 645.865 -2.13072 3.57756 0
M  V30 6382 H 648.462 -4.70866 2.53357 0
M  V30 6383 H 648.805 -4.05277 0.951643 0
M  V30 6384 H 649.338 -3.1701 2.40311 0
M  V30 6385 H 646.077 -3.81488 5.33055 0
M  V30 6386 H 645.597 -4.62351 3.82089 0
M  V30 6387 H 647.276 -4.74004 4.40374 0
M  V30 6388 N 647.408 -1.11026 -1.11852 0
M  V30 6389 C 648.355 -0.764662 -2.17765 0
M  V30 6390 C 649.325 0.261854 -1.64023 0
M  V30 6391 O 650.51 0.139748 -1.90288 0
M  V30 6392 C 647.65 -0.209317 -3.44465 0
M  V30 6393 C 646.763 -1.29187 -4.12231 0
M  V30 6394 C 645.898 -0.697523 -5.266 0
M  V30 6395 C 644.937 -1.76023 -5.86244 0
M  V30 6396 N 644.074 -1.18569 -6.92016 0
M  V30 6397 H 648.914 -1.67202 -2.46673 0
M  V30 6398 H 646.451 -0.835065 -1.21099 0
M  V30 6399 H 648.409 0.130599 -4.16996 0
M  V30 6400 H 647.039 0.661251 -3.15955 0
M  V30 6401 H 646.091 -1.74881 -3.37818 0
M  V30 6402 H 647.403 -2.09607 -4.52622 0
M  V30 6403 H 646.557 -0.307412 -6.05921 0
M  V30 6404 H 645.296 0.138044 -4.87505 0
M  V30 6405 H 644.301 -2.1597 -5.05606 0
M  V30 6406 H 645.526 -2.59875 -6.27409 0
M  V30 6407 H 643.472 -0.371695 -6.54946 0
M  V30 6408 H 643.389 -1.92666 -7.31038 0
M  V30 6409 H 644.657 -0.82233 -7.7515 0
M  V30 6410 N 648.886 1.2938 -0.899927 0
M  V30 6411 C 650.135 1.9483 -0.521937 0
M  V30 6412 C 650.448 1.71725 0.936473 0
M  V30 6413 O 651.654 2.31282 1.42199 0
M  V30 6414 C 650.11 3.48911 -0.88255 0
M  V30 6415 C 649.718 3.80815 -2.35974 0
M  V30 6416 C 651.462 4.20595 -0.57448 0
M  V30 6417 C 649.369 5.28142 -2.66121 0
M  V30 6418 H 648.299 0.729285 -0.191468 0
M  V30 6419 H 650.95 1.47103 -1.09695 0
M  V30 6420 H 649.332 3.95293 -0.236459 0
M  V30 6421 H 650.506 3.45291 -3.05141 0
M  V30 6422 H 648.821 3.22271 -2.63686 0
M  V30 6423 H 651.418 5.29031 -0.776556 0
M  V30 6424 H 651.761 4.13442 0.487005 0
M  V30 6425 H 652.294 3.79945 -1.17842 0
M  V30 6426 H 649.033 5.4036 -3.71068 0
M  V30 6427 H 648.553 5.64913 -2.01578 0
M  V30 6428 H 650.232 5.95738 -2.52399 0
M  V30 6429 N 650.364 0.662433 1.43002 0
M  V30 6430 C 651.78 0.330835 1.56133 0
M  V30 6431 C 651.98 -1.16454 1.64441 0
M  V30 6432 O 651.036 -1.94964 1.60453 0
M  V30 6433 C 652.349 1.05029 2.81761 0
M  V30 6434 C 653.897 1.03142 2.95518 0
M  V30 6435 C 654.372 1.73196 4.2399 0
M  V30 6436 N 655.863 1.70004 4.30875 0
M  V30 6437 C 656.598 2.21074 5.29069 0
M  V30 6438 N 656.094 2.80473 6.33488 0
M  V30 6439 N 657.887 2.1152 5.20784 0
M  V30 6440 H 650.038 1.63272 1.35853 0
M  V30 6441 H 652.301 0.687149 0.653092 0
M  V30 6442 H 652.007 2.10542 2.81718 0
M  V30 6443 H 651.881 0.607664 3.72273 0
M  V30 6444 H 654.268 -0.0153339 2.95096 0
M  V30 6445 H 654.349 1.51282 2.0627 0
M  V30 6446 H 653.993 2.77833 4.25172 0
M  V30 6447 H 653.923 1.22515 5.1215 0
M  V30 6448 H 656.414 1.26667 3.56039 0
M  V30 6449 H 656.727 3.17094 7.04749 0
M  V30 6450 H 655.072 2.84538 6.34085 0
M  V30 6451 H 658.263 1.64814 4.38126 0
M  V30 6452 H 658.436 2.51629 5.97149 0
M  V30 6453 N 651.842 -1.52309 0.404946 0
M  V30 6454 C 652.772 -2.29805 -0.41376 0
M  V30 6455 C 653.753 -1.3384 -1.0498 0
M  V30 6456 O 654.938 -1.62745 -1.05961 0
M  V30 6457 C 652.068 -3.11639 -1.53292 0
M  V30 6458 C 651.022 -4.15616 -1.02211 0
M  V30 6459 C 650.348 -4.8577 -2.23455 0
M  V30 6460 C 651.648 -5.2224 -0.0790725 0
M  V30 6461 H 653.342 -2.98493 0.232878 0
M  V30 6462 H 650.888 -1.43552 0.113441 0
M  V30 6463 H 652.841 -3.64618 -2.11262 0
M  V30 6464 H 651.565 -2.40712 -2.20738 0
M  V30 6465 H 650.224 -3.63641 -0.46484 0
M  V30 6466 H 649.872 -4.11376 -2.89445 0
M  V30 6467 H 649.572 -5.56058 -1.89929 0
M  V30 6468 H 651.096 -5.4156 -2.82038 0
M  V30 6469 H 652.51 -5.70485 -0.567438 0
M  V30 6470 H 650.907 -5.99867 0.167167 0
M  V30 6471 H 651.977 -4.77078 0.867447 0
M  V30 6472 N 653.32 -0.135238 -1.57019 0
M  V30 6473 C 654.23 0.822226 -2.19719 0
M  V30 6474 C 655.246 1.28057 -1.17802 0
M  V30 6475 O 656.422 1.3402 -1.50335 0
M  V30 6476 C 653.487 2.0484 -2.79717 0
M  V30 6477 C 652.548 1.64042 -3.96723 0
M  V30 6478 C 651.781 2.80814 -4.53849 0
M  V30 6479 O 652.004 3.967 -4.0986 0
M  V30 6480 O 650.938 2.56963 -5.44292 0
M  V30 6481 H 654.764 0.318552 -3.02025 0
M  V30 6482 H 652.349 0.0912021 -1.49121 0
M  V30 6483 H 654.231 2.76622 -3.17897 0
M  V30 6484 H 652.906 2.54182 -2.00432 0
M  V30 6485 H 651.813 0.893182 -3.63281 0
M  V30 6486 H 653.146 1.19426 -4.77492 0
M  V30 6487 N 654.798 1.5699 0.138552 0
M  V30 6488 C 655.746 1.99858 1.18994 0
M  V30 6489 C 656.74 0.89231 1.43994 0
M  V30 6490 O 657.946 1.0775 1.44187 0
M  V30 6491 H 654.321 0.636325 0.400743 0
M  V30 6492 H 656.292 2.87427 0.801755 0
M  V30 6493 C 655.041 2.40235 2.51361 0
M  V30 6494 H 654.364 3.24917 2.32957 0
M  V30 6495 H 655.804 2.74045 3.23535 0
M  V30 6496 C 654.263 1.25829 3.1252 0
M  V30 6497 O 654.793 0.563604 3.97727 0
M  V30 6498 N 652.999 1.02036 2.72097 0
M  V30 6499 H 652.546 1.58705 2.02905 0
M  V30 6500 H 652.504 0.256796 3.1335 0
M  V30 6501 N 656.276 -0.40816 1.52223 0
M  V30 6502 C 657.186 -1.52202 1.78526 0
M  V30 6503 C 658.202 -1.60546 0.670892 0
M  V30 6504 O 659.378 -1.77242 0.956404 0
M  V30 6505 C 656.443 -2.87928 1.93128 0
M  V30 6506 C 655.504 -2.89463 3.17033 0
M  V30 6507 C 654.737 -4.18715 3.30929 0
M  V30 6508 O 654.96 -5.12662 2.50067 0
M  V30 6509 O 653.894 -4.27125 4.24084 0
M  V30 6510 H 657.72 -1.32911 2.73072 0
M  V30 6511 H 655.305 -0.594112 1.37079 0
M  V30 6512 H 657.187 -3.68426 2.04549 0
M  V30 6513 H 655.862 -3.07285 1.01772 0
M  V30 6514 H 654.769 -2.07815 3.11069 0
M  V30 6515 H 656.102 -2.75055 4.08174 0
M  V30 6516 N 657.755 -1.42862 -0.66545 0
M  V30 6517 C 659.004 -1.43119 -1.42126 0
M  V30 6518 C 659.317 -0.0545297 -1.95524 0
M  V30 6519 O 660.523 0.0654747 -2.71421 0
M  V30 6520 C 658.979 -2.51797 -2.5715 0
M  V30 6521 C 658.587 -3.95514 -2.10411 0
M  V30 6522 C 660.331 -2.61233 -3.346 0
M  V30 6523 C 658.238 -4.95682 -3.22573 0
M  V30 6524 H 657.168 -0.532349 -0.533966 0
M  V30 6525 H 659.819 -1.68806 -0.719506 0
M  V30 6526 H 658.201 -2.19292 -3.29738 0
M  V30 6527 H 659.375 -4.3742 -1.44915 0
M  V30 6528 H 657.69 -3.90012 -1.45874 0
M  V30 6529 H 660.287 -3.33248 -4.18151 0
M  V30 6530 H 660.63 -1.65896 -3.81817 0
M  V30 6531 H 661.163 -2.9298 -2.69087 0
M  V30 6532 H 657.902 -5.92529 -2.80338 0
M  V30 6533 H 657.422 -4.58399 -3.86821 0
M  V30 6534 H 659.101 -5.17828 -3.87896 0
M  V30 6535 N 659.233 0.902656 -1.29189 0
M  V30 6536 C 660.165 2.01149 -1.09872 0
M  V30 6537 C 661.178 1.62732 -0.0471046 0
M  V30 6538 O 662.367 1.76107 -0.29132 0
M  V30 6539 C 659.467 3.32612 -0.649818 0
M  V30 6540 C 658.64 3.99574 -1.7793 0
M  V30 6541 C 657.699 5.09325 -1.32191 0
M  V30 6542 O 656.725 5.31919 -2.02611 0
M  V30 6543 N 657.927 5.80185 -0.191171 0
M  V30 6544 H 660.692 2.18276 -2.05368 0
M  V30 6545 H 658.253 1.07466 -1.2109 0
M  V30 6546 H 660.245 4.03375 -0.327199 0
M  V30 6547 H 658.815 3.11876 0.212597 0
M  V30 6548 H 658.035 3.22213 -2.27095 0
M  V30 6549 H 659.323 4.41056 -2.53668 0
M  V30 6550 H 658.721 5.64312 0.396016 0
M  V30 6551 H 657.278 6.5176 0.0721001 0
M  V30 6552 N 660.711 1.11618 1.11262 0
M  V30 6553 C 661.939 0.888739 1.8684 0
M  V30 6554 C 662.354 -0.561558 1.80255 0
M  V30 6555 O 661.711 -1.38782 1.18515 0
M  V30 6556 C 661.762 1.34422 3.35579 0
M  V30 6557 O 661.483 2.73766 3.42029 0
M  V30 6558 C 662.984 1.15246 4.28058 0
M  V30 6559 H 660.204 0.318152 0.590779 0
M  V30 6560 H 662.748 1.48398 1.40707 0
M  V30 6561 H 660.903 0.79239 3.7921 0
M  V30 6562 H 661.317 2.9355 4.34659 0
M  V30 6563 H 662.791 1.52015 5.30656 0
M  V30 6564 H 663.268 0.0922007 4.39103 0
M  V30 6565 H 663.874 1.69136 3.90222 0
M  V30 6566 N 662.189 -1.289 0.906776 0
M  V30 6567 C 663.419 -1.99112 0.551168 0
M  V30 6568 C 663.827 -1.67998 -0.870243 0
M  V30 6569 O 663.17 -0.92525 -1.58697 0
M  V30 6570 C 663.232 -3.53162 0.672065 0
M  V30 6571 C 662.896 -4.07849 2.06174 0
M  V30 6572 C 663.893 -4.22212 3.0337 0
M  V30 6573 C 661.578 -4.4271 2.37304 0
M  V30 6574 C 663.572 -4.70678 4.29815 0
M  V30 6575 C 661.259 -4.90871 3.6399 0
M  V30 6576 C 662.257 -5.04811 4.6006 0
M  V30 6577 O 661.945 -5.51925 5.84495 0
M  V30 6578 H 661.677 -0.642728 0.209469 0
M  V30 6579 H 664.231 -1.65234 1.22012 0
M  V30 6580 H 662.461 -3.86662 -0.05394 0
M  V30 6581 H 664.15 -4.046 0.324579 0
M  V30 6582 H 664.916 -3.9556 2.80637 0
M  V30 6583 H 660.795 -4.31114 1.63283 0
M  V30 6584 H 664.339 -4.81474 5.04806 0
M  V30 6585 H 660.236 -5.16961 3.86551 0
M  V30 6586 H 661.004 -5.70225 5.87185 0
M  V30 6587 N 663.667 -0.670007 -1.42649 0
M  V30 6588 C 665.083 -0.33911 -1.55956 0
M  V30 6589 C 665.283 1.1558 -1.65056 0
M  V30 6590 O 664.339 1.94111 -1.61485 0
M  V30 6591 C 665.652 -1.06522 -2.812 0
M  V30 6592 C 667.2 -1.04708 -2.94966 0
M  V30 6593 C 667.675 -1.75442 -4.23065 0
M  V30 6594 N 669.166 -1.72286 -4.29967 0
M  V30 6595 C 669.901 -2.23877 -5.27889 0
M  V30 6596 N 669.397 -2.83829 -6.31991 0
M  V30 6597 N 671.19 -2.14279 -5.19654 0
M  V30 6598 H 663.341 -1.6399 -1.34986 0
M  V30 6599 H 665.604 -0.690603 -0.649439 0
M  V30 6600 H 665.31 -2.12033 -2.80597 0
M  V30 6601 H 665.184 -0.627398 -3.71946 0
M  V30 6602 H 667.571 -0.000315966 -2.951 0
M  V30 6603 H 667.652 -1.52374 -2.05465 0
M  V30 6604 H 667.296 -2.80084 -4.23693 0
M  V30 6605 H 667.226 -1.25229 -5.11493 0
M  V30 6606 H 669.717 -1.28554 -3.55362 0
M  V30 6607 H 670.03 -3.20827 -7.03057 0
M  V30 6608 H 668.375 -2.87896 -6.32567 0
M  V30 6609 H 671.566 -1.67135 -4.37245 0
M  V30 6610 H 671.739 -2.54792 -5.95806 0
M  V30 6611 N 665.145 1.52092 -0.413018 0
M  V30 6612 C 666.37 2.06756 0.163338 0
M  V30 6613 C 666.795 1.28073 1.37764 0
M  V30 6614 O 666.153 0.312015 1.78595 0
M  V30 6615 C 666.201 3.57278 0.488322 0
M  V30 6616 O 665.305 3.80986 1.57871 0
M  V30 6617 H 664.646 0.663882 0.0125068 0
M  V30 6618 H 667.176 1.95988 -0.587339 0
M  V30 6619 H 667.186 4.01125 0.745836 0
M  V30 6620 H 665.861 4.13978 -0.399327 0
M  V30 6621 H 664.438 3.49017 1.31306 0
M  V30 6622 N 666.623 0.143563 1.56945 0
M  V30 6623 C 667.553 -0.7936 2.196 0
M  V30 6624 C 668.534 -1.25955 1.14321 0
M  V30 6625 O 669.719 -1.31773 1.42651 0
M  V30 6626 C 666.849 -2.03424 2.81489 0
M  V30 6627 C 665.803 -1.70519 3.92565 0
M  V30 6628 C 665.129 -3.01817 4.41373 0
M  V30 6629 C 666.429 -0.95449 5.13504 0
M  V30 6630 H 668.123 -0.271423 2.98167 0
M  V30 6631 H 665.669 -0.12911 1.4342 0
M  V30 6632 H 667.622 -2.69463 3.23987 0
M  V30 6633 H 666.346 -2.58008 2.00248 0
M  V30 6634 H 665.005 -1.06859 3.5068 0
M  V30 6635 H 664.653 -3.54386 3.56959 0
M  V30 6636 H 664.353 -2.80565 5.16292 0
M  V30 6637 H 665.877 -3.68934 4.86539 0
M  V30 6638 H 667.291 -1.5169 5.52868 0
M  V30 6639 H 665.688 -0.842035 5.94163 0
M  V30 6640 H 666.758 0.0544033 4.84869 0
M  V30 6641 N 668.101 -1.57061 -0.130224 0
M  V30 6642 C 669.031 -2.02552 -1.16168 0
M  V30 6643 C 670.012 -0.907971 -1.4384 0
M  V30 6644 O 671.197 -1.17693 -1.54473 0
M  V30 6645 C 668.327 -2.42035 -2.49071 0
M  V30 6646 C 667.281 -3.5713 -2.35886 0
M  V30 6647 C 666.607 -3.82478 -3.7365 0
M  V30 6648 C 667.907 -4.89236 -1.8288 0
M  V30 6649 H 669.601 -2.8897 -0.783359 0
M  V30 6650 H 667.147 -1.39021 -0.375376 0
M  V30 6651 H 669.1 -2.72462 -3.21469 0
M  V30 6652 H 667.824 -1.52573 -2.88771 0
M  V30 6653 H 666.483 -3.26895 -1.65938 0
M  V30 6654 H 666.131 -2.9024 -4.10816 0
M  V30 6655 H 665.831 -4.59944 -3.65685 0
M  V30 6656 H 667.355 -4.15347 -4.47571 0
M  V30 6657 H 668.769 -5.18272 -2.45085 0
M  V30 6658 H 667.166 -5.70624 -1.85763 0
M  V30 6659 H 668.236 -4.78494 -0.785571 0
M  V30 6660 N 669.579 0.400081 -1.52437 0
M  V30 6661 C 670.489 1.51253 -1.79331 0
M  V30 6662 C 671.505 1.60188 -0.679396 0
M  V30 6663 O 672.681 1.76733 -0.965791 0
M  V30 6664 C 669.746 2.869 -1.94652 0
M  V30 6665 C 668.807 2.87777 -3.18564 0
M  V30 6666 C 668.04 4.16954 -3.33145 0
M  V30 6667 O 668.263 5.11329 -2.52783 0
M  V30 6668 O 667.197 4.2487 -4.26343 0
M  V30 6669 H 671.023 1.31461 -2.73773 0
M  V30 6670 H 668.608 0.586834 -1.37392 0
M  V30 6671 H 670.49 3.67336 -2.065 0
M  V30 6672 H 669.165 3.06741 -1.034 0
M  V30 6673 H 668.072 2.06162 -3.12167 0
M  V30 6674 H 669.405 2.72886 -4.09627 0
M  V30 6675 N 671.057 1.43213 0.657864 0
M  V30 6676 C 672.305 1.44298 1.41501 0
M  V30 6677 C 672.626 0.0666478 1.94886 0
M  V30 6678 O 671.896 -0.897345 1.74139 0
M  V30 6679 H 670.476 0.531257 0.525143 0
M  V30 6680 H 673.138 1.78777 0.776195 0
M  V30 6681 H 672.234 2.1528 2.25966 0
M  V30 6682 N 672.536 -0.895792 1.29666 0
M  V30 6683 C 673.446 -2.03329 1.17024 0
M  V30 6684 C 674.462 -1.73753 0.0925962 0
M  V30 6685 O 675.638 -1.99071 0.305431 0
M  V30 6686 C 672.703 -3.36072 0.851841 0
M  V30 6687 C 671.764 -3.7914 2.01373 0
M  V30 6688 C 670.997 -5.05549 1.71043 0
M  V30 6689 O 671.22 -5.66874 0.633213 0
M  V30 6690 O 670.154 -5.44764 2.5596 0
M  V30 6691 H 673.98 -2.16918 2.12556 0
M  V30 6692 H 671.565 -1.02007 1.09156 0
M  V30 6693 H 673.447 -4.15729 0.689006 0
M  V30 6694 H 672.122 -3.23616 -0.0736634 0
M  V30 6695 H 671.029 -3.00233 2.23183 0
M  V30 6696 H 672.362 -3.96186 2.92058 0
M  V30 6697 N 674.014 -1.12206 -1.10668 0
M  V30 6698 C 675.262 -0.874144 -1.82217 0
M  V30 6699 C 675.583 0.601736 -1.85484 0
M  V30 6700 O 674.853 1.43725 -1.33116 0
M  V30 6701 H 673.433 -0.320404 -0.674797 0
M  V30 6702 H 676.095 -1.41606 -1.33917 0
M  V30 6703 H 675.191 -1.25349 -2.85822 0
M  V30 6704 N 675.492 1.28418 -0.913599 0
M  V30 6705 C 676.717 1.99643 -0.561899 0
M  V30 6706 C 677.142 1.67819 0.849608 0
M  V30 6707 O 676.5 0.910503 1.56779 0
M  V30 6708 C 676.548 3.52116 -0.777622 0
M  V30 6709 O 675.652 4.12076 0.163457 0
M  V30 6710 H 674.993 0.627229 -0.217898 0
M  V30 6711 H 677.523 1.63575 -1.229 0
M  V30 6712 H 677.533 4.02163 -0.687666 0
M  V30 6713 H 676.208 3.74613 -1.8066 0
M  V30 6714 H 674.785 3.72892 0.0247827 0
M  V30 6715 N 676.97 0.677563 1.42291 0
M  V30 6716 C 678.195 0.207901 2.06355 0
M  V30 6717 C 678.62 -1.12723 1.50583 0
M  V30 6718 O 677.978 -1.70171 0.62543 0
M  V30 6719 C 678.026 0.156489 3.6026 0
M  V30 6720 O 677.13 -0.874162 4.03029 0
M  V30 6721 H 676.471 0.106056 0.655475 0
M  V30 6722 H 679.001 0.927354 1.82377 0
M  V30 6723 H 679.011 -0.0187258 4.07996 0
M  V30 6724 H 677.686 1.13101 4.00226 0
M  V30 6725 H 676.263 -0.669764 3.66836 0
M  V30 6726 N 678.448 -1.51871 0.421078 0
M  V30 6727 C 679.696 -2.01539 -0.150492 0
M  V30 6728 C 680.017 -1.30803 -1.44623 0
M  V30 6729 O 679.287 -0.437568 -1.90951 0
M  V30 6730 H 677.867 -0.744698 -0.0586041 0
M  V30 6731 H 680.529 -1.8668 0.560059 0
M  V30 6732 H 679.625 -3.10264 -0.338068 0
M  V30 6733 N 679.926 -0.151884 -1.56866 0
M  V30 6734 C 681.174 0.497021 -1.95893 0
M  V30 6735 C 681.495 1.65078 -1.03799 0
M  V30 6736 O 680.765 1.95642 -0.10049 0
M  V30 6737 H 679.345 0.186603 -0.723318 0
M  V30 6738 H 682.007 -0.228525 -1.93556 0
M  V30 6739 H 681.103 0.869933 -2.99731 0
M  V30 6740 N 681.404 1.57128 0.121893 0
M  V30 6741 C 682.652 1.84335 0.828548 0
M  V30 6742 C 682.973 0.736632 1.80551 0
M  V30 6743 O 682.243 -0.23962 1.94429 0
M  V30 6744 H 680.823 0.680108 0.30897 0
M  V30 6745 H 683.485 1.9459 0.109906 0
M  V30 6746 H 682.581 2.80152 1.37554 0
M  V30 6747 N 682.882 -0.391992 1.52647 0
M  V30 6748 C 684.13 -1.13507 1.67214 0
M  V30 6749 C 684.451 -1.90575 0.41304 0
M  V30 6750 O 683.721 -1.87348 -0.572498 0
M  V30 6751 H 682.301 -0.422013 0.616372 0
M  V30 6752 H 684.963 -0.44502 1.89751 0
M  V30 6753 H 684.059 -1.83964 2.52118 0
M  V30 6754 N 684.36 -1.4356 -0.65026 0
M  V30 6755 C 685.776 -1.27025 -0.966269 0
M  V30 6756 C 685.976 -0.192117 -2.00582 0
M  V30 6757 O 685.032 0.428459 -2.48838 0
M  V30 6758 C 686.345 -2.63556 -1.44772 0
M  V30 6759 C 687.893 -2.71111 -1.56421 0
M  V30 6760 C 688.368 -4.08067 -2.07956 0
M  V30 6761 N 689.859 -4.10146 -2.15254 0
M  V30 6762 C 690.594 -5.12952 -2.56258 0
M  V30 6763 N 690.09 -6.26129 -2.96537 0
M  V30 6764 N 691.883 -5.00306 -2.56224 0
M  V30 6765 H 684.034 -2.12367 0.0375758 0
M  V30 6766 H 686.297 -0.946894 -0.0457782 0
M  V30 6767 H 686.003 -3.43429 -0.758271 0
M  V30 6768 H 685.877 -2.89152 -2.42221 0
M  V30 6769 H 688.264 -1.91569 -2.24467 0
M  V30 6770 H 688.345 -2.49277 -0.573967 0
M  V30 6771 H 687.989 -4.88077 -1.40511 0
M  V30 6772 H 687.919 -4.27266 -3.07817 0
M  V30 6773 H 690.41 -3.28453 -1.86887 0
M  V30 6774 H 690.723 -7.00403 -3.26582 0
M  V30 6775 H 689.068 -6.29597 -2.94334 0
M  V30 6776 H 692.259 -4.10952 -2.24135 0
M  V30 6777 H 692.432 -5.80553 -2.87857 0
M  V30 6778 N 685.838 0.888903 -1.30139 0
M  V30 6779 C 687.086 1.63713 -1.18501 0
M  V30 6780 C 687.407 1.9324 0.261399 0
M  V30 6781 O 686.677 1.56608 1.17689 0
M  V30 6782 H 685.257 0.606861 -0.435579 0
M  V30 6783 H 687.919 1.06525 -1.63213 0
M  V30 6784 H 687.015 2.58894 -1.743 0
M  V30 6785 N 687.317 1.12792 1.10072 0
M  V30 6786 C 688.565 0.883796 1.81751 0
M  V30 6787 C 688.886 -0.591891 1.858 0
M  V30 6788 O 688.156 -1.43017 1.33876 0
M  V30 6789 H 686.736 0.323978 0.673088 0
M  V30 6790 H 689.398 1.42314 1.33164 0
M  V30 6791 H 688.494 1.26863 2.85153 0
M  V30 6792 N 688.795 -1.27931 0.920396 0
M  V30 6793 C 690.043 -1.94304 0.555906 0
M  V30 6794 C 690.364 -1.72753 -0.904519 0
M  V30 6795 O 689.634 -1.07104 -1.64029 0
M  V30 6796 H 688.214 -0.719001 0.202599 0
M  V30 6797 H 690.876 -1.55785 1.1712 0
M  V30 6798 H 689.972 -3.02806 0.755981 0
M  V30 6799 N 690.273 -0.685099 -1.4193 0
M  V30 6800 C 691.498 -0.218842 -2.06242 0
M  V30 6801 C 691.923 1.11923 -1.51178 0
M  V30 6802 O 691.281 1.69837 -0.634446 0
M  V30 6803 C 691.329 -0.175592 -3.60172 0
M  V30 6804 O 690.433 0.852776 -4.03487 0
M  V30 6805 H 689.774 -0.109531 -0.654904 0
M  V30 6806 H 692.304 -0.937013 -1.81882 0
M  V30 6807 H 692.314 -0.00291151 -4.08 0
M  V30 6808 H 690.989 -1.15222 -3.99621 0
M  V30 6809 H 689.566 0.650301 -3.67186 0
M  V30 6810 N 691.751 1.51645 -0.429126 0
M  V30 6811 C 692.998 2.02015 0.140079 0
M  V30 6812 C 693.326 1.31374 1.43427 0
M  V30 6813 O 692.581 0.414779 1.91254 0
M  V30 6814 C 692.88 3.54989 0.414472 0
M  V30 6815 C 692.546 4.43874 -0.792911 0
M  V30 6816 C 691.208 4.67887 -1.12404 0
M  V30 6817 C 693.56 4.96074 -1.59875 0
M  V30 6818 C 690.888 5.41348 -2.26184 0
M  V30 6819 C 693.24 5.70782 -2.72747 0
M  V30 6820 C 691.904 5.93062 -3.06324 0
M  V30 6821 H 691.174 0.739225 0.0512585 0
M  V30 6822 H 693.821 1.82675 -0.574641 0
M  V30 6823 H 692.126 3.72615 1.21099 0
M  V30 6824 H 693.823 3.91489 0.868173 0
M  V30 6825 H 690.413 4.25374 -0.524871 0
M  V30 6826 H 694.597 4.77412 -1.35614 0
M  V30 6827 H 689.853 5.56815 -2.52522 0
M  V30 6828 H 694.027 6.10221 -3.35564 0
M  V30 6829 H 691.654 6.49764 -3.94602 0
M  V30 6830 N 693.229 0.160201 1.56784 0
M  V30 6831 C 694.477 -0.486625 1.96154 0
M  V30 6832 C 694.798 -1.64525 1.04673 0
M  V30 6833 O 694.068 -1.95586 0.110864 0
M  V30 6834 H 692.648 -0.182764 0.724297 0
M  V30 6835 H 695.31 0.238787 1.93432 0
M  V30 6836 H 694.406 -0.854025 3.00188 0
M  V30 6837 N 694.707 -1.5719 -0.113559 0
M  V30 6838 C 695.955 -1.84772 -0.818761 0
M  V30 6839 C 696.276 -0.746196 -1.80158 0
M  V30 6840 O 695.546 0.229305 -1.94553 0
M  V30 6841 H 694.126 -0.681737 -0.305359 0
M  V30 6842 H 696.788 -1.94645 -0.0995845 0
M  V30 6843 H 695.884 -2.80878 -1.36067 0
M  V30 6844 N 696.185 0.383891 -1.52853 0
M  V30 6845 C 697.433 1.12619 -1.67814 0
M  V30 6846 C 697.754 1.90354 -0.423141 0
M  V30 6847 O 697.024 1.87649 0.562554 0
M  V30 6848 H 695.604 0.418738 -0.618601 0
M  V30 6849 H 698.266 0.43495 -1.89985 0
M  V30 6850 H 697.362 1.82624 -2.5309 0
M  V30 6851 N 697.663 1.43903 0.642637 0
M  V30 6852 C 698.893 1.49323 1.4278 0
M  V30 6853 C 699.301 0.113058 1.88862 0
M  V30 6854 O 698.644 -0.889089 1.60751 0
M  V30 6855 C 698.706 2.3861 2.68897 0
M  V30 6856 C 698.37 3.85976 2.44687 0
M  V30 6857 C 699.367 4.7681 2.07239 0
M  V30 6858 C 697.052 4.30567 2.58683 0
M  V30 6859 C 699.046 6.10234 1.841 0
M  V30 6860 C 696.733 5.64042 2.35159 0
M  V30 6861 C 697.731 6.53693 1.97925 0
M  V30 6862 O 697.419 7.84698 1.74654 0
M  V30 6863 H 697.151 0.509109 0.444729 0
M  V30 6864 H 699.705 1.89425 0.794195 0
M  V30 6865 H 697.935 1.93415 3.34855 0
M  V30 6866 H 699.624 2.35112 3.30873 0
M  V30 6867 H 700.39 4.43635 1.95993 0
M  V30 6868 H 696.269 3.61054 2.86637 0
M  V30 6869 H 699.813 6.80171 1.54962 0
M  V30 6870 H 695.71 5.96782 2.46011 0
M  V30 6871 H 696.478 7.96382 1.88993 0
M  V30 6872 N 699.141 -0.881989 1.30609 0
M  V30 6873 C 700.389 -1.63082 1.19368 0
M  V30 6874 C 700.71 -1.93376 -0.251147 0
M  V30 6875 O 699.98 -1.5723 -1.16857 0
M  V30 6876 H 698.56 -0.604542 0.438791 0
M  V30 6877 H 701.222 -1.05658 1.63776 0
M  V30 6878 H 700.318 -2.57966 1.7567 0
M  V30 6879 N 700.619 -1.13374 -1.09472 0
M  V30 6880 C 701.867 -0.893422 -1.8128 0
M  V30 6881 C 702.188 0.582029 -1.86111 0
M  V30 6882 O 701.458 1.42305 -1.34633 0
M  V30 6883 H 700.038 -0.327543 -0.67136 0
M  V30 6884 H 702.7 -1.43018 -1.32408 0
M  V30 6885 H 701.796 -1.28374 -2.84476 0
M  V30 6886 N 702.098 1.27442 -0.927168 0
M  V30 6887 C 703.346 1.94007 -0.566203 0
M  V30 6888 C 703.667 1.7323 0.895345 0
M  V30 6889 O 702.937 1.07973 1.63459 0
M  V30 6890 H 701.517 0.717917 -0.206409 0
M  V30 6891 H 704.179 1.55161 -1.17945 0
M  V30 6892 H 703.275 3.02401 -0.772028 0
M  V30 6893 N 703.576 0.692616 1.41565 0
M  V30 6894 C 704.801 0.229776 2.06123 0
M  V30 6895 C 705.226 -1.11119 1.5177 0
M  V30 6896 O 704.584 -1.69498 0.643444 0
M  V30 6897 C 704.632 0.19469 3.60074 0
M  V30 6898 O 703.736 -0.831366 4.03933 0
M  V30 6899 H 703.077 0.113002 0.654314 0
M  V30 6900 H 705.607 0.946645 1.81383 0
M  V30 6901 H 705.617 0.0245487 4.07993 0
M  V30 6902 H 704.292 1.17339 3.99004 0
M  V30 6903 H 702.869 -0.630819 3.67526 0
M  V30 6904 N 705.054 -1.51416 0.437162 0
M  V30 6905 C 706.279 -2.0699 -0.130424 0
M  V30 6906 C 706.704 -1.30249 -1.35709 0
M  V30 6907 O 706.062 -0.340388 -1.78076 0
M  V30 6908 C 706.11 -3.5801 -0.43142 0
M  V30 6909 O 705.214 -3.8345 -1.5179 0
M  V30 6910 H 704.555 -0.663997 -0.00194339 0
M  V30 6911 H 707.085 -1.95029 0.618445 0
M  V30 6912 H 707.095 -4.02261 -0.681926 0
M  V30 6913 H 705.77 -4.13291 0.465137 0
M  V30 6914 H 704.347 -3.51062 -1.25737 0
M  V30 6915 N 706.532 -0.168513 -1.56696 0
M  V30 6916 C 707.78 0.476216 -1.96409 0
M  V30 6917 C 708.101 1.63968 -1.05544 0
M  V30 6918 O 707.371 1.95525 -0.121235 0
M  V30 6919 H 705.951 0.178921 -0.725256 0
M  V30 6920 H 708.613 -0.249042 -1.93302 0
M  V30 6921 H 707.709 0.838094 -3.00637 0
M  V30 6922 N 708.01 1.57248 0.105221 0
M  V30 6923 C 709.258 1.85204 0.808951 0
M  V30 6924 C 709.579 0.75574 1.7976 0
M  V30 6925 O 708.849 -0.218984 1.94672 0
M  V30 6926 H 707.429 0.683346 0.301739 0
M  V30 6927 H 710.091 1.94695 0.0892605 0
M  V30 6928 H 709.187 2.81595 1.34575 0
M  V30 6929 N 709.488 -0.375779 1.53054 0
M  V30 6930 C 710.736 -1.11727 1.68409 0
M  V30 6931 C 711.057 -1.90127 0.43323 0
M  V30 6932 O 710.327 -1.87945 -0.552595 0
M  V30 6933 H 708.907 -0.415451 0.620813 0
M  V30 6934 H 711.569 -0.424869 1.90213 0
M  V30 6935 H 710.665 -1.8128 2.54055 0
M  V30 6936 N 710.966 -1.44241 -0.634997 0
M  V30 6937 C 712.191 -1.50516 -1.42687 0
M  V30 6938 C 712.616 -0.129864 -1.87651 0
M  V30 6939 O 711.974 0.880164 -1.58502 0
M  V30 6940 C 712.022 -2.4714 -2.62591 0
M  V30 6941 O 711.126 -1.97025 -3.62291 0
M  V30 6942 H 710.467 -0.50841 -0.427101 0
M  V30 6943 H 712.997 -1.89337 -0.775408 0
M  V30 6944 H 713.007 -2.65048 -3.10183 0
M  V30 6945 H 711.682 -3.47039 -2.29209 0
M  V30 6946 H 710.259 -1.88866 -3.21534 0
M  V30 6947 N 712.444 0.87505 -1.31075 0
M  V30 6948 C 713.669 1.66583 -1.23551 0
M  V30 6949 C 714.094 1.87067 0.19686 0
M  V30 6950 O 713.452 1.40877 1.1412 0
M  V30 6951 C 713.5 3.01401 -1.97965 0
M  V30 6952 O 712.604 3.90923 -1.31351 0
M  V30 6953 H 711.945 0.508645 -0.426821 0
M  V30 6954 H 714.475 1.09139 -1.7306 0
M  V30 6955 H 714.485 3.51374 -2.07366 0
M  V30 6956 H 713.16 2.85812 -3.02133 0
M  V30 6957 H 711.737 3.49369 -1.30368 0
M  V30 6958 N 713.922 1.13953 1.08869 0
M  V30 6959 C 715.17 0.903023 1.80803 0
M  V30 6960 C 715.491 -0.572151 1.86417 0
M  V30 6961 O 714.761 -1.41589 1.35386 0
M  V30 6962 H 713.341 0.331099 0.669614 0
M  V30 6963 H 716.003 1.43719 1.31647 0
M  V30 6964 H 715.099 1.29881 2.83791 0
M  V30 6965 N 715.4 -1.26948 0.933913 0
M  V30 6966 C 716.648 -1.93704 0.576484 0
M  V30 6967 C 716.969 -1.73702 -0.886145 0
M  V30 6968 O 716.239 -1.08838 -1.62884 0
M  V30 6969 H 714.819 -0.716812 0.210214 0
M  V30 6970 H 717.481 -1.54534 1.18766 0
M  V30 6971 H 716.577 -3.01987 0.788055 0
M  V30 6972 N 716.879 -0.700114 -1.41195 0
M  V30 6973 C 718.127 -0.232546 -2.00758 0
M  V30 6974 C 718.448 1.1734 -1.55745 0
M  V30 6975 O 717.718 1.79262 -0.790058 0
M  V30 6976 H 716.298 -0.0829845 -0.742376 0
M  V30 6977 H 718.96 -0.902289 -1.72756 0
M  V30 6978 H 718.056 -0.253521 -3.11069 0
M  V30 6979 N 718.357 1.51182 -0.445186 0
M  V30 6980 C 719.307 2.24804 0.380394 0
M  V30 6981 C 720.291 1.27344 0.983482 0
M  V30 6982 O 721.483 1.52392 0.900322 0
M  V30 6983 C 718.612 3.09922 1.4766 0
M  V30 6984 C 717.698 4.14816 0.882517 0
M  V30 6985 N 718.089 5.05797 0.0183278 0
M  V30 6986 C 716.387 4.30938 1.14927 0
M  V30 6987 C 717.088 5.8084 -0.316152 0
M  V30 6988 N 716.064 5.42759 0.302214 0
M  V30 6989 H 719.866 2.92508 -0.285737 0
M  V30 6990 H 717.38 1.60342 -0.257733 0
M  V30 6991 H 719.377 3.61249 2.08098 0
M  V30 6992 H 718.037 2.43763 2.14498 0
M  V30 6993 H 719.048 5.16725 -0.348679 0
M  V30 6994 H 715.725 3.76005 1.81457 0
M  V30 6995 H 717.115 6.64115 -1.01986 0
M  V30 6996 N 719.835 0.176821 1.56605 0
M  V30 6997 C 721.083 -0.465793 1.96659 0
M  V30 6998 C 721.404 -1.63406 1.06412 0
M  V30 6999 O 720.674 -1.95457 0.131603 0
M  V30 7000 H 719.254 -0.175072 0.726195 0
M  V30 7001 H 721.916 0.25929 1.93168 0
M  V30 7002 H 721.012 -0.822138 3.01077 0
M  V30 7003 N 721.313 -1.57302 -0.09688 0
M  V30 7004 C 722.561 -1.8563 -0.799117 0
M  V30 7005 C 722.882 -0.765263 -1.79356 0
M  V30 7006 O 722.152 0.208657 -1.94786 0
M  V30 7007 H 720.732 -0.684937 -0.298111 0
M  V30 7008 H 723.394 -1.9474 -0.0789341 0
M  V30 7009 H 722.49 -2.82305 -1.3308 0
M  V30 7010 N 722.791 0.367657 -1.53252 0
M  V30 7011 C 724.039 1.10832 -1.68999 0
M  V30 7012 C 724.36 1.89894 -0.443306 0
M  V30 7013 O 723.63 1.88235 0.54262 0
M  V30 7014 H 722.21 0.412153 -0.623008 0
M  V30 7015 H 724.872 0.414775 -1.90435 0
M  V30 7016 H 723.968 1.7993 -2.55013 0
M  V30 7017 N 724.269 1.44576 0.627338 0
M  V30 7018 C 725.219 1.48168 1.73293 0
M  V30 7019 C 726.203 0.347045 1.57113 0
M  V30 7020 O 727.395 0.592605 1.66785 0
M  V30 7021 C 724.524 1.43236 3.11991 0
M  V30 7022 C 723.61 2.61828 3.33627 0
M  V30 7023 N 724.001 3.87053 3.25612 0
M  V30 7024 C 722.299 2.57104 3.64436 0
M  V30 7025 C 723 4.66093 3.48041 0
M  V30 7026 N 721.976 3.97228 3.71095 0
M  V30 7027 H 725.778 2.42832 1.6556 0
M  V30 7028 H 723.292 1.39592 0.829934 0
M  V30 7029 H 725.289 1.43893 3.91281 0
M  V30 7030 H 723.949 0.496133 3.20887 0
M  V30 7031 H 724.96 4.18966 3.04447 0
M  V30 7032 H 721.637 1.72295 3.8029 0
M  V30 7033 H 723.027 5.75117 3.47404 0
M  V30 7034 N 725.747 -0.868086 1.31537 0
M  V30 7035 C 726.995 -1.61807 1.21091 0
M  V30 7036 C 727.316 -1.93631 -0.230623 0
M  V30 7037 O 726.586 -1.5846 -1.15183 0
M  V30 7038 H 725.166 -0.599854 0.445178 0
M  V30 7039 H 727.828 -1.03915 1.64887 0
M  V30 7040 H 726.924 -2.56088 1.78396 0
M  V30 7041 N 727.225 -1.14528 -1.08264 0
M  V30 7042 C 728.473 -0.912599 -1.80322 0
M  V30 7043 C 728.794 0.562256 -1.86718 0
M  V30 7044 O 728.064 1.40869 -1.36135 0
M  V30 7045 H 726.644 -0.334645 -0.667849 0
M  V30 7046 H 729.306 -1.44415 -1.30883 0
M  V30 7047 H 728.402 -1.31384 -2.83098 0
M  V30 7048 N 728.703 1.26451 -0.940633 0
M  V30 7049 C 729.928 1.98407 -0.60412 0
M  V30 7050 C 730.353 1.69584 0.81382 0
M  V30 7051 O 729.711 0.943553 1.54812 0
M  V30 7052 C 729.759 3.50387 -0.852136 0
M  V30 7053 O 728.863 4.1233 0.076013 0
M  V30 7054 H 728.204 0.622466 -0.231153 0
M  V30 7055 H 730.734 1.60932 -1.26342 0
M  V30 7056 H 730.744 4.00614 -0.772816 0
M  V30 7057 H 729.419 3.70696 -1.88566 0
M  V30 7058 H 727.996 3.7286 -0.0543187 0
M  V30 7059 N 730.181 0.707592 1.40822 0
M  V30 7060 C 731.406 0.251626 2.05868 0
M  V30 7061 C 731.831 -1.09503 1.5294 0
M  V30 7062 O 731.189 -1.68806 0.661385 0
M  V30 7063 C 731.237 0.23287 3.59847 0
M  V30 7064 O 730.341 -0.788477 4.04792 0
M  V30 7065 H 729.682 0.119936 0.653078 0
M  V30 7066 H 732.212 0.96583 1.80369 0
M  V30 7067 H 732.222 0.0678204 4.07944 0
M  V30 7068 H 730.897 1.21565 3.97737 0
M  V30 7069 H 729.474 -0.591802 3.68174 0
M  V30 7070 N 731.66 -1.50943 0.453197 0
M  V30 7071 C 732.908 -2.01813 -0.107709 0
M  V30 7072 C 733.229 -1.33841 -1.41816 0
M  V30 7073 O 732.499 -0.477973 -1.8998 0
M  V30 7074 H 731.079 -0.745773 -0.0427948 0
M  V30 7075 H 733.741 -1.8545 0.599531 0
M  V30 7076 H 732.837 -3.10911 -0.27218 0
M  V30 7077 N 733.138 -0.185124 -1.56509 0
M  V30 7078 C 734.386 0.455357 -1.96903 0
M  V30 7079 C 734.707 1.62839 -1.07277 0
M  V30 7080 O 733.977 1.95385 -0.141966 0
M  V30 7081 H 732.557 0.171218 -0.727113 0
M  V30 7082 H 735.219 -0.26953 -1.93027 0
M  V30 7083 H 734.315 0.80616 -3.01509 0
M  V30 7084 N 734.616 1.57351 0.0885366 0
M  V30 7085 C 735.864 1.86051 0.789262 0
M  V30 7086 C 736.185 0.774763 1.78948 0
M  V30 7087 O 735.455 -0.198324 1.94894 0
M  V30 7088 H 734.035 0.686508 0.294475 0
M  V30 7089 H 736.697 1.94779 0.0686055 0
M  V30 7090 H 735.793 2.83007 1.31581 0
M  V30 7091 N 736.094 -0.359525 1.53444 0
M  V30 7092 C 737.324 -1.12036 1.73585 0
M  V30 7093 C 737.732 -1.83335 0.467438 0
M  V30 7094 O 737.075 -1.74641 -0.569753 0
M  V30 7095 C 737.137 -2.19036 2.85068 0
M  V30 7096 C 736.801 -1.67451 4.25217 0
M  V30 7097 C 737.798 -1.13534 5.07352 0
M  V30 7098 C 735.483 -1.72781 4.71648 0
M  V30 7099 C 737.477 -0.656321 6.34012 0
M  V30 7100 C 735.164 -1.2449 5.98285 0
M  V30 7101 C 736.162 -0.710068 6.79299 0
M  V30 7102 O 735.85 -0.234314 8.03558 0
M  V30 7103 H 735.582 -0.340662 0.583888 0
M  V30 7104 H 738.136 -0.422452 2.01009 0
M  V30 7105 H 736.366 -2.92338 2.53131 0
M  V30 7106 H 738.055 -2.80559 2.93328 0
M  V30 7107 H 738.821 -1.08751 4.7265 0
M  V30 7108 H 734.7 -2.13351 4.08659 0
M  V30 7109 H 738.244 -0.238193 6.97193 0
M  V30 7110 H 734.141 -1.28969 6.32485 0
M  V30 7111 H 734.909 -0.353084 8.17738 0
M  V30 7112 N 737.572 -1.44907 -0.619662 0
M  V30 7113 C 738.82 -1.47999 -1.37625 0
M  V30 7114 C 739.141 -0.118295 -1.94641 0
M  V30 7115 O 738.411 0.85086 -1.76457 0
M  V30 7116 H 736.991 -0.544993 -0.510873 0
M  V30 7117 H 739.653 -1.80772 -0.728522 0
M  V30 7118 H 738.749 -2.21196 -2.20179 0
M  V30 7119 N 739.05 0.861098 -1.31996 0
M  V30 7120 C 740.298 1.61162 -1.21947 0
M  V30 7121 C 740.619 1.93751 0.220351 0
M  V30 7122 O 739.889 1.59069 1.14341 0
M  V30 7123 H 738.469 0.597485 -0.448353 0
M  V30 7124 H 741.131 1.03039 -1.65436 0
M  V30 7125 H 740.227 2.55138 -1.79752 0
M  V30 7126 N 740.528 1.15101 1.07655 0
M  V30 7127 C 741.776 0.922149 1.79836 0
M  V30 7128 C 742.097 -0.552346 1.87014 0
M  V30 7129 O 741.367 -1.40145 1.3688 0
M  V30 7130 H 739.947 0.338182 0.666064 0
M  V30 7131 H 742.609 1.45107 1.30115 0
M  V30 7132 H 741.705 1.32883 2.82398 0
M  V30 7133 N 742.006 -1.2595 0.947325 0
M  V30 7134 C 743.231 -1.98083 0.614633 0
M  V30 7135 C 743.656 -1.70013 -0.804815 0
M  V30 7136 O 743.014 -0.95175 -1.54309 0
M  V30 7137 C 743.062 -3.4993 0.870706 0
M  V30 7138 O 742.166 -4.12364 -0.0541451 0
M  V30 7139 H 741.507 -0.621232 0.234451 0
M  V30 7140 H 744.037 -1.60259 1.27193 0
M  V30 7141 H 744.047 -4.00198 0.794051 0
M  V30 7142 H 742.722 -3.69691 1.90529 0
M  V30 7143 H 741.299 -3.72826 0.0740917 0
M  V30 7144 N 743.484 -0.715051 -1.40445 0
M  V30 7145 C 744.709 -0.26254 -2.05732 0
M  V30 7146 C 745.134 1.08691 -1.53519 0
M  V30 7147 O 744.492 1.68453 -0.670328 0
M  V30 7148 C 744.54 -0.25195 -3.59719 0
M  V30 7149 O 743.644 0.766998 -4.05205 0
M  V30 7150 H 742.985 -0.123398 -0.652433 0
M  V30 7151 H 745.515 -0.975382 -1.79854 0
M  V30 7152 H 745.525 -0.0894537 -4.07902 0
M  V30 7153 H 744.2 -1.23672 -3.97087 0
M  V30 7154 H 742.777 0.572269 -3.68483 0
M  V30 7155 N 744.962 1.50701 -0.461195 0
M  V30 7156 C 746.21 2.01867 0.0970051 0
M  V30 7157 C 746.531 1.34591 1.41104 0
M  V30 7158 O 745.801 0.488041 1.89723 0
M  V30 7159 H 744.381 0.74599 0.0388392 0
M  V30 7160 H 747.043 1.85129 -0.609357 0
M  V30 7161 H 746.139 3.11051 0.255688 0
M  V30 7162 N 746.441 0.193421 1.56409 0
M  V30 7163 C 747.689 -0.444908 1.97142 0
M  V30 7164 C 748.01 -1.62268 1.08139 0
M  V30 7165 O 747.28 -1.95307 0.152326 0
M  V30 7166 H 745.86 -0.16736 0.728011 0
M  V30 7167 H 748.522 0.279763 1.92882 0
M  V30 7168 H 747.618 -0.790159 3.01932 0
M  V30 7169 N 747.919 -1.57396 -0.0801906 0
M  V30 7170 C 749.167 -1.86467 -0.779384 0
M  V30 7171 C 749.488 -0.784243 -1.78535 0
M  V30 7172 O 748.758 0.187986 -1.94996 0
M  V30 7173 H 747.338 -0.68806 -0.29083 0
M  V30 7174 H 750 -1.94813 -0.0582749 0
M  V30 7175 H 749.096 -2.83701 -1.30078 0
M  V30 7176 N 749.397 0.351382 -1.53633 0
M  V30 7177 C 750.622 1.11718 -1.74739 0
M  V30 7178 C 751.047 1.81829 -0.481657 0
M  V30 7179 O 750.405 1.72264 0.565233 0
M  V30 7180 C 750.453 2.11234 -2.92254 0
M  V30 7181 O 749.557 3.186 -2.61855 0
M  V30 7182 H 748.898 0.323482 -0.579875 0
M  V30 7183 H 751.428 0.404167 -2.00568 0
M  V30 7184 H 751.438 2.54591 -3.18822 0
M  V30 7185 H 750.113 1.59599 -3.84058 0
M  V30 7186 H 748.69 2.80115 -2.4615 0
M  V30 7187 N 750.875 1.45233 0.611969 0
M  V30 7188 C 752.1 1.52767 1.40274 0
M  V30 7189 C 752.525 0.159701 1.87421 0
M  V30 7190 O 751.883 -0.854837 1.59882 0
M  V30 7191 C 751.931 2.51286 2.58626 0
M  V30 7192 O 751.035 2.02764 3.59111 0
M  V30 7193 H 750.376 0.515141 0.418958 0
M  V30 7194 H 752.906 1.90547 0.745188 0
M  V30 7195 H 752.916 2.69949 3.05927 0
M  V30 7196 H 751.591 3.50641 2.23659 0
M  V30 7197 H 750.168 1.93957 3.18489 0
M  V30 7198 N 752.353 -0.854086 1.3245 0
M  V30 7199 C 753.601 -1.60513 1.228 0
M  V30 7200 C 753.922 -1.93865 -0.210073 0
M  V30 7201 O 753.192 -1.59673 -1.13496 0
M  V30 7202 H 751.772 -0.595099 0.451516 0
M  V30 7203 H 754.434 -1.0216 1.6598 0
M  V30 7204 H 753.53 -2.54182 1.81102 0
M  V30 7205 N 753.831 -1.1567 -1.07043 0
M  V30 7206 C 755.079 -0.931673 -1.79344 0
M  V30 7207 C 755.4 0.542421 -1.87304 0
M  V30 7208 O 754.67 1.39418 -1.37621 0
M  V30 7209 H 753.25 -0.34171 -0.664262 0
M  V30 7210 H 755.912 -1.45795 -1.29344 0
M  V30 7211 H 755.008 -1.34379 -2.81689 0
M  V30 7212 N 755.309 1.25446 -0.953992 0
M  V30 7213 C 756.557 1.92762 -0.607227 0
M  V30 7214 C 756.878 1.7509 0.858399 0
M  V30 7215 O 756.148 1.11416 1.61132 0
M  V30 7216 H 754.728 0.713377 -0.221591 0
M  V30 7217 H 757.39 1.52625 -1.21209 0
M  V30 7218 H 756.486 3.00695 -0.835998 0
M  V30 7219 N 756.787 0.722489 1.40064 0
M  V30 7220 C 758.017 0.274439 2.04769 0
M  V30 7221 C 758.425 -1.09125 1.54559 0
M  V30 7222 O 757.768 -1.69834 0.700149 0
M  V30 7223 C 757.83 0.184091 3.59028 0
M  V30 7224 C 757.494 1.48619 4.32159 0
M  V30 7225 C 758.491 2.42947 4.59644 0
M  V30 7226 C 756.176 1.74703 4.7094 0
M  V30 7227 C 758.17 3.616 5.24904 0
M  V30 7228 C 755.857 2.93636 5.3593 0
M  V30 7229 C 756.855 3.86907 5.62843 0
M  V30 7230 O 756.543 5.03753 6.26489 0
M  V30 7231 H 756.275 0.119847 0.665292 0
M  V30 7232 H 758.829 0.983352 1.80331 0
M  V30 7233 H 757.059 -0.580821 3.82313 0
M  V30 7234 H 758.748 -0.230306 4.05246 0
M  V30 7235 H 759.514 2.24062 4.30141 0
M  V30 7236 H 755.393 1.02955 4.49356 0
M  V30 7237 H 758.937 4.34418 5.45827 0
M  V30 7238 H 754.834 3.12428 5.64853 0
M  V30 7239 H 755.602 5.03922 6.44984 0
M  V30 7240 N 758.265 -1.50454 0.469181 0
M  V30 7241 C 759.513 -2.01916 -0.0862982 0
M  V30 7242 C 759.834 -1.35337 -1.40388 0
M  V30 7243 O 759.104 -0.498096 -1.89462 0
M  V30 7244 H 757.684 -0.746185 -0.0348825 0
M  V30 7245 H 760.346 -1.84804 0.619167 0
M  V30 7246 H 759.442 -3.11182 -0.239189 0
M  V30 7247 N 759.743 -0.201713 -1.56304 0
M  V30 7248 C 760.991 0.434447 -1.97375 0
M  V30 7249 C 761.312 1.61692 -1.08998 0
M  V30 7250 O 760.582 1.95223 -0.162682 0
M  V30 7251 H 759.162 0.163497 -0.728888 0
M  V30 7252 H 761.824 -0.289988 -1.92731 0
M  V30 7253 H 760.92 0.774136 -3.02347 0
M  V30 7254 N 761.222 1.57436 0.0718424 0
M  V30 7255 C 762.47 1.86878 0.769484 0
M  V30 7256 C 762.791 0.7937 1.78116 0
M  V30 7257 O 762.061 -0.177642 1.95093 0
M  V30 7258 H 760.641 0.689593 0.287177 0
M  V30 7259 H 763.303 1.94841 0.0479427 0
M  V30 7260 H 762.399 2.84387 1.28572 0
M  V30 7261 N 762.7 -0.34323 1.53817 0
M  V30 7262 C 763.925 -1.1079 1.75329 0
M  V30 7263 C 764.35 -1.81571 0.491293 0
M  V30 7264 O 763.708 -1.72561 -0.556089 0
M  V30 7265 C 763.756 -2.09681 2.9337 0
M  V30 7266 O 762.86 -3.17207 2.63541 0
M  V30 7267 H 762.201 -0.320402 0.581583 0
M  V30 7268 H 764.731 -0.393525 2.0078 0
M  V30 7269 H 764.741 -2.52897 3.20168 0
M  V30 7270 H 763.416 -1.5756 3.84899 0
M  V30 7271 H 761.993 -2.78806 2.47632 0
M  V30 7272 N 764.178 -1.45556 -0.604258 0
M  V30 7273 C 765.403 -1.53509 -1.39462 0
M  V30 7274 C 765.828 -0.169638 -1.87333 0
M  V30 7275 O 765.186 0.846346 -1.60333 0
M  V30 7276 C 765.234 -2.52654 -2.5729 0
M  V30 7277 O 764.338 -2.04666 -3.5803 0
M  V30 7278 H 763.679 -0.517355 -0.416221 0
M  V30 7279 H 766.209 -1.90939 -0.735072 0
M  V30 7280 H 766.219 -2.71568 -3.04491 0
M  V30 7281 H 764.894 -3.51823 -2.21797 0
M  V30 7282 H 763.471 -1.95643 -3.17456 0
M  V30 7283 N 765.656 0.84705 -1.32902 0
M  V30 7284 C 766.881 1.63925 -1.27056 0
M  V30 7285 C 767.306 1.87443 0.157136 0
M  V30 7286 O 766.664 1.43266 1.11106 0
M  V30 7287 C 766.712 2.97134 -2.04313 0
M  V30 7288 O 765.816 3.88049 -1.39614 0
M  V30 7289 H 765.157 0.499477 -0.437514 0
M  V30 7290 H 767.687 1.05443 -1.75336 0
M  V30 7291 H 767.697 3.46896 -2.14772 0
M  V30 7292 H 766.372 2.79339 -3.08128 0
M  V30 7293 H 764.949 3.46525 -1.3775 0
M  V30 7294 N 767.134 1.16236 1.06428 0
M  V30 7295 C 768.382 0.941171 1.78847 0
M  V30 7296 C 768.703 -0.53248 1.87589 0
M  V30 7297 O 767.973 -1.38686 1.38358 0
M  V30 7298 H 766.553 0.345228 0.66244 0
M  V30 7299 H 769.215 1.46479 1.28569 0
M  V30 7300 H 768.311 1.35871 2.80972 0
M  V30 7301 N 768.612 -1.24939 0.960631 0
M  V30 7302 C 769.86 -1.92437 0.617441 0
M  V30 7303 C 770.181 -1.75543 -0.849101 0
M  V30 7304 O 769.451 -1.12269 -1.60538 0
M  V30 7305 H 768.031 -0.712192 0.225371 0
M  V30 7306 H 770.693 -1.5198 1.22017 0
M  V30 7307 H 769.789 -3.00247 0.851933 0
M  V30 7308 N 770.09 -0.729906 -1.39679 0
M  V30 7309 C 771.04 -0.0627678 -2.27914 0
M  V30 7310 C 772.024 0.717867 -1.43998 0
M  V30 7311 O 773.216 0.587713 -1.66958 0
M  V30 7312 C 770.345 0.847564 -3.32673 0
M  V30 7313 C 769.431 0.0613515 -4.24056 0
M  V30 7314 N 769.822 -0.962863 -4.96551 0
M  V30 7315 C 768.12 0.291773 -4.45045 0
M  V30 7316 C 768.821 -1.43652 -5.63683 0
M  V30 7317 N 767.797 -0.756044 -5.38317 0
M  V30 7318 H 771.599 -0.847545 -2.81414 0
M  V30 7319 H 769.113 -0.563776 -1.523 0
M  V30 7320 H 771.11 1.34094 -3.94746 0
M  V30 7321 H 769.77 1.63156 -2.80732 0
M  V30 7322 H 770.781 -1.34409 -5.00154 0
M  V30 7323 H 767.458 1.05097 -4.04056 0
M  V30 7324 H 768.848 -2.28835 -6.31731 0
M  V30 7325 N 771.568 1.50203 -0.477153 0
M  V30 7326 C 772.816 2.01959 0.0755889 0
M  V30 7327 C 773.137 1.3608 1.39668 0
M  V30 7328 O 772.407 0.508136 1.89195 0
M  V30 7329 H 770.987 0.74636 0.0309248 0
M  V30 7330 H 773.649 1.84473 -0.628959 0
M  V30 7331 H 772.745 3.11305 0.222683 0
M  V30 7332 N 773.046 0.209999 1.56195 0
M  V30 7333 C 774.294 -0.423974 1.97603 0
M  V30 7334 C 774.615 -1.61112 1.09854 0
M  V30 7335 O 773.885 -1.95134 0.173032 0
M  V30 7336 H 772.465 -0.159629 0.729745 0
M  V30 7337 H 775.127 0.300205 1.92574 0
M  V30 7338 H 774.223 -0.75809 3.02753 0
M  V30 7339 N 774.524 -1.57472 -0.0634922 0
M  V30 7340 C 775.749 -1.92273 -0.77756 0
M  V30 7341 C 776.174 -0.807141 -1.69902 0
M  V30 7342 O 775.532 0.239523 -1.79711 0
M  V30 7343 C 775.58 -3.26054 -1.54017 0
M  V30 7344 O 774.684 -3.15873 -2.65138 0
M  V30 7345 H 774.025 -0.629389 -0.211579 0
M  V30 7346 H 776.555 -2.04579 -0.0292523 0
M  V30 7347 H 776.565 -3.60127 -1.91763 0
M  V30 7348 H 775.24 -4.06824 -0.864128 0
M  V30 7349 H 773.817 -2.93373 -2.30189 0
M  V30 7350 N 776.003 0.335068 -1.53997 0
M  V30 7351 C 777.228 1.09859 -1.75914 0
M  V30 7352 C 777.653 1.81308 -0.500915 0
M  V30 7353 O 777.011 1.72854 0.54693 0
M  V30 7354 C 777.059 2.08122 -2.94478 0
M  V30 7355 O 776.163 3.15805 -2.65219 0
M  V30 7356 H 775.504 0.317313 -0.583274 0
M  V30 7357 H 778.034 0.382872 -2.00986 0
M  V30 7358 H 778.044 2.51195 -3.21504 0
M  V30 7359 H 776.719 1.55517 -3.8573 0
M  V30 7360 H 775.296 2.77489 -2.49107 0
M  V30 7361 N 777.481 1.45874 0.596531 0
M  V30 7362 C 778.706 1.54247 1.38646 0
M  V30 7363 C 779.131 0.179571 1.87241 0
M  V30 7364 O 778.489 -0.837831 1.6078 0
M  V30 7365 C 778.537 2.54015 2.55946 0
M  V30 7366 O 777.641 2.06561 3.5694 0
M  V30 7367 H 776.982 0.519555 0.413471 0
M  V30 7368 H 779.512 1.91327 0.724936 0
M  V30 7369 H 779.522 2.73179 3.03047 0
M  V30 7370 H 778.197 3.52994 2.19928 0
M  V30 7371 H 776.774 1.97324 3.16414 0
M  V30 7372 N 778.959 -0.83999 1.33349 0
M  V30 7373 C 780.207 -1.59202 1.24496 0
M  V30 7374 C 780.528 -1.94077 -0.189499 0
M  V30 7375 O 779.798 -1.60868 -1.11796 0
M  V30 7376 H 778.378 -0.590276 0.457802 0
M  V30 7377 H 781.04 -1.00394 1.67054 0
M  V30 7378 H 780.136 -2.52247 1.83788 0
M  V30 7379 N 780.437 -1.16799 -1.0581 0
M  V30 7380 C 781.685 -0.950642 -1.78346 0
M  V30 7381 C 782.006 0.522524 -1.87869 0
M  V30 7382 O 781.276 1.3795 -1.39092 0
M  V30 7383 H 779.856 -0.348736 -0.6606 0
M  V30 7384 H 782.518 -1.47158 -1.27791 0
M  V30 7385 H 781.614 -1.37359 -2.80248 0
M  V30 7386 N 781.915 1.24427 -0.967243 0
M  V30 7387 C 783.145 1.96256 -0.64554 0
M  V30 7388 C 783.553 1.71959 0.789098 0
M  V30 7389 O 782.896 0.999913 1.54102 0
M  V30 7390 C 782.958 3.49553 -0.839798 0
M  V30 7391 C 782.622 3.97548 -2.25399 0
M  V30 7392 C 783.619 4.07257 -3.23168 0
M  V30 7393 C 781.304 4.30884 -2.58156 0
M  V30 7394 C 783.298 4.49635 -4.51782 0
M  V30 7395 C 780.985 4.72946 -3.86996 0
M  V30 7396 C 781.983 4.82286 -4.83621 0
M  V30 7397 O 781.671 5.23409 -6.10162 0
M  V30 7398 H 781.403 0.632002 -0.239895 0
M  V30 7399 H 783.957 1.59224 -1.29757 0
M  V30 7400 H 782.187 3.86479 -0.130603 0
M  V30 7401 H 783.876 4.02591 -0.517249 0
M  V30 7402 H 784.642 3.8172 -2.9919 0
M  V30 7403 H 780.521 4.22833 -1.83666 0
M  V30 7404 H 784.065 4.5684 -5.27203 0
M  V30 7405 H 779.962 4.9793 -4.10775 0
M  V30 7406 H 780.73 5.4156 -6.13722 0
M  V30 7407 N 783.393 0.737304 1.3929 0
M  V30 7408 C 784.641 0.285691 2.00071 0
M  V30 7409 C 784.962 -1.13169 1.58801 0
M  V30 7410 O 784.232 -1.77104 0.837308 0
M  V30 7411 H 782.812 0.102638 0.739915 0
M  V30 7412 H 785.474 0.947775 1.70303 0
M  V30 7413 H 784.57 0.335906 3.10287 0
M  V30 7414 N 784.871 -1.49948 0.485112 0
M  V30 7415 C 786.119 -2.01996 -0.0648775 0
M  V30 7416 C 786.44 -1.36819 -1.38945 0
M  V30 7417 O 785.71 -0.518163 -1.88923 0
M  V30 7418 H 784.29 -0.746513 -0.0269662 0
M  V30 7419 H 786.952 -1.84136 0.638733 0
M  V30 7420 H 786.048 -3.11418 -0.20617 0
M  V30 7421 N 786.349 -0.21828 -1.56081 0
M  V30 7422 C 787.597 0.413488 -1.97825 0
M  V30 7423 C 787.918 1.60527 -1.10707 0
M  V30 7424 O 787.188 1.9504 -0.183378 0
M  V30 7425 H 785.768 0.155757 -0.730581 0
M  V30 7426 H 788.43 -0.310413 -1.92412 0
M  V30 7427 H 787.526 0.742024 -3.03151 0
M  V30 7428 N 787.827 1.57504 0.0551401 0
M  V30 7429 C 789.052 1.92682 0.767352 0
M  V30 7430 C 789.477 0.81614 1.69472 0
M  V30 7431 O 788.835 -0.229989 1.79835 0
M  V30 7432 C 788.883 3.26866 1.52286 0
M  V30 7433 O 787.987 3.17274 2.63459 0
M  V30 7434 H 787.328 0.630502 0.208238 0
M  V30 7435 H 789.858 2.04592 0.0184026 0
M  V30 7436 H 789.868 3.61138 1.8985 0
M  V30 7437 H 788.543 4.07276 0.842541 0
M  V30 7438 H 787.12 2.94589 2.2863 0
M  V30 7439 N 789.305 -0.326896 1.54172 0
M  V30 7440 C 790.53 -1.08924 1.76494 0
M  V30 7441 C 790.955 -1.81039 0.510523 0
M  V30 7442 O 790.313 -1.73141 -0.537756 0
M  V30 7443 C 790.361 -2.06558 2.95578 0
M  V30 7444 O 789.465 -3.14394 2.6689 0
M  V30 7445 H 788.806 -0.314216 0.584948 0
M  V30 7446 H 791.336 -0.372207 2.01186 0
M  V30 7447 H 791.346 -2.49487 3.22832 0
M  V30 7448 H 790.021 -1.53469 3.86549 0
M  V30 7449 H 788.598 -2.76164 2.50576 0
M  V30 7450 N 790.784 -1.46188 -0.588786 0
M  V30 7451 C 792.032 -1.50885 -1.34455 0
M  V30 7452 C 792.353 -0.159555 -1.94346 0
M  V30 7453 O 791.623 0.813239 -1.78222 0
M  V30 7454 H 790.203 -0.555707 -0.499198 0
M  V30 7455 H 792.865 -1.82277 -0.690014 0
M  V30 7456 H 791.961 -2.25816 -2.15438 0
M  V30 7457 N 792.262 0.832906 -1.33792 0
M  V30 7458 C 793.51 1.58539 -1.25338 0
M  V30 7459 C 793.831 1.94175 0.179204 0
M  V30 7460 O 793.101 1.61458 1.10941 0
M  V30 7461 H 791.681 0.58784 -0.460926 0
M  V30 7462 H 794.343 0.995064 -1.67584 0
M  V30 7463 H 793.439 2.51268 -1.85123 0
M  V30 7464 N 793.74 1.17359 1.05189 0
M  V30 7465 C 794.988 0.960087 1.77839 0
M  V30 7466 C 795.309 -0.512554 1.88143 0
M  V30 7467 O 794.579 -1.3721 1.39822 0
M  V30 7468 H 793.159 0.352234 0.658741 0
M  V30 7469 H 795.821 1.47834 1.27008 0
M  V30 7470 H 794.917 1.38843 2.79516 0
M  V30 7471 N 795.218 -1.23913 0.973828 0
M  V30 7472 C 796.466 -1.91771 0.637817 0
M  V30 7473 C 796.787 -1.76434 -0.830435 0
M  V30 7474 O 796.057 -1.13965 -1.59339 0
M  V30 7475 H 794.637 -0.709761 0.232912 0
M  V30 7476 H 797.299 -1.50677 1.23622 0
M  V30 7477 H 796.395 -2.99327 0.883731 0
M  V30 7478 N 796.696 -0.74468 -1.38897 0
M  V30 7479 C 797.944 -0.296298 -1.99916 0
M  V30 7480 C 798.265 1.12325 -1.59399 0
M  V30 7481 O 797.535 1.76658 -0.846689 0
M  V30 7482 H 796.115 -0.106561 -0.73936 0
M  V30 7483 H 798.777 -0.956793 -1.69798 0
M  V30 7484 H 797.873 -0.352356 -3.10105 0
M  V30 7485 N 798.174 1.49689 -0.493057 0
M  V30 7486 C 799.422 2.02027 0.0541642 0
M  V30 7487 C 799.743 1.37554 1.38217 0
M  V30 7488 O 799.013 0.528174 1.88646 0
M  V30 7489 H 797.593 0.746646 0.0230069 0
M  V30 7490 H 800.255 1.83795 -0.648489 0
M  V30 7491 H 799.351 3.11523 0.189652 0
M  V30 7492 N 799.652 0.226554 1.55963 0
M  V30 7493 C 800.882 -0.407915 2.02533 0
M  V30 7494 C 801.29 -1.53539 1.10554 0
M  V30 7495 O 800.633 -1.8338 0.108409 0
M  V30 7496 C 800.695 -0.996081 3.45425 0
M  V30 7497 C 800.359 -0.00341651 4.57 0
M  V30 7498 C 801.356 0.798782 5.13727 0
M  V30 7499 C 799.041 0.116786 5.02164 0
M  V30 7500 C 801.035 1.70784 6.14094 0
M  V30 7501 C 798.722 1.02937 6.02368 0
M  V30 7502 C 799.72 1.82344 6.5821 0
M  V30 7503 O 799.408 2.72067 7.56462 0
M  V30 7504 H 799.14 -0.103524 0.668026 0
M  V30 7505 H 801.694 0.341937 2.02534 0
M  V30 7506 H 799.924 -1.79512 3.42509 0
M  V30 7507 H 801.613 -1.53848 3.75614 0
M  V30 7508 H 802.379 0.716393 4.7968 0
M  V30 7509 H 798.258 -0.491172 4.58376 0
M  V30 7510 H 801.802 2.32807 6.57607 0
M  V30 7511 H 797.699 1.11276 6.35836 0
M  V30 7512 H 798.467 2.66199 7.74003 0
M  V30 7513 N 801.13 -1.57531 -0.0467866 0
M  V30 7514 C 802.378 -1.88078 -0.739656 0
M  V30 7515 C 802.699 -0.821936 -1.76831 0
M  V30 7516 O 801.969 0.146582 -1.95351 0
M  V30 7517 H 800.549 -0.694075 -0.276169 0
M  V30 7518 H 803.211 -1.94893 -0.0169391 0
M  V30 7519 H 802.307 -2.86396 -1.24031 0
M  V30 7520 N 802.608 0.318715 -1.54344 0
M  V30 7521 C 803.856 1.054 -1.72439 0
M  V30 7522 C 804.177 1.88388 -0.503495 0
M  V30 7523 O 803.447 1.89866 0.48246 0
M  V30 7524 H 802.027 0.392124 -0.635805 0
M  V30 7525 H 804.689 0.35398 -1.91659 0
M  V30 7526 H 803.785 1.71726 -2.60608 0
M  V30 7527 N 804.086 1.46499 0.581025 0
M  V30 7528 C 805.334 1.51596 1.33653 0
M  V30 7529 C 805.655 0.169859 1.94259 0
M  V30 7530 O 804.925 -0.803776 1.78651 0
M  V30 7531 H 803.505 0.558346 0.496244 0
M  V30 7532 H 806.167 1.8264 0.680338 0
M  V30 7533 H 805.263 2.26956 2.14237 0
M  V30 7534 N 805.565 -0.825799 1.34232 0
M  V30 7535 C 806.79 -1.61883 1.29648 0
M  V30 7536 C 807.215 -1.87669 -0.127295 0
M  V30 7537 O 806.573 -1.45016 -1.08813 0
M  V30 7538 C 806.621 -2.93846 2.09014 0
M  V30 7539 O 805.725 -3.85778 1.4577 0
M  V30 7540 H 805.066 -0.492454 0.445405 0
M  V30 7541 H 807.596 -1.02641 1.76992 0
M  V30 7542 H 807.606 -3.43435 2.20264 0
M  V30 7543 H 806.281 -2.74401 3.12533 0
M  V30 7544 H 804.858 -3.4429 1.43245 0
M  V30 7545 N 807.043 -1.17915 -1.04565 0
M  V30 7546 C 808.268 -0.996749 -1.81878 0
M  V30 7547 C 808.693 0.450169 -1.82634 0
M  V30 7548 O 808.051 1.32268 -1.23995 0
M  V30 7549 C 808.099 -1.55005 -3.25585 0
M  V30 7550 O 807.203 -0.76804 -4.05185 0
M  V30 7551 H 806.544 -0.353456 -0.562108 0
M  V30 7552 H 809.074 -1.56557 -1.31723 0
M  V30 7553 H 809.084 -1.57503 -3.76373 0
M  V30 7554 H 807.759 -2.60327 -3.2435 0
M  V30 7555 H 806.336 -0.81498 -3.63885 0
M  V30 7556 N 808.521 1.23394 -0.980386 0
M  V30 7557 C 809.769 1.91431 -0.647978 0
M  V30 7558 C 810.09 1.76871 0.821066 0
M  V30 7559 O 809.36 1.14808 1.58732 0
M  V30 7560 H 807.94 0.708516 -0.236673 0
M  V30 7561 H 810.602 1.50019 -1.2442 0
M  V30 7562 H 809.698 2.98854 -0.899592 0
M  V30 7563 N 809.999 0.752036 1.385 0
M  V30 7564 C 811.247 0.306895 1.99756 0
M  V30 7565 C 811.568 -1.11478 1.59992 0
M  V30 7566 O 810.838 -1.76206 0.856045 0
M  V30 7567 H 809.418 0.11048 0.738785 0
M  V30 7568 H 812.08 0.965785 1.69289 0
M  V30 7569 H 811.176 0.368797 3.09913 0
M  V30 7570 N 811.477 -1.49425 0.500989 0
M  V30 7571 C 812.725 -2.02053 -0.0434495 0
M  V30 7572 C 813.046 -1.38285 -1.37486 0
M  V30 7573 O 812.316 -0.538171 -1.88363 0
M  V30 7574 H 810.896 -0.746757 -0.0190469 0
M  V30 7575 H 813.558 -1.83449 0.658227 0
M  V30 7576 H 812.654 -3.11619 -0.173129 0
M  V30 7577 N 812.955 -0.234822 -1.55841 0
M  V30 7578 C 814.18 0.400741 -2.03492 0
M  V30 7579 C 814.605 1.51618 -1.11327 0
M  V30 7580 O 813.963 1.81002 -0.103922 0
M  V30 7581 C 814.011 0.897184 -3.49261 0
M  V30 7582 O 813.115 2.00764 -3.60233 0
M  V30 7583 H 812.456 0.0890023 -0.658008 0
M  V30 7584 H 814.986 -0.357345 -2.01455 0
M  V30 7585 H 814.996 1.20356 -3.89844 0
M  V30 7586 H 813.671 0.0808639 -4.15821 0
M  V30 7587 H 812.248 1.70689 -3.31541 0
M  V30 7588 N 814.433 1.57553 0.0384317 0
M  V30 7589 C 815.658 1.93485 0.746872 0
M  V30 7590 C 816.083 0.834069 1.68597 0
M  V30 7591 O 815.441 -0.210902 1.80069 0
M  V30 7592 C 815.489 3.28463 1.4881 0
M  V30 7593 O 814.593 3.20051 2.60079 0
M  V30 7594 H 813.934 0.632675 0.201539 0
M  V30 7595 H 816.464 2.046 -0.00329815 0
M  V30 7596 H 816.474 3.63132 1.86009 0
M  V30 7597 H 815.149 4.08147 0.799297 0
M  V30 7598 H 813.726 2.96998 2.25492 0
M  V30 7599 N 815.911 -0.310526 1.54511 0
M  V30 7600 C 817.136 -1.07046 1.7764 0
M  V30 7601 C 817.561 -1.80488 0.529696 0
M  V30 7602 O 816.919 -1.73702 -0.519361 0
M  V30 7603 C 816.967 -2.03411 2.97752 0
M  V30 7604 O 816.071 -3.11545 2.7021 0
M  V30 7605 H 815.412 -0.307994 0.588248 0
M  V30 7606 H 817.942 -0.350848 2.01569 0
M  V30 7607 H 817.952 -2.46048 3.2546 0
M  V30 7608 H 816.627 -1.49361 3.88155 0
M  V30 7609 H 815.204 -2.7349 2.53491 0
M  V30 7610 N 817.389 -1.46805 -0.573248 0
M  V30 7611 C 818.637 -1.52302 -1.32847 0
M  V30 7612 C 818.958 -0.180159 -1.94166 0
M  V30 7613 O 818.228 0.794291 -1.79075 0
M  V30 7614 H 816.808 -0.56097 -0.493276 0
M  V30 7615 H 819.47 -1.82998 -0.670642 0
M  V30 7616 H 818.566 -2.28089 -2.13031 0
M  V30 7617 N 818.867 0.818669 -1.34668 0
M  V30 7618 C 820.115 1.57201 -1.27013 0
M  V30 7619 C 820.436 1.94354 0.158599 0
M  V30 7620 O 819.706 1.62626 1.09223 0
M  V30 7621 H 818.286 0.582919 -0.467135 0
M  V30 7622 H 820.948 0.977234 -1.6863 0
M  V30 7623 H 820.044 2.49291 -1.87778 0
M  V30 7624 N 820.346 1.18468 1.03938 0
M  V30 7625 C 821.594 0.978895 1.76811 0
M  V30 7626 C 821.915 -0.49257 1.88676 0
M  V30 7627 O 821.185 -1.3572 1.41269 0
M  V30 7628 H 819.765 0.359201 0.654968 0
M  V30 7629 H 822.427 1.49173 1.25433 0
M  V30 7630 H 821.523 1.418 2.78027 0
M  V30 7631 N 821.824 -1.22873 0.986916 0
M  V30 7632 C 823.054 -1.95204 0.67668 0
M  V30 7633 C 823.462 -1.73193 -0.761641 0
M  V30 7634 O 822.805 -1.0243 -1.52492 0
M  V30 7635 C 822.867 -3.48173 0.895302 0
M  V30 7636 C 822.531 -3.93912 2.31695 0
M  V30 7637 C 823.528 -4.02064 3.29607 0
M  V30 7638 C 821.213 -4.26722 2.64978 0
M  V30 7639 C 823.207 -4.42391 4.58878 0
M  V30 7640 C 820.894 -4.66729 3.94471 0
M  V30 7641 C 821.892 -4.74531 4.91232 0
M  V30 7642 O 821.58 -5.13636 6.18412 0
M  V30 7643 H 821.312 -0.628105 0.24992 0
M  V30 7644 H 823.866 -1.5714 1.32274 0
M  V30 7645 H 822.096 -3.86223 0.192072 0
M  V30 7646 H 823.785 -4.01717 0.581233 0
M  V30 7647 H 824.551 -3.76912 3.05225 0
M  V30 7648 H 820.43 -4.19858 1.9037 0
M  V30 7649 H 823.974 -4.48395 5.34404 0
M  V30 7650 H 819.871 -4.91332 4.18645 0
M  V30 7651 H 820.639 -5.31728 6.2226 0
M  V30 7652 N 823.302 -0.75937 -1.38099 0
M  V30 7653 C 824.55 -0.317485 -1.99591 0
M  V30 7654 C 824.871 1.10628 -1.60581 0
M  V30 7655 O 824.141 1.7575 -0.865378 0
M  V30 7656 H 822.721 -0.114397 -0.738189 0
M  V30 7657 H 825.383 -0.974749 -1.68774 0
M  V30 7658 H 824.479 -0.385227 -3.09713 0
M  V30 7659 N 824.78 1.49157 -0.508906 0
M  V30 7660 C 826.028 2.02073 0.0327335 0
M  V30 7661 C 826.349 1.39012 1.3675 0
M  V30 7662 O 825.619 0.548153 1.88075 0
M  V30 7663 H 824.199 0.746848 0.0150864 0
M  V30 7664 H 826.861 1.83097 -0.667946 0
M  V30 7665 H 825.957 3.11707 0.1566 0
M  V30 7666 N 826.258 0.243083 1.55714 0
M  V30 7667 C 827.506 -0.381964 1.98458 0
M  V30 7668 C 827.827 -1.58745 1.13247 0
M  V30 7669 O 827.097 -1.94723 0.214384 0
M  V30 7670 H 825.677 -0.144114 0.732967 0
M  V30 7671 H 828.339 0.340985 1.91894 0
M  V30 7672 H 827.435 -0.693702 3.04293 0
M  V30 7673 N 827.736 -1.57571 -0.0300757 0
M  V30 7674 C 828.961 -1.93879 -0.736601 0
M  V30 7675 C 829.386 -0.842998 -1.68152 0
M  V30 7676 O 828.744 0.20135 -1.80178 0
M  V30 7677 C 828.792 -3.29247 -1.47066 0
M  V30 7678 O 827.896 -3.21426 -2.58378 0
M  V30 7679 H 827.237 -0.633735 -0.198181 0
M  V30 7680 H 829.767 -2.04595 0.0141485 0
M  V30 7681 H 829.777 -3.64113 -1.84081 0
M  V30 7682 H 828.452 -4.08565 -0.77764 0
M  V30 7683 H 827.029 -2.98189 -2.23914 0
M  V30 7684 N 829.214 0.302327 -1.54673 0
M  V30 7685 C 830.439 1.06103 -1.78205 0
M  V30 7686 C 830.864 1.80204 -0.53926 0
M  V30 7687 O 830.222 1.73975 0.510142 0
M  V30 7688 C 830.27 2.01829 -2.98827 0
M  V30 7689 O 829.374 3.10108 -2.71858 0
M  V30 7690 H 828.715 0.30487 -0.589873 0
M  V30 7691 H 831.245 0.340153 -2.01753 0
M  V30 7692 H 831.255 2.44319 -3.2676 0
M  V30 7693 H 829.93 1.473 -3.88942 0
M  V30 7694 H 828.507 2.72142 -2.54937 0
M  V30 7695 N 830.692 1.47107 0.565454 0
M  V30 7696 C 831.917 1.57153 1.35343 0
M  V30 7697 C 832.342 0.219247 1.86818 0
M  V30 7698 O 831.7 -0.803539 1.62521 0
M  V30 7699 C 831.748 2.59387 2.50501 0
M  V30 7700 O 830.852 2.14086 3.52478 0
M  V30 7701 H 830.193 0.528209 0.402357 0
M  V30 7702 H 832.723 1.92821 0.684189 0
M  V30 7703 H 832.733 2.79546 2.97184 0
M  V30 7704 H 831.408 3.57579 2.12391 0
M  V30 7705 H 829.985 2.03991 3.12157 0
M  V30 7706 N 832.17 -0.811516 1.35101 0
M  V30 7707 C 833.418 -1.56525 1.27845 0
M  V30 7708 C 833.739 -1.94435 -0.14829 0
M  V30 7709 O 833.009 -1.63203 -1.08359 0
M  V30 7710 H 831.589 -0.580433 0.47022 0
M  V30 7711 H 834.251 -0.968277 1.69146 0
M  V30 7712 H 833.347 -2.48291 1.89097 0
M  V30 7713 N 833.648 -1.19017 -1.03309 0
M  V30 7714 C 834.896 -0.988258 -1.76289 0
M  V30 7715 C 835.217 0.482557 -1.88935 0
M  V30 7716 O 834.487 1.34969 -1.41987 0
M  V30 7717 H 833.067 -0.36267 -0.653054 0
M  V30 7718 H 835.729 -1.49836 -1.2464 0
M  V30 7719 H 834.825 -1.43273 -2.77271 0
M  V30 7720 N 835.127 1.22348 -0.993418 0
M  V30 7721 C 836.077 2.221 -0.515333 0
M  V30 7722 C 837.061 1.55409 0.416762 0
M  V30 7723 O 838.253 1.75317 0.243497 0
M  V30 7724 C 835.382 3.42888 0.168173 0
M  V30 7725 C 834.468 4.16786 -0.784257 0
M  V30 7726 N 834.859 4.67435 -1.93231 0
M  V30 7727 C 833.157 4.41942 -0.600243 0
M  V30 7728 C 833.858 5.23792 -2.53016 0
M  V30 7729 N 832.834 5.12483 -1.8128 0
M  V30 7730 H 836.636 2.58902 -1.39093 0
M  V30 7731 H 834.15 1.38024 -0.855747 0
M  V30 7732 H 836.147 4.13542 0.528069 0
M  V30 7733 H 834.807 3.07598 1.03989 0
M  V30 7734 H 835.818 4.63375 -2.31309 0
M  V30 7735 H 832.495 4.16891 0.225369 0
M  V30 7736 H 833.885 5.73515 -3.50043 0
M  V30 7737 N 836.605 0.766683 1.37694 0
M  V30 7738 C 837.552 0.147725 2.30327 0
M  V30 7739 C 838.522 -0.695366 1.50844 0
M  V30 7740 O 839.707 -0.64878 1.79431 0
M  V30 7741 C 836.847 -0.72935 3.37305 0
M  V30 7742 C 835.96 0.129795 4.31805 0
M  V30 7743 C 835.095 -0.751511 5.25857 0
M  V30 7744 C 834.134 0.110475 6.12 0
M  V30 7745 N 833.271 -0.728522 6.9831 0
M  V30 7746 H 838.111 0.943204 2.82679 0
M  V30 7747 H 835.648 0.476736 1.3916 0
M  V30 7748 H 837.606 -1.25263 3.97951 0
M  V30 7749 H 836.236 -1.49048 2.86329 0
M  V30 7750 H 835.288 0.770829 3.72508 0
M  V30 7751 H 836.6 0.794923 4.92425 0
M  V30 7752 H 835.754 -1.34146 5.91684 0
M  V30 7753 H 834.493 -1.45034 4.65636 0
M  V30 7754 H 833.498 0.712999 5.45157 0
M  V30 7755 H 834.723 0.806557 6.74293 0
M  V30 7756 H 832.669 -1.41206 6.40622 0
M  V30 7757 H 832.586 -0.12058 7.55904 0
M  V30 7758 H 833.854 -1.30303 7.68532 0
M  V30 7759 N 838.083 -1.48885 0.516809 0
M  V30 7760 C 839.308 -2.0739 -0.0205201 0
M  V30 7761 C 839.733 -1.37259 -1.28614 0
M  V30 7762 O 839.091 -0.434304 -1.76021 0
M  V30 7763 C 839.139 -3.59793 -0.24104 0
M  V30 7764 O 838.243 -3.90957 -1.31251 0
M  V30 7765 H 837.584 -0.663167 0.0332564 0
M  V30 7766 H 840.114 -1.91477 0.720956 0
M  V30 7767 H 840.124 -4.0531 -0.467737 0
M  V30 7768 H 838.799 -4.10244 0.68356 0
M  V30 7769 H 837.376 -3.57234 -1.06951 0
M  V30 7770 N 839.561 -0.251338 -1.55583 0
M  V30 7771 C 840.786 0.379136 -2.03905 0
M  V30 7772 C 841.211 1.50428 -1.12929 0
M  V30 7773 O 840.569 1.80882 -0.123114 0
M  V30 7774 C 840.617 0.86009 -3.50193 0
M  V30 7775 O 839.721 1.96932 -3.62342 0
M  V30 7776 H 839.062 0.0820183 -0.658915 0
M  V30 7777 H 841.592 -0.378692 -2.01065 0
M  V30 7778 H 841.602 1.16214 -3.91099 0
M  V30 7779 H 840.277 0.0367559 -4.15884 0
M  V30 7780 H 838.854 1.67163 -3.33333 0
M  V30 7781 N 841.039 1.57585 0.0217189 0
M  V30 7782 C 842.264 1.94267 0.726309 0
M  V30 7783 C 842.689 0.851904 1.67703 0
M  V30 7784 O 842.047 -0.191792 1.80283 0
M  V30 7785 C 842.095 3.30023 1.45318 0
M  V30 7786 O 841.199 3.22791 2.5667 0
M  V30 7787 H 840.54 0.634777 0.194818 0
M  V30 7788 H 843.07 2.04585 -0.0249985 0
M  V30 7789 H 843.08 3.65084 1.82147 0
M  V30 7790 H 841.755 4.08972 0.755962 0
M  V30 7791 H 840.332 2.99373 2.2233 0
M  V30 7792 N 842.517 -0.29412 1.54831 0
M  V30 7793 C 843.742 -1.05156 1.78765 0
M  V30 7794 C 844.167 -1.79916 0.548809 0
M  V30 7795 O 843.525 -1.74243 -0.500909 0
M  V30 7796 C 843.573 -2.00242 2.99893 0
M  V30 7797 O 842.677 -3.08662 2.73499 0
M  V30 7798 H 842.018 -0.301737 0.591482 0
M  V30 7799 H 844.548 -0.329449 2.0193 0
M  V30 7800 H 844.558 -2.42583 3.28051 0
M  V30 7801 H 843.233 -1.45235 3.89717 0
M  V30 7802 H 841.81 -2.70786 2.56377 0
M  V30 7803 N 843.995 -1.47404 -0.557645 0
M  V30 7804 C 845.243 -1.53703 -1.31224 0
M  V30 7805 C 845.564 -0.200742 -1.93964 0
M  V30 7806 O 844.834 0.775253 -1.79907 0
M  V30 7807 H 843.414 -0.566171 -0.487299 0
M  V30 7808 H 846.076 -1.83699 -0.651195 0
M  V30 7809 H 845.172 -2.30335 -2.10599 0
M  V30 7810 N 845.473 0.80434 -1.35529 0
M  V30 7811 C 846.698 1.598 -1.32207 0
M  V30 7812 C 847.123 1.87848 0.0974226 0
M  V30 7813 O 846.481 1.46728 1.06492 0
M  V30 7814 C 846.529 2.90483 -2.13663 0
M  V30 7815 O 845.633 3.83411 -1.51888 0
M  V30 7816 H 844.974 0.485305 -0.453183 0
M  V30 7817 H 847.504 0.998119 -1.78602 0
M  V30 7818 H 847.514 3.39888 -2.257 0
M  V30 7819 H 846.189 2.69395 -3.16859 0
M  V30 7820 H 844.766 3.41967 -1.48704 0
M  V30 7821 N 846.951 1.19563 1.02676 0
M  V30 7822 C 848.197 1.00105 1.76371 0
M  V30 7823 C 848.53 -0.466823 1.88506 0
M  V30 7824 O 847.805 -1.34665 1.40341 0
M  V30 7825 C 848.088 1.67321 3.18866 0
M  V30 7826 C 847.941 3.21486 3.1459 0
M  V30 7827 C 849.26 1.39794 4.17308 0
M  V30 7828 H 846.379 0.365075 0.640226 0
M  V30 7829 H 849.021 1.47433 1.19848 0
M  V30 7830 H 847.171 1.27081 3.67128 0
M  V30 7831 H 848.843 3.70953 2.7421 0
M  V30 7832 H 847.086 3.5292 2.52249 0
M  V30 7833 H 847.757 3.63665 4.15273 0
M  V30 7834 H 850.233 1.74685 3.77657 0
M  V30 7835 H 849.109 1.89371 5.15199 0
M  V30 7836 H 849.37 0.323505 4.40915 0
M  V30 7837 N 848.429 -1.21819 0.999893 0
M  V30 7838 C 849.677 -1.90375 0.678351 0
M  V30 7839 C 849.998 -1.78155 -0.792824 0
M  V30 7840 O 849.268 -1.17319 -1.56885 0
M  V30 7841 H 847.848 -0.704661 0.247915 0
M  V30 7842 H 850.51 -1.48021 1.2679 0
M  V30 7843 H 849.606 -2.97385 0.947023 0
M  V30 7844 N 849.908 -0.773975 -1.37286 0
M  V30 7845 C 850.818 -0.162571 -2.34036 0
M  V30 7846 C 851.834 0.677022 -1.60289 0
M  V30 7847 O 853.01 0.596423 -1.92366 0
M  V30 7848 C 850.075 0.70457 -3.39465 0
M  V30 7849 C 849.136 -0.151738 -4.29032 0
M  V30 7850 C 848.369 0.674111 -5.29426 0
M  V30 7851 O 848.592 1.91107 -5.37433 0
M  V30 7852 O 847.526 0.0821398 -6.01844 0
M  V30 7853 H 851.352 -0.962119 -2.88057 0
M  V30 7854 H 848.937 -0.53517 -1.39486 0
M  V30 7855 H 850.819 1.19954 -4.03967 0
M  V30 7856 H 849.494 1.48227 -2.87768 0
M  V30 7857 H 848.401 -0.693118 -3.67623 0
M  V30 7858 H 849.734 -0.892575 -4.84039 0
M  V30 7859 N 851.386 1.48609 -0.524698 0
M  V30 7860 C 852.611 2.07398 0.00952139 0
M  V30 7861 C 853.036 1.37939 1.27884 0
M  V30 7862 O 852.394 0.443633 1.75788 0
M  V30 7863 C 852.442 3.59916 0.221956 0
M  V30 7864 O 851.546 3.91647 1.29175 0
M  V30 7865 H 850.887 0.662981 -0.0367729 0
M  V30 7866 H 853.417 1.91092 -0.7311 0
M  V30 7867 H 853.427 4.05552 0.446236 0
M  V30 7868 H 852.102 4.09876 -0.705306 0
M  V30 7869 H 850.679 3.57796 1.05055 0
M  V30 7870 N 852.864 0.259585 1.55447 0
M  V30 7871 C 854.089 -0.368317 2.04103 0
M  V30 7872 C 854.514 -1.49827 1.13725 0
M  V30 7873 O 853.872 -1.80814 0.132705 0
M  V30 7874 C 853.92 -0.841506 3.50644 0
M  V30 7875 O 853.024 -1.95008 3.63381 0
M  V30 7876 H 852.365 -0.0785227 0.659341 0
M  V30 7877 H 854.895 0.389349 2.00861 0
M  V30 7878 H 854.905 -1.14138 3.9171 0
M  V30 7879 H 853.58 -0.0147001 4.15897 0
M  V30 7880 H 852.157 -1.65393 3.34215 0
M  V30 7881 N 854.342 -1.57594 -0.0133615 0
M  V30 7882 C 855.567 -1.94649 -0.715996 0
M  V30 7883 C 855.992 -0.860786 -1.67249 0
M  V30 7884 O 855.35 0.182228 -1.80382 0
M  V30 7885 C 855.398 -3.30789 -1.43566 0
M  V30 7886 O 854.502 -3.24148 -2.54955 0
M  V30 7887 H 853.843 -0.635801 -0.191449 0
M  V30 7888 H 856.373 -2.04569 0.0358478 0
M  V30 7889 H 856.383 -3.66045 -1.80208 0
M  V30 7890 H 855.058 -4.09367 -0.734263 0
M  V30 7891 H 853.635 -3.00548 -2.20739 0
M  V30 7892 N 855.82 0.285905 -1.54985 0
M  V30 7893 C 856.767 1.35306 -1.86978 0
M  V30 7894 C 857.737 1.49682 -0.720046 0
M  V30 7895 O 858.922 1.64297 -0.970107 0
M  V30 7896 C 856.062 2.71059 -2.13591 0
M  V30 7897 C 855.175 2.6501 -3.41165 0
M  V30 7898 C 854.31 3.92856 -3.57544 0
M  V30 7899 C 853.349 3.81266 -4.78855 0
M  V30 7900 N 852.486 5.00919 -4.9196 0
M  V30 7901 H 857.326 1.07323 -2.78003 0
M  V30 7902 H 854.863 0.518776 -1.37649 0
M  V30 7903 H 856.821 3.50026 -2.27019 0
M  V30 7904 H 855.451 2.97271 -1.25816 0
M  V30 7905 H 854.503 1.77824 -3.36278 0
M  V30 7906 H 855.815 2.52342 -4.30262 0
M  V30 7907 H 854.969 4.80263 -3.70718 0
M  V30 7908 H 853.708 4.08377 -2.66608 0
M  V30 7909 H 852.713 2.92243 -4.65698 0
M  V30 7910 H 853.938 3.67277 -5.71213 0
M  V30 7911 H 851.884 5.16875 -4.03951 0
M  V30 7912 H 851.801 4.90732 -5.75081 0
M  V30 7913 H 853.069 5.89935 -5.09507 0
M  V30 7914 N 857.298 1.47698 0.54982 0
M  V30 7915 C 858.546 1.54397 1.30407 0
M  V30 7916 C 858.867 0.211026 1.93855 0
M  V30 7917 O 858.137 -0.765701 1.80316 0
M  V30 7918 H 856.717 0.568747 0.484289 0
M  V30 7919 H 859.379 1.84042 0.641444 0
M  V30 7920 H 858.475 2.31449 2.09375 0
M  V30 7921 N 858.776 -0.797141 1.35954 0
M  V30 7922 C 860.187 -1.37179 1.26644 0
M  V30 7923 C 860.538 -1.9596 -0.0971046 0
M  V30 7924 O 859.663 -1.91994 -0.998355 0
M  V30 7925 C 860.258 -2.49395 2.2932 0
M  V30 7926 C 858.817 -3.02697 2.23722 0
M  V30 7927 C 857.964 -1.75721 2.14517 0
M  V30 7928 H 860.915 -0.599407 1.46945 0
M  V30 7929 H 860.936 -3.28204 1.92515 0
M  V30 7930 H 860.448 -2.06584 3.2855 0
M  V30 7931 H 858.549 -3.49948 1.27934 0
M  V30 7932 H 858.662 -3.60036 3.16087 0
M  V30 7933 H 857.026 -1.97649 1.60646 0
M  V30 7934 H 857.809 -1.35049 3.15621 0
M  V30 7935 N 860.254 -1.20106 -1.0204 0
M  V30 7936 C 861.67 -0.955099 -1.27867 0
M  V30 7937 C 861.87 0.367595 -1.98119 0
M  V30 7938 O 860.926 1.09705 -2.27423 0
M  V30 7939 C 862.239 -2.13507 -2.11744 0
M  V30 7940 C 863.787 -2.17563 -2.25023 0
M  V30 7941 C 864.262 -3.35035 -3.12275 0
M  V30 7942 N 865.753 -3.35024 -3.19864 0
M  V30 7943 C 866.488 -4.22566 -3.8759 0
M  V30 7944 N 865.984 -5.20278 -4.57474 0
M  V30 7945 N 867.777 -4.10418 -3.84075 0
M  V30 7946 H 859.928 -2.05193 -0.54861 0
M  V30 7947 H 862.191 -0.897689 -0.304728 0
M  V30 7948 H 861.897 -3.09275 -1.67456 0
M  V30 7949 H 861.771 -2.11281 -3.12474 0
M  V30 7950 H 864.158 -1.22359 -2.68537 0
M  V30 7951 H 864.239 -2.23838 -1.23815 0
M  V30 7952 H 863.883 -4.30522 -2.69468 0
M  V30 7953 H 863.813 -3.25996 -4.13563 0
M  V30 7954 H 866.304 -2.64299 -2.701 0
M  V30 7955 H 866.617 -5.83408 -5.06809 0
M  V30 7956 H 864.962 -5.24219 -4.56311 0
M  V30 7957 H 868.153 -3.33353 -3.28623 0
M  V30 7958 H 868.326 -4.78854 -4.36581 0
M  V30 7959 N 861.732 1.21287 -1.00634 0
M  V30 7960 C 862.962 1.94103 -0.70765 0
M  V30 7961 C 863.37 1.74382 0.733991 0
M  V30 7962 O 862.713 1.04843 1.50843 0
M  V30 7963 C 862.775 3.46705 -0.950581 0
M  V30 7964 C 862.439 3.90176 -2.37932 0
M  V30 7965 C 863.436 3.96769 -3.35961 0
M  V30 7966 C 861.121 4.22453 -2.71733 0
M  V30 7967 C 863.115 4.35034 -4.65858 0
M  V30 7968 C 860.802 4.60394 -4.01846 0
M  V30 7969 C 861.8 4.66656 -4.9872 0
M  V30 7970 O 861.488 5.03732 -6.26505 0
M  V30 7971 H 861.22 0.62405 -0.259881 0
M  V30 7972 H 863.774 1.55015 -1.34757 0
M  V30 7973 H 862.004 3.85868 -0.253492 0
M  V30 7974 H 863.693 4.00741 -0.645069 0
M  V30 7975 H 864.459 3.72009 -3.11182 0
M  V30 7976 H 860.338 4.16776 -1.97025 0
M  V30 7977 H 863.882 4.39836 -5.4147 0
M  V30 7978 H 859.779 4.84609 -4.26409 0
M  V30 7979 H 860.547 5.21761 -6.30641 0
M  V30 7980 O 863.249 0.917748 1.3289 0
M  V30 7981 H 863.94 0.536038 1.86135 0
M  V30 END ATOM
M  V30 BEGIN BOND
M  V30 END BOND
M  V30 END CTAB
M  END
$$$$
