drugbank_target|P13693 Translationally-controlled tumor protein (DB11093; DB11348; DB14481)
 OpenBabel12092121053D

  0  0  0     0  0            999 V3000
M  V30 BEGIN CTAB
M  V30 COUNTS 2715 2739 0 0 0
M  V30 BEGIN ATOM
M  V30 1 H -0.908 1.98254 -0.117106 0
M  V30 2 N 0 1.576 0 0
M  V30 3 C 0.933 2.03868 1.02534 0
M  V30 4 C 1.911 0.928543 1.3348 0
M  V30 5 O 3.095 1.19667 1.45644 0
M  V30 6 C 0.222 2.43627 2.35294 0
M  V30 7 C -0.732 3.65373 2.2001 0
M  V30 8 S 0.101 5.13292 1.52614 0
M  V30 9 C 1.257 5.56322 2.86805 0
M  V30 10 H 1.49 2.90518 0.631377 0
M  V30 11 H -0.977 1.52953 0.210867 0
M  V30 12 H 0.981 2.67203 3.11629 0
M  V30 13 H -0.358 1.57376 2.7183 0
M  V30 14 H -1.165 3.90944 3.18086 0
M  V30 15 H -1.563 3.418 1.51819 0
M  V30 16 H 0.729 5.58782 3.83104 0
M  V30 17 H 1.672 6.56266 2.65933 0
M  V30 18 H 2.08 4.83886 2.90714 0
M  V30 19 N 1.4781 -0.272755 1.55222 0
M  V30 20 C 2.7271 -1.00211 1.75045 0
M  V30 21 C 3.0401 -1.87441 0.559046 0
M  V30 22 O 4.2461 -2.63856 0.639698 0
M  V30 23 C 2.7021 -1.83165 3.09804 0
M  V30 24 C 2.3101 -1.008 4.36513 0
M  V30 25 C 4.0541 -2.55529 3.38977 0
M  V30 26 C 1.9611 -1.83194 5.62311 0
M  V30 27 H 0.8911 -0.377878 0.652476 0
M  V30 28 H 3.5421 -0.257776 1.8168 0
M  V30 29 H 1.9241 -2.61694 2.97207 0
M  V30 30 H 3.0981 -0.266855 4.60027 0
M  V30 31 H 1.4131 -0.398897 4.14485 0
M  V30 32 H 4.0101 -3.17578 4.30172 0
M  V30 33 H 4.3531 -3.25825 2.59121 0
M  V30 34 H 4.8861 -1.84029 3.52673 0
M  V30 35 H 1.6251 -1.17318 6.44916 0
M  V30 36 H 1.1451 -2.54905 5.4294 0
M  V30 37 H 2.8241 -2.40552 6.00619 0
M  V30 38 N 2.9562 -1.48159 -0.537278 0
M  V30 39 C 4.2052 -1.5506 -1.28993 0
M  V30 40 C 4.5182 -0.226211 -1.94288 0
M  V30 41 O 5.7242 -0.173395 -2.70946 0
M  V30 42 C 4.1802 -2.73429 -2.34018 0
M  V30 43 C 3.7882 -4.1248 -1.74825 0
M  V30 44 C 5.5322 -2.89638 -3.10339 0
M  V30 45 C 3.4392 -5.22121 -2.77747 0
M  V30 46 H 2.3692 -0.577231 -0.485098 0
M  V30 47 H 5.0202 -1.74478 -0.568317 0
M  V30 48 H 3.4022 -2.47431 -3.09182 0
M  V30 49 H 4.5762 -4.48466 -1.05899 0
M  V30 50 H 2.8912 -4.01327 -1.11022 0
M  V30 51 H 5.4882 -3.68718 -3.87235 0
M  V30 52 H 5.8312 -1.9882 -3.65754 0
M  V30 53 H 6.3642 -3.15502 -2.42288 0
M  V30 54 H 3.1032 -6.1488 -2.27161 0
M  V30 55 H 2.6232 -4.90631 -3.45024 0
M  V30 56 H 4.3022 -5.49924 -3.4087 0
M  V30 57 N 4.4343 0.785586 -1.36625 0
M  V30 58 C 5.6643 1.5722 -1.34036 0
M  V30 59 C 6.0723 1.89033 0.0795062 0
M  V30 60 O 5.4153 1.50881 1.04789 0
M  V30 61 C 5.4773 2.91759 -2.10041 0
M  V30 62 C 5.1413 2.82654 -3.59104 0
M  V30 63 C 6.1383 2.54634 -4.53274 0
M  V30 64 C 3.8233 3.01111 -4.02042 0
M  V30 65 C 5.8173 2.45177 -5.88359 0
M  V30 66 C 3.5043 2.91276 -5.37216 0
M  V30 67 C 4.5023 2.63348 -6.30188 0
M  V30 68 O 4.1903 2.53514 -7.6288 0
M  V30 69 H 3.9223 0.494177 -0.461265 0
M  V30 70 H 6.4763 0.982632 -1.8037 0
M  V30 71 H 4.7063 3.52781 -1.58375 0
M  V30 72 H 6.3953 3.53059 -2.00261 0
M  V30 73 H 7.1613 2.40073 -4.21414 0
M  V30 74 H 3.0403 3.21854 -3.30047 0
M  V30 75 H 6.5843 2.23299 -6.60896 0
M  V30 76 H 2.4813 3.054 -5.68684 0
M  V30 77 H 3.2493 2.68967 -7.73045 0
M  V30 78 N 5.9124 1.20967 1.01018 0
M  V30 79 C 7.3284 0.965905 1.27053 0
M  V30 80 C 7.5284 -0.350785 1.98423 0
M  V30 81 O 6.5844 -1.07773 2.28344 0
M  V30 82 C 7.8974 2.15294 2.09926 0
M  V30 83 C 9.4454 2.19463 2.23171 0
M  V30 84 C 9.9204 3.3767 3.09424 0
M  V30 85 N 11.4114 3.37724 3.17012 0
M  V30 86 C 12.1464 4.25837 3.83993 0
M  V30 87 N 11.6424 5.24138 4.53047 0
M  V30 88 N 13.4354 4.1366 3.80581 0
M  V30 89 H 5.5864 2.0565 0.531194 0
M  V30 90 H 7.8494 0.90024 0.297106 0
M  V30 91 H 7.5554 3.10684 1.64828 0
M  V30 92 H 7.4294 2.13923 3.10672 0
M  V30 93 H 9.8164 1.24632 2.6749 0
M  V30 94 H 9.8974 2.2488 1.21912 0
M  V30 95 H 9.5414 4.32791 2.65808 0
M  V30 96 H 9.4714 3.29491 4.10784 0
M  V30 97 H 11.9624 2.6658 2.6785 0
M  V30 98 H 12.2754 5.87684 5.01844 0
M  V30 99 H 10.6204 5.28068 4.5185 0
M  V30 100 H 13.8114 3.36127 3.25785 0
M  V30 101 H 13.9844 4.82538 4.32505 0
M  V30 102 N 7.3905 -1.2043 1.01659 0
M  V30 103 C 8.6675 -1.8548 0.621004 0
M  V30 104 C 9.0475 -1.9091 -0.900919 0
M  V30 105 O 8.3955 -1.41694 -1.79263 0
M  V30 106 C 8.6055 -3.25119 1.2688 0
M  V30 107 C 9.9535 -4.01403 1.38423 0
M  V30 108 O 10.9775 -3.34473 1.22501 0
M  V30 109 O 9.8365 -5.21265 1.64151 0
M  V30 110 H 6.9305 -0.798761 0.214266 0
M  V30 111 H 9.4765 -1.28019 1.11396 0
M  V30 112 H 8.2485 -3.15932 2.30873 0
M  V30 113 H 7.8715 -3.90212 0.762917 0
M  V30 114 N 8.8686 -0.792821 -1.36206 0
M  V30 115 C 9.7986 -0.207853 -2.32573 0
M  V30 116 C 10.7796 0.659055 -1.56813 0
M  V30 117 O 11.9646 0.592176 -1.84951 0
M  V30 118 C 9.0946 0.655449 -3.41059 0
M  V30 119 C 8.0486 -0.111842 -4.27854 0
M  V30 120 C 7.3746 0.872274 -5.27537 0
M  V30 121 C 8.6746 -1.30299 -5.05786 0
M  V30 122 H 10.3686 -1.01294 -2.81744 0
M  V30 123 H 7.9146 -0.48854 -1.3546 0
M  V30 124 H 9.8676 1.07464 -4.07467 0
M  V30 125 H 8.5916 1.49328 -2.90463 0
M  V30 126 H 7.2506 -0.512053 -3.63006 0
M  V30 127 H 6.8986 1.70523 -4.73214 0
M  V30 128 H 6.5986 0.363291 -5.86476 0
M  V30 129 H 8.1226 1.28996 -5.96818 0
M  V30 130 H 9.5366 -0.959379 -5.65216 0
M  V30 131 H 7.9336 -1.7455 -5.74154 0
M  V30 132 H 9.0036 -2.09663 -4.37229 0
M  V30 133 N 10.3467 1.47872 -0.545128 0
M  V30 134 C 11.5957 2.01695 -0.0145033 0
M  V30 135 C 11.9087 1.42609 1.33873 0
M  V30 136 O 13.1147 1.88021 1.95858 0
M  V30 137 C 11.5707 3.59892 0.0245068 0
M  V30 138 C 11.1787 4.27966 -1.32475 0
M  V30 139 C 12.9227 4.21507 0.50316 0
M  V30 140 C 10.8297 5.78136 -1.2455 0
M  V30 141 H 9.7597 0.753998 -0.00165172 0
M  V30 142 H 12.4107 1.69985 -0.691175 0
M  V30 143 H 10.7927 3.88509 0.766575 0
M  V30 144 H 11.9667 4.11003 -2.08357 0
M  V30 145 H 10.2817 3.78286 -1.74036 0
M  V30 146 H 12.8787 5.31538 0.580656 0
M  V30 147 H 13.2217 3.87855 1.51243 0
M  V30 148 H 13.7547 3.97376 -0.183681 0
M  V30 149 H 10.4937 6.16388 -2.23039 0
M  V30 150 H 10.0137 5.97469 -0.528282 0
M  V30 151 H 11.6927 6.40099 -0.942488 0
M  V30 152 N 11.8248 0.280983 1.55075 0
M  V30 153 C 13.0498 -0.340154 2.04592 0
M  V30 154 C 13.4748 -1.48246 1.15779 0
M  V30 155 O 12.8328 -1.80614 0.15761 0
M  V30 156 C 12.8808 -0.793104 3.5177 0
M  V30 157 O 11.9848 -1.89981 3.66034 0
M  V30 158 H 11.3258 -0.0694289 0.66036 0
M  V30 159 H 13.8558 0.416993 2.00306 0
M  V30 160 H 13.8658 -1.08729 3.93245 0
M  V30 161 H 12.5408 0.0426163 4.15878 0
M  V30 162 H 11.1178 -1.60771 3.36463 0
M  V30 163 N 13.3029 -1.57598 0.00835791 0
M  V30 164 C 14.2529 -2.05431 -0.989045 0
M  V30 165 C 15.2369 -0.950662 -1.29812 0
M  V30 166 O 16.4289 -1.21438 -1.28771 0
M  V30 167 C 13.5579 -2.56801 -2.27833 0
M  V30 168 C 12.6439 -3.74058 -1.99853 0
M  V30 169 N 13.0349 -4.8544 -1.42062 0
M  V30 170 C 11.3329 -3.82148 -2.29953 0
M  V30 171 C 12.0339 -5.66817 -1.30743 0
M  V30 172 N 11.0099 -5.13077 -1.7959 0
M  V30 173 H 14.8119 -2.88955 -0.536853 0
M  V30 174 H 12.3259 -1.61199 -0.197148 0
M  V30 175 H 14.3229 -2.89349 -3.00137 0
M  V30 176 H 12.9829 -1.74699 -2.73698 0
M  V30 177 H 13.9939 -5.0612 -1.09833 0
M  V30 178 H 10.6709 -3.10916 -2.78635 0
M  V30 179 H 12.0609 -6.66343 -0.862328 0
M  V30 180 N 14.781 0.264519 -1.55364 0
M  V30 181 C 16.058 1.01677 -1.67096 0
M  V30 182 C 16.438 2.03996 -0.543015 0
M  V30 183 O 15.786 2.23907 0.45585 0
M  V30 184 C 15.996 1.66596 -3.0667 0
M  V30 185 C 17.344 2.17442 -3.64697 0
M  V30 186 O 18.368 1.76568 -3.09358 0
M  V30 187 O 17.227 2.92439 -4.61673 0
M  V30 188 H 14.321 0.472161 -0.678965 0
M  V30 189 H 16.867 0.259703 -1.67701 0
M  V30 190 H 15.639 0.924962 -3.80211 0
M  V30 191 H 15.262 2.48968 -3.10001 0
M  V30 192 N 16.2591 1.48442 0.529413 0
M  V30 193 C 17.1691 1.6569 1.66084 0
M  V30 194 C 18.1851 0.539432 1.65427 0
M  V30 195 O 19.3611 0.810572 1.84368 0
M  V30 196 C 16.4261 1.69315 3.02545 0
M  V30 197 C 15.4871 2.92694 3.14052 0
M  V30 198 C 14.7201 2.96137 4.44003 0
M  V30 199 O 14.9431 2.07973 5.31134 0
M  V30 200 O 13.8771 3.88312 4.59888 0
M  V30 201 H 17.7031 2.61483 1.54469 0
M  V30 202 H 15.2881 1.3185 0.702567 0
M  V30 203 H 17.1701 1.74217 3.83701 0
M  V30 204 H 15.8451 0.766966 3.14483 0
M  V30 205 H 14.7521 2.93324 2.32189 0
M  V30 206 H 16.0851 3.84699 3.0703 0
M  V30 207 N 17.7372 -0.778329 1.37039 0
M  V30 208 C 18.6702 -1.8984 1.26633 0
M  V30 209 C 19.6482 -1.61923 0.148197 0
M  V30 210 O 20.8322 -1.85742 0.321265 0
M  V30 211 C 17.9592 -3.24916 0.956403 0
M  V30 212 C 17.0052 -3.71752 2.09051 0
M  V30 213 S 17.8382 -3.86201 3.70957 0
M  V30 214 C 18.9942 -5.24135 3.42101 0
M  V30 215 H 19.2272 -1.98377 2.21436 0
M  V30 216 H 16.7602 -0.938738 1.22585 0
M  V30 217 H 18.7182 -4.02936 0.784409 0
M  V30 218 H 17.3792 -3.14089 0.0259713 0
M  V30 219 H 16.5722 -4.69661 1.8285 0
M  V30 220 H 16.1742 -3.00815 2.2223 0
M  V30 221 H 18.4662 -6.09086 2.96682 0
M  V30 222 H 19.4092 -5.55346 4.39314 0
M  V30 223 H 19.8172 -4.91761 2.77185 0
M  V30 224 N 19.2153 -1.21501 -1.00376 0
M  V30 225 C 20.4623 -1.03299 -1.74171 0
M  V30 226 C 20.7903 0.433326 -1.89612 0
M  V30 227 O 20.0453 1.33779 -1.42834 0
M  V30 228 C 20.3443 -1.67673 -3.15627 0
M  V30 229 C 20.0103 -3.17533 -3.2013 0
M  V30 230 C 18.6723 -3.58427 -3.21067 0
M  V30 231 C 21.0243 -4.13504 -3.17275 0
M  V30 232 C 18.3523 -4.93794 -3.16835 0
M  V30 233 C 20.7043 -5.48834 -3.14585 0
M  V30 234 C 19.3683 -5.89123 -3.13831 0
M  V30 235 H 18.6383 -0.377999 -0.637336 0
M  V30 236 H 21.2853 -1.51111 -1.17634 0
M  V30 237 H 19.5903 -1.12158 -3.75404 0
M  V30 238 H 21.2873 -1.51091 -3.71446 0
M  V30 239 H 17.8773 -2.84965 -3.20145 0
M  V30 240 H 22.0613 -3.82936 -3.15711 0
M  V30 241 H 17.3173 -5.24255 -3.1459 0
M  V30 242 H 21.4913 -6.22934 -3.1133 0
M  V30 243 H 19.1183 -6.93984 -3.10307 0
M  V30 244 N 20.6934 1.19889 -1.02296 0
M  V30 245 C 21.9184 1.9393 -0.735237 0
M  V30 246 C 22.3434 1.74639 0.698782 0
M  V30 247 O 21.7014 1.04481 1.48167 0
M  V30 248 C 21.7494 3.43916 -1.08417 0
M  V30 249 O 20.8534 4.11917 -0.199446 0
M  V30 250 H 20.1944 0.605645 -0.272196 0
M  V30 251 H 22.7244 1.52137 -1.36804 0
M  V30 252 H 22.7344 3.9456 -1.03856 0
M  V30 253 H 21.4094 3.5728 -2.12894 0
M  V30 254 H 19.9864 3.71666 -0.303136 0
M  V30 255 N 22.1715 0.800033 1.35784 0
M  V30 256 C 23.4485 0.30088 1.93272 0
M  V30 257 C 23.8285 -1.20857 1.73081 0
M  V30 258 O 23.1765 -2.00502 1.09596 0
M  V30 259 C 23.3865 0.70511 3.41803 0
M  V30 260 C 24.7345 0.690871 4.18942 0
M  V30 261 O 25.7585 0.646244 3.50289 0
M  V30 262 O 24.6175 0.74332 5.41421 0
M  V30 263 H 21.7115 0.0771605 0.823393 0
M  V30 264 H 24.2575 0.88329 1.449 0
M  V30 265 H 23.0295 1.74571 3.50201 0
M  V30 266 H 22.6525 0.0971541 3.97481 0
M  V30 267 N 23.6496 -1.47581 0.552962 0
M  V30 268 C 24.8986 -2.01684 0.0251995 0
M  V30 269 C 25.2116 -1.43317 -1.33115 0
M  V30 270 O 26.4176 -1.89057 -1.94858 0
M  V30 271 C 24.8736 -3.599 -0.00542052 0
M  V30 272 C 24.4816 -4.27257 1.34742 0
M  V30 273 C 26.2256 -4.21768 -0.4808 0
M  V30 274 C 24.1326 -5.77467 1.27614 0
M  V30 275 H 23.0626 -0.753979 0.00565033 0
M  V30 276 H 25.7136 -1.69616 0.70018 0
M  V30 277 H 24.0956 -3.88911 -0.745961 0
M  V30 278 H 25.2696 -4.09893 2.10534 0
M  V30 279 H 23.5846 -3.77358 1.76039 0
M  V30 280 H 26.1816 -5.31838 -0.55246 0
M  V30 281 H 26.5246 -3.88651 -1.49184 0
M  V30 282 H 27.0576 -3.97273 0.204752 0
M  V30 283 H 23.7966 -6.15196 2.26304 0
M  V30 284 H 23.3166 -5.9718 0.55996 0
M  V30 285 H 24.9956 -6.3959 0.976421 0
M  V30 286 N 25.1277 -0.289203 -1.54924 0
M  V30 287 C 26.3577 0.325989 -2.04012 0
M  V30 288 C 26.7657 1.48961 -1.1665 0
M  V30 289 O 26.1087 1.82794 -0.1822 0
M  V30 290 C 26.1707 0.856112 -3.49158 0
M  V30 291 C 25.8347 -0.180697 -4.56643 0
M  V30 292 C 26.8317 -1.0051 -5.10092 0
M  V30 293 C 24.5167 -0.318998 -5.01286 0
M  V30 294 C 26.5107 -1.95385 -6.06715 0
M  V30 295 C 24.1977 -1.27121 -5.97732 0
M  V30 296 C 25.1957 -2.08713 -6.50329 0
M  V30 297 O 24.8837 -3.02322 -7.44887 0
M  V30 298 H 24.6157 0.0765276 -0.671654 0
M  V30 299 H 27.1697 -0.423254 -2.00992 0
M  V30 300 H 25.3997 1.65567 -3.49463 0
M  V30 301 H 27.0887 1.38591 -3.81507 0
M  V30 302 H 27.8547 -0.90906 -4.76404 0
M  V30 303 H 23.7337 0.306108 -4.59983 0
M  V30 304 H 27.2777 -2.59111 -6.47694 0
M  V30 305 H 23.1747 -1.36801 -6.30837 0
M  V30 306 H 23.9427 -2.97165 -7.6265 0
M  V30 307 N 26.6058 1.57591 -0.0167156 0
M  V30 308 C 27.5528 2.09462 0.969251 0
M  V30 309 C 28.5228 0.99381 1.33089 0
M  V30 310 O 29.7078 1.26726 1.42636 0
M  V30 311 C 26.8478 2.61622 2.25051 0
M  V30 312 C 25.9608 3.85666 1.94642 0
M  V30 313 C 25.0958 4.26266 3.16972 0
M  V30 314 C 24.1348 5.43101 2.82326 0
M  V30 315 N 23.2718 5.78915 3.97243 0
M  V30 316 H 28.1118 2.93428 0.519997 0
M  V30 317 H 25.6488 1.45044 0.245087 0
M  V30 318 H 27.6068 2.89949 2.99976 0
M  V30 319 H 26.2368 1.80505 2.67615 0
M  V30 320 H 25.2888 3.64145 1.10013 0
M  V30 321 H 26.6008 4.70678 1.65117 0
M  V30 322 H 25.7548 4.55963 4.00228 0
M  V30 323 H 24.4938 3.39996 3.49648 0
M  V30 324 H 23.4988 5.1311 1.97479 0
M  V30 325 H 24.7238 6.3106 2.50879 0
M  V30 326 H 22.6698 4.95602 4.29785 0
M  V30 327 H 22.5868 6.58539 3.71299 0
M  V30 328 H 23.8548 6.13212 4.81239 0
M  V30 329 N 28.0839 -0.256276 1.55502 0
M  V30 330 C 29.3329 -0.983486 1.76098 0
M  V30 331 C 29.6459 -1.86837 0.578896 0
M  V30 332 O 30.8519 -2.63163 0.667648 0
M  V30 333 C 29.3079 -1.79868 3.1173 0
M  V30 334 C 28.9159 -0.961648 4.37557 0
M  V30 335 C 30.6599 -2.51919 3.41668 0
M  V30 336 C 28.5669 -1.77219 5.64223 0
M  V30 337 H 27.4969 -0.370936 0.656447 0
M  V30 338 H 30.1479 -0.238492 1.81944 0
M  V30 339 H 28.5299 -2.58527 2.99966 0
M  V30 340 H 29.7039 -0.218048 4.60284 0
M  V30 341 H 28.0189 -0.354913 4.14885 0
M  V30 342 H 30.6159 -3.12998 4.33516 0
M  V30 343 H 30.9589 -3.23059 2.62562 0
M  V30 344 H 31.4919 -1.80278 3.54605 0
M  V30 345 H 28.2309 -1.10471 6.46124 0
M  V30 346 H 27.7509 -2.49132 5.45613 0
M  V30 347 H 29.4299 -2.34169 6.03137 0
M  V30 348 N 29.562 -1.4872 -0.521534 0
M  V30 349 C 30.978 -1.35028 -0.850855 0
M  V30 350 C 31.178 -0.367712 -1.98116 0
M  V30 351 O 30.234 0.208037 -2.51642 0
M  V30 352 C 31.547 -2.75263 -1.21041 0
M  V30 353 C 33.095 -2.83813 -1.31981 0
M  V30 354 C 33.57 -4.24769 -1.71276 0
M  V30 355 N 35.061 -4.27482 -1.78363 0
M  V30 356 C 35.796 -5.33494 -2.1017 0
M  V30 357 N 35.292 -6.49775 -2.40343 0
M  V30 358 N 37.085 -5.20894 -2.11248 0
M  V30 359 H 29.236 -2.11214 0.22413 0
M  V30 360 H 31.499 -0.947252 0.0376439 0
M  V30 361 H 31.205 -3.48765 -0.453415 0
M  V30 362 H 31.079 -3.09327 -2.15863 0
M  V30 363 H 33.466 -2.10561 -2.06756 0
M  V30 364 H 33.547 -2.53358 -0.352596 0
M  V30 365 H 33.191 -4.9854 -0.970588 0
M  V30 366 H 33.121 -4.52673 -2.69062 0
M  V30 367 H 35.612 -3.43611 -1.57288 0
M  V30 368 H 35.925 -7.26402 -2.63743 0
M  V30 369 H 34.27 -6.53035 -2.37844 0
M  V30 370 H 37.461 -4.29065 -1.87139 0
M  V30 371 H 37.634 -6.03612 -2.35704 0
M  V30 372 N 31.0401 0.771051 -1.3745 0
M  V30 373 C 31.9501 1.91538 -1.35464 0
M  V30 374 C 32.9661 1.72134 -0.254123 0
M  V30 375 O 34.1421 1.95358 -0.489626 0
M  V30 376 C 31.2071 3.26671 -1.16134 0
M  V30 377 C 30.2681 3.58723 -2.35831 0
M  V30 378 C 29.5011 4.87409 -2.17413 0
M  V30 379 O 29.7241 5.58506 -1.15876 0
M  V30 380 O 28.6581 5.18539 -3.05615 0
M  V30 381 H 32.4841 1.96165 -2.31847 0
M  V30 382 H 30.0691 0.9139 -1.18187 0
M  V30 383 H 31.9511 4.07499 -1.07345 0
M  V30 384 H 30.6261 3.22894 -0.228251 0
M  V30 385 H 29.5331 2.78127 -2.50192 0
M  V30 386 H 30.8661 3.67243 -3.27709 0
M  V30 387 N 32.5182 1.22032 0.997298 0
M  V30 388 C 33.7672 1.03637 1.73038 0
M  V30 389 C 34.0802 -0.429475 1.90827 0
M  V30 390 O 35.2862 -0.732995 2.61418 0
M  V30 391 C 33.7422 1.80582 3.11317 0
M  V30 392 C 33.3502 3.31387 3.01474 0
M  V30 393 C 35.0942 1.70621 3.88701 0
M  V30 394 C 33.0012 4.00791 4.3488 0
M  V30 395 H 31.9312 0.384179 0.648785 0
M  V30 396 H 34.5822 1.4584 1.11368 0
M  V30 397 H 32.9642 1.31175 3.73643 0
M  V30 398 H 34.1382 3.88155 2.4834 0
M  V30 399 H 32.4532 3.41976 2.37575 0
M  V30 400 H 35.0502 2.19799 4.87434 0
M  V30 401 H 35.3932 0.665823 4.10941 0
M  V30 402 H 35.9262 2.17547 3.33044 0
M  V30 403 H 32.6652 5.05064 4.1784 0
M  V30 404 H 32.1852 3.48811 4.87945 0
M  V30 405 H 33.8642 4.06139 5.03647 0
M  V30 406 N 33.9963 -1.19345 1.0293 0
M  V30 407 C 34.9593 -2.20793 0.615069 0
M  V30 408 C 35.9593 -1.57553 -0.321533 0
M  V30 409 O 37.1493 -1.73862 -0.108483 0
M  V30 410 C 34.2813 -3.40754 -0.0999222 0
M  V30 411 H 35.4743 -2.58955 1.51269 0
M  V30 412 H 33.0273 -1.3303 0.820534 0
M  V30 413 H 33.7623 -3.0811 -1.01187 0
M  V30 414 H 33.5473 -3.87889 0.57309 0
M  V30 415 H 35.0373 -4.15898 -0.376645 0
M  V30 416 N 35.4744 -0.807222 -1.35358 0
M  V30 417 C 36.7514 -0.311126 -1.9311 0
M  V30 418 C 37.1314 1.19937 -1.73719 0
M  V30 419 O 36.4794 1.99918 -1.10657 0
M  V30 420 C 36.6894 -0.723226 -3.41424 0
M  V30 421 C 38.0374 -0.713078 -4.18569 0
M  V30 422 O 39.0614 -0.664811 -3.49941 0
M  V30 423 O 37.9204 -0.772022 -5.41019 0
M  V30 424 H 35.0144 -0.081526 -0.822972 0
M  V30 425 H 37.5604 -0.890962 -1.4443 0
M  V30 426 H 36.3324 -1.76426 -3.4927 0
M  V30 427 H 35.9554 -0.118232 -3.97424 0
M  V30 428 N 36.9525 1.47285 -0.560781 0
M  V30 429 C 38.2005 2.02064 -0.0379868 0
M  V30 430 C 38.5215 1.43711 1.31803 0
M  V30 431 O 37.7915 0.61362 1.86042 0
M  V30 432 H 36.3715 0.746918 -0.0110531 0
M  V30 433 H 39.0335 1.80648 -0.731598 0
M  V30 434 H 38.1295 3.12064 0.0474463 0
M  V30 435 N 38.4306 0.297415 1.54768 0
M  V30 436 C 39.3606 -0.573494 2.26348 0
M  V30 437 C 40.3416 -1.14085 1.26169 0
M  V30 438 O 41.5266 -1.17086 1.54934 0
M  V30 439 C 38.6566 -1.74716 3.00153 0
M  V30 440 C 37.6106 -1.31032 4.07449 0
M  V30 441 C 36.9366 -2.56887 4.68949 0
M  V30 442 C 38.2366 -0.444183 5.20408 0
M  V30 443 H 39.9306 0.0235131 2.99391 0
M  V30 444 H 37.4766 0.0127488 1.43994 0
M  V30 445 H 39.4296 -2.3625 3.48947 0
M  V30 446 H 38.1536 -2.37035 2.24682 0
M  V30 447 H 36.8126 -0.718066 3.59499 0
M  V30 448 H 36.4606 -3.17512 3.90122 0
M  V30 449 H 36.1606 -2.2836 5.41411 0
M  V30 450 H 37.6846 -3.19229 5.20505 0
M  V30 451 H 39.0986 -0.9651 5.65118 0
M  V30 452 H 37.4956 -0.252846 5.99567 0
M  V30 453 H 38.5656 0.531609 4.81977 0
M  V30 454 N 39.9087 -1.5758 0.0250728 0
M  V30 455 C 41.1487 -1.93497 -0.65865 0
M  V30 456 C 41.5127 -0.901409 -1.69525 0
M  V30 457 O 42.7137 -1.14664 -2.43116 0
M  V30 458 C 40.9847 -3.34352 -1.26267 0
M  V30 459 S 42.5437 -3.92191 -1.96803 0
M  V30 460 H 39.3617 -0.67709 -0.216958 0
M  V30 461 H 41.9637 -1.95303 0.0877692 0
M  V30 462 H 40.6677 -4.07395 -0.495741 0
M  V30 463 H 40.1987 -3.3598 -2.04648 0
M  V30 464 H 42.2137 -3.75298 -3.24601 0
M  V30 465 N 41.3868 0.248026 -1.55636 0
M  V30 466 C 42.3168 1.31079 -1.93237 0
M  V30 467 C 43.2978 1.50264 -0.797174 0
M  V30 468 O 44.4828 1.62891 -1.05737 0
M  V30 469 C 41.6128 2.66575 -2.22609 0
M  V30 470 C 40.5668 2.62087 -3.3837 0
M  V30 471 C 39.8928 4.01369 -3.53281 0
M  V30 472 C 41.1928 2.19171 -4.7409 0
M  V30 473 H 42.8868 0.998556 -2.82257 0
M  V30 474 H 40.4328 0.47891 -1.35803 0
M  V30 475 H 42.3858 3.41057 -2.47503 0
M  V30 476 H 41.1098 2.99432 -1.30414 0
M  V30 477 H 39.7688 1.90063 -3.13483 0
M  V30 478 H 39.4168 4.31489 -2.58508 0
M  V30 479 H 39.1168 3.99254 -4.31127 0
M  V30 480 H 40.6408 4.77552 -3.80495 0
M  V30 481 H 42.0548 2.83384 -4.98363 0
M  V30 482 H 40.4518 2.2817 -5.5503 0
M  V30 483 H 41.5218 1.14336 -4.71227 0
M  V30 484 N 42.8649 1.48995 0.513639 0
M  V30 485 C 43.7749 1.67443 1.64317 0
M  V30 486 C 44.7909 0.556947 1.64846 0
M  V30 487 O 45.9669 0.830082 1.83498 0
M  V30 488 C 43.0319 1.72515 3.00732 0
M  V30 489 C 42.0929 2.96009 3.1093 0
M  V30 490 C 41.3259 3.00829 4.40837 0
M  V30 491 O 41.5489 2.13594 5.28898 0
M  V30 492 O 40.4829 3.93168 4.55744 0
M  V30 493 H 44.3089 2.63106 1.51687 0
M  V30 494 H 41.8939 1.32588 0.688543 0
M  V30 495 H 43.7759 1.78277 3.81831 0
M  V30 496 H 42.4509 0.800278 3.13651 0
M  V30 497 H 41.3579 2.9577 2.29065 0
M  V30 498 H 42.6909 3.87934 3.02933 0
M  V30 499 N 44.343 -0.763751 1.37857 0
M  V30 500 C 45.589 -1.52483 1.33704 0
M  V30 501 C 45.922 -1.94051 -0.0759612 0
M  V30 502 O 45.197 -1.64675 -1.03501 0
M  V30 503 C 45.48 -2.78441 2.28348 0
M  V30 504 C 45.333 -2.43075 3.78463 0
M  V30 505 C 46.652 -3.80415 2.21298 0
M  V30 506 H 43.771 -0.553169 0.487005 0
M  V30 507 H 46.413 -0.875562 1.68624 0
M  V30 508 H 44.563 -3.33842 1.987 0
M  V30 509 H 46.235 -1.93527 4.18742 0
M  V30 510 H 44.478 -1.75666 3.96641 0
M  V30 511 H 45.149 -3.33149 4.40132 0
M  V30 512 H 47.625 -3.34527 2.47449 0
M  V30 513 H 46.501 -4.66257 2.89647 0
M  V30 514 H 46.762 -4.25262 1.20849 0
M  V30 515 N 45.8211 -1.22559 -0.990812 0
M  V30 516 C 46.7311 -1.01394 -2.11557 0
M  V30 517 C 47.7471 0.0383962 -1.73958 0
M  V30 518 O 48.9231 -0.154787 -2.00804 0
M  V30 519 C 45.9881 -0.596569 -3.41529 0
M  V30 520 C 45.0491 -1.72276 -3.93217 0
M  V30 521 C 44.2821 -1.32521 -5.16985 0
M  V30 522 O 44.5051 -0.204909 -5.70032 0
M  V30 523 O 43.4391 -2.14247 -5.62478 0
M  V30 524 H 47.2651 -1.95633 -2.32296 0
M  V30 525 H 44.8501 -1.01172 -1.0993 0
M  V30 526 H 46.7321 -0.374263 -4.19735 0
M  V30 527 H 45.4071 0.316939 -3.22145 0
M  V30 528 H 44.3141 -1.99961 -3.16174 0
M  V30 529 H 45.6471 -2.61421 -4.17037 0
M  V30 530 N 47.2992 1.18797 -1.03562 0
M  V30 531 C 48.5472 1.88278 -0.734569 0
M  V30 532 C 48.8682 1.8043 0.739586 0
M  V30 533 O 48.1382 1.21925 1.53333 0
M  V30 534 H 46.7182 0.696991 -0.268725 0
M  V30 535 H 49.3802 1.44192 -1.31129 0
M  V30 536 H 48.4762 2.94443 -1.03489 0
M  V30 537 N 48.7773 0.814389 1.34928 0
M  V30 538 C 49.7243 0.22822 2.29669 0
M  V30 539 C 50.6943 -0.642164 1.53184 0
M  V30 540 O 51.8793 -0.585605 1.81591 0
M  V30 541 C 49.0193 -0.61089 3.3965 0
M  V30 542 C 48.1323 0.280792 4.31086 0
M  V30 543 C 47.2673 -0.567067 5.28165 0
M  V30 544 C 46.3063 0.324531 6.11239 0
M  V30 545 N 45.4433 -0.483756 7.00431 0
M  V30 546 H 50.2833 1.04153 2.79206 0
M  V30 547 H 47.8203 0.525133 1.37407 0
M  V30 548 H 49.7783 -1.11263 4.0209 0
M  V30 549 H 48.4083 -1.38939 2.91369 0
M  V30 550 H 47.4603 0.900688 3.69583 0
M  V30 551 H 48.7723 0.966723 4.89342 0
M  V30 552 H 47.9263 -1.13363 5.96015 0
M  V30 553 H 46.6653 -1.28654 4.70425 0
M  V30 554 H 45.6703 0.903298 5.42329 0
M  V30 555 H 46.8953 1.04198 6.71059 0
M  V30 556 H 44.8413 -1.18706 6.45171 0
M  V30 557 H 44.7583 0.143965 7.55863 0
M  V30 558 H 46.0263 -1.03334 7.7262 0
M  V30 559 N 50.2554 -1.46986 0.568584 0
M  V30 560 C 51.1884 -2.27129 -0.220779 0
M  V30 561 C 52.1664 -1.34757 -0.909905 0
M  V30 562 O 53.3504 -1.64152 -0.926622 0
M  V30 563 C 50.4774 -3.12108 -1.31553 0
M  V30 564 C 49.5234 -4.20141 -0.733748 0
M  V30 565 S 50.3564 -5.33783 0.428479 0
M  V30 566 C 51.5124 -6.22327 -0.667811 0
M  V30 567 H 51.7454 -2.93731 0.459267 0
M  V30 568 H 49.2784 -1.5026 0.355154 0
M  V30 569 H 51.2364 -3.61636 -1.94241 0
M  V30 570 H 49.8974 -2.44847 -1.96746 0
M  V30 571 H 49.0904 -4.79373 -1.5562 0
M  V30 572 H 48.6924 -3.73553 -0.182812 0
M  V30 573 H 50.9844 -6.59364 -1.55708 0
M  V30 574 H 51.9274 -7.0801 -0.11258 0
M  V30 575 H 52.3354 -5.5618 -0.965601 0
M  V30 576 N 51.7335 -0.305618 -1.54608 0
M  V30 577 C 52.9795 0.302746 -2.00528 0
M  V30 578 C 53.3125 1.53184 -1.19367 0
M  V30 579 O 52.5875 1.92598 -0.271321 0
M  V30 580 C 52.8705 0.654756 -3.54097 0
M  V30 581 C 52.7235 -0.583793 -4.45995 0
M  V30 582 C 54.0425 1.47947 -4.14487 0
M  V30 583 H 51.1615 0.108564 -0.72896 0
M  V30 584 H 53.8035 -0.418634 -1.85331 0
M  V30 585 H 51.9535 1.26935 -3.67178 0
M  V30 586 H 53.6255 -1.22224 -4.44814 0
M  V30 587 H 51.8685 -1.21615 -4.16404 0
M  V30 588 H 52.5395 -0.293287 -5.5122 0
M  V30 589 H 55.0155 0.96013 -4.04871 0
M  V30 590 H 53.8915 1.69454 -5.22088 0
M  V30 591 H 54.1525 2.47011 -3.66658 0
M  V30 592 N 53.2116 1.57565 -0.0334293 0
M  V30 593 C 54.4366 1.96689 0.657895 0
M  V30 594 C 54.8616 0.910057 1.64619 0
M  V30 595 O 54.2196 -0.128598 1.80843 0
M  V30 596 C 54.2676 3.34905 1.33683 0
M  V30 597 O 53.3716 3.31574 2.45219 0
M  V30 598 H 52.7126 0.641205 0.172489 0
M  V30 599 H 55.2426 2.04372 -0.0965621 0
M  V30 600 H 55.2526 3.71234 1.69262 0
M  V30 601 H 53.9276 4.11366 0.612411 0
M  V30 602 H 52.5046 3.06968 2.11719 0
M  V30 603 N 54.6897 -0.239769 1.55765 0
M  V30 604 C 56.1057 -0.588624 1.48349 0
M  V30 605 C 56.3057 -1.88005 0.72502 0
M  V30 606 O 55.3617 -2.51186 0.257269 0
M  V30 607 C 56.6747 -0.68474 2.928 0
M  V30 608 C 58.2227 -0.77659 3.03213 0
M  V30 609 C 58.6977 -0.904207 4.48986 0
M  V30 610 N 60.1887 -0.968896 4.52953 0
M  V30 611 C 60.9237 -1.08703 5.63002 0
M  V30 612 N 60.4197 -1.17026 6.82845 0
M  V30 613 N 62.2127 -1.12074 5.50814 0
M  V30 614 H 54.3637 0.607911 2.03515 0
M  V30 615 H 56.6267 0.21083 0.924259 0
M  V30 616 H 56.3327 0.194284 3.51163 0
M  V30 617 H 56.2067 -1.55435 3.43686 0
M  V30 618 H 58.5937 -1.64606 2.44926 0
M  V30 619 H 58.6747 0.118315 2.55526 0
M  V30 620 H 58.3187 -0.0392633 5.07885 0
M  V30 621 H 58.2487 -1.81426 4.9436 0
M  V30 622 H 60.7397 -0.915633 3.6664 0
M  V30 623 H 61.0527 -1.25966 7.62465 0
M  V30 624 H 59.3977 -1.13971 6.85591 0
M  V30 625 H 62.5887 -1.05226 4.5612 0
M  V30 626 H 62.7617 -1.20936 6.36615 0
M  V30 627 N 56.1678 -1.49265 -0.50573 0
M  V30 628 C 57.3958 -1.62215 -1.28429 0
M  V30 629 C 57.8108 -0.291697 -1.86533 0
M  V30 630 O 57.1678 0.722233 -1.67601 0
M  V30 631 C 57.2188 -2.68735 -2.41793 0
M  V30 632 O 56.9398 -3.96619 -1.86078 0
M  V30 633 C 58.4408 -2.92346 -3.3324 0
M  V30 634 H 55.6608 -0.546239 -0.389697 0
M  V30 635 H 58.2048 -1.95265 -0.607609 0
M  V30 636 H 56.3598 -2.38476 -3.053 0
M  V30 637 H 56.7738 -4.55256 -2.60465 0
M  V30 638 H 58.2478 -3.70623 -4.09075 0
M  V30 639 H 58.7248 -2.02081 -3.89948 0
M  V30 640 H 59.3308 -3.24003 -2.75503 0
M  V30 641 N 57.6459 0.756429 -1.3826 0
M  V30 642 C 58.5559 1.9009 -1.37488 0
M  V30 643 C 59.5719 1.71855 -0.272366 0
M  V30 644 O 60.7479 1.94827 -0.510318 0
M  V30 645 C 57.8129 3.25421 -1.19592 0
M  V30 646 C 56.8739 3.56202 -2.39622 0
M  V30 647 C 56.1069 4.85075 -2.2257 0
M  V30 648 O 56.3299 5.57246 -1.21793 0
M  V30 649 O 55.2639 5.15269 -3.11098 0
M  V30 650 H 59.0899 1.93695 -2.33914 0
M  V30 651 H 56.6749 0.901313 -1.1915 0
M  V30 652 H 58.5569 4.06337 -1.11661 0
M  V30 653 H 57.2319 3.22634 -0.262486 0
M  V30 654 H 56.1389 2.75458 -2.53128 0
M  V30 655 H 57.4719 3.63747 -3.31586 0
M  V30 656 N 59.124 1.23083 0.984299 0
M  V30 657 C 60.372 1.05848 1.72165 0
M  V30 658 C 60.693 -0.406049 1.90726 0
M  V30 659 O 59.963 -1.29139 1.47309 0
M  V30 660 H 58.543 0.388685 0.637913 0
M  V30 661 H 61.205 1.54736 1.18503 0
M  V30 662 H 60.301 1.54327 2.71274 0
M  V30 663 N 60.6021 -1.18246 1.0419 0
M  V30 664 C 61.5501 -2.23968 0.627792 0
M  V30 665 C 62.5441 -1.65828 -0.346019 0
M  V30 666 O 63.7501 -1.78733 -0.213175 0
M  V30 667 H 60.1251 -0.728939 0.184802 0
M  V30 668 H 62.0961 -2.56202 1.52981 0
M  V30 669 C 60.8451 -3.47699 0.00796591 0
M  V30 670 H 60.1681 -3.92734 0.748347 0
M  V30 671 H 61.6081 -4.23294 -0.24455 0
M  V30 672 C 60.0671 -3.13153 -1.24246 0
M  V30 673 O 60.5971 -3.27003 -2.33307 0
M  V30 674 N 58.8031 -2.67467 -1.13622 0
M  V30 675 H 58.3501 -2.56396 -0.248734 0
M  V30 676 H 58.3081 -2.44724 -1.97377 0
M  V30 677 N 62.0802 -0.821533 -1.34494 0
M  V30 678 C 63.3292 -0.405355 -1.97585 0
M  V30 679 C 63.6422 1.03677 -1.65863 0
M  V30 680 O 64.8482 1.55679 -2.22433 0
M  V30 681 C 63.3042 -0.673861 -3.53535 0
M  V30 682 C 62.9122 -2.12951 -3.94152 0
M  V30 683 C 64.6562 -0.32378 -4.23263 0
M  V30 684 C 62.5632 -2.34298 -5.43009 0
M  V30 685 H 61.4932 -0.147836 -0.739365 0
M  V30 686 H 64.1442 -1.00769 -1.53355 0
M  V30 687 H 62.5262 -0.00137554 -3.96 0
M  V30 688 H 63.7002 -2.84104 -3.62797 0
M  V30 689 H 62.0152 -2.44089 -3.37356 0
M  V30 690 H 64.6122 -0.461126 -5.32708 0
M  V30 691 H 64.9552 0.731586 -4.09821 0
M  V30 692 H 65.4882 -0.950786 -3.8627 0
M  V30 693 H 62.2272 -3.38335 -5.61435 0
M  V30 694 H 61.7472 -1.67687 -5.75883 0
M  V30 695 H 63.4262 -2.16588 -6.09671 0
M  V30 696 N 63.5583 1.46682 -0.576371 0
M  V30 697 C 64.8353 1.95599 0.00703437 0
M  V30 698 C 65.2153 1.51904 1.46589 0
M  V30 699 O 64.5633 0.766755 2.15251 0
M  V30 700 C 64.7733 3.4864 -0.158404 0
M  V30 701 C 66.1213 4.24594 -0.0229439 0
M  V30 702 O 67.1453 3.56094 -0.0869173 0
M  V30 703 O 66.0043 5.46373 0.118015 0
M  V30 704 H 63.0983 0.825275 0.053384 0
M  V30 705 H 65.6443 1.56996 -0.644244 0
M  V30 706 H 64.4163 3.7331 -1.17282 0
M  V30 707 H 64.0393 3.94057 0.5296 0
M  V30 708 N 65.0364 0.313813 1.54444 0
M  V30 709 C 66.3134 -0.345447 1.92525 0
M  V30 710 C 66.6934 -1.70667 1.24242 0
M  V30 711 O 66.0414 -2.25273 0.382654 0
M  V30 712 C 66.2514 -0.44737 3.46121 0
M  V30 713 C 67.5994 -0.712238 4.18584 0
M  V30 714 O 68.6234 -0.530678 3.52225 0
M  V30 715 O 67.4824 -1.06183 5.36085 0
M  V30 716 H 64.5764 -0.195407 0.803583 0
M  V30 717 H 67.1224 0.362813 1.65776 0
M  V30 718 H 65.8944 0.509043 3.87975 0
M  V30 719 H 65.5174 -1.20359 3.78945 0
M  V30 720 N 66.5145 -1.57545 0.0417849 0
M  V30 721 C 67.7395 -1.97035 -0.647455 0
M  V30 722 C 68.1645 -0.918775 -1.64135 0
M  V30 723 O 67.5225 0.119006 -1.80909 0
M  V30 724 C 67.5705 -3.35609 -1.31905 0
M  V30 725 O 66.6745 -3.3287 -2.43457 0
M  V30 726 H 66.0155 -0.64211 -0.169086 0
M  V30 727 H 68.5455 -2.04318 0.107399 0
M  V30 728 H 68.5555 -3.72126 -1.67291 0
M  V30 729 H 67.2305 -4.11685 -0.590586 0
M  V30 730 H 65.8075 -3.08087 -2.10088 0
M  V30 731 N 67.9926 0.231505 -1.5589 0
M  V30 732 C 68.9226 1.29022 -1.94617 0
M  V30 733 C 69.9036 1.4941 -0.813067 0
M  V30 734 O 71.0886 1.6176 -1.07459 0
M  V30 735 C 68.2186 2.64199 -2.25424 0
M  V30 736 C 67.1726 2.58484 -3.41131 0
M  V30 737 C 66.4986 3.97599 -3.57518 0
M  V30 738 C 67.7986 2.1413 -4.76388 0
M  V30 739 H 69.4926 0.968563 -2.83301 0
M  V30 740 H 67.0386 0.464479 -1.36303 0
M  V30 741 H 68.9916 3.38413 -2.51107 0
M  V30 742 H 67.7156 2.98032 -1.33583 0
M  V30 743 H 66.3746 1.86727 -3.15481 0
M  V30 744 H 66.0226 4.28723 -2.6307 0
M  V30 745 H 65.7226 3.94659 -4.35337 0
M  V30 746 H 67.2466 4.7349 -3.85538 0
M  V30 747 H 68.6606 2.78083 -5.01341 0
M  V30 748 H 67.0576 2.2227 -5.57419 0
M  V30 749 H 68.1276 1.09331 -4.72414 0
M  V30 750 N 69.4707 1.49531 0.497807 0
M  V30 751 C 70.7197 1.58426 1.24837 0
M  V30 752 C 71.0327 0.277643 1.93619 0
M  V30 753 O 72.2387 0.24517 2.70391 0
M  V30 754 C 70.6947 2.79538 2.26686 0
M  V30 755 C 70.3027 4.16971 1.63828 0
M  V30 756 C 72.0467 2.97764 3.0255 0
M  V30 757 C 69.9537 5.29301 2.63807 0
M  V30 758 H 68.8837 0.58989 0.469623 0
M  V30 759 H 71.5347 1.75923 0.521857 0
M  V30 760 H 69.9167 2.55542 3.02514 0
M  V30 761 H 71.0907 4.51116 0.939711 0
M  V30 762 H 69.4057 4.04129 1.00342 0
M  V30 763 H 72.0027 3.78856 3.77323 0
M  V30 764 H 72.3457 2.08448 3.60354 0
M  V30 765 H 72.8787 3.21815 2.33838 0
M  V30 766 H 69.6177 6.20687 2.10779 0
M  V30 767 H 69.1377 4.99606 3.31894 0
M  V30 768 H 70.8167 5.58768 3.2617 0
M  V30 769 N 70.9488 -0.749086 1.3866 0
M  V30 770 C 72.1968 -1.50535 1.34847 0
M  V30 771 C 72.5178 -1.94909 -0.0595016 0
M  V30 772 O 71.7878 -1.67973 -1.00806 0
M  V30 773 H 70.3678 -0.558395 0.49619 0
M  V30 774 H 73.0298 -0.890165 1.73384 0
M  V30 775 H 72.1258 -2.39413 2.00219 0
M  V30 776 N 72.4269 -1.23603 -0.977757 0
M  V30 777 C 73.6749 -1.06759 -1.71601 0
M  V30 778 C 73.9959 0.395929 -1.90938 0
M  V30 779 O 73.2659 1.28356 -1.47992 0
M  V30 780 H 71.8459 -0.392062 -0.635843 0
M  V30 781 H 74.5079 -1.55362 -1.1768 0
M  V30 782 H 73.6039 -1.55763 -2.70452 0
M  V30 783 N 73.905 1.17692 -1.04816 0
M  V30 784 C 74.853 2.23632 -0.63966 0
M  V30 785 C 75.847 1.6601 0.337219 0
M  V30 786 O 77.053 1.78844 0.203693 0
M  V30 787 H 73.428 0.727949 -0.188665 0
M  V30 788 H 75.399 2.55387 -1.54337 0
M  V30 789 C 74.148 3.4769 -0.0264051 0
M  V30 790 H 73.471 3.92331 -0.769164 0
M  V30 791 H 74.911 4.23418 0.222098 0
M  V30 792 C 73.37 3.13807 1.22584 0
M  V30 793 O 73.9 3.28236 2.31569 0
M  V30 794 N 72.106 2.68065 1.12202 0
M  V30 795 H 71.653 2.56525 0.235133 0
M  V30 796 H 71.611 2.45767 1.96076 0
M  V30 797 N 75.3831 0.828654 1.34056 0
M  V30 798 C 76.3461 0.259927 2.27721 0
M  V30 799 C 77.3461 -0.565478 1.50529 0
M  V30 800 O 78.5361 -0.38075 1.69988 0
M  V30 801 C 75.6681 -0.634944 3.34935 0
M  V30 802 H 76.8611 1.0863 2.79534 0
M  V30 803 H 74.4141 0.600951 1.44285 0
M  V30 804 H 75.1491 -1.48416 2.88346 0
M  V30 805 H 74.9341 -0.0444999 3.92075 0
M  V30 806 H 76.4241 -1.02648 4.04788 0
M  V30 807 N 76.8612 -1.46375 0.584142 0
M  V30 808 C 78.0862 -2.07268 0.0740405 0
M  V30 809 C 78.5112 -1.42979 -1.22223 0
M  V30 810 O 77.8692 -0.514092 -1.73859 0
M  V30 811 C 77.9172 -3.60518 -0.0767769 0
M  V30 812 O 77.0212 -3.96533 -1.13292 0
M  V30 813 H 76.3622 -0.660961 0.0634524 0
M  V30 814 H 78.8922 -1.87991 0.807492 0
M  V30 815 H 78.9022 -4.07021 -0.282489 0
M  V30 816 H 77.5772 -4.06702 0.86986 0
M  V30 817 H 76.1542 -3.61738 -0.905553 0
M  V30 818 N 78.3393 -0.321999 -1.54275 0
M  V30 819 C 79.3023 0.531975 -2.22941 0
M  V30 820 C 80.3023 1.04478 -1.22234 0
M  V30 821 O 81.4923 0.937452 -1.46825 0
M  V30 822 C 78.6243 1.73874 -2.93224 0
M  V30 823 H 79.8173 -0.0682612 -2.99822 0
M  V30 824 H 77.3703 -0.0730644 -1.56129 0
M  V30 825 H 78.1053 2.37825 -2.20476 0
M  V30 826 H 77.8903 1.37847 -3.6707 0
M  V30 827 H 79.3803 2.34496 -3.45545 0
M  V30 828 N 79.8174 1.5752 -0.0501392 0
M  V30 829 C 80.7274 2.14952 0.939827 0
M  V30 830 C 81.7434 1.10706 1.34239 0
M  V30 831 O 82.9194 1.42869 1.41952 0
M  V30 832 C 79.9844 2.68232 2.19665 0
M  V30 833 C 79.0454 3.87272 1.85253 0
M  V30 834 C 78.2784 4.38002 3.04943 0
M  V30 835 O 78.5014 3.87811 4.18281 0
M  V30 836 O 77.4354 5.29602 2.86017 0
M  V30 837 H 81.2614 2.9986 0.481392 0
M  V30 838 H 78.8464 1.4841 0.171699 0
M  V30 839 H 80.7284 3.02475 2.93406 0
M  V30 840 H 79.4034 1.86395 2.64648 0
M  V30 841 H 78.3104 3.5792 1.0883 0
M  V30 842 H 79.6434 4.70336 1.4507 0
M  V30 843 N 81.2955 -0.223234 1.56011 0
M  V30 844 C 82.5435 -0.946003 1.78592 0
M  V30 845 C 82.8645 -1.84936 0.618349 0
M  V30 846 O 82.1345 -1.92473 -0.364833 0
M  V30 847 H 80.7145 -0.352298 0.658707 0
M  V30 848 H 83.3765 -0.235494 1.93472 0
M  V30 849 H 82.4725 -1.55381 2.70672 0
M  V30 850 N 82.7736 -1.49793 -0.48987 0
M  V30 851 C 84.1846 -1.52914 -1.07118 0
M  V30 852 C 84.5356 -0.321738 -1.93544 0
M  V30 853 O 83.6606 0.567338 -2.08831 0
M  V30 854 C 84.2556 -2.771 -1.94938 0
M  V30 855 C 82.8146 -2.82963 -2.48212 0
M  V30 856 C 81.9616 -2.46972 -1.26096 0
M  V30 857 H 84.9126 -1.56329 -0.273289 0
M  V30 858 H 84.9336 -2.57892 -2.79771 0
M  V30 859 H 84.4456 -3.64959 -1.32009 0
M  V30 860 H 82.5466 -1.99411 -3.14748 0
M  V30 861 H 82.6596 -3.85406 -2.84603 0
M  V30 862 H 81.0236 -1.98994 -1.58976 0
M  V30 863 H 81.8066 -3.37118 -0.648581 0
M  V30 864 N 84.2517 0.741722 -1.39055 0
M  V30 865 C 85.1617 1.88621 -1.39496 0
M  V30 866 C 86.1777 1.71557 -0.290578 0
M  V30 867 O 87.3537 1.94275 -0.530954 0
M  V30 868 C 84.4187 3.24134 -1.23037 0
M  V30 869 C 83.4797 3.5364 -2.43387 0
M  V30 870 C 82.7127 4.82687 -2.27703 0
M  V30 871 O 82.9357 5.55922 -1.27696 0
M  V30 872 O 81.8697 5.1194 -3.16545 0
M  V30 873 H 85.6957 1.91203 -2.35956 0
M  V30 874 H 83.2807 0.888625 -1.20099 0
M  V30 875 H 85.1627 4.0513 -1.15964 0
M  V30 876 H 83.8377 3.22337 -0.296691 0
M  V30 877 H 82.7447 2.72758 -2.56035 0
M  V30 878 H 84.0777 3.60209 -3.35425 0
M  V30 879 N 85.7298 1.2412 0.971189 0
M  V30 880 C 86.9778 1.07668 1.71032 0
M  V30 881 C 87.2988 -0.385797 1.91146 0
M  V30 882 O 86.5688 -1.27569 1.4867 0
M  V30 883 H 85.1488 0.395429 0.633755 0
M  V30 884 H 87.8108 1.55984 1.16855 0
M  V30 885 H 86.9068 1.57195 2.69622 0
M  V30 886 N 87.2079 -1.17134 1.05439 0
M  V30 887 C 88.1179 -2.24878 0.668365 0
M  V30 888 C 89.1339 -1.71186 -0.311687 0
M  V30 889 O 90.3099 -2.00738 -0.163161 0
M  V30 890 C 87.3749 -3.46662 0.051648 0
M  V30 891 C 86.4359 -4.15429 1.08246 0
M  V30 892 C 85.6689 -5.31399 0.495082 0
M  V30 893 O 85.8919 -5.66153 -0.694743 0
M  V30 894 O 84.8259 -5.89187 1.23056 0
M  V30 895 H 88.6519 -2.60189 1.56637 0
M  V30 896 H 86.2369 -1.24482 0.826104 0
M  V30 897 H 88.1189 -4.20394 -0.290966 0
M  V30 898 H 86.7939 -3.13142 -0.819971 0
M  V30 899 H 85.7009 -3.43704 1.47711 0
M  V30 900 H 87.0339 -4.52982 1.92532 0
M  V30 901 N 88.686 -0.835752 -1.33615 0
M  V30 902 C 89.934 -0.429109 -1.97492 0
M  V30 903 C 90.255 1.01433 -1.66543 0
M  V30 904 O 89.525 1.70611 -0.962744 0
M  V30 905 H 88.105 -0.155686 -0.730596 0
M  V30 906 H 90.767 -1.06802 -1.63031 0
M  V30 907 H 89.863 -0.55861 -3.0706 0
M  V30 908 N 90.1641 1.46063 -0.591896 0
M  V30 909 C 91.3921 2.06717 -0.0868936 0
M  V30 910 C 91.8071 1.43916 1.22203 0
M  V30 911 O 91.1641 0.547698 1.74088 0
M  V30 912 C 91.2151 3.6142 0.0758725 0
M  V30 913 O 90.9361 4.21874 -1.18126 0
M  V30 914 C 92.4371 4.39025 0.61416 0
M  V30 915 H 89.6571 0.668162 -0.0616518 0
M  V30 916 H 92.2011 1.8755 -0.815175 0
M  V30 917 H 90.3561 3.79983 0.754413 0
M  V30 918 H 90.7701 5.14861 -1.00092 0
M  V30 919 H 92.2441 5.4783 0.677193 0
M  V30 920 H 92.7211 4.07708 1.63312 0
M  V30 921 H 93.3271 4.2529 -0.0298142 0
M  V30 922 N 91.6422 0.330177 1.54103 0
M  V30 923 C 92.5522 -0.541534 2.28264 0
M  V30 924 C 93.5682 -1.12351 1.32866 0
M  V30 925 O 94.7442 -1.14206 1.65888 0
M  V30 926 C 91.8092 -1.68322 3.03098 0
M  V30 927 C 90.8702 -1.13238 4.14096 0
M  V30 928 C 90.1032 -2.21966 4.85352 0
M  V30 929 O 90.3262 -3.42437 4.56172 0
M  V30 930 O 89.2602 -1.87013 5.7211 0
M  V30 931 H 93.0862 0.060938 3.03639 0
M  V30 932 H 90.6712 0.09565 1.49093 0
M  V30 933 H 92.5532 -2.34777 3.49939 0
M  V30 934 H 91.2282 -2.27176 2.30593 0
M  V30 935 H 90.1352 -0.432736 3.71589 0
M  V30 936 H 91.4682 -0.588898 4.88664 0
M  V30 937 N 93.1203 -1.57491 0.0584922 0
M  V30 938 C 94.3453 -1.97711 -0.62652 0
M  V30 939 C 94.7703 -0.936132 -1.63151 0
M  V30 940 O 94.1283 0.099811 -1.81025 0
M  V30 941 C 94.1763 -3.36989 -1.28338 0
M  V30 942 O 93.2803 -3.35433 -2.39913 0
M  V30 943 H 92.6213 -0.643868 -0.162266 0
M  V30 944 H 95.1513 -2.04193 0.129064 0
M  V30 945 H 95.1613 -3.73879 -1.63335 0
M  V30 946 H 93.8363 -4.12289 -0.546889 0
M  V30 947 H 92.4133 -3.10298 -2.06809 0
M  V30 948 N 94.5984 0.214957 -1.56127 0
M  V30 949 C 95.8264 0.955092 -1.83536 0
M  V30 950 C 96.2414 1.77677 -0.638472 0
M  V30 951 O 95.5984 1.78219 0.392968 0
M  V30 952 C 95.6494 1.86734 -3.09536 0
M  V30 953 O 95.3704 1.07887 -4.24608 0
M  V30 954 C 96.8714 2.72082 -3.4998 0
M  V30 955 H 94.0914 0.279611 -0.609966 0
M  V30 956 H 96.6354 0.228197 -2.03223 0
M  V30 957 H 94.7904 2.5481 -2.91806 0
M  V30 958 H 95.2044 1.69872 -4.9623 0
M  V30 959 H 96.6784 3.31782 -4.41163 0
M  V30 960 H 97.1554 3.44806 -2.7204 0
M  V30 961 H 97.7614 2.09409 -3.70173 0
M  V30 962 N 96.0765 1.50051 0.48192 0
M  V30 963 C 97.3225 1.60736 1.2366 0
M  V30 964 C 97.6555 0.301786 1.91841 0
M  V30 965 O 96.9305 -0.696025 1.8162 0
M  V30 966 C 97.2135 2.78009 2.28874 0
M  V30 967 C 97.0665 4.18416 1.65069 0
M  V30 968 C 98.3855 2.90867 3.30279 0
M  V30 969 H 95.5045 0.585031 0.448228 0
M  V30 970 H 98.1465 1.82402 0.531946 0
M  V30 971 H 96.2965 2.59667 2.88973 0
M  V30 972 H 97.9685 4.48322 1.0865 0
M  V30 973 H 96.2115 4.23177 0.954148 0
M  V30 974 H 96.8825 4.96381 2.41474 0
M  V30 975 H 99.3585 3.07623 2.80191 0
M  V30 976 H 98.2345 3.74566 4.01238 0
M  V30 977 H 98.4955 2.01021 3.93755 0
M  V30 978 N 97.5546 -0.734337 1.39446 0
M  V30 979 C 98.8036 -1.48937 1.36017 0
M  V30 980 C 99.1166 -1.95557 -0.0409005 0
M  V30 981 O 100.323 -2.70779 -0.19778 0
M  V30 982 C 98.7786 -2.69125 2.38955 0
M  V30 983 C 98.3866 -2.29452 3.8478 0
M  V30 984 C 100.131 -3.46944 2.44603 0
M  V30 985 C 98.0376 -3.46366 4.79358 0
M  V30 986 H 96.9676 -0.559296 0.505672 0
M  V30 987 H 99.6186 -0.800983 1.65095 0
M  V30 988 H 98.0006 -3.40041 2.02948 0
M  V30 989 H 99.1746 -1.66077 4.29831 0
M  V30 990 H 97.4896 -1.64723 3.82433 0
M  V30 991 H 100.087 -4.33907 3.12456 0
M  V30 992 H 100.43 -3.89454 1.47076 0
M  V30 993 H 100.963 -2.83056 2.79507 0
M  V30 994 H 97.7016 -3.08905 5.78151 0
M  V30 995 H 97.2216 -4.08719 4.38986 0
M  V30 996 H 98.9006 -4.12691 4.98292 0
M  V30 997 N 99.0327 -1.24633 -0.964593 0
M  V30 998 C 100.261 -1.11501 -1.74285 0
M  V30 999 C 100.676 0.332165 -1.85855 0
M  V30 1000 O 100.033 1.22903 -1.34911 0
M  V30 1001 C 100.084 -1.75258 -3.16175 0
M  V30 1002 O 99.8047 -3.14318 -3.05182 0
M  V30 1003 C 101.306 -1.67776 -4.10324 0
M  V30 1004 H 98.5257 -0.389407 -0.546446 0
M  V30 1005 H 101.07 -1.64801 -1.21083 0
M  V30 1006 H 99.2247 -1.25954 -3.66353 0
M  V30 1007 H 99.6387 -3.4551 -3.94618 0
M  V30 1008 H 101.113 -2.17064 -5.0753 0
M  V30 1009 H 101.59 -0.639584 -4.34518 0
M  V30 1010 H 102.196 -2.16522 -3.66058 0
M  V30 1011 N 100.511 1.16574 -1.06058 0
M  V30 1012 C 101.759 1.86677 -0.77434 0
M  V30 1013 C 102.08 1.81959 0.701147 0
M  V30 1014 O 101.35 1.2515 1.50713 0
M  V30 1015 H 99.9298 0.691134 -0.283449 0
M  V30 1016 H 102.592 1.41378 -1.34158 0
M  V30 1017 H 101.688 2.92181 -1.09711 0
M  V30 1018 N 101.989 0.842826 1.3317 0
M  V30 1019 C 103.235 0.441099 1.97945 0
M  V30 1020 C 103.568 -0.998024 1.66593 0
M  V30 1021 O 102.843 -1.69839 0.947898 0
M  V30 1022 C 103.126 0.666841 3.53872 0
M  V30 1023 C 102.979 2.15352 3.94897 0
M  V30 1024 C 104.298 0.115544 4.39948 0
M  V30 1025 H 101.417 0.161739 0.719034 0
M  V30 1026 H 104.059 1.05907 1.57746 0
M  V30 1027 H 102.209 0.140828 3.88245 0
M  V30 1028 H 103.881 2.7447 3.70761 0
M  V30 1029 H 102.124 2.63653 3.44484 0
M  V30 1030 H 102.795 2.26221 5.03516 0
M  V30 1031 H 105.271 0.565213 4.12243 0
M  V30 1032 H 104.147 0.303152 5.48062 0
M  V30 1033 H 104.408 -0.980935 4.3108 0
M  V30 1034 N 103.467 -1.45747 0.599634 0
M  V30 1035 C 104.744 -1.95585 0.0240846 0
M  V30 1036 C 105.124 -1.54217 -1.44154 0
M  V30 1037 O 104.472 -0.800903 -2.14004 0
M  V30 1038 C 104.682 -3.48344 0.21385 0
M  V30 1039 C 106.03 -4.24504 0.0904902 0
M  V30 1040 O 107.054 -3.55911 0.143558 0
M  V30 1041 O 105.913 -5.46491 -0.0310766 0
M  V30 1042 H 103.007 -0.82602 -0.0402478 0
M  V30 1043 H 105.553 -1.55951 0.669139 0
M  V30 1044 H 104.325 -3.71397 1.23206 0
M  V30 1045 H 103.948 -3.9485 -0.466842 0
M  V30 1046 N 104.945 -0.338344 -1.53925 0
M  V30 1047 C 106.194 0.260732 -2.00008 0
M  V30 1048 C 106.507 1.52073 -1.23017 0
M  V30 1049 O 107.713 2.19672 -1.5955 0
M  V30 1050 C 106.169 0.51515 -3.56194 0
M  V30 1051 C 105.777 -0.728645 -4.42035 0
M  V30 1052 C 107.521 1.07337 -4.10706 0
M  V30 1053 C 105.428 -0.445315 -5.89721 0
M  V30 1054 H 104.358 0.101205 -0.747177 0
M  V30 1055 H 107.009 -0.452866 -1.77824 0
M  V30 1056 H 105.391 1.28932 -3.74423 0
M  V30 1057 H 106.565 -1.50352 -4.35581 0
M  V30 1058 H 104.88 -1.20813 -3.98489 0
M  V30 1059 H 107.477 1.30022 -5.18651 0
M  V30 1060 H 107.82 2.0273 -3.63602 0
M  V30 1061 H 108.353 0.360034 -3.96167 0
M  V30 1062 H 105.092 -1.36883 -6.41049 0
M  V30 1063 H 104.612 0.291569 -5.99091 0
M  V30 1064 H 106.291 -0.0606218 -6.46972 0
M  V30 1065 N 106.423 1.57458 -0.0668435 0
M  V30 1066 C 107.669 1.93587 0.6043 0
M  V30 1067 C 108.002 0.946722 1.69561 0
M  V30 1068 O 107.277 -0.0248516 1.94484 0
M  V30 1069 C 107.56 3.40014 1.18585 0
M  V30 1070 C 107.413 4.49685 0.101529 0
M  V30 1071 C 108.732 3.87154 2.09284 0
M  V30 1072 H 105.851 0.703958 0.218202 0
M  V30 1073 H 108.493 1.89542 -0.131804 0
M  V30 1074 H 106.643 3.43592 1.81319 0
M  V30 1075 H 108.315 4.5823 -0.531279 0
M  V30 1076 H 106.558 4.30059 -0.568487 0
M  V30 1077 H 107.229 5.49266 0.54874 0
M  V30 1078 H 109.705 3.85551 1.56491 0
M  V30 1079 H 108.581 4.90231 2.46911 0
M  V30 1080 H 108.842 3.2481 2.99918 0
M  V30 1081 N 107.901 -0.206675 1.56239 0
M  V30 1082 C 108.834 -1.28383 1.88661 0
M  V30 1083 C 109.812 -1.44504 0.745481 0
M  V30 1084 O 110.996 -1.60079 0.995336 0
M  V30 1085 C 108.123 -2.65211 2.10667 0
M  V30 1086 C 107.169 -2.66025 3.33366 0
M  V30 1087 S 108.002 -2.18609 4.88846 0
M  V30 1088 C 109.158 -3.57283 5.13906 0
M  V30 1089 H 109.391 -1.00691 2.7973 0
M  V30 1090 H 106.924 -0.409627 1.48867 0
M  V30 1091 H 108.882 -3.43979 2.24029 0
M  V30 1092 H 107.543 -2.90121 1.20369 0
M  V30 1093 H 106.736 -3.66607 3.45855 0
M  V30 1094 H 106.338 -1.95331 3.18938 0
M  V30 1095 H 108.63 -4.53074 5.03717 0
M  V30 1096 H 109.573 -3.49699 6.15724 0
M  V30 1097 H 109.981 -3.51659 4.41583 0
M  V30 1098 N 109.379 -1.50304 -0.473955 0
M  V30 1099 C 110.327 -1.69482 -1.59307 0
M  V30 1100 C 111.321 -0.560669 -1.59853 0
M  V30 1101 O 112.527 -0.741087 -1.64036 0
M  V30 1102 H 108.902 -0.534892 -0.528578 0
M  V30 1103 H 110.873 -2.63364 -1.40293 0
M  V30 1104 C 109.622 -1.80354 -2.97267 0
M  V30 1105 H 108.945 -2.67012 -2.97564 0
M  V30 1106 H 110.385 -1.97798 -3.75036 0
M  V30 1107 C 108.844 -0.55448 -3.32306 0
M  V30 1108 O 109.374 0.307661 -4.0052 0
M  V30 1109 N 107.58 -0.409354 -2.87702 0
M  V30 1110 H 107.127 -1.11196 -2.32364 0
M  V30 1111 H 107.085 0.425223 -3.11511 0
M  V30 1112 N 110.857 0.726932 -1.39834 0
M  V30 1113 C 111.807 1.83232 -1.35683 0
M  V30 1114 C 112.791 1.59155 -0.236295 0
M  V30 1115 O 113.983 1.70522 -0.474488 0
M  V30 1116 C 111.112 3.21246 -1.21062 0
M  V30 1117 C 110.198 3.51125 -2.37849 0
M  V30 1118 N 110.589 3.51889 -3.63329 0
M  V30 1119 C 108.887 3.81527 -2.30982 0
M  V30 1120 C 109.588 3.79791 -4.40606 0
M  V30 1121 N 108.564 3.97971 -3.70297 0
M  V30 1122 H 112.366 1.8214 -2.30656 0
M  V30 1123 H 109.88 0.925545 -1.33444 0
M  V30 1124 H 111.877 4.00387 -1.16171 0
M  V30 1125 H 110.537 3.23572 -0.270458 0
M  V30 1126 H 111.548 3.33008 -3.96643 0
M  V30 1127 H 108.225 3.91411 -1.45272 0
M  V30 1128 H 109.615 3.86783 -5.49408 0
M  V30 1129 N 112.336 1.25143 0.95797 0
M  V30 1130 C 113.286 1.01924 2.0395 0
M  V30 1131 C 114.27 -0.0427175 1.60843 0
M  V30 1132 O 115.462 0.17221 1.7616 0
M  V30 1133 C 112.591 0.636373 3.3735 0
M  V30 1134 C 111.677 1.73492 3.8699 0
M  V30 1135 N 112.068 2.96945 4.0946 0
M  V30 1136 C 110.366 1.61467 4.15746 0
M  V30 1137 C 111.067 3.68228 4.50315 0
M  V30 1138 N 110.043 2.95833 4.56053 0
M  V30 1139 H 113.845 1.95653 2.19311 0
M  V30 1140 H 111.359 1.15413 1.14253 0
M  V30 1141 H 113.356 0.451233 4.14451 0
M  V30 1142 H 112.016 -0.293621 3.2337 0
M  V30 1143 H 113.027 3.33025 3.96629 0
M  V30 1144 H 109.704 0.753394 4.10646 0
M  V30 1145 H 111.094 4.74178 4.76031 0
M  V30 1146 N 113.814 -1.1601 1.06675 0
M  V30 1147 C 114.744 -2.22688 0.702307 0
M  V30 1148 C 115.725 -1.67306 -0.307032 0
M  V30 1149 O 116.91 -1.93352 -0.181305 0
M  V30 1150 C 114.04 -3.47178 0.092038 0
M  V30 1151 C 112.994 -4.15477 1.02777 0
M  V30 1152 C 112.32 -5.33963 0.28061 0
M  V30 1153 C 113.62 -4.66019 2.35846 0
M  V30 1154 H 115.314 -2.53429 1.59419 0
M  V30 1155 H 112.86 -1.21813 0.767961 0
M  V30 1156 H 114.813 -4.21037 -0.174814 0
M  V30 1157 H 113.537 -3.15749 -0.834877 0
M  V30 1158 H 112.196 -3.43549 1.27944 0
M  V30 1159 H 111.844 -4.98788 -0.649545 0
M  V30 1160 H 111.544 -5.806 0.904258 0
M  V30 1161 H 113.068 -6.10596 0.021396 0
M  V30 1162 H 114.482 -5.3144 2.15045 0
M  V30 1163 H 112.879 -5.23293 2.93743 0
M  V30 1164 H 113.949 -3.82023 2.98641 0
M  V30 1165 N 115.292 -0.849877 -1.32721 0
M  V30 1166 C 116.224 -0.248332 -2.27851 0
M  V30 1167 C 117.237 0.577218 -1.52224 0
M  V30 1168 O 118.426 0.402489 -1.73903 0
M  V30 1169 C 115.526 0.668107 -3.32249 0
M  V30 1170 C 114.699 -0.120534 -4.37234 0
M  V30 1171 C 113.758 0.720932 -5.21238 0
M  V30 1172 O 112.784 0.156166 -5.68986 0
M  V30 1173 N 113.986 2.03647 -5.43607 0
M  V30 1174 H 116.751 -1.06575 -2.80111 0
M  V30 1175 H 114.312 -0.709395 -1.45531 0
M  V30 1176 H 116.304 1.23627 -3.85355 0
M  V30 1177 H 114.874 1.38621 -2.80184 0
M  V30 1178 H 114.094 -0.870108 -3.84477 0
M  V30 1179 H 115.382 -0.662406 -5.0447 0
M  V30 1180 H 114.78 2.51871 -5.06535 0
M  V30 1181 H 113.337 2.55287 -5.99727 0
M  V30 1182 N 116.77 1.45427 -0.607355 0
M  V30 1183 C 117.68 2.34325 0.113463 0
M  V30 1184 C 118.696 1.51226 0.860617 0
M  V30 1185 O 119.872 1.84029 0.818255 0
M  V30 1186 C 116.937 3.28839 1.09844 0
M  V30 1187 C 115.998 4.27844 0.353271 0
M  V30 1188 C 115.231 5.17842 1.29133 0
M  V30 1189 O 115.454 5.11264 2.52913 0
M  V30 1190 O 114.388 5.96713 0.788523 0
M  V30 1191 H 118.214 2.97364 -0.617094 0
M  V30 1192 H 115.799 1.44807 -0.367619 0
M  V30 1193 H 117.681 3.8708 1.66575 0
M  V30 1194 H 116.356 2.68365 1.81003 0
M  V30 1195 H 115.263 3.7322 -0.256494 0
M  V30 1196 H 116.596 4.91173 -0.317822 0
M  V30 1197 N 118.248 0.346503 1.53744 0
M  V30 1198 C 119.476 -0.25041 2.05379 0
M  V30 1199 C 119.891 -1.43979 1.22129 0
M  V30 1200 O 119.248 -1.80677 0.257321 0
M  V30 1201 C 119.299 -0.662575 3.55376 0
M  V30 1202 O 119.02 0.479515 4.35468 0
M  V30 1203 C 120.521 -1.31989 4.23195 0
M  V30 1204 H 117.741 -0.0478198 0.669294 0
M  V30 1205 H 120.285 0.499346 1.9831 0
M  V30 1206 H 118.44 -1.36227 3.62658 0
M  V30 1207 H 118.854 0.15037 5.24284 0
M  V30 1208 H 120.328 -1.55902 5.29527 0
M  V30 1209 H 120.805 -2.27436 3.75725 0
M  V30 1210 H 121.411 -0.662154 4.20114 0
M  V30 1211 N 119.726 -1.57421 0.075193 0
M  V30 1212 C 120.951 -1.98364 -0.605515 0
M  V30 1213 C 121.376 -0.953383 -1.62149 0
M  V30 1214 O 120.734 0.0806053 -1.81121 0
M  V30 1215 C 120.782 -3.38332 -1.24756 0
M  V30 1216 O 119.886 -3.37959 -2.36342 0
M  V30 1217 H 119.227 -0.645553 -0.155428 0
M  V30 1218 H 121.757 -2.04044 0.150714 0
M  V30 1219 H 121.767 -3.75591 -1.5936 0
M  V30 1220 H 120.442 -4.12846 -0.503129 0
M  V30 1221 H 119.019 -3.12474 -2.03506 0
M  V30 1222 N 121.204 0.198386 -1.56346 0
M  V30 1223 C 122.451 0.919286 -1.80431 0
M  V30 1224 C 122.779 1.83393 -0.647866 0
M  V30 1225 O 122.034 1.92236 0.366556 0
M  V30 1226 C 122.333 1.77031 -3.10475 0
M  V30 1227 C 121.999 1.00693 -4.39513 0
M  V30 1228 C 120.661 0.796145 -4.74568 0
M  V30 1229 C 123.013 0.469559 -5.19081 0
M  V30 1230 C 120.341 0.0364588 -5.86689 0
M  V30 1231 C 122.693 -0.2769 -6.31994 0
M  V30 1232 C 121.357 -0.49873 -6.65634 0
M  V30 1233 H 120.627 0.336391 -0.660244 0
M  V30 1234 H 123.274 0.185872 -1.90596 0
M  V30 1235 H 121.579 2.5723 -2.95533 0
M  V30 1236 H 123.276 2.33065 -3.26315 0
M  V30 1237 H 119.866 1.18122 -4.12001 0
M  V30 1238 H 124.05 0.619816 -4.92414 0
M  V30 1239 H 119.306 -0.145412 -6.11227 0
M  V30 1240 H 123.48 -0.700684 -6.92866 0
M  V30 1241 H 121.107 -1.0893 -7.52355 0
M  V30 1242 N 122.682 1.50554 0.465978 0
M  V30 1243 C 123.91 1.65563 1.24083 0
M  V30 1244 C 124.325 0.341051 1.85694 0
M  V30 1245 O 123.682 -0.677543 1.69457 0
M  V30 1246 C 123.733 2.75051 2.34583 0
M  V30 1247 O 123.454 4.01413 1.75497 0
M  V30 1248 C 124.955 3.01078 3.25372 0
M  V30 1249 H 122.175 0.55638 0.375077 0
M  V30 1250 H 124.719 1.96807 0.555624 0
M  V30 1251 H 122.874 2.46486 2.9887 0
M  V30 1252 H 123.288 4.62002 2.48303 0
M  V30 1253 H 124.762 3.81339 3.99105 0
M  V30 1254 H 125.239 2.12349 3.84453 0
M  V30 1255 H 125.845 3.31194 2.66816 0
M  V30 1256 N 124.16 -0.719506 1.40217 0
M  V30 1257 C 125.107 -1.83359 1.40172 0
M  V30 1258 C 126.077 -1.64065 0.259206 0
M  V30 1259 O 127.262 -1.85254 0.456677 0
M  V30 1260 C 124.402 -3.2103 1.26624 0
M  V30 1261 C 123.515 -3.51923 2.50548 0
M  V30 1262 C 122.65 -4.79079 2.29471 0
M  V30 1263 C 121.689 -5.02863 3.48992 0
M  V30 1264 N 120.826 -6.2123 3.27135 0
M  V30 1265 H 125.666 -1.82733 2.35399 0
M  V30 1266 H 123.203 -0.892688 1.16917 0
M  V30 1267 H 125.161 -4.00524 1.16776 0
M  V30 1268 H 123.791 -3.20895 0.350176 0
M  V30 1269 H 122.843 -2.67014 2.70939 0
M  V30 1270 H 124.155 -3.6541 3.39525 0
M  V30 1271 H 123.309 -5.66582 2.16955 0
M  V30 1272 H 122.048 -4.67794 1.37913 0
M  V30 1273 H 121.053 -4.13816 3.6199 0
M  V30 1274 H 122.278 -5.16023 4.41472 0
M  V30 1275 H 120.224 -6.11204 2.38256 0
M  V30 1276 H 120.141 -6.35375 4.09675 0
M  V30 1277 H 121.409 -7.11532 3.18344 0
M  V30 1278 N 125.638 -1.25649 -0.95132 0
M  V30 1279 C 126.548 -1.08073 -2.08224 0
M  V30 1280 C 127.564 -0.0169666 -1.73992 0
M  V30 1281 O 128.74 -0.218593 -2.0021 0
M  V30 1282 C 125.805 -0.704922 -3.39458 0
M  V30 1283 C 124.866 -1.84699 -3.87537 0
M  V30 1284 C 124.099 -1.48902 -5.12508 0
M  V30 1285 O 124.322 -0.386156 -5.69091 0
M  V30 1286 O 123.256 -2.32033 -5.55378 0
M  V30 1287 H 127.082 -2.02924 -2.25954 0
M  V30 1288 H 124.667 -1.04618 -1.06656 0
M  V30 1289 H 126.549 -0.507609 -4.18332 0
M  V30 1290 H 125.224 0.214291 -3.2299 0
M  V30 1291 H 124.131 -2.09919 -3.09653 0
M  V30 1292 H 125.464 -2.74557 -4.08509 0
M  V30 1293 N 127.117 1.15442 -1.07289 0
M  V30 1294 C 128.08 2.18358 -0.696591 0
M  V30 1295 C 129.08 1.58637 0.262837 0
M  V30 1296 O 130.27 1.74145 0.0438809 0
M  V30 1297 C 127.402 3.4089 -0.0266151 0
M  V30 1298 H 128.595 2.53162 -1.60776 0
M  V30 1299 H 126.148 1.29893 -0.869342 0
M  V30 1300 H 126.883 3.11653 0.896822 0
M  V30 1301 H 126.668 3.85495 -0.716657 0
M  V30 1302 H 128.158 4.17009 0.222028 0
M  V30 1303 N 128.595 0.856903 1.32268 0
M  V30 1304 C 129.825 0.47475 2.01071 0
M  V30 1305 C 130.233 -0.933746 1.64553 0
M  V30 1306 O 129.576 -1.62114 0.863989 0
M  V30 1307 C 129.638 0.536746 3.55471 0
M  V30 1308 C 129.302 1.90453 4.15423 0
M  V30 1309 C 130.299 2.87029 4.33486 0
M  V30 1310 C 127.984 2.20229 4.51447 0
M  V30 1311 C 129.978 4.11532 4.86744 0
M  V30 1312 C 127.665 3.44984 5.0441 0
M  V30 1313 C 128.663 4.40452 5.22007 0
M  V30 1314 O 128.351 5.62998 5.73837 0
M  V30 1315 H 128.083 0.184778 0.650256 0
M  V30 1316 H 130.637 1.15615 1.69771 0
M  V30 1317 H 128.867 -0.20152 3.86175 0
M  V30 1318 H 130.556 0.169875 4.05544 0
M  V30 1319 H 131.322 2.6533 4.05986 0
M  V30 1320 H 127.201 1.46705 4.37034 0
M  V30 1321 H 130.745 4.86056 5.00395 0
M  V30 1322 H 126.642 3.66532 5.31342 0
M  V30 1323 H 127.41 5.64987 5.92226 0
M  V30 1324 N 130.073 -1.45103 0.615059 0
M  V30 1325 C 131.02 -2.30586 -0.0993978 0
M  V30 1326 C 131.99 -1.42544 -0.852669 0
M  V30 1327 O 133.175 -1.71465 -0.836917 0
M  V30 1328 C 130.315 -3.27572 -1.08583 0
M  V30 1329 C 129.428 -4.30717 -0.332656 0
M  V30 1330 C 128.563 -5.14807 -1.30947 0
M  V30 1331 C 127.602 -6.09673 -0.544538 0
M  V30 1332 N 126.739 -6.86517 -1.47101 0
M  V30 1333 H 131.579 -2.91144 0.635542 0
M  V30 1334 H 129.116 -1.4346 0.325206 0
M  V30 1335 H 131.074 -3.82276 -1.67095 0
M  V30 1336 H 129.704 -2.68751 -1.78809 0
M  V30 1337 H 128.756 -3.78615 0.368107 0
M  V30 1338 H 130.068 -4.98102 0.263842 0
M  V30 1339 H 129.222 -5.73948 -1.96643 0
M  V30 1340 H 127.961 -4.47458 -1.9399 0
M  V30 1341 H 126.966 -5.49656 0.126003 0
M  V30 1342 H 128.191 -6.79052 0.080947 0
M  V30 1343 H 126.137 -6.21851 -2.08895 0
M  V30 1344 H 126.054 -7.50281 -0.928137 0
M  V30 1345 H 127.322 -7.50194 -2.11731 0
M  V30 1346 N 131.551 -0.354651 -1.53558 0
M  V30 1347 C 132.498 0.496968 -2.25386 0
M  V30 1348 C 133.468 1.0865 -1.25636 0
M  V30 1349 O 134.653 1.12104 -1.54394 0
M  V30 1350 C 131.793 1.63637 -3.03837 0
M  V30 1351 C 130.906 1.07307 -4.18461 0
M  V30 1352 C 130.041 2.18068 -4.84376 0
M  V30 1353 C 129.08 1.59147 -5.91049 0
M  V30 1354 N 128.217 2.63695 -6.50699 0
M  V30 1355 H 133.057 -0.122075 -2.9775 0
M  V30 1356 H 130.594 -0.0720154 -1.46924 0
M  V30 1357 H 132.552 2.30734 -3.47589 0
M  V30 1358 H 131.182 2.22623 -2.33749 0
M  V30 1359 H 130.234 0.292708 -3.79272 0
M  V30 1360 H 131.546 0.602193 -4.95152 0
M  V30 1361 H 130.7 2.93007 -5.31255 0
M  V30 1362 H 129.439 2.68504 -4.07133 0
M  V30 1363 H 128.444 0.827175 -5.43542 0
M  V30 1364 H 129.669 1.09549 -6.70206 0
M  V30 1365 H 127.615 3.13365 -5.76315 0
M  V30 1366 H 127.532 2.21263 -7.22896 0
M  V30 1367 H 128.8 3.3837 -7.02229 0
M  V30 1368 N 133.029 1.57378 -0.0835403 0
M  V30 1369 C 134.259 1.97975 0.590713 0
M  V30 1370 C 134.667 0.961083 1.62972 0
M  V30 1371 O 134.01 -0.0590879 1.83605 0
M  V30 1372 C 134.072 3.34915 1.3066 0
M  V30 1373 C 133.736 4.55069 0.419698 0
M  V30 1374 C 134.733 5.18868 -0.32749 0
M  V30 1375 C 132.418 5.0114 0.341137 0
M  V30 1376 C 134.412 6.27098 -1.14134 0
M  V30 1377 C 132.099 6.0924 -0.476374 0
M  V30 1378 C 133.097 6.72083 -1.21627 0
M  V30 1379 O 132.785 7.781 -2.02028 0
M  V30 1380 H 132.517 0.655818 0.163947 0
M  V30 1381 H 135.071 2.04807 -0.156021 0
M  V30 1382 H 133.301 3.24733 2.09966 0
M  V30 1383 H 134.99 3.60037 1.87424 0
M  V30 1384 H 135.756 4.84211 -0.276459 0
M  V30 1385 H 131.635 4.51996 0.90668 0
M  V30 1386 H 135.179 6.7608 -1.71935 0
M  V30 1387 H 131.076 6.43329 -0.528927 0
M  V30 1388 H 131.844 7.95034 -1.94586 0
M  V30 1389 N 134.507 -0.190092 1.56449 0
M  V30 1390 C 135.756 -0.907912 1.80111 0
M  V30 1391 C 136.069 -1.84214 0.657619 0
M  V30 1392 O 137.275 -2.60094 0.778663 0
M  V30 1393 C 135.731 -1.66485 3.19078 0
M  V30 1394 C 135.339 -0.7752 4.41242 0
M  V30 1395 C 137.083 -2.37201 3.52045 0
M  V30 1396 C 134.99 -1.53129 5.71231 0
M  V30 1397 H 133.92 -0.34276 0.671589 0
M  V30 1398 H 136.571 -0.161109 1.82791 0
M  V30 1399 H 134.953 -2.45572 3.10661 0
M  V30 1400 H 136.127 -0.0226298 4.60794 0
M  V30 1401 H 134.442 -0.178627 4.16017 0
M  V30 1402 H 137.039 -2.94329 4.46402 0
M  V30 1403 H 137.382 -3.11632 2.76028 0
M  V30 1404 H 137.915 -1.65075 3.61932 0
M  V30 1405 H 134.654 -0.82967 6.50228 0
M  V30 1406 H 134.174 -2.25767 5.55688 0
M  V30 1407 H 135.853 -2.08377 6.12526 0
M  V30 1408 N 135.985 -1.50799 -0.457987 0
M  V30 1409 C 136.932 -1.70617 -1.5543 0
M  V30 1410 C 137.902 -0.547562 -1.56815 0
M  V30 1411 O 139.087 -0.779647 -1.74144 0
M  V30 1412 C 136.227 -1.81831 -2.93311 0
M  V30 1413 C 135.34 -3.09278 -3.01615 0
M  V30 1414 C 134.475 -3.11209 -4.30491 0
M  V30 1415 C 133.514 -4.33055 -4.32585 0
M  V30 1416 N 132.651 -4.32652 -5.52952 0
M  V30 1417 H 137.491 -2.64207 -1.37836 0
M  V30 1418 H 135.028 -1.30959 -0.669937 0
M  V30 1419 H 136.986 -1.86314 -3.73287 0
M  V30 1420 H 135.616 -0.916685 -3.0951 0
M  V30 1421 H 134.668 -3.14203 -2.1443 0
M  V30 1422 H 135.98 -3.99233 -2.99022 0
M  V30 1423 H 135.134 -3.14494 -5.18824 0
M  V30 1424 H 133.873 -2.19106 -4.35711 0
M  V30 1425 H 132.878 -4.29969 -3.42647 0
M  V30 1426 H 134.103 -5.264 -4.29046 0
M  V30 1427 H 132.049 -3.43409 -5.58933 0
M  V30 1428 H 131.966 -5.16392 -5.52155 0
M  V30 1429 H 133.234 -4.40101 -6.43375 0
M  V30 1430 N 137.463 0.71206 -1.40597 0
M  V30 1431 C 138.74 1.46536 -1.29563 0
M  V30 1432 C 139.12 2.10931 0.0844217 0
M  V30 1433 O 138.468 2.00418 1.0975 0
M  V30 1434 C 138.678 2.49821 -2.43701 0
M  V30 1435 C 140.026 3.15551 -2.841 0
M  V30 1436 O 141.05 2.60142 -2.4332 0
M  V30 1437 O 139.909 4.15867 -3.54566 0
M  V30 1438 H 137.003 0.651801 -0.509004 0
M  V30 1439 H 139.549 0.743935 -1.52524 0
M  V30 1440 H 138.321 2.00778 -3.35863 0
M  V30 1441 H 137.944 3.29495 -2.22528 0
M  V30 1442 N 138.941 1.26152 0.944643 0
M  V30 1443 C 140.171 1.14094 1.72239 0
M  V30 1444 C 140.579 -0.306931 1.86694 0
M  V30 1445 O 139.922 -1.22222 1.3714 0
M  V30 1446 C 139.984 1.73316 3.14963 0
M  V30 1447 C 139.648 3.2239 3.23904 0
M  V30 1448 C 140.645 4.19252 3.07447 0
M  V30 1449 C 138.33 3.62788 3.47405 0
M  V30 1450 C 140.324 5.54491 3.14353 0
M  V30 1451 C 138.011 4.98162 3.53947 0
M  V30 1452 C 139.009 5.93823 3.37436 0
M  V30 1453 O 138.697 7.26732 3.43679 0
M  V30 1454 H 138.429 0.398292 0.546205 0
M  V30 1455 H 140.983 1.67201 1.19301 0
M  V30 1456 H 139.213 1.14667 3.69308 0
M  V30 1457 H 140.902 1.56214 3.74636 0
M  V30 1458 H 141.668 3.8938 2.8915 0
M  V30 1459 H 137.547 2.88816 3.59313 0
M  V30 1460 H 141.091 6.29137 3.01384 0
M  V30 1461 H 136.988 5.27695 3.71763 0
M  V30 1462 H 137.756 7.3496 3.60245 0
M  V30 1463 N 140.419 -1.14872 1.07899 0
M  V30 1464 C 141.352 -2.18794 0.64841 0
M  V30 1465 C 142.33 -1.59065 -0.337189 0
M  V30 1466 O 143.514 -1.86936 -0.242284 0
M  V30 1467 C 140.641 -3.38667 -0.0470417 0
M  V30 1468 C 139.687 -4.16942 0.897884 0
M  V30 1469 S 140.52 -4.78615 2.40183 0
M  V30 1470 C 141.676 -6.0185 1.71834 0
M  V30 1471 H 141.909 -2.5498 1.52881 0
M  V30 1472 H 139.442 -1.25922 0.893484 0
M  V30 1473 H 141.4 -4.08113 -0.442027 0
M  V30 1474 H 140.061 -3.00814 -0.903861 0
M  V30 1475 H 139.254 -5.02726 0.358096 0
M  V30 1476 H 138.856 -3.53073 1.23352 0
M  V30 1477 H 141.148 -6.69574 1.03328 0
M  V30 1478 H 142.091 -6.60408 2.55473 0
M  V30 1479 H 142.499 -5.5173 1.19392 0
M  V30 1480 N 141.898 -0.863906 -1.31812 0
M  V30 1481 C 142.845 -0.313303 -2.28664 0
M  V30 1482 C 143.815 0.584868 -1.55462 0
M  V30 1483 O 145 0.517805 -1.83639 0
M  V30 1484 C 142.14 0.48441 -3.41683 0
M  V30 1485 C 141.253 -0.440594 -4.29747 0
M  V30 1486 C 140.388 0.370652 -5.29905 0
M  V30 1487 C 139.427 -0.551164 -6.09613 0
M  V30 1488 N 138.564 0.223462 -7.01744 0
M  V30 1489 H 143.404 -1.14444 -2.75148 0
M  V30 1490 H 140.941 -0.575769 -1.35364 0
M  V30 1491 H 142.899 0.962627 -4.05943 0
M  V30 1492 H 141.529 1.28029 -2.96325 0
M  V30 1493 H 140.581 -1.03724 -3.65986 0
M  V30 1494 H 141.893 -1.14767 -4.85417 0
M  V30 1495 H 141.047 0.911638 -5.99812 0
M  V30 1496 H 139.786 1.11105 -4.74876 0
M  V30 1497 H 138.791 -1.10396 -5.38603 0
M  V30 1498 H 140.016 -1.29032 -6.66729 0
M  V30 1499 H 137.962 0.946787 -6.49132 0
M  V30 1500 H 137.879 -0.424399 -7.54808 0
M  V30 1501 H 139.147 0.745876 -7.75923 0
M  V30 1502 N 143.376 1.44774 -0.622745 0
M  V30 1503 C 144.601 2.06999 -0.128968 0
M  V30 1504 C 145.026 1.4617 1.1839 0
M  V30 1505 O 144.384 0.560007 1.72434 0
M  V30 1506 C 144.432 3.60595 -0.0188351 0
M  V30 1507 O 143.536 3.99398 1.02739 0
M  V30 1508 H 142.877 0.659047 -0.0809544 0
M  V30 1509 H 145.407 1.85784 -0.85705 0
M  V30 1510 H 145.417 4.07627 0.174476 0
M  V30 1511 H 144.092 4.04252 -0.977384 0
M  V30 1512 H 142.669 3.64011 0.809326 0
M  V30 1513 N 144.854 0.36279 1.53368 0
M  V30 1514 C 146.103 -0.22888 2.00397 0
M  V30 1515 C 146.416 -1.50096 1.25421 0
M  V30 1516 O 147.622 -2.17106 1.63025 0
M  V30 1517 C 146.078 -0.458417 3.56969 0
M  V30 1518 C 145.686 0.798877 4.4082 0
M  V30 1519 C 147.43 -1.00789 4.12361 0
M  V30 1520 C 145.337 0.539078 5.88938 0
M  V30 1521 H 144.267 -0.089305 0.748693 0
M  V30 1522 H 146.918 0.481099 1.77081 0
M  V30 1523 H 145.3 -1.22959 3.76427 0
M  V30 1524 H 146.474 1.57262 4.33134 0
M  V30 1525 H 144.789 1.27137 3.96516 0
M  V30 1526 H 147.386 -1.21754 5.20653 0
M  V30 1527 H 147.729 -1.9692 3.66781 0
M  V30 1528 H 148.262 -0.296961 3.9669 0
M  V30 1529 H 145.001 1.47064 6.3879 0
M  V30 1530 H 144.521 -0.196222 5.99479 0
M  V30 1531 H 146.2 0.163542 6.46793 0
M  V30 1532 N 146.332 -1.57332 0.0918853 0
M  V30 1533 C 147.279 -2.13847 -0.868211 0
M  V30 1534 C 148.249 -1.05618 -1.28196 0
M  V30 1535 O 149.434 -1.33387 -1.36427 0
M  V30 1536 C 146.574 -2.72062 -2.12312 0
M  V30 1537 C 145.687 -3.94514 -1.7602 0
M  V30 1538 C 144.822 -4.40903 -2.96273 0
M  V30 1539 C 143.861 -5.55953 -2.56092 0
M  V30 1540 N 142.998 -5.97209 -3.69169 0
M  V30 1541 H 147.838 -2.95575 -0.379406 0
M  V30 1542 H 145.375 -1.46048 -0.175606 0
M  V30 1543 H 147.333 -3.03931 -2.858 0
M  V30 1544 H 145.963 -1.93068 -2.58698 0
M  V30 1545 H 145.015 -3.68979 -0.925135 0
M  V30 1546 H 146.327 -4.7802 -1.42472 0
M  V30 1547 H 145.481 -4.74539 -3.78018 0
M  V30 1548 H 144.22 -3.56291 -3.33029 0
M  V30 1549 H 143.225 -5.21948 -1.72773 0
M  V30 1550 H 144.45 -6.42311 -2.20484 0
M  V30 1551 H 142.396 -5.15543 -4.05649 0
M  V30 1552 H 142.313 -6.75504 -3.39456 0
M  V30 1553 H 143.581 -6.35475 -4.51434 0
M  V30 1554 N 147.81 0.181792 -1.56548 0
M  V30 1555 C 149.058 0.89832 -1.81038 0
M  V30 1556 C 149.379 1.83232 -0.667164 0
M  V30 1557 O 148.649 1.93372 0.313673 0
M  V30 1558 H 147.229 0.33471 -0.667816 0
M  V30 1559 H 149.891 0.184116 -1.94028 0
M  V30 1560 H 148.987 1.4815 -2.74696 0
M  V30 1561 N 149.288 1.51039 0.449983 0
M  V30 1562 C 150.235 1.71439 1.54523 0
M  V30 1563 C 151.205 0.555871 1.56522 0
M  V30 1564 O 152.39 0.788871 1.73728 0
M  V30 1565 C 149.53 1.83384 2.92343 0
M  V30 1566 C 148.643 3.10873 2.9997 0
M  V30 1567 C 147.778 3.13488 4.28834 0
M  V30 1568 C 146.817 4.35343 4.30282 0
M  V30 1569 N 145.954 4.35579 5.5065 0
M  V30 1570 H 150.794 2.64934 1.36433 0
M  V30 1571 H 148.331 1.31312 0.662982 0
M  V30 1572 H 150.289 1.88291 3.72293 0
M  V30 1573 H 148.919 0.933086 3.0902 0
M  V30 1574 H 147.971 3.15336 2.12761 0
M  V30 1575 H 149.283 4.00814 2.96901 0
M  V30 1576 H 148.437 3.17241 5.17149 0
M  V30 1577 H 147.176 2.21414 4.34543 0
M  V30 1578 H 146.181 4.3178 3.40362 0
M  V30 1579 H 147.406 5.28668 4.26248 0
M  V30 1580 H 145.352 3.46369 5.57104 0
M  V30 1581 H 145.269 5.19313 5.49409 0
M  V30 1582 H 146.537 4.43507 6.41032 0
M  V30 1583 N 150.766 -0.704594 1.40972 0
M  V30 1584 C 151.696 -1.83124 1.44872 0
M  V30 1585 C 152.677 -1.67281 0.30838 0
M  V30 1586 O 153.862 -1.87149 0.518556 0
M  V30 1587 C 150.992 -3.21181 1.32136 0
M  V30 1588 C 149.946 -3.51714 2.43888 0
M  V30 1589 C 149.272 -4.89032 2.16222 0
M  V30 1590 C 150.572 -3.516 3.86232 0
M  V30 1591 H 152.266 -1.80117 2.39161 0
M  V30 1592 H 149.812 -0.865145 1.15114 0
M  V30 1593 H 151.765 -3.99702 1.33479 0
M  V30 1594 H 150.489 -3.24791 0.343279 0
M  V30 1595 H 149.148 -2.75539 2.41813 0
M  V30 1596 H 148.796 -4.89256 1.16778 0
M  V30 1597 H 148.496 -5.10426 2.911 0
M  V30 1598 H 150.02 -5.69873 2.19265 0
M  V30 1599 H 151.434 -4.2014 3.9007 0
M  V30 1600 H 149.831 -3.84523 4.60719 0
M  V30 1601 H 150.901 -2.50757 4.15029 0
M  V30 1602 N 152.244 -1.26651 -0.937939 0
M  V30 1603 C 153.154 -1.10276 -2.07066 0
M  V30 1604 C 154.17 -0.0354197 -1.73964 0
M  V30 1605 O 155.346 -0.239816 -1.99967 0
M  V30 1606 C 152.411 -0.740887 -3.38691 0
M  V30 1607 C 151.472 -1.88799 -3.85556 0
M  V30 1608 C 150.705 -1.54329 -5.10899 0
M  V30 1609 O 150.928 -0.446494 -5.6865 0
M  V30 1610 O 149.862 -2.37911 -5.52885 0
M  V30 1611 H 153.688 -2.05309 -2.23789 0
M  V30 1612 H 151.273 -1.05743 -1.0554 0
M  V30 1613 H 153.155 -0.55195 -4.1777 0
M  V30 1614 H 151.83 0.180022 -3.23199 0
M  V30 1615 H 150.737 -2.13191 -3.07409 0
M  V30 1616 H 152.07 -2.78874 -4.05574 0
M  V30 1617 N 153.722 1.14298 -1.08507 0
M  V30 1618 C 154.632 2.23027 -0.727753 0
M  V30 1619 C 155.648 1.71952 0.26619 0
M  V30 1620 O 156.824 2.011 0.109882 0
M  V30 1621 C 153.889 3.46403 -0.143541 0
M  V30 1622 C 152.95 4.12413 -1.19223 0
M  V30 1623 C 152.183 5.29899 -0.635798 0
M  V30 1624 O 152.406 5.67796 0.544393 0
M  V30 1625 O 151.34 5.85717 -1.38634 0
M  V30 1626 H 155.166 2.55945 -1.63481 0
M  V30 1627 H 152.751 1.22248 -0.858817 0
M  V30 1628 H 154.633 4.21018 0.179404 0
M  V30 1629 H 153.308 3.15206 0.736659 0
M  V30 1630 H 152.215 3.39667 -1.56772 0
M  V30 1631 H 153.548 4.47718 -2.04474 0
M  V30 1632 N 155.201 0.870884 1.31352 0
M  V30 1633 C 156.133 0.28455 2.27427 0
M  V30 1634 C 157.146 -0.552927 1.53123 0
M  V30 1635 O 158.335 -0.374771 1.74521 0
M  V30 1636 C 155.435 -0.615164 3.3327 0
M  V30 1637 C 154.608 0.190079 4.36987 0
M  V30 1638 C 153.667 -0.637917 5.22319 0
M  V30 1639 O 152.693 -0.065626 5.69162 0
M  V30 1640 N 153.895 -1.94973 5.46778 0
M  V30 1641 H 156.66 1.11017 2.7838 0
M  V30 1642 H 154.221 0.732458 1.44384 0
M  V30 1643 H 156.213 -1.1748 3.87273 0
M  V30 1644 H 154.783 -1.34146 2.82354 0
M  V30 1645 H 154.003 0.931165 3.83044 0
M  V30 1646 H 155.291 0.742579 5.03352 0
M  V30 1647 H 154.689 -2.4378 5.10478 0
M  V30 1648 H 153.246 -2.45713 6.03712 0
M  V30 1649 N 156.679 -1.44442 0.630414 0
M  V30 1650 C 158.095 -1.56832 0.295973 0
M  V30 1651 C 158.295 -1.61806 -1.20088 0
M  V30 1652 O 157.351 -1.5607 -1.9849 0
M  V30 1653 C 158.664 -2.84031 0.987264 0
M  V30 1654 C 160.212 -2.97742 0.96534 0
M  V30 1655 C 160.687 -4.27743 1.63708 0
M  V30 1656 N 162.178 -4.34555 1.60364 0
M  V30 1657 C 162.913 -5.33862 2.09234 0
M  V30 1658 N 162.409 -6.39578 2.66292 0
M  V30 1659 N 164.202 -5.25366 1.99867 0
M  V30 1660 H 156.353 -1.39457 1.60205 0
M  V30 1661 H 158.616 -0.668237 0.672431 0
M  V30 1662 H 158.322 -2.86338 2.04215 0
M  V30 1663 H 158.196 -3.73534 0.524588 0
M  V30 1664 H 160.583 -2.94989 -0.0810639 0
M  V30 1665 H 160.664 -2.09589 1.4665 0
M  V30 1666 H 160.308 -4.31255 2.68293 0
M  V30 1667 H 160.238 -5.14752 1.11076 0
M  V30 1668 H 162.729 -3.58772 1.18705 0
M  V30 1669 H 163.042 -7.11637 3.01317 0
M  V30 1670 H 161.387 -6.40265 2.70343 0
M  V30 1671 H 164.578 -4.41688 1.55013 0
M  V30 1672 H 164.751 -6.02606 2.38265 0
M  V30 1673 N 158.157 -0.370918 -1.53173 0
M  V30 1674 C 159.568 0.107139 -1.86392 0
M  V30 1675 C 159.919 1.47714 -1.29132 0
M  V30 1676 O 159.044 2.07464 -0.615439 0
M  V30 1677 C 159.639 0.201187 -3.38202 0
M  V30 1678 C 158.198 0.623507 -3.712 0
M  V30 1679 C 157.345 -0.225978 -2.76378 0
M  V30 1680 H 160.296 -0.58951 -1.47345 0
M  V30 1681 H 160.317 1.02377 -3.66468 0
M  V30 1682 H 159.829 -0.796058 -3.79848 0
M  V30 1683 H 157.93 1.62879 -3.35114 0
M  V30 1684 H 158.043 0.394414 -4.77474 0
M  V30 1685 H 156.407 0.305962 -2.52856 0
M  V30 1686 H 157.19 -1.22086 -3.20858 0
M  V30 1687 N 159.635 1.57281 -0.100228 0
M  V30 1688 C 160.545 2.17833 0.870965 0
M  V30 1689 C 161.561 1.14921 1.30649 0
M  V30 1690 O 162.737 1.47313 1.37335 0
M  V30 1691 C 159.802 2.75085 2.1102 0
M  V30 1692 C 158.863 3.9297 1.72838 0
M  V30 1693 C 158.096 4.47482 2.90854 0
M  V30 1694 O 158.319 4.00922 4.05731 0
M  V30 1695 O 157.253 5.38433 2.69023 0
M  V30 1696 H 161.079 3.0124 0.38575 0
M  V30 1697 H 158.664 1.48881 0.124397 0
M  V30 1698 H 160.546 3.11656 2.83634 0
M  V30 1699 H 159.221 1.94721 2.58584 0
M  V30 1700 H 158.128 3.61201 0.973883 0
M  V30 1701 H 159.461 4.74713 1.30033 0
M  V30 1702 N 161.113 -0.173488 1.56642 0
M  V30 1703 C 162.529 -0.525174 1.50712 0
M  V30 1704 C 162.729 -1.8476 0.804107 0
M  V30 1705 O 161.785 -2.49869 0.363574 0
M  V30 1706 C 163.098 -0.559937 2.95441 0
M  V30 1707 C 164.646 -0.647288 3.06234 0
M  V30 1708 C 165.121 -0.712963 4.52417 0
M  V30 1709 N 166.612 -0.775911 4.56655 0
M  V30 1710 C 167.347 -0.847264 5.67106 0
M  V30 1711 N 166.843 -0.879585 6.87194 0
M  V30 1712 N 168.636 -0.886117 5.55071 0
M  V30 1713 H 160.787 0.693681 2.00753 0
M  V30 1714 H 163.05 0.249841 0.914485 0
M  V30 1715 H 162.756 0.343049 3.50023 0
M  V30 1716 H 162.63 -1.40718 3.49969 0
M  V30 1717 H 165.017 -1.5407 2.51687 0
M  V30 1718 H 165.098 0.226586 2.54794 0
M  V30 1719 H 164.742 0.176183 5.07594 0
M  V30 1720 H 164.672 -1.60295 5.0161 0
M  V30 1721 H 167.163 -0.759304 3.70193 0
M  V30 1722 H 167.476 -0.935144 7.67121 0
M  V30 1723 H 165.821 -0.847898 6.89808 0
M  V30 1724 H 169.012 -0.857853 4.60172 0
M  V30 1725 H 169.185 -0.938263 6.41171 0
M  V30 1726 N 162.591 -1.51276 -0.441967 0
M  V30 1727 C 163.837 -1.63958 -1.19355 0
M  V30 1728 C 164.17 -0.352543 -1.90973 0
M  V30 1729 O 163.445 0.647627 -1.83401 0
M  V30 1730 C 163.728 -2.83979 -2.21422 0
M  V30 1731 C 163.581 -4.22646 -1.53918 0
M  V30 1732 C 164.9 -2.99521 -3.22451 0
M  V30 1733 H 162.019 -0.596709 -0.432559 0
M  V30 1734 H 164.661 -1.83748 -0.483398 0
M  V30 1735 H 162.811 -2.67237 -2.81987 0
M  V30 1736 H 164.483 -4.51045 -0.967256 0
M  V30 1737 H 162.726 -4.25558 -0.841615 0
M  V30 1738 H 163.397 -5.02609 -2.28229 0
M  V30 1739 H 165.873 -3.14944 -2.71937 0
M  V30 1740 H 164.749 -3.85072 -3.91166 0
M  V30 1741 H 165.01 -2.11391 -3.88287 0
M  V30 1742 N 164.069 0.697108 -1.41344 0
M  V30 1743 C 165.016 1.81106 -1.43071 0
M  V30 1744 C 165.986 1.63632 -0.285275 0
M  V30 1745 O 167.171 1.84504 -0.486091 0
M  V30 1746 C 164.311 3.18975 -1.31715 0
M  V30 1747 C 163.424 3.47892 -2.56115 0
M  V30 1748 C 162.559 4.75367 -2.37064 0
M  V30 1749 C 161.598 4.97247 -3.56948 0
M  V30 1750 N 160.735 6.15947 -3.36977 0
M  V30 1751 H 165.575 1.78965 -2.38276 0
M  V30 1752 H 163.112 0.873975 -1.18322 0
M  V30 1753 H 165.07 3.98615 -1.23133 0
M  V30 1754 H 163.7 3.20297 -0.401183 0
M  V30 1755 H 162.752 2.62669 -2.75153 0
M  V30 1756 H 164.064 3.59962 -3.45295 0
M  V30 1757 H 163.218 5.63059 -2.25941 0
M  V30 1758 H 161.957 4.65541 -1.45338 0
M  V30 1759 H 160.962 4.08004 -3.68527 0
M  V30 1760 H 162.187 5.08934 -4.49626 0
M  V30 1761 H 160.133 6.07336 -2.47949 0
M  V30 1762 H 160.05 6.28777 -4.19732 0
M  V30 1763 H 161.318 7.06377 -3.29623 0
M  V30 1764 N 165.547 1.27147 0.931209 0
M  V30 1765 C 166.958 1.12044 1.49342 0
M  V30 1766 C 167.309 -0.295795 1.93957 0
M  V30 1767 O 166.434 -1.18835 1.80852 0
M  V30 1768 C 167.029 2.02781 2.71414 0
M  V30 1769 C 165.588 1.91794 3.2387 0
M  V30 1770 C 164.735 1.95543 1.96617 0
M  V30 1771 H 167.686 1.40091 0.745672 0
M  V30 1772 H 167.707 1.58156 3.46074 0
M  V30 1773 H 167.219 3.05848 2.38911 0
M  V30 1774 H 165.32 0.916992 3.6114 0
M  V30 1775 H 165.433 2.77852 3.90302 0
M  V30 1776 H 163.797 1.39722 2.12955 0
M  V30 1777 H 164.58 3.00259 1.66432 0
M  V30 1778 N 167.025 -1.13721 1.09112 0
M  V30 1779 C 168.272 -1.84924 0.825192 0
M  V30 1780 C 168.6 -1.83347 -0.649151 0
M  V30 1781 O 167.855 -1.26449 -1.49362 0
M  V30 1782 C 168.154 -3.32861 1.30146 0
M  V30 1783 C 167.82 -3.54621 2.78486 0
M  V30 1784 C 166.482 -3.60268 3.18999 0
M  V30 1785 C 168.834 -3.62855 3.74146 0
M  V30 1786 C 166.162 -3.71679 4.53951 0
M  V30 1787 C 168.514 -3.75793 5.08883 0
M  V30 1788 C 167.178 -3.79692 5.4899 0
M  V30 1789 H 166.448 -0.676684 0.301959 0
M  V30 1790 H 169.095 -1.3428 1.36533 0
M  V30 1791 H 167.4 -3.85835 0.681064 0
M  V30 1792 H 169.097 -3.86395 1.07236 0
M  V30 1793 H 165.687 -3.50879 2.46134 0
M  V30 1794 H 169.871 -3.57775 3.43963 0
M  V30 1795 H 165.127 -3.72963 4.84467 0
M  V30 1796 H 169.301 -3.81107 5.82864 0
M  V30 1797 H 166.928 -3.88287 6.53558 0
M  V30 1798 N 168.503 -0.877838 -1.30888 0
M  V30 1799 C 169.436 -0.283995 -2.26426 0
M  V30 1800 C 170.414 0.591361 -1.51465 0
M  V30 1801 O 171.598 0.54304 -1.80509 0
M  V30 1802 C 168.725 0.597129 -3.33395 0
M  V30 1803 C 167.771 -0.207937 -4.25993 0
M  V30 1804 S 168.604 -1.59158 -5.11301 0
M  V30 1805 C 169.76 -0.716791 -6.21782 0
M  V30 1806 H 169.993 -1.09383 -2.76446 0
M  V30 1807 H 167.526 -0.676828 -1.38775 0
M  V30 1808 H 169.484 1.09978 -3.95493 0
M  V30 1809 H 168.145 1.38099 -2.82113 0
M  V30 1810 H 167.338 0.464163 -5.01858 0
M  V30 1811 H 166.94 -0.642963 -3.68432 0
M  V30 1812 H 169.232 0.0692833 -6.77465 0
M  V30 1813 H 170.175 -1.44682 -6.93161 0
M  V30 1814 H 170.583 -0.280855 -5.63801 0
M  V30 1815 N 169.982 1.44106 -0.638065 0
M  V30 1816 C 171.21 2.06336 -0.152615 0
M  V30 1817 C 171.625 1.47731 1.17563 0
M  V30 1818 O 170.982 0.602806 1.72257 0
M  V30 1819 C 171.033 3.61479 -0.0391491 0
M  V30 1820 O 170.754 4.17903 -1.31487 0
M  V30 1821 C 172.255 4.40757 0.474176 0
M  V30 1822 H 169.475 0.665862 -0.0828776 0
M  V30 1823 H 172.019 1.84862 -0.87443 0
M  V30 1824 H 170.174 3.82191 0.633142 0
M  V30 1825 H 170.588 5.11416 -1.16421 0
M  V30 1826 H 172.062 5.49707 0.502562 0
M  V30 1827 H 172.539 4.12697 1.50258 0
M  V30 1828 H 173.145 4.24979 -0.165102 0
M  V30 1829 N 171.46 0.379036 1.52974 0
M  V30 1830 C 172.708 -0.206014 2.01047 0
M  V30 1831 C 173.029 -1.48175 1.26765 0
M  V30 1832 O 172.299 -1.92085 0.384743 0
M  V30 1833 H 170.879 -0.0791184 0.742798 0
M  V30 1834 H 173.541 0.508366 1.88153 0
M  V30 1835 H 172.637 -0.423501 3.09213 0
M  V30 1836 N 172.938 -1.57226 0.108567 0
M  V30 1837 C 173.901 -2.13602 -0.831082 0
M  V30 1838 C 174.901 -1.06841 -1.20173 0
M  V30 1839 O 176.091 -1.32666 -1.12895 0
M  V30 1840 C 173.223 -2.66769 -2.12243 0
M  V30 1841 H 174.416 -2.97951 -0.341317 0
M  V30 1842 H 171.969 -1.55667 -0.14057 0
M  V30 1843 H 172.704 -1.85977 -2.65675 0
M  V30 1844 H 172.489 -3.44839 -1.86625 0
M  V30 1845 H 173.979 -3.10332 -2.79435 0
M  V30 1846 N 174.416 0.165178 -1.56732 0
M  V30 1847 C 175.379 1.18822 -1.95995 0
M  V30 1848 C 176.379 1.3685 -0.84431 0
M  V30 1849 O 177.569 1.34152 -1.11126 0
M  V30 1850 C 174.701 2.5521 -2.26011 0
M  V30 1851 H 175.894 0.851825 -2.87548 0
M  V30 1852 H 173.447 0.407857 -1.50885 0
M  V30 1853 H 174.182 2.93852 -1.37191 0
M  V30 1854 H 173.967 2.43489 -3.07336 0
M  V30 1855 H 175.457 3.28927 -2.57288 0
M  V30 1856 N 175.894 1.51508 0.433938 0
M  V30 1857 C 176.804 1.75917 1.5521 0
M  V30 1858 C 177.82 0.643545 1.61662 0
M  V30 1859 O 178.996 0.926183 1.7884 0
M  V30 1860 C 176.061 1.88213 2.91164 0
M  V30 1861 C 175.122 3.12074 2.94802 0
M  V30 1862 C 174.355 3.23774 4.24271 0
M  V30 1863 O 174.578 2.4133 5.16833 0
M  V30 1864 O 173.512 4.16774 4.34262 0
M  V30 1865 H 177.338 2.70777 1.37527 0
M  V30 1866 H 174.923 1.36051 0.617293 0
M  V30 1867 H 176.805 1.98267 3.71845 0
M  V30 1868 H 175.48 0.965413 3.08968 0
M  V30 1869 H 174.387 3.07497 2.13065 0
M  V30 1870 H 175.72 4.03446 2.81943 0
M  V30 1871 N 177.372 -0.689602 1.41712 0
M  V30 1872 C 178.304 -1.815 1.39966 0
M  V30 1873 C 179.317 -1.59995 0.300917 0
M  V30 1874 O 180.506 -1.69387 0.563039 0
M  V30 1875 C 177.606 -3.18364 1.16179 0
M  V30 1876 C 176.779 -3.66847 2.38206 0
M  V30 1877 C 175.838 -4.82398 2.10186 0
M  V30 1878 O 174.864 -4.93706 2.83272 0
M  V30 1879 N 176.066 -5.70064 1.0958 0
M  V30 1880 H 178.831 -1.83488 2.36965 0
M  V30 1881 H 176.392 -0.872149 1.36401 0
M  V30 1882 H 178.384 -3.93301 0.953756 0
M  V30 1883 H 176.954 -3.11365 0.27756 0
M  V30 1884 H 176.174 -2.82751 2.74673 0
M  V30 1885 H 177.462 -3.95978 3.19498 0
M  V30 1886 H 176.86 -5.63565 0.491019 0
M  V30 1887 H 175.417 -6.44874 0.947656 0
M  V30 1888 N 178.85 -1.27639 -0.924453 0
M  V30 1889 C 180.099 -1.13549 -1.66702 0
M  V30 1890 C 180.412 0.317487 -1.93006 0
M  V30 1891 O 181.618 0.579333 -2.65247 0
M  V30 1892 C 180.074 -1.98426 -3.00259 0
M  V30 1893 C 179.682 -3.484 -2.81641 0
M  V30 1894 C 181.426 -1.92993 -3.78092 0
M  V30 1895 C 179.333 -4.25464 -4.10773 0
M  V30 1896 H 178.263 -0.421351 -0.625283 0
M  V30 1897 H 180.914 -1.52085 -1.02676 0
M  V30 1898 H 179.296 -1.52736 -3.6536 0
M  V30 1899 H 180.47 -4.01973 -2.25287 0
M  V30 1900 H 178.785 -3.55245 -2.17232 0
M  V30 1901 H 181.382 -2.47844 -4.7379 0
M  V30 1902 H 181.725 -0.904281 -4.0636 0
M  V30 1903 H 182.258 -2.36595 -3.19793 0
M  V30 1904 H 178.997 -5.28566 -3.87683 0
M  V30 1905 H 178.517 -3.76667 -4.66779 0
M  V30 1906 H 180.196 -4.34812 -4.79111 0
M  V30 1907 N 180.328 1.1314 -1.09713 0
M  V30 1908 C 181.275 2.18642 -0.739196 0
M  V30 1909 C 182.245 1.63706 0.280978 0
M  V30 1910 O 183.43 1.90111 0.161946 0
M  V30 1911 C 180.57 3.44685 -0.169102 0
M  V30 1912 C 179.683 4.13711 -1.24367 0
M  V30 1913 C 178.818 5.27379 -0.636019 0
M  V30 1914 C 177.857 5.88259 -1.69169 0
M  V30 1915 N 176.994 6.93352 -1.10485 0
M  V30 1916 H 181.834 2.48607 -1.64312 0
M  V30 1917 H 179.371 1.22066 -0.820875 0
M  V30 1918 H 181.329 4.16815 0.179256 0
M  V30 1919 H 179.959 3.15161 0.698079 0
M  V30 1920 H 179.011 3.39835 -1.70927 0
M  V30 1921 H 180.323 4.55037 -2.04311 0
M  V30 1922 H 179.477 6.06238 -0.236677 0
M  V30 1923 H 178.216 4.8731 0.194928 0
M  V30 1924 H 177.221 5.08092 -2.10055 0
M  V30 1925 H 178.446 6.30399 -2.52536 0
M  V30 1926 H 176.392 6.55335 -0.295234 0
M  V30 1927 H 176.309 7.33236 -1.84121 0
M  V30 1928 H 177.577 7.76057 -0.73181 0
M  V30 1929 N 181.806 0.884767 1.30421 0
M  V30 1930 C 182.756 0.322846 2.25703 0
M  V30 1931 C 183.74 -0.548582 1.51259 0
M  V30 1932 O 184.932 -0.39304 1.72581 0
M  V30 1933 C 182.061 -0.461787 3.4018 0
M  V30 1934 C 181.147 0.423717 4.21978 0
M  V30 1935 N 181.538 1.52408 4.82292 0
M  V30 1936 C 179.836 0.218795 4.45463 0
M  V30 1937 C 180.537 2.07136 5.43571 0
M  V30 1938 N 179.513 1.36635 5.26148 0
M  V30 1939 H 183.315 1.16363 2.69883 0
M  V30 1940 H 180.829 0.73415 1.44859 0
M  V30 1941 H 182.826 -0.880985 4.07485 0
M  V30 1942 H 181.486 -1.30001 2.9754 0
M  V30 1943 H 182.497 1.90693 4.81515 0
M  V30 1944 H 179.174 -0.582275 4.1342 0
M  V30 1945 H 180.564 2.99538 6.01437 0
M  V30 1946 N 183.284 -1.43765 0.645699 0
M  V30 1947 C 184.533 -2.01116 0.153412 0
M  V30 1948 C 184.846 -1.51493 -1.23731 0
M  V30 1949 O 186.052 -2.01067 -1.8244 0
M  V30 1950 C 184.508 -3.59206 0.223473 0
M  V30 1951 C 184.116 -4.17823 1.61642 0
M  V30 1952 C 185.86 -4.23972 -0.211597 0
M  V30 1953 C 183.767 -5.68183 1.64081 0
M  V30 1954 H 182.697 -0.752093 0.0535891 0
M  V30 1955 H 185.348 -1.6482 0.806633 0
M  V30 1956 H 183.73 -3.92867 -0.497118 0
M  V30 1957 H 184.904 -3.95674 2.36176 0
M  V30 1958 H 183.219 -3.65399 1.99681 0
M  V30 1959 H 185.816 -5.34275 -0.213112 0
M  V30 1960 H 186.159 -3.97352 -1.24165 0
M  V30 1961 H 186.692 -3.95166 0.456988 0
M  V30 1962 H 183.431 -5.99559 2.64971 0
M  V30 1963 H 182.951 -5.9241 0.938611 0
M  V30 1964 H 184.63 -6.32085 1.3812 0
M  V30 1965 N 184.763 -0.387143 -1.52771 0
M  V30 1966 C 185.693 0.440551 -2.29306 0
M  V30 1967 C 186.674 1.06535 -1.32606 0
M  V30 1968 O 187.859 1.07853 -1.61497 0
M  V30 1969 C 184.989 1.56919 -3.09829 0
M  V30 1970 C 183.943 1.07054 -4.14395 0
M  V30 1971 C 183.269 2.29109 -4.83129 0
M  V30 1972 C 184.569 0.140015 -5.22112 0
M  V30 1973 H 186.263 -0.198026 -2.98744 0
M  V30 1974 H 183.809 -0.09668 -1.43675 0
M  V30 1975 H 185.762 2.15503 -3.62128 0
M  V30 1976 H 184.486 2.23532 -2.3812 0
M  V30 1977 H 183.145 0.507247 -3.63074 0
M  V30 1978 H 182.793 2.94227 -4.0797 0
M  V30 1979 H 182.493 1.96406 -5.53804 0
M  V30 1980 H 184.017 2.88339 -5.38231 0
M  V30 1981 H 185.431 0.633978 -5.69784 0
M  V30 1982 H 183.828 -0.0971485 -6.00021 0
M  V30 1983 H 184.898 -0.811711 -4.78058 0
M  V30 1984 N 186.241 1.57166 -0.116904 0
M  V30 1985 C 187.204 2.14039 0.819742 0
M  V30 1986 C 188.204 1.07477 1.19605 0
M  V30 1987 O 189.394 1.33263 1.1219 0
M  V30 1988 C 186.526 2.67891 2.10826 0
M  V30 1989 H 187.719 2.98128 0.325511 0
M  V30 1990 H 185.272 1.55739 0.132312 0
M  V30 1991 H 186.007 1.87384 2.64685 0
M  V30 1992 H 185.792 3.45823 1.84793 0
M  V30 1993 H 187.282 3.11809 2.77785 0
M  V30 1994 N 187.719 -0.156864 1.56817 0
M  V30 1995 C 188.667 -1.21319 1.98455 0
M  V30 1996 C 189.661 -1.45025 0.875444 0
M  V30 1997 O 190.867 -1.45435 1.0606 0
M  V30 1998 H 187.242 -0.408142 0.631605 0
M  V30 1999 H 189.213 -0.835244 2.86472 0
M  V30 2000 C 187.962 -2.54148 2.37285 0
M  V30 2001 H 187.285 -2.36733 3.22176 0
M  V30 2002 H 188.725 -3.26712 2.70251 0
M  V30 2003 C 187.184 -3.13967 1.22173 0
M  V30 2004 O 187.714 -3.98357 0.517149 0
M  V30 2005 N 185.92 -2.7327 0.988536 0
M  V30 2006 H 185.467 -2.04744 1.56326 0
M  V30 2007 H 185.425 -3.13628 0.220209 0
M  V30 2008 N 189.197 -1.51736 -0.425897 0
M  V30 2009 C 190.444 -1.6497 -1.17436 0
M  V30 2010 C 190.772 -0.371445 -1.9092 0
M  V30 2011 O 190.027 0.644963 -1.84767 0
M  V30 2012 C 190.326 -2.81103 -2.20717 0
M  V30 2013 C 189.992 -4.19954 -1.64162 0
M  V30 2014 C 188.654 -4.57725 -1.48462 0
M  V30 2015 C 191.006 -5.06552 -1.22696 0
M  V30 2016 C 188.334 -5.79789 -0.897873 0
M  V30 2017 C 190.686 -6.29205 -0.654464 0
M  V30 2018 C 189.35 -6.6574 -0.484456 0
M  V30 2019 H 188.62 -0.603668 -0.429727 0
M  V30 2020 H 191.267 -1.85798 -0.463829 0
M  V30 2021 H 189.572 -2.54542 -2.97852 0
M  V30 2022 H 191.269 -2.8854 -2.78471 0
M  V30 2023 H 187.859 -3.90181 -1.77361 0
M  V30 2024 H 192.043 -4.77968 -1.33642 0
M  V30 2025 H 187.299 -6.06733 -0.75402 0
M  V30 2026 H 191.473 -6.95643 -0.324694 0
M  V30 2027 H 189.1 -7.60195 -0.0276833 0
M  V30 2028 N 190.675 0.682077 -1.42076 0
M  V30 2029 C 191.622 1.79578 -1.44984 0
M  V30 2030 C 192.592 1.6332 -0.302614 0
M  V30 2031 O 193.777 1.83978 -0.505633 0
M  V30 2032 C 190.917 3.1756 -1.35091 0
M  V30 2033 C 190.03 3.45156 -2.59791 0
M  V30 2034 C 189.165 4.72826 -2.42093 0
M  V30 2035 C 188.204 4.93433 -3.62202 0
M  V30 2036 N 187.341 6.12338 -3.43491 0
M  V30 2037 H 192.181 1.76427 -2.40161 0
M  V30 2038 H 189.718 0.861376 -1.19242 0
M  V30 2039 H 191.676 3.97287 -1.27354 0
M  V30 2040 H 190.306 3.19854 -0.435133 0
M  V30 2041 H 189.358 2.59736 -2.77923 0
M  V30 2042 H 190.67 3.5628 -3.49094 0
M  V30 2043 H 189.824 5.60631 -2.319 0
M  V30 2044 H 188.563 4.63973 -1.50268 0
M  V30 2045 H 187.568 4.04073 -3.72834 0
M  V30 2046 H 188.793 5.04136 -4.54998 0
M  V30 2047 H 186.739 6.04672 -2.54377 0
M  V30 2048 H 186.656 6.2429 -4.26377 0
M  V30 2049 H 187.924 7.02841 -3.37097 0
M  V30 2050 N 192.153 1.28127 0.917671 0
M  V30 2051 C 193.101 1.11569 2.04096 0
M  V30 2052 C 194.095 0.0360242 1.69362 0
M  V30 2053 O 195.301 0.194501 1.78946 0
M  V30 2054 H 191.676 0.344097 0.668656 0
M  V30 2055 H 193.647 2.06711 2.15205 0
M  V30 2056 C 192.396 0.790197 3.38602 0
M  V30 2057 H 191.719 1.61293 3.6582 0
M  V30 2058 H 193.159 0.714271 4.1794 0
M  V30 2059 C 191.618 -0.505897 3.3308 0
M  V30 2060 O 192.148 -1.53736 3.71117 0
M  V30 2061 N 190.354 -0.505193 2.86175 0
M  V30 2062 H 189.901 0.334621 2.55417 0
M  V30 2063 H 189.859 -1.37243 2.82863 0
M  V30 2064 N 193.631 -1.12557 1.10312 0
M  V30 2065 C 194.861 -1.87592 0.865617 0
M  V30 2066 C 195.269 -1.79851 -0.587389 0
M  V30 2067 O 194.612 -1.16949 -1.41664 0
M  V30 2068 C 194.674 -3.37665 1.23381 0
M  V30 2069 C 194.338 -3.69181 2.69359 0
M  V30 2070 C 195.335 -3.67652 3.67597 0
M  V30 2071 C 193.02 -3.98555 3.05711 0
M  V30 2072 C 195.014 -3.95053 5.00212 0
M  V30 2073 C 192.701 -4.25616 4.38514 0
M  V30 2074 C 193.699 -4.23851 5.35574 0
M  V30 2075 O 193.387 -4.50242 6.65986 0
M  V30 2076 H 193.119 -0.600442 0.310557 0
M  V30 2077 H 195.673 -1.4335 1.47105 0
M  V30 2078 H 193.903 -3.82454 0.571467 0
M  V30 2079 H 195.592 -3.94041 0.973994 0
M  V30 2080 H 196.358 -3.45024 3.40857 0
M  V30 2081 H 192.237 -3.99071 2.30789 0
M  V30 2082 H 195.781 -3.93591 5.75962 0
M  V30 2083 H 191.678 -4.47718 4.64994 0
M  V30 2084 H 192.446 -4.67867 6.71597 0
M  V30 2085 N 195.109 -0.891671 -1.2995 0
M  V30 2086 C 196.041 -0.320695 -2.26945 0
M  V30 2087 C 197.054 0.528497 -1.53983 0
M  V30 2088 O 198.243 0.346959 -1.75096 0
M  V30 2089 C 195.343 0.562066 -3.34207 0
M  V30 2090 C 194.516 -0.259576 -4.36629 0
M  V30 2091 C 193.575 0.554739 -5.23268 0
M  V30 2092 O 192.601 -0.0249311 -5.69195 0
M  V30 2093 N 193.803 1.8625 -5.4981 0
M  V30 2094 H 196.568 -1.15432 -2.76578 0
M  V30 2095 H 194.129 -0.755336 -1.432 0
M  V30 2096 H 196.121 1.11304 -3.89093 0
M  V30 2097 H 194.691 1.29637 -2.84452 0
M  V30 2098 H 193.911 -0.991986 -3.81514 0
M  V30 2099 H 195.199 -0.822564 -5.02107 0
M  V30 2100 H 194.597 2.35628 -5.14292 0
M  V30 2101 H 193.154 2.36078 -6.07545 0
M  V30 2102 N 196.587 1.43421 -0.653314 0
M  V30 2103 C 197.834 2.01812 -0.166745 0
M  V30 2104 C 198.162 1.51535 1.21931 0
M  V30 2105 O 197.417 0.698975 1.82792 0
M  V30 2106 C 197.716 3.57176 -0.126623 0
M  V30 2107 C 197.382 4.26798 -1.45444 0
M  V30 2108 C 196.044 4.45534 -1.81805 0
M  V30 2109 C 198.396 4.66225 -2.32989 0
M  V30 2110 C 195.724 5.00961 -3.05377 0
M  V30 2111 C 198.076 5.23021 -3.55853 0
M  V30 2112 C 196.74 5.39973 -3.9241 0
M  V30 2113 H 196.01 0.738484 -0.0610162 0
M  V30 2114 H 198.657 1.71896 -0.84404 0
M  V30 2115 H 196.962 3.86634 0.634123 0
M  V30 2116 H 198.659 4.00112 0.266723 0
M  V30 2117 H 195.249 4.12561 -1.16153 0
M  V30 2118 H 199.433 4.51443 -2.06187 0
M  V30 2119 H 194.689 5.12271 -3.3375 0
M  V30 2120 H 198.863 5.52518 -4.23907 0
M  V30 2121 H 196.49 5.82687 -4.88242 0
M  V30 2122 N 198.065 0.39524 1.52563 0
M  V30 2123 C 199.312 -0.185044 2.01653 0
M  V30 2124 C 199.64 -1.46317 1.28146 0
M  V30 2125 O 198.895 -1.9213 0.372074 0
M  V30 2126 C 199.194 -0.493444 3.53977 0
M  V30 2127 C 198.86 0.69384 4.4553 0
M  V30 2128 C 197.522 1.01954 4.70275 0
M  V30 2129 C 199.874 1.48785 4.99512 0
M  V30 2130 C 197.202 2.14069 5.46252 0
M  V30 2131 C 199.554 2.59965 5.76716 0
M  V30 2132 C 198.218 2.93037 5.99738 0
M  V30 2133 H 197.488 -0.0677123 0.7379 0
M  V30 2134 H 200.135 0.533807 1.8391 0
M  V30 2135 H 198.44 -1.29369 3.69825 0
M  V30 2136 H 200.137 -0.955163 3.89458 0
M  V30 2137 H 196.727 0.429987 4.26438 0
M  V30 2138 H 200.911 1.24946 4.80315 0
M  V30 2139 H 196.167 2.40056 5.62302 0
M  V30 2140 H 200.341 3.21887 6.17545 0
M  V30 2141 H 197.968 3.8003 6.58393 0
M  V30 2142 N 199.544 -1.57102 0.125237 0
M  V30 2143 C 200.793 -1.94582 -0.531095 0
M  V30 2144 C 201.106 -1.01126 -1.6743 0
M  V30 2145 O 202.312 -1.28097 -2.39381 0
M  V30 2146 C 200.768 -3.45839 -0.996164 0
M  V30 2147 C 200.376 -4.47842 0.118926 0
M  V30 2148 C 202.12 -3.92227 -1.62352 0
M  V30 2149 C 200.027 -5.90284 -0.363192 0
M  V30 2150 H 198.957 -0.726391 -0.20217 0
M  V30 2151 H 201.608 -1.82339 0.206092 0
M  V30 2152 H 199.99 -3.53338 -1.78796 0
M  V30 2153 H 201.164 -4.52018 0.895358 0
M  V30 2154 H 199.479 -4.11243 0.653324 0
M  V30 2155 H 202.076 -4.96069 -1.99548 0
M  V30 2156 H 202.419 -3.32552 -2.50429 0
M  V30 2157 H 202.952 -3.87554 -0.897019 0
M  V30 2158 H 199.691 -6.53728 0.481679 0
M  V30 2159 H 199.211 -5.89515 -1.10597 0
M  V30 2160 H 200.89 -6.41752 -0.822377 0
M  V30 2161 N 201.022 0.148545 -1.56898 0
M  V30 2162 C 202.27 0.859717 -1.82902 0
M  V30 2163 C 202.591 1.81775 -0.70588 0
M  V30 2164 O 201.861 1.93994 0.272586 0
M  V30 2165 H 200.441 0.320469 -0.674766 0
M  V30 2166 H 203.103 0.142918 -1.94375 0
M  V30 2167 H 202.199 1.4229 -2.77777 0
M  V30 2168 N 202.5 1.5196 0.417844 0
M  V30 2169 C 203.41 1.77554 1.53336 0
M  V30 2170 C 204.426 0.660655 1.6097 0
M  V30 2171 O 205.602 0.945099 1.77848 0
M  V30 2172 C 202.667 1.91291 2.89152 0
M  V30 2173 C 201.728 3.15183 2.91475 0
M  V30 2174 C 200.961 3.28256 4.20813 0
M  V30 2175 O 201.184 2.46798 5.14244 0
M  V30 2176 O 200.118 4.21356 4.29817 0
M  V30 2177 H 203.944 2.7222 1.34647 0
M  V30 2178 H 201.529 1.36698 0.602828 0
M  V30 2179 H 203.411 2.02199 3.69721 0
M  V30 2180 H 202.086 0.998129 3.07927 0
M  V30 2181 H 200.993 3.09739 2.09791 0
M  V30 2182 H 202.326 4.06414 2.77648 0
M  V30 2183 N 203.978 -0.674533 1.42435 0
M  V30 2184 C 204.926 -1.80934 1.46169 0
M  V30 2185 C 205.92 -1.66006 0.3374 0
M  V30 2186 O 207.126 -1.72611 0.510425 0
M  V30 2187 H 203.501 -0.596594 0.457798 0
M  V30 2188 H 205.472 -1.74903 2.41767 0
M  V30 2189 C 204.221 -3.19088 1.38123 0
M  V30 2190 H 203.544 -3.31203 2.23931 0
M  V30 2191 H 204.984 -3.9851 1.44797 0
M  V30 2192 C 203.443 -3.36763 0.0960517 0
M  V30 2193 O 203.973 -3.92581 -0.851073 0
M  V30 2194 N 202.179 -2.90597 0.0131186 0
M  V30 2195 H 201.726 -2.45359 0.784639 0
M  V30 2196 H 201.684 -3.028 -0.846133 0
M  V30 2197 N 205.456 -1.28612 -0.910864 0
M  V30 2198 C 206.389 -1.07109 -2.01502 0
M  V30 2199 C 207.367 0.013706 -1.62594 0
M  V30 2200 O 208.551 -0.134796 -1.88017 0
M  V30 2201 C 205.678 -0.628255 -3.32822 0
M  V30 2202 C 204.724 -1.71012 -3.90714 0
M  V30 2203 S 205.557 -3.30676 -4.21205 0
M  V30 2204 C 206.713 -2.88234 -5.55583 0
M  V30 2205 H 206.946 -2.00591 -2.19432 0
M  V30 2206 H 204.479 -1.12633 -1.05609 0
M  V30 2207 H 206.437 -0.37946 -4.08742 0
M  V30 2208 H 205.098 0.28678 -3.12788 0
M  V30 2209 H 204.291 -1.35195 -4.85529 0
M  V30 2210 H 203.893 -1.91186 -3.21441 0
M  V30 2211 H 206.185 -2.34584 -6.35591 0
M  V30 2212 H 207.128 -3.81857 -5.96314 0
M  V30 2213 H 207.536 -2.26862 -5.16908 0
M  V30 2214 N 206.934 1.1197 -1.10907 0
M  V30 2215 C 207.882 2.19927 -0.757303 0
M  V30 2216 C 208.876 1.67564 0.248747 0
M  V30 2217 O 210.082 1.79672 0.108605 0
M  V30 2218 H 206.457 0.716925 -0.226987 0
M  V30 2219 H 208.428 2.46847 -1.67658 0
M  V30 2220 C 207.177 3.47061 -0.210671 0
M  V30 2221 H 206.5 3.87703 -0.976049 0
M  V30 2222 H 207.94 4.24 -0.0026584 0
M  V30 2223 C 206.399 3.19864 1.05777 0
M  V30 2224 O 206.929 3.40049 2.13845 0
M  V30 2225 N 205.135 2.73636 0.978349 0
M  V30 2226 H 204.682 2.5741 0.0988246 0
M  V30 2227 H 204.64 2.55815 1.82773 0
M  V30 2228 N 208.412 0.89855 1.29475 0
M  V30 2229 C 209.823 0.572537 1.77705 0
M  V30 2230 C 210.174 -0.911778 1.73727 0
M  V30 2231 O 209.299 -1.71288 1.32247 0
M  V30 2232 C 209.894 1.03252 3.22683 0
M  V30 2233 C 208.453 0.757687 3.68695 0
M  V30 2234 C 207.6 1.20787 2.49612 0
M  V30 2235 H 210.551 1.08139 1.16153 0
M  V30 2236 H 210.572 0.367307 3.78723 0
M  V30 2237 H 210.084 2.11285 3.25546 0
M  V30 2238 H 208.185 -0.310079 3.71308 0
M  V30 2239 H 208.298 1.35476 4.59547 0
M  V30 2240 H 206.662 0.626888 2.46865 0
M  V30 2241 H 207.445 2.29622 2.55203 0
M  V30 2242 N 209.89 -1.43072 0.660911 0
M  V30 2243 C 211.167 -1.95307 0.107017 0
M  V30 2244 C 211.547 -1.60192 -1.37484 0
M  V30 2245 O 210.895 -0.890949 -2.10415 0
M  V30 2246 C 211.105 -3.47124 0.361402 0
M  V30 2247 C 212.453 -4.23738 0.270455 0
M  V30 2248 O 213.477 -3.54981 0.294382 0
M  V30 2249 O 212.336 -5.46131 0.200737 0
M  V30 2250 H 209.43 -0.826984 -0.00517729 0
M  V30 2251 H 211.976 -1.52972 0.734681 0
M  V30 2252 H 210.748 -3.65837 1.38848 0
M  V30 2253 H 210.371 -3.96475 -0.298953 0
M  V30 2254 N 211.368 -0.403325 -1.52352 0
M  V30 2255 C 212.616 0.174003 -2.0135 0
M  V30 2256 C 212.937 1.46139 -1.29106 0
M  V30 2257 O 212.207 1.91448 -0.415253 0
M  V30 2258 H 210.787 0.0672911 -0.743963 0
M  V30 2259 H 213.449 -0.538235 -1.87321 0
M  V30 2260 H 212.545 0.374254 -3.09848 0
M  V30 2261 N 212.846 1.57033 -0.133567 0
M  V30 2262 C 213.779 2.11824 0.848872 0
M  V30 2263 C 214.757 1.03833 1.2513 0
M  V30 2264 O 215.941 1.31579 1.34978 0
M  V30 2265 C 213.068 2.62692 2.138 0
M  V30 2266 C 212.114 3.82705 1.88253 0
M  V30 2267 S 212.947 5.2438 1.08563 0
M  V30 2268 C 214.103 5.78627 2.38624 0
M  V30 2269 H 214.336 2.94824 0.38289 0
M  V30 2270 H 211.869 1.5419 0.0804796 0
M  V30 2271 H 213.827 2.92652 2.87863 0
M  V30 2272 H 212.488 1.79847 2.57515 0
M  V30 2273 H 211.681 4.16496 2.83809 0
M  V30 2274 H 211.283 3.53437 1.22305 0
M  V30 2275 H 213.575 5.8924 3.34369 0
M  V30 2276 H 214.518 6.76443 2.09358 0
M  V30 2277 H 214.926 5.06783 2.48658 0
M  V30 2278 N 214.325 -0.140222 1.56975 0
M  V30 2279 C 215.571 -0.852949 1.83991 0
M  V30 2280 C 215.904 -1.80512 0.716187 0
M  V30 2281 O 215.179 -1.92479 -0.279681 0
M  V30 2282 C 215.462 -1.6215 3.21527 0
M  V30 2283 C 215.315 -0.690363 4.4447 0
M  V30 2284 C 216.634 -2.58247 3.56366 0
M  V30 2285 H 213.753 -0.308634 0.669264 0
M  V30 2286 H 216.395 -0.117898 1.89634 0
M  V30 2287 H 214.545 -2.24812 3.16847 0
M  V30 2288 H 216.217 -0.0742264 4.6124 0
M  V30 2289 H 214.46 -0.000396433 4.338 0
M  V30 2290 H 215.131 -1.2643 5.37326 0
M  V30 2291 H 217.607 -2.05701 3.61699 0
M  V30 2292 H 216.483 -3.09067 4.53617 0
M  V30 2293 H 216.744 -3.39923 2.82674 0
M  V30 2294 N 215.803 -1.52179 -0.40978 0
M  V30 2295 C 216.766 -1.74853 -1.48186 0
M  V30 2296 C 217.766 -0.618417 -1.48433 0
M  V30 2297 O 218.956 -0.886286 -1.49969 0
M  V30 2298 C 216.088 -1.8303 -2.87598 0
M  V30 2299 H 217.281 -2.70559 -1.29374 0
M  V30 2300 H 214.834 -1.42586 -0.640233 0
M  V30 2301 H 215.569 -0.89236 -3.11781 0
M  V30 2302 H 215.354 -2.65187 -2.88822 0
M  V30 2303 H 216.844 -2.02316 -3.65319 0
M  V30 2304 N 217.281 0.66697 -1.42791 0
M  V30 2305 C 218.211 1.79218 -1.49677 0
M  V30 2306 C 219.192 1.66405 -0.352623 0
M  V30 2307 O 220.377 1.85708 -0.567993 0
M  V30 2308 C 217.507 3.17565 -1.40605 0
M  V30 2309 C 216.461 3.45124 -2.53127 0
M  V30 2310 C 215.787 4.83127 -2.29112 0
M  V30 2311 C 217.087 3.41236 -3.95418 0
M  V30 2312 H 218.781 1.73713 -2.43853 0
M  V30 2313 H 216.327 0.83432 -1.17367 0
M  V30 2314 H 218.28 3.96022 -1.44029 0
M  V30 2315 H 217.004 3.23767 -0.429271 0
M  V30 2316 H 215.663 2.69031 -2.49034 0
M  V30 2317 H 215.311 4.85988 -1.29709 0
M  V30 2318 H 215.011 5.02528 -3.04531 0
M  V30 2319 H 216.535 5.63859 -2.34297 0
M  V30 2320 H 217.949 4.09651 -4.01073 0
M  V30 2321 H 216.346 3.72173 -4.70752 0
M  V30 2322 H 217.416 2.39665 -4.21532 0
M  V30 2323 N 218.759 1.29093 0.90403 0
M  V30 2324 C 219.689 1.16401 2.02418 0
M  V30 2325 C 220.67 0.0593085 1.69997 0
M  V30 2326 O 221.855 0.238021 1.92736 0
M  V30 2327 C 218.985 0.835233 3.37107 0
M  V30 2328 C 217.939 1.89578 3.83724 0
M  V30 2329 C 217.265 1.42041 5.15489 0
M  V30 2330 C 218.565 3.30394 4.04521 0
M  V30 2331 H 220.259 2.10109 2.13295 0
M  V30 2332 H 217.805 1.01157 1.02486 0
M  V30 2333 H 219.758 0.733169 4.14973 0
M  V30 2334 H 218.482 -0.137543 3.2631 0
M  V30 2335 H 217.141 1.98715 3.08071 0
M  V30 2336 H 216.789 0.436426 5.01103 0
M  V30 2337 H 216.489 2.12964 5.4765 0
M  V30 2338 H 218.013 1.33176 5.959 0
M  V30 2339 H 219.427 3.24123 4.72882 0
M  V30 2340 H 217.824 3.99237 4.48029 0
M  V30 2341 H 218.894 3.73692 3.09002 0
M  V30 2342 N 220.237 -1.11381 1.11499 0
M  V30 2343 C 221.514 -1.7955 0.775965 0
M  V30 2344 C 221.894 -1.97859 -0.73588 0
M  V30 2345 O 221.242 -1.56376 -1.66609 0
M  V30 2346 C 221.452 -3.13196 1.53977 0
M  V30 2347 C 222.8 -3.88227 1.71944 0
M  V30 2348 O 223.824 -3.22887 1.50407 0
M  V30 2349 O 222.683 -5.05477 2.07738 0
M  V30 2350 H 219.777 -0.777728 0.28119 0
M  V30 2351 H 222.323 -1.18118 1.21845 0
M  V30 2352 H 221.095 -2.95229 2.56818 0
M  V30 2353 H 220.718 -3.82342 1.09088 0
M  V30 2354 N 221.715 -0.905404 -1.28997 0
M  V30 2355 C 222.945 -0.549049 -1.99171 0
M  V30 2356 C 223.353 0.87203 -1.67906 0
M  V30 2357 O 222.696 1.58796 -0.923561 0
M  V30 2358 C 222.758 -0.668306 -3.53234 0
M  V30 2359 C 222.422 -2.0574 -4.08069 0
M  V30 2360 C 223.419 -3.0292 -4.22534 0
M  V30 2361 C 221.104 -2.36833 -4.42962 0
M  V30 2362 C 223.098 -4.29314 -4.71135 0
M  V30 2363 C 220.785 -3.63467 -4.91258 0
M  V30 2364 C 221.783 -4.59522 -5.053 0
M  V30 2365 O 221.471 -5.83907 -5.52546 0
M  V30 2366 H 221.203 -0.208784 -0.64295 0
M  V30 2367 H 223.757 -1.21836 -1.65363 0
M  V30 2368 H 221.987 0.0580547 -3.86656 0
M  V30 2369 H 223.676 -0.320273 -4.04634 0
M  V30 2370 H 224.442 -2.80216 -3.95859 0
M  V30 2371 H 220.321 -1.62824 -4.31288 0
M  V30 2372 H 223.865 -5.04293 -4.8201 0
M  V30 2373 H 219.762 -3.86 -5.17372 0
M  V30 2374 H 220.53 -5.86578 -5.70849 0
M  V30 2375 N 223.193 1.4272 -0.668489 0
M  V30 2376 C 224.609 1.55992 -0.33745 0
M  V30 2377 C 224.809 1.64933 1.15756 0
M  V30 2378 O 223.865 1.61278 1.94282 0
M  V30 2379 C 225.178 2.81314 -1.06222 0
M  V30 2380 C 226.726 2.95078 -1.04394 0
M  V30 2381 C 227.201 4.23252 -1.74991 0
M  V30 2382 N 228.692 4.3015 -1.71829 0
M  V30 2383 C 229.427 5.28127 -2.23315 0
M  V30 2384 N 228.923 6.32293 -2.83156 0
M  V30 2385 N 230.716 5.19882 -2.13726 0
M  V30 2386 H 222.867 1.3516 -1.63846 0
M  V30 2387 H 225.13 0.650174 -0.689912 0
M  V30 2388 H 224.836 2.80823 -2.11734 0
M  V30 2389 H 224.71 3.72012 -0.62344 0
M  V30 2390 H 227.097 2.951 0.0028244 0
M  V30 2391 H 227.178 2.05627 -1.52155 0
M  V30 2392 H 226.822 4.2399 -2.79633 0
M  V30 2393 H 226.752 5.11626 -1.24685 0
M  V30 2394 H 229.243 3.55499 -1.28175 0
M  V30 2395 H 229.556 7.03398 -3.20079 0
M  V30 2396 H 227.901 6.32873 -2.87223 0
M  V30 2397 H 231.092 4.37423 -1.66669 0
M  V30 2398 H 231.265 5.96077 -2.54158 0
M  V30 2399 N 224.671 0.411399 1.52136 0
M  V30 2400 C 225.581 -0.419774 2.30814 0
M  V30 2401 C 226.597 -1.0515 1.38634 0
M  V30 2402 O 227.773 -1.05252 1.71709 0
M  V30 2403 C 224.838 -1.52019 3.11594 0
M  V30 2404 C 223.899 -0.91129 4.19516 0
M  V30 2405 C 223.132 -1.95927 4.96436 0
M  V30 2406 O 223.355 -3.17775 4.73683 0
M  V30 2407 O 222.289 -1.56423 5.81219 0
M  V30 2408 H 226.115 0.221805 3.02889 0
M  V30 2409 H 223.7 0.174547 1.48377 0
M  V30 2410 H 225.582 -2.15898 3.61892 0
M  V30 2411 H 224.257 -2.14633 2.42311 0
M  V30 2412 H 223.164 -0.235157 3.7336 0
M  V30 2413 H 224.497 -0.32904 4.91099 0
M  V30 2414 N 226.149 -1.5696 0.141893 0
M  V30 2415 C 227.426 -1.87553 -0.555281 0
M  V30 2416 C 227.806 -1.04699 -1.83306 0
M  V30 2417 O 227.154 -0.132346 -2.28116 0
M  V30 2418 C 227.364 -3.39093 -0.825664 0
M  V30 2419 C 228.712 -4.08199 -1.16869 0
M  V30 2420 O 229.736 -3.44242 -0.915185 0
M  V30 2421 O 228.595 -5.21139 -1.6455 0
M  V30 2422 H 225.689 -0.777188 -0.282679 0
M  V30 2423 H 228.235 -1.68763 0.17812 0
M  V30 2424 H 227.007 -3.91221 0.0788633 0
M  V30 2425 H 226.63 -3.63393 -1.61343 0
M  V30 2426 N 227.627 0.131896 -1.57047 0
M  V30 2427 C 228.875 0.840269 -1.83804 0
M  V30 2428 C 229.196 1.81017 -0.72512 0
M  V30 2429 O 228.466 1.94272 0.251995 0
M  V30 2430 H 227.046 0.313294 -0.678127 0
M  V30 2431 H 229.708 0.122294 -1.94516 0
M  V30 2432 H 228.804 1.39335 -2.79271 0
M  V30 2433 N 229.106 1.52395 0.401703 0
M  V30 2434 C 230.352 1.67065 1.14966 0
M  V30 2435 C 230.685 0.403052 1.89971 0
M  V30 2436 O 229.96 -0.598774 1.85054 0
M  V30 2437 C 230.243 2.8975 2.13815 0
M  V30 2438 C 230.096 4.26578 1.42658 0
M  V30 2439 C 231.415 3.07965 3.14397 0
M  V30 2440 H 228.534 0.607968 0.416587 0
M  V30 2441 H 231.176 1.84965 0.434511 0
M  V30 2442 H 229.326 2.74619 2.74803 0
M  V30 2443 H 230.998 4.53451 0.847329 0
M  V30 2444 H 229.241 4.27639 0.72849 0
M  V30 2445 H 229.912 5.08483 2.14823 0
M  V30 2446 H 232.388 3.22043 2.63491 0
M  V30 2447 H 231.264 3.95308 3.80819 0
M  V30 2448 H 231.525 2.21611 3.82545 0
M  V30 2449 N 230.584 -0.659388 1.43143 0
M  V30 2450 C 231.812 -1.44723 1.47861 0
M  V30 2451 C 232.227 -1.88563 0.0945886 0
M  V30 2452 O 231.584 -1.59108 -0.893915 0
M  V30 2453 C 231.635 -2.68627 2.41913 0
M  V30 2454 O 231.356 -2.26623 3.74932 0
M  V30 2455 C 232.857 -3.62045 2.55809 0
M  V30 2456 H 230.077 -0.444801 0.502387 0
M  V30 2457 H 232.621 -0.808916 1.87821 0
M  V30 2458 H 230.776 -3.28613 2.05164 0
M  V30 2459 H 231.19 -3.06745 4.2545 0
M  V30 2460 H 232.664 -4.45666 3.25708 0
M  V30 2461 H 233.141 -4.08981 1.60099 0
M  V30 2462 H 233.747 -3.07944 2.93344 0
M  V30 2463 N 232.062 -1.29571 -0.897171 0
M  V30 2464 C 233.473 -1.15964 -1.46319 0
M  V30 2465 C 233.824 0.244267 -1.94674 0
M  V30 2466 O 232.949 1.13998 -1.83939 0
M  V30 2467 C 233.544 -2.09906 -2.65942 0
M  V30 2468 C 232.103 -2.00314 -3.18671 0
M  V30 2469 C 231.25 -2.00687 -1.91363 0
M  V30 2470 H 234.201 -1.42019 -0.708268 0
M  V30 2471 H 234.222 -1.67276 -3.41759 0
M  V30 2472 H 233.734 -3.12075 -2.30718 0
M  V30 2473 H 231.835 -1.01242 -3.58582 0
M  V30 2474 H 231.948 -2.88102 -3.82798 0
M  V30 2475 H 230.312 -1.45319 -2.09175 0
M  V30 2476 H 231.095 -3.04566 -1.58413 0
M  V30 2477 N 233.54 1.10788 -1.12088 0
M  V30 2478 C 234.77 1.86191 -0.895351 0
M  V30 2479 C 235.178 1.80763 0.558702 0
M  V30 2480 O 234.521 1.19188 1.39785 0
M  V30 2481 C 234.583 3.35659 -1.28737 0
M  V30 2482 C 234.247 3.64849 -2.75198 0
M  V30 2483 C 235.244 3.61757 -3.734 0
M  V30 2484 C 232.929 3.93641 -3.12013 0
M  V30 2485 C 234.923 3.87045 -5.06434 0
M  V30 2486 C 232.61 4.18585 -4.4523 0
M  V30 2487 C 233.608 4.15277 -5.42249 0
M  V30 2488 O 233.296 4.3959 -6.73065 0
M  V30 2489 H 233.028 0.595425 -0.32007 0
M  V30 2490 H 235.582 1.40992 -1.49367 0
M  V30 2491 H 233.812 3.81497 -0.63224 0
M  V30 2492 H 235.501 3.92441 -1.03656 0
M  V30 2493 H 236.267 3.39557 -3.46303 0
M  V30 2494 H 232.146 3.95348 -2.37109 0
M  V30 2495 H 235.69 3.84378 -5.82151 0
M  V30 2496 H 231.587 4.40264 -4.72057 0
M  V30 2497 H 232.355 4.57123 -6.78956 0
M  V30 2498 N 235.018 0.912232 1.28515 0
M  V30 2499 C 235.951 0.343928 2.25593 0
M  V30 2500 C 236.929 -0.550994 1.5298 0
M  V30 2501 O 238.113 -0.494991 1.81885 0
M  V30 2502 C 235.24 -0.508525 3.34861 0
M  V30 2503 C 234.286 0.320808 4.25292 0
M  V30 2504 S 235.119 1.72658 5.06902 0
M  V30 2505 C 236.275 0.881394 6.19663 0
M  V30 2506 H 236.508 1.16674 2.73449 0
M  V30 2507 H 234.041 0.713384 1.36931 0
M  V30 2508 H 235.999 -0.994539 3.9827 0
M  V30 2509 H 234.66 -1.30571 2.85675 0
M  V30 2510 H 233.853 -0.330941 5.02912 0
M  V30 2511 H 233.455 0.74042 3.66598 0
M  V30 2512 H 235.747 0.110359 6.7741 0
M  V30 2513 H 236.69 1.63009 6.89082 0
M  V30 2514 H 237.098 0.430239 5.62858 0
M  V30 2515 N 236.496 -1.42363 0.676048 0
M  V30 2516 C 237.745 -2.00745 0.196037 0
M  V30 2517 C 238.058 -1.54083 -1.20489 0
M  V30 2518 O 239.264 -2.04891 -1.78134 0
M  V30 2519 C 237.72 -3.58651 0.299616 0
M  V30 2520 C 237.328 -4.143 1.70468 0
M  V30 2521 C 239.072 -4.24326 -0.121619 0
M  V30 2522 C 236.979 -5.64574 1.76096 0
M  V30 2523 H 235.909 -0.750787 0.0695301 0
M  V30 2524 H 238.56 -1.63072 0.841412 0
M  V30 2525 H 236.942 -3.93833 -0.413673 0
M  V30 2526 H 238.116 -3.90575 2.44515 0
M  V30 2527 H 236.431 -3.61081 2.07387 0
M  V30 2528 H 239.028 -5.34607 -0.0997362 0
M  V30 2529 H 239.371 -3.99897 -1.15708 0
M  V30 2530 H 239.904 -3.94108 0.540706 0
M  V30 2531 H 236.643 -5.93804 2.77628 0
M  V30 2532 H 236.163 -5.90286 1.06406 0
M  V30 2533 H 237.842 -6.29013 1.51496 0
M  V30 2534 N 237.974 -0.419461 -1.51915 0
M  V30 2535 C 239.221 0.152939 -2.01922 0
M  V30 2536 C 239.549 1.4426 -1.30458 0
M  V30 2537 O 238.804 1.91514 -0.402593 0
M  V30 2538 C 239.103 0.437067 -3.54717 0
M  V30 2539 C 238.769 -0.764632 -4.44369 0
M  V30 2540 C 237.431 -1.09423 -4.68594 0
M  V30 2541 C 239.783 -1.56713 -4.97082 0
M  V30 2542 C 237.111 -2.22732 -5.42777 0
M  V30 2543 C 239.463 -2.69107 -5.72507 0
M  V30 2544 C 238.127 -3.02541 -5.95 0
M  V30 2545 H 237.397 0.0559644 -0.738884 0
M  V30 2546 H 240.044 -0.562998 -1.83037 0
M  V30 2547 H 238.349 1.23469 -3.71837 0
M  V30 2548 H 240.046 0.893083 -3.90928 0
M  V30 2549 H 236.636 -0.497775 -4.257 0
M  V30 2550 H 240.82 -1.32571 -4.78266 0
M  V30 2551 H 236.076 -2.48971 -5.58411 0
M  V30 2552 H 240.25 -3.31671 -6.12346 0
M  V30 2553 H 237.877 -3.90457 -6.52264 0
M  V30 2554 N 239.452 1.56882 -0.150215 0
M  V30 2555 C 240.699 1.96228 0.500093 0
M  V30 2556 C 241.027 1.03522 1.64661 0
M  V30 2557 O 240.282 0.0650683 1.95592 0
M  V30 2558 C 240.581 3.41801 1.04437 0
M  V30 2559 C 240.247 4.50897 0.0159671 0
M  V30 2560 C 238.909 4.8046 -0.266731 0
M  V30 2561 C 241.261 5.16703 -0.683192 0
M  V30 2562 C 238.589 5.73135 -1.25434 0
M  V30 2563 C 240.941 6.10441 -1.65964 0
M  V30 2564 C 239.605 6.38382 -1.95 0
M  V30 2565 H 238.875 0.718048 0.182997 0
M  V30 2566 H 241.522 1.90019 -0.237724 0
M  V30 2567 H 239.827 3.44857 1.85959 0
M  V30 2568 H 241.524 3.69573 1.55618 0
M  V30 2569 H 238.114 4.27891 0.246485 0
M  V30 2570 H 242.298 4.93993 -0.477983 0
M  V30 2571 H 237.554 5.93074 -1.48571 0
M  V30 2572 H 241.728 6.60507 -2.20689 0
M  V30 2573 H 239.355 7.09996 -2.71679 0
M  V30 2574 N 240.93 -0.123565 1.57115 0
M  V30 2575 C 241.877 -1.15177 2.00007 0
M  V30 2576 C 242.847 -1.41403 0.871454 0
M  V30 2577 O 244.032 -1.53346 1.13533 0
M  V30 2578 C 241.172 -2.47436 2.40561 0
M  V30 2579 C 240.285 -2.28184 3.66819 0
M  V30 2580 C 239.42 -3.53641 3.96373 0
M  V30 2581 C 238.459 -3.29528 5.15827 0
M  V30 2582 N 237.596 -4.47175 5.41275 0
M  V30 2583 H 242.436 -0.779008 2.87638 0
M  V30 2584 H 239.973 -0.373166 1.42288 0
M  V30 2585 H 241.931 -3.24584 2.62109 0
M  V30 2586 H 240.561 -2.82614 1.55978 0
M  V30 2587 H 239.613 -1.41976 3.52912 0
M  V30 2588 H 240.925 -2.0634 4.5412 0
M  V30 2589 H 240.079 -4.39209 4.18545 0
M  V30 2590 H 238.818 -3.78512 3.07538 0
M  V30 2591 H 237.823 -2.42349 4.93505 0
M  V30 2592 H 239.048 -3.06031 6.06236 0
M  V30 2593 H 236.994 -4.72175 4.55397 0
M  V30 2594 H 236.911 -4.28419 6.22891 0
M  V30 2595 H 238.179 -5.3389 5.67963 0
M  V30 2596 N 242.408 -1.52605 -0.393616 0
M  V30 2597 C 243.685 -1.58001 -1.15304 0
M  V30 2598 C 244.065 -0.370385 -2.07825 0
M  V30 2599 O 243.413 0.641638 -2.19306 0
M  V30 2600 C 243.623 -2.91652 -1.91677 0
M  V30 2601 C 244.971 -3.4522 -2.47201 0
M  V30 2602 O 245.995 -2.93495 -2.01839 0
M  V30 2603 O 244.854 -4.35579 -3.3005 0
M  V30 2604 H 241.948 -0.637068 -0.527327 0
M  V30 2605 H 244.494 -1.64939 -0.399141 0
M  V30 2606 H 243.266 -3.71136 -1.23992 0
M  V30 2607 H 242.889 -2.88077 -2.74039 0
M  V30 2608 N 243.887 0.651787 -1.4349 0
M  V30 2609 C 245.135 1.40888 -1.44897 0
M  V30 2610 C 245.456 1.94856 -0.0749086 0
M  V30 2611 O 244.726 1.74518 0.889956 0
M  V30 2612 H 243.306 0.522887 -0.533478 0
M  V30 2613 H 245.968 0.768609 -1.79104 0
M  V30 2614 H 245.064 2.25052 -2.16236 0
M  V30 2615 N 245.365 1.30045 0.890287 0
M  V30 2616 C 246.295 1.18541 2.01172 0
M  V30 2617 C 247.276 0.0773356 1.69924 0
M  V30 2618 O 248.461 0.25845 1.92473 0
M  V30 2619 C 245.591 0.870941 3.36202 0
M  V30 2620 C 244.545 1.93637 3.81692 0
M  V30 2621 C 243.871 1.475 5.13953 0
M  V30 2622 C 245.171 3.34666 4.00994 0
M  V30 2623 H 246.865 2.12359 2.11054 0
M  V30 2624 H 244.411 1.02238 1.01407 0
M  V30 2625 H 246.364 0.777141 4.14172 0
M  V30 2626 H 245.088 -0.102926 3.26438 0
M  V30 2627 H 243.747 2.01972 3.05946 0
M  V30 2628 H 243.395 0.489551 5.00612 0
M  V30 2629 H 243.095 2.1876 5.4536 0
M  V30 2630 H 244.619 1.39489 5.94454 0
M  V30 2631 H 246.033 3.2912 4.69417 0
M  V30 2632 H 244.43 4.03966 4.43769 0
M  V30 2633 H 245.5 3.76949 3.05021 0
M  V30 2634 N 246.843 -1.10192 1.12674 0
M  V30 2635 C 247.753 -2.20172 0.810026 0
M  V30 2636 C 248.769 -1.72821 -0.202188 0
M  V30 2637 O 249.945 -2.01369 -0.0351691 0
M  V30 2638 C 247.01 -3.45631 0.272007 0
M  V30 2639 C 246.071 -4.07704 1.34447 0
M  V30 2640 C 245.304 -5.27175 0.832029 0
M  V30 2641 O 245.527 -5.69425 -0.333284 0
M  V30 2642 O 244.461 -5.80168 1.60277 0
M  V30 2643 H 248.287 -2.49701 1.72867 0
M  V30 2644 H 245.872 -1.18977 0.903597 0
M  V30 2645 H 247.754 -4.21394 -0.0230219 0
M  V30 2646 H 246.429 -3.17723 -0.619164 0
M  V30 2647 H 245.336 -3.33614 1.6927 0
M  V30 2648 H 246.669 -4.3982 2.2095 0
M  V30 2649 N 248.321 -0.919034 -1.28029 0
M  V30 2650 C 249.254 -0.355887 -2.25408 0
M  V30 2651 C 250.232 0.542874 -1.5327 0
M  V30 2652 O 251.416 0.485338 -1.82145 0
M  V30 2653 C 248.543 0.490759 -3.35126 0
M  V30 2654 C 247.589 -0.343358 -4.25116 0
M  V30 2655 S 248.422 -1.75344 -5.05979 0
M  V30 2656 C 249.578 -0.914244 -6.19187 0
M  V30 2657 H 249.811 -1.18123 -2.72826 0
M  V30 2658 H 247.344 -0.720636 -1.36551 0
M  V30 2659 H 249.302 0.973404 -3.98792 0
M  V30 2660 H 247.963 1.29054 -2.86363 0
M  V30 2661 H 247.156 0.304266 -5.03081 0
M  V30 2662 H 246.758 -0.759851 -3.662 0
M  V30 2663 H 249.05 -0.146282 -6.77342 0
M  V30 2664 H 249.993 -1.66661 -6.88208 0
M  V30 2665 H 250.401 -0.460082 -5.62622 0
M  V30 2666 N 249.799 1.42003 -0.683588 0
M  V30 2667 C 250.709 2.34597 -0.0109075 0
M  V30 2668 C 251.725 1.55576 0.779245 0
M  V30 2669 O 252.901 1.88107 0.719555 0
M  V30 2670 C 249.966 3.34199 0.922588 0
M  V30 2671 C 249.027 4.29115 0.125984 0
M  V30 2672 C 248.26 5.23959 1.01502 0
M  V30 2673 O 248.483 5.23952 2.25456 0
M  V30 2674 O 247.417 6.00053 0.47111 0
M  V30 2675 H 251.243 2.93675 -0.773853 0
M  V30 2676 H 248.828 1.42654 -0.443861 0
M  V30 2677 H 250.71 3.95365 1.45823 0
M  V30 2678 H 249.385 2.77582 1.66523 0
M  V30 2679 H 248.292 3.71335 -0.453969 0
M  V30 2680 H 249.625 4.88798 -0.577736 0
M  V30 2681 N 251.277 0.427512 1.51691 0
M  V30 2682 C 252.224 -0.388867 2.275 0
M  V30 2683 C 253.194 -1.02532 1.30677 0
M  V30 2684 O 254.379 -1.0461 1.59566 0
M  V30 2685 C 251.519 -1.48954 3.11298 0
M  V30 2686 C 250.632 -0.872194 4.23104 0
M  V30 2687 C 249.767 -1.94709 4.94228 0
M  V30 2688 C 248.806 -1.30766 5.97969 0
M  V30 2689 N 247.943 -2.32349 6.62539 0
M  V30 2690 H 252.783 0.263997 2.96828 0
M  V30 2691 H 250.32 0.142033 1.46413 0
M  V30 2692 H 252.278 -2.13887 3.58201 0
M  V30 2693 H 250.908 -2.11217 2.44105 0
M  V30 2694 H 249.96 -0.111419 3.80237 0
M  V30 2695 H 251.272 -0.365264 4.97461 0
M  V30 2696 H 250.426 -2.67327 5.44629 0
M  V30 2697 H 249.165 -2.48773 4.1948 0
M  V30 2698 H 248.17 -0.566902 5.4687 0
M  V30 2699 H 249.395 -0.774483 6.74669 0
M  V30 2700 H 247.341 -2.85511 5.90609 0
M  V30 2701 H 247.258 -1.8652 7.3263 0
M  V30 2702 H 248.526 -3.04481 7.17574 0
M  V30 2703 N 252.755 -1.56801 0.158532 0
M  V30 2704 C 253.995 -1.98383 -0.49229 0
M  V30 2705 C 254.359 -1.04184 -1.61275 0
M  V30 2706 O 255.56 -1.34856 -2.32524 0
M  V30 2707 C 253.831 -3.4385 -0.974766 0
M  V30 2708 S 255.39 -4.07459 -1.62857 0
M  V30 2709 H 252.208 -0.693041 -0.158794 0
M  V30 2710 H 254.81 -1.93856 0.252974 0
M  V30 2711 H 253.514 -4.10131 -0.148688 0
M  V30 2712 H 253.045 -3.52115 -1.75438 0
M  V30 2713 H 255.06 -4.01458 -2.91627 0
M  V30 2714 O 254.272 -0.0202813 -1.61487 0
M  V30 2715 H 254.963 0.593557 -1.84382 0
M  V30 END ATOM
M  V30 BEGIN BOND
M  V30 END BOND
M  V30 END CTAB
M  END
$$$$
