drugbank_target|P13611 Versican core protein (DB08818)
 OpenBabel12092120563D

  0  0  0     0  0            999 V3000
M  V30 BEGIN CTAB
M  V30 COUNTS 51241 51818 0 0 0
M  V30 BEGIN ATOM
M  V30 1 H -0.908 1.98254 -0.117106 0
M  V30 2 N 0 1.576 0 0
M  V30 3 C 0.933 2.03868 1.02534 0
M  V30 4 C 1.911 0.928543 1.3348 0
M  V30 5 O 3.095 1.19667 1.45644 0
M  V30 6 C 0.222 2.43627 2.35294 0
M  V30 7 C -0.732 3.65373 2.2001 0
M  V30 8 S 0.101 5.13292 1.52614 0
M  V30 9 C 1.257 5.56322 2.86805 0
M  V30 10 H 1.49 2.90518 0.631377 0
M  V30 11 H -0.977 1.52953 0.210867 0
M  V30 12 H 0.981 2.67203 3.11629 0
M  V30 13 H -0.358 1.57376 2.7183 0
M  V30 14 H -1.165 3.90944 3.18086 0
M  V30 15 H -1.563 3.418 1.51819 0
M  V30 16 H 0.729 5.58782 3.83104 0
M  V30 17 H 1.672 6.56266 2.65933 0
M  V30 18 H 2.08 4.83886 2.90714 0
M  V30 19 N 1.4781 -0.272755 1.55222 0
M  V30 20 C 2.7251 -1.00433 1.7584 0
M  V30 21 C 3.0531 -1.86275 0.559629 0
M  V30 22 O 2.3081 -1.90269 -0.457857 0
M  V30 23 C 2.6071 -1.91642 3.01675 0
M  V30 24 C 2.2731 -1.21548 4.34208 0
M  V30 25 C 0.9351 -1.02166 4.70229 0
M  V30 26 C 3.2871 -0.716684 5.16249 0
M  V30 27 C 0.6151 -0.316334 5.85847 0
M  V30 28 C 2.9671 -0.0249476 6.32595 0
M  V30 29 C 1.6311 0.180579 6.67256 0
M  V30 30 H 0.9011 -0.367509 0.643443 0
M  V30 31 H 3.5481 -0.276596 1.89492 0
M  V30 32 H 1.8531 -2.71037 2.82924 0
M  V30 33 H 3.5501 -2.48369 3.14824 0
M  V30 34 H 0.1401 -1.37645 4.05896 0
M  V30 35 H 4.3241 -0.854047 4.88896 0
M  V30 36 H -0.4199 -0.146378 6.11225 0
M  V30 37 H 3.7541 0.369311 6.9542 0
M  V30 38 H 1.3811 0.729098 7.56696 0
M  V30 39 N 2.9562 -1.48159 -0.537278 0
M  V30 40 C 4.2052 -1.5506 -1.28993 0
M  V30 41 C 4.5182 -0.226211 -1.94288 0
M  V30 42 O 5.7242 -0.173395 -2.70946 0
M  V30 43 C 4.1802 -2.73429 -2.34018 0
M  V30 44 C 3.7882 -4.1248 -1.74825 0
M  V30 45 C 5.5322 -2.89638 -3.10339 0
M  V30 46 C 3.4392 -5.22121 -2.77747 0
M  V30 47 H 2.3692 -0.577231 -0.485098 0
M  V30 48 H 5.0202 -1.74478 -0.568317 0
M  V30 49 H 3.4022 -2.47431 -3.09182 0
M  V30 50 H 4.5762 -4.48466 -1.05899 0
M  V30 51 H 2.8912 -4.01327 -1.11022 0
M  V30 52 H 5.4882 -3.68718 -3.87235 0
M  V30 53 H 5.8312 -1.9882 -3.65754 0
M  V30 54 H 6.3642 -3.15502 -2.42288 0
M  V30 55 H 3.1032 -6.1488 -2.27161 0
M  V30 56 H 2.6232 -4.90631 -3.45024 0
M  V30 57 H 4.3022 -5.49924 -3.4087 0
M  V30 58 N 4.4343 0.785586 -1.36625 0
M  V30 59 C 5.3823 1.91978 -1.31329 0
M  V30 60 C 6.3763 1.68162 -0.204416 0
M  V30 61 O 7.5823 1.76122 -0.371645 0
M  V30 62 H 3.9573 0.631087 -0.408942 0
M  V30 63 H 5.9283 1.93562 -2.27104 0
M  V30 64 C 4.6773 3.29055 -1.12329 0
M  V30 65 H 4.0003 3.4795 -1.96903 0
M  V30 66 H 5.4403 4.08756 -1.12671 0
M  V30 67 C 3.8993 3.36461 0.171861 0
M  V30 68 O 4.4293 3.84576 1.16035 0
M  V30 69 N 2.6353 2.89782 0.217846 0
M  V30 70 H 2.1823 2.50819 -0.587183 0
M  V30 71 H 2.1403 2.95119 1.08408 0
M  V30 72 N 5.9124 1.20967 1.01018 0
M  V30 73 C 7.1614 1.01796 1.74128 0
M  V30 74 C 7.4744 -0.449691 1.90361 0
M  V30 75 O 8.6804 -0.76068 2.60626 0
M  V30 76 C 7.1364 1.7727 3.13215 0
M  V30 77 C 6.7444 3.28171 3.04972 0
M  V30 78 C 8.4884 1.66489 3.90489 0
M  V30 79 C 6.3954 3.96156 4.39107 0
M  V30 80 H 5.3254 0.377276 0.652824 0
M  V30 81 H 7.9764 1.44651 1.12909 0
M  V30 82 H 6.3584 1.27205 3.75013 0
M  V30 83 H 7.5324 3.85499 2.52443 0
M  V30 84 H 5.8474 3.39437 2.41188 0
M  V30 85 H 8.4444 2.14617 4.89738 0
M  V30 86 H 8.7874 0.6222 4.11624 0
M  V30 87 H 9.3204 2.14003 3.35332 0
M  V30 88 H 6.0594 5.00604 4.23174 0
M  V30 89 H 5.5794 3.43617 4.91617 0
M  V30 90 H 7.2584 4.00774 5.07926 0
M  V30 91 N 7.3905 -1.2043 1.01659 0
M  V30 92 C 8.3375 -2.23215 0.586822 0
M  V30 93 C 9.3075 -1.61382 -0.393085 0
M  V30 94 O 10.4925 -1.88544 -0.292525 0
M  V30 95 C 7.6325 -3.45032 -0.0687464 0
M  V30 96 C 6.7455 -4.21296 0.955724 0
M  V30 97 C 5.8805 -5.30507 0.271208 0
M  V30 98 C 4.9195 -5.98515 1.28244 0
M  V30 99 N 4.0565 -6.99316 0.62459 0
M  V30 100 H 8.8965 -2.59336 1.46796 0
M  V30 101 H 6.4335 -1.27431 0.734836 0
M  V30 102 H 8.3915 -4.1459 -0.465965 0
M  V30 103 H 7.0215 -3.09604 -0.913529 0
M  V30 104 H 6.0735 -3.50803 1.4711 0
M  V30 105 H 7.3855 -4.6803 1.72479 0
M  V30 106 H 6.5395 -6.06428 -0.18151 0
M  V30 107 H 5.2785 -4.8481 -0.530163 0
M  V30 108 H 4.2835 -5.21355 1.74554 0
M  V30 109 H 5.5085 -6.46298 2.08509 0
M  V30 110 H 3.4545 -6.55812 -0.156914 0
M  V30 111 H 3.3715 -7.44178 1.33172 0
M  V30 112 H 4.6395 -7.79255 0.195462 0
M  V30 113 N 8.8686 -0.792821 -1.36206 0
M  V30 114 C 10.0936 -0.377701 -2.03932 0
M  V30 115 C 10.5186 0.998947 -1.59382 0
M  V30 116 O 9.8766 1.64421 -0.763903 0
M  V30 117 C 9.9246 -0.453635 -3.57735 0
M  V30 118 O 9.0286 0.538151 -4.08874 0
M  V30 119 H 8.3696 -0.159855 -0.644471 0
M  V30 120 H 10.8996 -1.07488 -1.7409 0
M  V30 121 H 10.9096 -0.318464 -4.06755 0
M  V30 122 H 9.5846 -1.45784 -3.89512 0
M  V30 123 H 8.1616 0.364359 -3.71116 0
M  V30 124 N 10.3467 1.47872 -0.545128 0
M  V30 125 C 11.5957 2.01695 -0.0145033 0
M  V30 126 C 11.9087 1.42609 1.33873 0
M  V30 127 O 13.1147 1.88021 1.95858 0
M  V30 128 C 11.5707 3.59892 0.0245068 0
M  V30 129 C 11.1787 4.27966 -1.32475 0
M  V30 130 C 12.9227 4.21507 0.50316 0
M  V30 131 C 10.8297 5.78136 -1.2455 0
M  V30 132 H 9.7597 0.753998 -0.00165172 0
M  V30 133 H 12.4107 1.69985 -0.691175 0
M  V30 134 H 10.7927 3.88509 0.766575 0
M  V30 135 H 11.9667 4.11003 -2.08357 0
M  V30 136 H 10.2817 3.78286 -1.74036 0
M  V30 137 H 12.8787 5.31538 0.580656 0
M  V30 138 H 13.2217 3.87855 1.51243 0
M  V30 139 H 13.7547 3.97376 -0.183681 0
M  V30 140 H 10.4937 6.16388 -2.23039 0
M  V30 141 H 10.0137 5.97469 -0.528282 0
M  V30 142 H 11.6927 6.40099 -0.942488 0
M  V30 143 N 11.8248 0.280983 1.55075 0
M  V30 144 C 12.7548 -0.597469 2.25727 0
M  V30 145 C 13.7358 -1.15417 1.24952 0
M  V30 146 O 14.9208 -1.18722 1.53684 0
M  V30 147 C 12.0508 -1.7789 2.98283 0
M  V30 148 C 11.0048 -1.35347 4.06036 0
M  V30 149 C 10.3308 -2.61846 4.66198 0
M  V30 150 C 11.6308 -0.499354 5.19907 0
M  V30 151 H 13.3248 -0.00824265 2.99399 0
M  V30 152 H 10.8708 -0.0025244 1.44 0
M  V30 153 H 12.8238 -2.39937 3.46422 0
M  V30 154 H 11.5478 -2.39405 2.22155 0
M  V30 155 H 10.2068 -0.756156 3.58717 0
M  V30 156 H 9.8548 -3.21632 3.86732 0
M  V30 157 H 9.5548 -2.3409 5.38958 0
M  V30 158 H 11.0788 -3.24732 5.1709 0
M  V30 159 H 12.4928 -1.02498 5.64063 0
M  V30 160 H 10.8898 -0.316424 5.99265 0
M  V30 161 H 11.9598 0.480459 4.82514 0
M  V30 162 N 13.3029 -1.57598 0.00835791 0
M  V30 163 C 14.5489 -1.92046 -0.670055 0
M  V30 164 C 14.9039 -0.88351 -1.70915 0
M  V30 165 O 14.1969 0.103223 -1.91322 0
M  V30 166 C 14.3909 -3.3101 -1.34787 0
M  V30 167 C 14.2199 -4.48126 -0.375945 0
M  V30 168 C 12.9899 -5.05297 0.0166914 0
M  V30 169 C 15.1879 -5.1303 0.361272 0
M  V30 170 N 13.1699 -6.05931 0.985952 0
M  V30 171 C 14.5409 -6.08571 1.18495 0
M  V30 172 C 16.5959 -4.9609 0.42421 0
M  V30 173 C 15.2989 -6.88996 2.06584 0
M  V30 174 C 17.3249 -5.77107 1.29236 0
M  V30 175 C 16.6869 -6.72248 2.10386 0
M  V30 176 H 12.7859 -0.75096 -0.218136 0
M  V30 177 H 15.3699 -1.94572 0.0706669 0
M  V30 178 H 13.5409 -3.29342 -2.05884 0
M  V30 179 H 15.2729 -3.52864 -1.98164 0
M  V30 180 H 12.0279 -4.72279 -0.353435 0
M  V30 181 H 12.4519 -6.60932 1.4662 0
M  V30 182 H 17.0939 -4.22378 -0.188915 0
M  V30 183 H 14.8119 -7.62028 2.6896 0
M  V30 184 H 18.3979 -5.66038 1.34508 0
M  V30 185 H 17.2779 -7.33846 2.76476 0
M  V30 186 N 14.781 0.264519 -1.55364 0
M  V30 187 C 15.714 1.35297 -1.83766 0
M  V30 188 C 16.692 1.47171 -0.691336 0
M  V30 189 O 17.876 1.63663 -0.935238 0
M  V30 190 C 15.003 2.72847 -2.00679 0
M  V30 191 C 14.049 2.78214 -3.23263 0
M  V30 192 S 14.882 2.36601 -4.80396 0
M  V30 193 C 16.038 3.7611 -5.00292 0
M  V30 194 H 16.271 1.11003 -2.758 0
M  V30 195 H 13.804 0.464596 -1.47244 0
M  V30 196 H 15.762 3.52057 -2.11108 0
M  V30 197 H 14.423 2.94388 -1.09518 0
M  V30 198 H 13.616 3.7919 -3.3201 0
M  V30 199 H 13.218 2.07034 -3.11469 0
M  V30 200 H 15.51 4.71457 -4.86554 0
M  V30 201 H 16.453 3.7231 -6.02321 0
M  V30 202 H 16.861 3.67806 -4.28228 0
M  V30 203 N 16.2591 1.48442 0.529413 0
M  V30 204 C 17.4991 1.58086 1.29569 0
M  V30 205 C 17.8631 0.249302 1.90375 0
M  V30 206 O 19.0641 0.220738 2.67892 0
M  V30 207 C 17.3351 2.68793 2.35552 0
M  V30 208 S 18.8941 2.98207 3.21898 0
M  V30 209 H 15.7121 0.557922 0.440732 0
M  V30 210 H 18.3141 1.85966 0.603059 0
M  V30 211 H 17.0181 3.64102 1.89363 0
M  V30 212 H 16.5491 2.42817 3.09522 0
M  V30 213 H 18.5641 2.37548 4.35644 0
M  V30 214 N 17.7372 -0.778329 1.37039 0
M  V30 215 C 18.9622 -1.57248 1.35233 0
M  V30 216 C 19.3872 -1.87999 -0.0615568 0
M  V30 217 O 18.7452 -1.48734 -1.03672 0
M  V30 218 C 18.7932 -2.86353 2.19167 0
M  V30 219 O 17.8972 -3.80442 1.59178 0
M  V30 220 H 17.2382 -0.476569 0.462362 0
M  V30 221 H 19.7682 -0.963853 1.80474 0
M  V30 222 H 19.7782 -3.35519 2.32145 0
M  V30 223 H 18.4532 -2.63299 3.21942 0
M  V30 224 H 17.0302 -3.39067 1.55203 0
M  V30 225 N 19.2153 -1.21501 -1.00376 0
M  V30 226 C 20.4433 -1.059 -1.77744 0
M  V30 227 C 20.8583 0.391125 -1.84704 0
M  V30 228 O 20.2153 1.27133 -1.30933 0
M  V30 229 C 20.2663 -1.65111 -3.21591 0
M  V30 230 O 19.9873 -3.0445 -3.15027 0
M  V30 231 C 21.4883 -1.54637 -4.15454 0
M  V30 232 H 18.7083 -0.371825 -0.558558 0
M  V30 233 H 21.2523 -1.60865 -1.26264 0
M  V30 234 H 19.4073 -1.14235 -3.70175 0
M  V30 235 H 19.8213 -3.3278 -4.0541 0
M  V30 236 H 21.2953 -2.00808 -5.14179 0
M  V30 237 H 21.7723 -0.501022 -4.36333 0
M  V30 238 H 22.3783 -2.04767 -3.72761 0
M  V30 239 N 20.6934 1.19889 -1.02296 0
M  V30 240 C 21.6234 2.25141 -0.619174 0
M  V30 241 C 22.6044 1.66051 0.368915 0
M  V30 242 O 23.7894 1.92546 0.252941 0
M  V30 243 C 20.9194 3.4728 0.0368783 0
M  V30 244 C 19.8734 4.19005 -0.872865 0
M  V30 245 C 19.1994 5.34637 -0.0822402 0
M  V30 246 C 20.4994 4.74452 -2.18387 0
M  V30 247 H 22.1934 2.59171 -1.49903 0
M  V30 248 H 19.7394 1.24579 -0.722222 0
M  V30 249 H 21.6924 4.20098 0.330958 0
M  V30 250 H 20.4164 3.12433 0.95149 0
M  V30 251 H 19.0754 3.48061 -1.15105 0
M  V30 252 H 18.7234 4.96034 0.83422 0
M  V30 253 H 18.4234 5.83557 -0.688149 0
M  V30 254 H 19.9474 6.10255 0.205238 0
M  V30 255 H 21.3614 5.39055 -1.95172 0
M  V30 256 H 19.7584 5.33834 -2.74119 0
M  V30 257 H 20.8284 3.92844 -2.84257 0
M  V30 258 N 22.1715 0.800033 1.35784 0
M  V30 259 C 23.4205 0.37387 1.98205 0
M  V30 260 C 23.7335 -1.06302 1.64193 0
M  V30 261 O 24.9395 -1.59198 2.19928 0
M  V30 262 C 23.3955 0.617532 3.54562 0
M  V30 263 C 23.0035 2.06654 3.9749 0
M  V30 264 C 24.7475 0.256401 4.23725 0
M  V30 265 C 22.6545 2.2563 5.46667 0
M  V30 266 H 21.5845 0.136055 0.741623 0
M  V30 267 H 24.2355 0.983166 1.54939 0
M  V30 268 H 22.6175 -0.0616248 3.95952 0
M  V30 269 H 23.7915 2.78296 3.67271 0
M  V30 270 H 22.1065 2.38691 3.41197 0
M  V30 271 H 24.7035 0.376318 5.33374 0
M  V30 272 H 25.0465 -0.796692 4.08606 0
M  V30 273 H 25.5795 0.889214 3.87734 0
M  V30 274 H 22.3185 3.2936 5.66747 0
M  V30 275 H 21.8385 1.58504 5.78478 0
M  V30 276 H 23.5175 2.06861 6.1304 0
M  V30 277 N 23.6496 -1.47581 0.552962 0
M  V30 278 C 24.8956 -2.02782 0.0273648 0
M  V30 279 C 25.2286 -1.42687 -1.31734 0
M  V30 280 O 24.5036 -0.580897 -1.85623 0
M  V30 281 C 24.7866 -3.60031 -0.0702371 0
M  V30 282 C 24.6396 -4.30566 1.30126 0
M  V30 283 C 25.9586 -4.33028 -0.785771 0
M  V30 284 H 23.0776 -0.736912 0.0114185 0
M  V30 285 H 25.7196 -1.76056 0.714432 0
M  V30 286 H 23.8696 -3.82932 -0.655382 0
M  V30 287 H 25.5416 -4.19018 1.92929 0
M  V30 288 H 23.7846 -3.91086 1.87709 0
M  V30 289 H 24.4556 -5.39114 1.18573 0
M  V30 290 H 26.9316 -4.15095 -0.288982 0
M  V30 291 H 25.8076 -5.42695 -0.823013 0
M  V30 292 H 26.0686 -4.01945 -1.841 0
M  V30 293 N 25.1277 -0.289203 -1.54924 0
M  V30 294 C 26.3557 0.326463 -2.04308 0
M  V30 295 C 26.7707 1.48413 -1.16701 0
M  V30 296 O 26.1277 1.81507 -0.190087 0
M  V30 297 C 26.1787 0.794014 -3.52672 0
M  V30 298 O 25.8997 -0.317564 -4.36948 0
M  V30 299 C 27.4007 1.47605 -4.18004 0
M  V30 300 H 24.6207 0.0726272 -0.667058 0
M  V30 301 H 27.1647 -0.425401 -2.00026 0
M  V30 302 H 25.3197 1.49593 -3.57352 0
M  V30 303 H 25.7337 0.0443186 -5.24481 0
M  V30 304 H 27.2077 1.75447 -5.23376 0
M  V30 305 H 27.6847 2.41224 -3.67025 0
M  V30 306 H 28.2907 0.81762 -4.17367 0
M  V30 307 N 26.6058 1.57591 -0.0167156 0
M  V30 308 C 27.5558 2.05953 0.978137 0
M  V30 309 C 28.5398 0.957532 1.29306 0
M  V30 310 O 29.7318 1.22119 1.28125 0
M  V30 311 C 26.8608 2.58006 2.26468 0
M  V30 312 C 25.9468 3.75113 1.97867 0
M  V30 313 N 26.3378 4.86187 1.39486 0
M  V30 314 C 24.6358 3.83363 2.27924 0
M  V30 315 C 25.3368 5.67502 1.27735 0
M  V30 316 N 24.3128 5.14023 1.76866 0
M  V30 317 H 28.1148 2.89236 0.521522 0
M  V30 318 H 25.6288 1.61301 0.188596 0
M  V30 319 H 27.6258 2.90937 2.98599 0
M  V30 320 H 26.2858 1.76148 2.72767 0
M  V30 321 H 27.2968 5.06695 1.07147 0
M  V30 322 H 23.9738 3.1239 2.76982 0
M  V30 323 H 25.3638 6.66791 0.826978 0
M  V30 324 N 28.0839 -0.256276 1.55502 0
M  V30 325 C 29.0469 -1.30047 1.88734 0
M  V30 326 C 30.0469 -1.4154 0.763086 0
M  V30 327 O 31.2369 -1.40403 1.03115 0
M  V30 328 C 28.3689 -2.67953 2.10747 0
M  V30 329 H 29.5619 -1.01802 2.82093 0
M  V30 330 H 27.1149 -0.495134 1.4825 0
M  V30 331 H 27.8499 -3.01351 1.19825 0
M  V30 332 H 27.6349 -2.60993 2.92617 0
M  V30 333 H 29.1249 -3.43368 2.37673 0
M  V30 334 N 29.562 -1.4872 -0.521534 0
M  V30 335 C 30.492 -1.66771 -1.63431 0
M  V30 336 C 31.473 -0.516499 -1.62069 0
M  V30 337 O 32.658 -0.750013 -1.79132 0
M  V30 338 C 29.788 -1.71515 -3.01993 0
M  V30 339 C 28.742 -2.86222 -3.18216 0
M  V30 340 C 28.068 -2.76061 -4.57924 0
M  V30 341 C 29.368 -4.27419 -3.00184 0
M  V30 342 H 31.062 -2.59932 -1.48579 0
M  V30 343 H 28.608 -1.25089 -0.713358 0
M  V30 344 H 30.561 -1.82731 -3.7972 0
M  V30 345 H 29.285 -0.749393 -3.17886 0
M  V30 346 H 27.944 -2.74575 -2.42908 0
M  V30 347 H 27.592 -1.77437 -4.70665 0
M  V30 348 H 27.292 -3.53037 -4.69722 0
M  V30 349 H 28.816 -2.89256 -5.37739 0
M  V30 350 H 30.23 -4.39855 -3.67697 0
M  V30 351 H 28.627 -5.05458 -3.2347 0
M  V30 352 H 29.697 -4.43293 -1.96518 0
M  V30 353 N 31.0401 0.771051 -1.3745 0
M  V30 354 C 31.9901 1.87456 -1.29785 0
M  V30 355 C 32.9741 1.59827 -0.185541 0
M  V30 356 O 34.1661 1.71945 -0.419997 0
M  V30 357 C 31.2951 3.24935 -1.1078 0
M  V30 358 C 30.3811 3.58514 -2.26558 0
M  V30 359 N 30.7721 3.6327 -3.5195 0
M  V30 360 C 29.0701 3.88683 -2.18727 0
M  V30 361 C 29.7711 3.93616 -4.283 0
M  V30 362 N 28.7471 4.09551 -3.57448 0
M  V30 363 H 32.5491 1.89386 -2.24745 0
M  V30 364 H 30.0631 0.967531 -1.30432 0
M  V30 365 H 32.0601 4.03881 -1.03374 0
M  V30 366 H 30.7201 3.24268 -0.16738 0
M  V30 367 H 31.7311 3.45458 -3.85848 0
M  V30 368 H 28.4081 3.95834 -1.32746 0
M  V30 369 H 29.7981 4.04066 -5.36824 0
M  V30 370 N 32.5182 1.22032 0.997298 0
M  V30 371 C 33.4652 0.986467 2.08656 0
M  V30 372 C 34.4352 -0.0902671 1.65855 0
M  V30 373 O 35.6202 0.0584294 1.90711 0
M  V30 374 C 32.7602 0.565569 3.40434 0
M  V30 375 C 31.8732 1.71259 3.96604 0
M  V30 376 C 31.0082 1.24011 5.16522 0
M  V30 377 C 30.0472 2.35896 5.64818 0
M  V30 378 N 29.1842 1.89726 6.7598 0
M  V30 379 H 34.0242 1.91892 2.27994 0
M  V30 380 H 31.5612 0.956199 1.11782 0
M  V30 381 H 33.5192 0.302738 4.161 0
M  V30 382 H 32.1492 -0.329879 3.2111 0
M  V30 383 H 31.2012 2.08986 3.17851 0
M  V30 384 H 32.5132 2.55436 4.28432 0
M  V30 385 H 31.6672 0.934395 5.99461 0
M  V30 386 H 30.4062 0.368487 4.86306 0
M  V30 387 H 29.4112 2.67261 4.8047 0
M  V30 388 H 30.6362 3.23567 5.97061 0
M  V30 389 H 28.5822 1.0492 6.47555 0
M  V30 390 H 28.4992 2.67471 7.07103 0
M  V30 391 H 29.7672 1.62211 7.62435 0
M  V30 392 N 33.9963 -1.19345 1.0293 0
M  V30 393 C 35.2423 -1.89318 0.727083 0
M  V30 394 C 35.5753 -1.79446 -0.742483 0
M  V30 395 O 34.8503 -1.1871 -1.54072 0
M  V30 396 C 35.1333 -3.40238 1.17942 0
M  V30 397 C 34.9863 -3.58979 2.71024 0
M  V30 398 C 36.3053 -4.33479 0.760548 0
M  V30 399 H 33.4243 -0.687475 0.265606 0
M  V30 400 H 36.0663 -1.40477 1.2793 0
M  V30 401 H 34.2163 -3.81964 0.709608 0
M  V30 402 H 35.8883 -3.26421 3.25955 0
M  V30 403 H 34.1313 -3.02018 3.11396 0
M  V30 404 H 34.8023 -4.64823 2.9773 0
M  V30 405 H 37.2783 -3.99469 1.16464 0
M  V30 406 H 36.1543 -5.37664 1.10493 0
M  V30 407 H 36.4153 -4.40813 -0.337063 0
M  V30 408 N 35.4744 -0.807222 -1.35358 0
M  V30 409 C 36.4214 -0.216037 -2.29787 0
M  V30 410 C 37.3914 0.650278 -1.52842 0
M  V30 411 O 38.5764 0.595227 -1.81278 0
M  V30 412 C 35.7164 0.628893 -3.39321 0
M  V30 413 C 34.8294 -0.257927 -4.31229 0
M  V30 414 C 33.9644 0.595069 -5.27856 0
M  V30 415 C 33.0034 -0.292111 -6.11403 0
M  V30 416 N 32.1404 0.520895 -7.00165 0
M  V30 417 H 36.9804 -1.02671 -2.79755 0
M  V30 418 H 34.5174 -0.517839 -1.37684 0
M  V30 419 H 36.4754 1.13393 -4.01494 0
M  V30 420 H 35.1054 1.40482 -2.90628 0
M  V30 421 H 34.1574 -0.881076 -3.70056 0
M  V30 422 H 35.4694 -0.940759 -4.89848 0
M  V30 423 H 34.6234 1.16522 -5.95405 0
M  V30 424 H 33.3624 1.31146 -4.69736 0
M  V30 425 H 32.3674 -0.874525 -5.428 0
M  V30 426 H 33.5924 -1.00638 -6.71602 0
M  V30 427 H 31.5384 1.22125 -6.44532 0
M  V30 428 H 31.4554 -0.103877 -7.55929 0
M  V30 429 H 32.7234 1.0743 -7.72062 0
M  V30 430 N 36.9525 1.47285 -0.560781 0
M  V30 431 C 38.1985 2.02764 -0.0381184 0
M  V30 432 C 38.5315 1.43384 1.30976 0
M  V30 433 O 37.8065 0.590733 1.85312 0
M  V30 434 C 38.0895 3.60064 0.0511427 0
M  V30 435 C 37.9425 4.2987 -1.32408 0
M  V30 436 C 39.2615 4.33439 0.762795 0
M  V30 437 H 36.3805 0.736841 -0.0153264 0
M  V30 438 H 39.0225 1.75675 -0.723759 0
M  V30 439 H 37.1725 3.83274 0.635065 0
M  V30 440 H 38.8445 4.17989 -1.95148 0
M  V30 441 H 37.0875 3.90085 -1.8978 0
M  V30 442 H 37.7585 5.38478 -1.21431 0
M  V30 443 H 40.2345 4.15243 0.266965 0
M  V30 444 H 39.1105 5.43124 0.794221 0
M  V30 445 H 39.3715 4.02915 1.81966 0
M  V30 446 N 38.4306 0.297415 1.54768 0
M  V30 447 C 39.6786 -0.312295 1.99673 0
M  V30 448 C 39.9996 -1.54686 1.18732 0
M  V30 449 O 39.2696 -1.93854 0.282382 0
M  V30 450 H 37.8496 -0.118381 0.73756 0
M  V30 451 H 40.5116 0.407915 1.90583 0
M  V30 452 H 39.6076 -0.586813 3.06534 0
M  V30 453 N 39.9087 -1.5758 0.0250728 0
M  V30 454 C 40.8557 -2.09973 -0.958129 0
M  V30 455 C 41.8257 -1.00085 -1.3256 0
M  V30 456 O 43.0107 -1.27481 -1.41962 0
M  V30 457 C 40.1507 -2.62812 -2.2366 0
M  V30 458 C 39.2637 -3.86693 -1.92594 0
M  V30 459 C 38.3987 -4.27941 -3.14707 0
M  V30 460 C 37.4377 -5.44591 -2.79442 0
M  V30 461 N 36.5747 -5.81014 -3.94167 0
M  V30 462 H 41.4147 -2.937 -0.504428 0
M  V30 463 H 38.9517 -1.45172 -0.237392 0
M  V30 464 H 40.9097 -2.91536 -2.98434 0
M  V30 465 H 39.5397 -1.81922 -2.66654 0
M  V30 466 H 38.5917 -3.64723 -1.0808 0
M  V30 467 H 39.9037 -4.71547 -1.62619 0
M  V30 468 H 39.0577 -4.58079 -3.97804 0
M  V30 469 H 37.7967 -3.41845 -3.4784 0
M  V30 470 H 36.8017 -5.1415 -1.94755 0
M  V30 471 H 38.0267 -6.32382 -2.47528 0
M  V30 472 H 35.9727 -4.97874 -4.2715 0
M  V30 473 H 35.8897 -6.60498 -3.67801 0
M  V30 474 H 37.1577 -6.15756 -4.7798 0
M  V30 475 N 41.3868 0.248026 -1.55636 0
M  V30 476 C 42.6118 0.998028 -1.81808 0
M  V30 477 C 43.0368 1.78207 -0.601979 0
M  V30 478 O 42.3948 1.75653 0.448961 0
M  V30 479 C 42.4428 1.9125 -3.05705 0
M  V30 480 O 41.5468 3.00406 -2.82542 0
M  V30 481 H 40.8878 0.284045 -0.600179 0
M  V30 482 H 43.4178 0.269357 -2.02819 0
M  V30 483 H 43.4278 2.32737 -3.35108 0
M  V30 484 H 42.1028 1.33602 -3.93857 0
M  V30 485 H 40.6798 2.63056 -2.64303 0
M  V30 486 N 42.8649 1.48995 0.513639 0
M  V30 487 C 44.2759 1.5119 1.09537 0
M  V30 488 C 44.6269 0.290906 1.94031 0
M  V30 489 O 43.7519 -0.60049 2.07902 0
M  V30 490 C 44.3469 2.73964 1.99322 0
M  V30 491 C 42.9059 2.78978 2.52682 0
M  V30 492 C 42.0529 2.44934 1.30009 0
M  V30 493 H 45.0039 1.55875 0.298125 0
M  V30 494 H 45.0249 2.53409 2.83838 0
M  V30 495 H 44.5369 3.62813 1.37799 0
M  V30 496 H 42.6379 1.94378 3.1788 0
M  V30 497 H 42.7509 3.8083 2.90698 0
M  V30 498 H 41.1149 1.9644 1.62122 0
M  V30 499 H 41.8979 3.36043 0.702131 0
M  V30 500 N 44.343 -0.763751 1.37857 0
M  V30 501 C 45.754 -1.3405 1.29952 0
M  V30 502 C 46.105 -1.96138 -0.0492898 0
M  V30 503 O 45.23 -1.94372 -0.951239 0
M  V30 504 C 45.825 -2.43729 2.35333 0
M  V30 505 C 44.384 -2.97151 2.31037 0
M  V30 506 C 43.531 -1.70438 2.18738 0
M  V30 507 H 46.482 -0.563396 1.48363 0
M  V30 508 H 46.503 -3.23412 2.00462 0
M  V30 509 H 46.015 -1.9851 3.33489 0
M  V30 510 H 44.116 -3.46724 1.3643 0
M  V30 511 H 44.229 -3.52221 3.24772 0
M  V30 512 H 42.593 -1.93673 1.65418 0
M  V30 513 H 43.376 -1.27312 3.18821 0
M  V30 514 N 45.8211 -1.22559 -0.990812 0
M  V30 515 C 47.0671 -1.05297 -1.73322 0
M  V30 516 C 47.4001 0.410655 -1.89808 0
M  V30 517 O 46.6751 1.30439 -1.44277 0
M  V30 518 C 46.9581 -1.76713 -3.13759 0
M  V30 519 C 46.8111 -3.30684 -3.04907 0
M  V30 520 C 48.1301 -1.52121 -4.12974 0
M  V30 521 H 45.2491 -0.38392 -0.629106 0
M  V30 522 H 47.8911 -1.50926 -1.15418 0
M  V30 523 H 46.0411 -1.37924 -3.63193 0
M  V30 524 H 47.7131 -3.7893 -2.63077 0
M  V30 525 H 45.9561 -3.60253 -2.41661 0
M  V30 526 H 46.6271 -3.75833 -4.04294 0
M  V30 527 H 49.1031 -1.85819 -3.72304 0
M  V30 528 H 47.9791 -2.04582 -5.0935 0
M  V30 529 H 48.2401 -0.454257 -4.3976 0
M  V30 530 N 47.2992 1.18797 -1.03562 0
M  V30 531 C 48.7152 1.40671 -0.753917 0
M  V30 532 C 48.9152 1.9043 0.658686 0
M  V30 533 O 47.9712 2.08538 1.42366 0
M  V30 534 C 49.2842 2.41192 -1.79574 0
M  V30 535 C 50.8322 2.54928 -1.81606 0
M  V30 536 C 51.3072 3.58709 -2.84766 0
M  V30 537 N 52.7982 3.66212 -2.83625 0
M  V30 538 C 53.5332 4.46225 -3.60098 0
M  V30 539 N 53.0292 5.29888 -4.46308 0
M  V30 540 N 54.8222 4.40939 -3.4861 0
M  V30 541 H 46.9732 0.848221 -1.94728 0
M  V30 542 H 49.2362 0.435081 -0.842264 0
M  V30 543 H 48.9422 2.11669 -2.80872 0
M  V30 544 H 48.8162 3.40467 -1.62365 0
M  V30 545 H 51.2032 2.83771 -0.809817 0
M  V30 546 H 51.2842 1.55784 -2.02891 0
M  V30 547 H 50.9282 3.30607 -3.85566 0
M  V30 548 H 50.8582 4.57519 -2.60737 0
M  V30 549 H 53.3492 3.06466 -2.21105 0
M  V30 550 H 53.6622 5.88078 -5.01382 0
M  V30 551 H 52.0072 5.29326 -4.50377 0
M  V30 552 H 55.1982 3.74624 -2.80668 0
M  V30 553 H 55.3712 5.03056 -4.08459 0
M  V30 554 N 48.7773 0.814389 1.34928 0
M  V30 555 C 50.0253 0.397636 1.9815 0
M  V30 556 C 50.3463 -1.04069 1.64908 0
M  V30 557 O 49.6163 -1.72121 0.93548 0
M  V30 558 H 48.1963 0.144043 0.732981 0
M  V30 559 H 50.8583 1.04195 1.6471 0
M  V30 560 H 49.9543 0.509688 3.0791 0
M  V30 561 N 50.2554 -1.46986 0.568584 0
M  V30 562 C 51.4804 -2.07335 0.0520528 0
M  V30 563 C 51.9054 -1.41675 -1.23733 0
M  V30 564 O 51.2634 -0.495623 -1.74394 0
M  V30 565 C 51.3114 -3.60417 -0.11501 0
M  V30 566 O 50.4154 -3.95309 -1.17492 0
M  V30 567 H 49.7564 -0.661597 0.0564385 0
M  V30 568 H 52.2864 -1.88837 0.787507 0
M  V30 569 H 52.2964 -4.06698 -0.325644 0
M  V30 570 H 50.9714 -4.07601 0.826675 0
M  V30 571 H 49.5484 -3.60757 -0.943869 0
M  V30 572 N 51.7335 -0.305618 -1.54608 0
M  V30 573 C 52.6635 0.561482 -2.26649 0
M  V30 574 C 53.6445 1.13415 -1.26772 0
M  V30 575 O 54.8295 1.16262 -1.55553 0
M  V30 576 C 51.9595 1.73122 -3.01075 0
M  V30 577 C 50.9135 1.2887 -4.08138 0
M  V30 578 C 50.2395 2.54396 -4.70305 0
M  V30 579 C 51.5395 0.416578 -5.20636 0
M  V30 580 H 53.2335 -0.0393902 -2.99374 0
M  V30 581 H 50.7795 -0.020385 -1.43986 0
M  V30 582 H 52.7325 2.34396 -3.50195 0
M  V30 583 H 51.4565 2.3584 -2.25936 0
M  V30 584 H 50.1155 0.698991 -3.59875 0
M  V30 585 H 49.7635 3.15439 -3.918 0
M  V30 586 H 49.4635 2.25486 -5.42614 0
M  V30 587 H 50.9875 3.16464 -5.2219 0
M  V30 588 H 52.4015 0.935116 -5.65622 0
M  V30 589 H 50.7985 0.221046 -5.99693 0
M  V30 590 H 51.8685 -0.557162 -4.81688 0
M  V30 591 N 53.2116 1.57565 -0.0334293 0
M  V30 592 C 54.4366 1.96689 0.657895 0
M  V30 593 C 54.8616 0.910057 1.64619 0
M  V30 594 O 54.2196 -0.128598 1.80843 0
M  V30 595 C 54.2676 3.34905 1.33683 0
M  V30 596 O 53.3716 3.31574 2.45219 0
M  V30 597 H 52.7126 0.641205 0.172489 0
M  V30 598 H 55.2426 2.04372 -0.0965621 0
M  V30 599 H 55.2526 3.71234 1.69262 0
M  V30 600 H 53.9276 4.11366 0.612411 0
M  V30 601 H 52.5046 3.06968 2.11719 0
M  V30 602 N 54.6897 -0.239769 1.55765 0
M  V30 603 C 55.9377 -0.964892 1.77579 0
M  V30 604 C 56.2587 -1.85582 0.598699 0
M  V30 605 O 55.5287 -1.92075 -0.385226 0
M  V30 606 H 54.1087 -0.359265 0.654933 0
M  V30 607 H 56.7707 -0.256001 1.93211 0
M  V30 608 H 55.8667 -1.58243 2.69009 0
M  V30 609 N 56.1678 -1.49265 -0.50573 0
M  V30 610 C 57.1148 -1.65585 -1.6078 0
M  V30 611 C 58.0848 -0.497396 -1.58478 0
M  V30 612 O 59.2698 -0.72385 -1.76536 0
M  V30 613 C 56.4098 -1.72408 -2.98948 0
M  V30 614 C 55.5228 -2.99525 -3.11301 0
M  V30 615 C 54.6578 -2.97356 -4.40174 0
M  V30 616 C 53.6968 -4.19074 -4.46143 0
M  V30 617 N 52.8338 -4.14841 -5.66437 0
M  V30 618 H 57.6738 -2.59688 -1.46172 0
M  V30 619 H 55.2108 -1.28761 -0.711261 0
M  V30 620 H 57.1688 -1.74344 -3.79025 0
M  V30 621 H 55.7988 -0.817753 -3.1227 0
M  V30 622 H 54.8508 -3.07222 -2.24318 0
M  V30 623 H 56.1628 -3.89518 -3.11572 0
M  V30 624 H 55.3168 -2.97829 -5.28567 0
M  V30 625 H 54.0558 -2.05133 -4.42461 0
M  V30 626 H 53.0608 -4.1885 -3.56153 0
M  V30 627 H 54.2858 -5.12483 -4.45575 0
M  V30 628 H 52.2318 -3.25453 -5.69575 0
M  V30 629 H 52.1488 -4.98564 -5.68304 0
M  V30 630 H 53.4168 -4.1941 -6.57051 0
M  V30 631 N 57.6459 0.756429 -1.3826 0
M  V30 632 C 58.8919 1.51772 -1.34511 0
M  V30 633 C 59.2249 1.94089 0.0656691 0
M  V30 634 O 58.4999 1.65221 1.02626 0
M  V30 635 C 58.7829 2.77226 -2.29821 0
M  V30 636 C 58.6359 2.41065 -3.79747 0
M  V30 637 C 59.9549 3.79236 -2.23312 0
M  V30 638 H 57.0739 0.550578 -0.489931 0
M  V30 639 H 59.7159 0.866607 -1.69086 0
M  V30 640 H 57.8659 3.32784 -2.00467 0
M  V30 641 H 59.5379 1.91303 -4.19763 0
M  V30 642 H 57.7809 1.7356 -3.97567 0
M  V30 643 H 58.4519 3.3081 -4.41892 0
M  V30 644 H 60.9279 3.3321 -2.49219 0
M  V30 645 H 59.8039 4.64714 -2.92116 0
M  V30 646 H 60.0649 4.24615 -1.23102 0
M  V30 647 N 59.124 1.23083 0.984299 0
M  V30 648 C 60.349 1.088 1.76571 0
M  V30 649 C 60.774 -0.356657 1.84688 0
M  V30 650 O 60.132 -1.25788 1.30565 0
M  V30 651 C 60.18 1.71371 3.17277 0
M  V30 652 O 59.284 0.973213 4.00752 0
M  V30 653 H 58.625 0.381599 0.543395 0
M  V30 654 H 61.155 1.63057 1.23587 0
M  V30 655 H 61.165 1.76449 3.67872 0
M  V30 656 H 59.84 2.76493 3.10684 0
M  V30 657 H 58.417 0.999078 3.59267 0
M  V30 658 N 60.6021 -1.18246 1.0419 0
M  V30 659 C 61.5321 -2.24127 0.654914 0
M  V30 660 C 62.5131 -1.66617 -0.342451 0
M  V30 661 O 63.6981 -1.92924 -0.222277 0
M  V30 662 C 60.8281 -3.47295 0.0183757 0
M  V30 663 C 59.7821 -4.17563 0.939414 0
M  V30 664 C 59.1081 -5.34438 0.167286 0
M  V30 665 C 60.4081 -4.70917 2.25908 0
M  V30 666 H 62.1021 -2.56753 1.54007 0
M  V30 667 H 59.6481 -1.23414 0.74195 0
M  V30 668 H 61.6011 -4.20572 -0.264082 0
M  V30 669 H 60.3251 -3.13907 -0.901664 0
M  V30 670 H 58.9841 -3.46186 1.20628 0
M  V30 671 H 58.6321 -4.97298 -0.7552 0
M  V30 672 H 58.3321 -5.82388 0.780901 0
M  V30 673 H 59.8561 -6.10504 -0.108125 0
M  V30 674 H 61.2701 -5.35882 2.03724 0
M  V30 675 H 59.6671 -5.29406 2.82577 0
M  V30 676 H 60.7371 -3.88272 2.9047 0
M  V30 677 N 62.0802 -0.821533 -1.34494 0
M  V30 678 C 63.4912 -0.467956 -1.8074 0
M  V30 679 C 63.8422 1.01151 -1.68116 0
M  V30 680 O 62.9672 1.78707 -1.22036 0
M  V30 681 C 63.5622 -0.842627 -3.28154 0
M  V30 682 C 62.1212 -0.541439 -3.72485 0
M  V30 683 C 61.2682 -1.06028 -2.56229 0
M  V30 684 H 64.2192 -1.01183 -1.22261 0
M  V30 685 H 64.2402 -0.145876 -3.8022 0
M  V30 686 H 63.7522 -1.91945 -3.37311 0
M  V30 687 H 61.8532 0.526034 -3.68868 0
M  V30 688 H 61.9662 -1.08453 -4.66663 0
M  V30 689 H 60.3302 -0.481892 -2.501 0
M  V30 690 H 61.1132 -2.14352 -2.68157 0
M  V30 691 N 63.5583 1.46682 -0.576371 0
M  V30 692 C 64.7983 2.04306 -0.0621356 0
M  V30 693 C 65.1623 1.4389 1.2712 0
M  V30 694 O 66.3633 1.92675 1.87429 0
M  V30 695 C 64.6343 3.57399 0.00927922 0
M  V30 696 S 66.1933 4.36309 0.466859 0
M  V30 697 H 63.0113 0.710167 -0.0344016 0
M  V30 698 H 65.6133 1.79807 -0.767437 0
M  V30 699 H 64.3173 3.98889 -0.965178 0
M  V30 700 H 63.8483 3.86424 0.737547 0
M  V30 701 H 65.8633 4.6533 1.72287 0
M  V30 702 N 65.0364 0.313813 1.54444 0
M  V30 703 C 65.9864 -0.571898 2.20711 0
M  V30 704 C 66.9704 -1.08913 1.18435 0
M  V30 705 O 68.1624 -1.02777 1.44104 0
M  V30 706 C 65.2914 -1.7371 2.96108 0
M  V30 707 C 64.3774 -1.23522 4.05713 0
M  V30 708 N 64.7684 -0.452288 5.03774 0
M  V30 709 C 63.0664 -1.51482 4.19487 0
M  V30 710 C 63.7674 -0.183438 5.81411 0
M  V30 711 N 62.7434 -0.766845 5.38164 0
M  V30 712 H 66.5454 0.0336802 2.93881 0
M  V30 713 H 64.0594 0.119192 1.61962 0
M  V30 714 H 66.0564 -2.38329 3.4206 0
M  V30 715 H 64.7164 -2.34625 2.24458 0
M  V30 716 H 65.7274 -0.0960131 5.17811 0
M  V30 717 H 62.4044 -2.13053 3.59047 0
M  V30 718 H 63.7944 0.446216 6.70417 0
M  V30 719 N 66.5145 -1.57545 0.0417849 0
M  V30 720 C 67.7615 -1.92317 -0.634082 0
M  V30 721 C 68.0895 -0.919334 -1.71402 0
M  V30 722 O 67.3445 0.0698253 -1.95575 0
M  V30 723 C 67.6435 -3.33794 -1.27735 0
M  V30 724 C 67.3095 -4.49716 -0.326543 0
M  V30 725 C 65.9715 -4.81156 -0.0648814 0
M  V30 726 C 68.3235 -5.20182 0.325623 0
M  V30 727 C 65.6515 -5.80414 0.856539 0
M  V30 728 C 68.0035 -6.20424 1.23518 0
M  V30 729 C 66.6675 -6.50298 1.5056 0
M  V30 730 H 65.9375 -0.703736 -0.232027 0
M  V30 731 H 68.5845 -1.91205 0.106259 0
M  V30 732 H 66.8895 -3.31228 -2.09274 0
M  V30 733 H 68.5865 -3.57975 -1.80707 0
M  V30 734 H 65.1765 -4.25176 -0.540665 0
M  V30 735 H 69.3605 -4.96112 0.136546 0
M  V30 736 H 64.6165 -6.019 1.07363 0
M  V30 737 H 68.7905 -6.74141 1.74664 0
M  V30 738 H 66.4175 -7.27025 2.22123 0
M  V30 739 N 67.9926 0.231505 -1.5589 0
M  V30 740 C 69.2176 0.978689 -1.82856 0
M  V30 741 C 69.6426 1.77559 -0.620846 0
M  V30 742 O 69.0006 1.76119 0.430305 0
M  V30 743 C 69.0486 1.87997 -3.07716 0
M  V30 744 O 68.1526 2.97393 -2.85712 0
M  V30 745 H 67.4936 0.277663 -0.603158 0
M  V30 746 H 70.0236 0.24783 -2.03093 0
M  V30 747 H 70.0336 2.2917 -3.37558 0
M  V30 748 H 68.7086 1.29417 -3.95252 0
M  V30 749 H 67.2856 2.60238 -2.67078 0
M  V30 750 N 69.4707 1.49531 0.497807 0
M  V30 751 C 70.6987 1.62893 1.27567 0
M  V30 752 C 71.1137 0.301585 1.86376 0
M  V30 753 O 70.4707 -0.713335 1.67982 0
M  V30 754 C 70.5217 2.70013 2.40364 0
M  V30 755 O 70.2427 3.976 1.83972 0
M  V30 756 C 71.7437 2.94109 3.31685 0
M  V30 757 H 68.9637 0.548298 0.386794 0
M  V30 758 H 71.5077 1.95584 0.597245 0
M  V30 759 H 69.6627 2.40092 3.04031 0
M  V30 760 H 70.0767 4.56631 2.58047 0
M  V30 761 H 71.5507 3.72788 4.07104 0
M  V30 762 H 72.0277 2.04147 3.88871 0
M  V30 763 H 72.6337 3.2546 2.73781 0
M  V30 764 N 70.9488 -0.749086 1.3866 0
M  V30 765 C 71.8818 -1.87111 1.30631 0
M  V30 766 C 72.8598 -1.61572 0.18251 0
M  V30 767 O 74.0438 -1.85019 0.360592 0
M  V30 768 C 71.1708 -3.22815 1.02511 0
M  V30 769 C 70.2168 -3.67234 2.1689 0
M  V30 770 S 71.0498 -3.78245 3.79066 0
M  V30 771 C 72.2058 -5.16761 3.53142 0
M  V30 772 H 72.4388 -1.93636 2.25594 0
M  V30 773 H 69.9718 -0.912525 1.24549 0
M  V30 774 H 71.9298 -4.01181 0.869701 0
M  V30 775 H 70.5908 -3.13964 0.0925884 0
M  V30 776 H 69.7838 -4.65677 1.92771 0
M  V30 777 H 69.3858 -2.96034 2.28561 0
M  V30 778 H 71.6778 -6.02656 3.09534 0
M  V30 779 H 72.6208 -5.45902 4.50995 0
M  V30 780 H 73.0288 -4.85771 2.87554 0
M  V30 781 N 72.4269 -1.23603 -0.977757 0
M  V30 782 C 73.8379 -1.06424 -1.53398 0
M  V30 783 C 74.1889 0.367578 -1.92726 0
M  V30 784 O 73.3139 1.25465 -1.76316 0
M  V30 785 C 73.9089 -1.92568 -2.78753 0
M  V30 786 C 72.4679 -1.79642 -3.30765 0
M  V30 787 C 71.6149 -1.88111 -2.03739 0
M  V30 788 H 74.5659 -1.37227 -0.797152 0
M  V30 789 H 74.5869 -1.45203 -3.51705 0
M  V30 790 H 74.0989 -2.96771 -2.50098 0
M  V30 791 H 72.1999 -0.782325 -3.64294 0
M  V30 792 H 72.3129 -2.63174 -4.00345 0
M  V30 793 H 70.6769 -1.31723 -2.17994 0
M  V30 794 H 71.4599 -2.93875 -1.77461 0
M  V30 795 N 73.905 1.17692 -1.04816 0
M  V30 796 C 75.133 1.91786 -0.776254 0
M  V30 797 C 75.548 1.76604 0.667577 0
M  V30 798 O 74.905 1.10067 1.45573 0
M  V30 799 C 74.956 3.42967 -1.14263 0
M  V30 800 O 74.677 3.57678 -2.52978 0
M  V30 801 C 76.178 4.34144 -0.896311 0
M  V30 802 H 73.398 0.608624 -0.282519 0
M  V30 803 H 75.942 1.49268 -1.39783 0
M  V30 804 H 74.097 3.83245 -0.565874 0
M  V30 805 H 74.511 4.51319 -2.67229 0
M  V30 806 H 75.985 5.38744 -1.20244 0
M  V30 807 H 76.462 4.38876 0.168636 0
M  V30 808 H 77.068 3.99574 -1.45672 0
M  V30 809 N 75.3831 0.828654 1.34056 0
M  V30 810 C 76.3131 0.269443 2.3194 0
M  V30 811 C 77.2941 -0.617247 1.58506 0
M  V30 812 O 78.4791 -0.542931 1.86456 0
M  V30 813 C 75.6091 -0.564793 3.42677 0
M  V30 814 C 74.5631 0.225241 4.27407 0
M  V30 815 C 73.8891 -0.7321 5.29664 0
M  V30 816 C 75.1891 1.43663 5.02154 0
M  V30 817 H 76.8831 1.08728 2.7896 0
M  V30 818 H 74.4291 0.524283 1.34117 0
M  V30 819 H 76.3821 -0.966233 4.10173 0
M  V30 820 H 75.1061 -1.41574 2.9432 0
M  V30 821 H 73.7651 0.608117 3.61521 0
M  V30 822 H 73.4131 -1.57916 4.77568 0
M  V30 823 H 73.1131 -0.20767 5.87233 0
M  V30 824 H 74.6371 -1.13128 6.00029 0
M  V30 825 H 76.0511 1.1089 5.62473 0
M  V30 826 H 74.4481 1.89711 5.69324 0
M  V30 827 H 75.5181 2.21181 4.31517 0
M  V30 828 N 76.8612 -1.46375 0.584142 0
M  V30 829 C 78.2722 -1.86031 0.157959 0
M  V30 830 C 78.6232 -1.48753 -1.27933 0
M  V30 831 O 77.7482 -0.903098 -1.96655 0
M  V30 832 C 78.3432 -3.37642 0.279892 0
M  V30 833 C 76.9022 -3.76289 -0.09143 0
M  V30 834 C 76.0492 -2.7039 0.615178 0
M  V30 835 H 79.0002 -1.37509 0.792274 0
M  V30 836 H 79.0212 -3.77275 -0.494364 0
M  V30 837 H 78.5332 -3.64742 1.32607 0
M  V30 838 H 76.6342 -3.54806 -1.13769 0
M  V30 839 H 76.7472 -4.78246 0.285886 0
M  V30 840 H 75.1112 -2.5464 0.0552833 0
M  V30 841 H 75.8942 -3.0033 1.66303 0
M  V30 842 N 78.3393 -0.321999 -1.54275 0
M  V30 843 C 79.7503 0.166384 -1.85957 0
M  V30 844 C 80.1013 1.51747 -1.24367 0
M  V30 845 O 79.2263 2.09317 -0.549124 0
M  V30 846 C 79.8213 0.308681 -3.37391 0
M  V30 847 C 78.3803 0.741286 -3.69028 0
M  V30 848 C 77.5273 -0.137937 -2.76957 0
M  V30 849 H 80.4783 -0.542335 -1.49146 0
M  V30 850 H 80.4993 1.13984 -3.63026 0
M  V30 851 H 80.0113 -0.674809 -3.82188 0
M  V30 852 H 78.1123 1.73458 -3.29762 0
M  V30 853 H 78.2253 0.546118 -4.75977 0
M  V30 854 H 76.5893 0.386251 -2.51754 0
M  V30 855 H 77.3723 -1.11816 -3.2458 0
M  V30 856 N 79.8174 1.5752 -0.0501392 0
M  V30 857 C 81.0424 1.97376 0.636997 0
M  V30 858 C 81.4674 0.927466 1.63645 0
M  V30 859 O 80.8254 -0.10941 1.8097 0
M  V30 860 C 80.8734 3.36304 1.30123 0
M  V30 861 O 79.9774 3.34156 2.41689 0
M  V30 862 H 79.3184 0.642998 0.165679 0
M  V30 863 H 81.8484 2.04258 -0.118233 0
M  V30 864 H 81.8584 3.73008 1.65315 0
M  V30 865 H 80.5334 4.11993 0.568746 0
M  V30 866 H 79.1104 3.09196 2.08451 0
M  V30 867 N 81.2955 -0.223234 1.56011 0
M  V30 868 C 82.5255 -0.963413 1.82762 0
M  V30 869 C 82.9335 -1.78516 0.626804 0
M  V30 870 O 82.2765 -1.78974 -0.414014 0
M  V30 871 C 82.3385 -1.93126 3.0322 0
M  V30 872 C 82.0025 -1.2942 4.38291 0
M  V30 873 C 82.9995 -0.684916 5.15369 0
M  V30 874 C 80.6845 -1.30647 4.85012 0
M  V30 875 C 82.6785 -0.0963971 6.37327 0
M  V30 876 C 80.3655 -0.71411 6.06913 0
M  V30 877 C 81.3635 -0.110123 6.82911 0
M  V30 878 O 81.0515 0.47303 8.02507 0
M  V30 879 H 80.7835 -0.288011 0.611576 0
M  V30 880 H 83.3375 -0.244103 2.03944 0
M  V30 881 H 81.5675 -2.68952 2.77852 0
M  V30 882 H 83.2565 -2.53685 3.16857 0
M  V30 883 H 84.0225 -0.667774 4.80381 0
M  V30 884 H 79.9015 -1.76598 4.25833 0
M  V30 885 H 83.4455 0.375657 6.96588 0
M  V30 886 H 79.3425 -0.728659 6.41374 0
M  V30 887 H 80.1105 0.367186 8.17676 0
M  V30 888 N 82.7736 -1.49793 -0.48987 0
M  V30 889 C 83.7216 -1.67783 -1.61095 0
M  V30 890 C 84.7156 -0.543683 -1.60438 0
M  V30 891 O 85.9216 -0.723647 -1.64813 0
M  V30 892 H 82.2966 -0.529255 -0.534222 0
M  V30 893 H 84.2676 -2.61861 -1.43078 0
M  V30 894 C 83.0166 -1.77191 -2.99164 0
M  V30 895 H 82.3396 -2.63841 -3.0038 0
M  V30 896 H 83.7796 -1.93809 -3.77113 0
M  V30 897 C 82.2386 -0.519203 -3.32875 0
M  V30 898 O 82.7686 0.350124 -4.00171 0
M  V30 899 N 80.9746 -0.378816 -2.8812 0
M  V30 900 H 80.5216 -1.08725 -2.33531 0
M  V30 901 H 80.4796 0.458239 -3.11043 0
M  V30 902 N 84.2517 0.741722 -1.39055 0
M  V30 903 C 85.4797 1.53098 -1.39171 0
M  V30 904 C 85.8947 1.88794 0.0155099 0
M  V30 905 O 85.2517 1.53626 0.985159 0
M  V30 906 C 85.3027 2.82274 -2.2584 0
M  V30 907 O 85.0237 2.48097 -3.61081 0
M  V30 908 C 86.5247 3.76343 -2.34266 0
M  V30 909 H 83.7447 0.473335 -0.4756 0
M  V30 910 H 86.2887 0.917045 -1.82785 0
M  V30 911 H 84.4437 3.40015 -1.85656 0
M  V30 912 H 84.8577 3.31029 -4.06842 0
M  V30 913 H 86.3317 4.63898 -2.9917 0
M  V30 914 H 86.8087 4.17619 -1.35982 0
M  V30 915 H 87.4147 3.24523 -2.74891 0
M  V30 916 N 85.7298 1.2412 0.971189 0
M  V30 917 C 86.9548 1.10667 1.75407 0
M  V30 918 C 87.3798 -0.337048 1.85056 0
M  V30 919 O 86.7378 -1.24396 1.31892 0
M  V30 920 C 86.7858 1.74726 3.15441 0
M  V30 921 O 85.8898 1.01566 3.99697 0
M  V30 922 H 85.2308 0.387341 0.539317 0
M  V30 923 H 87.7608 1.64358 1.2185 0
M  V30 924 H 87.7708 1.80341 3.6598 0
M  V30 925 H 86.4458 2.79773 3.07734 0
M  V30 926 H 85.0228 1.03713 3.58187 0
M  V30 927 N 87.2079 -1.17134 1.05439 0
M  V30 928 C 88.1179 -2.24878 0.668365 0
M  V30 929 C 89.1339 -1.71186 -0.311687 0
M  V30 930 O 90.3099 -2.00738 -0.163161 0
M  V30 931 C 87.3749 -3.46662 0.051648 0
M  V30 932 C 86.4359 -4.15429 1.08246 0
M  V30 933 C 85.6689 -5.31399 0.495082 0
M  V30 934 O 85.8919 -5.66153 -0.694743 0
M  V30 935 O 84.8259 -5.89187 1.23056 0
M  V30 936 H 88.6519 -2.60189 1.56637 0
M  V30 937 H 86.2369 -1.24482 0.826104 0
M  V30 938 H 88.1189 -4.20394 -0.290966 0
M  V30 939 H 86.7939 -3.13142 -0.819971 0
M  V30 940 H 85.7009 -3.43704 1.47711 0
M  V30 941 H 87.0339 -4.52982 1.92532 0
M  V30 942 N 88.686 -0.835752 -1.33615 0
M  V30 943 C 89.933 -0.429959 -1.97883 0
M  V30 944 C 90.261 1.01006 -1.66217 0
M  V30 945 O 89.516 1.72047 -0.93265 0
M  V30 946 C 89.815 -0.593925 -3.52431 0
M  V30 947 C 89.481 -2.00158 -4.04039 0
M  V30 948 C 88.143 -2.38662 -4.17844 0
M  V30 949 C 90.495 -2.92117 -4.31644 0
M  V30 950 C 87.823 -3.68435 -4.56588 0
M  V30 951 C 90.175 -4.21368 -4.71838 0
M  V30 952 C 88.839 -4.59833 -4.83849 0
M  V30 953 H 88.109 -0.157333 -0.724104 0
M  V30 954 H 90.756 -1.06217 -1.59343 0
M  V30 955 H 89.061 0.121619 -3.91611 0
M  V30 956 H 90.758 -0.260282 -4.00154 0
M  V30 957 H 87.348 -1.69252 -3.93766 0
M  V30 958 H 91.532 -2.63608 -4.20505 0
M  V30 959 H 86.788 -3.98046 -4.64079 0
M  V30 960 H 90.962 -4.92703 -4.92155 0
M  V30 961 H 88.589 -5.60438 -5.13627 0
M  V30 962 N 90.1641 1.46063 -0.591896 0
M  V30 963 C 91.0941 2.33172 0.123673 0
M  V30 964 C 92.0751 1.45897 0.87453 0
M  V30 965 O 93.2601 1.74698 0.848181 0
M  V30 966 C 90.3901 3.28336 1.13194 0
M  V30 967 C 89.3441 4.25124 0.495324 0
M  V30 968 C 88.6701 5.09863 1.61071 0
M  V30 969 C 89.9701 5.19143 -0.573425 0
M  V30 970 H 91.6641 2.93252 -0.603646 0
M  V30 971 H 89.2101 1.41014 -0.291741 0
M  V30 972 H 91.1631 3.88137 1.64097 0
M  V30 973 H 89.8871 2.66383 1.88965 0
M  V30 974 H 88.5461 3.66599 0.00729452 0
M  V30 975 H 88.1941 4.44288 2.35832 0
M  V30 976 H 87.8941 5.75417 1.19035 0
M  V30 977 H 89.4181 5.72529 2.12233 0
M  V30 978 H 90.8321 5.73106 -0.1491 0
M  V30 979 H 89.2291 5.93089 -0.914636 0
M  V30 980 H 90.2991 4.62519 -1.45617 0
M  V30 981 N 91.6422 0.330177 1.54103 0
M  V30 982 C 93.0582 -0.0222371 1.59585 0
M  V30 983 C 93.2582 -1.49902 1.34654 0
M  V30 984 O 92.3142 -2.25592 1.13421 0
M  V30 985 C 93.6272 0.401932 2.98002 0
M  V30 986 C 95.1752 0.353145 3.11001 0
M  V30 987 C 95.6502 0.752576 4.51775 0
M  V30 988 N 97.1412 0.706239 4.57784 0
M  V30 989 C 97.8762 0.987417 5.64834 0
M  V30 990 N 97.3722 1.33607 6.79795 0
M  V30 991 N 99.1652 0.91254 5.54643 0
M  V30 992 H 91.3162 1.29228 1.68564 0
M  V30 993 H 93.5792 0.525906 0.78875 0
M  V30 994 H 93.2852 1.4311 3.21267 0
M  V30 995 H 93.1592 -0.229699 3.765 0
M  V30 996 H 95.5462 -0.666822 2.87467 0
M  V30 997 H 95.6272 1.0198 2.34593 0
M  V30 998 H 95.2712 1.77049 4.76042 0
M  V30 999 H 95.2012 0.0635409 5.26562 0
M  V30 1000 H 97.6922 0.44889 3.75224 0
M  V30 1001 H 98.0052 1.53582 7.57385 0
M  V30 1002 H 96.3502 1.37439 6.81275 0
M  V30 1003 H 99.5412 0.639601 4.6371 0
M  V30 1004 H 99.7142 1.13503 6.37982 0
M  V30 1005 N 93.1203 -1.57491 0.0584922 0
M  V30 1006 C 94.3693 -1.92155 -0.613146 0
M  V30 1007 C 94.6823 -0.939334 -1.71569 0
M  V30 1008 O 95.8883 -1.17829 -2.44599 0
M  V30 1009 C 94.3443 -3.41303 -1.14195 0
M  V30 1010 C 93.9523 -4.47944 -0.0711265 0
M  V30 1011 C 95.6963 -3.84988 -1.78841 0
M  V30 1012 C 93.6033 -5.88212 -0.613225 0
M  V30 1013 H 92.5333 -0.717162 -0.232796 0
M  V30 1014 H 95.1843 -1.83049 0.12857 0
M  V30 1015 H 93.5663 -3.45437 -1.93621 0
M  V30 1016 H 94.7403 -4.55408 0.702836 0
M  V30 1017 H 93.0553 -4.13644 0.478313 0
M  V30 1018 H 95.6523 -4.87159 -2.20408 0
M  V30 1019 H 95.9953 -3.21632 -2.64308 0
M  V30 1020 H 96.5283 -3.83401 -1.06059 0
M  V30 1021 H 93.2673 -6.55183 0.203978 0
M  V30 1022 H 92.7873 -5.84294 -1.35501 0
M  V30 1023 H 94.4663 -6.37687 -1.09383 0
M  V30 1024 N 94.5984 0.214957 -1.56127 0
M  V30 1025 C 95.5454 1.26642 -1.92952 0
M  V30 1026 C 96.5154 1.46244 -0.78753 0
M  V30 1027 O 97.7004 1.59704 -1.04399 0
M  V30 1028 C 94.8404 2.6104 -2.25726 0
M  V30 1029 C 93.9534 2.49183 -3.52891 0
M  V30 1030 C 93.0884 3.76149 -3.7508 0
M  V30 1031 C 92.1274 3.59041 -4.95738 0
M  V30 1032 N 91.2644 4.77972 -5.14283 0
M  V30 1033 H 96.1044 0.945384 -2.82607 0
M  V30 1034 H 93.6414 0.455489 -1.3987 0
M  V30 1035 H 95.5994 3.39313 -2.42739 0
M  V30 1036 H 94.2294 2.91227 -1.39236 0
M  V30 1037 H 93.2814 1.6231 -3.44034 0
M  V30 1038 H 94.5934 2.32466 -4.41318 0
M  V30 1039 H 93.7474 4.62865 -3.92226 0
M  V30 1040 H 92.4864 3.95799 -2.84947 0
M  V30 1041 H 91.4914 2.7071 -4.78535 0
M  V30 1042 H 92.7164 3.40856 -5.87362 0
M  V30 1043 H 90.6624 4.97923 -4.27093 0
M  V30 1044 H 90.5794 4.64006 -5.96853 0
M  V30 1045 H 91.8474 5.66096 -5.35869 0
M  V30 1046 N 96.0765 1.50051 0.48192 0
M  V30 1047 C 97.3225 1.61706 1.2338 0
M  V30 1048 C 97.6775 0.308488 1.89911 0
M  V30 1049 O 96.9705 -0.692798 1.78636 0
M  V30 1050 C 97.1645 2.72717 2.30998 0
M  V30 1051 C 96.9935 4.14242 1.75024 0
M  V30 1052 C 95.7635 4.80786 1.55476 0
M  V30 1053 C 97.9615 4.98846 1.25128 0
M  V30 1054 N 95.9435 6.06563 0.946311 0
M  V30 1055 C 97.3145 6.15258 0.765382 0
M  V30 1056 C 99.3695 4.84702 1.13881 0
M  V30 1057 C 98.0725 7.19079 0.178113 0
M  V30 1058 C 100.098 5.8869 0.565486 0
M  V30 1059 C 99.4605 7.04343 0.0899105 0
M  V30 1060 H 95.5595 0.645958 0.440753 0
M  V30 1061 H 98.1435 1.8713 0.537624 0
M  V30 1062 H 96.3145 2.49033 2.98055 0
M  V30 1063 H 98.0465 2.73789 2.9803 0
M  V30 1064 H 94.8015 4.37899 1.80392 0
M  V30 1065 H 95.2255 6.73767 0.660812 0
M  V30 1066 H 99.8675 3.95583 1.49244 0
M  V30 1067 H 97.5855 8.07882 -0.187749 0
M  V30 1068 H 101.171 5.79808 0.480974 0
M  V30 1069 H 100.051 7.83433 -0.346782 0
M  V30 1070 N 97.5546 -0.734337 1.39446 0
M  V30 1071 C 98.7796 -1.52866 1.40167 0
M  V30 1072 C 99.2046 -1.881 -0.00171513 0
M  V30 1073 O 98.5626 -1.51957 -0.988879 0
M  V30 1074 C 98.6106 -2.79235 2.28167 0
M  V30 1075 O 97.7146 -3.75185 1.71201 0
M  V30 1076 H 97.0556 -0.461618 0.477289 0
M  V30 1077 H 99.5856 -0.905949 1.8345 0
M  V30 1078 H 99.5956 -3.27963 2.42702 0
M  V30 1079 H 98.2706 -2.52923 3.30156 0
M  V30 1080 H 96.8476 -3.33958 1.65912 0
M  V30 1081 N 99.0327 -1.24633 -0.964593 0
M  V30 1082 C 99.9797 -1.04144 -2.05968 0
M  V30 1083 C 100.95 0.046262 -1.66036 0
M  V30 1084 O 102.135 -0.108972 -1.90489 0
M  V30 1085 C 99.2747 -0.65563 -3.38815 0
M  V30 1086 C 98.3877 -1.81714 -3.91923 0
M  V30 1087 C 97.5227 -1.37662 -5.13052 0
M  V30 1088 C 96.5617 -2.50788 -5.58365 0
M  V30 1089 N 95.6987 -2.07582 -6.70712 0
M  V30 1090 H 100.539 -1.9787 -2.22827 0
M  V30 1091 H 98.0757 -0.9855 -1.09208 0
M  V30 1092 H 100.034 -0.412954 -4.15151 0
M  V30 1093 H 98.6637 0.244627 -3.21872 0
M  V30 1094 H 97.7157 -2.1734 -3.12198 0
M  V30 1095 H 99.0277 -2.66705 -4.21509 0
M  V30 1096 H 98.1817 -1.093 -5.96773 0
M  V30 1097 H 96.9207 -0.497293 -4.85158 0
M  V30 1098 H 95.9257 -2.79906 -4.73215 0
M  V30 1099 H 97.1507 -3.39283 -5.88272 0
M  V30 1100 H 95.0967 -1.22051 -6.44546 0
M  V30 1101 H 95.0137 -2.86125 -6.99763 0
M  V30 1102 H 96.2817 -1.82369 -7.57867 0
M  V30 1103 N 100.511 1.16574 -1.06058 0
M  V30 1104 C 101.76 1.86385 -0.770944 0
M  V30 1105 C 102.073 1.82448 0.705129 0
M  V30 1106 O 103.279 2.47815 1.10905 0
M  V30 1107 C 101.735 3.34466 -1.32893 0
M  V30 1108 C 101.343 3.46883 -2.83507 0
M  V30 1109 C 103.087 4.09548 -1.11672 0
M  V30 1110 C 100.994 4.89036 -3.32562 0
M  V30 1111 H 99.9238 0.698181 -0.284709 0
M  V30 1112 H 102.575 1.31583 -1.27899 0
M  V30 1113 H 100.957 3.88859 -0.748662 0
M  V30 1114 H 102.131 3.02663 -3.47465 0
M  V30 1115 H 100.446 2.85232 -3.03368 0
M  V30 1116 H 103.043 5.14434 -1.45814 0
M  V30 1117 H 103.386 4.16264 -0.0549535 0
M  V30 1118 H 103.919 3.61387 -1.66265 0
M  V30 1119 H 100.658 4.87499 -4.38207 0
M  V30 1120 H 100.178 5.3389 -2.73351 0
M  V30 1121 H 101.857 5.57843 -3.2775 0
M  V30 1122 N 101.989 0.842826 1.3317 0
M  V30 1123 C 102.899 0.281444 2.32906 0
M  V30 1124 C 103.915 -0.594587 1.63526 0
M  V30 1125 O 105.091 -0.49777 1.95152 0
M  V30 1126 C 102.156 -0.530929 3.42611 0
M  V30 1127 C 101.217 0.369843 4.27704 0
M  V30 1128 C 100.45 -0.403853 5.3217 0
M  V30 1129 O 100.673 -1.63513 5.46461 0
M  V30 1130 O 99.6069 0.224199 6.01482 0
M  V30 1131 H 103.433 1.10744 2.82789 0
M  V30 1132 H 101.018 0.60545 1.36582 0
M  V30 1133 H 102.9 -0.992437 4.09547 0
M  V30 1134 H 101.575 -1.33392 2.94938 0
M  V30 1135 H 100.482 0.879275 3.6362 0
M  V30 1136 H 101.815 1.13771 4.78871 0
M  V30 1137 N 103.467 -1.45747 0.599634 0
M  V30 1138 C 104.713 -2.02592 0.0918643 0
M  V30 1139 C 105.046 -1.46806 -1.27128 0
M  V30 1140 O 104.321 -0.639658 -1.83681 0
M  V30 1141 C 104.604 -3.60073 0.0443398 0
M  V30 1142 C 104.457 -4.26208 1.43759 0
M  V30 1143 C 105.776 -4.35309 -0.647608 0
M  V30 1144 H 102.895 -0.736175 0.034857 0
M  V30 1145 H 105.537 -1.73694 0.770081 0
M  V30 1146 H 103.687 -3.84823 -0.533224 0
M  V30 1147 H 105.359 -4.12668 2.06162 0
M  V30 1148 H 103.602 -3.84916 2.00056 0
M  V30 1149 H 104.273 -5.35069 1.35665 0
M  V30 1150 H 106.749 -4.15805 -0.156776 0
M  V30 1151 H 105.625 -5.45038 -0.649942 0
M  V30 1152 H 105.886 -4.07598 -1.71219 0
M  V30 1153 N 104.945 -0.338344 -1.53925 0
M  V30 1154 C 106.222 0.314774 -1.93051 0
M  V30 1155 C 106.602 1.68669 -1.26941 0
M  V30 1156 O 105.95 2.24636 -0.418445 0
M  V30 1157 C 106.16 0.392249 -3.46789 0
M  V30 1158 C 107.508 0.645554 -4.19664 0
M  V30 1159 O 108.532 0.474575 -3.53024 0
M  V30 1160 O 107.391 0.976408 -5.37707 0
M  V30 1161 H 104.485 0.182598 -0.80659 0
M  V30 1162 H 107.031 -0.389141 -1.65178 0
M  V30 1163 H 105.803 -0.570702 -3.87116 0
M  V30 1164 H 105.426 1.14316 -3.80812 0
M  V30 1165 N 106.423 1.57458 -0.0668435 0
M  V30 1166 C 107.37 2.12439 0.902122 0
M  V30 1167 C 108.34 1.03565 1.2986 0
M  V30 1168 O 109.525 1.312 1.38532 0
M  V30 1169 C 106.665 2.6865 2.16614 0
M  V30 1170 C 105.778 3.91663 1.82274 0
M  V30 1171 C 104.913 4.36134 3.0325 0
M  V30 1172 C 103.952 5.51808 2.64904 0
M  V30 1173 N 103.089 5.9126 3.78624 0
M  V30 1174 H 107.929 2.94934 0.426382 0
M  V30 1175 H 105.466 1.4575 0.198819 0
M  V30 1176 H 107.424 2.99346 2.90599 0
M  V30 1177 H 106.054 1.88928 2.61737 0
M  V30 1178 H 105.106 3.6746 0.983719 0
M  V30 1179 H 106.418 4.75693 1.50059 0
M  V30 1180 H 105.572 4.68465 3.85519 0
M  V30 1181 H 104.311 3.50948 3.38655 0
M  V30 1182 H 103.316 5.19133 1.81055 0
M  V30 1183 H 104.541 6.38722 2.30675 0
M  V30 1184 H 102.487 5.09024 4.138 0
M  V30 1185 H 102.404 6.70018 3.5016 0
M  V30 1186 H 103.672 6.28212 4.61486 0
M  V30 1187 N 107.901 -0.206675 1.56239 0
M  V30 1188 C 108.849 -1.27571 1.94495 0
M  V30 1189 C 109.843 -1.47737 0.828862 0
M  V30 1190 O 111.049 -1.48735 1.0138 0
M  V30 1191 H 107.424 -0.428029 0.6183 0
M  V30 1192 H 109.395 -0.925961 2.8367 0
M  V30 1193 C 108.144 -2.61568 2.29079 0
M  V30 1194 H 107.467 -2.46863 3.14482 0
M  V30 1195 H 108.907 -3.35144 2.5972 0
M  V30 1196 C 107.366 -3.17695 1.12123 0
M  V30 1197 O 107.896 -3.99801 0.390153 0
M  V30 1198 N 106.102 -2.76276 0.901097 0
M  V30 1199 H 105.649 -2.09613 1.49733 0
M  V30 1200 H 105.607 -3.1417 0.120319 0
M  V30 1201 N 109.379 -1.50304 -0.473955 0
M  V30 1202 C 110.627 -1.60832 -1.22382 0
M  V30 1203 C 110.948 -0.30939 -1.9253 0
M  V30 1204 O 110.218 0.67296 -1.83978 0
M  V30 1205 H 108.798 -0.592652 -0.454723 0
M  V30 1206 H 111.46 -1.87068 -0.546968 0
M  V30 1207 H 110.556 -2.41803 -1.97327 0
M  V30 1208 N 110.857 0.726932 -1.39834 0
M  V30 1209 C 111.804 1.841 -1.39197 0
M  V30 1210 C 112.774 1.642 -0.250502 0
M  V30 1211 O 113.959 1.85494 -0.446846 0
M  V30 1212 C 111.099 3.21697 -1.24919 0
M  V30 1213 C 110.212 3.53247 -2.48678 0
M  V30 1214 C 109.347 4.80289 -2.26928 0
M  V30 1215 C 108.386 5.04707 -3.4632 0
M  V30 1216 N 107.523 6.22956 -3.23836 0
M  V30 1217 H 112.363 1.83979 -2.34427 0
M  V30 1218 H 109.9 0.898876 -1.16442 0
M  V30 1219 H 111.858 4.01137 -1.1465 0
M  V30 1220 H 110.488 3.21076 -0.333153 0
M  V30 1221 H 109.54 2.68447 -2.69519 0
M  V30 1222 H 110.852 3.67205 -3.37582 0
M  V30 1223 H 110.006 5.67725 -2.13947 0
M  V30 1224 H 108.745 4.68519 -1.35431 0
M  V30 1225 H 107.75 4.1573 -3.5979 0
M  V30 1226 H 108.975 5.18357 -4.38729 0
M  V30 1227 H 106.921 6.12459 -2.35011 0
M  V30 1228 H 106.838 6.37539 -4.063 0
M  V30 1229 H 108.106 7.1321 -3.14566 0
M  V30 1230 N 112.336 1.25143 0.95797 0
M  V30 1231 C 113.613 1.00472 1.67823 0
M  V30 1232 C 113.993 -0.470056 2.058 0
M  V30 1233 O 113.341 -1.44663 1.76875 0
M  V30 1234 C 113.551 1.9372 2.90299 0
M  V30 1235 C 114.899 2.21371 3.62326 0
M  V30 1236 O 115.923 1.91451 3.00375 0
M  V30 1237 O 114.782 2.72231 4.7387 0
M  V30 1238 H 111.876 0.380752 0.734137 0
M  V30 1239 H 114.422 1.36283 1.01119 0
M  V30 1240 H 113.194 2.93316 2.59001 0
M  V30 1241 H 112.817 1.58286 3.64735 0
M  V30 1242 N 113.814 -1.1601 1.06675 0
M  V30 1243 C 114.744 -2.22688 0.702307 0
M  V30 1244 C 115.725 -1.67306 -0.307032 0
M  V30 1245 O 116.91 -1.93352 -0.181305 0
M  V30 1246 C 114.04 -3.47178 0.092038 0
M  V30 1247 C 112.994 -4.15477 1.02777 0
M  V30 1248 C 112.32 -5.33963 0.28061 0
M  V30 1249 C 113.62 -4.66019 2.35846 0
M  V30 1250 H 115.314 -2.53429 1.59419 0
M  V30 1251 H 112.86 -1.21813 0.767961 0
M  V30 1252 H 114.813 -4.21037 -0.174814 0
M  V30 1253 H 113.537 -3.15749 -0.834877 0
M  V30 1254 H 112.196 -3.43549 1.27944 0
M  V30 1255 H 111.844 -4.98788 -0.649545 0
M  V30 1256 H 111.544 -5.806 0.904258 0
M  V30 1257 H 113.068 -6.10596 0.021396 0
M  V30 1258 H 114.482 -5.3144 2.15045 0
M  V30 1259 H 112.879 -5.23293 2.93743 0
M  V30 1260 H 113.949 -3.82023 2.98641 0
M  V30 1261 N 115.292 -0.849877 -1.32721 0
M  V30 1262 C 116.239 -0.289033 -2.28983 0
M  V30 1263 C 117.209 0.601324 -1.54833 0
M  V30 1264 O 118.394 0.537253 -1.8308 0
M  V30 1265 C 115.534 0.520623 -3.4115 0
M  V30 1266 C 114.647 -0.394989 -4.3019 0
M  V30 1267 C 113.782 0.426834 -5.29482 0
M  V30 1268 C 112.821 -0.486476 -6.10164 0
M  V30 1269 N 111.958 0.297879 -7.01468 0
M  V30 1270 H 116.798 -1.11519 -2.76347 0
M  V30 1271 H 114.335 -0.56138 -1.35967 0
M  V30 1272 H 116.293 1.00563 -4.04899 0
M  V30 1273 H 114.923 1.31165 -2.9495 0
M  V30 1274 H 113.975 -0.99836 -3.67065 0
M  V30 1275 H 115.287 -1.09612 -4.86607 0
M  V30 1276 H 114.441 0.975205 -5.98811 0
M  V30 1277 H 113.18 1.16136 -4.73671 0
M  V30 1278 H 112.185 -1.04677 -5.39743 0
M  V30 1279 H 113.41 -1.21953 -6.6806 0
M  V30 1280 H 111.356 1.01558 -6.48091 0
M  V30 1281 H 111.273 -0.344318 -7.55216 0
M  V30 1282 H 112.541 0.828131 -7.75089 0
M  V30 1283 N 116.77 1.45427 -0.607355 0
M  V30 1284 C 117.68 2.34325 0.113463 0
M  V30 1285 C 118.696 1.51226 0.860617 0
M  V30 1286 O 119.872 1.84029 0.818255 0
M  V30 1287 C 116.937 3.28839 1.09844 0
M  V30 1288 C 115.998 4.27844 0.353271 0
M  V30 1289 C 115.231 5.17842 1.29133 0
M  V30 1290 O 115.454 5.11264 2.52913 0
M  V30 1291 O 114.388 5.96713 0.788523 0
M  V30 1292 H 118.214 2.97364 -0.617094 0
M  V30 1293 H 115.799 1.44807 -0.367619 0
M  V30 1294 H 117.681 3.8708 1.66575 0
M  V30 1295 H 116.356 2.68365 1.81003 0
M  V30 1296 H 115.263 3.7322 -0.256494 0
M  V30 1297 H 116.596 4.91173 -0.317822 0
M  V30 1298 N 118.248 0.346503 1.53744 0
M  V30 1299 C 119.476 -0.25041 2.05379 0
M  V30 1300 C 119.891 -1.43979 1.22129 0
M  V30 1301 O 119.248 -1.80677 0.257321 0
M  V30 1302 C 119.299 -0.662575 3.55376 0
M  V30 1303 O 119.02 0.479515 4.35468 0
M  V30 1304 C 120.521 -1.31989 4.23195 0
M  V30 1305 H 117.741 -0.0478198 0.669294 0
M  V30 1306 H 120.285 0.499346 1.9831 0
M  V30 1307 H 118.44 -1.36227 3.62658 0
M  V30 1308 H 118.854 0.15037 5.24284 0
M  V30 1309 H 120.328 -1.55902 5.29527 0
M  V30 1310 H 120.805 -2.27436 3.75725 0
M  V30 1311 H 121.411 -0.662154 4.20114 0
M  V30 1312 N 119.726 -1.57421 0.075193 0
M  V30 1313 C 120.954 -1.97946 -0.602076 0
M  V30 1314 C 121.369 -0.953674 -1.62943 0
M  V30 1315 O 120.726 0.0592551 -1.82404 0
M  V30 1316 C 120.777 -3.38546 -1.26762 0
M  V30 1317 O 120.498 -4.37195 -0.281376 0
M  V30 1318 C 121.999 -3.93966 -2.03239 0
M  V30 1319 H 119.219 -0.650918 -0.162931 0
M  V30 1320 H 121.763 -2.03959 0.148601 0
M  V30 1321 H 119.918 -3.33609 -1.96936 0
M  V30 1322 H 120.332 -5.18975 -0.759267 0
M  V30 1323 H 121.806 -4.94555 -2.45193 0
M  V30 1324 H 122.283 -3.30693 -2.8903 0
M  V30 1325 H 122.889 -4.02315 -1.37924 0
M  V30 1326 N 121.204 0.198386 -1.56346 0
M  V30 1327 C 122.45 0.920648 -1.80698 0
M  V30 1328 C 122.783 1.83045 -0.648697 0
M  V30 1329 O 122.058 1.91308 0.350925 0
M  V30 1330 C 122.341 1.73971 -3.15287 0
M  V30 1331 C 122.194 0.85485 -4.41602 0
M  V30 1332 C 123.513 2.71296 -3.46535 0
M  V30 1333 H 120.632 0.333261 -0.657348 0
M  V30 1334 H 123.274 0.188198 -1.89066 0
M  V30 1335 H 121.424 2.36416 -3.08285 0
M  V30 1336 H 123.096 0.245362 -4.60647 0
M  V30 1337 H 121.339 0.161398 -4.335 0
M  V30 1338 H 122.01 1.46286 -5.32264 0
M  V30 1339 H 124.486 2.18983 -3.53816 0
M  V30 1340 H 123.362 3.2569 -4.41834 0
M  V30 1341 H 123.623 3.5018 -2.69864 0
M  V30 1342 N 122.682 1.50554 0.465978 0
M  V30 1343 C 123.612 1.72722 1.57128 0
M  V30 1344 C 124.593 0.576294 1.6004 0
M  V30 1345 O 125.778 0.81598 1.76225 0
M  V30 1346 C 122.908 1.82605 2.95419 0
M  V30 1347 C 121.862 2.97835 3.07373 0
M  V30 1348 C 121.188 2.92867 4.47363 0
M  V30 1349 C 122.488 4.38265 2.84114 0
M  V30 1350 H 124.182 2.65267 1.38829 0
M  V30 1351 H 121.728 1.2765 0.666441 0
M  V30 1352 H 123.681 1.96698 3.72677 0
M  V30 1353 H 122.405 0.866858 3.14886 0
M  V30 1354 H 121.064 2.83401 2.3255 0
M  V30 1355 H 120.712 1.94783 4.63755 0
M  V30 1356 H 120.412 3.70227 4.56296 0
M  V30 1357 H 121.936 3.09015 5.26633 0
M  V30 1358 H 123.35 4.53198 3.51118 0
M  V30 1359 H 121.747 5.17115 3.04487 0
M  V30 1360 H 122.817 4.50281 1.7993 0
M  V30 1361 N 124.16 -0.719506 1.40217 0
M  V30 1362 C 125.406 -1.48152 1.38488 0
M  V30 1363 C 125.739 -1.94195 -0.0141867 0
M  V30 1364 O 125.014 -1.67884 -0.982096 0
M  V30 1365 C 125.297 -2.71035 2.37091 0
M  V30 1366 C 125.15 -2.30912 3.86005 0
M  V30 1367 C 126.469 -3.73182 2.33288 0
M  V30 1368 H 123.588 -0.537395 0.504357 0
M  V30 1369 H 126.23 -0.821472 1.71324 0
M  V30 1370 H 124.38 -3.27352 2.0922 0
M  V30 1371 H 126.052 -1.80107 4.24687 0
M  V30 1372 H 124.295 -1.62958 4.02029 0
M  V30 1373 H 124.966 -3.18978 4.50508 0
M  V30 1374 H 127.442 -3.26485 2.57966 0
M  V30 1375 H 126.318 -4.56806 3.04334 0
M  V30 1376 H 126.579 -4.21202 1.34317 0
M  V30 1377 N 125.638 -1.25649 -0.95132 0
M  V30 1378 C 126.601 -1.06399 -2.03007 0
M  V30 1379 C 127.601 -0.0156794 -1.60792 0
M  V30 1380 O 128.791 -0.25817 -1.72276 0
M  V30 1381 C 125.923 -0.616184 -3.35285 0
M  V30 1382 H 127.116 -2.02164 -2.21517 0
M  V30 1383 H 124.669 -1.08103 -1.12887 0
M  V30 1384 H 125.404 0.343917 -3.22471 0
M  V30 1385 H 125.189 -1.37301 -3.67275 0
M  V30 1386 H 126.679 -0.503032 -4.14559 0
M  V30 1387 N 127.117 1.15442 -1.07289 0
M  V30 1388 C 128.049 2.19773 -0.650585 0
M  V30 1389 C 129.062 1.60076 0.296572 0
M  V30 1390 O 130.251 1.78293 0.0859905 0
M  V30 1391 C 127.351 3.38838 0.0650398 0
M  V30 1392 C 126.524 4.2808 -0.898141 0
M  V30 1393 C 125.583 5.2574 -0.219926 0
M  V30 1394 O 124.609 5.62654 -0.860773 0
M  V30 1395 N 125.811 5.71205 1.03466 0
M  V30 1396 H 128.576 2.56622 -1.54808 0
M  V30 1397 H 126.137 1.30551 -0.957494 0
M  V30 1398 H 128.129 4.01222 0.529415 0
M  V30 1399 H 126.699 3.00409 0.864466 0
M  V30 1400 H 125.919 3.62804 -1.54165 0
M  V30 1401 H 127.207 4.84577 -1.5512 0
M  V30 1402 H 126.605 5.43325 1.57526 0
M  V30 1403 H 125.162 6.35633 1.44272 0
M  V30 1404 N 128.595 0.856903 1.32268 0
M  V30 1405 C 129.543 0.291987 2.3076 0
M  V30 1406 C 130.537 -0.585857 1.58947 0
M  V30 1407 O 131.743 -0.47341 1.73663 0
M  V30 1408 H 128.118 0.075721 0.748178 0
M  V30 1409 H 130.089 1.13687 2.75895 0
M  V30 1410 C 128.838 -0.502869 3.44044 0
M  V30 1411 H 128.161 0.163328 3.99466 0
M  V30 1412 H 129.601 -0.863691 4.1511 0
M  V30 1413 C 128.06 -1.68898 2.91505 0
M  V30 1414 O 128.59 -2.78811 2.89184 0
M  V30 1415 N 126.796 -1.51679 2.47875 0
M  V30 1416 H 126.343 -0.622666 2.49961 0
M  V30 1417 H 126.301 -2.31184 2.13076 0
M  V30 1418 N 130.073 -1.45103 0.615059 0
M  V30 1419 C 131.321 -2.01784 0.112955 0
M  V30 1420 C 131.642 -1.48504 -1.26378 0
M  V30 1421 O 130.912 -0.682245 -1.83636 0
M  V30 1422 H 129.492 -0.745993 0.0387668 0
M  V30 1423 H 132.154 -1.77808 0.798141 0
M  V30 1424 H 131.25 -3.12025 0.0684069 0
M  V30 1425 N 131.551 -0.354651 -1.53558 0
M  V30 1426 C 132.499 0.512195 -2.26891 0
M  V30 1427 C 133.493 1.09263 -1.29452 0
M  V30 1428 O 134.699 1.03709 -1.47121 0
M  V30 1429 H 131.074 0.183878 -0.729173 0
M  V30 1430 H 133.045 -0.128202 -2.98124 0
M  V30 1431 C 131.794 1.64563 -3.06291 0
M  V30 1432 H 131.117 1.20829 -3.81104 0
M  V30 1433 H 132.557 2.22711 -3.60799 0
M  V30 1434 C 131.016 2.58158 -2.16462 0
M  V30 1435 O 131.546 3.60695 -1.76811 0
M  V30 1436 N 129.752 2.27096 -1.81317 0
M  V30 1437 H 129.299 1.43751 -2.1376 0
M  V30 1438 H 129.257 2.89975 -1.21498 0
M  V30 1439 N 133.029 1.57378 -0.0835403 0
M  V30 1440 C 134.278 1.93106 0.582498 0
M  V30 1441 C 134.591 0.96651 1.70053 0
M  V30 1442 O 135.797 1.21705 2.42693 0
M  V30 1443 C 134.253 3.43076 1.08751 0
M  V30 1444 C 133.861 4.48 -0.000146404 0
M  V30 1445 C 135.605 3.87785 1.72694 0
M  V30 1446 C 133.512 5.89113 0.519568 0
M  V30 1447 H 132.442 0.720775 0.221358 0
M  V30 1448 H 135.093 1.82821 -0.157675 0
M  V30 1449 H 133.475 3.48474 1.88101 0
M  V30 1450 H 134.649 4.54233 -0.775199 0
M  V30 1451 H 132.964 4.1283 -0.54406 0
M  V30 1452 H 135.561 4.90604 2.1263 0
M  V30 1453 H 135.904 3.25796 2.59158 0
M  V30 1454 H 136.437 3.8504 0.999457 0
M  V30 1455 H 133.176 6.54775 -0.308186 0
M  V30 1456 H 132.696 5.86376 1.26188 0
M  V30 1457 H 134.375 6.39346 0.992237 0
M  V30 1458 N 134.507 -0.190092 1.56449 0
M  V30 1459 C 135.454 -1.23557 1.94942 0
M  V30 1460 C 136.424 -1.44972 0.810696 0
M  V30 1461 O 137.609 -1.58023 1.06927 0
M  V30 1462 C 134.749 -2.57416 2.2985 0
M  V30 1463 C 133.862 -2.43537 3.5681 0
M  V30 1464 C 132.997 -3.70134 3.81017 0
M  V30 1465 C 132.036 -3.51109 5.01387 0
M  V30 1466 N 131.173 -4.6973 5.21822 0
M  V30 1467 H 136.013 -0.900304 2.84075 0
M  V30 1468 H 133.55 -0.43318 1.40577 0
M  V30 1469 H 135.508 -3.35409 2.48106 0
M  V30 1470 H 134.138 -2.88975 1.43852 0
M  V30 1471 H 133.19 -1.56816 3.46573 0
M  V30 1472 H 134.502 -2.25415 4.4496 0
M  V30 1473 H 133.656 -4.56566 3.9954 0
M  V30 1474 H 132.395 -3.91215 2.91207 0
M  V30 1475 H 131.4 -2.63063 4.82782 0
M  V30 1476 H 132.625 -3.31468 5.9271 0
M  V30 1477 H 130.571 -4.91065 4.34961 0
M  V30 1478 H 130.488 -4.54452 6.0416 0
M  V30 1479 H 131.756 -5.57499 5.44808 0
M  V30 1480 N 135.985 -1.50799 -0.457987 0
M  V30 1481 C 137.234 -1.6168 -1.20593 0
M  V30 1482 C 137.547 -0.32888 -1.92815 0
M  V30 1483 O 138.753 -0.316773 -2.69646 0
M  V30 1484 C 137.209 -2.8545 -2.19195 0
M  V30 1485 C 136.817 -4.21168 -1.52715 0
M  V30 1486 C 138.561 -3.05681 -2.94549 0
M  V30 1487 C 136.468 -5.3611 -2.4968 0
M  V30 1488 H 135.398 -0.602134 -0.453818 0
M  V30 1489 H 138.049 -1.77245 -0.475031 0
M  V30 1490 H 136.431 -2.63472 -2.95632 0
M  V30 1491 H 137.605 -4.53449 -0.819775 0
M  V30 1492 H 135.92 -4.06648 -0.895922 0
M  V30 1493 H 138.517 -3.88727 -3.67145 0
M  V30 1494 H 138.86 -2.17929 -3.54701 0
M  V30 1495 H 139.393 -3.27901 -2.25223 0
M  V30 1496 H 136.132 -6.26057 -1.94249 0
M  V30 1497 H 135.652 -5.0823 -3.18532 0
M  V30 1498 H 137.331 -5.6722 -3.11241 0
M  V30 1499 N 137.463 0.71206 -1.40597 0
M  V30 1500 C 138.711 1.46907 -1.38791 0
M  V30 1501 C 139.032 1.94998 0.00780391 0
M  V30 1502 O 138.302 1.70587 0.963174 0
M  V30 1503 H 136.882 0.545043 -0.51082 0
M  V30 1504 H 139.544 0.843882 -1.75683 0
M  V30 1505 H 138.64 2.34021 -2.06496 0
M  V30 1506 N 138.941 1.26152 0.944643 0
M  V30 1507 C 139.873 1.03199 2.04652 0
M  V30 1508 C 140.886 -0.00642356 1.62799 0
M  V30 1509 O 142.075 0.233263 1.76969 0
M  V30 1510 C 139.175 0.540111 3.34568 0
M  V30 1511 C 138.348 1.64697 4.05208 0
M  V30 1512 C 137.407 1.15374 5.13396 0
M  V30 1513 O 136.433 1.85013 5.38293 0
M  V30 1514 N 137.635 0.00031529 5.805 0
M  V30 1515 H 140.4 1.9808 2.2491 0
M  V30 1516 H 137.961 1.17491 1.11389 0
M  V30 1517 H 139.953 0.194401 4.04233 0
M  V30 1518 H 138.523 -0.315021 3.11009 0
M  V30 1519 H 137.743 2.16379 3.29506 0
M  V30 1520 H 139.031 2.3903 4.49157 0
M  V30 1521 H 138.429 -0.581336 5.62705 0
M  V30 1522 H 136.986 -0.286346 6.51171 0
M  V30 1523 N 140.419 -1.14872 1.07899 0
M  V30 1524 C 141.696 -1.81928 0.71845 0
M  V30 1525 C 142.076 -1.95417 -0.798455 0
M  V30 1526 O 141.424 -1.50997 -1.715 0
M  V30 1527 C 141.634 -3.17937 1.43935 0
M  V30 1528 C 142.982 -3.93501 1.59506 0
M  V30 1529 O 144.006 -3.27509 1.40058 0
M  V30 1530 O 142.865 -5.1183 1.91551 0
M  V30 1531 H 139.959 -0.78628 0.256305 0
M  V30 1532 H 142.505 -1.21934 1.18026 0
M  V30 1533 H 141.277 -3.0325 2.47295 0
M  V30 1534 H 140.9 -3.85619 0.968687 0
M  V30 1535 N 141.898 -0.863906 -1.31812 0
M  V30 1536 C 143.128 -0.485406 -2.00817 0
M  V30 1537 C 143.536 0.925007 -1.65046 0
M  V30 1538 O 142.879 1.61653 -0.872574 0
M  V30 1539 C 142.941 -0.555589 -3.55181 0
M  V30 1540 C 142.605 -1.92654 -4.14407 0
M  V30 1541 C 143.602 -2.89324 -4.31958 0
M  V30 1542 C 141.287 -2.2262 -4.50273 0
M  V30 1543 C 143.281 -4.14108 -4.84555 0
M  V30 1544 C 140.968 -3.47654 -5.02573 0
M  V30 1545 C 141.966 -4.43214 -5.19664 0
M  V30 1546 O 141.654 -5.66033 -5.70843 0
M  V30 1547 H 141.386 -0.188224 -0.649267 0
M  V30 1548 H 143.94 -1.16514 -1.69156 0
M  V30 1549 H 142.17 0.181037 -3.86276 0
M  V30 1550 H 143.859 -0.19138 -4.05449 0
M  V30 1551 H 144.625 -2.6748 -4.04573 0
M  V30 1552 H 140.504 -1.4902 -4.3625 0
M  V30 1553 H 144.048 -4.88703 -4.9781 0
M  V30 1554 H 139.945 -3.69345 -5.29391 0
M  V30 1555 H 140.713 -5.6812 -5.89222 0
M  V30 1556 N 143.376 1.44774 -0.622745 0
M  V30 1557 C 144.323 2.30635 0.0871679 0
M  V30 1558 C 145.293 1.42994 0.845097 0
M  V30 1559 O 146.478 1.71907 0.827812 0
M  V30 1560 C 143.618 3.28144 1.06844 0
M  V30 1561 C 142.731 4.30888 0.309809 0
M  V30 1562 C 141.866 5.15494 1.28215 0
M  V30 1563 C 140.905 6.09953 0.512198 0
M  V30 1564 N 140.042 6.87287 1.43458 0
M  V30 1565 H 144.882 2.90803 -0.650974 0
M  V30 1566 H 142.419 1.43286 -0.33281 0
M  V30 1567 H 144.377 3.83157 1.65066 0
M  V30 1568 H 143.007 2.69695 1.77382 0
M  V30 1569 H 142.059 3.78414 -0.388181 0
M  V30 1570 H 143.371 4.97955 -0.290254 0
M  V30 1571 H 142.525 5.74983 1.93596 0
M  V30 1572 H 141.264 4.48481 1.91614 0
M  V30 1573 H 140.269 5.49581 -0.155151 0
M  V30 1574 H 141.494 6.78999 -0.116958 0
M  V30 1575 H 139.44 6.2295 2.05594 0
M  V30 1576 H 139.357 7.50763 0.888335 0
M  V30 1577 H 140.625 7.51306 2.07749 0
M  V30 1578 N 144.854 0.36279 1.53368 0
M  V30 1579 C 146.102 -0.227326 2.00817 0
M  V30 1580 C 146.423 -1.49511 1.25186 0
M  V30 1581 O 145.693 -1.92482 0.364348 0
M  V30 1582 H 144.273 -0.0869923 0.741917 0
M  V30 1583 H 146.935 0.488381 1.88682 0
M  V30 1584 H 146.031 -0.456273 3.08747 0
M  V30 1585 N 146.332 -1.57332 0.0918853 0
M  V30 1586 C 147.748 -1.57389 -0.264766 0
M  V30 1587 C 147.948 -1.10281 -1.68643 0
M  V30 1588 O 147.004 -0.777801 -2.40222 0
M  V30 1589 C 148.317 -3.00648 -0.0561195 0
M  V30 1590 C 149.865 -3.12754 -0.124116 0
M  V30 1591 C 150.34 -4.57965 0.0564972 0
M  V30 1592 N 151.831 -4.632 0.00155611 0
M  V30 1593 C 152.566 -5.73281 0.116598 0
M  V30 1594 N 152.062 -6.92208 0.286294 0
M  V30 1595 N 153.855 -5.6207 0.0580973 0
M  V30 1596 H 146.006 -1.86262 1.02079 0
M  V30 1597 H 148.269 -0.859579 0.399786 0
M  V30 1598 H 147.975 -3.393 0.925669 0
M  V30 1599 H 147.849 -3.68623 -0.799823 0
M  V30 1600 H 150.236 -2.73976 -1.09641 0
M  V30 1601 H 150.317 -2.47377 0.651024 0
M  V30 1602 H 149.961 -4.97436 1.02564 0
M  V30 1603 H 149.891 -5.21399 -0.738297 0
M  V30 1604 H 152.382 -3.77686 -0.127192 0
M  V30 1605 H 152.695 -7.71934 0.365676 0
M  V30 1606 H 151.04 -6.94254 0.32192 0
M  V30 1607 H 154.231 -4.68043 -0.0733204 0
M  V30 1608 H 154.404 -6.47824 0.151203 0
M  V30 1609 N 147.81 0.181792 -1.56548 0
M  V30 1610 C 149.056 0.901431 -1.81665 0
M  V30 1611 C 149.389 1.82347 -0.668075 0
M  V30 1612 O 148.664 1.91669 0.330615 0
M  V30 1613 C 148.947 1.70618 -3.17115 0
M  V30 1614 C 148.8 0.807964 -4.42484 0
M  V30 1615 C 150.119 2.67605 -3.49393 0
M  V30 1616 H 147.238 0.32627 -0.660846 0
M  V30 1617 H 149.88 0.168134 -1.89255 0
M  V30 1618 H 148.03 2.33133 -3.10775 0
M  V30 1619 H 149.702 0.19649 -4.60881 0
M  V30 1620 H 147.945 0.115411 -4.33646 0
M  V30 1621 H 148.616 1.40632 -5.33785 0
M  V30 1622 H 151.092 2.15218 -3.56118 0
M  V30 1623 H 149.968 3.20985 -4.45264 0
M  V30 1624 H 150.229 3.47298 -2.73563 0
M  V30 1625 N 149.288 1.51039 0.449983 0
M  V30 1626 C 150.513 1.6715 1.22783 0
M  V30 1627 C 150.938 0.363081 1.84563 0
M  V30 1628 O 150.296 -0.675433 1.68249 0
M  V30 1629 C 150.344 2.77985 2.29689 0
M  V30 1630 O 149.448 2.40707 3.34864 0
M  V30 1631 H 148.789 0.557746 0.360299 0
M  V30 1632 H 151.319 1.97535 0.533005 0
M  V30 1633 H 151.329 3.01693 2.74673 0
M  V30 1634 H 150.004 3.72935 1.84098 0
M  V30 1635 H 148.581 2.27523 2.95445 0
M  V30 1636 N 150.766 -0.704594 1.40972 0
M  V30 1637 C 152.012 -1.46675 1.40051 0
M  V30 1638 C 152.345 -1.94199 0.00641102 0
M  V30 1639 O 151.62 -1.68916 -0.964235 0
M  V30 1640 C 151.903 -2.68505 2.39952 0
M  V30 1641 C 151.756 -2.26805 3.88432 0
M  V30 1642 C 153.075 -3.70686 2.37233 0
M  V30 1643 H 150.194 -0.532015 0.510028 0
M  V30 1644 H 152.836 -0.803255 1.72185 0
M  V30 1645 H 150.986 -3.25114 2.1268 0
M  V30 1646 H 152.658 -1.75592 4.26574 0
M  V30 1647 H 150.901 -1.58685 4.03734 0
M  V30 1648 H 151.572 -3.14181 4.53866 0
M  V30 1649 H 154.048 -3.23731 2.61415 0
M  V30 1650 H 152.924 -4.53553 3.09162 0
M  V30 1651 H 153.185 -4.19754 1.38777 0
M  V30 1652 N 152.244 -1.26651 -0.937939 0
M  V30 1653 C 153.655 -1.1125 -1.49934 0
M  V30 1654 C 154.006 0.306077 -1.93798 0
M  V30 1655 O 153.131 1.19792 -1.80219 0
M  V30 1656 C 153.726 -2.01339 -2.72485 0
M  V30 1657 C 152.285 -1.90074 -3.24883 0
M  V30 1658 C 151.432 -1.94498 -1.97651 0
M  V30 1659 H 154.383 -1.39693 -0.753091 0
M  V30 1660 H 154.404 -1.56319 -3.46907 0
M  V30 1661 H 153.916 -3.04577 -2.40529 0
M  V30 1662 H 152.017 -0.897827 -3.61621 0
M  V30 1663 H 152.13 -2.75778 -3.9177 0
M  V30 1664 H 150.494 -1.38591 -2.13693 0
M  V30 1665 H 151.277 -2.99372 -1.68022 0
M  V30 1666 N 153.722 1.14298 -1.08507 0
M  V30 1667 C 154.95 1.89219 -0.836876 0
M  V30 1668 C 155.365 1.78638 0.611054 0
M  V30 1669 O 154.722 1.14643 1.41998 0
M  V30 1670 C 154.773 3.39158 -1.25116 0
M  V30 1671 O 154.494 3.49449 -2.64229 0
M  V30 1672 C 155.995 4.31073 -1.03398 0
M  V30 1673 H 153.215 0.599328 -0.301739 0
M  V30 1674 H 155.759 1.44746 -1.44461 0
M  V30 1675 H 153.914 3.81251 -0.687514 0
M  V30 1676 H 154.328 4.42589 -2.81452 0
M  V30 1677 H 155.802 5.34646 -1.37323 0
M  V30 1678 H 156.279 4.3919 0.0289259 0
M  V30 1679 H 156.885 3.94738 -1.58311 0
M  V30 1680 N 155.201 0.870884 1.31352 0
M  V30 1681 C 156.151 0.298889 2.26032 0
M  V30 1682 C 157.135 -0.564595 1.50669 0
M  V30 1683 O 158.327 -0.411323 1.72154 0
M  V30 1684 C 155.456 -0.497842 3.39671 0
M  V30 1685 C 154.542 0.378937 4.22404 0
M  V30 1686 N 154.933 1.47284 4.83881 0
M  V30 1687 C 153.231 0.171535 4.4567 0
M  V30 1688 C 153.932 2.01359 5.45738 0
M  V30 1689 N 152.908 1.31047 5.27568 0
M  V30 1690 H 156.71 1.13494 2.71102 0
M  V30 1691 H 154.224 0.718745 1.45629 0
M  V30 1692 H 156.221 -0.924155 4.06528 0
M  V30 1693 H 154.881 -1.33149 2.96144 0
M  V30 1694 H 155.892 1.85575 4.8351 0
M  V30 1695 H 152.569 -0.626091 4.12779 0
M  V30 1696 H 153.959 2.93143 6.0458 0
M  V30 1697 N 156.679 -1.44442 0.630414 0
M  V30 1698 C 158.09 -1.85434 0.217063 0
M  V30 1699 C 158.441 -1.52748 -1.23136 0
M  V30 1700 O 157.566 -0.965205 -1.93682 0
M  V30 1701 C 158.161 -3.36581 0.387168 0
M  V30 1702 C 156.72 -3.76389 0.0283297 0
M  V30 1703 C 155.867 -2.68296 0.700889 0
M  V30 1704 H 158.818 -1.34919 0.83562 0
M  V30 1705 H 158.839 -3.78657 -0.374086 0
M  V30 1706 H 158.351 -3.60339 1.44144 0
M  V30 1707 H 156.452 -3.58246 -1.02423 0
M  V30 1708 H 156.565 -4.77095 0.437892 0
M  V30 1709 H 154.929 -2.54335 0.136267 0
M  V30 1710 H 155.712 -2.94887 1.75774 0
M  V30 1711 N 158.157 -0.370918 -1.53173 0
M  V30 1712 C 159.067 0.480823 -2.2962 0
M  V30 1713 C 160.083 1.08789 -1.35798 0
M  V30 1714 O 161.259 1.09768 -1.68858 0
M  V30 1715 C 158.324 1.60227 -3.07454 0
M  V30 1716 C 157.385 1.0222 -4.16953 0
M  V30 1717 C 156.618 2.0902 -4.91066 0
M  V30 1718 O 156.841 3.30222 -4.65091 0
M  V30 1719 O 155.775 1.71778 -5.76867 0
M  V30 1720 H 159.601 -0.141421 -3.03371 0
M  V30 1721 H 157.186 -0.135146 -1.48787 0
M  V30 1722 H 159.068 2.25417 -3.56041 0
M  V30 1723 H 157.743 2.20982 -2.36535 0
M  V30 1724 H 156.65 0.334064 -3.72605 0
M  V30 1725 H 157.983 0.459131 -4.90054 0
M  V30 1726 N 159.635 1.57281 -0.100228 0
M  V30 1727 C 160.598 2.13158 0.842398 0
M  V30 1728 C 161.598 1.06202 1.20738 0
M  V30 1729 O 162.788 1.32066 1.13597 0
M  V30 1730 C 159.92 2.65639 2.13655 0
M  V30 1731 H 161.113 2.97766 0.357114 0
M  V30 1732 H 158.666 1.5559 0.148823 0
M  V30 1733 H 159.401 1.84566 2.66657 0
M  V30 1734 H 159.186 3.43844 1.88451 0
M  V30 1735 H 160.676 3.08846 2.81077 0
M  V30 1736 N 161.113 -0.173488 1.56642 0
M  V30 1737 C 162.359 -0.891784 1.8214 0
M  V30 1738 C 162.692 -1.8199 0.677736 0
M  V30 1739 O 161.967 -1.91842 -0.320446 0
M  V30 1740 C 162.25 -1.68933 3.18015 0
M  V30 1741 C 162.103 -0.784487 4.42906 0
M  V30 1742 C 163.422 -2.65748 3.50808 0
M  V30 1743 H 160.541 -0.322761 0.662567 0
M  V30 1744 H 163.183 -0.158095 1.89341 0
M  V30 1745 H 161.333 -2.31482 3.12007 0
M  V30 1746 H 163.005 -0.172046 4.60979 0
M  V30 1747 H 161.248 -0.0924117 4.33702 0
M  V30 1748 H 161.919 -1.37799 5.34524 0
M  V30 1749 H 164.395 -2.13327 3.57255 0
M  V30 1750 H 163.271 -3.18619 4.4696 0
M  V30 1751 H 163.532 -3.45842 2.75401 0
M  V30 1752 N 162.591 -1.51276 -0.441967 0
M  V30 1753 C 163.839 -1.63392 -1.18943 0
M  V30 1754 C 164.16 -0.350159 -1.9183 0
M  V30 1755 O 163.43 0.633784 -1.85364 0
M  V30 1756 H 162.01 -0.602164 -0.442049 0
M  V30 1757 H 164.672 -1.88186 -0.507165 0
M  V30 1758 H 163.768 -2.45934 -1.92154 0
M  V30 1759 N 164.069 0.697108 -1.41344 0
M  V30 1760 C 165.346 1.45154 -1.31109 0
M  V30 1761 C 165.726 2.11009 0.0620449 0
M  V30 1762 O 165.074 2.01571 1.07618 0
M  V30 1763 C 165.284 2.47223 -2.46337 0
M  V30 1764 C 166.632 3.1252 -2.87431 0
M  V30 1765 O 167.656 2.57547 -2.46065 0
M  V30 1766 O 166.515 4.12083 -3.58957 0
M  V30 1767 H 163.609 0.646365 -0.515889 0
M  V30 1768 H 166.155 0.727716 -1.53305 0
M  V30 1769 H 164.927 1.97204 -3.37974 0
M  V30 1770 H 164.55 3.27116 -2.2601 0
M  V30 1771 N 165.547 1.27147 0.931209 0
M  V30 1772 C 166.51 1.09615 2.01289 0
M  V30 1773 C 167.51 0.0412581 1.60747 0
M  V30 1774 O 168.7 0.285545 1.71844 0
M  V30 1775 C 165.832 0.669447 3.34262 0
M  V30 1776 H 167.025 2.05662 2.18273 0
M  V30 1777 H 164.578 1.09885 1.11153 0
M  V30 1778 H 165.313 -0.292572 3.22978 0
M  V30 1779 H 165.098 1.43127 3.65044 0
M  V30 1780 H 166.588 0.568921 4.13706 0
M  V30 1781 N 167.025 -1.13721 1.09112 0
M  V30 1782 C 168.25 -1.89314 0.847053 0
M  V30 1783 C 168.675 -1.78416 -0.595774 0
M  V30 1784 O 168.033 -1.12942 -1.41823 0
M  V30 1785 C 168.081 -3.3701 1.28284 0
M  V30 1786 O 167.185 -4.10054 0.439267 0
M  V30 1787 H 166.526 -0.588745 0.307044 0
M  V30 1788 H 169.056 -1.43902 1.45442 0
M  V30 1789 H 169.066 -3.87834 1.26683 0
M  V30 1790 H 167.741 -3.4426 2.33363 0
M  V30 1791 H 166.318 -3.69266 0.519312 0
M  V30 1792 N 168.503 -0.877838 -1.30888 0
M  V30 1793 C 169.433 -0.35534 -2.3078 0
M  V30 1794 C 170.414 0.557994 -1.60687 0
M  V30 1795 O 171.599 0.473355 -1.88343 0
M  V30 1796 C 168.729 0.437221 -3.44537 0
M  V30 1797 C 167.683 -0.383715 -4.26276 0
M  V30 1798 C 167.009 0.535014 -5.32017 0
M  V30 1799 C 168.309 -1.62201 -4.96476 0
M  V30 1800 H 170.003 -1.19007 -2.74732 0
M  V30 1801 H 167.549 -0.573698 -1.32078 0
M  V30 1802 H 169.502 0.813334 -4.13477 0
M  V30 1803 H 168.226 1.30553 -2.99372 0
M  V30 1804 H 166.885 -0.741874 -3.59015 0
M  V30 1805 H 166.533 1.40083 -4.831 0
M  V30 1806 H 166.233 -0.0104211 -5.87599 0
M  V30 1807 H 167.757 0.907799 -6.03814 0
M  V30 1808 H 169.171 -1.31689 -5.5797 0
M  V30 1809 H 167.568 -2.10711 -5.61891 0
M  V30 1810 H 168.638 -2.37044 -4.23011 0
M  V30 1811 N 169.982 1.44106 -0.638065 0
M  V30 1812 C 171.21 2.06336 -0.152615 0
M  V30 1813 C 171.625 1.47731 1.17563 0
M  V30 1814 O 170.982 0.602806 1.72257 0
M  V30 1815 C 171.033 3.61479 -0.0391491 0
M  V30 1816 O 170.754 4.17903 -1.31487 0
M  V30 1817 C 172.255 4.40757 0.474176 0
M  V30 1818 H 169.475 0.665862 -0.0828776 0
M  V30 1819 H 172.019 1.84862 -0.87443 0
M  V30 1820 H 170.174 3.82191 0.633142 0
M  V30 1821 H 170.588 5.11416 -1.16421 0
M  V30 1822 H 172.062 5.49707 0.502562 0
M  V30 1823 H 172.539 4.12697 1.50258 0
M  V30 1824 H 173.145 4.24979 -0.165102 0
M  V30 1825 N 171.46 0.379036 1.52974 0
M  V30 1826 C 172.706 -0.206727 2.01744 0
M  V30 1827 C 173.039 -1.47314 1.26539 0
M  V30 1828 O 172.314 -1.91084 0.362903 0
M  V30 1829 C 172.597 -0.485066 3.56818 0
M  V30 1830 C 172.45 0.795919 4.42702 0
M  V30 1831 C 173.769 -1.28003 4.21074 0
M  V30 1832 H 170.888 -0.0736607 0.73331 0
M  V30 1833 H 173.53 0.506581 1.83122 0
M  V30 1834 H 171.68 -1.09272 3.72816 0
M  V30 1835 H 173.352 1.43307 4.38476 0
M  V30 1836 H 171.595 1.41344 4.10127 0
M  V30 1837 H 172.266 0.555947 5.49193 0
M  V30 1838 H 174.742 -0.765867 4.08991 0
M  V30 1839 H 173.618 -1.44352 5.29579 0
M  V30 1840 H 173.879 -2.29236 3.78026 0
M  V30 1841 N 172.938 -1.57226 0.108567 0
M  V30 1842 C 174.184 -1.95121 -0.552761 0
M  V30 1843 C 174.517 -0.991345 -1.66991 0
M  V30 1844 O 173.792 -0.0267211 -1.94482 0
M  V30 1845 C 174.075 -3.43039 -1.09528 0
M  V30 1846 C 173.928 -4.49797 0.0177332 0
M  V30 1847 C 175.247 -3.92567 -1.98945 0
M  V30 1848 H 172.366 -0.709496 -0.199461 0
M  V30 1849 H 175.008 -1.89126 0.182011 0
M  V30 1850 H 173.158 -3.48279 -1.72146 0
M  V30 1851 H 174.83 -4.56661 0.652584 0
M  V30 1852 H 173.073 -4.284 0.682309 0
M  V30 1853 H 173.744 -5.50528 -0.402919 0
M  V30 1854 H 176.22 -3.89565 -1.46214 0
M  V30 1855 H 175.096 -4.96605 -2.33827 0
M  V30 1856 H 175.357 -3.32648 -2.91201 0
M  V30 1857 N 174.416 0.165178 -1.56732 0
M  V30 1858 C 175.363 1.2044 -1.96883 0
M  V30 1859 C 176.333 1.43664 -0.833657 0
M  V30 1860 O 177.518 1.56302 -1.09427 0
M  V30 1861 C 174.658 2.53727 -2.33916 0
M  V30 1862 C 173.771 2.3783 -3.6064 0
M  V30 1863 C 172.906 3.64026 -3.86857 0
M  V30 1864 C 171.945 3.43088 -5.06909 0
M  V30 1865 N 171.082 4.61369 -5.29229 0
M  V30 1866 H 175.922 0.854996 -2.85471 0
M  V30 1867 H 173.459 0.41076 -1.41249 0
M  V30 1868 H 175.417 3.31419 -2.53411 0
M  V30 1869 H 174.047 2.8665 -1.48431 0
M  V30 1870 H 173.099 1.51282 -3.49024 0
M  V30 1871 H 174.411 2.18308 -4.4849 0
M  V30 1872 H 173.565 4.50152 -4.06753 0
M  V30 1873 H 172.304 3.86533 -2.97394 0
M  V30 1874 H 171.309 2.55349 -4.86906 0
M  V30 1875 H 172.534 3.21997 -5.97909 0
M  V30 1876 H 170.48 4.84084 -4.42718 0
M  V30 1877 H 170.397 4.44783 -6.11313 0
M  V30 1878 H 171.665 5.48761 -5.53608 0
M  V30 1879 N 175.894 1.51508 0.433938 0
M  V30 1880 C 176.824 1.76016 1.53429 0
M  V30 1881 C 177.805 0.610112 1.58782 0
M  V30 1882 O 178.99 0.853177 1.74455 0
M  V30 1883 C 176.12 1.88831 2.9148 0
M  V30 1884 C 175.074 3.04288 3.00987 0
M  V30 1885 C 174.4 3.0229 4.4105 0
M  V30 1886 C 175.7 4.44193 2.74754 0
M  V30 1887 H 177.394 2.68152 1.33171 0
M  V30 1888 H 174.94 1.29035 0.639214 0
M  V30 1889 H 176.893 2.04559 3.6842 0
M  V30 1890 H 175.617 0.933455 3.12976 0
M  V30 1891 H 174.276 2.8827 2.26486 0
M  V30 1892 H 173.924 2.04576 4.59519 0
M  V30 1893 H 173.624 3.79822 4.4834 0
M  V30 1894 H 175.148 3.20116 5.1996 0
M  V30 1895 H 176.562 4.60544 3.41426 0
M  V30 1896 H 174.959 5.23457 2.9345 0
M  V30 1897 H 176.029 4.53996 1.70339 0
M  V30 1898 N 177.372 -0.689602 1.41712 0
M  V30 1899 C 178.302 -1.81577 1.46806 0
M  V30 1900 C 179.283 -1.66945 0.326105 0
M  V30 1901 O 180.468 -1.86588 0.538377 0
M  V30 1902 C 177.598 -3.19762 1.35535 0
M  V30 1903 C 176.552 -3.49107 2.47605 0
M  V30 1904 C 175.878 -4.86711 2.21397 0
M  V30 1905 C 177.178 -3.47483 3.89939 0
M  V30 1906 H 178.872 -1.7757 2.41058 0
M  V30 1907 H 176.418 -0.852887 1.16025 0
M  V30 1908 H 178.371 -3.98263 1.3771 0
M  V30 1909 H 177.095 -3.24409 0.377708 0
M  V30 1910 H 175.754 -2.72959 2.44722 0
M  V30 1911 H 175.402 -4.8799 1.21961 0
M  V30 1912 H 175.102 -5.0731 2.96497 0
M  V30 1913 H 176.626 -5.67515 2.25297 0
M  V30 1914 H 178.04 -4.1598 3.94505 0
M  V30 1915 H 176.437 -3.79615 4.64771 0
M  V30 1916 H 177.507 -2.46341 4.17665 0
M  V30 1917 N 178.85 -1.27639 -0.924453 0
M  V30 1918 C 179.813 -1.10681 -2.00705 0
M  V30 1919 C 180.813 -0.0497823 -1.60723 0
M  V30 1920 O 182.003 -0.294654 -1.7169 0
M  V30 1921 C 179.135 -0.687164 -3.33902 0
M  V30 1922 H 180.328 -2.06817 -2.17179 0
M  V30 1923 H 177.881 -1.10473 -1.10569 0
M  V30 1924 H 178.616 0.275439 -3.23128 0
M  V30 1925 H 178.401 -1.45061 -3.6428 0
M  V30 1926 H 179.891 -0.590853 -4.13399 0
M  V30 1927 N 180.328 1.1314 -1.09713 0
M  V30 1928 C 181.553 1.88862 -0.857081 0
M  V30 1929 C 181.978 1.78729 0.586304 0
M  V30 1930 O 181.336 1.13692 1.41222 0
M  V30 1931 C 181.384 3.36325 -1.30069 0
M  V30 1932 O 180.488 4.09815 -0.461007 0
M  V30 1933 H 179.829 0.587108 -0.310162 0
M  V30 1934 H 182.359 1.43129 -1.46203 0
M  V30 1935 H 182.369 3.87157 -1.28738 0
M  V30 1936 H 181.044 3.43017 -2.35185 0
M  V30 1937 H 179.621 3.68986 -0.538888 0
M  V30 1938 N 181.806 0.884767 1.30421 0
M  V30 1939 C 183.083 0.423185 1.90967 0
M  V30 1940 C 183.463 -1.09605 1.80416 0
M  V30 1941 O 182.811 -1.93126 1.22125 0
M  V30 1942 C 183.021 0.921056 3.36627 0
M  V30 1943 C 184.369 0.955903 4.137 0
M  V30 1944 O 185.393 0.867706 3.4547 0
M  V30 1945 O 184.252 1.08614 5.35598 0
M  V30 1946 H 181.346 0.129369 0.816819 0
M  V30 1947 H 183.892 0.973653 1.3899 0
M  V30 1948 H 182.664 1.96489 3.3839 0
M  V30 1949 H 182.287 0.349741 3.96059 0
M  V30 1950 N 183.284 -1.43765 0.645699 0
M  V30 1951 C 184.247 -2.29163 -0.0409488 0
M  V30 1952 C 185.247 -1.41813 -0.757996 0
M  V30 1953 O 186.437 -1.63527 -0.600382 0
M  V30 1954 C 183.569 -3.23716 -1.06869 0
M  V30 1955 H 184.762 -2.91366 0.710345 0
M  V30 1956 H 182.315 -1.5092 0.406547 0
M  V30 1957 H 183.05 -2.66393 -1.84947 0
M  V30 1958 H 182.835 -3.88105 -0.558277 0
M  V30 1959 H 184.325 -3.87831 -1.54845 0
M  V30 1960 N 184.763 -0.387143 -1.52771 0
M  V30 1961 C 186.011 0.195349 -2.01154 0
M  V30 1962 C 186.332 1.475 -1.27549 0
M  V30 1963 O 185.602 1.91878 -0.394924 0
M  V30 1964 H 184.182 0.075178 -0.743207 0
M  V30 1965 H 186.844 -0.518337 -1.87881 0
M  V30 1966 H 185.94 0.407096 -3.09434 0
M  V30 1967 N 186.241 1.57166 -0.116904 0
M  V30 1968 C 187.171 2.18222 0.830759 0
M  V30 1969 C 188.152 1.12167 1.27877 0
M  V30 1970 O 189.337 1.40394 1.34176 0
M  V30 1971 C 186.467 2.77996 2.08172 0
M  V30 1972 C 185.421 3.89614 1.77157 0
M  V30 1973 C 184.747 4.36187 3.09265 0
M  V30 1974 C 186.047 5.1181 1.04151 0
M  V30 1975 H 187.741 2.97664 0.321992 0
M  V30 1976 H 185.287 1.4318 0.153434 0
M  V30 1977 H 187.24 3.19366 2.74924 0
M  V30 1978 H 185.964 1.9584 2.6137 0
M  V30 1979 H 184.623 3.48816 1.12796 0
M  V30 1980 H 184.271 3.50893 3.60393 0
M  V30 1981 H 183.971 5.11455 2.89288 0
M  V30 1982 H 185.495 4.80207 3.77139 0
M  V30 1983 H 186.909 5.50214 1.61052 0
M  V30 1984 H 185.306 5.92648 0.942762 0
M  V30 1985 H 186.376 4.84892 0.0279022 0
M  V30 1986 N 187.719 -0.156864 1.56817 0
M  V30 1987 C 188.949 -0.885031 1.86684 0
M  V30 1988 C 189.357 -1.75696 0.701954 0
M  V30 1989 O 188.7 -1.80569 -0.337732 0
M  V30 1990 C 188.762 -1.80092 3.11138 0
M  V30 1991 C 188.426 -1.10714 4.43386 0
M  V30 1992 C 189.423 -0.465714 5.1781 0
M  V30 1993 C 187.108 -1.09959 4.90117 0
M  V30 1994 C 189.102 0.174002 6.37162 0
M  V30 1995 C 186.789 -0.456055 6.09396 0
M  V30 1996 C 187.787 0.179622 6.82764 0
M  V30 1997 O 187.475 0.812975 7.99779 0
M  V30 1998 H 187.207 -0.261813 0.623242 0
M  V30 1999 H 189.761 -0.157383 2.04796 0
M  V30 2000 H 187.991 -2.56926 2.89009 0
M  V30 2001 H 189.68 -2.40018 3.27332 0
M  V30 2002 H 190.446 -0.463427 4.82781 0
M  V30 2003 H 186.325 -1.58378 4.3294 0
M  V30 2004 H 189.869 0.670765 6.94368 0
M  V30 2005 H 185.766 -0.455975 6.43888 0
M  V30 2006 H 186.534 0.71366 8.15383 0
M  V30 2007 N 189.197 -1.51736 -0.425897 0
M  V30 2008 C 190.613 -1.40166 -0.76326 0
M  V30 2009 C 190.813 -0.492962 -1.95377 0
M  V30 2010 O 189.869 0.0475815 -2.52455 0
M  V30 2011 C 191.182 -2.82403 -1.03291 0
M  V30 2012 C 192.73 -2.91632 -1.13665 0
M  V30 2013 C 193.205 -4.34801 -1.43916 0
M  V30 2014 N 194.696 -4.3796 -1.50816 0
M  V30 2015 C 195.431 -5.4578 -1.75817 0
M  V30 2016 N 194.927 -6.63744 -1.98534 0
M  V30 2017 N 196.72 -5.33274 -1.77694 0
M  V30 2018 H 188.871 -2.09361 0.358 0
M  V30 2019 H 191.134 -0.942941 0.0978094 0
M  V30 2020 H 190.84 -3.50943 -0.230696 0
M  V30 2021 H 190.714 -3.22428 -1.95754 0
M  V30 2022 H 193.101 -2.23284 -1.92947 0
M  V30 2023 H 193.182 -2.55088 -0.190756 0
M  V30 2024 H 192.826 -5.03703 -0.65157 0
M  V30 2025 H 192.756 -4.68868 -2.39729 0
M  V30 2026 H 195.247 -3.52919 -1.35118 0
M  V30 2027 H 195.56 -7.41704 -2.17013 0
M  V30 2028 H 193.905 -6.66839 -1.95832 0
M  V30 2029 H 197.096 -4.40098 -1.59473 0
M  V30 2030 H 197.269 -6.1738 -1.9684 0
M  V30 2031 N 190.675 0.682077 -1.42076 0
M  V30 2032 C 191.915 1.45424 -1.43636 0
M  V30 2033 C 192.279 1.91939 -0.0484001 0
M  V30 2034 O 193.48 2.6873 0.0612514 0
M  V30 2035 C 191.751 2.62427 -2.42625 0
M  V30 2036 S 193.31 3.51379 -2.62827 0
M  V30 2037 H 190.128 0.496779 -0.508657 0
M  V30 2038 H 192.73 0.794645 -1.78621 0
M  V30 2039 H 191.434 2.26481 -3.42249 0
M  V30 2040 H 190.965 3.33266 -2.09039 0
M  V30 2041 H 192.98 4.58141 -1.9058 0
M  V30 2042 N 192.153 1.28127 0.917671 0
M  V30 2043 C 193.43 1.05761 1.64542 0
M  V30 2044 C 193.81 -0.404344 2.07191 0
M  V30 2045 O 193.158 -1.38963 1.81388 0
M  V30 2046 C 193.368 2.02857 2.83989 0
M  V30 2047 C 194.716 2.32786 3.551 0
M  V30 2048 O 195.74 2.0091 2.94132 0
M  V30 2049 O 194.599 2.87169 4.64969 0
M  V30 2050 H 191.693 0.403916 0.721652 0
M  V30 2051 H 194.239 1.39431 0.967322 0
M  V30 2052 H 193.011 3.01407 2.49538 0
M  V30 2053 H 192.634 1.69809 3.59514 0
M  V30 2054 N 193.631 -1.12557 1.10312 0
M  V30 2055 C 194.877 -1.84311 0.846011 0
M  V30 2056 C 195.21 -1.83805 -0.626859 0
M  V30 2057 O 194.485 -1.28268 -1.46211 0
M  V30 2058 C 194.768 -3.32048 1.39341 0
M  V30 2059 C 194.621 -3.41016 2.93305 0
M  V30 2060 C 195.94 -4.27764 1.03468 0
M  V30 2061 H 193.059 -0.669192 0.30879 0
M  V30 2062 H 195.701 -1.32057 1.36605 0
M  V30 2063 H 193.851 -3.76678 0.951087 0
M  V30 2064 H 195.523 -3.05031 3.46055 0
M  V30 2065 H 193.766 -2.81603 3.29973 0
M  V30 2066 H 194.437 -4.44948 3.26689 0
M  V30 2067 H 196.913 -3.91253 1.41633 0
M  V30 2068 H 195.789 -5.29549 1.44463 0
M  V30 2069 H 196.05 -4.42064 -0.0560404 0
M  V30 2070 N 195.109 -0.891671 -1.2995 0
M  V30 2071 C 196.042 -0.307994 -2.26112 0
M  V30 2072 C 197.02 0.575262 -1.52084 0
M  V30 2073 O 198.204 0.523864 -1.81074 0
M  V30 2074 C 195.331 0.561734 -3.34009 0
M  V30 2075 C 194.377 -0.253107 -4.25748 0
M  V30 2076 S 195.21 -1.64572 -5.09584 0
M  V30 2077 C 196.366 -0.782699 -6.20987 0
M  V30 2078 H 196.599 -1.12309 -2.75271 0
M  V30 2079 H 194.132 -0.691509 -1.38049 0
M  V30 2080 H 196.09 1.05777 -3.96638 0
M  V30 2081 H 194.751 1.35099 -2.83561 0
M  V30 2082 H 193.944 0.410908 -5.02322 0
M  V30 2083 H 193.546 -0.682004 -3.67729 0
M  V30 2084 H 195.838 -0.00257476 -6.775 0
M  V30 2085 H 196.781 -1.52026 -6.91588 0
M  V30 2086 H 197.189 -0.340638 -5.63471 0
M  V30 2087 N 196.587 1.43421 -0.653314 0
M  V30 2088 C 197.817 2.05864 -0.174238 0
M  V30 2089 C 198.225 1.49052 1.16534 0
M  V30 2090 O 197.568 0.616481 1.73047 0
M  V30 2091 C 197.63 3.59499 -0.00875873 0
M  V30 2092 C 197.294 4.38893 -1.27364 0
M  V30 2093 C 198.291 4.70947 -2.20239 0
M  V30 2094 C 195.976 4.789 -1.51525 0
M  V30 2095 C 197.97 5.41916 -3.35568 0
M  V30 2096 C 195.657 5.49614 -2.67147 0
M  V30 2097 C 196.655 5.81044 -3.58994 0
M  V30 2098 O 196.343 6.50313 -4.72597 0
M  V30 2099 H 196.075 0.670345 -0.0872549 0
M  V30 2100 H 198.629 1.84913 -0.894226 0
M  V30 2101 H 196.859 3.79025 0.7666 0
M  V30 2102 H 198.548 4.0364 0.427687 0
M  V30 2103 H 199.314 4.40558 -2.02815 0
M  V30 2104 H 195.193 4.53843 -0.809158 0
M  V30 2105 H 198.737 5.66365 -4.07279 0
M  V30 2106 H 194.634 5.79419 -2.84505 0
M  V30 2107 H 195.402 6.68795 -4.71864 0
M  V30 2108 N 198.065 0.39524 1.52563 0
M  V30 2109 C 199.313 -0.184678 2.01254 0
M  V30 2110 C 199.634 -1.46822 1.28329 0
M  V30 2111 O 198.904 -1.91666 0.405094 0
M  V30 2112 H 197.484 -0.0712355 0.743596 0
M  V30 2113 H 200.146 0.528293 1.87603 0
M  V30 2114 H 199.242 -0.390681 3.09645 0
M  V30 2115 N 199.544 -1.57102 0.125237 0
M  V30 2116 C 200.793 -1.94582 -0.531095 0
M  V30 2117 C 201.106 -1.01126 -1.6743 0
M  V30 2118 O 202.312 -1.28097 -2.39381 0
M  V30 2119 C 200.768 -3.45839 -0.996164 0
M  V30 2120 C 200.376 -4.47842 0.118926 0
M  V30 2121 C 202.12 -3.92227 -1.62352 0
M  V30 2122 C 200.027 -5.90284 -0.363192 0
M  V30 2123 H 198.957 -0.726391 -0.20217 0
M  V30 2124 H 201.608 -1.82339 0.206092 0
M  V30 2125 H 199.99 -3.53338 -1.78796 0
M  V30 2126 H 201.164 -4.52018 0.895358 0
M  V30 2127 H 199.479 -4.11243 0.653324 0
M  V30 2128 H 202.076 -4.96069 -1.99548 0
M  V30 2129 H 202.419 -3.32552 -2.50429 0
M  V30 2130 H 202.952 -3.87554 -0.897019 0
M  V30 2131 H 199.691 -6.53728 0.481679 0
M  V30 2132 H 199.211 -5.89515 -1.10597 0
M  V30 2133 H 200.89 -6.41752 -0.822377 0
M  V30 2134 N 201.022 0.148545 -1.56898 0
M  V30 2135 C 201.932 1.20293 -2.01412 0
M  V30 2136 C 202.948 1.47107 -0.929273 0
M  V30 2137 O 204.124 1.58807 -1.23863 0
M  V30 2138 C 201.189 2.51682 -2.38447 0
M  V30 2139 C 200.25 2.32529 -3.60872 0
M  V30 2140 C 199.483 3.57653 -3.96132 0
M  V30 2141 O 199.706 4.63771 -3.32073 0
M  V30 2142 O 198.64 3.50408 -4.89385 0
M  V30 2143 H 202.466 0.855025 -2.91416 0
M  V30 2144 H 200.051 0.357151 -1.45068 0
M  V30 2145 H 201.933 3.29147 -2.63135 0
M  V30 2146 H 200.608 2.86006 -1.51599 0
M  V30 2147 H 199.515 1.53019 -3.41373 0
M  V30 2148 H 200.848 2.03121 -4.48333 0
M  V30 2149 N 202.5 1.5196 0.417844 0
M  V30 2150 C 203.777 1.56146 1.17803 0
M  V30 2151 C 204.157 0.337275 2.08388 0
M  V30 2152 O 203.505 -0.676447 2.18258 0
M  V30 2153 C 203.715 2.88566 1.96293 0
M  V30 2154 C 205.063 3.41244 2.52662 0
M  V30 2155 O 206.087 2.90247 2.06483 0
M  V30 2156 O 204.946 4.30273 3.36938 0
M  V30 2157 H 202.04 0.628598 0.537395 0
M  V30 2158 H 204.586 1.64283 0.425331 0
M  V30 2159 H 203.358 3.69116 1.2988 0
M  V30 2160 H 202.981 2.83681 2.78587 0
M  V30 2161 N 203.978 -0.674533 1.42435 0
M  V30 2162 C 205.206 -1.46283 1.46317 0
M  V30 2163 C 205.621 -1.88653 0.0745836 0
M  V30 2164 O 204.978 -1.58151 -0.91074 0
M  V30 2165 C 205.029 -2.71178 2.3905 0
M  V30 2166 O 204.75 -2.30586 3.72507 0
M  V30 2167 C 206.251 -3.64738 2.51955 0
M  V30 2168 H 203.471 -0.450104 0.497642 0
M  V30 2169 H 206.015 -0.828792 1.86953 0
M  V30 2170 H 204.17 -3.3077 2.01667 0
M  V30 2171 H 204.584 -3.11241 4.22172 0
M  V30 2172 H 206.058 -4.49096 3.20962 0
M  V30 2173 H 206.535 -4.10656 1.55752 0
M  V30 2174 H 207.141 -3.11038 2.90061 0
M  V30 2175 N 205.456 -1.28612 -0.910864 0
M  V30 2176 C 206.388 -1.08589 -2.01844 0
M  V30 2177 C 207.401 -0.0367419 -1.62759 0
M  V30 2178 O 208.59 -0.280101 -1.76289 0
M  V30 2179 C 205.69 -0.628626 -3.33019 0
M  V30 2180 C 204.863 -1.75382 -4.00699 0
M  V30 2181 C 203.922 -1.28945 -5.10156 0
M  V30 2182 O 202.948 -1.9922 -5.33198 0
M  V30 2183 N 204.15 -0.154224 -5.80295 0
M  V30 2184 H 206.915 -2.03973 -2.19579 0
M  V30 2185 H 204.476 -1.20403 -1.08234 0
M  V30 2186 H 206.468 -0.301508 -4.03575 0
M  V30 2187 H 205.038 0.232451 -3.11735 0
M  V30 2188 H 204.258 -2.25039 -3.23653 0
M  V30 2189 H 205.546 -2.50854 -4.42662 0
M  V30 2190 H 204.944 0.43194 -5.64049 0
M  V30 2191 H 203.501 0.113599 -6.51701 0
M  V30 2192 N 206.934 1.1197 -1.10907 0
M  V30 2193 C 208.211 1.79959 -0.766432 0
M  V30 2194 C 208.591 1.97466 0.746363 0
M  V30 2195 O 207.939 1.55491 1.67436 0
M  V30 2196 C 208.149 3.14009 -1.52314 0
M  V30 2197 C 209.497 3.89134 -1.69883 0
M  V30 2198 O 210.521 3.2368 -1.48692 0
M  V30 2199 O 209.38 5.06572 -2.05054 0
M  V30 2200 H 206.474 0.779208 -0.277062 0
M  V30 2201 H 209.02 1.18762 -1.21217 0
M  V30 2202 H 207.792 2.96587 -2.55249 0
M  V30 2203 H 207.415 3.82915 -1.07059 0
M  V30 2204 N 208.412 0.89855 1.29475 0
M  V30 2205 C 209.64 0.539261 1.99749 0
M  V30 2206 C 210.055 -0.875716 1.67262 0
M  V30 2207 O 209.412 -1.57786 0.917049 0
M  V30 2208 C 209.463 0.72061 3.54245 0
M  V30 2209 O 209.184 2.07989 3.8558 0
M  V30 2210 C 210.685 0.366118 4.41786 0
M  V30 2211 H 207.905 0.207047 0.638258 0
M  V30 2212 H 210.449 1.20758 1.65039 0
M  V30 2213 H 208.604 0.0994862 3.87272 0
M  V30 2214 H 209.018 2.10841 4.80257 0
M  V30 2215 H 210.492 0.543848 5.49314 0
M  V30 2216 H 210.969 -0.696763 4.33638 0
M  V30 2217 H 211.575 0.964135 4.14228 0
M  V30 2218 N 209.89 -1.43072 0.660911 0
M  V30 2219 C 211.136 -2.0202 0.177708 0
M  V30 2220 C 211.469 -1.52066 -1.20787 0
M  V30 2221 O 210.744 -0.716987 -1.80802 0
M  V30 2222 C 211.027 -3.59561 0.197019 0
M  V30 2223 C 210.88 -4.19727 1.61706 0
M  V30 2224 C 212.199 -4.37664 -0.462396 0
M  V30 2225 H 209.318 -0.734034 0.0660494 0
M  V30 2226 H 211.96 -1.70272 0.843058 0
M  V30 2227 H 210.11 -3.86739 -0.369527 0
M  V30 2228 H 211.782 -4.03553 2.23479 0
M  V30 2229 H 210.025 -3.76084 2.16201 0
M  V30 2230 H 210.696 -5.28834 1.58237 0
M  V30 2231 H 213.172 -4.16095 0.0197215 0
M  V30 2232 H 212.048 -5.47305 -0.418188 0
M  V30 2233 H 212.309 -4.14493 -1.53778 0
M  V30 2234 N 211.368 -0.403325 -1.52352 0
M  V30 2235 C 212.593 0.176499 -2.06648 0
M  V30 2236 C 213.018 1.38577 -1.27193 0
M  V30 2237 O 212.376 1.7879 -0.300637 0
M  V30 2238 C 212.424 0.511061 -3.5696 0
M  V30 2239 O 211.528 1.60294 -3.79973 0
M  V30 2240 H 210.869 0.0167337 -0.663789 0
M  V30 2241 H 213.399 -0.574848 -1.96359 0
M  V30 2242 H 213.409 0.771362 -4.00642 0
M  V30 2243 H 212.084 -0.37296 -4.14224 0
M  V30 2244 H 210.661 1.33526 -3.48174 0
M  V30 2245 N 212.846 1.57033 -0.133567 0
M  V30 2246 C 213.776 2.1909 0.807567 0
M  V30 2247 C 214.757 1.13517 1.26681 0
M  V30 2248 O 215.942 1.41809 1.32679 0
M  V30 2249 C 213.072 2.80188 2.05212 0
M  V30 2250 C 212.026 3.91471 1.73015 0
M  V30 2251 C 211.352 4.39443 3.04622 0
M  V30 2252 C 212.652 5.12886 0.987168 0
M  V30 2253 H 214.346 2.97988 0.290403 0
M  V30 2254 H 211.892 1.43335 0.138239 0
M  V30 2255 H 213.845 3.22264 2.71521 0
M  V30 2256 H 212.569 1.98601 2.59278 0
M  V30 2257 H 211.228 3.49993 1.0909 0
M  V30 2258 H 210.876 3.54695 3.56651 0
M  V30 2259 H 210.576 5.14495 2.83847 0
M  V30 2260 H 212.1 4.8418 3.72024 0
M  V30 2261 H 213.514 5.51891 1.55208 0
M  V30 2262 H 211.911 5.93615 0.87985 0
M  V30 2263 H 212.981 4.84894 -0.0235286 0
M  V30 2264 N 214.325 -0.140222 1.56975 0
M  V30 2265 C 215.553 -0.866437 1.87884 0
M  V30 2266 C 215.968 -1.74428 0.722517 0
M  V30 2267 O 215.325 -1.79891 -0.30749 0
M  V30 2268 C 215.376 -1.71753 3.18093 0
M  V30 2269 O 215.097 -0.875056 4.29272 0
M  V30 2270 C 216.598 -2.55074 3.62563 0
M  V30 2271 H 213.818 -0.25019 0.622612 0
M  V30 2272 H 216.362 -0.130977 2.0408 0
M  V30 2273 H 214.517 -2.40598 3.03631 0
M  V30 2274 H 214.931 -1.46002 5.03769 0
M  V30 2275 H 216.405 -3.10356 4.5649 0
M  V30 2276 H 216.882 -3.31434 2.88181 0
M  V30 2277 H 217.488 -1.91509 3.79743 0
M  V30 2278 N 215.803 -1.52179 -0.40978 0
M  V30 2279 C 217.049 -1.66453 -1.15851 0
M  V30 2280 C 217.382 -0.392972 -1.90182 0
M  V30 2281 O 216.657 0.608579 -1.84734 0
M  V30 2282 C 216.94 -2.88612 -2.15349 0
M  V30 2283 C 216.793 -4.25815 -1.44918 0
M  V30 2284 C 218.112 -3.06294 -3.16026 0
M  V30 2285 H 215.231 -0.60575 -0.419805 0
M  V30 2286 H 217.873 -1.84732 -0.444314 0
M  V30 2287 H 216.023 -2.73158 -2.76255 0
M  V30 2288 H 217.695 -4.52995 -0.871365 0
M  V30 2289 H 215.938 -4.27247 -0.751159 0
M  V30 2290 H 216.609 -5.07337 -2.17516 0
M  V30 2291 H 219.085 -3.20641 -2.65195 0
M  V30 2292 H 217.961 -3.93283 -3.8291 0
M  V30 2293 H 218.222 -2.19579 -3.83715 0
M  V30 2294 N 217.281 0.66697 -1.42791 0
M  V30 2295 C 218.558 1.4234 -1.34159 0
M  V30 2296 C 218.938 2.11093 0.0172729 0
M  V30 2297 O 218.286 2.03808 1.03318 0
M  V30 2298 C 218.496 2.41942 -2.51526 0
M  V30 2299 C 219.844 3.06353 -2.93995 0
M  V30 2300 O 220.868 2.52269 -2.51473 0
M  V30 2301 O 219.727 4.04376 -3.67617 0
M  V30 2302 H 216.821 0.635277 -0.529483 0
M  V30 2303 H 219.367 0.695034 -1.54814 0
M  V30 2304 H 218.139 1.89991 -3.42081 0
M  V30 2305 H 217.762 3.22249 -2.32898 0
M  V30 2306 N 218.759 1.29093 0.90403 0
M  V30 2307 C 220.007 1.16583 1.65085 0
M  V30 2308 C 220.328 -0.283933 1.92922 0
M  V30 2309 O 219.598 -1.19509 1.55224 0
M  V30 2310 H 218.178 0.428467 0.611903 0
M  V30 2311 H 220.84 1.61959 1.08422 0
M  V30 2312 H 219.936 1.71266 2.6091 0
M  V30 2313 N 220.237 -1.11381 1.11499 0
M  V30 2314 C 221.483 -1.83403 0.865512 0
M  V30 2315 C 221.816 -1.84459 -0.607329 0
M  V30 2316 O 221.091 -1.29811 -1.44842 0
M  V30 2317 C 221.374 -3.30552 1.42855 0
M  V30 2318 C 221.227 -3.37886 2.96906 0
M  V30 2319 C 222.546 -4.26643 1.08 0
M  V30 2320 H 219.665 -0.665879 0.31587 0
M  V30 2321 H 222.307 -1.30601 1.37998 0
M  V30 2322 H 220.457 -3.75648 0.990985 0
M  V30 2323 H 222.129 -3.01343 3.49271 0
M  V30 2324 H 220.372 -2.78088 3.32941 0
M  V30 2325 H 221.043 -4.41458 3.31389 0
M  V30 2326 H 223.519 -3.89729 1.45775 0
M  V30 2327 H 222.395 -5.27986 1.50072 0
M  V30 2328 H 222.656 -4.42099 -0.00915037 0
M  V30 2329 N 221.715 -0.905404 -1.28997 0
M  V30 2330 C 222.961 -0.535039 -1.95615 0
M  V30 2331 C 223.294 0.917404 -1.71165 0
M  V30 2332 O 222.569 1.65123 -1.02785 0
M  V30 2333 C 222.852 -0.834918 -3.50287 0
M  V30 2334 C 222.705 -2.33948 -3.84172 0
M  V30 2335 C 224.024 -0.325318 -4.38896 0
M  V30 2336 H 221.143 -0.195861 -0.710498 0
M  V30 2337 H 223.785 -1.13313 -1.52513 0
M  V30 2338 H 221.935 -0.325904 -3.87131 0
M  V30 2339 H 223.607 -2.91847 -3.57243 0
M  V30 2340 H 221.85 -2.79789 -3.31513 0
M  V30 2341 H 222.521 -2.49987 -4.92149 0
M  V30 2342 H 224.997 -0.761256 -4.09077 0
M  V30 2343 H 223.873 -0.564295 -5.45992 0
M  V30 2344 H 224.134 0.774144 -4.35269 0
M  V30 2345 N 223.193 1.4272 -0.668489 0
M  V30 2346 C 224.44 2.01624 -0.18814 0
M  V30 2347 C 224.768 1.5282 1.20317 0
M  V30 2348 O 224.023 0.718323 1.8204 0
M  V30 2349 C 224.322 3.57021 -0.164499 0
M  V30 2350 C 223.988 4.25232 -1.49962 0
M  V30 2351 C 222.65 4.4358 -1.8652 0
M  V30 2352 C 225.002 4.63727 -2.37921 0
M  V30 2353 C 222.33 4.97694 -3.10674 0
M  V30 2354 C 224.682 5.19218 -3.6138 0
M  V30 2355 C 223.346 5.3578 -3.98115 0
M  V30 2356 H 222.616 0.737795 -0.0688454 0
M  V30 2357 H 225.263 1.70991 -0.862225 0
M  V30 2358 H 223.568 3.87285 0.593079 0
M  V30 2359 H 225.265 4.00372 0.224271 0
M  V30 2360 H 221.855 4.11306 -1.20522 0
M  V30 2361 H 226.039 4.4923 -2.10964 0
M  V30 2362 H 221.295 5.08702 -3.39164 0
M  V30 2363 H 225.469 5.4799 -4.29743 0
M  V30 2364 H 223.096 5.77475 -4.94395 0
M  V30 2365 N 224.671 0.411399 1.52136 0
M  V30 2366 C 225.621 -0.430376 2.23901 0
M  V30 2367 C 226.605 -1.0116 1.25121 0
M  V30 2368 O 227.797 -0.934044 1.50348 0
M  V30 2369 C 224.926 -1.54527 3.06556 0
M  V30 2370 C 224.012 -0.9747 4.12747 0
M  V30 2371 N 224.403 -0.130991 5.0563 0
M  V30 2372 C 222.701 -1.24497 4.28271 0
M  V30 2373 C 223.402 0.186689 5.814 0
M  V30 2374 N 222.378 -0.42304 5.41951 0
M  V30 2375 H 226.18 0.220509 2.93072 0
M  V30 2376 H 223.694 0.221952 1.60876 0
M  V30 2377 H 225.691 -2.16093 3.56524 0
M  V30 2378 H 224.351 -2.19875 2.38925 0
M  V30 2379 H 225.362 0.23349 5.17373 0
M  V30 2380 H 222.039 -1.89787 3.7187 0
M  V30 2381 H 223.429 0.871673 6.66222 0
M  V30 2382 N 226.149 -1.5696 0.141893 0
M  V30 2383 C 227.379 -2.00031 -0.516828 0
M  V30 2384 C 227.787 -1.02091 -1.59293 0
M  V30 2385 O 227.13 -0.00909657 -1.83698 0
M  V30 2386 C 227.192 -3.39534 -1.1814 0
M  V30 2387 C 226.856 -4.56313 -0.250513 0
M  V30 2388 C 227.853 -5.17295 0.519839 0
M  V30 2389 C 225.538 -5.02061 -0.154907 0
M  V30 2390 C 227.532 -6.2243 1.3733 0
M  V30 2391 C 225.219 -6.07053 0.702161 0
M  V30 2392 C 226.217 -6.67106 1.46487 0
M  V30 2393 O 225.905 -7.70066 2.30767 0
M  V30 2394 H 225.637 -0.661451 -0.139493 0
M  V30 2395 H 228.191 -2.04086 0.231926 0
M  V30 2396 H 226.421 -3.32302 -1.97769 0
M  V30 2397 H 228.11 -3.66745 -1.73933 0
M  V30 2398 H 228.876 -4.82852 0.45598 0
M  V30 2399 H 224.755 -4.5505 -0.7383 0
M  V30 2400 H 228.299 -6.69233 1.96909 0
M  V30 2401 H 224.196 -6.40923 0.76733 0
M  V30 2402 H 224.964 -7.87264 2.23959 0
M  V30 2403 N 227.627 0.131896 -1.57047 0
M  V30 2404 C 229.043 0.485031 -1.52051 0
M  V30 2405 C 229.243 1.82563 -0.85281 0
M  V30 2406 O 228.299 2.48817 -0.429694 0
M  V30 2407 C 229.612 0.481409 -2.96821 0
M  V30 2408 C 231.16 0.565868 -3.07842 0
M  V30 2409 C 231.635 0.592762 -4.54148 0
M  V30 2410 N 233.126 0.654564 -4.58552 0
M  V30 2411 C 233.861 0.696608 -5.69153 0
M  V30 2412 N 233.357 0.697078 -6.89284 0
M  V30 2413 N 235.15 0.738639 -5.57226 0
M  V30 2414 H 227.301 -0.746664 -1.98843 0
M  V30 2415 H 229.564 -0.273999 -0.90754 0
M  V30 2416 H 229.27 -0.435731 -3.4899 0
M  V30 2417 H 229.144 1.3139 -3.53577 0
M  V30 2418 H 231.531 1.47343 -2.55684 0
M  V30 2419 H 231.612 -0.29406 -2.54104 0
M  V30 2420 H 231.256 -0.310701 -5.06949 0
M  V30 2421 H 231.186 1.46939 -5.05684 0
M  V30 2422 H 233.677 0.660887 -3.72076 0
M  V30 2423 H 233.99 0.731426 -7.69331 0
M  V30 2424 H 232.335 0.66471 -6.91814 0
M  V30 2425 H 235.526 0.735545 -4.62285 0
M  V30 2426 H 235.699 0.767938 -6.43434 0
M  V30 2427 N 229.106 1.52395 0.401703 0
M  V30 2428 C 230.069 1.75636 1.47257 0
M  V30 2429 C 231.069 0.62628 1.48103 0
M  V30 2430 O 232.259 0.894227 1.49497 0
M  V30 2431 C 229.391 1.84553 2.86624 0
M  V30 2432 H 230.584 2.71241 1.27938 0
M  V30 2433 H 228.137 1.42923 0.632662 0
M  V30 2434 H 228.872 0.908882 3.11303 0
M  V30 2435 H 228.657 2.66715 2.87412 0
M  V30 2436 H 230.147 2.04251 3.64241 0
M  V30 2437 N 230.584 -0.659388 1.43143 0
M  V30 2438 C 231.547 -1.75432 1.47501 0
M  V30 2439 C 232.547 -1.56707 0.360512 0
M  V30 2440 O 233.737 -1.62717 0.622002 0
M  V30 2441 C 230.869 -3.14239 1.32162 0
M  V30 2442 H 232.062 -1.7295 2.45006 0
M  V30 2443 H 229.615 -0.870469 1.29817 0
M  V30 2444 H 230.35 -3.22336 0.356401 0
M  V30 2445 H 230.135 -3.29235 2.12948 0
M  V30 2446 H 231.625 -3.94094 1.3813 0
M  V30 2447 N 232.062 -1.29571 -0.897171 0
M  V30 2448 C 233.29 -1.20583 -1.68129 0
M  V30 2449 C 233.705 0.233181 -1.87354 0
M  V30 2450 O 233.062 1.15579 -1.41236 0
M  V30 2451 C 233.113 -1.91772 -3.06441 0
M  V30 2452 O 232.834 -3.30053 -2.88091 0
M  V30 2453 C 234.335 -1.89291 -4.00854 0
M  V30 2454 H 231.555 -0.417826 -0.525036 0
M  V30 2455 H 234.099 -1.70987 -1.12177 0
M  V30 2456 H 232.254 -1.45196 -3.59161 0
M  V30 2457 H 232.668 -3.65942 -3.75748 0
M  V30 2458 H 234.142 -2.43662 -4.95311 0
M  V30 2459 H 234.619 -0.869014 -4.30517 0
M  V30 2460 H 235.225 -2.35622 -3.54066 0
M  V30 2461 N 233.54 1.10788 -1.12088 0
M  V30 2462 C 234.765 1.87002 -0.896949 0
M  V30 2463 C 235.19 1.79933 0.548261 0
M  V30 2464 O 234.548 1.16662 1.38779 0
M  V30 2465 C 234.596 3.3349 -1.37174 0
M  V30 2466 O 233.7 4.08745 -0.547831 0
M  V30 2467 H 233.041 0.580397 -0.322545 0
M  V30 2468 H 235.571 1.39996 -1.49206 0
M  V30 2469 H 235.581 3.84339 -1.36922 0
M  V30 2470 H 234.256 3.37951 -2.42408 0
M  V30 2471 H 232.833 3.6776 -0.617034 0
M  V30 2472 N 235.018 0.912232 1.28515 0
M  V30 2473 C 236.434 0.610159 1.47476 0
M  V30 2474 C 236.634 -0.844955 1.82928 0
M  V30 2475 O 235.69 -1.62416 1.93332 0
M  V30 2476 C 237.003 1.54675 2.57868 0
M  V30 2477 C 238.551 1.55331 2.71738 0
M  V30 2478 C 239.026 2.47649 3.85272 0
M  V30 2479 N 240.517 2.45767 3.92623 0
M  V30 2480 C 241.252 3.13896 4.79851 0
M  V30 2481 N 240.748 3.9135 5.71679 0
M  V30 2482 N 242.541 3.02991 4.73448 0
M  V30 2483 H 234.692 1.85318 1.03783 0
M  V30 2484 H 236.955 0.794777 0.516753 0
M  V30 2485 H 236.661 2.5841 2.38574 0
M  V30 2486 H 236.535 1.27671 3.54937 0
M  V30 2487 H 238.922 0.52335 2.90422 0
M  V30 2488 H 239.003 1.86378 1.75205 0
M  V30 2489 H 238.647 3.50745 3.67342 0
M  V30 2490 H 238.577 2.13904 4.81199 0
M  V30 2491 H 241.068 1.89503 3.26951 0
M  V30 2492 H 241.381 4.40359 6.35062 0
M  V30 2493 H 239.726 3.95455 5.71524 0
M  V30 2494 H 242.917 2.41987 4.007 0
M  V30 2495 H 243.09 3.5636 5.41213 0
M  V30 2496 N 236.496 -1.42363 0.676048 0
M  V30 2497 C 237.726 -2.05561 0.206967 0
M  V30 2498 C 238.134 -1.50887 -1.14148 0
M  V30 2499 O 237.477 -0.643933 -1.72044 0
M  V30 2500 C 237.539 -3.5944 0.0659508 0
M  V30 2501 C 237.203 -4.36812 1.34331 0
M  V30 2502 C 238.2 -4.67383 2.27704 0
M  V30 2503 C 235.885 -4.76429 1.59125 0
M  V30 2504 C 237.879 -5.36509 3.44147 0
M  V30 2505 C 235.566 -5.45294 2.75857 0
M  V30 2506 C 236.564 -5.75259 3.68193 0
M  V30 2507 O 236.252 -6.42712 4.82883 0
M  V30 2508 H 235.984 -0.668872 0.0979084 0
M  V30 2509 H 238.538 -1.83467 0.923531 0
M  V30 2510 H 236.768 -3.80197 -0.706204 0
M  V30 2511 H 238.457 -4.0427 -0.363418 0
M  V30 2512 H 239.223 -4.37275 2.09799 0
M  V30 2513 H 235.102 -4.52498 0.881258 0
M  V30 2514 H 238.646 -5.59814 4.16238 0
M  V30 2515 H 234.543 -5.7482 2.93688 0
M  V30 2516 H 235.311 -6.61204 4.82444 0
M  V30 2517 N 237.974 -0.419461 -1.51915 0
M  V30 2518 C 239.202 0.152136 -2.0634 0
M  V30 2519 C 239.617 1.37988 -1.28859 0
M  V30 2520 O 238.974 1.79243 -0.343232 0
M  V30 2521 C 239.025 0.492266 -3.58133 0
M  V30 2522 O 238.746 -0.686736 -4.32684 0
M  V30 2523 C 240.247 1.11648 -4.2901 0
M  V30 2524 H 237.467 0.0158325 -0.670813 0
M  V30 2525 H 240.011 -0.593394 -1.95702 0
M  V30 2526 H 238.166 1.18769 -3.68745 0
M  V30 2527 H 238.58 -0.400341 -5.2297 0
M  V30 2528 H 240.054 1.3046 -5.36362 0
M  V30 2529 H 240.531 2.09251 -3.86148 0
M  V30 2530 H 241.137 0.460958 -4.22795 0
M  V30 2531 N 239.452 1.56882 -0.150215 0
M  V30 2532 C 240.382 2.19935 0.784284 0
M  V30 2533 C 241.363 1.14854 1.25469 0
M  V30 2534 O 242.548 1.43209 1.31168 0
M  V30 2535 C 239.678 2.82349 2.02229 0
M  V30 2536 C 238.632 3.93285 1.68853 0
M  V30 2537 C 237.958 4.42649 2.99944 0
M  V30 2538 C 239.258 5.13904 0.932714 0
M  V30 2539 H 240.952 2.9828 0.258781 0
M  V30 2540 H 238.498 1.43473 0.123029 0
M  V30 2541 H 240.451 3.25126 2.68088 0
M  V30 2542 H 239.175 2.0134 2.57157 0
M  V30 2543 H 237.834 3.5113 1.05371 0
M  V30 2544 H 237.482 3.58458 3.52869 0
M  V30 2545 H 237.182 5.17476 2.78374 0
M  V30 2546 H 238.706 4.88099 3.66868 0
M  V30 2547 H 240.12 5.53506 1.49345 0
M  V30 2548 H 238.517 5.94515 0.81684 0
M  V30 2549 H 239.587 4.84842 -0.0749568 0
M  V30 2550 N 240.93 -0.123565 1.57115 0
M  V30 2551 C 241.878 -1.17082 2.00984 0
M  V30 2552 C 242.872 -1.43136 0.906009 0
M  V30 2553 O 244.078 -1.43152 1.09121 0
M  V30 2554 H 240.453 -0.394653 0.64012 0
M  V30 2555 H 242.424 -0.774292 2.88179 0
M  V30 2556 C 241.173 -2.49057 2.42623 0
M  V30 2557 H 240.496 -2.29846 3.27125 0
M  V30 2558 H 241.936 -3.20906 2.7712 0
M  V30 2559 C 240.395 -3.11305 1.28805 0
M  V30 2560 O 240.925 -3.97171 0.60153 0
M  V30 2561 N 239.131 -2.71111 1.04628 0
M  V30 2562 H 238.678 -2.01382 1.60634 0
M  V30 2563 H 238.636 -3.1309 0.286685 0
M  V30 2564 N 242.408 -1.52605 -0.393616 0
M  V30 2565 C 243.655 -1.67424 -1.1391 0
M  V30 2566 C 243.983 -0.411859 -1.90089 0
M  V30 2567 O 243.238 0.605626 -1.86093 0
M  V30 2568 C 243.537 -2.85721 -2.14705 0
M  V30 2569 C 243.203 -4.23342 -1.55218 0
M  V30 2570 C 241.865 -4.60771 -1.3872 0
M  V30 2571 C 244.217 -5.09041 -1.11924 0
M  V30 2572 C 241.545 -5.81563 -0.774689 0
M  V30 2573 C 243.897 -6.30452 -0.520853 0
M  V30 2574 C 242.561 -6.66617 -0.343134 0
M  V30 2575 H 241.831 -0.612648 -0.416826 0
M  V30 2576 H 244.478 -1.8674 -0.424315 0
M  V30 2577 H 242.783 -2.60803 -2.92385 0
M  V30 2578 H 244.48 -2.94382 -2.72288 0
M  V30 2579 H 241.07 -3.93855 -1.69045 0
M  V30 2580 H 245.254 -4.80695 -1.23473 0
M  V30 2581 H 240.51 -6.08196 -0.625154 0
M  V30 2582 H 244.684 -6.96175 -0.177065 0
M  V30 2583 H 242.311 -7.60083 0.133571 0
M  V30 2584 N 243.887 0.651787 -1.4349 0
M  V30 2585 C 244.797 1.79368 -1.5121 0
M  V30 2586 C 245.813 1.69361 -0.399093 0
M  V30 2587 O 246.989 1.90505 -0.653431 0
M  V30 2588 C 244.054 3.15653 -1.43401 0
M  V30 2589 C 243.115 3.37446 -2.65384 0
M  V30 2590 C 242.348 4.67229 -2.57939 0
M  V30 2591 O 242.571 5.46676 -1.62792 0
M  V30 2592 O 241.505 4.90773 -3.48462 0
M  V30 2593 H 245.331 1.7581 -2.47638 0
M  V30 2594 H 242.916 0.810447 -1.25507 0
M  V30 2595 H 244.798 3.96935 -1.41494 0
M  V30 2596 H 243.473 3.19798 -0.501085 0
M  V30 2597 H 242.38 2.55923 -2.72863 0
M  V30 2598 H 243.713 3.38148 -3.57654 0
M  V30 2599 N 245.365 1.30045 0.890287 0
M  V30 2600 C 246.328 1.15963 1.977 0
M  V30 2601 C 247.328 0.0923777 1.60534 0
M  V30 2602 O 248.518 0.340071 1.70848 0
M  V30 2603 C 245.65 0.775451 3.31963 0
M  V30 2604 H 246.843 2.12502 2.11619 0
M  V30 2605 H 244.396 1.13366 1.07601 0
M  V30 2606 H 245.131 -0.189671 3.23745 0
M  V30 2607 H 244.916 1.54668 3.60306 0
M  V30 2608 H 246.406 0.700251 4.11687 0
M  V30 2609 N 246.843 -1.10192 1.12674 0
M  V30 2610 C 247.806 -2.14786 0.799979 0
M  V30 2611 C 248.806 -1.59711 -0.18685 0
M  V30 2612 O 249.996 -1.74156 0.0392558 0
M  V30 2613 C 247.128 -3.40374 0.189228 0
M  V30 2614 H 248.321 -2.45203 1.72671 0
M  V30 2615 H 245.874 -1.25597 0.930326 0
M  V30 2616 H 246.609 -3.15577 -0.747107 0
M  V30 2617 H 246.394 -3.81637 0.899766 0
M  V30 2618 H 247.884 -4.17594 -0.0228143 0
M  V30 2619 N 248.321 -0.919034 -1.28029 0
M  V30 2620 C 249.253 -0.368762 -2.26214 0
M  V30 2621 C 250.266 0.495716 -1.55069 0
M  V30 2622 O 251.455 0.30974 -1.75792 0
M  V30 2623 C 248.555 0.491049 -3.35324 0
M  V30 2624 C 247.728 -0.352133 -4.3598 0
M  V30 2625 C 246.787 0.443622 -5.24327 0
M  V30 2626 O 245.813 -0.14566 -5.69014 0
M  V30 2627 N 247.015 1.74545 -5.53637 0
M  V30 2628 H 249.78 -1.21273 -2.74068 0
M  V30 2629 H 247.341 -0.785541 -1.41566 0
M  V30 2630 H 249.333 1.03026 -3.91366 0
M  V30 2631 H 247.903 1.23574 -2.87138 0
M  V30 2632 H 247.123 -1.07269 -3.79324 0
M  V30 2633 H 248.411 -0.928883 -5.00249 0
M  V30 2634 H 247.809 2.24666 -5.19174 0
M  V30 2635 H 246.366 2.23138 -6.12416 0
M  V30 2636 N 249.799 1.42003 -0.683588 0
M  V30 2637 C 250.746 2.30798 -0.0107309 0
M  V30 2638 C 251.716 1.4645 0.783688 0
M  V30 2639 O 252.901 1.75263 0.754156 0
M  V30 2640 C 250.041 3.3238 0.928306 0
M  V30 2641 C 249.154 4.31814 0.126776 0
M  V30 2642 C 248.289 5.20468 1.06236 0
M  V30 2643 C 247.328 6.11577 0.253035 0
M  V30 2644 N 246.465 6.92754 1.14179 0
M  V30 2645 H 251.305 2.8778 -0.773727 0
M  V30 2646 H 248.842 1.41745 -0.393283 0
M  V30 2647 H 250.8 3.89813 1.48666 0
M  V30 2648 H 249.43 2.76976 1.65783 0
M  V30 2649 H 248.482 3.76427 -0.54833 0
M  V30 2650 H 249.794 4.96276 -0.501192 0
M  V30 2651 H 248.948 5.82677 1.69035 0
M  V30 2652 H 247.687 4.56204 1.7242 0
M  V30 2653 H 246.692 5.48428 -0.388108 0
M  V30 2654 H 247.917 6.77892 -0.404839 0
M  V30 2655 H 245.863 6.3111 1.78987 0
M  V30 2656 H 245.78 7.53855 0.569111 0
M  V30 2657 H 247.048 7.59441 1.75697 0
M  V30 2658 N 251.277 0.427512 1.51691 0
M  V30 2659 C 252.24 -0.377132 2.26076 0
M  V30 2660 C 253.24 -0.958089 1.29141 0
M  V30 2661 O 254.43 -0.83408 1.52934 0
M  V30 2662 C 251.562 -1.53262 3.04506 0
M  V30 2663 H 252.755 0.27464 2.9864 0
M  V30 2664 H 250.308 0.180445 1.55255 0
M  V30 2665 H 251.043 -2.22072 2.36335 0
M  V30 2666 H 250.828 -1.12232 3.75694 0
M  V30 2667 H 252.318 -2.10135 3.60878 0
M  V30 2668 N 252.755 -1.56801 0.158532 0
M  V30 2669 C 253.995 -1.98383 -0.49229 0
M  V30 2670 C 254.359 -1.04184 -1.61275 0
M  V30 2671 O 255.56 -1.34856 -2.32524 0
M  V30 2672 C 253.831 -3.4385 -0.974766 0
M  V30 2673 S 255.39 -4.07459 -1.62857 0
M  V30 2674 H 252.208 -0.693041 -0.158794 0
M  V30 2675 H 254.81 -1.93856 0.252974 0
M  V30 2676 H 253.514 -4.10131 -0.148688 0
M  V30 2677 H 253.045 -3.52115 -1.75438 0
M  V30 2678 H 255.06 -4.01458 -2.91627 0
M  V30 2679 N 254.233 0.115231 -1.57178 0
M  V30 2680 C 255.163 1.1423 -2.03651 0
M  V30 2681 C 256.144 1.42967 -0.921655 0
M  V30 2682 O 257.329 1.53343 -1.19162 0
M  V30 2683 C 254.459 2.4675 -2.44401 0
M  V30 2684 C 253.413 2.32467 -3.59365 0
M  V30 2685 C 252.739 3.69984 -3.86026 0
M  V30 2686 C 254.039 1.78203 -4.90959 0
M  V30 2687 H 255.733 0.755749 -2.89705 0
M  V30 2688 H 253.279 0.362093 -1.39373 0
M  V30 2689 H 255.232 3.18854 -2.75517 0
M  V30 2690 H 253.956 2.87302 -1.55322 0
M  V30 2691 H 252.615 1.62811 -3.28463 0
M  V30 2692 H 252.263 4.08028 -2.94147 0
M  V30 2693 H 251.963 3.61279 -4.63412 0
M  V30 2694 H 253.487 4.43587 -4.19599 0
M  V30 2695 H 254.901 2.40128 -5.20587 0
M  V30 2696 H 253.298 1.8031 -5.72371 0
M  V30 2697 H 254.368 0.739876 -4.79222 0
M  V30 2698 N 255.711 1.52812 0.385517 0
M  V30 2699 C 256.988 1.5861 1.14465 0
M  V30 2700 C 257.368 0.381402 2.07626 0
M  V30 2701 O 256.716 -0.629999 2.19643 0
M  V30 2702 C 256.926 2.92664 1.90128 0
M  V30 2703 C 258.274 3.46526 2.45367 0
M  V30 2704 O 259.298 2.94562 2.0028 0
M  V30 2705 O 258.157 4.37323 3.27736 0
M  V30 2706 H 255.251 0.639855 0.523941 0
M  V30 2707 H 257.797 1.65149 0.390389 0
M  V30 2708 H 256.569 3.71788 1.22022 0
M  V30 2709 H 256.192 2.89527 2.72507 0
M  V30 2710 N 257.189 -0.644168 1.43834 0
M  V30 2711 C 258.435 -1.40603 1.46146 0
M  V30 2712 C 258.768 -1.93997 0.0887717 0
M  V30 2713 O 258.043 -1.72854 -0.891724 0
M  V30 2714 C 258.326 -2.58086 2.51124 0
M  V30 2715 C 258.179 -2.10126 3.97702 0
M  V30 2716 C 259.498 -3.60291 2.52742 0
M  V30 2717 H 256.617 -0.509905 0.532134 0
M  V30 2718 H 259.259 -0.729502 1.75437 0
M  V30 2719 H 257.409 -3.15801 2.26278 0
M  V30 2720 H 259.081 -1.57342 4.33637 0
M  V30 2721 H 257.324 -1.41419 4.10101 0
M  V30 2722 H 257.995 -2.94649 4.66783 0
M  V30 2723 H 260.471 -3.12352 2.7491 0
M  V30 2724 H 259.347 -4.40032 3.28121 0
M  V30 2725 H 259.608 -4.1349 1.56455 0
M  V30 2726 N 258.668 -1.30515 -0.883378 0
M  V30 2727 C 259.916 -1.19194 -1.63209 0
M  V30 2728 C 260.237 0.253205 -1.93349 0
M  V30 2729 O 259.507 1.17025 -1.57105 0
M  V30 2730 H 258.087 -0.438148 -0.605009 0
M  V30 2731 H 260.749 -1.63663 -1.05832 0
M  V30 2732 H 259.845 -1.75396 -2.58153 0
M  V30 2733 N 260.146 1.09593 -1.13257 0
M  V30 2734 C 261.109 2.14359 -0.811358 0
M  V30 2735 C 262.109 1.59808 0.178377 0
M  V30 2736 O 263.299 1.74132 -0.0484911 0
M  V30 2737 C 260.431 3.40269 -0.207276 0
M  V30 2738 H 261.624 2.44284 -1.73969 0
M  V30 2739 H 259.177 1.25102 -0.936973 0
M  V30 2740 H 259.912 3.15969 0.73036 0
M  V30 2741 H 259.697 3.81154 -0.919992 0
M  V30 2742 H 261.187 4.176 0.000667944 0
M  V30 2743 N 261.624 0.925811 1.2754 0
M  V30 2744 C 262.87 0.566092 1.94739 0
M  V30 2745 C 263.203 -0.890057 1.72603 0
M  V30 2746 O 262.478 -1.63467 1.05399 0
M  V30 2747 C 262.761 0.89054 3.48915 0
M  V30 2748 C 262.614 2.4003 3.80402 0
M  V30 2749 C 263.933 0.395101 4.38323 0
M  V30 2750 H 261.052 0.20714 0.707292 0
M  V30 2751 H 263.694 1.15725 1.50691 0
M  V30 2752 H 261.844 0.387452 3.86563 0
M  V30 2753 H 263.516 2.97494 3.52555 0
M  V30 2754 H 261.759 2.85028 3.2702 0
M  V30 2755 H 262.43 2.57785 4.8811 0
M  V30 2756 H 264.906 0.826241 4.07814 0
M  V30 2757 H 263.782 0.651086 5.45025 0
M  V30 2758 H 264.043 -0.704798 4.36446 0
M  V30 2759 N 263.102 -1.41638 0.69111 0
M  V30 2760 C 264.351 -2.00526 0.217318 0
M  V30 2761 C 264.664 -1.55353 -1.18848 0
M  V30 2762 O 265.87 -2.06769 -1.75951 0
M  V30 2763 C 264.326 -3.58313 0.337639 0
M  V30 2764 C 263.934 -4.12469 1.74852 0
M  V30 2765 C 265.678 -4.24431 -0.0766066 0
M  V30 2766 C 263.585 -5.62675 1.82074 0
M  V30 2767 H 262.515 -0.750008 0.0774893 0
M  V30 2768 H 265.166 -1.6217 0.858661 0
M  V30 2769 H 263.548 -3.9425 -0.371879 0
M  V30 2770 H 264.722 -3.8796 2.48644 0
M  V30 2771 H 263.037 -3.58861 2.11205 0
M  V30 2772 H 265.634 -5.34683 -0.0430284 0
M  V30 2773 H 265.977 -4.01101 -1.1146 0
M  V30 2774 H 266.51 -3.93512 0.582476 0
M  V30 2775 H 263.249 -5.90826 2.83911 0
M  V30 2776 H 262.769 -5.89124 1.12661 0
M  V30 2777 H 264.448 -6.27371 1.58159 0
M  V30 2778 N 264.58 -0.43555 -1.51462 0
M  V30 2779 C 265.543 0.365137 -2.26273 0
M  V30 2780 C 266.543 0.951227 -1.29647 0
M  V30 2781 O 267.733 0.825958 -1.53374 0
M  V30 2782 C 264.865 1.51645 -3.05314 0
M  V30 2783 H 266.058 -0.290474 -2.9849 0
M  V30 2784 H 263.611 -0.188676 -1.55157 0
M  V30 2785 H 264.346 2.20816 -2.3751 0
M  V30 2786 H 264.131 1.10238 -3.76284 0
M  V30 2787 H 265.621 2.08218 -3.61987 0
M  V30 2788 N 266.058 1.56714 -0.166846 0
M  V30 2789 C 267.286 2.0112 0.485644 0
M  V30 2790 C 267.701 1.04705 1.57106 0
M  V30 2791 O 267.058 0.0471923 1.82439 0
M  V30 2792 C 267.109 3.45361 1.06808 0
M  V30 2793 O 266.83 4.38092 0.0259995 0
M  V30 2794 C 268.331 4.05145 1.79924 0
M  V30 2795 H 265.551 0.65931 0.124704 0
M  V30 2796 H 268.095 2.02746 -0.267262 0
M  V30 2797 H 266.25 3.44524 1.7715 0
M  V30 2798 H 266.664 5.22519 0.455398 0
M  V30 2799 H 268.138 5.08009 2.15942 0
M  V30 2800 H 268.615 3.46982 2.69258 0
M  V30 2801 H 269.221 4.09672 1.14234 0
M  V30 2802 N 267.536 -0.106894 1.57237 0
M  V30 2803 C 268.947 -0.662723 1.74542 0
M  V30 2804 C 269.298 -1.7971 0.787319 0
M  V30 2805 O 268.423 -2.16368 -0.0369636 0
M  V30 2806 C 269.018 -1.20896 3.16496 0
M  V30 2807 C 267.577 -1.71096 3.35266 0
M  V30 2808 C 266.724 -0.615642 2.7038 0
M  V30 2809 H 269.675 0.119106 1.58252 0
M  V30 2810 H 269.696 -2.07847 3.18716 0
M  V30 2811 H 269.208 -0.383122 3.86204 0
M  V30 2812 H 267.309 -2.56119 2.70618 0
M  V30 2813 H 267.422 -1.81208 4.43509 0
M  V30 2814 H 265.786 -1.05222 2.31949 0
M  V30 2815 H 266.569 0.199419 3.4272 0
M  V30 2816 N 269.014 -1.53014 -0.377408 0
M  V30 2817 C 269.924 -1.81557 -1.48574 0
M  V30 2818 C 270.94 -0.703102 -1.59162 0
M  V30 2819 O 272.116 -0.99192 -1.75279 0
M  V30 2820 C 269.181 -1.9889 -2.83978 0
M  V30 2821 C 268.242 -3.22801 -2.83016 0
M  V30 2822 C 267.475 -3.39298 -4.11962 0
M  V30 2823 O 267.698 -2.60345 -5.0752 0
M  V30 2824 O 266.632 -4.32604 -4.18494 0
M  V30 2825 H 270.458 -2.75695 -1.27382 0
M  V30 2826 H 268.043 -1.38248 -0.566373 0
M  V30 2827 H 269.925 -2.11931 -3.6423 0
M  V30 2828 H 268.6 -1.07942 -3.05172 0
M  V30 2829 H 267.507 -3.15193 -2.01505 0
M  V30 2830 H 268.84 -4.13632 -2.66775 0
M  V30 2831 N 270.492 0.636531 -1.44174 0
M  V30 2832 C 271.424 1.7618 -1.46606 0
M  V30 2833 C 272.437 1.58768 -0.360091 0
M  V30 2834 O 273.626 1.67181 -0.625518 0
M  V30 2835 C 270.726 3.13833 -1.27915 0
M  V30 2836 C 269.899 3.57753 -2.51658 0
M  V30 2837 C 268.958 4.74265 -2.27945 0
M  V30 2838 O 267.984 4.82852 -3.01401 0
M  V30 2839 N 269.186 5.65604 -1.30662 0
M  V30 2840 H 271.951 1.74567 -2.43612 0
M  V30 2841 H 269.512 0.820924 -1.39544 0
M  V30 2842 H 271.504 3.8949 -1.09907 0
M  V30 2843 H 270.074 3.10121 -0.39293 0
M  V30 2844 H 269.294 2.72362 -2.84978 0
M  V30 2845 H 270.582 3.83847 -3.33974 0
M  V30 2846 H 269.98 5.61354 -0.699844 0
M  V30 2847 H 268.537 6.40913 -1.18634 0
M  V30 2848 N 271.97 1.30982 0.876444 0
M  V30 2849 C 272.9 1.20668 1.99903 0
M  V30 2850 C 273.881 0.095354 1.69833 0
M  V30 2851 O 275.066 0.27885 1.92188 0
M  V30 2852 C 272.196 0.90655 3.3526 0
M  V30 2853 C 271.15 1.97675 3.79617 0
M  V30 2854 C 270.476 1.52943 5.1236 0
M  V30 2855 C 271.776 3.389 3.97422 0
M  V30 2856 H 273.47 2.14586 2.0879 0
M  V30 2857 H 271.016 1.03308 1.00317 0
M  V30 2858 H 272.969 0.821025 4.13324 0
M  V30 2859 H 271.693 -0.0682969 3.26529 0
M  V30 2860 H 270.352 2.05205 3.03787 0
M  V30 2861 H 270 0.54262 5.00065 0
M  V30 2862 H 269.7 2.24532 5.43009 0
M  V30 2863 H 271.224 1.45786 5.92941 0
M  V30 2864 H 272.638 3.34081 4.659 0
M  V30 2865 H 271.035 4.0865 4.3946 0
M  V30 2866 H 272.105 3.80163 3.01006 0
M  V30 2867 N 273.449 -1.08991 1.13837 0
M  V30 2868 C 274.696 -1.81258 0.902882 0
M  V30 2869 C 275.024 -1.85936 -0.570803 0
M  V30 2870 O 274.279 -1.3267 -1.43865 0
M  V30 2871 C 274.578 -3.27042 1.44147 0
M  V30 2872 C 274.244 -3.4249 2.93276 0
M  V30 2873 C 272.906 -3.46414 3.33992 0
M  V30 2874 C 275.258 -3.4666 3.892 0
M  V30 2875 C 272.586 -3.52091 4.69307 0
M  V30 2876 C 274.938 -3.53872 5.24364 0
M  V30 2877 C 273.602 -3.56066 5.646 0
M  V30 2878 H 272.872 -0.663268 0.330388 0
M  V30 2879 H 275.519 -1.28368 1.42105 0
M  V30 2880 H 273.824 -3.82599 0.844097 0
M  V30 2881 H 275.521 -3.81499 1.23528 0
M  V30 2882 H 272.111 -3.40124 2.60794 0
M  V30 2883 H 276.295 -3.42865 3.58828 0
M  V30 2884 H 271.551 -3.52079 4.9985 0
M  V30 2885 H 275.725 -3.56043 5.98503 0
M  V30 2886 H 273.352 -3.60218 6.69438 0
M  V30 2887 N 274.927 -0.932562 -1.27047 0
M  V30 2888 C 275.89 -0.440064 -2.24936 0
M  V30 2889 C 276.89 0.444071 -1.54547 0
M  V30 2890 O 278.08 0.244465 -1.72476 0
M  V30 2891 C 275.212 0.36678 -3.38921 0
M  V30 2892 H 276.405 -1.305 -2.70018 0
M  V30 2893 H 273.958 -0.713707 -1.39054 0
M  V30 2894 H 274.693 1.25033 -2.99228 0
M  V30 2895 H 274.478 -0.267204 -3.91188 0
M  V30 2896 H 275.968 0.701567 -4.11665 0
M  V30 2897 N 276.405 1.4127 -0.698611 0
M  V30 2898 C 277.368 2.29158 -0.044132 0
M  V30 2899 C 278.368 1.44529 0.704841 0
M  V30 2900 O 279.558 1.65643 0.539276 0
M  V30 2901 C 276.69 3.27459 0.947809 0
M  V30 2902 H 277.883 2.88529 -0.817994 0
M  V30 2903 H 275.436 1.49307 -0.46228 0
M  V30 2904 H 276.171 2.73073 1.74933 0
M  V30 2905 H 275.956 3.8991 0.41385 0
M  V30 2906 H 277.446 3.93311 1.40344 0
M  V30 2907 N 277.883 0.443576 1.51229 0
M  V30 2908 C 279.113 -0.119117 2.06256 0
M  V30 2909 C 279.521 -1.36471 1.31043 0
M  V30 2910 O 278.864 -1.80034 0.365151 0
M  V30 2911 C 278.926 -0.500546 3.55998 0
M  V30 2912 C 278.59 0.639125 4.52509 0
M  V30 2913 C 279.587 1.51311 4.97394 0
M  V30 2914 C 277.272 0.821632 4.95535 0
M  V30 2915 C 279.266 2.55425 5.83984 0
M  V30 2916 C 276.953 1.86603 5.81913 0
M  V30 2917 C 277.951 2.73072 6.26036 0
M  V30 2918 O 277.639 3.75718 7.10698 0
M  V30 2919 H 277.371 -0.00857665 0.675946 0
M  V30 2920 H 279.925 0.623288 1.95715 0
M  V30 2921 H 278.155 -1.29575 3.64345 0
M  V30 2922 H 279.844 -0.995116 3.93513 0
M  V30 2923 H 280.61 1.38367 4.64844 0
M  V30 2924 H 276.489 0.158149 4.60729 0
M  V30 2925 H 280.033 3.22949 6.18344 0
M  V30 2926 H 275.93 1.99564 6.13876 0
M  V30 2927 H 276.698 3.72374 7.2889 0
M  V30 2928 N 279.361 -1.56624 0.175154 0
M  V30 2929 C 280.271 -2.21741 -0.766042 0
M  V30 2930 C 281.287 -1.21023 -1.25018 0
M  V30 2931 O 282.463 -1.53697 -1.3015 0
M  V30 2932 C 279.528 -2.84839 -1.97655 0
M  V30 2933 C 278.589 -4.00769 -1.53892 0
M  V30 2934 C 277.822 -4.60849 -2.69173 0
M  V30 2935 O 278.045 -4.19823 -3.86141 0
M  V30 2936 O 276.979 -5.50655 -2.43028 0
M  V30 2937 H 280.805 -3.02738 -0.241585 0
M  V30 2938 H 278.39 -1.49305 -0.053222 0
M  V30 2939 H 280.272 -3.24834 -2.68442 0
M  V30 2940 H 278.947 -2.06836 -2.48999 0
M  V30 2941 H 277.854 -3.65436 -0.80044 0
M  V30 2942 H 279.187 -4.80376 -1.07236 0
M  V30 2943 N 280.839 0.0985539 -1.57292 0
M  V30 2944 C 282.116 0.834155 -1.76921 0
M  V30 2945 C 282.496 1.97101 -0.755928 0
M  V30 2946 O 281.844 2.27474 0.216245 0
M  V30 2947 C 282.054 1.33194 -3.22584 0
M  V30 2948 C 283.402 1.77611 -3.85668 0
M  V30 2949 O 284.426 1.42825 -3.26312 0
M  V30 2950 O 283.285 2.4192 -4.90038 0
M  V30 2951 H 280.379 0.397628 -0.725135 0
M  V30 2952 H 282.925 0.0807044 -1.69508 0
M  V30 2953 H 281.697 0.517248 -3.87866 0
M  V30 2954 H 281.32 2.1475 -3.34616 0
M  V30 2955 N 282.317 1.53212 0.369288 0
M  V30 2956 C 283.565 1.68881 1.11012 0
M  V30 2957 C 283.886 0.441285 1.89941 0
M  V30 2958 O 283.156 -0.544623 1.88177 0
M  V30 2959 H 281.736 0.622569 0.412816 0
M  V30 2960 H 284.398 1.90391 0.416802 0
M  V30 2961 H 283.494 2.54822 1.80201 0
M  V30 2962 N 283.795 -0.628877 1.44509 0
M  V30 2963 C 285.042 -1.38839 1.47411 0
M  V30 2964 C 285.37 -1.94202 0.10757 0
M  V30 2965 O 284.625 -1.74243 -0.890947 0
M  V30 2966 C 284.924 -2.56995 2.48371 0
M  V30 2967 C 284.59 -2.19908 3.93639 0
M  V30 2968 C 283.252 -2.09506 4.33198 0
M  V30 2969 C 285.604 -1.9064 4.85083 0
M  V30 2970 C 282.932 -1.68028 5.62124 0
M  V30 2971 C 285.284 -1.50655 6.14399 0
M  V30 2972 C 283.948 -1.38796 6.5291 0
M  V30 2973 H 283.218 -0.508048 0.539414 0
M  V30 2974 H 285.865 -0.712913 1.77735 0
M  V30 2975 H 284.17 -3.29786 2.11538 0
M  V30 2976 H 285.867 -3.15223 2.47861 0
M  V30 2977 H 282.457 -2.28922 3.62343 0
M  V30 2978 H 286.641 -1.97585 4.55273 0
M  V30 2979 H 281.897 -1.57452 5.90778 0
M  V30 2980 H 286.071 -1.27048 6.84713 0
M  V30 2981 H 283.698 -1.06429 7.52713 0
M  V30 2982 N 285.273 -1.31445 -0.869486 0
M  V30 2983 C 286.183 -1.21097 -2.0093 0
M  V30 2984 C 287.199 -0.127584 -1.73532 0
M  V30 2985 O 288.375 -0.345477 -1.98415 0
M  V30 2986 C 285.44 -0.919378 -3.34288 0
M  V30 2987 C 284.501 -2.08971 -3.75006 0
M  V30 2988 C 283.734 -1.81194 -5.02001 0
M  V30 2989 O 283.957 -0.747296 -5.65484 0
M  V30 2990 O 282.891 -2.66883 -5.39497 0
M  V30 2991 H 286.717 -2.16883 -2.12592 0
M  V30 2992 H 284.302 -1.11189 -0.997868 0
M  V30 2993 H 286.184 -0.772625 -4.14257 0
M  V30 2994 H 284.859 0.00844772 -3.23699 0
M  V30 2995 H 283.766 -2.29187 -2.95676 0
M  V30 2996 H 285.099 -2.9998 -3.90221 0
M  V30 2997 N 286.751 1.08385 -1.14413 0
M  V30 2998 C 287.683 2.1519 -0.789036 0
M  V30 2999 C 288.696 1.61638 0.19417 0
M  V30 3000 O 289.885 1.78479 -0.0275711 0
M  V30 3001 C 286.985 3.38565 -0.15058 0
M  V30 3002 C 286.158 4.21501 -1.16857 0
M  V30 3003 C 285.217 5.23277 -0.553832 0
M  V30 3004 O 284.243 5.56041 -1.21686 0
M  V30 3005 N 285.445 5.76629 0.669296 0
M  V30 3006 H 288.21 2.46257 -1.70814 0
M  V30 3007 H 285.771 1.24198 -1.03858 0
M  V30 3008 H 287.763 4.03777 0.273181 0
M  V30 3009 H 286.333 3.05299 0.671667 0
M  V30 3010 H 285.553 3.52265 -1.76926 0
M  V30 3011 H 286.841 4.73731 -1.85624 0
M  V30 3012 H 286.239 5.52243 1.22654 0
M  V30 3013 H 284.796 6.43521 1.03556 0
M  V30 3014 N 288.23 0.939286 1.26551 0
M  V30 3015 C 289.47 0.5933 1.956 0
M  V30 3016 C 289.834 -0.851515 1.72085 0
M  V30 3017 O 291.035 -1.30634 2.34921 0
M  V30 3018 C 289.306 0.923996 3.45249 0
M  V30 3019 S 290.865 0.688269 4.33369 0
M  V30 3020 H 287.683 0.218591 0.676564 0
M  V30 3021 H 290.285 1.2102 1.5354 0
M  V30 3022 H 288.989 1.97297 3.59864 0
M  V30 3023 H 288.52 0.296746 3.92279 0
M  V30 3024 H 290.535 -0.448434 4.9417 0
M  V30 3025 N 289.708 -1.40897 0.706093 0
M  V30 3026 C 290.985 -1.94868 0.169099 0
M  V30 3027 C 291.365 -1.64485 -1.32318 0
M  V30 3028 O 290.713 -0.95744 -2.07474 0
M  V30 3029 C 290.923 -3.45798 0.471654 0
M  V30 3030 C 292.271 -4.22663 0.405127 0
M  V30 3031 O 293.295 -3.53865 0.407168 0
M  V30 3032 O 292.154 -5.45216 0.374383 0
M  V30 3033 H 289.248 -0.82673 0.0211352 0
M  V30 3034 H 291.794 -1.50558 0.782976 0
M  V30 3035 H 290.566 -3.61235 1.50416 0
M  V30 3036 H 290.189 -3.97225 -0.172666 0
M  V30 3037 N 291.186 -0.45159 -1.50991 0
M  V30 3038 C 292.149 0.341117 -2.26647 0
M  V30 3039 C 293.149 0.937422 -1.30649 0
M  V30 3040 O 294.339 0.809644 -1.54241 0
M  V30 3041 C 291.471 1.48398 -3.06905 0
M  V30 3042 H 292.664 -0.322117 -2.98165 0
M  V30 3043 H 290.217 -0.205122 -1.54948 0
M  V30 3044 H 290.952 2.18284 -2.39838 0
M  V30 3045 H 290.737 1.06241 -3.77432 0
M  V30 3046 H 292.227 2.04367 -3.64176 0
M  V30 3047 N 292.664 1.56529 -0.183458 0
M  V30 3048 C 293.912 1.96855 0.457452 0
M  V30 3049 C 294.233 1.07104 1.62953 0
M  V30 3050 O 293.503 0.139887 1.954 0
M  V30 3051 H 292.083 0.72693 0.171992 0
M  V30 3052 H 294.745 1.93056 -0.267476 0
M  V30 3053 H 293.841 3.01423 0.809368 0
M  V30 3054 N 294.142 -0.090211 1.57342 0
M  V30 3055 C 295.388 -0.788838 1.8748 0
M  V30 3056 C 295.743 -1.76105 0.7749 0
M  V30 3057 O 295.036 -1.90302 -0.222663 0
M  V30 3058 C 295.23 -1.55222 3.21933 0
M  V30 3059 C 295.059 -0.655441 4.44898 0
M  V30 3060 C 293.829 -0.299325 5.04413 0
M  V30 3061 C 296.027 0.0397458 5.14285 0
M  V30 3062 N 294.009 0.605108 6.10911 0
M  V30 3063 C 295.38 0.802061 6.1479 0
M  V30 3064 C 297.435 0.113154 4.97771 0
M  V30 3065 C 296.138 1.63093 7.00566 0
M  V30 3066 C 298.164 0.928942 5.84059 0
M  V30 3067 C 297.526 1.67936 6.84088 0
M  V30 3068 H 293.625 -0.26467 0.735849 0
M  V30 3069 H 296.209 -0.0511453 1.94633 0
M  V30 3070 H 294.38 -2.26076 3.15823 0
M  V30 3071 H 296.112 -2.19843 3.39781 0
M  V30 3072 H 292.867 -0.648079 4.69145 0
M  V30 3073 H 293.291 1.05002 6.68808 0
M  V30 3074 H 297.933 -0.452676 4.2037 0
M  V30 3075 H 295.651 2.20781 7.77355 0
M  V30 3076 H 299.237 0.988478 5.73341 0
M  V30 3077 H 298.117 2.30044 7.49699 0
M  V30 3078 N 295.62 -1.53406 -0.361157 0
M  V30 3079 C 296.55 -1.83136 -1.44857 0
M  V30 3080 C 297.531 -0.685174 -1.5569 0
M  V30 3081 O 298.716 -0.93544 -1.70186 0
M  V30 3082 C 295.846 -2.02522 -2.82138 0
M  V30 3083 C 294.8 -3.18302 -2.86126 0
M  V30 3084 C 294.126 -3.22989 -4.26125 0
M  V30 3085 C 295.426 -4.56796 -2.53248 0
M  V30 3086 H 297.12 -2.74201 -1.20226 0
M  V30 3087 H 294.666 -1.31938 -0.576922 0
M  V30 3088 H 296.619 -2.21904 -3.58241 0
M  V30 3089 H 295.343 -1.08172 -3.08166 0
M  V30 3090 H 294.002 -2.98747 -2.12475 0
M  V30 3091 H 293.65 -2.26267 -4.49235 0
M  V30 3092 H 293.35 -4.00781 -4.29708 0
M  V30 3093 H 294.874 -3.44559 -5.04094 0
M  V30 3094 H 296.288 -4.7631 -3.19064 0
M  V30 3095 H 294.685 -5.36862 -2.68141 0
M  V30 3096 H 295.755 -4.61606 -1.48484 0
M  V30 3097 N 297.098 0.621204 -1.44841 0
M  V30 3098 C 298.061 1.71459 -1.521 0
M  V30 3099 C 299.061 1.55696 -0.401933 0
M  V30 3100 O 300.251 1.61011 -0.664925 0
M  V30 3101 C 297.383 3.10624 -1.40447 0
M  V30 3102 H 298.576 1.66394 -2.49506 0
M  V30 3103 H 296.129 0.835745 -1.3208 0
M  V30 3104 H 296.864 3.21277 -0.441737 0
M  V30 3105 H 296.649 3.23473 -2.21602 0
M  V30 3106 H 298.139 3.90293 -1.4853 0
M  V30 3107 N 298.576 1.31904 0.862503 0
M  V30 3108 C 299.853 1.12644 1.59908 0
M  V30 3109 C 300.233 -0.316104 2.0872 0
M  V30 3110 O 299.581 -1.31145 1.87118 0
M  V30 3111 C 299.791 2.1472 2.7513 0
M  V30 3112 C 301.139 2.47637 3.44907 0
M  V30 3113 O 302.163 2.13205 2.85346 0
M  V30 3114 O 301.022 3.06632 4.52371 0
M  V30 3115 H 298.116 0.43416 0.703871 0
M  V30 3116 H 300.662 1.43408 0.907314 0
M  V30 3117 H 299.434 3.1172 2.3653 0
M  V30 3118 H 299.057 1.84905 3.51989 0
M  V30 3119 N 300.054 -1.07777 1.14986 0
M  V30 3120 C 300.986 -2.14769 0.800436 0
M  V30 3121 C 301.999 -1.61739 -0.185595 0
M  V30 3122 O 303.188 -1.78462 0.0370358 0
M  V30 3123 C 300.288 -3.38481 0.168533 0
M  V30 3124 C 299.461 -4.20876 1.1909 0
M  V30 3125 C 298.52 -5.22976 0.581575 0
M  V30 3126 O 297.546 -5.55388 1.24633 0
M  V30 3127 N 298.748 -5.76976 -0.638706 0
M  V30 3128 H 301.513 -2.45348 1.72118 0
M  V30 3129 H 299.074 -1.23645 1.04515 0
M  V30 3130 H 301.066 -4.03916 -0.251764 0
M  V30 3131 H 299.636 -3.05651 -0.655467 0
M  V30 3132 H 298.856 -3.51322 1.78791 0
M  V30 3133 H 300.144 -4.7274 1.88133 0
M  V30 3134 H 299.542 -5.52886 -1.19723 0
M  V30 3135 H 298.099 -6.44061 -1.00142 0
M  V30 3136 N 301.532 -0.945985 -1.26051 0
M  V30 3137 C 302.76 -0.613025 -1.9761 0
M  V30 3138 C 303.175 0.813035 -1.70397 0
M  V30 3139 O 302.532 1.54274 -0.974979 0
M  V30 3140 C 302.583 -0.85159 -3.51326 0
M  V30 3141 O 302.304 -2.22157 -3.77595 0
M  V30 3142 C 303.805 -0.529831 -4.40122 0
M  V30 3143 H 301.025 -0.230593 -0.630133 0
M  V30 3144 H 303.569 -1.268 -1.60443 0
M  V30 3145 H 301.724 -0.243151 -3.86636 0
M  V30 3146 H 302.138 -2.2852 -4.721 0
M  V30 3147 H 303.612 -0.747348 -5.46917 0
M  V30 3148 H 304.089 0.535341 -4.35925 0
M  V30 3149 H 304.695 -1.11721 -4.10364 0
M  V30 3150 N 303.011 1.40521 -0.713556 0
M  V30 3151 C 304.257 2.01221 -0.252564 0
M  V30 3152 C 304.59 1.56444 1.1506 0
M  V30 3153 O 303.865 0.783597 1.78017 0
M  V30 3154 C 304.148 3.58582 -0.330332 0
M  V30 3155 C 304.001 4.13437 -1.77173 0
M  V30 3156 C 305.32 4.39079 0.299641 0
M  V30 3157 H 302.439 0.731077 -0.0932471 0
M  V30 3158 H 305.081 1.67026 -0.905673 0
M  V30 3159 H 303.231 3.87844 0.225737 0
M  V30 3160 H 304.903 3.9498 -2.38303 0
M  V30 3161 H 303.146 3.67801 -2.3001 0
M  V30 3162 H 303.817 5.22597 -1.77755 0
M  V30 3163 H 306.293 4.15735 -0.174139 0
M  V30 3164 H 305.169 5.4848 0.214771 0
M  V30 3165 H 305.43 4.19915 1.38288 0
M  V30 3166 N 304.489 0.459591 1.5075 0
M  V30 3167 C 305.905 0.113092 1.59199 0
M  V30 3168 C 306.105 -1.37951 1.46874 0
M  V30 3169 O 305.161 -2.15168 1.32132 0
M  V30 3170 C 306.474 0.653043 2.93523 0
M  V30 3171 C 308.022 0.615449 3.0689 0
M  V30 3172 C 308.497 1.13275 4.43771 0
M  V30 3173 N 309.988 1.09167 4.50152 0
M  V30 3174 C 310.723 1.46256 5.54434 0
M  V30 3175 N 310.219 1.90739 6.66026 0
M  V30 3176 N 312.012 1.37932 5.44914 0
M  V30 3177 H 304.163 1.43049 1.57005 0
M  V30 3178 H 306.426 0.590861 0.741341 0
M  V30 3179 H 306.132 1.69822 3.07983 0
M  V30 3180 H 306.006 0.0902132 3.77092 0
M  V30 3181 H 308.393 -0.420793 2.92084 0
M  V30 3182 H 308.474 1.21495 2.25106 0
M  V30 3183 H 308.118 2.16757 4.59324 0
M  V30 3184 H 308.048 0.509576 5.24129 0
M  V30 3185 H 310.539 0.76528 3.7007 0
M  V30 3186 H 310.852 2.17218 7.41644 0
M  V30 3187 H 309.197 1.94683 6.67176 0
M  V30 3188 H 312.388 1.0303 4.56621 0
M  V30 3189 H 312.561 1.67164 6.26067 0
M  V30 3190 N 305.967 -1.56429 0.191757 0
M  V30 3191 C 307.197 -2.01574 -0.452928 0
M  V30 3192 C 307.605 -1.07107 -1.55964 0
M  V30 3193 O 306.948 -0.067534 -1.83576 0
M  V30 3194 C 307.01 -3.43121 -1.07278 0
M  V30 3195 C 306.674 -4.56879 -0.105214 0
M  V30 3196 C 307.671 -5.15379 0.684149 0
M  V30 3197 C 305.356 -5.023 0.00489824 0
M  V30 3198 C 307.35 -6.17746 1.57062 0
M  V30 3199 C 305.037 -6.04511 0.894935 0
M  V30 3200 C 306.035 -6.62108 1.67637 0
M  V30 3201 O 305.723 -7.62335 2.55149 0
M  V30 3202 H 305.455 -0.665554 -0.118379 0
M  V30 3203 H 308.009 -2.03245 0.296737 0
M  V30 3204 H 306.239 -3.38425 -1.87097 0
M  V30 3205 H 307.928 -3.72093 -1.62177 0
M  V30 3206 H 308.694 -4.81157 0.609365 0
M  V30 3207 H 304.573 -4.57168 -0.593156 0
M  V30 3208 H 308.117 -6.6263 2.181 0
M  V30 3209 H 304.014 -6.38157 0.970847 0
M  V30 3210 H 304.782 -7.79741 2.48892 0
M  V30 3211 N 307.445 0.0818655 -1.57387 0
M  V30 3212 C 308.856 0.634871 -1.75574 0
M  V30 3213 C 309.207 1.78435 -0.815809 0
M  V30 3214 O 308.332 2.164 0.0025366 0
M  V30 3215 C 308.927 1.15845 -3.18379 0
M  V30 3216 C 307.486 1.65741 -3.37945 0
M  V30 3217 C 306.633 0.572549 -2.71325 0
M  V30 3218 H 309.584 -0.144268 -1.58043 0
M  V30 3219 H 309.605 2.02751 -3.21982 0
M  V30 3220 H 309.117 0.321631 -3.86765 0
M  V30 3221 H 307.218 2.51781 -2.74658 0
M  V30 3222 H 307.331 1.74129 -4.46336 0
M  V30 3223 H 305.695 1.01518 -2.33594 0
M  V30 3224 H 306.478 -0.253918 -3.4236 0
M  V30 3225 N 308.923 1.53595 0.353017 0
M  V30 3226 C 310.172 1.69603 1.09168 0
M  V30 3227 C 310.485 0.460925 1.90092 0
M  V30 3228 O 311.691 0.501774 2.66823 0
M  V30 3229 C 310.147 2.99872 1.9901 0
M  V30 3230 C 309.755 4.30687 1.23339 0
M  V30 3231 C 311.499 3.25246 2.72792 0
M  V30 3232 C 309.406 5.52036 2.12156 0
M  V30 3233 H 308.336 0.631966 0.411261 0
M  V30 3234 H 310.987 1.80096 0.351802 0
M  V30 3235 H 309.369 2.83212 2.7678 0
M  V30 3236 H 310.543 4.58019 0.505456 0
M  V30 3237 H 308.858 4.11853 0.613663 0
M  V30 3238 H 311.455 4.13095 3.39495 0
M  V30 3239 H 311.798 2.41846 3.38846 0
M  V30 3240 H 312.331 3.42638 2.021 0
M  V30 3241 H 309.07 6.37951 1.50659 0
M  V30 3242 H 308.59 5.28966 2.82764 0
M  V30 3243 H 310.269 5.87313 2.71427 0
M  V30 3244 N 310.401 -0.613514 1.45168 0
M  V30 3245 C 311.817 -0.933629 1.29443 0
M  V30 3246 C 312.017 -2.00028 0.243101 0
M  V30 3247 O 311.073 -2.49848 -0.364992 0
M  V30 3248 C 312.386 -1.38018 2.67155 0
M  V30 3249 C 313.934 -1.49471 2.75004 0
M  V30 3250 C 314.409 -1.97503 4.13227 0
M  V30 3251 N 315.9 -2.04746 4.15491 0
M  V30 3252 C 316.635 -2.43121 5.19307 0
M  V30 3253 N 316.131 -2.80506 6.33473 0
M  V30 3254 N 317.924 -2.43408 5.06664 0
M  V30 3255 H 310.075 0.0916097 2.12202 0
M  V30 3256 H 312.338 -0.0216655 0.947752 0
M  V30 3257 H 312.044 -0.670625 3.45247 0
M  V30 3258 H 311.918 -2.34784 2.95222 0
M  V30 3259 H 314.305 -2.19519 1.9722 0
M  V30 3260 H 314.386 -0.510342 2.50657 0
M  V30 3261 H 314.03 -1.28045 4.91495 0
M  V30 3262 H 313.96 -2.96843 4.34962 0
M  V30 3263 H 316.451 -1.78468 3.33103 0
M  V30 3264 H 316.764 -3.08652 7.08487 0
M  V30 3265 H 315.109 -2.78216 6.36884 0
M  V30 3266 H 318.3 -2.13604 4.16523 0
M  V30 3267 H 318.473 -2.72989 5.87691 0
M  V30 3268 N 311.879 -1.3236 -0.855495 0
M  V30 3269 C 312.842 -1.21164 -1.94556 0
M  V30 3270 C 313.842 -0.134908 -1.60233 0
M  V30 3271 O 315.032 -0.385249 -1.69887 0
M  V30 3272 C 312.164 -0.863192 -3.29791 0
M  V30 3273 H 313.357 -2.18038 -2.05911 0
M  V30 3274 H 310.91 -1.16179 -1.04557 0
M  V30 3275 H 311.645 0.103769 -3.24134 0
M  V30 3276 H 311.43 -1.64166 -3.56078 0
M  V30 3277 H 312.92 -0.809156 -4.09686 0
M  V30 3278 N 313.357 1.07166 -1.15556 0
M  V30 3279 C 314.768 1.6127 -0.940693 0
M  V30 3280 C 315.119 1.89251 0.517551 0
M  V30 3281 O 314.244 1.65937 1.38903 0
M  V30 3282 C 314.839 2.92993 -1.7012 0
M  V30 3283 C 313.398 3.43832 -1.53156 0
M  V30 3284 C 312.545 2.1786 -1.71558 0
M  V30 3285 H 315.496 0.90229 -1.30554 0
M  V30 3286 H 315.517 3.62007 -1.17181 0
M  V30 3287 H 315.029 2.72596 -2.76248 0
M  V30 3288 H 313.13 3.69307 -0.494294 0
M  V30 3289 H 313.243 4.19747 -2.30975 0
M  V30 3290 H 311.607 2.2765 -1.14225 0
M  V30 3291 H 312.39 1.99956 -2.79056 0
M  V30 3292 N 314.835 0.952656 1.25548 0
M  V30 3293 C 316.251 0.656769 1.4546 0
M  V30 3294 C 316.451 -0.78633 1.85524 0
M  V30 3295 O 315.507 -1.56183 1.98402 0
M  V30 3296 C 316.82 1.62801 2.52817 0
M  V30 3297 C 318.368 1.63897 2.66659 0
M  V30 3298 C 318.843 2.5978 3.77198 0
M  V30 3299 N 320.334 2.58133 3.84606 0
M  V30 3300 C 321.069 3.29003 4.69621 0
M  V30 3301 N 320.565 4.09339 5.58939 0
M  V30 3302 N 322.358 3.179 4.63569 0
M  V30 3303 H 314.509 1.88526 0.978344 0
M  V30 3304 H 316.772 0.810815 0.491206 0
M  V30 3305 H 316.478 2.65869 2.30232 0
M  V30 3306 H 316.352 1.38898 3.50695 0
M  V30 3307 H 318.739 0.615481 2.8861 0
M  V30 3308 H 318.82 1.91858 1.69187 0
M  V30 3309 H 318.464 3.62254 3.55997 0
M  V30 3310 H 318.394 2.29105 4.7415 0
M  V30 3311 H 320.885 1.99809 3.20757 0
M  V30 3312 H 321.198 4.6034 6.20731 0
M  V30 3313 H 319.543 4.13438 5.58654 0
M  V30 3314 H 322.734 2.54612 3.92798 0
M  V30 3315 H 322.907 3.73398 5.29602 0
M  V30 3316 N 316.313 -1.40141 0.720998 0
M  V30 3317 C 317.559 -2.01084 0.263231 0
M  V30 3318 C 317.892 -1.57052 -1.14229 0
M  V30 3319 O 317.167 -0.793027 -1.77599 0
M  V30 3320 C 317.45 -3.58401 0.349344 0
M  V30 3321 C 317.303 -4.12491 1.79363 0
M  V30 3322 C 318.622 -4.39231 -0.276351 0
M  V30 3323 H 315.741 -0.730572 0.0971228 0
M  V30 3324 H 318.383 -1.66543 0.914518 0
M  V30 3325 H 316.533 -3.87958 -0.205165 0
M  V30 3326 H 318.205 -3.93711 2.40394 0
M  V30 3327 H 316.448 -3.66576 2.31958 0
M  V30 3328 H 317.119 -5.21646 1.80524 0
M  V30 3329 H 319.595 -4.15637 0.196184 0
M  V30 3330 H 318.471 -5.48586 -0.185681 0
M  V30 3331 H 318.732 -4.20643 -1.36059 0
M  V30 3332 N 317.792 -0.46758 -1.50504 0
M  V30 3333 C 319.04 0.0884469 -2.01906 0
M  V30 3334 C 319.361 1.40532 -1.35188 0
M  V30 3335 O 318.631 1.89515 -0.496079 0
M  V30 3336 H 317.211 0.0356765 -0.746148 0
M  V30 3337 H 319.873 -0.6172 -1.84869 0
M  V30 3338 H 318.969 0.2425 -3.11156 0
M  V30 3339 N 319.27 1.56325 -0.20005 0
M  V30 3340 C 320.51 1.99619 0.439519 0
M  V30 3341 C 320.874 1.08423 1.58456 0
M  V30 3342 O 322.075 1.40973 2.28867 0
M  V30 3343 C 320.346 3.46314 0.883258 0
M  V30 3344 S 321.905 4.11634 1.51997 0
M  V30 3345 H 318.723 0.697007 0.140363 0
M  V30 3346 H 321.325 1.93118 -0.304282 0
M  V30 3347 H 320.029 4.10381 0.0398967 0
M  V30 3348 H 319.56 3.56643 1.6604 0
M  V30 3349 H 321.575 4.09049 2.8088 0
M  V30 3350 N 320.748 -0.0735177 1.57428 0
M  V30 3351 C 321.978 -0.78483 1.91112 0
M  V30 3352 C 322.386 -1.71729 0.7941 0
M  V30 3353 O 321.729 -1.82105 -0.241542 0
M  V30 3354 C 321.791 -1.63346 3.20247 0
M  V30 3355 C 321.455 -0.870557 4.48632 0
M  V30 3356 C 322.452 -0.19058 5.19551 0
M  V30 3357 C 320.137 -0.838242 4.95256 0
M  V30 3358 C 322.131 0.511503 6.35344 0
M  V30 3359 C 319.818 -0.132386 6.10957 0
M  V30 3360 C 320.816 0.541288 6.80852 0
M  V30 3361 O 320.504 1.23578 7.94345 0
M  V30 3362 H 320.236 -0.228408 0.636244 0
M  V30 3363 H 322.79 -0.0486039 2.05342 0
M  V30 3364 H 321.02 -2.41245 3.02222 0
M  V30 3365 H 322.709 -2.22329 3.39595 0
M  V30 3366 H 323.475 -0.206864 4.84559 0
M  V30 3367 H 319.354 -1.35206 4.40727 0
M  V30 3368 H 322.898 1.03789 6.89836 0
M  V30 3369 H 318.795 -0.114023 6.45399 0
M  V30 3370 H 319.563 1.14487 8.10454 0
M  V30 3371 N 322.226 -1.5378 -0.344866 0
M  V30 3372 C 323.474 -1.70625 -1.08311 0
M  V30 3373 C 323.795 -0.471447 -1.89215 0
M  V30 3374 O 323.065 0.514616 -1.8902 0
M  V30 3375 H 321.645 -0.629058 -0.402859 0
M  V30 3376 H 324.307 -1.9103 -0.386459 0
M  V30 3377 H 323.403 -2.57656 -1.76124 0
M  V30 3378 N 323.704 0.605807 -1.45491 0
M  V30 3379 C 324.981 1.36522 -1.40075 0
M  V30 3380 C 325.361 2.10976 -0.0722744 0
M  V30 3381 O 324.709 2.08007 0.945808 0
M  V30 3382 C 324.919 2.31056 -2.61561 0
M  V30 3383 C 326.267 2.93608 -3.06724 0
M  V30 3384 O 327.291 2.41376 -2.61946 0
M  V30 3385 O 326.15 3.88421 -3.84437 0
M  V30 3386 H 323.244 0.612248 -0.555951 0
M  V30 3387 H 325.79 0.628747 -1.57623 0
M  V30 3388 H 324.562 1.75311 -3.49831 0
M  V30 3389 H 324.185 3.12081 -2.46356 0
M  V30 3390 N 325.182 1.32811 0.848464 0
M  V30 3391 C 326.129 1.22265 1.95755 0
M  V30 3392 C 327.099 0.103413 1.65778 0
M  V30 3393 O 328.284 0.280033 1.88734 0
M  V30 3394 C 325.424 0.958014 3.31536 0
M  V30 3395 C 324.537 2.16262 3.73971 0
M  V30 3396 C 323.672 1.83295 4.98575 0
M  V30 3397 C 322.711 3.00041 5.33518 0
M  V30 3398 N 321.848 2.67125 6.49299 0
M  V30 3399 H 326.688 2.17128 2.04107 0
M  V30 3400 H 324.225 1.07982 0.998913 0
M  V30 3401 H 326.183 0.785052 4.09747 0
M  V30 3402 H 324.813 0.046159 3.22767 0
M  V30 3403 H 323.865 2.44565 2.91362 0
M  V30 3404 H 325.177 3.03572 3.95785 0
M  V30 3405 H 324.331 1.62586 5.84509 0
M  V30 3406 H 323.07 0.932078 4.7871 0
M  V30 3407 H 322.075 3.21374 4.46093 0
M  V30 3408 H 323.3 3.90869 5.55336 0
M  V30 3409 H 321.246 1.79586 6.3094 0
M  V30 3410 H 321.163 3.47965 6.71161 0
M  V30 3411 H 322.431 2.49861 7.3837 0
M  V30 3412 N 326.66 -1.06551 1.16123 0
M  V30 3413 C 327.593 -2.13382 0.80892 0
M  V30 3414 C 328.571 -1.61128 -0.21827 0
M  V30 3415 O 329.755 -1.88219 -0.102952 0
M  V30 3416 C 326.882 -3.38083 0.204303 0
M  V30 3417 C 325.928 -4.09133 1.20469 0
M  V30 3418 S 326.761 -4.5948 2.75024 0
M  V30 3419 C 327.917 -5.87446 2.16005 0
M  V30 3420 H 328.15 -2.42937 1.71373 0
M  V30 3421 H 325.683 -1.18947 0.984428 0
M  V30 3422 H 327.641 -4.10268 -0.138081 0
M  V30 3423 H 326.302 -3.0669 -0.678234 0
M  V30 3424 H 325.495 -4.98685 0.730019 0
M  V30 3425 H 325.097 -3.4295 1.49202 0
M  V30 3426 H 327.389 -6.60065 1.5271 0
M  V30 3427 H 328.332 -6.39639 3.03756 0
M  V30 3428 H 328.74 -5.41354 1.59989 0
M  V30 3429 N 328.138 -0.959301 -1.25041 0
M  V30 3430 C 329.386 -0.615393 -1.92503 0
M  V30 3431 C 329.707 0.850969 -1.75452 0
M  V30 3432 O 328.977 1.60658 -1.12098 0
M  V30 3433 H 327.557 -0.224613 -0.712431 0
M  V30 3434 H 330.219 -1.21855 -1.5211 0
M  V30 3435 H 329.315 -0.848738 -3.00338 0
M  V30 3436 N 329.616 1.39756 -0.72842 0
M  V30 3437 C 330.563 2.30647 -0.0841519 0
M  V30 3438 C 331.533 1.48869 0.7367 0
M  V30 3439 O 332.718 1.77574 0.698015 0
M  V30 3440 C 329.858 3.35165 0.822091 0
M  V30 3441 C 328.971 4.31999 -0.0106663 0
M  V30 3442 C 328.106 5.23585 0.896241 0
M  V30 3443 C 327.145 6.12072 0.0583381 0
M  V30 3444 N 326.282 6.96035 0.920818 0
M  V30 3445 H 331.122 2.85173 -0.864891 0
M  V30 3446 H 328.659 1.40422 -0.438179 0
M  V30 3447 H 330.617 3.94345 1.36189 0
M  V30 3448 H 329.247 2.8211 1.56888 0
M  V30 3449 H 328.299 3.74492 -0.66781 0
M  V30 3450 H 329.611 4.9443 -0.658825 0
M  V30 3451 H 328.765 5.87759 1.50412 0
M  V30 3452 H 327.504 4.61459 1.57819 0
M  V30 3453 H 326.509 5.46916 -0.562389 0
M  V30 3454 H 327.734 6.76261 -0.6203 0
M  V30 3455 H 325.68 6.36485 1.58818 0
M  V30 3456 H 325.597 7.55284 0.32899 0
M  V30 3457 H 326.865 7.64646 1.51447 0
M  V30 3458 N 331.094 0.475555 1.50254 0
M  V30 3459 C 332.057 -0.305016 2.27161 0
M  V30 3460 C 333.057 -0.916519 1.32123 0
M  V30 3461 O 334.247 -0.785003 1.5551 0
M  V30 3462 C 331.379 -1.43496 3.09227 0
M  V30 3463 H 332.572 0.369511 2.97615 0
M  V30 3464 H 330.125 0.229747 1.54602 0
M  V30 3465 H 330.86 -2.14441 2.43281 0
M  V30 3466 H 330.645 -1.00223 3.79075 0
M  V30 3467 H 332.135 -1.98548 3.67381 0
M  V30 3468 N 332.573 -1.56217 0.208337 0
M  V30 3469 C 333.821 -1.97558 -0.426076 0
M  V30 3470 C 334.142 -1.09683 -1.61229 0
M  V30 3471 O 333.412 -0.170956 -1.95153 0
M  V30 3472 H 331.992 -0.729575 -0.160405 0
M  V30 3473 H 334.654 -1.92606 0.298155 0
M  V30 3474 H 333.75 -3.02672 -0.761312 0
M  V30 3475 N 334.051 0.0651679 -1.57465 0
M  V30 3476 C 335.297 0.764193 -1.87851 0
M  V30 3477 C 335.63 1.76889 -0.801495 0
M  V30 3478 O 334.905 1.93594 0.187528 0
M  V30 3479 C 335.188 1.46625 -3.28897 0
M  V30 3480 C 335.041 0.477515 -4.47258 0
M  V30 3481 C 336.36 2.4095 -3.68281 0
M  V30 3482 H 333.479 0.276351 -0.683227 0
M  V30 3483 H 336.121 0.0272868 -1.8998 0
M  V30 3484 H 334.271 2.09438 -3.27212 0
M  V30 3485 H 335.943 -0.145922 -4.61069 0
M  V30 3486 H 334.186 -0.206576 -4.33308 0
M  V30 3487 H 334.857 1.0065 -5.42746 0
M  V30 3488 H 337.333 1.88209 -3.71102 0
M  V30 3489 H 336.209 2.87072 -4.67847 0
M  V30 3490 H 336.47 3.26049 -2.98571 0
M  V30 3491 N 335.529 1.53961 0.336706 0
M  V30 3492 C 336.945 1.44378 0.680241 0
M  V30 3493 C 337.145 0.606034 1.9217 0
M  V30 3494 O 336.201 0.099688 2.52303 0
M  V30 3495 C 337.514 2.87945 0.8665 0
M  V30 3496 C 339.062 2.97763 0.964682 0
M  V30 3497 C 339.537 4.42453 1.18321 0
M  V30 3498 N 341.028 4.46008 1.25025 0
M  V30 3499 C 341.763 5.55102 1.43697 0
M  V30 3500 N 341.259 6.7419 1.59498 0
M  V30 3501 N 343.052 5.42727 1.463 0
M  V30 3502 H 335.203 2.06918 -0.479455 0
M  V30 3503 H 337.466 0.935634 -0.152619 0
M  V30 3504 H 337.172 3.51691 0.0256937 0
M  V30 3505 H 337.046 3.33293 1.76623 0
M  V30 3506 H 339.433 2.34153 1.796 0
M  V30 3507 H 339.514 2.55766 0.041708 0
M  V30 3508 H 339.158 5.06645 0.356788 0
M  V30 3509 H 339.088 4.82048 2.11985 0
M  V30 3510 H 341.579 3.60196 1.14312 0
M  V30 3511 H 341.892 7.53095 1.734 0
M  V30 3512 H 340.237 6.77123 1.56621 0
M  V30 3513 H 343.428 4.48647 1.33543 0
M  V30 3514 H 343.601 6.27806 1.6051 0
M  V30 3515 N 337.007 -0.598083 1.45811 0
M  V30 3516 C 338.235 -1.38322 1.53866 0
M  V30 3517 C 338.65 -1.87992 0.174479 0
M  V30 3518 O 338.007 -1.62756 -0.825627 0
M  V30 3519 C 338.058 -2.58125 2.53089 0
M  V30 3520 O 337.779 -2.10516 3.84206 0
M  V30 3521 C 339.28 -3.50869 2.70935 0
M  V30 3522 H 336.5 -0.423093 0.520801 0
M  V30 3523 H 339.044 -0.728527 1.91083 0
M  V30 3524 H 337.199 -3.19615 2.18917 0
M  V30 3525 H 337.613 -2.88425 4.38077 0
M  V30 3526 H 339.087 -4.31451 3.44317 0
M  V30 3527 H 339.564 -4.01822 1.77301 0
M  V30 3528 H 340.17 -2.95225 3.06141 0
M  V30 3529 N 338.485 -1.33259 -0.841409 0
M  V30 3530 C 339.715 -1.2742 -1.62628 0
M  V30 3531 C 340.123 0.157604 -1.88542 0
M  V30 3532 O 339.466 1.10938 -1.46419 0
M  V30 3533 C 339.528 -1.97797 -3.00194 0
M  V30 3534 C 339.192 -3.47109 -2.97261 0
M  V30 3535 C 340.189 -4.42358 -2.73159 0
M  V30 3536 C 337.874 -3.89247 -3.17478 0
M  V30 3537 C 339.868 -5.77718 -2.69296 0
M  V30 3538 C 337.555 -5.24713 -3.13241 0
M  V30 3539 C 338.553 -6.1876 -2.89181 0
M  V30 3540 O 338.241 -7.51745 -2.84843 0
M  V30 3541 H 337.973 -0.440436 -0.512827 0
M  V30 3542 H 340.527 -1.76153 -1.05638 0
M  V30 3543 H 338.757 -1.43652 -3.59028 0
M  V30 3544 H 340.446 -1.8549 -3.61038 0
M  V30 3545 H 341.212 -4.11127 -2.57294 0
M  V30 3546 H 337.091 -3.16456 -3.35226 0
M  V30 3547 H 340.635 -6.51097 -2.50436 0
M  V30 3548 H 336.532 -5.55569 -3.28654 0
M  V30 3549 H 337.3 -7.61262 -3.00702 0
M  V30 3550 N 339.963 1.05934 -1.16686 0
M  V30 3551 C 341.211 1.78447 -0.948744 0
M  V30 3552 C 341.532 1.87813 0.524523 0
M  V30 3553 O 340.802 1.38945 1.38098 0
M  V30 3554 H 339.382 0.660971 -0.348033 0
M  V30 3555 H 342.044 1.27947 -1.47022 0
M  V30 3556 H 341.14 2.80394 -1.37061 0
M  V30 3557 N 341.441 0.965919 1.2453 0
M  V30 3558 C 342.688 0.626831 1.92554 0
M  V30 3559 C 343.016 -0.837739 1.75534 0
M  V30 3560 O 342.271 -1.61793 1.10098 0
M  V30 3561 C 342.57 0.945428 3.44669 0
M  V30 3562 C 342.236 2.39785 3.81856 0
M  V30 3563 C 340.898 2.79483 3.91718 0
M  V30 3564 C 343.25 3.34055 4.00071 0
M  V30 3565 C 340.578 4.12496 4.1721 0
M  V30 3566 C 342.93 4.66694 4.27059 0
M  V30 3567 C 341.594 5.06172 4.3514 0
M  V30 3568 H 340.864 0.229374 0.704605 0
M  V30 3569 H 343.511 1.21707 1.4785 0
M  V30 3570 H 341.816 0.272926 3.90848 0
M  V30 3571 H 343.513 0.661484 3.95507 0
M  V30 3572 H 340.103 2.08003 3.74743 0
M  V30 3573 H 344.287 3.04571 3.91855 0
M  V30 3574 H 339.543 4.42709 4.21685 0
M  V30 3575 H 343.717 5.3971 4.40097 0
M  V30 3576 H 341.344 6.09262 4.54646 0
M  V30 3577 N 342.919 -1.39368 0.735821 0
M  V30 3578 C 344.335 -1.54204 0.411492 0
M  V30 3579 C 344.535 -1.70268 -1.07755 0
M  V30 3580 O 343.591 -1.70364 -1.86366 0
M  V30 3581 C 344.904 -2.75925 1.19523 0
M  V30 3582 C 346.452 -2.89761 1.18354 0
M  V30 3583 C 346.927 -4.14421 1.94986 0
M  V30 3584 N 348.418 -4.21462 1.92156 0
M  V30 3585 C 349.153 -5.16871 2.48258 0
M  V30 3586 N 348.649 -6.18063 3.13001 0
M  V30 3587 N 350.442 -5.09093 2.38287 0
M  V30 3588 H 342.593 -1.27189 1.70108 0
M  V30 3589 H 344.856 -0.616517 0.720147 0
M  V30 3590 H 344.562 -2.70401 2.24892 0
M  V30 3591 H 344.436 -3.68614 0.800222 0
M  V30 3592 H 346.823 -2.94777 0.137975 0
M  V30 3593 H 346.904 -1.98133 1.61793 0
M  V30 3594 H 346.548 -4.10166 2.99543 0
M  V30 3595 H 346.478 -5.05095 1.48953 0
M  V30 3596 H 348.969 -3.48979 1.44991 0
M  V30 3597 H 349.282 -6.87326 3.53275 0
M  V30 3598 H 347.627 -6.18448 3.17091 0
M  V30 3599 H 350.818 -4.28973 1.8735 0
M  V30 3600 H 350.991 -5.83272 2.82308 0
M  V30 3601 N 344.397 -0.483516 -1.5 0
M  V30 3602 C 345.622 0.0667119 -2.07293 0
M  V30 3603 C 346.047 1.3164 -1.3436 0
M  V30 3604 O 345.405 1.76945 -0.394987 0
M  V30 3605 C 345.453 0.321126 -3.59167 0
M  V30 3606 O 344.557 1.39927 -3.87936 0
M  V30 3607 H 343.898 -0.0184758 -0.663743 0
M  V30 3608 H 346.428 -0.678125 -1.93035 0
M  V30 3609 H 346.438 0.557906 -4.04168 0
M  V30 3610 H 345.113 -0.592007 -4.11665 0
M  V30 3611 H 343.69 1.14882 -3.54763 0
M  V30 3612 N 345.875 1.56104 -0.216619 0
M  V30 3613 C 347.286 1.844 0.292128 0
M  V30 3614 C 347.637 1.13788 1.59833 0
M  V30 3615 O 346.762 0.405888 2.12559 0
M  V30 3616 C 347.357 3.3452 0.53681 0
M  V30 3617 C 345.916 3.63151 0.989876 0
M  V30 3618 C 345.063 2.77255 0.0502302 0
M  V30 3619 H 348.014 1.52481 -0.439926 0
M  V30 3620 H 348.035 3.54459 1.38345 0
M  V30 3621 H 347.547 3.85885 -0.414031 0
M  V30 3622 H 345.648 3.17238 1.95425 0
M  V30 3623 H 345.761 4.71177 0.867698 0
M  V30 3624 H 344.125 2.48555 0.556117 0
M  V30 3625 H 344.908 3.31416 -0.89544 0
M  V30 3626 N 347.353 -0.0568162 1.57498 0
M  V30 3627 C 348.285 -1.09292 2.01464 0
M  V30 3628 C 349.298 -1.34112 0.922913 0
M  V30 3629 O 350.487 -1.32089 1.20062 0
M  V30 3630 C 347.587 -2.44068 2.35125 0
M  V30 3631 C 346.76 -2.38995 3.66333 0
M  V30 3632 C 345.819 -3.55997 3.87495 0
M  V30 3633 O 344.845 -3.36746 4.58901 0
M  V30 3634 N 346.047 -4.76888 3.30996 0
M  V30 3635 H 348.812 -0.718386 2.90963 0
M  V30 3636 H 346.373 -0.245235 1.60032 0
M  V30 3637 H 348.365 -3.21011 2.46443 0
M  V30 3638 H 346.935 -2.73468 1.5144 0
M  V30 3639 H 346.155 -1.47336 3.65631 0
M  V30 3640 H 347.443 -2.3272 4.52458 0
M  V30 3641 H 346.841 -4.95431 2.73065 0
M  V30 3642 H 345.398 -5.51291 3.47738 0
M  V30 3643 N 348.832 -1.54138 -0.328536 0
M  V30 3644 C 349.742 -1.86192 -1.42723 0
M  V30 3645 C 350.758 -0.753382 -1.56844 0
M  V30 3646 O 351.934 -1.04718 -1.72035 0
M  V30 3647 C 348.999 -2.07824 -2.77507 0
M  V30 3648 C 348.06 -3.31641 -2.72603 0
M  V30 3649 C 347.293 -3.52232 -4.00959 0
M  V30 3650 O 347.516 -2.7636 -4.9898 0
M  V30 3651 O 346.45 -4.45699 -4.0452 0
M  V30 3652 H 350.276 -2.79608 -1.18547 0
M  V30 3653 H 347.861 -1.3998 -0.522104 0
M  V30 3654 H 349.743 -2.23411 -3.57303 0
M  V30 3655 H 348.418 -1.17596 -3.01584 0
M  V30 3656 H 347.325 -3.21444 -1.91376 0
M  V30 3657 H 348.658 -4.2191 -2.53481 0
M  V30 3658 N 350.31 0.590341 -1.46126 0
M  V30 3659 C 351.538 1.37504 -1.54597 0
M  V30 3660 C 351.953 1.87897 -0.184447 0
M  V30 3661 O 351.31 1.63192 0.816984 0
M  V30 3662 C 351.361 2.56779 -2.54454 0
M  V30 3663 O 351.082 2.08476 -3.85317 0
M  V30 3664 C 352.583 3.49427 -2.72792 0
M  V30 3665 H 349.803 0.420325 -0.523037 0
M  V30 3666 H 352.347 0.718383 -1.91467 0
M  V30 3667 H 350.502 3.1845 -2.20609 0
M  V30 3668 H 350.916 2.86097 -4.396 0
M  V30 3669 H 352.39 4.29619 -3.466 0
M  V30 3670 H 352.867 4.00876 -1.79429 0
M  V30 3671 H 353.473 2.93598 -3.07702 0
M  V30 3672 N 351.788 1.33704 0.83433 0
M  V30 3673 C 353.018 1.28281 1.6195 0
M  V30 3674 C 353.426 -0.147603 1.88623 0
M  V30 3675 O 352.769 -1.1016 1.47005 0
M  V30 3676 C 352.831 1.99386 2.99141 0
M  V30 3677 C 352.495 3.48681 2.95416 0
M  V30 3678 C 353.492 4.438 2.70809 0
M  V30 3679 C 351.177 3.90925 3.15409 0
M  V30 3680 C 353.171 5.79138 2.66229 0
M  V30 3681 C 350.858 5.26366 3.10454 0
M  V30 3682 C 351.856 6.20284 2.85895 0
M  V30 3683 O 351.544 7.53245 2.80852 0
M  V30 3684 H 351.276 0.44315 0.510484 0
M  V30 3685 H 353.83 1.76711 1.04702 0
M  V30 3686 H 352.06 1.45554 3.58261 0
M  V30 3687 H 353.749 1.87403 3.60049 0
M  V30 3688 H 354.515 4.12485 2.5511 0
M  V30 3689 H 350.394 3.18229 3.33543 0
M  V30 3690 H 353.938 6.52416 2.4698 0
M  V30 3691 H 349.835 5.57304 3.25703 0
M  V30 3692 H 350.603 7.62846 2.96661 0
M  V30 3693 N 353.266 -1.05314 1.17247 0
M  V30 3694 C 354.543 -1.75184 0.87005 0
M  V30 3695 C 354.923 -2.01481 -0.629965 0
M  V30 3696 O 354.271 -1.64988 -1.58086 0
M  V30 3697 C 354.481 -3.04594 1.70363 0
M  V30 3698 C 355.829 -3.78567 1.92281 0
M  V30 3699 O 356.853 -3.14461 1.67311 0
M  V30 3700 O 355.712 -4.93755 2.3424 0
M  V30 3701 H 352.806 -0.761729 0.322021 0
M  V30 3702 H 355.352 -1.11493 1.27935 0
M  V30 3703 H 354.124 -2.81201 2.72106 0
M  V30 3704 H 353.747 -3.76022 1.29202 0
M  V30 3705 N 354.744 -0.972509 -1.24016 0
M  V30 3706 C 355.99 -0.637978 -1.92504 0
M  V30 3707 C 356.323 0.825383 -1.75787 0
M  V30 3708 O 355.598 1.59442 -1.11393 0
M  V30 3709 C 355.881 -1.01942 -3.45369 0
M  V30 3710 C 355.734 -2.53983 -3.71231 0
M  V30 3711 C 357.053 -0.55751 -4.36555 0
M  V30 3712 H 354.172 -0.233248 -0.699117 0
M  V30 3713 H 356.814 -1.21238 -1.46292 0
M  V30 3714 H 354.964 -0.530656 -3.84859 0
M  V30 3715 H 356.636 -3.10374 -3.41271 0
M  V30 3716 H 354.879 -2.96968 -3.16216 0
M  V30 3717 H 355.55 -2.75723 -4.78206 0
M  V30 3718 H 358.026 -0.977029 -4.04467 0
M  V30 3719 H 356.902 -0.85292 -5.42233 0
M  V30 3720 H 357.163 0.542328 -4.38761 0
M  V30 3721 N 356.222 1.38976 -0.743202 0
M  V30 3722 C 357.452 2.04339 -0.304807 0
M  V30 3723 C 357.86 1.56162 1.06819 0
M  V30 3724 O 357.203 0.725284 1.68776 0
M  V30 3725 C 357.265 3.58716 -0.237369 0
M  V30 3726 C 356.929 4.29905 -1.55018 0
M  V30 3727 C 357.926 4.55987 -2.49744 0
M  V30 3728 C 355.611 4.68294 -1.81675 0
M  V30 3729 C 357.605 5.19478 -3.69353 0
M  V30 3730 C 355.292 5.31512 -3.0156 0
M  V30 3731 C 356.29 5.57037 -3.9522 0
M  V30 3732 O 355.978 6.18941 -5.12998 0
M  V30 3733 H 355.71 0.663439 -0.12971 0
M  V30 3734 H 358.264 1.78852 -1.01001 0
M  V30 3735 H 356.494 3.83133 0.524003 0
M  V30 3736 H 358.183 4.05543 0.170121 0
M  V30 3737 H 358.949 4.26767 -2.30423 0
M  V30 3738 H 354.828 4.47779 -1.09615 0
M  V30 3739 H 358.372 5.39318 -4.42473 0
M  V30 3740 H 354.269 5.60153 -3.20778 0
M  V30 3741 H 355.037 6.37433 -5.13441 0
M  V30 3742 N 357.7 0.491464 1.49741 0
M  V30 3743 C 358.94 -0.0549118 2.04326 0
M  V30 3744 C 359.304 -1.35148 1.36378 0
M  V30 3745 O 360.505 -1.9815 1.81631 0
M  V30 3746 C 358.776 -0.213841 3.5676 0
M  V30 3747 S 360.335 -0.715839 4.32922 0
M  V30 3748 H 357.153 -0.00630513 0.710972 0
M  V30 3749 H 359.755 0.663257 1.83905 0
M  V30 3750 H 358.459 0.73527 4.0376 0
M  V30 3751 H 357.99 -0.957529 3.81569 0
M  V30 3752 H 360.005 -1.9864 4.54705 0
M  V30 3753 N 359.178 -1.55987 0.224894 0
M  V30 3754 C 360.408 -2.02489 -0.41007 0
M  V30 3755 C 360.816 -1.10391 -1.53657 0
M  V30 3756 O 360.159 -0.106458 -1.83391 0
M  V30 3757 C 360.221 -3.45319 -0.999757 0
M  V30 3758 C 359.885 -4.56999 -0.00827976 0
M  V30 3759 C 360.882 -5.13812 0.793314 0
M  V30 3760 C 358.567 -5.02176 0.111442 0
M  V30 3761 C 360.561 -6.14276 1.7013 0
M  V30 3762 C 358.248 -6.02477 1.02296 0
M  V30 3763 C 359.246 -6.58403 1.81643 0
M  V30 3764 O 358.934 -7.56751 2.71262 0
M  V30 3765 H 358.666 -0.667915 -0.104235 0
M  V30 3766 H 361.22 -2.0257 0.339782 0
M  V30 3767 H 359.45 -3.42318 -1.79876 0
M  V30 3768 H 361.139 -3.7545 -1.54248 0
M  V30 3769 H 361.905 -4.79756 0.711288 0
M  V30 3770 H 357.784 -4.58323 -0.49605 0
M  V30 3771 H 361.328 -6.57854 2.32107 0
M  V30 3772 H 357.225 -6.35954 1.10599 0
M  V30 3773 H 357.993 -7.74286 2.65375 0
M  V30 3774 N 360.656 0.0484629 -1.57525 0
M  V30 3775 C 361.902 0.744226 -1.88651 0
M  V30 3776 C 362.235 1.76029 -0.820212 0
M  V30 3777 O 361.51 1.93782 0.166985 0
M  V30 3778 C 361.793 1.43128 -3.30434 0
M  V30 3779 C 361.646 0.43005 -4.47739 0
M  V30 3780 C 362.965 2.37031 -3.70816 0
M  V30 3781 H 360.084 0.269089 -0.68612 0
M  V30 3782 H 362.726 0.00713532 -1.89999 0
M  V30 3783 H 360.876 2.05956 -3.29415 0
M  V30 3784 H 362.548 -0.194816 -4.60888 0
M  V30 3785 H 360.791 -0.252522 -4.33064 0
M  V30 3786 H 361.462 0.948874 -5.43783 0
M  V30 3787 H 363.938 1.84263 -3.73077 0
M  V30 3788 H 362.814 2.82094 -4.70865 0
M  V30 3789 H 363.075 3.22864 -3.02012 0
M  V30 3790 N 362.134 1.5431 0.320358 0
M  V30 3791 C 363.411 1.63322 1.07635 0
M  V30 3792 C 363.791 0.46912 2.05821 0
M  V30 3793 O 363.139 -0.536274 2.22118 0
M  V30 3794 C 363.349 3.00465 1.77544 0
M  V30 3795 C 364.697 3.56621 2.30449 0
M  V30 3796 O 365.721 3.02791 1.87606 0
M  V30 3797 O 364.58 4.5083 3.08892 0
M  V30 3798 H 361.674 0.661502 0.496331 0
M  V30 3799 H 364.22 1.66656 0.319992 0
M  V30 3800 H 362.992 3.76629 1.06143 0
M  V30 3801 H 362.615 3.00824 2.59982 0
M  V30 3802 N 363.613 -0.582584 1.46437 0
M  V30 3803 C 364.563 -1.68654 1.53426 0
M  V30 3804 C 365.547 -1.55971 0.395194 0
M  V30 3805 O 366.739 -1.64884 0.643612 0
M  V30 3806 C 363.868 -3.07439 1.52762 0
M  V30 3807 C 362.954 -3.25418 2.71963 0
M  V30 3808 N 363.345 -3.13556 3.96883 0
M  V30 3809 C 361.643 -3.56357 2.68189 0
M  V30 3810 C 362.344 -3.33543 4.76575 0
M  V30 3811 N 361.32 -3.58704 4.08451 0
M  V30 3812 H 365.122 -1.58014 2.47808 0
M  V30 3813 H 362.636 -0.786617 1.42078 0
M  V30 3814 H 364.633 -3.86671 1.55857 0
M  V30 3815 H 363.293 -3.1921 0.594573 0
M  V30 3816 H 364.304 -2.9142 4.28129 0
M  V30 3817 H 360.981 -3.74812 1.83908 0
M  V30 3818 H 362.371 -3.29555 5.85528 0
M  V30 3819 N 365.091 -1.34144 -0.827227 0
M  V30 3820 C 366.021 -1.28005 -1.95287 0
M  V30 3821 C 367.002 -0.158321 -1.69362 0
M  V30 3822 O 368.187 -0.349987 -1.9102 0
M  V30 3823 C 365.317 -1.03036 -3.31664 0
M  V30 3824 C 364.271 -2.11628 -3.72019 0
M  V30 3825 C 363.597 -1.71854 -5.0633 0
M  V30 3826 C 364.897 -3.53417 -3.8457 0
M  V30 3827 H 366.591 -2.22187 -2.00682 0
M  V30 3828 H 364.137 -1.0696 -0.964135 0
M  V30 3829 H 366.09 -0.973863 -4.09993 0
M  V30 3830 H 364.814 -0.0529391 -3.26557 0
M  V30 3831 H 363.473 -2.16339 -2.95961 0
M  V30 3832 H 363.121 -0.727841 -4.97706 0
M  V30 3833 H 362.821 -2.44531 -5.34302 0
M  V30 3834 H 364.345 -1.67692 -5.87122 0
M  V30 3835 H 365.759 -3.51142 -4.5318 0
M  V30 3836 H 364.156 -4.24679 -4.2399 0
M  V30 3837 H 365.226 -3.91072 -2.86689 0
M  V30 3838 N 366.569 1.04691 -1.17803 0
M  V30 3839 C 367.846 1.7472 -0.879328 0
M  V30 3840 C 368.226 2.01812 0.619271 0
M  V30 3841 O 367.574 1.65824 1.57209 0
M  V30 3842 C 367.784 3.03686 -1.71976 0
M  V30 3843 C 369.132 3.77542 -1.94286 0
M  V30 3844 O 370.156 3.13569 -1.68976 0
M  V30 3845 O 369.015 4.92506 -2.36855 0
M  V30 3846 H 366.109 0.760011 -0.326056 0
M  V30 3847 H 368.655 1.10813 -1.28525 0
M  V30 3848 H 367.427 2.79754 -2.73594 0
M  V30 3849 H 367.05 3.75332 -1.31194 0
M  V30 3850 N 368.047 0.979072 1.23499 0
M  V30 3851 C 369.295 0.645941 1.91499 0
M  V30 3852 C 369.616 -0.822948 1.76784 0
M  V30 3853 O 368.886 -1.58854 1.14639 0
M  V30 3854 H 367.466 0.235919 0.708767 0
M  V30 3855 H 370.128 1.2426 1.50152 0
M  V30 3856 H 369.224 0.896411 2.9895 0
M  V30 3857 N 369.525 -1.3858 0.750561 0
M  V30 3858 C 370.802 -1.94231 0.231009 0
M  V30 3859 C 371.182 -1.68611 -1.27018 0
M  V30 3860 O 370.53 -1.02296 -2.04323 0
M  V30 3861 C 370.74 -3.44123 0.581428 0
M  V30 3862 C 372.088 -4.2116 0.539389 0
M  V30 3863 O 373.112 -3.52391 0.519541 0
M  V30 3864 O 371.971 -5.43749 0.54765 0
M  V30 3865 H 369.065 -0.825639 0.0474263 0
M  V30 3866 H 371.611 -1.4799 0.830478 0
M  V30 3867 H 370.383 -3.56267 1.61833 0
M  V30 3868 H 370.006 -3.97573 -0.0462047 0
M  V30 3869 N 371.003 -0.499398 -1.49478 0
M  V30 3870 C 372.249 0.0457576 -2.02748 0
M  V30 3871 C 372.582 1.36793 -1.37846 0
M  V30 3872 O 371.857 1.87596 -0.513601 0
M  V30 3873 C 372.14 0.199986 -3.59544 0
M  V30 3874 C 371.993 -1.1452 -4.34977 0
M  V30 3875 C 373.312 0.94137 -4.29914 0
M  V30 3876 H 370.431 0.0151552 -0.736844 0
M  V30 3877 H 373.073 -0.650498 -1.78518 0
M  V30 3878 H 371.223 0.793007 -3.8032 0
M  V30 3879 H 372.895 -1.77697 -4.25701 0
M  V30 3880 H 371.138 -1.73488 -3.97598 0
M  V30 3881 H 371.809 -0.990607 -5.43039 0
M  V30 3882 H 374.285 0.43844 -4.13784 0
M  V30 3883 H 373.161 1.01812 -5.39375 0
M  V30 3884 H 373.422 1.98471 -3.95046 0
M  V30 3885 N 372.481 1.55866 -0.233164 0
M  V30 3886 C 373.728 1.98603 0.395374 0
M  V30 3887 C 374.056 1.12105 1.58942 0
M  V30 3888 O 373.311 0.168656 1.94972 0
M  V30 3889 C 373.61 3.46856 0.861724 0
M  V30 3890 C 373.276 4.50348 -0.223066 0
M  V30 3891 C 371.938 4.78371 -0.521038 0
M  V30 3892 C 374.29 5.12355 -0.956124 0
M  V30 3893 C 371.618 5.6568 -1.55638 0
M  V30 3894 C 373.97 6.00786 -1.98089 0
M  V30 3895 C 372.634 6.27148 -2.28565 0
M  V30 3896 H 371.904 0.726739 0.144677 0
M  V30 3897 H 374.551 1.88491 -0.338114 0
M  V30 3898 H 372.856 3.5423 1.67418 0
M  V30 3899 H 374.553 3.77302 1.35809 0
M  V30 3900 H 371.143 4.28596 0.0193234 0
M  V30 3901 H 375.327 4.90765 -0.739166 0
M  V30 3902 H 370.583 5.84365 -1.798 0
M  V30 3903 H 374.757 6.4788 -2.55391 0
M  V30 3904 H 372.384 6.94597 -3.08932 0
M  V30 3905 N 373.959 -0.0401083 1.57549 0
M  V30 3906 C 374.909 -1.05175 2.02292 0
M  V30 3907 C 375.893 -1.32674 0.910294 0
M  V30 3908 O 377.085 -1.32444 1.17421 0
M  V30 3909 C 374.214 -2.35622 2.49674 0
M  V30 3910 C 373.3 -2.11261 3.67736 0
M  V30 3911 N 373.691 -1.56923 4.80842 0
M  V30 3912 C 371.989 -2.41596 3.74897 0
M  V30 3913 C 372.69 -1.48111 5.62528 0
M  V30 3914 N 371.666 -1.95282 5.07312 0
M  V30 3915 H 375.468 -0.625455 2.87168 0
M  V30 3916 H 372.982 -0.246624 1.60516 0
M  V30 3917 H 374.979 -3.08893 2.79983 0
M  V30 3918 H 373.639 -2.7894 1.662 0
M  V30 3919 H 374.65 -1.25345 5.02503 0
M  V30 3920 H 371.327 -2.88064 3.02201 0
M  V30 3921 H 372.717 -1.06683 6.63377 0
M  V30 3922 N 375.437 -1.54477 -0.31217 0
M  V30 3923 C 376.367 -1.87652 -1.38957 0
M  V30 3924 C 377.348 -0.734358 -1.53431 0
M  V30 3925 O 378.533 -0.98911 -1.67123 0
M  V30 3926 C 375.663 -2.11396 -2.75552 0
M  V30 3927 C 374.617 -3.27243 -2.75855 0
M  V30 3928 C 373.943 -3.36382 -4.15633 0
M  V30 3929 C 375.243 -4.64622 -2.38587 0
M  V30 3930 H 376.937 -2.77887 -1.11442 0
M  V30 3931 H 374.483 -1.33707 -0.534655 0
M  V30 3932 H 376.436 -2.33189 -3.51 0
M  V30 3933 H 375.16 -1.17921 -3.04569 0
M  V30 3934 H 373.819 -3.05356 -2.02863 0
M  V30 3935 H 373.467 -2.40445 -4.41809 0
M  V30 3936 H 373.167 -4.14249 -4.1674 0
M  V30 3937 H 374.691 -3.60422 -4.92877 0
M  V30 3938 H 376.105 -4.86219 -3.03749 0
M  V30 3939 H 374.502 -5.45121 -2.50925 0
M  V30 3940 H 375.572 -4.66097 -1.33723 0
M  V30 3941 N 376.915 0.57481 -1.46744 0
M  V30 3942 C 378.143 1.35856 -1.56047 0
M  V30 3943 C 378.558 1.87691 -0.204365 0
M  V30 3944 O 377.915 1.64049 0.79963 0
M  V30 3945 C 377.966 2.54066 -2.57163 0
M  V30 3946 O 377.687 2.04377 -3.87507 0
M  V30 3947 C 379.188 3.46514 -2.76483 0
M  V30 3948 H 376.408 0.414754 -0.527466 0
M  V30 3949 H 378.952 0.698035 -1.92218 0
M  V30 3950 H 377.107 3.16092 -2.23974 0
M  V30 3951 H 377.521 2.81419 -4.4261 0
M  V30 3952 H 378.995 4.25919 -3.51137 0
M  V30 3953 H 379.472 3.98951 -1.83671 0
M  V30 3954 H 380.078 2.90318 -3.10799 0
M  V30 3955 N 378.394 1.34581 0.820102 0
M  V30 3956 C 379.64 1.27285 1.57881 0
M  V30 3957 C 379.973 -0.156137 1.93571 0
M  V30 3958 O 379.248 -1.10222 1.60254 0
M  V30 3959 C 379.531 2.16639 2.87645 0
M  V30 3960 C 379.384 3.68088 2.58517 0
M  V30 3961 C 380.703 2.05378 3.8924 0
M  V30 3962 H 377.822 0.463714 0.572833 0
M  V30 3963 H 380.464 1.64859 0.944539 0
M  V30 3964 H 378.614 1.84725 3.41773 0
M  V30 3965 H 380.286 4.10382 2.10676 0
M  V30 3966 H 378.529 3.89038 1.91917 0
M  V30 3967 H 379.2 4.2598 3.51063 0
M  V30 3968 H 381.676 2.33404 3.44473 0
M  V30 3969 H 380.552 2.7012 4.77835 0
M  V30 3970 H 380.813 1.0316 4.29896 0
M  V30 3971 N 379.872 -1.04064 1.18357 0
M  V30 3972 C 381.283 -1.58719 0.98312 0
M  V30 3973 C 381.634 -1.90556 -0.467193 0
M  V30 3974 O 380.759 -1.69561 -1.34454 0
M  V30 3975 C 381.354 -2.88379 1.77828 0
M  V30 3976 C 379.913 -3.3965 1.62218 0
M  V30 3977 C 379.06 -2.13235 1.77274 0
M  V30 3978 H 382.011 -0.867359 1.32901 0
M  V30 3979 H 382.032 -3.58773 1.26737 0
M  V30 3980 H 381.544 -2.65176 2.83379 0
M  V30 3981 H 379.645 -3.67866 0.592036 0
M  V30 3982 H 379.758 -4.13475 2.42023 0
M  V30 3983 H 378.122 -2.24542 1.20221 0
M  V30 3984 H 378.905 -1.92487 2.8426 0
M  V30 3985 N 381.35 -0.985608 -1.22978 0
M  V30 3986 C 382.575 -0.675254 -1.961 0
M  V30 3987 C 383 0.752154 -1.72407 0
M  V30 3988 O 382.358 1.5131 -0.998751 0
M  V30 3989 C 382.406 -0.977899 -3.47087 0
M  V30 3990 O 381.51 -0.072685 -4.12336 0
M  V30 3991 H 380.851 -0.253443 -0.613728 0
M  V30 3992 H 383.381 -1.32061 -1.56272 0
M  V30 3993 H 383.391 -0.916739 -3.97567 0
M  V30 3994 H 382.066 -2.01807 -3.63657 0
M  V30 3995 H 380.643 -0.188703 -3.72422 0
M  V30 3996 N 382.828 1.3818 -0.7579 0
M  V30 3997 C 383.775 2.30416 -0.133057 0
M  V30 3998 C 384.745 1.50398 0.704957 0
M  V30 3999 O 385.93 1.79014 0.660192 0
M  V30 4000 C 383.07 3.36834 0.750813 0
M  V30 4001 C 382.183 4.31879 -0.102297 0
M  V30 4002 C 381.318 5.25368 0.784979 0
M  V30 4003 C 380.357 6.12058 -0.0715046 0
M  V30 4004 N 379.494 6.97832 0.772972 0
M  V30 4005 H 384.334 2.83274 -0.925186 0
M  V30 4006 H 381.871 1.39461 -0.467866 0
M  V30 4007 H 383.829 3.97145 1.27794 0
M  V30 4008 H 382.459 2.85374 1.50868 0
M  V30 4009 H 381.511 3.72991 -0.747095 0
M  V30 4010 H 382.823 4.92921 -0.763552 0
M  V30 4011 H 381.977 5.90818 1.37911 0
M  V30 4012 H 380.716 4.64703 1.47996 0
M  V30 4013 H 379.721 5.456 -0.678272 0
M  V30 4014 H 380.946 6.74793 -0.763606 0
M  V30 4015 H 378.892 6.3971 1.45282 0
M  V30 4016 H 378.809 7.55812 0.168709 0
M  V30 4017 H 380.077 7.67687 1.35194 0
M  V30 4018 N 384.306 0.507319 1.49211 0
M  V30 4019 C 385.553 -0.0349529 2.0247 0
M  V30 4020 C 385.881 -1.36409 1.38647 0
M  V30 4021 O 385.136 -1.88841 0.513566 0
M  V30 4022 C 385.435 -0.229513 3.56662 0
M  V30 4023 C 385.101 1.02241 4.39156 0
M  V30 4024 C 383.763 1.36557 4.61417 0
M  V30 4025 C 386.115 1.85428 4.871 0
M  V30 4026 C 383.443 2.53999 5.28868 0
M  V30 4027 C 385.795 3.02028 5.55843 0
M  V30 4028 C 384.459 3.36717 5.76349 0
M  V30 4029 H 383.729 -0.0127902 0.74089 0
M  V30 4030 H 386.376 0.668756 1.79443 0
M  V30 4031 H 384.681 -1.0158 3.78403 0
M  V30 4032 H 386.378 -0.663641 3.9547 0
M  V30 4033 H 382.968 0.745124 4.22073 0
M  V30 4034 H 387.152 1.6023 4.69723 0
M  V30 4035 H 382.408 2.81105 5.42946 0
M  V30 4036 H 386.582 3.66808 5.91967 0
M  V30 4037 H 384.209 4.27821 6.28389 0
M  V30 4038 N 385.784 -1.5574 0.241426 0
M  V30 4039 C 387.012 -2.03208 -0.389134 0
M  V30 4040 C 387.427 -1.12082 -1.51931 0
M  V30 4041 O 386.784 -0.134183 -1.82006 0
M  V30 4042 C 386.835 -3.50064 -0.902087 0
M  V30 4043 O 386.556 -4.37717 0.18305 0
M  V30 4044 C 388.057 -4.13268 -1.60389 0
M  V30 4045 H 385.277 -0.664509 -0.0931053 0
M  V30 4046 H 387.821 -2.0124 0.36369 0
M  V30 4047 H 385.976 -3.52583 -1.60511 0
M  V30 4048 H 386.39 -5.24097 -0.205579 0
M  V30 4049 H 387.864 -5.17733 -1.91458 0
M  V30 4050 H 388.341 -3.59434 -2.52397 0
M  V30 4051 H 388.947 -4.14655 -0.945576 0
M  V30 4052 N 387.262 0.0317525 -1.57568 0
M  V30 4053 C 388.509 0.723104 -1.89149 0
M  V30 4054 C 388.837 1.75504 -0.838377 0
M  V30 4055 O 388.092 1.95037 0.160982 0
M  V30 4056 C 388.391 1.43167 -3.27472 0
M  V30 4057 C 388.057 0.535972 -4.47703 0
M  V30 4058 C 386.719 0.289262 -4.8033 0
M  V30 4059 C 389.071 -0.0826125 -5.21135 0
M  V30 4060 C 386.399 -0.584853 -5.83778 0
M  V30 4061 C 388.751 -0.944414 -6.25511 0
M  V30 4062 C 387.415 -1.20061 -6.56614 0
M  V30 4063 H 386.685 0.264602 -0.692146 0
M  V30 4064 H 389.332 -0.0169496 -1.91492 0
M  V30 4065 H 387.637 2.24497 -3.21105 0
M  V30 4066 H 389.334 1.97209 -3.49155 0
M  V30 4067 H 385.924 0.738414 -4.22191 0
M  V30 4068 H 390.108 0.0950302 -4.96209 0
M  V30 4069 H 385.364 -0.79168 -6.06253 0
M  V30 4070 H 389.538 -1.43026 -6.81554 0
M  V30 4071 H 387.165 -1.87967 -7.36595 0
M  V30 4072 N 388.74 1.54641 0.303973 0
M  V30 4073 C 389.65 1.88439 1.39743 0
M  V30 4074 C 390.666 0.778239 1.55626 0
M  V30 4075 O 391.842 1.07442 1.70347 0
M  V30 4076 C 388.907 2.12212 2.74166 0
M  V30 4077 C 387.968 3.35936 2.67293 0
M  V30 4078 C 387.201 3.58566 3.95305 0
M  V30 4079 O 387.424 2.84263 4.9452 0
M  V30 4080 O 386.358 4.52078 3.97378 0
M  V30 4081 H 390.184 2.81458 1.14083 0
M  V30 4082 H 387.769 1.40793 0.499768 0
M  V30 4083 H 389.651 2.29067 3.53704 0
M  V30 4084 H 388.326 1.22379 2.99675 0
M  V30 4085 H 387.233 3.24448 1.86237 0
M  V30 4086 H 388.566 4.2589 2.46736 0
M  V30 4087 N 390.218 -0.567019 1.47046 0
M  V30 4088 C 391.128 -1.70247 1.6141 0
M  V30 4089 C 392.144 -1.66746 0.497157 0
M  V30 4090 O 393.32 -1.86371 0.763389 0
M  V30 4091 C 390.385 -3.06756 1.61561 0
M  V30 4092 C 389.446 -3.21399 2.84607 0
M  V30 4093 C 388.679 -4.51396 2.84741 0
M  V30 4094 O 388.902 -5.36255 1.94388 0
M  V30 4095 O 387.836 -4.69621 3.76483 0
M  V30 4096 H 391.662 -1.61073 2.57467 0
M  V30 4097 H 389.247 -0.735894 1.30019 0
M  V30 4098 H 391.129 -3.8801 1.64396 0
M  V30 4099 H 389.804 -3.16333 0.686684 0
M  V30 4100 H 388.711 -2.39579 2.8732 0
M  V30 4101 H 390.044 -3.16721 3.76761 0
M  V30 4102 N 391.696 -1.35014 -0.812953 0
M  V30 4103 C 392.659 -1.27292 -1.90602 0
M  V30 4104 C 393.659 -0.185817 -1.59723 0
M  V30 4105 O 394.849 -0.439102 -1.68575 0
M  V30 4106 C 391.981 -0.967676 -3.26877 0
M  V30 4107 H 393.174 -2.24479 -1.9887 0
M  V30 4108 H 390.727 -1.19446 -1.00808 0
M  V30 4109 H 391.462 0.0005954 -3.243 0
M  V30 4110 H 391.247 -1.75412 -3.50675 0
M  V30 4111 H 392.737 -0.939085 -4.06904 0
M  V30 4112 N 393.175 1.03435 -1.18907 0
M  V30 4113 C 394.138 2.09756 -0.923844 0
M  V30 4114 C 395.138 1.60528 0.093416 0
M  V30 4115 O 396.328 1.73631 -0.140727 0
M  V30 4116 C 393.46 3.38692 -0.387354 0
M  V30 4117 H 394.653 2.34719 -1.86674 0
M  V30 4118 H 392.206 1.19959 -1.00197 0
M  V30 4119 H 392.941 3.19396 0.561845 0
M  V30 4120 H 392.726 3.75742 -1.12074 0
M  V30 4121 H 394.216 4.17016 -0.220694 0
M  V30 4122 N 394.653 0.992116 1.22453 0
M  V30 4123 C 395.6 0.541731 2.24352 0
M  V30 4124 C 396.57 -0.425519 1.60557 0
M  V30 4125 O 397.755 -0.330453 1.87917 0
M  V30 4126 C 394.895 -0.138248 3.44823 0
M  V30 4127 C 394.008 0.870649 4.23136 0
M  V30 4128 C 393.143 0.164269 5.30946 0
M  V30 4129 C 392.182 1.16159 6.00977 0
M  V30 4130 N 391.319 0.483568 7.00433 0
M  V30 4131 H 396.159 1.41541 2.62241 0
M  V30 4132 H 393.696 0.709013 1.28885 0
M  V30 4133 H 395.654 -0.5494 4.13567 0
M  V30 4134 H 394.284 -0.975721 3.077 0
M  V30 4135 H 393.336 1.40013 3.53696 0
M  V30 4136 H 394.648 1.63014 4.7141 0
M  V30 4137 H 393.802 -0.303653 6.0594 0
M  V30 4138 H 392.541 -0.627733 4.83643 0
M  V30 4139 H 391.546 1.64015 5.24766 0
M  V30 4140 H 392.771 1.95445 6.50368 0
M  V30 4141 H 390.717 -0.289012 6.55363 0
M  V30 4142 H 390.634 1.18152 7.4671 0
M  V30 4143 H 391.902 0.0384219 7.79491 0
M  V30 4144 N 396.131 -1.37776 0.765217 0
M  V30 4145 C 397.041 -2.34135 0.147666 0
M  V30 4146 C 398.057 -1.59854 -0.687215 0
M  V30 4147 O 399.233 -1.91983 -0.608659 0
M  V30 4148 C 396.298 -3.3901 -0.72617 0
M  V30 4149 C 395.359 -4.2912 0.124417 0
M  V30 4150 C 394.592 -5.28986 -0.707807 0
M  V30 4151 O 394.815 -5.36205 -1.94525 0
M  V30 4152 O 393.749 -6.01779 -0.12046 0
M  V30 4153 H 397.575 -2.88664 0.943758 0
M  V30 4154 H 395.16 -1.39824 0.526277 0
M  V30 4155 H 397.042 -4.03195 -1.22524 0
M  V30 4156 H 395.717 -2.86819 -1.50056 0
M  V30 4157 H 394.624 -3.68057 0.669696 0
M  V30 4158 H 395.957 -4.84598 0.861736 0
M  V30 4159 N 397.609 -0.515225 -1.4894 0
M  V30 4160 C 398.849 0.0223983 -2.04388 0
M  V30 4161 C 399.213 1.32961 -1.38511 0
M  V30 4162 O 400.414 1.95236 -1.8476 0
M  V30 4163 C 398.685 0.157056 -3.57055 0
M  V30 4164 S 400.244 0.646875 -4.34006 0
M  V30 4165 H 397.062 -0.00500662 -0.710982 0
M  V30 4166 H 399.664 -0.69243 -1.82827 0
M  V30 4167 H 398.368 -0.799412 -4.02539 0
M  V30 4168 H 397.899 0.896704 -3.83044 0
M  V30 4169 H 399.914 1.91381 -4.57808 0
M  V30 4170 N 399.087 1.5561 -0.249682 0
M  V30 4171 C 399.997 2.25143 0.659375 0
M  V30 4172 C 401.013 1.2685 1.19101 0
M  V30 4173 O 402.189 1.59732 1.22669 0
M  V30 4174 C 399.254 2.93945 1.8384 0
M  V30 4175 C 398.315 4.07655 1.34596 0
M  V30 4176 C 397.548 4.73167 2.46878 0
M  V30 4177 O 397.771 4.37768 3.65671 0
M  V30 4178 O 396.705 5.61623 2.16478 0
M  V30 4179 H 400.531 3.03545 0.0968698 0
M  V30 4180 H 398.116 1.49389 -0.018074 0
M  V30 4181 H 399.998 3.37271 2.52638 0
M  V30 4182 H 398.673 2.18481 2.38847 0
M  V30 4183 H 397.58 3.68839 0.625174 0
M  V30 4184 H 398.913 4.84946 0.841941 0
M  V30 4185 N 400.565 -0.0233959 1.57583 0
M  V30 4186 C 401.513 -1.04063 2.08023 0
M  V30 4187 C 402.507 -1.37084 0.995204 0
M  V30 4188 O 403.713 -1.35923 1.18004 0
M  V30 4189 H 400.088 -0.353144 0.663922 0
M  V30 4190 H 402.059 -0.589453 2.9252 0
M  V30 4191 C 400.808 -2.33123 2.57971 0
M  V30 4192 H 400.131 -2.08577 3.4108 0
M  V30 4193 H 401.571 -3.02632 2.96967 0
M  V30 4194 C 400.03 -3.02483 1.48342 0
M  V30 4195 O 400.56 -3.92541 0.852898 0
M  V30 4196 N 398.766 -2.63909 1.21658 0
M  V30 4197 H 398.313 -1.90758 1.73116 0
M  V30 4198 H 398.271 -3.10633 0.485218 0
M  V30 4199 N 402.043 -1.548 -0.295768 0
M  V30 4200 C 402.975 -1.82492 -1.3867 0
M  V30 4201 C 403.988 -0.708134 -1.46592 0
M  V30 4202 O 405.177 -0.985686 -1.48817 0
M  V30 4203 C 402.277 -1.95256 -2.76999 0
M  V30 4204 C 401.45 -3.25709 -2.91946 0
M  V30 4205 C 400.509 -3.28824 -4.10806 0
M  V30 4206 O 399.535 -4.02328 -4.02643 0
M  V30 4207 N 400.737 -2.5459 -5.21694 0
M  V30 4208 H 403.502 -2.76646 -1.15269 0
M  V30 4209 H 401.063 -1.54438 -0.485849 0
M  V30 4210 H 403.055 -1.94736 -3.54768 0
M  V30 4211 H 401.625 -1.08072 -2.93324 0
M  V30 4212 H 400.845 -3.38959 -2.01247 0
M  V30 4213 H 402.133 -4.11786 -2.98847 0
M  V30 4214 H 401.531 -1.94512 -5.31208 0
M  V30 4215 H 400.088 -2.59818 -5.97778 0
M  V30 4216 N 403.521 0.559213 -1.47345 0
M  V30 4217 C 404.798 1.31997 -1.44348 0
M  V30 4218 C 405.178 2.1064 -0.139358 0
M  V30 4219 O 404.526 2.1091 0.879153 0
M  V30 4220 C 404.736 2.22618 -2.68779 0
M  V30 4221 C 406.084 2.83701 -3.1591 0
M  V30 4222 O 407.108 2.32921 -2.69493 0
M  V30 4223 O 405.967 3.75993 -3.966 0
M  V30 4224 H 403.061 0.594251 -0.575147 0
M  V30 4225 H 405.607 0.578282 -1.59543 0
M  V30 4226 H 404.379 1.64093 -3.55231 0
M  V30 4227 H 404.002 3.04085 -2.5616 0
M  V30 4228 N 404.999 1.35443 0.805782 0
M  V30 4229 C 405.962 1.28301 1.89925 0
M  V30 4230 C 406.962 0.194285 1.59622 0
M  V30 4231 O 408.152 0.448036 1.6834 0
M  V30 4232 C 405.284 0.984997 3.2636 0
M  V30 4233 H 406.477 2.2553 1.97677 0
M  V30 4234 H 404.03 1.19979 1.00173 0
M  V30 4235 H 404.765 0.016603 3.24296 0
M  V30 4236 H 404.55 1.77269 3.4974 0
M  V30 4237 H 406.04 0.960651 4.064 0
M  V30 4238 N 406.477 -1.02803 1.19454 0
M  V30 4239 C 407.893 -1.28473 0.946937 0
M  V30 4240 C 408.093 -1.97881 -0.380202 0
M  V30 4241 O 407.149 -2.26719 -1.11151 0
M  V30 4242 C 408.462 -2.13099 2.12154 0
M  V30 4243 C 410.01 -2.26404 2.16126 0
M  V30 4244 C 410.485 -3.14402 3.33039 0
M  V30 4245 N 411.976 -3.21991 3.32981 0
M  V30 4246 C 412.711 -3.90272 4.20089 0
M  V30 4247 N 412.207 -4.60777 5.17355 0
M  V30 4248 N 414 -3.8668 4.07964 0
M  V30 4249 H 406.151 -0.561665 2.04839 0
M  V30 4250 H 408.414 -0.310438 0.89573 0
M  V30 4251 H 408.12 -1.69422 3.08203 0
M  V30 4252 H 407.994 -3.13813 2.09287 0
M  V30 4253 H 410.381 -2.69311 1.20647 0
M  V30 4254 H 410.462 -1.25237 2.23045 0
M  V30 4255 H 410.106 -2.72204 4.28798 0
M  V30 4256 H 410.036 -4.1563 3.23356 0
M  V30 4257 H 412.527 -2.71778 2.62574 0
M  V30 4258 H 412.84 -5.10513 5.80169 0
M  V30 4259 H 411.185 -4.5964 5.21302 0
M  V30 4260 H 414.376 -3.30739 3.31254 0
M  V30 4261 H 414.549 -4.39621 4.76064 0
M  V30 4262 N 407.956 -0.998596 -1.21925 0
M  V30 4263 C 408.886 -0.573688 -2.26343 0
M  V30 4264 C 409.867 0.402296 -1.65274 0
M  V30 4265 O 411.052 0.291683 -1.91997 0
M  V30 4266 C 408.182 0.106839 -3.47136 0
M  V30 4267 C 407.136 -0.788269 -4.20678 0
M  V30 4268 C 406.462 0.0254927 -5.34694 0
M  V30 4269 C 407.762 -2.08784 -4.78755 0
M  V30 4270 H 409.456 -1.44651 -2.62138 0
M  V30 4271 H 407.002 -0.696975 -1.26009 0
M  V30 4272 H 408.955 0.415531 -4.19346 0
M  V30 4273 H 407.679 1.01424 -3.10452 0
M  V30 4274 H 406.338 -1.08069 -3.50309 0
M  V30 4275 H 405.986 0.933989 -4.94253 0
M  V30 4276 H 405.686 -0.570437 -5.84825 0
M  V30 4277 H 407.21 0.328147 -6.09718 0
M  V30 4278 H 408.624 -1.84272 -5.42878 0
M  V30 4279 H 407.021 -2.63307 -5.39249 0
M  V30 4280 H 408.091 -2.76284 -3.98491 0
M  V30 4281 N 409.434 1.37368 -0.772513 0
M  V30 4282 C 410.397 2.28601 -0.165541 0
M  V30 4283 C 411.397 1.48062 0.627238 0
M  V30 4284 O 412.587 1.68268 0.450715 0
M  V30 4285 C 409.719 3.32023 0.772897 0
M  V30 4286 H 410.912 2.83787 -0.969787 0
M  V30 4287 H 408.465 1.46647 -0.540775 0
M  V30 4288 H 409.2 2.81962 1.60212 0
M  V30 4289 H 408.985 3.91555 0.206585 0
M  V30 4290 H 410.475 4.00197 1.19298 0
M  V30 4291 N 410.912 0.523116 1.48665 0
M  V30 4292 C 412.14 -0.0096312 2.06898 0
M  V30 4293 C 412.555 -1.28784 1.38059 0
M  V30 4294 O 411.912 -1.76453 0.465893 0
M  V30 4295 C 411.963 -0.244386 3.60673 0
M  V30 4296 O 411.684 0.983172 4.26925 0
M  V30 4297 C 413.185 -0.818289 4.35682 0
M  V30 4298 H 410.405 0.0304161 0.67031 0
M  V30 4299 H 412.949 0.726799 1.91149 0
M  V30 4300 H 411.104 -0.930847 3.76051 0
M  V30 4301 H 411.518 0.759653 5.1897 0
M  V30 4302 H 412.992 -0.93201 5.44075 0
M  V30 4303 H 413.469 -1.82153 3.99646 0
M  V30 4304 H 414.075 -0.168609 4.24966 0
M  V30 4305 N 412.39 -1.55475 0.257931 0
M  V30 4306 C 413.636 -1.99502 -0.364266 0
M  V30 4307 C 413.969 -1.146 -1.56782 0
M  V30 4308 O 413.244 -0.211968 -1.93342 0
M  V30 4309 C 413.527 -3.51917 -0.763333 0
M  V30 4310 C 413.38 -4.4758 0.446371 0
M  V30 4311 C 414.699 -4.09742 -1.60623 0
M  V30 4312 H 411.818 -0.725277 -0.130929 0
M  V30 4313 H 414.46 -1.8653 0.361446 0
M  V30 4314 H 412.61 -3.63101 -1.38166 0
M  V30 4315 H 414.282 -4.48362 1.08487 0
M  V30 4316 H 412.525 -4.19947 1.08753 0
M  V30 4317 H 413.196 -5.51862 0.123645 0
M  V30 4318 H 415.672 -4.01727 -1.08418 0
M  V30 4319 H 414.548 -5.16631 -1.85429 0
M  V30 4320 H 414.809 -3.58889 -2.58169 0
M  V30 4321 N 413.868 0.0150385 -1.57593 0
M  V30 4322 C 415.116 0.701613 -1.8953 0
M  V30 4323 C 415.437 1.75139 -0.857396 0
M  V30 4324 O 414.707 1.95607 0.107194 0
M  V30 4325 H 413.287 0.26213 -0.699498 0
M  V30 4326 H 415.949 -0.0223304 -1.94887 0
M  V30 4327 H 415.045 1.18236 -2.88837 0
M  V30 4328 N 415.346 1.54954 0.287554 0
M  V30 4329 C 416.256 1.8991 1.37736 0
M  V30 4330 C 417.272 0.794701 1.54792 0
M  V30 4331 O 418.448 1.09243 1.69198 0
M  V30 4332 C 415.513 2.15108 2.71899 0
M  V30 4333 C 414.574 3.38752 2.63715 0
M  V30 4334 C 413.807 3.62739 3.91479 0
M  V30 4335 O 414.03 2.89492 4.91478 0
M  V30 4336 O 412.964 4.56267 3.92561 0
M  V30 4337 H 416.79 2.82652 1.11092 0
M  V30 4338 H 414.375 1.41315 0.484807 0
M  V30 4339 H 416.257 2.32806 3.51254 0
M  V30 4340 H 414.932 1.25551 2.9836 0
M  V30 4341 H 413.839 3.26405 1.82786 0
M  V30 4342 H 415.172 4.28483 2.42205 0
M  V30 4343 N 416.824 -0.551391 1.4764 0
M  V30 4344 C 417.754 -1.66757 1.63445 0
M  V30 4345 C 418.735 -1.63077 0.483742 0
M  V30 4346 O 419.92 -1.80607 0.71377 0
M  V30 4347 C 417.05 -3.05387 1.65396 0
M  V30 4348 C 416.004 -3.23918 2.79752 0
M  V30 4349 C 415.33 -4.63393 2.66779 0
M  V30 4350 C 416.63 -3.08735 4.21284 0
M  V30 4351 H 418.324 -1.53786 2.56886 0
M  V30 4352 H 415.87 -0.738415 1.23626 0
M  V30 4353 H 417.823 -3.83325 1.75043 0
M  V30 4354 H 416.547 -3.19332 0.685195 0
M  V30 4355 H 415.206 -2.48391 2.69625 0
M  V30 4356 H 414.854 -4.74144 1.67918 0
M  V30 4357 H 414.554 -4.7674 3.43501 0
M  V30 4358 H 416.078 -5.43458 2.78364 0
M  V30 4359 H 417.492 -3.76484 4.32357 0
M  V30 4360 H 415.889 -3.33588 4.98838 0
M  V30 4361 H 416.959 -2.0541 4.39243 0
M  V30 4362 N 418.302 -1.35869 -0.798587 0
M  V30 4363 C 419.234 -1.25305 -1.91915 0
M  V30 4364 C 420.247 -0.174548 -1.61862 0
M  V30 4365 O 421.436 -0.428499 -1.73281 0
M  V30 4366 C 418.536 -0.9086 -3.26493 0
M  V30 4367 C 417.709 -2.08711 -3.84394 0
M  V30 4368 C 416.768 -1.71717 -4.97393 0
M  V30 4369 O 415.794 -2.43692 -5.14396 0
M  V30 4370 N 416.996 -0.645473 -5.769 0
M  V30 4371 H 419.761 -2.21849 -2.01502 0
M  V30 4372 H 417.322 -1.29143 -0.976408 0
M  V30 4373 H 419.314 -0.642455 -3.99568 0
M  V30 4374 H 417.884 -0.0325815 -3.12583 0
M  V30 4375 H 417.104 -2.51659 -3.03416 0
M  V30 4376 H 418.392 -2.87468 -4.19809 0
M  V30 4377 H 417.79 -0.047648 -5.6568 0
M  V30 4378 H 416.347 -0.43913 -6.50319 0
M  V30 4379 N 419.78 1.02168 -1.19998 0
M  V30 4380 C 420.743 2.08765 -0.94604 0
M  V30 4381 C 421.743 1.60618 0.0763846 0
M  V30 4382 O 422.933 1.73472 -0.159135 0
M  V30 4383 C 420.065 3.38262 -0.423255 0
M  V30 4384 H 421.258 2.32726 -1.89153 0
M  V30 4385 H 418.811 1.1889 -1.01464 0
M  V30 4386 H 419.546 3.19974 0.527938 0
M  V30 4387 H 419.331 3.74532 -1.16053 0
M  V30 4388 H 420.821 4.16759 -0.264911 0
M  V30 4389 N 421.258 1.00505 1.21394 0
M  V30 4390 C 422.221 0.570459 2.21987 0
M  V30 4391 C 423.221 -0.353211 1.56873 0
M  V30 4392 O 424.411 -0.14349 1.73608 0
M  V30 4393 C 421.543 -0.168555 3.40483 0
M  V30 4394 H 422.736 1.46021 2.6195 0
M  V30 4395 H 420.289 0.793565 1.34656 0
M  V30 4396 H 421.024 -1.07374 3.06009 0
M  V30 4397 H 420.809 0.494823 3.88965 0
M  V30 4398 H 422.299 -0.460362 4.15055 0
M  V30 4399 N 422.737 -1.36956 0.779787 0
M  V30 4400 C 423.983 -2.00237 0.357324 0
M  V30 4401 C 424.338 -1.60787 -1.05666 0
M  V30 4402 O 423.631 -0.847836 -1.71821 0
M  V30 4403 C 423.825 -3.54585 0.447686 0
M  V30 4404 C 423.654 -4.09025 1.86891 0
M  V30 4405 C 422.424 -4.39612 2.49138 0
M  V30 4406 C 424.622 -4.29461 2.82963 0
M  V30 4407 N 422.604 -4.79816 3.82949 0
M  V30 4408 C 423.975 -4.72363 4.01588 0
M  V30 4409 C 426.03 -4.1161 2.80145 0
M  V30 4410 C 424.733 -4.99284 5.17791 0
M  V30 4411 C 426.759 -4.39672 3.95528 0
M  V30 4412 C 426.121 -4.82822 5.12896 0
M  V30 4413 H 422.22 -0.76148 0.177968 0
M  V30 4414 H 424.804 -1.6613 1.01533 0
M  V30 4415 H 422.975 -3.87982 -0.180184 0
M  V30 4416 H 424.707 -4.047 0.0023955 0
M  V30 4417 H 421.462 -4.28975 2.00693 0
M  V30 4418 H 421.886 -5.04216 4.51769 0
M  V30 4419 H 426.528 -3.77415 1.90572 0
M  V30 4420 H 424.246 -5.32365 6.07958 0
M  V30 4421 H 427.832 -4.27441 3.94697 0
M  V30 4422 H 426.712 -5.04118 6.00695 0
M  V30 4423 N 424.215 -0.530993 -1.48385 0
M  V30 4424 C 425.631 -0.188919 -1.58478 0
M  V30 4425 C 425.831 1.30786 -1.53288 0
M  V30 4426 O 424.887 2.08619 -1.42248 0
M  V30 4427 C 426.2 -0.792343 -2.90073 0
M  V30 4428 C 427.748 -0.76117 -3.03604 0
M  V30 4429 C 428.223 -1.34319 -4.37861 0
M  V30 4430 N 429.714 -1.3052 -4.44431 0
M  V30 4431 C 430.449 -1.72543 -5.46824 0
M  V30 4432 N 429.945 -2.22299 -6.56167 0
M  V30 4433 N 431.738 -1.63773 -5.37712 0
M  V30 4434 H 423.889 -1.50377 -1.50002 0
M  V30 4435 H 426.152 -0.625559 -0.712306 0
M  V30 4436 H 425.858 -1.84323 -2.99529 0
M  V30 4437 H 425.732 -0.270026 -3.76232 0
M  V30 4438 H 428.119 0.280957 -2.93759 0
M  V30 4439 H 428.2 -1.32097 -2.19053 0
M  V30 4440 H 427.844 -2.38425 -4.4846 0
M  V30 4441 H 427.774 -0.759064 -5.21101 0
M  V30 4442 H 430.265 -0.940973 -3.65997 0
M  V30 4443 H 430.578 -2.52356 -7.30436 0
M  V30 4444 H 428.923 -2.26293 -6.57127 0
M  V30 4445 H 432.114 -1.24698 -4.51185 0
M  V30 4446 H 432.287 -1.96844 -6.17379 0
M  V30 4447 N 425.693 1.55336 -0.266172 0
M  V30 4448 C 426.641 2.23587 0.641228 0
M  V30 4449 C 427.635 1.22986 1.16494 0
M  V30 4450 O 428.841 1.40943 1.1196 0
M  V30 4451 H 425.216 0.717452 0.225315 0
M  V30 4452 H 427.187 2.9837 0.0426561 0
M  V30 4453 C 425.936 2.96369 1.81826 0
M  V30 4454 H 425.259 3.73563 1.42445 0
M  V30 4455 H 426.699 3.47459 2.42998 0
M  V30 4456 C 425.158 2.0133 2.70125 0
M  V30 4457 O 425.688 1.55875 3.70224 0
M  V30 4458 N 423.894 1.6802 2.37102 0
M  V30 4459 H 423.441 2.05181 1.55751 0
M  V30 4460 H 423.399 1.047 2.96454 0
M  V30 4461 N 427.171 -0.0066808 1.57599 0
M  V30 4462 C 428.419 -0.691552 1.899 0
M  V30 4463 C 428.74 -1.74682 0.866672 0
M  V30 4464 O 428.01 -1.95661 -0.0968189 0
M  V30 4465 H 426.59 -0.258416 0.700878 0
M  V30 4466 H 429.252 0.0326655 1.94873 0
M  V30 4467 H 428.348 -1.16702 2.8946 0
M  V30 4468 N 428.649 -1.55105 -0.279332 0
M  V30 4469 C 429.896 -1.75412 -1.01177 0
M  V30 4470 C 430.224 -0.551728 -1.86511 0
M  V30 4471 O 429.479 0.465919 -1.90073 0
M  V30 4472 C 429.778 -3.0086 -1.92919 0
M  V30 4473 C 429.444 -4.33689 -1.23387 0
M  V30 4474 C 428.106 -4.69792 -1.04159 0
M  V30 4475 C 430.458 -5.15941 -0.738562 0
M  V30 4476 C 427.786 -5.85707 -0.341166 0
M  V30 4477 C 430.138 -6.32579 -0.0517636 0
M  V30 4478 C 428.802 -6.67326 0.152292 0
M  V30 4479 H 428.072 -0.641879 -0.370233 0
M  V30 4480 H 430.719 -1.89373 -0.284627 0
M  V30 4481 H 429.024 -2.81773 -2.72234 0
M  V30 4482 H 430.721 -3.13768 -2.49701 0
M  V30 4483 H 427.311 -4.05309 -1.39364 0
M  V30 4484 H 431.495 -4.8853 -0.874764 0
M  V30 4485 H 426.751 -6.11157 -0.172287 0
M  V30 4486 H 430.925 -6.9557 0.339828 0
M  V30 4487 H 428.552 -7.56998 0.697014 0
M  V30 4488 N 430.127 0.543554 -1.4793 0
M  V30 4489 C 431.404 1.30458 -1.4574 0
M  V30 4490 C 431.784 2.1048 -0.161692 0
M  V30 4491 O 431.132 2.11831 0.856734 0
M  V30 4492 C 431.342 2.19754 -2.71126 0
M  V30 4493 C 432.69 2.80334 -3.18901 0
M  V30 4494 O 433.714 2.30049 -2.71948 0
M  V30 4495 O 432.573 3.71766 -4.00565 0
M  V30 4496 H 429.667 0.588117 -0.581418 0
M  V30 4497 H 432.213 0.561328 -1.60147 0
M  V30 4498 H 430.985 1.60316 -3.56952 0
M  V30 4499 H 430.608 3.01351 -2.59371 0
M  V30 4500 N 431.605 1.3629 0.791371 0
M  V30 4501 C 432.537 1.26321 1.91248 0
M  V30 4502 C 433.55 0.18313 1.61767 0
M  V30 4503 O 434.739 0.437682 1.73051 0
M  V30 4504 C 431.839 0.925901 3.26007 0
M  V30 4505 C 431.012 2.10746 3.83281 0
M  V30 4506 C 430.071 1.74352 4.96475 0
M  V30 4507 O 429.097 2.46416 5.13096 0
M  V30 4508 N 430.299 0.676058 5.7655 0
M  V30 4509 H 433.064 2.22915 2.00323 0
M  V30 4510 H 430.625 1.29659 0.969546 0
M  V30 4511 H 432.617 0.663636 3.99222 0
M  V30 4512 H 431.187 0.0491581 3.12561 0
M  V30 4513 H 430.407 2.53264 3.02077 0
M  V30 4514 H 431.695 2.8969 4.18279 0
M  V30 4515 H 431.093 0.0776467 5.65647 0
M  V30 4516 H 429.65 0.473612 6.50077 0
M  V30 4517 N 433.083 -1.0153 1.20538 0
M  V30 4518 C 434.323 -1.76689 1.02763 0
M  V30 4519 C 434.687 -1.87065 -0.432513 0
M  V30 4520 O 435.888 -2.58684 -0.730481 0
M  V30 4521 C 434.159 -3.14707 1.69393 0
M  V30 4522 S 435.718 -4.05886 1.66738 0
M  V30 4523 H 432.536 -0.608076 0.368463 0
M  V30 4524 H 435.138 -1.21558 1.53114 0
M  V30 4525 H 433.842 -3.04782 2.74838 0
M  V30 4526 H 433.373 -3.74913 1.19179 0
M  V30 4527 H 435.388 -4.91221 0.70117 0
M  V30 4528 N 434.561 -1.01147 -1.20859 0
M  V30 4529 C 435.838 -0.613136 -1.85742 0
M  V30 4530 C 436.218 0.909004 -1.90526 0
M  V30 4531 O 435.566 1.79862 -1.40932 0
M  V30 4532 C 435.776 -1.255 -3.25654 0
M  V30 4533 C 437.124 -1.3672 -4.01986 0
M  V30 4534 O 438.148 -1.21082 -3.34989 0
M  V30 4535 O 437.007 -1.6194 -5.21956 0
M  V30 4536 H 434.101 -0.210878 -0.799662 0
M  V30 4537 H 436.647 -1.10853 -1.2849 0
M  V30 4538 H 435.419 -2.29532 -3.16908 0
M  V30 4539 H 435.042 -0.746369 -3.90532 0
M  V30 4540 N 436.039 1.36541 -0.78704 0
M  V30 4541 C 437.269 2.03266 -0.369662 0
M  V30 4542 C 437.677 1.59481 1.01796 0
M  V30 4543 O 437.02 0.778612 1.66383 0
M  V30 4544 C 437.082 3.57779 -0.351371 0
M  V30 4545 C 436.746 4.24756 -1.68617 0
M  V30 4546 C 437.743 4.47811 -2.64124 0
M  V30 4547 C 435.428 4.62277 -1.96481 0
M  V30 4548 C 437.422 5.07464 -3.85693 0
M  V30 4549 C 435.109 5.21649 -3.18317 0
M  V30 4550 C 436.107 5.44182 -4.12741 0
M  V30 4551 O 435.795 6.02307 -5.32429 0
M  V30 4552 H 435.527 0.658977 -0.150751 0
M  V30 4553 H 438.081 1.75548 -1.0664 0
M  V30 4554 H 436.311 3.84606 0.401847 0
M  V30 4555 H 438 4.05879 0.0410147 0
M  V30 4556 H 438.766 4.19221 -2.43883 0
M  V30 4557 H 434.645 4.44065 -1.23805 0
M  V30 4558 H 438.189 5.24968 -4.59407 0
M  V30 4559 H 434.086 5.49664 -3.38437 0
M  V30 4560 H 434.854 6.20775 -5.33461 0
M  V30 4561 N 437.518 0.538854 1.48102 0
M  V30 4562 C 438.766 0.00798599 2.02098 0
M  V30 4563 C 439.087 -1.33922 1.41739 0
M  V30 4564 O 438.357 -1.86932 0.585934 0
M  V30 4565 H 436.937 -3.62179e-05 0.747 0
M  V30 4566 H 439.599 0.7047 1.81714 0
M  V30 4567 H 438.695 -0.0937672 3.11959 0
M  V30 4568 N 438.996 -1.55193 0.274407 0
M  V30 4569 C 440.242 -2.00604 -0.33608 0
M  V30 4570 C 440.597 -1.15948 -1.53538 0
M  V30 4571 O 439.89 -0.221385 -1.90317 0
M  V30 4572 C 440.084 -3.49019 -0.769458 0
M  V30 4573 C 439.913 -4.48038 0.386301 0
M  V30 4574 C 438.683 -4.97757 0.869854 0
M  V30 4575 C 440.881 -4.99558 1.22254 0
M  V30 4576 N 438.863 -5.80575 1.99515 0
M  V30 4577 C 440.234 -5.79816 2.19575 0
M  V30 4578 C 442.289 -4.81799 1.25597 0
M  V30 4579 C 440.992 -6.44208 3.19981 0
M  V30 4580 C 443.018 -5.46989 2.24848 0
M  V30 4581 C 442.38 -6.27058 3.20901 0
M  V30 4582 H 438.479 -0.777013 -0.088172 0
M  V30 4583 H 441.063 -1.90583 0.398266 0
M  V30 4584 H 439.234 -3.59383 -1.47303 0
M  V30 4585 H 440.966 -3.81263 -1.35722 0
M  V30 4586 H 437.721 -4.71464 0.449281 0
M  V30 4587 H 438.145 -6.26675 2.5614 0
M  V30 4588 H 442.787 -4.19501 0.527158 0
M  V30 4589 H 440.505 -7.05656 3.93796 0
M  V30 4590 H 444.091 -5.35189 2.28174 0
M  V30 4591 H 442.971 -6.7661 3.96445 0
M  V30 4592 N 440.474 -0.00167713 -1.576 0
M  V30 4593 C 441.404 0.988091 -2.11563 0
M  V30 4594 C 442.385 1.35736 -1.02517 0
M  V30 4595 O 443.57 1.44082 -1.30208 0
M  V30 4596 C 440.7 2.27941 -2.62031 0
M  V30 4597 C 439.654 2.0517 -3.75619 0
M  V30 4598 C 438.98 3.4033 -4.12407 0
M  V30 4599 C 440.28 1.41294 -5.02825 0
M  V30 4600 H 441.974 0.538771 -2.94513 0
M  V30 4601 H 439.52 0.257712 -1.41675 0
M  V30 4602 H 441.473 2.97539 -2.9841 0
M  V30 4603 H 440.197 2.74989 -1.76205 0
M  V30 4604 H 438.856 1.37998 -3.39635 0
M  V30 4605 H 438.504 3.85085 -3.23603 0
M  V30 4606 H 438.204 3.25909 -4.88935 0
M  V30 4607 H 439.728 4.1124 -4.51347 0
M  V30 4608 H 441.142 2.00851 -5.36965 0
M  V30 4609 H 439.539 1.37356 -5.84169 0
M  V30 4610 H 440.609 0.382362 -4.8339 0
M  V30 4611 N 441.952 1.55251 0.271103 0
M  V30 4612 C 443.177 1.80306 1.02491 0
M  V30 4613 C 443.602 0.575457 1.79081 0
M  V30 4614 O 442.96 -0.474987 1.74967 0
M  V30 4615 C 443.008 3.02832 1.95768 0
M  V30 4616 O 442.112 2.78051 3.04568 0
M  V30 4617 H 441.453 0.595896 0.292923 0
M  V30 4618 H 443.983 2.02397 0.299436 0
M  V30 4619 H 443.993 3.31616 2.37686 0
M  V30 4620 H 442.668 3.9183 1.39434 0
M  V30 4621 H 441.245 2.60369 2.66951 0
M  V30 4622 N 443.43 -0.535701 1.48216 0
M  V30 4623 C 444.707 -1.29683 1.46429 0
M  V30 4624 C 445.087 -2.10391 0.172852 0
M  V30 4625 O 444.435 -2.12282 -0.845488 0
M  V30 4626 C 444.645 -2.18313 2.72287 0
M  V30 4627 C 445.993 -2.78639 3.20383 0
M  V30 4628 O 447.017 -2.28604 2.73164 0
M  V30 4629 O 445.876 -3.69636 4.02531 0
M  V30 4630 H 442.97 -0.585026 0.584529 0
M  V30 4631 H 445.516 -0.552827 1.60443 0
M  V30 4632 H 444.288 -1.58421 3.57797 0
M  V30 4633 H 443.911 -2.99971 2.60966 0
M  V30 4634 N 444.908 -1.36708 -0.784132 0
M  V30 4635 C 445.871 -1.31307 -1.87859 0
M  V30 4636 C 446.871 -0.219654 -1.59293 0
M  V30 4637 O 448.061 -0.47476 -1.67606 0
M  V30 4638 C 445.193 -1.03679 -3.24751 0
M  V30 4639 H 446.386 -2.28647 -1.94064 0
M  V30 4640 H 443.939 -1.21558 -0.98252 0
M  V30 4641 H 444.674 -0.0681936 -3.24228 0
M  V30 4642 H 444.459 -1.82811 -3.46876 0
M  V30 4643 H 445.949 -1.02518 -4.04821 0
M  V30 4644 N 446.386 1.0089 -1.21074 0
M  V30 4645 C 447.611 1.78727 -1.05221 0
M  V30 4646 C 448.036 1.83932 0.393795 0
M  V30 4647 O 447.394 1.28004 1.28393 0
M  V30 4648 C 447.442 3.20665 -1.64944 0
M  V30 4649 O 446.546 4.02632 -0.892273 0
M  V30 4650 H 445.887 0.550973 -0.370574 0
M  V30 4651 H 448.417 1.26847 -1.60534 0
M  V30 4652 H 448.427 3.71352 -1.69002 0
M  V30 4653 H 447.102 3.16191 -2.70177 0
M  V30 4654 H 445.679 3.61207 -0.926492 0
M  V30 4655 N 447.864 1.01787 1.20321 0
M  V30 4656 C 449.11 0.708985 1.90003 0
M  V30 4657 C 449.443 -0.759572 1.78729 0
M  V30 4658 O 448.718 -1.55198 1.17234 0
M  V30 4659 C 449.001 1.1469 3.41348 0
M  V30 4660 C 448.854 2.67586 3.61549 0
M  V30 4661 C 450.173 0.71915 4.34185 0
M  V30 4662 H 447.292 0.259034 0.689978 0
M  V30 4663 H 449.934 1.26584 1.41692 0
M  V30 4664 H 448.084 0.673128 3.82624 0
M  V30 4665 H 449.756 3.22826 3.29517 0
M  V30 4666 H 447.999 3.085 3.04976 0
M  V30 4667 H 448.67 2.93281 4.67643 0
M  V30 4668 H 451.146 1.12647 4.00562 0
M  V30 4669 H 450.022 1.05358 5.38694 0
M  V30 4670 H 450.283 -0.379111 4.40472 0
M  V30 4671 N 449.342 -1.36122 0.79427 0
M  V30 4672 C 450.758 -1.5232 0.476525 0
M  V30 4673 C 450.958 -1.74685 -1.00436 0
M  V30 4674 O 450.014 -1.78115 -1.78973 0
M  V30 4675 C 451.327 -2.70607 1.31119 0
M  V30 4676 C 452.875 -2.8448 1.30537 0
M  V30 4677 C 453.35 -4.05778 2.12387 0
M  V30 4678 N 454.841 -4.12933 2.09859 0
M  V30 4679 C 455.576 -5.05876 2.69957 0
M  V30 4680 N 455.072 -6.04232 3.38934 0
M  V30 4681 N 456.865 -4.98528 2.59665 0
M  V30 4682 H 449.016 -1.1986 1.75349 0
M  V30 4683 H 451.279 -0.585418 0.745647 0
M  V30 4684 H 450.985 -2.60619 2.36158 0
M  V30 4685 H 450.859 -3.64888 0.955843 0
M  V30 4686 H 453.246 -2.93927 0.262876 0
M  V30 4687 H 453.327 -1.91093 1.70051 0
M  V30 4688 H 452.971 -3.97092 3.1667 0
M  V30 4689 H 452.901 -4.98323 1.70242 0
M  V30 4690 H 455.392 -3.42515 1.59662 0
M  V30 4691 H 455.705 -6.71724 3.82109 0
M  V30 4692 H 454.05 -6.04443 3.43036 0
M  V30 4693 H 457.241 -4.20641 2.05375 0
M  V30 4694 H 457.414 -5.70773 3.06793 0
M  V30 4695 N 450.82 -0.546701 -1.47814 0
M  V30 4696 C 451.77 0.227042 -2.26867 0
M  V30 4697 C 452.754 0.894844 -1.33721 0
M  V30 4698 O 453.946 0.794887 -1.58147 0
M  V30 4699 C 451.075 1.26299 -3.19223 0
M  V30 4700 C 450.161 0.59913 -4.19847 0
M  V30 4701 N 450.552 -0.324777 -5.04756 0
M  V30 4702 C 448.85 0.854331 -4.37741 0
M  V30 4703 C 449.551 -0.709386 -5.77358 0
M  V30 4704 N 448.527 -0.0666153 -5.43559 0
M  V30 4705 H 452.329 -0.483476 -2.89896 0
M  V30 4706 H 449.843 -0.365893 -1.58224 0
M  V30 4707 H 451.84 1.83116 -3.74532 0
M  V30 4708 H 450.5 1.97471 -2.57751 0
M  V30 4709 H 451.511 -0.698351 -5.1317 0
M  V30 4710 H 448.188 1.55536 -3.87447 0
M  V30 4711 H 449.578 -1.46796 -6.55668 0
M  V30 4712 N 452.299 1.55045 -0.282633 0
M  V30 4713 C 453.71 1.85473 0.213655 0
M  V30 4714 C 454.061 1.20465 1.54863 0
M  V30 4715 O 453.186 0.495676 2.10647 0
M  V30 4716 C 453.781 3.36496 0.394445 0
M  V30 4717 C 452.34 3.67022 0.834961 0
M  V30 4718 C 451.487 2.77218 -0.0674081 0
M  V30 4719 H 454.438 1.50478 -0.504202 0
M  V30 4720 H 454.459 3.60007 1.23186 0
M  V30 4721 H 453.971 3.83782 -0.577326 0
M  V30 4722 H 452.072 3.25241 1.81794 0
M  V30 4723 H 452.185 4.74433 0.667075 0
M  V30 4724 H 450.549 2.5069 0.450196 0
M  V30 4725 H 451.332 3.2732 -1.0352 0
M  V30 4726 N 453.777 0.010035 1.57597 0
M  V30 4727 C 455.023 -0.673697 1.91283 0
M  V30 4728 C 455.356 -1.72863 0.884979 0
M  V30 4729 O 454.631 -1.94268 -0.0949487 0
M  V30 4730 C 454.914 -1.30766 3.35518 0
M  V30 4731 C 454.767 -0.263578 4.49027 0
M  V30 4732 C 456.086 -2.23105 3.79358 0
M  V30 4733 H 453.205 -0.243439 0.695634 0
M  V30 4734 H 455.847 0.0633864 1.89894 0
M  V30 4735 H 453.997 -1.93588 3.36832 0
M  V30 4736 H 455.669 0.365738 4.59848 0
M  V30 4737 H 453.912 0.413077 4.31829 0
M  V30 4738 H 454.583 -0.746398 5.4693 0
M  V30 4739 H 457.059 -1.70289 3.79659 0
M  V30 4740 H 455.935 -2.64424 4.81011 0
M  V30 4741 H 456.196 -3.11433 3.13787 0
M  V30 4742 N 455.255 -1.55392 -0.262866 0
M  V30 4743 C 456.483 -1.80513 -1.01108 0
M  V30 4744 C 456.898 -0.583533 -1.79556 0
M  V30 4745 O 456.255 0.447585 -1.76926 0
M  V30 4746 C 456.306 -3.03648 -1.96164 0
M  V30 4747 O 456.027 -4.2109 -1.20893 0
M  V30 4748 C 457.528 -3.41448 -2.82715 0
M  V30 4749 H 454.748 -0.601079 -0.298236 0
M  V30 4750 H 457.292 -2.02425 -0.290582 0
M  V30 4751 H 455.447 -2.83832 -2.63663 0
M  V30 4752 H 455.861 -4.90771 -1.85051 0
M  V30 4753 H 457.335 -4.30751 -3.45192 0
M  V30 4754 H 457.812 -2.61308 -3.53008 0
M  V30 4755 H 458.418 -3.63559 -2.20693 0
M  V30 4756 N 456.733 0.527833 -1.48498 0
M  V30 4757 C 457.979 1.28545 -1.56857 0
M  V30 4758 C 458.312 1.92678 -0.242651 0
M  V30 4759 O 457.587 1.79394 0.751545 0
M  V30 4760 C 457.87 2.37314 -2.70839 0
M  V30 4761 C 457.723 1.77858 -4.13142 0
M  V30 4762 C 459.042 3.39068 -2.80573 0
M  V30 4763 H 456.161 0.466006 -0.570971 0
M  V30 4764 H 458.803 0.587784 -1.8068 0
M  V30 4765 H 456.953 2.96821 -2.50658 0
M  V30 4766 H 458.625 1.22385 -4.44769 0
M  V30 4767 H 456.868 1.08383 -4.20042 0
M  V30 4768 H 457.539 2.56624 -4.88721 0
M  V30 4769 H 460.015 2.89518 -2.98862 0
M  V30 4770 H 458.891 4.12566 -3.6205 0
M  V30 4771 H 459.152 3.9975 -1.88818 0
M  V30 4772 N 458.211 1.37122 0.776871 0
M  V30 4773 C 459.174 1.32301 1.8716 0
M  V30 4774 C 460.174 0.228099 1.59174 0
M  V30 4775 O 461.364 0.483642 1.67352 0
M  V30 4776 C 458.496 1.054 3.24197 0
M  V30 4777 H 459.689 2.29673 1.92848 0
M  V30 4778 H 457.242 1.22077 0.97606 0
M  V30 4779 H 457.977 0.0853872 3.24188 0
M  V30 4780 H 457.762 1.84648 3.45901 0
M  V30 4781 H 459.252 1.04664 4.04271 0
M  V30 4782 N 459.689 -1.00246 1.21608 0
M  V30 4783 C 461.105 -1.26435 0.973975 0
M  V30 4784 C 461.305 -1.98642 -0.338143 0
M  V30 4785 O 460.361 -2.29026 -1.06317 0
M  V30 4786 C 461.674 -2.08551 2.16626 0
M  V30 4787 C 463.222 -2.21769 2.20879 0
M  V30 4788 C 463.697 -3.07267 3.39633 0
M  V30 4789 N 465.188 -3.14855 3.39736 0
M  V30 4790 C 465.923 -3.81274 4.28273 0
M  V30 4791 N 465.419 -4.497 5.27012 0
M  V30 4792 N 467.212 -3.7794 4.16074 0
M  V30 4793 H 459.363 -0.518089 2.05984 0
M  V30 4794 H 461.626 -0.291368 0.902113 0
M  V30 4795 H 461.332 -1.62847 3.11727 0
M  V30 4796 H 461.206 -3.09303 2.15897 0
M  V30 4797 H 463.593 -2.66691 1.26332 0
M  V30 4798 H 463.674 -1.20478 2.25652 0
M  V30 4799 H 463.318 -2.63047 4.34475 0
M  V30 4800 H 463.248 -4.08678 3.321 0
M  V30 4801 H 465.739 -2.66147 2.6828 0
M  V30 4802 H 466.052 -4.98092 5.90867 0
M  V30 4803 H 464.397 -4.48479 5.30935 0
M  V30 4804 H 467.588 -3.23638 3.38195 0
M  V30 4805 H 467.761 -4.29424 4.85282 0
M  V30 4806 N 461.167 -1.02423 -1.1978 0
M  V30 4807 C 462.13 -0.605703 -2.21052 0
M  V30 4808 C 463.13 0.328209 -1.57415 0
M  V30 4809 O 464.32 0.115853 -1.73814 0
M  V30 4810 C 461.452 0.114366 -3.40708 0
M  V30 4811 H 462.645 -1.5017 -2.59594 0
M  V30 4812 H 460.198 -0.814888 -1.33376 0
M  V30 4813 H 460.933 1.02492 -3.07678 0
M  V30 4814 H 460.718 -0.556641 -3.88129 0
M  V30 4815 H 462.208 0.394272 -4.15735 0
M  V30 4816 N 462.645 1.35699 -0.801477 0
M  V30 4817 C 463.577 2.28598 -0.166028 0
M  V30 4818 C 464.59 1.50044 0.631721 0
M  V30 4819 O 465.779 1.72339 0.464921 0
M  V30 4820 C 462.879 3.29625 0.787451 0
M  V30 4821 C 462.052 4.37384 0.037171 0
M  V30 4822 C 461.111 5.183 0.908375 0
M  V30 4823 O 460.137 5.68053 0.361189 0
M  V30 4824 N 461.339 5.35912 2.23112 0
M  V30 4825 H 464.104 2.83771 -0.964071 0
M  V30 4826 H 461.665 1.47994 -0.656469 0
M  V30 4827 H 463.657 3.80648 1.37439 0
M  V30 4828 H 462.227 2.75004 1.48632 0
M  V30 4829 H 461.447 3.87364 -0.730935 0
M  V30 4830 H 462.735 5.0653 -0.480109 0
M  V30 4831 H 462.133 4.97125 2.69968 0
M  V30 4832 H 460.69 5.90133 2.76741 0
M  V30 4833 N 464.123 0.554532 1.47522 0
M  V30 4834 C 465.363 0.0317994 2.04375 0
M  V30 4835 C 465.727 -1.29242 1.41988 0
M  V30 4836 O 466.928 -1.90269 1.89872 0
M  V30 4837 C 465.199 -0.0623344 3.57346 0
M  V30 4838 S 466.758 -0.531578 4.35568 0
M  V30 4839 H 463.576 0.0238553 0.7106 0
M  V30 4840 H 466.178 0.74066 1.80927 0
M  V30 4841 H 464.882 0.905857 4.00278 0
M  V30 4842 H 464.413 -0.794831 3.85287 0
M  V30 4843 H 466.428 -1.79175 4.62721 0
M  V30 4844 N 465.601 -1.54893 0.290851 0
M  V30 4845 C 466.849 -1.99538 -0.320756 0
M  V30 4846 C 467.17 -1.18075 -1.55188 0
M  V30 4847 O 466.44 -0.274162 -1.93972 0
M  V30 4848 H 465.02 -0.737052 -0.121507 0
M  V30 4849 H 467.682 -1.90755 0.399832 0
M  V30 4850 H 466.778 -3.06282 -0.599802 0
M  V30 4851 N 467.08 -0.0183926 -1.57589 0
M  V30 4852 C 468.328 0.661253 -1.90976 0
M  V30 4853 C 468.649 1.73281 -0.894353 0
M  V30 4854 O 467.919 1.9579 0.0656788 0
M  V30 4855 H 466.499 0.247233 -0.704901 0
M  V30 4856 H 469.161 -0.0636639 -1.94796 0
M  V30 4857 H 468.257 1.12083 -2.9128 0
M  V30 4858 N 468.558 1.5553 0.254621 0
M  V30 4859 C 469.806 1.7665 0.981793 0
M  V30 4860 C 470.127 0.580963 1.86145 0
M  V30 4861 O 469.397 -0.403537 1.91699 0
M  V30 4862 H 467.977 0.651475 0.365498 0
M  V30 4863 H 470.639 1.92958 0.274426 0
M  V30 4864 H 469.735 2.67486 1.60802 0
M  V30 4865 N 470.036 -0.519951 1.48776 0
M  V30 4866 C 470.966 -1.63253 1.66945 0
M  V30 4867 C 471.947 -1.62014 0.518224 0
M  V30 4868 O 473.132 -1.79053 0.751919 0
M  V30 4869 C 470.262 -3.0181 1.71836 0
M  V30 4870 C 469.216 -3.17911 2.8656 0
M  V30 4871 C 468.542 -4.5763 2.76548 0
M  V30 4872 C 469.842 -2.99729 4.27738 0
M  V30 4873 H 471.536 -1.48302 2.6009 0
M  V30 4874 H 469.082 -0.712026 1.25165 0
M  V30 4875 H 471.035 -3.79525 1.83135 0
M  V30 4876 H 469.759 -3.17806 0.752775 0
M  V30 4877 H 468.418 -2.42616 2.74833 0
M  V30 4878 H 468.066 -4.70476 1.77937 0
M  V30 4879 H 467.766 -4.69346 3.53536 0
M  V30 4880 H 469.29 -5.37431 2.89828 0
M  V30 4881 H 470.704 -3.67228 4.40246 0
M  V30 4882 H 469.101 -3.22932 5.05801 0
M  V30 4883 H 470.171 -1.96047 4.43502 0
M  V30 4884 N 471.514 -1.37532 -0.769588 0
M  V30 4885 C 472.444 -1.36172 -1.89682 0
M  V30 4886 C 473.425 -0.23001 -1.68538 0
M  V30 4887 O 474.61 -0.43069 -1.89364 0
M  V30 4888 C 471.74 -1.1701 -3.26995 0
M  V30 4889 C 470.694 -2.27216 -3.62708 0
M  V30 4890 C 470.02 -1.93174 -4.98586 0
M  V30 4891 C 471.32 -3.6941 -3.69234 0
M  V30 4892 H 473.014 -2.30499 -1.91078 0
M  V30 4893 H 470.56 -1.10953 -0.917902 0
M  V30 4894 H 472.513 -1.14688 -4.05493 0
M  V30 4895 H 471.237 -0.191395 -3.26039 0
M  V30 4896 H 469.896 -2.28697 -2.86519 0
M  V30 4897 H 469.544 -0.938281 -4.94171 0
M  V30 4898 H 469.244 -2.66973 -5.23449 0
M  V30 4899 H 470.768 -1.92443 -5.79481 0
M  V30 4900 H 472.182 -3.70047 -4.37879 0
M  V30 4901 H 470.579 -4.4228 -4.05597 0
M  V30 4902 H 471.649 -4.0288 -2.69844 0
M  V30 4903 N 472.992 0.995999 -1.22138 0
M  V30 4904 C 474.24 1.73167 -1.042 0
M  V30 4905 C 474.561 1.90329 0.42423 0
M  V30 4906 O 473.831 1.4607 1.30539 0
M  V30 4907 H 472.411 0.641593 -0.38258 0
M  V30 4908 H 475.073 1.19974 -1.53598 0
M  V30 4909 H 474.169 2.72734 -1.51731 0
M  V30 4910 N 474.47 1.03057 1.19235 0
M  V30 4911 C 475.716 0.729098 1.89241 0
M  V30 4912 C 476.049 -0.740573 1.79525 0
M  V30 4913 O 475.324 -1.53946 1.18874 0
M  V30 4914 C 475.607 1.18304 3.40112 0
M  V30 4915 C 475.46 2.71406 3.5869 0
M  V30 4916 C 476.779 0.765161 4.33397 0
M  V30 4917 H 473.898 0.266338 0.687192 0
M  V30 4918 H 476.54 1.28079 1.40341 0
M  V30 4919 H 474.69 0.713672 3.81889 0
M  V30 4920 H 476.362 3.26303 3.26074 0
M  V30 4921 H 474.605 3.11717 3.01687 0
M  V30 4922 H 475.276 2.98225 4.64506 0
M  V30 4923 H 477.752 1.16889 3.99345 0
M  V30 4924 H 476.628 1.11065 5.37546 0
M  V30 4925 H 476.889 -0.332372 4.40849 0
M  V30 4926 N 475.948 -1.35272 0.808662 0
M  V30 4927 C 477.364 -1.51806 0.492653 0
M  V30 4928 C 477.564 -1.7574 -0.985778 0
M  V30 4929 O 476.62 -1.80003 -1.77074 0
M  V30 4930 C 477.933 -2.69202 1.33981 0
M  V30 4931 C 479.481 -2.8308 1.33547 0
M  V30 4932 C 479.956 -4.03502 2.16679 0
M  V30 4933 N 481.447 -4.10684 2.14227 0
M  V30 4934 C 482.182 -5.02984 2.75308 0
M  V30 4935 N 481.678 -6.00603 3.45323 0
M  V30 4936 N 483.471 -4.95746 2.64938 0
M  V30 4937 H 475.622 -1.17993 1.76611 0
M  V30 4938 H 477.885 -0.577476 0.751814 0
M  V30 4939 H 477.591 -2.581 2.38909 0
M  V30 4940 H 477.465 -3.63854 0.994491 0
M  V30 4941 H 479.852 -2.93631 0.294036 0
M  V30 4942 H 479.933 -1.89278 1.72068 0
M  V30 4943 H 479.577 -3.93711 3.20864 0
M  V30 4944 H 479.507 -4.96489 1.75517 0
M  V30 4945 H 481.998 -3.40802 1.63285 0
M  V30 4946 H 482.311 -6.67633 3.89212 0
M  V30 4947 H 480.656 -6.0077 3.49428 0
M  V30 4948 H 483.847 -4.18439 2.09825 0
M  V30 4949 H 484.02 -5.67487 3.12829 0
M  V30 4950 N 477.426 -0.562348 -1.47226 0
M  V30 4951 C 478.654 -0.0452275 -2.06851 0
M  V30 4952 C 479.069 1.25078 -1.41424 0
M  V30 4953 O 478.426 1.75156 -0.512513 0
M  V30 4954 C 478.477 0.148674 -3.61194 0
M  V30 4955 O 478.198 -1.09602 -4.24169 0
M  V30 4956 C 479.699 0.702488 -4.37699 0
M  V30 4957 H 476.919 -0.0481775 -0.669268 0
M  V30 4958 H 479.463 -0.777223 -1.89155 0
M  V30 4959 H 477.618 0.830817 -3.78386 0
M  V30 4960 H 478.032 -0.896982 -5.16773 0
M  V30 4961 H 479.506 0.78743 -5.46355 0
M  V30 4962 H 479.983 1.71493 -4.04335 0
M  V30 4963 H 480.589 0.0558772 -4.25263 0
M  V30 4964 N 478.904 1.54736 -0.299062 0
M  V30 4965 C 479.834 2.26409 0.571085 0
M  V30 4966 C 480.815 1.2629 1.13951 0
M  V30 4967 O 482 1.55059 1.16921 0
M  V30 4968 C 479.13 3.00338 1.74396 0
M  V30 4969 C 478.084 4.07588 1.30599 0
M  V30 4970 C 477.41 4.69222 2.56387 0
M  V30 4971 C 478.71 5.20455 0.438645 0
M  V30 4972 H 480.404 2.99388 -0.0266991 0
M  V30 4973 H 477.95 1.43993 -0.0142812 0
M  V30 4974 H 479.903 3.49198 2.35878 0
M  V30 4975 H 478.627 2.24934 2.36796 0
M  V30 4976 H 477.286 3.59575 0.71424 0
M  V30 4977 H 476.934 3.9046 3.17097 0
M  V30 4978 H 476.634 5.41653 2.27784 0
M  V30 4979 H 478.158 5.20844 3.18675 0
M  V30 4980 H 479.572 5.65221 0.959085 0
M  V30 4981 H 477.969 5.99594 0.246466 0
M  V30 4982 H 479.039 4.8192 -0.536738 0
M  V30 4983 N 480.382 0.0267497 1.57577 0
M  V30 4984 C 481.612 -0.6617 1.95717 0
M  V30 4985 C 482.02 -1.66331 0.901706 0
M  V30 4986 O 481.363 -1.83273 -0.125241 0
M  V30 4987 C 481.425 -1.42649 3.29987 0
M  V30 4988 C 481.089 -0.583482 4.5326 0
M  V30 4989 C 482.086 0.140221 5.19711 0
M  V30 4990 C 479.771 -0.521581 4.99585 0
M  V30 4991 C 481.765 0.914523 6.30805 0
M  V30 4992 C 479.452 0.256428 6.10562 0
M  V30 4993 C 480.45 0.973189 6.76031 0
M  V30 4994 O 480.138 1.73845 7.84878 0
M  V30 4995 H 479.87 -0.187483 0.649481 0
M  V30 4996 H 482.424 0.0820847 2.05236 0
M  V30 4997 H 480.654 -2.21536 3.16952 0
M  V30 4998 H 482.343 -2.00282 3.53047 0
M  V30 4999 H 483.109 0.101716 4.84893 0
M  V30 5000 H 478.988 -1.06904 4.48433 0
M  V30 5001 H 482.532 1.4745 6.81839 0
M  V30 5002 H 478.429 0.296657 6.44818 0
M  V30 5003 H 479.197 1.65797 8.01532 0
M  V30 5004 N 481.861 -1.55662 -0.24637 0
M  V30 5005 C 483.277 -1.48098 -0.594907 0
M  V30 5006 C 483.477 -0.717044 -1.8831 0
M  V30 5007 O 482.533 -0.246618 -2.51293 0
M  V30 5008 C 483.846 -2.92507 -0.697146 0
M  V30 5009 C 485.394 -3.02881 -0.789436 0
M  V30 5010 C 485.869 -4.48598 -0.923232 0
M  V30 5011 N 487.36 -4.52538 -0.988088 0
M  V30 5012 C 488.095 -5.62536 -1.11089 0
M  V30 5013 N 487.591 -6.82342 -1.19919 0
M  V30 5014 N 489.384 -5.50334 -1.14408 0
M  V30 5015 H 481.535 -2.0377 0.599278 0
M  V30 5016 H 483.798 -0.925145 0.20691 0
M  V30 5017 H 483.504 -3.51242 0.179396 0
M  V30 5018 H 483.378 -3.43024 -1.5689 0
M  V30 5019 H 485.765 -2.44226 -1.65643 0
M  V30 5020 H 485.846 -2.55574 0.107482 0
M  V30 5021 H 485.49 -5.07864 -0.0607927 0
M  V30 5022 H 485.42 -4.93587 -1.8352 0
M  V30 5023 H 487.911 -3.66248 -0.931167 0
M  V30 5024 H 488.224 -7.61924 -1.29197 0
M  V30 5025 H 486.569 -6.85102 -1.16876 0
M  V30 5026 H 489.76 -4.5567 -1.07158 0
M  V30 5027 H 489.933 -6.36096 -1.23634 0
M  V30 5028 N 483.339 0.512053 -1.4905 0
M  V30 5029 C 484.586 1.26686 -1.57978 0
M  V30 5030 C 484.914 1.92733 -0.261553 0
M  V30 5031 O 484.169 1.80772 0.749667 0
M  V30 5032 C 484.468 2.36446 -2.68008 0
M  V30 5033 C 484.134 1.87932 -4.09869 0
M  V30 5034 C 482.796 1.74419 -4.48477 0
M  V30 5035 C 485.148 1.5149 -4.98698 0
M  V30 5036 C 482.476 1.22827 -5.73699 0
M  V30 5037 C 484.828 1.01355 -6.24428 0
M  V30 5038 C 483.492 0.864735 -6.61875 0
M  V30 5039 H 482.762 0.463577 -0.578081 0
M  V30 5040 H 485.409 0.569421 -1.82838 0
M  V30 5041 H 483.714 3.11933 -2.37076 0
M  V30 5042 H 485.411 2.9453 -2.72127 0
M  V30 5043 H 482.001 1.99405 -3.79389 0
M  V30 5044 H 486.185 1.60782 -4.69535 0
M  V30 5045 H 481.441 1.10008 -6.01422 0
M  V30 5046 H 485.615 0.722351 -6.92644 0
M  V30 5047 H 483.242 0.462777 -7.5879 0
M  V30 5048 N 484.817 1.37938 0.762283 0
M  V30 5049 C 485.727 1.36681 1.90671 0
M  V30 5050 C 486.743 0.265078 1.71969 0
M  V30 5051 O 487.919 0.502055 1.95042 0
M  V30 5052 C 484.984 1.18211 3.25925 0
M  V30 5053 C 484.045 2.3811 3.57214 0
M  V30 5054 C 483.278 2.20512 4.86014 0
M  V30 5055 O 483.501 1.19429 5.57757 0
M  V30 5056 O 482.435 3.08911 5.16583 0
M  V30 5057 H 486.261 2.33091 1.94685 0
M  V30 5058 H 483.846 1.18767 0.906356 0
M  V30 5059 H 485.728 1.09937 4.06807 0
M  V30 5060 H 484.403 0.248807 3.22742 0
M  V30 5061 H 483.31 2.51958 2.76529 0
M  V30 5062 H 484.643 3.30041 3.65149 0
M  V30 5063 N 486.295 -0.989507 1.22664 0
M  V30 5064 C 487.243 -2.10148 0.997035 0
M  V30 5065 C 488.237 -1.6929 -0.0609783 0
M  V30 5066 O 489.443 -1.79766 0.0917523 0
M  V30 5067 H 485.818 -0.687256 0.305259 0
M  V30 5068 H 487.789 -2.26685 1.94053 0
M  V30 5069 C 486.538 -3.4257 0.595085 0
M  V30 5070 H 485.861 -3.74453 1.40089 0
M  V30 5071 H 487.301 -4.21344 0.473869 0
M  V30 5072 C 485.76 -3.29638 -0.695725 0
M  V30 5073 O 486.29 -3.61709 -1.74727 0
M  V30 5074 N 484.496 -2.82814 -0.668173 0
M  V30 5075 H 484.043 -2.56914 0.18787 0
M  V30 5076 H 484.001 -2.74544 -1.5321 0
M  V30 5077 N 487.773 -1.03688 -1.18687 0
M  V30 5078 C 488.705 -0.582696 -2.21669 0
M  V30 5079 C 489.718 0.345656 -1.59088 0
M  V30 5080 O 490.907 0.140776 -1.77944 0
M  V30 5081 C 488.007 0.169204 -3.38477 0
M  V30 5082 C 487.18 -0.766079 -4.30639 0
M  V30 5083 C 486.239 -0.0581541 -5.26168 0
M  V30 5084 O 485.265 -0.687346 -5.65035 0
M  V30 5085 N 486.467 1.20981 -5.67753 0
M  V30 5086 H 489.232 -1.46843 -2.61261 0
M  V30 5087 H 486.793 -0.916896 -1.33434 0
M  V30 5088 H 488.785 0.652543 -3.99405 0
M  V30 5089 H 487.355 0.956435 -2.97609 0
M  V30 5090 H 486.575 -1.42935 -3.67373 0
M  V30 5091 H 487.863 -1.40146 -4.89118 0
M  V30 5092 H 487.261 1.74159 -5.38224 0
M  V30 5093 H 485.818 1.6375 -6.30896 0
M  V30 5094 N 489.251 1.34841 -0.815825 0
M  V30 5095 C 490.479 2.0273 -0.413294 0
M  V30 5096 C 490.894 1.61459 0.978599 0
M  V30 5097 O 490.251 0.816584 1.63212 0
M  V30 5098 C 490.302 3.58058 -0.497676 0
M  V30 5099 O 490.023 3.97832 -1.8347 0
M  V30 5100 C 491.524 4.4321 -0.0891339 0
M  V30 5101 H 488.744 0.649956 -0.166728 0
M  V30 5102 H 491.288 1.72267 -1.10201 0
M  V30 5103 H 489.443 3.87136 0.142886 0
M  V30 5104 H 489.857 4.92501 -1.80396 0
M  V30 5105 H 491.331 5.5164 -0.199274 0
M  V30 5106 H 491.808 4.28432 0.966571 0
M  V30 5107 H 492.414 4.19446 -0.703214 0
M  V30 5108 N 490.729 0.570148 1.46925 0
M  V30 5109 C 491.977 0.0508523 2.02036 0
M  V30 5110 C 492.298 -1.30885 1.44548 0
M  V30 5111 O 491.568 -1.85647 0.625453 0
M  V30 5112 H 490.148 0.0158088 0.746833 0
M  V30 5113 H 492.81 0.743086 1.80178 0
M  V30 5114 H 491.906 -0.027575 3.12088 0
M  V30 5115 N 492.207 -1.54576 0.307264 0
M  V30 5116 C 493.454 -2.00263 -0.300167 0
M  V30 5117 C 493.782 -1.19561 -1.53413 0
M  V30 5118 O 493.037 -0.261487 -1.93945 0
M  V30 5119 C 493.336 -3.50572 -0.695253 0
M  V30 5120 C 493.002 -4.48771 0.437679 0
M  V30 5121 C 491.664 -4.7534 0.748681 0
M  V30 5122 C 494.016 -5.0721 1.19949 0
M  V30 5123 C 491.344 -5.5761 1.8245 0
M  V30 5124 C 493.696 -5.90651 2.26527 0
M  V30 5125 C 492.36 -6.15528 2.58227 0
M  V30 5126 H 491.63 -0.732814 -0.109839 0
M  V30 5127 H 494.277 -1.86664 0.427661 0
M  V30 5128 H 492.582 -3.61814 -1.50326 0
M  V30 5129 H 494.279 -3.83352 -1.17653 0
M  V30 5130 H 490.869 -4.282 0.185187 0
M  V30 5131 H 495.053 -4.86679 0.972474 0
M  V30 5132 H 490.309 -5.75121 2.07476 0
M  V30 5133 H 494.483 -6.34957 2.86011 0
M  V30 5134 H 492.11 -6.79066 3.4172 0
M  V30 5135 N 493.685 -0.035106 -1.57561 0
M  V30 5136 C 495.096 0.502885 -1.798 0
M  V30 5137 C 495.447 1.71892 -0.945921 0
M  V30 5138 O 494.572 2.15822 -0.157991 0
M  V30 5139 C 495.167 0.919097 -3.26095 0
M  V30 5140 C 493.726 1.40216 -3.49308 0
M  V30 5141 C 492.873 0.369709 -2.74824 0
M  V30 5142 H 495.824 -0.261102 -1.56537 0
M  V30 5143 H 495.845 1.78308 -3.36135 0
M  V30 5144 H 495.357 0.0338526 -3.88085 0
M  V30 5145 H 493.458 2.30714 -2.92578 0
M  V30 5146 H 493.571 1.40541 -4.58023 0
M  V30 5147 H 491.935 0.839113 -2.40481 0
M  V30 5148 H 492.718 -0.507173 -3.39533 0
M  V30 5149 N 495.163 1.55791 0.238111 0
M  V30 5150 C 496.574 1.68383 0.806472 0
M  V30 5151 C 496.925 0.634157 1.85669 0
M  V30 5152 O 496.05 -0.217913 2.153 0
M  V30 5153 C 496.645 3.05268 1.46959 0
M  V30 5154 C 495.204 3.1977 1.98555 0
M  V30 5155 C 494.351 2.64279 0.839763 0
M  V30 5156 H 497.302 1.58694 0.0137535 0
M  V30 5157 H 497.323 3.00203 2.33792 0
M  V30 5158 H 496.835 3.81643 0.704993 0
M  V30 5159 H 494.936 2.48234 2.77868 0
M  V30 5160 H 495.049 4.26788 2.17689 0
M  V30 5161 H 493.413 2.22329 1.24265 0
M  V30 5162 H 494.196 3.43187 0.0881032 0
M  V30 5163 N 496.642 -0.504142 1.49319 0
M  V30 5164 C 498.053 -1.08572 1.51885 0
M  V30 5165 C 498.404 -1.93842 0.303255 0
M  V30 5166 O 497.529 -2.0828 -0.58724 0
M  V30 5167 C 498.124 -1.97574 2.75227 0
M  V30 5168 C 496.683 -2.509 2.80581 0
M  V30 5169 C 495.83 -1.28447 2.45757 0
M  V30 5170 H 498.781 -0.288194 1.56061 0
M  V30 5171 H 498.802 -2.82219 2.55211 0
M  V30 5172 H 498.314 -1.35486 3.63683 0
M  V30 5173 H 496.415 -3.16636 1.96398 0
M  V30 5174 H 496.528 -2.88268 3.82673 0
M  V30 5175 H 494.892 -1.60868 1.97468 0
M  V30 5176 H 495.675 -0.68072 3.36483 0
M  V30 5177 N 498.12 -1.38341 -0.754957 0
M  V30 5178 C 499.397 -1.24995 -1.50451 0
M  V30 5179 C 499.777 0.149244 -2.10572 0
M  V30 5180 O 499.125 1.15861 -1.96948 0
M  V30 5181 C 499.335 -2.35904 -2.57197 0
M  V30 5182 C 500.683 -2.74262 -3.24138 0
M  V30 5183 O 501.707 -2.35205 -2.67501 0
M  V30 5184 O 500.566 -3.4161 -4.26574 0
M  V30 5185 H 497.66 -0.48872 -0.667144 0
M  V30 5186 H 500.206 -1.50165 -0.790486 0
M  V30 5187 H 498.978 -3.2953 -2.11011 0
M  V30 5188 H 498.601 -2.12291 -3.36182 0
M  V30 5189 N 499.598 0.982988 -1.23187 0
M  V30 5190 C 500.823 1.76455 -1.08988 0
M  V30 5191 C 501.248 1.84726 0.354691 0
M  V30 5192 O 500.606 1.30699 1.25649 0
M  V30 5193 C 500.654 3.17094 -1.71708 0
M  V30 5194 O 499.758 4.00648 -0.977477 0
M  V30 5195 H 499.099 0.542988 -0.382177 0
M  V30 5196 H 501.629 1.23413 -1.63188 0
M  V30 5197 H 501.639 3.67684 -1.76841 0
M  V30 5198 H 500.314 3.10389 -2.76823 0
M  V30 5199 H 498.891 3.59161 -1.0029 0
M  V30 5200 N 501.076 1.04316 1.18135 0
M  V30 5201 C 502.492 0.762858 1.40188 0
M  V30 5202 C 502.692 -0.646547 1.90846 0
M  V30 5203 O 501.748 -1.41036 2.0944 0
M  V30 5204 C 503.061 1.81106 2.40044 0
M  V30 5205 C 504.609 1.83226 2.53766 0
M  V30 5206 C 505.084 2.87044 3.56889 0
M  V30 5207 N 506.575 2.85951 3.64398 0
M  V30 5208 C 507.31 3.62932 4.43923 0
M  V30 5209 N 506.806 4.49672 5.27036 0
M  V30 5210 N 508.599 3.51411 4.38711 0
M  V30 5211 H 500.75 1.95264 0.835805 0
M  V30 5212 H 503.013 0.845017 0.429709 0
M  V30 5213 H 502.719 2.82214 2.09876 0
M  V30 5214 H 502.593 1.64529 3.39426 0
M  V30 5215 H 504.98 0.827869 2.8325 0
M  V30 5216 H 505.061 2.03879 1.54489 0
M  V30 5217 H 504.705 3.87663 3.28145 0
M  V30 5218 H 504.635 2.63645 4.5585 0
M  V30 5219 H 507.126 2.23051 3.05052 0
M  V30 5220 H 507.439 5.05116 5.84874 0
M  V30 5221 H 505.784 4.53738 5.26447 0
M  V30 5222 H 508.975 2.83047 3.72829 0
M  V30 5223 H 509.148 4.11654 5.00445 0
M  V30 5224 N 502.554 -1.34406 0.822964 0
M  V30 5225 C 503.801 -1.98284 0.411057 0
M  V30 5226 C 504.129 -1.65245 -1.02588 0
M  V30 5227 O 503.384 -0.91619 -1.72929 0
M  V30 5228 C 503.683 -3.52981 0.560268 0
M  V30 5229 C 503.349 -4.05931 1.96293 0
M  V30 5230 C 502.011 -4.20103 2.34664 0
M  V30 5231 C 504.363 -4.34412 2.87985 0
M  V30 5232 C 501.691 -4.60082 3.64062 0
M  V30 5233 C 504.043 -4.75838 4.16847 0
M  V30 5234 C 502.707 -4.88215 4.55195 0
M  V30 5235 H 501.977 -0.725573 0.150416 0
M  V30 5236 H 504.624 -1.60349 1.04692 0
M  V30 5237 H 502.929 -3.91477 -0.158982 0
M  V30 5238 H 504.626 -4.00385 0.222087 0
M  V30 5239 H 501.216 -3.95363 1.65487 0
M  V30 5240 H 505.4 -4.23001 2.59584 0
M  V30 5241 H 500.656 -4.67856 3.93599 0
M  V30 5242 H 504.83 -4.96834 4.87984 0
M  V30 5243 H 502.457 -5.18952 5.55512 0
M  V30 5244 N 504.032 -0.577932 -1.46621 0
M  V30 5245 C 505.309 0.00495287 -1.95599 0
M  V30 5246 C 505.689 1.46428 -1.5206 0
M  V30 5247 O 505.037 2.1517 -0.769046 0
M  V30 5248 C 505.247 -0.162114 -3.48623 0
M  V30 5249 C 506.595 -0.0274623 -4.24591 0
M  V30 5250 O 507.619 -0.0907067 -3.56084 0
M  V30 5251 O 506.478 0.1122 -5.46385 0
M  V30 5252 H 503.572 0.0525057 -0.825332 0
M  V30 5253 H 506.118 -0.645914 -1.56927 0
M  V30 5254 H 504.89 -1.17679 -3.73185 0
M  V30 5255 H 504.513 0.525407 -3.94113 0
M  V30 5256 N 505.51 1.54411 -0.315457 0
M  V30 5257 C 506.473 2.22713 0.54142 0
M  V30 5258 C 507.473 1.2179 1.04995 0
M  V30 5259 O 508.663 1.46426 0.943667 0
M  V30 5260 C 505.795 2.92485 1.75116 0
M  V30 5261 H 506.988 2.99849 -0.0555508 0
M  V30 5262 H 504.541 1.56159 -0.0664453 0
M  V30 5263 H 505.276 2.19466 2.38758 0
M  V30 5264 H 505.061 3.66483 1.39401 0
M  V30 5265 H 506.551 3.44548 2.35959 0
M  V30 5266 N 506.988 0.0434614 1.5754 0
M  V30 5267 C 508.218 -0.640905 1.96408 0
M  V30 5268 C 508.626 -1.65365 0.919297 0
M  V30 5269 O 507.969 -1.83395 -0.105795 0
M  V30 5270 C 508.031 -1.39141 3.31482 0
M  V30 5271 C 507.695 -0.535375 4.53853 0
M  V30 5272 C 508.692 0.195335 5.19533 0
M  V30 5273 C 506.377 -0.468564 5.0011 0
M  V30 5274 C 508.371 0.981377 6.298 0
M  V30 5275 C 506.058 0.321171 6.10255 0
M  V30 5276 C 507.056 1.04484 6.74961 0
M  V30 5277 O 506.744 1.8216 7.8299 0
M  V30 5278 H 506.476 -0.180584 0.651433 0
M  V30 5279 H 509.03 0.103848 2.05137 0
M  V30 5280 H 507.26 -2.18162 3.19284 0
M  V30 5281 H 508.949 -1.96526 3.55151 0
M  V30 5282 H 509.715 0.15314 4.84758 0
M  V30 5283 H 505.594 -1.02142 4.49542 0
M  V30 5284 H 509.138 1.54674 6.80237 0
M  V30 5285 H 505.035 0.365032 6.44467 0
M  V30 5286 H 505.803 1.74289 7.99728 0
M  V30 5287 N 508.466 -1.55915 -0.229846 0
M  V30 5288 C 509.706 -1.80314 -0.962614 0
M  V30 5289 C 510.07 -0.61568 -1.81861 0
M  V30 5290 O 511.271 -0.738795 -2.58448 0
M  V30 5291 C 509.542 -3.0956 -1.78627 0
M  V30 5292 S 511.101 -3.55243 -2.57581 0
M  V30 5293 H 507.919 -0.633142 -0.323499 0
M  V30 5294 H 510.521 -1.94155 -0.228919 0
M  V30 5295 H 509.225 -3.94033 -1.14742 0
M  V30 5296 H 508.756 -2.98503 -2.56241 0
M  V30 5297 H 510.771 -3.17924 -3.80971 0
M  V30 5298 N 509.944 0.496216 -1.49584 0
M  V30 5299 C 511.191 1.25003 -1.59312 0
M  V30 5300 C 511.519 1.92445 -0.28198 0
M  V30 5301 O 510.774 1.81557 0.730452 0
M  V30 5302 C 511.073 2.3359 -2.705 0
M  V30 5303 C 510.739 1.83574 -4.11839 0
M  V30 5304 C 509.401 1.69653 -4.50302 0
M  V30 5305 C 511.753 1.46193 -5.00277 0
M  V30 5306 C 509.081 1.16736 -5.74969 0
M  V30 5307 C 511.433 0.947265 -6.25468 0
M  V30 5308 C 510.097 0.794485 -6.62755 0
M  V30 5309 H 509.367 0.45742 -0.582965 0
M  V30 5310 H 512.014 0.549996 -1.83432 0
M  V30 5311 H 510.319 3.09401 -2.40371 0
M  V30 5312 H 512.016 2.91627 -2.75235 0
M  V30 5313 H 508.606 1.9537 -3.81482 0
M  V30 5314 H 512.79 1.55793 -4.71214 0
M  V30 5315 H 508.046 1.03623 -6.02555 0
M  V30 5316 H 512.22 0.648846 -6.93371 0
M  V30 5317 H 509.847 0.382271 -7.59238 0
M  V30 5318 N 511.423 1.38739 0.74761 0
M  V30 5319 C 512.37 1.36449 1.86146 0
M  V30 5320 C 513.34 0.226098 1.64554 0
M  V30 5321 O 514.525 0.41926 1.86137 0
M  V30 5322 C 511.665 1.2013 3.23516 0
M  V30 5323 C 510.778 2.43407 3.56899 0
M  V30 5324 C 509.913 2.19773 4.83605 0
M  V30 5325 C 508.952 3.3879 5.09792 0
M  V30 5326 N 508.089 3.14553 6.27695 0
M  V30 5327 H 512.929 2.3167 1.87438 0
M  V30 5328 H 510.466 1.15094 0.916063 0
M  V30 5329 H 512.424 1.08683 4.02795 0
M  V30 5330 H 511.054 0.285453 3.21535 0
M  V30 5331 H 510.106 2.65504 2.72418 0
M  V30 5332 H 511.418 3.32094 3.72176 0
M  V30 5333 H 510.572 2.05496 5.70838 0
M  V30 5334 H 509.311 1.28461 4.70478 0
M  V30 5335 H 508.316 3.53579 4.21025 0
M  V30 5336 H 509.541 4.30986 5.24812 0
M  V30 5337 H 507.487 2.25893 6.1588 0
M  V30 5338 H 507.404 3.96791 6.435 0
M  V30 5339 H 508.672 3.03943 7.17801 0
M  V30 5340 N 512.901 -0.976442 1.23707 0
M  V30 5341 C 514.312 -1.53284 1.06587 0
M  V30 5342 C 514.663 -1.92765 -0.365526 0
M  V30 5343 O 513.788 -1.7645 -1.25277 0
M  V30 5344 C 514.383 -2.78548 1.92864 0
M  V30 5345 C 512.942 -3.30574 1.79994 0
M  V30 5346 C 512.089 -2.03538 1.88328 0
M  V30 5347 H 515.04 -0.795692 1.37311 0
M  V30 5348 H 515.061 -3.5155 1.45577 0
M  V30 5349 H 514.573 -2.49782 2.97037 0
M  V30 5350 H 512.674 -3.64211 0.786202 0
M  V30 5351 H 512.787 -4.00065 2.636 0
M  V30 5352 H 511.151 -2.17853 1.31954 0
M  V30 5353 H 511.934 -1.77149 2.94063 0
M  V30 5354 N 514.379 -1.04941 -1.1758 0
M  V30 5355 C 515.326 -0.648155 -2.21512 0
M  V30 5356 C 516.296 0.348431 -1.62404 0
M  V30 5357 O 517.481 0.240419 -1.89279 0
M  V30 5358 C 514.621 -0.0264291 -3.4509 0
M  V30 5359 C 513.734 -1.07154 -4.185 0
M  V30 5360 C 512.869 -0.417403 -5.29558 0
M  V30 5361 C 511.908 -1.447 -5.94751 0
M  V30 5362 N 511.045 -0.817203 -6.97328 0
M  V30 5363 H 515.885 -1.53891 -2.55189 0
M  V30 5364 H 513.422 -0.769699 -1.25356 0
M  V30 5365 H 515.38 0.351456 -4.15717 0
M  V30 5366 H 514.01 0.827802 -3.12005 0
M  V30 5367 H 513.062 -1.56728 -3.46613 0
M  V30 5368 H 514.374 -1.8532 -4.63096 0
M  V30 5369 H 513.528 0.0142061 -6.06698 0
M  V30 5370 H 512.267 0.396265 -4.86087 0
M  V30 5371 H 511.272 -1.88865 -5.16343 0
M  V30 5372 H 512.497 -2.26252 -6.40302 0
M  V30 5373 H 510.443 -0.0239995 -6.55996 0
M  V30 5374 H 510.36 -1.53644 -7.40223 0
M  V30 5375 H 511.628 -0.410283 -7.7842 0
M  V30 5376 N 515.857 1.33968 -0.830081 0
M  V30 5377 C 516.767 2.33164 -0.259207 0
M  V30 5378 C 517.783 1.62951 0.610164 0
M  V30 5379 O 518.959 1.94668 0.516369 0
M  V30 5380 C 516.024 3.42088 0.563598 0
M  V30 5381 C 515.085 4.28037 -0.329014 0
M  V30 5382 C 514.318 5.3176 0.454616 0
M  V30 5383 O 514.541 5.44876 1.6872 0
M  V30 5384 O 513.475 6.01669 -0.166794 0
M  V30 5385 H 517.301 2.83832 -1.08041 0
M  V30 5386 H 514.886 1.37154 -0.59239 0
M  V30 5387 H 516.768 4.08581 1.03147 0
M  V30 5388 H 515.443 2.93651 1.36201 0
M  V30 5389 H 514.35 3.64443 -0.844538 0
M  V30 5390 H 515.683 4.79934 -1.09196 0
M  V30 5391 N 517.335 0.585699 1.46312 0
M  V30 5392 C 518.298 -0.135673 2.28798 0
M  V30 5393 C 519.298 -0.815988 1.38558 0
M  V30 5394 O 520.488 -0.667487 1.60904 0
M  V30 5395 C 517.62 -1.20163 3.1902 0
M  V30 5396 H 518.813 0.589257 2.94054 0
M  V30 5397 H 516.366 0.343794 1.52472 0
M  V30 5398 H 517.101 -1.95804 2.58517 0
M  V30 5399 H 516.886 -0.718282 3.85465 0
M  V30 5400 H 518.376 -1.70749 3.81096 0
M  V30 5401 N 518.813 -1.54241 0.323641 0
M  V30 5402 C 520.041 -2.04985 -0.280871 0
M  V30 5403 C 520.456 -1.19978 -1.45777 0
M  V30 5404 O 519.813 -0.230471 -1.81039 0
M  V30 5405 C 519.864 -3.54353 -0.715258 0
M  V30 5406 O 519.585 -4.36132 0.414817 0
M  V30 5407 C 521.086 -4.21189 -1.38257 0
M  V30 5408 H 518.306 -0.66851 -0.0577502 0
M  V30 5409 H 520.85 -1.99029 0.469852 0
M  V30 5410 H 519.005 -3.60596 -1.41596 0
M  V30 5411 H 519.419 -5.2445 0.0725227 0
M  V30 5412 H 520.893 -5.27154 -1.63745 0
M  V30 5413 H 521.37 -3.72307 -2.32989 0
M  V30 5414 H 521.976 -4.19085 -0.724447 0
M  V30 5415 N 520.291 -0.0518155 -1.57515 0
M  V30 5416 C 521.519 0.631395 -1.9703 0
M  V30 5417 C 521.934 1.64341 -0.92938 0
M  V30 5418 O 521.291 1.82296 0.0863266 0
M  V30 5419 C 521.342 1.31774 -3.36627 0
M  V30 5420 O 521.063 0.346247 -4.3673 0
M  V30 5421 C 522.564 2.09065 -3.90905 0
M  V30 5422 H 519.784 0.172576 -0.648428 0
M  V30 5423 H 522.328 -0.118306 -2.04158 0
M  V30 5424 H 520.483 2.01867 -3.30649 0
M  V30 5425 H 520.897 0.836226 -5.17791 0
M  V30 5426 H 522.371 2.52508 -4.9086 0
M  V30 5427 H 522.848 2.93908 -3.26366 0
M  V30 5428 H 523.454 1.43882 -4.00223 0
M  V30 5429 N 521.769 1.56035 0.221574 0
M  V30 5430 C 523.018 1.78245 0.944016 0
M  V30 5431 C 523.331 0.620371 1.85501 0
M  V30 5432 O 524.537 0.726103 2.6161 0
M  V30 5433 C 522.993 3.15659 1.7288 0
M  V30 5434 C 522.601 4.39591 0.863942 0
M  V30 5435 C 524.345 3.47195 2.44246 0
M  V30 5436 C 522.252 5.6803 1.64607 0
M  V30 5437 H 521.182 0.664547 0.356222 0
M  V30 5438 H 523.833 1.8243 0.197904 0
M  V30 5439 H 522.215 3.0565 2.51781 0
M  V30 5440 H 523.389 4.60655 0.115464 0
M  V30 5441 H 521.704 4.15572 0.262407 0
M  V30 5442 H 524.301 4.40381 3.03263 0
M  V30 5443 H 524.644 2.69693 3.1713 0
M  V30 5444 H 525.177 3.58533 1.72334 0
M  V30 5445 H 521.916 6.48425 0.960507 0
M  V30 5446 H 521.436 5.51027 2.36917 0
M  V30 5447 H 523.115 6.08203 2.20675 0
M  V30 5448 N 523.247 -0.488276 1.49845 0
M  V30 5449 C 524.524 -1.24959 1.50481 0
M  V30 5450 C 524.904 -2.09735 0.239698 0
M  V30 5451 O 524.252 -2.14865 -0.777524 0
M  V30 5452 C 524.462 -2.0954 2.79095 0
M  V30 5453 C 525.81 -2.68305 3.29086 0
M  V30 5454 O 526.834 -2.19797 2.80299 0
M  V30 5455 O 525.693 -3.56643 4.14087 0
M  V30 5456 H 522.787 -0.566133 0.602845 0
M  V30 5457 H 525.333 -0.501504 1.6212 0
M  V30 5458 H 524.105 -1.46958 3.62656 0
M  V30 5459 H 523.728 -2.91517 2.70377 0
M  V30 5460 N 524.725 -1.39134 -0.740242 0
M  V30 5461 C 525.655 -1.40165 -1.86751 0
M  V30 5462 C 526.636 -0.265708 -1.68012 0
M  V30 5463 O 527.821 -0.47076 -1.88408 0
M  V30 5464 C 524.951 -1.2392 -3.2444 0
M  V30 5465 C 523.905 -2.34858 -3.57807 0
M  V30 5466 C 523.231 -2.03707 -4.94376 0
M  V30 5467 C 524.531 -3.77159 -3.61315 0
M  V30 5468 H 526.225 -2.345 -1.86145 0
M  V30 5469 H 523.771 -1.12875 -0.89416 0
M  V30 5470 H 525.724 -1.23263 -4.02969 0
M  V30 5471 H 524.448 -0.26051 -3.25559 0
M  V30 5472 H 523.107 -2.34723 -2.81604 0
M  V30 5473 H 522.755 -1.04289 -4.9207 0
M  V30 5474 H 522.455 -2.78016 -5.17669 0
M  V30 5475 H 523.979 -2.04691 -5.75268 0
M  V30 5476 H 525.393 -3.79252 -4.29931 0
M  V30 5477 H 523.79 -4.50784 -3.96124 0
M  V30 5478 H 524.86 -4.08513 -2.61238 0
M  V30 5479 N 526.204 0.969867 -1.24223 0
M  V30 5480 C 527.429 1.75289 -1.10853 0
M  V30 5481 C 527.854 1.85091 0.335079 0
M  V30 5482 O 527.212 1.32024 1.24255 0
M  V30 5483 C 527.26 3.15255 -1.75062 0
M  V30 5484 O 526.364 3.99589 -1.01992 0
M  V30 5485 H 525.705 0.538904 -0.387915 0
M  V30 5486 H 528.235 1.21675 -1.64488 0
M  V30 5487 H 528.245 3.65787 -1.80731 0
M  V30 5488 H 526.92 3.07436 -2.801 0
M  V30 5489 H 525.497 3.58077 -1.04094 0
M  V30 5490 N 527.682 1.05563 1.17022 0
M  V30 5491 C 528.931 0.763036 1.8671 0
M  V30 5492 C 529.244 -0.712857 1.82147 0
M  V30 5493 O 530.45 -1.11955 2.47343 0
M  V30 5494 C 528.906 1.31474 3.35026 0
M  V30 5495 C 528.514 2.82034 3.48081 0
M  V30 5496 C 530.258 1.09935 4.10018 0
M  V30 5497 C 528.165 3.30486 4.90442 0
M  V30 5498 H 527.095 0.281747 0.699382 0
M  V30 5499 H 529.746 1.2734 1.32124 0
M  V30 5500 H 528.128 0.732171 3.89173 0
M  V30 5501 H 529.302 3.46178 3.04133 0
M  V30 5502 H 527.617 3.02156 2.86515 0
M  V30 5503 H 530.214 1.43632 5.15048 0
M  V30 5504 H 530.557 0.0373072 4.16283 0
M  V30 5505 H 531.09 1.64732 3.62089 0
M  V30 5506 H 527.829 4.36137 4.89352 0
M  V30 5507 H 527.349 2.71086 5.35044 0
M  V30 5508 H 529.028 3.25382 5.59227 0
M  V30 5509 N 529.16 -1.33526 0.837174 0
M  V30 5510 C 530.09 -2.31764 0.284206 0
M  V30 5511 C 531.071 -1.58896 -0.607142 0
M  V30 5512 O 532.256 -1.86798 -0.531047 0
M  V30 5513 C 529.386 -3.43029 -0.542962 0
M  V30 5514 C 528.34 -4.27255 0.252451 0
M  V30 5515 C 527.666 -5.3012 -0.69836 0
M  V30 5516 C 528.966 -5.01229 1.46858 0
M  V30 5517 H 530.66 -2.78262 1.10502 0
M  V30 5518 H 528.206 -1.3378 0.532812 0
M  V30 5519 H 530.159 -4.1078 -0.940096 0
M  V30 5520 H 528.883 -2.95216 -1.39697 0
M  V30 5521 H 527.542 -3.61127 0.631124 0
M  V30 5522 H 527.19 -4.78564 -1.54872 0
M  V30 5523 H 526.89 -5.87353 -0.170274 0
M  V30 5524 H 528.414 -6.00737 -1.09305 0
M  V30 5525 H 529.828 -5.61756 1.14469 0
M  V30 5526 H 528.225 -5.68104 1.93333 0
M  V30 5527 H 529.295 -4.301 2.23924 0
M  V30 5528 N 530.638 -0.59345 -1.46 0
M  V30 5529 C 531.601 0.123538 -2.28867 0
M  V30 5530 C 532.601 0.808628 -1.38989 0
M  V30 5531 O 533.791 0.658945 -1.61256 0
M  V30 5532 C 530.923 1.1847 -3.19653 0
M  V30 5533 H 532.116 -0.604843 -2.93737 0
M  V30 5534 H 529.669 -0.351875 -1.52288 0
M  V30 5535 H 530.404 1.94431 -2.59552 0
M  V30 5536 H 530.189 0.69783 -3.8584 0
M  V30 5537 H 531.679 1.68726 -3.81997 0
M  V30 5538 N 532.116 1.54067 -0.331816 0
M  V30 5539 C 533.026 2.28322 0.539104 0
M  V30 5540 C 534.042 1.32985 1.1221 0
M  V30 5541 O 535.218 1.6601 1.1403 0
M  V30 5542 C 532.283 3.03277 1.68 0
M  V30 5543 C 531.344 4.14216 1.12798 0
M  V30 5544 C 530.577 4.85588 2.2145 0
M  V30 5545 O 530.8 4.56536 3.41952 0
M  V30 5546 O 529.734 5.72309 1.86404 0
M  V30 5547 H 533.56 3.03632 -0.0641692 0
M  V30 5548 H 531.145 1.49083 -0.0972365 0
M  V30 5549 H 533.027 3.50189 2.34405 0
M  V30 5550 H 531.702 2.30834 2.2693 0
M  V30 5551 H 530.609 3.71635 0.428782 0
M  V30 5552 H 531.942 4.88727 0.583698 0
M  V30 5553 N 533.594 0.0601682 1.57485 0
M  V30 5554 C 534.822 -0.620937 1.97363 0
M  V30 5555 C 535.237 -1.63846 0.938082 0
M  V30 5556 O 534.594 -1.82339 -0.0766578 0
M  V30 5557 C 534.645 -1.29987 3.37321 0
M  V30 5558 O 534.366 -0.323081 4.36907 0
M  V30 5559 C 535.867 -2.06989 3.92008 0
M  V30 5560 H 533.087 -0.169135 0.649334 0
M  V30 5561 H 535.631 0.129132 2.04092 0
M  V30 5562 H 533.786 -2.0011 3.31715 0
M  V30 5563 H 534.2 -0.808754 5.18227 0
M  V30 5564 H 535.674 -2.49901 4.92192 0
M  V30 5565 H 536.151 -2.92173 3.2792 0
M  V30 5566 H 536.757 -1.41757 4.0098 0
M  V30 5567 N 535.072 -1.5615 -0.213296 0
M  V30 5568 C 536.035 -1.92249 -1.24792 0
M  V30 5569 C 537.035 -0.801828 -1.39382 0
M  V30 5570 O 538.225 -1.06948 -1.37506 0
M  V30 5571 C 535.357 -2.18056 -2.62039 0
M  V30 5572 H 536.55 -2.84793 -0.939845 0
M  V30 5573 H 534.103 -1.49559 -0.454062 0
M  V30 5574 H 534.838 -1.2809 -2.97932 0
M  V30 5575 H 534.623 -2.99703 -2.52825 0
M  V30 5576 H 536.113 -2.47051 -3.36683 0
M  V30 5577 N 536.55 0.480323 -1.50102 0
M  V30 5578 C 537.775 1.26126 -1.64642 0
M  V30 5579 C 538.2 1.85257 -0.325823 0
M  V30 5580 O 537.558 1.66854 0.709194 0
M  V30 5581 C 537.606 2.35243 -2.73301 0
M  V30 5582 O 536.71 3.39646 -2.33911 0
M  V30 5583 H 536.051 0.371463 -0.550374 0
M  V30 5584 H 538.581 0.572696 -1.96421 0
M  V30 5585 H 538.591 2.80695 -2.96098 0
M  V30 5586 H 537.266 1.91574 -3.6915 0
M  V30 5587 H 535.843 2.99969 -2.21525 0
M  V30 5588 N 538.028 1.39524 0.732853 0
M  V30 5589 C 539.439 1.32905 1.31122 0
M  V30 5590 C 539.79 -0.00558708 1.96199 0
M  V30 5591 O 538.915 -0.907706 1.96443 0
M  V30 5592 C 539.51 2.40704 2.38426 0
M  V30 5593 C 538.069 2.37599 2.91931 0
M  V30 5594 C 537.216 2.2248 1.65523 0
M  V30 5595 H 540.167 1.49581 0.530207 0
M  V30 5596 H 540.188 2.07616 3.18867 0
M  V30 5597 H 539.7 3.37829 1.91033 0
M  V30 5598 H 537.801 1.44119 3.43599 0
M  V30 5599 H 537.914 3.32538 3.44899 0
M  V30 5600 H 536.278 1.69691 1.8994 0
M  V30 5601 H 537.061 3.21577 1.20178 0
M  V30 5602 N 539.506 -0.963266 1.24736 0
M  V30 5603 C 540.731 -1.74699 1.11781 0
M  V30 5604 C 541.156 -1.85267 -0.325258 0
M  V30 5605 O 540.514 -1.32681 -1.23553 0
M  V30 5606 C 540.562 -3.14322 1.76731 0
M  V30 5607 O 539.666 -3.99043 1.04109 0
M  V30 5608 H 539.007 -0.53684 0.390767 0
M  V30 5609 H 541.537 -1.20801 1.65131 0
M  V30 5610 H 541.547 -3.64824 1.82668 0
M  V30 5611 H 540.222 -3.05946 2.81726 0
M  V30 5612 H 538.799 -3.5752 1.05991 0
M  V30 5613 N 540.985 -1.06182 -1.16461 0
M  V30 5614 C 541.915 -0.692861 -2.22984 0
M  V30 5615 C 542.896 0.314122 -1.67174 0
M  V30 5616 O 544.081 0.189499 -1.93273 0
M  V30 5617 C 541.211 -0.07732 -3.47214 0
M  V30 5618 C 540.165 -1.01015 -4.15909 0
M  V30 5619 C 539.491 -0.257973 -5.34077 0
M  V30 5620 C 540.791 -2.33868 -4.67015 0
M  V30 5621 H 542.485 -1.58343 -2.54102 0
M  V30 5622 H 540.031 -0.76279 -1.22137 0
M  V30 5623 H 541.984 0.19266 -4.20959 0
M  V30 5624 H 540.708 0.848254 -3.15392 0
M  V30 5625 H 539.367 -1.26486 -3.44088 0
M  V30 5626 H 539.015 0.670684 -4.98509 0
M  V30 5627 H 538.715 -0.879638 -5.80979 0
M  V30 5628 H 540.239 0.00448788 -6.106 0
M  V30 5629 H 541.653 -2.1279 -5.32347 0
M  V30 5630 H 540.05 -2.91522 -5.24533 0
M  V30 5631 H 541.12 -2.97019 -3.83286 0
M  V30 5632 N 542.463 1.3308 -0.844243 0
M  V30 5633 C 543.688 2.02341 -0.455282 0
M  V30 5634 C 544.113 1.6308 0.93737 0
M  V30 5635 O 543.471 0.826118 1.61385 0
M  V30 5636 C 543.519 3.55743 -0.58988 0
M  V30 5637 O 542.623 4.1063 0.38166 0
M  V30 5638 H 541.964 0.637898 -0.184343 0
M  V30 5639 H 544.494 1.6986 -1.14056 0
M  V30 5640 H 544.504 4.05243 -0.473522 0
M  V30 5641 H 543.179 3.83662 -1.60549 0
M  V30 5642 H 541.756 3.72236 0.22241 0
M  V30 5643 N 543.941 0.601185 1.45683 0
M  V30 5644 C 544.888 -0.121396 2.30481 0
M  V30 5645 C 545.858 -0.866232 1.41724 0
M  V30 5646 O 547.043 -0.85324 1.70659 0
M  V30 5647 C 544.183 -1.11704 3.26521 0
M  V30 5648 C 543.296 -0.373741 4.3038 0
M  V30 5649 C 542.431 -1.35854 5.13534 0
M  V30 5650 C 541.47 -0.602689 6.09126 0
M  V30 5651 N 540.607 -1.53645 6.85082 0
M  V30 5652 H 545.447 0.607732 2.91737 0
M  V30 5653 H 542.984 0.311502 1.43764 0
M  V30 5654 H 544.942 -1.70735 3.80664 0
M  V30 5655 H 543.572 -1.81366 2.67032 0
M  V30 5656 H 542.624 0.331962 3.78949 0
M  V30 5657 H 543.936 0.2163 4.98331 0
M  V30 5658 H 543.09 -2.02111 5.72046 0
M  V30 5659 H 541.829 -1.98251 4.45587 0
M  V30 5660 H 540.834 0.0735482 5.49751 0
M  V30 5661 H 542.059 0.0161467 6.79098 0
M  V30 5662 H 540.005 -2.14819 6.1983 0
M  V30 5663 H 539.922 -0.999688 7.49361 0
M  V30 5664 H 541.19 -2.1888 7.48139 0
M  V30 5665 N 545.419 -1.53889 0.339982 0
M  V30 5666 C 546.329 -2.28604 -0.526988 0
M  V30 5667 C 547.345 -1.33578 -1.11503 0
M  V30 5668 O 548.521 -1.66612 -1.13148 0
M  V30 5669 C 545.586 -3.04164 -1.66389 0
M  V30 5670 C 544.647 -4.14809 -1.10599 0
M  V30 5671 C 543.88 -4.86756 -2.18871 0
M  V30 5672 O 544.103 -4.58343 -3.39526 0
M  V30 5673 O 543.037 -5.73289 -1.83366 0
M  V30 5674 H 546.863 -3.03594 0.0802707 0
M  V30 5675 H 544.448 -1.4903 0.105141 0
M  V30 5676 H 546.33 -3.51427 -2.32544 0
M  V30 5677 H 545.005 -2.32035 -2.25703 0
M  V30 5678 H 543.912 -3.71857 -0.409067 0
M  V30 5679 H 545.245 -4.89029 -0.557771 0
M  V30 5680 N 546.897 -0.0685191 -1.57451 0
M  V30 5681 C 548.308 0.464634 -1.80826 0
M  V30 5682 C 548.659 1.69847 -0.982169 0
M  V30 5683 O 547.784 2.15439 -0.203734 0
M  V30 5684 C 548.379 0.849721 -3.27971 0
M  V30 5685 C 546.938 1.32776 -3.52204 0
M  V30 5686 C 546.085 0.311332 -2.75547 0
M  V30 5687 H 549.036 -0.294248 -1.55948 0
M  V30 5688 H 549.057 1.71138 -3.39841 0
M  V30 5689 H 548.569 -0.0484736 -3.8807 0
M  V30 5690 H 546.67 2.24456 -2.97406 0
M  V30 5691 H 546.783 1.30794 -4.60901 0
M  V30 5692 H 545.147 0.787915 -2.42206 0
M  V30 5693 H 545.93 -0.579078 -3.38381 0
M  V30 5694 N 548.375 1.56261 0.205012 0
M  V30 5695 C 549.307 1.90266 1.27795 0
M  V30 5696 C 550.32 0.792397 1.42214 0
M  V30 5697 O 551.509 1.07077 1.42817 0
M  V30 5698 C 548.609 2.11074 2.65143 0
M  V30 5699 C 547.782 3.42176 2.7246 0
M  V30 5700 C 546.841 3.52216 3.90936 0
M  V30 5701 O 545.867 4.25119 3.78501 0
M  V30 5702 N 547.069 2.84573 5.05963 0
M  V30 5703 H 549.834 2.82896 0.989434 0
M  V30 5704 H 547.395 1.57008 0.394981 0
M  V30 5705 H 549.387 2.15089 3.4281 0
M  V30 5706 H 547.957 1.2499 2.86524 0
M  V30 5707 H 547.177 3.50116 1.81142 0
M  V30 5708 H 548.465 4.28509 2.74331 0
M  V30 5709 H 547.863 2.25152 5.18963 0
M  V30 5710 H 546.42 2.94228 5.81613 0
M  V30 5711 N 549.853 -0.472356 1.50355 0
M  V30 5712 C 550.786 -1.58923 1.63764 0
M  V30 5713 C 551.764 -1.55173 0.485793 0
M  V30 5714 O 552.948 -1.74815 0.705132 0
M  V30 5715 C 550.075 -2.97497 1.61905 0
M  V30 5716 C 549.121 -3.19405 2.82635 0
M  V30 5717 S 549.954 -2.99441 4.43954 0
M  V30 5718 C 551.11 -4.40359 4.44786 0
M  V30 5719 H 551.343 -1.47309 2.58239 0
M  V30 5720 H 548.876 -0.659601 1.39602 0
M  V30 5721 H 550.834 -3.77389 1.61518 0
M  V30 5722 H 549.495 -3.06502 0.686683 0
M  V30 5723 H 548.688 -4.20636 2.77636 0
M  V30 5724 H 548.29 -2.47283 2.80583 0
M  V30 5725 H 550.582 -5.32969 4.1827 0
M  V30 5726 H 551.525 -4.50403 5.46391 0
M  V30 5727 H 551.933 -4.22378 3.74509 0
M  V30 5728 N 551.331 -1.39911 -0.725443 0
M  V30 5729 C 552.577 -1.37858 -1.48738 0
M  V30 5730 C 552.91 0.0224187 -1.94187 0
M  V30 5731 O 552.185 0.989204 -1.67466 0
M  V30 5732 C 552.468 -2.3594 -2.72038 0
M  V30 5733 C 552.321 -3.85023 -2.32546 0
M  V30 5734 C 553.64 -2.31704 -3.74167 0
M  V30 5735 H 550.759 -0.502074 -0.539528 0
M  V30 5736 H 553.401 -1.70974 -0.828728 0
M  V30 5737 H 551.551 -2.0783 -3.28236 0
M  V30 5738 H 553.223 -4.2392 -1.81905 0
M  V30 5739 H 551.466 -4.01334 -1.64661 0
M  V30 5740 H 552.137 -4.49152 -3.20884 0
M  V30 5741 H 554.613 -2.5658 -3.27576 0
M  V30 5742 H 553.489 -3.02395 -4.58092 0
M  V30 5743 H 553.75 -1.3253 -4.21768 0
M  V30 5744 N 552.809 0.956637 -1.25245 0
M  V30 5745 C 554.034 1.74104 -1.12706 0
M  V30 5746 C 554.459 1.85436 0.315429 0
M  V30 5747 O 553.817 1.33334 1.22848 0
M  V30 5748 C 553.865 3.1338 -1.78396 0
M  V30 5749 O 552.969 3.98485 -1.06224 0
M  V30 5750 H 552.31 0.53476 -0.393609 0
M  V30 5751 H 554.84 1.19924 -1.65769 0
M  V30 5752 H 554.85 3.6385 -1.846 0
M  V30 5753 H 553.525 3.04448 -2.83345 0
M  V30 5754 H 552.102 3.56952 -1.07886 0
M  V30 5755 N 554.287 1.06798 1.15896 0
M  V30 5756 C 555.564 0.701057 1.82605 0
M  V30 5757 C 555.944 -0.817066 1.94646 0
M  V30 5758 O 555.292 -1.72933 1.49353 0
M  V30 5759 C 555.502 1.40895 3.19296 0
M  V30 5760 C 556.85 1.55744 3.95005 0
M  V30 5761 O 557.874 1.36927 3.28831 0
M  V30 5762 O 556.733 1.86658 5.13635 0
M  V30 5763 H 553.827 0.248791 0.78869 0
M  V30 5764 H 556.373 1.16857 1.23055 0
M  V30 5765 H 555.145 2.4439 3.05596 0
M  V30 5766 H 554.768 0.931847 3.86526 0
M  V30 5767 N 555.766 -1.3263 0.851289 0
M  V30 5768 C 557.182 -1.50162 0.5407 0
M  V30 5769 C 557.382 -1.78788 -0.929369 0
M  V30 5770 O 556.438 -1.85545 -1.71258 0
M  V30 5771 C 557.751 -2.64803 1.42478 0
M  V30 5772 C 559.299 -2.78688 1.42485 0
M  V30 5773 C 559.774 -3.96405 2.29407 0
M  V30 5774 N 561.265 -4.0366 2.27184 0
M  V30 5775 C 562 -4.93971 2.9117 0
M  V30 5776 N 561.496 -5.89313 3.64256 0
M  V30 5777 N 563.289 -4.87066 2.80576 0
M  V30 5778 H 555.44 -1.12315 1.80275 0
M  V30 5779 H 557.703 -0.553266 0.769806 0
M  V30 5780 H 557.409 -2.50368 2.46999 0
M  V30 5781 H 557.283 -3.60506 1.10974 0
M  V30 5782 H 559.67 -2.92547 0.387304 0
M  V30 5783 H 559.751 -1.83708 1.78002 0
M  V30 5784 H 559.395 -3.83304 3.33228 0
M  V30 5785 H 559.325 -4.90654 1.91224 0
M  V30 5786 H 561.816 -3.35435 1.74045 0
M  V30 5787 H 562.129 -6.54913 4.10255 0
M  V30 5788 H 560.474 -5.8935 3.68364 0
M  V30 5789 H 563.665 -4.11552 2.23031 0
M  V30 5790 H 563.838 -5.57248 3.30725 0
M  V30 5791 N 557.244 -0.608902 -1.45362 0
M  V30 5792 C 558.472 -0.111013 -2.06602 0
M  V30 5793 C 558.887 1.20516 -1.45332 0
M  V30 5794 O 558.244 1.73437 -0.567978 0
M  V30 5795 C 558.295 0.033688 -3.61484 0
M  V30 5796 O 558.016 -1.23041 -4.20467 0
M  V30 5797 C 559.517 0.562882 -4.39712 0
M  V30 5798 H 556.737 -0.0694453 -0.667397 0
M  V30 5799 H 559.281 -0.837008 -1.86586 0
M  V30 5800 H 557.436 0.710016 -3.80838 0
M  V30 5801 H 557.85 -1.06094 -5.13658 0
M  V30 5802 H 559.324 0.613213 -5.48583 0
M  V30 5803 H 559.801 1.58543 -4.09586 0
M  V30 5804 H 560.407 -0.0794454 -4.25226 0
M  V30 5805 N 558.722 1.53707 -0.348139 0
M  V30 5806 C 559.95 2.05406 0.248224 0
M  V30 5807 C 560.365 1.22282 1.43849 0
M  V30 5808 O 559.722 0.259244 1.80649 0
M  V30 5809 C 559.773 3.55446 0.658793 0
M  V30 5810 O 559.494 4.35417 -0.484149 0
M  V30 5811 C 560.995 4.23335 1.31539 0
M  V30 5812 H 558.215 0.669344 0.0471075 0
M  V30 5813 H 560.759 1.98257 -0.501456 0
M  V30 5814 H 558.914 3.62803 1.35841 0
M  V30 5815 H 559.328 5.24268 -0.155949 0
M  V30 5816 H 560.802 5.29692 1.55338 0
M  V30 5817 H 561.279 3.75967 2.27036 0
M  V30 5818 H 561.885 4.20184 0.657683 0
M  V30 5819 N 560.2 0.0768682 1.57412 0
M  V30 5820 C 561.611 -0.455037 1.8107 0
M  V30 5821 C 561.962 -1.69323 0.991162 0
M  V30 5822 O 561.087 -2.15328 0.215156 0
M  V30 5823 C 561.682 -0.832316 3.28417 0
M  V30 5824 C 560.241 -1.30906 3.52903 0
M  V30 5825 C 559.388 -0.296714 2.75708 0
M  V30 5826 H 562.339 0.302514 1.5579 0
M  V30 5827 H 562.36 -1.69333 3.40744 0
M  V30 5828 H 561.872 0.0690532 3.88039 0
M  V30 5829 H 559.973 -2.22875 2.98592 0
M  V30 5830 H 560.086 -1.28348 4.61588 0
M  V30 5831 H 558.45 -0.775059 2.42621 0
M  V30 5832 H 559.233 0.597015 3.38069 0
M  V30 5833 N 561.678 -1.56367 -0.196722 0
M  V30 5834 C 562.927 -1.79724 -0.915539 0
M  V30 5835 C 563.24 -0.649804 -1.84491 0
M  V30 5836 O 564.446 -0.767631 -2.60422 0
M  V30 5837 C 562.902 -3.18369 -1.67836 0
M  V30 5838 C 562.51 -4.4091 -0.793897 0
M  V30 5839 C 564.254 -3.51037 -2.38691 0
M  V30 5840 C 562.161 -5.70577 -1.55549 0
M  V30 5841 H 561.091 -0.67013 -0.345604 0
M  V30 5842 H 563.742 -1.82721 -0.168856 0
M  V30 5843 H 562.124 -3.09617 -2.46887 0
M  V30 5844 H 563.298 -4.60781 -0.042163 0
M  V30 5845 H 561.613 -4.15937 -0.19626 0
M  V30 5846 H 564.21 -4.4515 -2.96219 0
M  V30 5847 H 564.553 -2.74704 -3.12799 0
M  V30 5848 H 565.086 -3.61229 -1.66608 0
M  V30 5849 H 561.825 -6.49871 -0.857226 0
M  V30 5850 H 561.345 -5.54726 -2.2812 0
M  V30 5851 H 563.024 -6.11637 -2.10971 0
M  V30 5852 N 563.156 0.464375 -1.50603 0
M  V30 5853 C 564.405 1.21277 -1.61167 0
M  V30 5854 C 564.718 1.92953 -0.320704 0
M  V30 5855 O 565.924 2.69778 -0.30534 0
M  V30 5856 C 564.38 2.20403 -2.84518 0
M  V30 5857 C 563.988 1.54499 -4.20516 0
M  V30 5858 C 565.732 2.95843 -3.0443 0
M  V30 5859 C 563.639 2.51951 -5.35047 0
M  V30 5860 H 562.569 0.456367 -0.600204 0
M  V30 5861 H 565.22 0.48254 -1.77042 0
M  V30 5862 H 563.602 2.96746 -2.62217 0
M  V30 5863 H 564.776 0.83899 -4.53098 0
M  V30 5864 H 563.091 0.913152 -4.06264 0
M  V30 5865 H 565.688 3.6879 -3.87167 0
M  V30 5866 H 566.031 3.55622 -2.16423 0
M  V30 5867 H 566.564 2.26611 -3.26944 0
M  V30 5868 H 563.303 1.96901 -6.25228 0
M  V30 5869 H 562.823 3.20683 -5.06875 0
M  V30 5870 H 564.502 3.13643 -5.65895 0
M  V30 5871 N 564.634 1.40294 0.718013 0
M  V30 5872 C 566.045 1.34289 1.29705 0
M  V30 5873 C 566.396 0.0152228 1.96194 0
M  V30 5874 O 565.521 -0.88682 1.97394 0
M  V30 5875 C 566.116 2.43219 2.3586 0
M  V30 5876 C 564.675 2.40682 2.89394 0
M  V30 5877 C 563.822 2.24223 1.63154 0
M  V30 5878 H 566.773 1.50135 0.514312 0
M  V30 5879 H 566.794 2.10986 3.16647 0
M  V30 5880 H 566.306 3.39836 1.87439 0
M  V30 5881 H 564.407 1.47756 3.42051 0
M  V30 5882 H 564.52 3.36177 3.41353 0
M  V30 5883 H 562.884 1.71696 1.88129 0
M  V30 5884 H 563.667 3.22834 1.16761 0
M  V30 5885 N 566.112 -0.949982 1.2575 0
M  V30 5886 C 567.042 -2.06483 1.09028 0
M  V30 5887 C 568.023 -1.701 -0.00201532 0
M  V30 5888 O 569.208 -1.93469 0.168383 0
M  V30 5889 C 566.338 -3.39899 0.71316 0
M  V30 5890 C 565.292 -3.90309 1.75621 0
M  V30 5891 C 564.618 -5.20274 1.23365 0
M  V30 5892 C 565.918 -4.16169 3.15596 0
M  V30 5893 H 567.612 -2.20731 2.02283 0
M  V30 5894 H 565.158 -1.06066 0.973964 0
M  V30 5895 H 567.111 -4.17346 0.58309 0
M  V30 5896 H 565.835 -3.25602 -0.255091 0
M  V30 5897 H 564.494 -3.15035 1.8748 0
M  V30 5898 H 564.142 -5.02351 0.255491 0
M  V30 5899 H 563.842 -5.54971 1.93082 0
M  V30 5900 H 565.366 -6.00314 1.11607 0
M  V30 5901 H 566.78 -4.84259 3.06864 0
M  V30 5902 H 565.177 -4.62131 3.82825 0
M  V30 5903 H 566.247 -3.22273 3.6231 0
M  V30 5904 N 567.59 -1.07411 -1.15328 0
M  V30 5905 C 568.836 -0.798831 -1.86404 0
M  V30 5906 C 569.169 0.673433 -1.8215 0
M  V30 5907 O 568.444 1.49428 -1.24505 0
M  V30 5908 C 568.727 -1.30846 -3.35487 0
M  V30 5909 C 568.58 -2.84532 -3.4837 0
M  V30 5910 C 569.899 -0.925486 -4.30259 0
M  V30 5911 H 567.018 -0.291659 -0.676834 0
M  V30 5912 H 569.66 -1.332 -1.35491 0
M  V30 5913 H 567.81 -0.854916 -3.78977 0
M  V30 5914 H 569.482 -3.3818 -3.13739 0
M  V30 5915 H 567.725 -3.22699 -2.8991 0
M  V30 5916 H 568.396 -3.15259 -4.53118 0
M  V30 5917 H 570.872 -1.3163 -3.94731 0
M  V30 5918 H 569.748 -1.3094 -5.33053 0
M  V30 5919 H 570.009 0.168525 -4.41779 0
M  V30 5920 N 569.068 1.32177 -0.85831 0
M  V30 5921 C 570.345 1.91781 -0.384624 0
M  V30 5922 C 570.725 1.78171 1.13217 0
M  V30 5923 O 570.073 1.18209 1.95548 0
M  V30 5924 C 570.283 3.38414 -0.853047 0
M  V30 5925 C 571.631 4.15542 -0.872359 0
M  V30 5926 O 572.655 3.47148 -0.797926 0
M  V30 5927 O 571.514 5.37678 -0.978009 0
M  V30 5928 H 568.608 0.819259 -0.112886 0
M  V30 5929 H 571.154 1.40923 -0.945453 0
M  V30 5930 H 569.926 3.4228 -1.89632 0
M  V30 5931 H 569.549 3.96683 -0.269874 0
M  V30 5932 N 570.547 0.616602 1.45037 0
M  V30 5933 C 571.457 -0.0985401 2.34393 0
M  V30 5934 C 572.473 -0.850971 1.51771 0
M  V30 5935 O 573.649 -0.806521 1.84546 0
M  V30 5936 C 570.714 -1.07748 3.29532 0
M  V30 5937 C 569.775 -0.326022 4.2806 0
M  V30 5938 C 569.008 -1.25833 5.18654 0
M  V30 5939 O 569.231 -2.49652 5.12864 0
M  V30 5940 O 568.165 -0.750512 5.97203 0
M  V30 5941 H 571.991 0.636016 2.96966 0
M  V30 5942 H 569.576 0.376832 1.44569 0
M  V30 5943 H 571.458 -1.64107 3.88133 0
M  V30 5944 H 570.133 -1.79291 2.69512 0
M  V30 5945 H 569.04 0.280253 3.73049 0
M  V30 5946 H 570.373 0.349091 4.9096 0
M  V30 5947 N 572.025 -1.5352 0.356285 0
M  V30 5948 C 572.955 -2.28372 -0.486661 0
M  V30 5949 C 573.936 -1.30432 -1.09185 0
M  V30 5950 O 575.121 -1.59291 -1.11085 0
M  V30 5951 C 572.251 -3.06604 -1.63129 0
M  V30 5952 C 571.205 -4.12154 -1.15381 0
M  V30 5953 C 570.531 -4.78415 -2.38796 0
M  V30 5954 C 571.831 -5.21724 -0.245179 0
M  V30 5955 H 573.525 -2.99083 0.137797 0
M  V30 5956 H 571.071 -1.43841 0.0677134 0
M  V30 5957 H 573.024 -3.57712 -2.22755 0
M  V30 5958 H 571.748 -2.33568 -2.28284 0
M  V30 5959 H 570.407 -3.61978 -0.580294 0
M  V30 5960 H 570.055 -4.01959 -3.02387 0
M  V30 5961 H 569.755 -5.49734 -2.07524 0
M  V30 5962 H 571.279 -5.32313 -2.99125 0
M  V30 5963 H 572.693 -5.68391 -0.748646 0
M  V30 5964 H 571.09 -6.00095 -0.0237608 0
M  V30 5965 H 572.16 -4.79596 0.715229 0
M  V30 5966 N 573.503 -0.0852151 -1.57369 0
M  V30 5967 C 574.914 0.445428 -1.81309 0
M  V30 5968 C 575.265 1.68795 -1.00013 0
M  V30 5969 O 574.39 2.15211 -0.226573 0
M  V30 5970 C 574.985 0.814887 -3.28854 0
M  V30 5971 C 573.544 1.29032 -3.53592 0
M  V30 5972 C 572.691 0.282089 -2.75861 0
M  V30 5973 H 575.642 -0.310771 -1.55627 0
M  V30 5974 H 575.663 1.67524 -3.41637 0
M  V30 5975 H 575.175 -0.0896309 -3.87996 0
M  V30 5976 H 573.276 2.21289 -2.9977 0
M  V30 5977 H 573.389 1.25898 -4.62262 0
M  V30 5978 H 571.753 0.762182 -2.43029 0
M  V30 5979 H 572.536 -0.614936 -3.37748 0
M  V30 5980 N 574.981 1.5647 0.188427 0
M  V30 5981 C 576.227 1.81281 0.909124 0
M  V30 5982 C 576.56 0.66034 1.82628 0
M  V30 5983 O 575.835 -0.338737 1.91528 0
M  V30 5984 C 576.118 3.16388 1.7196 0
M  V30 5985 C 575.971 4.42137 0.826714 0
M  V30 5986 C 577.29 3.48256 2.69083 0
M  V30 5987 H 574.409 0.659457 0.329068 0
M  V30 5988 H 577.051 1.89182 0.176156 0
M  V30 5989 H 575.201 3.09784 2.34448 0
M  V30 5990 H 576.873 4.60794 0.216025 0
M  V30 5991 H 575.116 4.33594 0.133792 0
M  V30 5992 H 575.787 5.33184 1.42893 0
M  V30 5993 H 578.263 3.55203 2.16726 0
M  V30 5994 H 577.139 4.43899 3.2287 0
M  V30 5995 H 577.4 2.72088 3.48455 0
M  V30 5996 N 576.459 -0.456382 1.50847 0
M  V30 5997 C 577.708 -1.2042 1.61808 0
M  V30 5998 C 578.021 -1.9278 0.330932 0
M  V30 5999 O 579.227 -2.69612 0.319643 0
M  V30 6000 C 577.683 -2.18891 2.85683 0
M  V30 6001 C 577.291 -1.52267 4.2133 0
M  V30 6002 C 579.035 -2.94224 3.05994 0
M  V30 6003 C 576.942 -2.4911 5.36375 0
M  V30 6004 H 575.872 -0.453177 0.602616 0
M  V30 6005 H 578.523 -0.473144 1.77295 0
M  V30 6006 H 576.905 -2.95351 2.63787 0
M  V30 6007 H 578.079 -0.814949 4.53536 0
M  V30 6008 H 576.394 -0.891594 4.06743 0
M  V30 6009 H 578.991 -3.66732 3.89117 0
M  V30 6010 H 579.334 -3.54469 2.18306 0
M  V30 6011 H 579.867 -2.24874 3.28141 0
M  V30 6012 H 576.606 -1.93582 6.26264 0
M  V30 6013 H 576.126 -3.17991 5.08569 0
M  V30 6014 H 577.805 -3.10637 5.67551 0
M  V30 6015 N 577.937 -1.40673 -0.710563 0
M  V30 6016 C 579.348 -1.34975 -1.28991 0
M  V30 6017 C 579.699 -0.0256272 -1.96183 0
M  V30 6018 O 578.824 0.876339 -1.97862 0
M  V30 6019 C 579.419 -2.44467 -2.34567 0
M  V30 6020 C 577.978 -2.42213 -2.88114 0
M  V30 6021 C 577.125 -2.25085 -1.61963 0
M  V30 6022 H 580.076 -1.50406 -0.506343 0
M  V30 6023 H 580.097 -2.12663 -3.15523 0
M  V30 6024 H 579.609 -3.40825 -1.85634 0
M  V30 6025 H 577.71 -1.49568 -3.41263 0
M  V30 6026 H 577.823 -3.37983 -3.39565 0
M  V30 6027 H 576.187 -1.72691 -1.87216 0
M  V30 6028 H 576.97 -3.23449 -1.15047 0
M  V30 6029 N 579.415 0.9433 -1.26252 0
M  V30 6030 C 580.643 1.72367 -1.14443 0
M  V30 6031 C 581.058 1.86392 0.300572 0
M  V30 6032 O 580.415 1.36978 1.20596 0
M  V30 6033 C 580.466 3.13155 -1.806 0
M  V30 6034 O 580.187 2.99803 -3.19452 0
M  V30 6035 C 581.688 4.07417 -1.74717 0
M  V30 6036 H 578.908 0.539758 -0.398626 0
M  V30 6037 H 581.452 1.18268 -1.66832 0
M  V30 6038 H 579.607 3.64162 -1.32154 0
M  V30 6039 H 580.021 3.88697 -3.52158 0
M  V30 6040 H 581.495 5.03773 -2.25647 0
M  V30 6041 H 581.972 4.3337 -0.713244 0
M  V30 6042 H 582.578 3.6233 -2.22704 0
M  V30 6043 N 580.893 1.08022 1.14757 0
M  V30 6044 C 581.803 0.718292 2.23333 0
M  V30 6045 C 582.819 -0.273477 1.71837 0
M  V30 6046 O 583.995 -0.118406 2.01052 0
M  V30 6047 C 581.06 0.128855 3.4646 0
M  V30 6048 C 580.121 1.17473 4.12915 0
M  V30 6049 C 579.354 0.61333 5.30164 0
M  V30 6050 O 579.577 -0.568458 5.6756 0
M  V30 6051 O 578.511 1.3615 5.86299 0
M  V30 6052 H 582.337 1.62394 2.56636 0
M  V30 6053 H 579.922 0.853628 1.22611 0
M  V30 6054 H 581.804 -0.197249 4.20938 0
M  V30 6055 H 580.479 -0.750014 3.14891 0
M  V30 6056 H 579.386 1.5533 3.40328 0
M  V30 6057 H 580.719 2.02574 4.48581 0
M  V30 6058 N 582.371 -1.3172 0.865308 0
M  V30 6059 C 583.618 -1.96876 0.473931 0
M  V30 6060 C 583.946 -1.68425 -0.972786 0
M  V30 6061 O 583.201 -0.970742 -1.69927 0
M  V30 6062 C 583.5 -3.5102 0.672283 0
M  V30 6063 C 583.166 -3.9948 2.09108 0
M  V30 6064 C 581.828 -4.12425 2.4791 0
M  V30 6065 C 584.18 -4.2503 3.0166 0
M  V30 6066 C 581.508 -4.48267 3.78515 0
M  V30 6067 C 583.86 -4.62335 4.31774 0
M  V30 6068 C 582.524 -4.73486 4.70497 0
M  V30 6069 H 581.794 -0.72042 0.173424 0
M  V30 6070 H 584.441 -1.56937 1.0974 0
M  V30 6071 H 582.746 -3.91785 -0.034356 0
M  V30 6072 H 584.443 -3.99475 0.349353 0
M  V30 6073 H 581.033 -3.89898 1.77981 0
M  V30 6074 H 585.217 -4.14529 2.7291 0
M  V30 6075 H 580.473 -4.55097 4.08285 0
M  V30 6076 H 584.647 -4.81058 5.03543 0
M  V30 6077 H 582.274 -5.01016 5.71741 0
M  V30 6078 N 583.85 -0.624285 -1.44708 0
M  V30 6079 C 585.26 -0.2092 -1.85524 0
M  V30 6080 C 585.611 1.23783 -1.52225 0
M  V30 6081 O 584.736 1.94089 -0.956986 0
M  V30 6082 C 585.332 -0.372897 -3.36742 0
M  V30 6083 C 583.891 -0.012374 -3.76398 0
M  V30 6084 C 583.038 -0.68951 -2.68591 0
M  V30 6085 H 585.989 -0.829894 -1.35272 0
M  V30 6086 H 586.01 0.390134 -3.78495 0
M  V30 6087 H 585.522 -1.42615 -3.60947 0
M  V30 6088 H 583.623 1.03941 -3.57809 0
M  V30 6089 H 583.736 -0.417663 -4.77276 0
M  V30 6090 H 582.1 -0.125484 -2.54391 0
M  V30 6091 H 582.883 -1.74522 -2.9563 0
M  V30 6092 N 585.328 1.53329 -0.364422 0
M  V30 6093 C 586.739 1.86345 0.115039 0
M  V30 6094 C 587.09 1.28505 1.4826 0
M  V30 6095 O 586.215 0.606639 2.07723 0
M  V30 6096 C 586.81 3.38114 0.215522 0
M  V30 6097 C 585.369 3.70932 0.639237 0
M  V30 6098 C 584.516 2.76471 -0.214261 0
M  V30 6099 H 587.467 1.47593 -0.583258 0
M  V30 6100 H 587.488 3.66031 1.0393 0
M  V30 6101 H 587 3.80182 -0.779948 0
M  V30 6102 H 585.101 3.3442 1.64298 0
M  V30 6103 H 585.214 4.77302 0.41465 0
M  V30 6104 H 583.578 2.52724 0.316678 0
M  V30 6105 H 584.361 3.21373 -1.20725 0
M  V30 6106 N 586.806 0.0935595 1.57322 0
M  V30 6107 C 588.052 -0.571355 1.94585 0
M  V30 6108 C 588.385 -1.67929 0.975366 0
M  V30 6109 O 587.66 -1.94498 0.00816206 0
M  V30 6110 C 587.943 -1.12797 3.41978 0
M  V30 6111 C 587.796 -0.0251881 4.49793 0
M  V30 6112 C 589.115 -2.02682 3.90651 0
M  V30 6113 H 586.234 -0.206223 0.70756 0
M  V30 6114 H 588.876 0.163956 1.89291 0
M  V30 6115 H 587.026 -1.75461 3.4662 0
M  V30 6116 H 588.698 0.608979 4.57263 0
M  V30 6117 H 586.941 0.641399 4.29032 0
M  V30 6118 H 587.612 -0.455433 5.50118 0
M  V30 6119 H 590.088 -1.49925 3.88152 0
M  V30 6120 H 588.964 -2.38555 4.94351 0
M  V30 6121 H 589.225 -2.94362 3.29854 0
M  V30 6122 N 588.284 -1.56567 -0.180126 0
M  V30 6123 C 589.532 -1.81133 -0.896392 0
M  V30 6124 C 589.853 -0.669114 -1.83161 0
M  V30 6125 O 589.123 0.311616 -1.93406 0
M  V30 6126 H 587.703 -0.668172 -0.333999 0
M  V30 6127 H 590.365 -1.94048 -0.182051 0
M  V30 6128 H 589.461 -2.74854 -1.47857 0
M  V30 6129 N 589.762 0.448376 -1.51087 0
M  V30 6130 C 590.71 1.56407 -1.72161 0
M  V30 6131 C 591.704 1.58878 -0.587721 0
M  V30 6132 O 592.91 1.62755 -0.768822 0
M  V30 6133 H 589.285 0.519423 -0.543786 0
M  V30 6134 H 591.256 1.35803 -2.65707 0
M  V30 6135 C 590.005 2.94163 -1.85373 0
M  V30 6136 H 589.328 2.9299 -2.72024 0
M  V30 6137 H 590.768 3.71625 -2.04135 0
M  V30 6138 C 589.227 3.31317 -0.610803 0
M  V30 6139 O 589.757 4.00985 0.239636 0
M  V30 6140 N 587.963 2.86966 -0.458127 0
M  V30 6141 H 587.51 2.30443 -1.15124 0
M  V30 6142 H 587.468 3.12188 0.372289 0
M  V30 6143 N 591.24 1.41047 0.703093 0
M  V30 6144 C 592.489 1.39301 1.4587 0
M  V30 6145 C 592.802 0.00267077 1.956 0
M  V30 6146 O 594.008 -0.137414 2.71152 0
M  V30 6147 C 592.464 2.44891 2.63735 0
M  V30 6148 C 592.072 3.89796 2.20824 0
M  V30 6149 C 593.816 2.5227 3.41409 0
M  V30 6150 C 591.723 4.86955 3.35602 0
M  V30 6151 H 590.653 0.518005 0.547893 0
M  V30 6152 H 593.304 1.66839 0.764009 0
M  V30 6153 H 591.686 2.10472 3.35436 0
M  V30 6154 H 592.86 4.33424 1.56461 0
M  V30 6155 H 591.175 3.86008 1.56163 0
M  V30 6156 H 593.772 3.22044 4.26839 0
M  V30 6157 H 594.115 1.55714 3.86081 0
M  V30 6158 H 594.648 2.85742 2.7676 0
M  V30 6159 H 591.387 5.84888 2.9595 0
M  V30 6160 H 590.907 4.47982 3.98839 0
M  V30 6161 H 592.586 5.07361 4.01489 0
M  V30 6162 N 592.718 -0.936591 1.26751 0
M  V30 6163 C 593.964 -1.6858 1.12733 0
M  V30 6164 C 594.297 -1.91414 -0.327745 0
M  V30 6165 O 593.572 -1.49812 -1.24043 0
M  V30 6166 C 593.855 -3.05779 1.90187 0
M  V30 6167 C 593.708 -2.90242 3.43627 0
M  V30 6168 C 595.027 -4.0597 1.69931 0
M  V30 6169 H 592.146 -0.61182 0.410908 0
M  V30 6170 H 594.788 -1.08747 1.55801 0
M  V30 6171 H 592.938 -3.56853 1.53584 0
M  V30 6172 H 594.61 -2.46354 3.9001 0
M  V30 6173 H 592.853 -2.2577 3.70419 0
M  V30 6174 H 593.524 -3.87572 3.93055 0
M  V30 6175 H 596 -3.63874 2.0183 0
M  V30 6176 H 594.876 -4.99974 2.26534 0
M  V30 6177 H 595.137 -4.37369 0.64502 0
M  V30 6178 N 594.196 -1.08629 -1.14182 0
M  V30 6179 C 595.421 -0.83902 -1.89671 0
M  V30 6180 C 595.846 0.603332 -1.78161 0
M  V30 6181 O 595.204 1.42301 -1.12339 0
M  V30 6182 C 595.252 -1.26854 -3.37551 0
M  V30 6183 O 594.356 -0.42188 -4.10236 0
M  V30 6184 H 593.697 -0.304545 -0.590041 0
M  V30 6185 H 596.227 -1.4483 -1.44518 0
M  V30 6186 H 596.237 -1.25038 -3.88368 0
M  V30 6187 H 594.912 -2.31901 -3.45246 0
M  V30 6188 H 593.489 -0.503654 -3.69483 0
M  V30 6189 N 595.674 1.31259 -0.872281 0
M  V30 6190 C 596.921 1.96622 -0.484365 0
M  V30 6191 C 597.249 1.68939 0.963841 0
M  V30 6192 O 596.504 0.97974 1.6941 0
M  V30 6193 C 596.803 3.50659 -0.690889 0
M  V30 6194 C 596.469 3.98366 -2.11224 0
M  V30 6195 C 595.131 4.11104 -2.50094 0
M  V30 6196 C 597.483 4.23425 -3.0391 0
M  V30 6197 C 594.811 4.46254 -3.80887 0
M  V30 6198 C 597.163 4.60039 -4.3422 0
M  V30 6199 C 595.827 4.70984 -4.73001 0
M  V30 6200 H 595.097 0.71949 -0.177242 0
M  V30 6201 H 597.744 1.56353 -1.10571 0
M  V30 6202 H 596.049 3.91798 0.0135782 0
M  V30 6203 H 597.746 3.99284 -0.370534 0
M  V30 6204 H 594.336 3.88949 -1.80047 0
M  V30 6205 H 598.52 4.13075 -2.75104 0
M  V30 6206 H 593.776 4.52926 -4.10692 0
M  V30 6207 H 597.95 4.78381 -5.06088 0
M  V30 6208 H 595.577 4.97977 -5.7439 0
M  V30 6209 N 597.152 0.631951 1.44375 0
M  V30 6210 C 598.062 -0.073674 2.34484 0
M  V30 6211 C 599.078 -0.834825 1.52665 0
M  V30 6212 O 600.254 -0.786902 1.85391 0
M  V30 6213 C 597.319 -1.04247 3.30656 0
M  V30 6214 C 596.38 -0.280602 4.28382 0
M  V30 6215 C 595.613 -1.20325 5.19959 0
M  V30 6216 O 595.836 -2.44199 5.15484 0
M  V30 6217 O 594.77 -0.687128 5.97965 0
M  V30 6218 H 598.596 0.667477 2.96274 0
M  V30 6219 H 596.181 0.392144 1.44162 0
M  V30 6220 H 598.063 -1.59981 3.89851 0
M  V30 6221 H 596.738 -1.76422 2.71398 0
M  V30 6222 H 595.645 0.319804 3.72731 0
M  V30 6223 H 596.978 0.401144 4.90563 0
M  V30 6224 N 598.631 -1.53133 0.372548 0
M  V30 6225 C 599.563 -2.23557 -0.505444 0
M  V30 6226 C 600.576 -1.25211 -1.04049 0
M  V30 6227 O 601.765 -1.51391 -0.945675 0
M  V30 6228 C 598.865 -2.92516 -1.71136 0
M  V30 6229 C 598.038 -4.17428 -1.30661 0
M  V30 6230 C 597.097 -4.69535 -2.37536 0
M  V30 6231 O 596.123 -5.33042 -1.99637 0
M  V30 6232 N 597.325 -4.47947 -3.6922 0
M  V30 6233 H 600.09 -2.9954 0.0978259 0
M  V30 6234 H 597.651 -1.60684 0.198068 0
M  V30 6235 H 599.643 -3.24281 -2.42124 0
M  V30 6236 H 598.213 -2.19944 -2.22134 0
M  V30 6237 H 597.433 -3.91888 -0.426292 0
M  V30 6238 H 598.721 -4.98622 -1.01259 0
M  V30 6239 H 598.119 -3.97219 -4.02783 0
M  V30 6240 H 596.676 -4.84245 -4.36292 0
M  V30 6241 N 600.109 -0.101901 -1.5727 0
M  V30 6242 C 601.056 0.854577 -2.14396 0
M  V30 6243 C 602.026 1.27521 -1.06432 0
M  V30 6244 O 603.211 1.35575 -1.34253 0
M  V30 6245 C 600.351 2.10576 -2.73408 0
M  V30 6246 C 599.464 1.73504 -3.95626 0
M  V30 6247 C 598.599 2.9346 -4.42781 0
M  V30 6248 C 597.638 2.52547 -5.57572 0
M  V30 6249 N 596.775 3.65359 -5.99547 0
M  V30 6250 H 601.615 0.360578 -2.9581 0
M  V30 6251 H 599.152 0.166303 -1.46157 0
M  V30 6252 H 601.11 2.83859 -3.05745 0
M  V30 6253 H 599.74 2.57463 -1.94711 0
M  V30 6254 H 598.792 0.901622 -3.6956 0
M  V30 6255 H 600.104 1.39426 -4.78917 0
M  V30 6256 H 599.258 3.74988 -4.76937 0
M  V30 6257 H 597.997 3.30753 -3.58404 0
M  V30 6258 H 597.002 1.69446 -5.23037 0
M  V30 6259 H 598.227 2.1639 -6.43702 0
M  V30 6260 H 596.173 4.02358 -5.18116 0
M  V30 6261 H 596.09 3.35148 -6.77652 0
M  V30 6262 H 597.358 4.47378 -6.38336 0
M  V30 6263 N 601.587 1.56661 0.17182 0
M  V30 6264 C 602.55 1.9549 1.19651 0
M  V30 6265 C 603.55 0.838501 1.37207 0
M  V30 6266 O 604.74 1.10556 1.34622 0
M  V30 6267 C 601.872 2.24927 2.56166 0
M  V30 6268 H 603.065 2.87184 0.864007 0
M  V30 6269 H 600.618 1.50711 0.41425 0
M  V30 6270 H 601.353 1.35944 2.94431 0
M  V30 6271 H 601.138 3.06301 2.4479 0
M  V30 6272 H 602.628 2.55891 3.30014 0
M  V30 6273 N 603.065 -0.440357 1.51323 0
M  V30 6274 C 604.293 -1.21255 1.67645 0
M  V30 6275 C 604.708 -1.85088 0.37252 0
M  V30 6276 O 604.065 -1.70582 -0.648683 0
M  V30 6277 C 604.116 -2.29881 2.78993 0
M  V30 6278 O 603.837 -1.68659 4.04334 0
M  V30 6279 C 605.338 -3.20214 3.06558 0
M  V30 6280 H 602.558 -0.36558 0.562666 0
M  V30 6281 H 605.102 -0.52214 1.97722 0
M  V30 6282 H 603.257 -2.94643 2.51524 0
M  V30 6283 H 603.671 -2.40426 4.6615 0
M  V30 6284 H 605.145 -3.92575 3.88058 0
M  V30 6285 H 605.622 -3.80794 2.18844 0
M  V30 6286 H 606.228 -2.61156 3.35675 0
M  V30 6287 N 604.543 -1.41418 -0.695603 0
M  V30 6288 C 605.789 -1.40982 -1.4578 0
M  V30 6289 C 606.122 -0.0187763 -1.94191 0
M  V30 6290 O 605.397 0.95346 -1.69527 0
M  V30 6291 C 605.68 -2.41657 -2.66972 0
M  V30 6292 C 605.533 -3.89869 -2.24327 0
M  V30 6293 C 606.852 -2.39589 -3.69168 0
M  V30 6294 H 603.971 -0.513405 -0.528757 0
M  V30 6295 H 606.613 -1.72693 -0.792275 0
M  V30 6296 H 604.763 -2.14746 -3.23754 0
M  V30 6297 H 606.435 -4.27683 -1.72872 0
M  V30 6298 H 604.678 -4.04737 -1.56111 0
M  V30 6299 H 605.349 -4.55857 -3.11285 0
M  V30 6300 H 607.825 -2.63471 -3.2206 0
M  V30 6301 H 606.701 -3.12044 -4.51575 0
M  V30 6302 H 606.962 -1.41447 -4.18862 0
M  V30 6303 N 606.021 0.929856 -1.27246 0
M  V30 6304 C 606.953 2.03434 -1.0558 0
M  V30 6305 C 607.966 1.62795 -0.0125762 0
M  V30 6306 O 609.155 1.76685 -0.2539 0
M  V30 6307 C 606.255 3.33915 -0.57912 0
M  V30 6308 C 605.428 4.03259 -1.69415 0
M  V30 6309 C 604.487 5.12014 -1.21357 0
M  V30 6310 O 603.513 5.36097 -1.91282 0
M  V30 6311 N 604.715 5.8046 -0.0680622 0
M  V30 6312 H 607.48 2.22583 -2.00691 0
M  V30 6313 H 605.041 1.1001 -1.18783 0
M  V30 6314 H 607.033 4.03978 -0.241563 0
M  V30 6315 H 605.603 3.11355 0.278703 0
M  V30 6316 H 604.823 3.26958 -2.20209 0
M  V30 6317 H 606.111 4.46337 -2.44255 0
M  V30 6318 H 605.509 5.63345 0.515626 0
M  V30 6319 H 604.066 6.51461 0.210332 0
M  V30 6320 N 607.499 1.09233 1.13605 0
M  V30 6321 C 608.91 0.846839 1.6639 0
M  V30 6322 C 609.261 -0.625031 1.85978 0
M  V30 6323 O 608.386 -1.48173 1.57714 0
M  V30 6324 C 608.981 1.5307 3.0225 0
M  V30 6325 C 607.54 1.33223 3.52035 0
M  V30 6326 C 606.687 1.58806 2.27323 0
M  V30 6327 H 609.638 1.25175 0.975541 0
M  V30 6328 H 609.659 0.96267 3.68121 0
M  V30 6329 H 609.171 2.60192 2.87961 0
M  V30 6330 H 607.272 0.282091 3.71531 0
M  V30 6331 H 607.385 2.0657 4.32279 0
M  V30 6332 H 605.749 1.01007 2.33815 0
M  V30 6333 H 606.532 2.67153 2.15602 0
M  V30 6334 N 608.977 -1.30795 0.87923 0
M  V30 6335 C 609.909 -2.27241 0.299025 0
M  V30 6336 C 610.922 -1.53472 -0.543166 0
M  V30 6337 O 612.111 -1.74756 -0.363651 0
M  V30 6338 C 609.211 -3.33655 -0.593931 0
M  V30 6339 C 608.384 -4.36857 0.2179 0
M  V30 6340 C 607.443 -5.22715 -0.604646 0
M  V30 6341 O 606.469 -5.69192 -0.0293838 0
M  V30 6342 N 607.671 -5.48008 -1.91488 0
M  V30 6343 H 610.436 -2.77667 1.12788 0
M  V30 6344 H 607.997 -1.43914 0.741637 0
M  V30 6345 H 609.989 -3.88013 -1.15012 0
M  V30 6346 H 608.559 -2.83202 -1.32346 0
M  V30 6347 H 607.779 -3.82444 0.955536 0
M  V30 6348 H 609.067 -5.02869 0.774614 0
M  V30 6349 H 608.465 -5.1202 -2.40525 0
M  V30 6350 H 607.022 -6.05264 -2.41864 0
M  V30 6351 N 610.455 -0.639598 -1.44038 0
M  V30 6352 C 611.418 0.0506628 -2.29144 0
M  V30 6353 C 612.418 0.764001 -1.41491 0
M  V30 6354 O 613.608 0.607309 -1.63271 0
M  V30 6355 C 610.74 1.0824 -3.2326 0
M  V30 6356 H 611.933 -0.697987 -2.91664 0
M  V30 6357 H 609.486 -0.400146 -1.51091 0
M  V30 6358 H 610.221 1.86075 -2.65606 0
M  V30 6359 H 610.006 0.574725 -3.87865 0
M  V30 6360 H 611.496 1.56487 -3.87171 0
M  V30 6361 N 611.933 1.52934 -0.380664 0
M  V30 6362 C 613.182 2.00651 0.205477 0
M  V30 6363 C 613.495 1.27164 1.48623 0
M  V30 6364 O 614.701 1.65547 2.15189 0
M  V30 6365 C 613.157 3.57479 0.416726 0
M  V30 6366 C 612.765 4.39857 -0.850268 0
M  V30 6367 C 614.509 4.13509 0.959702 0
M  V30 6368 C 612.416 5.88269 -0.607773 0
M  V30 6369 H 611.346 0.749684 0.0805614 0
M  V30 6370 H 613.997 1.76508 -0.501732 0
M  V30 6371 H 612.379 3.77836 1.18557 0
M  V30 6372 H 613.553 4.31269 -1.62307 0
M  V30 6373 H 611.868 3.95005 -1.31756 0
M  V30 6374 H 614.465 5.22039 1.15669 0
M  V30 6375 H 614.808 3.69054 1.92626 0
M  V30 6376 H 615.341 3.9701 0.250645 0
M  V30 6377 H 612.08 6.3703 -1.54509 0
M  V30 6378 H 611.6 5.99667 0.126247 0
M  V30 6379 H 613.279 6.46558 -0.239014 0
M  V30 6380 N 613.412 0.11024 1.57214 0
M  V30 6381 C 614.64 -0.557834 1.99238 0
M  V30 6382 C 615.055 -1.60778 0.989734 0
M  V30 6383 O 614.412 -1.82491 -0.0186092 0
M  V30 6384 C 614.463 -1.19189 3.41286 0
M  V30 6385 O 614.184 -0.183919 4.37714 0
M  V30 6386 C 615.685 -1.94413 3.98395 0
M  V30 6387 H 612.905 -0.148392 0.654386 0
M  V30 6388 H 615.449 0.193996 2.03578 0
M  V30 6389 H 613.604 -1.89456 3.37913 0
M  V30 6390 H 614.018 -0.643475 5.20538 0
M  V30 6391 H 615.492 -2.34116 4.99894 0
M  V30 6392 H 615.969 -2.81592 3.3705 0
M  V30 6393 H 616.575 -1.28928 4.05287 0
M  V30 6394 N 614.89 -1.56749 -0.16351 0
M  V30 6395 C 616.167 -1.73321 -0.906599 0
M  V30 6396 C 616.547 -0.673779 -2.00059 0
M  V30 6397 O 615.895 0.310121 -2.26386 0
M  V30 6398 C 616.105 -3.168 -1.46419 0
M  V30 6399 C 617.453 -3.77993 -1.93407 0
M  V30 6400 O 618.477 -3.20127 -1.56196 0
M  V30 6401 O 617.336 -4.79615 -2.61976 0
M  V30 6402 H 614.43 -0.708073 -0.427272 0
M  V30 6403 H 616.976 -1.69029 -0.150727 0
M  V30 6404 H 615.748 -3.85396 -0.677189 0
M  V30 6405 H 615.371 -3.2545 -2.28403 0
M  V30 6406 N 616.368 0.432326 -1.51554 0
M  V30 6407 C 617.593 1.20824 -1.68571 0
M  V30 6408 C 618.018 1.84126 -0.384596 0
M  V30 6409 O 617.376 1.69025 0.655751 0
M  V30 6410 C 617.424 2.26429 -2.80646 0
M  V30 6411 O 616.528 3.32032 -2.44598 0
M  V30 6412 H 615.869 0.353765 -0.561913 0
M  V30 6413 H 618.399 0.509916 -1.98144 0
M  V30 6414 H 618.409 2.71133 -3.04878 0
M  V30 6415 H 617.084 1.79733 -3.75058 0
M  V30 6416 H 615.661 2.92769 -2.30956 0
M  V30 6417 N 617.846 1.41785 0.688094 0
M  V30 6418 C 618.776 1.47 1.8142 0
M  V30 6419 C 619.757 0.327881 1.6691 0
M  V30 6420 O 620.942 0.540362 1.86531 0
M  V30 6421 C 618.072 1.35876 3.19617 0
M  V30 6422 C 617.026 2.47976 3.48844 0
M  V30 6423 C 616.352 2.21915 4.86475 0
M  V30 6424 C 617.652 3.90309 3.47068 0
M  V30 6425 H 619.346 2.41247 1.77314 0
M  V30 6426 H 616.892 1.16116 0.851651 0
M  V30 6427 H 618.845 1.38134 3.98117 0
M  V30 6428 H 617.569 0.38116 3.24368 0
M  V30 6429 H 616.228 2.45013 2.72698 0
M  V30 6430 H 615.876 1.2248 4.8786 0
M  V30 6431 H 615.576 2.97037 5.06994 0
M  V30 6432 H 617.1 2.25901 5.67275 0
M  V30 6433 H 618.514 3.94947 4.1556 0
M  V30 6434 H 616.911 4.65175 3.7912 0
M  V30 6435 H 617.981 4.17927 2.45896 0
M  V30 6436 N 619.324 -0.923095 1.27737 0
M  V30 6437 C 620.287 -2.00587 1.10894 0
M  V30 6438 C 621.287 -1.60718 0.0514927 0
M  V30 6439 O 622.477 -1.71658 0.296481 0
M  V30 6440 C 619.609 -3.33829 0.690717 0
M  V30 6441 H 620.802 -2.16959 2.07048 0
M  V30 6442 H 618.355 -1.10451 1.1059 0
M  V30 6443 H 619.09 -3.23157 -0.272 0
M  V30 6444 H 618.875 -3.64125 1.45448 0
M  V30 6445 H 620.365 -4.13336 0.595252 0
M  V30 6446 N 620.802 -1.09834 -1.13024 0
M  V30 6447 C 622.03 -0.858902 -1.8823 0
M  V30 6448 C 622.445 0.590164 -1.79339 0
M  V30 6449 O 621.802 1.4065 -1.16292 0
M  V30 6450 C 621.853 -1.29066 -3.37675 0
M  V30 6451 O 621.574 -2.6829 -3.46341 0
M  V30 6452 C 623.075 -1.08421 -4.29837 0
M  V30 6453 H 620.295 -0.308713 -0.595766 0
M  V30 6454 H 622.839 -1.4614 -1.4305 0
M  V30 6455 H 620.994 -0.731961 -3.80422 0
M  V30 6456 H 621.408 -2.86598 -4.39274 0
M  V30 6457 H 622.882 -1.43553 -5.33007 0
M  V30 6458 H 623.359 -0.0223315 -4.39194 0
M  V30 6459 H 623.965 -1.62907 -3.92863 0
M  V30 6460 N 622.28 1.30327 -0.886154 0
M  V30 6461 C 623.227 2.28099 -0.352069 0
M  V30 6462 C 624.197 1.56433 0.558397 0
M  V30 6463 O 625.382 1.84492 0.486561 0
M  V30 6464 C 622.522 3.42456 0.426346 0
M  V30 6465 C 621.635 4.28938 -0.513472 0
M  V30 6466 C 620.77 5.30458 0.280657 0
M  V30 6467 C 619.809 6.0859 -0.654556 0
M  V30 6468 N 618.946 7.02022 0.104322 0
M  V30 6469 H 623.786 2.73166 -1.19097 0
M  V30 6470 H 621.323 1.34367 -0.598662 0
M  V30 6471 H 623.281 4.07518 0.893587 0
M  V30 6472 H 621.911 2.98455 1.22981 0
M  V30 6473 H 620.963 3.64173 -1.09921 0
M  V30 6474 H 622.275 4.83399 -1.2299 0
M  V30 6475 H 621.429 6.01273 0.8097 0
M  V30 6476 H 620.168 4.76693 1.03029 0
M  V30 6477 H 619.173 5.36651 -1.19522 0
M  V30 6478 H 620.398 6.64443 -1.4033 0
M  V30 6479 H 618.344 6.50645 0.836472 0
M  V30 6480 H 618.261 7.53979 -0.552453 0
M  V30 6481 H 619.529 7.77077 0.614069 0
M  V30 6482 N 623.758 0.647228 1.43697 0
M  V30 6483 C 624.688 -0.0345631 2.33474 0
M  V30 6484 C 625.669 -0.818193 1.4913 0
M  V30 6485 O 626.854 -0.780867 1.77809 0
M  V30 6486 C 623.984 -1.00576 3.32418 0
M  V30 6487 C 622.938 -0.33266 4.26705 0
M  V30 6488 C 622.264 -1.41489 5.1564 0
M  V30 6489 C 623.564 0.771204 5.16575 0
M  V30 6490 H 625.258 0.715163 2.90733 0
M  V30 6491 H 622.804 0.345364 1.39797 0
M  V30 6492 H 624.757 -1.49159 3.94119 0
M  V30 6493 H 623.481 -1.78657 2.73403 0
M  V30 6494 H 622.14 0.13267 3.6636 0
M  V30 6495 H 621.788 -2.18698 4.52968 0
M  V30 6496 H 621.488 -0.969799 5.79542 0
M  V30 6497 H 623.012 -1.9022 5.80214 0
M  V30 6498 H 624.426 0.36779 5.72119 0
M  V30 6499 H 622.823 1.1404 5.89165 0
M  V30 6500 H 623.893 1.63169 4.56622 0
M  V30 6501 N 625.236 -1.5273 0.388769 0
M  V30 6502 C 626.647 -1.86505 -0.0853788 0
M  V30 6503 C 626.998 -1.30847 -1.46197 0
M  V30 6504 O 626.123 -0.639609 -2.06732 0
M  V30 6505 C 626.718 -3.38414 -0.161703 0
M  V30 6506 C 625.277 -3.71902 -0.580144 0
M  V30 6507 C 624.424 -2.76095 0.258218 0
M  V30 6508 H 627.375 -1.46647 0.606665 0
M  V30 6509 H 627.396 -3.67638 -0.980936 0
M  V30 6510 H 626.908 -3.78893 0.840333 0
M  V30 6511 H 625.009 -3.36992 -1.58957 0
M  V30 6512 H 625.122 -4.77902 -0.338663 0
M  V30 6513 H 623.486 -2.53195 -0.276432 0
M  V30 6514 H 624.269 -3.19411 1.25822 0
M  V30 6515 N 626.714 -0.118576 -1.57153 0
M  V30 6516 C 627.942 0.54726 -1.99531 0
M  V30 6517 C 628.357 1.60251 -0.998246 0
M  V30 6518 O 627.714 1.82498 0.00893106 0
M  V30 6519 C 627.765 1.17378 -3.41913 0
M  V30 6520 O 627.486 0.160703 -4.37805 0
M  V30 6521 C 628.987 1.92297 -3.9942 0
M  V30 6522 H 626.207 0.144919 -0.655164 0
M  V30 6523 H 628.751 -0.20479 -2.03472 0
M  V30 6524 H 626.906 1.87661 -3.38913 0
M  V30 6525 H 627.32 0.61586 -5.20872 0
M  V30 6526 H 628.794 2.31462 -5.01128 0
M  V30 6527 H 629.271 2.79801 -3.38538 0
M  V30 6528 H 629.877 1.26777 -4.05965 0
M  V30 6529 N 628.193 1.56834 0.155195 0
M  V30 6530 C 629.604 1.72421 0.716082 0
M  V30 6531 C 629.955 0.731685 1.82046 0
M  V30 6532 O 629.08 -0.103481 2.16152 0
M  V30 6533 C 629.675 3.12629 1.30571 0
M  V30 6534 C 628.234 3.29846 1.81325 0
M  V30 6535 C 627.381 2.68359 0.698494 0
M  V30 6536 H 630.332 1.58544 -0.0703861 0
M  V30 6537 H 630.353 3.12174 2.1755 0
M  V30 6538 H 629.865 3.84844 0.501701 0
M  V30 6539 H 627.966 2.62614 2.64319 0
M  V30 6540 H 628.079 4.37727 1.9476 0
M  V30 6541 H 626.443 2.28604 1.12305 0
M  V30 6542 H 627.226 3.43171 -0.0939366 0
M  V30 6543 N 629.671 -0.424282 1.51781 0
M  V30 6544 C 630.899 -1.1947 1.68921 0
M  V30 6545 C 631.314 -1.84683 0.39213 0
M  V30 6546 O 630.671 -1.71261 -0.630554 0
M  V30 6547 C 630.722 -2.26909 2.81416 0
M  V30 6548 O 630.443 -1.64361 4.061 0
M  V30 6549 C 631.944 -3.16945 3.09937 0
M  V30 6550 H 629.164 -0.359591 0.566511 0
M  V30 6551 H 631.708 -0.501139 1.98265 0
M  V30 6552 H 629.863 -2.91959 2.54635 0
M  V30 6553 H 630.277 -2.35468 4.68674 0
M  V30 6554 H 631.751 -3.88437 3.922 0
M  V30 6555 H 632.228 -3.78451 2.22871 0
M  V30 6556 H 632.834 -2.57581 3.38426 0
M  V30 6557 N 631.149 -1.42148 -0.680565 0
M  V30 6558 C 632.397 -1.42029 -1.43779 0
M  V30 6559 C 632.718 -0.0356347 -1.94967 0
M  V30 6560 O 631.988 0.924936 -1.7269 0
M  V30 6561 H 630.568 -0.522835 -0.533529 0
M  V30 6562 H 633.23 -1.7752 -0.804538 0
M  V30 6563 H 632.326 -2.11658 -2.29363 0
M  V30 6564 N 632.627 0.916307 -1.28225 0
M  V30 6565 C 633.852 1.7043 -1.18188 0
M  V30 6566 C 634.277 1.86346 0.256274 0
M  V30 6567 O 633.635 1.37175 1.18544 0
M  V30 6568 C 633.683 3.07546 -1.88275 0
M  V30 6569 O 632.787 3.94904 -1.18848 0
M  V30 6570 H 632.128 0.521967 -0.410423 0
M  V30 6571 H 634.658 1.14589 -1.69501 0
M  V30 6572 H 634.668 3.57793 -1.96082 0
M  V30 6573 H 633.343 2.95279 -2.92887 0
M  V30 6574 H 631.92 3.53339 -1.19187 0
M  V30 6575 N 634.105 1.10431 1.1244 0
M  V30 6576 C 635.333 0.868872 1.87772 0
M  V30 6577 C 635.748 -0.580645 1.7965 0
M  V30 6578 O 635.105 -1.40031 1.17036 0
M  V30 6579 C 635.156 1.30855 3.36986 0
M  V30 6580 O 634.877 2.70123 3.44914 0
M  V30 6581 C 636.378 1.107 4.29256 0
M  V30 6582 H 633.598 0.311868 0.59412 0
M  V30 6583 H 636.142 1.46897 1.42273 0
M  V30 6584 H 634.297 0.752126 3.80029 0
M  V30 6585 H 634.711 2.88923 4.37748 0
M  V30 6586 H 636.185 1.46378 5.32238 0
M  V30 6587 H 636.662 0.0456228 4.39176 0
M  V30 6588 H 637.268 1.64988 3.91994 0
M  V30 6589 N 635.583 -1.29855 0.893053 0
M  V30 6590 C 636.53 -2.27909 0.364161 0
M  V30 6591 C 637.5 -1.56726 -0.550093 0
M  V30 6592 O 638.685 -1.84747 -0.47677 0
M  V30 6593 C 635.825 -3.42678 -0.408178 0
M  V30 6594 C 634.938 -4.28659 0.536212 0
M  V30 6595 C 634.073 -5.30599 -0.252521 0
M  V30 6596 C 633.112 -6.08234 0.686822 0
M  V30 6597 N 632.249 -7.02068 -0.0670902 0
M  V30 6598 H 637.089 -2.72531 1.20544 0
M  V30 6599 H 634.626 -1.34047 0.605779 0
M  V30 6600 H 636.584 -4.07986 -0.871962 0
M  V30 6601 H 635.214 -2.99103 -1.21397 0
M  V30 6602 H 634.266 -3.63584 1.1185 0
M  V30 6603 H 635.578 -4.8274 1.25552 0
M  V30 6604 H 634.732 -6.01694 -0.777801 0
M  V30 6605 H 633.471 -4.77233 -1.005 0
M  V30 6606 H 632.476 -5.3601 1.22366 0
M  V30 6607 H 633.701 -6.63689 1.43852 0
M  V30 6608 H 631.647 -6.5108 -0.801955 0
M  V30 6609 H 631.564 -7.53675 0.59243 0
M  V30 6610 H 632.832 -7.77392 -0.572851 0
M  V30 6611 N 637.061 -0.65484 -1.43351 0
M  V30 6612 C 638.008 0.0357713 -2.30772 0
M  V30 6613 C 638.978 0.813035 -1.44841 0
M  V30 6614 O 640.163 0.789314 -1.73708 0
M  V30 6615 C 637.303 0.995084 -3.30442 0
M  V30 6616 C 636.416 0.21375 -4.31471 0
M  V30 6617 C 635.551 1.16701 -5.18222 0
M  V30 6618 C 634.59 0.376201 -6.10943 0
M  V30 6619 N 633.727 1.28113 -6.90313 0
M  V30 6620 H 638.567 -0.71559 -2.89281 0
M  V30 6621 H 636.104 -0.364645 -1.42509 0
M  V30 6622 H 638.062 1.5649 -3.86739 0
M  V30 6623 H 636.692 1.7133 -2.7358 0
M  V30 6624 H 635.744 -0.472377 -3.77456 0
M  V30 6625 H 637.056 -0.401103 -4.97185 0
M  V30 6626 H 636.21 1.8074 -5.79153 0
M  V30 6627 H 634.949 1.81577 -4.52638 0
M  V30 6628 H 633.954 -0.277534 -5.49099 0
M  V30 6629 H 635.179 -0.268178 -6.7857 0
M  V30 6630 H 633.125 1.91666 -6.27376 0
M  V30 6631 H 633.042 0.720879 -7.52555 0
M  V30 6632 H 634.31 1.90962 -7.55747 0
M  V30 6633 N 638.539 1.52521 -0.396863 0
M  V30 6634 C 639.95 1.86547 0.0754868 0
M  V30 6635 C 640.301 1.31621 1.45501 0
M  V30 6636 O 639.426 0.650563 2.0639 0
M  V30 6637 C 640.021 3.38495 0.143754 0
M  V30 6638 C 638.58 3.72205 0.560413 0
M  V30 6639 C 637.727 2.75954 -0.272856 0
M  V30 6640 H 640.678 1.46323 -0.614434 0
M  V30 6641 H 640.699 3.68153 0.961425 0
M  V30 6642 H 640.211 3.78442 -0.860415 0
M  V30 6643 H 638.312 3.3783 1.57167 0
M  V30 6644 H 638.425 4.78074 0.313314 0
M  V30 6645 H 636.789 2.53339 0.263 0
M  V30 6646 H 637.572 3.1874 -1.27515 0
M  V30 6647 N 640.017 0.126909 1.57088 0
M  V30 6648 C 641.263 -0.523662 1.96543 0
M  V30 6649 C 641.618 -1.63783 1.0096 0
M  V30 6650 O 640.911 -1.91556 0.0410175 0
M  V30 6651 C 641.105 -1.095 3.40212 0
M  V30 6652 C 640.934 -0.037715 4.49684 0
M  V30 6653 C 639.704 0.396823 5.03739 0
M  V30 6654 C 641.902 0.746245 5.08857 0
M  V30 6655 N 639.884 1.43905 5.96795 0
M  V30 6656 C 641.255 1.63947 5.97931 0
M  V30 6657 C 643.31 0.796259 4.91492 0
M  V30 6658 C 642.013 2.57837 6.715 0
M  V30 6659 C 644.039 1.7229 5.65747 0
M  V30 6660 C 643.401 2.60369 6.54513 0
M  V30 6661 H 639.5 -0.161016 0.765244 0
M  V30 6662 H 642.084 0.21686 1.93489 0
M  V30 6663 H 640.255 -1.80521 3.43899 0
M  V30 6664 H 641.987 -1.71054 3.66773 0
M  V30 6665 H 638.742 0.00290406 4.736 0
M  V30 6666 H 639.166 1.95932 6.48027 0
M  V30 6667 H 643.808 0.129412 4.22602 0
M  V30 6668 H 641.526 3.25532 7.39631 0
M  V30 6669 H 645.112 1.76715 5.54313 0
M  V30 6670 H 643.992 3.30906 7.10965 0
M  V30 6671 N 641.495 -1.56914 -0.146875 0
M  V30 6672 C 642.772 -1.74273 -0.888165 0
M  V30 6673 C 643.152 -0.69496 -1.99333 0
M  V30 6674 O 642.5 0.286093 -2.26702 0
M  V30 6675 C 642.71 -3.18336 -1.43051 0
M  V30 6676 C 644.058 -3.80024 -1.89387 0
M  V30 6677 O 645.082 -3.21765 -1.52792 0
M  V30 6678 O 643.941 -4.82367 -2.56874 0
M  V30 6679 H 641.035 -0.712565 -0.419738 0
M  V30 6680 H 643.581 -1.6918 -0.132791 0
M  V30 6681 H 642.353 -3.86092 -0.636274 0
M  V30 6682 H 641.976 -3.27854 -2.24938 0
M  V30 6683 N 642.974 0.416227 -1.52004 0
M  V30 6684 C 643.907 1.52736 -1.6955 0
M  V30 6685 C 644.885 1.53264 -0.54305 0
M  V30 6686 O 646.069 1.72077 -0.769527 0
M  V30 6687 C 643.196 2.91283 -1.72835 0
M  V30 6688 C 642.242 3.08695 -2.94295 0
M  V30 6689 S 643.075 2.82758 -4.54762 0
M  V30 6690 C 644.231 4.23548 -4.60823 0
M  V30 6691 H 644.464 1.37623 -2.63528 0
M  V30 6692 H 641.997 0.607335 -1.41954 0
M  V30 6693 H 643.955 3.71134 -1.75413 0
M  V30 6694 H 642.616 3.03742 -0.799966 0
M  V30 6695 H 641.809 4.10042 -2.93056 0
M  V30 6696 H 641.411 2.36699 -2.89568 0
M  V30 6697 H 643.703 5.17078 -4.37763 0
M  V30 6698 H 644.646 4.29813 -5.62731 0
M  V30 6699 H 645.054 4.08188 -3.89927 0
M  V30 6700 N 644.452 1.42507 0.673017 0
M  V30 6701 C 645.729 1.33554 1.42908 0
M  V30 6702 C 646.109 -0.0262211 2.11084 0
M  V30 6703 O 645.457 -1.04181 2.03368 0
M  V30 6704 C 645.667 2.50498 2.43006 0
M  V30 6705 C 647.015 2.92694 3.07596 0
M  V30 6706 O 648.039 2.50401 2.53333 0
M  V30 6707 O 646.898 3.65899 4.05931 0
M  V30 6708 H 643.992 0.526785 0.637516 0
M  V30 6709 H 646.538 1.54518 0.701591 0
M  V30 6710 H 645.31 3.41272 1.9144 0
M  V30 6711 H 644.933 2.3153 3.23233 0
M  V30 6712 N 645.93 -0.909495 1.28709 0
M  V30 6713 C 647.207 -1.63865 1.06806 0
M  V30 6714 C 647.587 -2.07445 -0.391143 0
M  V30 6715 O 646.935 -1.82269 -1.37805 0
M  V30 6716 C 647.145 -2.82692 2.04661 0
M  V30 6717 C 648.493 -3.5361 2.35042 0
M  V30 6718 O 649.517 -2.92847 2.02779 0
M  V30 6719 O 648.376 -4.63131 2.90124 0
M  V30 6720 H 645.47 -0.719065 0.408502 0
M  V30 6721 H 648.016 -0.958424 1.40044 0
M  V30 6722 H 646.788 -2.47614 3.0299 0
M  V30 6723 H 646.411 -3.58426 1.72095 0
M  V30 6724 N 647.408 -1.11026 -1.11852 0
M  V30 6725 C 648.638 -0.877544 -1.87037 0
M  V30 6726 C 649.046 0.575925 -1.80221 0
M  V30 6727 O 648.389 1.40916 -1.17849 0
M  V30 6728 C 648.451 -1.25529 -3.36872 0
M  V30 6729 C 648.115 -2.71704 -3.67459 0
M  V30 6730 C 649.112 -3.69931 -3.65304 0
M  V30 6731 C 646.797 -3.08243 -3.966 0
M  V30 6732 C 648.791 -5.02717 -3.9186 0
M  V30 6733 C 646.478 -4.41215 -4.22815 0
M  V30 6734 C 647.476 -5.38262 -4.20432 0
M  V30 6735 O 647.164 -6.68839 -4.45992 0
M  V30 6736 H 646.896 -0.314374 -0.598452 0
M  V30 6737 H 649.45 -1.48015 -1.42411 0
M  V30 6738 H 647.68 -0.595808 -3.82082 0
M  V30 6739 H 649.369 -0.999064 -3.93413 0
M  V30 6740 H 650.135 -3.43047 -3.42846 0
M  V30 6741 H 646.014 -2.33326 -3.97593 0
M  V30 6742 H 649.558 -5.78456 -3.89916 0
M  V30 6743 H 645.455 -4.67835 -4.44748 0
M  V30 6744 H 646.223 -6.74563 -4.63581 0
M  V30 6745 N 648.886 1.2938 -0.899927 0
M  V30 6746 C 650.111 2.00228 -0.540692 0
M  V30 6747 C 650.536 1.66909 0.867359 0
M  V30 6748 O 649.894 0.893824 1.57735 0
M  V30 6749 C 649.942 3.52921 -0.740232 0
M  V30 6750 O 649.046 4.11879 0.207154 0
M  V30 6751 H 648.387 0.629505 -0.211233 0
M  V30 6752 H 650.917 1.6487 -1.21158 0
M  V30 6753 H 650.927 4.0287 -0.644973 0
M  V30 6754 H 649.602 3.76508 -1.76677 0
M  V30 6755 H 648.179 3.72845 0.0643315 0
M  V30 6756 N 650.364 0.662433 1.43002 0
M  V30 6757 C 651.775 0.258315 1.84904 0
M  V30 6758 C 652.126 -1.19703 1.55453 0
M  V30 6759 O 651.251 -1.91484 1.00811 0
M  V30 6760 C 651.846 0.462047 3.35635 0
M  V30 6761 C 650.405 0.112165 3.76233 0
M  V30 6762 C 649.552 0.760479 2.66668 0
M  V30 6763 H 652.503 0.865467 1.33024 0
M  V30 6764 H 652.524 -0.289646 3.79396 0
M  V30 6765 H 652.036 1.52135 3.57039 0
M  V30 6766 H 650.137 -0.944179 3.60439 0
M  V30 6767 H 650.25 0.544058 4.76001 0
M  V30 6768 H 648.614 0.192887 2.53969 0
M  V30 6769 H 649.397 1.82299 2.90898 0
M  V30 6770 N 651.842 -1.52309 0.404946 0
M  V30 6771 C 653.067 -2.06666 -0.1743 0
M  V30 6772 C 653.492 -1.27341 -1.38441 0
M  V30 6773 O 652.85 -0.302539 -1.78758 0
M  V30 6774 C 652.898 -3.57014 -0.507262 0
M  V30 6775 O 652.002 -3.80144 -1.59889 0
M  V30 6776 H 651.343 -0.663807 -0.0160273 0
M  V30 6777 H 653.873 -1.96297 0.576937 0
M  V30 6778 H 653.883 -4.00724 -0.767098 0
M  V30 6779 H 652.558 -4.14184 0.377368 0
M  V30 6780 H 651.135 -3.48316 -1.33155 0
M  V30 6781 N 653.32 -0.135238 -1.57019 0
M  V30 6782 C 654.283 0.794707 -2.14981 0
M  V30 6783 C 655.283 1.18342 -1.08866 0
M  V30 6784 O 656.473 1.10627 -1.34563 0
M  V30 6785 C 653.605 2.07685 -2.70333 0
M  V30 6786 H 654.798 0.290696 -2.98488 0
M  V30 6787 H 652.351 0.114128 -1.55883 0
M  V30 6788 H 653.086 2.6248 -1.9046 0
M  V30 6789 H 652.871 1.80745 -3.47957 0
M  V30 6790 H 654.361 2.74127 -3.1503 0
M  V30 6791 N 654.798 1.5699 0.138552 0
M  V30 6792 C 656.023 1.88344 0.86841 0
M  V30 6793 C 656.448 0.725159 1.7356 0
M  V30 6794 O 655.806 -0.324992 1.78363 0
M  V30 6795 C 655.854 3.18334 1.69398 0
M  V30 6796 O 654.958 3.02863 2.79907 0
M  V30 6797 H 654.299 0.618577 0.241367 0
M  V30 6798 H 656.829 2.04207 0.126826 0
M  V30 6799 H 656.839 3.50567 2.08726 0
M  V30 6800 H 655.514 4.02238 1.05725 0
M  V30 6801 H 654.091 2.82056 2.43924 0
M  V30 6802 N 656.276 -0.40816 1.52223 0
M  V30 6803 C 657.524 -1.15274 1.66001 0
M  V30 6804 C 657.845 -1.91003 0.392803 0
M  V30 6805 O 657.115 -1.8673 -0.592336 0
M  V30 6806 H 655.695 -0.428526 0.611861 0
M  V30 6807 H 658.357 -0.46512 1.89269 0
M  V30 6808 H 657.453 -1.86628 2.50153 0
M  V30 6809 N 657.755 -1.42862 -0.66545 0
M  V30 6810 C 659.166 -1.3901 -1.24632 0
M  V30 6811 C 659.517 -0.0880285 -1.96002 0
M  V30 6812 O 658.642 0.812947 -2.0055 0
M  V30 6813 C 659.237 -2.51806 -2.2667 0
M  V30 6814 C 657.796 -2.51257 -2.80262 0
M  V30 6815 C 656.943 -2.30124 -1.5472 0
M  V30 6816 H 659.894 -1.5194 -0.458237 0
M  V30 6817 H 659.915 -2.22593 -3.08598 0
M  V30 6818 H 659.427 -3.46558 -1.74697 0
M  V30 6819 H 657.528 -1.60349 -3.36332 0
M  V30 6820 H 657.641 -3.48614 -3.28641 0
M  V30 6821 H 656.005 -1.7856 -1.81627 0
M  V30 6822 H 656.788 -3.26945 -1.04699 0
M  V30 6823 N 659.233 0.902656 -1.29189 0
M  V30 6824 C 660.163 2.02294 -1.16616 0
M  V30 6825 C 661.144 1.6999 -0.0611175 0
M  V30 6826 O 662.329 1.9271 -0.240072 0
M  V30 6827 C 659.459 3.37018 -0.83882 0
M  V30 6828 C 658.413 3.83522 -1.89986 0
M  V30 6829 C 657.739 5.15337 -1.42589 0
M  V30 6830 C 659.039 4.04169 -3.30824 0
M  V30 6831 H 660.733 2.13071 -2.10336 0
M  V30 6832 H 658.279 1.02378 -1.01266 0
M  V30 6833 H 660.232 4.14895 -0.737584 0
M  V30 6834 H 658.956 3.26325 0.134071 0
M  V30 6835 H 657.615 3.07859 -1.99043 0
M  V30 6836 H 657.263 5.01056 -0.441759 0
M  V30 6837 H 656.963 5.47423 -2.13547 0
M  V30 6838 H 658.487 5.95758 -1.3381 0
M  V30 6839 H 659.901 4.72537 -3.24626 0
M  V30 6840 H 658.298 4.47604 -3.99713 0
M  V30 6841 H 659.368 3.08604 -3.74021 0
M  V30 6842 N 660.711 1.11618 1.11262 0
M  V30 6843 C 661.959 0.864469 1.82678 0
M  V30 6844 C 662.28 -0.611564 1.85162 0
M  V30 6845 O 661.55 -1.44429 1.32352 0
M  V30 6846 H 660.13 0.316821 0.676486 0
M  V30 6847 H 662.792 1.40894 1.34666 0
M  V30 6848 H 661.888 1.23832 2.86482 0
M  V30 6849 N 662.189 -1.289 0.906776 0
M  V30 6850 C 663.136 -2.2751 0.388313 0
M  V30 6851 C 664.106 -1.57301 -0.533439 0
M  V30 6852 O 665.291 -1.85243 -0.457148 0
M  V30 6853 C 662.431 -3.43091 -0.37181 0
M  V30 6854 C 661.544 -4.28066 0.581647 0
M  V30 6855 C 660.679 -5.30837 -0.19623 0
M  V30 6856 C 659.718 -6.07472 0.751294 0
M  V30 6857 N 658.855 -7.021 0.00737727 0
M  V30 6858 H 663.695 -2.71237 1.23428 0
M  V30 6859 H 661.232 -1.33397 0.619962 0
M  V30 6860 H 663.19 -4.08888 -0.828641 0
M  V30 6861 H 661.82 -3.00374 -1.18218 0
M  V30 6862 H 660.872 -3.62378 1.157 0
M  V30 6863 H 662.184 -4.81382 1.30665 0
M  V30 6864 H 661.338 -6.02485 -0.71394 0
M  V30 6865 H 660.077 -4.78272 -0.954324 0
M  V30 6866 H 659.082 -5.34682 1.28044 0
M  V30 6867 H 660.307 -6.62126 1.50883 0
M  V30 6868 H 658.253 -6.51894 -0.732854 0
M  V30 6869 H 658.17 -7.53004 0.672334 0
M  V30 6870 H 659.438 -7.77956 -0.490365 0
M  V30 6871 N 663.667 -0.670007 -1.42649 0
M  V30 6872 C 664.597 -0.00258501 -2.335 0
M  V30 6873 C 665.578 0.794364 -1.50412 0
M  V30 6874 O 666.763 0.75248 -1.79029 0
M  V30 6875 C 663.893 0.952748 -3.33976 0
M  V30 6876 C 662.847 0.264733 -4.2718 0
M  V30 6877 C 662.173 1.33267 -5.17826 0
M  V30 6878 C 663.473 -0.853289 -5.15283 0
M  V30 6879 H 665.167 -0.761326 -2.89559 0
M  V30 6880 H 662.713 -0.367561 -1.3923 0
M  V30 6881 H 664.666 1.4287 -3.96442 0
M  V30 6882 H 663.39 1.74285 -2.7621 0
M  V30 6883 H 662.049 -0.190938 -3.66102 0
M  V30 6884 H 661.697 2.11464 -4.5639 0
M  V30 6885 H 661.397 0.877476 -5.81011 0
M  V30 6886 H 662.921 1.80965 -5.83167 0
M  V30 6887 H 664.335 -0.458763 -5.71462 0
M  V30 6888 H 662.732 -1.23398 -5.87276 0
M  V30 6889 H 663.802 -1.70412 -4.53969 0
M  V30 6890 N 665.145 1.52092 -0.413018 0
M  V30 6891 C 666.422 1.94356 0.22024 0
M  V30 6892 C 666.802 1.35017 1.62277 0
M  V30 6893 O 666.15 0.527511 2.22328 0
M  V30 6894 C 666.36 3.48289 0.222638 0
M  V30 6895 C 667.708 4.22313 0.440098 0
M  V30 6896 O 668.732 3.54919 0.301826 0
M  V30 6897 O 667.591 5.41829 0.712984 0
M  V30 6898 H 664.685 0.814536 0.14304 0
M  V30 6899 H 667.231 1.63083 -0.469242 0
M  V30 6900 H 666.003 3.83872 -0.758836 0
M  V30 6901 H 665.626 3.85934 0.956057 0
M  V30 6902 N 666.623 0.143563 1.56945 0
M  V30 6903 C 667.872 -0.50835 1.95189 0
M  V30 6904 C 668.185 -1.66239 1.03073 0
M  V30 6905 O 669.391 -2.3787 1.30882 0
M  V30 6906 C 667.847 -0.955735 3.46978 0
M  V30 6907 C 667.455 0.171183 4.47673 0
M  V30 6908 C 669.199 -1.57763 3.94095 0
M  V30 6909 C 667.106 -0.294279 5.90667 0
M  V30 6910 H 666.036 -0.193679 0.728701 0
M  V30 6911 H 668.687 0.227357 1.82086 0
M  V30 6912 H 667.069 -1.7466 3.55401 0
M  V30 6913 H 668.243 0.948049 4.50942 0
M  V30 6914 H 666.558 0.701273 4.10452 0
M  V30 6915 H 669.155 -1.93745 4.98364 0
M  V30 6916 H 669.498 -2.46531 3.35452 0
M  V30 6917 H 670.031 -0.851728 3.88575 0
M  V30 6918 H 666.77 0.557939 6.53121 0
M  V30 6919 H 666.29 -1.0371 5.90766 0
M  V30 6920 H 667.969 -0.747426 6.42668 0
M  V30 6921 N 668.101 -1.57061 -0.130224 0
M  V30 6922 C 669.326 -1.88802 -0.858409 0
M  V30 6923 C 669.751 -0.734353 -1.73173 0
M  V30 6924 O 669.109 0.315529 -1.78533 0
M  V30 6925 C 669.157 -3.19228 -1.67708 0
M  V30 6926 O 668.261 -3.04343 -2.78297 0
M  V30 6927 H 667.602 -0.619849 -0.238083 0
M  V30 6928 H 670.132 -2.04271 -0.115995 0
M  V30 6929 H 670.142 -3.51669 -2.06864 0
M  V30 6930 H 668.817 -4.02793 -1.0359 0
M  V30 6931 H 667.394 -2.83346 -2.42425 0
M  V30 6932 N 669.579 0.400081 -1.52437 0
M  V30 6933 C 670.489 1.51253 -1.79331 0
M  V30 6934 C 671.505 1.60188 -0.679396 0
M  V30 6935 O 672.681 1.76733 -0.965791 0
M  V30 6936 C 669.746 2.869 -1.94652 0
M  V30 6937 C 668.807 2.87777 -3.18564 0
M  V30 6938 C 668.04 4.16954 -3.33145 0
M  V30 6939 O 668.263 5.11329 -2.52783 0
M  V30 6940 O 667.197 4.2487 -4.26343 0
M  V30 6941 H 671.023 1.31461 -2.73773 0
M  V30 6942 H 668.608 0.586834 -1.37392 0
M  V30 6943 H 670.49 3.67336 -2.065 0
M  V30 6944 H 669.165 3.06741 -1.034 0
M  V30 6945 H 668.072 2.06162 -3.12167 0
M  V30 6946 H 669.405 2.72886 -4.09627 0
M  V30 6947 N 671.057 1.43213 0.657864 0
M  V30 6948 C 672.306 1.43871 1.41365 0
M  V30 6949 C 672.619 0.064898 1.95492 0
M  V30 6950 O 673.825 -0.0510796 2.71452 0
M  V30 6951 C 672.281 2.53158 2.55811 0
M  V30 6952 C 671.889 3.96624 2.08311 0
M  V30 6953 C 673.633 2.63004 3.3321 0
M  V30 6954 C 671.54 4.97385 3.1994 0
M  V30 6955 H 670.47 0.535174 0.531136 0
M  V30 6956 H 673.121 1.69185 0.710543 0
M  V30 6957 H 671.503 2.21037 3.2857 0
M  V30 6958 H 672.677 4.38182 1.42593 0
M  V30 6959 H 670.992 3.90781 1.43804 0
M  V30 6960 H 673.589 3.3546 4.16378 0
M  V30 6961 H 673.932 1.67918 3.80932 0
M  V30 6962 H 674.465 2.94403 2.67529 0
M  V30 6963 H 671.204 5.94007 2.77192 0
M  V30 6964 H 670.724 4.60444 3.84385 0
M  V30 6965 H 672.403 5.19877 3.85145 0
M  V30 6966 N 672.536 -0.895792 1.29666 0
M  V30 6967 C 673.483 -2.00035 1.15129 0
M  V30 6968 C 674.453 -1.66043 0.0435819 0
M  V30 6969 O 675.638 -1.89621 0.211811 0
M  V30 6970 C 672.778 -3.34774 0.83787 0
M  V30 6971 C 671.891 -3.81525 2.0264 0
M  V30 6972 C 671.026 -5.04858 1.65201 0
M  V30 6973 C 670.065 -5.43988 2.80612 0
M  V30 6974 N 669.202 -6.58507 2.43544 0
M  V30 6975 H 674.042 -2.11802 2.09628 0
M  V30 6976 H 671.579 -1.03719 1.04311 0
M  V30 6977 H 673.537 -4.12311 0.636824 0
M  V30 6978 H 672.167 -3.22724 -0.0702314 0
M  V30 6979 H 671.219 -2.9999 2.33903 0
M  V30 6980 H 672.531 -4.06472 2.89106 0
M  V30 6981 H 671.685 -5.8999 1.41408 0
M  V30 6982 H 670.424 -4.81759 0.758893 0
M  V30 6983 H 669.429 -4.57388 3.05083 0
M  V30 6984 H 670.654 -5.69066 3.70595 0
M  V30 6985 H 668.6 -6.37004 1.56724 0
M  V30 6986 H 668.517 -6.83269 3.23542 0
M  V30 6987 H 669.785 -7.46897 2.2308 0
M  V30 6988 N 674.014 -1.12206 -1.10668 0
M  V30 6989 C 674.924 -0.800686 -2.20513 0
M  V30 6990 C 675.94 0.209512 -1.72734 0
M  V30 6991 O 677.116 0.043705 -2.01353 0
M  V30 6992 C 674.181 -0.257353 -3.45744 0
M  V30 6993 C 673.242 -1.32718 -4.0827 0
M  V30 6994 C 672.475 -0.809674 -5.27522 0
M  V30 6995 O 672.698 0.35742 -5.69279 0
M  V30 6996 O 671.632 -1.57816 -5.80842 0
M  V30 6997 H 675.458 -1.71807 -2.50432 0
M  V30 6998 H 673.043 -0.898546 -1.19359 0
M  V30 6999 H 674.925 0.0408849 -4.2138 0
M  V30 7000 H 673.6 0.632627 -3.17458 0
M  V30 7001 H 672.507 -1.67855 -3.34329 0
M  V30 7002 H 673.84 -2.19083 -4.40753 0
M  V30 7003 N 675.492 1.28418 -0.913599 0
M  V30 7004 C 676.402 2.31043 -0.406965 0
M  V30 7005 C 677.418 1.66501 0.505298 0
M  V30 7006 O 678.594 1.97558 0.391522 0
M  V30 7007 C 675.659 3.4498 0.344901 0
M  V30 7008 C 674.72 4.25078 -0.600563 0
M  V30 7009 C 673.953 5.33575 0.115516 0
M  V30 7010 O 674.176 5.54503 1.33727 0
M  V30 7011 O 673.11 5.9939 -0.549095 0
M  V30 7012 H 676.936 2.76387 -1.25873 0
M  V30 7013 H 674.521 1.33109 -0.678415 0
M  V30 7014 H 676.403 4.14314 0.769542 0
M  V30 7015 H 675.078 3.01719 1.1725 0
M  V30 7016 H 673.985 3.58334 -1.0746 0
M  V30 7017 H 675.318 4.72018 -1.39497 0
M  V30 7018 N 676.97 0.677563 1.42291 0
M  V30 7019 C 678.216 0.201272 2.01799 0
M  V30 7020 C 678.549 -1.19004 1.53465 0
M  V30 7021 O 677.824 -1.79953 0.738039 0
M  V30 7022 C 678.107 0.238968 3.59306 0
M  V30 7023 C 677.96 1.66594 4.17812 0
M  V30 7024 C 679.279 -0.411287 4.38174 0
M  V30 7025 H 676.398 0.0746114 0.733214 0
M  V30 7026 H 679.04 0.862872 1.69276 0
M  V30 7027 H 677.19 -0.324368 3.87144 0
M  V30 7028 H 678.862 2.28173 4.00917 0
M  V30 7029 H 677.105 2.20576 3.73536 0
M  V30 7030 H 677.776 1.64398 5.26951 0
M  V30 7031 H 680.252 0.0682804 4.16044 0
M  V30 7032 H 679.128 -0.354286 5.47755 0
M  V30 7033 H 679.389 -1.4893 4.1626 0
M  V30 7034 N 678.448 -1.51871 0.421078 0
M  V30 7035 C 679.378 -2.30231 -0.389363 0
M  V30 7036 C 680.359 -1.34946 -1.03555 0
M  V30 7037 O 681.544 -1.63859 -1.04229 0
M  V30 7038 C 678.674 -3.13247 -1.49979 0
M  V30 7039 C 677.628 -4.16677 -0.977966 0
M  V30 7040 C 676.954 -4.88112 -2.1829 0
M  V30 7041 C 678.254 -5.22295 -0.0236775 0
M  V30 7042 H 679.948 -2.98229 0.264524 0
M  V30 7043 H 677.494 -1.43424 0.12866 0
M  V30 7044 H 679.447 -3.66838 -2.07383 0
M  V30 7045 H 678.171 -2.4304 -2.18173 0
M  V30 7046 H 676.83 -3.64114 -0.426245 0
M  V30 7047 H 676.478 -4.14423 -2.85066 0
M  V30 7048 H 676.178 -5.58041 -1.84021 0
M  V30 7049 H 677.702 -5.44521 -2.76278 0
M  V30 7050 H 679.116 -5.71055 -0.506899 0
M  V30 7051 H 677.513 -5.99656 0.230782 0
M  V30 7052 H 678.583 -4.76131 0.917999 0
M  V30 7053 N 679.926 -0.151884 -1.56866 0
M  V30 7054 C 680.858 0.817008 -2.14144 0
M  V30 7055 C 681.871 1.20735 -1.0921 0
M  V30 7056 O 683.06 1.15058 -1.36469 0
M  V30 7057 C 680.16 2.10844 -2.65326 0
M  V30 7058 C 679.333 1.88471 -3.94712 0
M  V30 7059 C 678.392 3.01649 -4.31155 0
M  V30 7060 O 677.418 2.73127 -4.9939 0
M  V30 7061 N 678.62 4.28947 -3.91132 0
M  V30 7062 H 681.385 0.327448 -2.97906 0
M  V30 7063 H 678.946 0.0315313 -1.61869 0
M  V30 7064 H 680.938 2.85616 -2.86715 0
M  V30 7065 H 679.508 2.51049 -1.86262 0
M  V30 7066 H 678.728 0.977088 -3.81899 0
M  V30 7067 H 680.016 1.70866 -4.79252 0
M  V30 7068 H 679.414 4.54986 -3.36161 0
M  V30 7069 H 677.971 5.00484 -4.17563 0
M  V30 7070 N 681.404 1.57128 0.121893 0
M  V30 7071 C 682.629 1.89254 0.848385 0
M  V30 7072 C 683.054 0.743527 1.72781 0
M  V30 7073 O 682.412 -0.306056 1.78698 0
M  V30 7074 C 682.46 3.20113 1.66012 0
M  V30 7075 O 681.564 3.05815 2.76679 0
M  V30 7076 H 680.905 0.621103 0.234793 0
M  V30 7077 H 683.435 2.0433 0.10516 0
M  V30 7078 H 683.445 3.52761 2.04996 0
M  V30 7079 H 682.12 4.03336 1.01452 0
M  V30 7080 H 680.697 2.84627 2.40918 0
M  V30 7081 N 682.882 -0.391992 1.52647 0
M  V30 7082 C 684.11 -1.1586 1.71418 0
M  V30 7083 C 684.525 -1.8381 0.431216 0
M  V30 7084 O 683.882 -1.7256 -0.594085 0
M  V30 7085 C 683.933 -2.20888 2.86165 0
M  V30 7086 O 683.654 -1.5571 4.09495 0
M  V30 7087 C 685.155 -3.103 3.1659 0
M  V30 7088 H 682.375 -0.347494 0.574011 0
M  V30 7089 H 684.919 -0.458972 1.99283 0
M  V30 7090 H 683.074 -2.86492 2.6077 0
M  V30 7091 H 683.488 -2.25474 4.73563 0
M  V30 7092 H 684.962 -3.8003 4.00351 0
M  V30 7093 H 685.439 -3.73639 2.30848 0
M  V30 7094 H 686.045 -2.50345 3.43813 0
M  V30 7095 N 684.36 -1.4356 -0.65026 0
M  V30 7096 C 685.588 -1.48779 -1.43779 0
M  V30 7097 C 686.003 -0.106593 -1.88499 0
M  V30 7098 O 685.36 0.883766 -1.59674 0
M  V30 7099 C 685.411 -2.43618 -2.67081 0
M  V30 7100 O 685.132 -3.76367 -2.24231 0
M  V30 7101 C 686.633 -2.5811 -3.60409 0
M  V30 7102 H 683.853 -0.50521 -0.441593 0
M  V30 7103 H 686.397 -1.88332 -0.796941 0
M  V30 7104 H 684.552 -2.07253 -3.273 0
M  V30 7105 H 684.966 -4.27394 -3.0403 0
M  V30 7106 H 686.44 -3.28539 -4.43583 0
M  V30 7107 H 686.917 -1.627 -4.07953 0
M  V30 7108 H 687.523 -2.95298 -3.0607 0
M  V30 7109 N 685.838 0.888903 -1.30139 0
M  V30 7110 C 687.086 1.63713 -1.18501 0
M  V30 7111 C 687.407 1.9324 0.261399 0
M  V30 7112 O 686.677 1.56608 1.17689 0
M  V30 7113 H 685.257 0.606861 -0.435579 0
M  V30 7114 H 687.919 1.06525 -1.63213 0
M  V30 7115 H 687.015 2.58894 -1.743 0
M  V30 7116 N 687.317 1.12792 1.10072 0
M  V30 7117 C 688.563 0.886857 1.82381 0
M  V30 7118 C 688.896 -0.58576 1.85155 0
M  V30 7119 O 688.171 -1.43317 1.31493 0
M  V30 7120 C 688.454 1.46703 3.28862 0
M  V30 7121 C 688.307 3.00829 3.34398 0
M  V30 7122 C 689.626 1.12971 4.25353 0
M  V30 7123 H 686.745 0.32362 0.662148 0
M  V30 7124 H 689.387 1.39513 1.28982 0
M  V30 7125 H 687.537 1.03476 3.74466 0
M  V30 7126 H 689.209 3.52764 2.97247 0
M  V30 7127 H 687.452 3.36164 2.74183 0
M  V30 7128 H 688.123 3.36519 4.3756 0
M  V30 7129 H 690.599 1.50313 3.88001 0
M  V30 7130 H 689.475 1.56223 5.26199 0
M  V30 7131 H 689.736 0.0424452 4.4208 0
M  V30 7132 N 688.795 -1.27931 0.920396 0
M  V30 7133 C 690.02 -1.99343 0.572478 0
M  V30 7134 C 690.445 -1.68267 -0.840696 0
M  V30 7135 O 689.803 -0.918805 -1.56294 0
M  V30 7136 C 689.851 -3.51698 0.796284 0
M  V30 7137 O 688.955 -4.12157 -0.141602 0
M  V30 7138 H 688.296 -0.626065 0.221221 0
M  V30 7139 H 690.826 -1.62921 1.23765 0
M  V30 7140 H 690.836 -4.01793 0.708984 0
M  V30 7141 H 689.511 -3.73649 1.82644 0
M  V30 7142 H 688.088 -3.729 -0.005007 0
M  V30 7143 N 690.273 -0.685099 -1.4193 0
M  V30 7144 C 691.223 0.00977295 -2.27998 0
M  V30 7145 C 692.207 0.763315 -1.41641 0
M  V30 7146 O 693.399 0.640532 -1.65004 0
M  V30 7147 C 690.528 0.952972 -3.29808 0
M  V30 7148 C 689.614 0.196231 -4.23646 0
M  V30 7149 N 690.005 -0.804401 -4.99363 0
M  V30 7150 C 688.303 0.433213 -4.43891 0
M  V30 7151 C 689.004 -1.25646 -5.67968 0
M  V30 7152 N 687.98 -0.5844 -5.4045 0
M  V30 7153 H 691.782 -0.757586 -2.83968 0
M  V30 7154 H 689.296 -0.515037 -1.54017 0
M  V30 7155 H 691.293 1.46585 -3.9028 0
M  V30 7156 H 689.953 1.72004 -2.75399 0
M  V30 7157 H 690.964 -1.18429 -5.04177 0
M  V30 7158 H 687.641 1.17899 -4.00507 0
M  V30 7159 H 689.031 -2.08622 -6.38691 0
M  V30 7160 N 691.751 1.51645 -0.429126 0
M  V30 7161 C 692.981 2.06133 0.138793 0
M  V30 7162 C 693.389 1.29735 1.37716 0
M  V30 7163 O 692.732 0.347955 1.80375 0
M  V30 7164 C 692.794 3.55504 0.534493 0
M  V30 7165 C 692.458 4.53098 -0.595917 0
M  V30 7166 C 693.455 4.98815 -1.46558 0
M  V30 7167 C 691.14 4.96296 -0.774309 0
M  V30 7168 C 693.134 5.86394 -2.4984 0
M  V30 7169 C 690.821 5.83667 -1.81042 0
M  V30 7170 C 691.819 6.28613 -2.67086 0
M  V30 7171 O 691.507 7.14251 -3.68919 0
M  V30 7172 H 691.239 0.675833 0.0150263 0
M  V30 7173 H 693.793 1.96301 -0.604584 0
M  V30 7174 H 692.023 3.63092 1.33045 0
M  V30 7175 H 693.712 3.92545 1.03262 0
M  V30 7176 H 694.478 4.66143 -1.33925 0
M  V30 7177 H 690.357 4.60859 -0.114178 0
M  V30 7178 H 693.901 6.21398 -3.17034 0
M  V30 7179 H 689.798 6.15753 -1.93698 0
M  V30 7180 H 690.566 7.3241 -3.65402 0
M  V30 7181 N 693.229 0.160201 1.56784 0
M  V30 7182 C 694.192 -0.760405 2.16219 0
M  V30 7183 C 695.192 -1.16595 1.10735 0
M  V30 7184 O 696.382 -1.08472 1.36306 0
M  V30 7185 C 693.514 -2.03358 2.73603 0
M  V30 7186 H 694.707 -0.243173 2.98912 0
M  V30 7187 H 692.26 -0.0893139 1.56045 0
M  V30 7188 H 692.995 -2.59416 1.94612 0
M  V30 7189 H 692.78 -1.75186 3.50788 0
M  V30 7190 H 694.27 -2.69081 3.19351 0
M  V30 7191 N 694.707 -1.5719 -0.113559 0
M  V30 7192 C 695.935 -1.89328 -0.834422 0
M  V30 7193 C 696.35 -0.752018 -1.73177 0
M  V30 7194 O 695.707 0.276912 -1.80387 0
M  V30 7195 C 695.758 -3.20962 -1.66329 0
M  V30 7196 O 695.479 -4.30695 -0.802069 0
M  V30 7197 C 696.98 -3.6684 -2.48884 0
M  V30 7198 H 694.2 -0.626769 -0.239587 0
M  V30 7199 H 696.744 -2.04273 -0.0963195 0
M  V30 7200 H 694.899 -3.0767 -2.35409 0
M  V30 7201 H 695.313 -5.06175 -1.37431 0
M  V30 7202 H 696.787 -4.61692 -3.02563 0
M  V30 7203 H 697.264 -2.93765 -3.26495 0
M  V30 7204 H 697.87 -3.82938 -1.85036 0
M  V30 7205 N 696.185 0.383891 -1.52853 0
M  V30 7206 C 697.462 1.14296 -1.58732 0
M  V30 7207 C 697.842 2.07585 -0.383611 0
M  V30 7208 O 697.19 2.1971 0.627661 0
M  V30 7209 C 697.4 1.89816 -2.92867 0
M  V30 7210 C 698.748 2.44998 -3.46787 0
M  V30 7211 O 699.772 1.99966 -2.94774 0
M  V30 7212 O 698.631 3.2727 -4.37672 0
M  V30 7213 H 695.725 0.52326 -0.640413 0
M  V30 7214 H 698.271 0.388631 -1.6519 0
M  V30 7215 H 697.043 1.21626 -3.71918 0
M  V30 7216 H 696.666 2.72199 -2.89816 0
M  V30 7217 N 697.663 1.43903 0.642637 0
M  V30 7218 C 698.888 1.49758 1.43483 0
M  V30 7219 C 699.313 0.119911 1.87717 0
M  V30 7220 O 698.671 -0.888558 1.58033 0
M  V30 7221 C 698.719 2.45744 2.63898 0
M  V30 7222 O 697.823 1.95101 3.63331 0
M  V30 7223 H 697.164 0.506138 0.429791 0
M  V30 7224 H 699.694 1.88923 0.785438 0
M  V30 7225 H 699.704 2.63399 3.11584 0
M  V30 7226 H 698.379 3.45818 2.31046 0
M  V30 7227 H 696.956 1.87158 3.22531 0
M  V30 7228 N 699.141 -0.881989 1.30609 0
M  V30 7229 C 700.387 -1.63649 1.20791 0
M  V30 7230 C 700.742 -1.90966 -0.234437 0
M  V30 7231 O 700.035 -1.52163 -1.16434 0
M  V30 7232 C 700.229 -2.97999 1.97311 0
M  V30 7233 C 700.058 -2.83798 3.48839 0
M  V30 7234 C 698.828 -2.83622 4.18195 0
M  V30 7235 C 701.026 -2.59529 4.44015 0
M  V30 7236 N 699.008 -2.60344 5.55962 0
M  V30 7237 C 700.379 -2.45401 5.69366 0
M  V30 7238 C 702.434 -2.44777 4.33576 0
M  V30 7239 C 701.137 -2.18023 6.85462 0
M  V30 7240 C 703.163 -2.18785 5.49443 0
M  V30 7241 C 702.525 -2.05436 6.73777 0
M  V30 7242 H 698.624 -0.603687 0.497077 0
M  V30 7243 H 701.208 -1.03908 1.64655 0
M  V30 7244 H 699.379 -3.55767 1.55834 0
M  V30 7245 H 701.111 -3.6266 1.79611 0
M  V30 7246 H 697.866 -2.95562 3.70054 0
M  V30 7247 H 698.29 -2.51709 6.28468 0
M  V30 7248 H 702.932 -2.53831 3.38126 0
M  V30 7249 H 700.65 -2.07707 7.8095 0
M  V30 7250 H 704.236 -2.08188 5.43276 0
M  V30 7251 H 703.116 -1.85605 7.61919 0
M  V30 7252 N 700.619 -1.13374 -1.09472 0
M  V30 7253 C 701.896 -0.806329 -1.78207 0
M  V30 7254 C 702.276 0.702191 -1.99079 0
M  V30 7255 O 701.624 1.63931 -1.59182 0
M  V30 7256 C 701.834 -1.59271 -3.10538 0
M  V30 7257 C 703.182 -1.78509 -3.85253 0
M  V30 7258 O 704.206 -1.55866 -3.20288 0
M  V30 7259 O 703.065 -2.16287 -5.01879 0
M  V30 7260 H 700.159 -0.29435 -0.772843 0
M  V30 7261 H 702.705 -1.23833 -1.16033 0
M  V30 7262 H 701.477 -2.61792 -2.90828 0
M  V30 7263 H 701.1 -1.15562 -3.80436 0
M  V30 7264 N 702.098 1.27442 -0.927168 0
M  V30 7265 C 703.346 1.94007 -0.566203 0
M  V30 7266 C 703.667 1.7323 0.895345 0
M  V30 7267 O 702.937 1.07973 1.63459 0
M  V30 7268 H 701.517 0.717917 -0.206409 0
M  V30 7269 H 704.179 1.55161 -1.17945 0
M  V30 7270 H 703.275 3.02401 -0.772028 0
M  V30 7271 N 703.576 0.692616 1.41565 0
M  V30 7272 C 704.822 0.222664 2.01574 0
M  V30 7273 C 705.155 -1.1737 1.54719 0
M  V30 7274 O 704.43 -1.79161 0.757084 0
M  V30 7275 C 704.713 0.277064 3.59033 0
M  V30 7276 C 704.566 1.71016 4.16021 0
M  V30 7277 C 705.885 -0.36479 4.38586 0
M  V30 7278 H 703.004 0.0823839 0.732381 0
M  V30 7279 H 705.646 0.880778 1.68352 0
M  V30 7280 H 703.796 -0.283288 3.87466 0
M  V30 7281 H 705.468 2.32413 3.98475 0
M  V30 7282 H 703.711 2.24525 3.71175 0
M  V30 7283 H 704.382 1.69978 5.25178 0
M  V30 7284 H 706.858 0.112404 4.15948 0
M  V30 7285 H 705.734 -0.296169 5.481 0
M  V30 7286 H 705.995 -1.44506 4.17816 0
M  V30 7287 N 705.054 -1.51416 0.437162 0
M  V30 7288 C 706.3 -2.02386 -0.129555 0
M  V30 7289 C 706.633 -1.32071 -1.42376 0
M  V30 7290 O 705.908 -0.43559 -1.8956 0
M  V30 7291 C 706.191 -3.5841 -0.348487 0
M  V30 7292 C 706.044 -4.39341 0.964352 0
M  V30 7293 C 707.363 -4.25654 -1.11834 0
M  V30 7294 H 704.482 -0.735587 -0.0456109 0
M  V30 7295 H 707.124 -1.81055 0.576124 0
M  V30 7296 H 705.274 -3.76716 -0.949592 0
M  V30 7297 H 706.946 -4.32685 1.59942 0
M  V30 7298 H 705.189 -4.04432 1.56898 0
M  V30 7299 H 705.86 -5.4667 0.765212 0
M  V30 7300 H 708.336 -4.11617 -0.609165 0
M  V30 7301 H 707.212 -5.34704 -1.24029 0
M  V30 7302 H 707.473 -3.86502 -2.14636 0
M  V30 7303 N 706.532 -0.168513 -1.56696 0
M  V30 7304 C 707.442 0.775435 -2.21414 0
M  V30 7305 C 708.458 1.25529 -1.20492 0
M  V30 7306 O 709.634 1.30801 -1.53144 0
M  V30 7307 C 706.699 1.9886 -2.83999 0
M  V30 7308 C 705.76 1.5559 -4.00113 0
M  V30 7309 C 704.993 2.71124 -4.59704 0
M  V30 7310 O 705.216 3.87917 -4.18182 0
M  V30 7311 O 704.15 2.4536 -5.4962 0
M  V30 7312 H 707.976 0.254416 -3.02632 0
M  V30 7313 H 705.561 0.0595507 -1.49281 0
M  V30 7314 H 707.443 2.69816 -3.23693 0
M  V30 7315 H 706.118 2.49874 -2.05779 0
M  V30 7316 H 705.025 0.815924 -3.65094 0
M  V30 7317 H 706.358 1.09271 -4.79917 0
M  V30 7318 N 708.01 1.57248 0.105221 0
M  V30 7319 C 709.287 1.76566 0.841647 0
M  V30 7320 C 709.667 0.747566 1.9742 0
M  V30 7321 O 709.015 -0.225886 2.27381 0
M  V30 7322 C 709.225 3.22016 1.3456 0
M  V30 7323 C 710.573 3.84911 1.79244 0
M  V30 7324 O 711.597 3.25703 1.44207 0
M  V30 7325 O 710.456 4.89008 2.43995 0
M  V30 7326 H 707.55 0.723443 0.400698 0
M  V30 7327 H 710.096 1.69472 0.0878893 0
M  V30 7328 H 708.868 3.87644 0.533685 0
M  V30 7329 H 708.491 3.33703 2.16167 0
M  V30 7330 N 709.488 -0.375779 1.53054 0
M  V30 7331 C 710.435 -1.45978 1.78771 0
M  V30 7332 C 711.405 -1.53625 0.631552 0
M  V30 7333 O 712.59 -1.69674 0.872667 0
M  V30 7334 C 709.73 -2.8305 1.97425 0
M  V30 7335 C 708.843 -2.84451 3.25134 0
M  V30 7336 C 707.978 -4.13034 3.34031 0
M  V30 7337 C 707.017 -4.08536 4.55812 0
M  V30 7338 N 706.154 -5.2875 4.61918 0
M  V30 7339 H 710.994 -1.23349 2.71273 0
M  V30 7340 H 708.531 -0.598147 1.3439 0
M  V30 7341 H 710.489 -3.62666 2.06225 0
M  V30 7342 H 709.119 -3.04101 1.0827 0
M  V30 7343 H 708.171 -1.97127 3.25338 0
M  V30 7344 H 709.483 -2.76998 4.14818 0
M  V30 7345 H 708.637 -5.0106 3.42087 0
M  V30 7346 H 707.376 -4.23226 2.42345 0
M  V30 7347 H 706.381 -3.18897 4.47867 0
M  V30 7348 H 707.606 -3.99955 5.48828 0
M  V30 7349 H 705.552 -5.39547 3.73129 0
M  V30 7350 H 705.469 -5.23426 5.45492 0
M  V30 7351 H 706.737 -6.18637 4.74245 0
M  V30 7352 N 710.966 -1.44241 -0.634997 0
M  V30 7353 C 711.898 -1.46793 -1.76024 0
M  V30 7354 C 712.911 -0.361781 -1.58729 0
M  V30 7355 O 714.1 -0.627297 -1.67114 0
M  V30 7356 C 711.2 -1.28248 -3.13697 0
M  V30 7357 C 710.373 -2.52038 -3.57485 0
M  V30 7358 C 709.432 -2.2845 -4.74022 0
M  V30 7359 O 708.458 -3.01915 -4.82531 0
M  V30 7360 N 709.66 -1.31264 -5.65464 0
M  V30 7361 H 712.425 -2.43797 -1.74307 0
M  V30 7362 H 709.986 -1.39631 -0.819438 0
M  V30 7363 H 711.978 -1.10321 -3.89373 0
M  V30 7364 H 710.548 -0.39623 -3.10079 0
M  V30 7365 H 709.768 -2.85268 -2.72059 0
M  V30 7366 H 711.056 -3.34382 -3.83492 0
M  V30 7367 H 710.454 -0.705817 -5.6128 0
M  V30 7368 H 709.011 -1.19316 -6.40786 0
M  V30 7369 N 712.444 0.87505 -1.31075 0
M  V30 7370 C 713.672 1.66058 -1.23419 0
M  V30 7371 C 714.087 1.87723 0.201347 0
M  V30 7372 O 713.444 1.43178 1.13165 0
M  V30 7373 C 713.495 3.03142 -1.96945 0
M  V30 7374 O 713.216 2.82448 -3.34895 0
M  V30 7375 C 714.717 3.97583 -1.96067 0
M  V30 7376 H 711.937 0.517868 -0.426677 0
M  V30 7377 H 714.481 1.09258 -1.72867 0
M  V30 7378 H 712.636 3.56645 -1.51271 0
M  V30 7379 H 713.05 3.69483 -3.72267 0
M  V30 7380 H 714.524 4.91104 -2.52034 0
M  V30 7381 H 715.001 4.2898 -0.941961 0
M  V30 7382 H 715.607 3.50015 -2.41597 0
M  V30 7383 N 713.922 1.13953 1.08869 0
M  V30 7384 C 714.854 0.779906 2.15523 0
M  V30 7385 C 715.867 -0.20102 1.61554 0
M  V30 7386 O 717.056 0.0200049 1.78489 0
M  V30 7387 C 714.156 0.136226 3.38626 0
M  V30 7388 C 713.329 1.15069 4.21993 0
M  V30 7389 C 712.388 0.531645 5.23507 0
M  V30 7390 O 711.414 1.19327 5.56552 0
M  V30 7391 N 712.616 -0.693734 5.7634 0
M  V30 7392 H 715.381 1.69769 2.46979 0
M  V30 7393 H 712.942 1.03331 1.24637 0
M  V30 7394 H 714.934 -0.290295 4.03658 0
M  V30 7395 H 713.504 -0.684603 3.05011 0
M  V30 7396 H 712.724 1.75431 3.53012 0
M  V30 7397 H 714.012 1.83614 4.74514 0
M  V30 7398 H 713.41 -1.24994 5.51718 0
M  V30 7399 H 711.967 -1.06283 6.43076 0
M  V30 7400 N 715.4 -1.26948 0.933913 0
M  V30 7401 C 716.31 -2.30366 0.443671 0
M  V30 7402 C 717.326 -1.67284 -0.478745 0
M  V30 7403 O 718.502 -1.98156 -0.360043 0
M  V30 7404 C 715.567 -3.45485 -0.289974 0
M  V30 7405 C 714.628 -4.24069 0.668114 0
M  V30 7406 C 713.861 -5.33691 -0.0306138 0
M  V30 7407 O 714.084 -5.5656 -1.24888 0
M  V30 7408 O 713.018 -5.98441 0.644384 0
M  V30 7409 H 716.844 -2.74349 1.30254 0
M  V30 7410 H 714.429 -1.32012 0.699506 0
M  V30 7411 H 716.311 -4.15486 -0.70353 0
M  V30 7412 H 714.986 -3.03546 -1.12435 0
M  V30 7413 H 713.893 -3.56579 1.13147 0
M  V30 7414 H 715.226 -4.69739 1.46989 0
M  V30 7415 N 716.879 -0.700114 -1.41195 0
M  V30 7416 C 718.104 -0.240704 -2.05998 0
M  V30 7417 C 718.529 1.10313 -1.52357 0
M  V30 7418 O 717.887 1.69154 -0.652424 0
M  V30 7419 C 717.935 -0.213783 -3.59966 0
M  V30 7420 O 717.039 0.809933 -4.04368 0
M  V30 7421 H 716.38 -0.116471 -0.653705 0
M  V30 7422 H 718.91 -0.956251 -1.80878 0
M  V30 7423 H 718.92 -0.0461852 -4.07974 0
M  V30 7424 H 717.595 -1.19454 -3.98376 0
M  V30 7425 H 716.172 0.611319 -3.67855 0
M  V30 7426 N 718.357 1.51182 -0.445186 0
M  V30 7427 C 719.603 2.02452 0.11882 0
M  V30 7428 C 719.936 1.32824 1.41673 0
M  V30 7429 O 719.211 0.445637 1.89326 0
M  V30 7430 C 719.494 3.5859 0.329475 0
M  V30 7431 C 719.347 4.38823 -0.987638 0
M  V30 7432 C 720.666 4.26241 1.09575 0
M  V30 7433 H 717.785 0.735819 0.0417092 0
M  V30 7434 H 720.427 1.80747 -0.585718 0
M  V30 7435 H 718.577 3.77214 0.9296 0
M  V30 7436 H 720.249 4.3183 -1.62235 0
M  V30 7437 H 718.492 4.03594 -1.59041 0
M  V30 7438 H 719.163 5.46257 -0.794192 0
M  V30 7439 H 721.639 4.11934 0.587328 0
M  V30 7440 H 720.515 5.35354 1.21191 0
M  V30 7441 H 720.776 3.87635 2.12584 0
M  V30 7442 N 719.835 0.176821 1.56605 0
M  V30 7443 C 721.063 -0.472828 2.01425 0
M  V30 7444 C 721.478 -1.56436 1.05703 0
M  V30 7445 O 720.835 -1.82405 0.058808 0
M  V30 7446 C 720.886 -1.04607 3.46034 0
M  V30 7447 O 720.607 0.00189608 4.381 0
M  V30 7448 C 722.108 -1.7734 4.06282 0
M  V30 7449 H 719.328 -0.120503 0.660091 0
M  V30 7450 H 721.872 0.280166 2.02572 0
M  V30 7451 H 720.027 -1.74953 3.45645 0
M  V30 7452 H 720.441 -0.422118 5.22799 0
M  V30 7453 H 721.915 -2.12703 5.09374 0
M  V30 7454 H 722.392 -2.67043 3.4869 0
M  V30 7455 H 722.998 -1.11623 4.10391 0
M  V30 7456 N 721.313 -1.57302 -0.09688 0
M  V30 7457 C 722.245 -1.98618 -1.14384 0
M  V30 7458 C 723.258 -0.888483 -1.36418 0
M  V30 7459 O 724.447 -1.16661 -1.35101 0
M  V30 7460 C 721.547 -2.28838 -2.49973 0
M  V30 7461 C 720.72 -3.60132 -2.48241 0
M  V30 7462 C 719.779 -3.7831 -3.65743 0
M  V30 7463 O 718.805 -4.50183 -3.48316 0
M  V30 7464 N 720.007 -3.18752 -4.85157 0
M  V30 7465 H 722.772 -2.8904 -0.792202 0
M  V30 7466 H 720.333 -1.59356 -0.285883 0
M  V30 7467 H 722.325 -2.38193 -3.27179 0
M  V30 7468 H 720.895 -1.44431 -2.77233 0
M  V30 7469 H 720.115 -3.61763 -1.56593 0
M  V30 7470 H 721.403 -4.46389 -2.4416 0
M  V30 7471 H 720.801 -2.60368 -5.0222 0
M  V30 7472 H 719.358 -3.33595 -5.59962 0
M  V30 7473 N 722.791 0.367657 -1.53252 0
M  V30 7474 C 724.04 1.10782 -1.68554 0
M  V30 7475 C 724.353 1.90523 -0.442765 0
M  V30 7476 O 725.559 2.6729 -0.47629 0
M  V30 7477 C 724.015 2.01863 -2.97959 0
M  V30 7478 C 723.623 1.27443 -4.29491 0
M  V30 7479 C 725.367 2.75883 -3.22628 0
M  V30 7480 C 723.274 2.17414 -5.49987 0
M  V30 7481 H 722.204 0.417272 -0.628013 0
M  V30 7482 H 724.855 0.368971 -1.79752 0
M  V30 7483 H 723.237 2.7947 -2.80558 0
M  V30 7484 H 724.411 0.549138 -4.57516 0
M  V30 7485 H 722.726 0.652935 -4.11249 0
M  V30 7486 H 725.323 3.43421 -4.09837 0
M  V30 7487 H 725.666 3.41138 -2.38601 0
M  V30 7488 H 726.199 2.0536 -3.40693 0
M  V30 7489 H 722.938 1.5674 -6.36485 0
M  V30 7490 H 722.458 2.87799 -5.26243 0
M  V30 7491 H 724.137 2.77019 -5.84696 0
M  V30 7492 N 724.269 1.44576 0.627338 0
M  V30 7493 C 725.179 1.54232 1.76776 0
M  V30 7494 C 726.195 0.427782 1.6866 0
M  V30 7495 O 727.371 0.685671 1.89369 0
M  V30 7496 C 724.436 1.48738 3.13174 0
M  V30 7497 C 723.497 2.71074 3.32893 0
M  V30 7498 C 722.73 2.65832 4.62784 0
M  V30 7499 O 722.953 1.72048 5.43834 0
M  V30 7500 O 721.887 3.56742 4.84787 0
M  V30 7501 H 725.713 2.50586 1.71582 0
M  V30 7502 H 723.298 1.26865 0.789028 0
M  V30 7503 H 725.18 1.48211 3.94476 0
M  V30 7504 H 723.855 0.555292 3.18902 0
M  V30 7505 H 722.762 2.77168 2.51254 0
M  V30 7506 H 724.095 3.63342 3.32029 0
M  V30 7507 N 725.747 -0.868086 1.31537 0
M  V30 7508 C 726.679 -1.98165 1.15166 0
M  V30 7509 C 727.692 -1.6255 0.0902335 0
M  V30 7510 O 728.881 -1.75272 0.33791 0
M  V30 7511 C 725.981 -3.30772 0.737776 0
M  V30 7512 C 725.154 -3.94716 1.88462 0
M  V30 7513 C 724.213 -5.05641 1.45648 0
M  V30 7514 O 723.239 -5.2636 2.16642 0
M  V30 7515 N 724.441 -5.79474 0.34493 0
M  V30 7516 H 727.206 -2.12754 2.11083 0
M  V30 7517 H 724.767 -1.04217 1.23897 0
M  V30 7518 H 726.759 -4.02366 0.434032 0
M  V30 7519 H 725.329 -3.1233 -0.129834 0
M  V30 7520 H 724.549 -3.16079 2.35558 0
M  V30 7521 H 725.837 -4.34175 2.65273 0
M  V30 7522 H 725.235 -5.65164 -0.246259 0
M  V30 7523 H 723.792 -6.51722 0.100728 0
M  V30 7524 N 727.225 -1.14528 -1.08264 0
M  V30 7525 C 728.474 -0.908992 -1.80056 0
M  V30 7526 C 728.787 0.565859 -1.87236 0
M  V30 7527 O 729.993 0.919454 -2.55457 0
M  V30 7528 C 728.449 -1.57681 -3.23519 0
M  V30 7529 C 728.057 -3.08803 -3.24569 0
M  V30 7530 C 729.801 -1.4217 -3.99985 0
M  V30 7531 C 727.708 -3.68414 -4.62629 0
M  V30 7532 H 726.638 -0.336432 -0.674781 0
M  V30 7533 H 729.289 -1.37437 -1.21587 0
M  V30 7534 H 727.671 -1.03911 -3.82124 0
M  V30 7535 H 728.845 -3.69252 -2.75663 0
M  V30 7536 H 727.16 -3.23968 -2.61598 0
M  V30 7537 H 729.757 -1.84106 -5.02005 0
M  V30 7538 H 730.1 -0.367989 -4.1467 0
M  V30 7539 H 730.633 -1.92984 -3.47853 0
M  V30 7540 H 727.372 -4.73644 -4.53147 0
M  V30 7541 H 726.892 -3.12746 -5.11811 0
M  V30 7542 H 728.571 -3.68793 -5.31602 0
M  V30 7543 N 728.703 1.26451 -0.940633 0
M  V30 7544 C 729.613 2.30128 -0.455881 0
M  V30 7545 C 730.629 1.67536 0.469867 0
M  V30 7546 O 731.805 1.98344 0.349529 0
M  V30 7547 C 728.87 3.45634 0.271648 0
M  V30 7548 C 727.931 4.23709 -0.690594 0
M  V30 7549 C 727.164 5.337 0.00231047 0
M  V30 7550 O 727.387 5.57215 1.21935 0
M  V30 7551 O 726.321 5.98091 -0.676111 0
M  V30 7552 H 730.147 2.73655 -1.31707 0
M  V30 7553 H 727.732 1.3164 -0.706497 0
M  V30 7554 H 729.614 4.15853 0.681486 0
M  V30 7555 H 728.289 3.04138 1.10824 0
M  V30 7556 H 727.196 3.55974 -1.15037 0
M  V30 7557 H 728.529 4.68953 -1.49478 0
M  V30 7558 N 730.181 0.707592 1.40822 0
M  V30 7559 C 731.427 0.244031 2.01326 0
M  V30 7560 C 731.76 -1.15722 1.55955 0
M  V30 7561 O 731.035 -1.78347 0.776044 0
M  V30 7562 C 731.318 0.315128 3.58718 0
M  V30 7563 C 731.171 1.75419 4.14184 0
M  V30 7564 C 732.49 -0.318251 4.38948 0
M  V30 7565 H 729.609 0.0901471 0.731466 0
M  V30 7566 H 732.251 0.898584 1.67408 0
M  V30 7567 H 730.401 -0.242176 3.87744 0
M  V30 7568 H 732.073 2.36626 3.95987 0
M  V30 7569 H 730.316 2.28449 3.68773 0
M  V30 7570 H 730.987 1.75538 5.23345 0
M  V30 7571 H 733.463 0.156514 4.15806 0
M  V30 7572 H 732.339 -0.238019 5.48384 0
M  V30 7573 H 732.6 -1.40067 4.19325 0
M  V30 7574 N 731.66 -1.50943 0.453197 0
M  V30 7575 C 732.908 -2.01813 -0.107709 0
M  V30 7576 C 733.229 -1.33841 -1.41816 0
M  V30 7577 O 732.499 -0.477973 -1.8998 0
M  V30 7578 H 731.079 -0.745773 -0.0427948 0
M  V30 7579 H 733.741 -1.8545 0.599531 0
M  V30 7580 H 732.837 -3.10911 -0.27218 0
M  V30 7581 N 733.138 -0.185124 -1.56509 0
M  V30 7582 C 734.549 0.329221 -1.83774 0
M  V30 7583 C 734.9 1.62093 -1.10545 0
M  V30 7584 O 734.025 2.13334 -0.36298 0
M  V30 7585 C 734.62 0.604099 -3.33371 0
M  V30 7586 C 733.179 1.06284 -3.61083 0
M  V30 7587 C 732.326 0.10608 -2.77097 0
M  V30 7588 H 735.277 -0.409116 -1.53336 0
M  V30 7589 H 735.298 1.45458 -3.51599 0
M  V30 7590 H 734.81 -0.336201 -3.86641 0
M  V30 7591 H 732.911 2.01777 -3.13236 0
M  V30 7592 H 733.024 0.962453 -4.69333 0
M  V30 7593 H 731.388 0.606082 -2.47384 0
M  V30 7594 H 732.171 -0.828486 -3.33153 0
M  V30 7595 N 734.616 1.57351 0.0885366 0
M  V30 7596 C 735.546 2.05561 1.10757 0
M  V30 7597 C 736.527 0.945789 1.41382 0
M  V30 7598 O 737.712 1.21747 1.51299 0
M  V30 7599 C 734.842 2.48554 2.42566 0
M  V30 7600 C 733.796 3.63259 2.26334 0
M  V30 7601 C 733.122 3.9225 3.63378 0
M  V30 7602 C 734.422 4.93913 1.69844 0
M  V30 7603 H 736.116 2.90946 0.706468 0
M  V30 7604 H 733.662 1.39968 0.338385 0
M  V30 7605 H 735.615 2.8089 3.14132 0
M  V30 7606 H 734.339 1.60176 2.84625 0
M  V30 7607 H 732.998 3.31179 1.57213 0
M  V30 7608 H 732.646 3.0103 4.02976 0
M  V30 7609 H 732.346 4.69478 3.53362 0
M  V30 7610 H 733.87 4.27067 4.36401 0
M  V30 7611 H 735.284 5.24588 2.31258 0
M  V30 7612 H 733.681 5.75349 1.70569 0
M  V30 7613 H 734.751 4.80409 0.65843 0
M  V30 7614 N 736.094 -0.359525 1.53444 0
M  V30 7615 C 737.34 -1.10315 1.70172 0
M  V30 7616 C 737.673 -1.88788 0.455287 0
M  V30 7617 O 736.948 -1.86635 -0.547514 0
M  V30 7618 C 737.231 -2.05744 2.95536 0
M  V30 7619 C 737.084 -1.3084 4.3035 0
M  V30 7620 C 738.403 -3.05784 3.16518 0
M  V30 7621 H 735.522 -0.399662 0.619225 0
M  V30 7622 H 738.164 -0.383338 1.86093 0
M  V30 7623 H 736.314 -2.67125 2.82093 0
M  V30 7624 H 737.986 -0.721959 4.55615 0
M  V30 7625 H 736.229 -0.610283 4.29486 0
M  V30 7626 H 736.9 -2.00718 5.14214 0
M  V30 7627 H 739.376 -2.5451 3.29187 0
M  V30 7628 H 738.252 -3.69772 4.05659 0
M  V30 7629 H 738.513 -3.76289 2.32076 0
M  V30 7630 N 737.572 -1.44907 -0.619662 0
M  V30 7631 C 738.8 -1.51795 -1.40591 0
M  V30 7632 C 739.215 -0.146553 -1.8823 0
M  V30 7633 O 738.572 0.849698 -1.61513 0
M  V30 7634 C 738.623 -2.49229 -2.61853 0
M  V30 7635 O 738.344 -3.81039 -2.16197 0
M  V30 7636 C 739.845 -2.65696 -3.54853 0
M  V30 7637 H 737.065 -0.514463 -0.430777 0
M  V30 7638 H 739.609 -1.8998 -0.756813 0
M  V30 7639 H 737.764 -2.14149 -3.2283 0
M  V30 7640 H 738.178 -4.33747 -2.94896 0
M  V30 7641 H 739.652 -3.37874 -4.36515 0
M  V30 7642 H 740.129 -1.71316 -4.0441 0
M  V30 7643 H 740.735 -3.01724 -2.99737 0
M  V30 7644 N 739.05 0.861098 -1.31996 0
M  V30 7645 C 740.275 1.65264 -1.2531 0
M  V30 7646 C 740.7 1.87265 0.177007 0
M  V30 7647 O 740.058 1.4208 1.12619 0
M  V30 7648 C 740.106 2.99284 -2.0115 0
M  V30 7649 O 739.21 3.89508 -1.3549 0
M  V30 7650 H 738.551 0.50409 -0.432192 0
M  V30 7651 H 741.081 1.07297 -1.74208 0
M  V30 7652 H 741.091 3.49154 -2.11081 0
M  V30 7653 H 739.766 2.82591 -3.05148 0
M  V30 7654 H 738.343 3.47966 -1.34066 0
M  V30 7655 N 740.528 1.15101 1.07655 0
M  V30 7656 C 741.461 0.788522 2.14144 0
M  V30 7657 C 742.439 -0.233635 1.60913 0
M  V30 7658 O 743.623 -0.120908 1.88112 0
M  V30 7659 C 740.75 0.172033 3.38263 0
M  V30 7660 C 739.796 1.16559 4.10264 0
M  V30 7661 S 740.629 2.70627 4.62084 0
M  V30 7662 C 741.785 2.10389 5.8948 0
M  V30 7663 H 742.018 1.69047 2.44561 0
M  V30 7664 H 739.551 0.973033 1.19881 0
M  V30 7665 H 741.509 -0.177223 4.10117 0
M  V30 7666 H 740.17 -0.707468 3.06029 0
M  V30 7667 H 739.363 0.6824 4.99359 0
M  V30 7668 H 738.965 1.45923 3.44358 0
M  V30 7669 H 741.257 1.46405 6.61492 0
M  V30 7670 H 742.2 2.97639 6.42508 0
M  V30 7671 H 742.608 1.54816 5.42856 0
M  V30 7672 N 742.006 -1.2595 0.947325 0
M  V30 7673 C 742.916 -2.29883 0.468079 0
M  V30 7674 C 743.932 -1.67783 -0.460975 0
M  V30 7675 O 745.108 -1.98526 -0.339006 0
M  V30 7676 C 742.173 -3.45773 -0.253315 0
M  V30 7677 C 741.234 -4.23337 0.713054 0
M  V30 7678 C 740.467 -5.33694 0.025993 0
M  V30 7679 O 740.69 -5.57853 -1.18978 0
M  V30 7680 O 739.624 -5.97724 0.70782 0
M  V30 7681 H 743.45 -2.72952 1.33156 0
M  V30 7682 H 741.035 -1.31263 0.713468 0
M  V30 7683 H 742.917 -4.16209 -0.659423 0
M  V30 7684 H 741.592 -3.04721 -1.09209 0
M  V30 7685 H 740.499 -3.55359 1.16923 0
M  V30 7686 H 741.832 -4.68154 1.51963 0
M  V30 7687 N 743.484 -0.715051 -1.40445 0
M  V30 7688 C 744.733 -0.251322 -2.00128 0
M  V30 7689 C 745.046 1.16194 -1.57347 0
M  V30 7690 O 746.252 1.72416 -2.09726 0
M  V30 7691 C 744.708 -0.398407 -3.57688 0
M  V30 7692 C 744.316 -1.81828 -4.09442 0
M  V30 7693 C 746.06 0.00455625 -4.245 0
M  V30 7694 C 743.967 -1.91598 -5.59503 0
M  V30 7695 H 742.897 -0.0902081 -0.748584 0
M  V30 7696 H 745.548 -0.886062 -1.6069 0
M  V30 7697 H 743.93 0.304908 -3.94824 0
M  V30 7698 H 745.104 -2.55193 -3.83684 0
M  V30 7699 H 743.419 -2.17266 -3.55225 0
M  V30 7700 H 746.016 -0.0477303 -5.34679 0
M  V30 7701 H 746.359 1.04636 -4.02935 0
M  V30 7702 H 746.892 -0.649184 -3.92467 0
M  V30 7703 H 743.631 -2.93898 -5.85922 0
M  V30 7704 H 743.151 -1.22644 -5.87127 0
M  V30 7705 H 744.83 -1.68785 -6.24596 0
M  V30 7706 N 744.962 1.50701 -0.461195 0
M  V30 7707 C 745.892 2.31182 0.328184 0
M  V30 7708 C 746.873 1.37644 0.999408 0
M  V30 7709 O 748.058 1.66565 0.99848 0
M  V30 7710 C 745.188 3.17113 1.41621 0
M  V30 7711 C 744.142 4.19124 0.867148 0
M  V30 7712 C 743.468 4.93728 2.05272 0
M  V30 7713 C 744.768 5.22174 -0.114808 0
M  V30 7714 H 746.462 2.97423 -0.343501 0
M  V30 7715 H 744.008 1.43033 -0.166641 0
M  V30 7716 H 745.961 3.72208 1.97584 0
M  V30 7717 H 744.685 2.48739 2.11652 0
M  V30 7718 H 743.344 3.65116 0.329557 0
M  V30 7719 H 742.992 4.21835 2.73978 0
M  V30 7720 H 742.692 5.62724 1.69161 0
M  V30 7721 H 744.216 5.51654 2.61744 0
M  V30 7722 H 745.63 5.72198 0.355316 0
M  V30 7723 H 744.027 5.98833 -0.389689 0
M  V30 7724 H 745.097 4.7353 -1.04391 0
M  V30 7725 N 746.441 0.193421 1.56409 0
M  V30 7726 C 747.388 -0.728124 2.19014 0
M  V30 7727 C 748.358 -1.21098 1.13686 0
M  V30 7728 O 749.543 -1.27517 1.4193 0
M  V30 7729 C 746.683 -1.94277 2.8522 0
M  V30 7730 C 745.796 -1.50143 4.05069 0
M  V30 7731 C 744.931 -2.67145 4.59137 0
M  V30 7732 C 743.97 -2.19609 5.71348 0
M  V30 7733 N 743.107 -3.29782 6.19829 0
M  V30 7734 H 747.947 -0.187499 2.9741 0
M  V30 7735 H 745.484 -0.0808064 1.46878 0
M  V30 7736 H 747.442 -2.65551 3.21774 0
M  V30 7737 H 746.072 -2.45673 2.09391 0
M  V30 7738 H 745.124 -0.684624 3.74189 0
M  V30 7739 H 746.436 -1.11266 4.86232 0
M  V30 7740 H 745.59 -3.46544 4.97988 0
M  V30 7741 H 744.329 -3.09295 3.77078 0
M  V30 7742 H 743.334 -1.38664 5.32027 0
M  V30 7743 H 744.559 -1.78492 6.55223 0
M  V30 7744 H 742.505 -3.71466 5.40693 0
M  V30 7745 H 742.422 -2.95069 6.96039 0
M  V30 7746 H 743.69 -4.094 6.63334 0
M  V30 7747 N 747.919 -1.57396 -0.0801906 0
M  V30 7748 C 748.869 -1.9955 -1.10289 0
M  V30 7749 C 749.853 -0.876234 -1.34948 0
M  V30 7750 O 751.045 -1.14012 -1.35389 0
M  V30 7751 C 748.174 -2.43596 -2.419 0
M  V30 7752 C 747.26 -3.6224 -2.20551 0
M  V30 7753 N 747.651 -4.76693 -1.69109 0
M  V30 7754 C 745.949 -3.68627 -2.51059 0
M  V30 7755 C 746.65 -5.58577 -1.62379 0
M  V30 7756 N 745.626 -5.02178 -2.0813 0
M  V30 7757 H 749.428 -2.85483 -0.698335 0
M  V30 7758 H 746.942 -1.59837 -0.287395 0
M  V30 7759 H 748.939 -2.72031 -3.15919 0
M  V30 7760 H 747.599 -1.59047 -2.8308 0
M  V30 7761 H 748.61 -4.9915 -1.38092 0
M  V30 7762 H 745.287 -2.94772 -2.95661 0
M  V30 7763 H 746.677 -6.60447 -1.2353 0
M  V30 7764 N 749.397 0.351382 -1.53633 0
M  V30 7765 C 750.646 1.08988 -1.69719 0
M  V30 7766 C 750.959 1.90043 -0.462948 0
M  V30 7767 O 752.165 2.66769 -0.504613 0
M  V30 7768 C 750.621 1.98691 -3.00083 0
M  V30 7769 C 750.229 1.22881 -4.30818 0
M  V30 7770 C 751.973 2.72446 -3.25536 0
M  V30 7771 C 749.88 2.11568 -5.52262 0
M  V30 7772 H 748.81 0.410588 -0.632403 0
M  V30 7773 H 751.461 0.349886 -1.80133 0
M  V30 7774 H 749.843 2.76478 -2.83506 0
M  V30 7775 H 751.017 0.500582 -4.58073 0
M  V30 7776 H 749.332 0.60928 -4.11918 0
M  V30 7777 H 751.929 3.39055 -4.13456 0
M  V30 7778 H 752.272 3.38588 -2.42206 0
M  V30 7779 H 752.805 2.01735 -3.42852 0
M  V30 7780 H 749.544 1.4998 -6.38111 0
M  V30 7781 H 749.064 2.82201 -5.29266 0
M  V30 7782 H 750.743 2.70802 -5.87601 0
M  V30 7783 N 750.875 1.45233 0.611969 0
M  V30 7784 C 752.286 1.4354 1.19387 0
M  V30 7785 C 752.637 0.160713 1.95541 0
M  V30 7786 O 751.762 -0.737954 2.03429 0
M  V30 7787 C 752.357 2.60045 2.17169 0
M  V30 7788 C 750.916 2.61486 2.70744 0
M  V30 7789 C 750.063 2.35708 1.46072 0
M  V30 7790 H 753.014 1.53536 0.401529 0
M  V30 7791 H 753.035 2.33893 3.00124 0
M  V30 7792 H 752.547 3.52803 1.61714 0
M  V30 7793 H 750.648 1.72721 3.30149 0
M  V30 7794 H 750.761 3.60572 3.15476 0
M  V30 7795 H 749.125 1.85178 1.74875 0
M  V30 7796 H 749.908 3.30606 0.924922 0
M  V30 7797 N 752.353 -0.854086 1.3245 0
M  V30 7798 C 753.578 -1.64597 1.26185 0
M  V30 7799 C 754.003 -1.87357 -0.167074 0
M  V30 7800 O 753.361 -1.42675 -1.11864 0
M  V30 7801 C 753.409 -2.98213 2.02734 0
M  V30 7802 O 752.513 -3.88784 1.37554 0
M  V30 7803 H 751.854 -0.50179 0.434859 0
M  V30 7804 H 754.384 -1.06372 1.74775 0
M  V30 7805 H 754.394 -3.4803 2.1293 0
M  V30 7806 H 753.069 -2.80969 3.06642 0
M  V30 7807 H 751.646 -3.4725 1.3591 0
M  V30 7808 N 753.831 -1.1567 -1.07043 0
M  V30 7809 C 754.778 -0.856336 -2.14326 0
M  V30 7810 C 755.748 0.192051 -1.64986 0
M  V30 7811 O 756.933 0.0589148 -1.90709 0
M  V30 7812 C 754.073 -0.355227 -3.43267 0
M  V30 7813 C 753.186 -1.46555 -4.06381 0
M  V30 7814 C 752.321 -0.920245 -5.23168 0
M  V30 7815 C 751.36 -2.00729 -5.78251 0
M  V30 7816 N 750.497 -1.47813 -6.86364 0
M  V30 7817 H 755.337 -1.77514 -2.39359 0
M  V30 7818 H 752.874 -0.885676 -1.17449 0
M  V30 7819 H 754.832 -0.0463804 -4.17174 0
M  V30 7820 H 753.462 0.526649 -3.18475 0
M  V30 7821 H 752.514 -1.89052 -3.30096 0
M  V30 7822 H 753.826 -2.28616 -4.43324 0
M  V30 7823 H 752.98 -0.564127 -6.04072 0
M  V30 7824 H 751.719 -0.0688477 -4.87651 0
M  V30 7825 H 750.724 -2.3722 -4.95991 0
M  V30 7826 H 751.949 -2.86252 -6.15822 0
M  V30 7827 H 749.895 -0.649145 -6.5278 0
M  V30 7828 H 749.812 -2.23498 -7.22208 0
M  V30 7829 H 751.08 -1.15036 -7.70965 0
M  V30 7830 N 755.309 1.25446 -0.953992 0
M  V30 7831 C 756.219 2.29632 -0.480264 0
M  V30 7832 C 757.235 1.68025 0.452071 0
M  V30 7833 O 758.411 1.98703 0.328472 0
M  V30 7834 C 755.476 3.45903 0.234974 0
M  V30 7835 C 754.537 4.22953 -0.735495 0
M  V30 7836 C 753.77 5.33672 -0.0542957 0
M  V30 7837 O 753.993 5.58477 1.16018 0
M  V30 7838 O 752.927 5.9734 -0.739509 0
M  V30 7839 H 756.753 2.72242 -1.34602 0
M  V30 7840 H 754.338 1.30883 -0.720419 0
M  V30 7841 H 756.22 4.16552 0.637341 0
M  V30 7842 H 754.895 3.05296 1.07592 0
M  V30 7843 H 753.802 3.54734 -1.18806 0
M  V30 7844 H 755.135 4.67341 -1.54444 0
M  V30 7845 N 756.787 0.722489 1.40064 0
M  V30 7846 C 758.034 0.264979 2.00759 0
M  V30 7847 C 758.362 -1.14395 1.57302 0
M  V30 7848 O 757.617 -1.79165 0.787298 0
M  V30 7849 C 757.916 0.300682 3.56133 0
M  V30 7850 C 757.582 1.66087 4.19197 0
M  V30 7851 C 756.244 2.03319 4.36136 0
M  V30 7852 C 758.596 2.55452 4.54306 0
M  V30 7853 C 755.924 3.29448 4.8547 0
M  V30 7854 C 758.276 3.8094 5.05042 0
M  V30 7855 C 756.94 4.1828 5.2019 0
M  V30 7856 H 756.21 0.0969625 0.734629 0
M  V30 7857 H 758.857 0.926877 1.67575 0
M  V30 7858 H 757.162 -0.44479 3.89267 0
M  V30 7859 H 758.859 -0.0712542 4.00937 0
M  V30 7860 H 755.449 1.36137 4.06405 0
M  V30 7861 H 759.633 2.27961 4.40849 0
M  V30 7862 H 754.889 3.58338 4.95382 0
M  V30 7863 H 759.063 4.50351 5.31184 0
M  V30 7864 H 756.69 5.16081 5.58179 0
M  V30 7865 N 758.265 -1.50454 0.469181 0
M  V30 7866 C 759.676 -1.86695 0.0136034 0
M  V30 7867 C 760.027 -1.38413 -1.39055 0
M  V30 7868 O 759.152 -0.748294 -2.03051 0
M  V30 7869 C 759.747 -3.38795 0.0179098 0
M  V30 7870 C 758.306 -3.74455 -0.382191 0
M  V30 7871 C 757.453 -2.74338 0.404207 0
M  V30 7872 H 760.404 -1.43225 0.683547 0
M  V30 7873 H 760.425 -3.72321 -0.78468 0
M  V30 7874 H 759.937 -3.73906 1.04 0
M  V30 7875 H 758.038 -3.44944 -1.4087 0
M  V30 7876 H 758.151 -4.79025 -0.084862 0
M  V30 7877 H 756.515 -2.54305 -0.141829 0
M  V30 7878 H 757.298 -3.12293 1.42577 0
M  V30 7879 N 759.743 -0.201713 -1.56304 0
M  V30 7880 C 760.989 0.435952 -1.98059 0
M  V30 7881 C 761.322 1.60811 -1.08873 0
M  V30 7882 O 760.597 1.9398 -0.142128 0
M  V30 7883 C 760.88 0.889706 -3.48936 0
M  V30 7884 C 760.733 -0.284725 -4.48898 0
M  V30 7885 C 762.052 1.7529 -4.03685 0
M  V30 7886 H 759.171 0.15699 -0.720085 0
M  V30 7887 H 761.813 -0.293965 -1.87712 0
M  V30 7888 H 759.963 1.51166 -3.57884 0
M  V30 7889 H 761.635 -0.922531 -4.51981 0
M  V30 7890 H 759.878 -0.935427 -4.23594 0
M  V30 7891 H 760.549 0.0753865 -5.51949 0
M  V30 7892 H 763.025 1.2283 -3.97558 0
M  V30 7893 H 761.901 2.03933 -5.0961 0
M  V30 7894 H 762.162 2.70939 -3.49348 0
M  V30 7895 N 761.222 1.57436 0.0718424 0
M  V30 7896 C 762.45 1.91474 0.783932 0
M  V30 7897 C 762.865 0.797669 1.71122 0
M  V30 7898 O 762.222 -0.228989 1.81058 0
M  V30 7899 C 762.273 3.25259 1.57761 0
M  V30 7900 O 761.994 4.3267 0.687596 0
M  V30 7901 C 763.495 3.7331 2.3907 0
M  V30 7902 H 760.715 0.632901 0.222885 0
M  V30 7903 H 763.259 2.04457 0.0421262 0
M  V30 7904 H 761.414 3.13804 2.27169 0
M  V30 7905 H 761.828 5.09641 1.23962 0
M  V30 7906 H 763.302 4.69551 2.90216 0
M  V30 7907 H 763.779 3.02318 3.18591 0
M  V30 7908 H 764.385 3.8771 1.74818 0
M  V30 7909 N 762.7 -0.34323 1.53817 0
M  V30 7910 C 763.61 -1.44493 1.84821 0
M  V30 7911 C 764.626 -1.57556 0.738381 0
M  V30 7912 O 765.802 -1.73026 1.03072 0
M  V30 7913 C 762.867 -2.79478 2.05166 0
M  V30 7914 C 761.928 -2.75756 3.29025 0
M  V30 7915 C 761.161 -4.04302 3.4839 0
M  V30 7916 O 761.384 -5.01595 2.71586 0
M  V30 7917 O 760.318 -4.08754 4.41819 0
M  V30 7918 H 764.144 -1.21209 2.78464 0
M  V30 7919 H 761.729 -0.535437 1.39476 0
M  V30 7920 H 763.611 -3.59419 2.19991 0
M  V30 7921 H 762.286 -3.02692 1.14713 0
M  V30 7922 H 761.193 -1.94434 3.19603 0
M  V30 7923 H 762.526 -2.57495 4.19472 0
M  V30 7924 N 764.178 -1.45556 -0.604258 0
M  V30 7925 C 765.406 -1.53278 -1.38973 0
M  V30 7926 C 765.821 -0.166509 -1.88064 0
M  V30 7927 O 765.178 0.832519 -1.62405 0
M  V30 7928 C 765.229 -2.51992 -2.59195 0
M  V30 7929 O 764.95 -3.8331 -2.12143 0
M  V30 7930 C 766.451 -2.69445 -3.52015 0
M  V30 7931 H 763.671 -0.519003 -0.425297 0
M  V30 7932 H 766.215 -1.90773 -0.736621 0
M  V30 7933 H 764.37 -2.17561 -3.2054 0
M  V30 7934 H 764.784 -4.3685 -2.90279 0
M  V30 7935 H 766.258 -3.42485 -4.32907 0
M  V30 7936 H 766.735 -1.75596 -4.0257 0
M  V30 7937 H 767.341 -3.04886 -2.9652 0
M  V30 7938 N 765.656 0.84705 -1.32902 0
M  V30 7939 C 767.067 1.41785 -1.21466 0
M  V30 7940 C 767.418 1.95464 0.169767 0
M  V30 7941 O 766.543 1.88157 1.06892 0
M  V30 7942 C 767.138 2.57734 -2.19906 0
M  V30 7943 C 765.697 3.10791 -2.12334 0
M  V30 7944 C 764.844 1.83562 -2.07847 0
M  V30 7945 H 767.795 0.653532 -1.44619 0
M  V30 7946 H 767.816 3.35123 -1.80202 0
M  V30 7947 H 767.328 2.18635 -3.20656 0
M  V30 7948 H 765.429 3.54455 -1.14858 0
M  V30 7949 H 765.542 3.71519 -3.02506 0
M  V30 7950 H 763.906 2.03475 -1.53199 0
M  V30 7951 H 764.689 1.4667 -3.10392 0
M  V30 7952 N 767.134 1.16236 1.06428 0
M  V30 7953 C 768.064 0.890807 2.1584 0
M  V30 7954 C 769.045 -0.162333 1.69324 0
M  V30 7955 O 770.23 -0.0147191 1.94194 0
M  V30 7956 C 767.36 0.389615 3.45108 0
M  V30 7957 C 766.314 1.38051 4.05125 0
M  V30 7958 C 765.64 0.737773 5.29586 0
M  V30 7959 C 766.94 2.74965 4.44062 0
M  V30 7960 H 768.634 1.80577 2.38814 0
M  V30 7961 H 766.18 0.869657 1.14774 0
M  V30 7962 H 768.133 0.187127 4.20984 0
M  V30 7963 H 766.857 -0.560851 3.21748 0
M  V30 7964 H 765.516 1.56952 3.31303 0
M  V30 7965 H 765.164 -0.219135 5.02522 0
M  V30 7966 H 764.864 1.39914 5.70699 0
M  V30 7967 H 766.388 0.545275 6.0816 0
M  V30 7968 H 767.802 2.59855 5.11027 0
M  V30 7969 H 766.199 3.37563 4.96156 0
M  V30 7970 H 767.269 3.30321 3.54987 0
M  V30 7971 N 768.612 -1.24939 0.960631 0
M  V30 7972 C 769.858 -1.93104 0.61958 0
M  V30 7973 C 770.191 -1.74991 -0.84212 0
M  V30 7974 O 769.466 -1.09867 -1.60498 0
M  V30 7975 C 769.749 -3.46326 0.986422 0
M  V30 7976 C 769.602 -3.73638 2.50429 0
M  V30 7977 C 770.921 -4.37067 0.515827 0
M  V30 7978 H 768.04 -0.701311 0.226566 0
M  V30 7979 H 770.682 -1.47442 1.19836 0
M  V30 7980 H 768.832 -3.85348 0.493907 0
M  V30 7981 H 770.504 -3.44217 3.07103 0
M  V30 7982 H 768.747 -3.19035 2.93937 0
M  V30 7983 H 769.418 -4.80815 2.71147 0
M  V30 7984 H 771.894 -4.05381 0.938389 0
M  V30 7985 H 770.77 -5.43022 0.80114 0
M  V30 7986 H 771.031 -4.38224 -0.584171 0
M  V30 7987 N 770.09 -0.729906 -1.39679 0
M  V30 7988 C 771.318 -0.285709 -2.04918 0
M  V30 7989 C 771.733 1.07765 -1.55023 0
M  V30 7990 O 771.09 1.67999 -0.712923 0
M  V30 7991 C 771.141 -0.272793 -3.60469 0
M  V30 7992 O 770.862 -1.58233 -4.08527 0
M  V30 7993 C 772.363 0.188199 -4.429 0
M  V30 7994 H 769.583 -0.125758 -0.65911 0
M  V30 7995 H 772.127 -0.992129 -1.78821 0
M  V30 7996 H 770.282 0.384699 -3.85485 0
M  V30 7997 H 770.696 -1.49245 -5.02818 0
M  V30 7998 H 772.17 0.14608 -5.51807 0
M  V30 7999 H 772.647 1.2326 -4.21549 0
M  V30 8000 H 773.253 -0.439541 -4.23023 0
M  V30 8001 N 771.568 1.50203 -0.477153 0
M  V30 8002 C 772.531 2.27194 0.302599 0
M  V30 8003 C 773.531 1.32221 0.915112 0
M  V30 8004 O 774.721 1.55593 0.783348 0
M  V30 8005 C 771.853 3.0938 1.43167 0
M  V30 8006 H 773.046 2.97575 -0.372678 0
M  V30 8007 H 770.599 1.54578 -0.231392 0
M  V30 8008 H 771.334 2.43509 2.14182 0
M  V30 8009 H 771.119 3.79181 0.998197 0
M  V30 8010 H 772.609 3.67592 1.98157 0
M  V30 8011 N 773.046 0.209999 1.56195 0
M  V30 8012 C 774.462 -0.145598 1.58934 0
M  V30 8013 C 774.662 -1.59868 1.22656 0
M  V30 8014 O 773.718 -2.33689 0.956336 0
M  V30 8015 C 775.031 0.170243 3.00218 0
M  V30 8016 C 776.579 0.111548 3.12801 0
M  V30 8017 C 777.054 0.400904 4.56242 0
M  V30 8018 N 778.545 0.350058 4.61875 0
M  V30 8019 C 779.28 0.547598 5.70779 0
M  V30 8020 N 778.776 0.806291 6.88092 0
M  V30 8021 N 780.569 0.480827 5.6004 0
M  V30 8022 H 772.72 1.15804 1.78054 0
M  V30 8023 H 774.983 0.463326 0.827063 0
M  V30 8024 H 774.689 1.17833 3.31373 0
M  V30 8025 H 774.563 -0.520208 3.73596 0
M  V30 8026 H 776.95 -0.887162 2.81449 0
M  V30 8027 H 777.031 0.835302 2.41777 0
M  V30 8028 H 776.675 1.397 4.8831 0
M  V30 8029 H 776.605 -0.34391 5.25476 0
M  V30 8030 H 779.096 0.157334 3.77572 0
M  V30 8031 H 779.409 0.945433 7.66995 0
M  V30 8032 H 777.754 0.843355 6.89864 0
M  V30 8033 H 780.945 0.279037 4.67268 0
M  V30 8034 H 781.118 0.638189 6.4485 0
M  V30 8035 N 774.524 -1.57472 -0.0634922 0
M  V30 8036 C 775.457 -1.99571 -1.10664 0
M  V30 8037 C 776.435 -0.874015 -1.37112 0
M  V30 8038 O 777.619 -1.13702 -1.50347 0
M  V30 8039 C 774.746 -2.3395 -2.44918 0
M  V30 8040 C 773.792 -3.56213 -2.34551 0
M  V30 8041 S 774.625 -5.06727 -1.73169 0
M  V30 8042 C 775.781 -5.44316 -3.08984 0
M  V30 8043 H 776.014 -2.87739 -0.747905 0
M  V30 8044 H 773.547 -1.5198 -0.272316 0
M  V30 8045 H 775.505 -2.54431 -3.22141 0
M  V30 8046 H 774.166 -1.46297 -2.7795 0
M  V30 8047 H 773.359 -3.77812 -3.33578 0
M  V30 8048 H 772.961 -3.35406 -1.65466 0
M  V30 8049 H 775.253 -5.42894 -4.05305 0
M  V30 8050 H 776.196 -6.4502 -2.92156 0
M  V30 8051 H 776.604 -4.71781 -3.09972 0
M  V30 8052 N 776.003 0.335068 -1.53997 0
M  V30 8053 C 777.252 1.07182 -1.70865 0
M  V30 8054 C 777.565 1.89541 -0.483078 0
M  V30 8055 O 778.771 2.66219 -0.532879 0
M  V30 8056 C 777.227 1.95497 -3.02174 0
M  V30 8057 C 776.835 1.18304 -4.32097 0
M  V30 8058 C 778.579 2.68978 -3.28407 0
M  V30 8059 C 776.486 2.05699 -5.54474 0
M  V30 8060 H 775.416 0.403857 -0.636722 0
M  V30 8061 H 778.067 0.33076 -1.80494 0
M  V30 8062 H 776.449 2.73456 -2.86423 0
M  V30 8063 H 777.623 0.451969 -4.58578 0
M  V30 8064 H 775.938 0.565556 -4.12541 0
M  V30 8065 H 778.535 3.34651 -4.17029 0
M  V30 8066 H 778.878 3.36 -2.45784 0
M  V30 8067 H 779.411 1.98087 -3.44973 0
M  V30 8068 H 776.15 1.43204 -6.39666 0
M  V30 8069 H 775.67 2.76572 -5.32229 0
M  V30 8070 H 777.349 2.64554 -5.90441 0
M  V30 8071 N 777.481 1.45874 0.596531 0
M  V30 8072 C 778.411 1.5824 1.71705 0
M  V30 8073 C 779.392 0.433366 1.64487 0
M  V30 8074 O 780.577 0.657895 1.82717 0
M  V30 8075 C 777.707 1.55927 3.10329 0
M  V30 8076 C 776.661 2.69659 3.32367 0
M  V30 8077 C 775.987 2.52403 4.71377 0
M  V30 8078 C 777.287 4.11591 3.21544 0
M  V30 8079 H 778.981 2.52035 1.61613 0
M  V30 8080 H 776.527 1.21297 0.776082 0
M  V30 8081 H 778.48 1.63173 3.88526 0
M  V30 8082 H 777.204 0.586674 3.21288 0
M  V30 8083 H 775.863 2.61859 2.56564 0
M  V30 8084 H 775.511 1.53258 4.79083 0
M  V30 8085 H 775.211 3.28679 4.87077 0
M  V30 8086 H 776.735 2.6152 5.5176 0
M  V30 8087 H 778.149 4.20576 3.89601 0
M  V30 8088 H 776.546 4.88344 3.4877 0
M  V30 8089 H 777.616 4.32719 2.1882 0
M  V30 8090 N 778.959 -0.83999 1.33349 0
M  V30 8091 C 779.869 -1.98182 1.25543 0
M  V30 8092 C 780.885 -1.73204 0.166208 0
M  V30 8093 O 782.061 -1.97596 0.389589 0
M  V30 8094 C 779.126 -3.32157 0.993614 0
M  V30 8095 C 778.187 -3.70258 2.17273 0
M  V30 8096 C 777.42 -4.9784 1.92331 0
M  V30 8097 O 777.643 -5.63679 0.873074 0
M  V30 8098 O 776.577 -5.33418 2.78835 0
M  V30 8099 H 780.403 -2.07708 2.21565 0
M  V30 8100 H 777.988 -0.972852 1.13384 0
M  V30 8101 H 779.87 -4.12433 0.864711 0
M  V30 8102 H 778.545 -3.23637 0.0636596 0
M  V30 8103 H 777.452 -2.90497 2.35716 0
M  V30 8104 H 778.785 -3.83442 3.08598 0
M  V30 8105 N 780.437 -1.16799 -1.0581 0
M  V30 8106 C 781.662 -0.977402 -1.82925 0
M  V30 8107 C 782.087 0.469514 -1.82146 0
M  V30 8108 O 781.445 1.33576 -1.22585 0
M  V30 8109 C 781.493 -1.51543 -3.27211 0
M  V30 8110 O 780.597 -0.725021 -4.05977 0
M  V30 8111 H 779.938 -0.347474 -0.565825 0
M  V30 8112 H 782.468 -1.55151 -1.33376 0
M  V30 8113 H 782.478 -1.53502 -3.78023 0
M  V30 8114 H 781.153 -2.56872 -3.27093 0
M  V30 8115 H 779.73 -0.77634 -3.64729 0
M  V30 8116 N 781.915 1.24427 -0.967243 0
M  V30 8117 C 782.862 2.25398 -0.496419 0
M  V30 8118 C 783.832 1.59667 0.457781 0
M  V30 8119 O 785.017 1.87213 0.368246 0
M  V30 8120 C 782.157 3.44474 0.207693 0
M  V30 8121 C 781.27 4.24804 -0.785221 0
M  V30 8122 C 780.405 5.31169 -0.0572631 0
M  V30 8123 C 779.444 6.03195 -1.04027 0
M  V30 8124 N 778.581 7.01265 -0.34235 0
M  V30 8125 H 783.421 2.65039 -1.36229 0
M  V30 8126 H 780.958 1.30288 -0.682902 0
M  V30 8127 H 782.916 4.12376 0.632612 0
M  V30 8128 H 781.546 3.05672 1.03752 0
M  V30 8129 H 780.598 3.56445 -1.32858 0
M  V30 8130 H 781.91 4.74599 -1.53483 0
M  V30 8131 H 781.064 6.05205 0.425674 0
M  V30 8132 H 779.803 4.8228 0.725047 0
M  V30 8133 H 778.808 5.27964 -1.53409 0
M  V30 8134 H 780.033 6.54173 -1.82302 0
M  V30 8135 H 777.979 6.54648 0.420993 0
M  V30 8136 H 777.896 7.48939 -1.03084 0
M  V30 8137 H 779.164 7.7941 0.118634 0
M  V30 8138 N 783.393 0.737304 1.3929 0
M  V30 8139 C 784.621 0.296573 2.04763 0
M  V30 8140 C 785.036 -1.06941 1.55592 0
M  V30 8141 O 784.393 -1.67619 0.721822 0
M  V30 8142 C 784.444 0.291906 3.6032 0
M  V30 8143 O 784.165 1.60397 4.07682 0
M  V30 8144 C 785.666 -0.164708 4.42994 0
M  V30 8145 H 782.886 0.129251 0.658434 0
M  V30 8146 H 785.43 1.0016 1.78293 0
M  V30 8147 H 783.585 -0.364251 3.85684 0
M  V30 8148 H 783.999 1.51909 5.0202 0
M  V30 8149 H 785.473 -0.116814 5.51876 0
M  V30 8150 H 785.95 -1.21022 4.22197 0
M  V30 8151 H 786.556 0.461968 4.22784 0
M  V30 8152 N 784.871 -1.49948 0.485112 0
M  V30 8153 C 785.781 -2.32587 -0.306697 0
M  V30 8154 C 786.797 -1.43598 -0.982632 0
M  V30 8155 O 787.973 -1.76638 -0.967519 0
M  V30 8156 C 785.038 -3.18638 -1.3664 0
M  V30 8157 C 784.099 -4.23462 -0.705589 0
M  V30 8158 C 783.332 -5.05401 -1.7148 0
M  V30 8159 O 783.555 -4.88618 -2.94293 0
M  V30 8160 O 782.489 -5.88157 -1.27889 0
M  V30 8161 H 786.315 -3.01447 0.369272 0
M  V30 8162 H 783.9 -1.47349 0.246709 0
M  V30 8163 H 785.782 -3.71992 -1.9799 0
M  V30 8164 H 784.457 -2.52491 -2.02559 0
M  V30 8165 H 783.364 -3.74063 -0.0527733 0
M  V30 8166 H 784.697 -4.92119 -0.0891187 0
M  V30 8167 N 786.349 -0.21828 -1.56081 0
M  V30 8168 C 787.296 0.693189 -2.20144 0
M  V30 8169 C 788.266 1.19274 -1.15598 0
M  V30 8170 O 789.451 1.25243 -1.4394 0
M  V30 8171 C 786.591 1.89715 -2.88275 0
M  V30 8172 C 785.704 1.4368 -4.07407 0
M  V30 8173 C 784.839 2.59807 -4.63329 0
M  V30 8174 C 783.878 2.10492 -5.74769 0
M  V30 8175 N 783.015 3.1988 -6.24997 0
M  V30 8176 H 787.855 0.14016 -2.9767 0
M  V30 8177 H 785.392 0.0574292 -1.46988 0
M  V30 8178 H 787.35 2.60398 -3.25958 0
M  V30 8179 H 785.98 2.42311 -2.13273 0
M  V30 8180 H 785.032 0.625007 -3.7523 0
M  V30 8181 H 786.344 1.03517 -4.8794 0
M  V30 8182 H 785.498 3.38577 -5.03438 0
M  V30 8183 H 784.237 3.03256 -3.81951 0
M  V30 8184 H 783.242 1.30182 -5.34165 0
M  V30 8185 H 784.467 1.68045 -6.5798 0
M  V30 8186 H 782.413 3.62817 -5.46534 0
M  V30 8187 H 782.33 2.83958 -7.00645 0
M  V30 8188 H 783.598 3.98796 -6.69763 0
M  V30 8189 N 787.827 1.57504 0.0551401 0
M  V30 8190 C 788.774 2.04825 1.06373 0
M  V30 8191 C 789.744 0.932108 1.37481 0
M  V30 8192 O 790.929 1.20093 1.48265 0
M  V30 8193 C 788.069 2.51091 2.36743 0
M  V30 8194 C 787.182 3.76392 2.12021 0
M  V30 8195 C 786.317 4.11373 3.36074 0
M  V30 8196 C 785.356 5.29666 3.0679 0
M  V30 8197 N 784.493 5.60205 4.2322 0
M  V30 8198 H 789.333 2.90753 0.653216 0
M  V30 8199 H 786.87 1.43776 0.310951 0
M  V30 8200 H 788.828 2.75973 3.12881 0
M  V30 8201 H 787.458 1.68118 2.75565 0
M  V30 8202 H 786.51 3.58751 1.26498 0
M  V30 8203 H 787.822 4.62662 1.86401 0
M  V30 8204 H 786.976 4.37245 4.20597 0
M  V30 8205 H 785.715 3.23704 3.64784 0
M  V30 8206 H 784.72 5.03574 2.20664 0
M  V30 8207 H 785.945 6.18968 2.79385 0
M  V30 8208 H 783.891 4.75495 4.5193 0
M  V30 8209 H 783.808 6.40928 4.00933 0
M  V30 8210 H 785.076 5.90637 5.08692 0
M  V30 8211 N 789.305 -0.326896 1.54172 0
M  V30 8212 C 790.238 -1.42591 1.78166 0
M  V30 8213 C 791.216 -1.49837 0.631484 0
M  V30 8214 O 792.4 -1.67298 0.868544 0
M  V30 8215 C 789.527 -2.8071 1.89524 0
M  V30 8216 C 788.573 -2.91012 3.11792 0
M  V30 8217 S 789.406 -2.55763 4.70474 0
M  V30 8218 C 790.562 -3.9596 4.84733 0
M  V30 8219 H 790.795 -1.22024 2.71104 0
M  V30 8220 H 788.328 -0.523539 1.45253 0
M  V30 8221 H 790.286 -3.60276 1.96753 0
M  V30 8222 H 788.947 -2.98562 0.975696 0
M  V30 8223 H 788.14 -3.92258 3.16464 0
M  V30 8224 H 787.742 -2.19414 3.02876 0
M  V30 8225 H 790.034 -4.90676 4.67166 0
M  V30 8226 H 790.977 -3.96273 5.86833 0
M  V30 8227 H 791.385 -3.8476 4.13062 0
M  V30 8228 N 790.784 -1.46188 -0.588786 0
M  V30 8229 C 792.03 -1.51407 -1.34921 0
M  V30 8230 C 792.363 -0.162771 -1.93517 0
M  V30 8231 O 791.638 0.825082 -1.76132 0
M  V30 8232 C 791.921 -2.60795 -2.48311 0
M  V30 8233 C 791.774 -4.05435 -1.94789 0
M  V30 8234 C 793.093 -2.66313 -3.50379 0
M  V30 8235 H 790.212 -0.551213 -0.489217 0
M  V30 8236 H 792.854 -1.78095 -0.661993 0
M  V30 8237 H 791.004 -2.3817 -3.06932 0
M  V30 8238 H 792.676 -4.39328 -1.40672 0
M  V30 8239 H 790.919 -4.15202 -1.25659 0
M  V30 8240 H 791.59 -4.77691 -2.76613 0
M  V30 8241 H 794.066 -2.86634 -3.01629 0
M  V30 8242 H 792.942 -3.44681 -4.27184 0
M  V30 8243 H 793.203 -1.72127 -4.07216 0
M  V30 8244 N 792.262 0.832906 -1.33792 0
M  V30 8245 C 793.487 1.62568 -1.28788 0
M  V30 8246 C 793.912 1.87599 0.137246 0
M  V30 8247 O 793.27 1.44436 1.0958 0
M  V30 8248 C 793.318 2.9495 -2.07453 0
M  V30 8249 O 792.422 3.86546 -1.43722 0
M  V30 8250 H 791.763 0.494809 -0.442787 0
M  V30 8251 H 794.293 1.03578 -1.76445 0
M  V30 8252 H 794.303 3.44599 -2.1844 0
M  V30 8253 H 792.978 2.76055 -3.11073 0
M  V30 8254 H 791.555 3.45044 -1.41417 0
M  V30 8255 N 793.74 1.17359 1.05189 0
M  V30 8256 C 794.968 0.986529 1.81866 0
M  V30 8257 C 795.383 -0.46522 1.82979 0
M  V30 8258 O 794.74 -1.32305 1.25705 0
M  V30 8259 C 794.791 1.52021 3.27982 0
M  V30 8260 O 794.512 2.91511 3.27037 0
M  V30 8261 C 796.013 1.37774 4.21347 0
M  V30 8262 H 793.233 0.349021 0.573084 0
M  V30 8263 H 795.777 1.55648 1.32643 0
M  V30 8264 H 793.932 0.992287 3.74476 0
M  V30 8265 H 794.346 3.16178 4.18488 0
M  V30 8266 H 795.82 1.7993 5.21852 0
M  V30 8267 H 796.297 0.32483 4.37997 0
M  V30 8268 H 796.903 1.89583 3.80708 0
M  V30 8269 N 795.218 -1.23913 0.973828 0
M  V30 8270 C 796.464 -1.92436 0.640026 0
M  V30 8271 C 796.797 -1.75875 -0.823512 0
M  V30 8272 O 796.072 -1.11563 -1.59323 0
M  V30 8273 C 796.355 -3.4526 1.0231 0
M  V30 8274 C 796.208 -3.70961 2.54378 0
M  V30 8275 C 797.527 -4.36495 0.562155 0
M  V30 8276 H 794.646 -0.698868 0.233992 0
M  V30 8277 H 797.288 -1.46163 1.21393 0
M  V30 8278 H 795.438 -3.84802 0.534751 0
M  V30 8279 H 797.11 -3.40941 3.10737 0
M  V30 8280 H 795.353 -3.15899 2.97305 0
M  V30 8281 H 796.024 -4.77912 2.76232 0
M  V30 8282 H 798.5 -4.04363 0.981333 0
M  V30 8283 H 797.376 -5.42142 0.858689 0
M  V30 8284 H 797.637 -4.38818 -0.537659 0
M  V30 8285 N 796.696 -0.74468 -1.38897 0
M  V30 8286 C 797.921 -0.306119 -2.05128 0
M  V30 8287 C 798.346 1.0541 -1.55789 0
M  V30 8288 O 797.704 1.66993 -0.705909 0
M  V30 8289 C 797.752 -0.328195 -3.59103 0
M  V30 8290 O 796.856 0.680876 -4.06741 0
M  V30 8291 H 796.197 -0.137209 -0.649669 0
M  V30 8292 H 798.727 -1.01331 -1.77745 0
M  V30 8293 H 798.737 -0.175956 -4.0762 0
M  V30 8294 H 797.412 -1.32067 -3.94374 0
M  V30 8295 H 795.989 0.49398 -3.69614 0
M  V30 8296 N 798.174 1.49689 -0.493057 0
M  V30 8297 C 799.084 2.32746 0.294358 0
M  V30 8298 C 800.1 1.44117 0.975003 0
M  V30 8299 O 801.276 1.77149 0.958138 0
M  V30 8300 C 798.341 3.19358 1.34949 0
M  V30 8301 C 797.402 4.2383 0.683122 0
M  V30 8302 C 796.635 5.06303 1.68798 0
M  V30 8303 O 796.858 4.90172 2.91698 0
M  V30 8304 O 795.792 5.88826 1.24768 0
M  V30 8305 H 799.618 3.01247 -0.385254 0
M  V30 8306 H 797.203 1.47216 -0.254519 0
M  V30 8307 H 799.085 3.73037 1.96014 0
M  V30 8308 H 797.76 2.53561 2.01217 0
M  V30 8309 H 796.667 3.74086 0.0329351 0
M  V30 8310 H 798 4.9216 0.0630192 0
M  V30 8311 N 799.652 0.226554 1.55963 0
M  V30 8312 C 800.582 -0.676079 2.23498 0
M  V30 8313 C 801.563 -1.19718 1.20837 0
M  V30 8314 O 802.748 -1.24027 1.49436 0
M  V30 8315 C 799.878 -1.88217 2.91876 0
M  V30 8316 C 798.832 -1.4947 4.01052 0
M  V30 8317 C 798.158 -2.77997 4.56751 0
M  V30 8318 C 799.458 -0.680951 5.17842 0
M  V30 8319 H 801.152 -0.112989 2.99187 0
M  V30 8320 H 798.698 -0.0529046 1.43903 0
M  V30 8321 H 800.651 -2.51911 3.37815 0
M  V30 8322 H 799.375 -2.47031 2.13643 0
M  V30 8323 H 798.034 -0.881199 3.55852 0
M  V30 8324 H 797.682 -3.34966 3.75243 0
M  V30 8325 H 797.382 -2.52803 5.30438 0
M  V30 8326 H 798.906 -3.42625 5.05411 0
M  V30 8327 H 800.32 -1.22171 5.60131 0
M  V30 8328 H 798.717 -0.525898 5.97791 0
M  V30 8329 H 799.787 0.311346 4.83899 0
M  V30 8330 N 801.13 -1.57531 -0.0467866 0
M  V30 8331 C 802.376 -1.8873 -0.742218 0
M  V30 8332 C 802.709 -0.822084 -1.75941 0
M  V30 8333 O 801.984 0.164922 -1.938 0
M  V30 8334 C 802.267 -3.30586 -1.42776 0
M  V30 8335 C 802.12 -4.47785 -0.425285 0
M  V30 8336 C 803.439 -3.71068 -2.36636 0
M  V30 8337 H 800.558 -0.686406 -0.268359 0
M  V30 8338 H 803.2 -1.89999 -0.00511341 0
M  V30 8339 H 801.35 -3.29634 -2.05605 0
M  V30 8340 H 803.022 -4.60867 0.199721 0
M  V30 8341 H 801.265 -4.33037 0.25713 0
M  V30 8342 H 801.936 -5.43884 -0.943086 0
M  V30 8343 H 804.412 -3.73273 -1.83866 0
M  V30 8344 H 803.288 -4.71165 -2.81593 0
M  V30 8345 H 803.549 -3.02355 -3.22542 0
M  V30 8346 N 802.608 0.318715 -1.54344 0
M  V30 8347 C 803.836 1.0755 -1.7675 0
M  V30 8348 C 804.251 1.81543 -0.518422 0
M  V30 8349 O 803.608 1.75198 0.511078 0
M  V30 8350 C 803.659 2.06983 -2.96378 0
M  V30 8351 O 803.38 1.35995 -4.16458 0
M  V30 8352 C 804.881 2.94841 -3.31034 0
M  V30 8353 H 802.101 0.319711 -0.589937 0
M  V30 8354 H 804.645 0.363369 -2.01246 0
M  V30 8355 H 802.8 2.73724 -2.74142 0
M  V30 8356 H 803.214 2.02623 -4.83781 0
M  V30 8357 H 804.688 3.60496 -4.18027 0
M  V30 8358 H 805.165 3.62199 -2.48412 0
M  V30 8359 H 805.771 2.33656 -3.55366 0
M  V30 8360 N 804.086 1.46499 0.581025 0
M  V30 8361 C 805.314 1.5547 1.36517 0
M  V30 8362 C 805.729 0.196407 1.87776 0
M  V30 8363 O 805.086 -0.806577 1.63709 0
M  V30 8364 C 805.137 2.56084 2.55154 0
M  V30 8365 O 804.858 3.86637 2.06018 0
M  V30 8366 C 806.359 2.75011 3.47683 0
M  V30 8367 H 803.579 0.525703 0.416986 0
M  V30 8368 H 806.123 1.9192 0.706177 0
M  V30 8369 H 804.278 2.22633 3.17039 0
M  V30 8370 H 804.692 4.41413 2.83292 0
M  V30 8371 H 806.166 3.49329 4.27403 0
M  V30 8372 H 806.643 1.81978 3.99726 0
M  V30 8373 H 807.249 3.09565 2.91632 0
M  V30 8374 N 805.565 -0.825799 1.34232 0
M  V30 8375 C 806.813 -1.57873 1.26177 0
M  V30 8376 C 807.134 -1.94267 -0.168904 0
M  V30 8377 O 806.404 -1.62045 -1.10084 0
M  V30 8378 H 804.984 -0.585388 0.464037 0
M  V30 8379 H 807.646 -0.986163 1.6811 0
M  V30 8380 H 806.742 -2.50283 1.86453 0
M  V30 8381 N 807.043 -1.17915 -1.04565 0
M  V30 8382 C 807.993 -0.869634 -2.10764 0
M  V30 8383 C 808.977 0.158502 -1.60117 0
M  V30 8384 O 810.169 -0.04483 -1.76943 0
M  V30 8385 C 807.298 -0.391642 -3.41059 0
M  V30 8386 C 806.384 -1.45156 -3.98485 0
M  V30 8387 N 806.775 -2.6667 -4.29792 0
M  V30 8388 C 805.073 -1.3109 -4.263 0
M  V30 8389 C 805.774 -3.34823 -4.75677 0
M  V30 8390 N 804.75 -2.62203 -4.76183 0
M  V30 8391 H 808.552 -1.79342 -2.32838 0
M  V30 8392 H 806.066 -1.0688 -1.22272 0
M  V30 8393 H 808.063 -0.151428 -4.16625 0
M  V30 8394 H 806.723 0.525862 -3.20413 0
M  V30 8395 H 807.734 -3.0358 -4.19594 0
M  V30 8396 H 804.411 -0.455545 -4.15007 0
M  V30 8397 H 805.801 -4.38645 -5.0896 0
M  V30 8398 N 808.521 1.23394 -0.980386 0
M  V30 8399 C 809.751 1.9556 -0.666319 0
M  V30 8400 C 810.159 1.72786 0.770815 0
M  V30 8401 O 809.502 1.0162 1.53033 0
M  V30 8402 C 809.564 3.48643 -0.876825 0
M  V30 8403 C 809.228 3.95135 -2.29602 0
M  V30 8404 C 810.225 4.03806 -3.2747 0
M  V30 8405 C 807.91 4.28122 -2.62711 0
M  V30 8406 C 809.904 4.44818 -4.56526 0
M  V30 8407 C 807.591 4.68814 -3.9199 0
M  V30 8408 C 808.589 4.77129 -4.88709 0
M  V30 8409 O 808.277 5.16908 -6.15679 0
M  V30 8410 H 808.009 0.629422 -0.246585 0
M  V30 8411 H 810.563 1.57839 -1.31438 0
M  V30 8412 H 808.793 3.86319 -0.171587 0
M  V30 8413 H 810.482 4.0202 -0.55992 0
M  V30 8414 H 811.248 3.78526 -3.03222 0
M  V30 8415 H 807.127 4.20861 -1.8814 0
M  V30 8416 H 810.671 4.51223 -5.32018 0
M  V30 8417 H 806.568 4.93545 -4.16033 0
M  V30 8418 H 807.336 5.3502 -6.19432 0
M  V30 8419 N 809.999 0.752036 1.385 0
M  V30 8420 C 811.247 0.306895 1.99756 0
M  V30 8421 C 811.568 -1.11478 1.59992 0
M  V30 8422 O 810.838 -1.76206 0.856045 0
M  V30 8423 H 809.418 0.11048 0.738785 0
M  V30 8424 H 812.08 0.965785 1.69289 0
M  V30 8425 H 811.176 0.368797 3.09913 0
M  V30 8426 N 811.477 -1.49425 0.500989 0
M  V30 8427 C 812.724 -2.02453 -0.0435355 0
M  V30 8428 C 813.052 -1.38067 -1.36995 0
M  V30 8429 O 812.307 -0.505557 -1.89057 0
M  V30 8430 C 812.606 -3.56562 -0.24463 0
M  V30 8431 C 812.272 -4.39585 1.00379 0
M  V30 8432 C 810.934 -4.61992 1.346 0
M  V30 8433 C 813.286 -4.87881 1.83361 0
M  V30 8434 C 810.614 -5.2994 2.51755 0
M  V30 8435 C 812.966 -5.57119 2.99669 0
M  V30 8436 C 811.63 -5.77771 3.3427 0
M  V30 8437 H 810.9 -0.740829 -0.0159308 0
M  V30 8438 H 813.547 -1.79725 0.661143 0
M  V30 8439 H 811.852 -3.77969 -1.03183 0
M  V30 8440 H 813.549 -3.95185 -0.6804 0
M  V30 8441 H 810.139 -4.22385 0.727225 0
M  V30 8442 H 814.323 -4.70398 1.58237 0
M  V30 8443 H 809.579 -5.44133 2.788 0
M  V30 8444 H 813.753 -5.93516 3.64296 0
M  V30 8445 H 811.38 -6.30197 4.25154 0
M  V30 8446 N 812.955 -0.234822 -1.55841 0
M  V30 8447 C 814.183 0.397745 -2.03041 0
M  V30 8448 C 814.598 1.52405 -1.11437 0
M  V30 8449 O 813.955 1.82061 -0.126466 0
M  V30 8450 C 814.006 0.916919 -3.49678 0
M  V30 8451 O 813.727 -0.164493 -4.37791 0
M  V30 8452 C 815.228 1.62139 -4.12584 0
M  V30 8453 H 812.448 0.0959214 -0.664108 0
M  V30 8454 H 814.992 -0.355156 -2.01392 0
M  V30 8455 H 813.147 1.62004 -3.519 0
M  V30 8456 H 813.561 0.227794 -5.24005 0
M  V30 8457 H 815.035 1.93651 -5.16917 0
M  V30 8458 H 815.512 2.53918 -3.58361 0
M  V30 8459 H 816.118 0.963145 -4.14251 0
M  V30 8460 N 814.433 1.57553 0.0384317 0
M  V30 8461 C 815.363 2.0898 1.04161 0
M  V30 8462 C 816.344 0.99029 1.38301 0
M  V30 8463 O 817.529 1.26499 1.47349 0
M  V30 8464 C 814.659 2.56145 2.34536 0
M  V30 8465 C 813.613 3.70275 2.14663 0
M  V30 8466 C 812.939 4.03612 3.50715 0
M  V30 8467 C 814.239 4.99067 1.54045 0
M  V30 8468 H 815.933 2.93046 0.613548 0
M  V30 8469 H 813.479 1.40973 0.293684 0
M  V30 8470 H 815.432 2.90741 3.05037 0
M  V30 8471 H 814.156 1.6915 2.79385 0
M  V30 8472 H 812.815 3.36013 1.46597 0
M  V30 8473 H 812.463 3.13698 3.93195 0
M  V30 8474 H 812.163 4.80482 3.38247 0
M  V30 8475 H 813.687 4.40735 4.22593 0
M  V30 8476 H 815.101 5.3168 2.14451 0
M  V30 8477 H 813.498 5.80484 1.52178 0
M  V30 8478 H 814.568 4.8226 0.505259 0
M  V30 8479 N 815.911 -0.310526 1.54511 0
M  V30 8480 C 817.159 -1.04484 1.72996 0
M  V30 8481 C 817.48 -1.88118 0.513479 0
M  V30 8482 O 816.75 -1.90119 -0.472384 0
M  V30 8483 H 815.33 -0.388747 0.637875 0
M  V30 8484 H 817.992 -0.343811 1.91844 0
M  V30 8485 H 817.088 -1.70341 2.61515 0
M  V30 8486 N 817.389 -1.46805 -0.573248 0
M  V30 8487 C 818.299 -1.60687 -1.70929 0
M  V30 8488 C 819.315 -0.490084 -1.66956 0
M  V30 8489 O 820.491 -0.755482 -1.86693 0
M  V30 8490 C 817.556 -1.60259 -3.07438 0
M  V30 8491 C 816.617 -2.83242 -3.22603 0
M  V30 8492 C 815.85 -2.82825 -4.52599 0
M  V30 8493 O 816.073 -1.92113 -5.37074 0
M  V30 8494 O 815.007 -3.74489 -4.71213 0
M  V30 8495 H 818.833 -2.56782 -1.62163 0
M  V30 8496 H 816.418 -1.29706 -0.741399 0
M  V30 8497 H 818.3 -1.6275 -3.88704 0
M  V30 8498 H 816.975 -0.673268 -3.16621 0
M  V30 8499 H 815.882 -2.86302 -2.40794 0
M  V30 8500 H 817.215 -3.75415 -3.18315 0
M  V30 8501 N 818.867 0.818669 -1.34668 0
M  V30 8502 C 819.777 1.9616 -1.2868 0
M  V30 8503 C 820.793 1.72918 -0.193742 0
M  V30 8504 O 821.969 1.96951 -0.420975 0
M  V30 8505 C 819.034 3.30534 -1.04633 0
M  V30 8506 C 818.095 3.66755 -2.23136 0
M  V30 8507 C 817.328 4.94717 -2.00227 0
M  V30 8508 O 817.551 5.62218 -0.96264 0
M  V30 8509 O 816.485 5.28915 -2.87286 0
M  V30 8510 H 820.311 2.04157 -2.24842 0
M  V30 8511 H 817.896 0.954691 -1.14917 0
M  V30 8512 H 819.778 4.11005 -0.930216 0
M  V30 8513 H 818.453 3.23495 -0.115139 0
M  V30 8514 H 817.36 2.8671 -2.40308 0
M  V30 8515 H 818.693 3.78484 -3.1466 0
M  V30 8516 N 820.346 1.18468 1.03938 0
M  V30 8517 C 821.623 0.890435 1.74157 0
M  V30 8518 C 822.003 -0.606409 2.02203 0
M  V30 8519 O 821.351 -1.5615 1.66822 0
M  V30 8520 C 821.561 1.73906 3.02585 0
M  V30 8521 C 822.909 1.96686 3.76297 0
M  V30 8522 O 823.933 1.70969 3.12487 0
M  V30 8523 O 822.792 2.39986 4.90988 0
M  V30 8524 H 819.886 0.330889 0.757919 0
M  V30 8525 H 822.432 1.29228 1.09992 0
M  V30 8526 H 821.204 2.75369 2.78006 0
M  V30 8527 H 820.827 1.33581 3.74489 0
M  V30 8528 N 821.824 -1.22873 0.986916 0
M  V30 8529 C 823.101 -1.86939 0.575589 0
M  V30 8530 C 823.481 -1.88656 -0.947205 0
M  V30 8531 O 822.829 -1.3728 -1.82665 0
M  V30 8532 C 823.039 -3.28117 1.18914 0
M  V30 8533 C 824.387 -4.04659 1.28593 0
M  V30 8534 O 825.411 -3.3736 1.14308 0
M  V30 8535 O 824.27 -5.25112 1.51391 0
M  V30 8536 H 821.364 -0.803748 0.194724 0
M  V30 8537 H 823.91 -1.30698 1.08241 0
M  V30 8538 H 822.682 -3.21468 2.231 0
M  V30 8539 H 822.305 -3.91956 0.667535 0
M  V30 8540 N 823.302 -0.75937 -1.38099 0
M  V30 8541 C 824.212 -0.13774 -2.34195 0
M  V30 8542 C 825.228 0.693985 -1.59561 0
M  V30 8543 O 826.404 0.616792 -1.91723 0
M  V30 8544 C 823.469 0.740535 -3.38699 0
M  V30 8545 C 822.53 -0.106225 -4.29169 0
M  V30 8546 C 821.763 0.730225 -5.28681 0
M  V30 8547 O 821.986 1.96796 -5.35376 0
M  V30 8548 O 820.92 0.145969 -6.01723 0
M  V30 8549 H 824.746 -0.931512 -2.89061 0
M  V30 8550 H 822.331 -0.520345 -1.40046 0
M  V30 8551 H 824.213 1.24232 -4.02672 0
M  V30 8552 H 822.888 1.51271 -2.8618 0
M  V30 8553 H 821.795 -0.654088 -3.68337 0
M  V30 8554 H 823.128 -0.841186 -4.84959 0
M  V30 8555 N 824.78 1.49157 -0.508906 0
M  V30 8556 C 826.057 1.95363 0.0961913 0
M  V30 8557 C 826.437 1.45064 1.53362 0
M  V30 8558 O 825.785 0.667835 2.18523 0
M  V30 8559 C 825.995 3.49 0.000688881 0
M  V30 8560 C 827.343 4.24257 0.170632 0
M  V30 8561 O 828.367 3.5612 0.0754994 0
M  V30 8562 O 827.226 5.45267 0.366957 0
M  V30 8563 H 824.32 0.821984 0.0909489 0
M  V30 8564 H 826.866 1.59769 -0.572007 0
M  V30 8565 H 825.638 3.78269 -1.00143 0
M  V30 8566 H 825.261 3.91233 0.708682 0
M  V30 8567 N 826.258 0.243083 1.55714 0
M  V30 8568 C 827.674 -0.111853 1.59208 0
M  V30 8569 C 827.874 -1.5723 1.2602 0
M  V30 8570 O 826.93 -2.31608 1.00569 0
M  V30 8571 C 828.243 0.233885 2.99789 0
M  V30 8572 C 829.791 0.177873 3.12494 0
M  V30 8573 C 830.266 0.49759 4.55289 0
M  V30 8574 N 831.757 0.447949 4.61029 0
M  V30 8575 C 832.492 0.668545 5.69489 0
M  V30 8576 N 831.988 0.952064 6.86227 0
M  V30 8577 N 833.781 0.599512 5.58894 0
M  V30 8578 H 825.932 1.19554 1.75558 0
M  V30 8579 H 828.195 0.480765 0.817049 0
M  V30 8580 H 827.901 1.24835 3.28799 0
M  V30 8581 H 827.775 -0.440846 3.74615 0
M  V30 8582 H 830.162 -0.827263 2.83267 0
M  V30 8583 H 830.243 0.886399 2.39951 0
M  V30 8584 H 829.887 1.50026 4.85237 0
M  V30 8585 H 829.817 -0.232371 5.26087 0
M  V30 8586 H 832.308 0.237388 3.77154 0
M  V30 8587 H 832.621 1.10791 7.64817 0
M  V30 8588 H 830.966 0.989496 6.8792 0
M  V30 8589 H 834.157 0.378088 4.66571 0
M  V30 8590 H 834.33 0.774828 6.43351 0
M  V30 8591 N 827.736 -1.57571 -0.0300757 0
M  V30 8592 C 828.964 -1.93485 -0.732891 0
M  V30 8593 C 829.379 -0.842758 -1.68947 0
M  V30 8594 O 828.736 0.180904 -1.81601 0
M  V30 8595 C 828.787 -3.29328 -1.49082 0
M  V30 8596 O 828.508 -4.34341 -0.572639 0
M  V30 8597 C 830.009 -3.79517 -2.29088 0
M  V30 8598 H 827.229 -0.638588 -0.206026 0
M  V30 8599 H 829.773 -2.04496 0.0120966 0
M  V30 8600 H 827.928 -3.19716 -2.1877 0
M  V30 8601 H 828.342 -5.12748 -1.10406 0
M  V30 8602 H 829.816 -4.77081 -2.77665 0
M  V30 8603 H 830.293 -3.10659 -3.10464 0
M  V30 8604 H 830.899 -3.92208 -1.64477 0
M  V30 8605 N 829.214 0.302327 -1.54673 0
M  V30 8606 C 830.144 1.37759 -1.88533 0
M  V30 8607 C 831.125 1.52961 -0.744113 0
M  V30 8608 O 832.31 1.6649 -0.999731 0
M  V30 8609 C 829.44 2.74201 -2.13146 0
M  V30 8610 C 828.394 2.73765 -3.28993 0
M  V30 8611 C 827.72 4.13483 -3.39022 0
M  V30 8612 C 829.02 2.35624 -4.66132 0
M  V30 8613 H 830.714 1.0967 -2.78591 0
M  V30 8614 H 828.26 0.52613 -1.34044 0
M  V30 8615 H 830.213 3.49508 -2.35419 0
M  V30 8616 H 828.937 3.03812 -1.19858 0
M  V30 8617 H 827.596 2.00914 -3.06642 0
M  V30 8618 H 827.244 4.40269 -2.43253 0
M  V30 8619 H 826.944 4.14093 -4.16894 0
M  V30 8620 H 828.468 4.90572 -3.63553 0
M  V30 8621 H 829.882 3.00647 -4.88143 0
M  V30 8622 H 828.279 2.47449 -5.46707 0
M  V30 8623 H 829.349 1.30753 -4.66939 0
M  V30 8624 N 830.692 1.47107 0.565454 0
M  V30 8625 C 831.92 1.56909 1.3486 0
M  V30 8626 C 832.335 0.216312 1.87557 0
M  V30 8627 O 831.692 -0.789168 1.64555 0
M  V30 8628 C 831.743 2.58776 2.52423 0
M  V30 8629 O 831.464 3.888 2.01906 0
M  V30 8630 C 832.965 2.78683 3.44747 0
M  V30 8631 H 830.185 0.530096 0.411387 0
M  V30 8632 H 832.729 1.92658 0.685782 0
M  V30 8633 H 830.884 2.25983 3.1466 0
M  V30 8634 H 831.298 4.44393 2.78595 0
M  V30 8635 H 832.772 3.53842 4.23674 0
M  V30 8636 H 833.249 1.86208 3.97773 0
M  V30 8637 H 833.855 3.12641 2.88333 0
M  V30 8638 N 832.17 -0.811516 1.35101 0
M  V30 8639 C 833.416 -1.57068 1.28287 0
M  V30 8640 C 833.749 -1.93667 -0.143808 0
M  V30 8641 O 833.024 -1.60953 -1.09199 0
M  V30 8642 C 833.307 -2.86259 2.18466 0
M  V30 8643 C 833.16 -2.56168 3.69727 0
M  V30 8644 C 834.479 -3.87924 2.07852 0
M  V30 8645 H 831.598 -0.569869 0.467353 0
M  V30 8646 H 834.24 -0.934023 1.65457 0
M  V30 8647 H 832.39 -3.4059 1.86898 0
M  V30 8648 H 834.062 -2.08059 4.11715 0
M  V30 8649 H 832.305 -1.89436 3.90252 0
M  V30 8650 H 832.976 -3.48344 4.28206 0
M  V30 8651 H 835.452 -3.4298 2.35593 0
M  V30 8652 H 834.328 -4.76106 2.73157 0
M  V30 8653 H 834.589 -4.2923 1.05896 0
M  V30 8654 N 833.648 -1.19017 -1.03309 0
M  V30 8655 C 834.896 -0.988258 -1.76289 0
M  V30 8656 C 835.217 0.482557 -1.88935 0
M  V30 8657 O 834.487 1.34969 -1.41987 0
M  V30 8658 H 833.067 -0.36267 -0.653054 0
M  V30 8659 H 835.729 -1.49836 -1.2464 0
M  V30 8660 H 834.825 -1.43273 -2.77271 0
M  V30 8661 N 835.127 1.22348 -0.993418 0
M  V30 8662 C 836.352 1.95666 -0.687727 0
M  V30 8663 C 836.777 1.72883 0.741161 0
M  V30 8664 O 836.135 1.00837 1.50671 0
M  V30 8665 C 836.183 3.46457 -0.99998 0
M  V30 8666 O 835.287 4.12281 -0.0989386 0
M  V30 8667 H 834.628 0.612102 -0.257346 0
M  V30 8668 H 837.158 1.55428 -1.33054 0
M  V30 8669 H 837.168 3.96976 -0.942035 0
M  V30 8670 H 835.843 3.62365 -2.04118 0
M  V30 8671 H 834.42 3.72295 -0.212413 0
M  V30 8672 N 836.605 0.766683 1.37694 0
M  V30 8673 C 837.882 0.25366 1.93948 0
M  V30 8674 C 838.262 -1.25041 1.70082 0
M  V30 8675 O 837.61 -2.03115 1.04674 0
M  V30 8676 C 837.82 0.621549 3.43421 0
M  V30 8677 C 839.168 0.588504 4.20502 0
M  V30 8678 O 840.192 0.560632 3.5176 0
M  V30 8679 O 839.051 0.61107 5.43073 0
M  V30 8680 H 836.145 0.0570586 0.825029 0
M  V30 8681 H 838.691 0.847693 1.47011 0
M  V30 8682 H 837.463 1.65979 3.54354 0
M  V30 8683 H 837.086 0.000197027 3.976 0
M  V30 8684 N 838.083 -1.48885 0.516809 0
M  V30 8685 C 838.993 -2.33185 -0.257293 0
M  V30 8686 C 840.009 -1.4565 -0.951952 0
M  V30 8687 O 841.185 -1.78651 -0.929834 0
M  V30 8688 C 838.25 -3.21465 -1.29851 0
M  V30 8689 C 837.311 -4.24863 -0.615608 0
M  V30 8690 C 836.544 -5.08925 -1.60722 0
M  V30 8691 O 836.767 -4.9475 -2.83863 0
M  V30 8692 O 835.701 -5.90737 -1.15384 0
M  V30 8693 H 839.527 -3.00596 0.433131 0
M  V30 8694 H 837.112 -1.46792 0.277908 0
M  V30 8695 H 838.994 -3.76108 -1.90055 0
M  V30 8696 H 837.669 -2.5673 -1.97158 0
M  V30 8697 H 836.576 -3.74091 0.0265829 0
M  V30 8698 H 837.909 -4.92198 0.0152871 0
M  V30 8699 N 839.561 -0.251338 -1.55583 0
M  V30 8700 C 840.786 0.379136 -2.03905 0
M  V30 8701 C 841.211 1.50428 -1.12929 0
M  V30 8702 O 840.569 1.80882 -0.123114 0
M  V30 8703 C 840.617 0.86009 -3.50193 0
M  V30 8704 O 839.721 1.96932 -3.62342 0
M  V30 8705 H 839.062 0.0820183 -0.658915 0
M  V30 8706 H 841.592 -0.378692 -2.01065 0
M  V30 8707 H 841.602 1.16214 -3.91099 0
M  V30 8708 H 840.277 0.0367559 -4.15884 0
M  V30 8709 H 838.854 1.67163 -3.33333 0
M  V30 8710 N 841.039 1.57585 0.0217189 0
M  V30 8711 C 842.267 1.93871 0.722619 0
M  V30 8712 C 842.682 0.851706 1.68498 0
M  V30 8713 O 842.039 -0.17127 1.81695 0
M  V30 8714 C 842.09 3.30114 1.47333 0
M  V30 8715 O 841.811 4.34639 0.549597 0
M  V30 8716 C 843.312 3.80727 2.27072 0
M  V30 8717 H 840.532 0.639671 0.202637 0
M  V30 8718 H 843.076 2.04487 -0.0229414 0
M  V30 8719 H 841.231 3.20872 2.17071 0
M  V30 8720 H 841.645 5.13326 1.07686 0
M  V30 8721 H 843.119 4.78547 2.75131 0
M  V30 8722 H 843.596 3.12301 3.08812 0
M  V30 8723 H 844.202 3.93075 1.62395 0
M  V30 8724 N 842.517 -0.29412 1.54831 0
M  V30 8725 C 843.447 -1.36757 1.89261 0
M  V30 8726 C 844.428 -1.52564 0.752214 0
M  V30 8727 O 845.613 -1.65958 1.00855 0
M  V30 8728 C 842.743 -2.73066 2.14597 0
M  V30 8729 C 841.697 -2.72017 3.3044 0
M  V30 8730 C 841.023 -4.11679 3.4121 0
M  V30 8731 C 842.323 -2.33149 4.67375 0
M  V30 8732 H 844.017 -1.08191 2.79169 0
M  V30 8733 H 841.563 -0.519014 1.34321 0
M  V30 8734 H 843.516 -3.48255 2.37269 0
M  V30 8735 H 842.24 -3.03172 1.21467 0
M  V30 8736 H 840.899 -1.99285 3.07703 0
M  V30 8737 H 840.547 -4.38973 2.45584 0
M  V30 8738 H 840.247 -4.11877 4.19084 0
M  V30 8739 H 841.771 -4.88637 3.6615 0
M  V30 8740 H 843.185 -2.98054 4.89731 0
M  V30 8741 H 841.582 -2.44546 5.48012 0
M  V30 8742 H 842.652 -1.28275 4.67626 0
M  V30 8743 N 843.995 -1.47404 -0.557645 0
M  V30 8744 C 845.244 -1.53268 -1.31118 0
M  V30 8745 C 845.557 -0.199414 -1.94581 0
M  V30 8746 O 846.763 -0.136039 -2.71159 0
M  V30 8747 C 845.219 -2.70178 -2.37764 0
M  V30 8748 C 844.827 -4.10032 -1.80493 0
M  V30 8749 C 846.571 -2.85334 -3.14301 0
M  V30 8750 C 844.478 -5.18244 -2.84916 0
M  V30 8751 H 843.408 -0.570491 -0.493007 0
M  V30 8752 H 846.059 -1.73678 -0.592308 0
M  V30 8753 H 844.441 -2.43147 -3.12563 0
M  V30 8754 H 845.615 -4.46964 -1.12069 0
M  V30 8755 H 843.93 -3.99759 -1.16542 0
M  V30 8756 H 846.527 -3.63347 -3.92279 0
M  V30 8757 H 846.87 -1.93761 -3.68459 0
M  V30 8758 H 847.403 -3.12133 -2.46613 0
M  V30 8759 H 844.142 -6.11691 -2.35614 0
M  V30 8760 H 843.662 -4.85829 -3.51753 0
M  V30 8761 H 845.341 -5.45174 -3.48417 0
M  V30 8762 N 845.473 0.80434 -1.35529 0
M  V30 8763 C 846.72 1.56154 -1.28927 0
M  V30 8764 C 847.048 1.94026 0.135682 0
M  V30 8765 O 846.303 1.61759 1.10148 0
M  V30 8766 C 846.602 2.85988 -2.14349 0
M  V30 8767 C 846.268 2.67323 -3.6311 0
M  V30 8768 C 844.93 2.61941 -4.03659 0
M  V30 8769 C 847.282 2.49699 -4.57493 0
M  V30 8770 C 844.61 2.3688 -5.36754 0
M  V30 8771 C 846.962 2.26168 -5.90788 0
M  V30 8772 C 845.626 2.19209 -6.30479 0
M  V30 8773 H 844.896 0.571407 -0.471779 0
M  V30 8774 H 847.543 0.929193 -1.67446 0
M  V30 8775 H 845.848 3.53612 -1.68718 0
M  V30 8776 H 847.545 3.43697 -2.06576 0
M  V30 8777 H 844.135 2.72361 -3.30934 0
M  V30 8778 H 848.319 2.52869 -4.27049 0
M  V30 8779 H 843.575 2.29964 -5.66504 0
M  V30 8780 H 847.749 2.11522 -6.63499 0
M  V30 8781 H 845.376 1.99553 -7.33541 0
M  V30 8782 N 846.951 1.19563 1.02676 0
M  V30 8783 C 848.228 0.908857 1.73203 0
M  V30 8784 C 848.608 -0.584928 2.02834 0
M  V30 8785 O 847.956 -1.54372 1.68469 0
M  V30 8786 C 848.166 1.77105 3.00724 0
M  V30 8787 C 849.514 2.00667 3.7419 0
M  V30 8788 O 850.538 1.74274 3.10656 0
M  V30 8789 O 849.397 2.4518 4.88415 0
M  V30 8790 H 846.491 0.338909 0.754367 0
M  V30 8791 H 849.037 1.30387 1.08616 0
M  V30 8792 H 847.809 2.78303 2.7507 0
M  V30 8793 H 847.432 1.37546 3.73051 0
M  V30 8794 N 848.429 -1.21819 0.999893 0
M  V30 8795 C 849.361 -2.23356 0.514256 0
M  V30 8796 C 850.374 -1.5795 -0.394413 0
M  V30 8797 O 851.563 -1.77427 -0.195428 0
M  V30 8798 C 848.663 -3.37797 -0.273207 0
M  V30 8799 C 847.836 -4.32791 0.633293 0
M  V30 8800 C 846.895 -5.26098 -0.103673 0
M  V30 8801 O 845.921 -5.66881 0.513269 0
M  V30 8802 N 847.123 -5.63764 -1.38383 0
M  V30 8803 H 849.888 -2.65653 1.3874 0
M  V30 8804 H 847.449 -1.3619 0.875431 0
M  V30 8805 H 849.441 -3.97209 -0.775053 0
M  V30 8806 H 848.011 -2.94527 -1.0475 0
M  V30 8807 H 847.231 -3.71595 1.31571 0
M  V30 8808 H 848.519 -4.93196 1.25039 0
M  V30 8809 H 847.917 -5.32614 -1.90627 0
M  V30 8810 H 846.474 -6.25562 -1.83073 0
M  V30 8811 N 849.908 -0.773975 -1.37286 0
M  V30 8812 C 851.157 -0.335977 -1.98882 0
M  V30 8813 C 851.47 1.09416 -1.62134 0
M  V30 8814 O 852.676 1.63366 -2.1685 0
M  V30 8815 C 851.132 -0.549756 -3.55676 0
M  V30 8816 C 850.74 -1.9903 -4.01361 0
M  V30 8817 C 852.484 -0.175493 -4.24137 0
M  V30 8818 C 850.391 -2.15156 -5.50874 0
M  V30 8819 H 849.321 -0.121877 -0.744085 0
M  V30 8820 H 851.972 -0.953419 -1.56787 0
M  V30 8821 H 850.354 0.137175 -3.95762 0
M  V30 8822 H 851.528 -2.71237 -3.72515 0
M  V30 8823 H 849.843 -2.32137 -3.4569 0
M  V30 8824 H 852.44 -0.274463 -5.33995 0
M  V30 8825 H 852.783 0.874524 -4.07011 0
M  V30 8826 H 853.316 -0.815058 -3.89361 0
M  V30 8827 H 850.055 -3.18485 -5.72929 0
M  V30 8828 H 849.575 -1.47435 -5.81397 0
M  V30 8829 H 851.254 -1.95124 -6.16876 0
M  V30 8830 N 851.386 1.48609 -0.524698 0
M  V30 8831 C 852.797 1.86516 -0.0828846 0
M  V30 8832 C 853.148 1.43478 1.33822 0
M  V30 8833 O 852.273 0.823139 2.00133 0
M  V30 8834 C 852.868 3.38495 -0.143639 0
M  V30 8835 C 851.427 3.75615 0.242951 0
M  V30 8836 C 850.574 2.72649 -0.505747 0
M  V30 8837 H 853.525 1.40589 -0.736233 0
M  V30 8838 H 853.546 3.74977 0.645955 0
M  V30 8839 H 853.058 3.69789 -1.17805 0
M  V30 8840 H 851.159 3.49935 1.27971 0
M  V30 8841 H 851.272 4.7901 -0.0929834 0
M  V30 8842 H 849.636 2.54656 0.0473482 0
M  V30 8843 H 850.419 3.06786 -1.54069 0
M  V30 8844 N 852.864 0.259585 1.55447 0
M  V30 8845 C 853.774 -0.645026 2.25558 0
M  V30 8846 C 854.79 -1.18291 1.27606 0
M  V30 8847 O 855.966 -1.21649 1.6051 0
M  V30 8848 C 853.031 -1.81964 2.9511 0
M  V30 8849 C 852.092 -1.31997 4.08504 0
M  V30 8850 C 851.325 -2.43861 4.74729 0
M  V30 8851 O 851.548 -3.62876 4.40088 0
M  V30 8852 O 850.482 -2.12898 5.6299 0
M  V30 8853 H 854.308 -0.0775399 3.03601 0
M  V30 8854 H 851.893 0.0275859 1.49375 0
M  V30 8855 H 853.775 -2.50485 3.38873 0
M  V30 8856 H 852.45 -2.37451 2.19997 0
M  V30 8857 H 851.357 -0.601676 3.6923 0
M  V30 8858 H 852.69 -0.811045 4.85472 0
M  V30 8859 N 854.342 -1.57594 -0.0133615 0
M  V30 8860 C 855.588 -1.90262 -0.702019 0
M  V30 8861 C 855.921 -0.859219 -1.74158 0
M  V30 8862 O 855.196 0.123778 -1.94106 0
M  V30 8863 C 855.479 -3.3354 -1.35732 0
M  V30 8864 C 855.332 -4.48586 -0.330208 0
M  V30 8865 C 856.651 -3.76004 -2.28712 0
M  V30 8866 H 853.77 -0.691943 -0.253739 0
M  V30 8867 H 856.412 -1.89967 0.0351894 0
M  V30 8868 H 854.562 -3.33921 -1.98567 0
M  V30 8869 H 856.234 -4.6034 0.297433 0
M  V30 8870 H 854.477 -4.32394 0.348926 0
M  V30 8871 H 855.148 -5.45762 -0.827508 0
M  V30 8872 H 857.624 -3.77089 -1.75906 0
M  V30 8873 H 856.5 -4.77032 -2.71535 0
M  V30 8874 H 856.761 -3.09129 -3.16056 0
M  V30 8875 N 855.82 0.285905 -1.54985 0
M  V30 8876 C 857.069 1.01691 -1.74189 0
M  V30 8877 C 857.382 1.87908 -0.543135 0
M  V30 8878 O 858.588 2.64389 -0.617305 0
M  V30 8879 C 857.044 1.85785 -3.0824 0
M  V30 8880 C 856.652 1.04497 -4.35642 0
M  V30 8881 C 858.396 2.58393 -3.36798 0
M  V30 8882 C 856.303 1.87955 -5.60738 0
M  V30 8883 H 855.233 0.383396 -0.649248 0
M  V30 8884 H 857.884 0.27317 -1.81455 0
M  V30 8885 H 856.266 2.64205 -2.94978 0
M  V30 8886 H 857.44 0.305847 -4.59784 0
M  V30 8887 H 855.755 0.434023 -4.14132 0
M  V30 8888 H 858.352 3.21214 -4.27464 0
M  V30 8889 H 858.695 3.28011 -2.56349 0
M  V30 8890 H 859.228 1.87012 -3.511 0
M  V30 8891 H 855.967 1.22781 -6.43898 0
M  V30 8892 H 855.487 2.59499 -5.40759 0
M  V30 8893 H 857.166 2.45636 -5.98558 0
M  V30 8894 N 857.298 1.47698 0.54982 0
M  V30 8895 C 858.526 1.5833 1.33188 0
M  V30 8896 C 858.941 0.236193 1.87317 0
M  V30 8897 O 858.298 -0.77167 1.65383 0
M  V30 8898 C 858.349 2.61438 2.49664 0
M  V30 8899 O 858.07 3.9092 1.97771 0
M  V30 8900 C 859.571 2.82324 3.41772 0
M  V30 8901 H 856.791 0.53443 0.405741 0
M  V30 8902 H 859.335 1.93375 0.665309 0
M  V30 8903 H 857.49 2.29307 3.12245 0
M  V30 8904 H 857.904 4.47323 2.73866 0
M  V30 8905 H 859.378 3.58316 4.19897 0
M  V30 8906 H 859.855 1.90416 3.95776 0
M  V30 8907 H 860.461 3.15682 2.85 0
M  V30 8908 N 858.776 -0.797141 1.35954 0
M  V30 8909 C 860.022 -1.55698 1.29946 0
M  V30 8910 C 860.355 -1.93808 -0.123259 0
M  V30 8911 O 859.63 -1.62102 -1.07486 0
M  V30 8912 C 859.913 -2.83926 2.2149 0
M  V30 8913 C 859.766 -2.52232 3.72423 0
M  V30 8914 C 861.085 -3.85698 2.11955 0
M  V30 8915 H 858.204 -0.56488 0.47337 0
M  V30 8916 H 860.846 -0.916421 1.66438 0
M  V30 8917 H 858.996 -3.38588 1.905 0
M  V30 8918 H 860.668 -2.0368 4.13899 0
M  V30 8919 H 858.911 -1.85286 3.92239 0
M  V30 8920 H 859.582 -3.43782 4.31877 0
M  V30 8921 H 862.058 -3.40462 2.39218 0
M  V30 8922 H 860.934 -4.73182 2.78191 0
M  V30 8923 H 861.195 -4.28083 1.10442 0
M  V30 8924 N 860.254 -1.20106 -1.0204 0
M  V30 8925 C 861.479 -1.0351 -1.79723 0
M  V30 8926 C 861.904 0.411328 -1.83548 0
M  V30 8927 O 861.262 1.29608 -1.26773 0
M  V30 8928 C 861.31 -1.61876 -3.22224 0
M  V30 8929 O 860.414 -0.853813 -4.03465 0
M  V30 8930 H 859.755 -0.365299 -0.554484 0
M  V30 8931 H 862.285 -1.59316 -1.28373 0
M  V30 8932 H 862.295 -1.65451 -3.72948 0
M  V30 8933 H 860.97 -2.67148 -3.18755 0
M  V30 8934 H 859.547 -0.891983 -3.62075 0
M  V30 8935 N 861.732 1.21287 -1.00634 0
M  V30 8936 C 862.679 2.23705 -0.567876 0
M  V30 8937 C 863.649 1.61043 0.406753 0
M  V30 8938 O 864.834 1.88289 0.308499 0
M  V30 8939 C 861.974 3.44961 0.097996 0
M  V30 8940 C 861.087 4.22091 -0.919972 0
M  V30 8941 C 860.222 5.30718 -0.226222 0
M  V30 8942 C 859.261 5.99581 -1.23165 0
M  V30 8943 N 858.398 6.99821 -0.565278 0
M  V30 8944 H 863.238 2.60571 -1.44592 0
M  V30 8945 H 860.775 1.28049 -0.724006 0
M  V30 8946 H 862.733 4.1418 0.501097 0
M  V30 8947 H 861.363 3.08818 0.939744 0
M  V30 8948 H 860.415 3.52038 -1.44131 0
M  V30 8949 H 861.727 4.69476 -1.68505 0
M  V30 8950 H 860.881 6.06253 0.232917 0
M  V30 8951 H 859.62 4.84343 0.571247 0
M  V30 8952 H 858.625 5.22816 -1.70128 0
M  V30 8953 H 859.85 6.48042 -2.03022 0
M  V30 8954 H 857.796 6.55656 0.212508 0
M  V30 8955 H 857.713 7.4528 -1.26858 0
M  V30 8956 H 858.981 7.79393 -0.129389 0
M  V30 8957 N 863.21 0.781244 1.36873 0
M  V30 8958 C 864.438 0.361566 2.03716 0
M  V30 8959 C 864.853 -1.01937 1.58916 0
M  V30 8960 O 864.21 -1.65237 0.774783 0
M  V30 8961 C 864.261 0.406391 3.59208 0
M  V30 8962 O 863.982 1.73286 4.02372 0
M  V30 8963 C 865.483 -0.0236894 4.43294 0
M  V30 8964 H 862.703 0.150133 0.653988 0
M  V30 8965 H 865.247 1.05781 1.75016 0
M  V30 8966 H 863.402 -0.241364 3.86647 0
M  V30 8967 H 863.816 1.67804 4.96933 0
M  V30 8968 H 865.29 0.0588205 5.51969 0
M  V30 8969 H 865.767 -1.07529 4.25833 0
M  V30 8970 H 866.373 0.59624 4.211 0
M  V30 8971 N 864.689 -1.48329 0.532571 0
M  V30 8972 C 865.914 -2.074 0.00147755 0
M  V30 8973 C 866.339 -1.38615 -1.27151 0
M  V30 8974 O 865.697 -0.452949 -1.75551 0
M  V30 8975 C 865.745 -3.60029 -0.202866 0
M  V30 8976 O 864.849 -3.92327 -1.27097 0
M  V30 8977 H 864.19 -0.662777 0.0402883 0
M  V30 8978 H 866.72 -1.90701 0.741224 0
M  V30 8979 H 866.73 -4.05783 -0.424722 0
M  V30 8980 H 865.405 -4.09496 0.727033 0
M  V30 8981 H 863.982 -3.58348 -1.03156 0
M  V30 8982 N 866.167 -0.267825 -1.55308 0
M  V30 8983 C 867.077 0.633055 -2.25897 0
M  V30 8984 C 868.093 1.17613 -1.28231 0
M  V30 8985 O 869.269 1.20797 -1.61153 0
M  V30 8986 C 866.334 1.80397 -2.96071 0
M  V30 8987 C 865.395 1.29829 -4.09198 0
M  V30 8988 C 864.628 2.4134 -4.76016 0
M  V30 8989 O 864.851 3.60537 -4.42006 0
M  V30 8990 O 863.785 2.09909 -5.64111 0
M  V30 8991 H 867.611 0.0614381 -3.03638 0
M  V30 8992 H 865.196 -0.0355072 -1.49358 0
M  V30 8993 H 867.078 2.48685 -3.40197 0
M  V30 8994 H 865.753 2.36281 -2.21253 0
M  V30 8995 H 864.66 0.582086 -3.69544 0
M  V30 8996 H 865.993 0.785288 -4.85895 0
M  V30 8997 N 867.645 1.57599 0.00500368 0
M  V30 8998 C 868.922 1.81561 0.727654 0
M  V30 8999 C 869.302 0.871604 1.92266 0
M  V30 9000 O 868.65 -0.0808232 2.28357 0
M  V30 9001 C 868.86 3.29922 1.13809 0
M  V30 9002 C 870.208 3.95531 1.54403 0
M  V30 9003 O 871.232 3.34215 1.23202 0
M  V30 9004 O 870.091 5.03535 2.12402 0
M  V30 9005 H 867.185 0.747462 0.353878 0
M  V30 9006 H 869.731 1.69688 -0.0200667 0
M  V30 9007 H 868.503 3.90253 0.286078 0
M  V30 9008 H 868.126 3.46775 1.94507 0
M  V30 9009 N 869.123 -0.277682 1.55134 0
M  V30 9010 C 870.351 -1.02826 1.7954 0
M  V30 9011 C 870.766 -1.80105 0.566373 0
M  V30 9012 O 870.123 -1.76491 -0.464448 0
M  V30 9013 C 870.174 -1.99053 3.01762 0
M  V30 9014 O 869.895 -1.24906 4.19917 0
M  V30 9015 C 871.396 -2.85961 3.38735 0
M  V30 9016 H 868.616 -0.303958 0.598206 0
M  V30 9017 H 871.16 -0.309884 2.02138 0
M  V30 9018 H 869.315 -2.66359 2.81303 0
M  V30 9019 H 869.729 -1.89725 4.88983 0
M  V30 9020 H 871.203 -3.49286 4.27438 0
M  V30 9021 H 871.68 -3.55486 2.57928 0
M  V30 9022 H 872.286 -2.24152 3.61436 0
M  V30 9023 N 870.601 -1.47988 -0.541979 0
M  V30 9024 C 871.85 -1.5465 -1.29485 0
M  V30 9025 C 872.163 -0.220041 -1.94358 0
M  V30 9026 O 873.369 -0.164792 -2.70999 0
M  V30 9027 C 871.825 -2.72685 -2.34885 0
M  V30 9028 C 871.433 -4.11923 -1.76134 0
M  V30 9029 C 873.177 -2.88651 -3.11257 0
M  V30 9030 C 871.084 -5.21237 -2.79404 0
M  V30 9031 H 870.014 -0.575688 -0.486928 0
M  V30 9032 H 872.665 -1.74296 -0.573853 0
M  V30 9033 H 871.047 -2.46448 -3.09966 0
M  V30 9034 H 872.221 -4.48128 -1.07322 0
M  V30 9035 H 870.536 -4.00972 -1.12295 0
M  V30 9036 H 873.133 -3.67487 -3.88404 0
M  V30 9037 H 873.476 -1.97658 -3.66384 0
M  V30 9038 H 874.009 -3.14731 -2.43288 0
M  V30 9039 H 870.748 -6.14156 -2.29113 0
M  V30 9040 H 870.268 -4.89533 -3.4658 0
M  V30 9041 H 871.947 -5.48839 -3.42615 0
M  V30 9042 N 872.079 0.78992 -1.36375 0
M  V30 9043 C 873.029 1.89227 -1.27189 0
M  V30 9044 C 874.013 1.60067 -0.163498 0
M  V30 9045 O 875.205 1.72507 -0.396262 0
M  V30 9046 C 872.334 3.26431 -1.06292 0
M  V30 9047 C 871.42 3.61602 -2.21596 0
M  V30 9048 N 871.811 3.68086 -3.4691 0
M  V30 9049 C 870.109 3.9166 -2.1335 0
M  V30 9050 C 870.81 3.99481 -4.22835 0
M  V30 9051 N 869.786 4.14438 -3.5177 0
M  V30 9052 H 873.588 1.92465 -2.22113 0
M  V30 9053 H 871.102 0.985414 -1.29087 0
M  V30 9054 H 873.099 4.05267 -0.97798 0
M  V30 9055 H 871.759 3.24468 -0.122676 0
M  V30 9056 H 872.77 3.50743 -3.81051 0
M  V30 9057 H 869.447 3.97626 -1.27279 0
M  V30 9058 H 870.837 4.11425 -5.31205 0
M  V30 9059 N 873.557 1.20646 1.01402 0
M  V30 9060 C 874.785 1.04389 1.78635 0
M  V30 9061 C 875.2 -0.406771 1.84366 0
M  V30 9062 O 874.557 -1.28239 1.2985 0
M  V30 9063 C 874.608 1.62378 3.22979 0
M  V30 9064 O 874.329 3.01768 3.17597 0
M  V30 9065 C 875.83 1.5111 4.1675 0
M  V30 9066 H 873.05 0.367077 0.56169 0
M  V30 9067 H 875.594 1.59789 1.27624 0
M  V30 9068 H 873.749 1.11092 3.7113 0
M  V30 9069 H 874.163 3.29331 4.08217 0
M  V30 9070 H 875.637 1.96441 5.15863 0
M  V30 9071 H 876.114 0.464011 4.36742 0
M  V30 9072 H 876.72 2.01599 3.74483 0
M  V30 9073 N 875.035 -1.20752 1.01276 0
M  V30 9074 C 875.985 -2.21252 0.550602 0
M  V30 9075 C 876.969 -1.56052 -0.391985 0
M  V30 9076 O 878.161 -1.75682 -0.215575 0
M  V30 9077 C 875.29 -3.43112 -0.113601 0
M  V30 9078 C 874.376 -4.15485 0.850465 0
M  V30 9079 N 874.767 -4.64301 2.00643 0
M  V30 9080 C 873.065 -4.40932 0.670476 0
M  V30 9081 C 873.766 -5.197 2.61317 0
M  V30 9082 N 872.742 -5.09534 1.8941 0
M  V30 9083 H 876.544 -2.56657 1.43194 0
M  V30 9084 H 874.058 -1.36646 0.877597 0
M  V30 9085 H 876.055 -4.1433 -0.462211 0
M  V30 9086 H 874.715 -3.09213 -0.990825 0
M  V30 9087 H 875.726 -4.59637 2.38651 0
M  V30 9088 H 872.403 -4.17197 -0.159016 0
M  V30 9089 H 873.793 -5.67873 3.59123 0
M  V30 9090 N 876.513 -0.788492 -1.36457 0
M  V30 9091 C 877.443 -0.200468 -2.32638 0
M  V30 9092 C 878.424 0.664031 -1.56603 0
M  V30 9093 O 879.609 0.598045 -1.84762 0
M  V30 9094 C 876.739 0.666274 -3.40849 0
M  V30 9095 C 875.693 -0.0982574 -4.27887 0
M  V30 9096 C 875.019 0.889018 -5.27258 0
M  V30 9097 C 876.319 -1.28692 -5.06197 0
M  V30 9098 H 878.013 -1.00399 -2.82065 0
M  V30 9099 H 875.559 -0.484237 -1.35614 0
M  V30 9100 H 877.512 1.08757 -4.07124 0
M  V30 9101 H 876.236 1.50249 -2.89987 0
M  V30 9102 H 874.895 -0.500525 -3.63167 0
M  V30 9103 H 874.543 1.72024 -4.7267 0
M  V30 9104 H 874.243 0.381909 -5.86358 0
M  V30 9105 H 875.767 1.30891 -5.96406 0
M  V30 9106 H 877.181 -0.941429 -5.65517 0
M  V30 9107 H 875.578 -1.72726 -5.74705 0
M  V30 9108 H 876.648 -2.08273 -4.37893 0
M  V30 9109 N 877.991 1.48044 -0.54043 0
M  V30 9110 C 878.901 2.33565 0.220163 0
M  V30 9111 C 879.917 1.47146 0.928659 0
M  V30 9112 O 881.093 1.80107 0.901295 0
M  V30 9113 C 878.158 3.2349 1.2472 0
M  V30 9114 C 877.219 4.25789 0.547938 0
M  V30 9115 C 876.452 5.11417 1.52605 0
M  V30 9116 O 876.675 4.99204 2.75956 0
M  V30 9117 O 875.609 5.92498 1.05972 0
M  V30 9118 H 879.435 2.99868 -0.480898 0
M  V30 9119 H 877.02 1.46332 -0.301226 0
M  V30 9120 H 878.902 3.79084 1.84047 0
M  V30 9121 H 877.577 2.59835 1.93048 0
M  V30 9122 H 876.484 3.74001 -0.0860941 0
M  V30 9123 H 877.817 4.92111 -0.0935896 0
M  V30 9124 N 879.47 0.276058 1.55163 0
M  V30 9125 C 880.747 -0.392292 1.91626 0
M  V30 9126 C 881.127 -1.73646 1.20043 0
M  V30 9127 O 880.475 -2.26139 0.327606 0
M  V30 9128 C 880.685 -0.531641 3.44927 0
M  V30 9129 C 882.033 -0.8141 4.16722 0
M  V30 9130 O 883.057 -0.616413 3.50826 0
M  V30 9131 O 881.916 -1.19224 5.33337 0
M  V30 9132 H 879.01 -0.214945 0.798579 0
M  V30 9133 H 881.556 0.32228 1.66612 0
M  V30 9134 H 880.328 0.414282 3.89101 0
M  V30 9135 H 879.951 -1.29564 3.75897 0
M  V30 9136 N 880.948 -1.576 0.00335426 0
M  V30 9137 C 881.878 -2.11668 -0.985839 0
M  V30 9138 C 882.859 -1.02661 -1.35627 0
M  V30 9139 O 884.044 -1.30361 -1.43943 0
M  V30 9140 C 881.174 -2.62273 -2.27662 0
M  V30 9141 C 880.128 -3.75837 -2.0477 0
M  V30 9142 C 879.454 -4.12769 -3.39891 0
M  V30 9143 C 880.754 -5.02975 -1.40759 0
M  V30 9144 H 882.448 -2.9457 -0.535637 0
M  V30 9145 H 879.994 -1.41702 -0.256204 0
M  V30 9146 H 881.947 -2.98727 -2.97221 0
M  V30 9147 H 880.671 -1.76498 -2.74802 0
M  V30 9148 H 879.33 -3.39782 -1.37636 0
M  V30 9149 H 878.978 -3.24013 -3.8474 0
M  V30 9150 H 878.678 -4.89281 -3.25389 0
M  V30 9151 H 880.202 -4.51784 -4.1076 0
M  V30 9152 H 881.616 -5.37179 -2.00279 0
M  V30 9153 H 880.013 -5.84315 -1.36734 0
M  V30 9154 H 881.083 -4.83431 -0.377218 0
M  V30 9155 N 882.426 0.269451 -1.5528 0
M  V30 9156 C 883.336 1.35511 -1.91505 0
M  V30 9157 C 884.352 1.53854 -0.812712 0
M  V30 9158 O 885.528 1.67912 -1.1121 0
M  V30 9159 C 882.593 2.6937 -2.18267 0
M  V30 9160 C 881.654 2.59743 -3.41807 0
M  V30 9161 C 880.887 3.87219 -3.67283 0
M  V30 9162 O 881.11 4.88066 -2.95208 0
M  V30 9163 O 880.044 3.87209 -4.60818 0
M  V30 9164 H 883.87 1.07785 -2.8393 0
M  V30 9165 H 881.455 0.468282 -1.41871 0
M  V30 9166 H 883.337 3.48513 -2.36889 0
M  V30 9167 H 882.012 2.96874 -1.29024 0
M  V30 9168 H 880.919 1.78964 -3.28516 0
M  V30 9169 H 882.252 2.37188 -4.3128 0
M  V30 9170 N 883.904 1.48273 0.534124 0
M  V30 9171 C 885.129 1.59988 1.31979 0
M  V30 9172 C 885.554 0.258824 1.86311 0
M  V30 9173 O 884.912 -0.768885 1.64188 0
M  V30 9174 C 884.96 2.64642 2.44943 0
M  V30 9175 O 884.064 2.21515 3.47858 0
M  V30 9176 H 883.405 0.536625 0.391063 0
M  V30 9177 H 885.935 1.94229 0.643135 0
M  V30 9178 H 885.945 2.85786 2.91187 0
M  V30 9179 H 884.62 3.62004 2.04758 0
M  V30 9180 H 883.197 2.10567 3.0776 0
M  V30 9181 N 885.382 -0.782676 1.36792 0
M  V30 9182 C 886.628 -1.54311 1.3159 0
M  V30 9183 C 886.961 -1.93928 -0.102696 0
M  V30 9184 O 886.236 -1.63233 -1.05761 0
M  V30 9185 C 886.519 -2.81561 2.24489 0
M  V30 9186 C 886.372 -2.48268 3.75078 0
M  V30 9187 C 887.691 -3.83428 2.16034 0
M  V30 9188 H 884.81 -0.559828 0.479335 0
M  V30 9189 H 887.452 -0.898717 1.67401 0
M  V30 9190 H 885.602 -3.36549 1.9408 0
M  V30 9191 H 887.274 -1.99279 4.16036 0
M  V30 9192 H 885.517 -1.81116 3.94182 0
M  V30 9193 H 886.188 -3.39183 4.35499 0
M  V30 9194 H 888.664 -3.37905 2.42815 0
M  V30 9195 H 887.54 -4.70204 2.83194 0
M  V30 9196 H 887.801 -4.26887 1.14976 0
M  V30 9197 N 886.86 -1.21182 -1.00761 0
M  V30 9198 C 888.085 -1.05411 -1.78615 0
M  V30 9199 C 888.51 0.391837 -1.83973 0
M  V30 9200 O 887.868 1.28256 -1.28141 0
M  V30 9201 C 887.916 -1.65285 -3.20489 0
M  V30 9202 O 887.02 -0.896558 -4.02536 0
M  V30 9203 H 886.361 -0.37116 -0.550578 0
M  V30 9204 H 888.891 -1.60669 -1.26676 0
M  V30 9205 H 888.901 -1.69397 -3.71172 0
M  V30 9206 H 887.576 -2.70514 -3.15904 0
M  V30 9207 H 886.153 -0.930335 -3.61108 0
M  V30 9208 N 888.338 1.20213 -1.01915 0
M  V30 9209 C 889.301 2.21307 -0.596327 0
M  V30 9210 C 890.301 1.57274 0.334879 0
M  V30 9211 O 891.491 1.73764 0.12322 0
M  V30 9212 C 888.623 3.40657 0.128808 0
M  V30 9213 H 889.816 2.60228 -1.49068 0
M  V30 9214 H 887.369 1.33721 -0.809226 0
M  V30 9215 H 888.104 3.07241 1.03796 0
M  V30 9216 H 887.889 3.88361 -0.540183 0
M  V30 9217 H 889.379 4.15564 0.411892 0
M  V30 9218 N 889.816 0.795718 1.36037 0
M  V30 9219 C 891.041 0.38204 2.03851 0
M  V30 9220 C 891.466 -0.995553 1.59594 0
M  V30 9221 O 890.824 -1.64258 0.767401 0
M  V30 9222 C 890.872 0.461248 3.57638 0
M  V30 9223 O 889.976 -0.529448 4.08987 0
M  V30 9224 H 889.317 0.161227 0.644129 0
M  V30 9225 H 891.847 1.07858 1.73861 0
M  V30 9226 H 891.857 0.32712 4.06687 0
M  V30 9227 H 890.532 1.46613 3.89201 0
M  V30 9228 H 889.109 -0.35646 3.71192 0
M  V30 9229 N 891.294 -1.47756 0.548274 0
M  V30 9230 C 892.522 -2.06884 0.0254873 0
M  V30 9231 C 892.937 -1.40225 -1.26422 0
M  V30 9232 O 892.294 -0.495776 -1.75637 0
M  V30 9233 C 892.345 -3.61036 -0.183134 0
M  V30 9234 O 892.066 -4.25195 1.05549 0
M  V30 9235 C 893.567 -4.37008 -0.744222 0
M  V30 9236 H 890.787 -0.669697 0.041789 0
M  V30 9237 H 893.331 -1.89888 0.759138 0
M  V30 9238 H 891.486 -3.77576 -0.866886 0
M  V30 9239 H 891.9 -5.17606 0.847629 0
M  V30 9240 H 893.374 -5.45579 -0.839529 0
M  V30 9241 H 893.851 -4.0268 -1.75344 0
M  V30 9242 H 894.457 -4.25191 -0.0964542 0
M  V30 9243 N 892.772 -0.284283 -1.55015 0
M  V30 9244 C 894 0.332948 -2.04203 0
M  V30 9245 C 894.415 1.48783 -1.16229 0
M  V30 9246 O 893.772 1.81567 -0.184323 0
M  V30 9247 C 893.823 0.805207 -3.52418 0
M  V30 9248 O 893.544 -0.303689 -4.37046 0
M  V30 9249 C 895.045 1.48931 -4.17534 0
M  V30 9250 H 892.265 0.0747447 -0.666824 0
M  V30 9251 H 894.809 -0.419048 -2.00161 0
M  V30 9252 H 892.964 1.50727 -3.56876 0
M  V30 9253 H 893.378 0.0609703 -5.24465 0
M  V30 9254 H 894.852 1.77108 -5.22816 0
M  V30 9255 H 895.329 2.42389 -3.66257 0
M  V30 9256 H 895.935 0.830867 -4.17105 0
M  V30 9257 N 894.251 1.57596 -0.0117121 0
M  V30 9258 C 895.497 1.91355 0.671661 0
M  V30 9259 C 895.83 0.886818 1.72769 0
M  V30 9260 O 895.105 -0.0928813 1.94278 0
M  V30 9261 C 895.388 3.35657 1.30409 0
M  V30 9262 C 895.241 4.49055 0.2588 0
M  V30 9263 C 896.56 3.79595 2.22701 0
M  V30 9264 H 893.679 0.695893 0.242698 0
M  V30 9265 H 896.321 1.89887 -0.0654071 0
M  V30 9266 H 894.471 3.37038 1.9323 0
M  V30 9267 H 896.143 4.59809 -0.370631 0
M  V30 9268 H 894.386 4.31785 -0.417672 0
M  V30 9269 H 895.057 5.4701 0.740578 0
M  V30 9270 H 897.533 3.7984 1.69885 0
M  V30 9271 H 896.409 4.81292 2.63912 0
M  V30 9272 H 896.67 3.14118 3.11098 0
M  V30 9273 N 895.729 -0.261212 1.5542 0
M  V30 9274 C 896.954 -1.01341 1.80955 0
M  V30 9275 C 897.379 -1.78711 0.586849 0
M  V30 9276 O 896.737 -1.75266 -0.463837 0
M  V30 9277 C 896.785 -1.93835 3.04073 0
M  V30 9278 O 895.889 -3.02791 2.79985 0
M  V30 9279 H 895.23 -0.289123 0.597749 0
M  V30 9280 H 897.76 -0.286543 2.02584 0
M  V30 9281 H 897.77 -2.3557 3.33123 0
M  V30 9282 H 896.445 -1.36936 3.9271 0
M  V30 9283 H 895.022 -2.65287 2.62063 0
M  V30 9284 N 897.207 -1.48554 -0.526253 0
M  V30 9285 C 898.618 -1.50256 -1.10815 0
M  V30 9286 C 898.969 -0.274445 -1.94271 0
M  V30 9287 O 898.094 0.618094 -2.07385 0
M  V30 9288 C 898.689 -2.72264 -2.01638 0
M  V30 9289 C 897.248 -2.76826 -2.55038 0
M  V30 9290 C 896.395 -2.43823 -1.32081 0
M  V30 9291 H 899.346 -1.55616 -0.31133 0
M  V30 9292 H 899.367 -2.50993 -2.85977 0
M  V30 9293 H 898.879 -3.61632 -1.4087 0
M  V30 9294 H 896.98 -1.91676 -3.19517 0
M  V30 9295 H 897.093 -3.78351 -2.93917 0
M  V30 9296 H 895.457 -1.95058 -1.63781 0
M  V30 9297 H 896.24 -3.35436 -0.730596 0
M  V30 9298 N 898.685 0.775411 -1.37205 0
M  V30 9299 C 899.615 1.90258 -1.35367 0
M  V30 9300 C 900.596 1.68634 -0.222864 0
M  V30 9301 O 901.781 1.89545 -0.422659 0
M  V30 9302 C 898.911 3.27488 -1.15623 0
M  V30 9303 C 897.865 3.63668 -2.25676 0
M  V30 9304 C 897.191 4.994 -1.91059 0
M  V30 9305 C 898.491 3.70797 -3.67841 0
M  V30 9306 H 900.185 1.92053 -2.29687 0
M  V30 9307 H 897.731 0.922597 -1.10563 0
M  V30 9308 H 899.684 4.05976 -1.12968 0
M  V30 9309 H 898.408 3.26117 -0.177573 0
M  V30 9310 H 897.067 2.87486 -2.2748 0
M  V30 9311 H 896.715 4.94565 -0.917324 0
M  V30 9312 H 896.415 5.24576 -2.64751 0
M  V30 9313 H 897.939 5.80291 -1.89985 0
M  V30 9314 H 899.353 4.39444 -3.68187 0
M  V30 9315 H 897.75 4.07468 -4.40556 0
M  V30 9316 H 898.82 2.71549 -4.01732 0
M  V30 9317 N 900.163 1.21714 1.00117 0
M  V30 9318 C 901.412 1.03087 1.73367 0
M  V30 9319 C 901.725 -0.435532 1.90689 0
M  V30 9320 O 902.931 -0.741291 2.61184 0
M  V30 9321 C 901.387 1.79593 3.11888 0
M  V30 9322 C 900.995 3.30428 3.02525 0
M  V30 9323 C 902.739 1.69386 3.89241 0
M  V30 9324 C 900.646 3.99408 4.3615 0
M  V30 9325 H 899.576 0.382117 0.650002 0
M  V30 9326 H 902.227 1.45486 1.11831 0
M  V30 9327 H 900.609 1.29988 3.74058 0
M  V30 9328 H 901.783 3.87364 2.49571 0
M  V30 9329 H 900.098 3.4122 2.38659 0
M  V30 9330 H 902.695 2.18251 4.8813 0
M  V30 9331 H 903.038 0.652773 4.1115 0
M  V30 9332 H 903.571 2.16489 3.33733 0
M  V30 9333 H 900.31 5.03735 4.19442 0
M  V30 9334 H 899.83 3.47261 4.8905 0
M  V30 9335 H 901.509 4.04537 5.04934 0
M  V30 9336 N 901.641 -1.19671 1.02551 0
M  V30 9337 C 902.574 -2.21522 0.547998 0
M  V30 9338 C 903.552 -1.57363 -0.409349 0
M  V30 9339 O 904.736 -1.85638 -0.327248 0
M  V30 9340 C 901.863 -3.38101 -0.201375 0
M  V30 9341 C 900.909 -4.20601 0.706886 0
M  V30 9342 S 901.742 -4.89066 2.18116 0
M  V30 9343 C 902.898 -6.09058 1.4422 0
M  V30 9344 H 903.131 -2.61684 1.41099 0
M  V30 9345 H 900.664 -1.29864 0.835153 0
M  V30 9346 H 902.622 -4.05674 -0.627607 0
M  V30 9347 H 901.283 -2.96381 -1.04005 0
M  V30 9348 H 900.476 -5.03836 0.128554 0
M  V30 9349 H 900.078 -3.58329 1.07129 0
M  V30 9350 H 902.37 -6.73588 0.726975 0
M  V30 9351 H 903.313 -6.71368 2.25102 0
M  V30 9352 H 903.721 -5.56599 0.941176 0
M  V30 9353 N 903.119 -0.802921 -1.35613 0
M  V30 9354 C 904.53 -0.443004 -1.81368 0
M  V30 9355 C 904.881 1.03459 -1.66706 0
M  V30 9356 O 904.006 1.80372 -1.19561 0
M  V30 9357 C 904.601 -0.797324 -3.29284 0
M  V30 9358 C 903.16 -0.490055 -3.73196 0
M  V30 9359 C 902.307 -1.02487 -2.57666 0
M  V30 9360 H 905.258 -0.994888 -1.23643 0
M  V30 9361 H 905.279 -0.0934638 -3.80385 0
M  V30 9362 H 904.791 -1.87278 -3.39924 0
M  V30 9363 H 902.892 0.576818 -3.68108 0
M  V30 9364 H 903.005 -1.02012 -4.68114 0
M  V30 9365 H 901.369 -0.44738 -2.5074 0
M  V30 9366 H 902.152 -2.10636 -2.71085 0
M  V30 9367 N 904.597 1.47463 -0.556102 0
M  V30 9368 C 905.874 1.9557 0.0339892 0
M  V30 9369 C 906.254 1.49869 1.48669 0
M  V30 9370 O 905.602 0.737019 2.16288 0
M  V30 9371 C 905.812 3.48826 -0.110343 0
M  V30 9372 C 907.16 4.24585 0.0355716 0
M  V30 9373 O 908.184 3.5618 -0.0378356 0
M  V30 9374 O 907.043 5.46158 0.193299 0
M  V30 9375 H 904.137 0.824461 0.0647521 0
M  V30 9376 H 906.683 1.57868 -0.622547 0
M  V30 9377 H 905.455 3.74891 -1.12126 0
M  V30 9378 H 905.078 3.9329 0.583855 0
M  V30 9379 N 906.075 0.2925 1.54862 0
M  V30 9380 C 907.023 -0.603186 2.24643 0
M  V30 9381 C 908.017 -1.1439 1.24946 0
M  V30 9382 O 909.223 -1.09552 1.42823 0
M  V30 9383 H 905.598 -0.213105 0.721173 0
M  V30 9384 H 907.569 0.00799278 2.98399 0
M  V30 9385 C 906.318 -1.76769 2.99413 0
M  V30 9386 H 905.641 -1.36084 3.75927 0
M  V30 9387 H 907.081 -2.37066 3.51533 0
M  V30 9388 C 905.54 -2.66669 2.05886 0
M  V30 9389 O 906.07 -3.67525 1.62136 0
M  V30 9390 N 904.276 -2.34216 1.7202 0
M  V30 9391 H 903.823 -1.52246 2.07795 0
M  V30 9392 H 903.781 -2.94635 1.09717 0
M  V30 9393 N 907.553 -1.57587 0.0200696 0
M  V30 9394 C 908.501 -2.10814 -0.982868 0
M  V30 9395 C 909.495 -1.03263 -1.34287 0
M  V30 9396 O 910.701 -1.21708 -1.32617 0
M  V30 9397 H 907.076 -0.673409 -0.334701 0
M  V30 9398 H 909.047 -2.94034 -0.50856 0
M  V30 9399 C 907.796 -2.64301 -2.25921 0
M  V30 9400 H 907.119 -3.46703 -1.99091 0
M  V30 9401 H 908.559 -3.052 -2.94328 0
M  V30 9402 C 907.018 -1.56628 -2.98277 0
M  V30 9403 O 907.548 -0.960825 -3.9004 0
M  V30 9404 N 905.754 -1.28889 -2.60453 0
M  V30 9405 H 905.301 -1.7831 -1.85912 0
M  V30 9406 H 905.259 -0.570697 -3.09177 0
M  V30 9407 N 909.032 0.252966 -1.55557 0
M  V30 9408 C 910.28 0.979912 -1.76754 0
M  V30 9409 C 910.601 1.86083 -0.582944 0
M  V30 9410 O 909.871 1.91742 0.401497 0
M  V30 9411 H 908.451 0.364805 -0.651864 0
M  V30 9412 H 911.113 0.272372 -1.92987 0
M  V30 9413 H 910.209 1.60518 -2.67657 0
M  V30 9414 N 910.51 1.48831 0.518367 0
M  V30 9415 C 911.735 1.61379 1.30275 0
M  V30 9416 C 912.16 0.278571 1.86026 0
M  V30 9417 O 911.518 -0.751427 1.64995 0
M  V30 9418 C 911.566 2.67225 2.42122 0
M  V30 9419 O 910.67 2.25192 3.45489 0
M  V30 9420 H 910.011 0.540742 0.385349 0
M  V30 9421 H 912.541 1.949 0.622498 0
M  V30 9422 H 912.551 2.88859 2.8814 0
M  V30 9423 H 911.226 3.64155 2.00907 0
M  V30 9424 H 909.803 2.13819 3.05509 0
M  V30 9425 N 911.988 -0.768124 1.37614 0
M  V30 9426 C 913.213 -1.56239 1.36397 0
M  V30 9427 C 913.638 -1.8804 -0.0475839 0
M  V30 9428 O 912.996 -1.495 -1.02564 0
M  V30 9429 C 913.044 -2.84716 2.21289 0
M  V30 9430 O 912.148 -3.79249 1.62001 0
M  V30 9431 H 911.489 -0.473119 0.465891 0
M  V30 9432 H 914.019 -0.950415 1.81186 0
M  V30 9433 H 914.029 -3.33784 2.34632 0
M  V30 9434 H 912.704 -2.60899 3.2389 0
M  V30 9435 H 911.281 -3.37904 1.57719 0
M  V30 9436 N 913.466 -1.22244 -0.994698 0
M  V30 9437 C 914.399 -0.934168 -2.08203 0
M  V30 9438 C 915.377 0.122231 -1.6214 0
M  V30 9439 O 916.561 -0.00896598 -1.88498 0
M  V30 9440 C 913.688 -0.404646 -3.36274 0
M  V30 9441 C 912.734 -1.44544 -4.01259 0
M  V30 9442 S 913.567 -3.01816 -4.42343 0
M  V30 9443 C 914.723 -2.50497 -5.73587 0
M  V30 9444 H 914.956 -1.85493 -2.32335 0
M  V30 9445 H 912.489 -1.0533 -1.12893 0
M  V30 9446 H 914.447 -0.105719 -4.10364 0
M  V30 9447 H 913.108 0.494971 -3.10176 0
M  V30 9448 H 912.301 -1.02478 -4.93472 0
M  V30 9449 H 911.903 -1.69298 -3.33488 0
M  V30 9450 H 914.195 -1.91626 -6.49835 0
M  V30 9451 H 915.138 -3.41193 -6.20478 0
M  V30 9452 H 915.546 -1.91845 -5.30901 0
M  V30 9453 N 914.944 1.19125 -1.03184 0
M  V30 9454 C 916.221 1.84674 -0.644574 0
M  V30 9455 C 916.601 1.92042 0.876534 0
M  V30 9456 O 915.949 1.43965 1.77444 0
M  V30 9457 C 916.159 3.23477 -1.3101 0
M  V30 9458 C 917.507 3.99608 -1.43524 0
M  V30 9459 O 918.531 3.32886 -1.2675 0
M  V30 9460 O 917.39 5.19132 -1.70776 0
M  V30 9461 H 914.484 0.795968 -0.22442 0
M  V30 9462 H 917.03 1.2659 -1.13018 0
M  V30 9463 H 915.802 3.12967 -2.34878 0
M  V30 9464 H 915.425 3.89209 -0.812547 0
M  V30 9465 N 916.422 0.810101 1.35185 0
M  V30 9466 C 917.699 0.315235 1.93043 0
M  V30 9467 C 918.079 -1.19567 1.73974 0
M  V30 9468 O 917.427 -1.99682 1.11083 0
M  V30 9469 C 917.637 0.730492 3.41269 0
M  V30 9470 C 918.985 0.721985 4.18417 0
M  V30 9471 O 920.009 0.672258 3.49799 0
M  V30 9472 O 918.868 0.783535 5.40854 0
M  V30 9473 H 915.962 0.0832774 0.822796 0
M  V30 9474 H 918.508 0.894034 1.4424 0
M  V30 9475 H 917.28 1.77169 3.48894 0
M  V30 9476 H 916.903 0.12669 3.97398 0
M  V30 9477 N 917.9 -1.47166 0.563914 0
M  V30 9478 C 919.146 -2.03337 0.0506932 0
M  V30 9479 C 919.501 -1.42976 -1.28746 0
M  V30 9480 O 918.794 -0.578508 -1.82658 0
M  V30 9481 C 918.988 -3.57279 -0.0931797 0
M  V30 9482 C 918.817 -4.32567 1.22948 0
M  V30 9483 C 917.587 -4.72206 1.79859 0
M  V30 9484 C 919.785 -4.67282 2.14829 0
M  V30 9485 N 917.767 -5.32166 3.0606 0
M  V30 9486 C 919.138 -5.27615 3.25611 0
M  V30 9487 C 921.193 -4.49211 2.14741 0
M  V30 9488 C 919.896 -5.71784 4.36412 0
M  V30 9489 C 921.922 -4.94384 3.24559 0
M  V30 9490 C 921.284 -5.54771 4.34061 0
M  V30 9491 H 917.383 -0.779627 0.0608761 0
M  V30 9492 H 919.967 -1.79563 0.75268 0
M  V30 9493 H 918.138 -3.80806 -0.764301 0
M  V30 9494 H 919.87 -4.0009 -0.609075 0
M  V30 9495 H 916.625 -4.54372 1.33577 0
M  V30 9496 H 917.049 -5.66684 3.70404 0
M  V30 9497 H 921.691 -4.01875 1.31362 0
M  V30 9498 H 919.409 -6.18108 5.20546 0
M  V30 9499 H 922.995 -4.82167 3.25586 0
M  V30 9500 H 921.875 -5.89087 5.17635 0
M  V30 9501 N 919.378 -0.300708 -1.54705 0
M  V30 9502 C 920.288 0.584996 -2.27189 0
M  V30 9503 C 921.304 1.14866 -1.30697 0
M  V30 9504 O 922.48 1.17351 -1.63679 0
M  V30 9505 C 919.545 1.74076 -2.99831 0
M  V30 9506 C 918.606 1.2112 -4.1186 0
M  V30 9507 C 917.839 2.31188 -4.81028 0
M  V30 9508 O 918.062 3.5108 -4.49554 0
M  V30 9509 O 916.996 1.97897 -5.68437 0
M  V30 9510 H 920.822 -0.00298177 -3.037 0
M  V30 9511 H 918.407 -0.0671802 -1.49249 0
M  V30 9512 H 920.289 2.41413 -3.45395 0
M  V30 9513 H 918.964 2.31535 -2.26215 0
M  V30 9514 H 917.871 0.50357 -3.70695 0
M  V30 9515 H 919.204 0.682046 -4.87452 0
M  V30 9516 N 920.856 1.57574 -0.0284266 0
M  V30 9517 C 921.766 2.13637 0.96936 0
M  V30 9518 C 922.782 1.08845 1.35752 0
M  V30 9519 O 923.958 1.40899 1.43908 0
M  V30 9520 C 921.023 2.65179 2.2334 0
M  V30 9521 C 920.084 3.84683 1.90572 0
M  V30 9522 C 919.317 4.33758 3.1095 0
M  V30 9523 O 919.54 3.82009 4.23586 0
M  V30 9524 O 918.474 5.2561 2.93288 0
M  V30 9525 H 922.3 2.99169 0.52267 0
M  V30 9526 H 919.885 1.48159 0.192135 0
M  V30 9527 H 921.767 2.98402 2.97547 0
M  V30 9528 H 920.442 1.82731 2.67191 0
M  V30 9529 H 919.349 3.56386 1.13753 0
M  V30 9530 H 920.682 4.68292 1.51538 0
M  V30 9531 N 922.334 -0.244713 1.55689 0
M  V30 9532 C 923.75 -0.593331 1.48161 0
M  V30 9533 C 923.95 -1.88234 0.719047 0
M  V30 9534 O 923.006 -2.51266 0.249292 0
M  V30 9535 C 924.319 -0.694032 2.92581 0
M  V30 9536 C 925.867 -0.786213 3.02965 0
M  V30 9537 C 926.342 -0.918457 4.48696 0
M  V30 9538 N 927.833 -0.983272 4.52643 0
M  V30 9539 C 928.568 -1.1049 5.62654 0
M  V30 9540 N 928.064 -1.19193 6.8247 0
M  V30 9541 N 929.857 -1.13823 5.50455 0
M  V30 9542 H 922.008 0.601446 2.03707 0
M  V30 9543 H 924.271 0.207894 0.924924 0
M  V30 9544 H 923.977 0.183133 3.51223 0
M  V30 9545 H 923.851 -1.56525 3.4319 0
M  V30 9546 H 926.238 -1.65383 2.44402 0
M  V30 9547 H 926.319 0.110202 2.55563 0
M  V30 9548 H 925.963 -0.0553881 5.0787 0
M  V30 9549 H 925.893 -1.82994 4.93782 0
M  V30 9550 H 928.384 -0.927269 3.66347 0
M  V30 9551 H 928.697 -1.28387 7.62061 0
M  V30 9552 H 927.042 -1.16147 6.85226 0
M  V30 9553 H 930.233 -1.06673 4.55783 0
M  V30 9554 H 930.406 -1.22957 6.36228 0
M  V30 9555 N 923.813 -1.49104 -0.510467 0
M  V30 9556 C 924.745 -1.61183 -1.6295 0
M  V30 9557 C 925.758 -0.495003 -1.55092 0
M  V30 9558 O 926.947 -0.766671 -1.61197 0
M  V30 9559 C 924.047 -1.54373 -3.01699 0
M  V30 9560 C 923.22 -2.81428 -3.34838 0
M  V30 9561 C 922.279 -2.67802 -4.52956 0
M  V30 9562 O 921.305 -3.41723 -4.55208 0
M  V30 9563 N 922.507 -1.78715 -5.52305 0
M  V30 9564 H 925.272 -2.57693 -1.53018 0
M  V30 9565 H 922.833 -1.46073 -0.698152 0
M  V30 9566 H 924.825 -1.42924 -3.78622 0
M  V30 9567 H 923.395 -0.657597 -3.05605 0
M  V30 9568 H 922.615 -3.07299 -2.46903 0
M  V30 9569 H 923.903 -3.6568 -3.53773 0
M  V30 9570 H 923.301 -1.17897 -5.53278 0
M  V30 9571 H 921.858 -1.73194 -6.28369 0
M  V30 9572 N 925.291 0.760815 -1.38019 0
M  V30 9573 C 926.519 1.55001 -1.37048 0
M  V30 9574 C 926.934 1.88754 0.0415261 0
M  V30 9575 O 926.291 1.52254 1.00624 0
M  V30 9576 C 926.342 2.8536 -2.21928 0
M  V30 9577 O 926.063 2.53049 -3.57628 0
M  V30 9578 C 927.564 3.79536 -2.29057 0
M  V30 9579 H 924.784 0.479844 -0.469032 0
M  V30 9580 H 927.328 0.942148 -1.81504 0
M  V30 9581 H 925.483 3.42542 -1.80953 0
M  V30 9582 H 925.897 3.36604 -4.02241 0
M  V30 9583 H 927.371 4.67977 -2.92749 0
M  V30 9584 H 927.848 4.19453 -1.30213 0
M  V30 9585 H 928.454 3.28281 -2.70392 0
M  V30 9586 N 926.769 1.22769 0.988202 0
M  V30 9587 C 927.994 1.08239 1.76915 0
M  V30 9588 C 928.419 -0.362519 1.84574 0
M  V30 9589 O 927.777 -1.26202 1.30165 0
M  V30 9590 C 927.825 1.70363 3.17819 0
M  V30 9591 O 926.929 0.960484 4.01059 0
M  V30 9592 H 926.27 0.379872 0.544604 0
M  V30 9593 H 928.8 1.62663 1.24104 0
M  V30 9594 H 928.81 1.7528 3.6843 0
M  V30 9595 H 927.485 2.75505 3.1156 0
M  V30 9596 H 926.062 0.987667 3.59582 0
M  V30 9597 N 928.247 -1.18576 1.03814 0
M  V30 9598 C 929.495 -1.88121 0.738574 0
M  V30 9599 C 929.816 -1.80587 -0.735744 0
M  V30 9600 O 929.086 -1.22251 -1.53074 0
M  V30 9601 H 927.666 -0.696417 0.270208 0
M  V30 9602 H 930.328 -1.43912 1.31435 0
M  V30 9603 H 929.424 -2.94222 1.04115 0
M  V30 9604 N 929.725 -0.817259 -1.34754 0
M  V30 9605 C 931.141 -0.502309 -1.51489 0
M  V30 9606 C 931.341 0.974568 -1.76364 0
M  V30 9607 O 930.397 1.75924 -1.81127 0
M  V30 9608 C 931.71 -1.35693 -2.68343 0
M  V30 9609 C 933.258 -1.35347 -2.82224 0
M  V30 9610 C 933.733 -2.19244 -4.02114 0
M  V30 9611 N 935.224 -2.16837 -4.09311 0
M  V30 9612 C 935.959 -2.78505 -5.01221 0
M  V30 9613 N 935.455 -3.4914 -5.98392 0
M  V30 9614 N 937.248 -2.68089 -4.94049 0
M  V30 9615 H 929.399 -1.77359 -1.16866 0
M  V30 9616 H 931.662 -0.755476 -0.572678 0
M  V30 9617 H 931.368 -2.40548 -2.56573 0
M  V30 9618 H 931.242 -1.01764 -3.63213 0
M  V30 9619 H 933.629 -0.312727 -2.93438 0
M  V30 9620 H 933.71 -1.7327 -1.88179 0
M  V30 9621 H 933.354 -3.23365 -3.9166 0
M  V30 9622 H 933.284 -1.78675 -4.95361 0
M  V30 9623 H 935.775 -1.65452 -3.39756 0
M  V30 9624 H 936.088 -3.93455 -6.65141 0
M  V30 9625 H 934.433 -3.53246 -5.98533 0
M  V30 9626 H 937.624 -2.12485 -4.17094 0
M  V30 9627 H 937.797 -3.16436 -5.65484 0
M  V30 9628 N 931.203 1.46865 -0.571711 0
M  V30 9629 C 932.452 2.01636 -0.050881 0
M  V30 9630 C 932.765 1.45001 1.31279 0
M  V30 9631 O 933.971 1.91523 1.92435 0
M  V30 9632 C 932.427 3.59877 -0.0404114 0
M  V30 9633 C 932.035 4.25506 -1.40172 0
M  V30 9634 C 933.779 4.22346 0.42705 0
M  V30 9635 C 931.686 5.75795 -1.34958 0
M  V30 9636 H 930.616 0.753846 -0.0152514 0
M  V30 9637 H 933.267 1.68711 -0.721723 0
M  V30 9638 H 931.649 3.89829 0.696374 0
M  V30 9639 H 932.823 4.07178 -2.15737 0
M  V30 9640 H 931.138 3.75086 -1.8083 0
M  V30 9641 H 933.735 5.32499 0.484688 0
M  V30 9642 H 934.078 3.9052 1.44222 0
M  V30 9643 H 934.611 3.9698 -0.255326 0
M  V30 9644 H 931.35 6.12265 -2.3412 0
M  V30 9645 H 930.87 5.96419 -0.635962 0
M  V30 9646 H 932.549 6.38294 -1.05779 0
M  V30 9647 N 932.681 0.308908 1.54543 0
M  V30 9648 C 933.909 -0.300418 2.04707 0
M  V30 9649 C 934.324 -1.46915 1.18581 0
M  V30 9650 O 933.681 -1.81251 0.213186 0
M  V30 9651 C 933.732 -0.749038 3.53655 0
M  V30 9652 O 933.453 0.373181 4.36508 0
M  V30 9653 C 934.954 -1.4227 4.1985 0
M  V30 9654 H 932.174 -0.0641267 0.667929 0
M  V30 9655 H 934.718 0.450839 1.99469 0
M  V30 9656 H 932.873 -1.4503 3.59228 0
M  V30 9657 H 933.287 0.0224752 5.24495 0
M  V30 9658 H 934.761 -1.68768 5.25568 0
M  V30 9659 H 935.238 -2.36531 3.70067 0
M  V30 9660 H 935.844 -0.764404 4.18374 0
M  V30 9661 N 934.159 -1.57557 0.0367827 0
M  V30 9662 C 935.069 -2.14148 -0.958017 0
M  V30 9663 C 936.085 -1.09564 -1.35173 0
M  V30 9664 O 937.261 -1.4166 -1.43158 0
M  V30 9665 C 934.326 -2.6636 -2.21931 0
M  V30 9666 C 933.387 -3.85688 -1.8853 0
M  V30 9667 C 932.62 -4.35401 -3.08645 0
M  V30 9668 O 932.843 -3.8425 -4.21554 0
M  V30 9669 O 931.777 -5.27158 -2.90497 0
M  V30 9670 H 935.603 -2.99442 -0.506797 0
M  V30 9671 H 933.188 -1.48259 -0.184275 0
M  V30 9672 H 935.07 -2.99976 -2.9596 0
M  V30 9673 H 933.745 -1.84145 -2.66219 0
M  V30 9674 H 932.652 -3.56985 -1.11861 0
M  V30 9675 H 933.985 -4.69089 -1.49052 0
M  V30 9676 N 935.637 0.236453 -1.55816 0
M  V30 9677 C 936.547 1.31418 -1.94336 0
M  V30 9678 C 937.563 1.52095 -0.845164 0
M  V30 9679 O 938.739 1.65515 -1.14746 0
M  V30 9680 C 935.804 2.6468 -2.23932 0
M  V30 9681 C 934.865 2.52435 -3.47239 0
M  V30 9682 C 934.098 3.79342 -3.75414 0
M  V30 9683 O 934.321 4.81694 -3.05495 0
M  V30 9684 O 933.255 3.77347 -4.68927 0
M  V30 9685 H 937.081 1.01739 -2.86152 0
M  V30 9686 H 934.666 0.438084 -1.42833 0
M  V30 9687 H 936.548 3.4341 -2.44228 0
M  V30 9688 H 935.223 2.94071 -1.35292 0
M  V30 9689 H 934.13 1.71955 -3.32238 0
M  V30 9690 H 935.463 2.27987 -4.36214 0
M  V30 9691 N 937.115 1.49373 0.502552 0
M  V30 9692 C 938.362 1.58781 1.25678 0
M  V30 9693 C 938.69 0.273819 1.92563 0
M  V30 9694 O 937.945 -0.738141 1.81246 0
M  V30 9695 C 938.244 2.69508 2.34735 0
M  V30 9696 C 937.91 4.11057 1.85318 0
M  V30 9697 C 936.572 4.49578 1.7156 0
M  V30 9698 C 938.924 4.99653 1.48312 0
M  V30 9699 C 936.252 5.74469 1.19172 0
M  V30 9700 C 938.604 6.2506 0.97377 0
M  V30 9701 C 937.268 6.62412 0.822573 0
M  V30 9702 H 936.538 0.581021 0.459887 0
M  V30 9703 H 939.185 1.83197 0.557767 0
M  V30 9704 H 937.49 2.39057 3.10418 0
M  V30 9705 H 939.187 2.73997 2.92791 0
M  V30 9706 H 935.777 3.80651 1.96985 0
M  V30 9707 H 939.961 4.70549 1.57789 0
M  V30 9708 H 935.217 6.0211 1.06176 0
M  V30 9709 H 939.391 6.93089 0.678233 0
M  V30 9710 H 937.018 7.59069 0.414453 0
M  V30 9711 N 938.594 -0.753485 1.38421 0
M  V30 9712 C 939.524 -1.8808 1.38377 0
M  V30 9713 C 940.505 -1.68258 0.249664 0
M  V30 9714 O 941.69 -1.88848 0.45276 0
M  V30 9715 C 938.82 -3.25608 1.20818 0
M  V30 9716 C 937.774 -3.60032 2.31433 0
M  V30 9717 C 937.1 -4.96297 1.9898 0
M  V30 9718 C 938.4 -3.64898 3.73694 0
M  V30 9719 H 940.094 -1.88375 2.32713 0
M  V30 9720 H 937.64 -0.90489 1.12017 0
M  V30 9721 H 939.593 -4.04127 1.19412 0
M  V30 9722 H 938.317 -3.25793 0.229433 0
M  V30 9723 H 936.976 -2.83831 2.32025 0
M  V30 9724 H 936.624 -4.93043 0.995889 0
M  V30 9725 H 936.324 -5.20298 2.73063 0
M  V30 9726 H 937.848 -5.77196 1.99193 0
M  V30 9727 H 939.262 -4.33531 3.75132 0
M  V30 9728 H 937.659 -4.00407 4.46983 0
M  V30 9729 H 938.729 -2.65124 4.06002 0
M  V30 9730 N 940.072 -1.23292 -0.981677 0
M  V30 9731 C 941.32 -1.06214 -1.71939 0
M  V30 9732 C 941.641 0.401989 -1.90812 0
M  V30 9733 O 940.911 1.28825 -1.47584 0
M  V30 9734 H 939.491 -0.390042 -0.637084 0
M  V30 9735 H 942.153 -1.54988 -1.18173 0
M  V30 9736 H 941.249 -1.54904 -2.70945 0
M  V30 9737 N 941.55 1.18024 -1.04442 0
M  V30 9738 C 942.497 2.21785 -0.638759 0
M  V30 9739 C 943.467 1.62255 0.355312 0
M  V30 9740 O 944.652 1.89176 0.24844 0
M  V30 9741 C 941.792 3.45098 -0.0118002 0
M  V30 9742 C 940.905 4.1895 -1.05379 0
M  V30 9743 C 940.04 5.2973 -0.394951 0
M  V30 9744 C 939.079 5.95359 -1.42178 0
M  V30 9745 N 938.216 6.97668 -0.787635 0
M  V30 9746 H 943.056 2.55839 -1.52808 0
M  V30 9747 H 940.593 1.25681 -0.764378 0
M  V30 9748 H 942.551 4.15564 0.369075 0
M  V30 9749 H 941.181 3.11652 0.84102 0
M  V30 9750 H 940.233 3.47274 -1.55258 0
M  V30 9751 H 941.545 4.63877 -1.83355 0
M  V30 9752 H 940.699 6.06687 0.0399244 0
M  V30 9753 H 939.438 4.85915 0.416867 0
M  V30 9754 H 938.443 5.17139 -1.86675 0
M  V30 9755 H 939.668 6.41255 -2.23536 0
M  V30 9756 H 937.614 6.56 0.00380893 0
M  V30 9757 H 937.531 7.40867 -1.50505 0
M  V30 9758 H 938.799 7.78586 -0.377282 0
M  V30 9759 N 943.028 0.824394 1.34319 0
M  V30 9760 C 944.258 0.425576 2.02169 0
M  V30 9761 C 944.666 -0.973596 1.62227 0
M  V30 9762 O 944.009 -1.64173 0.824199 0
M  V30 9763 C 944.071 0.449902 3.56674 0
M  V30 9764 C 943.735 1.80266 4.19944 0
M  V30 9765 C 944.732 2.76373 4.40357 0
M  V30 9766 C 942.417 2.09155 4.56683 0
M  V30 9767 C 944.411 3.9954 4.96635 0
M  V30 9768 C 942.098 3.32581 5.12672 0
M  V30 9769 C 943.096 4.27591 5.32592 0
M  V30 9770 O 942.784 5.48837 5.87395 0
M  V30 9771 H 942.516 0.168866 0.654569 0
M  V30 9772 H 945.07 1.11441 1.7254 0
M  V30 9773 H 943.3 -0.295631 3.85568 0
M  V30 9774 H 944.989 0.0709302 4.05838 0
M  V30 9775 H 945.755 2.55351 4.12336 0
M  V30 9776 H 941.634 1.36004 4.40481 0
M  V30 9777 H 945.178 4.73709 5.12099 0
M  V30 9778 H 941.075 3.53466 5.40122 0
M  V30 9779 H 941.843 5.50377 6.05828 0
M  V30 9780 N 944.506 -1.46559 0.579492 0
M  V30 9781 C 945.436 -2.33059 -0.143437 0
M  V30 9782 C 946.417 -1.4515 -0.886868 0
M  V30 9783 O 947.602 -1.73973 -0.862961 0
M  V30 9784 C 944.732 -3.27364 -1.15973 0
M  V30 9785 C 943.686 -4.24689 -0.531348 0
M  V30 9786 C 943.012 -5.08479 -1.65388 0
M  V30 9787 C 944.312 -5.1961 0.529391 0
M  V30 9788 H 946.006 -2.93753 0.578762 0
M  V30 9789 H 943.552 -1.41256 0.279775 0
M  V30 9790 H 945.505 -3.86732 -1.67382 0
M  V30 9791 H 944.229 -2.64771 -1.91217 0
M  V30 9792 H 942.888 -3.6658 -0.0383749 0
M  V30 9793 H 942.536 -4.42273 -2.3959 0
M  V30 9794 H 942.236 -5.74387 -1.23909 0
M  V30 9795 H 943.76 -5.70709 -2.17079 0
M  V30 9796 H 945.174 -5.73212 0.100506 0
M  V30 9797 H 943.571 -5.93843 0.86432 0
M  V30 9798 H 944.641 -4.63737 1.4169 0
M  V30 9799 N 945.984 -0.3171 -1.54377 0
M  V30 9800 C 947.209 0.292311 -2.0533 0
M  V30 9801 C 947.634 1.45503 -1.19207 0
M  V30 9802 O 946.992 1.80197 -0.199721 0
M  V30 9803 C 947.04 0.710787 -3.53525 0
M  V30 9804 O 946.144 1.81387 -3.70368 0
M  V30 9805 H 945.485 0.0539976 -0.661801 0
M  V30 9806 H 948.015 -0.463629 -1.99278 0
M  V30 9807 H 948.025 0.995216 -3.95676 0
M  V30 9808 H 946.7 -0.139668 -4.15665 0
M  V30 9809 H 945.277 1.52875 -3.40123 0
M  V30 9810 N 947.462 1.57535 -0.0451378 0
M  V30 9811 C 948.69 1.96761 0.639742 0
M  V30 9812 C 949.105 0.922405 1.64734 0
M  V30 9813 O 948.462 -0.0940535 1.82257 0
M  V30 9814 C 948.513 3.36066 1.33199 0
M  V30 9815 O 948.234 4.36579 0.364757 0
M  V30 9816 C 949.735 3.90015 2.1072 0
M  V30 9817 H 946.955 0.64769 0.175324 0
M  V30 9818 H 949.499 2.04206 -0.109651 0
M  V30 9819 H 947.654 3.2979 2.03266 0
M  V30 9820 H 948.068 5.17432 0.858168 0
M  V30 9821 H 949.542 4.89785 2.54586 0
M  V30 9822 H 950.019 3.25117 2.95288 0
M  V30 9823 H 950.625 3.99609 1.45577 0
M  V30 9824 N 948.94 -0.228186 1.55939 0
M  V30 9825 C 950.168 -0.970618 1.8272 0
M  V30 9826 C 950.583 -1.78212 0.623385 0
M  V30 9827 O 949.94 -1.77879 -0.408063 0
M  V30 9828 C 949.991 -1.89352 3.07942 0
M  V30 9829 O 949.712 -1.11483 4.23678 0
M  V30 9830 C 951.213 -2.75039 3.47661 0
M  V30 9831 H 948.433 -0.284772 0.607574 0
M  V30 9832 H 950.977 -0.245419 2.03022 0
M  V30 9833 H 949.132 -2.57275 2.89635 0
M  V30 9834 H 949.546 -1.74073 4.94772 0
M  V30 9835 H 951.02 -3.35511 4.38334 0
M  V30 9836 H 951.497 -3.471 2.69106 0
M  V30 9837 H 952.103 -2.1254 3.68384 0
M  V30 9838 N 950.418 -1.49637 -0.494624 0
M  V30 9839 C 951.829 -1.52573 -1.07603 0
M  V30 9840 C 952.18 -0.315591 -1.93645 0
M  V30 9841 O 951.305 0.573966 -2.08649 0
M  V30 9842 C 951.9 -2.7648 -1.95817 0
M  V30 9843 C 950.459 -2.82173 -2.49109 0
M  V30 9844 C 949.606 -2.4657 -1.2688 0
M  V30 9845 H 952.557 -1.56242 -0.278251 0
M  V30 9846 H 952.578 -2.57003 -2.80588 0
M  V30 9847 H 952.09 -3.64538 -1.33167 0
M  V30 9848 H 950.191 -1.9841 -3.15379 0
M  V30 9849 H 950.304 -3.84501 -2.85825 0
M  V30 9850 H 948.668 -1.98489 -1.59607 0
M  V30 9851 H 949.451 -3.3691 -0.659281 0
M  V30 9852 N 951.896 0.746133 -1.38819 0
M  V30 9853 C 953.143 1.50545 -1.35434 0
M  V30 9854 C 953.471 1.94427 0.0532669 0
M  V30 9855 O 952.726 1.66285 1.03188 0
M  V30 9856 C 953.025 2.76639 -2.26286 0
M  V30 9857 C 952.691 2.51682 -3.74122 0
M  V30 9858 C 951.353 2.44584 -4.14406 0
M  V30 9859 C 953.705 2.30071 -4.67672 0
M  V30 9860 C 951.033 2.13902 -5.46318 0
M  V30 9861 C 953.385 2.00907 -5.99849 0
M  V30 9862 C 952.049 1.92271 -6.39209 0
M  V30 9863 H 951.319 0.550883 -0.49559 0
M  V30 9864 H 953.966 0.857337 -1.71237 0
M  V30 9865 H 952.271 3.46138 -1.83564 0
M  V30 9866 H 953.968 3.34626 -2.20967 0
M  V30 9867 H 950.558 2.5808 -3.42188 0
M  V30 9868 H 954.742 2.34528 -4.3739 0
M  V30 9869 H 949.998 2.0573 -5.75748 0
M  V30 9870 H 954.172 1.83191 -6.71874 0
M  V30 9871 H 951.799 1.68261 -7.41345 0
M  V30 9872 N 953.375 1.23811 0.975125 0
M  V30 9873 C 954.786 1.0675 1.53171 0
M  V30 9874 C 955.137 -0.363475 1.92804 0
M  V30 9875 O 954.262 -1.25089 1.76583 0
M  V30 9876 C 954.857 1.93161 2.78342 0
M  V30 9877 C 953.416 1.80346 3.30382 0
M  V30 9878 C 952.563 1.88544 2.03338 0
M  V30 9879 H 955.514 1.37396 0.79423 0
M  V30 9880 H 955.535 1.45951 3.51395 0
M  V30 9881 H 955.047 2.97302 2.49465 0
M  V30 9882 H 953.148 0.790077 3.64127 0
M  V30 9883 H 953.261 2.64026 3.99784 0
M  V30 9884 H 951.625 1.32186 2.17713 0
M  V30 9885 H 952.408 2.94252 1.76836 0
M  V30 9886 N 954.853 -1.17469 1.05066 0
M  V30 9887 C 956.078 -1.92162 0.780298 0
M  V30 9888 C 956.503 -1.76222 -0.657832 0
M  V30 9889 O 955.861 -1.0791 -1.45688 0
M  V30 9890 C 955.909 -3.41292 1.16414 0
M  V30 9891 O 955.013 -4.1134 0.295531 0
M  V30 9892 H 954.354 -0.599127 0.286257 0
M  V30 9893 H 956.884 -1.48903 1.40318 0
M  V30 9894 H 956.894 -3.92029 1.13036 0
M  V30 9895 H 955.569 -3.52214 2.21175 0
M  V30 9896 H 954.146 -3.70857 0.389797 0
M  V30 9897 N 956.331 -0.831506 -1.3388 0
M  V30 9898 C 957.263 -0.216908 -2.28171 0
M  V30 9899 C 958.276 0.598141 -1.51414 0
M  V30 9900 O 959.465 0.426416 -1.73332 0
M  V30 9901 C 956.565 0.713831 -3.31297 0
M  V30 9902 C 955.738 -0.0602673 -4.37358 0
M  V30 9903 C 954.797 0.792696 -5.20195 0
M  V30 9904 O 953.823 0.234564 -5.68716 0
M  V30 9905 N 955.025 2.11119 -5.40748 0
M  V30 9906 H 957.79 -1.02704 -2.81553 0
M  V30 9907 H 955.351 -0.689272 -1.46495 0
M  V30 9908 H 957.343 1.28925 -3.83615 0
M  V30 9909 H 955.913 1.42469 -2.78247 0
M  V30 9910 H 955.133 -0.817041 -3.8564 0
M  V30 9911 H 956.421 -0.592822 -5.05335 0
M  V30 9912 H 955.819 2.58828 -5.03016 0
M  V30 9913 H 954.376 2.63527 -5.96151 0
M  V30 9914 N 957.809 1.4625 -0.587256 0
M  V30 9915 C 958.759 2.27407 0.164393 0
M  V30 9916 C 959.743 1.36138 0.857628 0
M  V30 9917 O 960.935 1.60279 0.750973 0
M  V30 9918 C 958.064 3.22585 1.17447 0
M  V30 9919 C 957.15 4.21339 0.483121 0
M  V30 9920 N 957.541 5.03669 -0.46385 0
M  V30 9921 C 955.839 4.39931 0.73329 0
M  V30 9922 C 956.54 5.75182 -0.868334 0
M  V30 9923 N 955.516 5.43169 -0.216487 0
M  V30 9924 H 959.318 2.88453 -0.563237 0
M  V30 9925 H 956.832 1.57155 -0.409388 0
M  V30 9926 H 958.829 3.79439 1.72718 0
M  V30 9927 H 957.489 2.63098 1.90288 0
M  V30 9928 H 958.5 5.11049 -0.839602 0
M  V30 9929 H 955.177 3.91588 1.44792 0
M  V30 9930 H 956.567 6.51371 -1.64821 0
M  V30 9931 N 959.287 0.325282 1.54207 0
M  V30 9932 C 960.703 -0.0273036 1.59577 0
M  V30 9933 C 960.903 -1.50329 1.34177 0
M  V30 9934 O 959.959 -2.25951 1.12705 0
M  V30 9935 C 961.272 0.392468 2.98128 0
M  V30 9936 C 962.82 0.343269 3.11112 0
M  V30 9937 C 963.295 0.738229 4.52011 0
M  V30 9938 N 964.786 0.691701 4.58006 0
M  V30 9939 C 965.521 0.969479 5.65145 0
M  V30 9940 N 965.017 1.31448 6.80216 0
M  V30 9941 N 966.81 0.894926 5.5493 0
M  V30 9942 H 958.961 1.28692 1.68974 0
M  V30 9943 H 961.224 0.523399 0.790416 0
M  V30 9944 H 960.93 1.42089 3.2172 0
M  V30 9945 H 960.804 -0.241651 3.76425 0
M  V30 9946 H 963.191 -0.675946 2.87254 0
M  V30 9947 H 963.272 1.01235 2.34915 0
M  V30 9948 H 962.916 1.75537 4.76602 0
M  V30 9949 H 962.846 0.0468226 5.26579 0
M  V30 9950 H 965.337 0.436975 3.75365 0
M  V30 9951 H 965.65 1.51177 7.57869 0
M  V30 9952 H 963.995 1.35276 6.81708 0
M  V30 9953 H 967.186 0.624876 4.6391 0
M  V30 9954 H 967.359 1.11476 6.38339 0
M  V30 9955 N 960.765 -1.57509 0.0534917 0
M  V30 9956 C 961.993 -1.97098 -0.629298 0
M  V30 9957 C 962.408 -0.931128 -1.64242 0
M  V30 9958 O 961.765 0.0843866 -1.82305 0
M  V30 9959 C 961.816 -3.36767 -1.31415 0
M  V30 9960 O 961.537 -4.36766 -0.341599 0
M  V30 9961 C 963.038 -3.91127 -2.08649 0
M  V30 9962 H 960.258 -0.648611 -0.171886 0
M  V30 9963 H 962.802 -2.04145 0.120479 0
M  V30 9964 H 960.957 -3.30863 -2.01515 0
M  V30 9965 H 961.371 -5.1788 -0.830715 0
M  V30 9966 H 962.845 -4.91129 -2.51985 0
M  V30 9967 H 963.322 -3.26679 -2.9356 0
M  V30 9968 H 963.928 -4.00376 -1.43456 0
M  V30 9969 N 962.243 0.219913 -1.56058 0
M  V30 9970 C 963.153 1.29349 -1.95719 0
M  V30 9971 C 964.169 1.5119 -0.861248 0
M  V30 9972 O 965.345 1.64289 -1.16495 0
M  V30 9973 C 962.41 2.6229 -2.26726 0
M  V30 9974 C 961.471 2.48738 -3.49897 0
M  V30 9975 C 960.704 3.75339 -3.79416 0
M  V30 9976 O 960.927 4.78427 -3.10586 0
M  V30 9977 O 959.861 3.72352 -4.72903 0
M  V30 9978 H 963.687 0.986979 -2.87215 0
M  V30 9979 H 961.272 0.42291 -1.43289 0
M  V30 9980 H 963.154 3.408 -2.47857 0
M  V30 9981 H 961.829 2.92619 -1.38404 0
M  V30 9982 H 960.736 1.68422 -3.34043 0
M  V30 9983 H 962.069 2.23347 -4.38608 0
M  V30 9984 N 963.721 1.49897 0.486681 0
M  V30 9985 C 964.97 1.59349 1.23656 0
M  V30 9986 C 965.283 0.292024 1.93408 0
M  V30 9987 O 966.489 0.265258 2.70201 0
M  V30 9988 C 964.945 2.81215 2.24602 0
M  V30 9989 C 964.553 4.18177 1.60725 0
M  V30 9990 C 966.297 3.00004 3.00329 0
M  V30 9991 C 964.204 5.31247 2.59866 0
M  V30 9992 H 963.134 0.593363 0.465227 0
M  V30 9993 H 965.785 1.76306 0.508769 0
M  V30 9994 H 964.167 2.57783 3.00606 0
M  V30 9995 H 965.341 4.51802 0.90616 0
M  V30 9996 H 963.656 4.04864 0.973362 0
M  V30 9997 H 966.253 3.81649 3.74497 0
M  V30 9998 H 966.596 2.1112 3.58795 0
M  V30 9999 H 967.129 3.23544 2.3144 0
M  V30 10000 H 963.868 6.22236 2.06161 0
M  V30 10001 H 963.388 5.02059 3.28172 0
M  V30 10002 H 965.067 5.61177 3.22009 0
M  V30 10003 N 965.199 -0.738761 1.39212 0
M  V30 10004 C 966.109 -1.88324 1.39897 0
M  V30 10005 C 967.125 -1.71494 0.294229 0
M  V30 10006 O 968.301 -1.94162 0.535087 0
M  V30 10007 C 965.366 -3.23871 1.23726 0
M  V30 10008 C 964.427 -3.53121 2.44139 0
M  V30 10009 C 963.66 -4.82202 2.2873 0
M  V30 10010 O 963.883 -5.55649 1.28879 0
M  V30 10011 O 962.817 -5.11265 3.17634 0
M  V30 10012 H 966.643 -1.90701 2.36362 0
M  V30 10013 H 964.228 -0.886067 1.20288 0
M  V30 10014 H 966.11 -4.04882 1.16826 0
M  V30 10015 H 964.785 -3.22274 0.303551 0
M  V30 10016 H 963.692 -2.72212 2.56615 0
M  V30 10017 H 965.025 -3.59495 3.36191 0
M  V30 10018 N 966.677 -1.24326 -0.968545 0
M  V30 10019 C 967.607 -1.05951 -2.08079 0
M  V30 10020 C 968.588 0.0272666 -1.70078 0
M  V30 10021 O 969.773 -0.139644 -1.93697 0
M  V30 10022 C 966.903 -0.662623 -3.4092 0
M  V30 10023 C 965.857 -1.69807 -3.92873 0
M  V30 10024 C 965.183 -1.15628 -5.22048 0
M  V30 10025 C 966.483 -3.09383 -4.20808 0
M  V30 10026 H 968.177 -1.98984 -2.23709 0
M  V30 10027 H 965.723 -0.958112 -1.075 0
M  V30 10028 H 967.676 -0.521071 -4.18166 0
M  V30 10029 H 966.4 0.303399 -3.25188 0
M  V30 10030 H 965.059 -1.82783 -3.17783 0
M  V30 10031 H 964.707 -0.180888 -5.02675 0
M  V30 10032 H 964.407 -1.84822 -5.57776 0
M  V30 10033 H 965.931 -1.02683 -6.01904 0
M  V30 10034 H 967.345 -2.99642 -4.88761 0
M  V30 10035 H 965.742 -3.75923 -4.67763 0
M  V30 10036 H 966.812 -3.57486 -3.27616 0
M  V30 10037 N 968.156 1.1691 -1.05688 0
M  V30 10038 C 969.403 1.87292 -0.76993 0
M  V30 10039 C 969.731 1.81339 0.703295 0
M  V30 10040 O 968.986 1.21959 1.5305 0
M  V30 10041 C 969.285 3.36578 -1.20207 0
M  V30 10042 C 968.951 3.62732 -2.67836 0
M  V30 10043 C 967.613 3.69579 -3.08163 0
M  V30 10044 C 969.965 3.73803 -3.63209 0
M  V30 10045 C 967.293 3.84992 -4.42717 0
M  V30 10046 C 969.645 3.90735 -4.97503 0
M  V30 10047 C 968.309 3.95823 -5.37476 0
M  V30 10048 H 967.579 0.68535 -0.281737 0
M  V30 10049 H 970.226 1.38274 -1.32486 0
M  V30 10050 H 968.531 3.87687 -0.566222 0
M  V30 10051 H 970.228 3.89409 -0.957183 0
M  V30 10052 H 966.818 3.58031 -2.35609 0
M  V30 10053 H 971.002 3.67829 -3.3319 0
M  V30 10054 H 966.258 3.87181 -4.73182 0
M  V30 10055 H 970.432 3.98243 -5.71293 0
M  V30 10056 H 968.059 4.07518 -6.41742 0
M  V30 10057 N 969.634 0.838594 1.33437 0
M  V30 10058 C 971.045 0.490934 1.8013 0
M  V30 10059 C 971.396 -0.990024 1.6939 0
M  V30 10060 O 970.521 -1.77139 1.24302 0
M  V30 10061 C 971.116 0.884347 3.27055 0
M  V30 10062 C 969.675 0.588829 3.71766 0
M  V30 10063 C 968.822 1.09282 2.54858 0
M  V30 10064 H 971.773 1.02732 1.20962 0
M  V30 10065 H 971.794 0.194283 3.80004 0
M  V30 10066 H 971.306 1.96225 3.34839 0
M  V30 10067 H 969.407 -0.479018 3.69508 0
M  V30 10068 H 969.52 1.14387 4.65245 0
M  V30 10069 H 967.884 0.513702 2.49466 0
M  V30 10070 H 968.667 2.1775 2.65405 0
M  V30 10071 N 971.112 -1.45937 0.595003 0
M  V30 10072 C 972.342 -2.06399 0.0911607 0
M  V30 10073 C 972.75 -1.44236 -1.22444 0
M  V30 10074 O 972.093 -0.546265 -1.7539 0
M  V30 10075 C 972.155 -3.59242 -0.136079 0
M  V30 10076 C 971.819 -4.43668 1.09579 0
M  V30 10077 C 972.816 -4.79437 2.01088 0
M  V30 10078 C 970.501 -4.84616 1.32109 0
M  V30 10079 C 972.495 -5.54995 3.13464 0
M  V30 10080 C 970.182 -5.5993 2.44788 0
M  V30 10081 C 971.18 -5.95035 3.35294 0
M  V30 10082 O 970.868 -6.68825 4.46014 0
M  V30 10083 H 970.6 -0.673316 0.0601779 0
M  V30 10084 H 973.154 -1.88365 0.819005 0
M  V30 10085 H 971.384 -3.75629 -0.918676 0
M  V30 10086 H 973.073 -4.0159 -0.589954 0
M  V30 10087 H 973.839 -4.48371 1.84902 0
M  V30 10088 H 969.718 -4.56735 0.625662 0
M  V30 10089 H 973.262 -5.82314 3.84131 0
M  V30 10090 H 969.159 -5.90411 2.60931 0
M  V30 10091 H 969.927 -6.87262 4.44537 0
M  V30 10092 N 972.59 -0.333456 -1.54032 0
M  V30 10093 C 973.815 0.270517 -2.05628 0
M  V30 10094 C 974.24 1.44231 -1.20744 0
M  V30 10095 O 973.598 1.79975 -0.218822 0
M  V30 10096 C 973.646 0.673251 -3.54259 0
M  V30 10097 O 972.75 1.77448 -3.72271 0
M  V30 10098 H 972.091 0.0469753 -0.662336 0
M  V30 10099 H 974.621 -0.484739 -1.98775 0
M  V30 10100 H 974.631 0.953194 -3.96709 0
M  V30 10101 H 973.306 -0.183747 -4.15494 0
M  V30 10102 H 971.883 1.49259 -3.41725 0
M  V30 10103 N 974.068 1.57479 -0.061844 0
M  V30 10104 C 975.316 1.92727 0.608336 0
M  V30 10105 C 975.637 0.941799 1.70749 0
M  V30 10106 O 974.907 -0.0116608 1.95897 0
M  V30 10107 H 973.487 0.71145 0.2277 0
M  V30 10108 H 976.149 1.94546 -0.117359 0
M  V30 10109 H 975.245 2.9426 1.04007 0
M  V30 10110 N 975.546 -0.211634 1.56173 0
M  V30 10111 C 976.823 -0.959467 1.70451 0
M  V30 10112 C 977.203 -2.02036 0.611942 0
M  V30 10113 O 976.551 -2.25325 -0.37959 0
M  V30 10114 C 976.761 -1.56092 3.12148 0
M  V30 10115 C 978.109 -2.04939 3.71867 0
M  V30 10116 O 979.133 -1.65966 3.15172 0
M  V30 10117 O 977.992 -2.766 4.71333 0
M  V30 10118 H 975.086 -0.448844 0.6946 0
M  V30 10119 H 977.632 -0.202633 1.68486 0
M  V30 10120 H 976.404 -0.79538 3.83131 0
M  V30 10121 H 976.027 -2.38303 3.18273 0
M  V30 10122 N 977.024 -1.50153 -0.478725 0
M  V30 10123 C 977.971 -1.68458 -1.57767 0
M  V30 10124 C 978.941 -0.5259 -1.57555 0
M  V30 10125 O 980.126 -0.755574 -1.75202 0
M  V30 10126 C 977.266 -1.77772 -2.95789 0
M  V30 10127 C 976.379 -3.05092 -3.05848 0
M  V30 10128 C 975.514 -3.05247 -4.34739 0
M  V30 10129 C 974.553 -4.27053 -4.38512 0
M  V30 10130 N 973.69 -4.24991 -5.58862 0
M  V30 10131 H 978.53 -2.62282 -1.41464 0
M  V30 10132 H 976.067 -1.30023 -0.687921 0
M  V30 10133 H 978.025 -1.81152 -3.75819 0
M  V30 10134 H 976.655 -0.873944 -3.10744 0
M  V30 10135 H 975.707 -3.11219 -2.1874 0
M  V30 10136 H 977.019 -3.95075 -3.04495 0
M  V30 10137 H 976.173 -3.07314 -5.23109 0
M  V30 10138 H 974.912 -2.13081 -4.38689 0
M  V30 10139 H 973.917 -4.25206 -3.4854 0
M  V30 10140 H 975.142 -5.20437 -4.36259 0
M  V30 10141 H 973.088 -3.35674 -5.63612 0
M  V30 10142 H 973.005 -5.08734 -5.59219 0
M  V30 10143 H 974.273 -4.31193 -6.49379 0
M  V30 10144 N 978.502 0.731368 -1.39602 0
M  V30 10145 C 979.751 1.48647 -1.36334 0
M  V30 10146 C 980.064 1.95565 0.0367383 0
M  V30 10147 O 981.27 2.7082 0.192017 0
M  V30 10148 C 979.726 2.68616 -2.39528 0
M  V30 10149 C 979.334 2.28632 -3.85268 0
M  V30 10150 C 981.078 3.46422 -2.45341 0
M  V30 10151 C 978.985 3.45345 -4.80095 0
M  V30 10152 H 977.915 0.558218 -0.506861 0
M  V30 10153 H 980.566 0.797467 -1.65266 0
M  V30 10154 H 978.948 3.39609 -2.03671 0
M  V30 10155 H 980.122 1.65162 -4.30184 0
M  V30 10156 H 978.437 1.63909 -3.82783 0
M  V30 10157 H 981.034 4.33241 -3.13379 0
M  V30 10158 H 981.377 3.8914 -1.47904 0
M  V30 10159 H 981.91 2.82461 -2.80108 0
M  V30 10160 H 978.649 3.07674 -5.78807 0
M  V30 10161 H 978.169 4.07784 -4.39855 0
M  V30 10162 H 979.848 4.1163 -4.99169 0
M  V30 10163 N 979.98 1.24838 0.961938 0
M  V30 10164 C 980.91 1.07053 2.07514 0
M  V30 10165 C 981.891 -0.0182465 1.7009 0
M  V30 10166 O 983.076 0.149915 1.9362 0
M  V30 10167 C 980.206 0.680693 3.40564 0
M  V30 10168 C 979.16 1.71889 3.91967 0
M  V30 10169 C 978.486 1.18395 5.21428 0
M  V30 10170 C 979.786 3.1161 4.19161 0
M  V30 10171 H 981.48 2.00167 2.22651 0
M  V30 10172 H 979.026 0.963799 1.0699 0
M  V30 10173 H 980.979 0.54324 4.17884 0
M  V30 10174 H 979.703 -0.28615 3.25344 0
M  V30 10175 H 978.362 1.84465 3.16809 0
M  V30 10176 H 978.01 0.207543 5.02572 0
M  V30 10177 H 977.71 1.87778 5.56788 0
M  V30 10178 H 979.234 1.05873 6.01351 0
M  V30 10179 H 980.648 3.0223 4.87165 0
M  V30 10180 H 979.045 3.78398 4.65763 0
M  V30 10181 H 980.115 3.59218 3.25715 0
M  V30 10182 N 981.458 -1.16348 1.06306 0
M  V30 10183 C 982.704 -1.87158 0.781007 0
M  V30 10184 C 983.037 -1.81499 -0.690784 0
M  V30 10185 O 982.312 -1.23074 -1.50609 0
M  V30 10186 C 982.595 -3.3672 1.27639 0
M  V30 10187 C 982.448 -3.51069 2.81194 0
M  V30 10188 C 983.767 -4.31122 0.884388 0
M  V30 10189 H 980.886 -0.679586 0.285187 0
M  V30 10190 H 983.528 -1.36756 1.31901 0
M  V30 10191 H 981.678 -3.79775 0.818715 0
M  V30 10192 H 983.35 -3.16952 3.35171 0
M  V30 10193 H 981.593 -2.92976 3.19918 0
M  V30 10194 H 982.264 -4.56105 3.10921 0
M  V30 10195 H 984.74 -3.95969 1.27858 0
M  V30 10196 H 983.616 -5.34279 1.25847 0
M  V30 10197 H 983.877 -4.41598 -0.210673 0
M  V30 10198 N 982.937 -0.845659 -1.3299 0
M  V30 10199 C 983.847 -0.2864 -2.32845 0
M  V30 10200 C 984.863 0.591105 -1.63652 0
M  V30 10201 O 986.039 0.493615 -1.95257 0
M  V30 10202 C 983.104 0.523636 -3.42723 0
M  V30 10203 C 982.165 -0.378945 -4.27624 0
M  V30 10204 C 981.398 0.392526 -5.32255 0
M  V30 10205 O 981.621 1.6235 -5.46808 0
M  V30 10206 O 980.555 -0.237 -6.01433 0
M  V30 10207 H 984.381 -1.11346 -2.82552 0
M  V30 10208 H 981.966 -0.608356 -1.36453 0
M  V30 10209 H 983.848 0.983718 -4.09757 0
M  V30 10210 H 982.523 1.32764 -2.95221 0
M  V30 10211 H 981.43 -0.887012 -3.63432 0
M  V30 10212 H 982.763 -1.1479 -4.78627 0
M  V30 10213 N 984.415 1.45619 -0.602734 0
M  V30 10214 C 985.663 2.01873 -0.095844 0
M  V30 10215 C 985.984 1.47427 1.27633 0
M  V30 10216 O 985.254 0.666652 1.84208 0
M  V30 10217 H 983.834 0.746295 -0.0324408 0
M  V30 10218 H 986.496 1.78478 -0.783037 0
M  V30 10219 H 985.592 3.12072 -0.0419507 0
M  V30 10220 N 985.893 0.34162 1.53853 0
M  V30 10221 C 987.142 -0.256475 2.00063 0
M  V30 10222 C 987.455 -1.51811 1.23341 0
M  V30 10223 O 988.661 -2.19332 1.60017 0
M  V30 10224 C 987.117 -0.507567 3.56303 0
M  V30 10225 C 986.725 0.738052 4.41879 0
M  V30 10226 C 988.469 -1.06463 4.10933 0
M  V30 10227 C 986.376 0.457865 5.89625 0
M  V30 10228 H 985.306 -0.0996143 0.747391 0
M  V30 10229 H 987.957 0.456649 1.77727 0
M  V30 10230 H 986.339 -1.28134 3.74697 0
M  V30 10231 H 987.513 1.51278 4.3526 0
M  V30 10232 H 985.828 1.21661 3.98231 0
M  V30 10233 H 988.425 -1.28918 5.18926 0
M  V30 10234 H 988.768 -2.01956 3.64032 0
M  V30 10235 H 989.301 -0.351601 3.96243 0
M  V30 10236 H 986.04 1.38247 6.40756 0
M  V30 10237 H 985.56 -0.278818 5.99152 0
M  V30 10238 H 987.239 0.0743914 6.46957 0
M  V30 10239 N 987.371 -1.57444 0.0701946 0
M  V30 10240 C 988.596 -1.98171 -0.61181 0
M  V30 10241 C 989.021 -0.94823 -1.62451 0
M  V30 10242 O 988.379 0.0863553 -1.81094 0
M  V30 10243 C 988.427 -3.37934 -1.2583 0
M  V30 10244 O 987.531 -3.37207 -2.37414 0
M  V30 10245 H 986.872 -0.645056 -0.157477 0
M  V30 10246 H 989.402 -2.04091 0.144235 0
M  V30 10247 H 989.412 -3.75083 -1.60552 0
M  V30 10248 H 988.087 -4.12684 -0.516234 0
M  V30 10249 H 986.664 -3.11826 -2.04497 0
M  V30 10250 N 988.849 0.203349 -1.56283 0
M  V30 10251 C 990.077 0.941426 -1.84241 0
M  V30 10252 C 990.492 1.77197 -0.651658 0
M  V30 10253 O 989.849 1.78506 0.379713 0
M  V30 10254 C 989.9 1.84429 -3.10915 0
M  V30 10255 O 989.621 1.04729 -4.25398 0
M  V30 10256 C 991.122 2.69474 -3.51993 0
M  V30 10257 H 988.342 0.27507 -0.612027 0
M  V30 10258 H 990.886 0.213088 -2.03387 0
M  V30 10259 H 989.041 2.52635 -2.93691 0
M  V30 10260 H 989.455 1.66179 -4.97478 0
M  V30 10261 H 990.929 3.28495 -4.43616 0
M  V30 10262 H 991.406 3.42775 -2.74594 0
M  V30 10263 H 992.012 2.06652 -3.71719 0
M  V30 10264 N 990.327 1.50405 0.470755 0
M  V30 10265 C 991.573 1.6165 1.22462 0
M  V30 10266 C 991.906 0.316034 1.91611 0
M  V30 10267 O 991.181 -0.682509 1.82132 0
M  V30 10268 C 991.464 2.79702 2.26801 0
M  V30 10269 C 991.317 4.19631 1.61955 0
M  V30 10270 C 992.636 2.93313 3.28109 0
M  V30 10271 H 989.755 0.588345 0.443868 0
M  V30 10272 H 992.397 1.82792 0.518376 0
M  V30 10273 H 990.547 2.61807 2.87036 0
M  V30 10274 H 992.219 4.49117 1.05316 0
M  V30 10275 H 990.462 4.23874 0.922674 0
M  V30 10276 H 991.133 4.98162 2.37779 0
M  V30 10277 H 993.609 3.09697 2.77897 0
M  V30 10278 H 992.485 3.77537 3.98443 0
M  V30 10279 H 992.746 2.03942 3.9225 0
M  V30 10280 N 991.805 -0.723954 1.39988 0
M  V30 10281 C 993.054 -1.47922 1.3712 0
M  V30 10282 C 993.367 -1.95582 -0.0263665 0
M  V30 10283 O 994.573 -2.70918 -0.177652 0
M  V30 10284 C 993.029 -2.67342 2.40949 0
M  V30 10285 C 992.637 -2.26586 3.86475 0
M  V30 10286 C 994.381 -3.45116 2.47174 0
M  V30 10287 C 992.288 -3.42794 4.81919 0
M  V30 10288 H 991.218 -0.555522 0.509815 0
M  V30 10289 H 993.869 -0.788692 1.65686 0
M  V30 10290 H 992.251 -3.38524 2.0547 0
M  V30 10291 H 993.425 -1.62878 4.31054 0
M  V30 10292 H 991.74 -1.61876 3.83647 0
M  V30 10293 H 994.337 -4.31573 3.15672 0
M  V30 10294 H 994.68 -3.8835 1.49966 0
M  V30 10295 H 995.213 -2.80971 2.81602 0
M  V30 10296 H 991.952 -3.046 5.8043 0
M  V30 10297 H 991.472 -4.05445 4.42012 0
M  V30 10298 H 993.151 -4.08977 5.01345 0
M  V30 10299 N 993.283 -1.25346 -0.955304 0
M  V30 10300 C 994.513 -1.12629 -1.732 0
M  V30 10301 C 994.921 0.322748 -1.86427 0
M  V30 10302 O 994.264 1.23381 -1.36099 0
M  V30 10303 C 994.326 -1.7064 -3.16421 0
M  V30 10304 C 993.99 -3.19632 -3.26626 0
M  V30 10305 C 994.987 -4.1663 -3.10991 0
M  V30 10306 C 992.672 -3.59829 -3.50468 0
M  V30 10307 C 994.666 -5.51806 -3.19043 0
M  V30 10308 C 992.353 -4.95143 -3.58157 0
M  V30 10309 C 993.351 -5.90941 -3.42459 0
M  V30 10310 O 993.039 -7.23792 -3.49828 0
M  V30 10311 H 992.771 -0.393646 -0.549562 0
M  V30 10312 H 995.325 -1.66184 -1.20715 0
M  V30 10313 H 993.555 -1.11532 -3.70267 0
M  V30 10314 H 995.244 -1.53032 -3.75947 0
M  V30 10315 H 996.01 -3.86915 -2.92441 0
M  V30 10316 H 991.889 -2.8576 -3.61749 0
M  V30 10317 H 995.433 -6.26559 -3.06707 0
M  V30 10318 H 991.33 -5.24525 -3.76224 0
M  V30 10319 H 992.098 -7.31879 -3.66463 0
M  V30 10320 N 994.761 1.15782 -1.06922 0
M  V30 10321 C 996.172 1.68062 -0.813144 0
M  V30 10322 C 996.523 1.84681 0.662374 0
M  V30 10323 O 995.648 1.54696 1.51321 0
M  V30 10324 C 996.243 3.05273 -1.46949 0
M  V30 10325 C 994.802 3.54647 -1.26104 0
M  V30 10326 C 993.949 2.30477 -1.54194 0
M  V30 10327 H 996.9 1.00056 -1.23185 0
M  V30 10328 H 996.921 3.69986 -0.888308 0
M  V30 10329 H 996.433 2.93145 -2.54337 0
M  V30 10330 H 994.534 3.72024 -0.20718 0
M  V30 10331 H 994.647 4.36354 -1.97819 0
M  V30 10332 H 993.011 2.35803 -0.96276 0
M  V30 10333 H 993.794 2.2094 -2.62755 0
M  V30 10334 N 996.239 0.8527 1.3254 0
M  V30 10335 C 997.464 0.468157 2.02047 0
M  V30 10336 C 997.889 -0.926967 1.63673 0
M  V30 10337 O 997.247 -1.60855 0.836378 0
M  V30 10338 C 997.295 0.612519 3.5536 0
M  V30 10339 O 996.399 -0.355506 4.10865 0
M  V30 10340 H 995.74 0.188401 0.636711 0
M  V30 10341 H 998.27 1.15135 1.6913 0
M  V30 10342 H 998.28 0.499315 4.04933 0
M  V30 10343 H 996.955 1.62988 3.82632 0
M  V30 10344 H 995.532 -0.198703 3.7237 0
M  V30 10345 N 997.718 -1.45297 0.610449 0
M  V30 10346 C 998.648 -2.33311 -0.0939698 0
M  V30 10347 C 999.629 -1.46999 -0.85588 0
M  V30 10348 O 1000.81 -1.75764 -0.825865 0
M  V30 10349 C 997.944 -3.29751 -1.09003 0
M  V30 10350 C 996.898 -4.2572 -0.441146 0
M  V30 10351 C 996.224 -5.11873 -1.54566 0
M  V30 10352 C 997.524 -5.1837 0.639489 0
M  V30 10353 H 999.218 -2.92459 0.640941 0
M  V30 10354 H 996.764 -1.40631 0.309675 0
M  V30 10355 H 998.717 -3.90195 -1.59141 0
M  V30 10356 H 997.441 -2.68768 -1.85557 0
M  V30 10357 H 996.1 -3.66579 0.0393908 0
M  V30 10358 H 995.748 -4.47256 -2.30155 0
M  V30 10359 H 995.448 -5.76886 -1.11698 0
M  V30 10360 H 996.972 -5.75185 -2.04925 0
M  V30 10361 H 998.386 -5.7287 0.22207 0
M  V30 10362 H 996.783 -5.91876 0.990089 0
M  V30 10363 H 997.853 -4.60627 1.51495 0
M  V30 10364 N 999.196 -0.349774 -1.5367 0
M  V30 10365 C 1000.13 0.538575 -2.22782 0
M  V30 10366 C 1001.14 1.05896 -1.23652 0
M  V30 10367 O 1002.33 0.968045 -1.4997 0
M  V30 10368 C 999.43 1.7546 -2.89943 0
M  V30 10369 C 998.603 1.36843 -4.15443 0
M  V30 10370 C 997.662 2.4448 -4.65957 0
M  V30 10371 O 996.688 2.07528 -5.3002 0
M  V30 10372 N 997.89 3.75829 -4.42417 0
M  V30 10373 H 1000.65 -0.053348 -2.99653 0
M  V30 10374 H 998.216 -0.174193 -1.6096 0
M  V30 10375 H 1000.21 2.46911 -3.20651 0
M  V30 10376 H 998.778 2.25375 -2.16622 0
M  V30 10377 H 997.998 0.484421 -3.91212 0
M  V30 10378 H 999.286 1.0865 -4.97064 0
M  V30 10379 H 998.684 4.08635 -3.91196 0
M  V30 10380 H 997.241 4.43432 -4.77714 0
M  V30 10381 N 1000.67 1.57404 -0.0785433 0
M  V30 10382 C 1001.9 1.98074 0.597862 0
M  V30 10383 C 1002.32 0.95714 1.6274 0
M  V30 10384 O 1001.67 -0.0553728 1.82416 0
M  V30 10385 C 1001.72 3.38815 1.26041 0
M  V30 10386 O 1001.45 4.37254 0.27207 0
M  V30 10387 C 1002.95 3.94397 2.024 0
M  V30 10388 H 1000.17 0.651263 0.161546 0
M  V30 10389 H 1002.71 2.03927 -0.152941 0
M  V30 10390 H 1000.87 3.34028 1.96225 0
M  V30 10391 H 1001.28 5.19136 0.74822 0
M  V30 10392 H 1002.75 4.95075 2.4414 0
M  V30 10393 H 1003.23 3.31308 2.88326 0
M  V30 10394 H 1003.84 4.02607 1.37068 0
M  V30 10395 N 1002.15 -0.195058 1.56388 0
M  V30 10396 C 1003.06 -1.26219 1.97752 0
M  V30 10397 C 1004.08 -1.49801 0.885192 0
M  V30 10398 O 1005.25 -1.62415 1.19094 0
M  V30 10399 C 1002.32 -2.5865 2.3087 0
M  V30 10400 C 1001.38 -2.4314 3.5381 0
M  V30 10401 C 1000.61 -3.69255 3.85339 0
M  V30 10402 O 1000.84 -4.73425 3.18159 0
M  V30 10403 O 999.77 -3.64782 4.78767 0
M  V30 10404 H 1003.6 -0.941161 2.88749 0
M  V30 10405 H 1001.18 -0.40006 1.43944 0
M  V30 10406 H 1003.06 -3.36814 2.53247 0
M  V30 10407 H 1001.74 -2.9038 1.43042 0
M  V30 10408 H 1000.64 -1.63086 3.3668 0
M  V30 10409 H 1001.98 -2.16341 4.42105 0
M  V30 10410 N 1003.63 -1.50653 -0.462772 0
M  V30 10411 C 1004.56 -1.64773 -1.57877 0
M  V30 10412 C 1005.54 -0.495664 -1.54861 0
M  V30 10413 O 1006.72 -0.716248 -1.74362 0
M  V30 10414 C 1003.85 -1.63796 -2.9646 0
M  V30 10415 C 1002.9 -2.84663 -3.17599 0
M  V30 10416 S 1003.73 -4.45852 -2.96608 0
M  V30 10417 C 1004.89 -4.47581 -4.37518 0
M  V30 10418 H 1005.12 -2.59172 -1.45661 0
M  V30 10419 H 1002.65 -1.40019 -0.650699 0
M  V30 10420 H 1004.61 -1.63918 -3.76353 0
M  V30 10421 H 1003.27 -0.706185 -3.06059 0
M  V30 10422 H 1002.46 -2.80308 -4.1886 0
M  V30 10423 H 1002.07 -2.82152 -2.45492 0
M  V30 10424 H 1004.36 -4.21656 -5.30295 0
M  V30 10425 H 1005.3 -5.49248 -4.46914 0
M  V30 10426 H 1005.71 -3.7719 -4.19985 0
M  V30 10427 N 1005.11 0.71652 -1.4037 0
M  V30 10428 C 1006.34 1.50563 -1.4191 0
M  V30 10429 C 1006.75 1.88791 -0.0185456 0
M  V30 10430 O 1006.11 1.55378 0.957289 0
M  V30 10431 C 1006.16 2.78155 -2.30894 0
M  V30 10432 O 1005.88 2.41543 -3.65497 0
M  V30 10433 C 1007.38 3.72057 -2.41016 0
M  V30 10434 H 1004.6 0.464679 -0.48406 0
M  V30 10435 H 1007.15 0.883927 -1.8441 0
M  V30 10436 H 1005.3 3.36611 -1.91759 0
M  V30 10437 H 1005.71 3.23636 -4.12747 0
M  V30 10438 H 1007.19 4.58426 -3.07489 0
M  V30 10439 H 1007.67 4.15098 -1.43492 0
M  V30 10440 H 1008.27 3.19512 -2.80699 0
M  V30 10441 N 1006.59 1.25851 0.948643 0
M  V30 10442 C 1007.54 1.03437 2.03187 0
M  V30 10443 C 1008.52 -0.0307632 1.60871 0
M  V30 10444 O 1009.71 0.185296 1.76027 0
M  V30 10445 C 1006.84 0.661426 3.36868 0
M  V30 10446 C 1005.93 1.76363 3.8569 0
M  V30 10447 N 1006.32 2.9998 4.07241 0
M  V30 10448 C 1004.62 1.64552 4.14534 0
M  V30 10449 C 1005.32 3.71564 4.47566 0
M  V30 10450 N 1004.29 2.99214 4.53841 0
M  V30 10451 H 1008.1 1.97277 2.17851 0
M  V30 10452 H 1005.61 1.16258 1.13392 0
M  V30 10453 H 1007.61 0.482021 4.14104 0
M  V30 10454 H 1006.27 -0.269582 3.23579 0
M  V30 10455 H 1007.28 3.35963 3.94143 0
M  V30 10456 H 1003.95 0.783891 4.10075 0
M  V30 10457 H 1005.34 4.77702 4.72494 0
M  V30 10458 N 1008.06 -1.15214 1.07534 0
M  V30 10459 C 1009.48 -1.38031 0.801228 0
M  V30 10460 C 1009.68 -1.92556 -0.593672 0
M  V30 10461 O 1008.74 -2.1325 -1.35206 0
M  V30 10462 C 1010.05 -2.34958 1.87657 0
M  V30 10463 C 1011.6 -2.48617 1.90154 0
M  V30 10464 C 1012.07 -3.48837 2.96777 0
M  V30 10465 N 1013.56 -3.56374 2.95892 0
M  V30 10466 C 1014.3 -4.33746 3.75036 0
M  V30 10467 N 1013.79 -5.14435 4.64036 0
M  V30 10468 N 1015.59 -4.28853 3.63375 0
M  V30 10469 H 1007.74 -0.781639 1.97495 0
M  V30 10470 H 1010 -0.406243 0.856546 0
M  V30 10471 H 1009.71 -2.02013 2.87895 0
M  V30 10472 H 1009.58 -3.3476 1.73827 0
M  V30 10473 H 1011.97 -2.80859 0.905666 0
M  V30 10474 H 1012.05 -1.48808 2.08062 0
M  V30 10475 H 1011.69 -3.1733 3.96565 0
M  V30 10476 H 1011.62 -4.48406 2.76116 0
M  V30 10477 H 1014.11 -2.98784 2.31379 0
M  V30 10478 H 1014.43 -5.70722 5.21053 0
M  V30 10479 H 1012.77 -5.13734 4.68084 0
M  V30 10480 H 1015.96 -3.64882 2.93221 0
M  V30 10481 H 1016.14 -4.88903 4.25298 0
M  V30 10482 N 1009.54 -0.859717 -1.32086 0
M  V30 10483 C 1010.96 -0.55025 -1.49815 0
M  V30 10484 C 1011.16 0.917966 -1.79376 0
M  V30 10485 O 1010.21 1.70073 -1.86632 0
M  V30 10486 C 1011.53 -1.44161 -2.6389 0
M  V30 10487 C 1013.08 -1.44257 -2.77775 0
M  V30 10488 C 1013.55 -2.31926 -3.94936 0
M  V30 10489 N 1015.04 -2.2975 -4.02206 0
M  V30 10490 C 1015.78 -2.9431 -4.92107 0
M  V30 10491 N 1015.27 -3.68001 -5.86981 0
M  V30 10492 N 1017.07 -2.83671 -4.8527 0
M  V30 10493 H 1009.22 -1.80987 -1.11164 0
M  V30 10494 H 1011.48 -0.773313 -0.548353 0
M  V30 10495 H 1011.19 -2.48588 -2.4879 0
M  V30 10496 H 1011.06 -1.13268 -3.59792 0
M  V30 10497 H 1013.45 -0.405923 -2.92295 0
M  V30 10498 H 1013.53 -1.79169 -1.82571 0
M  V30 10499 H 1013.17 -3.35661 -3.81174 0
M  V30 10500 H 1013.1 -1.94344 -4.89426 0
M  V30 10501 H 1015.59 -1.76177 -3.3432 0
M  V30 10502 H 1015.91 -4.14417 -6.52287 0
M  V30 10503 H 1014.25 -3.72109 -5.86992 0
M  V30 10504 H 1017.44 -2.25647 -4.10123 0
M  V30 10505 H 1017.61 -3.34267 -5.5513 0
M  V30 10506 N 1011.02 1.44971 -0.618145 0
M  V30 10507 C 1011.93 2.34403 0.0960457 0
M  V30 10508 C 1012.95 1.51862 0.849355 0
M  V30 10509 O 1014.12 1.84632 0.804557 0
M  V30 10510 C 1011.19 3.29646 1.07397 0
M  V30 10511 C 1010.25 4.28095 0.321466 0
M  V30 10512 C 1009.48 5.18787 1.25281 0
M  V30 10513 O 1009.7 5.1313 2.49106 0
M  V30 10514 O 1008.64 5.97282 0.744156 0
M  V30 10515 H 1012.46 2.96898 -0.639176 0
M  V30 10516 H 1010.05 1.44529 -0.37837 0
M  V30 10517 H 1011.93 3.88307 1.63694 0
M  V30 10518 H 1010.61 2.69702 1.79004 0
M  V30 10519 H 1009.51 3.73019 -0.284223 0
M  V30 10520 H 1010.85 4.90923 -0.354315 0
M  V30 10521 N 1012.5 0.357919 1.53482 0
M  V30 10522 C 1013.91 0.00655107 1.59599 0
M  V30 10523 C 1014.11 -1.47449 1.37336 0
M  V30 10524 O 1013.17 -2.2351 1.17472 0
M  V30 10525 C 1014.48 0.455617 2.97228 0
M  V30 10526 C 1016.03 0.409183 3.10314 0
M  V30 10527 C 1016.51 0.833941 4.50344 0
M  V30 10528 N 1018 0.788695 4.56436 0
M  V30 10529 C 1018.73 1.08914 5.62961 0
M  V30 10530 N 1018.23 1.45847 6.77274 0
M  V30 10531 N 1020.02 1.01243 5.52907 0
M  V30 10532 H 1012.17 1.32248 1.66206 0
M  V30 10533 H 1014.44 0.540047 0.779136 0
M  V30 10534 H 1014.14 1.48881 3.18634 0
M  V30 10535 H 1014.02 -0.161751 3.76853 0
M  V30 10536 H 1016.4 -0.614863 2.88623 0
M  V30 10537 H 1016.48 1.06195 2.32715 0
M  V30 10538 H 1016.13 1.85607 4.72771 0
M  V30 10539 H 1016.06 0.158507 5.26361 0
M  V30 10540 H 1018.55 0.516497 3.74354 0
M  V30 10541 H 1018.86 1.67218 7.54492 0
M  V30 10542 H 1017.21 1.49705 6.78685 0
M  V30 10543 H 1020.4 0.723137 4.62481 0
M  V30 10544 H 1020.57 1.24991 6.35831 0
M  V30 10545 N 1013.98 -1.5736 0.0868897 0
M  V30 10546 C 1015.2 -1.98388 -0.587349 0
M  V30 10547 C 1015.62 -0.965757 -1.6223 0
M  V30 10548 O 1014.98 0.0456981 -1.82443 0
M  V30 10549 C 1015.03 -3.39479 -1.24242 0
M  V30 10550 O 1014.75 -4.37393 -0.248878 0
M  V30 10551 C 1016.25 -3.95465 -2.00305 0
M  V30 10552 H 1013.47 -0.652111 -0.15809 0
M  V30 10553 H 1016.01 -2.03843 0.163754 0
M  V30 10554 H 1014.17 -3.35063 -1.94451 0
M  V30 10555 H 1014.58 -5.19525 -0.720678 0
M  V30 10556 H 1016.06 -4.96363 -2.41511 0
M  V30 10557 H 1016.53 -3.32832 -2.86565 0
M  V30 10558 H 1017.14 -4.03328 -1.34931 0
M  V30 10559 N 1015.45 0.186762 -1.56489 0
M  V30 10560 C 1016.36 1.25169 -1.98419 0
M  V30 10561 C 1017.38 1.49329 -0.893124 0
M  V30 10562 O 1018.56 1.61781 -1.19954 0
M  V30 10563 C 1015.62 2.57422 -2.32239 0
M  V30 10564 C 1014.68 2.4126 -3.55095 0
M  V30 10565 C 1013.92 3.67206 -3.87292 0
M  V30 10566 O 1014.14 4.71731 -3.20665 0
M  V30 10567 O 1013.07 3.62238 -4.80695 0
M  V30 10568 H 1016.9 0.925834 -2.89244 0
M  V30 10569 H 1014.48 0.392421 -1.44154 0
M  V30 10570 H 1016.37 3.35466 -2.5503 0
M  V30 10571 H 1015.04 2.89618 -1.44579 0
M  V30 10572 H 1013.95 1.61299 -3.37541 0
M  V30 10573 H 1015.28 2.13994 -4.43247 0
M  V30 10574 N 1016.93 1.50896 0.454776 0
M  V30 10575 C 1018.16 1.6648 1.22849 0
M  V30 10576 C 1018.58 0.354841 1.85435 0
M  V30 10577 O 1017.93 -0.664931 1.69956 0
M  V30 10578 C 1017.98 2.76787 2.32532 0
M  V30 10579 O 1017.7 4.02706 1.72509 0
M  V30 10580 C 1019.21 3.03488 3.23125 0
M  V30 10581 H 1016.43 0.559152 0.370932 0
M  V30 10582 H 1018.97 1.97215 0.540983 0
M  V30 10583 H 1017.12 2.48701 2.9703 0
M  V30 10584 H 1017.54 4.63834 2.44863 0
M  V30 10585 H 1019.01 3.84294 3.9626 0
M  V30 10586 H 1019.49 2.152 3.82865 0
M  V30 10587 H 1020.1 3.33167 2.64347 0
M  V30 10588 N 1018.41 -0.709066 1.40748 0
M  V30 10589 C 1019.34 -1.83583 1.4429 0
M  V30 10590 C 1020.32 -1.67378 0.303067 0
M  V30 10591 O 1021.51 -1.87312 0.512612 0
M  V30 10592 C 1018.64 -3.21599 1.31116 0
M  V30 10593 C 1017.59 -3.52486 2.4277 0
M  V30 10594 C 1016.92 -4.89716 2.14668 0
M  V30 10595 C 1018.22 -3.52824 3.85113 0
M  V30 10596 H 1019.91 -1.80876 2.38588 0
M  V30 10597 H 1017.46 -0.868795 1.14839 0
M  V30 10598 H 1019.41 -4.00123 1.32209 0
M  V30 10599 H 1018.13 -3.24898 0.332965 0
M  V30 10600 H 1016.79 -2.76305 2.40937 0
M  V30 10601 H 1016.44 -4.89625 1.15224 0
M  V30 10602 H 1016.14 -5.11347 2.89478 0
M  V30 10603 H 1017.66 -5.70566 2.17455 0
M  V30 10604 H 1019.08 -4.21377 3.88734 0
M  V30 10605 H 1017.48 -3.85984 4.59496 0
M  V30 10606 H 1018.55 -2.52073 4.14231 0
M  V30 10607 N 1019.89 -1.26353 -0.941956 0
M  V30 10608 C 1021.14 -1.11241 -1.68251 0
M  V30 10609 C 1021.45 0.344055 -1.9255 0
M  V30 10610 O 1022.66 0.615832 -2.64423 0
M  V30 10611 C 1021.11 -1.94269 -3.02965 0
M  V30 10612 C 1020.72 -3.44485 -2.86415 0
M  V30 10613 C 1022.47 -1.87764 -3.80716 0
M  V30 10614 C 1020.37 -4.19763 -4.16597 0
M  V30 10615 H 1019.3 -0.412694 -0.63103 0
M  V30 10616 H 1021.95 -1.50656 -1.04762 0
M  V30 10617 H 1020.34 -1.47687 -3.6743 0
M  V30 10618 H 1021.51 -3.9883 -2.30805 0
M  V30 10619 H 1019.82 -3.52218 -2.22107 0
M  V30 10620 H 1022.42 -2.41292 -4.77161 0
M  V30 10621 H 1022.76 -0.848195 -4.07568 0
M  V30 10622 H 1023.3 -2.32165 -3.23024 0
M  V30 10623 H 1020.04 -5.23173 -3.9493 0
M  V30 10624 H 1019.56 -3.70198 -4.71925 0
M  V30 10625 H 1021.24 -4.28168 -4.85058 0
M  V30 10626 N 1021.37 1.14642 -1.08144 0
M  V30 10627 C 1022.78 1.6719 -0.830923 0
M  V30 10628 C 1023.13 1.85373 0.642749 0
M  V30 10629 O 1022.25 1.56293 1.49671 0
M  V30 10630 C 1022.85 3.03697 -1.50179 0
M  V30 10631 C 1021.41 3.5329 -1.29858 0
M  V30 10632 C 1020.56 2.28828 -1.5663 0
M  V30 10633 H 1023.51 0.987441 -1.24239 0
M  V30 10634 H 1023.53 3.69023 -0.9275 0
M  V30 10635 H 1023.04 2.90431 -2.57432 0
M  V30 10636 H 1021.14 3.71783 -0.246626 0
M  V30 10637 H 1021.25 4.34231 -2.02436 0
M  V30 10638 H 1019.62 2.34769 -0.987716 0
M  V30 10639 H 1020.4 2.18141 -2.65084 0
M  V30 10640 N 1022.85 0.866709 1.31628 0
M  V30 10641 C 1023.76 0.323408 2.3236 0
M  V30 10642 C 1024.77 -0.564995 1.64572 0
M  V30 10643 O 1025.95 -0.462489 1.96018 0
M  V30 10644 C 1023.01 -0.469045 3.43513 0
M  V30 10645 C 1022.07 0.446928 4.26967 0
M  V30 10646 C 1021.31 -0.307799 5.32812 0
M  V30 10647 O 1021.53 -1.5363 5.49321 0
M  V30 10648 O 1020.46 0.332653 6.0098 0
M  V30 10649 H 1024.29 1.15827 2.80745 0
M  V30 10650 H 1021.87 0.629987 1.35468 0
M  V30 10651 H 1023.76 -0.918405 4.1127 0
M  V30 10652 H 1022.43 -1.28051 2.97296 0
M  V30 10653 H 1021.34 0.944719 3.61975 0
M  V30 10654 H 1022.67 1.2239 4.76741 0
M  V30 10655 N 1024.32 -1.44642 0.625825 0
M  V30 10656 C 1025.26 -2.27821 -0.131481 0
M  V30 10657 C 1026.23 -1.38224 -0.856324 0
M  V30 10658 O 1027.42 -1.67662 -0.861493 0
M  V30 10659 C 1024.55 -3.1703 -1.19204 0
M  V30 10660 C 1023.59 -4.22697 -0.568315 0
M  V30 10661 S 1024.42 -5.3169 0.637612 0
M  V30 10662 C 1025.58 -6.24468 -0.423088 0
M  V30 10663 H 1025.81 -2.91703 0.574177 0
M  V30 10664 H 1023.35 -1.4875 0.413844 0
M  V30 10665 H 1025.3 -3.6898 -1.79901 0
M  V30 10666 H 1023.97 -2.52379 -1.86986 0
M  V30 10667 H 1023.16 -4.8511 -1.36689 0
M  V30 10668 H 1022.76 -3.73983 -0.0360843 0
M  V30 10669 H 1025.05 -6.64967 -1.29713 0
M  V30 10670 H 1026 -7.07907 0.165338 0
M  V30 10671 H 1026.4 -5.59541 -0.746606 0
M  V30 10672 N 1025.8 -0.366053 -1.5329 0
M  V30 10673 C 1027.22 -0.0150149 -1.59593 0
M  V30 10674 C 1027.42 1.46719 -1.38116 0
M  V30 10675 O 1026.47 2.22884 -1.18656 0
M  V30 10676 C 1027.79 -0.471374 -2.96982 0
M  V30 10677 C 1029.33 -0.425634 -3.10092 0
M  V30 10678 C 1029.81 -0.857812 -4.49895 0
M  V30 10679 N 1031.3 -0.81289 -4.56011 0
M  V30 10680 C 1032.04 -1.11898 -5.62376 0
M  V30 10681 N 1031.53 -1.49436 -6.76491 0
M  V30 10682 N 1033.32 -1.04174 -5.52362 0
M  V30 10683 H 1025.48 -1.33127 -1.65502 0
M  V30 10684 H 1027.74 -0.544172 -0.776261 0
M  V30 10685 H 1027.44 -1.50569 -3.1784 0
M  V30 10686 H 1027.32 0.141764 -3.76934 0
M  V30 10687 H 1029.71 0.599548 -2.88945 0
M  V30 10688 H 1029.79 -1.07427 -2.32149 0
M  V30 10689 H 1029.43 -1.88111 -4.7178 0
M  V30 10690 H 1029.36 -0.186419 -5.2627 0
M  V30 10691 H 1031.85 -0.536343 -3.74075 0
M  V30 10692 H 1032.16 -1.71217 -7.53594 0
M  V30 10693 H 1030.51 -1.53302 -6.77882 0
M  V30 10694 H 1033.7 -0.747654 -4.62091 0
M  V30 10695 H 1033.87 -1.28362 -6.35159 0
M  V30 10696 N 1027.28 1.57312 -0.0952337 0
M  V30 10697 C 1028.51 1.98697 0.57682 0
M  V30 10698 C 1028.92 0.974347 1.61716 0
M  V30 10699 O 1028.28 -0.036022 1.82464 0
M  V30 10700 C 1028.33 3.40133 1.2244 0
M  V30 10701 O 1028.05 4.37518 0.225678 0
M  V30 10702 C 1029.55 3.96522 1.98205 0
M  V30 10703 H 1026.77 0.65294 0.154629 0
M  V30 10704 H 1029.32 2.03754 -0.174562 0
M  V30 10705 H 1027.47 3.3609 1.92671 0
M  V30 10706 H 1027.89 5.199 0.693116 0
M  V30 10707 H 1029.36 4.97637 2.38875 0
M  V30 10708 H 1029.84 3.34347 2.84796 0
M  V30 10709 H 1030.44 4.04038 1.3279 0
M  V30 10710 N 1028.76 -0.17846 1.56586 0
M  V30 10711 C 1030.03 -0.923096 1.72448 0
M  V30 10712 C 1030.41 -2.00692 0.654659 0
M  V30 10713 O 1029.76 -2.26079 -0.33171 0
M  V30 10714 C 1029.97 -1.49435 3.15389 0
M  V30 10715 C 1031.32 -1.97005 3.76131 0
M  V30 10716 O 1032.34 -1.59244 3.18622 0
M  V30 10717 O 1031.2 -2.66541 4.77094 0
M  V30 10718 H 1028.3 -0.434009 0.703964 0
M  V30 10719 H 1030.84 -0.16685 1.68878 0
M  V30 10720 H 1029.62 -0.713933 3.84732 0
M  V30 10721 H 1029.24 -2.31498 3.23256 0
M  V30 10722 N 1030.24 -1.51135 -0.446768 0
M  V30 10723 C 1031.46 -1.67129 -1.21965 0
M  V30 10724 C 1031.88 -0.36467 -1.85245 0
M  V30 10725 O 1031.24 0.655908 -1.70306 0
M  V30 10726 C 1031.29 -2.78016 -2.31061 0
M  V30 10727 O 1031.01 -4.03615 -1.70371 0
M  V30 10728 C 1032.51 -3.05197 -3.21511 0
M  V30 10729 H 1029.73 -0.561111 -0.367961 0
M  V30 10730 H 1032.27 -1.97499 -0.530517 0
M  V30 10731 H 1030.43 -2.50272 -2.95707 0
M  V30 10732 H 1030.84 -4.65126 -2.424 0
M  V30 10733 H 1032.32 -3.8639 -3.94216 0
M  V30 10734 H 1032.79 -2.17228 -3.81718 0
M  V30 10735 H 1033.4 -3.34565 -2.62577 0
M  V30 10736 N 1031.71 0.701592 -1.41122 0
M  V30 10737 C 1032.94 1.48833 -1.43291 0
M  V30 10738 C 1033.35 1.89168 -0.0348668 0
M  V30 10739 O 1032.69 1.56937 0.9548 0
M  V30 10740 C 1032.76 2.78533 -2.27287 0
M  V30 10741 C 1032.42 2.60438 -3.75528 0
M  V30 10742 C 1033.42 2.26778 -4.67833 0
M  V30 10743 C 1031.1 2.76266 -4.19503 0
M  V30 10744 C 1033.1 2.09176 -6.021 0
M  V30 10745 C 1030.78 2.58281 -5.53836 0
M  V30 10746 C 1031.78 2.24786 -6.4495 0
M  V30 10747 O 1031.47 2.06952 -7.76805 0
M  V30 10748 H 1031.2 0.465401 -0.490284 0
M  V30 10749 H 1033.76 0.871843 -1.85979 0
M  V30 10750 H 1031.99 3.42566 -1.79403 0
M  V30 10751 H 1033.67 3.40312 -2.21229 0
M  V30 10752 H 1034.44 2.1417 -4.35151 0
M  V30 10753 H 1030.32 3.01322 -3.48893 0
M  V30 10754 H 1033.86 1.82955 -6.73181 0
M  V30 10755 H 1029.76 2.70478 -5.86099 0
M  V30 10756 H 1030.53 2.21762 -7.87886 0
M  V30 10757 N 1033.19 1.2685 0.935242 0
M  V30 10758 C 1034.42 1.15538 1.71635 0
M  V30 10759 C 1034.83 -0.288698 1.8658 0
M  V30 10760 O 1034.19 -1.19721 1.37743 0
M  V30 10761 C 1034.24 1.8259 3.11999 0
M  V30 10762 O 1033.96 3.21355 2.97763 0
M  V30 10763 C 1035.46 1.77307 4.06297 0
M  V30 10764 H 1032.68 0.402055 0.537208 0
M  V30 10765 H 1035.23 1.67582 1.17203 0
M  V30 10766 H 1033.38 1.3447 3.63313 0
M  V30 10767 H 1033.8 3.54626 3.86446 0
M  V30 10768 H 1035.27 2.28851 5.02326 0
M  V30 10769 H 1035.75 0.740823 4.32907 0
M  V30 10770 H 1036.35 2.25007 3.60904 0
M  V30 10771 N 1034.67 -1.14067 1.0875 0
M  V30 10772 C 1035.95 -1.81389 0.73195 0
M  V30 10773 C 1036.33 -1.96005 -0.78391 0
M  V30 10774 O 1035.68 -1.52267 -1.70373 0
M  V30 10775 C 1035.89 -3.16858 1.46294 0
M  V30 10776 C 1037.23 -3.92305 1.62426 0
M  V30 10777 O 1038.26 -3.26459 1.42488 0
M  V30 10778 O 1037.12 -5.10393 1.9535 0
M  V30 10779 H 1034.21 -0.784354 0.262141 0
M  V30 10780 H 1036.76 -1.21054 1.18929 0
M  V30 10781 H 1035.53 -3.01404 2.49542 0
M  V30 10782 H 1035.15 -3.84889 0.997318 0
M  V30 10783 N 1036.15 -0.873678 -1.31166 0
M  V30 10784 C 1037.06 -0.335726 -2.32185 0
M  V30 10785 C 1038.07 0.556259 -1.64869 0
M  V30 10786 O 1039.25 0.452087 -1.9626 0
M  V30 10787 C 1036.32 0.450822 -3.43756 0
M  V30 10788 C 1035.38 -0.469565 -4.26724 0
M  V30 10789 C 1034.61 0.279538 -5.32967 0
M  V30 10790 O 1034.83 1.50715 -5.50128 0
M  V30 10791 O 1033.77 -0.36452 -6.00795 0
M  V30 10792 H 1037.59 -1.17314 -2.80127 0
M  V30 10793 H 1035.18 -0.637163 -1.35132 0
M  V30 10794 H 1037.06 0.896582 -4.11752 0
M  V30 10795 H 1035.73 1.26472 -2.9797 0
M  V30 10796 H 1034.64 -0.963902 -3.61469 0
M  V30 10797 H 1035.97 -1.24916 -4.76085 0
M  V30 10798 N 1037.63 1.44308 -0.633487 0
M  V30 10799 C 1038.88 2.01239 -0.136356 0
M  V30 10800 C 1039.19 1.50438 1.25011 0
M  V30 10801 O 1040.39 1.99513 1.84138 0
M  V30 10802 C 1038.85 3.59382 -0.193011 0
M  V30 10803 C 1038.46 4.19178 -1.58093 0
M  V30 10804 C 1040.2 4.23778 0.247534 0
M  V30 10805 C 1038.11 5.69553 -1.59258 0
M  V30 10806 H 1037.04 0.752521 -0.0472109 0
M  V30 10807 H 1039.69 1.65498 -0.79263 0
M  V30 10808 H 1038.07 3.92432 0.530408 0
M  V30 10809 H 1039.25 3.97662 -2.32813 0
M  V30 10810 H 1037.56 3.67079 -1.96576 0
M  V30 10811 H 1040.16 5.34075 0.258401 0
M  V30 10812 H 1040.5 3.96285 1.27529 0
M  V30 10813 H 1041.03 3.9554 -0.423469 0
M  V30 10814 H 1037.77 6.01784 -2.59878 0
M  V30 10815 H 1037.29 5.93185 -0.888352 0
M  V30 10816 H 1038.97 6.33234 -1.32756 0
M  V30 10817 N 1039.1 0.374177 1.53094 0
M  V30 10818 C 1040.04 -0.503065 2.23611 0
M  V30 10819 C 1041.05 -1.03915 1.25321 0
M  V30 10820 O 1042.24 -0.944064 1.51492 0
M  V30 10821 C 1039.34 -1.70825 2.92698 0
M  V30 10822 C 1038.51 -1.30217 4.17567 0
M  V30 10823 C 1037.57 -2.37036 4.69788 0
M  V30 10824 O 1036.6 -1.99069 5.33254 0
M  V30 10825 N 1037.8 -3.68743 4.4834 0
M  V30 10826 H 1040.56 0.101013 2.9953 0
M  V30 10827 H 1038.12 0.199778 1.60663 0
M  V30 10828 H 1040.12 -2.41779 3.24538 0
M  V30 10829 H 1038.69 -2.219 2.2018 0
M  V30 10830 H 1037.91 -0.422121 3.91933 0
M  V30 10831 H 1039.19 -1.00728 4.9873 0
M  V30 10832 H 1038.59 -4.0236 3.97647 0
M  V30 10833 H 1037.15 -4.35776 4.84709 0
M  V30 10834 N 1040.58 -1.57259 0.103575 0
M  V30 10835 C 1041.49 -2.18018 -0.866327 0
M  V30 10836 C 1042.51 -1.15198 -1.30404 0
M  V30 10837 O 1043.68 -1.47605 -1.37021 0
M  V30 10838 C 1040.75 -2.75533 -2.10434 0
M  V30 10839 C 1039.81 -3.93337 -1.72002 0
M  V30 10840 C 1039.04 -4.481 -2.89901 0
M  V30 10841 O 1039.27 -4.01784 -4.04877 0
M  V30 10842 O 1038.2 -5.39004 -2.67877 0
M  V30 10843 H 1042.03 -3.01322 -0.379338 0
M  V30 10844 H 1039.61 -1.48907 -0.121228 0
M  V30 10845 H 1041.49 -3.12259 -2.8297 0
M  V30 10846 H 1040.17 -1.9527 -2.58169 0
M  V30 10847 H 1039.08 -3.61408 -0.966193 0
M  V30 10848 H 1040.41 -4.74989 -1.29022 0
M  V30 10849 N 1042.06 0.170153 -1.56679 0
M  V30 10850 C 1042.97 1.23057 -1.99735 0
M  V30 10851 C 1043.99 1.48374 -0.908912 0
M  V30 10852 O 1045.16 1.60499 -1.21663 0
M  V30 10853 C 1042.23 2.54944 -2.34956 0
M  V30 10854 C 1041.29 2.3748 -3.57634 0
M  V30 10855 C 1040.52 3.63078 -3.91165 0
M  V30 10856 O 1040.74 4.68304 -3.2565 0
M  V30 10857 O 1039.68 3.57119 -4.8451 0
M  V30 10858 H 1043.5 0.895104 -2.9021 0
M  V30 10859 H 1041.09 0.377109 -1.44562 0
M  V30 10860 H 1042.97 3.32742 -2.58574 0
M  V30 10861 H 1041.65 2.88068 -1.47643 0
M  V30 10862 H 1040.55 1.57709 -3.39232 0
M  V30 10863 H 1041.89 2.0928 -4.45491 0
M  V30 10864 N 1043.54 1.5137 0.438746 0
M  V30 10865 C 1044.79 1.63202 1.18524 0
M  V30 10866 C 1045.1 0.353408 1.92381 0
M  V30 10867 O 1046.31 0.351086 2.6922 0
M  V30 10868 C 1044.76 2.88218 2.15542 0
M  V30 10869 C 1044.37 4.23078 1.47339 0
M  V30 10870 C 1046.11 3.09407 2.90633 0
M  V30 10871 C 1044.02 5.39246 2.42833 0
M  V30 10872 H 1042.95 0.607864 0.446114 0
M  V30 10873 H 1045.6 1.77835 0.452421 0
M  V30 10874 H 1043.98 2.67216 2.92253 0
M  V30 10875 H 1045.16 4.54457 0.761964 0
M  V30 10876 H 1043.47 4.07755 0.844065 0
M  V30 10877 H 1046.07 3.9337 3.62165 0
M  V30 10878 H 1046.41 2.22428 3.51897 0
M  V30 10879 H 1046.95 3.30743 2.21029 0
M  V30 10880 H 1043.69 6.2848 1.8626 0
M  V30 10881 H 1043.21 5.12245 3.12034 0
M  V30 10882 H 1044.88 5.71137 3.03992 0
M  V30 10883 N 1045.02 -0.694098 1.41492 0
M  V30 10884 C 1046.24 -1.48286 1.44288 0
M  V30 10885 C 1046.66 -1.88737 0.0485783 0
M  V30 10886 O 1046.02 -1.56881 -0.932449 0
M  V30 10887 C 1046.07 -2.74446 2.3529 0
M  V30 10888 O 1045.79 -2.35698 3.69294 0
M  V30 10889 C 1047.29 -3.68175 2.46905 0
M  V30 10890 H 1044.51 -0.45692 0.491391 0
M  V30 10891 H 1047.05 -0.854477 1.85793 0
M  V30 10892 H 1045.21 -3.33518 1.9709 0
M  V30 10893 H 1045.62 -3.17029 4.17843 0
M  V30 10894 H 1047.1 -4.53476 3.14743 0
M  V30 10895 H 1047.57 -4.12763 1.50078 0
M  V30 10896 H 1048.18 -3.15006 2.85747 0
M  V30 10897 N 1046.49 -1.27344 -0.928501 0
M  V30 10898 C 1047.44 -1.10001 -2.029 0
M  V30 10899 C 1048.41 -0.00131084 -1.661 0
M  V30 10900 O 1049.6 -0.163485 -1.90098 0
M  V30 10901 C 1046.74 -0.7524 -3.36798 0
M  V30 10902 C 1045.85 -1.92865 -3.86558 0
M  V30 10903 C 1044.98 -1.52299 -5.08899 0
M  V30 10904 C 1044.02 -2.66677 -5.50953 0
M  V30 10905 N 1043.16 -2.26706 -6.64491 0
M  V30 10906 H 1048 -2.0417 -2.17068 0
M  V30 10907 H 1045.54 -1.01637 -1.0634 0
M  V30 10908 H 1047.5 -0.531687 -4.13798 0
M  V30 10909 H 1046.13 0.15234 -3.2244 0
M  V30 10910 H 1045.18 -2.26192 -3.05845 0
M  V30 10911 H 1046.49 -2.78668 -4.13698 0
M  V30 10912 H 1045.64 -1.26348 -5.93398 0
M  V30 10913 H 1044.38 -0.636042 -4.83535 0
M  V30 10914 H 1043.39 -2.93344 -4.65004 0
M  V30 10915 H 1044.61 -3.55992 -5.78313 0
M  V30 10916 H 1042.56 -1.40462 -6.40786 0
M  V30 10917 H 1042.48 -3.06049 -6.91281 0
M  V30 10918 H 1043.74 -2.04 -7.52333 0
M  V30 10919 N 1047.97 1.13488 -1.09353 0
M  V30 10920 C 1049.2 1.89133 -0.85108 0
M  V30 10921 C 1049.62 1.78542 0.591976 0
M  V30 10922 O 1048.98 1.13243 1.41583 0
M  V30 10923 C 1049.03 3.36736 -1.29001 0
M  V30 10924 O 1048.13 4.09959 -0.447993 0
M  V30 10925 H 1047.47 0.58809 -0.308296 0
M  V30 10926 H 1050 1.43593 -1.45747 0
M  V30 10927 H 1050.01 3.87564 -1.27508 0
M  V30 10928 H 1048.69 3.43762 -2.34095 0
M  V30 10929 H 1047.27 3.69155 -0.52717 0
M  V30 10930 N 1049.45 0.880621 1.30701 0
M  V30 10931 C 1050.86 0.547993 1.78477 0
M  V30 10932 C 1051.21 -0.935633 1.72454 0
M  V30 10933 O 1050.34 -1.73094 1.29874 0
M  V30 10934 C 1050.93 0.98795 3.24076 0
M  V30 10935 C 1049.49 0.706805 3.69704 0
M  V30 10936 C 1048.64 1.17335 2.51252 0
M  V30 10937 H 1051.59 1.06528 1.17633 0
M  V30 10938 H 1051.61 0.31508 3.79193 0
M  V30 10939 H 1051.12 2.06778 3.28427 0
M  V30 10940 H 1049.22 -0.36122 3.70845 0
M  V30 10941 H 1049.34 1.2913 4.6137 0
M  V30 10942 H 1047.7 0.592808 2.47705 0
M  V30 10943 H 1048.48 2.26083 2.58343 0
M  V30 10944 N 1050.93 -1.4397 0.641131 0
M  V30 10945 C 1052.18 -2.01946 0.149629 0
M  V30 10946 C 1052.5 -1.50496 -1.23212 0
M  V30 10947 O 1051.76 -0.683453 -1.83378 0
M  V30 10948 C 1052.06 -3.5727 0.0963368 0
M  V30 10949 C 1051.72 -4.28016 1.4182 0
M  V30 10950 C 1050.39 -4.47059 1.78021 0
M  V30 10951 C 1052.74 -4.68183 2.29028 0
M  V30 10952 C 1050.07 -5.03532 3.01119 0
M  V30 10953 C 1052.42 -5.26019 3.51406 0
M  V30 10954 C 1051.08 -5.4328 3.87818 0
M  V30 10955 H 1050.35 -0.738974 0.0547531 0
M  V30 10956 H 1053 -1.72605 0.829436 0
M  V30 10957 H 1051.3 -3.86083 -0.666879 0
M  V30 10958 H 1053 -3.99871 -0.300635 0
M  V30 10959 H 1049.59 -4.13531 1.12651 0
M  V30 10960 H 1053.78 -4.53175 2.02353 0
M  V30 10961 H 1049.03 -5.15082 3.29395 0
M  V30 10962 H 1053.21 -5.56092 4.19208 0
M  V30 10963 H 1050.83 -5.86805 4.83284 0
M  V30 10964 N 1052.41 -0.382291 -1.52893 0
M  V30 10965 C 1053.34 0.500194 -2.22651 0
M  V30 10966 C 1054.32 1.06969 -1.22459 0
M  V30 10967 O 1055.5 1.12267 -1.51422 0
M  V30 10968 C 1052.63 1.6917 -2.93427 0
M  V30 10969 C 1051.68 1.24811 -4.07829 0
M  V30 10970 S 1052.51 0.235466 -5.34982 0
M  V30 10971 C 1053.66 1.43292 -6.09277 0
M  V30 10972 H 1053.9 -0.0921913 -2.97157 0
M  V30 10973 H 1051.43 -0.16645 -1.535 0
M  V30 10974 H 1053.39 2.37507 -3.34815 0
M  V30 10975 H 1052.05 2.25537 -2.18613 0
M  V30 10976 H 1051.24 2.13754 -4.56426 0
M  V30 10977 H 1050.84 0.643744 -3.68418 0
M  V30 10978 H 1053.14 2.36118 -6.35023 0
M  V30 10979 H 1054.08 0.988003 -7.01173 0
M  V30 10980 H 1054.49 1.64655 -5.39953 0
M  V30 10981 N 1053.89 1.57202 -0.111913 0
M  V30 10982 C 1055.13 1.94565 0.546713 0
M  V30 10983 C 1055.45 0.995644 1.67666 0
M  V30 10984 O 1054.72 0.0506681 1.95834 0
M  V30 10985 H 1053.3 0.718334 0.204951 0
M  V30 10986 H 1055.97 1.94074 -0.179193 0
M  V30 10987 H 1055.06 2.9742 0.945931 0
M  V30 10988 N 1055.36 -0.161842 1.56767 0
M  V30 10989 C 1056.31 -1.2002 1.97139 0
M  V30 10990 C 1057.28 -1.43486 0.836713 0
M  V30 10991 O 1058.47 -1.56069 1.0976 0
M  V30 10992 C 1055.61 -2.53228 2.34456 0
M  V30 10993 C 1054.72 -2.37062 3.61145 0
M  V30 10994 C 1053.85 -3.63202 3.87631 0
M  V30 10995 C 1052.89 -3.42008 5.07638 0
M  V30 10996 N 1052.03 -4.60242 5.30209 0
M  V30 10997 H 1056.87 -0.848918 2.85653 0
M  V30 10998 H 1054.41 -0.407753 1.41336 0
M  V30 10999 H 1056.36 -3.30879 2.54116 0
M  V30 11000 H 1054.99 -2.86333 1.4904 0
M  V30 11001 H 1054.05 -1.50539 3.49345 0
M  V30 11002 H 1055.36 -2.17353 4.48953 0
M  V30 11003 H 1054.51 -4.49285 4.0771 0
M  V30 11004 H 1053.25 -3.85899 2.98216 0
M  V30 11005 H 1052.26 -2.54312 4.87448 0
M  V30 11006 H 1053.48 -3.20724 5.98593 0
M  V30 11007 H 1051.43 -4.8314 4.43747 0
M  V30 11008 H 1051.34 -4.43481 6.12259 0
M  V30 11009 H 1052.61 -5.47581 5.54775 0
M  V30 11010 N 1056.84 -1.516 -0.430713 0
M  V30 11011 C 1058.07 -1.68414 -1.20185 0
M  V30 11012 C 1058.48 -0.384297 -1.84847 0
M  V30 11013 O 1057.84 0.637808 -1.70992 0
M  V30 11014 C 1057.89 -2.80451 -2.28099 0
M  V30 11015 O 1057.61 -4.05399 -1.66081 0
M  V30 11016 C 1059.11 -3.0859 -3.18256 0
M  V30 11017 H 1056.33 -0.564982 -0.361989 0
M  V30 11018 H 1058.88 -1.9805 -0.50954 0
M  V30 11019 H 1057.03 -2.53395 -2.93036 0
M  V30 11020 H 1057.45 -4.67671 -2.37453 0
M  V30 11021 H 1058.92 -3.9055 -3.90096 0
M  V30 11022 H 1059.4 -2.21264 -3.79393 0
M  V30 11023 H 1060 -3.37331 -2.59014 0
M  V30 11024 N 1058.32 0.686584 -1.41858 0
M  V30 11025 C 1059.23 1.83002 -1.46791 0
M  V30 11026 C 1060.25 1.70284 -0.357675 0
M  V30 11027 O 1061.42 1.92042 -0.606781 0
M  V30 11028 C 1058.49 3.19056 -1.35661 0
M  V30 11029 C 1057.55 3.43817 -2.57077 0
M  V30 11030 C 1056.78 4.7338 -2.46469 0
M  V30 11031 O 1057 5.50483 -1.49413 0
M  V30 11032 O 1055.94 4.99124 -3.36391 0
M  V30 11033 H 1059.76 1.81797 -2.43277 0
M  V30 11034 H 1057.35 0.840812 -1.23494 0
M  V30 11035 H 1059.23 4.00267 -1.31773 0
M  V30 11036 H 1057.91 3.20925 -0.422951 0
M  V30 11037 H 1056.81 2.625 -2.66541 0
M  V30 11038 H 1058.15 3.4677 -3.49302 0
M  V30 11039 N 1059.8 1.27835 0.921735 0
M  V30 11040 C 1060.71 1.12904 2.05645 0
M  V30 11041 C 1061.72 0.0575704 1.73905 0
M  V30 11042 O 1062.9 0.265261 1.99645 0
M  V30 11043 C 1059.96 0.783957 3.3772 0
M  V30 11044 C 1059.03 1.93694 3.8312 0
M  V30 11045 C 1058.26 1.60823 5.08893 0
M  V30 11046 O 1058.48 0.518873 5.68035 0
M  V30 11047 O 1057.42 2.44932 5.49811 0
M  V30 11048 H 1061.24 2.08143 2.21157 0
M  V30 11049 H 1058.83 1.07078 1.04185 0
M  V30 11050 H 1060.71 0.605107 4.17033 0
M  V30 11051 H 1059.38 -0.138849 3.23402 0
M  V30 11052 H 1058.29 2.17089 3.04669 0
M  V30 11053 H 1059.62 2.84016 4.0199 0
M  V30 11054 N 1061.28 -1.12907 1.09954 0
M  V30 11055 C 1062.19 -2.22082 0.756095 0
M  V30 11056 C 1063.2 -1.72277 -0.244272 0
M  V30 11057 O 1064.38 -2.01224 -0.0842637 0
M  V30 11058 C 1061.44 -3.46192 0.187642 0
M  V30 11059 C 1060.5 -4.10861 1.24465 0
M  V30 11060 C 1059.74 -5.29047 0.703227 0
M  V30 11061 O 1059.96 -5.68443 -0.472043 0
M  V30 11062 O 1058.89 -5.83904 1.46082 0
M  V30 11063 H 1062.72 -2.53842 1.66727 0
M  V30 11064 H 1060.3 -1.21145 0.874316 0
M  V30 11065 H 1062.19 -4.21212 -0.125774 0
M  V30 11066 H 1060.86 -3.16119 -0.696459 0
M  V30 11067 H 1059.77 -3.37643 1.61085 0
M  V30 11068 H 1061.1 -4.45078 2.10159 0
M  V30 11069 N 1062.75 -0.88754 -1.30232 0
M  V30 11070 C 1064 -0.508031 -1.96334 0
M  V30 11071 C 1064.33 0.940905 -1.69884 0
M  V30 11072 O 1063.61 1.66523 -1.005 0
M  V30 11073 C 1063.89 -0.786566 -3.51405 0
M  V30 11074 C 1063.74 -2.28632 -3.8736 0
M  V30 11075 C 1065.06 -0.264803 -4.39303 0
M  V30 11076 H 1062.18 -0.186051 -0.71313 0
M  V30 11077 H 1064.82 -1.112 -1.5406 0
M  V30 11078 H 1062.97 -0.272523 -3.87543 0
M  V30 11079 H 1064.65 -2.86896 -3.61231 0
M  V30 11080 H 1062.89 -2.75194 -3.35337 0
M  V30 11081 H 1063.56 -2.43181 -4.95547 0
M  V30 11082 H 1066.04 -0.704809 -4.10087 0
M  V30 11083 H 1064.91 -0.488998 -5.46717 0
M  V30 11084 H 1065.17 0.834055 -4.34161 0
M  V30 11085 N 1064.23 1.43628 -0.648757 0
M  V30 11086 C 1065.48 2.01864 -0.160336 0
M  V30 11087 C 1065.81 1.51148 1.22412 0
M  V30 11088 O 1065.06 0.693168 1.83013 0
M  V30 11089 C 1065.36 3.57214 -0.115282 0
M  V30 11090 C 1065.03 4.27258 -1.44088 0
M  V30 11091 C 1063.69 4.46109 -1.8039 0
M  V30 11092 C 1066.04 4.66962 -2.31508 0
M  V30 11093 C 1063.37 5.01928 -3.03785 0
M  V30 11094 C 1065.72 5.24148 -3.54191 0
M  V30 11095 C 1064.39 5.41216 -3.90694 0
M  V30 11096 H 1063.66 0.738674 -0.0586712 0
M  V30 11097 H 1066.3 1.72163 -0.838578 0
M  V30 11098 H 1064.61 3.86431 0.646395 0
M  V30 11099 H 1066.3 4.00025 0.279425 0
M  V30 11100 H 1062.89 4.12928 -1.14842 0
M  V30 11101 H 1067.08 4.52095 -2.04753 0
M  V30 11102 H 1062.33 5.13328 -3.32122 0
M  V30 11103 H 1066.51 5.53861 -4.22151 0
M  V30 11104 H 1064.14 5.84234 -4.8639 0
M  V30 11105 N 1065.71 0.390394 1.52688 0
M  V30 11106 C 1066.94 -0.194013 2.06491 0
M  V30 11107 C 1067.36 -1.3965 1.26014 0
M  V30 11108 O 1066.72 -1.79038 0.285468 0
M  V30 11109 C 1066.77 -0.541306 3.56514 0
M  V30 11110 O 1065.87 -1.63509 3.78601 0
M  V30 11111 H 1065.21 -0.0223608 0.663623 0
M  V30 11112 H 1067.74 0.558179 1.96839 0
M  V30 11113 H 1067.75 -0.805301 3.99974 0
M  V30 11114 H 1066.43 0.337828 4.14526 0
M  V30 11115 H 1065 -1.36473 3.4703 0
M  V30 11116 N 1067.19 -1.57141 0.120249 0
M  V30 11117 C 1068.44 -1.94852 -0.536387 0
M  V30 11118 C 1068.76 -1.00452 -1.67136 0
M  V30 11119 O 1068.03 -0.061053 -1.95805 0
M  V30 11120 H 1066.61 -0.719411 -0.201138 0
M  V30 11121 H 1069.27 -1.93977 0.189482 0
M  V30 11122 H 1068.37 -2.97917 -0.930145 0
M  V30 11123 N 1068.67 0.153526 -1.5685 0
M  V30 11124 C 1069.6 1.21906 -1.9291 0
M  V30 11125 C 1070.58 1.4189 -0.794098 0
M  V30 11126 O 1071.76 1.56609 -1.0491 0
M  V30 11127 C 1068.89 2.57908 -2.19548 0
M  V30 11128 C 1067.93 2.54557 -3.42203 0
M  V30 11129 S 1068.77 2.01891 -4.95984 0
M  V30 11130 C 1069.92 3.39635 -5.25737 0
M  V30 11131 H 1070.16 0.911382 -2.82986 0
M  V30 11132 H 1067.69 0.358863 -1.50172 0
M  V30 11133 H 1069.65 3.36177 -2.35575 0
M  V30 11134 H 1068.31 2.85868 -1.30147 0
M  V30 11135 H 1067.5 3.54657 -3.58098 0
M  V30 11136 H 1067.1 1.84393 -3.25385 0
M  V30 11137 H 1069.4 4.35716 -5.18804 0
M  V30 11138 H 1070.34 3.28599 -6.27239 0
M  V30 11139 H 1070.75 3.36469 -4.53265 0
M  V30 11140 N 1070.14 1.51827 0.422667 0
M  V30 11141 C 1071.09 1.74198 1.51406 0
M  V30 11142 C 1072.06 0.584013 1.55494 0
M  V30 11143 O 1073.25 0.820079 1.72277 0
M  V30 11144 C 1070.39 1.88627 2.88988 0
M  V30 11145 C 1069.5 3.16233 2.94314 0
M  V30 11146 C 1068.63 3.21172 4.2311 0
M  V30 11147 C 1067.67 4.43033 4.2236 0
M  V30 11148 N 1066.81 4.4544 5.42704 0
M  V30 11149 H 1071.65 2.67352 1.31632 0
M  V30 11150 H 1069.19 1.32487 0.63919 0
M  V30 11151 H 1071.15 1.94976 3.68837 0
M  V30 11152 H 1069.78 0.988673 3.07287 0
M  V30 11153 H 1068.83 3.19123 2.07039 0
M  V30 11154 H 1070.14 4.06104 2.89623 0
M  V30 11155 H 1069.29 3.26517 5.11343 0
M  V30 11156 H 1068.03 2.29216 4.30478 0
M  V30 11157 H 1067.04 4.37849 3.32518 0
M  V30 11158 H 1068.26 5.3627 4.16643 0
M  V30 11159 H 1066.21 3.56361 5.50766 0
M  V30 11160 H 1066.13 5.29138 5.39953 0
M  V30 11161 H 1067.39 4.54997 6.32928 0
M  V30 11162 N 1071.62 -0.679052 1.4222 0
M  V30 11163 C 1072.55 -1.80481 1.48152 0
M  V30 11164 C 1073.53 -1.66698 0.338502 0
M  V30 11165 O 1074.72 -1.86183 0.552228 0
M  V30 11166 C 1071.85 -3.18746 1.37908 0
M  V30 11167 C 1070.8 -3.47258 2.50192 0
M  V30 11168 C 1070.13 -4.85052 2.25008 0
M  V30 11169 C 1071.43 -3.44576 3.92511 0
M  V30 11170 H 1073.12 -1.75774 2.42371 0
M  V30 11171 H 1070.67 -0.844241 1.16656 0
M  V30 11172 H 1072.62 -3.97229 1.40666 0
M  V30 11173 H 1071.35 -3.24119 0.401806 0
M  V30 11174 H 1070 -2.71133 2.46744 0
M  V30 11175 H 1069.65 -4.8707 1.25584 0
M  V30 11176 H 1069.35 -5.05092 3.00259 0
M  V30 11177 H 1070.88 -5.65825 2.29508 0
M  V30 11178 H 1072.29 -4.13036 3.97585 0
M  V30 11179 H 1070.69 -3.76151 4.67579 0
M  V30 11180 H 1071.76 -2.4323 4.19484 0
M  V30 11181 N 1073.1 -1.28322 -0.914942 0
M  V30 11182 C 1074.33 -1.1837 -1.70304 0
M  V30 11183 C 1074.75 0.254291 -1.86373 0
M  V30 11184 O 1074.11 1.18398 -1.37301 0
M  V30 11185 C 1074.16 -1.88603 -3.07346 0
M  V30 11186 O 1073.26 -1.19268 -3.94777 0
M  V30 11187 H 1072.6 -0.410978 -0.52153 0
M  V30 11188 H 1075.13 -1.69622 -1.14409 0
M  V30 11189 H 1075.14 -1.96463 -3.57584 0
M  V30 11190 H 1073.82 -2.93201 -2.94967 0
M  V30 11191 H 1072.39 -1.19563 -3.53212 0
M  V30 11192 N 1074.58 1.12322 -1.10551 0
M  V30 11193 C 1075.81 1.87679 -0.87087 0
M  V30 11194 C 1076.22 1.79711 0.578733 0
M  V30 11195 O 1075.58 1.17185 1.39907 0
M  V30 11196 C 1075.63 3.36846 -1.31213 0
M  V30 11197 O 1075.35 3.44626 -2.70489 0
M  V30 11198 C 1076.85 4.29138 -1.11156 0
M  V30 11199 H 1074.07 0.593788 -0.3125 0
M  V30 11200 H 1076.62 1.42116 -1.47048 0
M  V30 11201 H 1074.77 3.79948 -0.756169 0
M  V30 11202 H 1075.18 4.37441 -2.89389 0
M  V30 11203 H 1076.66 5.32082 -1.46944 0
M  V30 11204 H 1077.14 4.39171 -0.0502963 0
M  V30 11205 H 1077.74 3.91818 -1.65405 0
M  V30 11206 N 1076.06 0.894434 1.2976 0
M  V30 11207 C 1077.28 0.5322 2.00455 0
M  V30 11208 C 1077.71 -0.874427 1.66539 0
M  V30 11209 O 1077.06 -1.58113 0.887129 0
M  V30 11210 C 1077.11 0.725264 3.53231 0
M  V30 11211 O 1076.22 -0.224612 4.11788 0
M  V30 11212 H 1075.56 0.208562 0.630395 0
M  V30 11213 H 1078.09 1.20458 1.65382 0
M  V30 11214 H 1078.1 0.627889 4.0314 0
M  V30 11215 H 1076.77 1.75079 3.77253 0
M  V30 11216 H 1075.35 -0.0801361 3.72814 0
M  V30 11217 N 1077.53 -1.43282 0.656365 0
M  V30 11218 C 1078.46 -2.33492 -0.0196962 0
M  V30 11219 C 1079.45 -1.49647 -0.80868 0
M  V30 11220 O 1080.63 -1.78303 -0.769529 0
M  V30 11221 C 1077.76 -3.33052 -0.984574 0
M  V30 11222 C 1076.71 -4.26908 -0.305483 0
M  V30 11223 C 1076.04 -5.16531 -1.38202 0
M  V30 11224 C 1077.34 -5.16073 0.804081 0
M  V30 11225 H 1079.03 -2.90272 0.733661 0
M  V30 11226 H 1076.58 -1.39574 0.354259 0
M  V30 11227 H 1078.53 -3.9506 -1.46647 0
M  V30 11228 H 1077.26 -2.74535 -1.76913 0
M  V30 11229 H 1075.92 -3.66268 0.155995 0
M  V30 11230 H 1075.56 -4.54351 -2.1581 0
M  V30 11231 H 1075.26 -5.80148 -0.932878 0
M  V30 11232 H 1076.79 -5.81414 -1.86522 0
M  V30 11233 H 1078.2 -5.71873 0.404212 0
M  V30 11234 H 1076.6 -5.88427 1.17789 0
M  V30 11235 H 1077.67 -4.55574 1.66073 0
M  V30 11236 N 1079.01 -0.398486 -1.52479 0
M  V30 11237 C 1080.24 0.183059 -2.06591 0
M  V30 11238 C 1080.66 1.3898 -1.26753 0
M  V30 11239 O 1080.02 1.78885 -0.294959 0
M  V30 11240 C 1080.07 0.522392 -3.56796 0
M  V30 11241 O 1079.17 1.61499 -3.79462 0
M  V30 11242 H 1078.51 0.0188411 -0.663733 0
M  V30 11243 H 1081.04 -0.56861 -1.9654 0
M  V30 11244 H 1081.05 0.784078 -4.00395 0
M  V30 11245 H 1079.73 -0.359807 -4.14341 0
M  V30 11246 H 1078.31 1.3463 -3.47749 0
M  V30 11247 N 1080.49 1.57075 -0.12858 0
M  V30 11248 C 1081.4 2.19369 0.831533 0
M  V30 11249 C 1082.42 1.17258 1.28555 0
M  V30 11250 O 1083.59 1.49766 1.34656 0
M  V30 11251 C 1080.66 2.78846 2.06024 0
M  V30 11252 C 1079.72 3.96024 1.65722 0
M  V30 11253 C 1078.95 4.52655 2.82735 0
M  V30 11254 O 1079.18 4.08175 3.98434 0
M  V30 11255 O 1078.11 5.43198 2.59268 0
M  V30 11256 H 1081.94 3.01887 0.331352 0
M  V30 11257 H 1079.52 1.49081 0.0975226 0
M  V30 11258 H 1081.4 3.16721 2.77967 0
M  V30 11259 H 1080.08 1.99353 2.5503 0
M  V30 11260 H 1078.98 3.62899 0.908574 0
M  V30 11261 H 1080.32 4.76981 1.21449 0
M  V30 11262 N 1081.97 -0.145205 1.5693 0
M  V30 11263 C 1083.38 -0.705089 1.72874 0
M  V30 11264 C 1083.73 -1.81577 0.743261 0
M  V30 11265 O 1082.86 -2.16214 -0.0897153 0
M  V30 11266 C 1083.45 -1.28578 3.13454 0
M  V30 11267 C 1082.01 -1.79221 3.30994 0
M  V30 11268 C 1081.16 -0.681392 2.68798 0
M  V30 11269 H 1084.11 0.0804798 1.58496 0
M  V30 11270 H 1084.13 -2.15558 3.13552 0
M  V30 11271 H 1083.64 -0.477186 3.85155 0
M  V30 11272 H 1081.74 -2.62642 2.64292 0
M  V30 11273 H 1081.86 -1.91969 4.38959 0
M  V30 11274 H 1080.22 -1.10847 2.29314 0
M  V30 11275 H 1081 0.115786 3.43105 0
M  V30 11276 N 1083.45 -1.52049 -0.414609 0
M  V30 11277 C 1084.7 -1.65067 -1.15912 0
M  V30 11278 C 1085.01 -0.383969 -1.91794 0
M  V30 11279 O 1086.22 -0.393872 -2.68628 0
M  V30 11280 C 1084.67 -2.91611 -2.1093 0
M  V30 11281 C 1084.28 -4.25369 -1.4059 0
M  V30 11282 C 1086.02 -3.13992 -2.85674 0
M  V30 11283 C 1083.93 -5.43041 -2.34223 0
M  V30 11284 H 1082.86 -0.614884 -0.436387 0
M  V30 11285 H 1085.51 -1.78533 -0.424072 0
M  V30 11286 H 1083.89 -2.71831 -2.87965 0
M  V30 11287 H 1085.07 -4.55611 -0.689568 0
M  V30 11288 H 1083.38 -4.09047 -0.779088 0
M  V30 11289 H 1085.98 -3.99082 -3.55861 0
M  V30 11290 H 1086.32 -2.27998 -3.48314 0
M  V30 11291 H 1086.86 -3.34217 -2.1574 0
M  V30 11292 H 1083.59 -6.31364 -1.76238 0
M  V30 11293 H 1083.11 -5.17144 -3.03845 0
M  V30 11294 H 1084.79 -5.75901 -2.94868 0
M  V30 11295 N 1084.93 0.6715 -1.42579 0
M  V30 11296 C 1085.88 1.77767 -1.42769 0
M  V30 11297 C 1086.86 1.58106 -0.298568 0
M  V30 11298 O 1088.05 1.68528 -0.541037 0
M  V30 11299 C 1085.18 3.16248 -1.33574 0
M  V30 11300 C 1084.27 3.41521 -2.51445 0
M  V30 11301 N 1084.66 3.37361 -3.76857 0
M  V30 11302 C 1082.96 3.7217 -2.45776 0
M  V30 11303 C 1083.66 3.62209 -4.5517 0
M  V30 11304 N 1082.63 3.83134 -3.85628 0
M  V30 11305 H 1086.43 1.72949 -2.37626 0
M  V30 11306 H 1083.95 0.872467 -1.36974 0
M  V30 11307 H 1085.95 3.9552 -1.31793 0
M  V30 11308 H 1084.61 3.22261 -0.397223 0
M  V30 11309 H 1085.62 3.17187 -4.09406 0
M  V30 11310 H 1082.29 3.85408 -1.6052 0
M  V30 11311 H 1083.68 3.64925 -5.64162 0
M  V30 11312 N 1086.4 1.28806 0.908124 0
M  V30 11313 C 1087.65 1.1646 1.66027 0
M  V30 11314 C 1087.98 -0.285025 1.92097 0
M  V30 11315 O 1087.26 -1.20675 1.52538 0
M  V30 11316 C 1087.54 1.96951 3.01467 0
M  V30 11317 C 1087.39 3.50007 2.82515 0
M  V30 11318 C 1088.71 1.78932 4.02084 0
M  V30 11319 H 1085.83 0.424435 0.602515 0
M  V30 11320 H 1088.47 1.58185 1.0525 0
M  V30 11321 H 1086.62 1.61495 3.53344 0
M  V30 11322 H 1088.3 3.95401 2.37605 0
M  V30 11323 H 1086.54 3.75356 2.17463 0
M  V30 11324 H 1087.21 4.01591 3.7872 0
M  V30 11325 H 1089.69 2.09885 3.59287 0
M  V30 11326 H 1088.56 2.37615 4.94803 0
M  V30 11327 H 1088.82 0.742286 4.35824 0
M  V30 11328 N 1087.88 -1.11734 1.11145 0
M  V30 11329 C 1089.11 -1.87215 0.880811 0
M  V30 11330 C 1089.52 -1.80016 -0.569195 0
M  V30 11331 O 1088.88 -1.17926 -1.39283 0
M  V30 11332 C 1088.93 -3.36146 1.32998 0
M  V30 11333 O 1088.65 -3.43187 2.72313 0
M  V30 11334 C 1090.15 -4.28542 1.1343 0
M  V30 11335 H 1087.37 -0.592123 0.315645 0
M  V30 11336 H 1089.92 -1.41335 1.478 0
M  V30 11337 H 1088.07 -3.79542 0.776308 0
M  V30 11338 H 1088.49 -4.359 2.91705 0
M  V30 11339 H 1089.96 -5.31295 1.49764 0
M  V30 11340 H 1090.44 -4.39138 0.0735859 0
M  V30 11341 H 1091.04 -3.90935 1.67481 0
M  V30 11342 N 1089.36 -0.901303 -1.29284 0
M  V30 11343 C 1090.27 -0.3849 -2.31421 0
M  V30 11344 C 1091.29 0.521163 -1.66012 0
M  V30 11345 O 1092.46 0.410356 -1.97175 0
M  V30 11346 C 1089.53 0.377804 -3.44635 0
M  V30 11347 C 1088.59 -0.559974 -4.25632 0
M  V30 11348 C 1087.82 0.166425 -5.3344 0
M  V30 11349 O 1088.04 1.39012 -5.53202 0
M  V30 11350 O 1086.98 -0.491875 -5.99887 0
M  V30 11351 H 1090.8 -1.2323 -2.77575 0
M  V30 11352 H 1088.39 -0.665683 -1.3375 0
M  V30 11353 H 1090.27 0.809041 -4.13561 0
M  V30 11354 H 1088.95 1.20124 -3.00586 0
M  V30 11355 H 1087.85 -1.04036 -3.59343 0
M  V30 11356 H 1089.19 -1.34987 -4.73328 0
M  V30 11357 N 1090.84 1.42931 -0.663954 0
M  V30 11358 C 1092.06 2.06544 -0.188201 0
M  V30 11359 C 1092.49 1.495 1.14155 0
M  V30 11360 O 1091.85 0.609164 1.7076 0
M  V30 11361 C 1091.89 3.60393 -0.122105 0
M  V30 11362 O 1091 4.02176 0.91258 0
M  V30 11363 H 1090.34 0.656458 -0.0997967 0
M  V30 11364 H 1092.87 1.83253 -0.909909 0
M  V30 11365 H 1092.88 4.07959 0.0576568 0
M  V30 11366 H 1091.55 4.01287 -1.09276 0
M  V30 11367 H 1090.13 3.6618 0.704738 0
M  V30 11368 N 1092.32 0.406567 1.52266 0
M  V30 11369 C 1093.54 -0.172101 2.06685 0
M  V30 11370 C 1093.97 -1.38306 1.27488 0
M  V30 11371 O 1093.32 -1.78726 0.304441 0
M  V30 11372 C 1093.37 -0.503463 3.57068 0
M  V30 11373 O 1092.48 -1.59485 3.80314 0
M  V30 11374 H 1091.82 -0.0153209 0.663823 0
M  V30 11375 H 1094.35 0.579025 1.96236 0
M  V30 11376 H 1094.36 -0.762833 4.00805 0
M  V30 11377 H 1093.03 0.381775 4.14144 0
M  V30 11378 H 1091.61 -1.32784 3.48458 0
M  V30 11379 N 1093.79 -1.57004 0.136909 0
M  V30 11380 C 1095.04 -1.96087 -0.517477 0
M  V30 11381 C 1095.37 -1.0213 -1.65176 0
M  V30 11382 O 1094.65 -0.0617958 -1.94402 0
M  V30 11383 C 1094.93 -3.44958 -1.03323 0
M  V30 11384 C 1094.78 -4.49691 0.0988609 0
M  V30 11385 C 1096.1 -3.96091 -1.91832 0
M  V30 11386 H 1093.22 -0.712978 -0.186632 0
M  V30 11387 H 1095.86 -1.88767 0.216095 0
M  V30 11388 H 1094.01 -3.51327 -1.65836 0
M  V30 11389 H 1095.69 -4.55409 0.734847 0
M  V30 11390 H 1093.93 -4.271 0.75947 0
M  V30 11391 H 1094.6 -5.51165 -0.303554 0
M  V30 11392 H 1097.08 -3.92139 -1.39164 0
M  V30 11393 H 1095.95 -5.00742 -2.24831 0
M  V30 11394 H 1096.21 -3.37846 -2.85153 0
M  V30 11395 N 1095.27 0.136881 -1.57004 0
M  V30 11396 C 1096.18 1.18793 -2.023 0
M  V30 11397 C 1097.2 1.46412 -0.94018 0
M  V30 11398 O 1098.37 1.57883 -1.2504 0
M  V30 11399 C 1095.44 2.49903 -2.40311 0
M  V30 11400 C 1094.5 2.29841 -3.6259 0
M  V30 11401 C 1093.73 3.54699 -3.98779 0
M  V30 11402 O 1093.96 4.61291 -3.3551 0
M  V30 11403 O 1092.89 3.46761 -4.91976 0
M  V30 11404 H 1096.72 0.833345 -2.92043 0
M  V30 11405 H 1094.3 0.346361 -1.4533 0
M  V30 11406 H 1096.18 3.27183 -2.65574 0
M  V30 11407 H 1094.86 2.84872 -1.5372 0
M  V30 11408 H 1093.77 1.50478 -3.42501 0
M  V30 11409 H 1095.1 1.99784 -4.4983 0
M  V30 11410 N 1096.75 1.52266 0.40654 0
M  V30 11411 C 1097.68 1.70519 1.51653 0
M  V30 11412 C 1098.66 0.552798 1.52915 0
M  V30 11413 O 1099.85 0.780468 1.71584 0
M  V30 11414 C 1096.97 1.74686 2.90176 0
M  V30 11415 C 1096.02 2.96255 3.06815 0
M  V30 11416 S 1096.85 4.56553 2.79856 0
M  V30 11417 C 1098.01 4.63511 4.20605 0
M  V30 11418 H 1098.24 2.64399 1.35942 0
M  V30 11419 H 1095.77 1.42337 0.598284 0
M  V30 11420 H 1097.73 1.77773 3.7001 0
M  V30 11421 H 1096.39 0.819291 3.03227 0
M  V30 11422 H 1095.59 2.95661 4.08167 0
M  V30 11423 H 1095.19 2.91069 2.34851 0
M  V30 11424 H 1097.48 4.41047 5.1428 0
M  V30 11425 H 1098.42 5.65456 4.26222 0
M  V30 11426 H 1098.83 3.92518 4.05697 0
M  V30 11427 N 1098.23 -0.663929 1.42933 0
M  V30 11428 C 1099.46 -1.45192 1.474 0
M  V30 11429 C 1099.87 -1.88592 0.0886014 0
M  V30 11430 O 1099.23 -1.58824 -0.898962 0
M  V30 11431 C 1099.28 -2.69394 2.41059 0
M  V30 11432 O 1099 -2.27812 3.7421 0
M  V30 11433 C 1100.5 -3.62855 2.54659 0
M  V30 11434 H 1097.72 -0.446394 0.500973 0
M  V30 11435 H 1100.27 -0.814875 1.87563 0
M  V30 11436 H 1098.42 -3.29262 2.0412 0
M  V30 11437 H 1098.83 -3.08095 4.24474 0
M  V30 11438 H 1100.31 -4.46698 3.24291 0
M  V30 11439 H 1100.79 -4.09487 1.58799 0
M  V30 11440 H 1101.39 -3.08874 2.92364 0
M  V30 11441 N 1099.71 -1.29285 -0.901281 0
M  V30 11442 C 1100.65 -1.1428 -2.00521 0
M  V30 11443 C 1101.62 -0.0365428 -1.6606 0
M  V30 11444 O 1102.81 -0.203771 -1.89709 0
M  V30 11445 C 1099.95 -0.823671 -3.35126 0
M  V30 11446 C 1099.06 -2.01021 -3.8238 0
M  V30 11447 C 1098.2 -1.6306 -5.05554 0
M  V30 11448 C 1097.24 -2.78304 -5.45173 0
M  V30 11449 N 1096.37 -2.4075 -6.59533 0
M  V30 11450 H 1101.21 -2.08729 -2.12688 0
M  V30 11451 H 1098.75 -1.0387 -1.04161 0
M  V30 11452 H 1100.71 -0.61934 -4.12577 0
M  V30 11453 H 1099.34 0.0839113 -3.22691 0
M  V30 11454 H 1098.39 -2.32629 -3.00978 0
M  V30 11455 H 1099.7 -2.8738 -4.07694 0
M  V30 11456 H 1098.86 -1.38906 -5.90584 0
M  V30 11457 H 1097.59 -0.738464 -4.82077 0
M  V30 11458 H 1096.6 -3.03142 -4.58678 0
M  V30 11459 H 1097.82 -3.68179 -5.70632 0
M  V30 11460 H 1095.77 -1.54022 -6.37662 0
M  V30 11461 H 1095.69 -3.20643 -6.84634 0
M  V30 11462 H 1096.96 -2.19912 -7.47836 0
M  V30 11463 N 1101.18 1.11143 -1.11736 0
M  V30 11464 C 1102.41 1.87285 -0.891007 0
M  V30 11465 C 1102.83 1.79758 0.553971 0
M  V30 11466 O 1102.19 1.16221 1.39149 0
M  V30 11467 C 1102.24 3.33924 -1.36114 0
M  V30 11468 O 1101.34 4.08917 -0.534851 0
M  V30 11469 H 1100.69 0.581418 -0.320701 0
M  V30 11470 H 1103.22 1.40469 -1.4876 0
M  V30 11471 H 1103.23 3.84772 -1.35701 0
M  V30 11472 H 1101.9 3.38719 -2.41334 0
M  V30 11473 H 1100.48 3.67954 -0.605355 0
M  V30 11474 N 1102.66 0.908147 1.28804 0
M  V30 11475 C 1103.91 0.538404 1.95211 0
M  V30 11476 C 1104.24 -0.916886 1.71533 0
M  V30 11477 O 1103.49 -1.66643 1.02609 0
M  V30 11478 C 1103.79 0.787327 3.4862 0
M  V30 11479 C 1103.46 2.22129 3.92389 0
M  V30 11480 C 1102.12 2.61336 4.04051 0
M  V30 11481 C 1104.47 3.15471 4.14883 0
M  V30 11482 C 1101.8 3.93048 4.3558 0
M  V30 11483 C 1104.15 4.46741 4.47889 0
M  V30 11484 C 1102.82 4.85809 4.57761 0
M  V30 11485 H 1102.09 0.197016 0.714329 0
M  V30 11486 H 1104.73 1.14841 1.53244 0
M  V30 11487 H 1103.04 0.0944731 3.91686 0
M  V30 11488 H 1104.73 0.480503 3.98111 0
M  V30 11489 H 1101.32 1.90704 3.83836 0
M  V30 11490 H 1105.51 2.86391 4.05332 0
M  V30 11491 H 1100.76 4.23027 4.41428 0
M  V30 11492 H 1104.94 5.19087 4.64243 0
M  V30 11493 H 1102.57 5.87904 4.81947 0
M  V30 11494 N 1104.14 -1.42577 0.671525 0
M  V30 11495 C 1105.42 -1.95222 0.121529 0
M  V30 11496 C 1105.8 -1.61209 -1.36289 0
M  V30 11497 O 1105.15 -0.906561 -2.09747 0
M  V30 11498 C 1105.36 -3.46846 0.387189 0
M  V30 11499 C 1106.7 -4.23525 0.301938 0
M  V30 11500 O 1107.73 -3.54753 0.320755 0
M  V30 11501 O 1106.59 -5.45967 0.241317 0
M  V30 11502 H 1103.68 -0.826999 0.000968615 0
M  V30 11503 H 1106.23 -1.52422 0.746029 0
M  V30 11504 H 1105 -3.64795 1.41563 0
M  V30 11505 H 1104.62 -3.96686 -0.26948 0
M  V30 11506 N 1105.62 -0.414636 -1.52048 0
M  V30 11507 C 1106.87 0.159349 -2.01872 0
M  V30 11508 C 1107.19 1.44674 -1.29999 0
M  V30 11509 O 1106.45 1.91641 -0.396511 0
M  V30 11510 C 1106.75 0.448327 -3.54577 0
M  V30 11511 C 1106.41 -0.75052 -4.4461 0
M  V30 11512 C 1105.08 -1.07935 -4.68939 0
M  V30 11513 C 1107.43 -1.55134 -4.97577 0
M  V30 11514 C 1104.76 -2.21008 -5.43482 0
M  V30 11515 C 1107.11 -2.67288 -5.73358 0
M  V30 11516 C 1105.77 -3.00651 -5.95958 0
M  V30 11517 H 1105.04 0.05831 -0.738702 0
M  V30 11518 H 1107.69 -0.557184 -1.83215 0
M  V30 11519 H 1105.99 1.24649 -3.71443 0
M  V30 11520 H 1107.69 0.90549 -3.90643 0
M  V30 11521 H 1104.28 -0.484257 -4.25856 0
M  V30 11522 H 1108.46 -1.31052 -4.78685 0
M  V30 11523 H 1103.72 -2.47197 -5.59199 0
M  V30 11524 H 1107.89 -3.29725 -6.13396 0
M  V30 11525 H 1105.52 -3.88384 -6.535 0
M  V30 11526 N 1107.1 1.56929 -0.145233 0
M  V30 11527 C 1108.51 1.82877 0.375884 0
M  V30 11528 C 1108.86 1.06384 1.64854 0
M  V30 11529 O 1107.98 0.30857 2.14189 0
M  V30 11530 C 1108.58 3.31725 0.688744 0
M  V30 11531 C 1107.14 3.58261 1.15439 0
M  V30 11532 C 1106.28 2.76737 0.176565 0
M  V30 11533 H 1109.24 1.54328 -0.36996 0
M  V30 11534 H 1109.26 3.47784 1.54359 0
M  V30 11535 H 1108.77 3.87371 -0.237694 0
M  V30 11536 H 1106.87 3.08 2.09683 0
M  V30 11537 H 1106.98 4.66732 1.08158 0
M  V30 11538 H 1105.35 2.45761 0.668843 0
M  V30 11539 H 1106.13 3.35154 -0.743432 0
M  V30 11540 N 1108.58 -0.128553 1.57075 0
M  V30 11541 C 1109.8 -0.85245 1.88523 0
M  V30 11542 C 1110.22 -1.73886 0.735459 0
M  V30 11543 O 1109.58 -1.80114 -0.294113 0
M  V30 11544 C 1109.63 -1.69384 3.19361 0
M  V30 11545 O 1109.35 -0.84313 4.2991 0
M  V30 11546 C 1110.85 -2.52373 3.64449 0
M  V30 11547 H 1108.07 -0.245556 0.624454 0
M  V30 11548 H 1110.61 -0.115807 2.04172 0
M  V30 11549 H 1108.77 -2.38335 3.0541 0
M  V30 11550 H 1109.18 -1.42255 5.0484 0
M  V30 11551 H 1110.66 -3.06955 4.58784 0
M  V30 11552 H 1111.13 -3.29283 2.90636 0
M  V30 11553 H 1111.74 -1.88681 3.81155 0
M  V30 11554 N 1110.05 -1.5248 -0.398459 0
M  V30 11555 C 1110.98 -1.79549 -1.49279 0
M  V30 11556 C 1111.96 -0.647004 -1.57315 0
M  V30 11557 O 1113.15 -0.893661 -1.72416 0
M  V30 11558 C 1110.28 -1.95582 -2.86993 0
M  V30 11559 C 1109.23 -3.1123 -2.93803 0
M  V30 11560 C 1108.56 -3.12501 -4.33874 0
M  V30 11561 C 1109.86 -4.50485 -2.64312 0
M  V30 11562 H 1111.55 -2.71187 -1.26877 0
M  V30 11563 H 1109.1 -1.30492 -0.608924 0
M  V30 11564 H 1111.05 -2.13102 -3.63546 0
M  V30 11565 H 1109.78 -1.00625 -3.10712 0
M  V30 11566 H 1108.44 -2.93477 -2.19697 0
M  V30 11567 H 1108.08 -2.15245 -4.54619 0
M  V30 11568 H 1107.78 -3.90183 -4.39353 0
M  V30 11569 H 1109.31 -3.32164 -5.12347 0
M  V30 11570 H 1110.72 -4.68387 -3.30585 0
M  V30 11571 H 1109.12 -5.30163 -2.81153 0
M  V30 11572 H 1110.19 -4.57848 -1.59696 0
M  V30 11573 N 1111.53 0.65634 -1.43283 0
M  V30 11574 C 1112.78 1.41212 -1.44021 0
M  V30 11575 C 1113.09 1.95485 -0.0669783 0
M  V30 11576 O 1114.3 2.71457 0.0481909 0
M  V30 11577 C 1112.76 2.55541 -2.5343 0
M  V30 11578 C 1112.36 2.07889 -3.96845 0
M  V30 11579 C 1114.11 3.3293 -2.63359 0
M  V30 11580 C 1112.01 3.19411 -4.97726 0
M  V30 11581 H 1110.94 0.530566 -0.535739 0
M  V30 11582 H 1113.6 0.708743 -1.6926 0
M  V30 11583 H 1111.98 3.28335 -2.21387 0
M  V30 11584 H 1113.15 1.42127 -4.38334 0
M  V30 11585 H 1111.47 1.43388 -3.90933 0
M  V30 11586 H 1114.06 4.1602 -3.35903 0
M  V30 11587 H 1114.41 3.80753 -1.68324 0
M  V30 11588 H 1114.94 2.67216 -2.94687 0
M  V30 11589 H 1111.68 2.7656 -5.94302 0
M  V30 11590 H 1111.2 3.83895 -4.60853 0
M  V30 11591 H 1112.88 3.84591 -5.20287 0
M  V30 11592 N 1113.01 1.29761 0.894412 0
M  V30 11593 C 1114.24 1.2094 1.67872 0
M  V30 11594 C 1114.65 -0.229192 1.87404 0
M  V30 11595 O 1114.01 -1.15278 1.41482 0
M  V30 11596 C 1114.06 1.92424 3.06032 0
M  V30 11597 O 1113.78 3.30665 2.87388 0
M  V30 11598 C 1115.28 1.90144 4.0045 0
M  V30 11599 H 1112.5 0.418942 0.524145 0
M  V30 11600 H 1115.05 1.71226 1.11813 0
M  V30 11601 H 1113.2 1.4596 3.58851 0
M  V30 11602 H 1113.62 3.66741 3.74969 0
M  V30 11603 H 1115.09 2.44716 4.94791 0
M  V30 11604 H 1115.57 0.878175 4.30331 0
M  V30 11605 H 1116.17 2.36375 3.53563 0
M  V30 11606 N 1114.49 -1.10549 1.12324 0
M  V30 11607 C 1115.43 -2.16858 0.790024 0
M  V30 11608 C 1116.4 -1.64317 -0.242694 0
M  V30 11609 O 1117.59 -1.90438 -0.117531 0
M  V30 11610 C 1114.73 -3.44197 0.249503 0
M  V30 11611 C 1113.84 -4.10696 1.33989 0
M  V30 11612 C 1112.98 -5.25751 0.758932 0
M  V30 11613 C 1112.02 -5.8415 1.82853 0
M  V30 11614 N 1111.15 -6.90585 1.26637 0
M  V30 11615 H 1115.99 -2.44705 1.7007 0
M  V30 11616 H 1113.53 -1.20117 0.849141 0
M  V30 11617 H 1115.49 -4.1712 -0.0819251 0
M  V30 11618 H 1114.12 -3.16705 -0.624332 0
M  V30 11619 H 1113.17 -3.35754 1.78812 0
M  V30 11620 H 1114.48 -4.50144 2.14875 0
M  V30 11621 H 1113.64 -6.05521 0.378104 0
M  V30 11622 H 1112.38 -4.87632 -0.0811405 0
M  V30 11623 H 1111.38 -5.03051 2.21856 0
M  V30 11624 H 1112.61 -6.24333 2.6718 0
M  V30 11625 H 1110.55 -6.54468 0.448105 0
M  V30 11626 H 1110.47 -7.28739 2.01184 0
M  V30 11627 H 1111.74 -7.74138 0.912737 0
M  V30 11628 N 1115.97 -0.914965 -1.28321 0
M  V30 11629 C 1116.9 -0.421292 -2.29668 0
M  V30 11630 C 1117.88 0.511743 -1.6222 0
M  V30 11631 O 1119.06 0.419218 -1.89621 0
M  V30 11632 C 1116.19 0.338364 -3.45648 0
M  V30 11633 C 1115.15 -0.505646 -4.25003 0
M  V30 11634 C 1114.47 0.382421 -5.33331 0
M  V30 11635 C 1115.77 -1.76354 -4.91626 0
M  V30 11636 H 1117.47 -1.26826 -2.71211 0
M  V30 11637 H 1115.01 -0.611291 -1.30381 0
M  V30 11638 H 1116.96 0.694578 -4.15636 0
M  V30 11639 H 1115.69 1.21925 -3.02988 0
M  V30 11640 H 1114.35 -0.844395 -3.56743 0
M  V30 11641 H 1114 1.26189 -4.86914 0
M  V30 11642 H 1113.7 -0.17871 -5.87328 0
M  V30 11643 H 1115.22 0.73449 -6.06166 0
M  V30 11644 H 1116.63 -1.47616 -5.5397 0
M  V30 11645 H 1115.03 -2.26717 -5.55625 0
M  V30 11646 H 1116.1 -2.49063 -4.16048 0
M  V30 11647 N 1117.44 1.42219 -0.679077 0
M  V30 11648 C 1118.67 2.06333 -0.210097 0
M  V30 11649 C 1119.09 1.50703 1.12562 0
M  V30 11650 O 1118.45 0.627241 1.70104 0
M  V30 11651 C 1118.5 3.60243 -0.160322 0
M  V30 11652 O 1117.6 4.03122 0.869872 0
M  V30 11653 H 1116.94 0.655362 -0.106754 0
M  V30 11654 H 1119.47 1.82278 -0.929294 0
M  V30 11655 H 1119.48 4.07997 0.014384 0
M  V30 11656 H 1118.16 4.00106 -1.13526 0
M  V30 11657 H 1116.74 3.66907 0.66586 0
M  V30 11658 N 1118.92 0.422693 1.51826 0
M  V30 11659 C 1119.88 -0.384307 2.25955 0
M  V30 11660 C 1120.88 -0.962184 1.28836 0
M  V30 11661 O 1122.07 -0.838931 1.52668 0
M  V30 11662 C 1119.21 -1.54228 3.04018 0
M  V30 11663 H 1120.4 0.265157 2.98726 0
M  V30 11664 H 1117.95 0.175515 1.55311 0
M  V30 11665 H 1118.69 -2.22822 2.35629 0
M  V30 11666 H 1118.47 -1.13425 3.75336 0
M  V30 11667 H 1119.96 -2.1128 3.60209 0
M  V30 11668 N 1120.4 -1.5685 0.153553 0
M  V30 11669 C 1121.31 -2.20664 -0.796528 0
M  V30 11670 C 1122.33 -1.19289 -1.26674 0
M  V30 11671 O 1123.5 -1.51889 -1.32256 0
M  V30 11672 C 1120.57 -2.82088 -2.01561 0
M  V30 11673 C 1119.63 -3.9861 -1.59401 0
M  V30 11674 C 1118.86 -4.57096 -2.75498 0
M  V30 11675 O 1119.08 -4.14462 -3.9189 0
M  V30 11676 O 1118.02 -5.47254 -2.50593 0
M  V30 11677 H 1121.84 -3.02376 -0.283282 0
M  V30 11678 H 1119.43 -1.49218 -0.0737927 0
M  V30 11679 H 1121.31 -3.21103 -2.72893 0
M  V30 11680 H 1119.99 -2.03385 -2.51826 0
M  V30 11681 H 1118.89 -3.64299 -0.850725 0
M  V30 11682 H 1120.23 -4.78853 -1.13845 0
M  V30 11683 N 1121.88 0.120221 -1.57141 0
M  V30 11684 C 1123.29 0.677497 -1.73974 0
M  V30 11685 C 1123.64 1.80371 -0.772055 0
M  V30 11686 O 1122.76 2.16329 0.0553062 0
M  V30 11687 C 1123.36 1.23575 -3.1546 0
M  V30 11688 C 1121.92 1.73933 -3.33803 0
M  V30 11689 C 1121.07 0.638542 -2.69848 0
M  V30 11690 H 1124.02 -0.105685 -1.58348 0
M  V30 11691 H 1124.04 2.10542 -3.16942 0
M  V30 11692 H 1123.55 0.415851 -3.85866 0
M  V30 11693 H 1121.65 2.58404 -2.68437 0
M  V30 11694 H 1121.76 1.84961 -4.41957 0
M  V30 11695 H 1120.13 1.07185 -2.31049 0
M  V30 11696 H 1120.91 -0.170356 -3.42877 0
M  V30 11697 N 1123.36 1.52689 0.390367 0
M  V30 11698 C 1124.58 1.71541 1.15678 0
M  V30 11699 C 1125 0.433171 1.83764 0
M  V30 11700 O 1124.36 -0.592248 1.72623 0
M  V30 11701 C 1124.41 2.864 2.20584 0
M  V30 11702 O 1124.13 4.0966 1.55274 0
M  V30 11703 C 1125.63 3.1692 3.09962 0
M  V30 11704 H 1122.85 0.574381 0.346883 0
M  V30 11705 H 1125.39 1.99332 0.456851 0
M  V30 11706 H 1123.55 2.61075 2.86214 0
M  V30 11707 H 1123.96 4.73802 2.2497 0
M  V30 11708 H 1125.44 4.00755 3.79604 0
M  V30 11709 H 1125.91 2.31245 3.73393 0
M  V30 11710 H 1126.52 3.4408 2.49979 0
M  V30 11711 N 1124.83 -0.648732 1.43629 0
M  V30 11712 C 1125.74 -1.79046 1.51591 0
M  V30 11713 C 1126.76 -1.69276 0.402697 0
M  V30 11714 O 1127.94 -1.90366 0.657484 0
M  V30 11715 C 1125 -3.15347 1.44073 0
M  V30 11716 C 1124.06 -3.3688 2.66102 0
M  V30 11717 C 1123.3 -4.66679 2.58933 0
M  V30 11718 O 1123.52 -5.46328 1.63956 0
M  V30 11719 O 1122.45 -4.9003 3.49506 0
M  V30 11720 H 1126.28 -1.75283 2.48011 0
M  V30 11721 H 1123.86 -0.807774 1.2568 0
M  V30 11722 H 1125.75 -3.96633 1.42339 0
M  V30 11723 H 1124.42 -3.19691 0.50789 0
M  V30 11724 H 1123.33 -2.55341 2.73407 0
M  V30 11725 H 1124.66 -3.37386 3.58373 0
M  V30 11726 N 1126.31 -1.30234 -0.887518 0
M  V30 11727 C 1127.56 -1.19086 -1.64153 0
M  V30 11728 C 1127.89 0.254428 -1.92526 0
M  V30 11729 O 1127.17 1.18233 -1.54438 0
M  V30 11730 C 1127.45 -2.01723 -2.98295 0
M  V30 11731 C 1127.3 -3.54458 -2.76911 0
M  V30 11732 C 1128.62 -1.85307 -3.99186 0
M  V30 11733 H 1125.74 -0.433967 -0.595686 0
M  V30 11734 H 1128.38 -1.59839 -1.0272 0
M  V30 11735 H 1126.53 -1.67096 -3.5073 0
M  V30 11736 H 1128.2 -3.99131 -2.31284 0
M  V30 11737 H 1126.45 -3.78768 -2.11464 0
M  V30 11738 H 1127.12 -4.07565 -3.72283 0
M  V30 11739 H 1129.59 -2.15575 -3.55903 0
M  V30 11740 H 1128.47 -2.45456 -4.90961 0
M  V30 11741 H 1128.73 -0.811528 -4.34588 0
M  V30 11742 N 1127.79 1.09952 -1.12909 0
M  V30 11743 C 1129.21 1.34051 -0.866172 0
M  V30 11744 C 1129.41 1.95169 0.501125 0
M  V30 11745 O 1128.46 2.19458 1.24878 0
M  V30 11746 C 1129.78 2.25738 -1.98653 0
M  V30 11747 C 1131.32 2.39261 -2.01799 0
M  V30 11748 C 1131.8 3.3428 -3.13083 0
M  V30 11749 N 1133.29 3.41851 -3.12558 0
M  V30 11750 C 1134.02 4.15358 -3.95304 0
M  V30 11751 N 1133.52 4.91709 -4.88051 0
M  V30 11752 N 1135.31 4.11027 -3.83423 0
M  V30 11753 H 1127.46 0.686521 -2.00999 0
M  V30 11754 H 1129.73 0.364913 -0.874953 0
M  V30 11755 H 1129.43 1.88048 -2.97205 0
M  V30 11756 H 1129.31 3.26085 -1.89601 0
M  V30 11757 H 1131.69 2.76218 -1.03864 0
M  V30 11758 H 1131.78 1.38712 -2.14925 0
M  V30 11759 H 1131.42 2.98048 -4.11254 0
M  V30 11760 H 1131.35 4.34721 -2.97195 0
M  V30 11761 H 1133.84 2.87405 -2.45371 0
M  V30 11762 H 1134.15 5.45212 -5.47689 0
M  V30 11763 H 1132.5 4.90816 -4.92061 0
M  V30 11764 H 1135.69 3.50477 -3.10296 0
M  V30 11765 H 1135.86 4.68054 -4.4814 0
M  V30 11766 N 1129.27 0.921757 1.27833 0
M  V30 11767 C 1130.55 0.477706 1.89677 0
M  V30 11768 C 1130.93 -1.04392 1.83481 0
M  V30 11769 O 1130.27 -1.89549 1.27606 0
M  V30 11770 C 1130.48 1.01709 3.33851 0
M  V30 11771 C 1131.83 1.074 4.10792 0
M  V30 11772 O 1132.86 0.966295 3.42843 0
M  V30 11773 O 1131.71 1.23909 5.32268 0
M  V30 11774 H 1128.81 0.15271 0.812778 0
M  V30 11775 H 1131.35 1.01306 1.36144 0
M  V30 11776 H 1130.13 2.061 3.32623 0
M  V30 11777 H 1129.75 0.463031 3.94895 0
M  V30 11778 N 1130.75 -1.41857 0.686609 0
M  V30 11779 C 1131.68 -2.28174 -0.0347358 0
M  V30 11780 C 1132.66 -1.41732 -0.796928 0
M  V30 11781 O 1133.84 -1.71165 -0.789607 0
M  V30 11782 C 1130.97 -3.21801 -1.0565 0
M  V30 11783 C 1130.01 -4.24727 -0.388523 0
M  V30 11784 S 1130.85 -5.28508 0.862546 0
M  V30 11785 C 1132 -6.25701 -0.157849 0
M  V30 11786 H 1132.24 -2.89005 0.697381 0
M  V30 11787 H 1129.77 -1.46861 0.476562 0
M  V30 11788 H 1131.73 -3.76278 -1.64089 0
M  V30 11789 H 1130.39 -2.60082 -1.76114 0
M  V30 11790 H 1129.58 -4.90471 -1.15991 0
M  V30 11791 H 1129.18 -3.73799 0.122567 0
M  V30 11792 H 1131.48 -6.6987 -1.01393 0
M  V30 11793 H 1132.42 -7.06569 0.465437 0
M  V30 11794 H 1132.83 -5.62204 -0.508614 0
M  V30 11795 N 1132.22 -0.430739 -1.51599 0
M  V30 11796 C 1133.13 0.390347 -2.3133 0
M  V30 11797 C 1134.15 1.03376 -1.39962 0
M  V30 11798 O 1135.33 1.03057 -1.73035 0
M  V30 11799 C 1132.39 1.48039 -3.13505 0
M  V30 11800 C 1131.45 0.857792 -4.20643 0
M  V30 11801 C 1130.69 1.89589 -4.9889 0
M  V30 11802 O 1130.91 3.11717 -4.77691 0
M  V30 11803 O 1129.84 1.49009 -5.83164 0
M  V30 11804 H 1133.67 -0.260358 -3.02582 0
M  V30 11805 H 1131.25 -0.193428 -1.48143 0
M  V30 11806 H 1133.14 2.11272 -3.64612 0
M  V30 11807 H 1131.81 2.1153 -2.45024 0
M  V30 11808 H 1130.72 0.187592 -3.73629 0
M  V30 11809 H 1132.05 0.266474 -4.91478 0
M  V30 11810 N 1133.7 1.56767 -0.161869 0
M  V30 11811 C 1134.61 2.21083 0.784814 0
M  V30 11812 C 1135.63 1.19959 1.26039 0
M  V30 11813 O 1136.8 1.52588 1.31449 0
M  V30 11814 C 1133.87 2.83153 2.00063 0
M  V30 11815 C 1132.93 3.9945 1.57285 0
M  V30 11816 C 1132.16 4.5855 2.7307 0
M  V30 11817 O 1132.39 4.16534 3.89686 0
M  V30 11818 O 1131.32 5.48575 2.47688 0
M  V30 11819 H 1135.15 3.02522 0.267243 0
M  V30 11820 H 1132.73 1.49255 0.0658783 0
M  V30 11821 H 1134.61 3.22546 2.71186 0
M  V30 11822 H 1133.29 2.04718 2.50744 0
M  V30 11823 H 1132.2 3.64745 0.831393 0
M  V30 11824 H 1133.53 4.7945 1.11304 0
M  V30 11825 N 1135.18 -0.111886 1.57202 0
M  V30 11826 C 1136.46 -0.849125 1.76208 0
M  V30 11827 C 1136.84 -1.97735 0.73919 0
M  V30 11828 O 1136.19 -2.27283 -0.235523 0
M  V30 11829 C 1136.4 -1.35924 3.21443 0
M  V30 11830 C 1137.74 -1.80874 3.84148 0
M  V30 11831 O 1138.77 -1.45587 3.25089 0
M  V30 11832 O 1137.63 -2.46065 4.87969 0
M  V30 11833 H 1134.72 -0.403761 0.721738 0
M  V30 11834 H 1137.27 -0.0950726 1.69433 0
M  V30 11835 H 1136.04 -0.550113 3.87414 0
M  V30 11836 H 1135.66 -2.17579 3.32784 0
M  V30 11837 N 1136.66 -1.52894 -0.382264 0
M  V30 11838 C 1137.91 -1.68266 -1.12663 0
M  V30 11839 C 1138.23 -0.425974 -1.89778 0
M  V30 11840 O 1137.49 0.59178 -1.86538 0
M  V30 11841 C 1137.79 -2.87309 -2.12576 0
M  V30 11842 C 1137.45 -4.24484 -1.52067 0
M  V30 11843 C 1136.12 -4.6179 -1.35292 0
M  V30 11844 C 1138.47 -5.09858 -1.08138 0
M  V30 11845 C 1135.8 -5.82123 -0.731449 0
M  V30 11846 C 1138.15 -6.30822 -0.473986 0
M  V30 11847 C 1136.81 -6.66854 -0.293585 0
M  V30 11848 H 1136.08 -0.615728 -0.412262 0
M  V30 11849 H 1138.73 -1.8705 -0.410425 0
M  V30 11850 H 1137.03 -2.62968 -2.90439 0
M  V30 11851 H 1138.73 -2.96397 -2.70092 0
M  V30 11852 H 1135.32 -3.951 -1.66114 0
M  V30 11853 H 1139.5 -4.816 -1.19898 0
M  V30 11854 H 1134.76 -6.08643 -0.579938 0
M  V30 11855 H 1138.93 -6.96287 -0.125324 0
M  V30 11856 H 1136.56 -7.59962 0.190054 0
M  V30 11857 N 1138.14 0.641106 -1.43971 0
M  V30 11858 C 1139.37 1.42829 -1.49692 0
M  V30 11859 C 1139.78 1.88427 -0.118594 0
M  V30 11860 O 1139.14 1.60234 0.873581 0
M  V30 11861 C 1139.19 2.65524 -2.45314 0
M  V30 11862 O 1138.91 2.2183 -3.77787 0
M  V30 11863 C 1140.41 3.58758 -2.60399 0
M  V30 11864 H 1137.63 0.438367 -0.508011 0
M  V30 11865 H 1140.17 0.784933 -1.88836 0
M  V30 11866 H 1138.33 3.25973 -2.09332 0
M  V30 11867 H 1138.74 3.01303 -4.29321 0
M  V30 11868 H 1140.22 4.41483 -3.31357 0
M  V30 11869 H 1140.69 4.06909 -1.65294 0
M  V30 11870 H 1141.3 3.04184 -2.97241 0
M  V30 11871 N 1139.62 1.30703 0.880598 0
M  V30 11872 C 1140.58 1.17429 1.96832 0
M  V30 11873 C 1141.58 0.104305 1.60461 0
M  V30 11874 O 1142.77 0.352758 1.70591 0
M  V30 11875 C 1139.9 0.800099 3.31378 0
M  V30 11876 H 1141.09 2.14069 2.10034 0
M  V30 11877 H 1138.65 1.14162 1.06755 0
M  V30 11878 H 1139.38 -0.165606 3.23877 0
M  V30 11879 H 1139.17 1.57341 3.59146 0
M  V30 11880 H 1140.66 0.730826 4.11155 0
M  V30 11881 N 1141.09 -1.09351 1.1349 0
M  V30 11882 C 1142.32 -1.85304 0.920324 0
M  V30 11883 C 1142.74 -1.81182 -0.530883 0
M  V30 11884 O 1142.09 -1.20853 -1.36751 0
M  V30 11885 C 1142.14 -3.33249 1.40098 0
M  V30 11886 O 1141.87 -3.37333 2.79531 0
M  V30 11887 C 1143.37 -4.2604 1.22495 0
M  V30 11888 H 1140.59 -0.585294 0.328134 0
M  V30 11889 H 1143.13 -1.38168 1.50765 0
M  V30 11890 H 1141.29 -3.7781 0.85664 0
M  V30 11891 H 1141.7 -4.29614 3.00885 0
M  V30 11892 H 1143.17 -5.27999 1.61 0
M  V30 11893 H 1143.65 -4.38883 0.166717 0
M  V30 11894 H 1144.26 -3.87295 1.75735 0
M  V30 11895 N 1142.57 -0.928524 -1.27343 0
M  V30 11896 C 1143.98 -0.613856 -1.7632 0
M  V30 11897 C 1144.33 0.870983 -1.75808 0
M  V30 11898 O 1143.46 1.68155 -1.36209 0
M  V30 11899 C 1144.05 -1.10755 -3.20186 0
M  V30 11900 C 1142.61 -0.843532 -3.66826 0
M  V30 11901 C 1141.76 -1.26579 -2.46724 0
M  V30 11902 H 1144.71 -1.10821 -1.13598 0
M  V30 11903 H 1144.73 -0.455598 -3.77763 0
M  V30 11904 H 1144.24 -2.18825 -3.20526 0
M  V30 11905 H 1142.34 0.223334 -3.7193 0
M  V30 11906 H 1142.46 -1.46165 -4.56259 0
M  V30 11907 H 1140.82 -0.684334 -2.45334 0
M  V30 11908 H 1141.6 -2.35516 -2.49774 0
M  V30 11909 N 1144.05 1.41491 -0.694123 0
M  V30 11910 C 1145.3 2.00854 -0.224033 0
M  V30 11911 C 1145.62 1.55246 1.17999 0
M  V30 11912 O 1144.89 0.782452 1.79595 0
M  V30 11913 H 1143.47 0.742721 -0.0798368 0
M  V30 11914 H 1146.13 1.73137 -0.894958 0
M  V30 11915 H 1145.23 3.11173 -0.240332 0
M  V30 11916 N 1145.53 0.438773 1.51369 0
M  V30 11917 C 1146.76 -0.125847 2.06517 0
M  V30 11918 C 1147.17 -1.36336 1.30606 0
M  V30 11919 O 1146.53 -1.78792 0.36603 0
M  V30 11920 C 1146.58 -0.446619 3.5873 0
M  V30 11921 O 1146.3 0.741781 4.31775 0
M  V30 11922 C 1147.8 -1.06175 4.30397 0
M  V30 11923 H 1145.02 -0.00728868 0.67096 0
M  V30 11924 H 1147.56 0.618267 1.9493 0
M  V30 11925 H 1145.72 -1.14064 3.70227 0
M  V30 11926 H 1146.13 0.466907 5.22418 0
M  V30 11927 H 1147.61 -1.23619 5.3798 0
M  V30 11928 H 1148.08 -2.04317 3.88782 0
M  V30 11929 H 1148.69 -0.40708 4.23347 0
M  V30 11930 N 1147.01 -1.56678 0.170181 0
M  V30 11931 C 1148.23 -2.01223 -0.481362 0
M  V30 11932 C 1148.65 -1.05039 -1.56883 0
M  V30 11933 O 1148.01 -0.0510751 -1.82429 0
M  V30 11934 C 1148.06 -3.45588 -1.06073 0
M  V30 11935 O 1147.78 -4.38097 -0.0166754 0
M  V30 11936 C 1149.28 -4.05527 -1.79061 0
M  V30 11937 H 1146.5 -0.659574 -0.1233 0
M  V30 11938 H 1149.04 -2.02689 0.271576 0
M  V30 11939 H 1147.2 -3.449 -1.76417 0
M  V30 11940 H 1147.61 -5.22615 -0.444276 0
M  V30 11941 H 1149.09 -5.08467 -2.1486 0
M  V30 11942 H 1149.56 -3.47554 -2.68519 0
M  V30 11943 H 1150.17 -4.09914 -1.13361 0
M  V30 11944 N 1148.48 0.103547 -1.57259 0
M  V30 11945 C 1149.43 1.12621 -2.01458 0
M  V30 11946 C 1150.4 1.40282 -0.889391 0
M  V30 11947 O 1151.59 1.51887 -1.15477 0
M  V30 11948 C 1148.73 2.44352 -2.43692 0
M  V30 11949 C 1147.84 2.23495 -3.69695 0
M  V30 11950 C 1146.97 3.48565 -4.00844 0
M  V30 11951 C 1146.01 3.22932 -5.19982 0
M  V30 11952 N 1145.15 4.40246 -5.46926 0
M  V30 11953 H 1149.99 0.742315 -2.88606 0
M  V30 11954 H 1147.53 0.355016 -1.42752 0
M  V30 11955 H 1149.48 3.2122 -2.66221 0
M  V30 11956 H 1148.11 2.80605 -1.59565 0
M  V30 11957 H 1147.17 1.3747 -3.54692 0
M  V30 11958 H 1148.48 2.0054 -4.56711 0
M  V30 11959 H 1147.63 4.33844 -4.24104 0
M  V30 11960 H 1146.37 3.74565 -3.12333 0
M  V30 11961 H 1145.38 2.36045 -4.96551 0
M  V30 11962 H 1146.6 2.98286 -6.10084 0
M  V30 11963 H 1144.55 4.66338 -4.61373 0
M  V30 11964 H 1144.46 4.20452 -6.28296 0
M  V30 11965 H 1145.73 5.26614 -5.74716 0
M  V30 11966 N 1149.96 1.53094 0.37415 0
M  V30 11967 C 1151.19 1.72508 1.13687 0
M  V30 11968 C 1151.6 0.449922 1.83773 0
M  V30 11969 O 1150.94 -0.586391 1.74089 0
M  V30 11970 C 1151 2.82965 2.21746 0
M  V30 11971 C 1150.67 4.23599 1.71501 0
M  V30 11972 C 1151.67 5.06245 1.1837 0
M  V30 11973 C 1149.35 4.69978 1.77273 0
M  V30 11974 C 1151.34 6.33357 0.71679 0
M  V30 11975 C 1149.03 5.9707 1.30194 0
M  V30 11976 C 1150.03 6.7859 0.774856 0
M  V30 11977 O 1149.72 8.03298 0.310981 0
M  V30 11978 H 1149.45 0.580611 0.346218 0
M  V30 11979 H 1152 2.00596 0.441614 0
M  V30 11980 H 1150.23 2.5033 2.9474 0
M  V30 11981 H 1151.92 2.90638 2.83345 0
M  V30 11982 H 1152.69 4.71591 1.13256 0
M  V30 11983 H 1148.57 4.06605 2.17241 0
M  V30 11984 H 1152.11 6.96934 0.30471 0
M  V30 11985 H 1148.01 6.31225 1.34999 0
M  V30 11986 H 1148.78 8.17364 0.431098 0
M  V30 11987 N 1151.44 -0.633461 1.44309 0
M  V30 11988 C 1152.72 -1.3917 1.37444 0
M  V30 11989 C 1153.1 -2.11076 0.0319994 0
M  V30 11990 O 1152.44 -2.06164 -0.98533 0
M  V30 11991 C 1152.65 -2.36005 2.57104 0
M  V30 11992 C 1154 -2.99407 3.01065 0
M  V30 11993 O 1155.03 -2.46331 2.57292 0
M  V30 11994 O 1153.89 -3.95686 3.76954 0
M  V30 11995 H 1150.98 -0.622746 0.544166 0
M  V30 11996 H 1153.53 -0.658712 1.56394 0
M  V30 11997 H 1152.3 -1.81955 3.46422 0
M  V30 11998 H 1151.92 -3.16725 2.40356 0
M  V30 11999 N 1152.92 -1.31168 -0.873655 0
M  V30 12000 C 1153.83 -1.20458 -2.01313 0
M  V30 12001 C 1154.84 -0.122074 -1.73571 0
M  V30 12002 O 1156.02 -0.339176 -1.98523 0
M  V30 12003 C 1153.09 -0.90876 -3.34578 0
M  V30 12004 C 1152.15 -2.07779 -3.75668 0
M  V30 12005 C 1151.38 -1.79599 -5.02573 0
M  V30 12006 O 1151.6 -0.729338 -5.65718 0
M  V30 12007 O 1150.54 -2.65169 -5.40341 0
M  V30 12008 H 1154.36 -2.16207 -2.13279 0
M  V30 12009 H 1151.95 -1.10871 -1.00139 0
M  V30 12010 H 1153.83 -0.759469 -4.145 0
M  V30 12011 H 1152.5 0.0187249 -3.23695 0
M  V30 12012 H 1151.41 -2.28247 -2.96402 0
M  V30 12013 H 1152.74 -2.9874 -3.91172 0
M  V30 12014 N 1154.4 1.08748 -1.14068 0
M  V30 12015 C 1155.34 2.17667 -0.819981 0
M  V30 12016 C 1156.34 1.68207 0.200654 0
M  V30 12017 O 1157.54 1.79909 0.0571014 0
M  V30 12018 H 1153.92 0.710129 -0.247427 0
M  V30 12019 H 1155.89 2.41944 -1.74659 0
M  V30 12020 C 1154.64 3.46315 -0.309985 0
M  V30 12021 H 1153.96 3.84748 -1.08669 0
M  V30 12022 H 1155.4 4.23818 -0.124094 0
M  V30 12023 C 1153.86 3.22762 0.965724 0
M  V30 12024 O 1154.39 3.46034 2.04018 0
M  V30 12025 N 1152.6 2.76326 0.899576 0
M  V30 12026 H 1152.14 2.57588 0.0250598 0
M  V30 12027 H 1152.1 2.60945 1.75371 0
M  V30 12028 N 1155.87 0.935264 1.26849 0
M  V30 12029 C 1157.12 0.575467 1.93317 0
M  V30 12030 C 1157.44 -0.88876 1.74242 0
M  V30 12031 O 1158.64 -1.35767 2.35116 0
M  V30 12032 C 1157.1 0.978433 3.46345 0
M  V30 12033 C 1156.71 2.46386 3.74163 0
M  V30 12034 C 1158.45 0.690249 4.18851 0
M  V30 12035 C 1156.36 2.80584 5.20602 0
M  V30 12036 H 1155.29 0.211506 0.723727 0
M  V30 12037 H 1157.94 1.1371 1.44022 0
M  V30 12038 H 1156.32 0.345379 3.94491 0
M  V30 12039 H 1157.49 3.14547 3.36745 0
M  V30 12040 H 1155.81 2.72473 3.14877 0
M  V30 12041 H 1158.41 0.922151 5.26688 0
M  V30 12042 H 1158.75 -0.372805 4.14627 0
M  V30 12043 H 1159.28 1.28275 3.76551 0
M  V30 12044 H 1156.02 3.85828 5.29921 0
M  V30 12045 H 1155.54 2.1708 5.59139 0
M  V30 12046 H 1157.22 2.68732 5.88551 0
M  V30 12047 N 1157.35 -1.41121 0.701616 0
M  V30 12048 C 1158.58 -2.05452 0.244365 0
M  V30 12049 C 1159 -1.5282 -1.10866 0
M  V30 12050 O 1158.35 -0.67893 -1.69401 0
M  V30 12051 C 1158.4 -3.60946 0.200112 0
M  V30 12052 O 1158.12 -4.11632 1.4997 0
M  V30 12053 C 1159.63 -4.42431 -0.277394 0
M  V30 12054 H 1156.85 -0.66151 0.112453 0
M  V30 12055 H 1159.39 -1.80784 0.9559 0
M  V30 12056 H 1157.54 -3.84632 -0.462287 0
M  V30 12057 H 1157.96 -5.05723 1.39084 0
M  V30 12058 H 1159.43 -5.514 -0.257225 0
M  V30 12059 H 1159.91 -4.1898 -1.31728 0
M  V30 12060 H 1160.52 -4.23822 0.354223 0
M  V30 12061 N 1158.83 -0.446794 -1.51134 0
M  V30 12062 C 1160.06 0.114893 -2.06581 0
M  V30 12063 C 1160.47 1.35642 -1.31327 0
M  V30 12064 O 1159.83 1.78595 -0.375506 0
M  V30 12065 C 1159.88 0.427589 -3.58962 0
M  V30 12066 O 1159.6 -0.764669 -4.31375 0
M  V30 12067 C 1161.1 1.03891 -4.30954 0
M  V30 12068 H 1158.32 0.00373031 -0.67099 0
M  V30 12069 H 1160.87 -0.628596 -1.94599 0
M  V30 12070 H 1159.02 1.12099 -3.70827 0
M  V30 12071 H 1159.44 -0.494605 -5.22163 0
M  V30 12072 H 1160.91 1.20764 -5.38628 0
M  V30 12073 H 1161.39 2.02252 -3.8986 0
M  V30 12074 H 1161.99 0.384623 -4.23557 0
M  V30 12075 N 1160.31 1.56586 -0.178487 0
M  V30 12076 C 1161.55 1.9739 0.465306 0
M  V30 12077 C 1161.89 1.06474 1.6241 0
M  V30 12078 O 1161.16 0.113316 1.9417 0
M  V30 12079 C 1161.45 3.47577 0.941408 0
M  V30 12080 C 1161.3 4.49271 -0.218054 0
M  V30 12081 C 1162.62 4.01038 1.81263 0
M  V30 12082 H 1159.74 0.717676 0.167663 0
M  V30 12083 H 1162.38 1.88128 -0.266067 0
M  V30 12084 H 1160.53 3.556 1.56463 0
M  V30 12085 H 1162.2 4.53301 -0.855332 0
M  V30 12086 H 1160.44 4.24936 -0.872441 0
M  V30 12087 H 1161.11 5.51776 0.157315 0
M  V30 12088 H 1163.59 3.9569 1.28718 0
M  V30 12089 H 1162.47 5.06526 2.11476 0
M  V30 12090 H 1162.73 3.45288 2.76096 0
M  V30 12091 N 1161.79 -0.095206 1.57312 0
M  V30 12092 C 1162.72 -1.11627 2.05089 0
M  V30 12093 C 1163.7 -1.41782 0.939787 0
M  V30 12094 O 1164.88 -1.51813 1.21105 0
M  V30 12095 C 1162.01 -2.43618 2.47523 0
M  V30 12096 C 1160.97 -2.27872 3.62296 0
M  V30 12097 C 1160.29 -3.65038 3.90706 0
M  V30 12098 C 1161.59 -1.71936 4.93189 0
M  V30 12099 H 1163.29 -0.718795 2.90644 0
M  V30 12100 H 1160.83 -0.344315 1.39823 0
M  V30 12101 H 1162.79 -3.1532 2.79556 0
M  V30 12102 H 1161.51 -2.85301 1.58968 0
M  V30 12103 H 1160.17 -1.58615 3.3051 0
M  V30 12104 H 1159.82 -4.04249 2.99319 0
M  V30 12105 H 1159.52 -3.55349 4.67976 0
M  V30 12106 H 1161.04 -4.38208 4.25213 0
M  V30 12107 H 1162.45 -2.33479 5.23603 0
M  V30 12108 H 1160.85 -1.73006 5.74621 0
M  V30 12109 H 1161.92 -0.678789 4.80125 0
M  V30 12110 N 1163.26 -1.53291 -0.366026 0
M  V30 12111 C 1164.19 -1.82675 -1.45437 0
M  V30 12112 C 1165.18 -0.680227 -1.55907 0
M  V30 12113 O 1166.36 -0.930032 -1.70482 0
M  V30 12114 C 1163.49 -2.01626 -2.8278 0
M  V30 12115 C 1162.44 -3.17391 -2.87135 0
M  V30 12116 C 1161.77 -3.21634 -4.27148 0
M  V30 12117 C 1163.07 -4.5599 -2.54697 0
M  V30 12118 H 1164.76 -2.73818 -1.21096 0
M  V30 12119 H 1162.31 -1.31754 -0.581108 0
M  V30 12120 H 1164.26 -2.20765 -3.58944 0
M  V30 12121 H 1162.99 -1.07193 -3.08508 0
M  V30 12122 H 1161.65 -2.98071 -2.13422 0
M  V30 12123 H 1161.29 -2.2484 -4.49951 0
M  V30 12124 H 1160.99 -3.99414 -4.30978 0
M  V30 12125 H 1162.52 -3.42957 -5.05186 0
M  V30 12126 H 1163.93 -4.75294 -3.20575 0
M  V30 12127 H 1162.33 -5.36008 -2.69844 0
M  V30 12128 H 1163.4 -4.61133 -1.49949 0
M  V30 12129 N 1164.74 0.6258 -1.44643 0
M  V30 12130 C 1165.71 1.71941 -1.51555 0
M  V30 12131 C 1166.71 1.55822 -0.396988 0
M  V30 12132 O 1167.9 1.61221 -0.65981 0
M  V30 12133 C 1165.03 3.11068 -1.39461 0
M  V30 12134 H 1166.22 1.67185 -2.48976 0
M  V30 12135 H 1163.77 0.839934 -1.31814 0
M  V30 12136 H 1164.51 3.21416 -0.431534 0
M  V30 12137 H 1164.29 3.24175 -2.20574 0
M  V30 12138 H 1165.78 3.90762 -1.4729 0
M  V30 12139 N 1166.22 1.31629 0.866686 0
M  V30 12140 C 1167.17 1.16149 1.96197 0
M  V30 12141 C 1168.15 0.0716068 1.60741 0
M  V30 12142 O 1169.35 0.296868 1.74493 0
M  V30 12143 C 1166.48 0.874322 3.3198 0
M  V30 12144 C 1165.56 2.00534 3.73693 0
M  V30 12145 N 1165.95 3.25272 3.87339 0
M  V30 12146 C 1164.25 1.90582 4.0323 0
M  V30 12147 C 1164.95 3.99275 4.2303 0
M  V30 12148 N 1163.93 3.27471 4.33894 0
M  V30 12149 H 1167.73 2.10732 2.04864 0
M  V30 12150 H 1165.24 1.23234 1.05769 0
M  V30 12151 H 1167.24 0.7444 4.102 0
M  V30 12152 H 1165.9 -0.0632521 3.24638 0
M  V30 12153 H 1166.91 3.60349 3.71979 0
M  V30 12154 H 1163.59 1.0431 4.0426 0
M  V30 12155 H 1164.98 5.06784 4.41157 0
M  V30 12156 N 1167.7 -1.08142 1.14644 0
M  V30 12157 C 1168.95 -1.80225 0.914517 0
M  V30 12158 C 1169.27 -1.86778 -0.560269 0
M  V30 12159 O 1168.54 -1.36284 -1.40724 0
M  V30 12160 H 1167.12 -0.667492 0.335356 0
M  V30 12161 H 1169.78 -1.30729 1.44554 0
M  V30 12162 H 1168.88 -2.82958 1.31685 0
M  V30 12163 N 1169.18 -0.941978 -1.26351 0
M  V30 12164 C 1170.41 -0.606748 -1.97803 0
M  V30 12165 C 1170.82 0.818441 -1.70138 0
M  V30 12166 O 1170.18 1.54583 -0.970076 0
M  V30 12167 C 1170.23 -0.840431 -3.51595 0
M  V30 12168 O 1169.95 -2.20957 -3.78299 0
M  V30 12169 C 1171.45 -0.515855 -4.40288 0
M  V30 12170 H 1168.67 -0.228591 -0.630862 0
M  V30 12171 H 1171.21 -1.2629 -1.60845 0
M  V30 12172 H 1169.37 -0.230875 -3.86711 0
M  V30 12173 H 1169.78 -2.2702 -4.72824 0
M  V30 12174 H 1171.26 -0.72998 -5.47152 0
M  V30 12175 H 1171.73 0.549178 -4.35753 0
M  V30 12176 H 1172.34 -1.10417 -4.10717 0
M  V30 12177 N 1170.66 1.40747 -0.709091 0
M  V30 12178 C 1171.59 2.33404 -0.0669763 0
M  V30 12179 C 1172.57 1.52546 0.752582 0
M  V30 12180 O 1173.75 1.81036 0.702823 0
M  V30 12181 C 1170.88 3.36476 0.860285 0
M  V30 12182 C 1169.84 4.27748 0.146828 0
M  V30 12183 C 1169.16 5.21304 1.18937 0
M  V30 12184 C 1170.46 5.12734 -0.995064 0
M  V30 12185 H 1172.16 2.87349 -0.840888 0
M  V30 12186 H 1169.7 1.38163 -0.405817 0
M  V30 12187 H 1171.65 4.00231 1.31883 0
M  V30 12188 H 1170.38 2.80912 1.66602 0
M  V30 12189 H 1169.04 3.65437 -0.291826 0
M  V30 12190 H 1168.69 4.62048 1.98798 0
M  V30 12191 H 1168.39 5.8321 0.716917 0
M  V30 12192 H 1169.91 5.87936 1.64815 0
M  V30 12193 H 1171.32 5.69979 -0.61618 0
M  V30 12194 H 1169.72 5.83649 -1.39547 0
M  V30 12195 H 1170.79 4.49097 -1.82867 0
M  V30 12196 N 1172.13 0.454803 1.50895 0
M  V30 12197 C 1173.36 -0.106259 2.07128 0
M  V30 12198 C 1173.78 -1.3418 1.31823 0
M  V30 12199 O 1173.14 -1.77667 0.361147 0
M  V30 12200 C 1173.19 -0.389609 3.58489 0
M  V30 12201 O 1172.29 -1.47305 3.85195 0
M  V30 12202 H 1171.63 0.00580588 0.663975 0
M  V30 12203 H 1174.16 0.641163 1.94294 0
M  V30 12204 H 1174.17 -0.634934 4.03029 0
M  V30 12205 H 1172.85 0.513338 4.1272 0
M  V30 12206 H 1171.43 -1.21631 3.52506 0
M  V30 12207 N 1173.61 -1.56489 0.186789 0
M  V30 12208 C 1174.86 -1.97634 -0.454831 0
M  V30 12209 C 1175.19 -1.07334 -1.61843 0
M  V30 12210 O 1174.47 -0.123612 -1.94107 0
M  V30 12211 C 1174.75 -3.48071 -0.922962 0
M  V30 12212 C 1174.6 -4.49149 0.241877 0
M  V30 12213 C 1175.92 -4.01994 -1.79134 0
M  V30 12214 H 1173.04 -0.718555 -0.163854 0
M  V30 12215 H 1175.68 -1.87984 0.27604 0
M  V30 12216 H 1173.83 -3.56425 -1.54575 0
M  V30 12217 H 1175.5 -4.52841 0.87936 0
M  V30 12218 H 1173.75 -4.24468 0.894964 0
M  V30 12219 H 1174.42 -5.51851 -0.128051 0
M  V30 12220 H 1176.89 -3.96367 -1.26618 0
M  V30 12221 H 1175.77 -5.07641 -2.08787 0
M  V30 12222 H 1176.03 -3.46747 -2.74261 0
M  V30 12223 N 1175.09 0.086862 -1.5736 0
M  V30 12224 C 1176 1.12297 -2.05977 0
M  V30 12225 C 1177.02 1.43347 -0.986284 0
M  V30 12226 O 1178.19 1.53825 -1.3 0
M  V30 12227 C 1175.26 2.42131 -2.4814 0
M  V30 12228 C 1174.32 2.18189 -3.69719 0
M  V30 12229 C 1173.55 3.41833 -4.09861 0
M  V30 12230 O 1173.77 4.50383 -3.50016 0
M  V30 12231 O 1172.71 3.30934 -5.02759 0
M  V30 12232 H 1176.53 0.740012 -2.94546 0
M  V30 12233 H 1174.12 0.29995 -1.46358 0
M  V30 12234 H 1176 3.18568 -2.75848 0
M  V30 12235 H 1174.68 2.79837 -1.62705 0
M  V30 12236 H 1173.58 1.39506 -3.47115 0
M  V30 12237 H 1174.92 1.85372 -4.55959 0
M  V30 12238 N 1176.57 1.53483 0.357892 0
M  V30 12239 C 1177.53 1.79782 1.42166 0
M  V30 12240 C 1178.53 0.668441 1.46248 0
M  V30 12241 O 1179.72 0.936677 1.46874 0
M  V30 12242 C 1176.85 1.92686 2.8122 0
M  V30 12243 H 1178.05 2.74794 1.20117 0
M  V30 12244 H 1175.6 1.44677 0.591468 0
M  V30 12245 H 1176.33 0.997669 3.08573 0
M  V30 12246 H 1176.12 2.74837 2.79655 0
M  V30 12247 H 1177.61 2.14599 3.58242 0
M  V30 12248 N 1178.05 -0.61812 1.44973 0
M  V30 12249 C 1179.01 -1.71135 1.52465 0
M  V30 12250 C 1180.01 -1.5561 0.405246 0
M  V30 12251 O 1181.2 -1.60869 0.668351 0
M  V30 12252 C 1178.33 -3.10324 1.41108 0
M  V30 12253 H 1179.52 -1.65862 2.49859 0
M  V30 12254 H 1177.08 -0.832932 1.32257 0
M  V30 12255 H 1177.81 -3.21183 0.448574 0
M  V30 12256 H 1177.6 -3.23001 2.2229 0
M  V30 12257 H 1179.09 -3.89976 1.49361 0
M  V30 12258 N 1179.52 -1.32087 -0.859693 0
M  V30 12259 C 1180.75 -1.25348 -1.64607 0
M  V30 12260 C 1181.17 0.179425 -1.87945 0
M  V30 12261 O 1180.52 1.11487 -1.44489 0
M  V30 12262 C 1180.57 -2.0047 -3.00822 0
M  V30 12263 O 1180.3 -3.38169 -2.7852 0
M  V30 12264 C 1181.8 -2.00694 -3.95268 0
M  V30 12265 H 1179.02 -0.432692 -0.512854 0
M  V30 12266 H 1181.56 -1.7413 -1.07234 0
M  V30 12267 H 1179.72 -1.55423 -3.54855 0
M  V30 12268 H 1180.13 -3.76553 -3.65113 0
M  V30 12269 H 1181.6 -2.57748 -4.88129 0
M  V30 12270 H 1182.08 -0.99196 -4.27851 0
M  V30 12271 H 1182.69 -2.45666 -3.47172 0
M  V30 12272 N 1181 1.07532 -1.15215 0
M  V30 12273 C 1182.25 1.8036 -0.927263 0
M  V30 12274 C 1182.58 1.86414 0.544371 0
M  V30 12275 O 1181.86 1.34653 1.40353 0
M  V30 12276 C 1182.14 3.25512 -1.53992 0
M  V30 12277 C 1181.99 3.27614 -3.08203 0
M  V30 12278 C 1183.31 4.22731 -1.22418 0
M  V30 12279 H 1180.43 0.654775 -0.338289 0
M  V30 12280 H 1183.07 1.25842 -1.42351 0
M  V30 12281 H 1181.22 3.72068 -1.11791 0
M  V30 12282 H 1182.89 2.89315 -3.59297 0
M  V30 12283 H 1181.14 2.66627 -3.42188 0
M  V30 12284 H 1181.81 4.29956 -3.46182 0
M  V30 12285 H 1184.28 3.84557 -1.58919 0
M  V30 12286 H 1183.16 5.22589 -1.67906 0
M  V30 12287 H 1183.42 4.41875 -0.14091 0
M  V30 12288 N 1182.48 0.948665 1.2585 0
M  V30 12289 C 1183.71 0.616741 1.98018 0
M  V30 12290 C 1184.13 -0.803005 1.70098 0
M  V30 12291 O 1183.49 -1.54208 0.953392 0
M  V30 12292 C 1183.54 0.874429 3.49837 0
M  V30 12293 O 1182.64 -0.0497568 4.1237 0
M  V30 12294 H 1181.98 0.235112 0.620982 0
M  V30 12295 H 1184.51 1.27364 1.60124 0
M  V30 12296 H 1184.52 0.798309 4.00114 0
M  V30 12297 H 1183.2 1.90922 3.69488 0
M  V30 12298 H 1181.77 0.0780591 3.72818 0
M  V30 12299 N 1183.96 -1.40369 0.716545 0
M  V30 12300 C 1184.91 -2.3071 0.0645944 0
M  V30 12301 C 1185.88 -1.48239 -0.749294 0
M  V30 12302 O 1187.06 -1.76975 -0.713045 0
M  V30 12303 C 1184.2 -3.34456 -0.850478 0
M  V30 12304 C 1183.31 -4.31992 -0.0259594 0
M  V30 12305 C 1182.45 -5.22806 -0.940599 0
M  V30 12306 C 1181.49 -6.12001 -0.110228 0
M  V30 12307 N 1180.62 -6.9523 -0.979796 0
M  V30 12308 H 1185.46 -2.85896 0.840682 0
M  V30 12309 H 1183 -1.40789 0.426258 0
M  V30 12310 H 1184.96 -3.93177 -1.39528 0
M  V30 12311 H 1183.59 -2.8077 -1.59274 0
M  V30 12312 H 1182.64 -3.75045 0.636036 0
M  V30 12313 H 1183.95 -4.94971 0.616883 0
M  V30 12314 H 1183.11 -5.86463 -1.5539 0
M  V30 12315 H 1181.85 -4.60104 -1.61726 0
M  V30 12316 H 1180.85 -5.47373 0.516001 0
M  V30 12317 H 1182.08 -6.76763 0.562944 0
M  V30 12318 H 1180.02 -6.35115 -1.64209 0
M  V30 12319 H 1179.94 -7.54978 -0.393012 0
M  V30 12320 H 1181.21 -7.63335 -1.57924 0
M  V30 12321 N 1185.44 -0.462799 -1.50652 0
M  V30 12322 C 1186.68 0.0873392 -2.03212 0
M  V30 12323 C 1187.04 1.38147 -1.33915 0
M  V30 12324 O 1186.33 1.86161 -0.453286 0
M  V30 12325 C 1186.52 0.335294 -3.55824 0
M  V30 12326 C 1186.35 -0.933253 -4.3991 0
M  V30 12327 C 1185.12 -1.47417 -4.83318 0
M  V30 12328 C 1187.32 -1.8264 -4.80777 0
M  V30 12329 N 1185.3 -2.6926 -5.51699 0
M  V30 12330 C 1186.67 -2.89075 -5.48485 0
M  V30 12331 C 1188.73 -1.83778 -4.62742 0
M  V30 12332 C 1187.43 -3.96625 -6.00067 0
M  V30 12333 C 1189.46 -2.90279 -5.15259 0
M  V30 12334 C 1188.82 -3.95433 -5.82934 0
M  V30 12335 H 1184.92 -0.00785676 -0.781961 0
M  V30 12336 H 1187.5 -0.629156 -1.84254 0
M  V30 12337 H 1185.67 1.02083 -3.74745 0
M  V30 12338 H 1187.41 0.879039 -3.95038 0
M  V30 12339 H 1184.16 -1.02451 -4.62386 0
M  V30 12340 H 1184.59 -3.31115 -5.90502 0
M  V30 12341 H 1189.23 -1.03802 -4.0986 0
M  V30 12342 H 1186.95 -4.77424 -6.51991 0
M  V30 12343 H 1190.53 -2.92133 -5.0314 0
M  V30 12344 H 1189.41 -4.76487 -6.2284 0
M  V30 12345 N 1186.91 1.56388 -0.195085 0
M  V30 12346 C 1188.14 2.02406 0.452399 0
M  V30 12347 C 1188.56 1.07432 1.54402 0
M  V30 12348 O 1187.92 0.0578246 1.81208 0
M  V30 12349 C 1187.97 3.46864 0.985778 0
M  V30 12350 O 1187.07 3.55007 2.09867 0
M  V30 12351 H 1186.42 0.65553 0.105719 0
M  V30 12352 H 1188.95 2.02299 -0.30596 0
M  V30 12353 H 1188.96 3.86655 1.30238 0
M  V30 12354 H 1187.63 4.15481 0.186662 0
M  V30 12355 H 1186.21 3.2709 1.79071 0
M  V30 12356 N 1188.39 -0.0785156 1.57404 0
M  V30 12357 C 1189.64 -0.774884 1.88061 0
M  V30 12358 C 1189.99 -1.75525 0.787966 0
M  V30 12359 O 1189.29 -1.90462 -0.208514 0
M  V30 12360 C 1189.48 -1.52826 3.23078 0
M  V30 12361 C 1189.31 -0.62236 4.45373 0
M  V30 12362 C 1188.08 -0.261831 5.04621 0
M  V30 12363 C 1190.28 0.077964 5.14241 0
M  V30 12364 N 1188.26 0.650492 6.10444 0
M  V30 12365 C 1189.63 0.847727 6.14177 0
M  V30 12366 C 1191.69 0.150143 4.97674 0
M  V30 12367 C 1190.39 1.68295 6.99335 0
M  V30 12368 C 1192.41 0.972321 5.83352 0
M  V30 12369 C 1191.78 1.73015 6.82821 0
M  V30 12370 H 1187.88 -0.259194 0.737796 0
M  V30 12371 H 1190.46 -0.0366796 1.94665 0
M  V30 12372 H 1188.63 -2.23723 3.17494 0
M  V30 12373 H 1190.36 -2.17311 3.41406 0
M  V30 12374 H 1187.12 -0.613197 4.69614 0
M  V30 12375 H 1187.54 1.0997 6.68009 0
M  V30 12376 H 1192.18 -0.421423 4.20695 0
M  V30 12377 H 1189.9 2.26552 7.75693 0
M  V30 12378 H 1193.49 1.03106 5.72591 0
M  V30 12379 H 1192.37 2.35609 7.47969 0
M  V30 12380 N 1189.87 -1.5367 -0.349747 0
M  V30 12381 C 1191.15 -1.61238 -1.10732 0
M  V30 12382 C 1191.53 -0.429756 -2.06679 0
M  V30 12383 O 1190.88 0.578564 -2.21054 0
M  V30 12384 C 1191.09 -2.97022 -1.83245 0
M  V30 12385 C 1192.43 -3.52158 -2.37212 0
M  V30 12386 O 1193.46 -2.99156 -1.9335 0
M  V30 12387 O 1192.32 -4.44853 -3.1744 0
M  V30 12388 H 1189.41 -0.65191 -0.508864 0
M  V30 12389 H 1191.96 -1.66015 -0.351738 0
M  V30 12390 H 1190.73 -3.74535 -1.13311 0
M  V30 12391 H 1190.35 -2.95808 -2.65675 0
M  V30 12392 N 1191.35 0.610423 -1.45298 0
M  V30 12393 C 1192.26 1.74964 -1.56285 0
M  V30 12394 C 1193.27 1.68149 -0.447436 0
M  V30 12395 O 1194.45 1.88556 -0.707725 0
M  V30 12396 C 1191.52 3.11417 -1.52383 0
M  V30 12397 C 1190.58 3.29707 -2.7494 0
M  V30 12398 C 1189.81 4.5965 -2.71215 0
M  V30 12399 O 1190.03 5.41789 -1.78383 0
M  V30 12400 O 1188.97 4.80591 -3.62375 0
M  V30 12401 H 1192.79 1.68646 -2.52571 0
M  V30 12402 H 1190.38 0.774168 -1.27777 0
M  V30 12403 H 1192.26 3.9272 -1.52805 0
M  V30 12404 H 1190.93 3.18232 -0.592472 0
M  V30 12405 H 1189.84 2.48003 -2.80081 0
M  V30 12406 H 1191.17 3.27766 -3.67192 0
M  V30 12407 N 1192.83 1.32541 0.852676 0
M  V30 12408 C 1194.1 1.1383 1.59067 0
M  V30 12409 C 1194.48 -0.300584 2.08949 0
M  V30 12410 O 1193.83 -1.29751 1.88088 0
M  V30 12411 C 1194.04 2.16758 2.73527 0
M  V30 12412 C 1195.39 2.50194 3.43057 0
M  V30 12413 O 1196.41 2.15319 2.83754 0
M  V30 12414 O 1195.27 3.09985 4.50079 0
M  V30 12415 H 1192.37 0.439379 0.700625 0
M  V30 12416 H 1194.91 1.44078 0.896632 0
M  V30 12417 H 1193.68 3.13469 2.34207 0
M  V30 12418 H 1193.31 1.87515 3.50605 0
M  V30 12419 N 1194.3 -1.0692 1.15784 0
M  V30 12420 C 1195.25 -2.16335 0.854506 0
M  V30 12421 C 1196.25 -1.68505 -0.173868 0
M  V30 12422 O 1197.45 -1.79977 -0.0284722 0
M  V30 12423 H 1193.83 -0.706103 0.258694 0
M  V30 12424 H 1195.8 -2.39135 1.78486 0
M  V30 12425 C 1194.55 -3.45778 0.365042 0
M  V30 12426 H 1193.87 -3.82971 1.14776 0
M  V30 12427 H 1195.31 -4.23567 0.191504 0
M  V30 12428 C 1193.77 -3.24258 -0.914253 0
M  V30 12429 O 1194.3 -3.49236 -1.98487 0
M  V30 12430 N 1192.51 -2.77722 -0.855501 0
M  V30 12431 H 1192.05 -2.57595 0.0159233 0
M  V30 12432 H 1192.01 -2.63702 -1.71198 0
M  V30 12433 N 1195.78 -0.955326 -1.25345 0
M  V30 12434 C 1197.01 -0.627693 -1.97149 0
M  V30 12435 C 1197.43 0.800349 -1.70997 0
M  V30 12436 O 1196.78 1.53545 -0.986417 0
M  V30 12437 C 1196.83 -0.877675 -3.50684 0
M  V30 12438 O 1196.55 -2.24957 -3.75934 0
M  V30 12439 C 1198.06 -0.562524 -4.39716 0
M  V30 12440 H 1195.28 -0.235269 -0.628402 0
M  V30 12441 H 1197.82 -1.27989 -1.59496 0
M  V30 12442 H 1195.97 -0.271878 -3.86445 0
M  V30 12443 H 1196.39 -2.32022 -4.70389 0
M  V30 12444 H 1197.86 -0.787972 -5.46347 0
M  V30 12445 H 1198.34 0.50293 -4.36311 0
M  V30 12446 H 1198.95 -1.14767 -4.09522 0
M  V30 12447 N 1197.26 1.39987 -0.723979 0
M  V30 12448 C 1198.49 2.05037 -0.27702 0
M  V30 12449 C 1198.9 1.54565 1.08421 0
M  V30 12450 O 1198.26 0.705795 1.683 0
M  V30 12451 C 1198.31 3.60582 -0.25751 0
M  V30 12452 O 1198.03 4.09194 -1.565 0
M  V30 12453 C 1199.53 4.42817 0.206972 0
M  V30 12454 H 1196.75 0.659637 -0.122963 0
M  V30 12455 H 1199.3 1.7924 -0.98454 0
M  V30 12456 H 1197.45 3.85319 0.401037 0
M  V30 12457 H 1197.87 5.03447 -1.47112 0
M  V30 12458 H 1199.34 5.5174 0.16947 0
M  V30 12459 H 1199.82 4.21023 1.25045 0
M  V30 12460 H 1200.42 4.23205 -0.421604 0
M  V30 12461 N 1198.74 0.470782 1.50404 0
M  V30 12462 C 1199.96 -0.084284 2.07229 0
M  V30 12463 C 1200.39 -1.32774 1.33239 0
M  V30 12464 O 1199.75 -1.77274 0.379971 0
M  V30 12465 C 1199.8 -0.351565 3.58882 0
M  V30 12466 O 1198.9 -1.43211 3.86736 0
M  V30 12467 H 1198.24 0.0128479 0.663876 0
M  V30 12468 H 1200.77 0.661735 1.93603 0
M  V30 12469 H 1200.78 -0.592151 4.0368 0
M  V30 12470 H 1199.46 0.557084 4.12152 0
M  V30 12471 H 1198.03 -1.17886 3.53776 0
M  V30 12472 N 1200.22 -1.56282 0.203376 0
M  V30 12473 C 1201.16 -2.19473 -0.714164 0
M  V30 12474 C 1202.13 -1.14454 -1.20372 0
M  V30 12475 O 1203.32 -1.42739 -1.26611 0
M  V30 12476 C 1200.46 -2.86451 -1.92457 0
M  V30 12477 C 1199.57 -4.06017 -1.47561 0
M  V30 12478 C 1198.71 -4.60829 -2.64216 0
M  V30 12479 C 1197.75 -5.72734 -2.15967 0
M  V30 12480 N 1196.88 -6.21916 -3.25829 0
M  V30 12481 H 1201.72 -2.97523 -0.168558 0
M  V30 12482 H 1199.26 -1.46926 -0.0714525 0
M  V30 12483 H 1201.22 -3.23459 -2.63496 0
M  V30 12484 H 1199.85 -2.10951 -2.44335 0
M  V30 12485 H 1198.9 -3.74617 -0.660784 0
M  V30 12486 H 1200.21 -4.8693 -1.08168 0
M  V30 12487 H 1199.37 -5.00185 -3.43366 0
M  V30 12488 H 1198.11 -3.7904 -3.06887 0
M  V30 12489 H 1197.11 -5.32899 -1.35273 0
M  V30 12490 H 1198.34 -6.56346 -1.74316 0
M  V30 12491 H 1196.28 -5.43047 -3.68016 0
M  V30 12492 H 1196.2 -6.97904 -2.90631 0
M  V30 12493 H 1197.47 -6.65927 -4.05168 0
M  V30 12494 N 1201.7 0.070167 -1.57444 0
M  V30 12495 C 1203.11 0.621805 -1.76041 0
M  V30 12496 C 1203.46 1.77824 -0.829047 0
M  V30 12497 O 1202.58 2.16396 -0.0135453 0
M  V30 12498 C 1203.18 1.13476 -3.19231 0
M  V30 12499 C 1201.74 1.63225 -3.39167 0
M  V30 12500 C 1200.88 0.552369 -2.71743 0
M  V30 12501 H 1203.83 -0.156009 -1.57931 0
M  V30 12502 H 1203.86 2.00352 -3.2348 0
M  V30 12503 H 1203.37 0.29288 -3.86993 0
M  V30 12504 H 1201.47 2.49733 -2.76522 0
M  V30 12505 H 1201.58 1.70807 -4.47618 0
M  V30 12506 H 1199.95 0.997797 -2.34342 0
M  V30 12507 H 1200.73 -0.279354 -3.42162 0
M  V30 12508 N 1203.17 1.53854 0.341593 0
M  V30 12509 C 1204.1 1.84966 1.42513 0
M  V30 12510 C 1205.08 0.704944 1.54805 0
M  V30 12511 O 1206.27 0.957036 1.68981 0
M  V30 12512 C 1203.4 2.06099 2.79536 0
M  V30 12513 C 1202.35 3.21919 2.82049 0
M  V30 12514 C 1201.68 3.28389 4.21977 0
M  V30 12515 C 1202.98 4.59984 2.4741 0
M  V30 12516 H 1204.67 2.7571 1.16724 0
M  V30 12517 H 1202.22 1.32662 0.560073 0
M  V30 12518 H 1204.17 2.26448 3.55386 0
M  V30 12519 H 1202.9 1.12087 3.06764 0
M  V30 12520 H 1201.56 3.01429 2.08653 0
M  V30 12521 H 1201.2 2.3197 4.46317 0
M  V30 12522 H 1200.9 4.0622 4.24569 0
M  V30 12523 H 1202.43 3.50951 4.99666 0
M  V30 12524 H 1203.84 4.80334 3.12973 0
M  V30 12525 H 1202.24 5.40233 2.61282 0
M  V30 12526 H 1203.31 4.6346 1.42594 0
M  V30 12527 N 1204.65 -0.602709 1.4562 0
M  V30 12528 C 1205.56 -1.74132 1.5721 0
M  V30 12529 C 1206.58 -1.67909 0.456347 0
M  V30 12530 O 1207.75 -1.88178 0.717714 0
M  V30 12531 C 1204.82 -3.10604 1.54032 0
M  V30 12532 C 1203.88 -3.28244 2.76685 0
M  V30 12533 C 1203.11 -4.58205 2.73649 0
M  V30 12534 O 1203.34 -5.40836 1.81254 0
M  V30 12535 O 1202.27 -4.78663 3.64919 0
M  V30 12536 H 1206.1 -1.67304 2.53462 0
M  V30 12537 H 1203.68 -0.767381 1.28186 0
M  V30 12538 H 1205.56 -3.91904 1.54885 0
M  V30 12539 H 1204.24 -3.17913 0.60934 0
M  V30 12540 H 1203.14 -2.46514 2.81393 0
M  V30 12541 H 1204.48 -3.25814 3.68925 0
M  V30 12542 N 1206.13 -1.32992 -0.845635 0
M  V30 12543 C 1207.35 -1.27231 -1.6379 0
M  V30 12544 C 1207.78 0.155141 -1.87459 0
M  V30 12545 O 1207.14 1.10953 -1.43384 0
M  V30 12546 C 1207.19 -2.04629 -2.96916 0
M  V30 12547 O 1206.29 -1.40027 -3.879 0
M  V30 12548 H 1205.63 -0.438045 -0.499011 0
M  V30 12549 H 1208.16 -1.75448 -1.05257 0
M  V30 12550 H 1208.17 -2.15141 -3.46667 0
M  V30 12551 H 1206.85 -3.08425 -2.79011 0
M  V30 12552 H 1205.42 -1.38118 -3.46378 0
M  V30 12553 N 1207.61 1.06304 -1.1635 0
M  V30 12554 C 1208.84 1.82799 -0.96913 0
M  V30 12555 C 1209.25 1.82526 0.482659 0
M  V30 12556 O 1208.61 1.24437 1.33498 0
M  V30 12557 C 1208.66 3.29417 -1.48884 0
M  V30 12558 O 1208.38 3.29803 -2.88377 0
M  V30 12559 C 1209.88 4.22642 -1.33748 0
M  V30 12560 H 1207.1 0.576388 -0.343537 0
M  V30 12561 H 1209.64 1.34122 -1.54375 0
M  V30 12562 H 1207.8 3.75406 -0.956509 0
M  V30 12563 H 1208.21 4.21486 -3.1217 0
M  V30 12564 H 1209.69 5.23545 -1.74942 0
M  V30 12565 H 1210.16 4.38287 -0.283021 0
M  V30 12566 H 1210.77 3.82499 -1.85942 0
M  V30 12567 N 1209.09 0.96196 1.24836 0
M  V30 12568 C 1210 0.494876 2.29321 0
M  V30 12569 C 1211.01 -0.441363 1.68309 0
M  V30 12570 O 1212.19 -0.315814 1.98908 0
M  V30 12571 C 1209.25 -0.212944 3.46045 0
M  V30 12572 C 1208.31 0.762411 4.22476 0
M  V30 12573 C 1207.55 0.0882756 5.33627 0
M  V30 12574 O 1207.77 -1.12459 5.59204 0
M  V30 12575 O 1206.7 0.777529 5.96857 0
M  V30 12576 H 1210.53 1.36333 2.7138 0
M  V30 12577 H 1208.11 0.728738 1.30421 0
M  V30 12578 H 1210 -0.610805 4.1695 0
M  V30 12579 H 1208.67 -1.05645 3.05975 0
M  V30 12580 H 1207.58 1.21062 3.5397 0
M  V30 12581 H 1208.91 1.57416 4.66349 0
M  V30 12582 N 1210.56 -1.39601 0.731392 0
M  V30 12583 C 1211.97 -1.83424 0.348194 0
M  V30 12584 C 1212.33 -1.61106 -1.11979 0
M  V30 12585 O 1211.45 -1.1003 -1.86339 0
M  V30 12586 C 1212.05 -3.32982 0.6252 0
M  V30 12587 C 1210.6 -3.75238 0.295536 0
M  V30 12588 C 1209.75 -2.62642 0.88964 0
M  V30 12589 H 1212.7 -1.28644 0.929318 0
M  V30 12590 H 1212.72 -3.80357 -0.104254 0
M  V30 12591 H 1212.24 -3.49193 1.69368 0
M  V30 12592 H 1210.34 -3.64615 -0.767254 0
M  V30 12593 H 1210.45 -4.72781 0.775576 0
M  V30 12594 H 1208.81 -2.52726 0.316529 0
M  V30 12595 H 1209.6 -2.81661 1.96271 0
M  V30 12596 N 1212.04 -0.478751 -1.50152 0
M  V30 12597 C 1213.27 0.0732929 -2.0727 0
M  V30 12598 C 1213.69 1.32066 -1.33941 0
M  V30 12599 O 1213.05 1.7707 -0.389367 0
M  V30 12600 C 1213.1 0.332528 -3.59064 0
M  V30 12601 O 1212.2 1.41158 -3.8749 0
M  V30 12602 H 1211.54 -0.0163684 -0.663798 0
M  V30 12603 H 1214.07 -0.671993 -1.9325 0
M  V30 12604 H 1214.08 0.570735 -4.03988 0
M  V30 12605 H 1212.76 -0.578934 -4.11851 0
M  V30 12606 H 1211.34 1.16008 -3.54396 0
M  V30 12607 N 1213.52 1.56172 -0.211661 0
M  V30 12608 C 1214.48 2.18602 0.688906 0
M  V30 12609 C 1215.48 1.14508 1.12892 0
M  V30 12610 O 1216.67 1.39799 1.03932 0
M  V30 12611 C 1213.81 2.80141 1.94253 0
M  V30 12612 H 1215 2.9955 0.144765 0
M  V30 12613 H 1212.55 1.56254 0.0379615 0
M  V30 12614 H 1213.29 2.03035 2.52878 0
M  V30 12615 H 1213.07 3.56358 1.63558 0
M  V30 12616 H 1214.56 3.28026 2.58436 0
M  V30 12617 N 1215 -0.0618163 1.57479 0
M  V30 12618 C 1216.22 -0.775513 1.92355 0
M  V30 12619 C 1216.65 -1.69816 0.808949 0
M  V30 12620 O 1216.01 -1.79736 -0.23761 0
M  V30 12621 C 1216.05 -1.5367 3.26218 0
M  V30 12622 O 1215.16 -2.64802 3.16155 0
M  V30 12623 H 1214.5 -0.210909 0.629614 0
M  V30 12624 H 1217.03 -0.0270752 2.04582 0
M  V30 12625 H 1217.04 -1.91379 3.6033 0
M  V30 12626 H 1215.71 -0.859798 4.06916 0
M  V30 12627 H 1214.29 -2.29876 2.93618 0
M  V30 12628 N 1216.48 -1.54033 -0.333429 0
M  V30 12629 C 1217.7 -1.76031 -1.09672 0
M  V30 12630 C 1218.13 -0.502844 -1.81254 0
M  V30 12631 O 1217.48 0.54509 -1.72912 0
M  V30 12632 C 1217.53 -2.947 -2.07809 0
M  V30 12633 O 1216.64 -2.65555 -3.15522 0
M  V30 12634 H 1215.98 -0.583611 -0.316692 0
M  V30 12635 H 1218.51 -2.01026 -0.380732 0
M  V30 12636 H 1218.52 -3.21771 -2.50853 0
M  V30 12637 H 1217.19 -3.85895 -1.55106 0
M  V30 12638 H 1215.77 -2.49403 -2.77223 0
M  V30 12639 N 1217.95 0.594978 -1.45938 0
M  V30 12640 C 1218.9 1.70489 -1.5557 0
M  V30 12641 C 1219.87 1.61193 -0.400751 0
M  V30 12642 O 1221.06 1.80587 -0.615882 0
M  V30 12643 C 1218.2 3.08817 -1.54033 0
M  V30 12644 C 1217.31 3.28827 -2.80173 0
M  V30 12645 C 1216.44 4.57333 -2.70222 0
M  V30 12646 C 1215.48 4.70644 -3.91357 0
M  V30 12647 N 1214.62 5.90463 -3.79865 0
M  V30 12648 H 1219.46 1.61593 -2.50383 0
M  V30 12649 H 1217 0.787747 -1.24229 0
M  V30 12650 H 1218.96 3.88865 -1.51129 0
M  V30 12651 H 1217.59 3.1664 -0.627617 0
M  V30 12652 H 1216.64 2.42467 -2.9311 0
M  V30 12653 H 1217.95 3.34534 -3.69985 0
M  V30 12654 H 1217.1 5.45593 -2.65354 0
M  V30 12655 H 1215.84 4.54045 -1.7803 0
M  V30 12656 H 1214.85 3.80805 -3.9657 0
M  V30 12657 H 1216.07 4.75721 -4.8463 0
M  V30 12658 H 1214.02 5.88196 -2.90451 0
M  V30 12659 H 1213.94 5.97385 -4.63322 0
M  V30 12660 H 1215.2 6.81187 -3.78952 0
M  V30 12661 N 1219.43 1.33438 0.838571 0
M  V30 12662 C 1220.36 1.26344 1.96365 0
M  V30 12663 C 1221.34 0.143956 1.6949 0
M  V30 12664 O 1222.53 0.333779 1.9131 0
M  V30 12665 C 1219.66 1.0022 3.32526 0
M  V30 12666 C 1218.61 2.08466 3.73799 0
M  V30 12667 C 1217.94 1.67555 5.07769 0
M  V30 12668 C 1219.24 3.50144 3.87552 0
M  V30 12669 H 1220.93 2.20478 2.02558 0
M  V30 12670 H 1218.48 1.06139 0.973168 0
M  V30 12671 H 1220.43 0.939068 4.10803 0
M  V30 12672 H 1219.16 0.0252514 3.2659 0
M  V30 12673 H 1217.81 2.13822 2.97785 0
M  V30 12674 H 1217.46 0.685619 4.98305 0
M  V30 12675 H 1217.16 2.39993 5.36356 0
M  V30 12676 H 1218.69 1.62708 5.88522 0
M  V30 12677 H 1220.1 3.47287 4.56141 0
M  V30 12678 H 1218.5 4.21069 4.27575 0
M  V30 12679 H 1219.57 3.88628 2.89994 0
M  V30 12680 N 1220.91 -1.05686 1.16912 0
M  V30 12681 C 1222.32 -1.60059 0.961153 0
M  V30 12682 C 1222.67 -1.89894 -0.493409 0
M  V30 12683 O 1221.8 -1.67692 -1.36778 0
M  V30 12684 C 1222.39 -2.90803 1.73837 0
M  V30 12685 C 1220.95 -3.41854 1.57522 0
M  V30 12686 C 1220.1 -2.15658 1.74319 0
M  V30 12687 H 1223.05 -0.885592 1.31693 0
M  V30 12688 H 1223.07 -3.60485 1.21781 0
M  V30 12689 H 1222.58 -2.69056 2.79697 0
M  V30 12690 H 1220.68 -3.68647 0.541284 0
M  V30 12691 H 1220.8 -4.16771 2.36302 0
M  V30 12692 H 1219.16 -2.26177 1.17115 0
M  V30 12693 H 1219.94 -1.96386 2.8158 0
M  V30 12694 N 1222.39 -0.968567 -1.24324 0
M  V30 12695 C 1223.8 -0.66964 -1.74278 0
M  V30 12696 C 1224.15 0.81461 -1.7849 0
M  V30 12697 O 1223.28 1.63736 -1.4149 0
M  V30 12698 C 1223.87 -1.20885 -3.165 0
M  V30 12699 C 1222.43 -0.959808 -3.63957 0
M  V30 12700 C 1221.58 -1.34365 -2.42573 0
M  V30 12701 H 1224.53 -1.14379 -1.10015 0
M  V30 12702 H 1224.55 -0.57555 -3.76122 0
M  V30 12703 H 1224.06 -2.28912 -3.13402 0
M  V30 12704 H 1222.16 0.104894 -3.72452 0
M  V30 12705 H 1222.27 -1.60606 -4.51378 0
M  V30 12706 H 1220.64 -0.762039 -2.43033 0
M  V30 12707 H 1221.42 -2.43343 -2.42155 0
M  V30 12708 N 1223.87 1.39211 -0.738786 0
M  V30 12709 C 1224.83 2.28937 -0.109746 0
M  V30 12710 C 1225.83 1.46488 0.663157 0
M  V30 12711 O 1227.02 1.67119 0.491614 0
M  V30 12712 C 1224.15 3.30039 0.853633 0
M  V30 12713 H 1225.34 2.86068 -0.900295 0
M  V30 12714 H 1222.9 1.47922 -0.504853 0
M  V30 12715 H 1223.63 2.77971 1.6704 0
M  V30 12716 H 1223.42 3.90935 0.302007 0
M  V30 12717 H 1224.91 3.97169 1.29022 0
M  V30 12718 N 1225.34 0.486708 1.49896 0
M  V30 12719 C 1226.27 -0.288898 2.31706 0
M  V30 12720 C 1227.26 -0.975901 1.3932 0
M  V30 12721 O 1228.44 -0.970065 1.68236 0
M  V30 12722 C 1225.57 -1.36218 3.19471 0
M  V30 12723 C 1224.52 -0.795884 4.20535 0
M  V30 12724 C 1223.85 -1.96862 4.97141 0
M  V30 12725 C 1225.15 0.203421 5.21904 0
M  V30 12726 H 1226.84 0.393934 2.96797 0
M  V30 12727 H 1224.39 0.190894 1.42729 0
M  V30 12728 H 1226.34 -1.91238 3.75508 0
M  V30 12729 H 1225.07 -2.074 2.52295 0
M  V30 12730 H 1223.73 -0.267538 3.65622 0
M  V30 12731 H 1223.37 -2.66779 4.26425 0
M  V30 12732 H 1223.07 -1.59585 5.65514 0
M  V30 12733 H 1224.6 -2.52343 5.56017 0
M  V30 12734 H 1226.01 -0.258144 5.72719 0
M  V30 12735 H 1224.41 0.491273 5.98086 0
M  V30 12736 H 1225.48 1.12414 4.7169 0
M  V30 12737 N 1226.82 -1.56058 0.219941 0
M  V30 12738 C 1227.75 -2.2321 -0.685547 0
M  V30 12739 C 1228.73 -1.20328 -1.20229 0
M  V30 12740 O 1229.92 -1.48909 -1.24659 0
M  V30 12741 C 1227.05 -2.91076 -1.89452 0
M  V30 12742 C 1226 -4.00415 -1.51169 0
M  V30 12743 C 1225.33 -4.55569 -2.79931 0
M  V30 12744 C 1226.63 -5.17549 -0.702896 0
M  V30 12745 H 1228.32 -2.99136 -0.125671 0
M  V30 12746 H 1225.87 -1.43879 -0.0590043 0
M  V30 12747 H 1227.82 -3.36744 -2.53341 0
M  V30 12748 H 1226.55 -2.12594 -2.47934 0
M  V30 12749 H 1225.21 -3.55475 -0.896275 0
M  V30 12750 H 1224.85 -3.73819 -3.36553 0
M  V30 12751 H 1224.55 -5.29361 -2.55049 0
M  V30 12752 H 1226.08 -5.03955 -3.44764 0
M  V30 12753 H 1227.49 -5.59608 -1.24544 0
M  V30 12754 H 1225.89 -5.97563 -0.551234 0
M  V30 12755 H 1226.96 -4.84027 0.29083 0
M  V30 12756 N 1228.3 0.053464 -1.57509 0
M  V30 12757 C 1229.53 0.761533 -1.92375 0
M  V30 12758 C 1229.94 1.70179 -0.817585 0
M  V30 12759 O 1229.3 1.81313 0.207843 0
M  V30 12760 C 1229.35 1.53954 -3.27078 0
M  V30 12761 O 1229.07 0.637054 -4.33443 0
M  V30 12762 C 1230.57 2.34697 -3.76075 0
M  V30 12763 H 1227.79 0.215483 -0.635459 0
M  V30 12764 H 1230.34 0.0182624 -2.04492 0
M  V30 12765 H 1228.49 2.23492 -3.16434 0
M  V30 12766 H 1228.91 1.18006 -5.11053 0
M  V30 12767 H 1230.38 2.84716 -4.72906 0
M  V30 12768 H 1230.86 3.15041 -3.06016 0
M  V30 12769 H 1231.46 1.70281 -3.89724 0
M  V30 12770 N 1229.78 1.54207 0.325255 0
M  V30 12771 C 1231.01 1.76293 1.08298 0
M  V30 12772 C 1231.42 0.510722 1.81761 0
M  V30 12773 O 1230.78 -0.5185 1.7498 0
M  V30 12774 C 1230.83 2.95498 2.08238 0
M  V30 12775 O 1230.55 4.15877 1.37759 0
M  V30 12776 C 1232.05 3.29781 2.96242 0
M  V30 12777 H 1229.27 0.588576 0.322209 0
M  V30 12778 H 1231.82 2.0109 0.371896 0
M  V30 12779 H 1229.97 2.72979 2.74884 0
M  V30 12780 H 1230.39 4.82918 2.04672 0
M  V30 12781 H 1231.86 4.16495 3.62265 0
M  V30 12782 H 1232.34 2.46874 3.63249 0
M  V30 12783 H 1232.94 3.54372 2.3516 0
M  V30 12784 N 1231.26 -0.58723 1.46251 0
M  V30 12785 C 1232.5 -1.3476 1.51551 0
M  V30 12786 C 1232.84 -1.93499 0.16483 0
M  V30 12787 O 1232.11 -1.7622 -0.823207 0
M  V30 12788 C 1232.39 -2.48033 2.61059 0
M  V30 12789 C 1232.25 -1.94358 4.05642 0
M  V30 12790 C 1233.57 -3.50096 2.66685 0
M  V30 12791 H 1230.69 -0.48863 0.551733 0
M  V30 12792 H 1233.33 -0.660097 1.78165 0
M  V30 12793 H 1231.48 -3.06679 2.38496 0
M  V30 12794 H 1233.15 -1.40204 4.39478 0
M  V30 12795 H 1231.39 -1.25217 4.15335 0
M  V30 12796 H 1232.06 -2.76105 4.77986 0
M  V30 12797 H 1234.54 -3.01324 2.86955 0
M  V30 12798 H 1233.42 -4.26817 3.45135 0
M  V30 12799 H 1233.68 -4.07032 1.7256 0
M  V30 12800 N 1232.74 -1.33881 -0.831482 0
M  V30 12801 C 1233.98 -1.25507 -1.58406 0
M  V30 12802 C 1234.3 0.177137 -1.94194 0
M  V30 12803 O 1233.57 1.10769 -1.61576 0
M  V30 12804 H 1232.15 -0.461551 -0.587349 0
M  V30 12805 H 1234.82 -1.6769 -0.99328 0
M  V30 12806 H 1233.91 -1.85391 -2.51071 0
M  V30 12807 N 1234.21 1.05064 -1.1747 0
M  V30 12808 C 1235.15 2.12334 -0.836028 0
M  V30 12809 C 1236.12 1.61393 0.197733 0
M  V30 12810 O 1237.31 1.88334 0.0789748 0
M  V30 12811 C 1234.44 3.37796 -0.24734 0
M  V30 12812 C 1233.48 4.07565 -1.25669 0
M  V30 12813 S 1234.31 4.55941 -2.80853 0
M  V30 12814 C 1235.47 5.84648 -2.23468 0
M  V30 12815 H 1235.7 2.40735 -1.74453 0
M  V30 12816 H 1233.24 1.17684 -0.999495 0
M  V30 12817 H 1235.19 4.1041 0.0858241 0
M  V30 12818 H 1233.86 3.07529 0.639124 0
M  V30 12819 H 1233.05 4.97715 -0.793465 0
M  V30 12820 H 1232.65 3.41022 -1.53557 0
M  V30 12821 H 1234.94 6.58067 -1.61104 0
M  V30 12822 H 1235.89 6.35719 -3.11877 0
M  V30 12823 H 1236.29 5.39272 -1.6687 0
M  V30 12824 N 1235.69 0.975146 1.23809 0
M  V30 12825 C 1236.64 0.503396 2.27087 0
M  V30 12826 C 1237.63 -0.43689 1.63669 0
M  V30 12827 O 1238.84 -0.31136 1.77287 0
M  V30 12828 H 1235.21 0.144346 0.738017 0
M  V30 12829 H 1237.19 1.38627 2.64244 0
M  V30 12830 C 1235.93 -0.183682 3.47214 0
M  V30 12831 H 1235.26 0.530753 3.96261 0
M  V30 12832 H 1236.7 -0.477479 4.21303 0
M  V30 12833 C 1235.16 -1.41317 3.05829 0
M  V30 12834 O 1235.69 -2.50975 3.13647 0
M  V30 12835 N 1233.89 -1.28191 2.60798 0
M  V30 12836 H 1233.44 -0.38967 2.54636 0
M  V30 12837 H 1233.4 -2.10565 2.33473 0
M  V30 12838 N 1237.17 -1.38817 0.746158 0
M  V30 12839 C 1238.42 -1.99885 0.298425 0
M  V30 12840 C 1238.74 -1.59518 -1.12156 0
M  V30 12841 O 1238.01 -0.848568 -1.76568 0
M  V30 12842 H 1236.59 -0.739247 0.107347 0
M  V30 12843 H 1239.25 -1.69696 0.9586 0
M  V30 12844 H 1238.35 -3.10067 0.355656 0
M  V30 12845 N 1238.65 -0.49465 -1.49636 0
M  V30 12846 C 1239.59 0.287153 -2.29007 0
M  V30 12847 C 1240.56 0.966099 -1.35114 0
M  V30 12848 O 1241.75 0.973991 -1.64067 0
M  V30 12849 C 1238.89 1.34941 -3.17624 0
M  V30 12850 C 1238 0.682879 -4.26569 0
M  V30 12851 C 1237.14 1.72503 -5.0241 0
M  V30 12852 C 1236.18 1.04003 -6.032 0
M  V30 12853 N 1235.31 2.0261 -6.7223 0
M  V30 12854 H 1240.15 -0.395941 -2.95358 0
M  V30 12855 H 1237.69 -0.207103 -1.45635 0
M  V30 12856 H 1239.65 1.9772 -3.67372 0
M  V30 12857 H 1238.28 2.00135 -2.5327 0
M  V30 12858 H 1237.33 -0.0580477 -3.80356 0
M  V30 12859 H 1238.64 0.143334 -4.98594 0
M  V30 12860 H 1237.8 2.42804 -5.55996 0
M  V30 12861 H 1236.54 2.29843 -4.30144 0
M  V30 12862 H 1235.54 0.322765 -5.48852 0
M  V30 12863 H 1236.77 0.473219 -6.77449 0
M  V30 12864 H 1234.71 2.58922 -6.0274 0
M  V30 12865 H 1234.63 1.53704 -7.4021 0
M  V30 12866 H 1235.9 2.72218 -7.30423 0
M  V30 12867 N 1240.13 1.55939 -0.228214 0
M  V30 12868 C 1241.4 1.90329 0.451033 0
M  V30 12869 C 1241.78 1.14646 1.77255 0
M  V30 12870 O 1241.13 0.257912 2.2704 0
M  V30 12871 C 1241.34 3.43129 0.637456 0
M  V30 12872 C 1242.69 4.14022 0.94186 0
M  V30 12873 O 1243.71 3.48764 0.724002 0
M  V30 12874 O 1242.57 5.29418 1.35568 0
M  V30 12875 H 1239.67 0.791591 0.2394 0
M  V30 12876 H 1242.21 1.67524 -0.270893 0
M  V30 12877 H 1240.98 3.90191 -0.294435 0
M  V30 12878 H 1240.61 3.71735 1.41062 0
M  V30 12879 N 1241.6 -0.0451101 1.57535 0
M  V30 12880 C 1242.55 -1.05066 2.05499 0
M  V30 12881 C 1243.52 -1.36884 0.940843 0
M  V30 12882 O 1244.71 -1.47497 1.21034 0
M  V30 12883 C 1241.85 -2.35139 2.52594 0
M  V30 12884 C 1240.96 -2.0962 3.77735 0
M  V30 12885 C 1240.09 -3.33447 4.13505 0
M  V30 12886 C 1239.13 -3.03411 5.31609 0
M  V30 12887 N 1238.27 -4.19644 5.62888 0
M  V30 12888 H 1243.11 -0.63469 2.91163 0
M  V30 12889 H 1240.65 -0.30179 1.43971 0
M  V30 12890 H 1242.61 -3.11118 2.7796 0
M  V30 12891 H 1241.24 -2.74489 1.69869 0
M  V30 12892 H 1240.29 -1.24211 3.59549 0
M  V30 12893 H 1241.6 -1.83452 4.63839 0
M  V30 12894 H 1240.75 -4.17805 4.39914 0
M  V30 12895 H 1239.49 -3.62715 3.2602 0
M  V30 12896 H 1238.5 -2.17453 5.04969 0
M  V30 12897 H 1239.72 -2.75438 6.20734 0
M  V30 12898 H 1237.67 -4.48893 4.78363 0
M  V30 12899 H 1237.59 -3.96843 6.43468 0
M  V30 12900 H 1238.85 -5.04921 5.93865 0
M  V30 12901 N 1243.08 -1.54377 -0.317073 0
M  V30 12902 C 1244.36 -1.63551 -1.07287 0
M  V30 12903 C 1244.74 -0.473499 -2.05721 0
M  V30 12904 O 1244.09 0.531545 -2.22232 0
M  V30 12905 C 1244.3 -3.00842 -1.76904 0
M  V30 12906 C 1245.65 -3.57111 -2.29689 0
M  V30 12907 O 1246.67 -3.0319 -1.86961 0
M  V30 12908 O 1245.53 -4.51486 -3.07932 0
M  V30 12909 H 1242.62 -0.662557 -0.494922 0
M  V30 12910 H 1245.17 -1.66723 -0.316444 0
M  V30 12911 H 1243.94 -3.76854 -1.05341 0
M  V30 12912 H 1243.56 -3.01377 -2.59341 0
M  V30 12913 N 1244.56 0.579466 -1.4656 0
M  V30 12914 C 1245.81 1.33379 -1.51304 0
M  V30 12915 C 1246.12 1.94855 -0.170507 0
M  V30 12916 O 1247.33 2.71331 -0.0957704 0
M  V30 12917 C 1245.78 2.41748 -2.66619 0
M  V30 12918 C 1245.39 1.8656 -4.07307 0
M  V30 12919 C 1247.14 3.18502 -2.80636 0
M  V30 12920 C 1245.04 2.92578 -5.13957 0
M  V30 12921 H 1243.97 0.501422 -0.56311 0
M  V30 12922 H 1246.62 0.618025 -1.72779 0
M  V30 12923 H 1245.01 3.16138 -2.3848 0
M  V30 12924 H 1246.18 1.18692 -4.45252 0
M  V30 12925 H 1244.5 1.22464 -3.97984 0
M  V30 12926 H 1247.09 3.9763 -3.57483 0
M  V30 12927 H 1247.44 3.71295 -1.8827 0
M  V30 12928 H 1247.97 2.51219 -3.08437 0
M  V30 12929 H 1244.71 2.44668 -6.08126 0
M  V30 12930 H 1244.23 3.58926 -4.80554 0
M  V30 12931 H 1245.91 3.56471 -5.39942 0
M  V30 12932 N 1246.04 1.3432 0.824371 0
M  V30 12933 C 1247.45 1.23855 1.39703 0
M  V30 12934 C 1247.8 -0.136566 1.95724 0
M  V30 12935 O 1246.93 -1.03683 1.89944 0
M  V30 12936 C 1247.52 2.24249 2.53965 0
M  V30 12937 C 1246.08 2.17578 3.07143 0
M  V30 12938 C 1245.23 2.10933 1.80008 0
M  V30 12939 H 1248.18 1.45707 0.628891 0
M  V30 12940 H 1248.2 1.85864 3.32016 0
M  V30 12941 H 1247.71 3.24321 2.13161 0
M  V30 12942 H 1245.81 1.20858 3.52455 0
M  V30 12943 H 1245.92 3.08769 3.66331 0
M  V30 12944 H 1244.29 1.56631 2.00845 0
M  V30 12945 H 1245.07 3.12836 1.4138 0
M  V30 12946 N 1247.52 -1.0444 1.18026 0
M  V30 12947 C 1248.74 -1.81772 0.998684 0
M  V30 12948 C 1249.17 -1.82682 -0.448225 0
M  V30 12949 O 1248.52 -1.24136 -1.32136 0
M  V30 12950 C 1248.57 -3.2542 1.55352 0
M  V30 12951 O 1247.68 -4.05103 0.772351 0
M  V30 12952 H 1247.02 -0.561731 0.354054 0
M  V30 12953 H 1249.55 -1.31557 1.56697 0
M  V30 12954 H 1249.56 -3.76206 1.57903 0
M  V30 12955 H 1248.23 -3.24073 2.60672 0
M  V30 12956 H 1246.81 -3.63798 0.818852 0
M  V30 12957 N 1248.99 -0.981699 -1.2329 0
M  V30 12958 C 1250.24 -0.651302 -1.9174 0
M  V30 12959 C 1250.57 0.815318 -1.76587 0
M  V30 12960 O 1249.82 1.60377 -1.1215 0
M  V30 12961 C 1250.12 -0.989244 -3.43437 0
M  V30 12962 C 1249.79 -2.44629 -3.78771 0
M  V30 12963 C 1248.45 -2.84449 -3.88127 0
M  V30 12964 C 1250.8 -3.39123 -3.95784 0
M  V30 12965 C 1248.13 -4.17775 -4.11923 0
M  V30 12966 C 1250.48 -4.72095 -4.21081 0
M  V30 12967 C 1249.15 -5.11672 -4.28659 0
M  V30 12968 H 1248.42 -0.238328 -0.701627 0
M  V30 12969 H 1251.06 -1.2358 -1.46288 0
M  V30 12970 H 1249.37 -0.322677 -3.90469 0
M  V30 12971 H 1251.07 -0.711796 -3.94632 0
M  V30 12972 H 1247.66 -2.12759 -3.72064 0
M  V30 12973 H 1251.84 -3.09536 -3.87945 0
M  V30 12974 H 1247.1 -4.48043 -4.16013 0
M  V30 12975 H 1251.27 -5.45271 -4.33189 0
M  V30 12976 H 1248.9 -6.15003 -4.46851 0
M  V30 12977 N 1250.47 1.3842 -0.753509 0
M  V30 12978 C 1251.7 2.04403 -0.320449 0
M  V30 12979 C 1252.12 1.5683 1.05118 0
M  V30 12980 O 1251.47 0.741335 1.66765 0
M  V30 12981 C 1251.52 3.59954 -0.333937 0
M  V30 12982 O 1251.24 4.05782 -1.65144 0
M  V30 12983 C 1252.75 4.43156 0.112997 0
M  V30 12984 H 1249.97 0.656881 -0.136927 0
M  V30 12985 H 1252.51 1.77112 -1.02234 0
M  V30 12986 H 1250.66 3.86083 0.319215 0
M  V30 12987 H 1251.08 5.00213 -1.57757 0
M  V30 12988 H 1252.55 5.51975 0.0523995 0
M  V30 12989 H 1253.03 4.23581 1.16087 0
M  V30 12990 H 1253.64 4.22216 -0.511278 0
M  V30 12991 N 1251.95 0.502579 1.49372 0
M  V30 12992 C 1252.86 -0.279532 2.32929 0
M  V30 12993 C 1253.88 -0.965806 1.44735 0
M  V30 12994 O 1255.05 -0.946839 1.77755 0
M  V30 12995 C 1252.12 -1.32913 3.20211 0
M  V30 12996 C 1251.18 -0.656121 4.24256 0
M  V30 12997 C 1250.41 -1.65571 5.07368 0
M  V30 12998 O 1250.63 -2.88571 4.92019 0
M  V30 12999 O 1249.57 -1.21016 5.89609 0
M  V30 13000 H 1253.39 0.404427 3.00995 0
M  V30 13001 H 1250.98 0.263888 1.47051 0
M  V30 13002 H 1252.86 -1.93635 3.74277 0
M  V30 13003 H 1251.54 -1.99598 2.54837 0
M  V30 13004 H 1250.44 -0.00911489 3.74099 0
M  V30 13005 H 1251.78 -0.0316802 4.9219 0
M  V30 13006 N 1253.43 -1.55816 0.23648 0
M  V30 13007 C 1254.71 -1.90565 -0.440933 0
M  V30 13008 C 1255.09 -1.15585 -1.76645 0
M  V30 13009 O 1254.43 -0.269949 -2.269 0
M  V30 13010 C 1254.64 -3.43462 -0.61925 0
M  V30 13011 C 1255.99 -4.14516 -0.91989 0
M  V30 13012 O 1257.02 -3.49144 -0.705496 0
M  V30 13013 O 1255.87 -5.3013 -1.32759 0
M  V30 13014 H 1252.97 -0.79285 -0.235199 0
M  V30 13015 H 1255.51 -1.67378 0.279774 0
M  V30 13016 H 1254.29 -3.90029 0.315124 0
M  V30 13017 H 1253.91 -3.72478 -1.39089 0
M  V30 13018 N 1254.91 0.036755 -1.57557 0
M  V30 13019 C 1256.15 0.727665 -1.88546 0
M  V30 13020 C 1256.48 1.76304 -0.833179 0
M  V30 13021 O 1255.75 1.9544 0.13414 0
M  V30 13022 H 1254.33 0.271744 -0.695819 0
M  V30 13023 H 1256.99 0.00452915 -1.94899 0
M  V30 13024 H 1256.08 1.22205 -2.8718 0
M  V30 13025 N 1256.39 1.54543 0.308881 0
M  V30 13026 C 1257.35 1.84214 1.36374 0
M  V30 13027 C 1258.35 0.71463 1.44047 0
M  V30 13028 O 1259.54 0.98293 1.4382 0
M  V30 13029 C 1256.67 2.01535 2.74948 0
M  V30 13030 H 1257.86 2.78477 1.11314 0
M  V30 13031 H 1255.42 1.46485 0.545141 0
M  V30 13032 H 1256.15 1.09533 3.05242 0
M  V30 13033 H 1255.94 2.83595 2.7077 0
M  V30 13034 H 1257.43 2.25888 3.51233 0
M  V30 13035 N 1257.86 -0.571685 1.46866 0
M  V30 13036 C 1259.14 -1.33216 1.43223 0
M  V30 13037 C 1259.52 -2.1075 0.121495 0
M  V30 13038 O 1258.87 -2.10157 -0.897003 0
M  V30 13039 C 1259.08 -2.24888 2.66882 0
M  V30 13040 C 1260.43 -2.86369 3.13493 0
M  V30 13041 O 1261.45 -2.35197 2.67509 0
M  V30 13042 O 1260.31 -3.79342 3.93398 0
M  V30 13043 H 1257.4 -0.599106 0.570089 0
M  V30 13044 H 1259.95 -0.591788 1.59047 0
M  V30 13045 H 1258.72 -1.67099 3.53827 0
M  V30 13046 H 1258.34 -3.06246 2.53573 0
M  V30 13047 N 1259.34 -1.34755 -0.817236 0
M  V30 13048 C 1260.25 -1.28888 -1.96023 0
M  V30 13049 C 1261.27 -0.195582 -1.72897 0
M  V30 13050 O 1262.44 -0.423071 -1.96906 0
M  V30 13051 C 1259.51 -1.04985 -3.30423 0
M  V30 13052 C 1258.57 -2.23526 -3.66517 0
M  V30 13053 C 1257.8 -2.00753 -4.94504 0
M  V30 13054 O 1258.03 -0.968622 -5.62116 0
M  V30 13055 O 1256.96 -2.87848 -5.28608 0
M  V30 13056 H 1260.79 -2.25059 -2.03917 0
M  V30 13057 H 1258.37 -1.15019 -0.953467 0
M  V30 13058 H 1260.25 -0.934589 -4.10906 0
M  V30 13059 H 1258.93 -0.118582 -3.23483 0
M  V30 13060 H 1257.83 -2.40613 -2.86455 0
M  V30 13061 H 1259.17 -3.15062 -3.78149 0
M  V30 13062 N 1260.82 1.03812 -1.18578 0
M  V30 13063 C 1262.07 1.77056 -0.982718 0
M  V30 13064 C 1262.39 1.88294 0.487421 0
M  V30 13065 O 1261.65 1.38946 1.37813 0
M  V30 13066 C 1261.95 3.20297 -1.5857 0
M  V30 13067 C 1261.61 3.29088 -3.0824 0
M  V30 13068 C 1260.28 3.31194 -3.4909 0
M  V30 13069 C 1262.63 3.28981 -4.04253 0
M  V30 13070 C 1259.96 3.30839 -4.84523 0
M  V30 13071 C 1262.31 3.30166 -5.39605 0
M  V30 13072 C 1260.97 3.30565 -5.79899 0
M  V30 13073 H 1260.24 0.647895 -0.359602 0
M  V30 13074 H 1262.89 1.21911 -1.47682 0
M  V30 13075 H 1261.19 3.7846 -1.01367 0
M  V30 13076 H 1262.89 3.75619 -1.40398 0
M  V30 13077 H 1259.48 3.28171 -2.75685 0
M  V30 13078 H 1263.67 3.26543 -3.73743 0
M  V30 13079 H 1258.92 3.29467 -5.15035 0
M  V30 13080 H 1263.1 3.29033 -6.13767 0
M  V30 13081 H 1260.72 3.30044 -6.84818 0
M  V30 13082 N 1262.3 0.988223 1.22768 0
M  V30 13083 C 1263.53 0.679743 1.95415 0
M  V30 13084 C 1263.94 -0.754731 1.73059 0
M  V30 13085 O 1263.3 -1.50876 1.02678 0
M  V30 13086 C 1263.35 0.970344 3.48234 0
M  V30 13087 O 1263.07 2.34845 3.69837 0
M  V30 13088 C 1264.57 0.67891 4.3807 0
M  V30 13089 H 1261.79 0.251847 0.621944 0
M  V30 13090 H 1264.33 1.32173 1.56047 0
M  V30 13091 H 1262.49 0.374241 3.85588 0
M  V30 13092 H 1262.9 2.44412 4.64072 0
M  V30 13093 H 1264.38 0.932549 5.44066 0
M  V30 13094 H 1264.85 -0.387073 4.37491 0
M  V30 13095 H 1265.46 1.25585 4.06335 0
M  V30 13096 N 1263.78 -1.38018 0.760839 0
M  V30 13097 C 1264.71 -2.32995 0.153557 0
M  V30 13098 C 1265.69 -1.55234 -0.695448 0
M  V30 13099 O 1266.87 -1.8352 -0.635148 0
M  V30 13100 C 1264 -3.39437 -0.734811 0
M  V30 13101 C 1262.96 -4.27998 0.0120287 0
M  V30 13102 C 1262.28 -5.25359 -0.995067 0
M  V30 13103 C 1263.58 -5.08687 1.18468 0
M  V30 13104 H 1265.28 -2.8403 0.946956 0
M  V30 13105 H 1262.82 -1.36562 0.456816 0
M  V30 13106 H 1264.77 -4.0485 -1.16938 0
M  V30 13107 H 1263.5 -2.86901 -1.56061 0
M  V30 13108 H 1262.16 -3.64102 0.427254 0
M  V30 13109 H 1261.81 -4.69108 -1.81512 0
M  V30 13110 H 1261.51 -5.85469 -0.499969 0
M  V30 13111 H 1263.03 -5.93648 -1.4288 0
M  V30 13112 H 1264.44 -5.67299 0.8273 0
M  V30 13113 H 1262.84 -5.78068 1.61112 0
M  V30 13114 H 1263.91 -4.42 1.99409 0
M  V30 13115 N 1265.25 -0.510493 -1.49103 0
M  V30 13116 C 1266.5 0.0325393 -2.01674 0
M  V30 13117 C 1266.82 1.37162 -1.39448 0
M  V30 13118 O 1268.02 2.00189 -1.83402 0
M  V30 13119 C 1266.48 0.108433 -3.59737 0
M  V30 13120 C 1266.09 -1.22458 -4.30939 0
M  V30 13121 C 1267.83 0.601326 -4.20219 0
M  V30 13122 C 1265.74 -1.11033 -5.80884 0
M  V30 13123 H 1264.67 0.0159333 -0.753832 0
M  V30 13124 H 1267.32 -0.651344 -1.71551 0
M  V30 13125 H 1265.7 0.856974 -3.86616 0
M  V30 13126 H 1266.87 -1.98715 -4.15751 0
M  V30 13127 H 1265.19 -1.65166 -3.82242 0
M  V30 13128 H 1267.79 0.704462 -5.30039 0
M  V30 13129 H 1268.13 1.60247 -3.84222 0
M  V30 13130 H 1268.66 -0.0909561 -3.97696 0
M  V30 13131 H 1265.4 -2.08603 -6.21422 0
M  V30 13132 H 1264.92 -0.388798 -5.98539 0
M  V30 13133 H 1266.6 -0.792949 -6.42123 0
M  V30 13134 N 1266.73 1.55688 -0.24474 0
M  V30 13135 C 1268.14 1.84897 0.25882 0
M  V30 13136 C 1268.49 1.16653 1.57755 0
M  V30 13137 O 1267.62 0.444162 2.11793 0
M  V30 13138 C 1268.21 3.35434 0.476385 0
M  V30 13139 C 1266.77 3.64877 0.924213 0
M  V30 13140 C 1265.92 2.773 0.00021322 0
M  V30 13141 H 1268.87 1.51662 -0.467358 0
M  V30 13142 H 1268.89 3.56896 1.31929 0
M  V30 13143 H 1268.4 3.85076 -0.483567 0
M  V30 13144 H 1266.5 3.20711 1.89671 0
M  V30 13145 H 1266.62 4.72665 0.78257 0
M  V30 13146 H 1264.98 2.49517 0.511194 0
M  V30 13147 H 1265.76 3.29747 -0.955072 0
M  V30 13148 N 1268.21 -0.0283989 1.57574 0
M  V30 13149 C 1269.49 -0.754527 1.80461 0
M  V30 13150 C 1269.87 -1.93539 0.842966 0
M  V30 13151 O 1269.21 -2.28212 -0.114714 0
M  V30 13152 C 1269.42 -1.18694 3.28196 0
M  V30 13153 C 1270.77 -1.60257 3.93196 0
M  V30 13154 O 1271.8 -1.2815 3.32349 0
M  V30 13155 O 1270.66 -2.19853 5.00327 0
M  V30 13156 H 1267.75 -0.364936 0.742126 0
M  V30 13157 H 1270.3 -0.00512589 1.69699 0
M  V30 13158 H 1269.07 -0.34398 3.89785 0
M  V30 13159 H 1268.69 -1.99633 3.43849 0
M  V30 13160 N 1269.69 -1.54705 -0.300681 0
M  V30 13161 C 1270.91 -1.78318 -1.05913 0
M  V30 13162 C 1271.34 -0.541177 -1.80147 0
M  V30 13163 O 1270.7 0.508291 -1.74029 0
M  V30 13164 C 1270.74 -2.99041 -2.01511 0
M  V30 13165 O 1269.85 -2.72188 -3.09818 0
M  V30 13166 H 1269.19 -0.590197 -0.304242 0
M  V30 13167 H 1271.72 -2.01789 -0.338006 0
M  V30 13168 H 1271.73 -3.2702 -2.43971 0
M  V30 13169 H 1270.4 -3.89098 -1.46886 0
M  V30 13170 H 1268.98 -2.55227 -2.71871 0
M  V30 13171 N 1271.17 0.563888 -1.47167 0
M  V30 13172 C 1272.39 1.34693 -1.57052 0
M  V30 13173 C 1272.81 1.87534 -0.218308 0
M  V30 13174 O 1272.17 1.64639 0.787416 0
M  V30 13175 C 1272.22 2.52148 -2.59044 0
M  V30 13176 O 1271.94 2.01492 -3.89015 0
M  V30 13177 C 1273.44 3.4445 -2.7905 0
M  V30 13178 H 1270.66 0.410822 -0.530534 0
M  V30 13179 H 1273.2 0.683731 -1.92731 0
M  V30 13180 H 1271.36 3.14419 -2.26317 0
M  V30 13181 H 1271.77 2.78122 -4.44689 0
M  V30 13182 H 1273.25 4.23297 -3.54293 0
M  V30 13183 H 1273.72 3.97575 -1.86631 0
M  V30 13184 H 1274.33 2.88 -3.12948 0
M  V30 13185 N 1272.64 1.35187 0.810078 0
M  V30 13186 C 1273.58 1.23673 1.92971 0
M  V30 13187 C 1274.59 0.160819 1.62004 0
M  V30 13188 O 1275.78 0.413793 1.73638 0
M  V30 13189 C 1272.88 0.880887 3.27252 0
M  V30 13190 C 1272.05 2.05444 3.86149 0
M  V30 13191 C 1271.11 1.67494 4.98831 0
M  V30 13192 O 1270.14 2.39322 5.16443 0
M  V30 13193 N 1271.34 0.596539 5.77427 0
M  V30 13194 H 1274.1 2.20133 2.03376 0
M  V30 13195 H 1271.66 1.2831 0.987322 0
M  V30 13196 H 1273.66 0.608556 4.00098 0
M  V30 13197 H 1272.23 0.00607926 3.12599 0
M  V30 13198 H 1271.45 2.49077 3.05539 0
M  V30 13199 H 1272.73 2.83898 4.22231 0
M  V30 13200 H 1272.13 -0.000312591 5.657 0
M  V30 13201 H 1270.69 0.383979 6.50668 0
M  V30 13202 N 1274.12 -1.03182 1.19127 0
M  V30 13203 C 1275.07 -2.11394 0.926339 0
M  V30 13204 C 1276.04 -1.65528 -0.137703 0
M  V30 13205 O 1277.22 -1.908 0.00381804 0
M  V30 13206 C 1274.36 -3.41913 0.467894 0
M  V30 13207 C 1273.48 -4.01343 1.59837 0
M  V30 13208 C 1272.61 -5.1986 1.09175 0
M  V30 13209 C 1271.65 -5.71339 2.19632 0
M  V30 13210 N 1270.79 -6.81133 1.703 0
M  V30 13211 H 1275.63 -2.33393 1.85288 0
M  V30 13212 H 1273.17 -1.14473 0.923811 0
M  V30 13213 H 1275.12 -4.16796 0.183513 0
M  V30 13214 H 1273.75 -3.20034 -0.421656 0
M  V30 13215 H 1272.81 -3.23702 1.99803 0
M  V30 13216 H 1274.12 -4.35568 2.43068 0
M  V30 13217 H 1273.27 -6.0189 0.762427 0
M  V30 13218 H 1272.01 -4.87161 0.22914 0
M  V30 13219 H 1271.02 -4.87923 2.53399 0
M  V30 13220 H 1272.24 -6.06078 3.06344 0
M  V30 13221 H 1270.19 -6.50293 0.863415 0
M  V30 13222 H 1270.1 -7.1447 2.47122 0
M  V30 13223 H 1271.37 -7.66766 1.40321 0
M  V30 13224 N 1275.6 -0.99472 -1.22242 0
M  V30 13225 C 1276.53 -0.504783 -2.23572 0
M  V30 13226 C 1277.55 0.401105 -1.57781 0
M  V30 13227 O 1278.73 0.202948 -1.77343 0
M  V30 13228 C 1275.83 0.287524 -3.37678 0
M  V30 13229 C 1275.01 -0.614941 -4.33056 0
M  V30 13230 C 1274.07 0.125974 -5.26049 0
M  V30 13231 O 1273.09 -0.489234 -5.67094 0
M  V30 13232 N 1274.29 1.40772 -5.63173 0
M  V30 13233 H 1277.06 -1.37612 -2.66238 0
M  V30 13234 H 1274.62 -0.86965 -1.3656 0
M  V30 13235 H 1276.61 0.791884 -3.96877 0
M  V30 13236 H 1275.18 1.05998 -2.9408 0
M  V30 13237 H 1274.4 -1.29994 -3.72149 0
M  V30 13238 H 1275.69 -1.22947 -4.93722 0
M  V30 13239 H 1275.09 1.92884 -5.31801 0
M  V30 13240 H 1273.65 1.85723 -6.2478 0
M  V30 13241 N 1277.08 1.37613 -0.768148 0
M  V30 13242 C 1278.01 2.3291 -0.165911 0
M  V30 13243 C 1278.99 1.556 0.687205 0
M  V30 13244 O 1280.17 1.83854 0.625407 0
M  V30 13245 C 1277.3 3.39822 0.7168 0
M  V30 13246 C 1276.26 4.27986 -0.0347264 0
M  V30 13247 C 1275.58 5.2588 0.967192 0
M  V30 13248 C 1276.88 5.08052 -1.21164 0
M  V30 13249 H 1278.58 2.83524 -0.962006 0
M  V30 13250 H 1276.12 1.36318 -0.464051 0
M  V30 13251 H 1278.08 4.05464 1.14789 0
M  V30 13252 H 1276.8 2.87725 1.54538 0
M  V30 13253 H 1275.46 3.6387 -0.446557 0
M  V30 13254 H 1275.11 4.70064 1.79022 0
M  V30 13255 H 1274.81 5.85726 0.468913 0
M  V30 13256 H 1276.33 5.94397 1.3973 0
M  V30 13257 H 1277.75 5.66853 -0.857373 0
M  V30 13258 H 1276.14 5.77206 -1.64176 0
M  V30 13259 H 1277.21 4.40936 -2.0175 0
M  V30 13260 N 1278.56 0.518393 1.4883 0
M  V30 13261 C 1279.47 -0.254811 2.33212 0
M  V30 13262 C 1280.48 -0.950401 1.45751 0
M  V30 13263 O 1281.66 -0.927932 1.78749 0
M  V30 13264 C 1278.72 -1.29509 3.21603 0
M  V30 13265 C 1277.78 -0.611086 4.24928 0
M  V30 13266 C 1277.02 -1.6018 5.09095 0
M  V30 13267 O 1277.24 -2.83336 4.95052 0
M  V30 13268 O 1276.17 -1.14756 5.90859 0
M  V30 13269 H 1280 0.436329 3.00549 0
M  V30 13270 H 1277.59 0.27947 1.46763 0
M  V30 13271 H 1279.47 -1.89654 3.7631 0
M  V30 13272 H 1278.14 -1.96884 2.5694 0
M  V30 13273 H 1277.05 0.0305638 3.74088 0
M  V30 13274 H 1278.38 0.0205249 4.92196 0
M  V30 13275 N 1280.03 -1.55556 0.252993 0
M  V30 13276 C 1280.94 -2.25283 -0.654581 0
M  V30 13277 C 1281.96 -1.27103 -1.18831 0
M  V30 13278 O 1283.14 -1.59993 -1.22329 0
M  V30 13279 C 1280.2 -2.94336 -1.83214 0
M  V30 13280 C 1279.26 -4.0794 -1.33728 0
M  V30 13281 C 1278.5 -4.73691 -2.45871 0
M  V30 13282 O 1278.72 -4.38545 -3.64738 0
M  V30 13283 O 1277.65 -5.62083 -2.15283 0
M  V30 13284 H 1281.48 -3.03565 -0.0904091 0
M  V30 13285 H 1279.06 -1.49385 0.0212535 0
M  V30 13286 H 1280.95 -3.37808 -2.5192 0
M  V30 13287 H 1279.62 -2.18989 -2.38381 0
M  V30 13288 H 1278.53 -3.68971 -0.617323 0
M  V30 13289 H 1279.86 -4.85124 -0.831617 0
M  V30 13290 N 1281.51 0.0200419 -1.57587 0
M  V30 13291 C 1282.76 0.710078 -1.89962 0
M  V30 13292 C 1283.09 1.74521 -0.851829 0
M  V30 13293 O 1282.37 1.94052 0.132005 0
M  V30 13294 C 1282.65 1.37145 -3.32961 0
M  V30 13295 C 1282.5 0.349221 -4.48442 0
M  V30 13296 C 1283.82 2.30304 -3.75031 0
M  V30 13297 H 1280.94 0.25667 -0.690862 0
M  V30 13298 H 1283.58 -0.0271362 -1.89981 0
M  V30 13299 H 1281.73 1.99981 -3.33076 0
M  V30 13300 H 1283.4 -0.277916 -4.60462 0
M  V30 13301 H 1281.65 -0.330594 -4.32538 0
M  V30 13302 H 1282.32 0.850636 -5.45406 0
M  V30 13303 H 1284.79 1.77503 -3.7634 0
M  V30 13304 H 1283.67 2.73555 -4.75877 0
M  V30 13305 H 1283.93 3.17364 -3.07786 0
M  V30 13306 N 1282.99 1.54862 0.292472 0
M  V30 13307 C 1284.22 1.7855 1.04534 0
M  V30 13308 C 1284.63 0.549161 1.80637 0
M  V30 13309 O 1283.99 -0.481268 1.7604 0
M  V30 13310 C 1284.04 2.99849 2.01923 0
M  V30 13311 O 1283.76 4.18706 1.28907 0
M  V30 13312 C 1285.26 3.35991 2.8918 0
M  V30 13313 H 1282.48 0.595279 0.309652 0
M  V30 13314 H 1285.03 2.01834 0.329159 0
M  V30 13315 H 1283.18 2.78749 2.69032 0
M  V30 13316 H 1283.6 4.87151 1.94383 0
M  V30 13317 H 1285.07 4.24085 3.53349 0
M  V30 13318 H 1285.55 2.54524 3.57931 0
M  V30 13319 H 1286.15 3.59281 2.27591 0
M  V30 13320 N 1284.47 -0.556076 1.47464 0
M  V30 13321 C 1285.75 -1.31689 1.44628 0
M  V30 13322 C 1286.13 -2.10609 0.143841 0
M  V30 13323 O 1285.47 -2.11097 -0.874662 0
M  V30 13324 C 1285.68 -2.22045 2.69253 0
M  V30 13325 C 1287.03 -2.83028 3.16513 0
M  V30 13326 O 1288.06 -2.32346 2.69988 0
M  V30 13327 O 1286.91 -3.75148 3.97399 0
M  V30 13328 H 1284.01 -0.593026 0.576411 0
M  V30 13329 H 1286.55 -0.574885 1.59666 0
M  V30 13330 H 1285.33 -1.63337 3.5558 0
M  V30 13331 H 1284.95 -3.03539 2.56807 0
M  V30 13332 N 1285.95 -1.35615 -0.802897 0
M  V30 13333 C 1286.86 -1.3096 -1.94645 0
M  V30 13334 C 1287.87 -0.213909 -1.7268 0
M  V30 13335 O 1289.05 -0.443932 -1.96446 0
M  V30 13336 C 1286.11 -1.08483 -3.2929 0
M  V30 13337 C 1285.18 -2.27401 -3.64126 0
M  V30 13338 C 1284.41 -2.05987 -4.92347 0
M  V30 13339 O 1284.63 -1.02819 -5.61057 0
M  V30 13340 O 1283.57 -2.93439 -5.25526 0
M  V30 13341 H 1287.39 -2.27209 -2.01519 0
M  V30 13342 H 1284.98 -1.16024 -0.941214 0
M  V30 13343 H 1286.86 -0.978118 -4.09891 0
M  V30 13344 H 1285.53 -0.152885 -3.23339 0
M  V30 13345 H 1284.44 -2.43638 -2.83886 0
M  V30 13346 H 1285.77 -3.19055 -3.74786 0
M  V30 13347 N 1287.43 1.02549 -1.19673 0
M  V30 13348 C 1288.7 1.73106 -0.9107 0
M  V30 13349 C 1289.08 2.02897 0.582769 0
M  V30 13350 O 1288.43 1.68633 1.54192 0
M  V30 13351 C 1288.64 3.00535 -1.77425 0
M  V30 13352 C 1289.99 3.73976 -2.01065 0
M  V30 13353 O 1291.01 3.1047 -1.74605 0
M  V30 13354 O 1289.87 4.88153 -2.457 0
M  V30 13355 H 1286.97 0.754006 -0.339711 0
M  V30 13356 H 1289.51 1.08477 -1.30502 0
M  V30 13357 H 1288.28 2.74773 -2.78595 0
M  V30 13358 H 1287.91 3.72904 -1.37943 0
M  V30 13359 N 1288.9 1.00119 1.21713 0
M  V30 13360 C 1290.15 0.67713 1.89994 0
M  V30 13361 C 1290.47 -0.795149 1.78709 0
M  V30 13362 O 1291.67 -1.23113 2.41982 0
M  V30 13363 C 1290.13 1.16065 3.40671 0
M  V30 13364 C 1289.74 2.65874 3.60576 0
M  V30 13365 C 1291.48 0.911302 4.14603 0
M  V30 13366 C 1289.39 3.07785 5.04997 0
M  V30 13367 H 1288.32 0.249572 0.711498 0
M  V30 13368 H 1290.97 1.21185 1.37792 0
M  V30 13369 H 1289.35 0.554005 3.92106 0
M  V30 13370 H 1290.52 3.31954 3.19598 0
M  V30 13371 H 1288.84 2.88781 2.99991 0
M  V30 13372 H 1291.44 1.20004 5.2106 0
M  V30 13373 H 1291.78 -0.152495 4.16021 0
M  V30 13374 H 1292.31 1.48055 3.69222 0
M  V30 13375 H 1289.05 4.13376 5.08724 0
M  V30 13376 H 1288.57 2.46414 5.46846 0
M  V30 13377 H 1290.25 2.99552 5.73479 0
M  V30 13378 N 1290.38 -1.37203 0.775435 0
M  V30 13379 C 1291.34 -2.28566 0.170406 0
M  V30 13380 C 1292.34 -1.48195 -0.624085 0
M  V30 13381 O 1293.53 -1.68364 -0.447132 0
M  V30 13382 C 1290.67 -3.32186 -0.765829 0
M  V30 13383 H 1291.86 -2.8358 0.975824 0
M  V30 13384 H 1289.41 -1.46531 0.543895 0
M  V30 13385 H 1290.15 -2.82303 -1.59611 0
M  V30 13386 H 1289.93 -3.91598 -0.198251 0
M  V30 13387 H 1291.42 -4.0045 -1.18446 0
M  V30 13388 N 1291.86 -0.526279 -1.48553 0
M  V30 13389 C 1292.82 0.227739 -2.28066 0
M  V30 13390 C 1293.82 0.871146 -1.35158 0
M  V30 13391 O 1295.01 0.731769 -1.58085 0
M  V30 13392 C 1292.14 1.32918 -3.1392 0
M  V30 13393 H 1293.34 -0.470313 -2.96189 0
M  V30 13394 H 1290.89 -0.282089 -1.53733 0
M  V30 13395 H 1291.63 2.0606 -2.50419 0
M  V30 13396 H 1291.41 0.872991 -3.82258 0
M  V30 13397 H 1292.9 1.85964 -3.73908 0
M  V30 13398 N 1293.34 1.5542 -0.261239 0
M  V30 13399 C 1294.29 2.18644 0.646442 0
M  V30 13400 C 1295.27 1.14672 1.12868 0
M  V30 13401 O 1296.46 1.40534 1.07606 0
M  V30 13402 C 1293.59 2.90045 1.83655 0
M  V30 13403 C 1292.68 4.01289 1.37214 0
M  V30 13404 N 1293.07 5.01949 0.622927 0
M  V30 13405 C 1291.37 4.14107 1.65625 0
M  V30 13406 C 1292.07 5.80454 0.380569 0
M  V30 13407 N 1291.04 5.35253 0.94897 0
M  V30 13408 H 1294.85 2.93826 0.0660348 0
M  V30 13409 H 1292.36 1.62273 -0.0641794 0
M  V30 13410 H 1294.36 3.33778 2.49796 0
M  V30 13411 H 1293.02 2.16369 2.42104 0
M  V30 13412 H 1294.03 5.17187 0.271619 0
M  V30 13413 H 1290.71 3.51613 2.2511 0
M  V30 13414 H 1292.1 6.71545 -0.218528 0
M  V30 13415 N 1294.82 -0.0116844 1.57596 0
M  V30 13416 C 1296.06 -0.697577 1.89679 0
M  V30 13417 C 1296.38 -1.74956 0.861122 0
M  V30 13418 O 1295.65 -1.95629 -0.103031 0
M  V30 13419 H 1294.23 -0.26064 0.700054 0
M  V30 13420 H 1296.9 0.0264782 1.94882 0
M  V30 13421 H 1295.99 -1.17621 2.89088 0
M  V30 13422 N 1296.29 -1.55015 -0.284256 0
M  V30 13423 C 1297.24 -1.87122 -1.35107 0
M  V30 13424 C 1298.21 -0.721638 -1.49605 0
M  V30 13425 O 1299.4 -0.971855 -1.64194 0
M  V30 13426 C 1296.54 -2.1388 -2.70831 0
M  V30 13427 C 1295.65 -3.41447 -2.64647 0
M  V30 13428 C 1294.78 -3.57961 -3.92476 0
M  V30 13429 C 1293.82 -4.79261 -3.80757 0
M  V30 13430 N 1292.96 -4.92492 -5.00395 0
M  V30 13431 H 1297.8 -2.78117 -1.07027 0
M  V30 13432 H 1295.34 -1.37704 -0.517311 0
M  V30 13433 H 1297.29 -2.27391 -3.49784 0
M  V30 13434 H 1295.92 -1.26132 -2.97137 0
M  V30 13435 H 1294.98 -3.36467 -1.77466 0
M  V30 13436 H 1296.29 -4.3053 -2.51884 0
M  V30 13437 H 1295.44 -3.71229 -4.79868 0
M  V30 13438 H 1294.18 -2.67042 -4.08093 0
M  V30 13439 H 1293.19 -4.66008 -2.91747 0
M  V30 13440 H 1294.41 -5.71604 -3.66669 0
M  V30 13441 H 1292.36 -4.04501 -5.16445 0
M  V30 13442 H 1292.27 -5.75603 -4.9012 0
M  V30 13443 H 1293.54 -5.10134 -5.89392 0
M  V30 13444 N 1297.77 0.548248 -1.47757 0
M  V30 13445 C 1299.02 1.30501 -1.54841 0
M  V30 13446 C 1299.35 1.93314 -0.214476 0
M  V30 13447 O 1298.6 1.7889 0.793526 0
M  V30 13448 C 1298.9 2.42911 -2.62162 0
M  V30 13449 C 1298.57 1.97871 -4.05164 0
M  V30 13450 C 1297.23 1.85304 -4.4409 0
M  V30 13451 C 1299.58 1.63606 -4.94856 0
M  V30 13452 C 1296.91 1.36781 -5.70533 0
M  V30 13453 C 1299.26 1.16552 -6.2177 0
M  V30 13454 C 1297.92 1.02588 -6.5957 0
M  V30 13455 H 1297.19 0.477536 -0.566604 0
M  V30 13456 H 1299.84 0.613837 -1.81395 0
M  V30 13457 H 1298.15 3.17622 -2.29398 0
M  V30 13458 H 1299.84 3.01078 -2.64864 0
M  V30 13459 H 1296.43 2.08597 -3.74413 0
M  V30 13460 H 1300.62 1.72184 -4.65474 0
M  V30 13461 H 1295.87 1.24641 -5.9856 0
M  V30 13462 H 1300.05 0.891041 -6.90676 0
M  V30 13463 H 1297.67 0.647675 -7.57436 0
M  V30 13464 N 1299.25 1.36039 0.795694 0
M  V30 13465 C 1300.48 1.33059 1.58439 0
M  V30 13466 C 1300.89 -0.0895496 1.88588 0
M  V30 13467 O 1300.25 -1.04466 1.49643 0
M  V30 13468 C 1300.3 2.14594 2.90915 0
M  V30 13469 O 1300.02 3.51072 2.62069 0
M  V30 13470 C 1301.52 2.19324 3.85242 0
M  V30 13471 H 1298.74 0.456668 0.491625 0
M  V30 13472 H 1301.29 1.79048 0.988035 0
M  V30 13473 H 1299.44 1.72177 3.47036 0
M  V30 13474 H 1299.86 3.93545 3.46732 0
M  V30 13475 H 1301.33 2.80744 4.75276 0
M  V30 13476 H 1301.81 1.19496 4.22631 0
M  V30 13477 H 1302.41 2.6195 3.35056 0
M  V30 13478 N 1300.73 -1.01913 1.20215 0
M  V30 13479 C 1301.98 -1.74878 1.00502 0
M  V30 13480 C 1302.29 -1.90022 -0.463792 0
M  V30 13481 O 1303.5 -2.60055 -0.779982 0
M  V30 13482 C 1301.95 -3.1452 1.74943 0
M  V30 13483 C 1301.56 -3.07397 3.259 0
M  V30 13484 C 1303.3 -3.91713 1.63589 0
M  V30 13485 C 1301.21 -4.42032 3.92889 0
M  V30 13486 H 1300.14 -0.655603 0.372426 0
M  V30 13487 H 1302.79 -1.13978 1.4381 0
M  V30 13488 H 1301.17 -3.75946 1.24421 0
M  V30 13489 H 1302.35 -2.55294 3.83617 0
M  V30 13490 H 1300.66 -2.43698 3.37639 0
M  V30 13491 H 1303.26 -4.91316 2.1098 0
M  V30 13492 H 1303.6 -4.12074 0.591665 0
M  V30 13493 H 1304.14 -3.3691 2.11511 0
M  V30 13494 H 1300.88 -4.26874 4.97453 0
M  V30 13495 H 1300.4 -4.94151 3.39962 0
M  V30 13496 H 1302.07 -5.10884 3.96997 0
M  V30 13497 N 1302.21 -1.00763 -1.2118 0
M  V30 13498 C 1303.62 -0.720905 -1.42391 0
M  V30 13499 C 1303.82 0.702918 -1.88842 0
M  V30 13500 O 1302.88 1.47191 -2.05161 0
M  V30 13501 C 1304.19 -1.739 -2.45315 0
M  V30 13502 C 1305.74 -1.75611 -2.59094 0
M  V30 13503 C 1306.21 -2.76323 -3.65253 0
M  V30 13504 N 1307.71 -2.75007 -3.72727 0
M  V30 13505 C 1308.44 -3.49594 -4.54502 0
M  V30 13506 N 1307.94 -4.33828 -5.40153 0
M  V30 13507 N 1309.73 -3.38232 -4.4895 0
M  V30 13508 H 1301.88 -1.92697 -0.893404 0
M  V30 13509 H 1304.14 -0.831888 -0.454606 0
M  V30 13510 H 1303.85 -2.75859 -2.18162 0
M  V30 13511 H 1303.72 -1.5438 -3.44161 0
M  V30 13512 H 1306.11 -0.743416 -2.85582 0
M  V30 13513 H 1306.19 -1.99203 -1.60474 0
M  V30 13514 H 1305.84 -3.77751 -3.39509 0
M  V30 13515 H 1305.77 -2.49996 -4.63476 0
M  V30 13516 H 1308.26 -2.13897 -3.11539 0
M  V30 13517 H 1308.57 -4.8753 -5.99612 0
M  V30 13518 H 1306.91 -4.3791 -5.39685 0
M  V30 13519 H 1310.11 -2.71855 -3.81068 0
M  V30 13520 H 1310.28 -3.96615 -5.12445 0
M  V30 13521 N 1303.68 1.3679 -0.7827 0
M  V30 13522 C 1304.93 1.99417 -0.352011 0
M  V30 13523 C 1305.26 1.62127 1.07448 0
M  V30 13524 O 1304.51 0.864449 1.75573 0
M  V30 13525 C 1304.81 3.54489 -0.455232 0
M  V30 13526 C 1304.48 4.11579 -1.84156 0
M  V30 13527 C 1303.14 4.26884 -2.22089 0
M  V30 13528 C 1305.49 4.4277 -2.74962 0
M  V30 13529 C 1302.82 4.70688 -3.50243 0
M  V30 13530 C 1305.17 4.88003 -4.02537 0
M  V30 13531 C 1303.84 5.01513 -4.40501 0
M  V30 13532 H 1303.11 0.729718 -0.12881 0
M  V30 13533 H 1305.75 1.63386 -0.998856 0
M  V30 13534 H 1304.06 3.90833 0.275129 0
M  V30 13535 H 1305.76 4.00867 -0.103127 0
M  V30 13536 H 1302.35 4.00102 -1.53677 0
M  V30 13537 H 1306.53 4.30521 -2.46912 0
M  V30 13538 H 1301.79 4.79335 -3.79537 0
M  V30 13539 H 1305.96 5.11102 -4.73019 0
M  V30 13540 H 1303.59 5.35214 -5.39861 0
M  V30 13541 N 1305.16 0.53415 1.48272 0
M  V30 13542 C 1306.09 -0.263508 2.2768 0
M  V30 13543 C 1307.11 -0.90064 1.35618 0
M  V30 13544 O 1308.3 -0.778379 1.60635 0
M  V30 13545 C 1305.4 -1.38878 3.09138 0
M  V30 13546 C 1304.57 -0.852784 4.29006 0
M  V30 13547 C 1303.63 -1.85969 4.92242 0
M  V30 13548 O 1302.65 -1.41497 5.51332 0
M  V30 13549 N 1303.86 -3.19207 4.84858 0
M  V30 13550 H 1306.62 0.417548 2.96777 0
M  V30 13551 H 1304.18 0.368743 1.57645 0
M  V30 13552 H 1306.17 -2.06062 3.48311 0
M  V30 13553 H 1304.74 -1.97343 2.42434 0
M  V30 13554 H 1303.96 -0.0048227 3.942 0
M  V30 13555 H 1305.25 -0.473634 5.06591 0
M  V30 13556 H 1304.65 -3.58001 4.38009 0
M  V30 13557 H 1303.21 -3.82013 5.28119 0
M  V30 13558 N 1306.64 -1.55279 0.269478 0
M  V30 13559 C 1308.05 -1.85286 -0.229372 0
M  V30 13560 C 1308.4 -1.19148 -1.55879 0
M  V30 13561 O 1307.53 -0.4778 -2.11059 0
M  V30 13562 C 1308.12 -3.3615 -0.42296 0
M  V30 13563 C 1306.68 -3.66301 -0.866047 0
M  V30 13564 C 1305.83 -2.77265 0.0439028 0
M  V30 13565 H 1308.78 -1.509 0.491427 0
M  V30 13566 H 1308.8 -3.5895 -1.26234 0
M  V30 13567 H 1308.31 -3.84258 0.544768 0
M  V30 13568 H 1306.41 -3.23688 -1.84545 0
M  V30 13569 H 1306.53 -4.73851 -0.707274 0
M  V30 13570 H 1304.89 -2.50299 -0.471433 0
M  V30 13571 H 1305.67 -3.28186 1.00741 0
M  V30 13572 N 1308.12 0.00332656 -1.576 0
M  V30 13573 C 1309.35 0.699945 -1.94701 0
M  V30 13574 C 1309.76 1.67492 -0.871312 0
M  V30 13575 O 1309.12 1.81882 0.150054 0
M  V30 13576 C 1309.17 1.43471 -3.31811 0
M  V30 13577 O 1308.89 0.498835 -4.35251 0
M  V30 13578 C 1310.39 2.22614 -3.83351 0
M  V30 13579 H 1307.61 0.195158 -0.641993 0
M  V30 13580 H 1310.16 -0.0468044 -2.04446 0
M  V30 13581 H 1308.31 2.13311 -3.23384 0
M  V30 13582 H 1308.72 1.01688 -5.14548 0
M  V30 13583 H 1310.2 2.69527 -4.81725 0
M  V30 13584 H 1310.68 3.05146 -3.15883 0
M  V30 13585 H 1311.28 1.57796 -3.94944 0
M  V30 13586 N 1309.6 1.55164 0.276031 0
M  V30 13587 C 1310.82 1.79649 1.02635 0
M  V30 13588 C 1311.24 0.568289 1.80044 0
M  V30 13589 O 1310.6 -0.462569 1.7654 0
M  V30 13590 C 1310.65 3.01974 1.98731 0
M  V30 13591 O 1310.37 4.2005 1.24459 0
M  V30 13592 C 1311.87 3.39039 2.856 0
M  V30 13593 H 1309.09 0.598529 0.303321 0
M  V30 13594 H 1311.63 2.02171 0.307733 0
M  V30 13595 H 1309.79 2.81586 2.6606 0
M  V30 13596 H 1310.2 4.89185 1.89205 0
M  V30 13597 H 1311.68 4.27809 3.48831 0
M  V30 13598 H 1312.15 2.58306 3.55211 0
M  V30 13599 H 1312.76 3.61674 2.23767 0
M  V30 13600 N 1311.07 -0.540404 1.48045 0
M  V30 13601 C 1312.3 -1.32656 1.59427 0
M  V30 13602 C 1312.72 -1.86419 0.250924 0
M  V30 13603 O 1312.08 -1.63861 -0.775838 0
M  V30 13604 C 1312.13 -2.46062 2.63602 0
M  V30 13605 O 1311.23 -3.48794 2.20038 0
M  V30 13606 H 1310.58 -0.393334 0.534962 0
M  V30 13607 H 1313.11 -0.651363 1.93955 0
M  V30 13608 H 1313.12 -2.92396 2.84549 0
M  V30 13609 H 1311.79 -2.06291 3.61133 0
M  V30 13610 H 1310.37 -3.0865 2.0926 0
M  V30 13611 N 1312.55 -1.36459 -0.788468 0
M  V30 13612 C 1313.78 -1.33898 -1.57731 0
M  V30 13613 C 1314.2 0.0795471 -1.88632 0
M  V30 13614 O 1313.55 1.03671 -1.50195 0
M  V30 13615 C 1313.6 -2.16134 -2.89773 0
M  V30 13616 O 1313.32 -3.52457 -2.60203 0
M  V30 13617 C 1314.83 -2.21364 -3.84074 0
M  V30 13618 H 1312.05 -0.459269 -0.489197 0
M  V30 13619 H 1314.59 -1.79569 -0.978526 0
M  V30 13620 H 1312.74 -1.74015 -3.46118 0
M  V30 13621 H 1313.16 -3.95378 -3.4464 0
M  V30 13622 H 1314.63 -2.83261 -4.7378 0
M  V30 13623 H 1315.11 -1.21736 -4.21992 0
M  V30 13624 H 1315.72 -2.63723 -3.33662 0
M  V30 13625 N 1314.03 1.01274 -1.20754 0
M  V30 13626 C 1315.28 1.74586 -1.01804 0
M  V30 13627 C 1315.6 1.89727 0.450419 0
M  V30 13628 O 1314.87 1.44257 1.32539 0
M  V30 13629 H 1313.45 0.646804 -0.373702 0
M  V30 13630 H 1316.11 1.22079 -1.5193 0
M  V30 13631 H 1315.21 2.748 -1.47958 0
M  V30 13632 N 1315.51 1.01404 1.20644 0
M  V30 13633 C 1316.76 0.697244 1.89265 0
M  V30 13634 C 1317.07 -0.776149 1.79542 0
M  V30 13635 O 1318.28 -1.2054 2.43274 0
M  V30 13636 C 1316.73 1.19672 3.39421 0
M  V30 13637 C 1316.34 2.69683 3.57736 0
M  V30 13638 C 1318.09 0.955225 4.13613 0
M  V30 13639 C 1315.99 3.13124 5.01704 0
M  V30 13640 H 1314.92 0.257105 0.708811 0
M  V30 13641 H 1317.57 1.22639 1.36499 0
M  V30 13642 H 1315.96 0.595562 3.91496 0
M  V30 13643 H 1317.13 3.35326 3.16059 0
M  V30 13644 H 1315.44 2.91946 2.96911 0
M  V30 13645 H 1318.04 1.25524 5.19757 0
M  V30 13646 H 1318.38 -0.108362 4.16159 0
M  V30 13647 H 1318.92 1.51962 3.67631 0
M  V30 13648 H 1315.66 4.18748 5.04311 0
M  V30 13649 H 1315.18 2.522 5.44201 0
M  V30 13650 H 1316.86 3.05617 5.70269 0
M  V30 13651 N 1316.99 -1.36373 0.789944 0
M  V30 13652 C 1317.95 -2.28372 0.194639 0
M  V30 13653 C 1318.95 -1.48849 -0.608332 0
M  V30 13654 O 1320.14 -1.68829 -0.42925 0
M  V30 13655 C 1317.27 -3.3298 -0.730553 0
M  V30 13656 H 1318.47 -2.82529 1.00585 0
M  V30 13657 H 1316.02 -1.45946 0.559406 0
M  V30 13658 H 1316.75 -2.8398 -1.56608 0
M  V30 13659 H 1316.54 -3.91787 -0.156706 0
M  V30 13660 H 1318.03 -4.01684 -1.14192 0
M  V30 13661 N 1318.47 -0.542005 -1.47987 0
M  V30 13662 C 1319.38 0.217677 -2.33588 0
M  V30 13663 C 1320.39 0.927093 -1.47245 0
M  V30 13664 O 1321.57 0.899378 -1.80203 0
M  V30 13665 C 1318.63 1.24376 -3.23622 0
M  V30 13666 C 1317.69 0.543407 -4.25847 0
M  V30 13667 C 1316.93 1.5206 -5.11579 0
M  V30 13668 O 1317.15 2.75425 -4.99497 0
M  V30 13669 O 1316.08 1.05341 -5.9261 0
M  V30 13670 H 1319.91 -0.484089 -2.99817 0
M  V30 13671 H 1317.49 -0.302783 -1.463 0
M  V30 13672 H 1319.38 1.83644 -3.7928 0
M  V30 13673 H 1318.05 1.92772 -2.6004 0
M  V30 13674 H 1316.96 -0.090074 -3.73992 0
M  V30 13675 H 1318.29 -0.0988264 -4.92101 0
M  V30 13676 N 1319.94 1.55134 -0.277709 0
M  V30 13677 C 1320.89 2.2263 0.608637 0
M  V30 13678 C 1321.86 1.20067 1.14774 0
M  V30 13679 O 1323.05 1.48617 1.19657 0
M  V30 13680 C 1320.19 2.95308 1.78571 0
M  V30 13681 C 1319.3 4.12595 1.28021 0
M  V30 13682 C 1318.43 4.7291 2.41929 0
M  V30 13683 C 1317.47 5.82386 1.88395 0
M  V30 13684 N 1316.61 6.36754 2.95786 0
M  V30 13685 H 1321.45 2.97988 0.0264138 0
M  V30 13686 H 1318.99 1.471 0.00127068 0
M  V30 13687 H 1320.94 3.35662 2.47764 0
M  V30 13688 H 1319.57 2.22368 2.33992 0
M  V30 13689 H 1318.63 3.77343 0.481297 0
M  V30 13690 H 1319.94 4.91537 0.848128 0
M  V30 13691 H 1319.09 5.15997 3.1911 0
M  V30 13692 H 1317.83 3.93251 2.88453 0
M  V30 13693 H 1316.84 5.38746 1.09694 0
M  V30 13694 H 1318.06 6.63916 1.42803 0
M  V30 13695 H 1316.01 5.59987 3.41687 0
M  V30 13696 H 1315.92 7.10975 2.57002 0
M  V30 13697 H 1317.19 6.845 3.72935 0
M  V30 13698 N 1321.42 0.00503138 1.57599 0
M  V30 13699 C 1322.65 -0.693231 1.95471 0
M  V30 13700 C 1323.07 -1.66233 0.880246 0
M  V30 13701 O 1322.43 -1.80582 -0.161164 0
M  V30 13702 C 1322.48 -1.39696 3.32442 0
M  V30 13703 O 1321.58 -2.51154 3.27101 0
M  V30 13704 H 1320.92 -0.184015 0.637992 0
M  V30 13705 H 1323.45 0.0597194 2.04513 0
M  V30 13706 H 1323.46 -1.75924 3.68123 0
M  V30 13707 H 1322.14 -0.686438 4.10196 0
M  V30 13708 H 1320.71 -2.17216 3.03103 0
M  V30 13709 N 1322.9 -1.55308 -0.267798 0
M  V30 13710 C 1324.13 -1.80191 -1.01681 0
M  V30 13711 C 1324.54 -0.57783 -1.7974 0
M  V30 13712 O 1323.9 0.4532 -1.76783 0
M  V30 13713 C 1323.95 -3.03023 -1.97127 0
M  V30 13714 O 1323.67 -4.20704 -1.22229 0
M  V30 13715 C 1325.17 -3.40549 -2.83798 0
M  V30 13716 H 1322.39 -0.60013 -0.300142 0
M  V30 13717 H 1324.94 -2.02332 -0.297007 0
M  V30 13718 H 1323.09 -2.82993 -2.64563 0
M  V30 13719 H 1323.51 -4.90181 -1.86608 0
M  V30 13720 H 1324.98 -4.29653 -3.46557 0
M  V30 13721 H 1325.46 -2.60186 -3.53836 0
M  V30 13722 H 1326.06 -3.62856 -2.21846 0
M  V30 13723 N 1324.38 0.532545 -1.4833 0
M  V30 13724 C 1325.31 1.64662 -1.65555 0
M  V30 13725 C 1326.29 1.62447 -0.50447 0
M  V30 13726 O 1327.47 1.79684 -0.736712 0
M  V30 13727 C 1324.6 3.03256 -1.69272 0
M  V30 13728 C 1323.56 3.20329 -2.83854 0
M  V30 13729 C 1322.88 4.59958 -2.72659 0
M  V30 13730 C 1324.18 3.03345 -4.25181 0
M  V30 13731 H 1325.88 1.50502 -2.58823 0
M  V30 13732 H 1323.42 0.722612 -1.24556 0
M  V30 13733 H 1325.38 3.81064 -1.79911 0
M  V30 13734 H 1324.1 3.18433 -0.725805 0
M  V30 13735 H 1322.76 2.44937 -2.72766 0
M  V30 13736 H 1322.41 4.71967 -1.73942 0
M  V30 13737 H 1322.11 4.72327 -3.49544 0
M  V30 13738 H 1323.63 5.39869 -2.85262 0
M  V30 13739 H 1325.05 3.70948 -4.37116 0
M  V30 13740 H 1323.44 3.27208 -5.03045 0
M  V30 13741 H 1324.51 1.998 -4.41824 0
M  V30 13742 N 1325.86 1.36875 0.78122 0
M  V30 13743 C 1327.27 1.17467 1.08044 0
M  V30 13744 C 1327.47 0.00434799 2.015 0
M  V30 13745 O 1326.53 -0.658499 2.43762 0
M  V30 13746 C 1327.84 2.48917 1.68704 0
M  V30 13747 C 1329.39 2.55354 1.81007 0
M  V30 13748 C 1329.86 3.8691 2.45081 0
M  V30 13749 N 1331.35 3.88301 2.52541 0
M  V30 13750 C 1332.09 4.86837 3.02947 0
M  V30 13751 N 1331.59 5.95768 3.53598 0
M  V30 13752 N 1333.38 4.74249 3.01735 0
M  V30 13753 H 1325.53 2.11793 0.160503 0
M  V30 13754 H 1327.79 0.938507 0.133825 0
M  V30 13755 H 1327.5 3.34867 1.07503 0
M  V30 13756 H 1327.37 2.65319 2.68115 0
M  V30 13757 H 1329.76 1.69816 2.41343 0
M  V30 13758 H 1329.84 2.42843 0.803783 0
M  V30 13759 H 1329.48 4.72858 1.85386 0
M  V30 13760 H 1329.41 3.9672 3.46296 0
M  V30 13761 H 1331.91 3.09607 2.16684 0
M  V30 13762 H 1332.22 6.66918 3.90435 0
M  V30 13763 H 1330.56 5.99426 3.51728 0
M  V30 13764 H 1333.75 3.88275 2.61458 0
M  V30 13765 H 1333.93 5.512 3.40709 0
M  V30 13766 N 1327.33 -1.00632 1.21289 0
M  V30 13767 C 1328.61 -1.71635 0.938124 0
M  V30 13768 C 1328.99 -2.03798 -0.550416 0
M  V30 13769 O 1328.34 -1.71065 -1.5149 0
M  V30 13770 C 1328.55 -2.97674 1.82184 0
M  V30 13771 C 1329.9 -3.7073 2.06989 0
M  V30 13772 O 1330.92 -3.07653 1.79522 0
M  V30 13773 O 1329.78 -4.84183 2.53435 0
M  V30 13774 H 1326.87 -0.748506 0.351664 0
M  V30 13775 H 1329.42 -1.06387 1.32212 0
M  V30 13776 H 1328.19 -2.70306 2.82931 0
M  V30 13777 H 1327.81 -3.70663 1.43858 0
M  V30 13778 N 1328.81 -1.02043 -1.20104 0
M  V30 13779 C 1330.04 -0.731142 -1.94085 0
M  V30 13780 C 1330.46 0.702467 -1.74491 0
M  V30 13781 O 1329.82 1.48387 -1.04168 0
M  V30 13782 C 1329.87 -1.07691 -3.44144 0
M  V30 13783 O 1328.97 -0.190751 -4.11959 0
M  V30 13784 H 1328.31 -0.270917 -0.606218 0
M  V30 13785 H 1330.84 -1.36483 -1.52426 0
M  V30 13786 H 1330.85 -1.03023 -3.94779 0
M  V30 13787 H 1329.53 -2.1214 -3.57728 0
M  V30 13788 H 1328.1 -0.29529 -3.71729 0
M  V30 13789 N 1330.29 1.35952 -0.797165 0
M  V30 13790 C 1331.52 2.0328 -0.385316 0
M  V30 13791 C 1331.93 1.60095 1.00076 0
M  V30 13792 O 1331.29 0.794014 1.64322 0
M  V30 13793 C 1331.34 3.5871 -0.448284 0
M  V30 13794 O 1331.06 4.00323 -1.7797 0
M  V30 13795 C 1332.56 4.43291 -0.0280465 0
M  V30 13796 H 1329.78 0.652192 -0.157756 0
M  V30 13797 H 1332.33 1.73769 -1.07817 0
M  V30 13798 H 1330.48 3.86903 0.196224 0
M  V30 13799 H 1330.9 4.94941 -1.73592 0
M  V30 13800 H 1332.37 5.51862 -0.123234 0
M  V30 13801 H 1332.85 4.27059 1.02552 0
M  V30 13802 H 1333.45 4.20375 -0.645343 0
M  V30 13803 N 1331.77 0.549846 1.47697 0
M  V30 13804 C 1333 0.0276889 2.06881 0
M  V30 13805 C 1333.41 -1.26273 1.40359 0
M  V30 13806 O 1332.77 -1.75584 0.497644 0
M  V30 13807 C 1332.82 -0.179291 3.61055 0
M  V30 13808 O 1332.54 1.06002 4.25083 0
M  V30 13809 C 1334.04 -0.739571 4.37087 0
M  V30 13810 H 1331.26 0.0425016 0.669653 0
M  V30 13811 H 1333.81 0.761158 1.89807 0
M  V30 13812 H 1331.96 -0.862867 3.77668 0
M  V30 13813 H 1332.37 0.853137 5.17515 0
M  V30 13814 H 1333.85 -0.833722 5.45668 0
M  V30 13815 H 1334.33 -1.74915 4.02867 0
M  V30 13816 H 1334.93 -0.0919294 4.25201 0
M  V30 13817 N 1333.25 -1.54984 0.285932 0
M  V30 13818 C 1334.16 -2.26621 -0.606648 0
M  V30 13819 C 1335.17 -1.29595 -1.16108 0
M  V30 13820 O 1336.35 -1.62551 -1.18908 0
M  V30 13821 C 1333.41 -2.98156 -1.76929 0
M  V30 13822 C 1332.47 -4.10685 -1.25045 0
M  V30 13823 C 1331.71 -4.788 -2.35768 0
M  V30 13824 O 1331.93 -4.46183 -3.55354 0
M  V30 13825 O 1330.86 -5.66523 -2.03312 0
M  V30 13826 H 1334.69 -3.03689 -0.0259981 0
M  V30 13827 H 1332.28 -1.49306 0.0529355 0
M  V30 13828 H 1334.16 -3.43076 -2.44697 0
M  V30 13829 H 1332.83 -2.23996 -2.33683 0
M  V30 13830 H 1331.74 -3.70198 -0.538919 0
M  V30 13831 H 1333.07 -4.86778 -0.728528 0
M  V30 13832 N 1334.72 -0.0133892 -1.57594 0
M  V30 13833 C 1335.63 0.989701 -2.12702 0
M  V30 13834 C 1336.65 1.36785 -1.07545 0
M  V30 13835 O 1337.83 1.45246 -1.39519 0
M  V30 13836 C 1334.89 2.2586 -2.63036 0
M  V30 13837 C 1333.95 1.94234 -3.82847 0
M  V30 13838 C 1333.19 3.15075 -4.30771 0
M  V30 13839 O 1333.41 4.27212 -3.7795 0
M  V30 13840 O 1332.34 2.98291 -5.22787 0
M  V30 13841 H 1336.17 0.551194 -2.98656 0
M  V30 13842 H 1333.75 0.206264 -1.47969 0
M  V30 13843 H 1335.64 3.0038 -2.9555 0
M  V30 13844 H 1334.31 2.68923 -1.80173 0
M  V30 13845 H 1333.22 1.17148 -3.55285 0
M  V30 13846 H 1334.55 1.55999 -4.66824 0
M  V30 13847 N 1336.2 1.55448 0.259558 0
M  V30 13848 C 1337.15 1.89248 1.32113 0
M  V30 13849 C 1338.12 0.745348 1.48438 0
M  V30 13850 O 1339.3 0.997854 1.62627 0
M  V30 13851 C 1336.44 2.18161 2.67394 0
M  V30 13852 C 1335.56 3.45614 2.59182 0
M  V30 13853 C 1334.69 3.6416 3.86731 0
M  V30 13854 C 1333.73 4.85258 3.73084 0
M  V30 13855 N 1332.87 5.00391 4.92497 0
M  V30 13856 H 1337.71 2.79785 1.02589 0
M  V30 13857 H 1335.25 1.38509 0.495338 0
M  V30 13858 H 1337.2 2.32927 3.46122 0
M  V30 13859 H 1335.83 1.30843 2.95093 0
M  V30 13860 H 1334.89 3.39248 1.72091 0
M  V30 13861 H 1336.2 4.34483 2.45002 0
M  V30 13862 H 1335.35 3.78817 4.73902 0
M  V30 13863 H 1334.09 2.73501 4.03793 0
M  V30 13864 H 1333.1 4.70591 2.84296 0
M  V30 13865 H 1334.32 5.77365 3.57528 0
M  V30 13866 H 1332.27 4.12666 5.09944 0
M  V30 13867 H 1332.18 5.83328 4.809 0
M  V30 13868 H 1333.45 5.19446 5.81202 0
M  V30 13869 N 1337.68 -0.524672 1.4861 0
M  V30 13870 C 1338.93 -1.28211 1.5713 0
M  V30 13871 C 1339.26 -1.92626 0.246751 0
M  V30 13872 O 1338.53 -1.79553 -0.747725 0
M  V30 13873 C 1338.82 -2.36737 2.71344 0
M  V30 13874 C 1338.67 -1.76978 4.1352 0
M  V30 13875 C 1339.99 -3.3847 2.81294 0
M  V30 13876 H 1337.11 -0.46479 0.571961 0
M  V30 13877 H 1339.75 -0.583937 1.80804 0
M  V30 13878 H 1337.9 -2.96287 2.51289 0
M  V30 13879 H 1339.57 -1.21438 4.45029 0
M  V30 13880 H 1337.82 -1.07488 4.20272 0
M  V30 13881 H 1338.49 -2.55583 4.89266 0
M  V30 13882 H 1340.96 -2.88882 2.99477 0
M  V30 13883 H 1339.84 -4.11795 3.62928 0
M  V30 13884 H 1340.1 -3.99347 1.89669 0
M  V30 13885 N 1339.16 -1.37287 -0.77395 0
M  V30 13886 C 1340.57 -1.28954 -1.3501 0
M  V30 13887 C 1340.92 0.0638301 -1.96096 0
M  V30 13888 O 1340.05 0.965624 -1.93661 0
M  V30 13889 C 1340.64 -2.3352 -2.45467 0
M  V30 13890 C 1339.2 -2.28828 -2.98856 0
M  V30 13891 C 1338.35 -2.17468 -1.72055 0
M  V30 13892 H 1341.3 -1.47941 -0.57438 0
M  V30 13893 H 1341.32 -1.98058 -3.24889 0
M  V30 13894 H 1340.83 -3.32009 -2.00977 0
M  V30 13895 H 1338.93 -1.33855 -3.47726 0
M  V30 13896 H 1339.04 -3.22152 -3.54619 0
M  V30 13897 H 1337.41 -1.63977 -1.94894 0
M  V30 13898 H 1338.19 -3.17868 -1.29672 0
M  V30 13899 N 1340.64 0.999871 -1.21821 0
M  V30 13900 C 1342.05 1.5529 -1.03642 0
M  V30 13901 C 1342.4 1.92032 0.402246 0
M  V30 13902 O 1341.52 1.74027 1.28622 0
M  V30 13903 C 1342.12 2.82177 -1.87514 0
M  V30 13904 C 1340.68 3.33949 -1.73653 0
M  V30 13905 C 1339.82 2.07095 -1.84409 0
M  V30 13906 H 1342.78 0.821751 -1.35768 0
M  V30 13907 H 1342.8 3.54264 -1.38842 0
M  V30 13908 H 1342.31 2.55405 -2.92216 0
M  V30 13909 H 1340.41 3.65645 -0.716554 0
M  V30 13910 H 1340.52 4.05022 -2.55918 0
M  V30 13911 H 1338.89 2.20332 -1.27773 0
M  V30 13912 H 1339.67 1.82728 -2.90629 0
M  V30 13913 N 1342.11 1.02678 1.19562 0
M  V30 13914 C 1343.36 0.717279 1.88515 0
M  V30 13915 C 1343.68 -0.757063 1.80355 0
M  V30 13916 O 1344.88 -1.17953 2.44539 0
M  V30 13917 C 1343.34 1.23265 3.38133 0
M  V30 13918 C 1342.95 2.73462 3.54856 0
M  V30 13919 C 1344.69 0.99904 4.12577 0
M  V30 13920 C 1342.6 3.18428 4.98355 0
M  V30 13921 H 1341.53 0.264608 0.706044 0
M  V30 13922 H 1344.18 1.2408 1.3519 0
M  V30 13923 H 1342.56 0.637052 3.90842 0
M  V30 13924 H 1343.73 3.38659 3.12485 0
M  V30 13925 H 1342.05 2.95079 2.93798 0
M  V30 13926 H 1344.65 1.3103 5.18397 0
M  V30 13927 H 1344.99 -0.064217 4.1625 0
M  V30 13928 H 1345.52 1.55853 3.65998 0
M  V30 13929 H 1342.26 4.24074 4.99842 0
M  V30 13930 H 1341.78 2.57958 5.41496 0
M  V30 13931 H 1343.46 3.11649 5.66996 0
M  V30 13932 N 1343.59 -1.35528 0.804364 0
M  V30 13933 C 1344.82 -2.03073 0.396091 0
M  V30 13934 C 1345.24 -1.60623 -0.992252 0
M  V30 13935 O 1344.59 -0.802718 -1.63898 0
M  V30 13936 C 1344.64 -3.58467 0.467301 0
M  V30 13937 O 1344.36 -3.99373 1.80091 0
M  V30 13938 C 1345.87 -4.4327 0.0515549 0
M  V30 13939 H 1343.09 -0.651346 0.161212 0
M  V30 13940 H 1345.63 -1.73195 1.08737 0
M  V30 13941 H 1343.78 -3.87001 -0.175703 0
M  V30 13942 H 1344.2 -4.94013 1.76214 0
M  V30 13943 H 1345.67 -5.51789 0.152499 0
M  V30 13944 H 1346.15 -4.27597 -1.00286 0
M  V30 13945 H 1346.76 -4.20027 0.667628 0
M  V30 13946 N 1345.07 -0.557671 -1.47404 0
M  V30 13947 C 1346.3 -0.0366797 -2.07368 0
M  V30 13948 C 1346.72 1.2478 -1.40754 0
M  V30 13949 O 1346.08 1.74757 -0.48268 0
M  V30 13950 C 1346.13 0.141728 -3.60321 0
M  V30 13951 O 1345.23 1.20419 -3.94427 0
M  V30 13952 H 1344.57 -0.0515319 -0.661997 0
M  V30 13953 H 1347.1 -0.773485 -1.89416 0
M  V30 13954 H 1347.11 0.355787 -4.06446 0
M  V30 13955 H 1345.79 -0.796433 -4.08203 0
M  V30 13956 H 1344.36 0.970589 -3.60047 0
M  V30 13957 N 1346.55 1.54831 -0.294147 0
M  V30 13958 C 1347.78 2.04411 0.319938 0
M  V30 13959 C 1348.19 1.17174 1.4804 0
M  V30 13960 O 1347.55 0.195881 1.81446 0
M  V30 13961 C 1347.6 3.52924 0.782751 0
M  V30 13962 O 1347.32 4.36844 -0.331512 0
M  V30 13963 C 1348.82 4.18474 1.4627 0
M  V30 13964 H 1346.04 0.667286 0.0704973 0
M  V30 13965 H 1348.59 1.9989 -0.431785 0
M  V30 13966 H 1346.74 3.57828 1.48451 0
M  V30 13967 H 1347.16 5.24493 0.0275743 0
M  V30 13968 H 1348.63 5.23933 1.73776 0
M  V30 13969 H 1349.11 3.67793 2.40052 0
M  V30 13970 H 1349.71 4.17626 0.804291 0
M  V30 13971 N 1348.03 0.0217466 1.57585 0
M  V30 13972 C 1348.94 -0.978407 2.13224 0
M  V30 13973 C 1349.95 -1.36212 1.08269 0
M  V30 13974 O 1351.13 -1.44504 1.40288 0
M  V30 13975 C 1348.19 -2.24462 2.6423 0
M  V30 13976 C 1347.26 -1.92201 3.83871 0
M  V30 13977 C 1346.49 -3.12786 4.32436 0
M  V30 13978 O 1346.71 -4.25201 3.8021 0
M  V30 13979 O 1345.65 -2.95514 5.24362 0
M  V30 13980 H 1349.47 -0.535347 2.98944 0
M  V30 13981 H 1347.06 -0.198414 1.48077 0
M  V30 13982 H 1348.94 -2.98809 2.97138 0
M  V30 13983 H 1347.61 -2.67964 1.81596 0
M  V30 13984 H 1346.52 -1.15262 3.55901 0
M  V30 13985 H 1347.85 -1.53521 4.67645 0
M  V30 13986 N 1349.51 -1.55583 -0.251311 0
M  V30 13987 C 1350.75 -1.76859 -0.978031 0
M  V30 13988 C 1351.07 -0.584924 -1.86021 0
M  V30 13989 O 1350.34 0.399456 -1.91784 0
M  V30 13990 H 1348.92 -0.652252 -0.364111 0
M  V30 13991 H 1351.59 -1.93016 -0.270319 0
M  V30 13992 H 1350.68 -2.67828 -1.60233 0
M  V30 13993 N 1350.98 0.516783 -1.48886 0
M  V30 13994 C 1351.92 1.63632 -1.60491 0
M  V30 13995 C 1352.93 1.55301 -0.488424 0
M  V30 13996 O 1354.12 1.6152 -0.75983 0
M  V30 13997 C 1351.22 3.02351 -1.53093 0
M  V30 13998 C 1350.39 3.36028 -2.80006 0
M  V30 13999 C 1349.45 4.54087 -2.65879 0
M  V30 14000 O 1348.48 4.56652 -3.3979 0
M  V30 14001 N 1349.68 5.53058 -1.76372 0
M  V30 14002 H 1352.44 1.54109 -2.57042 0
M  V30 14003 H 1350 0.704338 -1.45776 0
M  V30 14004 H 1352 3.79225 -1.41318 0
M  V30 14005 H 1350.57 3.05881 -0.644637 0
M  V30 14006 H 1349.79 2.48204 -3.06249 0
M  V30 14007 H 1351.07 3.5532 -3.64177 0
M  V30 14008 H 1350.47 5.53773 -1.1555 0
M  V30 14009 H 1349.03 6.29097 -1.70529 0
M  V30 14010 N 1352.46 1.37696 0.766659 0
M  V30 14011 C 1353.71 1.33382 1.52765 0
M  V30 14012 C 1354.04 -0.0800569 1.94035 0
M  V30 14013 O 1353.32 -1.03848 1.64456 0
M  V30 14014 C 1353.6 2.2776 2.78922 0
M  V30 14015 C 1353.45 3.77949 2.43874 0
M  V30 14016 C 1354.77 2.20494 3.80881 0
M  V30 14017 H 1351.89 0.485836 0.554195 0
M  V30 14018 H 1354.53 1.68438 0.879119 0
M  V30 14019 H 1352.68 1.97994 3.34261 0
M  V30 14020 H 1354.35 4.18333 1.9441 0
M  V30 14021 H 1352.6 3.96269 1.76503 0
M  V30 14022 H 1353.27 4.39428 3.34077 0
M  V30 14023 H 1355.74 2.46742 3.35048 0
M  V30 14024 H 1354.62 2.88663 4.66867 0
M  V30 14025 H 1354.88 1.19951 4.25516 0
M  V30 14026 N 1353.94 -0.993397 1.22349 0
M  V30 14027 C 1355.17 -1.76581 1.0725 0
M  V30 14028 C 1355.58 -1.85346 -0.379923 0
M  V30 14029 O 1354.92 -1.3224 -1.27508 0
M  V30 14030 C 1354.98 -3.21519 1.60829 0
M  V30 14031 C 1354.65 -3.363 3.09437 0
M  V30 14032 C 1355.64 -3.23655 4.0687 0
M  V30 14033 C 1353.33 -3.61368 3.48882 0
M  V30 14034 C 1355.32 -3.3586 5.41735 0
M  V30 14035 C 1353.01 -3.73214 4.83895 0
M  V30 14036 C 1354.01 -3.60468 5.80131 0
M  V30 14037 O 1353.7 -3.7192 7.12693 0
M  V30 14038 H 1353.43 -0.561407 0.376561 0
M  V30 14039 H 1355.98 -1.25768 1.62393 0
M  V30 14040 H 1354.21 -3.73521 1.00093 0
M  V30 14041 H 1355.9 -3.80475 1.41399 0
M  V30 14042 H 1356.67 -3.04201 3.77739 0
M  V30 14043 H 1352.55 -3.70365 2.74501 0
M  V30 14044 H 1356.09 -3.25829 6.16832 0
M  V30 14045 H 1351.99 -3.92175 5.12707 0
M  V30 14046 H 1352.75 -3.88796 7.20264 0
M  V30 14047 N 1355.42 -1.03311 -1.19015 0
M  V30 14048 C 1356.38 -0.622114 -2.20596 0
M  V30 14049 C 1357.38 0.316502 -1.57654 0
M  V30 14050 O 1358.57 0.102932 -1.73896 0
M  V30 14051 C 1355.7 0.0890432 -3.40784 0
M  V30 14052 H 1356.9 -1.52095 -2.58471 0
M  V30 14053 H 1354.45 -0.824777 -1.32767 0
M  V30 14054 H 1355.18 1.00203 -3.08431 0
M  V30 14055 H 1354.97 -0.58547 -3.87704 0
M  V30 14056 H 1356.46 0.363366 -4.16016 0
M  V30 14057 N 1356.9 1.35099 -0.81154 0
M  V30 14058 C 1358.12 2.0286 -0.406855 0
M  V30 14059 C 1358.54 1.61147 0.98372 0
M  V30 14060 O 1357.9 0.811398 1.6347 0
M  V30 14061 C 1357.95 3.58214 -0.486305 0
M  V30 14062 O 1357.67 3.98412 -1.82206 0
M  V30 14063 C 1359.17 4.43236 -0.0750619 0
M  V30 14064 H 1356.39 0.650482 -0.164664 0
M  V30 14065 H 1358.93 1.72616 -1.09654 0
M  V30 14066 H 1357.09 3.87089 0.155177 0
M  V30 14067 H 1357.5 4.93072 -1.78831 0
M  V30 14068 H 1358.98 5.51701 -0.181759 0
M  V30 14069 H 1359.45 4.28123 0.980169 0
M  V30 14070 H 1360.06 4.19667 -0.689894 0
M  V30 14071 N 1358.37 0.56548 1.47106 0
M  V30 14072 C 1359.31 -0.225573 2.27082 0
M  V30 14073 C 1360.28 -0.912747 1.34565 0
M  V30 14074 O 1361.47 -0.930085 1.63956 0
M  V30 14075 C 1358.6 -1.32211 3.1183 0
M  V30 14076 C 1357.64 -0.742615 4.19985 0
M  V30 14077 S 1358.47 0.417211 5.33872 0
M  V30 14078 C 1359.63 -0.680945 6.22185 0
M  V30 14079 H 1359.86 0.453066 2.93828 0
M  V30 14080 H 1357.4 0.351982 1.50334 0
M  V30 14081 H 1359.35 -1.95004 3.61225 0
M  V30 14082 H 1358.02 -1.97262 2.44431 0
M  V30 14083 H 1357.21 -1.56632 4.79043 0
M  V30 14084 H 1356.81 -0.190696 3.73514 0
M  V30 14085 H 1359.1 -1.57099 6.59034 0
M  V30 14086 H 1360.05 -0.127524 7.07985 0
M  V30 14087 H 1360.45 -0.977339 5.55975 0
M  V30 14088 N 1359.85 -1.54672 0.302354 0
M  V30 14089 C 1360.76 -2.27251 -0.582578 0
M  V30 14090 C 1361.78 -1.30819 -1.14727 0
M  V30 14091 O 1362.95 -1.63803 -1.17177 0
M  V30 14092 C 1360.02 -3.00016 -1.73757 0
M  V30 14093 C 1359.08 -4.11988 -1.20682 0
M  V30 14094 C 1358.31 -4.81273 -2.30676 0
M  V30 14095 O 1358.54 -4.49927 -3.50602 0
M  V30 14096 O 1357.47 -5.68647 -1.97291 0
M  V30 14097 H 1361.3 -3.03699 0.00621365 0
M  V30 14098 H 1358.88 -1.49242 0.0687684 0
M  V30 14099 H 1360.76 -3.45652 -2.41045 0
M  V30 14100 H 1359.44 -2.26462 -2.31294 0
M  V30 14101 H 1358.35 -3.70749 -0.499625 0
M  V30 14102 H 1359.68 -4.87524 -0.676858 0
M  V30 14103 N 1361.33 -0.0301034 -1.57571 0
M  V30 14104 C 1362.58 0.647042 -1.91462 0
M  V30 14105 C 1362.9 1.72612 -0.907206 0
M  V30 14106 O 1362.17 1.95833 0.0511268 0
M  V30 14107 H 1360.75 0.241988 -0.706718 0
M  V30 14108 H 1363.41 -0.0781385 -1.94743 0
M  V30 14109 H 1362.51 1.09915 -2.92105 0
M  V30 14110 N 1362.81 1.55714 0.243056 0
M  V30 14111 C 1364.03 1.82126 0.992219 0
M  V30 14112 C 1364.46 0.607665 1.78014 0
M  V30 14113 O 1363.82 -0.443351 1.75796 0
M  V30 14114 C 1363.86 3.06314 1.90274 0
M  V30 14115 O 1362.97 2.83499 2.99503 0
M  V30 14116 H 1362.31 0.601082 0.282128 0
M  V30 14117 H 1364.84 2.02904 0.262881 0
M  V30 14118 H 1364.85 3.35849 2.31666 0
M  V30 14119 H 1363.52 3.94282 1.32344 0
M  V30 14120 H 1362.1 2.65141 2.62211 0
M  V30 14121 N 1364.29 -0.50888 1.49158 0
M  V30 14122 C 1365.25 -1.59354 1.64739 0
M  V30 14123 C 1366.25 -1.52175 0.519557 0
M  V30 14124 O 1367.44 -1.55468 0.785838 0
M  V30 14125 C 1364.57 -2.99002 1.63739 0
M  V30 14126 H 1365.76 -1.46871 2.61474 0
M  V30 14127 H 1363.32 -0.732532 1.38071 0
M  V30 14128 H 1364.05 -3.1697 0.685583 0
M  V30 14129 H 1363.84 -3.05622 2.45637 0
M  V30 14130 H 1365.33 -3.77822 1.77877 0
M  V30 14131 N 1365.76 -1.381 -0.759346 0
M  V30 14132 C 1366.69 -1.37578 -1.88665 0
M  V30 14133 C 1367.68 -0.242529 -1.68362 0
M  V30 14134 O 1368.86 -0.444751 -1.89039 0
M  V30 14135 C 1365.99 -1.19437 -3.26117 0
M  V30 14136 C 1364.94 -2.29905 -3.61009 0
M  V30 14137 C 1364.27 -1.96874 -4.97136 0
M  V30 14138 C 1365.57 -3.72143 -3.66479 0
M  V30 14139 H 1367.26 -2.31912 -1.89359 0
M  V30 14140 H 1364.81 -1.11632 -0.909631 0
M  V30 14141 H 1366.76 -1.17698 -4.0463 0
M  V30 14142 H 1365.49 -0.21562 -3.25887 0
M  V30 14143 H 1364.15 -2.3082 -2.84812 0
M  V30 14144 H 1363.79 -0.974979 -4.9346 0
M  V30 14145 H 1363.49 -2.70855 -5.21451 0
M  V30 14146 H 1365.02 -1.96744 -5.78035 0
M  V30 14147 H 1366.43 -3.73291 -4.35117 0
M  V30 14148 H 1364.83 -4.45282 -4.02299 0
M  V30 14149 H 1365.9 -4.04874 -2.66843 0
M  V30 14150 N 1367.24 0.986894 -1.22875 0
M  V30 14151 C 1368.49 1.72388 -1.05484 0
M  V30 14152 C 1368.81 1.90639 0.410074 0
M  V30 14153 O 1368.08 1.47036 1.2945 0
M  V30 14154 H 1366.66 0.638732 -0.387337 0
M  V30 14155 H 1369.32 1.18829 -1.54485 0
M  V30 14156 H 1368.42 2.71599 -1.53754 0
M  V30 14157 N 1368.72 1.0394 1.18466 0
M  V30 14158 C 1369.63 0.639714 2.2571 0
M  V30 14159 C 1370.65 -0.333431 1.70775 0
M  V30 14160 O 1371.82 -0.188676 2.00514 0
M  V30 14161 C 1368.89 0.007559 3.46699 0
M  V30 14162 C 1367.95 1.02955 4.16772 0
M  V30 14163 C 1367.18 0.427464 5.31985 0
M  V30 14164 O 1367.4 -0.766684 5.65224 0
M  V30 14165 O 1366.34 1.15553 5.90704 0
M  V30 14166 H 1370.16 1.53316 2.6216 0
M  V30 14167 H 1367.75 0.810206 1.25523 0
M  V30 14168 H 1369.63 -0.344404 4.1999 0
M  V30 14169 H 1368.31 -0.859727 3.12074 0
M  V30 14170 H 1367.21 1.43328 3.45554 0
M  V30 14171 H 1368.55 1.86756 4.55393 0
M  V30 14172 N 1370.2 -1.34667 0.818693 0
M  V30 14173 C 1371.44 -1.98708 0.405359 0
M  V30 14174 C 1371.78 -1.64767 -1.02788 0
M  V30 14175 O 1371.05 -0.91714 -1.71519 0
M  V30 14176 C 1371.34 -3.55016 0.602966 0
M  V30 14177 C 1371.19 -3.98713 2.08201 0
M  V30 14178 C 1372.51 -4.40085 0.0362489 0
M  V30 14179 H 1369.63 -0.721831 0.148756 0
M  V30 14180 H 1372.27 -1.59628 1.03047 0
M  V30 14181 H 1370.42 -3.88435 0.0708453 0
M  V30 14182 H 1372.09 -3.75647 2.67745 0
M  V30 14183 H 1370.33 -3.49179 2.57403 0
M  V30 14184 H 1371 -5.0751 2.17111 0
M  V30 14185 H 1373.48 -4.13195 0.490837 0
M  V30 14186 H 1372.36 -5.4852 0.204344 0
M  V30 14187 H 1372.62 -4.29243 -1.05845 0
M  V30 14188 N 1371.68 -0.573274 -1.46804 0
M  V30 14189 C 1372.59 0.168081 -2.33997 0
M  V30 14190 C 1373.6 0.895652 -1.49178 0
M  V30 14191 O 1374.78 0.860951 -1.8207 0
M  V30 14192 C 1371.84 1.17483 -3.26188 0
M  V30 14193 C 1370.9 0.452956 -4.26904 0
M  V30 14194 C 1370.14 1.41175 -5.1469 0
M  V30 14195 O 1370.36 2.64767 -5.05227 0
M  V30 14196 O 1369.29 0.927472 -5.94711 0
M  V30 14197 H 1373.12 -0.547576 -2.98723 0
M  V30 14198 H 1370.71 -0.333747 -1.45624 0
M  V30 14199 H 1372.59 1.75557 -3.8309 0
M  V30 14200 H 1371.26 1.87213 -2.6407 0
M  V30 14201 H 1370.17 -0.169383 -3.73716 0
M  V30 14202 H 1371.5 -0.203186 -4.9178 0
M  V30 14203 N 1373.15 1.5451 -0.310553 0
M  V30 14204 C 1374.43 1.92452 0.34951 0
M  V30 14205 C 1374.81 1.23881 1.70929 0
M  V30 14206 O 1374.16 0.377898 2.25353 0
M  V30 14207 C 1374.37 3.46026 0.454675 0
M  V30 14208 C 1375.72 4.18432 0.721071 0
M  V30 14209 O 1376.74 3.52112 0.538112 0
M  V30 14210 O 1375.6 5.3586 1.07314 0
M  V30 14211 H 1372.69 0.803168 0.197103 0
M  V30 14212 H 1375.24 1.65852 -0.359313 0
M  V30 14213 H 1374.01 3.88081 -0.500853 0
M  V30 14214 H 1373.64 3.7869 1.21159 0
M  V30 14215 N 1374.63 0.0384594 1.57553 0
M  V30 14216 C 1375.88 -0.639085 1.92467 0
M  V30 14217 C 1376.21 -1.71239 0.916014 0
M  V30 14218 O 1375.49 -1.94408 -0.0598928 0
M  V30 14219 C 1375.77 -1.24693 3.37822 0
M  V30 14220 C 1375.62 -0.182544 4.49429 0
M  V30 14221 C 1376.94 -2.16226 3.8332 0
M  V30 14222 H 1374.06 -0.230852 0.699912 0
M  V30 14223 H 1376.7 0.0976276 1.89749 0
M  V30 14224 H 1374.85 -1.87481 3.40269 0
M  V30 14225 H 1376.53 0.448622 4.59113 0
M  V30 14226 H 1374.77 0.4909 4.31013 0
M  V30 14227 H 1375.44 -0.647626 5.48188 0
M  V30 14228 H 1377.92 -1.63413 3.82669 0
M  V30 14229 H 1376.79 -2.55705 4.85702 0
M  V30 14230 H 1377.05 -3.05722 3.19353 0
M  V30 14231 N 1376.11 -1.55841 -0.234795 0
M  V30 14232 C 1377.39 -1.69008 -0.984665 0
M  V30 14233 C 1377.77 -0.581882 -2.02922 0
M  V30 14234 O 1377.12 0.412998 -2.24737 0
M  V30 14235 C 1377.33 -3.09796 -1.60708 0
M  V30 14236 C 1378.67 -3.68784 -2.10436 0
M  V30 14237 O 1379.7 -3.12674 -1.70627 0
M  V30 14238 O 1378.56 -4.67175 -2.83567 0
M  V30 14239 H 1375.65 -0.68786 -0.459105 0
M  V30 14240 H 1378.2 -1.68166 -0.227623 0
M  V30 14241 H 1376.97 -3.81908 -0.852169 0
M  V30 14242 H 1376.59 -3.147 -2.43001 0
M  V30 14243 N 1377.59 0.500963 -1.49426 0
M  V30 14244 C 1378.52 1.61114 -1.69011 0
M  V30 14245 C 1379.5 1.61341 -0.538813 0
M  V30 14246 O 1380.69 1.78081 -0.77466 0
M  V30 14247 C 1377.82 2.99598 -1.75666 0
M  V30 14248 C 1376.77 3.14236 -2.90585 0
M  V30 14249 C 1376.1 4.54071 -2.82354 0
M  V30 14250 C 1377.4 2.94258 -4.3152 0
M  V30 14251 H 1379.09 1.44978 -2.61957 0
M  V30 14252 H 1376.64 0.69603 -1.26061 0
M  V30 14253 H 1378.59 3.77163 -1.87953 0
M  V30 14254 H 1377.31 3.16822 -0.793186 0
M  V30 14255 H 1375.97 2.39096 -2.779 0
M  V30 14256 H 1375.62 4.68172 -1.83914 0
M  V30 14257 H 1375.32 4.64806 -3.59485 0
M  V30 14258 H 1376.84 5.33696 -2.96649 0
M  V30 14259 H 1378.26 3.61592 -4.44886 0
M  V30 14260 H 1376.65 3.16464 -5.09873 0
M  V30 14261 H 1377.72 1.90383 -4.45962 0
M  V30 14262 N 1379.07 1.38501 0.752011 0
M  V30 14263 C 1380.29 1.38212 1.54636 0
M  V30 14264 C 1380.72 -0.0256356 1.88083 0
M  V30 14265 O 1380.08 -1.00812 1.50687 0
M  V30 14266 C 1380.12 2.24597 2.82114 0
M  V30 14267 O 1379.23 1.66415 3.77332 0
M  V30 14268 H 1378.57 0.47138 0.46765 0
M  V30 14269 H 1381.1 1.82283 0.929205 0
M  V30 14270 H 1381.11 2.38511 3.31023 0
M  V30 14271 H 1379.78 3.26913 2.57101 0
M  V30 14272 H 1378.36 1.61651 3.36041 0
M  V30 14273 N 1380.55 -0.980364 1.23396 0
M  V30 14274 C 1381.49 -2.07275 1.01516 0
M  V30 14275 C 1382.46 -1.65963 -0.0673729 0
M  V30 14276 O 1383.65 -1.90612 0.0847392 0
M  V30 14277 C 1380.79 -3.39621 0.61249 0
M  V30 14278 C 1379.9 -3.94203 1.76715 0
M  V30 14279 C 1379.04 -5.14761 1.31126 0
M  V30 14280 C 1378.07 -5.61509 2.43667 0
M  V30 14281 N 1377.21 -6.73297 1.99035 0
M  V30 14282 H 1382.05 -2.25325 1.9502 0
M  V30 14283 H 1379.59 -1.10452 0.971532 0
M  V30 14284 H 1381.55 -4.15643 0.360126 0
M  V30 14285 H 1380.18 -3.21535 -0.285539 0
M  V30 14286 H 1379.23 -3.14937 2.13352 0
M  V30 14287 H 1380.54 -4.24867 2.61323 0
M  V30 14288 H 1379.69 -5.98115 1.01702 0
M  V30 14289 H 1378.43 -4.85751 0.435555 0
M  V30 14290 H 1377.44 -4.76737 2.73865 0
M  V30 14291 H 1378.66 -5.92539 3.31774 0
M  V30 14292 H 1376.61 -6.46046 1.13845 0
M  V30 14293 H 1376.53 -7.03345 2.77203 0
M  V30 14294 H 1377.79 -7.60125 1.72716 0
M  V30 14295 N 1382.02 -1.04567 -1.17913 0
M  V30 14296 C 1383.43 -0.779118 -1.69666 0
M  V30 14297 C 1383.79 0.699448 -1.83309 0
M  V30 14298 O 1382.91 1.54407 -1.51616 0
M  V30 14299 C 1383.51 -1.40769 -3.08171 0
M  V30 14300 C 1382.06 -1.18933 -3.57116 0
M  V30 14301 C 1381.21 -1.49519 -2.33536 0
M  V30 14302 H 1384.16 -1.21144 -1.02518 0
M  V30 14303 H 1384.18 -0.813584 -3.717 0
M  V30 14304 H 1383.7 -2.4838 -2.9821 0
M  V30 14305 H 1381.8 -0.132184 -3.72365 0
M  V30 14306 H 1381.91 -1.88987 -4.40251 0
M  V30 14307 H 1380.27 -0.915056 -2.37695 0
M  V30 14308 H 1381.06 -2.5825 -2.26189 0
M  V30 14309 N 1383.5 1.34231 -0.825823 0
M  V30 14310 C 1384.75 1.9849 -0.415891 0
M  V30 14311 C 1385.08 1.6531 1.01913 0
M  V30 14312 O 1384.36 0.926223 1.7103 0
M  V30 14313 C 1384.64 3.54691 -0.621785 0
M  V30 14314 C 1384.49 3.97603 -2.10313 0
M  V30 14315 C 1385.81 4.4006 -0.0595871 0
M  V30 14316 H 1382.93 0.721032 -0.152582 0
M  V30 14317 H 1385.57 1.5908 -1.03892 0
M  V30 14318 H 1383.72 3.88392 -0.0914439 0
M  V30 14319 H 1385.39 3.74221 -2.69733 0
M  V30 14320 H 1383.64 3.47809 -2.59251 0
M  V30 14321 H 1384.31 5.06352 -2.19799 0
M  V30 14322 H 1386.78 4.12929 -0.512743 0
M  V30 14323 H 1385.66 5.48403 -0.233431 0
M  V30 14324 H 1385.92 4.29798 1.03568 0
M  V30 14325 N 1384.98 0.581051 1.46498 0
M  V30 14326 C 1386.2 0.0696654 2.07283 0
M  V30 14327 C 1386.63 -1.22525 1.42721 0
M  V30 14328 O 1385.99 -1.73967 0.510421 0
M  V30 14329 C 1386.04 -0.0843864 3.60501 0
M  V30 14330 O 1385.14 -1.14129 3.96293 0
M  V30 14331 H 1384.48 0.0620572 0.661094 0
M  V30 14332 H 1387.01 0.803522 1.88161 0
M  V30 14333 H 1387.02 -0.29108 4.0696 0
M  V30 14334 H 1385.7 0.861274 4.06884 0
M  V30 14335 H 1384.27 -0.913186 3.61546 0
M  V30 14336 N 1386.46 -1.54343 0.318742 0
M  V30 14337 C 1387.69 -2.04894 -0.287378 0
M  V30 14338 C 1388.1 -1.19514 -1.46157 0
M  V30 14339 O 1387.46 -0.224722 -1.81111 0
M  V30 14340 C 1387.51 -3.54124 -0.726505 0
M  V30 14341 O 1387.23 -4.36261 0.400968 0
M  V30 14342 C 1388.73 -4.20748 -1.39594 0
M  V30 14343 H 1385.95 -0.668323 -0.0598724 0
M  V30 14344 H 1388.49 -1.99177 0.463531 0
M  V30 14345 H 1386.65 -3.60145 -1.4274 0
M  V30 14346 H 1387.06 -5.2447 0.0558714 0
M  V30 14347 H 1388.54 -5.26632 -1.65418 0
M  V30 14348 H 1389.01 -3.71566 -2.3417 0
M  V30 14349 H 1389.62 -4.18852 -0.737749 0
M  V30 14350 N 1387.94 -0.0468143 -1.5753 0
M  V30 14351 C 1389.18 0.628869 -1.92803 0
M  V30 14352 C 1389.51 1.70751 -0.925083 0
M  V30 14353 O 1388.79 1.94437 0.0495821 0
M  V30 14354 C 1389.07 1.22899 -3.38479 0
M  V30 14355 C 1388.93 0.158707 -4.4952 0
M  V30 14356 C 1390.24 2.1419 -3.84461 0
M  V30 14357 H 1387.36 0.227137 -0.701126 0
M  V30 14358 H 1390.01 -0.107689 -1.89695 0
M  V30 14359 H 1388.16 1.85674 -3.41259 0
M  V30 14360 H 1389.83 -0.472963 -4.58869 0
M  V30 14361 H 1388.07 -0.51375 -4.30747 0
M  V30 14362 H 1388.74 0.618545 -5.48523 0
M  V30 14363 H 1391.22 1.61382 -3.8353 0
M  V30 14364 H 1390.09 2.53125 -4.87051 0
M  V30 14365 H 1390.35 3.04024 -3.2097 0
M  V30 14366 N 1389.41 1.55964 0.226527 0
M  V30 14367 C 1390.83 1.68978 0.793936 0
M  V30 14368 C 1391.18 0.647938 1.85192 0
M  V30 14369 O 1390.3 -0.201907 2.15456 0
M  V30 14370 C 1390.9 3.06351 1.44687 0
M  V30 14371 C 1389.46 3.21237 1.96173 0
M  V30 14372 C 1388.6 2.64896 0.8201 0
M  V30 14373 H 1391.55 1.587 0.00195967 0
M  V30 14374 H 1391.57 3.01932 2.31554 0
M  V30 14375 H 1391.09 3.82156 0.676611 0
M  V30 14376 H 1389.19 2.50292 2.76016 0
M  V30 14377 H 1389.3 4.28394 2.14512 0
M  V30 14378 H 1387.66 2.23247 1.22609 0
M  V30 14379 H 1388.45 3.43243 0.0625967 0
M  V30 14380 N 1390.89 -0.493031 1.4969 0
M  V30 14381 C 1391.82 -1.61058 1.63074 0
M  V30 14382 C 1392.84 -1.54504 0.513069 0
M  V30 14383 O 1394.03 -1.60291 0.785431 0
M  V30 14384 C 1391.13 -2.99877 1.57883 0
M  V30 14385 C 1390.3 -3.31531 2.85317 0
M  V30 14386 C 1389.36 -4.49799 2.7307 0
M  V30 14387 O 1388.38 -4.51189 3.47012 0
M  V30 14388 N 1389.59 -5.50182 1.85148 0
M  V30 14389 H 1392.35 -1.5 2.59461 0
M  V30 14390 H 1389.91 -0.681057 1.46878 0
M  V30 14391 H 1391.9 -3.76928 1.47333 0
M  V30 14392 H 1390.47 -3.04817 0.693218 0
M  V30 14393 H 1389.69 -2.433 3.10159 0
M  V30 14394 H 1390.98 -3.49481 3.69784 0
M  V30 14395 H 1390.38 -5.51865 1.24345 0
M  V30 14396 H 1388.94 -6.26305 1.80516 0
M  V30 14397 N 1392.37 -1.38898 -0.744656 0
M  V30 14398 C 1393.62 -1.35595 -1.50401 0
M  V30 14399 C 1393.95 0.0511979 -1.94433 0
M  V30 14400 O 1393.2 1.03011 -1.66395 0
M  V30 14401 C 1393.5 -2.2658 -2.76398 0
M  V30 14402 C 1393.17 -3.74389 -2.51283 0
M  V30 14403 C 1391.83 -4.14666 -2.44143 0
M  V30 14404 C 1394.18 -4.67916 -2.29573 0
M  V30 14405 C 1391.51 -5.46545 -2.1332 0
M  V30 14406 C 1393.86 -6.00063 -2.00269 0
M  V30 14407 C 1392.52 -6.39413 -1.91591 0
M  V30 14408 H 1391.79 -0.496176 -0.550355 0
M  V30 14409 H 1394.44 -1.71328 -0.855514 0
M  V30 14410 H 1392.75 -1.83933 -3.45942 0
M  V30 14411 H 1394.44 -2.21323 -3.34391 0
M  V30 14412 H 1391.03 -3.42463 -2.57715 0
M  V30 14413 H 1395.22 -4.37639 -2.34063 0
M  V30 14414 H 1390.47 -5.75966 -2.05117 0
M  V30 14415 H 1394.65 -6.72068 -1.82476 0
M  V30 14416 H 1392.27 -7.41524 -1.67472 0
M  V30 14417 N 1393.85 0.973806 -1.23914 0
M  V30 14418 C 1394.81 2.04892 -1.02723 0
M  V30 14419 C 1395.81 1.60795 0.0132972 0
M  V30 14420 O 1397 1.72714 -0.227084 0
M  V30 14421 C 1394.13 3.36341 -0.555667 0
M  V30 14422 H 1395.33 2.25124 -1.98139 0
M  V30 14423 H 1392.88 1.14817 -1.06051 0
M  V30 14424 H 1393.61 3.21799 0.40197 0
M  V30 14425 H 1393.4 3.69689 -1.30661 0
M  V30 14426 H 1394.89 4.15398 -0.428248 0
M  V30 14427 N 1395.33 1.05191 1.17357 0
M  V30 14428 C 1396.28 0.623047 2.19322 0
M  V30 14429 C 1397.26 -0.340467 1.57257 0
M  V30 14430 O 1398.45 -0.157698 1.76296 0
M  V30 14431 C 1395.58 -0.000731889 3.433 0
M  V30 14432 C 1394.67 0.986608 4.12464 0
M  V30 14433 N 1395.06 2.158 4.57454 0
M  V30 14434 C 1393.36 0.815082 4.38489 0
M  V30 14435 C 1394.06 2.78262 5.10828 0
M  V30 14436 N 1393.03 2.0606 5.03031 0
M  V30 14437 H 1396.84 1.51555 2.5181 0
M  V30 14438 H 1394.35 0.922048 1.33686 0
M  V30 14439 H 1396.35 -0.325738 4.15625 0
M  V30 14440 H 1395.01 -0.888627 3.12304 0
M  V30 14441 H 1396.02 2.53634 4.51542 0
M  V30 14442 H 1392.69 -0.021765 4.17494 0
M  V30 14443 H 1394.08 3.77599 5.55759 0
M  V30 14444 N 1396.8 -1.33791 0.83293 0
M  V30 14445 C 1398.03 -2.02187 0.439077 0
M  V30 14446 C 1398.45 -1.62692 -0.957958 0
M  V30 14447 O 1397.8 -0.837302 -1.62159 0
M  V30 14448 C 1397.86 -3.57395 0.543232 0
M  V30 14449 O 1397.58 -3.95463 1.88522 0
M  V30 14450 C 1399.08 -4.43061 0.145567 0
M  V30 14451 H 1396.3 -0.64778 0.174992 0
M  V30 14452 H 1398.84 -1.7085 1.12386 0
M  V30 14453 H 1397 -3.87287 -0.0935746 0
M  V30 14454 H 1397.41 -4.90164 1.86653 0
M  V30 14455 H 1398.88 -5.51342 0.269507 0
M  V30 14456 H 1399.36 -4.29628 -0.911934 0
M  V30 14457 H 1399.97 -4.18517 0.756572 0
M  V30 14458 N 1398.28 -0.588812 -1.46187 0
M  V30 14459 C 1399.51 -0.0806571 -2.07243 0
M  V30 14460 C 1399.93 1.21766 -1.43369 0
M  V30 14461 O 1399.29 1.73694 -0.51964 0
M  V30 14462 C 1399.34 0.065267 -3.60541 0
M  V30 14463 O 1398.44 1.12026 -3.96893 0
M  V30 14464 H 1397.78 -0.0655622 -0.660755 0
M  V30 14465 H 1400.31 -0.813489 -1.87733 0
M  V30 14466 H 1400.32 0.269494 -4.07109 0
M  V30 14467 H 1399 -0.88284 -4.06422 0
M  V30 14468 H 1397.58 0.894 -3.62025 0
M  V30 14469 N 1399.76 1.54172 -0.326923 0
M  V30 14470 C 1400.67 2.28149 0.546351 0
M  V30 14471 C 1401.69 1.32628 1.12631 0
M  V30 14472 O 1402.86 1.65647 1.14556 0
M  V30 14473 C 1399.93 3.02742 1.68962 0
M  V30 14474 C 1398.99 4.13856 1.14112 0
M  V30 14475 C 1398.22 4.84882 2.2299 0
M  V30 14476 O 1398.44 4.55448 3.43399 0
M  V30 14477 O 1397.38 5.71714 1.8822 0
M  V30 14478 H 1401.2 3.03651 -0.0545288 0
M  V30 14479 H 1398.79 1.49113 -0.0925027 0
M  V30 14480 H 1400.67 3.49443 2.35515 0
M  V30 14481 H 1399.35 2.30113 2.27662 0
M  V30 14482 H 1398.25 3.71497 0.440579 0
M  V30 14483 H 1399.59 4.88539 0.599211 0
M  V30 14484 N 1401.24 0.0551678 1.57503 0
M  V30 14485 C 1402.48 -0.618636 1.93134 0
M  V30 14486 C 1402.82 -1.70258 0.934125 0
M  V30 14487 O 1402.09 -1.9446 -0.0392699 0
M  V30 14488 C 1402.38 -1.21103 3.39126 0
M  V30 14489 C 1402.23 -0.134865 4.49598 0
M  V30 14490 C 1403.55 -2.12148 3.85592 0
M  V30 14491 H 1400.67 -0.223416 0.702321 0
M  V30 14492 H 1403.31 0.117748 1.89635 0
M  V30 14493 H 1401.46 -1.83862 3.42238 0
M  V30 14494 H 1403.13 0.497292 4.58612 0
M  V30 14495 H 1401.37 0.536587 4.30469 0
M  V30 14496 H 1402.04 -0.589447 5.48844 0
M  V30 14497 H 1404.52 -1.59346 3.8438 0
M  V30 14498 H 1403.4 -2.50539 4.88387 0
M  V30 14499 H 1403.66 -3.02318 3.22578 0
M  V30 14500 N 1402.72 -1.56081 -0.218252 0
M  V30 14501 C 1403.63 -1.95856 -1.29141 0
M  V30 14502 C 1404.64 -0.862857 -1.51099 0
M  V30 14503 O 1405.82 -1.1667 -1.64165 0
M  V30 14504 C 1402.88 -2.27005 -2.62049 0
M  V30 14505 C 1401.94 -3.50162 -2.48365 0
M  V30 14506 C 1401.18 -3.79815 -3.74935 0
M  V30 14507 O 1401.4 -3.11095 -4.78096 0
M  V30 14508 O 1400.33 -4.73299 -3.71849 0
M  V30 14509 H 1404.16 -2.8732 -0.983922 0
M  V30 14510 H 1401.75 -1.43334 -0.421385 0
M  V30 14511 H 1403.63 -2.4822 -3.40536 0
M  V30 14512 H 1402.3 -1.38715 -2.92472 0
M  V30 14513 H 1401.21 -3.34222 -1.68066 0
M  V30 14514 H 1402.54 -4.38845 -2.22881 0
M  V30 14515 N 1404.2 0.485086 -1.49949 0
M  V30 14516 C 1405.44 1.23571 -1.5992 0
M  V30 14517 C 1405.76 1.92754 -0.295108 0
M  V30 14518 O 1405.03 1.83474 0.686582 0
M  V30 14519 H 1403.61 0.459104 -0.589264 0
M  V30 14520 H 1406.28 0.560822 -1.86657 0
M  V30 14521 H 1405.37 1.99114 -2.40333 0
M  V30 14522 N 1405.67 1.39291 0.737279 0
M  V30 14523 C 1406.6 1.40562 1.86452 0
M  V30 14524 C 1407.58 0.269283 1.67955 0
M  V30 14525 O 1408.77 0.474769 1.88307 0
M  V30 14526 C 1405.9 1.2461 3.24175 0
M  V30 14527 C 1404.85 2.35619 3.57306 0
M  V30 14528 C 1404.18 2.04758 4.93941 0
M  V30 14529 C 1405.48 3.77927 3.60512 0
M  V30 14530 H 1407.17 2.34896 1.85646 0
M  V30 14531 H 1404.72 1.13065 0.891756 0
M  V30 14532 H 1406.67 1.2412 4.02706 0
M  V30 14533 H 1405.4 0.267438 3.25503 0
M  V30 14534 H 1404.06 2.35322 2.81104 0
M  V30 14535 H 1403.7 1.05336 4.91847 0
M  V30 14536 H 1403.4 2.79117 5.17076 0
M  V30 14537 H 1404.93 2.05915 5.74832 0
M  V30 14538 H 1406.34 3.80166 4.29123 0
M  V30 14539 H 1404.74 4.51626 3.95164 0
M  V30 14540 H 1405.81 4.09068 2.60368 0
M  V30 14541 N 1407.15 -0.967221 1.24429 0
M  V30 14542 C 1408.11 -2.04344 1.03808 0
M  V30 14543 C 1409.11 -1.60799 -0.00476972 0
M  V30 14544 O 1410.3 -1.72591 0.236241 0
M  V30 14545 C 1407.44 -3.36041 0.573496 0
M  V30 14546 H 1408.63 -2.2407 1.9933 0
M  V30 14547 H 1406.18 -1.14253 1.06658 0
M  V30 14548 H 1406.92 -3.22008 -0.384898 0
M  V30 14549 H 1406.7 -3.68991 1.32619 0
M  V30 14550 H 1408.19 -4.15165 0.450272 0
M  V30 14551 N 1408.63 -1.05812 -1.16797 0
M  V30 14552 C 1409.88 -0.771923 -1.8721 0
M  V30 14553 C 1410.2 0.701365 -1.81414 0
M  V30 14554 O 1409.46 1.5292 -1.22122 0
M  V30 14555 C 1409.76 -1.20565 -3.3645 0
M  V30 14556 C 1409.42 -2.68222 -3.62447 0
M  V30 14557 C 1408.09 -3.08556 -3.69251 0
M  V30 14558 C 1410.44 -3.63607 -3.73416 0
M  V30 14559 C 1407.77 -4.43126 -3.84521 0
M  V30 14560 C 1410.12 -4.97918 -3.90205 0
M  V30 14561 C 1408.78 -5.37897 -3.9525 0
M  V30 14562 H 1408.05 -0.282467 -0.68505 0
M  V30 14563 H 1410.7 -1.32633 -1.38133 0
M  V30 14564 H 1409 -0.570347 -3.87626 0
M  V30 14565 H 1410.7 -0.961326 -3.89306 0
M  V30 14566 H 1407.29 -2.3599 -3.5778 0
M  V30 14567 H 1411.48 -3.33581 -3.67474 0
M  V30 14568 H 1406.73 -4.73593 -3.86677 0
M  V30 14569 H 1410.91 -5.71716 -3.97635 0
M  V30 14570 H 1408.53 -6.42176 -4.06834 0
M  V30 14571 N 1410.11 1.33347 -0.840014 0
M  V30 14572 C 1411.35 1.98037 -0.43692 0
M  V30 14573 C 1411.69 1.66382 1.00154 0
M  V30 14574 O 1410.96 0.944311 1.70038 0
M  V30 14575 C 1411.24 3.54012 -0.65937 0
M  V30 14576 C 1411.1 3.9535 -2.14518 0
M  V30 14577 C 1412.42 4.39972 -0.106258 0
M  V30 14578 H 1409.54 0.719373 -0.160221 0
M  V30 14579 H 1412.18 1.57969 -1.05574 0
M  V30 14580 H 1410.33 3.88274 -0.132633 0
M  V30 14581 H 1412 3.7134 -2.73687 0
M  V30 14582 H 1410.24 3.4504 -2.62926 0
M  V30 14583 H 1410.91 5.03992 -2.25158 0
M  V30 14584 H 1413.39 4.12362 -0.556511 0
M  V30 14585 H 1412.27 5.48125 -0.291583 0
M  V30 14586 H 1412.53 4.30872 0.990032 0
M  V30 14587 N 1411.59 0.596556 1.45873 0
M  V30 14588 C 1412.81 0.0916466 2.07197 0
M  V30 14589 C 1413.24 -1.21004 1.44012 0
M  V30 14590 O 1412.59 -1.73415 0.528844 0
M  V30 14591 C 1412.64 -0.0461457 3.6057 0
M  V30 14592 O 1411.75 -1.09919 3.97481 0
M  V30 14593 H 1411.09 0.0690655 0.660398 0
M  V30 14594 H 1413.62 0.823434 1.87299 0
M  V30 14595 H 1413.63 -0.2479 4.07246 0
M  V30 14596 H 1412.3 0.904381 4.05948 0
M  V30 14597 H 1410.88 -0.874788 3.62494 0
M  V30 14598 N 1413.06 -1.53996 0.335095 0
M  V30 14599 C 1414.29 -2.0489 -0.265245 0
M  V30 14600 C 1414.7 -1.21024 -1.4543 0
M  V30 14601 O 1414.04 -0.236417 -1.82172 0
M  V30 14602 C 1414.11 -3.51546 -0.752018 0
M  V30 14603 C 1413.77 -4.55904 0.316261 0
M  V30 14604 C 1414.77 -5.06881 1.15617 0
M  V30 14605 C 1412.45 -5.00117 0.467762 0
M  V30 14606 C 1414.45 -6.00644 2.13321 0
M  V30 14607 C 1412.13 -5.93692 1.4482 0
M  V30 14608 C 1413.13 -6.43842 2.27938 0
M  V30 14609 O 1412.82 -7.35578 3.24315 0
M  V30 14610 H 1412.55 -0.673631 -0.0565427 0
M  V30 14611 H 1415.11 -1.99646 0.482771 0
M  V30 14612 H 1413.34 -3.54227 -1.55114 0
M  V30 14613 H 1415.02 -3.85455 -1.27197 0
M  V30 14614 H 1415.79 -4.73494 1.05017 0
M  V30 14615 H 1411.67 -4.60689 -0.169338 0
M  V30 14616 H 1415.21 -6.39711 2.78236 0
M  V30 14617 H 1411.11 -6.26495 1.5548 0
M  V30 14618 H 1411.88 -7.53487 3.19688 0
M  V30 14619 N 1414.54 -0.0635198 -1.57472 0
M  V30 14620 C 1415.77 0.620205 -1.9791 0
M  V30 14621 C 1416.19 1.62851 -0.941335 0
M  V30 14622 O 1415.55 1.81056 0.0940313 0
M  V30 14623 C 1415.6 1.27261 -3.37397 0
M  V30 14624 O 1414.7 2.38841 -3.36197 0
M  V30 14625 H 1414.04 0.16021 -0.644382 0
M  V30 14626 H 1416.57 -0.135582 -2.0415 0
M  V30 14627 H 1416.58 1.6214 -3.74399 0
M  V30 14628 H 1415.26 0.533723 -4.12461 0
M  V30 14629 H 1413.83 2.05817 -3.10956 0
M  V30 14630 N 1416.02 1.56195 0.209972 0
M  V30 14631 C 1417.24 1.84189 0.953364 0
M  V30 14632 C 1417.67 0.645288 1.76685 0
M  V30 14633 O 1417.03 -0.405962 1.76696 0
M  V30 14634 C 1417.08 3.10281 1.83733 0
M  V30 14635 O 1416.18 2.89788 2.93422 0
M  V30 14636 H 1415.52 0.606931 0.269314 0
M  V30 14637 H 1418.05 2.03416 0.219783 0
M  V30 14638 H 1418.06 3.40688 2.2449 0
M  V30 14639 H 1416.74 3.97 1.23951 0
M  V30 14640 H 1415.31 2.70643 2.56528 0
M  V30 14641 N 1417.5 -0.477127 1.50204 0
M  V30 14642 C 1418.73 -1.25307 1.64638 0
M  V30 14643 C 1419.14 -1.85942 0.327274 0
M  V30 14644 O 1418.5 -1.6895 -0.690088 0
M  V30 14645 C 1418.55 -2.36616 2.73304 0
M  V30 14646 O 1418.27 -1.78469 4.00101 0
M  V30 14647 C 1419.77 -3.27595 2.98658 0
M  V30 14648 H 1416.99 -0.379192 0.553583 0
M  V30 14649 H 1419.53 -0.5702 1.9639 0
M  V30 14650 H 1417.69 -3.00689 2.44264 0
M  V30 14651 H 1418.1 -2.51722 4.60148 0
M  V30 14652 H 1419.58 -4.01921 3.7837 0
M  V30 14653 H 1420.05 -3.86017 2.09493 0
M  V30 14654 H 1420.66 -2.69264 3.29206 0
M  V30 14655 N 1418.98 -1.3968 -0.729882 0
M  V30 14656 C 1419.91 -1.34713 -1.85432 0
M  V30 14657 C 1420.92 -0.254999 -1.60791 0
M  V30 14658 O 1422.11 -0.514324 -1.7093 0
M  V30 14659 C 1419.21 -1.07019 -3.21559 0
M  V30 14660 C 1418.38 -2.27609 -3.73515 0
M  V30 14661 C 1417.44 -1.96292 -4.88217 0
M  V30 14662 O 1416.47 -2.69025 -5.01612 0
M  V30 14663 N 1417.67 -0.932181 -5.72967 0
M  V30 14664 H 1420.44 -2.31616 -1.90195 0
M  V30 14665 H 1418 -1.33849 -0.910834 0
M  V30 14666 H 1419.99 -0.84079 -3.9587 0
M  V30 14667 H 1418.56 -0.188323 -3.12032 0
M  V30 14668 H 1417.78 -2.66468 -2.90497 0
M  V30 14669 H 1419.07 -3.08033 -4.04961 0
M  V30 14670 H 1418.46 -0.329507 -5.6474 0
M  V30 14671 H 1417.02 -0.762684 -6.47322 0
M  V30 14672 N 1420.45 0.960609 -1.2494 0
M  V30 14673 C 1421.36 2.0902 -1.06527 0
M  V30 14674 C 1422.38 1.74 -0.00406641 0
M  V30 14675 O 1423.56 2.00367 -0.203744 0
M  V30 14676 C 1420.62 3.39971 -0.679736 0
M  V30 14677 C 1419.68 3.88895 -1.81821 0
M  V30 14678 C 1418.92 5.13597 -1.45098 0
M  V30 14679 O 1419.14 5.69362 -0.343954 0
M  V30 14680 O 1418.07 5.57083 -2.27909 0
M  V30 14681 H 1421.9 2.27453 -2.01243 0
M  V30 14682 H 1419.48 1.07429 -1.03824 0
M  V30 14683 H 1421.37 4.18696 -0.47658 0
M  V30 14684 H 1420.04 3.22822 0.238231 0
M  V30 14685 H 1418.95 3.11201 -2.07617 0
M  V30 14686 H 1420.28 4.10533 -2.7152 0
M  V30 14687 N 1421.93 1.0643 1.16234 0
M  V30 14688 C 1423.34 0.806012 1.68405 0
M  V30 14689 C 1423.69 -0.670197 1.84398 0
M  V30 14690 O 1422.82 -1.51975 1.54054 0
M  V30 14691 C 1423.41 1.45654 3.05893 0
M  V30 14692 C 1421.97 1.24599 3.55179 0
M  V30 14693 C 1421.12 1.53216 2.31128 0
M  V30 14694 H 1424.07 1.22759 1.00578 0
M  V30 14695 H 1424.09 0.872616 3.70359 0
M  V30 14696 H 1423.6 2.53092 2.94221 0
M  V30 14697 H 1421.71 0.191407 3.72108 0
M  V30 14698 H 1421.82 1.95967 4.37188 0
M  V30 14699 H 1420.18 0.952755 2.36209 0
M  V30 14700 H 1420.97 2.61816 2.22052 0
M  V30 14701 N 1423.41 -1.329 0.847073 0
M  V30 14702 C 1424.64 -2.0171 0.460497 0
M  V30 14703 C 1425.05 -1.63699 -0.940649 0
M  V30 14704 O 1424.41 -0.854454 -1.61262 0
M  V30 14705 C 1424.46 -3.56799 0.581108 0
M  V30 14706 O 1424.18 -3.93442 1.92705 0
M  V30 14707 C 1425.68 -4.42882 0.192552 0
M  V30 14708 H 1422.9 -0.645887 0.181853 0
M  V30 14709 H 1425.45 -1.69648 1.14192 0
M  V30 14710 H 1423.6 -3.87364 -0.0524924 0
M  V30 14711 H 1424.02 -4.88157 1.91841 0
M  V30 14712 H 1425.49 -5.51025 0.327969 0
M  V30 14713 H 1425.97 -4.30571 -0.866315 0
M  V30 14714 H 1426.57 -4.17691 0.800918 0
M  V30 14715 N 1424.89 -0.604284 -1.45555 0
M  V30 14716 C 1426.12 -0.104452 -2.06636 0
M  V30 14717 C 1426.53 1.20976 -1.44949 0
M  V30 14718 O 1425.89 1.73616 -0.562468 0
M  V30 14719 C 1425.94 0.0451646 -3.61472 0
M  V30 14720 O 1425.66 -1.21705 -4.20856 0
M  V30 14721 C 1427.16 0.57684 -4.39531 0
M  V30 14722 H 1424.38 -0.067326 -0.667614 0
M  V30 14723 H 1426.93 -0.831079 -1.86851 0
M  V30 14724 H 1425.08 0.722104 -3.80611 0
M  V30 14725 H 1425.49 -1.04462 -5.13992 0
M  V30 14726 H 1426.97 0.630627 -5.48386 0
M  V30 14727 H 1427.45 1.59842 -4.09081 0
M  V30 14728 H 1428.05 -0.0659444 -4.25249 0
M  V30 14729 N 1426.37 1.53816 -0.343257 0
M  V30 14730 C 1427.6 2.05028 0.254375 0
M  V30 14731 C 1428 1.21793 1.44786 0
M  V30 14732 O 1427.35 0.246075 1.82044 0
M  V30 14733 C 1427.41 3.5194 0.733364 0
M  V30 14734 C 1427.07 4.5573 -0.340434 0
M  V30 14735 C 1428.07 5.06261 -1.18304 0
M  V30 14736 C 1425.76 4.99862 -0.494277 0
M  V30 14737 C 1427.75 5.99504 -2.16503 0
M  V30 14738 C 1425.44 5.92916 -1.47967 0
M  V30 14739 C 1426.43 6.42625 -2.3135 0
M  V30 14740 O 1426.12 7.33848 -3.28211 0
M  V30 14741 H 1425.85 0.673922 0.0529695 0
M  V30 14742 H 1428.41 1.99387 -0.493352 0
M  V30 14743 H 1426.64 3.55044 1.53233 0
M  V30 14744 H 1428.33 3.86124 1.25151 0
M  V30 14745 H 1429.09 4.7293 -1.07527 0
M  V30 14746 H 1424.97 4.60772 0.144904 0
M  V30 14747 H 1428.52 6.38227 -2.81624 0
M  V30 14748 H 1424.41 6.25662 -1.588 0
M  V30 14749 H 1425.18 7.51781 -3.23679 0
M  V30 14750 N 1427.84 0.0718701 1.57436 0
M  V30 14751 C 1429.09 -0.598116 1.93779 0
M  V30 14752 C 1429.42 -1.69258 0.952131 0
M  V30 14753 O 1428.7 -1.94491 -0.0186426 0
M  V30 14754 C 1428.98 -1.17499 3.40391 0
M  V30 14755 C 1428.83 -0.0871719 4.49716 0
M  V30 14756 C 1430.15 -2.08047 3.8782 0
M  V30 14757 H 1427.27 -0.215954 0.704651 0
M  V30 14758 H 1429.91 0.137854 1.89499 0
M  V30 14759 H 1428.06 -1.80221 3.44169 0
M  V30 14760 H 1429.74 0.545906 4.58058 0
M  V30 14761 H 1427.98 0.582213 4.29875 0
M  V30 14762 H 1428.65 -0.531202 5.49438 0
M  V30 14763 H 1431.13 -1.5526 3.86049 0
M  V30 14764 H 1430 -2.45345 4.91016 0
M  V30 14765 H 1430.26 -2.98879 3.25766 0
M  V30 14766 N 1429.32 -1.56304 -0.201686 0
M  V30 14767 C 1430.6 -1.71059 -0.948595 0
M  V30 14768 C 1430.98 -0.624794 -2.01642 0
M  V30 14769 O 1430.33 0.365235 -2.25562 0
M  V30 14770 C 1430.54 -3.13136 -1.54101 0
M  V30 14771 C 1431.89 -3.73165 -2.02567 0
M  V30 14772 O 1432.91 -3.16223 -1.63956 0
M  V30 14773 O 1431.77 -4.73084 -2.73594 0
M  V30 14774 H 1428.86 -0.697443 -0.444412 0
M  V30 14775 H 1431.41 -1.68611 -0.191901 0
M  V30 14776 H 1430.18 -3.8363 -0.770968 0
M  V30 14777 H 1429.8 -3.19784 -2.36271 0
M  V30 14778 N 1430.8 0.469154 -1.50455 0
M  V30 14779 C 1432.03 1.24899 -1.65575 0
M  V30 14780 C 1432.45 1.85009 -0.339581 0
M  V30 14781 O 1431.81 1.67376 0.696774 0
M  V30 14782 C 1431.86 2.33205 -2.75041 0
M  V30 14783 O 1430.96 3.37898 -2.36429 0
M  V30 14784 H 1430.3 0.367362 -0.553119 0
M  V30 14785 H 1432.83 0.558083 -1.96842 0
M  V30 14786 H 1432.84 2.78487 -2.98176 0
M  V30 14787 H 1431.52 1.88826 -3.70564 0
M  V30 14788 H 1430.09 2.98314 -2.23748 0
M  V30 14789 N 1432.28 1.40065 0.722464 0
M  V30 14790 C 1433.5 1.4146 1.5167 0
M  V30 14791 C 1433.93 0.0142653 1.88095 0
M  V30 14792 O 1433.29 -0.975934 1.52791 0
M  V30 14793 C 1433.33 2.30531 2.77287 0
M  V30 14794 O 1432.44 1.74382 3.73717 0
M  V30 14795 H 1431.78 0.481194 0.457546 0
M  V30 14796 H 1434.31 1.84213 0.890331 0
M  V30 14797 H 1434.32 2.45479 3.25889 0
M  V30 14798 H 1432.99 3.32292 2.50109 0
M  V30 14799 H 1431.57 1.68743 3.32536 0
M  V30 14800 N 1433.76 -0.95397 1.25448 0
M  V30 14801 C 1434.71 -2.03623 1.02575 0
M  V30 14802 C 1435.69 -1.60856 -0.0375824 0
M  V30 14803 O 1436.88 -1.76104 0.177833 0
M  V30 14804 C 1434.01 -3.37145 0.64714 0
M  V30 14805 C 1433.1 -3.86434 1.74726 0
M  V30 14806 N 1433.49 -4.08509 2.98251 0
M  V30 14807 C 1431.79 -4.15228 1.62793 0
M  V30 14808 C 1432.49 -4.49137 3.69663 0
M  V30 14809 N 1431.46 -4.55106 2.97287 0
M  V30 14810 H 1435.27 -2.18685 1.96352 0
M  V30 14811 H 1432.78 -1.13884 1.15777 0
M  V30 14812 H 1434.78 -4.14305 0.464462 0
M  V30 14813 H 1433.44 -3.23462 -0.283296 0
M  V30 14814 H 1434.45 -3.95564 3.3429 0
M  V30 14815 H 1431.13 -4.10403 0.766501 0
M  V30 14816 H 1432.52 -4.74515 4.75695 0
M  V30 14817 N 1435.24 -1.07045 -1.15668 0
M  V30 14818 C 1436.46 -0.812746 -1.90268 0
M  V30 14819 C 1436.88 0.633722 -1.77847 0
M  V30 14820 O 1436.24 1.43444 -1.12828 0
M  V30 14821 C 1436.29 -1.20793 -3.40722 0
M  V30 14822 O 1436.01 -2.59764 -3.52781 0
M  V30 14823 C 1437.51 -0.979074 -4.32353 0
M  V30 14824 H 1434.73 -0.294093 -0.603117 0
M  V30 14825 H 1437.27 -1.42609 -1.46571 0
M  V30 14826 H 1435.43 -0.638975 -3.82094 0
M  V30 14827 H 1435.84 -2.75801 -4.46133 0
M  V30 14828 H 1437.32 -1.30513 -5.36349 0
M  V30 14829 H 1437.79 0.0847752 -4.39118 0
M  V30 14830 H 1438.4 -1.53278 -3.96719 0
M  V30 14831 N 1436.71 1.32449 -0.85411 0
M  V30 14832 C 1437.96 1.96537 -0.453451 0
M  V30 14833 C 1438.28 1.68344 0.995982 0
M  V30 14834 O 1439.48 2.26166 1.50204 0
M  V30 14835 C 1437.94 3.51785 -0.759934 0
M  V30 14836 C 1437.55 3.88838 -2.22506 0
M  V30 14837 C 1439.29 4.22347 -0.426973 0
M  V30 14838 C 1437.2 5.37129 -2.47479 0
M  V30 14839 H 1436.13 0.735537 -0.165835 0
M  V30 14840 H 1438.78 1.50851 -1.04481 0
M  V30 14841 H 1437.16 3.95879 -0.0980116 0
M  V30 14842 H 1438.33 3.55756 -2.92873 0
M  V30 14843 H 1436.65 3.31299 -2.52249 0
M  V30 14844 H 1439.25 5.31424 -0.590986 0
M  V30 14845 H 1439.59 4.11485 0.631359 0
M  V30 14846 H 1440.12 3.83835 -1.04477 0
M  V30 14847 H 1436.86 5.53012 -3.51935 0
M  V30 14848 H 1436.38 5.71619 -1.8169 0
M  V30 14849 H 1438.06 6.04204 -2.31401 0
M  V30 14850 N 1438.19 0.611994 1.45232 0
M  V30 14851 C 1439.6 0.193464 1.85695 0
M  V30 14852 C 1439.95 -1.25069 1.5117 0
M  V30 14853 O 1439.08 -1.94894 0.940497 0
M  V30 14854 C 1439.67 0.344334 3.37046 0
M  V30 14855 C 1438.23 -0.0195378 3.76395 0
M  V30 14856 C 1437.38 0.666714 2.69166 0
M  V30 14857 H 1440.33 0.818395 1.35971 0
M  V30 14858 H 1440.35 -0.422209 3.7815 0
M  V30 14859 H 1439.86 1.3955 3.62143 0
M  V30 14860 H 1437.96 -1.06971 3.56915 0
M  V30 14861 H 1438.08 0.377184 4.77613 0
M  V30 14862 H 1436.44 0.103912 2.54488 0
M  V30 14863 H 1437.22 1.7201 2.97099 0
M  V30 14864 N 1439.67 -1.53632 0.351409 0
M  V30 14865 C 1440.6 -2.28217 -0.49391 0
M  V30 14866 C 1441.58 -1.30085 -1.09599 0
M  V30 14867 O 1442.77 -1.58938 -1.1159 0
M  V30 14868 C 1439.9 -3.06085 -1.64102 0
M  V30 14869 C 1438.85 -4.11786 -1.16689 0
M  V30 14870 C 1438.18 -4.77654 -2.40314 0
M  V30 14871 C 1439.48 -5.21644 -0.261742 0
M  V30 14872 H 1441.17 -2.99125 0.1283 0
M  V30 14873 H 1438.72 -1.43861 0.0631462 0
M  V30 14874 H 1440.67 -3.57003 -2.2389 0
M  V30 14875 H 1439.39 -2.32842 -2.29025 0
M  V30 14876 H 1438.05 -3.61792 -0.591784 0
M  V30 14877 H 1437.7 -4.00997 -3.03661 0
M  V30 14878 H 1437.4 -5.49072 -2.09268 0
M  V30 14879 H 1438.92 -5.3136 -3.00813 0
M  V30 14880 H 1440.34 -5.6815 -0.766689 0
M  V30 14881 H 1438.73 -6.00085 -0.0428132 0
M  V30 14882 H 1439.8 -4.79821 0.699999 0
M  V30 14883 N 1441.15 -0.0802183 -1.57396 0
M  V30 14884 C 1442.37 0.599179 -1.98556 0
M  V30 14885 C 1442.8 1.61844 -0.958555 0
M  V30 14886 O 1442.16 1.81146 0.0748226 0
M  V30 14887 C 1442.2 1.23675 -3.38728 0
M  V30 14888 O 1441.31 2.35262 -3.38712 0
M  V30 14889 H 1440.65 0.153366 -0.646045 0
M  V30 14890 H 1443.18 -0.157227 -2.03995 0
M  V30 14891 H 1443.19 1.5816 -3.76098 0
M  V30 14892 H 1441.86 0.489946 -4.13004 0
M  V30 14893 H 1440.44 2.02507 -3.13122 0
M  V30 14894 N 1442.63 1.56409 0.193394 0
M  V30 14895 C 1443.87 1.80991 0.914875 0
M  V30 14896 C 1444.2 0.654538 1.82837 0
M  V30 14897 O 1443.48 -0.344816 1.91419 0
M  V30 14898 C 1443.76 3.15841 1.72964 0
M  V30 14899 C 1443.62 4.41873 0.840748 0
M  V30 14900 C 1444.93 3.474 2.70188 0
M  V30 14901 H 1442.05 0.658408 0.331161 0
M  V30 14902 H 1444.7 1.89125 0.182161 0
M  V30 14903 H 1442.85 3.09038 2.35431 0
M  V30 14904 H 1444.52 4.60723 0.230654 0
M  V30 14905 H 1442.76 4.33549 0.147558 0
M  V30 14906 H 1443.43 5.32728 1.44586 0
M  V30 14907 H 1445.91 3.54513 2.17852 0
M  V30 14908 H 1444.78 4.42872 3.24278 0
M  V30 14909 H 1445.04 2.7098 3.49317 0
M  V30 14910 N 1444.1 -0.461169 1.50702 0
M  V30 14911 C 1445.35 -1.20934 1.61425 0
M  V30 14912 C 1445.67 -1.92884 0.32481 0
M  V30 14913 O 1446.87 -2.69712 0.311081 0
M  V30 14914 C 1445.33 -2.19797 2.84987 0
M  V30 14915 C 1444.94 -1.53604 4.20844 0
M  V30 14916 C 1446.68 -2.95194 3.05059 0
M  V30 14917 C 1444.59 -2.50811 5.35582 0
M  V30 14918 H 1443.52 -0.455088 0.601174 0
M  V30 14919 H 1446.17 -0.478771 1.77144 0
M  V30 14920 H 1444.55 -2.96187 2.62848 0
M  V30 14921 H 1445.72 -0.829345 4.53275 0
M  V30 14922 H 1444.04 -0.904504 4.06457 0
M  V30 14923 H 1446.64 -3.67965 3.87951 0
M  V30 14924 H 1446.98 -3.5516 2.1718 0
M  V30 14925 H 1447.51 -2.25915 3.27425 0
M  V30 14926 H 1444.25 -1.9557 6.25646 0
M  V30 14927 H 1443.77 -3.19604 5.07556 0
M  V30 14928 H 1445.45 -3.12437 5.66561 0
M  V30 14929 N 1445.58 -1.40446 -0.715026 0
M  V30 14930 C 1446.99 -1.34564 -1.29419 0
M  V30 14931 C 1447.34 -0.0193984 -1.9619 0
M  V30 14932 O 1446.47 0.882616 -1.97582 0
M  V30 14933 C 1447.06 -2.43721 -2.35342 0
M  V30 14934 C 1445.62 -2.41297 -2.88881 0
M  V30 14935 C 1444.77 -2.2457 -1.62676 0
M  V30 14936 H 1447.72 -1.50244 -0.511116 0
M  V30 14937 H 1447.74 -2.1166 -3.16197 0
M  V30 14938 H 1447.25 -3.40234 -1.86715 0
M  V30 14939 H 1445.35 -1.48483 -3.41736 0
M  V30 14940 H 1445.47 -3.36903 -3.40637 0
M  V30 14941 H 1443.83 -1.72096 -1.87763 0
M  V30 14942 H 1444.61 -3.23082 -1.16074 0
M  V30 14943 N 1447.06 0.947303 -1.25952 0
M  V30 14944 C 1448.01 2.04511 -1.06976 0
M  V30 14945 C 1448.98 1.66084 0.023347 0
M  V30 14946 O 1450.16 1.9032 -0.135247 0
M  V30 14947 C 1447.3 3.37878 -0.70232 0
M  V30 14948 C 1446.41 3.89379 -1.87105 0
M  V30 14949 C 1445.55 5.11104 -1.44728 0
M  V30 14950 C 1444.59 5.54852 -2.58469 0
M  V30 14951 N 1443.73 6.67784 -2.16817 0
M  V30 14952 H 1448.57 2.20075 -2.00925 0
M  V30 14953 H 1446.1 1.07837 -1.00048 0
M  V30 14954 H 1448.06 4.14542 -0.470199 0
M  V30 14955 H 1446.69 3.22179 0.20019 0
M  V30 14956 H 1445.74 3.09169 -2.21627 0
M  V30 14957 H 1447.05 4.17789 -2.72496 0
M  V30 14958 H 1446.21 5.95208 -1.17525 0
M  V30 14959 H 1444.95 4.84426 -0.564191 0
M  V30 14960 H 1443.95 4.69308 -2.86409 0
M  V30 14961 H 1445.18 5.83534 -3.47368 0
M  V30 14962 H 1443.12 6.428 -1.30934 0
M  V30 14963 H 1443.04 6.95749 -2.95753 0
M  V30 14964 H 1444.31 7.55278 -1.92809 0
M  V30 14965 N 1448.54 1.07657 1.15099 0
M  V30 14966 C 1449.77 0.822825 1.89835 0
M  V30 14967 C 1450.18 -0.624281 1.7818 0
M  V30 14968 O 1449.54 -1.42844 1.13587 0
M  V30 14969 C 1449.59 1.22598 3.40076 0
M  V30 14970 O 1449.31 2.61631 3.51398 0
M  V30 14971 C 1450.81 1.00199 4.31828 0
M  V30 14972 H 1448.03 0.297288 0.601549 0
M  V30 14973 H 1450.58 1.43384 1.45813 0
M  V30 14974 H 1448.73 0.65923 3.8175 0
M  V30 14975 H 1449.14 2.78163 4.44664 0
M  V30 14976 H 1450.62 1.33355 5.35649 0
M  V30 14977 H 1451.1 -0.0614865 4.39157 0
M  V30 14978 H 1451.7 1.5538 3.959 0
M  V30 14979 N 1450.02 -1.31994 0.861122 0
M  V30 14980 C 1451.29 -1.91699 0.388705 0
M  V30 14981 C 1451.67 -1.78412 -1.12838 0
M  V30 14982 O 1451.02 -1.18625 -1.95296 0
M  V30 14983 C 1451.23 -3.38232 0.860248 0
M  V30 14984 C 1452.58 -4.15355 0.881201 0
M  V30 14985 O 1453.6 -3.46977 0.805313 0
M  V30 14986 O 1452.46 -5.37468 0.98945 0
M  V30 14987 H 1449.56 -0.819017 0.114629 0
M  V30 14988 H 1452.1 -1.40721 0.94845 0
M  V30 14989 H 1450.87 -3.41876 1.9036 0
M  V30 14990 H 1450.5 -3.96625 0.278316 0
M  V30 14991 N 1451.49 -0.619688 -1.44906 0
M  V30 14992 C 1452.74 -0.128286 -2.02995 0
M  V30 14993 C 1453.1 1.23194 -1.47787 0
M  V30 14994 O 1452.39 1.80316 -0.64782 0
M  V30 14995 C 1452.58 -0.0432891 -3.57374 0
M  V30 14996 C 1452.41 -1.39373 -4.27557 0
M  V30 14997 C 1451.18 -1.97756 -4.64995 0
M  V30 14998 C 1453.38 -2.32512 -4.5874 0
M  V30 14999 N 1451.36 -3.26154 -5.20093 0
M  V30 15000 C 1452.73 -3.45517 -5.14799 0
M  V30 15001 C 1454.79 -2.31734 -4.40685 0
M  V30 15002 C 1453.49 -4.57924 -5.54706 0
M  V30 15003 C 1455.52 -3.43197 -4.81632 0
M  V30 15004 C 1454.88 -4.54924 -5.37795 0
M  V30 15005 H 1450.98 -0.0905961 -0.776734 0
M  V30 15006 H 1453.56 -0.820685 -1.76558 0
M  V30 15007 H 1451.73 0.61836 -3.83446 0
M  V30 15008 H 1453.46 0.455886 -4.02124 0
M  V30 15009 H 1450.22 -1.50826 -4.48941 0
M  V30 15010 H 1450.64 -3.91768 -5.52129 0
M  V30 15011 H 1455.29 -1.46609 -3.96567 0
M  V30 15012 H 1453 -5.43765 -5.97784 0
M  V30 15013 H 1456.59 -3.43757 -4.69385 0
M  V30 15014 H 1455.47 -5.39748 -5.68896 0
M  V30 15015 N 1452.97 1.53444 -0.359552 0
M  V30 15016 C 1454.22 2.00769 0.231564 0
M  V30 15017 C 1454.54 1.2487 1.49775 0
M  V30 15018 O 1453.81 0.360284 1.92558 0
M  V30 15019 H 1452.39 0.741732 0.0885581 0
M  V30 15020 H 1455.05 1.88785 -0.484397 0
M  V30 15021 H 1454.15 3.0865 0.462789 0
M  V30 15022 N 1454.45 0.0885642 1.57351 0
M  V30 15023 C 1455.7 -0.57753 1.94403 0
M  V30 15024 C 1456.03 -1.68238 0.970029 0
M  V30 15025 O 1455.3 -1.945 0.00198684 0
M  V30 15026 C 1455.59 -1.13882 3.41618 0
M  V30 15027 C 1455.44 -0.0394686 4.49783 0
M  V30 15028 C 1456.76 -2.03922 3.90005 0
M  V30 15029 H 1453.88 -0.208468 0.706902 0
M  V30 15030 H 1456.52 0.157945 1.89342 0
M  V30 15031 H 1454.67 -1.76561 3.46061 0
M  V30 15032 H 1456.34 0.594458 4.57454 0
M  V30 15033 H 1454.59 0.627775 4.29234 0
M  V30 15034 H 1455.26 -0.472897 5.49971 0
M  V30 15035 H 1457.73 -1.51156 3.87674 0
M  V30 15036 H 1456.61 -2.40123 4.93591 0
M  V30 15037 H 1456.87 -2.95407 3.28918 0
M  V30 15038 N 1455.93 -1.56509 -0.185096 0
M  V30 15039 C 1456.86 -1.98363 -1.23184 0
M  V30 15040 C 1457.84 -0.85709 -1.46929 0
M  V30 15041 O 1459.02 -1.12216 -1.58497 0
M  V30 15042 C 1456.15 -2.33172 -2.57387 0
M  V30 15043 C 1455.11 -3.48658 -2.48236 0
M  V30 15044 C 1454.43 -3.69171 -3.86804 0
M  V30 15045 C 1455.73 -4.82538 -1.99885 0
M  V30 15046 H 1457.43 -2.86053 -0.883982 0
M  V30 15047 H 1454.97 -1.37623 -0.423786 0
M  V30 15048 H 1456.93 -2.61048 -3.30805 0
M  V30 15049 H 1455.65 -1.42377 -2.93933 0
M  V30 15050 H 1454.31 -3.20889 -1.77273 0
M  V30 15051 H 1453.96 -2.75689 -4.20719 0
M  V30 15052 H 1453.66 -4.46868 -3.81553 0
M  V30 15053 H 1455.18 -3.99433 -4.61829 0
M  V30 15054 H 1456.6 -5.0938 -2.63068 0
M  V30 15055 H 1454.99 -5.63775 -2.05614 0
M  V30 15056 H 1456.06 -4.75453 -0.952503 0
M  V30 15057 N 1457.41 0.45317 -1.50944 0
M  V30 15058 C 1458.65 1.20568 -1.63068 0
M  V30 15059 C 1458.99 1.91229 -0.338375 0
M  V30 15060 O 1458.26 1.82916 0.661207 0
M  V30 15061 C 1458.54 2.23522 -2.8233 0
M  V30 15062 C 1458.4 1.57047 -4.21493 0
M  V30 15063 C 1459.72 3.24663 -2.97123 0
M  V30 15064 H 1456.83 0.436971 -0.593486 0
M  V30 15065 H 1459.48 0.497008 -1.83384 0
M  V30 15066 H 1457.63 2.83961 -2.65139 0
M  V30 15067 H 1459.3 1.00067 -4.50316 0
M  V30 15068 H 1457.54 0.873143 -4.24922 0
M  V30 15069 H 1458.21 2.31949 -5.00903 0
M  V30 15070 H 1460.69 2.74264 -3.12919 0
M  V30 15071 H 1459.56 3.9401 -3.82161 0
M  V30 15072 H 1459.83 3.89843 -2.08506 0
M  V30 15073 N 1458.88 1.40823 0.707568 0
M  V30 15074 C 1460.3 1.35249 1.28704 0
M  V30 15075 C 1460.65 0.0298026 1.96177 0
M  V30 15076 O 1459.77 -0.872126 1.98048 0
M  V30 15077 C 1460.37 2.44965 2.34046 0
M  V30 15078 C 1458.93 2.42826 2.87598 0
M  V30 15079 C 1458.07 2.25429 1.61483 0
M  V30 15080 H 1461.02 1.50513 0.503141 0
M  V30 15081 H 1461.04 2.13334 3.1507 0
M  V30 15082 H 1460.56 3.41219 1.84908 0
M  V30 15083 H 1458.66 1.50294 3.40944 0
M  V30 15084 H 1458.77 3.38704 3.38845 0
M  V30 15085 H 1457.13 1.73089 1.86848 0
M  V30 15086 H 1457.92 3.23693 1.14359 0
M  V30 15087 N 1460.36 -0.94061 1.26453 0
M  V30 15088 C 1461.59 -1.72654 1.14914 0
M  V30 15089 C 1462.01 -1.85823 -0.291789 0
M  V30 15090 O 1461.37 -1.34888 -1.2114 0
M  V30 15091 C 1461.42 -3.11083 1.82372 0
M  V30 15092 O 1460.52 -3.971 1.1129 0
M  V30 15093 H 1459.86 -0.529704 0.400387 0
M  V30 15094 H 1462.39 -1.17803 1.67283 0
M  V30 15095 H 1462.4 -3.6147 1.89219 0
M  V30 15096 H 1461.08 -3.00815 2.87199 0
M  V30 15097 H 1459.66 -3.5555 1.12423 0
M  V30 15098 N 1461.84 -1.08266 -1.14527 0
M  V30 15099 C 1463.09 -0.812661 -1.85805 0
M  V30 15100 C 1463.42 0.659878 -1.82645 0
M  V30 15101 O 1462.69 1.48498 -1.25612 0
M  V30 15102 C 1462.98 -1.33335 -3.34505 0
M  V30 15103 C 1462.83 -2.87113 -3.46246 0
M  V30 15104 C 1464.15 -0.957435 -4.29559 0
M  V30 15105 H 1461.27 -0.296681 -0.674648 0
M  V30 15106 H 1463.91 -1.34203 -1.34497 0
M  V30 15107 H 1462.06 -0.883056 -3.78331 0
M  V30 15108 H 1463.73 -3.40502 -3.11217 0
M  V30 15109 H 1461.98 -3.24845 -2.87504 0
M  V30 15110 H 1462.65 -3.18618 -4.50762 0
M  V30 15111 H 1465.12 -1.3456 -3.93742 0
M  V30 15112 H 1464 -1.34897 -5.32066 0
M  V30 15113 H 1464.26 0.135689 -4.41892 0
M  V30 15114 N 1463.32 1.31536 -0.86811 0
M  V30 15115 C 1464.73 1.78991 -0.530937 0
M  V30 15116 C 1465.08 1.71553 0.952046 0
M  V30 15117 O 1464.21 1.28216 1.74326 0
M  V30 15118 C 1464.8 3.25004 -0.956981 0
M  V30 15119 C 1463.36 3.70362 -0.671495 0
M  V30 15120 C 1462.51 2.52361 -1.14932 0
M  V30 15121 H 1465.46 1.18644 -1.05401 0
M  V30 15122 H 1465.48 3.79477 -0.278883 0
M  V30 15123 H 1464.99 3.30385 -2.03635 0
M  V30 15124 H 1463.09 3.70483 0.39659 0
M  V30 15125 H 1463.21 4.62581 -1.24722 0
M  V30 15126 H 1461.57 2.4826 -0.569144 0
M  V30 15127 H 1462.35 2.60489 -2.23608 0
M  V30 15128 N 1464.8 0.627364 1.44575 0
M  V30 15129 C 1466.02 0.135576 2.06956 0
M  V30 15130 C 1466.45 -1.17922 1.46547 0
M  V30 15131 O 1465.81 -1.72255 0.565509 0
M  V30 15132 C 1465.85 0.030347 3.60587 0
M  V30 15133 O 1464.96 -1.01464 3.99724 0
M  V30 15134 H 1464.3 0.083058 0.658785 0
M  V30 15135 H 1466.83 0.862977 1.8551 0
M  V30 15136 H 1466.84 -0.161461 4.0768 0
M  V30 15137 H 1465.51 0.990285 4.03938 0
M  V30 15138 H 1464.09 -0.797701 3.64268 0
M  V30 15139 N 1466.28 -1.53251 0.367684 0
M  V30 15140 C 1467.19 -2.29518 -0.485669 0
M  V30 15141 C 1468.2 -1.35568 -1.09075 0
M  V30 15142 O 1469.38 -1.68626 -1.10124 0
M  V30 15143 C 1466.44 -3.07115 -1.60876 0
M  V30 15144 C 1465.5 -4.16736 -1.031 0
M  V30 15145 C 1464.74 -4.90624 -2.10056 0
M  V30 15146 O 1464.96 -4.64393 -3.31203 0
M  V30 15147 O 1463.89 -5.76503 -1.72996 0
M  V30 15148 H 1467.72 -3.034 0.135017 0
M  V30 15149 H 1465.3 -1.48816 0.132005 0
M  V30 15150 H 1467.19 -3.55564 -2.26168 0
M  V30 15151 H 1465.86 -2.36068 -2.21481 0
M  V30 15152 H 1464.77 -3.72534 -0.341928 0
M  V30 15153 H 1466.1 -4.89956 -0.469473 0
M  V30 15154 N 1467.75 -0.0969077 -1.57302 0
M  V30 15155 C 1469.03 0.608737 -1.85886 0
M  V30 15156 C 1469.41 1.86228 -0.994096 0
M  V30 15157 O 1468.76 2.28402 -0.0669975 0
M  V30 15158 C 1468.97 0.922385 -3.3659 0
M  V30 15159 C 1470.32 1.28505 -4.04687 0
M  V30 15160 O 1471.34 1.01334 -3.41482 0
M  V30 15161 O 1470.2 1.794 -5.16215 0
M  V30 15162 H 1467.29 0.304808 -0.768779 0
M  V30 15163 H 1469.84 -0.129742 -1.69203 0
M  V30 15164 H 1468.61 0.0331488 -3.91286 0
M  V30 15165 H 1468.23 1.71678 -3.58626 0
M  V30 15166 N 1469.23 1.56605 0.176793 0
M  V30 15167 C 1470.14 1.99211 1.23903 0
M  V30 15168 C 1471.16 0.902614 1.48758 0
M  V30 15169 O 1472.33 1.20982 1.61014 0
M  V30 15170 C 1469.4 2.33873 2.55938 0
M  V30 15171 C 1468.46 3.56624 2.38994 0
M  V30 15172 C 1467.69 3.89623 3.64733 0
M  V30 15173 O 1467.92 3.23662 4.6968 0
M  V30 15174 O 1466.85 4.82992 3.5917 0
M  V30 15175 H 1470.68 2.89827 0.907398 0
M  V30 15176 H 1468.26 1.44401 0.383234 0
M  V30 15177 H 1470.14 2.57161 3.33836 0
M  V30 15178 H 1468.82 1.46421 2.88691 0
M  V30 15179 H 1467.72 3.38561 1.59146 0
M  V30 15180 H 1469.06 4.446 2.11167 0
M  V30 15181 N 1470.71 -0.445159 1.51182 0
M  V30 15182 C 1471.96 -1.19701 1.63705 0
M  V30 15183 C 1472.29 -1.91047 0.348511 0
M  V30 15184 O 1471.56 -1.83264 -0.651497 0
M  V30 15185 C 1471.85 -2.22021 2.83511 0
M  V30 15186 C 1471.7 -1.54809 4.2232 0
M  V30 15187 C 1473.02 -3.23083 2.9884 0
M  V30 15188 H 1470.14 -0.433818 0.595795 0
M  V30 15189 H 1472.78 -0.487276 1.83645 0
M  V30 15190 H 1470.93 -2.82551 2.66641 0
M  V30 15191 H 1472.6 -0.976774 4.5084 0
M  V30 15192 H 1470.84 -0.850596 4.25379 0
M  V30 15193 H 1471.52 -2.29289 5.02126 0
M  V30 15194 H 1473.99 -2.72601 3.14369 0
M  V30 15195 H 1472.87 -3.91978 3.84246 0
M  V30 15196 H 1473.13 -3.88732 2.1057 0
M  V30 15197 N 1472.19 -1.41197 -0.700089 0
M  V30 15198 C 1473.12 -1.45456 -1.8266 0
M  V30 15199 C 1474.1 -0.313719 -1.67182 0
M  V30 15200 O 1475.28 -0.524528 -1.86982 0
M  V30 15201 C 1472.41 -1.33161 -3.20758 0
M  V30 15202 C 1471.37 -2.4501 -3.50933 0
M  V30 15203 C 1470.69 -2.17782 -4.88339 0
M  V30 15204 C 1471.99 -3.87352 -3.50365 0
M  V30 15205 H 1473.69 -2.39735 -1.79353 0
M  V30 15206 H 1471.23 -1.1539 -0.861465 0
M  V30 15207 H 1473.19 -1.34754 -3.99274 0
M  V30 15208 H 1471.91 -0.353646 -3.2468 0
M  V30 15209 H 1470.57 -2.42692 -2.74766 0
M  V30 15210 H 1470.22 -1.1834 -4.88881 0
M  V30 15211 H 1469.92 -2.92728 -5.09494 0
M  V30 15212 H 1471.44 -2.21083 -5.6917 0
M  V30 15213 H 1472.86 -3.9141 -4.18893 0
M  V30 15214 H 1471.25 -4.61944 -3.83051 0
M  V30 15215 H 1472.32 -4.15827 -2.4943 0
M  V30 15216 N 1473.67 0.933891 -1.2695 0
M  V30 15217 C 1474.91 1.67759 -1.12701 0
M  V30 15218 C 1475.23 1.92207 0.328848 0
M  V30 15219 O 1474.5 1.52394 1.23097 0
M  V30 15220 H 1473.08 0.621729 -0.41408 0
M  V30 15221 H 1475.75 1.1217 -1.59386 0
M  V30 15222 H 1474.84 2.64834 -1.65135 0
M  V30 15223 N 1475.14 1.08871 1.13951 0
M  V30 15224 C 1476.05 0.734869 2.22793 0
M  V30 15225 C 1477.07 -0.260699 1.72036 0
M  V30 15226 O 1478.25 -0.103461 2.01134 0
M  V30 15227 C 1475.31 0.154599 3.46355 0
M  V30 15228 C 1474.37 1.20539 4.1203 0
M  V30 15229 C 1473.6 0.652712 5.29694 0
M  V30 15230 O 1473.83 -0.526264 5.67967 0
M  V30 15231 O 1472.76 1.40503 5.85271 0
M  V30 15232 H 1476.59 1.64297 2.55422 0
M  V30 15233 H 1474.17 0.862716 1.21974 0
M  V30 15234 H 1476.05 -0.165962 4.21073 0
M  V30 15235 H 1474.73 -0.726592 3.1544 0
M  V30 15236 H 1473.64 1.57855 3.39164 0
M  V30 15237 H 1474.97 2.05902 4.47063 0
M  V30 15238 N 1476.62 -1.31073 0.875073 0
M  V30 15239 C 1478.03 -1.78707 0.540422 0
M  V30 15240 C 1478.38 -1.72056 -0.942935 0
M  V30 15241 O 1477.51 -1.29139 -1.73643 0
M  V30 15242 C 1478.1 -3.24491 0.974203 0
M  V30 15243 C 1476.66 -3.70001 0.691127 0
M  V30 15244 C 1475.81 -2.51748 1.16269 0
M  V30 15245 H 1478.76 -1.18083 1.06029 0
M  V30 15246 H 1478.78 -3.79323 0.299003 0
M  V30 15247 H 1478.29 -3.29301 2.05384 0
M  V30 15248 H 1476.39 -3.70688 -0.376937 0
M  V30 15249 H 1476.51 -4.61913 1.27173 0
M  V30 15250 H 1474.87 -2.47954 0.582302 0
M  V30 15251 H 1475.65 -2.59299 2.24986 0
M  V30 15252 N 1478.1 -0.635022 -1.4424 0
M  V30 15253 C 1479.33 -0.146549 -2.06882 0
M  V30 15254 C 1479.75 1.17143 -1.4717 0
M  V30 15255 O 1479.11 1.71952 -0.574636 0
M  V30 15256 C 1479.16 -0.0494694 -3.60566 0
M  V30 15257 O 1478.26 0.993423 -4.00256 0
M  V30 15258 H 1477.6 -0.0865505 -0.658335 0
M  V30 15259 H 1480.13 -0.872803 -1.85049 0
M  V30 15260 H 1480.14 0.139839 -4.0776 0
M  V30 15261 H 1478.82 -1.01169 -4.03407 0
M  V30 15262 H 1477.39 0.778372 -3.64686 0
M  V30 15263 N 1479.58 1.53054 -0.375806 0
M  V30 15264 C 1480.51 2.23664 0.500685 0
M  V30 15265 C 1481.52 1.25432 1.03782 0
M  V30 15266 O 1482.71 1.51592 0.942451 0
M  V30 15267 C 1479.81 2.9288 1.70513 0
M  V30 15268 C 1478.99 4.17706 1.29772 0
M  V30 15269 C 1478.04 4.7004 2.36536 0
M  V30 15270 O 1477.07 5.33466 1.98502 0
M  V30 15271 N 1478.27 4.48732 3.68266 0
M  V30 15272 H 1481.04 2.99519 -0.104201 0
M  V30 15273 H 1478.6 1.60641 -0.201488 0
M  V30 15274 H 1480.59 3.24795 2.41433 0
M  V30 15275 H 1479.16 2.20416 2.21665 0
M  V30 15276 H 1478.38 3.91978 0.41795 0
M  V30 15277 H 1479.67 4.98837 1.00197 0
M  V30 15278 H 1479.07 3.98075 4.01936 0
M  V30 15279 H 1477.62 4.85172 4.3526 0
M  V30 15280 N 1481.06 0.105248 1.57248 0
M  V30 15281 C 1482.33 -0.598871 1.86207 0
M  V30 15282 C 1482.71 -1.85698 1.00396 0
M  V30 15283 O 1482.06 -2.28363 0.0791093 0
M  V30 15284 C 1482.27 -0.904522 3.37075 0
M  V30 15285 C 1483.62 -1.26357 4.05363 0
M  V30 15286 O 1484.64 -0.99522 3.42014 0
M  V30 15287 O 1483.5 -1.76659 5.17159 0
M  V30 15288 H 1480.6 -0.300727 0.770384 0
M  V30 15289 H 1483.14 0.138713 1.69132 0
M  V30 15290 H 1481.91 -0.0123974 3.91298 0
M  V30 15291 H 1481.54 -1.69774 3.59531 0
M  V30 15292 N 1482.53 -1.56697 -0.168486 0
M  V30 15293 C 1483.78 -1.81346 -0.882973 0
M  V30 15294 C 1484.1 -0.682975 -1.83289 0
M  V30 15295 O 1485.3 -0.814479 -2.58995 0
M  V30 15296 C 1483.76 -3.21345 -1.62066 0
M  V30 15297 C 1483.37 -4.4227 -0.714241 0
M  V30 15298 C 1485.11 -3.55285 -2.32321 0
M  V30 15299 C 1483.02 -5.7329 -1.45233 0
M  V30 15300 H 1481.95 -0.676254 -0.333461 0
M  V30 15301 H 1484.6 -1.82996 -0.135871 0
M  V30 15302 H 1482.98 -3.1402 -2.41262 0
M  V30 15303 H 1484.15 -4.60782 0.0409556 0
M  V30 15304 H 1482.47 -4.16224 -0.121205 0
M  V30 15305 H 1485.07 -4.50421 -2.88141 0
M  V30 15306 H 1485.41 -2.80301 -3.07793 0
M  V30 15307 H 1485.94 -3.64176 -1.60066 0
M  V30 15308 H 1482.68 -6.51311 -0.739869 0
M  V30 15309 H 1482.2 -5.58751 -2.18077 0
M  V30 15310 H 1483.88 -6.15343 -1.99905 0
M  V30 15311 N 1484.01 0.437135 -1.51416 0
M  V30 15312 C 1484.94 1.538 -1.75692 0
M  V30 15313 C 1485.92 1.5891 -0.606759 0
M  V30 15314 O 1487.11 1.74635 -0.849492 0
M  V30 15315 C 1484.24 2.91877 -1.88215 0
M  V30 15316 C 1483.19 3.01628 -3.03652 0
M  V30 15317 C 1482.52 4.41687 -3.01358 0
M  V30 15318 C 1483.82 2.75691 -4.43612 0
M  V30 15319 H 1485.51 1.33737 -2.67871 0
M  V30 15320 H 1483.06 0.641936 -1.289 0
M  V30 15321 H 1485.01 3.68851 -2.03781 0
M  V30 15322 H 1483.74 3.13173 -0.926847 0
M  V30 15323 H 1482.39 2.27094 -2.87791 0
M  V30 15324 H 1482.04 4.5995 -2.03605 0
M  V30 15325 H 1481.74 4.49141 -3.78875 0
M  V30 15326 H 1483.27 5.20634 -3.19018 0
M  V30 15327 H 1484.68 3.42398 -4.59822 0
M  V30 15328 H 1483.08 2.94554 -5.22836 0
M  V30 15329 H 1484.15 1.71297 -4.53636 0
M  V30 15330 N 1485.49 1.41566 0.692592 0
M  V30 15331 C 1486.74 1.41292 1.4548 0
M  V30 15332 C 1487.07 0.0229093 1.94186 0
M  V30 15333 O 1486.34 -0.949849 1.6973 0
M  V30 15334 C 1486.63 2.42225 2.66457 0
M  V30 15335 C 1486.48 3.90345 2.23496 0
M  V30 15336 C 1487.8 2.40374 3.68658 0
M  V30 15337 H 1484.92 0.51453 0.527663 0
M  V30 15338 H 1487.56 1.72862 0.788598 0
M  V30 15339 H 1485.71 2.15435 3.23296 0
M  V30 15340 H 1487.38 4.2805 1.71962 0
M  V30 15341 H 1485.63 4.05068 1.55249 0
M  V30 15342 H 1486.3 4.56518 3.10314 0
M  V30 15343 H 1488.77 2.64156 3.21498 0
M  V30 15344 H 1487.65 3.13004 4.5091 0
M  V30 15345 H 1487.91 1.42338 4.1856 0
M  V30 15346 N 1486.97 -0.927146 1.27443 0
M  V30 15347 C 1488.22 -1.66941 1.13197 0
M  V30 15348 C 1488.53 -1.92939 -0.32156 0
M  V30 15349 O 1489.74 -2.65124 -0.584931 0
M  V30 15350 C 1488.19 -3.00677 1.97791 0
M  V30 15351 C 1487.8 -2.82376 3.47805 0
M  V30 15352 C 1489.54 -3.78499 1.92195 0
M  V30 15353 C 1487.45 -4.1167 4.24596 0
M  V30 15354 H 1486.38 -0.626171 0.420031 0
M  V30 15355 H 1489.03 -1.02997 1.51868 0
M  V30 15356 H 1487.41 -3.65681 1.51965 0
M  V30 15357 H 1488.59 -2.26135 4.01497 0
M  V30 15358 H 1486.9 -2.17982 3.54786 0
M  V30 15359 H 1489.5 -4.74312 2.46844 0
M  V30 15360 H 1489.84 -4.0655 0.895702 0
M  V30 15361 H 1490.38 -3.20292 2.35919 0
M  V30 15362 H 1487.12 -3.88798 5.27747 0
M  V30 15363 H 1486.64 -4.67573 3.75681 0
M  V30 15364 H 1488.31 -4.80028 4.338 0
M  V30 15365 N 1488.45 -1.09474 -1.13372 0
M  V30 15366 C 1489.72 -0.743485 -1.80919 0
M  V30 15367 C 1490.1 0.771414 -1.965 0
M  V30 15368 O 1489.45 1.694 -1.53349 0
M  V30 15369 C 1489.66 -1.48309 -3.1592 0
M  V30 15370 C 1491.01 -1.64921 -3.91263 0
M  V30 15371 O 1492.03 -1.44564 -3.25545 0
M  V30 15372 O 1490.89 -1.98595 -5.09139 0
M  V30 15373 H 1487.99 -0.26713 -0.782669 0
M  V30 15374 H 1490.53 -1.19697 -1.20294 0
M  V30 15375 H 1489.3 -2.51456 -2.99809 0
M  V30 15376 H 1488.93 -1.02181 -3.84246 0
M  V30 15377 N 1489.92 1.30607 -0.882012 0
M  V30 15378 C 1490.86 2.27177 -0.303861 0
M  V30 15379 C 1491.87 1.53587 0.539898 0
M  V30 15380 O 1493.06 1.74833 0.359931 0
M  V30 15381 C 1490.16 3.33781 0.586828 0
M  V30 15382 C 1489.33 4.3681 -0.227197 0
M  V30 15383 C 1488.39 5.22842 0.593519 0
M  V30 15384 O 1487.42 5.69197 0.0172694 0
M  V30 15385 N 1488.62 5.48414 1.90321 0
M  V30 15386 H 1491.38 2.77426 -1.13378 0
M  V30 15387 H 1488.94 1.43756 -0.744698 0
M  V30 15388 H 1490.94 3.88257 1.14186 0
M  V30 15389 H 1489.51 2.83483 1.31743 0
M  V30 15390 H 1488.73 3.82239 -0.963674 0
M  V30 15391 H 1490.01 5.02703 -0.785315 0
M  V30 15392 H 1489.41 5.1253 2.39435 0
M  V30 15393 H 1487.97 6.05778 2.40575 0
M  V30 15394 N 1491.4 0.642663 1.43901 0
M  V30 15395 C 1492.63 0.159202 2.06287 0
M  V30 15396 C 1493.05 -1.17091 1.48105 0
M  V30 15397 O 1492.4 -1.72064 0.608302 0
M  V30 15398 C 1492.45 0.0506891 3.61464 0
M  V30 15399 O 1492.17 1.32821 4.17481 0
M  V30 15400 C 1493.68 -0.460103 4.40906 0
M  V30 15401 H 1490.9 0.085003 0.665594 0
M  V30 15402 H 1493.44 0.880328 1.84582 0
M  V30 15403 H 1491.59 -0.620938 3.82391 0
M  V30 15404 H 1492.01 1.18053 5.11042 0
M  V30 15405 H 1493.48 -0.48501 5.49865 0
M  V30 15406 H 1493.96 -1.4894 4.13175 0
M  V30 15407 H 1494.57 0.178668 4.24925 0
M  V30 15408 N 1492.88 -1.52852 0.383918 0
M  V30 15409 C 1494.3 -1.59565 0.0336391 0
M  V30 15410 C 1494.5 -1.39819 -1.45097 0
M  V30 15411 O 1493.55 -1.21249 -2.21484 0
M  V30 15412 C 1494.87 -2.96412 0.506001 0
M  V30 15413 C 1496.41 -3.09575 0.461794 0
M  V30 15414 C 1496.89 -4.48863 0.910259 0
M  V30 15415 N 1498.38 -4.55032 0.866053 0
M  V30 15416 C 1499.12 -5.61032 1.18453 0
M  V30 15417 N 1498.61 -6.74701 1.57321 0
M  V30 15418 N 1500.4 -5.51109 1.10613 0
M  V30 15419 H 1492.56 -1.63937 1.3505 0
M  V30 15420 H 1494.82 -0.769857 0.553194 0
M  V30 15421 H 1494.52 -3.16061 1.54268 0
M  V30 15422 H 1494.4 -3.77073 -0.0977643 0
M  V30 15423 H 1496.79 -2.89625 -0.565786 0
M  V30 15424 H 1496.87 -2.30879 1.10129 0
M  V30 15425 H 1496.51 -4.69553 1.93604 0
M  V30 15426 H 1496.44 -5.26017 0.247825 0
M  V30 15427 H 1498.93 -3.73423 0.579962 0
M  V30 15428 H 1499.24 -7.51545 1.8 0
M  V30 15429 H 1497.59 -6.76046 1.61203 0
M  V30 15430 H 1500.78 -4.61187 0.801531 0
M  V30 15431 H 1500.95 -6.33618 1.35766 0
M  V30 15432 N 1494.36 -0.113586 -1.5719 0
M  V30 15433 C 1495.29 0.835363 -2.18046 0
M  V30 15434 C 1496.27 1.28114 -1.11897 0
M  V30 15435 O 1497.46 1.34472 -1.40111 0
M  V30 15436 C 1494.59 2.08759 -2.77556 0
M  V30 15437 C 1493.54 1.77979 -3.8924 0
M  V30 15438 C 1492.87 3.10185 -4.35533 0
M  V30 15439 C 1494.17 1.05231 -5.11589 0
M  V30 15440 H 1495.86 0.328275 -2.97595 0
M  V30 15441 H 1493.41 0.156456 -1.43148 0
M  V30 15442 H 1495.36 2.75597 -3.18785 0
M  V30 15443 H 1494.08 2.61783 -1.95288 0
M  V30 15444 H 1492.74 1.13532 -3.48577 0
M  V30 15445 H 1492.39 3.61133 -3.50131 0
M  V30 15446 H 1492.09 2.90367 -5.10843 0
M  V30 15447 H 1493.61 3.78151 -4.7941 0
M  V30 15448 H 1495.03 1.62213 -5.49872 0
M  V30 15449 H 1493.42 0.955269 -5.92448 0
M  V30 15450 H 1494.49 0.038137 -4.84885 0
M  V30 15451 N 1495.84 1.56784 0.160173 0
M  V30 15452 C 1496.75 2.00514 1.21783 0
M  V30 15453 C 1497.76 0.918341 1.47792 0
M  V30 15454 O 1498.94 1.22683 1.59721 0
M  V30 15455 C 1496 2.36575 2.53443 0
M  V30 15456 C 1495.07 3.59138 2.35198 0
M  V30 15457 C 1494.3 3.93469 3.6058 0
M  V30 15458 O 1494.52 3.28625 4.6622 0
M  V30 15459 O 1493.46 4.86774 3.54027 0
M  V30 15460 H 1497.28 2.90774 0.876607 0
M  V30 15461 H 1494.87 1.44799 0.367897 0
M  V30 15462 H 1496.75 2.60687 3.31089 0
M  V30 15463 H 1495.42 1.49474 2.87122 0
M  V30 15464 H 1494.33 3.4023 1.55546 0
M  V30 15465 H 1495.66 4.46815 2.0644 0
M  V30 15466 N 1497.32 -0.429099 1.51646 0
M  V30 15467 C 1498.28 -1.50398 1.72954 0
M  V30 15468 C 1499.28 -1.49207 0.599491 0
M  V30 15469 O 1500.47 -1.51084 0.867143 0
M  V30 15470 C 1497.6 -2.89903 1.79358 0
M  V30 15471 H 1498.79 -1.32805 2.68892 0
M  V30 15472 H 1496.35 -0.658313 1.4176 0
M  V30 15473 H 1497.08 -3.12891 0.852639 0
M  V30 15474 H 1496.87 -2.92171 2.61492 0
M  V30 15475 H 1498.36 -3.67862 1.97654 0
M  V30 15476 N 1498.79 -1.41931 -0.685074 0
M  V30 15477 C 1500.02 -1.45229 -1.47364 0
M  V30 15478 C 1500.44 -0.060595 -1.88703 0
M  V30 15479 O 1499.79 0.92244 -1.57472 0
M  V30 15480 C 1499.84 -2.37033 -2.72942 0
M  V30 15481 O 1499.57 -3.70787 -2.33342 0
M  V30 15482 C 1501.07 -2.49244 -3.66596 0
M  V30 15483 H 1498.29 -0.494291 -0.453781 0
M  V30 15484 H 1500.83 -1.86333 -0.84263 0
M  V30 15485 H 1498.99 -1.9921 -3.32256 0
M  V30 15486 H 1499.4 -4.19853 -3.14362 0
M  V30 15487 H 1500.87 -3.17624 -4.51463 0
M  V30 15488 H 1501.35 -1.52703 -4.11799 0
M  V30 15489 H 1501.96 -2.87747 -3.1318 0
M  V30 15490 N 1500.27 0.920374 -1.27933 0
M  V30 15491 C 1501.52 1.66338 -1.14081 0
M  V30 15492 C 1501.83 1.93107 0.311324 0
M  V30 15493 O 1503.04 2.65431 0.570862 0
M  V30 15494 C 1501.5 2.99624 -1.99383 0
M  V30 15495 C 1501.1 2.80527 -3.49297 0
M  V30 15496 C 1502.85 3.77474 -1.94199 0
M  V30 15497 C 1500.75 4.09413 -4.26773 0
M  V30 15498 H 1499.68 0.623935 -0.423346 0
M  V30 15499 H 1502.34 1.0219 -1.52412 0
M  V30 15500 H 1500.72 3.6487 -1.53902 0
M  V30 15501 H 1501.89 2.24002 -4.02691 0
M  V30 15502 H 1500.21 2.16097 -3.55937 0
M  V30 15503 H 1502.8 4.72997 -2.49356 0
M  V30 15504 H 1503.15 4.06069 -0.917249 0
M  V30 15505 H 1503.68 3.19036 -2.37614 0
M  V30 15506 H 1500.42 3.85994 -5.29801 0
M  V30 15507 H 1499.94 4.65574 -3.78155 0
M  V30 15508 H 1501.62 4.77721 -4.36339 0
M  V30 15509 N 1501.75 1.10074 1.1279 0
M  V30 15510 C 1502.97 0.863106 1.88587 0
M  V30 15511 C 1503.4 -0.580595 1.78915 0
M  V30 15512 O 1502.76 -1.40859 1.14142 0
M  V30 15513 C 1502.81 1.31142 3.35908 0
M  V30 15514 O 1501.91 0.474088 4.09666 0
M  V30 15515 H 1501.25 0.312034 0.586115 0
M  V30 15516 H 1503.78 1.46659 1.42662 0
M  V30 15517 H 1503.79 1.29974 3.86744 0
M  V30 15518 H 1502.47 2.36279 3.42265 0
M  V30 15519 H 1501.04 0.550665 3.68812 0
M  V30 15520 N 1503.23 -1.30138 0.888926 0
M  V30 15521 C 1504.64 -1.78124 0.559346 0
M  V30 15522 C 1504.99 -1.73046 -0.924633 0
M  V30 15523 O 1504.11 -1.30974 -1.72264 0
M  V30 15524 C 1504.71 -3.2344 1.00856 0
M  V30 15525 C 1503.27 -3.69247 0.730332 0
M  V30 15526 C 1502.42 -2.505 1.18933 0
M  V30 15527 H 1505.37 -1.16952 1.07275 0
M  V30 15528 H 1505.39 -3.78985 0.339219 0
M  V30 15529 H 1504.9 -3.27104 2.08865 0
M  V30 15530 H 1503 -3.71067 -0.337599 0
M  V30 15531 H 1503.11 -4.60538 1.32066 0
M  V30 15532 H 1501.48 -2.47323 0.608568 0
M  V30 15533 H 1502.26 -2.56899 2.27724 0
M  V30 15534 N 1504.71 -0.650285 -1.43559 0
M  V30 15535 C 1505.62 0.0438076 -2.34559 0
M  V30 15536 C 1506.63 0.815316 -1.53716 0
M  V30 15537 O 1507.81 0.76323 -1.86378 0
M  V30 15538 C 1504.87 1.00028 -3.31957 0
M  V30 15539 C 1503.93 0.226027 -4.28705 0
M  V30 15540 C 1503.17 1.13694 -5.21449 0
M  V30 15541 O 1503.39 2.37614 -5.18551 0
M  V30 15542 O 1502.32 0.610924 -5.98792 0
M  V30 15543 H 1506.15 -0.705152 -2.954 0
M  V30 15544 H 1503.73 -0.410471 -1.43651 0
M  V30 15545 H 1505.62 1.55004 -3.91857 0
M  V30 15546 H 1504.29 1.72952 -2.73623 0
M  V30 15547 H 1503.2 -0.367244 -3.72293 0
M  V30 15548 H 1504.53 -0.463582 -4.90012 0
M  V30 15549 N 1506.18 1.52647 -0.392018 0
M  V30 15550 C 1507.41 2.06032 0.189293 0
M  V30 15551 C 1507.83 1.26351 1.40288 0
M  V30 15552 O 1507.18 0.310877 1.79833 0
M  V30 15553 C 1507.23 3.57187 0.55672 0
M  V30 15554 O 1506.96 4.33851 -0.608657 0
M  V30 15555 C 1508.46 4.26929 1.1936 0
M  V30 15556 H 1505.68 0.670419 0.0279177 0
M  V30 15557 H 1508.22 1.96739 -0.558033 0
M  V30 15558 H 1506.38 3.66545 1.25394 0
M  V30 15559 H 1506.79 5.23606 -0.306039 0
M  V30 15560 H 1508.26 5.33924 1.40104 0
M  V30 15561 H 1508.74 3.82315 2.16175 0
M  V30 15562 H 1509.35 4.21895 0.537069 0
M  V30 15563 N 1507.66 0.121921 1.57128 0
M  V30 15564 C 1508.6 -0.864553 2.11189 0
M  V30 15565 C 1509.57 -1.25896 1.02902 0
M  V30 15566 O 1510.76 -1.3595 1.30575 0
M  V30 15567 C 1507.88 -2.15742 2.611 0
M  V30 15568 C 1506.93 -1.91085 3.81299 0
M  V30 15569 S 1507.76 -1.12448 5.23561 0
M  V30 15570 C 1508.92 -2.42908 5.76842 0
M  V30 15571 H 1509.15 -0.404737 2.94532 0
M  V30 15572 H 1506.69 -0.091909 1.54126 0
M  V30 15573 H 1508.64 -2.90024 2.9051 0
M  V30 15574 H 1507.3 -2.58841 1.77933 0
M  V30 15575 H 1506.5 -2.86889 4.1438 0
M  V30 15576 H 1506.1 -1.24922 3.5252 0
M  V30 15577 H 1508.39 -3.38728 5.86745 0
M  V30 15578 H 1509.33 -2.14367 6.74872 0
M  V30 15579 H 1509.74 -2.52409 5.04926 0
M  V30 15580 N 1509.14 -1.56867 -0.151857 0
M  V30 15581 C 1510.56 -1.51422 -0.504328 0
M  V30 15582 C 1510.76 -0.829524 -1.83633 0
M  V30 15583 O 1509.81 -0.398018 -2.49343 0
M  V30 15584 C 1511.13 -2.96185 -0.519117 0
M  V30 15585 C 1512.67 -3.07098 -0.60497 0
M  V30 15586 C 1513.15 -4.53357 -0.650468 0
M  V30 15587 N 1514.64 -4.57682 -0.712825 0
M  V30 15588 C 1515.37 -5.68221 -0.768931 0
M  V30 15589 N 1514.87 -6.88342 -0.784678 0
M  V30 15590 N 1516.66 -5.56241 -0.809441 0
M  V30 15591 H 1508.81 -1.99777 0.721316 0
M  V30 15592 H 1511.08 -0.910951 0.262436 0
M  V30 15593 H 1510.78 -3.49516 0.391315 0
M  V30 15594 H 1510.66 -3.51877 -1.35876 0
M  V30 15595 H 1513.04 -2.53789 -1.50582 0
M  V30 15596 H 1513.13 -2.54458 0.261722 0
M  V30 15597 H 1512.77 -5.07303 0.246207 0
M  V30 15598 H 1512.7 -5.03775 -1.53358 0
M  V30 15599 H 1515.19 -3.71206 -0.708151 0
M  V30 15600 H 1515.5 -7.68339 -0.829202 0
M  V30 15601 H 1513.85 -6.90913 -0.752634 0
M  V30 15602 H 1517.04 -4.61312 -0.794274 0
M  V30 15603 H 1517.21 -6.42405 -0.849701 0
M  V30 15604 N 1510.62 0.421051 -1.51871 0
M  V30 15605 C 1511.85 1.1911 -1.69175 0
M  V30 15606 C 1512.26 1.84599 -0.39606 0
M  V30 15607 O 1511.62 1.71395 0.626907 0
M  V30 15608 C 1511.67 2.26309 -2.81898 0
M  V30 15609 O 1511.39 1.63496 -4.06449 0
M  V30 15610 C 1512.89 3.16285 -3.10611 0
M  V30 15611 H 1510.11 0.358385 -0.567275 0
M  V30 15612 H 1512.66 0.496919 -1.98371 0
M  V30 15613 H 1510.81 2.91416 -2.55255 0
M  V30 15614 H 1511.22 2.3447 -4.69174 0
M  V30 15615 H 1512.7 3.87601 -3.93026 0
M  V30 15616 H 1513.18 3.77976 -2.23676 0
M  V30 15617 H 1513.78 2.5686 -3.38973 0
M  V30 15618 N 1512.1 1.42293 0.677538 0
M  V30 15619 C 1513.32 1.46008 1.46592 0
M  V30 15620 C 1513.74 0.0706015 1.88668 0
M  V30 15621 O 1513.1 -0.914076 1.57959 0
M  V30 15622 C 1513.15 2.38477 2.71682 0
M  V30 15623 O 1512.87 3.72019 2.31372 0
M  V30 15624 C 1514.37 2.51185 3.65269 0
M  V30 15625 H 1511.59 0.49669 0.451154 0
M  V30 15626 H 1514.13 1.86777 0.832736 0
M  V30 15627 H 1512.29 2.00969 3.31195 0
M  V30 15628 H 1512.7 4.21514 3.12131 0
M  V30 15629 H 1514.18 3.20014 4.49772 0
M  V30 15630 H 1514.65 1.54885 4.10983 0
M  V30 15631 H 1515.26 2.89404 3.1165 0
M  V30 15632 N 1513.57 -0.913576 1.28419 0
M  V30 15633 C 1514.52 -2.01603 1.12361 0
M  V30 15634 C 1515.49 -1.66087 0.0206953 0
M  V30 15635 O 1516.68 -1.89895 0.185659 0
M  V30 15636 C 1513.82 -3.35897 0.791655 0
M  V30 15637 C 1512.93 -3.84281 1.97363 0
M  V30 15638 C 1512.06 -5.07087 1.58228 0
M  V30 15639 C 1511.1 -5.47804 2.73089 0
M  V30 15640 N 1510.24 -6.618 2.34446 0
M  V30 15641 H 1515.08 -2.1467 2.0669 0
M  V30 15642 H 1512.62 -1.05147 1.02871 0
M  V30 15643 H 1514.58 -4.13149 0.579943 0
M  V30 15644 H 1513.21 -3.22596 -0.114699 0
M  V30 15645 H 1512.26 -3.03184 2.29746 0
M  V30 15646 H 1513.57 -4.10417 2.83477 0
M  V30 15647 H 1512.72 -5.91883 1.33264 0
M  V30 15648 H 1511.46 -4.82759 0.692429 0
M  V30 15649 H 1510.47 -4.61549 2.98751 0
M  V30 15650 H 1511.69 -5.74119 3.62717 0
M  V30 15651 H 1509.64 -6.39103 1.4793 0
M  V30 15652 H 1509.56 -6.87663 3.14096 0
M  V30 15653 H 1510.82 -7.49901 2.12766 0
M  V30 15654 N 1515.05 -1.1067 -1.12204 0
M  V30 15655 C 1516.3 -0.845439 -1.83126 0
M  V30 15656 C 1516.61 0.631022 -1.85142 0
M  V30 15657 O 1517.82 1.00827 -2.52084 0
M  V30 15658 C 1516.28 -1.46265 -3.28838 0
M  V30 15659 C 1515.88 -2.97258 -3.35174 0
M  V30 15660 C 1517.63 -1.28088 -4.04714 0
M  V30 15661 C 1515.54 -3.52002 -4.75235 0
M  V30 15662 H 1514.47 -0.312617 -0.686139 0
M  V30 15663 H 1517.12 -1.33098 -1.26321 0
M  V30 15664 H 1515.5 -0.904781 -3.85525 0
M  V30 15665 H 1516.67 -3.59381 -2.88413 0
M  V30 15666 H 1514.99 -3.14617 -2.72773 0
M  V30 15667 H 1517.58 -1.6643 -5.08139 0
M  V30 15668 H 1517.93 -0.222682 -4.15704 0
M  V30 15669 H 1518.46 -1.80696 -3.54392 0
M  V30 15670 H 1515.2 -4.57499 -4.69441 0
M  V30 15671 H 1514.72 -2.94648 -5.22439 0
M  V30 15672 H 1516.4 -3.49967 -5.4418 0
M  V30 15673 N 1516.53 1.29665 -0.895815 0
M  V30 15674 C 1517.76 1.99862 -0.535043 0
M  V30 15675 C 1518.17 1.67077 0.879245 0
M  V30 15676 O 1517.53 0.913717 1.57979 0
M  V30 15677 C 1517.58 3.54396 -0.713132 0
M  V30 15678 O 1517.3 3.86018 -2.07175 0
M  V30 15679 C 1518.8 4.41862 -0.356792 0
M  V30 15680 H 1516.02 0.638693 -0.205699 0
M  V30 15681 H 1518.57 1.65293 -1.20409 0
M  V30 15682 H 1516.72 3.87292 -0.0913116 0
M  V30 15683 H 1517.14 4.80701 -2.09827 0
M  V30 15684 H 1518.61 5.49428 -0.532252 0
M  V30 15685 H 1519.09 4.3349 0.705914 0
M  V30 15686 H 1519.69 4.1443 -0.95539 0
M  V30 15687 N 1518.01 0.657889 1.43212 0
M  V30 15688 C 1518.92 -0.0313677 2.34579 0
M  V30 15689 C 1519.93 -0.807153 1.54146 0
M  V30 15690 O 1521.11 -0.753335 1.8678 0
M  V30 15691 C 1518.18 -0.982659 3.32483 0
M  V30 15692 C 1517.24 -0.203288 4.28818 0
M  V30 15693 C 1516.47 -1.10927 5.22045 0
M  V30 15694 O 1516.69 -2.34861 5.19804 0
M  V30 15695 O 1515.63 -0.57916 5.99107 0
M  V30 15696 H 1519.45 0.720808 2.95022 0
M  V30 15697 H 1517.04 0.418083 1.43431 0
M  V30 15698 H 1518.92 -1.52923 3.92673 0
M  V30 15699 H 1517.59 -1.71498 2.74536 0
M  V30 15700 H 1516.5 0.386982 3.72093 0
M  V30 15701 H 1517.83 0.489562 4.89759 0
M  V30 15702 N 1519.49 -1.52437 0.400108 0
M  V30 15703 C 1520.73 -2.01312 -0.178252 0
M  V30 15704 C 1521.06 -1.28797 -1.46411 0
M  V30 15705 O 1520.33 -0.411211 -1.91536 0
M  V30 15706 H 1518.91 -0.743819 -0.0688613 0
M  V30 15707 H 1521.57 -1.87434 0.53428 0
M  V30 15708 H 1520.66 -3.09768 -0.380793 0
M  V30 15709 N 1520.96 -0.130252 -1.57061 0
M  V30 15710 C 1522.19 0.532416 -1.99932 0
M  V30 15711 C 1522.61 1.59505 -1.01013 0
M  V30 15712 O 1521.96 1.82499 -0.00463158 0
M  V30 15713 C 1522.02 1.14833 -3.42776 0
M  V30 15714 O 1521.74 0.128163 -4.37912 0
M  V30 15715 C 1523.24 1.89324 -4.00838 0
M  V30 15716 H 1520.46 0.140046 -0.656223 0
M  V30 15717 H 1523 -0.219905 -2.03314 0
M  V30 15718 H 1521.16 1.85137 -3.40298 0
M  V30 15719 H 1521.57 0.577135 -5.21315 0
M  V30 15720 H 1523.04 2.27731 -5.02835 0
M  V30 15721 H 1523.52 2.77277 -3.40608 0
M  V30 15722 H 1524.13 1.23757 -4.06896 0
M  V30 15723 N 1522.44 1.56945 0.143535 0
M  V30 15724 C 1523.67 1.87701 0.870401 0
M  V30 15725 C 1524.09 0.718833 1.7458 0
M  V30 15726 O 1523.44 -0.311286 1.79826 0
M  V30 15727 C 1523.49 3.1773 1.72424 0
M  V30 15728 O 1523.22 4.29086 0.884115 0
M  V30 15729 C 1524.72 3.62024 2.55839 0
M  V30 15730 H 1521.94 0.622083 0.251504 0
M  V30 15731 H 1524.48 2.04052 0.135285 0
M  V30 15732 H 1522.64 3.03122 2.41238 0
M  V30 15733 H 1523.05 5.0346 1.47065 0
M  V30 15734 H 1524.52 4.55834 3.11319 0
M  V30 15735 H 1525 2.87481 3.32041 0
M  V30 15736 H 1525.61 3.79338 1.9231 0
M  V30 15737 N 1523.92 -0.412991 1.52093 0
M  V30 15738 C 1524.85 -1.52187 1.71382 0
M  V30 15739 C 1525.87 -1.51567 0.594247 0
M  V30 15740 O 1527.06 -1.55902 0.869293 0
M  V30 15741 C 1524.16 -2.91086 1.73557 0
M  V30 15742 C 1523.33 -3.15941 3.0249 0
M  V30 15743 C 1522.39 -4.34692 2.96529 0
M  V30 15744 O 1521.41 -4.3216 3.70441 0
M  V30 15745 N 1522.62 -5.39594 2.14052 0
M  V30 15746 H 1525.38 -1.36036 2.67047 0
M  V30 15747 H 1522.94 -0.602243 1.50282 0
M  V30 15748 H 1524.93 -3.68589 1.67106 0
M  V30 15749 H 1523.5 -3.00714 0.85382 0
M  V30 15750 H 1522.72 -2.26517 3.2262 0
M  V30 15751 H 1524.01 -3.29388 3.87789 0
M  V30 15752 H 1523.41 -5.44498 1.53424 0
M  V30 15753 H 1521.97 -6.15855 2.13461 0
M  V30 15754 N 1525.4 -1.4265 -0.669982 0
M  V30 15755 C 1526.31 -1.48916 -1.81276 0
M  V30 15756 C 1527.33 -0.377523 -1.69855 0
M  V30 15757 O 1528.5 -0.629151 -1.91321 0
M  V30 15758 C 1525.57 -1.39376 -3.17451 0
M  V30 15759 C 1524.63 -2.61072 -3.40793 0
M  V30 15760 C 1523.86 -2.51976 -4.70472 0
M  V30 15761 O 1524.08 -1.55827 -5.48702 0
M  V30 15762 O 1523.02 -3.42193 -4.95164 0
M  V30 15763 H 1526.84 -2.45382 -1.78945 0
M  V30 15764 H 1524.43 -1.24467 -0.826342 0
M  V30 15765 H 1526.31 -1.36435 -3.98702 0
M  V30 15766 H 1524.99 -0.460376 -3.20409 0
M  V30 15767 H 1523.89 -2.69587 -2.59372 0
M  V30 15768 H 1525.23 -3.53325 -3.42669 0
M  V30 15769 N 1526.88 0.906753 -1.28902 0
M  V30 15770 C 1527.79 2.04313 -1.15296 0
M  V30 15771 C 1528.8 1.73826 -0.0778619 0
M  V30 15772 O 1529.98 1.99322 -0.288543 0
M  V30 15773 C 1527.04 3.36782 -0.823317 0
M  V30 15774 C 1526.11 3.80834 -1.98152 0
M  V30 15775 C 1525.34 5.06981 -1.66751 0
M  V30 15776 O 1525.56 5.67391 -0.58513 0
M  V30 15777 O 1524.5 5.46915 -2.51332 0
M  V30 15778 H 1528.32 2.18713 -2.10709 0
M  V30 15779 H 1525.91 1.02928 -1.08287 0
M  V30 15780 H 1527.79 4.16298 -0.653735 0
M  V30 15781 H 1526.46 3.23542 0.101097 0
M  V30 15782 H 1525.37 3.02115 -2.2063 0
M  V30 15783 H 1526.7 3.98648 -2.88688 0
M  V30 15784 N 1528.36 1.11264 1.11616 0
M  V30 15785 C 1529.6 0.860364 1.83314 0
M  V30 15786 C 1529.93 -0.614011 1.84554 0
M  V30 15787 O 1529.19 -1.4692 1.29279 0
M  V30 15788 C 1529.48 1.36481 3.30315 0
M  V30 15789 C 1529.15 2.85209 3.49237 0
M  V30 15790 C 1527.81 3.25822 3.54109 0
M  V30 15791 C 1530.16 3.81009 3.55642 0
M  V30 15792 C 1527.49 4.60968 3.62941 0
M  V30 15793 C 1529.84 5.15968 3.66005 0
M  V30 15794 C 1528.51 5.56142 3.69137 0
M  V30 15795 H 1527.78 0.314829 0.670793 0
M  V30 15796 H 1530.43 1.39073 1.31647 0
M  V30 15797 H 1528.73 0.754639 3.84464 0
M  V30 15798 H 1530.43 1.14597 3.84276 0
M  V30 15799 H 1527.02 2.52791 3.46114 0
M  V30 15800 H 1531.2 3.50734 3.5114 0
M  V30 15801 H 1526.46 4.91503 3.63641 0
M  V30 15802 H 1530.63 5.90037 3.69904 0
M  V30 15803 H 1528.26 6.60855 3.75732 0
M  V30 15804 N 1529.83 -1.29188 0.902679 0
M  V30 15805 C 1531.24 -1.77521 0.578207 0
M  V30 15806 C 1531.6 -1.74017 -0.906227 0
M  V30 15807 O 1530.72 -1.32793 -1.70865 0
M  V30 15808 C 1531.32 -3.22352 1.04281 0
M  V30 15809 C 1529.87 -3.68451 0.769454 0
M  V30 15810 C 1529.02 -2.49225 1.21583 0
M  V30 15811 H 1531.97 -1.15807 1.0851 0
M  V30 15812 H 1531.99 -3.78604 0.379396 0
M  V30 15813 H 1531.51 -3.2487 2.12323 0
M  V30 15814 H 1529.61 -3.71405 -0.298223 0
M  V30 15815 H 1529.72 -4.59112 1.36943 0
M  V30 15816 H 1528.08 -2.46663 0.634766 0
M  V30 15817 H 1528.87 -2.54469 2.30436 0
M  V30 15818 N 1531.31 -0.665475 -1.42861 0
M  V30 15819 C 1532.56 -0.192802 -2.02484 0
M  V30 15820 C 1532.91 1.18429 -1.51632 0
M  V30 15821 O 1532.21 1.78164 -0.704859 0
M  V30 15822 C 1532.4 -0.156963 -3.57055 0
M  V30 15823 C 1532.23 -1.52904 -4.22907 0
M  V30 15824 C 1531 -2.12449 -4.58469 0
M  V30 15825 C 1533.2 -2.46989 -4.51111 0
M  V30 15826 N 1531.18 -3.42535 -5.09454 0
M  V30 15827 C 1532.55 -3.6172 -5.03546 0
M  V30 15828 C 1534.6 -2.45637 -4.3309 0
M  V30 15829 C 1533.31 -4.75339 -5.39856 0
M  V30 15830 C 1535.33 -3.58346 -4.7047 0
M  V30 15831 C 1534.7 -4.71803 -5.2305 0
M  V30 15832 H 1530.79 -0.115261 -0.773459 0
M  V30 15833 H 1533.38 -0.87644 -1.73858 0
M  V30 15834 H 1531.55 0.496057 -3.85219 0
M  V30 15835 H 1533.28 0.327722 -4.03371 0
M  V30 15836 H 1530.04 -1.65033 -4.43916 0
M  V30 15837 H 1530.46 -4.09135 -5.39386 0
M  V30 15838 H 1535.1 -1.59152 -3.91702 0
M  V30 15839 H 1532.82 -5.62508 -5.80182 0
M  V30 15840 H 1536.41 -3.58516 -4.58211 0
M  V30 15841 H 1535.29 -5.57573 -5.51436 0
M  V30 15842 N 1532.79 1.52222 -0.408187 0
M  V30 15843 C 1533.74 2.26988 0.417767 0
M  V30 15844 C 1534.71 1.29362 1.04185 0
M  V30 15845 O 1535.89 1.58223 1.06631 0
M  V30 15846 C 1533.03 3.09379 1.52901 0
M  V30 15847 C 1532.14 4.2196 0.92593 0
M  V30 15848 C 1531.28 4.91712 2.00979 0
M  V30 15849 C 1530.32 5.96258 1.3836 0
M  V30 15850 N 1529.46 6.59531 2.40756 0
M  V30 15851 H 1534.3 2.9714 -0.226228 0
M  V30 15852 H 1531.83 1.46581 -0.123402 0
M  V30 15853 H 1533.79 3.55452 2.18425 0
M  V30 15854 H 1532.42 2.41399 2.14304 0
M  V30 15855 H 1531.47 3.80064 0.159765 0
M  V30 15856 H 1532.78 4.96956 0.428497 0
M  V30 15857 H 1531.94 5.41186 2.74231 0
M  V30 15858 H 1530.68 4.16282 2.54087 0
M  V30 15859 H 1529.68 5.46104 0.636402 0
M  V30 15860 H 1530.91 6.7363 0.860218 0
M  V30 15861 H 1528.85 5.86931 2.92999 0
M  V30 15862 H 1528.77 7.30198 1.95822 0
M  V30 15863 H 1530.04 7.13643 3.13581 0
M  V30 15864 N 1534.27 0.138579 1.5699 0
M  V30 15865 C 1535.18 -0.817548 2.19894 0
M  V30 15866 C 1536.19 -1.27806 1.18075 0
M  V30 15867 O 1537.37 -1.33699 1.5062 0
M  V30 15868 C 1534.43 -2.04244 2.80152 0
M  V30 15869 C 1533.5 -1.63197 3.97071 0
M  V30 15870 C 1532.73 -2.79847 4.54446 0
M  V30 15871 O 1532.95 -3.95827 4.10703 0
M  V30 15872 O 1531.89 -2.55804 5.44838 0
M  V30 15873 H 1535.71 -0.312123 3.02092 0
M  V30 15874 H 1533.3 -0.0880281 1.4914 0
M  V30 15875 H 1535.18 -2.75945 3.18485 0
M  V30 15876 H 1533.85 -2.53755 2.00973 0
M  V30 15877 H 1532.76 -0.885448 3.6347 0
M  V30 15878 H 1534.09 -1.1841 4.77745 0
M  V30 15879 N 1535.75 -1.57019 -0.13521 0
M  V30 15880 C 1536.68 -1.95769 -1.19193 0
M  V30 15881 C 1537.69 -0.854953 -1.38544 0
M  V30 15882 O 1538.88 -1.13332 -1.37906 0
M  V30 15883 C 1535.98 -2.22674 -2.55479 0
M  V30 15884 C 1535.15 -3.53972 -2.56949 0
M  V30 15885 C 1534.21 -3.69278 -3.7486 0
M  V30 15886 O 1533.24 -4.41555 -3.59191 0
M  V30 15887 N 1534.44 -3.06826 -4.92786 0
M  V30 15888 H 1537.2 -2.87022 -0.862451 0
M  V30 15889 H 1534.77 -1.58611 -0.324658 0
M  V30 15890 H 1536.76 -2.30144 -3.3289 0
M  V30 15891 H 1535.33 -1.37628 -2.80673 0
M  V30 15892 H 1534.55 -3.57836 -1.65368 0
M  V30 15893 H 1535.84 -4.40303 -2.54973 0
M  V30 15894 H 1535.23 -2.48043 -5.0842 0
M  V30 15895 H 1533.79 -3.19841 -5.67931 0
M  V30 15896 N 1537.22 0.404919 -1.52309 0
M  V30 15897 C 1538.45 1.17309 -1.70429 0
M  V30 15898 C 1538.87 1.84169 -0.415617 0
M  V30 15899 O 1538.22 1.7205 0.608693 0
M  V30 15900 C 1538.28 2.23306 -2.84282 0
M  V30 15901 O 1538 1.59176 -4.0816 0
M  V30 15902 C 1539.5 3.12972 -3.13948 0
M  V30 15903 H 1536.72 0.352348 -0.571045 0
M  V30 15904 H 1539.26 0.475851 -1.98887 0
M  V30 15905 H 1537.42 2.88693 -2.58332 0
M  V30 15906 H 1537.83 2.29481 -4.71634 0
M  V30 15907 H 1539.3 3.83411 -3.97115 0
M  V30 15908 H 1539.78 3.75582 -2.27672 0
M  V30 15909 H 1540.39 2.53251 -3.41678 0
M  V30 15910 N 1538.7 1.43003 0.662408 0
M  V30 15911 C 1539.67 1.4713 1.75743 0
M  V30 15912 C 1540.67 0.357203 1.56782 0
M  V30 15913 O 1541.86 0.618566 1.62848 0
M  V30 15914 C 1538.99 1.31499 3.14517 0
M  V30 15915 H 1540.18 2.44641 1.73467 0
M  V30 15916 H 1537.73 1.29633 0.873208 0
M  V30 15917 H 1538.47 0.349596 3.2241 0
M  V30 15918 H 1538.25 2.12253 3.29683 0
M  V30 15919 H 1539.74 1.37298 3.94384 0
M  V30 15920 N 1540.18 -0.899904 1.29381 0
M  V30 15921 C 1541.09 -2.03699 1.16378 0
M  V30 15922 C 1542.11 -1.73782 0.0870792 0
M  V30 15923 O 1543.28 -1.99167 0.299109 0
M  V30 15924 C 1540.35 -3.36341 0.841166 0
M  V30 15925 C 1539.41 -3.79778 2.00168 0
M  V30 15926 C 1538.64 -5.0609 1.69437 0
M  V30 15927 O 1538.86 -5.67073 0.615212 0
M  V30 15928 O 1537.8 -5.45574 2.54229 0
M  V30 15929 H 1541.62 -2.17592 2.11866 0
M  V30 15930 H 1539.21 -1.02353 1.08831 0
M  V30 15931 H 1541.09 -4.15946 0.675803 0
M  V30 15932 H 1539.77 -3.23591 -0.0839376 0
M  V30 15933 H 1538.67 -3.00941 2.22229 0
M  V30 15934 H 1540.01 -3.97111 2.90798 0
M  V30 15935 N 1541.66 -1.11854 -1.11024 0
M  V30 15936 C 1542.61 -0.780825 -2.17191 0
M  V30 15937 C 1543.58 0.249657 -1.64213 0
M  V30 15938 O 1544.76 0.125603 -1.90386 0
M  V30 15939 C 1541.9 -0.23491 -3.443 0
M  V30 15940 C 1541.01 -1.32247 -4.1126 0
M  V30 15941 C 1540.15 -0.736638 -5.26068 0
M  V30 15942 C 1539.19 -1.80375 -5.8492 0
M  V30 15943 N 1538.32 -1.23709 -6.91115 0
M  V30 15944 H 1543.16 -1.69031 -2.45423 0
M  V30 15945 H 1540.7 -0.844041 -1.20476 0
M  V30 15946 H 1542.66 0.0996064 -4.17081 0
M  V30 15947 H 1541.29 0.637752 -3.16437 0
M  V30 15948 H 1540.34 -1.77387 -3.36509 0
M  V30 15949 H 1541.65 -2.12965 -4.51051 0
M  V30 15950 H 1540.81 -0.352432 -6.05675 0
M  V30 15951 H 1539.55 0.101811 -4.87594 0
M  V30 15952 H 1538.55 -2.19721 -5.03987 0
M  V30 15953 H 1539.78 -2.64531 -6.2546 0
M  V30 15954 H 1537.72 -0.420357 -6.54652 0
M  V30 15955 H 1537.64 -1.98093 -7.29586 0
M  V30 15956 H 1538.91 -0.879912 -7.74518 0
M  V30 15957 N 1543.14 1.28707 -0.909517 0
M  V30 15958 C 1544.55 1.77212 -0.587613 0
M  V30 15959 C 1544.9 1.74495 0.896986 0
M  V30 15960 O 1544.02 1.33698 1.70158 0
M  V30 15961 C 1544.62 3.21794 -1.05989 0
M  V30 15962 C 1543.18 3.68038 -0.788983 0
M  V30 15963 C 1542.32 2.48576 -1.22903 0
M  V30 15964 H 1545.28 1.1523 -1.09122 0
M  V30 15965 H 1545.3 3.78397 -0.399469 0
M  V30 15966 H 1544.81 3.23739 -2.14043 0
M  V30 15967 H 1542.91 3.71558 0.278523 0
M  V30 15968 H 1543.02 4.58379 -1.39376 0
M  V30 15969 H 1541.39 2.46323 -0.647838 0
M  V30 15970 H 1542.17 2.53243 -2.31782 0
M  V30 15971 N 1544.61 0.673042 1.42506 0
M  V30 15972 C 1545.86 0.194864 2.01862 0
M  V30 15973 C 1546.19 -1.19491 1.53087 0
M  V30 15974 O 1545.47 -1.80187 0.732322 0
M  V30 15975 C 1545.75 0.227559 3.5938 0
M  V30 15976 C 1545.6 1.65266 4.18338 0
M  V30 15977 C 1546.92 -0.425197 4.38041 0
M  V30 15978 H 1544.04 0.0722831 0.733447 0
M  V30 15979 H 1546.68 0.857493 1.6955 0
M  V30 15980 H 1544.83 -0.336658 3.87039 0
M  V30 15981 H 1546.51 2.26899 4.0164 0
M  V30 15982 H 1544.75 2.19388 3.74234 0
M  V30 15983 H 1545.42 1.62724 5.2747 0
M  V30 15984 H 1547.9 0.0550709 4.16064 0
M  V30 15985 H 1546.77 -0.371675 5.4764 0
M  V30 15986 H 1547.03 -1.50251 4.15785 0
M  V30 15987 N 1546.09 -1.52004 0.416254 0
M  V30 15988 C 1547.5 -1.86628 -0.0517247 0
M  V30 15989 C 1547.85 -1.33463 -1.43813 0
M  V30 15990 O 1546.98 -0.676793 -2.05544 0
M  V30 15991 C 1547.57 -3.38651 -0.100637 0
M  V30 15992 C 1546.13 -3.72888 -0.512969 0
M  V30 15993 C 1545.28 -2.75584 0.307975 0
M  V30 15994 H 1548.23 -1.45529 0.633018 0
M  V30 15995 H 1548.25 -3.69348 -0.914465 0
M  V30 15996 H 1547.76 -3.77316 0.908538 0
M  V30 15997 H 1545.87 -3.39804 -1.52852 0
M  V30 15998 H 1545.98 -4.78435 -0.252408 0
M  V30 15999 H 1544.34 -2.53653 -0.230717 0
M  V30 16000 H 1545.13 -3.1709 1.31563 0
M  V30 16001 N 1547.57 -0.146903 -1.56914 0
M  V30 16002 C 1548.53 0.778709 -2.15566 0
M  V30 16003 C 1549.53 1.1753 -1.09742 0
M  V30 16004 O 1550.72 1.09624 -1.35382 0
M  V30 16005 C 1547.86 2.0567 -2.71869 0
M  V30 16006 H 1549.05 0.268506 -2.98696 0
M  V30 16007 H 1546.6 0.10254 -1.55963 0
M  V30 16008 H 1547.34 2.61057 -1.92405 0
M  V30 16009 H 1547.12 1.78154 -3.4929 0
M  V30 16010 H 1548.61 2.71779 -3.17059 0
M  V30 16011 N 1549.05 1.57088 0.126881 0
M  V30 16012 C 1549.98 2.02799 1.15737 0
M  V30 16013 C 1550.96 0.911031 1.43646 0
M  V30 16014 O 1552.14 1.18021 1.54223 0
M  V30 16015 C 1549.27 2.42565 2.48555 0
M  V30 16016 C 1548.23 3.57631 2.35125 0
M  V30 16017 C 1547.55 3.83272 3.72836 0
M  V30 16018 C 1548.85 4.89625 1.81838 0
M  V30 16019 H 1550.55 2.89136 0.777207 0
M  V30 16020 H 1548.09 1.39101 0.372416 0
M  V30 16021 H 1550.05 2.73146 3.20888 0
M  V30 16022 H 1548.77 1.53188 2.88446 0
M  V30 16023 H 1547.43 3.27247 1.65242 0
M  V30 16024 H 1547.08 2.91114 4.10197 0
M  V30 16025 H 1546.78 4.60721 3.64705 0
M  V30 16026 H 1548.3 4.16298 4.46686 0
M  V30 16027 H 1549.72 5.18793 2.43981 0
M  V30 16028 H 1548.11 5.71018 1.84548 0
M  V30 16029 H 1549.18 4.7866 0.775385 0
M  V30 16030 N 1550.53 -0.396836 1.52522 0
M  V30 16031 C 1551.75 -1.16857 1.71345 0
M  V30 16032 C 1552.18 -1.83178 0.427465 0
M  V30 16033 O 1551.53 -1.7051 -0.616123 0
M  V30 16034 C 1551.58 -2.19817 2.85855 0
M  V30 16035 O 1550.69 -3.26233 2.52281 0
M  V30 16036 H 1550.03 -0.340554 0.570017 0
M  V30 16037 H 1552.56 -0.463532 1.9928 0
M  V30 16038 H 1552.57 -2.63944 3.11123 0
M  V30 16039 H 1551.24 -1.70931 3.79151 0
M  V30 16040 H 1549.82 -2.87299 2.37726 0
M  V30 16041 N 1552.01 -1.43353 -0.654814 0
M  V30 16042 C 1553.23 -1.48536 -1.44748 0
M  V30 16043 C 1553.66 -0.103991 -1.87812 0
M  V30 16044 O 1553.01 0.901924 -1.57274 0
M  V30 16045 C 1553.06 -2.43498 -2.65972 0
M  V30 16046 O 1552.17 -1.92014 -3.64972 0
M  V30 16047 H 1551.51 -0.502476 -0.434067 0
M  V30 16048 H 1554.04 -1.88251 -0.801427 0
M  V30 16049 H 1554.05 -2.60748 -3.13806 0
M  V30 16050 H 1552.72 -3.43847 -2.3397 0
M  V30 16051 H 1551.3 -1.84417 -3.24106 0
M  V30 16052 N 1553.48 0.89303 -1.29857 0
M  V30 16053 C 1554.71 1.67744 -1.21119 0
M  V30 16054 C 1555.13 1.87428 0.227198 0
M  V30 16055 O 1554.48 1.41605 1.15128 0
M  V30 16056 C 1554.53 3.05827 -1.92749 0
M  V30 16057 O 1554.26 2.87036 -3.30971 0
M  V30 16058 C 1555.76 4.00248 -1.9057 0
M  V30 16059 H 1552.98 0.523699 -0.4195 0
M  V30 16060 H 1555.52 1.1163 -1.71344 0
M  V30 16061 H 1553.68 3.58696 -1.46342 0
M  V30 16062 H 1554.09 3.74578 -3.6714 0
M  V30 16063 H 1555.56 4.9453 -2.45242 0
M  V30 16064 H 1556.04 4.30237 -0.882753 0
M  V30 16065 H 1556.65 3.53312 -2.36751 0
M  V30 16066 N 1554.96 1.12442 1.10429 0
M  V30 16067 C 1555.92 0.795443 2.14954 0
M  V30 16068 C 1556.92 -0.19022 1.59671 0
M  V30 16069 O 1558.11 0.0355797 1.74164 0
M  V30 16070 C 1555.25 0.182043 3.40414 0
M  V30 16071 H 1556.44 1.72153 2.45567 0
M  V30 16072 H 1553.99 0.927672 1.25793 0
M  V30 16073 H 1554.73 -0.753766 3.15419 0
M  V30 16074 H 1554.51 0.891708 3.81826 0
M  V30 16075 H 1556 -0.0316286 4.17588 0
M  V30 16076 N 1556.44 -1.28223 0.91633 0
M  V30 16077 C 1557.69 -1.95508 0.561095 0
M  V30 16078 C 1558.04 -1.70789 -0.885932 0
M  V30 16079 O 1557.33 -1.01983 -1.62204 0
M  V30 16080 C 1557.53 -3.48112 0.809509 0
M  V30 16081 C 1557.36 -3.87667 2.27913 0
M  V30 16082 C 1556.13 -4.11698 2.92973 0
M  V30 16083 C 1558.32 -3.98127 3.25576 0
M  V30 16084 N 1556.31 -4.37946 4.30205 0
M  V30 16085 C 1557.68 -4.28618 4.4798 0
M  V30 16086 C 1559.73 -3.8066 3.2094 0
M  V30 16087 C 1558.44 -4.43462 5.66334 0
M  V30 16088 C 1560.46 -3.96723 4.38594 0
M  V30 16089 C 1559.82 -4.2759 5.59773 0
M  V30 16090 H 1555.92 -0.739174 0.255237 0
M  V30 16091 H 1558.51 -1.54823 1.18059 0
M  V30 16092 H 1556.68 -3.87781 0.219261 0
M  V30 16093 H 1558.41 -4.02535 0.418046 0
M  V30 16094 H 1555.16 -4.06093 2.43691 0
M  V30 16095 H 1555.59 -4.55148 5.01168 0
M  V30 16096 H 1560.23 -3.55846 2.28328 0
M  V30 16097 H 1557.95 -4.67107 6.59421 0
M  V30 16098 H 1561.53 -3.84641 4.36512 0
M  V30 16099 H 1560.41 -4.39755 6.49296 0
M  V30 16100 N 1557.92 -0.68059 -1.42147 0
M  V30 16101 C 1559.15 -0.213839 -2.05792 0
M  V30 16102 C 1559.56 1.13123 -1.51158 0
M  V30 16103 O 1558.92 1.7039 -0.653708 0
M  V30 16104 C 1558.97 -0.146507 -3.61203 0
M  V30 16105 O 1558.69 -1.43843 -4.13813 0
M  V30 16106 C 1560.19 0.343043 -4.41971 0
M  V30 16107 H 1557.41 -0.10262 -0.663106 0
M  V30 16108 H 1559.95 -0.928957 -1.82183 0
M  V30 16109 H 1558.11 0.519335 -3.83903 0
M  V30 16110 H 1558.52 -1.31561 -5.07732 0
M  V30 16111 H 1560 0.339053 -5.50958 0
M  V30 16112 H 1560.47 1.37933 -4.16979 0
M  V30 16113 H 1561.08 -0.291267 -4.24301 0
M  V30 16114 N 1559.4 1.51781 -0.424309 0
M  V30 16115 C 1560.81 1.86653 0.0418266 0
M  V30 16116 C 1561.16 1.34224 1.43103 0
M  V30 16117 O 1560.28 0.687684 2.05183 0
M  V30 16118 C 1560.88 3.38699 0.0826759 0
M  V30 16119 C 1559.44 3.73155 0.493186 0
M  V30 16120 C 1558.58 2.75417 -0.322586 0
M  V30 16121 H 1561.53 1.45191 -0.640726 0
M  V30 16122 H 1561.56 3.69828 0.894864 0
M  V30 16123 H 1561.07 3.76829 -0.928536 0
M  V30 16124 H 1559.17 3.4061 1.51048 0
M  V30 16125 H 1559.28 4.78562 0.227032 0
M  V30 16126 H 1557.65 2.53772 0.217262 0
M  V30 16127 H 1558.43 3.16388 -1.33243 0
M  V30 16128 N 1560.87 0.155222 1.56834 0
M  V30 16129 C 1561.82 -0.781315 2.17173 0
M  V30 16130 C 1562.79 -1.23835 1.10699 0
M  V30 16131 O 1563.98 -1.3094 1.38778 0
M  V30 16132 C 1561.12 -2.01174 2.80398 0
M  V30 16133 C 1560.23 -1.59976 4.01287 0
M  V30 16134 C 1559.36 -2.78262 4.52486 0
M  V30 16135 C 1558.4 -2.33477 5.65822 0
M  V30 16136 N 1557.54 -3.44799 6.11603 0
M  V30 16137 H 1562.38 -0.259968 2.96864 0
M  V30 16138 H 1559.92 -0.116599 1.46637 0
M  V30 16139 H 1561.87 -2.73318 3.15203 0
M  V30 16140 H 1560.5 -2.50706 2.03338 0
M  V30 16141 H 1559.56 -0.775668 3.72408 0
M  V30 16142 H 1560.87 -1.2309 4.83374 0
M  V30 16143 H 1560.02 -3.58585 4.89389 0
M  V30 16144 H 1558.76 -3.18398 3.69424 0
M  V30 16145 H 1557.77 -1.51596 5.28487 0
M  V30 16146 H 1558.99 -1.94417 6.50676 0
M  V30 16147 H 1556.94 -3.84541 5.31474 0
M  V30 16148 H 1556.85 -3.11955 6.88637 0
M  V30 16149 H 1558.12 -4.25454 6.53153 0
M  V30 16150 N 1562.35 -1.57153 -0.118549 0
M  V30 16151 C 1563.26 -2.03673 -1.16424 0
M  V30 16152 C 1564.28 -0.957203 -1.45305 0
M  V30 16153 O 1565.45 -1.26874 -1.56413 0
M  V30 16154 C 1562.52 -2.43211 -2.47082 0
M  V30 16155 C 1561.58 -3.65248 -2.25593 0
M  V30 16156 C 1560.81 -4.02891 -3.50021 0
M  V30 16157 O 1561.04 -3.40871 -4.57344 0
M  V30 16158 O 1559.97 -4.95989 -3.40996 0
M  V30 16159 H 1563.8 -2.92996 -0.799206 0
M  V30 16160 H 1561.38 -1.45724 -0.329376 0
M  V30 16161 H 1563.26 -2.69374 -3.24061 0
M  V30 16162 H 1561.94 -1.57034 -2.83058 0
M  V30 16163 H 1560.84 -3.44234 -1.46471 0
M  V30 16164 H 1562.18 -4.52131 -1.94521 0
M  V30 16165 N 1563.83 0.388742 -1.5273 0
M  V30 16166 C 1564.79 1.45759 -1.76881 0
M  V30 16167 C 1565.79 1.47565 -0.63884 0
M  V30 16168 O 1566.98 1.48731 -0.906895 0
M  V30 16169 C 1564.11 2.85045 -1.86981 0
M  V30 16170 H 1565.31 1.25629 -2.72319 0
M  V30 16171 H 1562.86 0.620497 -1.43456 0
M  V30 16172 H 1563.6 3.1052 -0.935296 0
M  V30 16173 H 1563.38 2.85136 -2.69147 0
M  V30 16174 H 1564.87 3.62492 -2.07338 0
M  V30 16175 N 1565.31 1.43698 0.647203 0
M  V30 16176 C 1566.55 1.45849 1.40911 0
M  V30 16177 C 1566.89 0.0846767 1.94015 0
M  V30 16178 O 1566.16 -0.89537 1.72665 0
M  V30 16179 C 1566.44 2.50579 2.58616 0
M  V30 16180 C 1566.3 3.97258 2.10965 0
M  V30 16181 C 1567.62 2.51981 3.60824 0
M  V30 16182 H 1564.74 0.531056 0.511027 0
M  V30 16183 H 1567.38 1.75283 0.733204 0
M  V30 16184 H 1565.53 2.25611 3.16278 0
M  V30 16185 H 1567.2 4.33304 1.58257 0
M  V30 16186 H 1565.44 4.09802 1.42284 0
M  V30 16187 H 1566.11 4.6616 2.95633 0
M  V30 16188 H 1568.59 2.7425 3.12932 0
M  V30 16189 H 1567.47 3.27191 4.40723 0
M  V30 16190 H 1567.73 1.55582 4.1382 0
M  V30 16191 N 1566.79 -0.886131 1.30328 0
M  V30 16192 C 1568.01 -1.67099 1.22007 0
M  V30 16193 C 1568.43 -1.87546 -0.217255 0
M  V30 16194 O 1567.79 -1.42213 -1.14375 0
M  V30 16195 C 1567.84 -3.048 1.94368 0
M  V30 16196 O 1567.56 -2.85277 3.32489 0
M  V30 16197 C 1569.06 -3.99231 1.9269 0
M  V30 16198 H 1566.28 -0.521467 0.422271 0
M  V30 16199 H 1568.82 -1.1072 1.71934 0
M  V30 16200 H 1566.98 -3.57915 1.48242 0
M  V30 16201 H 1567.39 -3.72626 3.69121 0
M  V30 16202 H 1568.87 -4.93223 2.47861 0
M  V30 16203 H 1569.34 -4.29763 0.905558 0
M  V30 16204 H 1569.95 -3.52051 2.38621 0
M  V30 16205 N 1568.26 -1.13026 -1.09832 0
M  V30 16206 C 1569.68 -0.902826 -1.6342 0
M  V30 16207 C 1570.03 0.561547 -1.87992 0
M  V30 16208 O 1569.15 1.42735 -1.62652 0
M  V30 16209 C 1569.75 -1.6324 -2.96881 0
M  V30 16210 C 1568.31 -1.45095 -3.4731 0
M  V30 16211 C 1567.45 -1.66431 -2.21802 0
M  V30 16212 H 1570.4 -1.28414 -0.932492 0
M  V30 16213 H 1570.42 -1.08706 -3.64641 0
M  V30 16214 H 1569.94 -2.69816 -2.78964 0
M  V30 16215 H 1568.04 -0.408031 -3.70359 0
M  V30 16216 H 1568.15 -2.21123 -4.25019 0
M  V30 16217 H 1566.51 -1.08885 -2.30252 0
M  V30 16218 H 1567.3 -2.74317 -2.0641 0
M  V30 16219 N 1569.74 1.27735 -0.923117 0
M  V30 16220 C 1570.67 2.29395 -0.435907 0
M  V30 16221 C 1571.65 1.62542 0.501403 0
M  V30 16222 O 1572.84 1.89884 0.407135 0
M  V30 16223 C 1569.97 3.45856 0.316348 0
M  V30 16224 C 1568.92 4.24672 -0.532697 0
M  V30 16225 C 1568.25 5.33563 0.348454 0
M  V30 16226 C 1569.55 4.90494 -1.79481 0
M  V30 16227 H 1571.24 2.70398 -1.28551 0
M  V30 16228 H 1568.79 1.29989 -0.619581 0
M  V30 16229 H 1570.74 4.1607 0.668098 0
M  V30 16230 H 1569.47 3.03758 1.19994 0
M  V30 16231 H 1568.12 3.56198 -0.867093 0
M  V30 16232 H 1567.77 4.87708 1.23086 0
M  V30 16233 H 1567.47 5.87202 -0.216104 0
M  V30 16234 H 1569 6.06622 0.695878 0
M  V30 16235 H 1570.41 5.53019 -1.5114 0
M  V30 16236 H 1568.81 5.5417 -2.30251 0
M  V30 16237 H 1569.88 4.14454 -2.51707 0
M  V30 16238 N 1571.22 0.688118 1.41784 0
M  V30 16239 C 1572.5 0.144304 1.95067 0
M  V30 16240 C 1572.88 -1.34399 1.62789 0
M  V30 16241 O 1572.23 -2.08675 0.930978 0
M  V30 16242 C 1572.44 0.427641 3.4637 0
M  V30 16243 C 1573.78 0.351345 4.23144 0
M  V30 16244 O 1574.81 0.362134 3.54354 0
M  V30 16245 O 1573.67 0.305018 5.45648 0
M  V30 16246 H 1570.76 0.01062 0.826932 0
M  V30 16247 H 1573.31 0.763766 1.51541 0
M  V30 16248 H 1572.08 1.4581 3.63119 0
M  V30 16249 H 1571.7 -0.223167 3.96973 0
M  V30 16250 N 1572.7 -1.51554 0.432352 0
M  V30 16251 C 1573.61 -2.31371 -0.387885 0
M  V30 16252 C 1574.62 -1.40072 -1.03227 0
M  V30 16253 O 1575.8 -1.73145 -1.02873 0
M  V30 16254 C 1572.87 -3.13662 -1.47705 0
M  V30 16255 C 1571.93 -4.20734 -0.853315 0
M  V30 16256 C 1571.16 -4.99092 -1.89058 0
M  V30 16257 O 1571.38 -4.78022 -3.11209 0
M  V30 16258 O 1570.32 -5.83322 -1.48389 0
M  V30 16259 H 1574.14 -3.02554 0.263578 0
M  V30 16260 H 1571.73 -1.48122 0.195004 0
M  V30 16261 H 1573.61 -3.64837 -2.10884 0
M  V30 16262 H 1572.28 -2.45249 -2.11269 0
M  V30 16263 H 1571.19 -3.73649 -0.183616 0
M  V30 16264 H 1572.52 -4.91506 -0.261244 0
M  V30 16265 N 1574.18 -0.163538 -1.56749 0
M  V30 16266 C 1575.11 0.801071 -2.14745 0
M  V30 16267 C 1576.12 1.1992 -1.10104 0
M  V30 16268 O 1577.31 1.14041 -1.37321 0
M  V30 16269 C 1574.41 2.08867 -2.66886 0
M  V30 16270 C 1573.58 1.85532 -3.96102 0
M  V30 16271 C 1572.64 2.98436 -4.33385 0
M  V30 16272 O 1571.67 2.69408 -5.01406 0
M  V30 16273 N 1572.87 4.26029 -3.94309 0
M  V30 16274 H 1575.64 0.3053 -2.98141 0
M  V30 16275 H 1573.2 0.019501 -1.61888 0
M  V30 16276 H 1575.19 2.83477 -2.8883 0
M  V30 16277 H 1573.76 2.49657 -1.88122 0
M  V30 16278 H 1572.98 0.94868 -3.82614 0
M  V30 16279 H 1574.27 1.673 -4.80508 0
M  V30 16280 H 1573.66 4.52475 -3.39533 0
M  V30 16281 H 1572.22 4.97367 -4.21271 0
M  V30 16282 N 1575.65 1.57214 0.110213 0
M  V30 16283 C 1576.56 2.04287 1.15342 0
M  V30 16284 C 1577.58 0.964895 1.44796 0
M  V30 16285 O 1578.76 1.27702 1.55737 0
M  V30 16286 C 1575.82 2.44518 2.45788 0
M  V30 16287 C 1574.88 3.66439 2.23653 0
M  V30 16288 C 1574.12 4.04742 3.47879 0
M  V30 16289 O 1574.34 3.43291 4.5553 0
M  V30 16290 O 1573.27 4.97791 3.38361 0
M  V30 16291 H 1577.1 2.93415 0.783656 0
M  V30 16292 H 1574.68 1.45897 0.321644 0
M  V30 16293 H 1576.57 2.71089 3.22628 0
M  V30 16294 H 1575.24 1.58533 2.82221 0
M  V30 16295 H 1574.15 3.45006 1.44643 0
M  V30 16296 H 1575.48 4.53156 1.9212 0
M  V30 16297 N 1577.13 -0.380637 1.52934 0
M  V30 16298 C 1578.38 -1.12261 1.68053 0
M  V30 16299 C 1578.7 -1.90263 0.427191 0
M  V30 16300 O 1577.97 -1.87768 -0.558559 0
M  V30 16301 H 1576.55 -0.41742 0.619491 0
M  V30 16302 H 1579.21 -0.430906 1.90077 0
M  V30 16303 H 1578.31 -1.82085 2.53479 0
M  V30 16304 N 1578.61 -1.44039 -0.639573 0
M  V30 16305 C 1579.89 -1.36853 -1.39752 0
M  V30 16306 C 1580.27 -0.0230515 -2.11087 0
M  V30 16307 O 1579.62 0.994061 -2.05744 0
M  V30 16308 C 1579.83 -2.56101 -2.37093 0
M  V30 16309 C 1581.17 -2.99793 -3.00681 0
M  V30 16310 O 1582.2 -2.56246 -2.4742 0
M  V30 16311 O 1581.06 -3.75274 -3.97281 0
M  V30 16312 H 1578.15 -0.541521 -0.625047 0
M  V30 16313 H 1580.7 -1.56113 -0.665336 0
M  V30 16314 H 1579.47 -3.45647 -1.83422 0
M  V30 16315 H 1579.09 -2.39011 -3.17741 0
M  V30 16316 N 1580.09 0.879207 -1.30796 0
M  V30 16317 C 1581.34 1.62828 -1.19715 0
M  V30 16318 C 1581.66 1.93429 0.247031 0
M  V30 16319 O 1580.93 1.57478 1.16522 0
M  V30 16320 H 1579.51 0.603607 -0.440077 0
M  V30 16321 H 1582.17 1.05309 -1.64 0
M  V30 16322 H 1581.27 2.57591 -1.76219 0
M  V30 16323 N 1581.57 1.13606 1.09231 0
M  V30 16324 C 1582.79 0.922667 1.85746 0
M  V30 16325 C 1583.22 -0.523381 1.80672 0
M  V30 16326 O 1582.58 -1.37156 1.18566 0
M  V30 16327 C 1582.62 1.41762 3.31566 0
M  V30 16328 O 1581.73 0.60418 4.0795 0
M  V30 16329 H 1581.07 0.330523 0.575891 0
M  V30 16330 H 1583.6 1.51123 1.37924 0
M  V30 16331 H 1583.61 1.42212 3.82413 0
M  V30 16332 H 1582.28 2.47048 3.34574 0
M  V30 16333 H 1580.86 0.667721 3.66873 0
M  V30 16334 N 1583.05 -1.27244 0.929878 0
M  V30 16335 C 1584.01 -2.25028 0.435315 0
M  V30 16336 C 1585.01 -1.54453 -0.447332 0
M  V30 16337 O 1586.2 -1.72424 -0.248105 0
M  V30 16338 C 1583.33 -3.38843 -0.373933 0
M  V30 16339 H 1584.52 -2.70293 1.2993 0
M  V30 16340 H 1582.08 -1.39204 0.710771 0
M  V30 16341 H 1582.81 -2.98963 -1.25664 0
M  V30 16342 H 1582.6 -3.91244 0.258946 0
M  V30 16343 H 1584.09 -4.11516 -0.710255 0
M  V30 16344 N 1584.52 -0.695628 -1.41417 0
M  V30 16345 C 1585.75 -0.235312 -2.05256 0
M  V30 16346 C 1586.16 1.12055 -1.52448 0
M  V30 16347 O 1585.5 1.71139 -0.667612 0
M  V30 16348 C 1585.57 -0.115542 -3.59314 0
M  V30 16349 C 1585.23 -1.40345 -4.34916 0
M  V30 16350 C 1586.23 -2.34131 -4.64197 0
M  V30 16351 C 1583.91 -1.65684 -4.74188 0
M  V30 16352 C 1585.91 -3.51518 -5.31709 0
M  V30 16353 C 1583.59 -2.83355 -5.41436 0
M  V30 16354 C 1584.59 -3.76095 -5.70124 0
M  V30 16355 O 1584.28 -4.91706 -6.35988 0
M  V30 16356 H 1584.01 -0.107129 -0.667457 0
M  V30 16357 H 1586.57 -0.948759 -1.82175 0
M  V30 16358 H 1584.8 0.653675 -3.81135 0
M  V30 16359 H 1586.48 0.307599 -4.04733 0
M  V30 16360 H 1587.25 -2.15812 -4.34339 0
M  V30 16361 H 1583.13 -0.943613 -4.51239 0
M  V30 16362 H 1586.67 -4.23923 -5.54017 0
M  V30 16363 H 1582.57 -3.01591 -5.70713 0
M  V30 16364 H 1583.34 -4.91522 -6.54484 0
M  V30 16365 N 1586 1.51322 -0.440383 0
M  V30 16366 C 1587.23 2.0653 0.123649 0
M  V30 16367 C 1587.64 1.30751 1.36197 0
M  V30 16368 O 1587 0.367932 1.78753 0
M  V30 16369 C 1587.05 3.58778 0.442802 0
M  V30 16370 O 1586.77 4.31695 -0.746375 0
M  V30 16371 C 1588.27 4.3051 1.05717 0
M  V30 16372 H 1585.49 0.670968 0.00657466 0
M  V30 16373 H 1588.04 1.94864 -0.620341 0
M  V30 16374 H 1586.19 3.70349 1.13669 0
M  V30 16375 H 1586.61 5.22368 -0.472466 0
M  V30 16376 H 1588.08 5.38111 1.23046 0
M  V30 16377 H 1588.56 3.88999 2.03903 0
M  V30 16378 H 1589.16 4.2339 0.402574 0
M  V30 16379 N 1587.48 0.171848 1.5666 0
M  V30 16380 C 1588.73 -0.473669 1.97191 0
M  V30 16381 C 1589.06 -1.6286 1.05784 0
M  V30 16382 O 1588.33 -1.94216 0.105084 0
M  V30 16383 C 1588.62 -0.956134 3.47174 0
M  V30 16384 C 1588.47 0.199007 4.4936 0
M  V30 16385 C 1589.79 -1.82962 4.00266 0
M  V30 16386 H 1586.91 -0.170704 0.716958 0
M  V30 16387 H 1589.55 0.25809 1.88239 0
M  V30 16388 H 1587.7 -1.57969 3.54934 0
M  V30 16389 H 1589.37 0.836109 4.53659 0
M  V30 16390 H 1587.61 0.85442 4.25302 0
M  V30 16391 H 1588.29 -0.180704 5.51704 0
M  V30 16392 H 1590.76 -1.30394 3.95141 0
M  V30 16393 H 1589.64 -2.13621 5.05625 0
M  V30 16394 H 1589.9 -2.77557 3.44114 0
M  V30 16395 N 1588.96 -1.5727 -0.101874 0
M  V30 16396 C 1590.18 -1.90319 -0.824215 0
M  V30 16397 C 1590.61 -0.765469 -1.7182 0
M  V30 16398 O 1589.97 0.283275 -1.79073 0
M  V30 16399 C 1590.01 -3.22201 -1.61922 0
M  V30 16400 O 1589.12 -3.09313 -2.72762 0
M  V30 16401 H 1588.46 -0.624042 -0.226864 0
M  V30 16402 H 1590.99 -2.04447 -0.0791314 0
M  V30 16403 H 1591 -3.55343 -2.00487 0
M  V30 16404 H 1589.67 -4.04596 -0.963078 0
M  V30 16405 H 1588.25 -2.87672 -2.37274 0
M  V30 16406 N 1590.44 0.372521 -1.53134 0
M  V30 16407 C 1591.35 1.47994 -1.8203 0
M  V30 16408 C 1592.36 1.58937 -0.708179 0
M  V30 16409 O 1593.54 1.74962 -0.997511 0
M  V30 16410 C 1590.6 2.83342 -1.99796 0
M  V30 16411 C 1589.66 2.81984 -3.23702 0
M  V30 16412 C 1588.9 4.10877 -3.40611 0
M  V30 16413 O 1589.12 5.06686 -2.61964 0
M  V30 16414 O 1588.05 4.17111 -4.33938 0
M  V30 16415 H 1591.88 1.26501 -2.761 0
M  V30 16416 H 1589.46 0.561957 -1.38428 0
M  V30 16417 H 1591.35 3.63551 -2.13092 0
M  V30 16418 H 1590.02 3.04826 -1.08916 0
M  V30 16419 H 1588.93 2.00498 -3.15834 0
M  V30 16420 H 1590.26 2.65453 -4.14482 0
M  V30 16421 N 1591.91 1.44376 0.631925 0
M  V30 16422 C 1593.19 1.37592 1.39024 0
M  V30 16423 C 1593.57 0.0342456 2.11072 0
M  V30 16424 O 1592.92 -0.983136 2.06268 0
M  V30 16425 C 1593.13 2.57355 2.35732 0
M  V30 16426 C 1594.48 3.01384 2.99087 0
M  V30 16427 O 1595.5 2.57554 2.46057 0
M  V30 16428 O 1594.36 3.77375 3.95285 0
M  V30 16429 H 1591.45 0.544828 0.622167 0
M  V30 16430 H 1594 1.56464 0.657048 0
M  V30 16431 H 1592.77 3.46615 1.81587 0
M  V30 16432 H 1592.39 2.40693 3.16469 0
M  V30 16433 N 1593.39 -0.872258 1.31261 0
M  V30 16434 C 1594.3 -2.01185 1.20673 0
M  V30 16435 C 1595.32 -1.73558 0.123921 0
M  V30 16436 O 1596.49 -1.98487 0.341288 0
M  V30 16437 C 1593.56 -3.34481 0.91232 0
M  V30 16438 C 1592.62 -3.75446 2.08179 0
M  V30 16439 C 1591.85 -5.02382 1.80134 0
M  V30 16440 O 1592.08 -5.6564 0.735358 0
M  V30 16441 O 1591.01 -5.40059 2.65744 0
M  V30 16442 H 1594.84 -2.13049 2.16434 0
M  V30 16443 H 1592.42 -1.00021 1.10978 0
M  V30 16444 H 1594.3 -4.14419 0.763879 0
M  V30 16445 H 1592.98 -3.23696 -0.0152802 0
M  V30 16446 H 1591.88 -2.96159 2.28562 0
M  V30 16447 H 1593.22 -3.90853 2.99156 0
M  V30 16448 N 1594.87 -1.14184 -1.08627 0
M  V30 16449 C 1595.8 -0.849455 -2.17501 0
M  V30 16450 C 1596.78 0.194617 -1.68983 0
M  V30 16451 O 1597.97 0.0517757 -1.94131 0
M  V30 16452 C 1595.1 -0.323685 -3.45788 0
M  V30 16453 C 1594.05 -1.30294 -4.07685 0
M  V30 16454 C 1593.38 -0.636575 -5.30897 0
M  V30 16455 C 1594.68 -2.66441 -4.49229 0
M  V30 16456 H 1596.37 -1.75987 -2.42217 0
M  V30 16457 H 1593.92 -0.847595 -1.16412 0
M  V30 16458 H 1595.87 -0.106754 -4.21265 0
M  V30 16459 H 1594.59 0.62215 -3.20619 0
M  V30 16460 H 1593.25 -1.50601 -3.34238 0
M  V30 16461 H 1592.9 0.314995 -5.02013 0
M  V30 16462 H 1592.6 -1.28998 -5.73266 0
M  V30 16463 H 1594.12 -0.429117 -6.0909 0
M  V30 16464 H 1595.54 -2.50055 -5.15893 0
M  V30 16465 H 1593.93 -3.28033 -5.02508 0
M  V30 16466 H 1595 -3.23486 -3.61226 0
M  V30 16467 N 1596.35 1.26749 -0.936613 0
M  V30 16468 C 1597.28 2.2892 -0.460213 0
M  V30 16469 C 1598.26 1.63065 0.484135 0
M  V30 16470 O 1599.44 1.90305 0.386973 0
M  V30 16471 C 1596.57 3.46172 0.279648 0
M  V30 16472 C 1595.53 4.24083 -0.57771 0
M  V30 16473 C 1594.85 5.33903 0.291843 0
M  V30 16474 C 1596.15 4.88562 -1.84673 0
M  V30 16475 H 1597.85 2.69019 -1.31412 0
M  V30 16476 H 1595.39 1.29325 -0.633333 0
M  V30 16477 H 1597.35 4.16755 0.623931 0
M  V30 16478 H 1596.07 3.05014 1.16765 0
M  V30 16479 H 1594.73 3.55258 -0.904824 0
M  V30 16480 H 1594.38 4.88986 1.17906 0
M  V30 16481 H 1594.08 5.8694 -0.278372 0
M  V30 16482 H 1595.6 6.07326 0.631498 0
M  V30 16483 H 1597.02 5.51384 -1.56997 0
M  V30 16484 H 1595.41 5.51697 -2.36115 0
M  V30 16485 H 1596.48 4.11761 -2.56088 0
M  V30 16486 N 1597.83 0.703118 1.41046 0
M  V30 16487 C 1599.05 0.246552 2.05426 0
M  V30 16488 C 1599.47 -1.10704 1.52938 0
M  V30 16489 O 1598.83 -1.69329 0.680733 0
M  V30 16490 C 1598.88 0.203953 3.60924 0
M  V30 16491 O 1598.6 1.50408 4.11472 0
M  V30 16492 C 1600.1 -0.272686 4.42461 0
M  V30 16493 H 1597.32 0.113157 0.66139 0
M  V30 16494 H 1599.86 0.957823 1.80682 0
M  V30 16495 H 1598.02 -0.458194 3.84681 0
M  V30 16496 H 1598.43 1.39622 5.05575 0
M  V30 16497 H 1599.91 -0.251357 5.51427 0
M  V30 16498 H 1600.38 -1.31282 4.1912 0
M  V30 16499 H 1600.99 0.358733 4.23784 0
M  V30 16500 N 1599.3 -1.51086 0.448402 0
M  V30 16501 C 1600.55 -2.01778 -0.114116 0
M  V30 16502 C 1600.87 -1.3339 -1.4224 0
M  V30 16503 O 1600.14 -0.471938 -1.9013 0
M  V30 16504 H 1598.72 -0.745634 -0.0451624 0
M  V30 16505 H 1601.39 -1.85639 0.59364 0
M  V30 16506 H 1600.48 -3.10823 -0.28205 0
M  V30 16507 N 1600.78 -0.180154 -1.56567 0
M  V30 16508 C 1602.01 0.471692 -2.01965 0
M  V30 16509 C 1602.43 1.5542 -1.05954 0
M  V30 16510 O 1601.79 1.81255 -0.0405307 0
M  V30 16511 C 1601.84 1.01883 -3.45908 0
M  V30 16512 O 1600.94 2.13245 -3.52988 0
M  V30 16513 H 1600.28 0.11197 -0.654491 0
M  V30 16514 H 1602.81 -0.286642 -2.02582 0
M  V30 16515 H 1602.82 1.33922 -3.85395 0
M  V30 16516 H 1601.5 0.226299 -4.15284 0
M  V30 16517 H 1600.08 1.82184 -3.25367 0
M  V30 16518 N 1602.26 1.57322 0.0935319 0
M  V30 16519 C 1603.17 2.05499 1.13169 0
M  V30 16520 C 1604.19 0.980199 1.43764 0
M  V30 16521 O 1605.36 1.29347 1.54374 0
M  V30 16522 C 1602.43 2.47111 2.43181 0
M  V30 16523 C 1601.49 3.68791 2.19754 0
M  V30 16524 C 1600.72 4.08408 3.43567 0
M  V30 16525 O 1600.94 3.48104 4.51863 0
M  V30 16526 O 1599.88 5.01351 3.33062 0
M  V30 16527 H 1603.7 2.9423 0.752491 0
M  V30 16528 H 1601.29 1.4623 0.306151 0
M  V30 16529 H 1603.17 2.74495 3.19735 0
M  V30 16530 H 1601.85 1.61518 2.80524 0
M  V30 16531 H 1600.75 3.46521 1.40976 0
M  V30 16532 H 1602.09 4.55169 1.87303 0
M  V30 16533 N 1603.74 -0.364395 1.53329 0
M  V30 16534 C 1605.15 -0.706147 1.43128 0
M  V30 16535 C 1605.35 -1.93231 0.571307 0
M  V30 16536 O 1604.41 -2.52442 0.0542079 0
M  V30 16537 C 1605.72 -0.918245 2.86337 0
M  V30 16538 C 1607.27 -1.01818 2.95976 0
M  V30 16539 C 1607.75 -1.26274 4.40249 0
M  V30 16540 N 1609.24 -1.33042 4.43683 0
M  V30 16541 C 1609.97 -1.53677 5.52423 0
M  V30 16542 N 1609.47 -1.7162 6.71207 0
M  V30 16543 N 1611.26 -1.56056 5.40003 0
M  V30 16544 H 1603.41 0.442091 2.07748 0
M  V30 16545 H 1605.68 0.135735 0.938232 0
M  V30 16546 H 1605.38 -0.0890628 3.51587 0
M  V30 16547 H 1605.26 -1.826 3.30056 0
M  V30 16548 H 1607.64 -1.83791 2.30879 0
M  V30 16549 H 1607.72 -0.0877892 2.55649 0
M  V30 16550 H 1607.37 -0.448026 5.0592 0
M  V30 16551 H 1607.3 -2.20637 4.78149 0
M  V30 16552 H 1609.79 -1.20784 3.58078 0
M  V30 16553 H 1610.1 -1.86942 7.49848 0
M  V30 16554 H 1608.45 -1.68797 6.7419 0
M  V30 16555 H 1611.64 -1.41605 4.46168 0
M  V30 16556 H 1611.81 -1.71796 6.24812 0
M  V30 16557 N 1605.22 -1.44709 -0.62426 0
M  V30 16558 C 1606.46 -1.48072 -1.38573 0
M  V30 16559 C 1606.8 -0.115532 -1.93856 0
M  V30 16560 O 1606.07 0.867787 -1.74068 0
M  V30 16561 C 1606.35 -2.54662 -2.54596 0
M  V30 16562 C 1606.21 -4.00564 -2.04618 0
M  V30 16563 C 1607.53 -2.57689 -3.56769 0
M  V30 16564 H 1604.64 -0.539119 -0.502513 0
M  V30 16565 H 1607.29 -1.76427 -0.705225 0
M  V30 16566 H 1605.44 -2.30614 -3.12649 0
M  V30 16567 H 1607.11 -4.35767 -1.51343 0
M  V30 16568 H 1605.35 -4.12014 -1.35746 0
M  V30 16569 H 1606.02 -4.70804 -2.8818 0
M  V30 16570 H 1608.5 -2.79194 -3.08529 0
M  V30 16571 H 1607.37 -3.34161 -4.35462 0
M  V30 16572 H 1607.64 -1.62146 -4.11292 0
M  V30 16573 N 1606.69 0.865285 -1.31722 0
M  V30 16574 C 1608.11 1.43445 -1.195 0
M  V30 16575 C 1608.46 1.95212 0.196688 0
M  V30 16576 O 1607.58 1.86666 1.09475 0
M  V30 16577 C 1608.18 2.6074 -2.16333 0
M  V30 16578 C 1606.74 3.13688 -2.08031 0
M  V30 16579 C 1605.88 1.86409 -2.05298 0
M  V30 16580 H 1608.83 0.6734 -1.43705 0
M  V30 16581 H 1608.85 3.37575 -1.75566 0
M  V30 16582 H 1608.37 2.23033 -3.17612 0
M  V30 16583 H 1606.47 3.56004 -1.09962 0
M  V30 16584 H 1606.58 3.75653 -2.97358 0
M  V30 16585 H 1604.94 2.05567 -1.50381 0
M  V30 16586 H 1605.73 1.50933 -3.08341 0
M  V30 16587 N 1608.17 1.14759 1.0802 0
M  V30 16588 C 1609.42 0.919609 1.80751 0
M  V30 16589 C 1609.75 -0.552268 1.86182 0
M  V30 16590 O 1609.03 -1.40922 1.34057 0
M  V30 16591 C 1609.31 1.52611 3.26162 0
M  V30 16592 C 1609.16 3.06811 3.28918 0
M  V30 16593 C 1610.48 1.20625 4.23246 0
M  V30 16594 H 1607.6 0.33551 0.656203 0
M  V30 16595 H 1610.24 1.41816 1.26444 0
M  V30 16596 H 1608.39 1.10213 3.72539 0
M  V30 16597 H 1610.06 3.58068 2.90835 0
M  V30 16598 H 1608.31 3.41055 2.68075 0
M  V30 16599 H 1608.98 3.44357 4.31419 0
M  V30 16600 H 1611.45 1.57287 3.85227 0
M  V30 16601 H 1610.33 1.65689 5.23296 0
M  V30 16602 H 1610.59 0.122177 4.41931 0
M  V30 16603 N 1609.65 -1.26251 0.943322 0
M  V30 16604 C 1610.58 -2.28673 0.472347 0
M  V30 16605 C 1611.56 -1.63319 -0.475481 0
M  V30 16606 O 1612.75 -1.90508 -0.376875 0
M  V30 16607 C 1609.88 -3.46316 -0.261286 0
M  V30 16608 C 1608.83 -4.23771 0.600192 0
M  V30 16609 C 1608.16 -5.3405 -0.263525 0
M  V30 16610 C 1609.46 -4.87576 1.87262 0
M  V30 16611 H 1611.15 -2.68319 1.32836 0
M  V30 16612 H 1608.7 -1.28987 0.640182 0
M  V30 16613 H 1610.65 -4.1708 -0.601821 0
M  V30 16614 H 1609.37 -3.05629 -1.15146 0
M  V30 16615 H 1608.03 -3.54774 0.923651 0
M  V30 16616 H 1607.68 -4.89604 -1.15312 0
M  V30 16617 H 1607.38 -5.86784 0.309495 0
M  V30 16618 H 1608.9 -6.07652 -0.599281 0
M  V30 16619 H 1610.32 -5.50544 1.59919 0
M  V30 16620 H 1608.72 -5.50437 2.39038 0
M  V30 16621 H 1609.79 -4.10397 2.58268 0
M  V30 16622 N 1611.13 -0.710588 -1.40671 0
M  V30 16623 C 1612.04 -0.0557164 -2.34534 0
M  V30 16624 C 1613.06 0.749387 -1.57036 0
M  V30 16625 O 1614.23 0.683493 -1.89447 0
M  V30 16626 C 1611.3 0.858583 -3.35901 0
M  V30 16627 C 1610.36 0.043995 -4.29277 0
M  V30 16628 C 1609.59 0.91475 -5.25802 0
M  V30 16629 O 1609.81 2.15407 -5.28163 0
M  V30 16630 O 1608.75 0.356407 -6.00844 0
M  V30 16631 H 1612.57 -0.829807 -2.92144 0
M  V30 16632 H 1610.16 -0.471028 -1.4178 0
M  V30 16633 H 1612.04 1.38244 -3.98079 0
M  V30 16634 H 1610.72 1.61191 -2.80712 0
M  V30 16635 H 1609.62 -0.524815 -3.704 0
M  V30 16636 H 1610.96 -0.670996 -4.87605 0
M  V30 16637 N 1612.61 1.50847 -0.456408 0
M  V30 16638 C 1613.84 2.0665 0.101737 0
M  V30 16639 C 1614.25 1.32188 1.34803 0
M  V30 16640 O 1613.61 0.38687 1.78352 0
M  V30 16641 C 1613.66 3.59227 0.404724 0
M  V30 16642 O 1613.38 4.30879 -0.79212 0
M  V30 16643 C 1614.88 4.31607 1.01145 0
M  V30 16644 H 1612.1 0.671 -0.000542219 0
M  V30 16645 H 1614.64 1.94195 -0.640974 0
M  V30 16646 H 1612.8 3.71533 1.09735 0
M  V30 16647 H 1613.21 5.21837 -0.527843 0
M  V30 16648 H 1614.69 5.39386 1.17332 0
M  V30 16649 H 1615.16 3.9114 1.99765 0
M  V30 16650 H 1615.77 4.23794 0.357645 0
M  V30 16651 N 1614.09 0.188454 1.56469 0
M  V30 16652 C 1615.31 -0.457846 2.01771 0
M  V30 16653 C 1615.73 -1.55646 1.06863 0
M  V30 16654 O 1615.09 -1.82356 0.0723619 0
M  V30 16655 C 1615.14 -1.02032 3.46802 0
M  V30 16656 O 1614.86 0.0344536 4.38086 0
M  V30 16657 C 1616.36 -1.74316 4.07589 0
M  V30 16658 H 1613.58 -0.115594 0.660968 0
M  V30 16659 H 1616.12 0.295213 2.02358 0
M  V30 16660 H 1614.28 -1.7238 3.46935 0
M  V30 16661 H 1614.69 -0.383254 5.23098 0
M  V30 16662 H 1616.17 -2.08912 5.1094 0
M  V30 16663 H 1616.64 -2.64445 3.50665 0
M  V30 16664 H 1617.25 -1.0857 4.11209 0
M  V30 16665 N 1615.56 -1.5737 -0.0851874 0
M  V30 16666 C 1616.97 -1.7544 -0.638575 0
M  V30 16667 C 1617.33 -0.812041 -1.78607 0
M  V30 16668 O 1616.45 0.00710428 -2.16399 0
M  V30 16669 C 1617.05 -3.18134 -1.16517 0
M  V30 16670 C 1615.6 -3.37594 -1.66454 0
M  V30 16671 C 1614.75 -2.71203 -0.578274 0
M  V30 16672 H 1617.7 -1.58073 0.140931 0
M  V30 16673 H 1617.72 -3.21553 -2.0343 0
M  V30 16674 H 1617.24 -3.86696 -0.329794 0
M  V30 16675 H 1615.34 -2.74126 -2.5236 0
M  V30 16676 H 1615.45 -4.45968 -1.75071 0
M  V30 16677 H 1613.81 -2.33379 -1.02011 0
M  V30 16678 H 1614.6 -3.42413 0.246691 0
M  V30 16679 N 1617.04 0.356258 -1.53521 0
M  V30 16680 C 1618.29 1.09953 -1.70406 0
M  V30 16681 C 1618.62 1.8869 -0.459304 0
M  V30 16682 O 1617.9 1.86751 0.54354 0
M  V30 16683 C 1618.18 2.05114 -2.95973 0
M  V30 16684 C 1618.03 1.29924 -4.30627 0
M  V30 16685 C 1619.35 3.0511 -3.17168 0
M  V30 16686 H 1616.47 0.398343 -0.620074 0
M  V30 16687 H 1619.11 0.379376 -1.86174 0
M  V30 16688 H 1617.26 2.66524 -2.82661 0
M  V30 16689 H 1618.93 0.71226 -4.55768 0
M  V30 16690 H 1617.18 0.601141 -4.29615 0
M  V30 16691 H 1617.85 1.99624 -5.1464 0
M  V30 16692 H 1620.32 2.53809 -3.29728 0
M  V30 16693 H 1619.2 3.68908 -4.06445 0
M  V30 16694 H 1619.46 3.75794 -2.32876 0
M  V30 16695 N 1618.52 1.45038 0.616577 0
M  V30 16696 C 1619.77 1.48292 1.3731 0
M  V30 16697 C 1620.09 0.122437 1.94615 0
M  V30 16698 O 1619.36 -0.847103 1.76638 0
M  V30 16699 H 1617.94 0.546079 0.509712 0
M  V30 16700 H 1620.6 1.80927 0.724673 0
M  V30 16701 H 1619.7 2.21664 2.19708 0
M  V30 16702 N 1620 -0.858287 1.32179 0
M  V30 16703 C 1620.94 -1.96656 1.20811 0
M  V30 16704 C 1621.91 -1.6585 0.0911199 0
M  V30 16705 O 1623.1 -1.88936 0.266033 0
M  V30 16706 C 1620.24 -3.32237 0.933408 0
M  V30 16707 C 1619.35 -3.75564 2.13484 0
M  V30 16708 C 1618.49 -4.9992 1.79593 0
M  V30 16709 C 1617.53 -5.35728 2.96077 0
M  V30 16710 N 1616.66 -6.51261 2.62304 0
M  V30 16711 H 1621.5 -2.05711 2.15609 0
M  V30 16712 H 1619.04 -1.00689 1.07239 0
M  V30 16713 H 1621 -4.10318 0.754651 0
M  V30 16714 H 1619.63 -3.22792 0.0222279 0
M  V30 16715 H 1618.68 -2.93167 2.42399 0
M  V30 16716 H 1619.99 -3.98025 3.00629 0
M  V30 16717 H 1619.15 -5.85698 1.58248 0
M  V30 16718 H 1617.89 -4.79388 0.896561 0
M  V30 16719 H 1616.89 -4.48463 3.18058 0
M  V30 16720 H 1618.12 -5.58219 3.86741 0
M  V30 16721 H 1616.06 -6.32254 1.74904 0
M  V30 16722 H 1615.98 -6.73722 3.42979 0
M  V30 16723 H 1617.25 -7.40202 2.4438 0
M  V30 16724 N 1621.48 -1.1533 -1.07409 0
M  V30 16725 C 1622.72 -0.922348 -1.79376 0
M  V30 16726 C 1623.04 0.551929 -1.87652 0
M  V30 16727 O 1624.24 0.900444 -2.56133 0
M  V30 16728 C 1622.7 -1.60081 -3.22339 0
M  V30 16729 C 1622.31 -3.11206 -3.22265 0
M  V30 16730 C 1624.05 -1.45138 -3.98917 0
M  V30 16731 C 1621.96 -3.71842 -4.59878 0
M  V30 16732 H 1620.89 -0.341438 -0.672262 0
M  V30 16733 H 1623.54 -1.38336 -1.20562 0
M  V30 16734 H 1621.92 -1.06748 -3.81341 0
M  V30 16735 H 1623.1 -3.7129 -2.72911 0
M  V30 16736 H 1621.41 -3.25903 -2.59183 0
M  V30 16737 H 1624.01 -1.87832 -5.00623 0
M  V30 16738 H 1624.35 -0.398796 -4.14385 0
M  V30 16739 H 1624.88 -1.95564 -3.46409 0
M  V30 16740 H 1621.62 -4.76998 -4.49614 0
M  V30 16741 H 1621.14 -3.16541 -5.09472 0
M  V30 16742 H 1622.82 -3.72733 -5.28847 0
M  V30 16743 N 1622.95 1.25748 -0.950004 0
M  V30 16744 C 1624.23 1.88566 -0.519839 0
M  V30 16745 C 1624.61 1.85761 1.00279 0
M  V30 16746 O 1623.96 1.31797 1.8666 0
M  V30 16747 C 1624.17 3.31502 -1.09121 0
M  V30 16748 C 1625.52 4.08298 -1.16524 0
M  V30 16749 O 1626.54 3.40605 -1.04243 0
M  V30 16750 O 1625.4 5.29375 -1.35735 0
M  V30 16751 H 1622.49 0.809175 -0.170777 0
M  V30 16752 H 1625.04 1.33853 -1.04314 0
M  V30 16753 H 1623.81 3.2795 -2.13458 0
M  V30 16754 H 1623.43 3.93765 -0.550881 0
M  V30 16755 N 1624.43 0.718038 1.40292 0
M  V30 16756 C 1625.38 0.0434428 2.27959 0
M  V30 16757 C 1626.37 -0.730049 1.43384 0
M  V30 16758 O 1627.56 -0.601847 1.66454 0
M  V30 16759 C 1624.69 -0.875738 3.31942 0
M  V30 16760 C 1623.77 -0.0973011 4.23988 0
M  V30 16761 N 1624.16 0.92073 4.97349 0
M  V30 16762 C 1622.46 -0.329494 4.44781 0
M  V30 16763 C 1623.16 1.38868 5.64881 0
M  V30 16764 N 1622.14 0.710377 5.38938 0
M  V30 16765 H 1625.94 0.823656 2.82123 0
M  V30 16766 H 1623.45 0.550843 1.52773 0
M  V30 16767 H 1625.45 -1.37436 3.93595 0
M  V30 16768 H 1624.11 -1.6553 2.79338 0
M  V30 16769 H 1625.12 1.30164 5.01276 0
M  V30 16770 H 1621.8 -1.08519 4.0315 0
M  V30 16771 H 1623.19 2.23471 6.33648 0
M  V30 16772 N 1625.91 -1.50602 0.464402 0
M  V30 16773 C 1627.14 -2.07191 -0.0930678 0
M  V30 16774 C 1627.56 -1.32675 -1.33338 0
M  V30 16775 O 1626.92 -0.372453 -1.77433 0
M  V30 16776 C 1626.97 -3.5873 -0.366775 0
M  V30 16777 O 1626.07 -3.86125 -1.44849 0
M  V30 16778 H 1625.41 -0.663924 0.0100336 0
M  V30 16779 H 1627.94 -1.93882 0.653522 0
M  V30 16780 H 1627.95 -4.03425 -0.609258 0
M  V30 16781 H 1626.63 -4.12385 0.539608 0
M  V30 16782 H 1625.2 -3.53273 -1.19384 0
M  V30 16783 N 1627.39 -0.19675 -1.56367 0
M  V30 16784 C 1628.63 0.442238 -1.97919 0
M  V30 16785 C 1628.97 1.61156 -1.08362 0
M  V30 16786 O 1628.24 1.94024 -0.135969 0
M  V30 16787 C 1628.53 0.90078 -3.48652 0
M  V30 16788 C 1628.38 -0.270471 -4.48986 0
M  V30 16789 C 1629.7 1.7657 -4.03126 0
M  V30 16790 H 1626.82 0.159276 -0.719583 0
M  V30 16791 H 1629.46 -0.288004 -1.87805 0
M  V30 16792 H 1627.61 1.52302 -3.57402 0
M  V30 16793 H 1629.28 -0.908176 -4.52272 0
M  V30 16794 H 1627.52 -0.921973 -4.23889 0
M  V30 16795 H 1628.19 0.0929101 -5.51922 0
M  V30 16796 H 1630.67 1.24091 -3.97166 0
M  V30 16797 H 1629.55 2.0555 -5.0896 0
M  V30 16798 H 1629.81 2.72047 -3.48486 0
M  V30 16799 N 1628.87 1.57413 0.0768405 0
M  V30 16800 C 1630.09 1.91607 0.793833 0
M  V30 16801 C 1630.52 0.792708 1.70581 0
M  V30 16802 O 1629.87 -0.25475 1.79501 0
M  V30 16803 C 1629.92 3.24736 1.56776 0
M  V30 16804 O 1629.03 3.13613 2.67807 0
M  V30 16805 H 1628.37 0.627572 0.216908 0
M  V30 16806 H 1630.9 2.04547 0.0465957 0
M  V30 16807 H 1630.91 3.58488 1.94809 0
M  V30 16808 H 1629.58 4.06077 0.898588 0
M  V30 16809 H 1628.16 2.91411 2.32668 0
M  V30 16810 N 1630.34 -0.348112 1.53707 0
M  V30 16811 C 1631.57 -1.10742 1.74412 0
M  V30 16812 C 1631.98 -1.82982 0.481049 0
M  V30 16813 O 1631.33 -1.7506 -0.556759 0
M  V30 16814 C 1631.39 -2.16911 2.86687 0
M  V30 16815 C 1631.05 -1.64286 4.26449 0
M  V30 16816 C 1632.05 -1.09761 5.08182 0
M  V30 16817 C 1629.73 -1.69271 4.72919 0
M  V30 16818 C 1631.73 -0.609186 6.34482 0
M  V30 16819 C 1629.41 -1.20041 5.99194 0
M  V30 16820 C 1630.41 -0.659566 6.79808 0
M  V30 16821 O 1630.1 -0.174591 8.0371 0
M  V30 16822 H 1629.83 -0.336313 0.586404 0
M  V30 16823 H 1632.39 -0.407502 2.01317 0
M  V30 16824 H 1630.62 -2.90449 2.55297 0
M  V30 16825 H 1632.31 -2.78371 2.95405 0
M  V30 16826 H 1633.07 -1.05235 4.73445 0
M  V30 16827 H 1628.95 -2.10308 4.10234 0
M  V30 16828 H 1632.49 -0.186374 6.97351 0
M  V30 16829 H 1628.39 -1.24265 6.33426 0
M  V30 16830 H 1629.16 -0.292303 8.17978 0
M  V30 16831 N 1631.82 -1.45363 -0.608876 0
M  V30 16832 C 1633.23 -1.43794 -1.19081 0
M  V30 16833 C 1633.58 -0.164874 -1.95506 0
M  V30 16834 O 1632.71 0.733623 -2.03585 0
M  V30 16835 C 1633.3 -2.60506 -2.16615 0
M  V30 16836 C 1631.86 -2.62061 -2.70187 0
M  V30 16837 C 1631.01 -2.36018 -1.4557 0
M  V30 16838 H 1633.96 -1.53622 -0.39826 0
M  V30 16839 H 1633.98 -2.34531 -2.99625 0
M  V30 16840 H 1633.49 -3.53147 -1.60963 0
M  V30 16841 H 1631.6 -1.73423 -3.2978 0
M  V30 16842 H 1631.71 -3.61242 -3.14708 0
M  V30 16843 H 1630.07 -1.8555 -1.74481 0
M  V30 16844 H 1630.86 -3.30802 -0.917884 0
M  V30 16845 N 1633.3 0.851265 -1.32632 0
M  V30 16846 C 1634.71 1.4217 -1.21015 0
M  V30 16847 C 1635.06 1.95409 0.175972 0
M  V30 16848 O 1634.19 1.87816 1.07489 0
M  V30 16849 C 1634.78 2.58431 -2.19086 0
M  V30 16850 C 1633.34 3.11464 -2.11346 0
M  V30 16851 C 1632.49 1.84221 -2.07263 0
M  V30 16852 H 1635.44 0.65812 -1.44411 0
M  V30 16853 H 1635.46 3.35694 -1.79137 0
M  V30 16854 H 1634.97 2.19652 -3.1996 0
M  V30 16855 H 1633.07 3.54818 -1.13732 0
M  V30 16856 H 1633.19 3.72478 -3.01325 0
M  V30 16857 H 1631.55 2.0396 -1.52553 0
M  V30 16858 H 1632.33 1.47654 -3.09924 0
M  V30 16859 N 1634.78 1.15898 1.06796 0
M  V30 16860 C 1636.03 0.935488 1.79145 0
M  V30 16861 C 1636.35 -0.538433 1.87419 0
M  V30 16862 O 1635.62 -1.39124 1.37917 0
M  V30 16863 H 1634.2 0.343123 0.663533 0
M  V30 16864 H 1636.86 1.4607 1.29034 0
M  V30 16865 H 1635.96 1.34978 2.81402 0
M  V30 16866 N 1636.26 -1.25243 0.956659 0
M  V30 16867 C 1637.22 -2.24054 0.482949 0
M  V30 16868 C 1638.22 -1.55367 -0.41447 0
M  V30 16869 O 1639.41 -1.72912 -0.211475 0
M  V30 16870 C 1636.54 -3.3956 -0.301975 0
M  V30 16871 H 1637.73 -2.67476 1.35634 0
M  V30 16872 H 1635.29 -1.37665 0.740138 0
M  V30 16873 H 1636.02 -3.01561 -1.19294 0
M  V30 16874 H 1635.81 -3.90607 0.341876 0
M  V30 16875 H 1637.3 -4.1293 -0.622807 0
M  V30 16876 N 1637.73 -0.725468 -1.3991 0
M  V30 16877 C 1638.98 -0.26965 -2.00999 0
M  V30 16878 C 1639.31 1.13727 -1.57416 0
M  V30 16879 O 1638.59 1.77345 -0.798693 0
M  V30 16880 C 1638.87 -0.360784 -3.58288 0
M  V30 16881 C 1638.72 -1.80679 -4.11916 0
M  V30 16882 C 1640.04 0.262328 -4.39317 0
M  V30 16883 H 1637.16 -0.0994547 -0.730259 0
M  V30 16884 H 1639.8 -0.91983 -1.6625 0
M  V30 16885 H 1637.95 0.192779 -3.88021 0
M  V30 16886 H 1639.63 -2.4165 -3.92942 0
M  V30 16887 H 1637.87 -2.33127 -3.65834 0
M  V30 16888 H 1638.54 -1.82189 -5.21068 0
M  V30 16889 H 1641.02 -0.209452 -4.15573 0
M  V30 16890 H 1639.89 0.168166 -5.48642 0
M  V30 16891 H 1640.15 1.34716 -4.21075 0
M  V30 16892 N 1639.21 1.50354 -0.472382 0
M  V30 16893 C 1640.44 2.06746 0.0798134 0
M  V30 16894 C 1640.86 1.3361 1.33393 0
M  V30 16895 O 1640.21 0.405765 1.77932 0
M  V30 16896 C 1640.26 3.59636 0.3666 0
M  V30 16897 O 1639.98 4.30015 -0.837776 0
M  V30 16898 C 1641.49 4.32655 0.965618 0
M  V30 16899 H 1638.71 0.670956 -0.00765904 0
M  V30 16900 H 1641.25 1.93504 -0.661535 0
M  V30 16901 H 1639.4 3.72676 1.05788 0
M  V30 16902 H 1639.82 5.21248 -0.583161 0
M  V30 16903 H 1641.29 5.406 1.11604 0
M  V30 16904 H 1641.77 3.93237 1.95606 0
M  V30 16905 H 1642.38 4.24149 0.312676 0
M  V30 16906 N 1640.69 0.205039 1.56261 0
M  V30 16907 C 1641.6 -0.723548 2.23164 0
M  V30 16908 C 1642.62 -1.22683 1.23389 0
M  V30 16909 O 1643.79 -1.27191 1.56155 0
M  V30 16910 C 1640.86 -1.92178 2.88563 0
M  V30 16911 C 1639.92 -1.46209 4.03635 0
M  V30 16912 C 1639.15 -2.60321 4.65906 0
M  V30 16913 O 1639.38 -3.78051 4.27122 0
M  V30 16914 O 1638.31 -2.32465 5.55197 0
M  V30 16915 H 1642.14 -0.183715 3.03144 0
M  V30 16916 H 1639.72 -0.0246933 1.4938 0
M  V30 16917 H 1641.6 -2.62188 3.29902 0
M  V30 16918 H 1640.28 -2.45003 2.11555 0
M  V30 16919 H 1639.18 -0.730492 3.66899 0
M  V30 16920 H 1640.52 -0.980402 4.82337 0
M  V30 16921 N 1642.17 -1.57451 -0.0684915 0
M  V30 16922 C 1643.12 -2.00364 -1.08803 0
M  V30 16923 C 1644.1 -0.886239 -1.34293 0
M  V30 16924 O 1645.3 -1.15015 -1.34538 0
M  V30 16925 C 1642.42 -2.45387 -2.40083 0
M  V30 16926 C 1641.51 -3.63869 -2.17853 0
M  V30 16927 N 1641.9 -4.77936 -1.65562 0
M  V30 16928 C 1640.2 -3.70482 -2.48312 0
M  V30 16929 C 1640.9 -5.59768 -1.58223 0
M  V30 16930 N 1639.88 -5.03711 -2.04392 0
M  V30 16931 H 1643.68 -2.85994 -0.6771 0
M  V30 16932 H 1641.19 -1.60046 -0.275509 0
M  V30 16933 H 1643.19 -2.74372 -3.13888 0
M  V30 16934 H 1641.85 -1.61146 -2.8189 0
M  V30 16935 H 1642.86 -5.00163 -1.34379 0
M  V30 16936 H 1639.54 -2.96961 -2.93463 0
M  V30 16937 H 1640.93 -6.61346 -1.18619 0
M  V30 16938 N 1643.65 0.339955 -1.5389 0
M  V30 16939 C 1644.59 1.41765 -1.8213 0
M  V30 16940 C 1645.56 1.52109 -0.667235 0
M  V30 16941 O 1646.75 1.67591 -0.91203 0
M  V30 16942 C 1643.89 2.78366 -2.03977 0
M  V30 16943 C 1643 2.76785 -3.31684 0
M  V30 16944 C 1642.14 4.05125 -3.4358 0
M  V30 16945 C 1641.18 3.97787 -4.65223 0
M  V30 16946 N 1640.31 5.17825 -4.74133 0
M  V30 16947 H 1645.15 1.16984 -2.74078 0
M  V30 16948 H 1642.69 0.566618 -1.35749 0
M  V30 16949 H 1644.65 3.57755 -2.14633 0
M  V30 16950 H 1643.28 3.01491 -1.15338 0
M  V30 16951 H 1642.33 1.89481 -3.2985 0
M  V30 16952 H 1643.64 2.67241 -4.2117 0
M  V30 16953 H 1642.8 4.9294 -3.53688 0
M  V30 16954 H 1641.54 4.17455 -2.52157 0
M  V30 16955 H 1640.54 3.08357 -4.55188 0
M  V30 16956 H 1641.77 3.87037 -5.58014 0
M  V30 16957 H 1639.71 5.30691 -3.8562 0
M  V30 16958 H 1639.63 5.10552 -5.5756 0
M  V30 16959 H 1640.9 6.074 -4.88554 0
M  V30 16960 N 1645.13 1.45684 0.601159 0
M  V30 16961 C 1646.37 1.50258 1.362 0
M  V30 16962 C 1646.7 0.146358 1.93648 0
M  V30 16963 O 1645.98 -0.839985 1.75427 0
M  V30 16964 C 1646.26 2.5868 2.50513 0
M  V30 16965 C 1646.12 4.03769 1.98219 0
M  V30 16966 C 1647.43 2.63332 3.52624 0
M  V30 16967 H 1644.55 0.547045 0.493873 0
M  V30 16968 H 1647.2 1.77527 0.677068 0
M  V30 16969 H 1645.35 2.35559 3.08941 0
M  V30 16970 H 1647.02 4.3812 1.44391 0
M  V30 16971 H 1645.26 4.14121 1.29174 0
M  V30 16972 H 1645.93 4.75329 2.80653 0
M  V30 16973 H 1648.41 2.84067 3.04048 0
M  V30 16974 H 1647.28 3.41047 4.30091 0
M  V30 16975 H 1647.54 1.68668 4.0866 0
M  V30 16976 N 1646.6 -0.84422 1.33082 0
M  V30 16977 C 1647.55 -1.95363 1.2289 0
M  V30 16978 C 1648.52 -1.65744 0.108705 0
M  V30 16979 O 1649.71 -1.88643 0.286057 0
M  V30 16980 C 1646.85 -3.31228 0.968594 0
M  V30 16981 C 1645.96 -3.73279 2.17455 0
M  V30 16982 C 1645.09 -4.97987 1.84885 0
M  V30 16983 C 1644.13 -5.32558 3.01743 0
M  V30 16984 N 1643.27 -6.48442 2.69197 0
M  V30 16985 H 1648.11 -2.03412 2.17778 0
M  V30 16986 H 1645.65 -0.995461 1.083 0
M  V30 16987 H 1647.6 -4.09494 0.798129 0
M  V30 16988 H 1646.23 -3.22751 0.0564631 0
M  V30 16989 H 1645.29 -2.9058 2.45494 0
M  V30 16990 H 1646.6 -3.94814 3.04834 0
M  V30 16991 H 1645.75 -5.83987 1.64451 0
M  V30 16992 H 1644.49 -4.7841 0.947356 0
M  V30 16993 H 1643.5 -4.45064 3.22797 0
M  V30 16994 H 1644.72 -5.54085 3.9264 0
M  V30 16995 H 1642.67 -6.30363 1.816 0
M  V30 16996 H 1642.58 -6.70046 3.50106 0
M  V30 16997 H 1643.85 -7.37568 2.52217 0
M  V30 16998 N 1648.08 -1.16463 -1.0618 0
M  V30 16999 C 1649.31 -0.971075 -1.82696 0
M  V30 17000 C 1649.72 0.480716 -1.82578 0
M  V30 17001 O 1649.08 1.33366 -1.24579 0
M  V30 17002 C 1649.13 -1.49235 -3.29259 0
M  V30 17003 O 1648.85 -2.88728 -3.29496 0
M  V30 17004 C 1650.35 -1.34197 -4.225 0
M  V30 17005 H 1647.57 -0.34415 -0.576023 0
M  V30 17006 H 1650.12 -1.54517 -1.33958 0
M  V30 17007 H 1648.27 -0.960503 -3.75304 0
M  V30 17008 H 1648.69 -3.12618 -4.21153 0
M  V30 17009 H 1650.16 -1.75499 -5.23358 0
M  V30 17010 H 1650.64 -0.287685 -4.38257 0
M  V30 17011 H 1651.24 -1.86349 -3.82301 0
M  V30 17012 N 1649.56 1.24734 -0.963288 0
M  V30 17013 C 1650.84 1.88004 -0.539809 0
M  V30 17014 C 1651.22 1.86814 0.983035 0
M  V30 17015 O 1650.56 1.33769 1.85251 0
M  V30 17016 C 1650.77 3.30326 -1.1263 0
M  V30 17017 C 1652.12 4.07039 -1.20848 0
M  V30 17018 O 1653.15 3.3948 -1.07849 0
M  V30 17019 O 1652.01 5.27906 -1.41342 0
M  V30 17020 H 1649.1 0.807318 -0.17935 0
M  V30 17021 H 1651.65 1.3274 -1.05727 0
M  V30 17022 H 1650.42 3.25668 -2.16925 0
M  V30 17023 H 1650.04 3.93159 -0.592614 0
M  V30 17024 N 1651.04 0.732878 1.39523 0
M  V30 17025 C 1651.95 0.0930216 2.34416 0
M  V30 17026 C 1652.96 -0.724309 1.58208 0
M  V30 17027 O 1654.14 -0.653267 1.90511 0
M  V30 17028 C 1651.2 -0.805036 3.37224 0
M  V30 17029 C 1650.27 0.0243049 4.29293 0
M  V30 17030 C 1649.5 -0.830984 5.27191 0
M  V30 17031 O 1649.72 -2.06977 5.31523 0
M  V30 17032 O 1648.66 -0.260772 6.01335 0
M  V30 17033 H 1652.48 0.876179 2.90786 0
M  V30 17034 H 1650.07 0.493525 1.41013 0
M  V30 17035 H 1651.95 -1.31894 4.00228 0
M  V30 17036 H 1650.62 -1.56704 2.83241 0
M  V30 17037 H 1649.53 0.583677 3.69519 0
M  V30 17038 H 1650.86 0.748485 4.86476 0
M  V30 17039 N 1652.52 -1.50101 0.480349 0
M  V30 17040 C 1653.76 -2.02674 -0.0715373 0
M  V30 17041 C 1654.09 -1.36095 -1.38535 0
M  V30 17042 O 1653.37 -0.489703 -1.88234 0
M  V30 17043 C 1653.65 -3.59261 -0.245693 0
M  V30 17044 C 1653.51 -4.36399 1.08979 0
M  V30 17045 C 1654.82 -4.28682 -0.995966 0
M  V30 17046 H 1651.94 -0.736592 -0.0245244 0
M  V30 17047 H 1654.59 -1.7933 0.627743 0
M  V30 17048 H 1652.74 -3.79281 -0.841308 0
M  V30 17049 H 1654.41 -4.27926 1.72269 0
M  V30 17050 H 1652.65 -3.99773 1.68417 0
M  V30 17051 H 1653.32 -5.44254 0.921468 0
M  V30 17052 H 1655.8 -4.13193 -0.491025 0
M  V30 17053 H 1654.67 -5.38037 -1.08663 0
M  V30 17054 H 1654.93 -3.92491 -2.03479 0
M  V30 17055 N 1653.99 -0.213323 -1.5615 0
M  V30 17056 C 1655.24 0.421221 -1.98377 0
M  V30 17057 C 1655.57 1.59998 -1.10065 0
M  V30 17058 O 1654.85 1.93869 -0.15654 0
M  V30 17059 C 1655.13 0.86375 -3.49587 0
M  V30 17060 C 1654.98 -0.318077 -4.48674 0
M  V30 17061 C 1656.3 1.72285 -4.04976 0
M  V30 17062 H 1653.42 0.151635 -0.721232 0
M  V30 17063 H 1656.06 -0.307907 -1.87488 0
M  V30 17064 H 1654.21 1.48503 -3.58998 0
M  V30 17065 H 1655.89 -0.956094 -4.51283 0
M  V30 17066 H 1654.13 -0.966881 -4.22888 0
M  V30 17067 H 1654.8 0.0343662 -5.51989 0
M  V30 17068 H 1657.28 1.19872 -3.98459 0
M  V30 17069 H 1656.15 2.0014 -5.11112 0
M  V30 17070 H 1656.41 2.68336 -3.51352 0
M  V30 17071 N 1655.47 1.57485 0.0601405 0
M  V30 17072 C 1656.7 1.92051 0.769681 0
M  V30 17073 C 1657.12 0.810364 1.70524 0
M  V30 17074 O 1656.47 -0.215527 1.81223 0
M  V30 17075 C 1656.52 3.26423 1.55339 0
M  V30 17076 O 1656.24 4.3317 0.655423 0
M  V30 17077 C 1657.75 3.75076 2.36289 0
M  V30 17078 H 1654.97 0.63454 0.218175 0
M  V30 17079 H 1657.51 2.04482 0.0269308 0
M  V30 17080 H 1655.66 3.15483 2.24831 0
M  V30 17081 H 1656.08 5.10548 1.20171 0
M  V30 17082 H 1657.55 4.71695 2.86719 0
M  V30 17083 H 1658.03 3.04677 3.16336 0
M  V30 17084 H 1658.64 3.88998 1.71932 0
M  V30 17085 N 1656.95 -0.331789 1.54068 0
M  V30 17086 C 1657.88 -1.41332 1.8587 0
M  V30 17087 C 1658.86 -1.54353 0.714787 0
M  V30 17088 O 1660.05 -1.68368 0.967777 0
M  V30 17089 C 1657.18 -2.78218 2.07875 0
M  V30 17090 C 1656.13 -2.79994 3.23709 0
M  V30 17091 C 1655.46 -4.19878 3.31069 0
M  V30 17092 C 1656.76 -2.44476 4.6155 0
M  V30 17093 H 1658.45 -1.14966 2.76447 0
M  V30 17094 H 1656 -0.551615 1.33016 0
M  V30 17095 H 1657.95 -3.53937 2.28706 0
M  V30 17096 H 1656.67 -3.06044 1.14038 0
M  V30 17097 H 1655.33 -2.0673 3.02751 0
M  V30 17098 H 1654.98 -4.44831 2.34807 0
M  V30 17099 H 1654.68 -4.21974 4.08915 0
M  V30 17100 H 1656.2 -4.97421 3.54125 0
M  V30 17101 H 1657.62 -3.09908 4.82317 0
M  V30 17102 H 1656.02 -2.57837 5.41886 0
M  V30 17103 H 1657.09 -1.3964 4.64358 0
M  V30 17104 N 1658.43 -1.46001 -0.593424 0
M  V30 17105 C 1659.66 -1.54307 -1.3783 0
M  V30 17106 C 1660.07 -0.18048 -1.87935 0
M  V30 17107 O 1659.43 0.820427 -1.63019 0
M  V30 17108 C 1659.48 -2.53911 -2.57316 0
M  V30 17109 O 1659.2 -3.84876 -2.09289 0
M  V30 17110 C 1660.7 -2.72054 -3.50002 0
M  V30 17111 H 1657.92 -0.522149 -0.421428 0
M  V30 17112 H 1660.47 -1.91315 -0.722423 0
M  V30 17113 H 1658.62 -2.19937 -3.18915 0
M  V30 17114 H 1659.03 -4.38996 -2.87025 0
M  V30 17115 H 1660.51 -3.45692 -4.3035 0
M  V30 17116 H 1660.99 -1.78583 -4.01254 0
M  V30 17117 H 1661.59 -3.07082 -2.94246 0
M  V30 17118 N 1659.91 0.83715 -1.33527 0
M  V30 17119 C 1661.32 1.40878 -1.22516 0
M  V30 17120 C 1661.67 1.95585 0.155236 0
M  V30 17121 O 1660.79 1.88946 1.05491 0
M  V30 17122 C 1661.39 2.56093 -2.21815 0
M  V30 17123 C 1659.95 3.09205 -2.14638 0
M  V30 17124 C 1659.09 1.82012 -2.09205 0
M  V30 17125 H 1662.05 0.642766 -1.45101 0
M  V30 17126 H 1662.07 3.33775 -1.82687 0
M  V30 17127 H 1661.58 2.16246 -3.22272 0
M  V30 17128 H 1659.68 3.53592 -1.17489 0
M  V30 17129 H 1659.79 3.69261 -3.05259 0
M  V30 17130 H 1658.16 2.02331 -1.54707 0
M  V30 17131 H 1658.94 1.44359 -3.11473 0
M  V30 17132 N 1661.38 1.17024 1.05561 0
M  V30 17133 C 1662.8 0.916718 1.30646 0
M  V30 17134 C 1663 -0.426248 1.9694 0
M  V30 17135 O 1662.06 -1.16408 2.24065 0
M  V30 17136 C 1663.37 2.07126 2.17989 0
M  V30 17137 C 1664.92 2.10787 2.31383 0
M  V30 17138 C 1665.39 3.25616 3.22084 0
M  V30 17139 N 1666.88 3.25381 3.29669 0
M  V30 17140 C 1667.62 4.10873 3.99964 0
M  V30 17141 N 1667.11 5.06468 4.72718 0
M  V30 17142 N 1668.91 3.98835 3.9609 0
M  V30 17143 H 1661.06 2.03474 0.609284 0
M  V30 17144 H 1663.32 0.888247 0.331243 0
M  V30 17145 H 1663.03 3.04168 1.76564 0
M  V30 17146 H 1662.9 2.01912 3.18609 0
M  V30 17147 H 1665.29 1.14333 2.72051 0
M  V30 17148 H 1665.37 2.20064 1.30405 0
M  V30 17149 H 1665.01 4.22333 2.8213 0
M  V30 17150 H 1664.94 3.13575 4.23058 0
M  V30 17151 H 1667.43 2.56164 2.77828 0
M  V30 17152 H 1667.75 5.68105 5.23905 0
M  V30 17153 H 1666.09 5.10441 4.71673 0
M  V30 17154 H 1669.28 3.23451 3.38375 0
M  V30 17155 H 1669.46 4.65682 4.50604 0
M  V30 17156 N 1662.86 -1.24221 0.969889 0
M  V30 17157 C 1664.11 -1.91656 0.628559 0
M  V30 17158 C 1664.42 -1.76627 -0.840371 0
M  V30 17159 O 1665.63 -2.38771 -1.29232 0
M  V30 17160 C 1664.09 -3.43515 1.07357 0
M  V30 17161 C 1663.69 -3.67226 2.56611 0
M  V30 17162 C 1665.44 -4.16788 0.805493 0
M  V30 17163 C 1663.35 -5.12667 2.94834 0
M  V30 17164 H 1662.28 -0.717619 0.231384 0
M  V30 17165 H 1664.93 -1.40831 1.17639 0
M  V30 17166 H 1663.31 -3.93388 0.454037 0
M  V30 17167 H 1664.48 -3.27942 3.23713 0
M  V30 17168 H 1662.8 -3.07243 2.81053 0
M  V30 17169 H 1665.39 -5.23945 1.06705 0
M  V30 17170 H 1665.74 -4.15498 -0.258321 0
M  V30 17171 H 1666.27 -3.7287 1.3861 0
M  V30 17172 H 1663.01 -5.1908 4.00295 0
M  V30 17173 H 1662.53 -5.5294 2.32417 0
M  V30 17174 H 1664.21 -5.80916 2.8486 0
M  V30 17175 N 1664.34 -0.740267 -1.39132 0
M  V30 17176 C 1665.59 -0.289949 -2.00009 0
M  V30 17177 C 1665.91 1.12831 -1.59042 0
M  V30 17178 O 1665.18 1.76926 -0.841076 0
M  V30 17179 H 1663.76 -0.104213 -0.739695 0
M  V30 17180 H 1666.42 -0.951398 -1.70101 0
M  V30 17181 H 1665.52 -0.342509 -3.10215 0
M  V30 17182 N 1665.82 1.49844 -0.488302 0
M  V30 17183 C 1667.23 1.86663 -0.037377 0
M  V30 17184 C 1667.58 1.40172 1.37281 0
M  V30 17185 O 1666.71 0.77409 2.02081 0
M  V30 17186 C 1667.3 3.38745 -0.0610523 0
M  V30 17187 C 1665.86 3.74911 0.334475 0
M  V30 17188 C 1665.01 2.73801 -0.439109 0
M  V30 17189 H 1667.96 1.42343 -0.70173 0
M  V30 17190 H 1667.98 3.7329 0.737203 0
M  V30 17191 H 1667.49 3.72551 -1.08753 0
M  V30 17192 H 1665.59 3.4671 1.36466 0
M  V30 17193 H 1665.7 4.79094 0.0238536 0
M  V30 17194 H 1664.07 2.54465 0.109433 0
M  V30 17195 H 1664.85 3.10452 -1.46542 0
M  V30 17196 N 1667.3 0.221601 1.56034 0
M  V30 17197 C 1668.24 -0.688502 2.20291 0
M  V30 17198 C 1669.21 -1.19028 1.15851 0
M  V30 17199 O 1670.4 -1.24936 1.44206 0
M  V30 17200 C 1667.54 -1.89101 2.88678 0
M  V30 17201 C 1666.65 -1.42812 4.07711 0
M  V30 17202 C 1665.79 -2.5882 4.63881 0
M  V30 17203 C 1664.83 -2.09268 5.75216 0
M  V30 17204 N 1663.96 -3.18549 6.25676 0
M  V30 17205 H 1668.8 -0.133824 2.97699 0
M  V30 17206 H 1666.34 -0.0543007 1.47 0
M  V30 17207 H 1668.3 -2.59704 3.26512 0
M  V30 17208 H 1666.93 -2.41857 2.13788 0
M  V30 17209 H 1665.98 -0.617019 3.75363 0
M  V30 17210 H 1667.29 -1.02478 4.8816 0
M  V30 17211 H 1666.45 -3.37505 5.04158 0
M  V30 17212 H 1665.18 -3.02443 3.82596 0
M  V30 17213 H 1664.19 -1.29045 5.34441 0
M  V30 17214 H 1665.41 -1.66645 6.58336 0
M  V30 17215 H 1663.36 -3.61653 5.47305 0
M  V30 17216 H 1663.28 -2.82466 7.01248 0
M  V30 17217 H 1664.55 -3.97369 6.7061 0
M  V30 17218 N 1668.77 -1.57515 -0.0517878 0
M  V30 17219 C 1670.02 -1.88493 -0.748206 0
M  V30 17220 C 1670.35 -0.816494 -1.76202 0
M  V30 17221 O 1669.63 0.171075 -1.93746 0
M  V30 17222 C 1669.91 -3.30131 -1.43825 0
M  V30 17223 C 1669.76 -4.47648 -0.4395 0
M  V30 17224 C 1671.08 -3.70315 -2.37813 0
M  V30 17225 H 1668.2 -0.68555 -0.270537 0
M  V30 17226 H 1670.84 -1.89997 -0.0111457 0
M  V30 17227 H 1668.99 -3.2898 -2.06651 0
M  V30 17228 H 1670.67 -4.60929 0.185088 0
M  V30 17229 H 1668.91 -4.33117 0.243381 0
M  V30 17230 H 1669.58 -5.43582 -0.96035 0
M  V30 17231 H 1672.06 -3.72687 -1.8505 0
M  V30 17232 H 1670.93 -4.70269 -2.83087 0
M  V30 17233 H 1671.19 -3.0133 -3.23501 0
M  V30 17234 N 1670.25 0.323614 -1.54242 0
M  V30 17235 C 1671.48 1.08548 -1.76726 0
M  V30 17236 C 1671.9 1.8093 -0.514375 0
M  V30 17237 O 1671.26 1.73255 0.534069 0
M  V30 17238 C 1671.31 2.05928 -2.96017 0
M  V30 17239 O 1670.41 3.13825 -2.67559 0
M  V30 17240 H 1669.75 0.31297 -0.585616 0
M  V30 17241 H 1672.28 0.367925 -2.01265 0
M  V30 17242 H 1672.29 2.48799 -3.23362 0
M  V30 17243 H 1670.97 1.52646 -3.86875 0
M  V30 17244 H 1669.55 2.7563 -2.51163 0
M  V30 17245 N 1671.73 1.46313 0.585673 0
M  V30 17246 C 1672.66 1.59511 1.70524 0
M  V30 17247 C 1673.64 0.445578 1.6416 0
M  V30 17248 O 1674.83 0.671455 1.82223 0
M  V30 17249 C 1671.96 1.58229 3.09162 0
M  V30 17250 C 1670.91 2.72122 3.30354 0
M  V30 17251 C 1670.24 2.559 4.69489 0
M  V30 17252 C 1671.54 4.13969 3.18476 0
M  V30 17253 H 1673.23 2.53229 1.59735 0
M  V30 17254 H 1670.78 1.2187 0.767046 0
M  V30 17255 H 1672.73 1.66056 3.87303 0
M  V30 17256 H 1671.45 0.610535 3.20843 0
M  V30 17257 H 1670.11 2.63759 2.54611 0
M  V30 17258 H 1669.76 1.56814 4.77931 0
M  V30 17259 H 1669.46 3.32289 4.84621 0
M  V30 17260 H 1670.99 2.65613 5.49802 0
M  V30 17261 H 1672.4 4.23459 3.86465 0
M  V30 17262 H 1670.8 4.90922 3.45131 0
M  V30 17263 H 1671.87 4.34334 2.15598 0
M  V30 17264 N 1673.21 -0.830057 1.33969 0
M  V30 17265 C 1674.43 -1.62294 1.29133 0
M  V30 17266 C 1674.86 -1.87627 -0.133253 0
M  V30 17267 O 1674.22 -1.44669 -1.09272 0
M  V30 17268 C 1674.27 -2.94508 2.0808 0
M  V30 17269 O 1673.37 -3.86239 1.44544 0
M  V30 17270 H 1672.71 -0.493865 0.443839 0
M  V30 17271 H 1675.24 -1.03202 1.76665 0
M  V30 17272 H 1675.25 -3.44133 2.19173 0
M  V30 17273 H 1673.93 -2.75392 3.1166 0
M  V30 17274 H 1672.5 -3.44743 1.42151 0
M  V30 17275 N 1674.69 -1.17582 -1.04939 0
M  V30 17276 C 1676.1 -0.971326 -1.59443 0
M  V30 17277 C 1676.45 0.481308 -1.90205 0
M  V30 17278 O 1675.57 1.35708 -1.6856 0
M  V30 17279 C 1676.17 -1.75685 -2.8969 0
M  V30 17280 C 1674.73 -1.59695 -3.40844 0
M  V30 17281 C 1673.88 -1.75688 -2.14544 0
M  V30 17282 H 1676.83 -1.32254 -0.877188 0
M  V30 17283 H 1676.85 -1.24074 -3.59703 0
M  V30 17284 H 1676.36 -2.81405 -2.67269 0
M  V30 17285 H 1674.46 -0.564746 -3.68295 0
M  V30 17286 H 1674.57 -2.38951 -4.15258 0
M  V30 17287 H 1672.94 -1.18553 -2.25427 0
M  V30 17288 H 1673.72 -2.82825 -1.94589 0
M  V30 17289 N 1676.17 1.23705 -0.976463 0
M  V30 17290 C 1677.41 1.91635 -0.641897 0
M  V30 17291 C 1677.73 1.7661 0.826678 0
M  V30 17292 O 1677 1.14304 1.59096 0
M  V30 17293 H 1675.58 0.709264 -0.234422 0
M  V30 17294 H 1678.25 1.50414 -1.23943 0
M  V30 17295 H 1677.34 2.99138 -0.890099 0
M  V30 17296 N 1677.64 0.747635 1.38738 0
M  V30 17297 C 1679.05 0.369576 1.83006 0
M  V30 17298 C 1679.41 -1.10091 1.62402 0
M  V30 17299 O 1678.53 -1.85042 1.12198 0
M  V30 17300 C 1679.13 0.664018 3.32229 0
M  V30 17301 C 1677.68 0.339308 3.74868 0
M  V30 17302 C 1676.83 0.920231 2.61586 0
M  V30 17303 H 1679.78 0.944268 1.27551 0
M  V30 17304 H 1679.8 -0.0598575 3.80453 0
M  V30 17305 H 1679.32 1.73432 3.47193 0
M  V30 17306 H 1677.42 -0.724649 3.65485 0
M  V30 17307 H 1677.53 0.830699 4.71843 0
M  V30 17308 H 1675.89 0.346002 2.52339 0
M  V30 17309 H 1676.68 1.99544 2.79351 0
M  V30 17310 N 1679.12 -1.49583 0.496242 0
M  V30 17311 C 1680.03 -2.32808 -0.289404 0
M  V30 17312 C 1681.05 -1.44324 -0.971933 0
M  V30 17313 O 1682.22 -1.77352 -0.954366 0
M  V30 17314 C 1679.29 -3.19645 -1.34269 0
M  V30 17315 C 1678.35 -4.23975 -0.6741 0
M  V30 17316 C 1677.58 -5.06661 -1.6772 0
M  V30 17317 O 1677.81 -4.90792 -2.90654 0
M  V30 17318 O 1676.74 -5.89091 -1.23514 0
M  V30 17319 H 1680.57 -3.01164 0.391664 0
M  V30 17320 H 1678.15 -1.47162 0.257652 0
M  V30 17321 H 1680.03 -3.73453 -1.9522 0
M  V30 17322 H 1678.71 -2.53989 -2.00677 0
M  V30 17323 H 1677.61 -3.74092 -0.0249732 0
M  V30 17324 H 1678.95 -4.92172 -0.0525442 0
M  V30 17325 N 1680.6 -0.229873 -1.55915 0
M  V30 17326 C 1681.53 0.70927 -2.1795 0
M  V30 17327 C 1682.54 1.15142 -1.15092 0
M  V30 17328 O 1683.73 1.08114 -1.42034 0
M  V30 17329 C 1680.83 1.97359 -2.75504 0
M  V30 17330 C 1680.01 1.68565 -4.03614 0
M  V30 17331 C 1679.07 2.79786 -4.45652 0
M  V30 17332 O 1678.09 2.479 -5.12381 0
M  V30 17333 N 1679.29 4.08921 -4.12024 0
M  V30 17334 H 1682.06 0.178573 -2.99168 0
M  V30 17335 H 1679.62 -0.0491789 -1.61825 0
M  V30 17336 H 1681.61 2.70972 -3.00593 0
M  V30 17337 H 1680.18 2.41454 -1.98542 0
M  V30 17338 H 1679.4 0.785547 -3.86294 0
M  V30 17339 H 1680.69 1.46769 -4.87172 0
M  V30 17340 H 1680.09 4.37667 -3.58419 0
M  V30 17341 H 1678.64 4.79052 -4.41987 0
M  V30 17342 N 1682.08 1.5754 0.0434337 0
M  V30 17343 C 1683.02 2.0561 1.04848 0
M  V30 17344 C 1683.99 0.942299 1.36784 0
M  V30 17345 O 1685.18 1.21191 1.47368 0
M  V30 17346 C 1682.32 2.52844 2.3487 0
M  V30 17347 C 1681.43 3.77958 2.09218 0
M  V30 17348 C 1680.57 4.13859 3.33007 0
M  V30 17349 C 1679.61 5.31932 3.02845 0
M  V30 17350 N 1678.74 5.63335 4.19045 0
M  V30 17351 H 1683.58 2.9123 0.631591 0
M  V30 17352 H 1681.12 1.44003 0.300258 0
M  V30 17353 H 1683.08 2.78291 3.10822 0
M  V30 17354 H 1681.71 1.70161 2.74308 0
M  V30 17355 H 1680.76 3.59681 1.23828 0
M  V30 17356 H 1682.07 4.64034 1.82958 0
M  V30 17357 H 1681.23 4.40358 4.17336 0
M  V30 17358 H 1679.97 3.26406 3.62368 0
M  V30 17359 H 1678.97 5.052 2.16916 0
M  V30 17360 H 1680.2 6.21027 2.74777 0
M  V30 17361 H 1678.14 4.7884 4.48384 0
M  V30 17362 H 1678.06 6.4389 3.96158 0
M  V30 17363 H 1679.33 5.94402 5.04289 0
M  V30 17364 N 1683.56 -0.31543 1.54411 0
M  V30 17365 C 1684.79 -1.07018 1.76722 0
M  V30 17366 C 1685.19 -1.81921 0.519754 0
M  V30 17367 O 1684.54 -1.76201 -0.519501 0
M  V30 17368 C 1684.6 -2.10781 2.91224 0
M  V30 17369 C 1684.26 -1.55204 4.29838 0
M  V30 17370 C 1685.26 -0.989568 5.10395 0
M  V30 17371 C 1682.94 -1.59201 4.76403 0
M  V30 17372 C 1684.94 -0.474466 6.35632 0
M  V30 17373 C 1682.63 -1.07304 6.01605 0
M  V30 17374 C 1683.62 -0.51522 6.81054 0
M  V30 17375 O 1683.31 -0.00407259 8.039 0
M  V30 17376 H 1683.04 -0.323799 0.593406 0
M  V30 17377 H 1685.6 -0.364708 2.02136 0
M  V30 17378 H 1683.83 -2.84968 2.614 0
M  V30 17379 H 1685.52 -2.72043 3.01243 0
M  V30 17380 H 1686.28 -0.951691 4.75571 0
M  V30 17381 H 1682.16 -2.01559 4.14602 0
M  V30 17382 H 1685.71 -0.0384139 6.97589 0
M  V30 17383 H 1681.6 -1.10802 6.35919 0
M  V30 17384 H 1682.37 -0.118732 8.18414 0
M  V30 17385 N 1685.03 -1.46622 -0.577906 0
M  V30 17386 C 1685.94 -1.60143 -1.71439 0
M  V30 17387 C 1686.96 -0.484781 -1.6711 0
M  V30 17388 O 1688.14 -0.749551 -1.86932 0
M  V30 17389 C 1685.2 -1.59282 -3.07945 0
M  V30 17390 C 1684.26 -2.82216 -3.235 0
M  V30 17391 C 1683.5 -2.81387 -4.53495 0
M  V30 17392 O 1683.72 -1.90407 -5.37681 0
M  V30 17393 O 1682.65 -3.72991 -4.724 0
M  V30 17394 H 1686.48 -2.56265 -1.62978 0
M  V30 17395 H 1684.06 -1.2947 -0.745514 0
M  V30 17396 H 1685.95 -1.61515 -3.89218 0
M  V30 17397 H 1684.62 -0.663212 -3.16833 0
M  V30 17398 H 1683.53 -2.85536 -2.41702 0
M  V30 17399 H 1684.86 -3.74402 -3.19506 0
M  V30 17400 N 1686.51 0.822941 -1.34408 0
M  V30 17401 C 1687.74 1.61087 -1.2984 0
M  V30 17402 C 1688.16 1.88369 0.127527 0
M  V30 17403 O 1687.51 1.47508 1.0746 0
M  V30 17404 C 1687.56 2.9518 -2.08689 0
M  V30 17405 O 1687.28 2.69089 -3.45721 0
M  V30 17406 C 1688.79 3.89583 -2.11518 0
M  V30 17407 H 1686.01 0.500726 -0.44667 0
M  V30 17408 H 1688.55 1.02391 -1.77021 0
M  V30 17409 H 1686.7 3.50434 -1.6515 0
M  V30 17410 H 1687.12 3.5459 -3.86479 0
M  V30 17411 H 1688.59 4.80835 -2.71111 0
M  V30 17412 H 1689.07 4.24953 -1.10957 0
M  V30 17413 H 1689.68 3.40265 -2.55146 0
M  V30 17414 N 1687.99 1.18137 1.04314 0
M  V30 17415 C 1688.9 0.921044 2.15764 0
M  V30 17416 C 1689.92 -0.11396 1.73626 0
M  V30 17417 O 1691.09 0.0673733 2.01287 0
M  V30 17418 C 1688.16 0.447581 3.43799 0
M  V30 17419 C 1687.22 1.55025 4.00332 0
M  V30 17420 C 1686.45 1.09928 5.22256 0
M  V30 17421 O 1686.67 -0.0430152 5.70384 0
M  V30 17422 O 1685.61 1.896 5.71258 0
M  V30 17423 H 1689.43 1.85353 2.40579 0
M  V30 17424 H 1687.02 0.962985 1.14223 0
M  V30 17425 H 1688.9 0.191497 4.20965 0
M  V30 17426 H 1687.58 -0.456641 3.20463 0
M  V30 17427 H 1686.48 1.86032 3.24566 0
M  V30 17428 H 1687.82 2.4305 4.28004 0
M  V30 17429 N 1689.47 -1.23186 0.98301 0
M  V30 17430 C 1690.72 -1.91292 0.652051 0
M  V30 17431 C 1691.04 -1.77046 -0.8173 0
M  V30 17432 O 1690.31 -1.15146 -1.58487 0
M  V30 17433 H 1688.89 -0.708011 0.23818 0
M  V30 17434 H 1691.55 -1.49754 1.24739 0
M  V30 17435 H 1690.65 -2.98662 0.905951 0
M  V30 17436 N 1690.95 -0.754982 -1.38339 0
M  V30 17437 C 1692.17 -0.321355 -2.04895 0
M  V30 17438 C 1692.6 1.04249 -1.56569 0
M  V30 17439 O 1691.95 1.66464 -0.718299 0
M  V30 17440 C 1692 -0.354873 -3.5885 0
M  V30 17441 O 1691.11 0.65063 -4.07235 0
M  V30 17442 H 1690.45 -0.142033 -0.648631 0
M  V30 17443 H 1692.98 -1.02649 -1.76987 0
M  V30 17444 H 1692.99 -0.206243 -4.07478 0
M  V30 17445 H 1691.66 -1.34994 -3.93382 0
M  V30 17446 H 1690.24 0.466498 -3.69971 0
M  V30 17447 N 1692.42 1.49318 -0.504168 0
M  V30 17448 C 1693.65 2.07365 0.038102 0
M  V30 17449 C 1694.07 1.36164 1.29773 0
M  V30 17450 O 1693.43 0.419365 1.76383 0
M  V30 17451 C 1693.48 3.59576 0.271535 0
M  V30 17452 O 1692.58 3.8983 1.34561 0
M  V30 17453 H 1691.93 0.663425 -0.0276328 0
M  V30 17454 H 1694.46 1.92081 -0.704696 0
M  V30 17455 H 1694.47 4.04899 0.502083 0
M  V30 17456 H 1693.14 4.10809 -0.648754 0
M  V30 17457 H 1691.72 3.56314 1.09976 0
M  V30 17458 N 1693.9 0.238138 1.5579 0
M  V30 17459 C 1695.13 -0.393422 2.03125 0
M  V30 17460 C 1695.55 -1.52168 1.11761 0
M  V30 17461 O 1694.9 -1.82034 0.130341 0
M  V30 17462 C 1694.95 -0.909474 3.49873 0
M  V30 17463 O 1694.67 0.17381 4.37755 0
M  V30 17464 C 1696.18 -1.61261 4.12928 0
M  V30 17465 H 1693.4 -0.0945077 0.664311 0
M  V30 17466 H 1695.94 0.359442 2.01316 0
M  V30 17467 H 1694.09 -1.61255 3.52244 0
M  V30 17468 H 1694.51 -0.216641 5.24052 0
M  V30 17469 H 1695.98 -1.92551 5.17328 0
M  V30 17470 H 1696.46 -2.53155 3.589 0
M  V30 17471 H 1697.07 -0.954326 4.14455 0
M  V30 17472 N 1695.38 -1.57561 -0.0350783 0
M  V30 17473 C 1696.61 -1.93251 -0.73903 0
M  V30 17474 C 1697.02 -0.83739 -1.69214 0
M  V30 17475 O 1696.38 0.186669 -1.81543 0
M  V30 17476 C 1696.43 -3.28853 -1.50127 0
M  V30 17477 O 1696.15 -4.34157 -0.586426 0
M  V30 17478 C 1697.65 -3.78788 -2.30292 0
M  V30 17479 H 1694.87 -0.63793 -0.208053 0
M  V30 17480 H 1697.42 -2.04499 0.00560398 0
M  V30 17481 H 1695.57 -3.1902 -2.19784 0
M  V30 17482 H 1695.99 -5.12395 -1.12034 0
M  V30 17483 H 1697.46 -4.76197 -2.79178 0
M  V30 17484 H 1697.94 -3.09671 -3.11449 0
M  V30 17485 H 1698.54 -3.91684 -1.65721 0
M  V30 17486 N 1696.86 0.307236 -1.54576 0
M  V30 17487 C 1698.11 1.04115 -1.73218 0
M  V30 17488 C 1698.43 1.88008 -0.517482 0
M  V30 17489 O 1697.7 1.90219 0.468336 0
M  V30 17490 H 1696.28 0.387388 -0.638701 0
M  V30 17491 H 1698.94 0.339727 -1.91916 0
M  V30 17492 H 1698.04 1.69784 -2.61877 0
M  V30 17493 N 1698.34 1.46926 0.570122 0
M  V30 17494 C 1699.58 1.52887 1.32785 0
M  V30 17495 C 1699.91 0.185754 1.93611 0
M  V30 17496 O 1699.17 -0.819995 1.77692 0
M  V30 17497 C 1699.47 2.58527 2.46776 0
M  V30 17498 C 1699.13 4.02182 2.03863 0
M  V30 17499 C 1697.79 4.4129 1.91876 0
M  V30 17500 C 1700.15 4.92373 1.70935 0
M  V30 17501 C 1697.47 5.6844 1.45235 0
M  V30 17502 C 1699.83 6.19972 1.25769 0
M  V30 17503 C 1698.49 6.57974 1.12368 0
M  V30 17504 H 1697.76 0.559453 0.485895 0
M  V30 17505 H 1700.41 1.80464 0.640698 0
M  V30 17506 H 1698.71 2.24658 3.20992 0
M  V30 17507 H 1700.41 2.60365 3.04977 0
M  V30 17508 H 1697 3.71275 2.14132 0
M  V30 17509 H 1701.18 4.62867 1.79075 0
M  V30 17510 H 1696.44 5.96644 1.33513 0
M  V30 17511 H 1700.61 6.89277 0.993475 0
M  V30 17512 H 1698.24 7.56391 0.760046 0
M  V30 17513 N 1699.82 -0.815801 1.34842 0
M  V30 17514 C 1701.04 -1.60397 1.30693 0
M  V30 17515 C 1701.46 -1.88434 -0.117536 0
M  V30 17516 O 1700.82 -1.48076 -1.06676 0
M  V30 17517 C 1700.87 -2.94069 2.10252 0
M  V30 17518 O 1700.59 -2.67251 3.47143 0
M  V30 17519 C 1702.09 -3.88456 2.13581 0
M  V30 17520 H 1699.31 -0.49835 0.449319 0
M  V30 17521 H 1701.85 -1.01451 1.77561 0
M  V30 17522 H 1700.01 -3.49554 1.67006 0
M  V30 17523 H 1700.42 -3.52536 3.88354 0
M  V30 17524 H 1701.9 -4.79391 2.73658 0
M  V30 17525 H 1702.37 -4.24359 1.13209 0
M  V30 17526 H 1702.98 -3.38907 2.56947 0
M  V30 17527 N 1701.29 -1.18689 -1.03686 0
M  V30 17528 C 1702.52 -1.01024 -1.81132 0
M  V30 17529 C 1702.94 0.436584 -1.82963 0
M  V30 17530 O 1702.3 1.31343 -1.24975 0
M  V30 17531 C 1702.35 -1.5742 -3.24424 0
M  V30 17532 O 1701.45 -0.79813 -4.04603 0
M  V30 17533 H 1700.79 -0.357623 -0.559465 0
M  V30 17534 H 1703.32 -1.57532 -1.30556 0
M  V30 17535 H 1703.33 -1.60295 -3.75193 0
M  V30 17536 H 1702.01 -2.6273 -3.22406 0
M  V30 17537 H 1700.59 -0.842 -3.6327 0
M  V30 17538 N 1702.77 1.22662 -0.989529 0
M  V30 17539 C 1704 1.95883 -0.681511 0
M  V30 17540 C 1704.42 1.72646 0.746646 0
M  V30 17541 O 1703.78 1.00358 1.5099 0
M  V30 17542 C 1703.83 3.46773 -0.988975 0
M  V30 17543 O 1702.93 4.12311 -0.0858485 0
M  V30 17544 H 1702.27 0.612916 -0.255401 0
M  V30 17545 H 1704.8 1.5585 -1.32559 0
M  V30 17546 H 1704.81 3.97273 -0.929426 0
M  V30 17547 H 1703.49 3.63011 -2.02967 0
M  V30 17548 H 1702.06 3.7236 -0.200592 0
M  V30 17549 N 1704.25 0.762308 1.37937 0
M  V30 17550 C 1705.18 0.156036 2.32978 0
M  V30 17551 C 1706.16 -0.693795 1.55308 0
M  V30 17552 O 1707.35 -0.633195 1.83587 0
M  V30 17553 C 1704.48 -0.731199 3.39515 0
M  V30 17554 C 1703.43 0.0165834 4.27997 0
M  V30 17555 C 1702.76 -0.989476 5.25465 0
M  V30 17556 C 1704.06 1.19009 5.08561 0
M  V30 17557 H 1705.75 0.949978 2.83929 0
M  V30 17558 H 1703.3 0.458269 1.36513 0
M  V30 17559 H 1705.25 -1.16507 4.04974 0
M  V30 17560 H 1703.97 -1.55756 2.87067 0
M  V30 17561 H 1702.63 0.431128 3.64056 0
M  V30 17562 H 1702.28 -1.81013 4.69301 0
M  V30 17563 H 1701.98 -0.493738 5.85522 0
M  V30 17564 H 1703.5 -1.42248 5.93799 0
M  V30 17565 H 1704.92 0.833336 5.67211 0
M  V30 17566 H 1703.31 1.61727 5.77896 0
M  V30 17567 H 1704.38 1.99879 4.41788 0
M  V30 17568 N 1705.73 -1.49049 0.51208 0
M  V30 17569 C 1706.95 -2.07382 -0.0271044 0
M  V30 17570 C 1707.38 -1.3685 -1.29049 0
M  V30 17571 O 1706.74 -0.428713 -1.76158 0
M  V30 17572 C 1706.78 -3.59715 -0.252462 0
M  V30 17573 O 1705.89 -3.90538 -1.32491 0
M  V30 17574 H 1705.23 -0.663269 0.0311507 0
M  V30 17575 H 1707.76 -1.91705 0.714873 0
M  V30 17576 H 1707.77 -4.05159 -0.480603 0
M  V30 17577 H 1706.44 -4.10459 0.670531 0
M  V30 17578 H 1705.02 -3.56892 -1.08085 0
M  V30 17579 N 1707.21 -0.246397 -1.55662 0
M  V30 17580 C 1708.62 0.256853 -1.84925 0
M  V30 17581 C 1708.97 1.5763 -1.16821 0
M  V30 17582 O 1708.09 2.11745 -0.446415 0
M  V30 17583 C 1708.69 0.472815 -3.35485 0
M  V30 17584 C 1707.25 0.92033 -3.64975 0
M  V30 17585 C 1706.39 -0.00273772 -2.773 0
M  V30 17586 H 1709.34 -0.468971 -1.51612 0
M  V30 17587 H 1709.37 1.31549 -3.57037 0
M  V30 17588 H 1708.88 -0.487664 -3.85024 0
M  V30 17589 H 1706.98 1.89329 -3.20913 0
M  V30 17590 H 1707.09 0.77754 -4.72748 0
M  V30 17591 H 1705.46 0.508539 -2.49572 0
M  V30 17592 H 1706.24 -0.958581 -3.29645 0
M  V30 17593 N 1708.68 1.57577 0.026722 0
M  V30 17594 C 1709.93 1.89379 0.717062 0
M  V30 17595 C 1710.26 0.843976 1.75235 0
M  V30 17596 O 1709.51 -0.154755 1.95087 0
M  V30 17597 C 1709.81 3.27927 1.42121 0
M  V30 17598 C 1709.48 4.47872 0.521676 0
M  V30 17599 C 1708.14 4.8042 0.273926 0
M  V30 17600 C 1710.49 5.21105 -0.0992493 0
M  V30 17601 C 1707.82 5.83588 -0.603488 0
M  V30 17602 C 1710.17 6.25206 -0.964379 0
M  V30 17603 C 1708.84 6.56227 -1.22157 0
M  V30 17604 H 1708.11 0.692988 0.262391 0
M  V30 17605 H 1710.75 1.91486 -0.0230629 0
M  V30 17606 H 1709.06 3.2182 2.23471 0
M  V30 17607 H 1710.76 3.49783 1.96094 0
M  V30 17608 H 1707.35 4.22425 0.724931 0
M  V30 17609 H 1711.53 4.96237 0.0791882 0
M  V30 17610 H 1706.79 6.05997 -0.811031 0
M  V30 17611 H 1710.96 6.81094 -1.45201 0
M  V30 17612 H 1708.59 7.35991 -1.90317 0
M  V30 17613 N 1710.16 -0.299034 1.54737 0
M  V30 17614 C 1711.39 -1.05723 1.7843 0
M  V30 17615 C 1711.81 -1.80089 0.543094 0
M  V30 17616 O 1711.17 -1.74083 -0.506438 0
M  V30 17617 C 1711.22 -2.01193 2.99255 0
M  V30 17618 O 1710.32 -3.09528 2.72518 0
M  V30 17619 H 1709.66 -0.303614 0.590521 0
M  V30 17620 H 1712.19 -0.335859 2.01825 0
M  V30 17621 H 1712.2 -2.43623 3.27279 0
M  V30 17622 H 1710.88 -1.46472 3.89254 0
M  V30 17623 H 1709.45 -2.71599 2.55516 0
M  V30 17624 N 1711.64 -1.47227 -0.562322 0
M  V30 17625 C 1712.87 -1.57196 -1.34526 0
M  V30 17626 C 1713.28 -0.220303 -1.8751 0
M  V30 17627 O 1712.64 0.785664 -1.64723 0
M  V30 17628 C 1712.69 -2.59312 -2.51872 0
M  V30 17629 O 1712.41 -3.89229 -2.01078 0
M  V30 17630 C 1713.91 -2.79416 -3.44153 0
M  V30 17631 H 1711.13 -0.530971 -0.410257 0
M  V30 17632 H 1713.68 -1.92804 -0.68168 0
M  V30 17633 H 1711.83 -2.26652 -3.14178 0
M  V30 17634 H 1712.25 -4.44985 -2.77648 0
M  V30 17635 H 1713.72 -3.54743 -4.2292 0
M  V30 17636 H 1714.2 -1.87054 -3.97376 0
M  V30 17637 H 1714.8 -3.13254 -2.87667 0
M  V30 17638 N 1713.12 0.808639 -1.35273 0
M  V30 17639 C 1714.07 1.90962 -1.24569 0
M  V30 17640 C 1715.05 1.60277 -0.141424 0
M  V30 17641 O 1716.24 1.73037 -0.372451 0
M  V30 17642 C 1713.37 3.27864 -1.01783 0
M  V30 17643 C 1712.46 3.64622 -2.16592 0
M  V30 17644 N 1712.85 3.72831 -3.41805 0
M  V30 17645 C 1711.15 3.94563 -2.07932 0
M  V30 17646 C 1711.85 4.05271 -4.1729 0
M  V30 17647 N 1710.82 4.19246 -3.46025 0
M  V30 17648 H 1714.63 1.95508 -2.1944 0
M  V30 17649 H 1712.14 1.00311 -1.27716 0
M  V30 17650 H 1714.14 4.06576 -0.922037 0
M  V30 17651 H 1712.8 3.24606 -0.0779494 0
M  V30 17652 H 1713.81 3.55961 -3.76181 0
M  V30 17653 H 1710.49 3.99342 -1.21787 0
M  V30 17654 H 1711.88 4.18707 -5.25485 0
M  V30 17655 N 1714.6 1.19237 1.03055 0
M  V30 17656 C 1715.85 0.988287 1.75829 0
M  V30 17657 C 1716.16 -0.481903 1.89571 0
M  V30 17658 O 1717.36 -0.804762 2.59299 0
M  V30 17659 C 1715.82 1.71934 3.16175 0
M  V30 17660 C 1715.43 3.22952 3.10493 0
M  V30 17661 C 1717.17 1.59844 3.93256 0
M  V30 17662 C 1715.08 3.88654 4.4576 0
M  V30 17663 H 1714.01 0.366153 0.659127 0
M  V30 17664 H 1716.66 1.42716 1.15345 0
M  V30 17665 H 1715.04 1.20828 3.77116 0
M  V30 17666 H 1716.22 3.81163 2.58943 0
M  V30 17667 H 1714.53 3.35298 2.46909 0
M  V30 17668 H 1717.13 2.06283 4.93307 0
M  V30 17669 H 1717.47 0.552317 4.1262 0
M  V30 17670 H 1718 2.08286 3.38913 0
M  V30 17671 H 1714.74 4.93357 4.31601 0
M  V30 17672 H 1714.26 3.35231 4.97373 0
M  V30 17673 H 1715.94 3.92104 5.14649 0
M  V30 17674 N 1716.07 -1.22136 0.99602 0
M  V30 17675 C 1717.3 -1.94978 0.692172 0
M  V30 17676 C 1717.72 -1.73536 -0.743696 0
M  V30 17677 O 1717.07 -1.03637 -1.50219 0
M  V30 17678 C 1717.13 -3.47609 0.992498 0
M  V30 17679 O 1716.85 -3.68334 2.37195 0
M  V30 17680 C 1718.35 -4.37629 0.70679 0
M  V30 17681 H 1715.57 -0.620327 0.255802 0
M  V30 17682 H 1718.11 -1.55202 1.33164 0
M  V30 17683 H 1716.27 -3.85342 0.398785 0
M  V30 17684 H 1716.68 -4.62506 2.47362 0
M  V30 17685 H 1718.15 -5.43461 0.967173 0
M  V30 17686 H 1718.63 -4.37729 -0.359208 0
M  V30 17687 H 1719.24 -4.05528 1.2817 0
M  V30 17688 N 1717.55 -0.769612 -1.37531 0
M  V30 17689 C 1718.48 -0.11267 -2.28923 0
M  V30 17690 C 1719.5 0.666541 -1.4853 0
M  V30 17691 O 1720.69 0.504986 -1.71208 0
M  V30 17692 C 1717.79 0.864111 -3.27699 0
M  V30 17693 C 1716.96 0.139166 -4.37179 0
M  V30 17694 C 1716.02 1.029 -5.16041 0
M  V30 17695 O 1715.04 0.493571 -5.67056 0
M  V30 17696 N 1716.25 2.3555 -5.30562 0
M  V30 17697 H 1719.01 -0.897628 -2.85942 0
M  V30 17698 H 1716.57 -0.621776 -1.49484 0
M  V30 17699 H 1718.56 1.46279 -3.77339 0
M  V30 17700 H 1717.13 1.55005 -2.71463 0
M  V30 17701 H 1716.35 -0.640396 -3.88963 0
M  V30 17702 H 1717.64 -0.361847 -5.07512 0
M  V30 17703 H 1717.04 2.81489 -4.90694 0
M  V30 17704 H 1715.6 2.90429 -5.83519 0
M  V30 17705 N 1719.03 1.48775 -0.519977 0
M  V30 17706 C 1719.96 2.32292 0.237213 0
M  V30 17707 C 1720.94 1.4146 0.944625 0
M  V30 17708 O 1722.13 1.70355 0.932349 0
M  V30 17709 C 1719.26 3.22426 1.29068 0
M  V30 17710 C 1718.21 4.22204 0.702011 0
M  V30 17711 C 1717.54 5.01403 1.85739 0
M  V30 17712 C 1718.84 5.21321 -0.319626 0
M  V30 17713 H 1720.53 2.95846 -0.459949 0
M  V30 17714 H 1718.08 1.42268 -0.222641 0
M  V30 17715 H 1720.03 3.79674 1.82826 0
M  V30 17716 H 1718.75 2.56853 2.01728 0
M  V30 17717 H 1717.41 3.66128 0.186027 0
M  V30 17718 H 1717.06 4.32262 2.57214 0
M  V30 17719 H 1716.76 5.68929 1.46949 0
M  V30 17720 H 1718.28 5.615 2.39895 0
M  V30 17721 H 1719.7 5.73151 0.130505 0
M  V30 17722 H 1718.1 5.96843 -0.624377 0
M  V30 17723 H 1719.17 4.69069 -1.22893 0
M  V30 17724 N 1720.51 0.254649 1.55529 0
M  V30 17725 C 1721.44 -0.682459 2.17756 0
M  V30 17726 C 1722.42 -1.16722 1.13202 0
M  V30 17727 O 1723.6 -1.24395 1.41627 0
M  V30 17728 C 1720.73 -1.92837 2.78445 0
M  V30 17729 C 1719.78 -1.58082 3.96121 0
M  V30 17730 S 1720.61 -0.676715 5.31207 0
M  V30 17731 C 1721.77 -1.93146 5.95353 0
M  V30 17732 H 1722 -0.153664 2.96903 0
M  V30 17733 H 1719.53 0.0390444 1.54351 0
M  V30 17734 H 1721.49 -2.6436 3.14045 0
M  V30 17735 H 1720.15 -2.4283 1.9923 0
M  V30 17736 H 1719.34 -2.50738 4.37203 0
M  V30 17737 H 1718.95 -0.945965 3.61839 0
M  V30 17738 H 1721.24 -2.87783 6.13341 0
M  V30 17739 H 1722.18 -1.564 6.90612 0
M  V30 17740 H 1722.59 -2.08708 5.24501 0
M  V30 17741 N 1721.99 -1.57589 -0.0183649 0
M  V30 17742 C 1722.9 -2.10665 -1.03235 0
M  V30 17743 C 1723.91 -1.04767 -1.38924 0
M  V30 17744 O 1725.09 -1.36565 -1.48027 0
M  V30 17745 C 1722.15 -2.58432 -2.31114 0
M  V30 17746 C 1721.21 -3.78856 -2.01908 0
M  V30 17747 C 1720.45 -4.24335 -3.2369 0
M  V30 17748 O 1720.67 -3.69266 -4.3474 0
M  V30 17749 O 1719.6 -5.16671 -3.08763 0
M  V30 17750 H 1723.43 -2.97485 -0.611254 0
M  V30 17751 H 1721.02 -1.47524 -0.236035 0
M  V30 17752 H 1722.9 -2.89438 -3.06274 0
M  V30 17753 H 1721.57 -1.74718 -2.72498 0
M  V30 17754 H 1720.48 -3.52852 -1.24282 0
M  V30 17755 H 1721.81 -4.63587 -1.65373 0
M  V30 17756 N 1723.46 0.290824 -1.54893 0
M  V30 17757 C 1724.37 1.38137 -1.89619 0
M  V30 17758 C 1725.39 1.54959 -0.791432 0
M  V30 17759 O 1726.57 1.69428 -1.08885 0
M  V30 17760 C 1723.63 2.72353 -2.14534 0
M  V30 17761 C 1722.69 2.64429 -3.38195 0
M  V30 17762 C 1721.93 3.92244 -3.61912 0
M  V30 17763 O 1722.15 4.92088 -2.88454 0
M  V30 17764 O 1721.08 3.93523 -4.55438 0
M  V30 17765 H 1724.91 1.11688 -2.82417 0
M  V30 17766 H 1722.49 0.487789 -1.41213 0
M  V30 17767 H 1724.38 3.51745 -2.32064 0
M  V30 17768 H 1723.05 2.98624 -1.24921 0
M  V30 17769 H 1721.96 1.83474 -3.26018 0
M  V30 17770 H 1723.29 2.43109 -4.2797 0
M  V30 17771 N 1724.94 1.47523 0.554506 0
M  V30 17772 C 1726.17 1.57907 1.3369 0
M  V30 17773 C 1726.59 0.230244 1.87391 0
M  V30 17774 O 1725.94 -0.776917 1.65137 0
M  V30 17775 C 1725.99 2.60644 2.50493 0
M  V30 17776 O 1725.71 3.9029 1.99011 0
M  V30 17777 C 1727.22 2.81238 3.42666 0
M  V30 17778 H 1724.44 0.533139 0.407436 0
M  V30 17779 H 1726.98 1.93163 0.671445 0
M  V30 17780 H 1725.13 2.28315 3.12971 0
M  V30 17781 H 1725.55 4.46451 2.75285 0
M  V30 17782 H 1727.02 3.56981 4.21033 0
M  V30 17783 H 1727.5 1.89159 3.96378 0
M  V30 17784 H 1728.11 3.14775 2.86001 0
M  V30 17785 N 1726.42 -0.801453 1.357 0
M  V30 17786 C 1727.65 -1.59001 1.32386 0
M  V30 17787 C 1728.06 -1.88548 -0.0975432 0
M  V30 17788 O 1727.42 -1.49199 -1.05099 0
M  V30 17789 C 1727.47 -2.91822 2.13359 0
M  V30 17790 O 1727.19 -2.63554 3.49958 0
M  V30 17791 C 1728.69 -3.86169 2.17689 0
M  V30 17792 H 1725.91 -0.493557 0.45458 0
M  V30 17793 H 1728.46 -0.995616 1.78627 0
M  V30 17794 H 1726.61 -3.47763 1.70704 0
M  V30 17795 H 1727.03 -3.48397 3.92071 0
M  V30 17796 H 1728.5 -4.76461 2.78727 0
M  V30 17797 H 1728.98 -4.23134 1.17704 0
M  V30 17798 H 1729.58 -3.36163 2.60527 0
M  V30 17799 N 1727.9 -1.19782 -1.02421 0
M  V30 17800 C 1729.13 -1.02871 -1.79514 0
M  V30 17801 C 1729.54 0.422387 -1.84014 0
M  V30 17802 O 1728.9 1.29335 -1.28758 0
M  V30 17803 C 1728.95 -1.59634 -3.24344 0
M  V30 17804 O 1728.67 -2.99064 -3.20144 0
M  V30 17805 C 1730.17 -1.47571 -4.18016 0
M  V30 17806 H 1727.39 -0.362301 -0.564782 0
M  V30 17807 H 1729.94 -1.58701 -1.28974 0
M  V30 17808 H 1728.09 -1.07942 -3.72058 0
M  V30 17809 H 1728.5 -3.25859 -4.10994 0
M  V30 17810 H 1729.98 -1.92061 -5.1751 0
M  V30 17811 H 1730.46 -0.426967 -4.3712 0
M  V30 17812 H 1731.06 -1.98417 -3.76179 0
M  V30 17813 N 1729.38 1.21606 -1.00248 0
M  V30 17814 C 1730.29 2.2757 -0.570004 0
M  V30 17815 C 1731.3 1.69669 0.385788 0
M  V30 17816 O 1732.48 1.99839 0.250246 0
M  V30 17817 C 1729.54 3.46558 0.0990566 0
M  V30 17818 C 1728.61 4.19741 -0.9009 0
M  V30 17819 C 1727.84 5.33048 -0.263673 0
M  V30 17820 O 1728.06 5.62599 0.940131 0
M  V30 17821 O 1727 5.93978 -0.973342 0
M  V30 17822 H 1730.82 2.66751 -1.45182 0
M  V30 17823 H 1728.41 1.27955 -0.771224 0
M  V30 17824 H 1730.29 4.18733 0.47339 0
M  V30 17825 H 1728.96 3.09283 0.955285 0
M  V30 17826 H 1727.87 3.49798 -1.32634 0
M  V30 17827 H 1729.2 4.60921 -1.72664 0
M  V30 17828 N 1730.86 0.776895 1.37121 0
M  V30 17829 C 1731.8 0.164838 2.30211 0
M  V30 17830 C 1732.77 -0.684137 1.51356 0
M  V30 17831 O 1733.96 -0.635428 1.79908 0
M  V30 17832 C 1731.1 -0.704263 3.37837 0
M  V30 17833 C 1730.21 0.161881 4.31697 0
M  V30 17834 C 1729.35 -0.712411 5.26401 0
M  V30 17835 C 1728.38 0.155953 6.11901 0
M  V30 17836 N 1727.52 -0.676607 6.98832 0
M  V30 17837 H 1732.36 0.964185 2.81971 0
M  V30 17838 H 1729.9 0.487065 1.38802 0
M  V30 17839 H 1731.86 -1.22302 3.98871 0
M  V30 17840 H 1730.49 -1.46916 2.87429 0
M  V30 17841 H 1729.54 0.798491 3.71925 0
M  V30 17842 H 1730.85 0.831496 4.91821 0
M  V30 17843 H 1730 -1.29745 5.92664 0
M  V30 17844 H 1728.74 -1.41569 4.66701 0
M  V30 17845 H 1727.75 0.753493 5.44612 0
M  V30 17846 H 1728.97 0.856645 6.73675 0
M  V30 17847 H 1726.92 -1.36441 6.41654 0
M  V30 17848 H 1726.84 -0.0644017 7.55973 0
M  V30 17849 H 1728.1 -1.24588 7.69479 0
M  V30 17850 N 1732.33 -1.48497 0.527859 0
M  V30 17851 C 1733.56 -2.069 -0.00302594 0
M  V30 17852 C 1733.98 -1.38469 -1.28342 0
M  V30 17853 O 1733.33 -0.471524 -1.76303 0
M  V30 17854 C 1733.38 -3.60749 -0.232871 0
M  V30 17855 O 1733.11 -4.26609 0.996797 0
M  V30 17856 C 1734.61 -4.35941 -0.804376 0
M  V30 17857 H 1731.83 -0.67021 0.0325559 0
M  V30 17858 H 1734.37 -1.90916 0.732897 0
M  V30 17859 H 1732.53 -3.76346 -0.918837 0
M  V30 17860 H 1732.94 -5.18725 0.776217 0
M  V30 17861 H 1734.41 -5.4437 -0.914635 0
M  V30 17862 H 1734.89 -4.00225 -1.80876 0
M  V30 17863 H 1735.5 -4.25017 -0.155041 0
M  V30 17864 N 1733.81 -0.262893 -1.55392 0
M  V30 17865 C 1735.04 0.363972 -2.04181 0
M  V30 17866 C 1735.46 1.49585 -1.14044 0
M  V30 17867 O 1734.82 1.80785 -0.136553 0
M  V30 17868 C 1734.87 0.834041 -3.50822 0
M  V30 17869 O 1733.97 1.94234 -3.63795 0
M  V30 17870 H 1733.31 0.0771193 -0.659506 0
M  V30 17871 H 1735.84 -0.393623 -2.00778 0
M  V30 17872 H 1735.85 1.13304 -3.91952 0
M  V30 17873 H 1734.53 0.00584833 -4.159 0
M  V30 17874 H 1733.1 1.64681 -3.34566 0
M  V30 17875 N 1735.29 1.57597 0.0100073 0
M  V30 17876 C 1736.22 2.10825 1.00375 0
M  V30 17877 C 1737.2 1.01507 1.36493 0
M  V30 17878 O 1738.39 1.29136 1.45043 0
M  V30 17879 C 1735.52 2.60334 2.29878 0
M  V30 17880 C 1734.47 3.74087 2.07949 0
M  V30 17881 C 1733.8 4.09873 3.43378 0
M  V30 17882 C 1735.1 5.01764 1.45018 0
M  V30 17883 H 1736.79 2.94105 0.560591 0
M  V30 17884 H 1734.34 1.4148 0.268208 0
M  V30 17885 H 1736.29 2.96196 2.99743 0
M  V30 17886 H 1735.01 1.74162 2.76288 0
M  V30 17887 H 1733.67 3.38603 1.40512 0
M  V30 17888 H 1733.32 3.20739 3.87473 0
M  V30 17889 H 1733.02 4.86505 3.29525 0
M  V30 17890 H 1734.54 4.48285 4.14575 0
M  V30 17891 H 1735.96 5.35462 2.04826 0
M  V30 17892 H 1734.35 5.83135 1.41683 0
M  V30 17893 H 1735.42 4.83093 0.41819 0
M  V30 17894 N 1736.77 -0.282606 1.55045 0
M  V30 17895 C 1737.68 -1.37129 1.90349 0
M  V30 17896 C 1738.69 -1.54537 0.799639 0
M  V30 17897 O 1739.87 -1.68849 1.09782 0
M  V30 17898 C 1736.93 -2.71211 2.15975 0
M  V30 17899 C 1736 -2.62632 3.39592 0
M  V30 17900 C 1735.23 -3.90319 3.63987 0
M  V30 17901 O 1735.45 -4.90551 2.9106 0
M  V30 17902 O 1734.39 -3.91102 4.57518 0
M  V30 17903 H 1738.21 -1.10189 2.83006 0
M  V30 17904 H 1735.8 -0.480293 1.41469 0
M  V30 17905 H 1737.68 -3.50509 2.33926 0
M  V30 17906 H 1736.35 -2.97958 1.26503 0
M  V30 17907 H 1735.26 -1.81743 3.26987 0
M  V30 17908 H 1736.59 -2.40836 4.29254 0
M  V30 17909 N 1738.25 -1.47815 -0.546675 0
M  V30 17910 C 1739.52 -1.45464 -1.30765 0
M  V30 17911 C 1739.9 -0.157249 -2.10514 0
M  V30 17912 O 1739.25 0.861203 -2.1165 0
M  V30 17913 C 1739.46 -2.70661 -2.20326 0
M  V30 17914 C 1740.81 -3.18309 -2.81007 0
M  V30 17915 O 1741.83 -2.71462 -2.30623 0
M  V30 17916 O 1740.69 -3.9978 -3.7261 0
M  V30 17917 H 1737.79 -0.580175 -0.589343 0
M  V30 17918 H 1740.33 -1.60029 -0.564707 0
M  V30 17919 H 1739.1 -3.56612 -1.61069 0
M  V30 17920 H 1738.73 -2.58734 -3.01898 0
M  V30 17921 N 1739.72 0.794246 -1.36123 0
M  V30 17922 C 1740.97 1.54708 -1.29416 0
M  V30 17923 C 1741.29 1.95195 0.125849 0
M  V30 17924 O 1742.49 2.69663 0.315271 0
M  V30 17925 C 1740.95 2.79256 -2.27034 0
M  V30 17926 C 1740.56 2.45957 -3.74445 0
M  V30 17927 C 1742.3 3.57246 -2.29294 0
M  V30 17928 C 1740.21 3.66871 -4.63853 0
M  V30 17929 H 1739.14 0.580743 -0.480888 0
M  V30 17930 H 1741.79 0.871975 -1.61458 0
M  V30 17931 H 1740.17 3.4854 -1.87979 0
M  V30 17932 H 1741.34 1.846 -4.22208 0
M  V30 17933 H 1739.66 1.81187 -3.74913 0
M  V30 17934 H 1742.26 4.47076 -2.93304 0
M  V30 17935 H 1742.6 3.95478 -1.30011 0
M  V30 17936 H 1743.13 2.94936 -2.66941 0
M  V30 17937 H 1739.87 3.33739 -5.6418 0
M  V30 17938 H 1739.39 4.27411 -4.20809 0
M  V30 17939 H 1741.07 4.33957 -4.79886 0
M  V30 17940 N 1741.2 1.20323 1.01785 0
M  V30 17941 C 1742.48 0.921703 1.72522 0
M  V30 17942 C 1742.86 -0.569838 2.03264 0
M  V30 17943 O 1742.21 -1.53115 1.69611 0
M  V30 17944 C 1742.42 1.79335 2.99399 0
M  V30 17945 C 1743.76 2.03442 3.72688 0
M  V30 17946 O 1744.79 1.76578 3.09352 0
M  V30 17947 O 1743.65 2.48803 4.86579 0
M  V30 17948 H 1740.74 0.344505 0.751828 0
M  V30 17949 H 1743.29 1.31191 1.07644 0
M  V30 17950 H 1742.06 2.80339 2.72994 0
M  V30 17951 H 1741.68 1.40314 3.72018 0
M  V30 17952 N 1742.68 -1.21073 1.00892 0
M  V30 17953 C 1743.61 -2.25847 0.592897 0
M  V30 17954 C 1744.59 -1.6561 -0.38824 0
M  V30 17955 O 1745.78 -1.92238 -0.275361 0
M  V30 17956 C 1742.91 -3.47214 -0.0773439 0
M  V30 17957 C 1741.86 -4.19994 0.82398 0
M  V30 17958 C 1741.19 -5.34696 0.0199341 0
M  V30 17959 C 1742.49 -4.76964 2.12844 0
M  V30 17960 H 1744.18 -2.609 1.46873 0
M  V30 17961 H 1741.73 -1.25412 0.707656 0
M  V30 17962 H 1743.68 -4.19684 -0.379889 0
M  V30 17963 H 1742.4 -3.11303 -0.987833 0
M  V30 17964 H 1741.06 -3.49379 1.11041 0
M  V30 17965 H 1740.71 -4.95028 -0.891966 0
M  V30 17966 H 1740.41 -5.84319 0.620102 0
M  V30 17967 H 1741.93 -6.09974 -0.276336 0
M  V30 17968 H 1743.35 -5.41293 1.88878 0
M  V30 17969 H 1741.74 -5.36992 2.67879 0
M  V30 17970 H 1742.81 -3.96129 2.79659 0
M  V30 17971 N 1744.16 -0.784156 -1.36707 0
M  V30 17972 C 1745.41 -0.353434 -1.98986 0
M  V30 17973 C 1745.73 1.07714 -1.62551 0
M  V30 17974 O 1745 1.7416 -0.896938 0
M  V30 17975 H 1743.58 -0.127693 -0.736005 0
M  V30 17976 H 1746.24 -1.00503 -1.66988 0
M  V30 17977 H 1745.34 -0.441028 -3.08968 0
M  V30 17978 N 1745.64 1.48215 -0.535727 0
M  V30 17979 C 1746.86 2.07399 -0.00589172 0
M  V30 17980 C 1747.29 1.38886 1.26856 0
M  V30 17981 O 1746.64 0.456684 1.75454 0
M  V30 17982 C 1746.69 3.60071 0.195203 0
M  V30 17983 O 1745.8 3.92596 1.26261 0
M  V30 17984 H 1745.14 0.662689 -0.0416988 0
M  V30 17985 H 1747.67 1.90543 -0.745281 0
M  V30 17986 H 1747.68 4.05873 0.416085 0
M  V30 17987 H 1746.35 4.0934 -0.735747 0
M  V30 17988 H 1744.93 3.58567 1.02393 0
M  V30 17989 N 1747.11 0.27113 1.5525 0
M  V30 17990 C 1748.36 -0.346106 1.99114 0
M  V30 17991 C 1748.68 -1.56677 1.16092 0
M  V30 17992 O 1747.95 -1.94305 0.249472 0
M  V30 17993 H 1746.53 -0.13087 0.735447 0
M  V30 17994 H 1749.2 0.375542 1.91248 0
M  V30 17995 H 1748.29 -0.638703 3.05495 0
M  V30 17996 N 1748.59 -1.576 -0.00164943 0
M  V30 17997 C 1749.52 -2.11354 -0.992554 0
M  V30 17998 C 1750.5 -1.0223 -1.35952 0
M  V30 17999 O 1751.69 -1.29904 -1.44356 0
M  V30 18000 C 1748.82 -2.61549 -2.28494 0
M  V30 18001 C 1747.77 -3.75185 -2.05962 0
M  V30 18002 C 1747.1 -4.11688 -3.412 0
M  V30 18003 C 1748.4 -5.02526 -1.42355 0
M  V30 18004 H 1750.09 -2.94398 -0.544986 0
M  V30 18005 H 1747.64 -1.4162 -0.260702 0
M  V30 18006 H 1749.59 -2.97782 -2.98168 0
M  V30 18007 H 1748.32 -1.75625 -2.75361 0
M  V30 18008 H 1746.97 -3.39343 -1.38714 0
M  V30 18009 H 1746.62 -3.22789 -3.85767 0
M  V30 18010 H 1746.32 -4.88246 -3.2694 0
M  V30 18011 H 1747.85 -4.50478 -4.12192 0
M  V30 18012 H 1749.26 -5.3654 -2.01984 0
M  V30 18013 H 1747.66 -5.83878 -1.38589 0
M  V30 18014 H 1748.73 -4.83308 -0.392565 0
M  V30 18015 N 1750.07 0.274379 -1.55193 0
M  V30 18016 C 1751.32 1.00617 -1.75734 0
M  V30 18017 C 1751.65 1.86334 -0.557679 0
M  V30 18018 O 1750.9 1.90221 0.459848 0
M  V30 18019 C 1751.2 1.91958 -3.01475 0
M  V30 18020 C 1750.87 1.22002 -4.34081 0
M  V30 18021 C 1749.53 1.02658 -4.70122 0
M  V30 18022 C 1751.88 0.722087 -5.16174 0
M  V30 18023 C 1749.21 0.322465 -5.85813 0
M  V30 18024 C 1751.56 0.0315683 -6.32592 0
M  V30 18025 C 1750.22 -0.173595 -6.67274 0
M  V30 18026 H 1749.49 0.368182 -0.643058 0
M  V30 18027 H 1752.14 0.278579 -1.89463 0
M  V30 18028 H 1750.45 2.71333 -2.8264 0
M  V30 18029 H 1752.14 2.48698 -3.14564 0
M  V30 18030 H 1748.73 1.3807 -4.05752 0
M  V30 18031 H 1752.92 0.859163 -4.88807 0
M  V30 18032 H 1748.17 0.152775 -6.11209 0
M  V30 18033 H 1752.35 -0.362033 -6.95458 0
M  V30 18034 H 1749.97 -0.721178 -7.56771 0
M  V30 18035 N 1751.55 1.48103 0.538828 0
M  V30 18036 C 1752.46 1.64632 1.67133 0
M  V30 18037 C 1753.47 0.528917 1.65766 0
M  V30 18038 O 1754.65 0.798849 1.84879 0
M  V30 18039 C 1751.72 1.67391 3.03614 0
M  V30 18040 C 1750.78 2.90694 3.15904 0
M  V30 18041 C 1750.01 2.93311 4.45875 0
M  V30 18042 O 1750.23 2.04596 5.32444 0
M  V30 18043 O 1749.17 3.85384 4.62345 0
M  V30 18044 H 1752.99 2.60496 1.56126 0
M  V30 18045 H 1750.58 1.31401 0.710925 0
M  V30 18046 H 1752.46 1.71777 3.84799 0
M  V30 18047 H 1751.13 0.746982 3.14963 0
M  V30 18048 H 1750.04 2.91844 2.34047 0
M  V30 18049 H 1751.37 3.82742 3.09467 0
M  V30 18050 N 1753.03 -0.787016 1.36542 0
M  V30 18051 C 1753.97 -1.89975 1.31065 0
M  V30 18052 C 1754.94 -1.65134 0.178905 0
M  V30 18053 O 1756.13 -1.8726 0.36581 0
M  V30 18054 C 1753.27 -3.26822 1.10821 0
M  V30 18055 C 1752.38 -3.6372 2.33091 0
M  V30 18056 C 1751.52 -4.89697 2.0584 0
M  V30 18057 C 1750.56 -5.1928 3.24059 0
M  V30 18058 N 1749.69 -6.36441 2.96457 0
M  V30 18059 H 1754.53 -1.93993 2.2621 0
M  V30 18060 H 1752.07 -0.948631 1.12425 0
M  V30 18061 H 1754.03 -4.05741 0.971091 0
M  V30 18062 H 1752.66 -3.22221 0.193302 0
M  V30 18063 H 1751.71 -2.79906 2.57598 0
M  V30 18064 H 1753.02 -3.81529 3.21305 0
M  V30 18065 H 1752.18 -5.76486 1.89072 0
M  V30 18066 H 1750.91 -4.73962 1.14941 0
M  V30 18067 H 1749.92 -4.30973 3.41383 0
M  V30 18068 H 1751.14 -5.36934 4.15787 0
M  V30 18069 H 1749.09 -6.22093 2.08172 0
M  V30 18070 H 1749.01 -6.54594 3.78209 0
M  V30 18071 H 1750.28 -7.26207 2.83273 0
M  V30 18072 N 1754.5 -1.20861 -1.01145 0
M  V30 18073 C 1755.92 -1.02156 -1.56272 0
M  V30 18074 C 1756.27 0.420552 -1.9164 0
M  V30 18075 O 1755.39 1.30277 -1.72792 0
M  V30 18076 C 1755.99 -1.84812 -2.83954 0
M  V30 18077 C 1754.55 -1.70458 -3.35591 0
M  V30 18078 C 1753.69 -1.82425 -2.08846 0
M  V30 18079 H 1756.64 -1.34978 -0.834669 0
M  V30 18080 H 1756.66 -1.35455 -3.55573 0
M  V30 18081 H 1756.18 -2.89765 -2.58181 0
M  V30 18082 H 1754.28 -0.681631 -3.66312 0
M  V30 18083 H 1754.39 -2.52041 -4.07446 0
M  V30 18084 H 1752.75 -1.25665 -2.21541 0
M  V30 18085 H 1753.54 -2.88872 -1.85493 0
M  V30 18086 N 1755.98 1.20536 -1.01532 0
M  V30 18087 C 1756.93 2.23277 -0.584486 0
M  V30 18088 C 1757.9 1.6134 0.394773 0
M  V30 18089 O 1759.08 1.88514 0.294498 0
M  V30 18090 C 1756.22 3.45024 0.0723574 0
M  V30 18091 C 1755.34 4.21395 -0.951314 0
M  V30 18092 C 1754.47 5.30535 -0.265656 0
M  V30 18093 C 1753.51 5.98649 -1.27617 0
M  V30 18094 N 1752.65 6.99381 -0.61727 0
M  V30 18095 H 1757.49 2.59489 -1.46524 0
M  V30 18096 H 1755.03 1.27507 -0.733502 0
M  V30 18097 H 1756.98 4.14541 0.470303 0
M  V30 18098 H 1755.61 3.09508 0.916768 0
M  V30 18099 H 1754.67 3.50957 -1.46743 0
M  V30 18100 H 1755.98 4.68211 -1.71989 0
M  V30 18101 H 1755.13 6.06409 0.187857 0
M  V30 18102 H 1753.87 4.84754 0.535237 0
M  V30 18103 H 1752.88 5.21537 -1.74008 0
M  V30 18104 H 1754.1 6.46516 -2.07832 0
M  V30 18105 H 1752.05 6.55796 0.163777 0
M  V30 18106 H 1751.96 7.44317 -1.32393 0
M  V30 18107 H 1753.23 7.79275 -0.187306 0
M  V30 18108 N 1757.46 0.791395 1.36289 0
M  V30 18109 C 1758.42 0.197069 2.28351 0
M  V30 18110 C 1759.42 -0.606748 1.48913 0
M  V30 18111 O 1760.61 -0.427453 1.68874 0
M  V30 18112 C 1757.75 -0.727009 3.33058 0
M  V30 18113 H 1758.94 1.00885 2.82422 0
M  V30 18114 H 1756.49 0.560959 1.45887 0
M  V30 18115 H 1757.23 -1.56306 2.84146 0
M  V30 18116 H 1757.01 -0.152537 3.91803 0
M  V30 18117 H 1758.5 -1.13765 4.01805 0
M  V30 18118 N 1758.94 -1.47929 0.54358 0
M  V30 18119 C 1760.17 -2.06891 0.0189187 0
M  V30 18120 C 1760.58 -1.39822 -1.26867 0
M  V30 18121 O 1759.94 -0.490197 -1.75793 0
M  V30 18122 C 1759.99 -3.60976 -0.194595 0
M  V30 18123 O 1759.71 -4.25528 1.04199 0
M  V30 18124 C 1761.21 -4.3677 -0.758093 0
M  V30 18125 H 1758.43 -0.669827 0.0396625 0
M  V30 18126 H 1760.98 -1.90128 0.753105 0
M  V30 18127 H 1759.13 -3.77299 -0.878869 0
M  V30 18128 H 1759.55 -5.17872 0.831191 0
M  V30 18129 H 1761.02 -5.45309 -0.856846 0
M  V30 18130 H 1761.5 -4.02121 -1.76621 0
M  V30 18131 H 1762.1 -4.25158 -0.109953 0
M  V30 18132 N 1760.42 -0.27936 -1.55104 0
M  V30 18133 C 1761.33 0.616249 -2.26361 0
M  V30 18134 C 1762.34 1.16656 -1.29102 0
M  V30 18135 O 1763.52 1.19596 -1.62046 0
M  V30 18136 C 1760.58 1.78191 -2.97403 0
M  V30 18137 C 1759.65 1.26785 -4.10151 0
M  V30 18138 C 1758.88 2.37795 -4.77796 0
M  V30 18139 O 1759.1 3.57242 -4.44673 0
M  V30 18140 O 1758.04 2.05711 -5.65656 0
M  V30 18141 H 1761.86 0.0388715 -3.03675 0
M  V30 18142 H 1759.45 -0.0466058 -1.49327 0
M  V30 18143 H 1761.33 2.4615 -3.42036 0
M  V30 18144 H 1760 2.3463 -2.23003 0
M  V30 18145 H 1758.91 0.554608 -3.69966 0
M  V30 18146 H 1760.24 0.749157 -4.86465 0
M  V30 18147 N 1761.9 1.57599 -0.0067085 0
M  V30 18148 C 1762.83 2.11878 0.981331 0
M  V30 18149 C 1763.81 1.02949 1.35408 0
M  V30 18150 O 1764.99 1.30667 1.43665 0
M  V30 18151 C 1762.12 2.62757 2.27104 0
M  V30 18152 C 1761.08 3.76272 2.0397 0
M  V30 18153 C 1760.4 4.13491 3.39012 0
M  V30 18154 C 1761.7 5.03274 1.39688 0
M  V30 18155 H 1763.4 2.94683 0.529366 0
M  V30 18156 H 1760.94 1.41757 0.253187 0
M  V30 18157 H 1762.89 2.99359 2.96585 0
M  V30 18158 H 1761.62 1.77082 2.74426 0
M  V30 18159 H 1760.28 3.40074 1.36913 0
M  V30 18160 H 1759.93 3.24831 3.8405 0
M  V30 18161 H 1759.63 4.89972 3.24347 0
M  V30 18162 H 1761.15 4.52657 4.09797 0
M  V30 18163 H 1762.56 5.37604 1.99136 0
M  V30 18164 H 1760.96 5.84604 1.3549 0
M  V30 18165 H 1762.03 4.8351 0.366928 0
M  V30 18166 N 1763.37 -0.266145 1.55336 0
M  V30 18167 C 1764.62 -0.994648 1.7547 0
M  V30 18168 C 1764.94 -1.87201 0.56702 0
M  V30 18169 O 1766.14 -2.63582 0.650924 0
M  V30 18170 C 1764.6 -1.81844 3.10581 0
M  V30 18171 C 1764.21 -0.989413 4.36938 0
M  V30 18172 C 1765.95 -2.54084 3.40061 0
M  V30 18173 C 1763.86 -1.80799 5.63086 0
M  V30 18174 H 1762.79 -0.375097 0.654078 0
M  V30 18175 H 1765.44 -0.25004 1.81788 0
M  V30 18176 H 1763.82 -2.60427 2.98318 0
M  V30 18177 H 1764.99 -0.247271 4.60136 0
M  V30 18178 H 1763.31 -0.38125 4.14651 0
M  V30 18179 H 1765.91 -3.15744 4.3152 0
M  V30 18180 H 1766.25 -3.2472 2.60505 0
M  V30 18181 H 1766.78 -1.82526 3.53453 0
M  V30 18182 H 1763.52 -1.14571 6.4541 0
M  V30 18183 H 1763.04 -2.52592 5.4402 0
M  V30 18184 H 1764.72 -2.37994 6.01638 0
M  V30 18185 N 1764.85 -1.48386 -0.530967 0
M  V30 18186 C 1765.76 -1.65516 -1.66257 0
M  V30 18187 C 1766.78 -0.5377 -1.65483 0
M  V30 18188 O 1767.95 -0.808642 -1.84453 0
M  V30 18189 C 1765.02 -1.68999 -3.02722 0
M  V30 18190 C 1764.08 -2.92365 -3.14358 0
M  V30 18191 C 1763.31 -2.95672 -4.44313 0
M  V30 18192 O 1763.54 -2.07417 -5.31352 0
M  V30 18193 O 1762.47 -3.87831 -4.60294 0
M  V30 18194 H 1766.3 -2.61321 -1.54742 0
M  V30 18195 H 1763.88 -1.31776 -0.703946 0
M  V30 18196 H 1765.76 -1.73816 -3.83883 0
M  V30 18197 H 1764.44 -0.763675 -3.14563 0
M  V30 18198 H 1763.34 -2.93081 -2.32496 0
M  V30 18199 H 1764.68 -3.84378 -3.07433 0
M  V30 18200 N 1766.33 0.779763 -1.36958 0
M  V30 18201 C 1767.58 1.53803 -1.31723 0
M  V30 18202 C 1767.9 1.94239 0.100663 0
M  V30 18203 O 1767.16 1.6372 1.07212 0
M  V30 18204 C 1767.46 2.82075 -2.19473 0
M  V30 18205 C 1767.12 2.6073 -3.67873 0
M  V30 18206 C 1765.79 2.54617 -4.08318 0
M  V30 18207 C 1768.14 2.41407 -4.61922 0
M  V30 18208 C 1765.47 2.2716 -5.40939 0
M  V30 18209 C 1767.82 2.15475 -5.94772 0
M  V30 18210 C 1766.48 2.07801 -6.3433 0
M  V30 18211 H 1765.75 0.562804 -0.482009 0
M  V30 18212 H 1768.4 0.898839 -1.69095 0
M  V30 18213 H 1766.7 3.50511 -1.75069 0
M  V30 18214 H 1768.4 3.39915 -2.12741 0
M  V30 18215 H 1764.99 2.66347 -3.35793 0
M  V30 18216 H 1769.18 2.45125 -4.31541 0
M  V30 18217 H 1764.43 2.19708 -5.7056 0
M  V30 18218 H 1768.61 1.9952 -6.67207 0
M  V30 18219 H 1766.23 1.86289 -7.37021 0
M  V30 18220 N 1767.81 1.21396 1.00503 0
M  V30 18221 C 1769.03 1.05791 1.7839 0
M  V30 18222 C 1769.46 -0.387921 1.84056 0
M  V30 18223 O 1768.82 -1.27983 1.28413 0
M  V30 18224 C 1768.86 1.65967 3.20137 0
M  V30 18225 O 1767.97 0.905123 4.02345 0
M  V30 18226 H 1767.31 0.372331 0.549787 0
M  V30 18227 H 1769.84 1.60938 1.26334 0
M  V30 18228 H 1769.85 1.70186 3.70811 0
M  V30 18229 H 1768.52 2.71185 3.15327 0
M  V30 18230 H 1767.1 0.938019 3.60909 0
M  V30 18231 N 1769.29 -1.19996 1.0217 0
M  V30 18232 C 1770.51 -1.93466 0.733374 0
M  V30 18233 C 1770.93 -1.75074 -0.70672 0
M  V30 18234 O 1770.29 -1.068 -1.47987 0
M  V30 18235 C 1770.34 -3.45425 1.06601 0
M  V30 18236 O 1770.06 -3.6322 2.44954 0
M  V30 18237 C 1771.56 -4.36032 0.799458 0
M  V30 18238 H 1768.78 -0.614762 0.268903 0
M  V30 18239 H 1771.32 -1.52343 1.36426 0
M  V30 18240 H 1769.48 -3.84409 0.480432 0
M  V30 18241 H 1769.89 -4.57155 2.57117 0
M  V30 18242 H 1771.37 -5.41287 1.08223 0
M  V30 18243 H 1771.84 -4.38392 -0.266279 0
M  V30 18244 H 1772.45 -4.02718 1.36743 0
M  V30 18245 N 1770.76 -0.798611 -1.35867 0
M  V30 18246 C 1772.01 -0.371795 -1.98244 0
M  V30 18247 C 1772.33 1.06474 -1.64081 0
M  V30 18248 O 1773.53 1.59428 -2.19761 0
M  V30 18249 C 1771.99 -0.613821 -3.54627 0
M  V30 18250 C 1771.6 -2.06237 -3.97706 0
M  V30 18251 C 1773.34 -0.251966 -4.23752 0
M  V30 18252 C 1771.25 -2.25057 -5.46903 0
M  V30 18253 H 1770.18 -0.135278 -0.741765 0
M  V30 18254 H 1772.83 -0.981544 -1.55042 0
M  V30 18255 H 1771.21 0.0657688 -3.95945 0
M  V30 18256 H 1772.38 -2.77912 -3.67562 0
M  V30 18257 H 1770.7 -2.38334 -3.41447 0
M  V30 18258 H 1773.3 -0.370736 -5.33413 0
M  V30 18259 H 1773.64 0.800968 -4.08522 0
M  V30 18260 H 1774.17 -0.885155 -3.87827 0
M  V30 18261 H 1770.91 -3.28767 -5.67091 0
M  V30 18262 H 1770.43 -1.57898 -5.78643 0
M  V30 18263 H 1772.11 -2.06219 -6.13256 0
M  V30 18264 N 1772.24 1.47639 -0.551417 0
M  V30 18265 C 1773.19 2.29936 0.199514 0
M  V30 18266 C 1774.16 1.38704 0.913811 0
M  V30 18267 O 1775.34 1.67666 0.910643 0
M  V30 18268 C 1772.48 3.22544 1.22717 0
M  V30 18269 C 1771.6 4.28865 0.519527 0
M  V30 18270 C 1770.73 5.0863 1.53197 0
M  V30 18271 C 1769.77 6.06731 0.808981 0
M  V30 18272 N 1768.91 6.79476 1.76798 0
M  V30 18273 H 1773.75 2.93631 -0.508414 0
M  V30 18274 H 1771.28 1.44738 -0.262553 0
M  V30 18275 H 1773.24 3.74653 1.83551 0
M  V30 18276 H 1771.87 2.60726 1.9032 0
M  V30 18277 H 1770.92 3.79857 -0.203217 0
M  V30 18278 H 1772.24 4.98778 -0.0471224 0
M  V30 18279 H 1771.39 5.6486 2.214 0
M  V30 18280 H 1770.13 4.38605 2.13253 0
M  V30 18281 H 1769.13 5.49684 0.112991 0
M  V30 18282 H 1770.36 6.78762 0.214239 0
M  V30 18283 H 1768.31 6.12185 2.35722 0
M  V30 18284 H 1768.22 7.45539 1.25333 0
M  V30 18285 H 1769.49 7.40283 2.44133 0
M  V30 18286 N 1773.72 0.287581 1.54954 0
M  V30 18287 C 1774.97 -0.326093 2.00161 0
M  V30 18288 C 1775.3 -1.54564 1.17574 0
M  V30 18289 O 1774.57 -1.92901 0.248859 0
M  V30 18290 C 1774.86 -0.695974 3.5331 0
M  V30 18291 C 1774.71 0.531783 4.46645 0
M  V30 18292 C 1776.03 -1.52767 4.12735 0
M  V30 18293 H 1773.15 -0.117051 0.727646 0
M  V30 18294 H 1775.79 0.39701 1.85806 0
M  V30 18295 H 1773.94 -1.31205 3.65674 0
M  V30 18296 H 1775.61 1.17032 4.46208 0
M  V30 18297 H 1773.86 1.16754 4.17793 0
M  V30 18298 H 1774.53 0.229034 5.51525 0
M  V30 18299 H 1777 -1.00724 4.03725 0
M  V30 18300 H 1775.88 -1.75527 5.20078 0
M  V30 18301 H 1776.14 -2.51267 3.63755 0
M  V30 18302 N 1775.2 -1.57593 0.0150662 0
M  V30 18303 C 1776.43 -1.95504 -0.677174 0
M  V30 18304 C 1776.84 -0.8908 -1.66464 0
M  V30 18305 O 1776.2 0.128818 -1.82045 0
M  V30 18306 C 1776.25 -3.33463 -1.39589 0
M  V30 18307 O 1775.97 -4.35803 -0.448005 0
M  V30 18308 C 1777.47 -3.85923 -2.18125 0
M  V30 18309 H 1774.69 -0.644226 -0.187652 0
M  V30 18310 H 1777.24 -2.04378 0.070661 0
M  V30 18311 H 1775.39 -3.25851 -2.09523 0
M  V30 18312 H 1775.8 -5.157 -0.956756 0
M  V30 18313 H 1777.28 -4.84838 -2.63887 0
M  V30 18314 H 1777.76 -3.19423 -3.01439 0
M  V30 18315 H 1778.36 -3.96758 -1.53176 0
M  V30 18316 N 1776.68 0.257904 -1.55475 0
M  V30 18317 C 1777.92 0.988933 -1.77054 0
M  V30 18318 C 1778.26 1.85387 -0.578375 0
M  V30 18319 O 1777.53 1.8983 0.423673 0
M  V30 18320 C 1777.81 1.85876 -3.08419 0
M  V30 18321 C 1777.67 1.02274 -4.38018 0
M  V30 18322 C 1778.99 2.84322 -3.3593 0
M  V30 18323 H 1776.1 0.358103 -0.644152 0
M  V30 18324 H 1778.75 0.260209 -1.8821 0
M  V30 18325 H 1776.9 2.48008 -2.99039 0
M  V30 18326 H 1778.57 0.420967 -4.59375 0
M  V30 18327 H 1776.81 0.326705 -4.32568 0
M  V30 18328 H 1777.48 1.6649 -5.26294 0
M  V30 18329 H 1779.96 2.32325 -3.45202 0
M  V30 18330 H 1778.83 3.42313 -4.29084 0
M  V30 18331 H 1779.1 3.60223 -2.56304 0
M  V30 18332 N 1778.15 1.48666 0.52309 0
M  V30 18333 C 1779.57 1.50492 1.10495 0
M  V30 18334 C 1779.92 0.278579 1.94212 0
M  V30 18335 O 1779.04 -0.613679 2.07516 0
M  V30 18336 C 1779.64 2.72692 2.01058 0
M  V30 18337 C 1778.2 2.77368 2.54448 0
M  V30 18338 C 1777.34 2.44104 1.31562 0
M  V30 18339 H 1780.29 1.55682 0.308017 0
M  V30 18340 H 1780.31 2.51601 2.85442 0
M  V30 18341 H 1779.83 3.61931 1.401 0
M  V30 18342 H 1777.93 1.92356 3.19108 0
M  V30 18343 H 1778.04 3.78976 2.93111 0
M  V30 18344 H 1776.4 1.95407 1.63366 0
M  V30 18345 H 1777.19 3.35591 0.723455 0
M  V30 18346 N 1779.63 -0.772489 1.37369 0
M  V30 18347 C 1780.86 -1.56671 1.35901 0
M  V30 18348 C 1781.28 -1.88024 -0.0535538 0
M  V30 18349 O 1780.64 -1.49174 -1.03038 0
M  V30 18350 C 1780.69 -2.85417 2.20384 0
M  V30 18351 O 1779.79 -3.79761 1.60796 0
M  V30 18352 H 1779.13 -0.474596 0.464386 0
M  V30 18353 H 1781.66 -0.956162 1.80883 0
M  V30 18354 H 1781.67 -3.34527 2.33571 0
M  V30 18355 H 1780.35 -2.61926 3.2306 0
M  V30 18356 H 1778.93 -3.38403 1.56645 0
M  V30 18357 N 1781.11 -1.21927 -0.998575 0
M  V30 18358 C 1782.39 -0.949034 -1.71034 0
M  V30 18359 C 1782.77 0.537429 -2.04144 0
M  V30 18360 O 1782.12 1.50398 -1.72026 0
M  V30 18361 C 1782.33 -1.84076 -2.96508 0
M  V30 18362 C 1783.67 -2.09345 -3.69405 0
M  V30 18363 O 1784.7 -1.81477 -3.06504 0
M  V30 18364 O 1783.56 -2.56513 -4.82559 0
M  V30 18365 H 1780.65 -0.356423 -0.746252 0
M  V30 18366 H 1783.2 -1.32886 -1.05543 0
M  V30 18367 H 1781.97 -2.84647 -2.68499 0
M  V30 18368 H 1781.59 -1.46215 -3.69739 0
M  V30 18369 N 1782.59 1.19452 -1.02805 0
M  V30 18370 C 1783.84 1.88439 -0.719284 0
M  V30 18371 C 1784.15 1.80435 0.755143 0
M  V30 18372 O 1785.36 2.44664 1.17693 0
M  V30 18373 C 1783.81 3.38001 -1.23625 0
M  V30 18374 C 1783.42 3.54564 -2.7384 0
M  V30 18375 C 1785.16 4.1247 -1.00343 0
M  V30 18376 C 1783.07 4.98016 -3.18958 0
M  V30 18377 H 1782 0.705762 -0.265359 0
M  V30 18378 H 1784.65 1.35058 -1.24224 0
M  V30 18379 H 1783.03 3.90774 -0.641211 0
M  V30 18380 H 1784.21 3.12124 -3.38991 0
M  V30 18381 H 1782.52 2.93484 -2.95392 0
M  V30 18382 H 1785.12 5.18257 -1.31581 0
M  V30 18383 H 1785.46 4.16257 0.0597873 0
M  V30 18384 H 1786 3.65832 -1.56243 0
M  V30 18385 H 1782.74 4.9939 -4.24605 0
M  V30 18386 H 1782.26 5.41221 -2.58534 0
M  V30 18387 H 1783.93 5.66664 -3.12252 0
M  V30 18388 N 1784.07 0.805805 1.35442 0
M  V30 18389 C 1785.29 0.398252 2.03031 0
M  V30 18390 C 1785.71 -0.990542 1.60729 0
M  V30 18391 O 1785.07 -1.63813 0.804461 0
M  V30 18392 C 1785.12 0.471116 3.58417 0
M  V30 18393 O 1784.84 1.80516 3.99181 0
M  V30 18394 C 1786.34 0.056272 4.43264 0
M  V30 18395 H 1783.56 0.161905 0.651174 0
M  V30 18396 H 1786.1 1.08921 1.73079 0
M  V30 18397 H 1784.26 -0.171584 3.8702 0
M  V30 18398 H 1784.67 1.76739 4.93825 0
M  V30 18399 H 1786.15 0.15837 5.51773 0
M  V30 18400 H 1786.62 -0.998308 4.27704 0
M  V30 18401 H 1787.23 0.672097 4.19956 0
M  V30 18402 N 1785.54 -1.47344 0.559239 0
M  V30 18403 C 1786.77 -2.0686 0.0408612 0
M  V30 18404 C 1787.19 -1.4116 -1.25376 0
M  V30 18405 O 1786.54 -0.508814 -1.75264 0
M  V30 18406 C 1786.6 -3.61162 -0.156298 0
M  V30 18407 O 1786.32 -4.24399 1.08706 0
M  V30 18408 C 1787.82 -4.37549 -0.711725 0
M  V30 18409 H 1785.04 -0.669368 0.0467647 0
M  V30 18410 H 1787.58 -1.89318 0.773229 0
M  V30 18411 H 1785.74 -3.7821 -0.838802 0
M  V30 18412 H 1786.15 -5.16961 0.886072 0
M  V30 18413 H 1787.62 -5.46187 -0.798961 0
M  V30 18414 H 1788.1 -4.03972 -1.72346 0
M  V30 18415 H 1788.71 -4.25251 -0.0648534 0
M  V30 18416 N 1787.02 -0.295795 -1.54799 0
M  V30 18417 C 1787.99 0.569699 -2.22007 0
M  V30 18418 C 1788.99 1.06535 -1.20445 0
M  V30 18419 O 1790.18 0.962212 -1.45214 0
M  V30 18420 C 1787.31 1.78821 -2.90234 0
M  V30 18421 H 1788.5 -0.0174148 -2.99895 0
M  V30 18422 H 1786.05 -0.0465813 -1.56231 0
M  V30 18423 H 1786.79 2.4153 -2.16412 0
M  V30 18424 H 1786.57 1.44051 -3.6468 0
M  V30 18425 H 1788.06 2.40321 -3.41519 0
M  V30 18426 N 1788.5 1.57583 -0.0234236 0
M  V30 18427 C 1789.75 1.91565 0.656449 0
M  V30 18428 C 1790.08 0.899298 1.72461 0
M  V30 18429 O 1789.33 -0.0926107 1.95481 0
M  V30 18430 C 1789.63 3.32283 1.31616 0
M  V30 18431 C 1789.3 4.49305 0.378925 0
M  V30 18432 C 1787.96 4.81048 0.120945 0
M  V30 18433 C 1790.31 5.20526 -0.264985 0
M  V30 18434 C 1787.64 5.81373 -0.788846 0
M  V30 18435 C 1789.99 6.21821 -1.1628 0
M  V30 18436 C 1788.65 6.52009 -1.42972 0
M  V30 18437 H 1787.92 0.700985 0.240212 0
M  V30 18438 H 1790.57 1.91316 -0.0839711 0
M  V30 18439 H 1788.88 3.28766 2.13119 0
M  V30 18440 H 1790.57 3.55845 1.84866 0
M  V30 18441 H 1787.16 4.24517 0.590173 0
M  V30 18442 H 1791.35 4.96238 -0.0787258 0
M  V30 18443 H 1786.6 6.0311 -1.00341 0
M  V30 18444 H 1790.78 6.7613 -1.66796 0
M  V30 18445 H 1788.4 7.29564 -2.13636 0
M  V30 18446 N 1789.98 -0.249655 1.5561 0
M  V30 18447 C 1791.2 -0.999931 1.81703 0
M  V30 18448 C 1791.63 -1.7827 0.600113 0
M  V30 18449 O 1790.99 -1.75606 -0.450799 0
M  V30 18450 C 1791.04 -1.9157 3.05505 0
M  V30 18451 O 1790.14 -3.00702 2.82227 0
M  V30 18452 H 1789.48 -0.284673 0.599881 0
M  V30 18453 H 1792.01 -0.27148 2.02791 0
M  V30 18454 H 1792.02 -2.33088 3.34864 0
M  V30 18455 H 1790.7 -1.34014 3.93717 0
M  V30 18456 H 1789.27 -2.63332 2.64027 0
M  V30 18457 N 1791.46 -1.48941 -0.515198 0
M  V30 18458 C 1792.68 -1.61656 -1.29931 0
M  V30 18459 C 1793.11 -0.282529 -1.85966 0
M  V30 18460 O 1792.47 0.747914 -1.65154 0
M  V30 18461 C 1792.51 -2.6774 -2.41553 0
M  V30 18462 O 1791.62 -2.25926 -3.45009 0
M  V30 18463 H 1790.96 -0.541561 -0.384197 0
M  V30 18464 H 1793.49 -1.95032 -0.618349 0
M  V30 18465 H 1793.5 -2.89471 -2.87525 0
M  V30 18466 H 1792.17 -3.64582 -2.00131 0
M  V30 18467 H 1790.75 -2.14469 -3.05053 0
M  V30 18468 N 1792.94 0.765193 -1.37777 0
M  V30 18469 C 1794.18 1.52623 -1.33545 0
M  V30 18470 C 1794.51 1.94043 0.077992 0
M  V30 18471 O 1793.79 1.64566 1.03673 0
M  V30 18472 C 1794.07 2.78679 -2.28057 0
M  V30 18473 C 1793.93 2.43471 -3.78209 0
M  V30 18474 C 1795.24 3.80646 -2.20899 0
M  V30 18475 H 1792.36 0.553678 -0.486425 0
M  V30 18476 H 1795.01 0.877326 -1.68532 0
M  V30 18477 H 1793.16 3.3405 -1.9835 0
M  V30 18478 H 1794.83 1.93965 -4.1854 0
M  V30 18479 H 1793.07 1.76081 -3.96457 0
M  V30 18480 H 1793.74 3.33609 -4.39783 0
M  V30 18481 H 1796.22 3.34786 -2.47099 0
M  V30 18482 H 1795.09 4.6656 -2.89159 0
M  V30 18483 H 1795.35 4.25389 -1.20403 0
M  V30 18484 N 1794.41 1.22455 0.992094 0
M  V30 18485 C 1795.69 0.958091 1.70529 0
M  V30 18486 C 1796.07 -0.526595 2.04426 0
M  V30 18487 O 1795.42 -1.49483 1.72821 0
M  V30 18488 C 1795.63 1.85646 2.95528 0
M  V30 18489 C 1796.98 2.11301 3.68289 0
M  V30 18490 O 1798 1.831 3.05537 0
M  V30 18491 O 1796.86 2.59068 4.81192 0
M  V30 18492 H 1793.95 0.360375 0.744351 0
M  V30 18493 H 1796.5 1.33444 1.04837 0
M  V30 18494 H 1795.27 2.86067 2.66986 0
M  V30 18495 H 1794.89 1.48174 3.68958 0
M  V30 18496 N 1795.89 -1.18905 1.03437 0
M  V30 18497 C 1797.31 -1.4075 0.752444 0
M  V30 18498 C 1797.51 -1.90361 -0.660679 0
M  V30 18499 O 1796.56 -2.08389 -1.42584 0
M  V30 18500 C 1797.88 -2.4138 1.79321 0
M  V30 18501 C 1799.42 -2.55118 1.81339 0
M  V30 18502 C 1799.9 -3.59007 2.8439 0
M  V30 18503 N 1801.39 -3.66508 2.83242 0
M  V30 18504 C 1802.13 -4.46602 3.59631 0
M  V30 18505 N 1801.62 -5.30355 4.45753 0
M  V30 18506 N 1803.41 -4.41304 3.48148 0
M  V30 18507 H 1795.57 -0.850259 1.94639 0
M  V30 18508 H 1797.83 -0.435962 0.841808 0
M  V30 18509 H 1797.53 -2.11963 2.80651 0
M  V30 18510 H 1797.41 -3.40636 1.62008 0
M  V30 18511 H 1799.8 -2.83856 0.806847 0
M  V30 18512 H 1799.88 -1.55996 2.02728 0
M  V30 18513 H 1799.52 -3.31011 3.8522 0
M  V30 18514 H 1799.45 -4.57792 2.60258 0
M  V30 18515 H 1801.94 -3.06697 2.20784 0
M  V30 18516 H 1802.25 -5.88603 5.00766 0
M  V30 18517 H 1800.6 -5.29797 4.49823 0
M  V30 18518 H 1803.79 -3.74918 2.80275 0
M  V30 18519 H 1803.96 -5.03483 4.07932 0
M  V30 18520 N 1797.37 -0.812977 -1.35013 0
M  V30 18521 C 1798.3 -0.242397 -2.32238 0
M  V30 18522 C 1799.28 0.635676 -1.57776 0
M  V30 18523 O 1800.47 0.564621 -1.85811 0
M  V30 18524 C 1797.6 0.604686 -3.41995 0
M  V30 18525 C 1796.55 -0.17542 -4.2764 0
M  V30 18526 C 1795.88 0.793772 -5.28775 0
M  V30 18527 C 1797.18 -1.37802 -5.03794 0
M  V30 18528 H 1798.87 -1.0547 -2.80208 0
M  V30 18529 H 1796.42 -0.508619 -1.34718 0
M  V30 18530 H 1798.37 1.01396 -4.09019 0
M  V30 18531 H 1797.09 1.44994 -2.9265 0
M  V30 18532 H 1795.75 -0.565948 -3.62205 0
M  V30 18533 H 1795.4 1.63471 -4.75696 0
M  V30 18534 H 1795.1 0.276085 -5.86951 0
M  V30 18535 H 1796.62 1.20112 -5.9867 0
M  V30 18536 H 1798.04 -1.04328 -5.63727 0
M  V30 18537 H 1796.43 -1.83064 -5.71496 0
M  V30 18538 H 1797.5 -2.16138 -4.34065 0
M  V30 18539 N 1798.85 1.47045 -0.567045 0
M  V30 18540 C 1799.8 2.27158 0.195716 0
M  V30 18541 C 1800.78 1.34943 0.876307 0
M  V30 18542 O 1801.97 1.59229 0.772989 0
M  V30 18543 C 1799.1 3.20936 1.21882 0
M  V30 18544 C 1798.19 4.20633 0.54114 0
M  V30 18545 N 1798.58 5.0426 -0.394396 0
M  V30 18546 C 1796.88 4.38878 0.793847 0
M  V30 18547 C 1797.58 5.76324 -0.788986 0
M  V30 18548 N 1796.55 5.43416 -0.141613 0
M  V30 18549 H 1800.36 2.89201 -0.523432 0
M  V30 18550 H 1797.87 1.57705 -0.387691 0
M  V30 18551 H 1799.87 3.77023 1.77931 0
M  V30 18552 H 1798.53 2.60451 1.93895 0
M  V30 18553 H 1799.54 5.12158 -0.769095 0
M  V30 18554 H 1796.22 3.89556 1.50175 0
M  V30 18555 H 1797.61 6.5358 -1.55829 0
M  V30 18556 N 1800.33 0.304 1.5464 0
M  V30 18557 C 1801.55 -0.306916 2.04611 0
M  V30 18558 C 1801.97 -1.4729 1.18114 0
M  V30 18559 O 1801.33 -1.81317 0.20743 0
M  V30 18560 C 1801.38 -0.760263 3.53415 0
M  V30 18561 O 1801.1 0.359321 4.36624 0
M  V30 18562 C 1802.6 -1.43602 4.19396 0
M  V30 18563 H 1799.82 -0.066247 0.667722 0
M  V30 18564 H 1802.36 0.444504 1.99611 0
M  V30 18565 H 1800.52 -1.4617 3.58766 0
M  V30 18566 H 1800.93 0.00582275 5.245 0
M  V30 18567 H 1802.41 -1.70436 5.25029 0
M  V30 18568 H 1802.88 -2.37705 3.69314 0
M  V30 18569 H 1803.49 -0.777683 4.18129 0
M  V30 18570 N 1801.8 -1.57568 0.0317802 0
M  V30 18571 C 1803.03 -1.96212 -0.656401 0
M  V30 18572 C 1803.45 -0.908406 -1.6551 0
M  V30 18573 O 1802.8 0.109502 -1.82171 0
M  V30 18574 C 1802.85 -3.34924 -1.36044 0
M  V30 18575 O 1802.58 -4.36254 -0.401757 0
M  V30 18576 C 1804.08 -3.88215 -2.14019 0
M  V30 18577 H 1801.3 -0.646181 -0.180808 0
M  V30 18578 H 1803.84 -2.04291 0.0923341 0
M  V30 18579 H 1802 -3.28055 -2.06055 0
M  V30 18580 H 1802.41 -5.16686 -0.902005 0
M  V30 18581 H 1803.88 -4.87609 -2.5873 0
M  V30 18582 H 1804.36 -3.22602 -2.98034 0
M  V30 18583 H 1804.97 -3.98361 -1.4896 0
M  V30 18584 N 1803.28 0.241399 -1.5574 0
M  V30 18585 C 1804.51 0.99028 -1.82231 0
M  V30 18586 C 1804.93 1.77949 -0.609559 0
M  V30 18587 O 1804.29 1.75843 0.44148 0
M  V30 18588 C 1804.34 1.89947 -3.06516 0
M  V30 18589 O 1803.44 2.99201 -2.83818 0
M  V30 18590 H 1802.78 0.281488 -0.601382 0
M  V30 18591 H 1805.31 0.260721 -2.02932 0
M  V30 18592 H 1805.32 2.31308 -3.36096 0
M  V30 18593 H 1804 1.31924 -3.94422 0
M  V30 18594 H 1802.58 2.61929 -2.6542 0
M  V30 18595 N 1804.76 1.49212 0.507292 0
M  V30 18596 C 1805.72 1.64908 1.59179 0
M  V30 18597 C 1806.72 0.521176 1.5212 0
M  V30 18598 O 1807.91 0.787492 1.55384 0
M  V30 18599 C 1805.05 1.64057 2.98828 0
M  V30 18600 H 1806.24 2.6163 1.46593 0
M  V30 18601 H 1803.79 1.38149 0.731062 0
M  V30 18602 H 1804.53 0.688956 3.16897 0
M  V30 18603 H 1804.31 2.45963 3.0536 0
M  V30 18604 H 1805.8 1.78279 3.77633 0
M  V30 18605 N 1806.24 -0.757876 1.38181 0
M  V30 18606 C 1807.49 -1.51688 1.34153 0
M  V30 18607 C 1807.81 -1.94375 -0.0697487 0
M  V30 18608 O 1807.07 -1.65404 -1.04594 0
M  V30 18609 C 1807.37 -2.78548 2.23933 0
M  V30 18610 C 1807.03 -2.54845 3.71975 0
M  V30 18611 C 1805.7 -2.48089 4.12317 0
M  V30 18612 C 1808.05 -2.34027 4.65704 0
M  V30 18613 C 1805.38 -2.18526 5.44485 0
M  V30 18614 C 1807.73 -2.05986 5.98124 0
M  V30 18615 C 1806.39 -1.97683 6.37556 0
M  V30 18616 H 1805.66 -0.555064 0.490902 0
M  V30 18617 H 1808.31 -0.871823 1.70504 0
M  V30 18618 H 1806.61 -3.47682 1.80623 0
M  V30 18619 H 1808.31 -3.36487 2.18122 0
M  V30 18620 H 1804.9 -2.60972 3.39988 0
M  V30 18621 H 1809.08 -2.38228 4.35386 0
M  V30 18622 H 1804.34 -2.10603 5.73983 0
M  V30 18623 H 1808.51 -1.8888 6.70296 0
M  V30 18624 H 1806.14 -1.7454 7.39892 0
M  V30 18625 N 1807.72 -1.22979 -0.985586 0
M  V30 18626 C 1808.66 -1.00637 -2.07704 0
M  V30 18627 C 1809.63 0.0744076 -1.65933 0
M  V30 18628 O 1810.82 -0.0766583 -1.90646 0
M  V30 18629 C 1807.96 -0.598088 -3.39878 0
M  V30 18630 C 1807.07 -1.75043 -3.94948 0
M  V30 18631 C 1806.21 -1.28943 -5.15313 0
M  V30 18632 C 1805.25 -2.41285 -5.62537 0
M  V30 18633 N 1804.38 -1.9618 -6.74135 0
M  V30 18634 H 1809.22 -1.94063 -2.26149 0
M  V30 18635 H 1806.76 -0.966841 -1.10863 0
M  V30 18636 H 1808.72 -0.342503 -4.15792 0
M  V30 18637 H 1807.35 0.299167 -3.21411 0
M  V30 18638 H 1806.4 -2.12015 -3.15838 0
M  V30 18639 H 1807.71 -2.5952 -4.25971 0
M  V30 18640 H 1806.87 -0.99166 -5.98541 0
M  V30 18641 H 1805.6 -0.41496 -4.85931 0
M  V30 18642 H 1804.61 -2.71842 -4.77893 0
M  V30 18643 H 1805.83 -3.2926 -5.9394 0
M  V30 18644 H 1803.78 -1.11105 -6.46523 0
M  V30 18645 H 1803.7 -2.74219 -7.04514 0
M  V30 18646 H 1804.97 -1.69492 -7.6085 0
M  V30 18647 N 1809.19 1.18355 -1.04066 0
M  V30 18648 C 1810.61 1.69995 -0.771919 0
M  V30 18649 C 1810.96 1.83011 0.707213 0
M  V30 18650 O 1810.08 1.5096 1.55048 0
M  V30 18651 C 1810.68 3.08765 -1.39461 0
M  V30 18652 C 1809.24 3.57617 -1.17418 0
M  V30 18653 C 1808.38 2.34168 -1.48528 0
M  V30 18654 H 1811.33 1.0303 -1.20708 0
M  V30 18655 H 1811.35 3.72042 -0.79782 0
M  V30 18656 H 1810.87 2.9926 -2.47113 0
M  V30 18657 H 1808.97 3.72418 -0.116398 0
M  V30 18658 H 1809.08 4.41048 -1.87119 0
M  V30 18659 H 1807.44 2.38081 -0.904972 0
M  V30 18660 H 1808.23 2.27282 -2.57289 0
M  V30 18661 N 1810.67 0.820125 1.3458 0
M  V30 18662 C 1811.9 0.418747 2.03129 0
M  V30 18663 C 1812.32 -0.966605 1.61364 0
M  V30 18664 O 1811.68 -1.62847 0.796903 0
M  V30 18665 C 1811.73 0.525681 3.56748 0
M  V30 18666 O 1810.83 -0.455592 4.09876 0
M  V30 18667 H 1810.17 0.172819 0.641116 0
M  V30 18668 H 1812.7 1.10977 1.71888 0
M  V30 18669 H 1812.71 0.400422 4.0603 0
M  V30 18670 H 1811.39 1.53609 3.86493 0
M  V30 18671 H 1809.97 -0.289449 3.71775 0
M  V30 18672 N 1812.15 -1.46743 0.574835 0
M  V30 18673 C 1813.38 -2.07311 0.0608779 0
M  V30 18674 C 1813.8 -1.422 -1.23129 0
M  V30 18675 O 1813.16 -0.503042 -1.74181 0
M  V30 18676 C 1813.21 -3.60462 -0.0996676 0
M  V30 18677 O 1812.31 -3.95806 -1.15808 0
M  V30 18678 H 1811.65 -0.661351 0.0592542 0
M  V30 18679 H 1814.18 -1.885 0.795538 0
M  V30 18680 H 1814.19 -4.06833 -0.308329 0
M  V30 18681 H 1812.87 -4.07246 0.844018 0
M  V30 18682 H 1811.44 -3.61155 -0.928504 0
M  V30 18683 N 1813.63 -0.312197 -1.54477 0
M  V30 18684 C 1814.59 0.54612 -2.22599 0
M  V30 18685 C 1815.59 1.05252 -1.21568 0
M  V30 18686 O 1816.78 0.946756 -1.46226 0
M  V30 18687 C 1813.91 1.75733 -2.92114 0
M  V30 18688 H 1815.11 -0.0492216 -2.9986 0
M  V30 18689 H 1812.66 -0.063149 -1.56172 0
M  V30 18690 H 1813.39 2.39221 -2.18961 0
M  V30 18691 H 1813.18 1.40175 -3.66188 0
M  V30 18692 H 1814.67 2.36685 -3.44049 0
M  V30 18693 N 1815.11 1.57549 -0.040136 0
M  V30 18694 C 1816.36 1.91427 0.635496 0
M  V30 18695 C 1816.67 0.919277 1.72652 0
M  V30 18696 O 1817.87 1.14971 2.45955 0
M  V30 18697 C 1816.33 3.39949 1.18164 0
M  V30 18698 C 1815.94 4.4783 0.12332 0
M  V30 18699 C 1817.68 3.82878 1.83315 0
M  V30 18700 C 1815.59 5.87458 0.681727 0
M  V30 18701 H 1814.52 0.714401 0.241138 0
M  V30 18702 H 1817.17 1.83186 -0.107231 0
M  V30 18703 H 1815.55 3.43157 1.97633 0
M  V30 18704 H 1816.73 4.56197 -0.64972 0
M  V30 18705 H 1815.04 4.14173 -0.43008 0
M  V30 18706 H 1817.64 4.84558 2.2607 0
M  V30 18707 H 1817.98 3.1853 2.68038 0
M  V30 18708 H 1818.51 3.82139 1.10519 0
M  V30 18709 H 1815.25 6.55376 -0.127616 0
M  V30 18710 H 1814.77 5.82675 1.423 0
M  V30 18711 H 1816.45 6.36369 1.16806 0
M  V30 18712 N 1816.58 -0.233136 1.55866 0
M  V30 18713 C 1817.81 -0.976415 1.82411 0
M  V30 18714 C 1818.23 -1.78409 0.617724 0
M  V30 18715 O 1817.58 -1.77749 -0.413709 0
M  V30 18716 C 1817.64 -1.90328 3.07339 0
M  V30 18717 O 1817.36 -1.12828 4.23322 0
M  V30 18718 C 1818.86 -2.76142 3.46786 0
M  V30 18719 H 1816.08 -0.2867 0.606666 0
M  V30 18720 H 1818.62 -0.251863 2.02943 0
M  V30 18721 H 1816.78 -2.58193 2.88816 0
M  V30 18722 H 1817.19 -1.75643 4.94216 0
M  V30 18723 H 1818.66 -3.36901 4.37266 0
M  V30 18724 H 1819.14 -3.47953 2.68003 0
M  V30 18725 H 1819.75 -2.13708 3.67708 0
M  V30 18726 N 1818.06 -1.49479 -0.499372 0
M  V30 18727 C 1819.01 -1.66268 -1.60073 0
M  V30 18728 C 1819.98 -0.504137 -1.58265 0
M  V30 18729 O 1821.17 -0.731358 -1.76227 0
M  V30 18730 C 1818.31 -1.73678 -2.98211 0
M  V30 18731 C 1817.42 -3.00848 -3.10023 0
M  V30 18732 C 1816.55 -2.99227 -4.38904 0
M  V30 18733 C 1815.59 -4.20969 -4.44355 0
M  V30 18734 N 1814.73 -4.17249 -5.64666 0
M  V30 18735 H 1819.57 -2.60308 -1.45065 0
M  V30 18736 H 1817.11 -1.29063 -0.705774 0
M  V30 18737 H 1819.06 -1.75956 -3.7828 0
M  V30 18738 H 1817.69 -0.831037 -3.11919 0
M  V30 18739 H 1816.75 -3.08175 -2.23008 0
M  V30 18740 H 1818.06 -3.90841 -3.09911 0
M  V30 18741 H 1817.21 -3.00076 -5.27294 0
M  V30 18742 H 1815.95 -2.07015 -4.41584 0
M  V30 18743 H 1814.96 -4.20362 -3.54366 0
M  V30 18744 H 1816.18 -5.14376 -4.4339 0
M  V30 18745 H 1814.13 -3.27875 -5.68185 0
M  V30 18746 H 1814.04 -5.00979 -5.66177 0
M  V30 18747 H 1815.31 -4.22203 -6.55259 0
M  V30 18748 N 1819.54 0.750537 -1.38581 0
M  V30 18749 C 1820.49 1.86434 -1.36056 0
M  V30 18750 C 1821.46 1.64601 -0.222625 0
M  V30 18751 O 1822.64 1.86225 -0.41533 0
M  V30 18752 C 1819.78 3.23769 -1.19447 0
M  V30 18753 C 1818.9 3.57412 -2.42653 0
M  V30 18754 C 1818.03 4.84067 -2.18751 0
M  V30 18755 C 1817.07 5.10506 -3.37713 0
M  V30 18756 N 1816.21 6.28358 -3.13227 0
M  V30 18757 H 1821.05 1.87927 -2.31274 0
M  V30 18758 H 1818.58 0.91849 -1.14901 0
M  V30 18759 H 1820.54 4.03024 -1.07832 0
M  V30 18760 H 1819.17 3.21595 -0.278665 0
M  V30 18761 H 1818.22 2.72978 -2.64929 0
M  V30 18762 H 1819.54 3.72876 -3.31307 0
M  V30 18763 H 1818.69 5.71271 -2.0429 0
M  V30 18764 H 1817.43 4.70748 -1.27467 0
M  V30 18765 H 1816.43 4.2177 -3.5269 0
M  V30 18766 H 1817.66 5.25721 -4.29877 0
M  V30 18767 H 1815.61 6.16355 -2.24593 0
M  V30 18768 H 1815.52 6.44337 -3.95432 0
M  V30 18769 H 1816.79 7.18441 -3.02428 0
M  V30 18770 N 1821.02 1.235 0.979051 0
M  V30 18771 C 1822.43 1.06263 1.53509 0
M  V30 18772 C 1822.78 -0.369594 1.92687 0
M  V30 18773 O 1821.91 -1.25649 1.76185 0
M  V30 18774 C 1822.5 1.92276 2.78954 0
M  V30 18775 C 1821.06 1.79296 3.30953 0
M  V30 18776 C 1820.21 1.87898 2.03935 0
M  V30 18777 H 1823.16 1.37143 0.798588 0
M  V30 18778 H 1823.18 1.44835 3.51857 0
M  V30 18779 H 1822.69 2.96509 2.50408 0
M  V30 18780 H 1820.79 0.778512 3.64376 0
M  V30 18781 H 1820.91 2.62755 4.0062 0
M  V30 18782 H 1819.27 1.31494 2.18131 0
M  V30 18783 H 1820.05 2.93689 1.77769 0
M  V30 18784 N 1822.5 -1.17802 1.04693 0
M  V30 18785 C 1823.91 -1.69583 0.780923 0
M  V30 18786 C 1824.26 -1.83383 -0.697497 0
M  V30 18787 O 1823.38 -1.51781 -1.54245 0
M  V30 18788 C 1823.98 -3.08021 1.41097 0
M  V30 18789 C 1822.54 -3.56989 1.19313 0
M  V30 18790 C 1821.69 -2.33377 1.49768 0
M  V30 18791 H 1824.64 -1.02389 1.21253 0
M  V30 18792 H 1824.66 -3.71613 0.817539 0
M  V30 18793 H 1824.17 -2.97945 2.48697 0
M  V30 18794 H 1822.27 -3.72351 0.136146 0
M  V30 18795 H 1822.38 -4.40049 1.89456 0
M  V30 18796 H 1820.75 -2.37597 0.917585 0
M  V30 18797 H 1821.53 -2.25914 2.58491 0
M  V30 18798 N 1823.98 -0.827251 -1.34143 0
M  V30 18799 C 1824.91 -0.267015 -2.31968 0
M  V30 18800 C 1825.89 0.618906 -1.58441 0
M  V30 18801 O 1827.07 0.544882 -1.86399 0
M  V30 18802 C 1824.2 0.568379 -3.42617 0
M  V30 18803 C 1823.16 -0.220767 -4.2743 0
M  V30 18804 C 1822.48 0.737643 -5.29587 0
M  V30 18805 C 1823.78 -1.43137 -5.02304 0
M  V30 18806 H 1825.48 -1.08436 -2.79073 0
M  V30 18807 H 1823.02 -0.522879 -1.34171 0
M  V30 18808 H 1824.97 0.970525 -4.10072 0
M  V30 18809 H 1823.7 1.41882 -2.94172 0
M  V30 18810 H 1822.36 -0.604333 -3.61585 0
M  V30 18811 H 1822.01 1.58416 -4.77403 0
M  V30 18812 H 1821.71 0.213815 -5.87211 0
M  V30 18813 H 1823.23 1.13755 -5.9991 0
M  V30 18814 H 1824.64 -1.10301 -5.62589 0
M  V30 18815 H 1823.04 -1.89115 -5.69522 0
M  V30 18816 H 1824.11 -2.2073 -4.31748 0
M  V30 18817 N 1825.45 1.46436 -0.582609 0
M  V30 18818 C 1826.7 2.01592 -0.0658642 0
M  V30 18819 C 1827.02 1.45972 1.30198 0
M  V30 18820 O 1828.22 1.92948 1.91006 0
M  V30 18821 C 1826.68 3.59837 -0.0671547 0
M  V30 18822 C 1826.29 4.24453 -1.43331 0
M  V30 18823 C 1828.03 4.22652 0.395652 0
M  V30 18824 C 1825.94 5.74777 -1.39233 0
M  V30 18825 H 1824.87 0.753712 -0.0208533 0
M  V30 18826 H 1827.52 1.6817 -0.734241 0
M  V30 18827 H 1825.9 3.90336 0.667385 0
M  V30 18828 H 1827.07 4.05564 -2.18757 0
M  V30 18829 H 1825.39 3.73732 -1.83613 0
M  V30 18830 H 1827.99 5.32844 0.445101 0
M  V30 18831 H 1828.33 3.91581 1.41316 0
M  V30 18832 H 1828.86 3.96779 -0.284821 0
M  V30 18833 H 1825.6 6.10508 -2.38664 0
M  V30 18834 H 1825.12 5.9593 -0.680268 0
M  V30 18835 H 1826.8 6.37491 -1.1052 0
M  V30 18836 N 1826.93 0.320385 1.54309 0
M  V30 18837 C 1828.21 -0.337248 1.92671 0
M  V30 18838 C 1828.59 -1.70137 1.24967 0
M  V30 18839 O 1827.94 -2.25108 0.39224 0
M  V30 18840 C 1828.15 -0.432633 3.46308 0
M  V30 18841 C 1829.49 -0.694413 4.18883 0
M  V30 18842 O 1830.52 -0.515681 3.52447 0
M  V30 18843 O 1829.38 -1.039 5.36532 0
M  V30 18844 H 1826.47 -0.191985 0.804407 0
M  V30 18845 H 1829.02 0.369866 1.6562 0
M  V30 18846 H 1827.79 0.525553 3.87755 0
M  V30 18847 H 1827.41 -1.18745 3.79454 0
M  V30 18848 N 1828.41 -1.57525 0.0484906 0
M  V30 18849 C 1829.83 -1.56599 -0.308041 0
M  V30 18850 C 1830.03 -1.05591 -1.71618 0
M  V30 18851 O 1829.08 -0.711302 -2.42274 0
M  V30 18852 C 1830.39 -3.00379 -0.138955 0
M  V30 18853 C 1831.94 -3.12293 -0.210262 0
M  V30 18854 C 1832.42 -4.57947 -0.0697369 0
M  V30 18855 N 1833.91 -4.63028 -0.1261 0
M  V30 18856 C 1834.64 -5.73385 -0.0414392 0
M  V30 18857 N 1834.14 -6.92734 0.0954164 0
M  V30 18858 N 1835.93 -5.62017 -0.0968281 0
M  V30 18859 H 1828.08 -1.89005 0.969069 0
M  V30 18860 H 1830.35 -0.87027 0.375944 0
M  V30 18861 H 1830.05 -3.41722 0.831808 0
M  V30 18862 H 1829.93 -3.66278 -0.901109 0
M  V30 18863 H 1832.31 -2.7085 -1.1715 0
M  V30 18864 H 1832.39 -2.49077 0.582601 0
M  V30 18865 H 1832.04 -5.00074 0.888161 0
M  V30 18866 H 1831.97 -5.19166 -0.881711 0
M  V30 18867 H 1834.46 -3.77192 -0.231232 0
M  V30 18868 H 1834.77 -7.72649 0.152796 0
M  V30 18869 H 1833.12 -6.94878 0.130465 0
M  V30 18870 H 1836.31 -4.67663 -0.202283 0
M  V30 18871 H 1836.48 -6.47994 -0.0273908 0
M  V30 18872 N 1829.89 0.224867 -1.55988 0
M  V30 18873 C 1830.8 1.2997 -1.95307 0
M  V30 18874 C 1831.81 1.51463 -0.856444 0
M  V30 18875 O 1832.99 1.64658 -1.15973 0
M  V30 18876 C 1830.05 2.63009 -2.25892 0
M  V30 18877 C 1829.12 2.49847 -3.49106 0
M  V30 18878 C 1828.35 3.76541 -3.78223 0
M  V30 18879 O 1828.57 4.7941 -3.09066 0
M  V30 18880 O 1827.51 3.73852 -4.71718 0
M  V30 18881 H 1831.33 0.996093 -2.869 0
M  V30 18882 H 1828.92 0.427457 -1.43154 0
M  V30 18883 H 1830.8 3.41586 -2.46774 0
M  V30 18884 H 1829.47 2.93057 -1.37474 0
M  V30 18885 H 1828.38 1.69482 -3.33507 0
M  V30 18886 H 1829.71 2.24739 -4.37896 0
M  V30 18887 N 1831.37 1.49742 0.491438 0
M  V30 18888 C 1832.78 1.52802 1.07278 0
M  V30 18889 C 1833.13 0.319712 1.93578 0
M  V30 18890 O 1832.25 -0.569524 2.08771 0
M  V30 18891 C 1832.85 2.76896 1.95228 0
M  V30 18892 C 1831.41 2.82703 2.48508 0
M  V30 18893 C 1830.55 2.4684 1.26355 0
M  V30 18894 H 1833.5 1.56301 0.274925 0
M  V30 18895 H 1833.53 2.57599 2.80041 0
M  V30 18896 H 1833.04 3.64821 1.32391 0
M  V30 18897 H 1831.14 1.99081 3.14956 0
M  V30 18898 H 1831.25 3.85108 2.85006 0
M  V30 18899 H 1829.62 1.98828 1.59184 0
M  V30 18900 H 1830.4 3.3705 0.652109 0
M  V30 18901 N 1832.84 -0.743177 1.38977 0
M  V30 18902 C 1834.09 -1.49959 1.35486 0
M  V30 18903 C 1834.41 -1.94933 -0.0512044 0
M  V30 18904 O 1833.68 -1.684 -1.0009 0
M  V30 18905 H 1832.26 -0.556277 0.498562 0
M  V30 18906 H 1834.93 -0.882776 1.73762 0
M  V30 18907 H 1834.02 -2.38559 2.01237 0
M  V30 18908 N 1834.32 -1.24018 -0.972487 0
M  V30 18909 C 1835.23 -1.04527 -2.10027 0
M  V30 18910 C 1836.25 0.0125372 -1.73995 0
M  V30 18911 O 1837.42 -0.184615 -2.00552 0
M  V30 18912 C 1834.49 -0.647264 -3.40604 0
M  V30 18913 C 1833.55 -1.78102 -3.90613 0
M  V30 18914 C 1832.78 -1.4019 -5.14959 0
M  V30 18915 O 1833.01 -0.289608 -5.69664 0
M  V30 18916 O 1831.94 -2.22583 -5.59232 0
M  V30 18917 H 1835.77 -1.99064 -2.29363 0
M  V30 18918 H 1833.35 -1.02794 -1.08414 0
M  V30 18919 H 1835.23 -0.436606 -4.19132 0
M  V30 18920 H 1833.91 0.269025 -3.2258 0
M  V30 18921 H 1832.82 -2.04638 -3.13168 0
M  V30 18922 H 1834.15 -2.67591 -4.13105 0
M  V30 18923 N 1835.8 1.17245 -1.05316 0
M  V30 18924 C 1836.71 2.24948 -0.666011 0
M  V30 18925 C 1837.73 1.71153 0.313478 0
M  V30 18926 O 1838.9 2.00721 0.165262 0
M  V30 18927 C 1835.97 3.46667 -0.0480198 0
M  V30 18928 C 1835.03 4.15542 -1.07812 0
M  V30 18929 C 1834.26 5.3145 -0.48952 0
M  V30 18930 O 1834.48 5.6608 0.700668 0
M  V30 18931 O 1833.42 5.89315 -1.22439 0
M  V30 18932 H 1837.24 2.60353 -1.56365 0
M  V30 18933 H 1834.83 1.24569 -0.8248 0
M  V30 18934 H 1836.71 4.20364 0.295366 0
M  V30 18935 H 1835.39 3.13056 0.823248 0
M  V30 18936 H 1834.29 3.43858 -1.47351 0
M  V30 18937 H 1835.63 4.53183 -1.92057 0
M  V30 18938 N 1837.28 0.834353 1.33702 0
M  V30 18939 C 1838.51 0.441228 2.02141 0
M  V30 18940 C 1838.92 -0.956226 1.62794 0
M  V30 18941 O 1838.28 -1.6207 0.839027 0
M  V30 18942 C 1838.33 0.547035 3.57337 0
M  V30 18943 O 1838.05 1.88942 3.95262 0
M  V30 18944 C 1839.55 0.150282 4.43045 0
M  V30 18945 H 1836.77 0.175681 0.647593 0
M  V30 18946 H 1839.32 1.12568 1.7073 0
M  V30 18947 H 1837.47 -0.0894532 3.87297 0
M  V30 18948 H 1837.88 1.87174 4.89965 0
M  V30 18949 H 1839.36 0.275374 5.51313 0
M  V30 18950 H 1839.84 -0.907361 4.29725 0
M  V30 18951 H 1840.44 0.761025 4.18436 0
M  V30 18952 N 1838.76 -1.46125 0.590367 0
M  V30 18953 C 1839.98 -2.06726 0.0847301 0
M  V30 18954 C 1840.4 -1.43788 -1.22354 0
M  V30 18955 O 1839.76 -0.545876 -1.74145 0
M  V30 18956 C 1839.81 -3.61412 -0.079655 0
M  V30 18957 O 1839.53 -4.21998 1.17684 0
M  V30 18958 C 1841.03 -4.38961 -0.618754 0
M  V30 18959 H 1838.25 -0.668226 0.0609525 0
M  V30 18960 H 1840.79 -1.87636 0.813212 0
M  V30 18961 H 1838.95 -3.79904 -0.758389 0
M  V30 18962 H 1839.36 -5.14966 0.995528 0
M  V30 18963 H 1840.84 -5.47759 -0.682926 0
M  V30 18964 H 1841.31 -4.07537 -1.63739 0
M  V30 18965 H 1841.92 -4.25292 0.0253632 0
M  V30 18966 N 1840.23 -0.328564 -1.54137 0
M  V30 18967 C 1841.46 0.277044 -2.05541 0
M  V30 18968 C 1841.88 1.44613 -1.20285 0
M  V30 18969 O 1841.24 1.80043 -0.213107 0
M  V30 18970 C 1841.29 0.684495 -3.54044 0
M  V30 18971 O 1840.39 1.78629 -3.71706 0
M  V30 18972 H 1839.74 0.049078 -0.662184 0
M  V30 18973 H 1842.27 -0.478426 -1.98928 0
M  V30 18974 H 1842.28 0.965784 -3.96405 0
M  V30 18975 H 1840.95 -0.170554 -4.1555 0
M  V30 18976 H 1839.53 1.50343 -3.4125 0
M  V30 18977 N 1841.71 1.57497 -0.0568439 0
M  V30 18978 C 1842.99 1.84277 0.655847 0
M  V30 18979 C 1843.37 0.94638 1.88698 0
M  V30 18980 O 1842.72 0.00884889 2.28498 0
M  V30 18981 C 1842.93 3.34134 1.00775 0
M  V30 18982 C 1844.28 4.01286 1.38763 0
M  V30 18983 O 1845.3 3.38792 1.09992 0
M  V30 18984 O 1844.16 5.11482 1.92479 0
M  V30 18985 H 1841.25 0.760773 0.324275 0
M  V30 18986 H 1843.8 1.69479 -0.0866388 0
M  V30 18987 H 1842.57 3.91075 0.132718 0
M  V30 18988 H 1842.19 3.5414 1.80749 0
M  V30 18989 N 1843.19 -0.216591 1.56105 0
M  V30 18990 C 1844.12 -1.29579 1.87842 0
M  V30 18991 C 1845.1 -1.44974 0.73629 0
M  V30 18992 O 1846.29 -1.60708 0.985151 0
M  V30 18993 C 1843.41 -2.66544 2.08979 0
M  V30 18994 C 1842.46 -2.68136 3.3167 0
M  V30 18995 S 1843.29 -2.21708 4.87448 0
M  V30 18996 C 1844.45 -3.60539 5.11627 0
M  V30 18997 H 1844.68 -1.02465 2.79085 0
M  V30 18998 H 1842.21 -0.419071 1.48604 0
M  V30 18999 H 1844.17 -3.45394 2.2184 0
M  V30 19000 H 1842.83 -2.90879 1.18524 0
M  V30 19001 H 1842.03 -3.68796 3.4352 0
M  V30 19002 H 1841.63 -1.97352 3.17692 0
M  V30 19003 H 1843.92 -4.56263 5.0083 0
M  V30 19004 H 1844.86 -3.53601 6.13491 0
M  V30 19005 H 1845.27 -3.54456 4.39342 0
M  V30 19006 N 1844.67 -1.5 -0.48349 0
M  V30 19007 C 1845.91 -1.60606 -1.23829 0
M  V30 19008 C 1846.25 -0.299778 -1.91872 0
M  V30 19009 O 1845.52 0.697925 -1.81547 0
M  V30 19010 C 1845.81 -2.77769 -2.29165 0
M  V30 19011 C 1845.66 -4.18243 -1.65507 0
M  V30 19012 C 1846.98 -2.90521 -3.30584 0
M  V30 19013 H 1844.1 -0.584561 -0.44884 0
M  V30 19014 H 1846.74 -1.82346 -0.533855 0
M  V30 19015 H 1844.89 -2.59364 -2.89245 0
M  V30 19016 H 1846.56 -4.48208 -1.09119 0
M  V30 19017 H 1844.8 -4.23077 -0.958577 0
M  V30 19018 H 1845.47 -4.96128 -2.41994 0
M  V30 19019 H 1847.95 -3.0733 -2.80513 0
M  V30 19020 H 1846.83 -3.74146 -4.0163 0
M  V30 19021 H 1847.09 -2.00609 -3.93965 0
M  V30 19022 N 1846.15 0.735796 -1.39369 0
M  V30 19023 C 1847.4 1.49079 -1.35861 0
M  V30 19024 C 1847.71 1.95553 0.0429472 0
M  V30 19025 O 1848.91 2.70758 0.200614 0
M  V30 19026 C 1847.37 2.69375 -2.38674 0
M  V30 19027 C 1846.98 2.29854 -3.8454 0
M  V30 19028 C 1848.72 3.47199 -2.44239 0
M  V30 19029 C 1846.63 3.46868 -4.78996 0
M  V30 19030 H 1845.56 0.559825 -0.505086 0
M  V30 19031 H 1848.21 0.80271 -1.65012 0
M  V30 19032 H 1846.59 3.40253 -2.02592 0
M  V30 19033 H 1847.77 1.66527 -4.29657 0
M  V30 19034 H 1846.08 1.65123 -3.82261 0
M  V30 19035 H 1848.68 4.34234 -3.12002 0
M  V30 19036 H 1849.02 3.89608 -1.46668 0
M  V30 19037 H 1849.55 2.83349 -2.7921 0
M  V30 19038 H 1846.29 3.0951 -5.77827 0
M  V30 19039 H 1845.81 4.09178 -4.38558 0
M  V30 19040 H 1847.49 4.13213 -4.9786 0
M  V30 19041 N 1847.63 1.24532 0.965897 0
M  V30 19042 C 1848.87 1.0801 1.70343 0
M  V30 19043 C 1849.19 -0.380738 1.91859 0
M  V30 19044 O 1850.39 -0.666181 2.632 0
M  V30 19045 C 1848.85 1.88452 3.06617 0
M  V30 19046 C 1848.46 3.38957 2.92937 0
M  V30 19047 C 1850.2 1.80465 3.8423 0
M  V30 19048 C 1848.11 4.11736 4.24532 0
M  V30 19049 H 1847.04 0.400577 0.638791 0
M  V30 19050 H 1849.69 1.48629 1.07618 0
M  V30 19051 H 1848.07 1.40648 3.70181 0
M  V30 19052 H 1849.25 3.94353 2.38374 0
M  V30 19053 H 1847.56 3.47915 2.28788 0
M  V30 19054 H 1850.16 2.32142 4.81679 0
M  V30 19055 H 1850.5 0.770262 4.09112 0
M  V30 19056 H 1851.03 2.25958 3.27395 0
M  V30 19057 H 1847.77 5.15541 4.04842 0
M  V30 19058 H 1847.29 3.61125 4.78904 0
M  V30 19059 H 1848.97 4.18833 4.93141 0
M  V30 19060 N 1849.1 -1.16685 1.05936 0
M  V30 19061 C 1850.35 -1.86758 0.772386 0
M  V30 19062 C 1850.67 -1.81885 -0.703051 0
M  V30 19063 O 1849.94 -1.24992 -1.50844 0
M  V30 19064 H 1848.52 -0.69143 0.282725 0
M  V30 19065 H 1851.18 -1.41518 1.3401 0
M  V30 19066 H 1850.28 -2.92296 1.09405 0
M  V30 19067 N 1850.58 -0.841432 -1.33258 0
M  V30 19068 C 1851.49 -0.279006 -2.32935 0
M  V30 19069 C 1852.51 0.596298 -1.63463 0
M  V30 19070 O 1853.68 0.499812 -1.951 0
M  V30 19071 C 1850.75 0.534514 -3.42555 0
M  V30 19072 C 1849.81 -0.365366 -4.27742 0
M  V30 19073 C 1849.04 0.409423 -5.32127 0
M  V30 19074 O 1849.27 1.64085 -5.4629 0
M  V30 19075 O 1848.2 -0.217904 -6.01505 0
M  V30 19076 H 1852.03 -1.10448 -2.82904 0
M  V30 19077 H 1849.61 -0.60402 -1.36645 0
M  V30 19078 H 1851.49 0.996723 -4.09443 0
M  V30 19079 H 1850.17 1.33701 -2.94798 0
M  V30 19080 H 1849.07 -0.875469 -3.63712 0
M  V30 19081 H 1850.41 -1.1327 -4.78989 0
M  V30 19082 N 1852.06 1.4581 -0.598108 0
M  V30 19083 C 1853.28 2.07188 -0.0938515 0
M  V30 19084 C 1853.71 1.44141 1.20851 0
M  V30 19085 O 1853.07 0.530689 1.73359 0
M  V30 19086 C 1853.12 3.60575 0.0423086 0
M  V30 19087 O 1852.22 3.97598 1.09496 0
M  V30 19088 H 1851.56 0.660324 -0.0697682 0
M  V30 19089 H 1854.09 1.87211 -0.825426 0
M  V30 19090 H 1854.1 4.07272 0.243566 0
M  V30 19091 H 1852.78 4.05852 -0.9087 0
M  V30 19092 H 1851.35 3.62587 0.87093 0
M  V30 19093 N 1853.54 0.336733 1.53961 0
M  V30 19094 C 1854.77 -0.263446 2.05216 0
M  V30 19095 C 1855.18 -1.44752 1.21212 0
M  V30 19096 O 1854.54 -1.80837 0.245844 0
M  V30 19097 C 1854.59 -0.685127 3.54948 0
M  V30 19098 O 1854.31 0.451854 4.35764 0
M  V30 19099 C 1855.81 -1.34674 4.22348 0
M  V30 19100 H 1853.03 -0.0520687 0.668977 0
M  V30 19101 H 1855.57 0.486744 1.98623 0
M  V30 19102 H 1853.73 -1.38527 3.61786 0
M  V30 19103 H 1854.14 0.117076 5.24369 0
M  V30 19104 H 1855.62 -1.59261 5.28526 0
M  V30 19105 H 1856.09 -2.29818 3.74273 0
M  V30 19106 H 1856.7 -0.688817 4.19685 0
M  V30 19107 N 1855.02 -1.57465 0.0651956 0
M  V30 19108 C 1856.24 -1.97975 -0.618099 0
M  V30 19109 C 1856.67 -0.943068 -1.62751 0
M  V30 19110 O 1856.02 0.0921045 -1.81066 0
M  V30 19111 C 1856.07 -3.37533 -1.26902 0
M  V30 19112 O 1855.18 -3.36451 -2.38483 0
M  V30 19113 H 1854.52 -0.644553 -0.159524 0
M  V30 19114 H 1857.05 -2.04136 0.137754 0
M  V30 19115 H 1857.06 -3.74571 -1.61742 0
M  V30 19116 H 1855.73 -4.12518 -0.529334 0
M  V30 19117 H 1854.31 -3.11175 -2.05486 0
M  V30 19118 N 1856.49 0.20831 -1.56217 0
M  V30 19119 C 1857.44 1.26199 -1.89889 0
M  V30 19120 C 1858.43 1.41646 -0.763239 0
M  V30 19121 O 1859.62 1.44238 -1.02588 0
M  V30 19122 C 1856.75 2.60964 -2.23053 0
M  V30 19123 C 1855.83 2.49364 -3.43043 0
M  V30 19124 N 1856.23 2.07429 -4.6131 0
M  V30 19125 C 1854.52 2.80291 -3.4692 0
M  V30 19126 C 1855.22 2.07401 -5.4347 0
M  V30 19127 N 1854.2 2.48398 -4.83528 0
M  V30 19128 H 1858 0.928874 -2.78835 0
M  V30 19129 H 1855.52 0.416815 -1.5696 0
M  V30 19130 H 1857.51 3.37055 -2.45356 0
M  V30 19131 H 1856.17 2.9511 -1.35426 0
M  V30 19132 H 1857.18 1.78348 -4.86223 0
M  V30 19133 H 1853.86 3.1872 -2.69673 0
M  V30 19134 H 1855.25 1.76991 -6.4817 0
M  V30 19135 N 1857.97 1.50255 0.475528 0
M  V30 19136 C 1859.22 1.61261 1.22975 0
M  V30 19137 C 1859.55 0.309949 1.91711 0
M  V30 19138 O 1858.83 -0.688288 1.81914 0
M  V30 19139 C 1859.11 2.7898 2.27688 0
M  V30 19140 C 1858.96 4.19115 1.63287 0
M  V30 19141 C 1860.28 2.9227 3.29038 0
M  V30 19142 H 1857.4 0.586933 0.445734 0
M  V30 19143 H 1860.04 1.82626 0.524177 0
M  V30 19144 H 1858.19 2.60894 2.87865 0
M  V30 19145 H 1859.86 4.48781 1.06741 0
M  V30 19146 H 1858.11 4.23579 0.936127 0
M  V30 19147 H 1858.78 4.97405 2.39359 0
M  V30 19148 H 1861.25 3.08813 2.78879 0
M  V30 19149 H 1860.13 3.7627 3.9964 0
M  V30 19150 H 1860.39 2.02696 3.92895 0
M  V30 19151 N 1859.45 -0.728395 1.39758 0
M  V30 19152 C 1860.86 -1.30697 1.33323 0
M  V30 19153 C 1861.21 -1.962 0.000676614 0
M  V30 19154 O 1860.34 -1.96731 -0.90143 0
M  V30 19155 C 1860.93 -2.37656 2.41464 0
M  V30 19156 C 1859.49 -2.91171 2.3853 0
M  V30 19157 C 1858.64 -1.64812 2.23007 0
M  V30 19158 H 1861.59 -0.525429 1.4975 0
M  V30 19159 H 1861.61 -3.18202 2.08633 0
M  V30 19160 H 1861.12 -1.89953 3.38437 0
M  V30 19161 H 1859.22 -3.43137 1.45216 0
M  V30 19162 H 1859.34 -3.43836 3.33637 0
M  V30 19163 H 1857.7 -1.89397 1.70296 0
M  V30 19164 H 1858.48 -1.19151 3.21959 0
M  V30 19165 N 1860.93 -1.25042 -0.959279 0
M  V30 19166 C 1862.34 -1.08692 -1.51799 0
M  V30 19167 C 1862.69 0.338893 -1.93251 0
M  V30 19168 O 1861.81 1.22831 -1.78162 0
M  V30 19169 C 1862.41 -1.9669 -2.7586 0
M  V30 19170 C 1860.97 -1.84538 -3.28059 0
M  V30 19171 C 1860.12 -1.91119 -2.0092 0
M  V30 19172 H 1863.07 -1.38396 -0.776669 0
M  V30 19173 H 1863.09 -1.50414 -3.49508 0
M  V30 19174 H 1862.6 -3.00455 -2.45659 0
M  V30 19175 H 1860.7 -0.836383 -3.63091 0
M  V30 19176 H 1860.81 -2.69095 -3.96389 0
M  V30 19177 H 1859.18 -1.34948 -2.16012 0
M  V30 19178 H 1859.96 -2.9648 -1.73074 0
M  V30 19179 N 1862.41 1.16121 -1.06553 0
M  V30 19180 C 1863.63 1.90611 -0.804673 0
M  V30 19181 C 1864.05 1.77576 0.641255 0
M  V30 19182 O 1863.41 1.12218 1.43921 0
M  V30 19183 C 1863.46 3.41231 -1.19348 0
M  V30 19184 O 1863.18 3.53879 -2.58266 0
M  V30 19185 C 1864.68 4.32764 -0.960738 0
M  V30 19186 H 1861.9 0.604358 -0.291534 0
M  V30 19187 H 1864.44 1.47174 -1.41986 0
M  V30 19188 H 1862.6 3.82361 -0.622772 0
M  V30 19189 H 1863.01 4.47298 -2.73907 0
M  V30 19190 H 1864.49 5.36898 -1.28238 0
M  V30 19191 H 1864.96 4.39078 0.103389 0
M  V30 19192 H 1865.57 3.97365 -1.51595 0
M  V30 19193 N 1863.88 0.848487 1.3281 0
M  V30 19194 C 1865.11 0.462643 2.01661 0
M  V30 19195 C 1865.53 -0.938906 1.63799 0
M  V30 19196 O 1864.88 -1.61171 0.85617 0
M  V30 19197 C 1864.94 0.584905 3.56737 0
M  V30 19198 O 1864.66 1.93124 3.93236 0
M  V30 19199 C 1866.16 0.197265 4.42861 0
M  V30 19200 H 1863.38 0.18254 0.645694 0
M  V30 19201 H 1865.92 1.14372 1.69527 0
M  V30 19202 H 1864.08 -0.0483701 3.8737 0
M  V30 19203 H 1864.49 1.92361 4.87952 0
M  V30 19204 H 1865.96 0.333833 5.5099 0
M  V30 19205 H 1866.44 -0.861732 4.30663 0
M  V30 19206 H 1867.05 0.805363 4.17605 0
M  V30 19207 N 1865.36 -1.4549 0.605832 0
M  V30 19208 C 1866.29 -2.3328 -0.101377 0
M  V30 19209 C 1867.27 -1.46727 -0.860543 0
M  V30 19210 O 1868.46 -1.75501 -0.831441 0
M  V30 19211 C 1865.59 -3.29403 -1.1005 0
M  V30 19212 C 1864.54 -4.25578 -0.45466 0
M  V30 19213 C 1863.87 -5.11379 -1.5619 0
M  V30 19214 C 1865.17 -5.18571 0.623028 0
M  V30 19215 H 1866.86 -2.92661 0.631653 0
M  V30 19216 H 1864.41 -1.40728 0.305208 0
M  V30 19217 H 1866.36 -3.89688 -1.60379 0
M  V30 19218 H 1865.09 -2.68177 -1.8641 0
M  V30 19219 H 1863.74 -3.66589 0.027752 0
M  V30 19220 H 1863.39 -4.46523 -2.31574 0
M  V30 19221 H 1863.09 -5.76528 -1.13529 0
M  V30 19222 H 1864.62 -5.74532 -2.0675 0
M  V30 19223 H 1866.03 -5.72937 0.203881 0
M  V30 19224 H 1864.43 -5.92187 0.971292 0
M  V30 19225 H 1865.5 -4.61106 1.50032 0
M  V30 19226 N 1866.84 -0.344893 -1.5378 0
M  V30 19227 C 1867.75 0.519687 -2.28772 0
M  V30 19228 C 1868.77 1.11076 -1.33934 0
M  V30 19229 O 1869.94 1.12615 -1.66972 0
M  V30 19230 C 1867.01 1.65417 -3.04693 0
M  V30 19231 C 1866.07 1.09275 -4.1516 0
M  V30 19232 C 1865.3 2.17316 -4.87452 0
M  V30 19233 O 1865.52 3.38061 -4.59425 0
M  V30 19234 O 1864.46 1.81535 -5.73872 0
M  V30 19235 H 1868.28 -0.0899625 -3.03567 0
M  V30 19236 H 1865.87 -0.109899 -1.48995 0
M  V30 19237 H 1867.75 2.31421 -3.52168 0
M  V30 19238 H 1866.43 2.24961 -2.32754 0
M  V30 19239 H 1865.33 0.397193 -3.71985 0
M  V30 19240 H 1866.67 0.542156 -4.89205 0
M  V30 19241 N 1868.32 1.57428 -0.0735454 0
M  V30 19242 C 1869.6 1.84962 0.636265 0
M  V30 19243 C 1869.98 0.966341 1.87683 0
M  V30 19244 O 1869.32 0.0330837 2.28476 0
M  V30 19245 C 1869.53 3.35184 0.972251 0
M  V30 19246 C 1870.88 4.02735 1.34499 0
M  V30 19247 O 1871.91 3.3994 1.06393 0
M  V30 19248 O 1870.76 5.13495 1.87043 0
M  V30 19249 H 1867.86 0.764169 0.316187 0
M  V30 19250 H 1870.4 1.69377 -0.104609 0
M  V30 19251 H 1869.18 3.91194 0.0912319 0
M  V30 19252 H 1868.8 3.56038 1.76983 0
M  V30 19253 N 1869.8 -0.200022 1.56326 0
M  V30 19254 C 1871.05 -0.919331 1.7953 0
M  V30 19255 C 1871.36 -1.84628 0.645908 0
M  V30 19256 O 1872.56 -2.60584 0.762132 0
M  V30 19257 C 1871.02 -1.68508 3.18014 0
M  V30 19258 C 1870.63 -0.803202 4.40741 0
M  V30 19259 C 1872.37 -2.39432 3.50532 0
M  V30 19260 C 1870.28 -1.56753 5.70248 0
M  V30 19261 H 1869.21 -0.347018 0.669399 0
M  V30 19262 H 1871.86 -0.172713 1.82685 0
M  V30 19263 H 1870.24 -2.4754 3.09095 0
M  V30 19264 H 1871.42 -0.0518889 4.60771 0
M  V30 19265 H 1869.73 -0.205039 4.15895 0
M  V30 19266 H 1872.33 -2.97158 4.44524 0
M  V30 19267 H 1872.67 -3.13378 2.74043 0
M  V30 19268 H 1873.2 -1.6737 3.60877 0
M  V30 19269 H 1869.94 -0.870942 6.49688 0
M  V30 19270 H 1869.46 -2.29291 5.54243 0
M  V30 19271 H 1871.14 -2.12262 6.11191 0
M  V30 19272 N 1871.27 -1.50505 -0.467553 0
M  V30 19273 C 1872.52 -1.6191 -1.22118 0
M  V30 19274 C 1872.85 -0.320112 -1.91544 0
M  V30 19275 O 1872.13 0.678631 -1.82277 0
M  V30 19276 C 1872.41 -2.80184 -2.26206 0
M  V30 19277 C 1872.26 -4.19975 -1.61062 0
M  V30 19278 C 1873.58 -2.94011 -3.27484 0
M  V30 19279 H 1870.7 -0.589289 -0.442615 0
M  V30 19280 H 1873.34 -1.82902 -0.514484 0
M  V30 19281 H 1871.49 -2.62417 -2.86478 0
M  V30 19282 H 1873.17 -4.4934 -1.04359 0
M  V30 19283 H 1871.41 -4.24069 -0.91365 0
M  V30 19284 H 1872.08 -4.98667 -2.36718 0
M  V30 19285 H 1874.56 -3.10288 -2.77238 0
M  V30 19286 H 1873.43 -3.78384 -3.97639 0
M  V30 19287 H 1873.69 -2.04777 -3.91815 0
M  V30 19288 N 1872.75 0.720973 -1.40142 0
M  V30 19289 C 1873.72 1.81676 -1.39737 0
M  V30 19290 C 1874.72 1.58125 -0.292068 0
M  V30 19291 O 1875.91 1.65266 -0.550699 0
M  V30 19292 C 1873.04 3.19685 -1.18381 0
M  V30 19293 H 1874.23 1.83435 -2.37259 0
M  V30 19294 H 1871.78 0.926064 -1.25912 0
M  V30 19295 H 1872.52 3.2358 -0.21598 0
M  V30 19296 H 1872.3 3.38178 -1.98439 0
M  V30 19297 H 1873.79 3.99724 -1.20873 0
M  V30 19298 N 1874.23 1.25549 0.952634 0
M  V30 19299 C 1875.18 1.06108 2.04963 0
M  V30 19300 C 1876.15 -0.0303872 1.66072 0
M  V30 19301 O 1877.33 0.127178 1.90376 0
M  V30 19302 C 1874.47 0.68799 3.38173 0
M  V30 19303 C 1873.59 1.85452 3.90168 0
M  V30 19304 C 1872.72 1.4256 5.11713 0
M  V30 19305 C 1871.76 2.56115 5.55942 0
M  V30 19306 N 1870.9 2.13984 6.68697 0
M  V30 19307 H 1875.74 1.99991 2.20925 0
M  V30 19308 H 1873.27 0.995895 1.08261 0
M  V30 19309 H 1875.23 0.452622 4.14737 0
M  V30 19310 H 1873.86 -0.213845 3.22091 0
M  V30 19311 H 1872.91 2.20314 3.10106 0
M  V30 19312 H 1874.23 2.70722 4.1894 0
M  V30 19313 H 1873.38 1.15 5.95701 0
M  V30 19314 H 1872.12 0.54365 4.8466 0
M  V30 19315 H 1871.12 2.84417 4.70518 0
M  V30 19316 H 1872.35 3.44891 5.85002 0
M  V30 19317 H 1870.29 1.28208 6.4335 0
M  V30 19318 H 1870.21 2.92801 6.96996 0
M  V30 19319 H 1871.48 1.89605 7.56089 0
M  V30 19320 N 1875.71 -1.15554 1.07168 0
M  V30 19321 C 1876.62 -2.2386 0.701714 0
M  V30 19322 C 1877.63 -1.7163 -0.28621 0
M  V30 19323 O 1878.81 -2.00958 -0.133308 0
M  V30 19324 C 1875.88 -3.46546 0.103165 0
M  V30 19325 C 1874.94 -4.13774 1.14409 0
M  V30 19326 C 1874.17 -5.30604 0.574007 0
M  V30 19327 O 1874.39 -5.67123 -0.610521 0
M  V30 19328 O 1873.33 -5.87293 1.31799 0
M  V30 19329 H 1877.15 -2.57833 1.60487 0
M  V30 19330 H 1874.74 -1.23241 0.844514 0
M  V30 19331 H 1876.62 -4.2078 -0.228452 0
M  V30 19332 H 1875.29 -3.14327 -0.773339 0
M  V30 19333 H 1874.2 -3.4147 1.52803 0
M  V30 19334 H 1875.53 -4.5007 1.99243 0
M  V30 19335 N 1877.19 -0.855519 -1.32358 0
M  V30 19336 C 1878.42 -0.473331 -2.01413 0
M  V30 19337 C 1878.83 0.930206 -1.64294 0
M  V30 19338 O 1878.19 1.60714 -0.864705 0
M  V30 19339 C 1878.24 -0.603815 -3.56422 0
M  V30 19340 O 1877.96 -1.95207 -3.92207 0
M  V30 19341 C 1879.46 -0.220748 -4.4275 0
M  V30 19342 H 1876.68 -0.185962 -0.644716 0
M  V30 19343 H 1879.22 -1.1527 -1.68918 0
M  V30 19344 H 1877.38 0.0278263 -3.8739 0
M  V30 19345 H 1877.79 -1.94946 -4.86925 0
M  V30 19346 H 1879.27 -0.363048 -5.50805 0
M  V30 19347 H 1879.74 0.838881 -4.31114 0
M  V30 19348 H 1880.35 -0.827498 -4.17172 0
M  V30 19349 N 1878.67 1.45167 -0.61354 0
M  V30 19350 C 1879.58 2.34372 0.103487 0
M  V30 19351 C 1880.59 1.51591 0.854172 0
M  V30 19352 O 1881.77 1.84375 0.810414 0
M  V30 19353 C 1878.83 3.29304 1.08443 0
M  V30 19354 C 1877.89 4.2799 0.335056 0
M  V30 19355 C 1877.13 5.18387 1.26928 0
M  V30 19356 O 1877.35 5.12336 2.50734 0
M  V30 19357 O 1876.28 5.97043 0.763115 0
M  V30 19358 H 1880.11 2.97099 -0.629746 0
M  V30 19359 H 1877.69 1.44649 -0.373779 0
M  V30 19360 H 1879.58 3.87785 1.64926 0
M  V30 19361 H 1878.25 2.69133 1.79859 0
M  V30 19362 H 1877.16 3.73107 -0.272378 0
M  V30 19363 H 1878.49 4.91033 -0.338727 0
M  V30 19364 N 1880.14 0.353044 1.53595 0
M  V30 19365 C 1881.37 -0.241665 2.05484 0
M  V30 19366 C 1881.79 -1.43458 1.2274 0
M  V30 19367 O 1881.14 -1.80566 0.26501 0
M  V30 19368 C 1881.19 -0.647442 3.55655 0
M  V30 19369 O 1880.92 0.498047 4.3526 0
M  V30 19370 C 1882.42 -1.30187 4.23753 0
M  V30 19371 H 1879.64 -0.0449704 0.669491 0
M  V30 19372 H 1882.18 0.507783 1.98095 0
M  V30 19373 H 1880.34 -1.34682 3.63235 0
M  V30 19374 H 1880.75 0.172685 5.24216 0
M  V30 19375 H 1882.22 -1.53646 5.30186 0
M  V30 19376 H 1882.7 -2.25835 3.7669 0
M  V30 19377 H 1883.31 -0.644265 4.20392 0
M  V30 19378 N 1881.62 -1.57387 0.0818932 0
M  V30 19379 C 1882.9 -1.85297 -0.626447 0
M  V30 19380 C 1883.28 -0.976281 -1.87168 0
M  V30 19381 O 1882.63 -0.0451999 -2.28455 0
M  V30 19382 C 1882.84 -3.35695 -0.954461 0
M  V30 19383 C 1884.18 -4.03442 -1.32361 0
M  V30 19384 O 1885.21 -3.40499 -1.04588 0
M  V30 19385 O 1884.07 -5.1448 -1.84317 0
M  V30 19386 H 1881.16 -0.765835 -0.31213 0
M  V30 19387 H 1883.71 -1.69319 0.11359 0
M  V30 19388 H 1882.48 -3.91237 -0.0704846 0
M  V30 19389 H 1882.1 -3.56971 -1.75092 0
M  V30 19390 N 1883.1 0.191729 -1.56429 0
M  V30 19391 C 1884.35 0.909797 -1.80016 0
M  V30 19392 C 1884.66 1.84283 -0.65569 0
M  V30 19393 O 1885.87 2.60176 -0.775941 0
M  V30 19394 C 1884.32 1.66819 -3.18904 0
M  V30 19395 C 1883.93 0.779817 -4.41161 0
M  V30 19396 C 1885.68 2.37569 -3.51797 0
M  V30 19397 C 1883.58 1.53727 -5.71071 0
M  V30 19398 H 1882.51 0.343463 -0.67123 0
M  V30 19399 H 1885.16 0.163022 -1.82774 0
M  V30 19400 H 1883.55 2.45897 -3.10404 0
M  V30 19401 H 1884.72 0.0274524 -4.60792 0
M  V30 19402 H 1883.03 0.18298 -4.15998 0
M  V30 19403 H 1885.63 2.94796 -4.46093 0
M  V30 19404 H 1885.97 3.11921 -2.75701 0
M  V30 19405 H 1886.51 1.65454 -3.61759 0
M  V30 19406 H 1883.25 0.836475 -6.50141 0
M  V30 19407 H 1882.77 2.26348 -5.55452 0
M  V30 19408 H 1884.45 2.09018 -6.12308 0
M  V30 19409 N 1884.58 1.50751 0.459565 0
M  V30 19410 C 1885.85 1.5284 1.22062 0
M  V30 19411 C 1886.23 0.279716 2.09239 0
M  V30 19412 O 1885.58 -0.73634 2.16311 0
M  V30 19413 C 1885.79 2.83046 2.04171 0
M  V30 19414 C 1887.14 3.34151 2.6197 0
M  V30 19415 O 1888.16 2.84446 2.14403 0
M  V30 19416 O 1887.02 4.20824 3.48668 0
M  V30 19417 H 1884.12 0.613549 0.554515 0
M  V30 19418 H 1886.66 1.63049 0.470445 0
M  V30 19419 H 1885.44 3.65397 1.40004 0
M  V30 19420 H 1885.06 2.75896 2.86299 0
M  V30 19421 N 1886.06 -0.713531 1.40522 0
M  V30 19422 C 1887.47 -1.02187 1.22597 0
M  V30 19423 C 1887.67 -2.01239 0.102623 0
M  V30 19424 O 1886.73 -2.46684 -0.538822 0
M  V30 19425 C 1888.04 -1.56362 2.56849 0
M  V30 19426 C 1889.59 -1.68337 2.63878 0
M  V30 19427 C 1890.06 -2.25918 3.98403 0
M  V30 19428 N 1891.55 -2.33301 4.00156 0
M  V30 19429 C 1892.29 -2.78842 5.01034 0
M  V30 19430 N 1891.79 -3.24119 6.12306 0
M  V30 19431 N 1893.58 -2.78244 4.88402 0
M  V30 19432 H 1885.73 -0.0570118 2.12323 0
M  V30 19433 H 1887.99 -0.0878906 0.943917 0
M  V30 19434 H 1887.7 -0.910421 3.39712 0
M  V30 19435 H 1887.57 -2.54855 2.78081 0
M  V30 19436 H 1889.96 -2.32773 1.81385 0
M  V30 19437 H 1890.04 -0.684382 2.46475 0
M  V30 19438 H 1889.68 -1.62102 4.81337 0
M  V30 19439 H 1889.61 -3.26534 4.13138 0
M  V30 19440 H 1892.11 -2.01326 3.19807 0
M  V30 19441 H 1892.42 -3.57442 6.85168 0
M  V30 19442 H 1890.76 -3.22073 6.15868 0
M  V30 19443 H 1893.95 -2.42209 4.00565 0
M  V30 19444 H 1894.13 -3.13419 5.67162 0
M  V30 19445 N 1887.53 -1.26053 -0.945962 0
M  V30 19446 C 1888.44 -1.08959 -2.07762 0
M  V30 19447 C 1889.46 -0.0243726 -1.73983 0
M  V30 19448 O 1890.64 -0.227113 -2.00115 0
M  V30 19449 C 1887.7 -0.719365 -3.39155 0
M  V30 19450 C 1886.76 -1.86347 -3.86747 0
M  V30 19451 C 1885.99 -1.51082 -5.11869 0
M  V30 19452 O 1886.22 -0.410377 -5.68922 0
M  V30 19453 O 1885.15 -2.34395 -5.54385 0
M  V30 19454 H 1888.98 -2.03884 -2.25089 0
M  V30 19455 H 1886.56 -1.05071 -1.0621 0
M  V30 19456 H 1888.44 -0.525412 -4.18112 0
M  V30 19457 H 1887.12 0.20054 -3.23078 0
M  V30 19458 H 1886.03 -2.11235 -3.08756 0
M  V30 19459 H 1887.36 -2.76293 -4.07336 0
M  V30 19460 N 1889.01 1.14984 -1.07779 0
M  V30 19461 C 1890.24 1.89472 -0.823648 0
M  V30 19462 C 1890.65 1.78499 0.627275 0
M  V30 19463 O 1889.99 1.13767 1.44232 0
M  V30 19464 C 1890.05 3.40327 -1.15835 0
M  V30 19465 C 1889.72 3.75085 -2.61075 0
M  V30 19466 C 1890.72 3.75743 -3.59323 0
M  V30 19467 C 1888.4 4.05261 -2.96765 0
M  V30 19468 C 1890.39 4.06089 -4.91295 0
M  V30 19469 C 1888.08 4.3527 -4.28932 0
M  V30 19470 C 1889.08 4.35667 -5.26007 0
M  V30 19471 O 1888.77 4.64954 -6.558 0
M  V30 19472 H 1888.5 0.607205 -0.297115 0
M  V30 19473 H 1891.05 1.46589 -1.43878 0
M  V30 19474 H 1889.28 3.83631 -0.486199 0
M  V30 19475 H 1890.97 3.96111 -0.886048 0
M  V30 19476 H 1891.74 3.52525 -3.33093 0
M  V30 19477 H 1887.62 4.04109 -2.2185 0
M  V30 19478 H 1891.16 4.06313 -5.67059 0
M  V30 19479 H 1887.06 4.57957 -4.54913 0
M  V30 19480 H 1887.83 4.82699 -6.61017 0
M  V30 19481 N 1890.49 0.862526 1.31902 0
M  V30 19482 C 1891.74 0.469775 1.96976 0
M  V30 19483 C 1892.06 -0.976339 1.6822 0
M  V30 19484 O 1891.32 -1.70131 0.967153 0
M  V30 19485 C 1891.62 0.664872 3.51161 0
M  V30 19486 C 1891.28 2.08264 3.99921 0
M  V30 19487 C 1889.95 2.47039 4.12947 0
M  V30 19488 C 1892.3 3.00762 4.25666 0
M  V30 19489 C 1889.63 3.77568 4.49065 0
M  V30 19490 C 1891.98 4.30797 4.63245 0
M  V30 19491 C 1890.64 4.69496 4.74478 0
M  V30 19492 H 1889.91 0.171903 0.720785 0
M  V30 19493 H 1892.56 1.09409 1.57169 0
M  V30 19494 H 1890.86 -0.0426255 3.91777 0
M  V30 19495 H 1892.56 0.340921 3.99548 0
M  V30 19496 H 1889.15 1.77158 3.90273 0
M  V30 19497 H 1893.34 2.72034 4.15104 0
M  V30 19498 H 1888.59 4.07323 4.55958 0
M  V30 19499 H 1892.77 5.02527 4.8212 0
M  V30 19500 H 1890.39 5.70682 5.02221 0
M  V30 19501 N 1891.97 -1.4484 0.62123 0
M  V30 19502 C 1893.2 -2.065 0.128561 0
M  V30 19503 C 1893.61 -1.46351 -1.19277 0
M  V30 19504 O 1892.97 -0.582692 -1.72948 0
M  V30 19505 C 1893.02 -3.615 -0.00297622 0
M  V30 19506 O 1892.74 -4.19407 1.26609 0
M  V30 19507 C 1894.24 -4.40174 -0.525505 0
M  V30 19508 H 1891.46 -0.666783 0.0751128 0
M  V30 19509 H 1894.01 -1.85868 0.852829 0
M  V30 19510 H 1892.16 -3.81427 -0.677635 0
M  V30 19511 H 1892.57 -5.12738 1.10454 0
M  V30 19512 H 1894.05 -5.49085 -0.566585 0
M  V30 19513 H 1894.53 -4.10918 -1.55057 0
M  V30 19514 H 1895.13 -4.25143 0.115568 0
M  V30 19515 N 1893.45 -0.361184 -1.53405 0
M  V30 19516 C 1894.67 0.230765 -2.05609 0
M  V30 19517 C 1895.09 1.42805 -1.23499 0
M  V30 19518 O 1894.45 1.80423 -0.274582 0
M  V30 19519 C 1894.5 0.628571 -3.55993 0
M  V30 19520 O 1894.22 -0.521123 -4.3499 0
M  V30 19521 C 1895.72 1.27938 -4.24437 0
M  V30 19522 H 1892.94 0.0414193 -0.66972 0
M  V30 19523 H 1895.48 -0.518281 -1.97823 0
M  V30 19524 H 1893.64 1.32754 -3.63944 0
M  V30 19525 H 1894.05 -0.200483 -5.24117 0
M  V30 19526 H 1895.53 1.50832 -5.30993 0
M  V30 19527 H 1896 2.23834 -3.77882 0
M  V30 19528 H 1896.61 0.621961 -4.20728 0
M  V30 19529 N 1894.92 1.57341 -0.0902386 0
M  V30 19530 C 1896.15 1.98934 0.586524 0
M  V30 19531 C 1896.57 0.968841 1.6123 0
M  V30 19532 O 1895.93 -0.0632868 1.8119 0
M  V30 19533 C 1895.98 3.39509 1.21516 0
M  V30 19534 O 1895.08 3.40203 2.331 0
M  V30 19535 H 1894.43 0.647009 0.14925 0
M  V30 19536 H 1896.96 2.03891 -0.170213 0
M  V30 19537 H 1896.97 3.77097 1.55762 0
M  V30 19538 H 1895.64 4.13308 0.463639 0
M  V30 19539 H 1894.22 3.14405 2.0051 0
M  V30 19540 N 1896.4 -0.183431 1.56529 0
M  V30 19541 C 1897.63 -0.921964 1.85781 0
M  V30 19542 C 1898.05 -1.75564 0.675184 0
M  V30 19543 O 1897.41 -1.7736 -0.375913 0
M  V30 19544 C 1897.46 -1.7844 3.13355 0
M  V30 19545 O 1896.56 -2.88461 2.94727 0
M  V30 19546 H 1895.9 -0.258974 0.611415 0
M  V30 19547 H 1898.43 -0.185225 2.0376 0
M  V30 19548 H 1898.44 -2.18675 3.44449 0
M  V30 19549 H 1897.12 -1.17195 3.99047 0
M  V30 19550 H 1895.7 -2.51897 2.74959 0
M  V30 19551 N 1897.88 -1.50992 -0.451564 0
M  V30 19552 C 1899.29 -1.55592 -1.03189 0
M  V30 19553 C 1899.64 -0.370923 -1.92662 0
M  V30 19554 O 1898.77 0.513972 -2.10208 0
M  V30 19555 C 1899.36 -2.81975 -1.87818 0
M  V30 19556 C 1897.92 -2.89192 -2.40925 0
M  V30 19557 C 1897.07 -2.50103 -1.19766 0
M  V30 19558 H 1900.02 -1.56974 -0.233388 0
M  V30 19559 H 1900.04 -2.64934 -2.73112 0
M  V30 19560 H 1899.55 -3.68203 -1.22672 0
M  V30 19561 H 1897.65 -2.07362 -3.09567 0
M  V30 19562 H 1897.77 -3.92529 -2.74696 0
M  V30 19563 H 1896.13 -2.02978 -1.53857 0
M  V30 19564 H 1896.91 -3.3866 -0.562517 0
M  V30 19565 N 1899.36 0.706069 -1.40899 0
M  V30 19566 C 1900.77 1.2856 -1.35386 0
M  V30 19567 C 1901.12 1.96174 -0.0318902 0
M  V30 19568 O 1900.25 1.9814 0.870018 0
M  V30 19569 C 1900.84 2.33785 -2.45214 0
M  V30 19570 C 1899.4 2.87339 -2.43132 0
M  V30 19571 C 1898.55 1.61243 -2.25601 0
M  V30 19572 H 1901.5 0.501539 -1.50567 0
M  V30 19573 H 1901.52 3.14843 -2.13669 0
M  V30 19574 H 1901.03 1.84545 -3.41416 0
M  V30 19575 H 1899.13 3.40784 -1.50656 0
M  V30 19576 H 1899.24 3.38485 -3.39065 0
M  V30 19577 H 1897.61 1.86664 -1.73288 0
M  V30 19578 H 1898.39 1.14014 -3.23814 0
M  V30 19579 N 1900.84 1.26553 0.939264 0
M  V30 19580 C 1901.8 1.08335 2.01981 0
M  V30 19581 C 1902.8 0.0310501 1.6077 0
M  V30 19582 O 1903.99 0.274627 1.72022 0
M  V30 19583 C 1901.12 0.648208 3.34681 0
M  V30 19584 H 1902.31 2.04272 2.19574 0
M  V30 19585 H 1899.87 1.09177 1.11849 0
M  V30 19586 H 1900.6 -0.313074 3.22785 0
M  V30 19587 H 1900.39 1.40806 3.65946 0
M  V30 19588 H 1901.88 0.54264 4.14059 0
M  V30 19589 N 1902.31 -1.14411 1.08387 0
M  V30 19590 C 1903.54 -1.89307 0.834895 0
M  V30 19591 C 1903.96 -1.78574 -0.612923 0
M  V30 19592 O 1903.31 -1.14494 -1.42118 0
M  V30 19593 C 1903.37 -3.39289 1.24761 0
M  V30 19594 O 1903.09 -3.49725 2.63863 0
M  V30 19595 C 1904.59 -4.31181 1.02947 0
M  V30 19596 H 1901.81 -0.599644 0.301112 0
M  V30 19597 H 1904.35 -1.44897 1.44309 0
M  V30 19598 H 1902.51 -3.81322 0.683524 0
M  V30 19599 H 1902.92 -4.42884 2.80988 0
M  V30 19600 H 1904.39 -5.34789 1.36763 0
M  V30 19601 H 1904.87 -4.39187 -0.0335224 0
M  V30 19602 H 1905.48 -3.94903 1.57898 0
M  V30 19603 N 1903.79 -0.869509 -1.31443 0
M  V30 19604 C 1904.72 -0.282169 -2.27456 0
M  V30 19605 C 1905.74 0.55453 -1.53065 0
M  V30 19606 O 1906.93 0.376597 -1.74482 0
M  V30 19607 C 1904.03 0.618652 -3.33206 0
M  V30 19608 C 1903.2 -0.185505 -4.37006 0
M  V30 19609 C 1902.26 0.643383 -5.22252 0
M  V30 19610 O 1901.28 0.0715827 -5.69155 0
M  V30 19611 N 1902.49 1.95545 -5.46573 0
M  V30 19612 H 1905.25 -1.10726 -2.78496 0
M  V30 19613 H 1902.81 -0.730947 -1.4446 0
M  V30 19614 H 1904.8 1.17886 -3.8715 0
M  V30 19615 H 1903.37 1.34442 -2.82213 0
M  V30 19616 H 1902.59 -0.927156 -3.83142 0
M  V30 19617 H 1903.88 -0.73731 -5.03429 0
M  V30 19618 H 1903.28 2.44315 -5.10222 0
M  V30 19619 H 1901.84 2.46345 -6.03455 0
M  V30 19620 N 1905.27 1.44508 -0.628902 0
M  V30 19621 C 1906.68 1.85457 -0.215122 0
M  V30 19622 C 1907.03 1.52619 1.23296 0
M  V30 19623 O 1906.16 0.963178 1.93783 0
M  V30 19624 C 1906.75 3.36621 -0.383645 0
M  V30 19625 C 1905.31 3.76392 -0.0243904 0
M  V30 19626 C 1904.46 2.68369 -0.698081 0
M  V30 19627 H 1907.41 1.35006 -0.834208 0
M  V30 19628 H 1907.43 3.78617 0.378049 0
M  V30 19629 H 1906.94 3.6049 -1.43767 0
M  V30 19630 H 1905.04 3.58139 1.02798 0
M  V30 19631 H 1905.16 4.7714 -0.432898 0
M  V30 19632 H 1903.52 2.54349 -0.133605 0
M  V30 19633 H 1904.3 2.95071 -1.75465 0
M  V30 19634 N 1906.75 0.369315 1.53212 0
M  V30 19635 C 1907.98 -0.219858 2.05729 0
M  V30 19636 C 1908.39 -1.42148 1.24255 0
M  V30 19637 O 1907.75 -1.80274 0.284146 0
M  V30 19638 C 1907.8 -0.609683 3.56322 0
M  V30 19639 O 1907.52 0.544184 4.34707 0
M  V30 19640 C 1909.02 -1.25685 4.2511 0
M  V30 19641 H 1906.24 -0.037867 0.669931 0
M  V30 19642 H 1908.79 0.528765 1.97546 0
M  V30 19643 H 1906.94 -1.30822 3.64643 0
M  V30 19644 H 1907.36 0.228276 5.24003 0
M  V30 19645 H 1908.83 -1.48014 5.31785 0
M  V30 19646 H 1909.31 -2.21827 3.79064 0
M  V30 19647 H 1909.91 -0.59964 4.21052 0
M  V30 19648 N 1908.23 -1.57291 0.0985816 0
M  V30 19649 C 1909.64 -1.575 -0.258064 0
M  V30 19650 C 1909.84 -1.10997 -1.68172 0
M  V30 19651 O 1908.9 -0.78802 -2.39889 0
M  V30 19652 C 1910.21 -3.00669 -0.0433215 0
M  V30 19653 C 1911.76 -3.12804 -0.110802 0
M  V30 19654 C 1912.24 -4.57937 0.0759907 0
M  V30 19655 N 1913.73 -4.63195 0.021273 0
M  V30 19656 C 1914.46 -5.73227 0.141 0
M  V30 19657 N 1913.96 -6.9208 0.315756 0
M  V30 19658 N 1915.75 -5.6204 0.0820222 0
M  V30 19659 H 1907.9 -1.85826 1.02871 0
M  V30 19660 H 1910.16 -0.857869 0.403441 0
M  V30 19661 H 1909.87 -3.38903 0.940103 0
M  V30 19662 H 1909.74 -3.6896 -0.784124 0
M  V30 19663 H 1912.13 -2.7444 -1.08473 0
M  V30 19664 H 1912.21 -2.47098 0.661548 0
M  V30 19665 H 1911.86 -4.96995 1.04681 0
M  V30 19666 H 1911.79 -5.21708 -0.716096 0
M  V30 19667 H 1914.28 -3.77737 -0.111114 0
M  V30 19668 H 1914.59 -7.71772 0.398531 0
M  V30 19669 H 1912.94 -6.94111 0.351469 0
M  V30 19670 H 1916.13 -4.6807 -0.0533968 0
M  V30 19671 H 1916.3 -6.47753 0.178778 0
M  V30 19672 N 1909.71 0.175127 -1.56624 0
M  V30 19673 C 1911.12 0.737951 -1.71497 0
M  V30 19674 C 1911.47 1.82962 -0.708475 0
M  V30 19675 O 1910.59 2.16003 0.13096 0
M  V30 19676 C 1911.19 1.34536 -3.10943 0
M  V30 19677 C 1909.75 1.85505 -3.27513 0
M  V30 19678 C 1908.89 0.732564 -2.67449 0
M  V30 19679 H 1911.84 -0.0502185 -1.58621 0
M  V30 19680 H 1911.87 2.21502 -3.09382 0
M  V30 19681 H 1911.38 0.5506 -3.84174 0
M  V30 19682 H 1909.48 2.67637 -2.59232 0
M  V30 19683 H 1909.59 2.00311 -4.35215 0
M  V30 19684 H 1907.96 1.15203 -2.27157 0
M  V30 19685 H 1908.74 -0.050288 -3.43263 0
M  V30 19686 N 1911.18 1.5123 0.44355 0
M  V30 19687 C 1912.59 1.56137 1.02362 0
M  V30 19688 C 1912.95 0.381135 1.92462 0
M  V30 19689 O 1912.07 -0.502817 2.10477 0
M  V30 19690 C 1912.67 2.82967 1.8632 0
M  V30 19691 C 1911.22 2.90466 2.39388 0
M  V30 19692 C 1910.37 2.50735 1.18438 0
M  V30 19693 H 1913.32 1.57096 0.22506 0
M  V30 19694 H 1913.34 2.66378 2.71704 0
M  V30 19695 H 1912.86 3.68848 1.20717 0
M  V30 19696 H 1910.96 2.09 3.08463 0
M  V30 19697 H 1911.07 3.9398 2.7261 0
M  V30 19698 H 1909.43 2.03792 1.52778 0
M  V30 19699 H 1910.22 3.38954 0.544549 0
M  V30 19700 N 1912.66 -0.698586 1.41271 0
M  V30 19701 C 1913.89 -1.48743 1.43816 0
M  V30 19702 C 1914.3 -1.88752 0.0425858 0
M  V30 19703 O 1913.66 -1.56584 -0.937425 0
M  V30 19704 C 1913.71 -2.75192 2.34418 0
M  V30 19705 O 1913.43 -2.36869 3.68544 0
M  V30 19706 C 1914.93 -3.68957 2.45735 0
M  V30 19707 H 1912.15 -0.458477 0.489938 0
M  V30 19708 H 1914.7 -0.860372 1.85521 0
M  V30 19709 H 1912.85 -3.34142 1.9603 0
M  V30 19710 H 1913.27 -3.18354 4.16834 0
M  V30 19711 H 1914.74 -4.54473 3.13302 0
M  V30 19712 H 1915.22 -4.13237 1.48767 0
M  V30 19713 H 1915.82 -3.15912 2.84745 0
M  V30 19714 N 1914.14 -1.27049 -0.93254 0
M  V30 19715 C 1915.39 -1.1327 -1.68219 0
M  V30 19716 C 1915.72 0.321632 -1.91518 0
M  V30 19717 O 1914.99 1.23564 -1.50207 0
M  V30 19718 C 1915.28 -1.91162 -3.0517 0
M  V30 19719 C 1915.13 -3.44552 -2.89143 0
M  V30 19720 C 1916.45 -1.71227 -4.05425 0
M  V30 19721 H 1913.57 -0.412859 -0.610505 0
M  V30 19722 H 1916.21 -1.56148 -1.08249 0
M  V30 19723 H 1914.36 -1.54722 -3.56361 0
M  V30 19724 H 1916.03 -3.90794 -2.45107 0
M  V30 19725 H 1914.27 -3.71138 -2.24586 0
M  V30 19726 H 1914.95 -3.9429 -3.86315 0
M  V30 19727 H 1917.42 -2.0299 -3.63227 0
M  V30 19728 H 1916.3 -2.28129 -4.99248 0
M  V30 19729 H 1916.56 -0.65898 -4.37161 0
M  V30 19730 N 1915.62 1.13835 -1.08993 0
M  V30 19731 C 1916.53 2.22715 -0.73724 0
M  V30 19732 C 1917.54 1.72064 0.258869 0
M  V30 19733 O 1918.72 2.01145 0.101321 0
M  V30 19734 C 1915.78 3.46338 -0.158285 0
M  V30 19735 C 1914.85 4.11902 -1.20977 0
M  V30 19736 C 1914.08 5.29624 -0.658349 0
M  V30 19737 O 1914.3 5.68023 0.520219 0
M  V30 19738 O 1913.24 5.85121 -1.41126 0
M  V30 19739 H 1917.06 2.55247 -1.64568 0
M  V30 19740 H 1914.65 1.21882 -0.864013 0
M  V30 19741 H 1916.53 4.2109 0.161481 0
M  V30 19742 H 1915.2 3.15517 0.723235 0
M  V30 19743 H 1914.11 3.38996 -1.58216 0
M  V30 19744 H 1915.44 4.46843 -2.06378 0
M  V30 19745 N 1917.1 0.876467 1.3098 0
M  V30 19746 C 1918.37 0.411051 1.91232 0
M  V30 19747 C 1918.75 -1.10748 1.79717 0
M  V30 19748 O 1918.1 -1.93898 1.20896 0
M  V30 19749 C 1918.31 0.899663 3.37205 0
M  V30 19750 C 1919.66 0.929615 4.14299 0
M  V30 19751 O 1920.68 0.845752 3.46014 0
M  V30 19752 O 1919.54 1.05211 5.36277 0
M  V30 19753 H 1916.64 0.12418 0.817624 0
M  V30 19754 H 1919.18 0.964808 1.39605 0
M  V30 19755 H 1917.95 1.94336 3.39631 0
M  V30 19756 H 1917.58 0.324585 3.96273 0
M  V30 19757 N 1918.57 -1.44173 0.636557 0
M  V30 19758 C 1919.52 -2.30708 -0.0651156 0
M  V30 19759 C 1920.49 -1.43795 -0.831389 0
M  V30 19760 O 1921.68 -1.7269 -0.81134 0
M  V30 19761 C 1918.82 -3.2915 -1.03703 0
M  V30 19762 C 1917.93 -4.31164 -0.268603 0
M  V30 19763 C 1917.06 -5.16696 -1.23282 0
M  V30 19764 C 1916.1 -6.10415 -0.453864 0
M  V30 19765 N 1915.24 -6.88628 -1.36881 0
M  V30 19766 H 1920.08 -2.90167 0.678744 0
M  V30 19767 H 1917.62 -1.42961 0.346492 0
M  V30 19768 H 1919.57 -3.84717 -1.61395 0
M  V30 19769 H 1918.2 -2.71379 -1.74795 0
M  V30 19770 H 1917.26 -3.78026 0.424338 0
M  V30 19771 H 1918.57 -4.97655 0.337844 0
M  V30 19772 H 1917.72 -5.76807 -1.88091 0
M  V30 19773 H 1916.46 -4.50292 -1.87318 0
M  V30 19774 H 1915.47 -5.49408 0.207683 0
M  V30 19775 H 1916.69 -6.78856 0.181863 0
M  V30 19776 H 1914.64 -6.24887 -1.99629 0
M  V30 19777 H 1914.55 -7.51578 -0.816523 0
M  V30 19778 H 1915.82 -7.53258 -2.00558 0
M  V30 19779 N 1920.05 -0.377435 -1.53014 0
M  V30 19780 C 1920.96 0.471045 -2.29822 0
M  V30 19781 C 1921.98 1.0821 -1.36259 0
M  V30 19782 O 1923.15 1.09048 -1.69324 0
M  V30 19783 C 1920.22 1.58917 -3.08134 0
M  V30 19784 C 1919.28 1.00444 -4.17384 0
M  V30 19785 C 1918.51 2.06928 -4.91952 0
M  V30 19786 O 1918.74 3.2824 -4.66492 0
M  V30 19787 O 1917.67 1.69321 -5.77593 0
M  V30 19788 H 1921.5 -0.154333 -3.03308 0
M  V30 19789 H 1919.08 -0.141478 -1.48729 0
M  V30 19790 H 1920.96 2.23899 -3.56997 0
M  V30 19791 H 1919.64 2.19973 -2.37473 0
M  V30 19792 H 1918.54 0.3182 -3.72744 0
M  V30 19793 H 1919.88 0.438266 -4.90245 0
M  V30 19794 N 1921.53 1.57237 -0.106922 0
M  V30 19795 C 1922.49 2.13515 0.833317 0
M  V30 19796 C 1923.49 1.06715 1.20285 0
M  V30 19797 O 1924.68 1.32548 1.13034 0
M  V30 19798 C 1921.82 2.66546 2.12523 0
M  V30 19799 H 1923.01 2.97916 0.344435 0
M  V30 19800 H 1920.56 1.55652 0.142199 0
M  V30 19801 H 1921.3 1.85699 2.65869 0
M  V30 19802 H 1921.08 3.44643 1.86985 0
M  V30 19803 H 1922.57 3.10039 2.7976 0
M  V30 19804 N 1923.01 -0.166818 1.56715 0
M  V30 19805 C 1924.26 -0.882715 1.82248 0
M  V30 19806 C 1924.58 -1.82049 0.684716 0
M  V30 19807 O 1923.84 -1.92937 -0.327717 0
M  V30 19808 C 1924.14 -1.70734 3.13982 0
M  V30 19809 C 1923.8 -0.918095 4.41454 0
M  V30 19810 C 1922.47 -0.700286 4.76077 0
M  V30 19811 C 1924.82 -0.364791 5.19922 0
M  V30 19812 C 1922.15 0.081855 5.86643 0
M  V30 19813 C 1924.5 0.404286 6.31307 0
M  V30 19814 C 1923.16 0.632854 6.64493 0
M  V30 19815 H 1922.43 -0.323008 0.666893 0
M  V30 19816 H 1925.08 -0.147401 1.90932 0
M  V30 19817 H 1923.38 -2.51218 3.0066 0
M  V30 19818 H 1925.08 -2.26437 3.30949 0
M  V30 19819 H 1921.67 -1.0979 4.14299 0
M  V30 19820 H 1925.85 -0.520394 4.93564 0
M  V30 19821 H 1921.11 0.268637 6.1081 0
M  V30 19822 H 1925.28 0.840259 6.91312 0
M  V30 19823 H 1922.91 1.24079 7.50006 0
M  V30 19824 N 1924.49 -1.51463 -0.435524 0
M  V30 19825 C 1925.73 -1.63897 -1.18247 0
M  V30 19826 C 1926.06 -0.358322 -1.9168 0
M  V30 19827 O 1925.33 0.625888 -1.85633 0
M  V30 19828 H 1923.91 -0.60404 -0.439482 0
M  V30 19829 H 1926.57 -1.884 -0.49915 0
M  V30 19830 H 1925.66 -2.46749 -1.91105 0
M  V30 19831 N 1925.96 0.691085 -1.4164 0
M  V30 19832 C 1927.38 1.27116 -1.36742 0
M  V30 19833 C 1927.73 1.96129 -0.0526953 0
M  V30 19834 O 1926.85 1.99052 0.848953 0
M  V30 19835 C 1927.45 2.31171 -2.4768 0
M  V30 19836 C 1926.01 2.84744 -2.46166 0
M  V30 19837 C 1925.15 1.58841 -2.27299 0
M  V30 19838 H 1928.1 0.485541 -1.5109 0
M  V30 19839 H 1928.12 3.12559 -2.16996 0
M  V30 19840 H 1927.64 1.80913 -3.43354 0
M  V30 19841 H 1925.74 3.39167 -1.54262 0
M  V30 19842 H 1925.85 3.34869 -3.42636 0
M  V30 19843 H 1924.21 1.84815 -1.75258 0
M  V30 19844 H 1925 1.10573 -3.25005 0
M  V30 19845 N 1927.44 1.27542 0.925789 0
M  V30 19846 C 1928.37 1.06229 2.03096 0
M  V30 19847 C 1929.39 0.0177734 1.6279 0
M  V30 19848 O 1930.58 0.259539 1.76603 0
M  V30 19849 C 1927.68 0.589777 3.33729 0
M  V30 19850 C 1926.85 1.70701 4.02716 0
M  V30 19851 C 1925.91 1.22991 5.11624 0
M  V30 19852 O 1924.93 1.92993 5.35483 0
M  V30 19853 N 1926.14 0.086593 5.80435 0
M  V30 19854 H 1928.9 2.01401 2.21941 0
M  V30 19855 H 1926.46 1.19134 1.0963 0
M  V30 19856 H 1928.45 0.254459 4.03899 0
M  V30 19857 H 1927.02 -0.268762 3.11443 0
M  V30 19858 H 1926.24 2.21252 3.26253 0
M  V30 19859 H 1927.53 2.45679 4.45555 0
M  V30 19860 H 1926.93 -0.497638 5.63507 0
M  V30 19861 H 1925.49 -0.189533 6.51524 0
M  V30 19862 N 1928.92 -1.13255 1.09595 0
M  V30 19863 C 1929.88 -2.16909 0.740481 0
M  V30 19864 C 1930.88 -1.59135 -0.230794 0
M  V30 19865 O 1932.07 -1.74198 -0.00875551 0
M  V30 19866 C 1929.21 -3.40767 0.0953504 0
M  V30 19867 H 1930.4 -2.49869 1.65848 0
M  V30 19868 H 1927.95 -1.28113 0.895358 0
M  V30 19869 H 1928.69 -3.13398 -0.833794 0
M  V30 19870 H 1928.47 -3.83972 0.794247 0
M  V30 19871 H 1929.96 -4.17372 -0.137892 0
M  V30 19872 N 1930.4 -0.883401 -1.30514 0
M  V30 19873 C 1931.33 -0.36516 -2.30627 0
M  V30 19874 C 1932.31 0.551149 -1.60923 0
M  V30 19875 O 1933.49 0.465333 -1.88543 0
M  V30 19876 C 1930.62 0.422552 -3.4472 0
M  V30 19877 C 1929.58 -0.401856 -4.26109 0
M  V30 19878 C 1928.9 0.512363 -5.3224 0
M  V30 19879 C 1930.2 -1.64313 -4.95781 0
M  V30 19880 H 1931.9 -1.20175 -2.74223 0
M  V30 19881 H 1929.44 -0.579315 -1.31833 0
M  V30 19882 H 1931.4 0.795726 -4.13819 0
M  V30 19883 H 1930.12 1.29278 -2.99925 0
M  V30 19884 H 1928.78 -0.75715 -3.58696 0
M  V30 19885 H 1928.43 1.38025 -4.83692 0
M  V30 19886 H 1928.13 -0.0354331 -5.87589 0
M  V30 19887 H 1929.65 0.882088 -6.04195 0
M  V30 19888 H 1931.07 -1.34063 -5.57405 0
M  V30 19889 H 1929.46 -2.13101 -5.60989 0
M  V30 19890 H 1930.53 -2.38843 -4.21998 0
M  V30 19891 N 1931.88 1.43833 -0.644194 0
M  V30 19892 C 1933.1 2.06784 -0.159719 0
M  V30 19893 C 1933.53 1.47913 1.16204 0
M  V30 19894 O 1932.88 0.585574 1.71583 0
M  V30 19895 C 1932.93 3.60527 -0.0724271 0
M  V30 19896 O 1932.04 4.0088 0.967917 0
M  V30 19897 H 1931.38 0.657771 -0.0907406 0
M  V30 19898 H 1933.91 1.8449 -0.884568 0
M  V30 19899 H 1933.92 4.07841 0.113872 0
M  V30 19900 H 1932.59 4.02755 -1.03736 0
M  V30 19901 H 1931.17 3.65174 0.755135 0
M  V30 19902 N 1933.35 0.385544 1.52811 0
M  V30 19903 C 1934.58 -0.198025 2.0595 0
M  V30 19904 C 1935 -1.40822 1.25756 0
M  V30 19905 O 1934.35 -1.79963 0.303251 0
M  V30 19906 C 1934.41 -0.571856 3.56948 0
M  V30 19907 O 1934.13 0.59026 4.34105 0
M  V30 19908 C 1935.63 -1.21169 4.26419 0
M  V30 19909 H 1932.85 -0.0307594 0.670295 0
M  V30 19910 H 1935.39 0.549688 1.96974 0
M  V30 19911 H 1933.55 -1.26947 3.6601 0
M  V30 19912 H 1933.96 0.28384 5.23731 0
M  V30 19913 H 1935.43 -1.42366 5.33325 0
M  V30 19914 H 1935.91 -2.17794 3.81395 0
M  V30 19915 H 1936.52 -0.554949 4.21664 0
M  V30 19916 N 1934.83 -1.57178 0.115259 0
M  V30 19917 C 1936.24 -1.82126 -0.410715 0
M  V30 19918 C 1936.59 -1.03219 -1.66854 0
M  V30 19919 O 1935.72 -0.267639 -2.14739 0
M  V30 19920 C 1936.31 -3.30351 -0.751923 0
M  V30 19921 C 1934.87 -3.55993 -1.22255 0
M  V30 19922 C 1934.02 -2.7635 -0.229344 0
M  V30 19923 H 1936.97 -1.55005 0.340441 0
M  V30 19924 H 1936.99 -3.44775 -1.60968 0
M  V30 19925 H 1936.5 -3.87754 0.163726 0
M  V30 19926 H 1934.61 -3.03942 -2.15522 0
M  V30 19927 H 1934.72 -4.64583 -1.17046 0
M  V30 19928 H 1933.08 -2.4444 -0.715621 0
M  V30 19929 H 1933.87 -3.36511 0.679337 0
M  V30 19930 N 1936.31 0.158505 -1.56801 0
M  V30 19931 C 1937.24 1.22086 -1.93978 0
M  V30 19932 C 1938.26 1.39798 -0.834291 0
M  V30 19933 O 1939.45 1.39573 -1.11272 0
M  V30 19934 C 1936.55 2.58757 -2.18857 0
M  V30 19935 C 1935.72 2.62175 -3.50118 0
M  V30 19936 C 1934.78 3.80301 -3.63673 0
M  V30 19937 O 1933.8 3.65706 -4.36174 0
M  V30 19938 N 1935.01 4.97286 -2.99477 0
M  V30 19939 H 1937.77 0.904964 -2.8571 0
M  V30 19940 H 1935.33 0.348168 -1.58112 0
M  V30 19941 H 1937.32 3.3627 -2.25177 0
M  V30 19942 H 1935.89 2.82685 -1.33446 0
M  V30 19943 H 1935.11 1.70662 -3.55342 0
M  V30 19944 H 1936.4 2.61481 -4.36469 0
M  V30 19945 H 1935.8 5.12046 -2.40469 0
M  V30 19946 H 1934.36 5.72616 -3.11375 0
M  V30 19947 N 1937.79 1.51692 0.427485 0
M  V30 19948 C 1939.2 1.57214 1.007 0
M  V30 19949 C 1939.55 0.401527 1.92047 0
M  V30 19950 O 1938.68 -0.480464 2.10999 0
M  V30 19951 C 1939.27 2.84927 1.83309 0
M  V30 19952 C 1937.83 2.92989 2.36294 0
M  V30 19953 C 1936.98 2.51977 1.15772 0
M  V30 19954 H 1939.93 1.57326 0.208386 0
M  V30 19955 H 1939.95 2.69245 2.68863 0
M  V30 19956 H 1939.46 3.70108 1.16799 0
M  V30 19957 H 1937.56 2.1226 3.06229 0
M  V30 19958 H 1937.68 3.9685 2.68416 0
M  V30 19959 H 1936.04 2.054 1.50608 0
M  V30 19960 H 1936.82 3.39512 0.508568 0
M  V30 19961 N 1939.27 -0.683564 1.42004 0
M  V30 19962 C 1940.68 -1.26389 1.37414 0
M  V30 19963 C 1941.03 -1.96099 0.0630958 0
M  V30 19964 O 1940.15 -1.995 -0.838385 0
M  V30 19965 C 1940.75 -2.29854 2.48903 0
M  V30 19966 C 1939.31 -2.83435 2.47673 0
M  V30 19967 C 1938.46 -1.57634 2.28138 0
M  V30 19968 H 1941.41 -0.477522 1.51345 0
M  V30 19969 H 1941.43 -3.11404 2.18651 0
M  V30 19970 H 1940.94 -1.7909 3.44309 0
M  V30 19971 H 1939.04 -3.38344 1.56059 0
M  V30 19972 H 1939.15 -3.33048 3.44407 0
M  V30 19973 H 1937.52 -1.83883 1.76236 0
M  V30 19974 H 1938.3 -1.08848 3.25587 0
M  V30 19975 N 1940.75 -1.28031 -0.919012 0
M  V30 19976 C 1941.71 -1.11534 -2.00232 0
M  V30 19977 C 1942.71 -0.0566233 -1.607 0
M  V30 19978 O 1943.9 -0.30196 -1.71563 0
M  V30 19979 C 1941.03 -0.701371 -3.33607 0
M  V30 19980 H 1942.22 -2.0774 -2.16297 0
M  V30 19981 H 1939.78 -1.10942 -1.10098 0
M  V30 19982 H 1940.51 0.261682 -3.23243 0
M  V30 19983 H 1940.3 -1.4661 -3.63659 0
M  V30 19984 H 1941.79 -0.608444 -4.13144 0
M  V30 19985 N 1942.22 1.12672 -1.10194 0
M  V30 19986 C 1943.45 1.88496 -0.865112 0
M  V30 19987 C 1943.87 1.78977 0.578691 0
M  V30 19988 O 1943.23 1.14292 1.40737 0
M  V30 19989 C 1943.28 3.35768 -1.315 0
M  V30 19990 O 1942.38 4.09615 -0.478447 0
M  V30 19991 H 1941.72 0.585782 -0.312658 0
M  V30 19992 H 1944.25 1.42506 -1.46811 0
M  V30 19993 H 1944.26 3.86605 -1.30385 0
M  V30 19994 H 1942.94 3.42013 -2.36643 0
M  V30 19995 H 1941.52 3.68753 -0.554589 0
M  V30 19996 N 1943.7 0.89031 1.30043 0
M  V30 19997 C 1944.93 0.526566 2.00087 0
M  V30 19998 C 1945.34 -0.88632 1.66703 0
M  V30 19999 O 1944.7 -1.58365 0.907012 0
M  V30 20000 C 1944.75 0.698102 3.54695 0
M  V30 20001 O 1944.47 2.05537 3.86893 0
M  V30 20002 C 1945.97 0.338058 4.42009 0
M  V30 20003 H 1943.19 0.20299 0.639559 0
M  V30 20004 H 1945.74 1.19708 1.65802 0
M  V30 20005 H 1943.89 0.0748931 3.87328 0
M  V30 20006 H 1944.31 2.07787 4.81586 0
M  V30 20007 H 1945.78 0.508957 5.49649 0
M  V30 20008 H 1946.26 -0.724284 4.33187 0
M  V30 20009 H 1946.86 0.937813 4.14831 0
M  V30 20010 N 1945.18 -1.43489 0.651812 0
M  V30 20011 C 1946.13 -2.30764 -0.0406423 0
M  V30 20012 C 1947.1 -1.44669 -0.816091 0
M  V30 20013 O 1948.28 -1.73541 -0.792978 0
M  V30 20014 C 1945.42 -3.30232 -1.00206 0
M  V30 20015 C 1944.53 -4.31425 -0.222857 0
M  V30 20016 C 1943.67 -5.17975 -1.17794 0
M  V30 20017 C 1942.71 -6.10862 -0.389096 0
M  V30 20018 N 1941.85 -6.90041 -1.2957 0
M  V30 20019 H 1946.69 -2.89431 0.709482 0
M  V30 20020 H 1944.22 -1.42585 0.361636 0
M  V30 20021 H 1946.18 -3.86408 -1.57306 0
M  V30 20022 H 1944.81 -2.73217 -1.71907 0
M  V30 20023 H 1943.86 -3.77554 0.464409 0
M  V30 20024 H 1945.17 -4.97268 0.390608 0
M  V30 20025 H 1944.33 -5.7877 -1.81962 0
M  V30 20026 H 1943.07 -4.52254 -1.82532 0
M  V30 20027 H 1942.07 -5.49156 0.265943 0
M  V30 20028 H 1943.3 -6.78625 0.253855 0
M  V30 20029 H 1941.24 -6.2697 -1.9299 0
M  V30 20030 H 1941.16 -7.52401 -0.736762 0
M  V30 20031 H 1942.43 -7.55342 -1.92557 0
M  V30 20032 N 1946.66 -0.393643 -1.52605 0
M  V30 20033 C 1947.9 0.187154 -2.01633 0
M  V30 20034 C 1948.23 1.46451 -1.27993 0
M  V30 20035 O 1947.49 1.92169 -0.370063 0
M  V30 20036 C 1947.79 0.497148 -3.53925 0
M  V30 20037 C 1947.45 -0.689176 -4.45602 0
M  V30 20038 C 1946.11 -1.01462 -4.70382 0
M  V30 20039 C 1948.47 -1.48262 -4.99668 0
M  V30 20040 C 1945.79 -2.13497 -5.46476 0
M  V30 20041 C 1948.15 -2.59361 -5.76987 0
M  V30 20042 C 1946.81 -2.92409 -6.00044 0
M  V30 20043 H 1946.08 0.0684846 -0.737828 0
M  V30 20044 H 1948.73 -0.531882 -1.83965 0
M  V30 20045 H 1947.03 1.29756 -3.6969 0
M  V30 20046 H 1948.73 0.959239 -3.89358 0
M  V30 20047 H 1945.32 -0.425524 -4.26482 0
M  V30 20048 H 1949.5 -1.24443 -4.80445 0
M  V30 20049 H 1944.76 -2.39467 -5.62553 0
M  V30 20050 H 1948.93 -3.21241 -6.17881 0
M  V30 20051 H 1946.56 -3.79341 -6.5879 0
M  V30 20052 N 1948.14 1.57115 -0.123593 0
M  V30 20053 C 1949.09 2.12114 0.836157 0
M  V30 20054 C 1950.07 1.04305 1.22512 0
M  V30 20055 O 1951.26 1.3053 1.19545 0
M  V30 20056 C 1948.39 2.72776 2.08442 0
M  V30 20057 C 1947.48 3.87673 1.71962 0
M  V30 20058 N 1947.87 4.9453 1.0618 0
M  V30 20059 C 1946.17 3.97942 2.0139 0
M  V30 20060 C 1946.87 5.74861 0.889393 0
M  V30 20061 N 1945.84 5.24838 1.41586 0
M  V30 20062 H 1949.64 2.92108 0.324092 0
M  V30 20063 H 1947.16 1.62209 0.0787292 0
M  V30 20064 H 1949.16 3.10525 2.78172 0
M  V30 20065 H 1947.82 1.94247 2.60188 0
M  V30 20066 H 1948.83 5.12797 0.725245 0
M  V30 20067 H 1945.5 3.30461 2.5515 0
M  V30 20068 H 1946.89 6.70866 0.372697 0
M  V30 20069 N 1949.61 -0.150187 1.56883 0
M  V30 20070 C 1951.02 -0.710574 1.72649 0
M  V30 20071 C 1951.38 -1.81812 0.737493 0
M  V30 20072 O 1950.5 -2.16184 -0.0965795 0
M  V30 20073 C 1951.1 -1.29572 3.13044 0
M  V30 20074 C 1949.65 -1.80271 3.30423 0
M  V30 20075 C 1948.8 -0.689923 2.6858 0
M  V30 20076 H 1951.75 0.0754473 1.58521 0
M  V30 20077 H 1951.77 -2.16552 3.12867 0
M  V30 20078 H 1951.29 -0.489412 3.85002 0
M  V30 20079 H 1949.39 -2.63479 2.63457 0
M  V30 20080 H 1949.5 -1.93362 4.38347 0
M  V30 20081 H 1947.86 -1.11574 2.28961 0
M  V30 20082 H 1948.65 0.104892 3.4314 0
M  V30 20083 N 1951.09 -1.51916 -0.419434 0
M  V30 20084 C 1952.37 -1.56023 -1.17967 0
M  V30 20085 C 1952.75 -0.335094 -2.08423 0
M  V30 20086 O 1952.1 0.678731 -2.18187 0
M  V30 20087 C 1952.31 -2.8836 -1.96595 0
M  V30 20088 C 1953.66 -3.40979 -2.53019 0
M  V30 20089 O 1954.68 -2.90031 -2.06786 0
M  V30 20090 O 1953.54 -4.2992 -3.37388 0
M  V30 20091 H 1950.63 -0.628035 -0.538053 0
M  V30 20092 H 1953.18 -1.64239 -0.42705 0
M  V30 20093 H 1951.95 -3.6898 -1.30267 0
M  V30 20094 H 1951.57 -2.83389 -2.78884 0
M  V30 20095 N 1952.57 0.676023 -1.42365 0
M  V30 20096 C 1953.82 1.43183 -1.42062 0
M  V30 20097 C 1954.13 1.95559 -0.0400321 0
M  V30 20098 O 1955.34 2.71365 0.0855959 0
M  V30 20099 C 1953.79 2.5901 -2.49884 0
M  V30 20100 C 1953.4 2.13338 -3.93943 0
M  V30 20101 C 1955.15 3.36528 -2.58746 0
M  V30 20102 C 1953.05 3.2624 -4.93276 0
M  V30 20103 H 1951.98 0.537899 -0.528376 0
M  V30 20104 H 1954.63 0.732001 -1.68268 0
M  V30 20105 H 1953.02 3.31355 -2.16841 0
M  V30 20106 H 1954.19 1.48154 -4.36334 0
M  V30 20107 H 1952.51 1.48761 -3.8892 0
M  V30 20108 H 1955.1 4.2061 -3.30138 0
M  V30 20109 H 1955.45 3.83036 -1.63061 0
M  V30 20110 H 1955.98 2.71252 -2.90977 0
M  V30 20111 H 1952.72 2.84724 -5.90434 0
M  V30 20112 H 1952.24 3.90209 -4.55518 0
M  V30 20113 H 1953.92 3.91725 -5.14938 0
M  V30 20114 N 1954.05 1.28517 0.912209 0
M  V30 20115 C 1955 1.12437 2.03619 0
M  V30 20116 C 1955.99 0.0432331 1.69345 0
M  V30 20117 O 1957.2 0.202116 1.78862 0
M  V30 20118 H 1953.57 0.34694 0.667185 0
M  V30 20119 H 1955.54 2.07625 2.14323 0
M  V30 20120 C 1954.29 0.804603 3.38262 0
M  V30 20121 H 1953.61 1.62849 3.65131 0
M  V30 20122 H 1955.05 0.732055 4.17633 0
M  V30 20123 C 1953.51 -0.491715 3.33292 0
M  V30 20124 O 1954.04 -1.52155 3.71768 0
M  V30 20125 N 1952.25 -0.493007 2.86388 0
M  V30 20126 H 1951.8 0.34549 2.55273 0
M  V30 20127 H 1951.75 -1.36038 2.83445 0
M  V30 20128 N 1955.53 -1.12086 1.1079 0
M  V30 20129 C 1956.77 -1.83949 0.853848 0
M  V30 20130 C 1957.11 -1.8407 -0.619029 0
M  V30 20131 O 1956.38 -1.28889 -1.45664 0
M  V30 20132 C 1956.66 -3.31452 1.40754 0
M  V30 20133 C 1956.52 -3.39765 2.94754 0
M  V30 20134 C 1957.84 -4.2732 1.05288 0
M  V30 20135 H 1954.95 -0.667872 0.311635 0
M  V30 20136 H 1957.6 -1.31475 1.37166 0
M  V30 20137 H 1955.75 -3.7627 0.967112 0
M  V30 20138 H 1957.42 -3.03555 3.4735 0
M  V30 20139 H 1955.66 -2.80196 3.31168 0
M  V30 20140 H 1956.33 -4.43553 3.2858 0
M  V30 20141 H 1958.81 -3.90647 1.43297 0
M  V30 20142 H 1957.68 -5.28929 1.46716 0
M  V30 20143 H 1957.95 -4.42084 -0.0372227 0
M  V30 20144 N 1957 -0.897194 -1.29569 0
M  V30 20145 C 1958.23 -0.536391 -1.99515 0
M  V30 20146 C 1958.64 0.882674 -1.67348 0
M  V30 20147 O 1957.99 1.59379 -0.913459 0
M  V30 20148 C 1958.05 -0.645863 -3.53651 0
M  V30 20149 C 1957.71 -2.03145 -4.09367 0
M  V30 20150 C 1958.71 -3.00231 -4.24449 0
M  V30 20151 C 1956.39 -2.34015 -4.44457 0
M  V30 20152 C 1958.39 -4.26314 -4.73852 0
M  V30 20153 C 1956.07 -3.60341 -4.93556 0
M  V30 20154 C 1957.07 -4.56304 -5.08208 0
M  V30 20155 O 1956.76 -5.80387 -5.56243 0
M  V30 20156 H 1956.49 -0.204698 -0.644263 0
M  V30 20157 H 1959.05 -1.20784 -1.66134 0
M  V30 20158 H 1957.28 0.0826055 -3.86612 0
M  V30 20159 H 1958.97 -0.294573 -4.0483 0
M  V30 20160 H 1959.73 -2.77696 -3.9763 0
M  V30 20161 H 1955.61 -1.60082 -4.32313 0
M  V30 20162 H 1959.15 -5.01222 -4.85203 0
M  V30 20163 H 1955.05 -3.82707 -5.19813 0
M  V30 20164 H 1955.82 -5.82941 -5.74562 0
M  V30 20165 N 1958.48 1.43142 -0.659413 0
M  V30 20166 C 1959.73 2.0096 -0.172631 0
M  V30 20167 C 1960.04 1.52669 1.22277 0
M  V30 20168 O 1961.25 2.02802 1.8051 0
M  V30 20169 C 1959.71 3.58975 -0.257802 0
M  V30 20170 C 1959.31 4.16259 -1.65628 0
M  V30 20171 C 1961.06 4.24155 0.171057 0
M  V30 20172 C 1958.97 5.66588 -1.69505 0
M  V30 20173 H 1957.9 0.751547 -0.0607765 0
M  V30 20174 H 1960.55 1.64042 -0.822352 0
M  V30 20175 H 1958.93 3.93325 0.459538 0
M  V30 20176 H 1960.1 3.93398 -2.39947 0
M  V30 20177 H 1958.42 3.63473 -2.03165 0
M  V30 20178 H 1961.01 5.34454 0.162026 0
M  V30 20179 H 1961.36 3.98521 1.2036 0
M  V30 20180 H 1961.89 3.94711 -0.494745 0
M  V30 20181 H 1958.63 5.96998 -2.7069 0
M  V30 20182 H 1958.15 5.91486 -0.995201 0
M  V30 20183 H 1959.83 6.30736 -1.44156 0
M  V30 20184 N 1959.96 0.40173 1.52394 0
M  V30 20185 C 1961.21 -0.177771 2.00915 0
M  V30 20186 C 1961.52 -1.46854 1.29203 0
M  V30 20187 O 1962.73 -2.12884 1.68501 0
M  V30 20188 C 1961.18 -0.367359 3.5802 0
M  V30 20189 C 1960.79 0.910882 4.38642 0
M  V30 20190 C 1962.54 -0.902552 4.14794 0
M  V30 20191 C 1960.44 0.688888 5.87374 0
M  V30 20192 H 1959.37 -0.0702091 0.750724 0
M  V30 20193 H 1962.02 0.52604 1.75798 0
M  V30 20194 H 1960.41 -1.13332 3.79436 0
M  V30 20195 H 1961.58 1.68242 4.28989 0
M  V30 20196 H 1959.9 1.37194 3.9315 0
M  V30 20197 H 1962.49 -1.08455 5.23585 0
M  V30 20198 H 1962.84 -1.87515 3.71677 0
M  V30 20199 H 1963.37 -0.19584 3.97318 0
M  V30 20200 H 1960.11 1.63284 6.34837 0
M  V30 20201 H 1959.63 -0.0434889 5.99784 0
M  V30 20202 H 1961.31 0.328207 6.46167 0
M  V30 20203 N 1961.44 -1.57047 0.131923 0
M  V30 20204 C 1962.35 -2.19545 -0.826862 0
M  V30 20205 C 1963.36 -1.17532 -1.28305 0
M  V30 20206 O 1964.54 -1.50052 -1.34337 0
M  V30 20207 C 1961.61 -2.79284 -2.0543 0
M  V30 20208 C 1960.67 -3.96375 -1.64879 0
M  V30 20209 C 1959.9 -4.53256 -2.81771 0
M  V30 20210 O 1960.12 -4.09022 -3.97564 0
M  V30 20211 O 1959.06 -5.43748 -2.58111 0
M  V30 20212 H 1962.88 -3.01957 -0.324926 0
M  V30 20213 H 1960.47 -1.49102 -0.0943495 0
M  V30 20214 H 1962.35 -3.17312 -2.77292 0
M  V30 20215 H 1961.02 -1.99895 -2.54605 0
M  V30 20216 H 1959.93 -3.63092 -0.900848 0
M  V30 20217 H 1961.26 -4.77238 -1.20434 0
M  V30 20218 N 1962.92 0.141865 -1.5696 0
M  V30 20219 C 1964.16 0.854874 -1.83901 0
M  V30 20220 C 1964.5 1.80586 -0.714297 0
M  V30 20221 O 1963.77 1.92449 0.281695 0
M  V30 20222 C 1964.05 1.62486 -3.21357 0
M  V30 20223 C 1963.91 0.695015 -4.44398 0
M  V30 20224 C 1965.23 2.5862 -3.56095 0
M  V30 20225 H 1962.34 0.309334 -0.66894 0
M  V30 20226 H 1964.99 0.119882 -1.89621 0
M  V30 20227 H 1963.14 2.25143 -3.16612 0
M  V30 20228 H 1964.81 0.0790536 -4.61232 0
M  V30 20229 H 1963.05 0.00493655 -4.338 0
M  V30 20230 H 1963.72 1.26992 -5.37194 0
M  V30 20231 H 1966.2 2.06079 -3.61484 0
M  V30 20232 H 1965.07 3.09542 -4.53294 0
M  V30 20233 H 1965.34 3.40219 -2.82319 0
M  V30 20234 N 1964.39 1.52136 0.411372 0
M  V30 20235 C 1965.81 1.40889 0.749825 0
M  V30 20236 C 1966.01 0.511617 1.94897 0
M  V30 20237 O 1965.07 -0.0234451 2.52489 0
M  V30 20238 C 1966.38 2.83378 1.00586 0
M  V30 20239 C 1967.93 2.92706 1.10871 0
M  V30 20240 C 1968.4 4.36157 1.39752 0
M  V30 20241 N 1969.89 4.39382 1.46622 0
M  V30 20242 C 1970.63 5.47436 1.70591 0
M  V30 20243 N 1970.12 6.65612 1.92179 0
M  V30 20244 N 1971.92 5.34949 1.72587 0
M  V30 20245 H 1964.07 2.09009 -0.377998 0
M  V30 20246 H 1966.33 0.941963 -0.106819 0
M  V30 20247 H 1966.04 3.51147 0.197136 0
M  V30 20248 H 1965.91 3.24285 1.92663 0
M  V30 20249 H 1968.3 2.25118 1.90803 0
M  V30 20250 H 1968.38 2.55258 0.166361 0
M  V30 20251 H 1968.02 5.04303 0.603387 0
M  V30 20252 H 1967.95 4.71139 2.35236 0
M  V30 20253 H 1970.44 3.54194 1.31738 0
M  V30 20254 H 1970.76 7.43745 2.09912 0
M  V30 20255 H 1969.1 6.68681 1.89449 0
M  V30 20256 H 1972.29 4.41602 1.55258 0
M  V30 20257 H 1972.47 6.19234 1.90929 0
M  V30 20258 N 1965.87 -0.668464 1.42721 0
M  V30 20259 C 1966.78 -1.81118 1.49109 0
M  V30 20260 C 1967.8 -1.69815 0.379331 0
M  V30 20261 O 1968.98 -1.91254 0.631187 0
M  V30 20262 C 1966.04 -3.17303 1.39713 0
M  V30 20263 C 1965.1 -3.40515 2.61434 0
M  V30 20264 C 1964.33 -4.70203 2.52477 0
M  V30 20265 O 1964.56 -5.48536 1.56411 0
M  V30 20266 O 1963.49 -4.948 3.42719 0
M  V30 20267 H 1967.32 -1.78684 2.45572 0
M  V30 20268 H 1964.9 -0.825017 1.24554 0
M  V30 20269 H 1966.78 -3.98557 1.36859 0
M  V30 20270 H 1965.46 -3.2036 0.463785 0
M  V30 20271 H 1964.37 -2.59085 2.69863 0
M  V30 20272 H 1965.7 -3.42293 3.53689 0
M  V30 20273 N 1967.35 -1.28999 -0.905381 0
M  V30 20274 C 1968.3 -1.13515 -2.0302 0
M  V30 20275 C 1969.29 -0.0522132 -1.6932 0
M  V30 20276 O 1970.5 -0.211599 -1.78752 0
M  V30 20277 H 1966.87 -0.350474 -0.665336 0
M  V30 20278 H 1968.85 -2.08758 -2.13219 0
M  V30 20279 C 1967.59 -0.822531 -3.37831 0
M  V30 20280 H 1966.92 -1.64783 -3.64262 0
M  V30 20281 H 1968.36 -0.754193 -4.17238 0
M  V30 20282 C 1966.82 0.474033 -3.33548 0
M  V30 20283 O 1967.35 1.50182 -3.7257 0
M  V30 20284 N 1965.55 0.477812 -2.86645 0
M  V30 20285 H 1965.1 -0.359023 -2.55086 0
M  V30 20286 H 1965.06 1.34533 -2.84162 0
M  V30 20287 N 1968.83 1.11497 -1.11383 0
M  V30 20288 C 1969.78 2.1752 -0.771611 0
M  V30 20289 C 1970.75 1.64106 0.256616 0
M  V30 20290 O 1971.93 1.90331 0.133672 0
M  V30 20291 C 1969.07 3.44396 -0.220313 0
M  V30 20292 C 1968.18 4.11817 -1.30503 0
M  V30 20293 C 1967.32 5.26375 -0.714331 0
M  V30 20294 C 1966.36 5.85679 -1.77894 0
M  V30 20295 N 1965.5 6.91634 -1.20778 0
M  V30 20296 H 1970.34 2.46138 -1.67989 0
M  V30 20297 H 1967.87 1.20832 -0.838927 0
M  V30 20298 H 1969.83 4.17035 0.117286 0
M  V30 20299 H 1968.46 3.16164 0.651161 0
M  V30 20300 H 1967.51 3.37258 -1.75959 0
M  V30 20301 H 1968.82 4.5195 -2.11051 0
M  V30 20302 H 1967.98 6.05819 -0.326754 0
M  V30 20303 H 1966.72 4.87546 0.12248 0
M  V30 20304 H 1965.72 5.04914 -2.17583 0
M  V30 20305 H 1966.95 6.26576 -2.61877 0
M  V30 20306 H 1964.89 6.54824 -0.392602 0
M  V30 20307 H 1964.81 7.30419 -1.94998 0
M  V30 20308 H 1966.08 7.74884 -0.847072 0
M  V30 20309 N 1970.31 0.904053 1.29092 0
M  V30 20310 C 1971.54 0.547758 1.99517 0
M  V30 20311 C 1971.95 -0.868589 1.67633 0
M  V30 20312 O 1971.31 -1.57394 0.923758 0
M  V30 20313 C 1971.36 0.735683 3.53935 0
M  V30 20314 O 1971.08 2.09629 3.84691 0
M  V30 20315 C 1972.58 0.38492 4.41626 0
M  V30 20316 H 1969.8 0.209762 0.63737 0
M  V30 20317 H 1972.34 1.2146 1.64523 0
M  V30 20318 H 1970.5 0.11597 3.87226 0
M  V30 20319 H 1970.91 2.12883 4.79355 0
M  V30 20320 H 1972.39 0.567226 5.49078 0
M  V30 20321 H 1972.86 -0.678298 4.33931 0
M  V30 20322 H 1973.47 0.981759 4.13813 0
M  V30 20323 N 1971.79 -1.4279 0.666995 0
M  V30 20324 C 1973.03 -2.01245 0.185662 0
M  V30 20325 C 1973.35 -1.52966 -1.2094 0
M  V30 20326 O 1972.62 -0.748036 -1.81056 0
M  V30 20327 H 1971.2 -0.74411 0.0656484 0
M  V30 20328 H 1973.87 -1.74814 0.861754 0
M  V30 20329 H 1972.96 -3.11575 0.180905 0
M  V30 20330 N 1973.26 -0.409806 -1.52179 0
M  V30 20331 C 1974.68 -0.0607174 -1.59484 0
M  V30 20332 C 1974.88 1.42703 -1.42261 0
M  V30 20333 O 1973.94 2.19394 -1.24991 0
M  V30 20334 C 1975.25 -0.556238 -2.95511 0
M  V30 20335 C 1976.8 -0.514272 -3.08746 0
M  V30 20336 C 1977.27 -0.986314 -4.47254 0
M  V30 20337 N 1978.76 -0.943162 -4.53496 0
M  V30 20338 C 1979.5 -1.27959 -5.5894 0
M  V30 20339 N 1978.99 -1.6875 -6.71934 0
M  V30 20340 N 1980.79 -1.19951 -5.49152 0
M  V30 20341 H 1972.94 -1.37813 -1.61621 0
M  V30 20342 H 1975.2 -0.566181 -0.760357 0
M  V30 20343 H 1974.91 -1.5961 -3.13397 0
M  V30 20344 H 1974.78 0.033749 -3.77185 0
M  V30 20345 H 1977.17 0.516546 -2.90544 0
M  V30 20346 H 1977.25 -1.14032 -2.28977 0
M  V30 20347 H 1976.89 -2.01546 -4.66199 0
M  V30 20348 H 1976.82 -0.337071 -5.2552 0
M  V30 20349 H 1979.31 -0.64326 -3.72385 0
M  V30 20350 H 1979.63 -1.9273 -7.48381 0
M  V30 20351 H 1977.97 -1.72654 -6.73213 0
M  V30 20352 H 1981.16 -0.879693 -4.5976 0
M  V30 20353 H 1981.34 -1.465 -6.31222 0
M  V30 20354 N 1974.74 1.56975 -0.14025 0
M  V30 20355 C 1975.67 2.12183 0.839848 0
M  V30 20356 C 1976.65 1.04364 1.24687 0
M  V30 20357 O 1977.84 1.32153 1.34417 0
M  V30 20358 C 1974.96 2.636 2.1268 0
M  V30 20359 C 1974.01 3.83503 1.86622 0
M  V30 20360 S 1974.84 5.24837 1.0633 0
M  V30 20361 C 1976 5.79638 2.36159 0
M  V30 20362 H 1976.23 2.94984 0.370337 0
M  V30 20363 H 1973.76 1.54223 0.0739155 0
M  V30 20364 H 1975.72 2.93875 2.86614 0
M  V30 20365 H 1974.38 1.80942 2.56747 0
M  V30 20366 H 1973.58 4.177 2.82033 0
M  V30 20367 H 1973.18 3.53954 1.208 0
M  V30 20368 H 1975.47 5.90658 3.31858 0
M  V30 20369 H 1976.41 6.77328 2.06476 0
M  V30 20370 H 1976.82 5.07837 2.46499 0
M  V30 20371 N 1976.22 -0.133539 1.57033 0
M  V30 20372 C 1977.44 -0.862393 1.8862 0
M  V30 20373 C 1977.87 -1.73328 0.730696 0
M  V30 20374 O 1977.23 -1.78466 -0.319297 0
M  V30 20375 C 1977.28 -1.68381 3.18873 0
M  V30 20376 O 1976.38 -2.78939 3.03755 0
M  V30 20377 H 1975.72 -0.239391 0.619345 0
M  V30 20378 H 1978.25 -0.120306 2.04246 0
M  V30 20379 H 1978.26 -2.07606 3.51232 0
M  V30 20380 H 1976.94 -1.0444 4.02573 0
M  V30 20381 H 1975.51 -2.43022 2.82833 0
M  V30 20382 N 1977.7 -1.52352 -0.403298 0
M  V30 20383 C 1978.97 -1.57265 -1.16305 0
M  V30 20384 C 1979.35 -0.357181 -2.08056 0
M  V30 20385 O 1978.7 0.655551 -2.18894 0
M  V30 20386 C 1978.91 -2.90429 -1.93525 0
M  V30 20387 C 1980.26 -3.43643 -2.49388 0
M  V30 20388 O 1981.28 -2.92208 -2.03699 0
M  V30 20389 O 1980.14 -4.33474 -3.32809 0
M  V30 20390 H 1977.24 -0.633707 -0.531361 0
M  V30 20391 H 1979.78 -1.64682 -0.409607 0
M  V30 20392 H 1978.56 -3.70341 -1.26346 0
M  V30 20393 H 1978.18 -2.86331 -2.75862 0
M  V30 20394 N 1979.18 0.660885 -1.43074 0
M  V30 20395 C 1980.11 1.78579 -1.50438 0
M  V30 20396 C 1981.09 1.66253 -0.359703 0
M  V30 20397 O 1982.27 1.85465 -0.575893 0
M  V30 20398 C 1979.4 3.16963 -1.41956 0
M  V30 20399 C 1978.36 3.44043 -2.54594 0
M  V30 20400 C 1977.68 4.82147 -2.31166 0
M  V30 20401 C 1978.98 3.3955 -3.96867 0
M  V30 20402 H 1980.68 1.72673 -2.4459 0
M  V30 20403 H 1978.22 0.829317 -1.17721 0
M  V30 20404 H 1980.17 3.95406 -1.45713 0
M  V30 20405 H 1978.9 3.23581 -0.443048 0
M  V30 20406 H 1977.56 2.67969 -2.50177 0
M  V30 20407 H 1977.21 4.85432 -1.31776 0
M  V30 20408 H 1976.91 5.01228 -3.06667 0
M  V30 20409 H 1978.43 5.62857 -2.36695 0
M  V30 20410 H 1979.84 4.0794 -4.02813 0
M  V30 20411 H 1978.24 3.70166 -4.72332 0
M  V30 20412 H 1979.31 2.37868 -4.22548 0
M  V30 20413 N 1980.65 1.29477 0.898527 0
M  V30 20414 C 1981.88 1.20529 1.68783 0
M  V30 20415 C 1982.3 -0.230536 1.86682 0
M  V30 20416 O 1981.66 -1.1664 1.38798 0
M  V30 20417 C 1981.71 1.92501 3.04919 0
M  V30 20418 O 1980.81 1.24286 3.93226 0
M  V30 20419 H 1980.16 0.417586 0.516254 0
M  V30 20420 H 1982.69 1.71066 1.1224 0
M  V30 20421 H 1982.7 2.01001 3.55053 0
M  V30 20422 H 1981.37 2.96934 2.9121 0
M  V30 20423 H 1979.95 1.24052 3.51661 0
M  V30 20424 N 1982.13 -1.10905 1.11972 0
M  V30 20425 C 1983.38 -1.83033 0.873311 0
M  V30 20426 C 1983.71 -1.84716 -0.599472 0
M  V30 20427 O 1982.99 -1.30427 -1.44288 0
M  V30 20428 C 1983.27 -3.29941 1.44261 0
M  V30 20429 C 1983.12 -3.36619 2.98341 0
M  V30 20430 C 1984.44 -4.26179 1.09815 0
M  V30 20431 H 1981.56 -0.664529 0.318701 0
M  V30 20432 H 1984.2 -1.30012 1.38553 0
M  V30 20433 H 1982.35 -3.75223 1.00697 0
M  V30 20434 H 1984.02 -2.99854 3.5055 0
M  V30 20435 H 1982.27 -2.76668 3.34122 0
M  V30 20436 H 1982.94 -4.40043 3.33266 0
M  V30 20437 H 1985.41 -3.89105 1.47433 0
M  V30 20438 H 1984.29 -5.27343 1.52318 0
M  V30 20439 H 1984.55 -4.42099 0.00966838 0
M  V30 20440 N 1983.61 -0.910886 -1.2861 0
M  V30 20441 C 1984.86 -0.53847 -1.94379 0
M  V30 20442 C 1985.17 0.92185 -1.72515 0
M  V30 20443 O 1986.38 1.40229 -2.32482 0
M  V30 20444 C 1984.83 -0.91216 -3.48149 0
M  V30 20445 C 1984.44 -2.39201 -3.78796 0
M  V30 20446 C 1986.19 -0.610192 -4.20092 0
M  V30 20447 C 1984.09 -2.70598 -5.25862 0
M  V30 20448 H 1983.02 -0.197657 -0.727632 0
M  V30 20449 H 1985.67 -1.10941 -1.46165 0
M  V30 20450 H 1984.06 -0.270034 -3.95078 0
M  V30 20451 H 1985.23 -3.08063 -3.42686 0
M  V30 20452 H 1983.55 -2.66414 -3.20019 0
M  V30 20453 H 1986.14 -0.821472 -5.28352 0
M  V30 20454 H 1986.49 0.451862 -4.1384 0
M  V30 20455 H 1987.02 -1.21066 -3.7893 0
M  V30 20456 H 1983.76 -3.75645 -5.37188 0
M  V30 20457 H 1983.28 -2.0637 -5.6318 0
M  V30 20458 H 1984.96 -2.57451 -5.93572 0
M  V30 20459 N 1985.09 1.42434 -0.674558 0
M  V30 20460 C 1986.34 2.01144 -0.196332 0
M  V30 20461 C 1986.66 1.53605 1.20127 0
M  V30 20462 O 1985.93 0.757627 1.80657 0
M  V30 20463 H 1984.51 0.743751 -0.0695937 0
M  V30 20464 H 1987.17 1.74354 -0.871013 0
M  V30 20465 H 1986.27 3.11475 -0.197426 0
M  V30 20466 N 1986.57 0.417871 1.51959 0
M  V30 20467 C 1987.52 -0.420841 2.24082 0
M  V30 20468 C 1988.5 -1.00627 1.25551 0
M  V30 20469 O 1989.69 -0.927636 1.50745 0
M  V30 20470 C 1986.82 -1.5322 3.07211 0
M  V30 20471 C 1985.91 -0.957122 4.13159 0
M  V30 20472 N 1986.3 -0.109467 5.05682 0
M  V30 20473 C 1984.6 -1.22673 4.28797 0
M  V30 20474 C 1985.3 0.211436 5.81316 0
M  V30 20475 N 1984.27 -0.399968 5.42127 0
M  V30 20476 H 1988.08 0.232982 2.92975 0
M  V30 20477 H 1985.59 0.228798 1.6078 0
M  V30 20478 H 1987.59 -2.14574 3.57441 0
M  V30 20479 H 1986.25 -2.18856 2.39859 0
M  V30 20480 H 1987.26 0.25551 5.17269 0
M  V30 20481 H 1983.93 -1.88203 3.72674 0
M  V30 20482 H 1985.32 0.900024 6.65845 0
M  V30 20483 N 1988.04 -1.56898 0.148573 0
M  V30 20484 C 1989.46 -1.82957 -0.371991 0
M  V30 20485 C 1989.81 -1.06735 -1.64627 0
M  V30 20486 O 1988.93 -0.313128 -2.14123 0
M  V30 20487 C 1989.53 -3.31871 -0.681682 0
M  V30 20488 C 1988.09 -3.58506 -1.14676 0
M  V30 20489 C 1987.23 -2.76774 -0.170675 0
M  V30 20490 H 1990.18 -1.54248 0.373244 0
M  V30 20491 H 1990.2 -3.48112 -1.53618 0
M  V30 20492 H 1989.72 -3.8732 0.245938 0
M  V30 20493 H 1987.82 -3.08445 -2.09027 0
M  V30 20494 H 1987.93 -4.66961 -1.07165 0
M  V30 20495 H 1986.29 -2.45903 -0.663611 0
M  V30 20496 H 1987.08 -3.34995 0.750563 0
M  V30 20497 N 1989.52 0.125209 -1.57102 0
M  V30 20498 C 1990.77 0.832627 -1.83712 0
M  V30 20499 C 1991.08 1.81336 -0.733261 0
M  V30 20500 O 1992.29 2.56651 -0.885592 0
M  V30 20501 C 1990.75 1.53143 -3.25692 0
M  V30 20502 C 1990.35 0.592004 -4.44071 0
M  V30 20503 C 1992.1 2.22435 -3.61556 0
M  V30 20504 C 1990.01 1.29368 -5.77077 0
M  V30 20505 H 1988.94 0.314685 -0.685193 0
M  V30 20506 H 1991.59 0.0853544 -1.83301 0
M  V30 20507 H 1989.97 2.32511 -3.20554 0
M  V30 20508 H 1991.14 -0.16801 -4.60494 0
M  V30 20509 H 1989.46 0.00637692 -4.164 0
M  V30 20510 H 1992.05 2.75611 -4.58195 0
M  V30 20511 H 1992.4 2.99947 -2.88683 0
M  V30 20512 H 1992.93 1.49962 -3.68451 0
M  V30 20513 H 1989.67 0.559975 -6.53104 0
M  V30 20514 H 1989.19 2.02586 -5.64552 0
M  V30 20515 H 1990.87 1.8286 -6.20622 0
M  V30 20516 N 1991 1.52564 0.395213 0
M  V30 20517 C 1992.28 1.5788 1.1547 0
M  V30 20518 C 1992.66 0.36821 2.07864 0
M  V30 20519 O 1992.01 -0.643933 2.19239 0
M  V30 20520 C 1992.22 2.91451 1.91982 0
M  V30 20521 C 1993.56 3.44961 2.47562 0
M  V30 20522 O 1994.59 2.93284 2.02146 0
M  V30 20523 O 1993.45 4.35233 3.30506 0
M  V30 20524 H 1990.54 0.636516 0.527993 0
M  V30 20525 H 1993.09 1.64897 0.400867 0
M  V30 20526 H 1991.86 3.71006 1.2438 0
M  V30 20527 H 1991.48 2.8779 2.7434 0
M  V30 20528 N 1992.48 -0.653289 1.43422 0
M  V30 20529 C 1993.7 -1.4459 1.4869 0
M  V30 20530 C 1994.13 -1.87801 0.10599 0
M  V30 20531 O 1993.49 -1.5737 -0.90025 0
M  V30 20532 C 1993.53 -2.65713 2.43781 0
M  V30 20533 O 1992.64 -3.64767 1.92402 0
M  V30 20534 H 1991.98 -0.433532 0.502938 0
M  V30 20535 H 1994.51 -0.799423 1.88336 0
M  V30 20536 H 1994.52 -3.13528 2.61082 0
M  V30 20537 H 1993.19 -2.33604 3.44096 0
M  V30 20538 H 1991.77 -3.2391 1.84761 0
M  V30 20539 N 1993.96 -1.29952 -0.891648 0
M  V30 20540 C 1994.87 -1.17673 -2.02954 0
M  V30 20541 C 1995.88 -0.0981428 -1.73723 0
M  V30 20542 O 1997.06 -0.311785 -1.98972 0
M  V30 20543 C 1994.12 -0.862565 -3.35799 0
M  V30 20544 C 1993.18 -2.02583 -3.78495 0
M  V30 20545 C 1992.42 -1.72656 -5.05001 0
M  V30 20546 O 1992.64 -0.651307 -5.66669 0
M  V30 20547 O 1991.57 -2.57698 -5.43944 0
M  V30 20548 H 1995.4 -2.13248 -2.16239 0
M  V30 20549 H 1992.99 -1.09481 -1.01658 0
M  V30 20550 H 1994.87 -0.702274 -4.15507 0
M  V30 20551 H 1993.54 0.0633315 -3.23638 0
M  V30 20552 H 1992.45 -2.2414 -2.99519 0
M  V30 20553 H 1993.78 -2.93321 -3.95251 0
M  V30 20554 N 1995.44 1.1031 -1.12559 0
M  V30 20555 C 1996.66 1.86618 -0.9049 0
M  V30 20556 C 1997.09 1.80164 0.540597 0
M  V30 20557 O 1996.44 1.17252 1.38281 0
M  V30 20558 C 1996.49 3.32903 -1.38592 0
M  V30 20559 O 1995.6 4.08508 -0.565225 0
M  V30 20560 H 1994.94 0.579019 -0.325013 0
M  V30 20561 H 1997.47 1.39359 -1.498 0
M  V30 20562 H 1997.48 3.83753 -1.38556 0
M  V30 20563 H 1996.15 3.36917 -2.43844 0
M  V30 20564 H 1994.73 3.67494 -0.632682 0
M  V30 20565 N 1996.91 0.917694 1.28125 0
M  V30 20566 C 1997.86 0.407628 2.27172 0
M  V30 20567 C 1998.83 -0.520056 1.57749 0
M  V30 20568 O 2000.02 -0.441394 1.85624 0
M  V30 20569 C 1997.16 -0.342648 3.43395 0
M  V30 20570 C 1996.27 0.617993 4.27557 0
M  V30 20571 C 1995.4 -0.151124 5.30985 0
M  V30 20572 C 1994.44 0.802876 6.06812 0
M  V30 20573 N 1993.58 0.0670251 7.02068 0
M  V30 20574 H 1998.42 1.25728 2.70179 0
M  V30 20575 H 1995.96 0.631273 1.32866 0
M  V30 20576 H 1997.91 -0.793873 4.09577 0
M  V30 20577 H 1996.54 -1.15661 3.01367 0
M  V30 20578 H 1995.6 1.18775 3.61382 0
M  V30 20579 H 1996.91 1.3475 4.80254 0
M  V30 20580 H 1996.06 -0.662729 6.03069 0
M  V30 20581 H 1994.8 -0.913657 4.79065 0
M  V30 20582 H 1993.81 1.32582 5.33575 0
M  V30 20583 H 1995.03 1.56503 6.6082 0
M  V30 20584 H 1992.98 -0.677445 6.52493 0
M  V30 20585 H 1992.89 0.736283 7.52406 0
M  V30 20586 H 1994.16 -0.424255 7.78345 0
M  V30 20587 N 1998.39 -1.42074 0.682102 0
M  V30 20588 C 1999.3 -2.34598 0.00845226 0
M  V30 20589 C 2000.32 -1.55494 -0.780873 0
M  V30 20590 O 2001.49 -1.88032 -0.721524 0
M  V30 20591 C 1998.56 -3.34103 -0.926085 0
M  V30 20592 C 1997.62 -4.29102 -0.130475 0
M  V30 20593 C 1996.85 -5.23853 -1.0205 0
M  V30 20594 O 1997.08 -5.23716 -2.26004 0
M  V30 20595 O 1996.01 -6.00004 -0.47739 0
M  V30 20596 H 1999.84 -2.93756 0.770779 0
M  V30 20597 H 1997.42 -1.42701 0.442368 0
M  V30 20598 H 1999.3 -3.95212 -1.46236 0
M  V30 20599 H 1997.98 -2.77408 -1.66814 0
M  V30 20600 H 1996.88 -3.71383 0.450082 0
M  V30 20601 H 1998.22 -4.88858 0.57262 0
M  V30 20602 N 1999.87 -0.425924 -1.51735 0
M  V30 20603 C 2001.15 0.203721 -1.94536 0
M  V30 20604 C 2001.53 1.61124 -1.3639 0
M  V30 20605 O 2000.87 2.21871 -0.54638 0
M  V30 20606 C 2001.08 0.193041 -3.48466 0
M  V30 20607 C 2002.43 0.404204 -4.22672 0
M  V30 20608 O 2003.46 0.271662 -3.55163 0
M  V30 20609 O 2002.32 0.666926 -5.42415 0
M  V30 20610 H 1999.41 0.136115 -0.815722 0
M  V30 20611 H 2001.96 -0.48308 -1.62679 0
M  V30 20612 H 2000.73 -0.791421 -3.83213 0
M  V30 20613 H 2000.35 0.923235 -3.86733 0
M  V30 20614 N 2001.35 1.56817 -0.156891 0
M  V30 20615 C 2002.26 2.20833 0.79183 0
M  V30 20616 C 2003.27 1.19558 1.26419 0
M  V30 20617 O 2004.45 1.5217 1.31933 0
M  V30 20618 C 2001.51 2.82517 2.00961 0
M  V30 20619 C 2000.58 3.98948 1.58552 0
M  V30 20620 C 1999.81 4.57681 2.74525 0
M  V30 20621 O 2000.03 4.15295 3.91007 0
M  V30 20622 O 1998.97 5.47786 2.49428 0
M  V30 20623 H 2002.79 3.02436 0.276846 0
M  V30 20624 H 2000.38 1.49233 0.0706167 0
M  V30 20625 H 2002.26 3.21683 2.72209 0
M  V30 20626 H 2000.93 2.03921 2.51392 0
M  V30 20627 H 1999.84 3.64479 0.84297 0
M  V30 20628 H 2001.17 4.79094 1.12826 0
M  V30 20629 N 2002.83 -0.116876 1.57166 0
M  V30 20630 C 2004.24 -0.673792 1.74118 0
M  V30 20631 C 2004.59 -1.80206 0.775892 0
M  V30 20632 O 2003.71 -2.16341 -0.0507019 0
M  V30 20633 C 2004.31 -1.22903 3.15722 0
M  V30 20634 C 2002.87 -1.73222 3.34172 0
M  V30 20635 C 2002.01 -0.632798 2.69983 0
M  V30 20636 H 2004.96 0.109055 1.58325 0
M  V30 20637 H 2004.99 -2.09867 3.1739 0
M  V30 20638 H 2004.5 -0.407637 3.85953 0
M  V30 20639 H 2002.6 -2.57832 2.68986 0
M  V30 20640 H 2002.71 -1.8402 4.4235 0
M  V30 20641 H 2001.08 -1.06693 2.31276 0
M  V30 20642 H 2001.86 0.177653 3.4284 0
M  V30 20643 N 2004.3 -1.52772 -0.387116 0
M  V30 20644 C 2005.54 -1.69597 -1.14089 0
M  V30 20645 C 2005.91 -0.427661 -1.87177 0
M  V30 20646 O 2007.11 -0.472302 -2.64618 0
M  V30 20647 C 2005.38 -2.89802 -2.09164 0
M  V30 20648 S 2006.94 -3.27225 -2.92352 0
M  V30 20649 H 2003.76 -0.596986 -0.386172 0
M  V30 20650 H 2006.36 -1.90823 -0.425059 0
M  V30 20651 H 2005.06 -3.80332 -1.54195 0
M  V30 20652 H 2004.59 -2.70915 -2.85252 0
M  V30 20653 H 2006.61 -2.77559 -4.11309 0
M  V30 20654 N 2005.78 0.645673 -1.43767 0
M  V30 20655 C 2007.01 1.43799 -1.49454 0
M  V30 20656 C 2007.43 1.87742 -0.115948 0
M  V30 20657 O 2006.79 1.57845 0.891891 0
M  V30 20658 C 2006.84 2.64416 -2.45186 0
M  V30 20659 O 2005.94 3.63742 -1.94334 0
M  V30 20660 H 2005.28 0.430858 -0.50523 0
M  V30 20661 H 2007.81 0.789424 -1.88757 0
M  V30 20662 H 2007.82 3.12139 -2.62741 0
M  V30 20663 H 2006.5 2.31776 -3.4533 0
M  V30 20664 H 2005.07 3.22926 -1.86476 0
M  V30 20665 N 2007.26 1.30423 0.884744 0
M  V30 20666 C 2008.17 1.18747 2.02327 0
M  V30 20667 C 2009.19 0.107354 1.73669 0
M  V30 20668 O 2010.36 0.322332 1.98804 0
M  V30 20669 C 2007.43 0.880361 3.35336 0
M  V30 20670 C 2006.49 2.04587 3.77416 0
M  V30 20671 C 2005.72 1.75332 5.04078 0
M  V30 20672 O 2005.94 0.68135 5.66316 0
M  V30 20673 O 2004.88 2.60579 5.4257 0
M  V30 20674 H 2008.7 2.14391 2.15105 0
M  V30 20675 H 2006.29 1.10019 1.01076 0
M  V30 20676 H 2008.17 0.7243 4.15129 0
M  V30 20677 H 2006.85 -0.0461673 3.23667 0
M  V30 20678 H 2005.75 2.25726 2.98326 0
M  V30 20679 H 2007.09 2.95413 3.9369 0
M  V30 20680 N 2008.74 -1.09711 1.13142 0
M  V30 20681 C 2009.65 -2.19825 0.819391 0
M  V30 20682 C 2010.66 -1.72906 -0.19483 0
M  V30 20683 O 2011.84 -2.01382 -0.0265972 0
M  V30 20684 C 2008.9 -3.45512 0.286717 0
M  V30 20685 C 2007.97 -4.07128 1.36181 0
M  V30 20686 C 2007.2 -5.26816 0.854462 0
M  V30 20687 O 2007.42 -5.69562 -0.309043 0
M  V30 20688 O 2006.36 -5.79481 1.62745 0
M  V30 20689 H 2010.18 -2.48963 1.73928 0
M  V30 20690 H 2007.77 -1.18591 0.908654 0
M  V30 20691 H 2009.65 -4.214 -0.00508436 0
M  V30 20692 H 2008.32 -3.17984 -0.605634 0
M  V30 20693 H 2007.23 -3.32891 1.70689 0
M  V30 20694 H 2008.56 -4.38876 2.2282 0
M  V30 20695 N 2010.22 -0.924476 -1.27637 0
M  V30 20696 C 2011.44 -0.579431 -1.98621 0
M  V30 20697 C 2011.86 0.84181 -1.68994 0
M  V30 20698 O 2011.22 1.55905 -0.948681 0
M  V30 20699 C 2011.27 -0.791898 -3.5272 0
M  V30 20700 O 2010.99 -2.15722 -3.81308 0
M  V30 20701 C 2012.49 -0.45513 -4.40957 0
M  V30 20702 H 2009.71 -0.219875 -0.633953 0
M  V30 20703 H 2012.25 -1.24062 -1.6257 0
M  V30 20704 H 2010.41 -0.17756 -3.86993 0
M  V30 20705 H 2010.82 -2.20483 -4.75907 0
M  V30 20706 H 2012.3 -0.654507 -5.48106 0
M  V30 20707 H 2012.77 0.609177 -4.34955 0
M  V30 20708 H 2013.38 -1.04747 -4.12199 0
M  V30 20709 N 2011.69 1.41711 -0.689627 0
M  V30 20710 C 2012.97 1.95052 -0.146379 0
M  V30 20711 C 2013.35 1.62932 1.34225 0
M  V30 20712 O 2012.7 0.933198 2.08575 0
M  V30 20713 C 2012.91 3.46324 -0.431327 0
M  V30 20714 C 2014.26 4.23106 -0.355847 0
M  V30 20715 O 2015.28 3.54316 -0.365905 0
M  V30 20716 O 2014.14 5.45615 -0.310824 0
M  V30 20717 H 2011.23 0.82692 -0.0115 0
M  V30 20718 H 2013.78 1.5146 -0.765378 0
M  V30 20719 H 2012.55 3.62963 -1.46197 0
M  V30 20720 H 2012.18 3.96997 0.218942 0
M  V30 20721 N 2013.17 0.433965 1.51507 0
M  V30 20722 C 2014.58 -0.0299408 1.86676 0
M  V30 20723 C 2014.93 -1.42245 1.35132 0
M  V30 20724 O 2014.06 -2.0474 0.700735 0
M  V30 20725 C 2014.65 -0.0611079 3.38745 0
M  V30 20726 C 2013.21 -0.469416 3.73461 0
M  V30 20727 C 2012.36 0.340116 2.75206 0
M  V30 20728 H 2015.31 0.649958 1.4478 0
M  V30 20729 H 2015.33 -0.871298 3.7039 0
M  V30 20730 H 2014.84 0.952511 3.7623 0
M  V30 20731 H 2012.95 -1.48876 3.41565 0
M  V30 20732 H 2013.06 -0.196556 4.78697 0
M  V30 20733 H 2011.42 -0.201099 2.53905 0
M  V30 20734 H 2012.21 1.35255 3.15533 0
M  V30 20735 N 2014.65 -1.56732 0.165206 0
M  V30 20736 C 2015.9 -1.96988 -0.482024 0
M  V30 20737 C 2016.23 -1.05093 -1.63307 0
M  V30 20738 O 2015.5 -0.0968503 -1.94259 0
M  V30 20739 C 2015.79 -3.46766 -0.970842 0
M  V30 20740 C 2015.64 -4.4944 0.179956 0
M  V30 20741 C 2016.96 -3.99487 -1.84657 0
M  V30 20742 H 2014.08 -0.716228 -0.173741 0
M  V30 20743 H 2016.72 -1.88347 0.250108 0
M  V30 20744 H 2014.87 -3.54261 -1.59472 0
M  V30 20745 H 2016.54 -4.5401 0.81687 0
M  V30 20746 H 2014.79 -4.25661 0.836383 0
M  V30 20747 H 2015.46 -5.51623 -0.20409 0
M  V30 20748 H 2017.93 -3.94585 -1.32068 0
M  V30 20749 H 2016.81 -5.04715 -2.15763 0
M  V30 20750 H 2017.07 -3.42935 -2.79013 0
M  V30 20751 N 2016.13 0.10854 -1.57226 0
M  V30 20752 C 2017.08 1.13867 -1.97531 0
M  V30 20753 C 2018.06 1.36505 -0.851775 0
M  V30 20754 O 2019.25 1.37422 -1.11554 0
M  V30 20755 C 2016.38 2.4625 -2.39198 0
M  V30 20756 C 2015.47 2.27043 -3.58207 0
M  V30 20757 N 2015.86 1.77671 -4.73568 0
M  V30 20758 C 2014.16 2.5766 -3.64043 0
M  V30 20759 C 2014.86 1.72418 -5.5556 0
M  V30 20760 N 2013.84 2.17145 -4.98346 0
M  V30 20761 H 2017.64 0.749664 -2.84178 0
M  V30 20762 H 2015.15 0.31615 -1.59293 0
M  V30 20763 H 2017.15 3.20769 -2.66295 0
M  V30 20764 H 2015.81 2.859 -1.5392 0
M  V30 20765 H 2016.82 1.47065 -4.96581 0
M  V30 20766 H 2013.5 3.00925 -2.89397 0
M  V30 20767 H 2014.89 1.35411 -6.58113 0
M  V30 20768 N 2017.61 1.52975 0.379009 0
M  V30 20769 C 2018.88 1.59096 1.13789 0
M  V30 20770 C 2019.26 0.390236 2.07462 0
M  V30 20771 O 2018.61 -0.620644 2.1991 0
M  V30 20772 C 2018.82 2.93471 1.8888 0
M  V30 20773 C 2020.17 3.47567 2.43889 0
M  V30 20774 O 2021.19 2.95411 1.99024 0
M  V30 20775 O 2020.05 4.38714 3.25871 0
M  V30 20776 H 2017.15 0.64208 0.521213 0
M  V30 20777 H 2019.69 1.65313 0.383355 0
M  V30 20778 H 2018.46 3.72304 1.20438 0
M  V30 20779 H 2018.09 2.90684 2.71272 0
M  V30 20780 N 2019.08 -0.63804 1.44107 0
M  V30 20781 C 2020.01 -1.76164 1.5326 0
M  V30 20782 C 2021 -1.6566 0.386107 0
M  V30 20783 O 2022.18 -1.84525 0.605326 0
M  V30 20784 C 2019.31 -3.14665 1.4698 0
M  V30 20785 C 2018.26 -3.39949 2.60035 0
M  V30 20786 C 2017.59 -4.78409 2.38808 0
M  V30 20787 C 2018.89 -3.33193 4.02219 0
M  V30 20788 H 2020.58 -1.6876 2.47306 0
M  V30 20789 H 2018.13 -0.810483 1.19026 0
M  V30 20790 H 2020.08 -3.93037 1.51986 0
M  V30 20791 H 2018.81 -3.22835 0.494471 0
M  V30 20792 H 2017.47 -2.63955 2.54408 0
M  V30 20793 H 2017.11 -4.83274 1.39483 0
M  V30 20794 H 2016.81 -4.96285 3.14602 0
M  V30 20795 H 2018.34 -5.5902 2.4562 0
M  V30 20796 H 2019.75 -4.0148 4.09252 0
M  V30 20797 H 2018.15 -3.62605 4.78161 0
M  V30 20798 H 2019.22 -2.31116 4.26279 0
M  V30 20799 N 2020.56 -1.3089 -0.877815 0
M  V30 20800 C 2021.5 -1.12206 -1.98709 0
M  V30 20801 C 2022.47 -0.0277064 -1.62576 0
M  V30 20802 O 2023.66 -0.182634 -1.87613 0
M  V30 20803 C 2020.78 -0.712811 -3.31114 0
M  V30 20804 C 2019.83 -1.80907 -3.86232 0
M  V30 20805 S 2020.66 -3.41295 -4.12647 0
M  V30 20806 C 2021.82 -3.02289 -5.48062 0
M  V30 20807 H 2022.05 -2.06114 -2.14253 0
M  V30 20808 H 2019.59 -1.15286 -1.02706 0
M  V30 20809 H 2021.54 -0.483431 -4.07643 0
M  V30 20810 H 2020.2 0.207029 -3.13417 0
M  V30 20811 H 2019.4 -1.47517 -4.81928 0
M  V30 20812 H 2019 -1.9931 -3.16467 0
M  V30 20813 H 2021.29 -2.50695 -6.29411 0
M  V30 20814 H 2022.23 -3.9692 -5.86396 0
M  V30 20815 H 2022.64 -2.39953 -5.10963 0
M  V30 20816 N 2022.04 1.0911 -1.13723 0
M  V30 20817 C 2023 2.14011 -0.820475 0
M  V30 20818 C 2024 1.59882 0.171573 0
M  V30 20819 O 2025.19 1.7411 -0.0559029 0
M  V30 20820 C 2022.33 3.40178 -0.221758 0
M  V30 20821 H 2023.52 2.43541 -1.75007 0
M  V30 20822 H 2021.07 1.24702 -0.94229 0
M  V30 20823 H 2021.81 3.16277 0.716904 0
M  V30 20824 H 2021.59 3.80759 -0.936208 0
M  V30 20825 H 2023.08 4.17596 -0.0171079 0
M  V30 20826 N 2023.52 0.931232 1.27145 0
M  V30 20827 C 2024.43 0.438807 2.3046 0
M  V30 20828 C 2025.44 -0.482275 1.67183 0
M  V30 20829 O 2026.62 -0.364225 1.98079 0
M  V30 20830 C 2023.69 -0.297266 3.45423 0
M  V30 20831 C 2022.75 0.659161 4.24209 0
M  V30 20832 C 2021.98 -0.0418787 5.33684 0
M  V30 20833 O 2022.2 -1.26062 5.56295 0
M  V30 20834 O 2021.14 0.631751 5.98575 0
M  V30 20835 H 2024.96 1.29675 2.74624 0
M  V30 20836 H 2022.55 0.696718 1.3216 0
M  V30 20837 H 2024.43 -0.712299 4.15336 0
M  V30 20838 H 2023.1 -1.13075 3.03308 0
M  V30 20839 H 2022.01 1.12394 3.56817 0
M  V30 20840 H 2023.34 1.45997 4.70049 0
M  V30 20841 N 2025 -1.41343 0.697132 0
M  V30 20842 C 2026.25 -2.00432 0.225852 0
M  V30 20843 C 2026.56 -1.55857 -1.18186 0
M  V30 20844 O 2027.77 -2.07516 -1.75069 0
M  V30 20845 C 2026.22 -3.58166 0.352888 0
M  V30 20846 C 2025.83 -4.11721 1.76607 0
M  V30 20847 C 2027.57 -4.2446 -0.0585393 0
M  V30 20848 C 2025.48 -5.61895 1.84467 0
M  V30 20849 H 2024.41 -0.749671 0.0806811 0
M  V30 20850 H 2027.06 -1.61804 0.865556 0
M  V30 20851 H 2025.44 -3.94405 -0.355093 0
M  V30 20852 H 2026.62 -3.86898 2.50293 0
M  V30 20853 H 2024.93 -3.57959 2.12731 0
M  V30 20854 H 2027.53 -5.34696 -0.0202684 0
M  V30 20855 H 2027.87 -4.01572 -1.09752 0
M  V30 20856 H 2028.41 -3.93261 0.599221 0
M  V30 20857 H 2025.14 -5.89612 2.86423 0
M  V30 20858 H 2024.66 -5.8864 1.15167 0
M  V30 20859 H 2026.34 -6.26692 1.60828 0
M  V30 20860 N 2026.48 -0.441993 -1.51275 0
M  V30 20861 C 2027.41 0.357557 -2.30746 0
M  V30 20862 C 2028.39 1.01683 -1.36362 0
M  V30 20863 O 2029.57 1.01958 -1.65282 0
M  V30 20864 C 2026.7 1.45642 -3.15287 0
M  V30 20865 C 2025.66 0.920377 -4.17987 0
M  V30 20866 C 2024.98 2.11534 -4.91078 0
M  V30 20867 C 2026.28 -0.0483941 -5.22278 0
M  V30 20868 H 2027.98 -0.30565 -2.97836 0
M  V30 20869 H 2025.52 -0.148438 -1.43233 0
M  V30 20870 H 2027.47 2.02301 -3.69665 0
M  V30 20871 H 2026.2 2.14798 -2.46027 0
M  V30 20872 H 2024.86 0.375962 -3.64667 0
M  V30 20873 H 2024.51 2.7932 -4.18317 0
M  V30 20874 H 2024.21 1.76303 -5.60527 0
M  V30 20875 H 2025.73 2.68738 -5.48281 0
M  V30 20876 H 2027.14 0.428053 -5.717 0
M  V30 20877 H 2025.54 -0.313504 -5.99281 0
M  V30 20878 H 2026.61 -0.983611 -4.74819 0
M  V30 20879 N 2027.95 1.56642 -0.173515 0
M  V30 20880 C 2029.36 1.83525 0.342837 0
M  V30 20881 C 2029.72 1.0934 1.62908 0
M  V30 20882 O 2028.84 0.347154 2.13597 0
M  V30 20883 C 2029.44 3.32914 0.628798 0
M  V30 20884 C 2027.99 3.60285 1.08958 0
M  V30 20885 C 2027.14 2.77011 0.126621 0
M  V30 20886 H 2030.09 1.53635 -0.397736 0
M  V30 20887 H 2030.11 3.50511 1.48061 0
M  V30 20888 H 2029.63 3.8688 -0.307526 0
M  V30 20889 H 2027.73 3.11732 2.04093 0
M  V30 20890 H 2027.84 4.68607 0.997222 0
M  V30 20891 H 2026.2 2.46928 0.624406 0
M  V30 20892 H 2026.99 3.33758 -0.803763 0
M  V30 20893 N 2029.43 -0.1002 1.57281 0
M  V30 20894 C 2030.34 -1.14039 2.05018 0
M  V30 20895 C 2031.36 -1.44178 0.974096 0
M  V30 20896 O 2032.53 -1.54921 1.28691 0
M  V30 20897 C 2029.6 -2.44226 2.46078 0
M  V30 20898 C 2028.66 -2.21315 3.67856 0
M  V30 20899 C 2027.89 -3.45295 4.06948 0
M  V30 20900 O 2028.12 -4.53334 3.46185 0
M  V30 20901 O 2027.05 -3.35185 4.99935 0
M  V30 20902 H 2030.88 -0.764957 2.93908 0
M  V30 20903 H 2028.46 -0.312347 1.46098 0
M  V30 20904 H 2030.34 -3.20895 2.73138 0
M  V30 20905 H 2029.02 -2.81206 1.60327 0
M  V30 20906 H 2027.92 -1.42444 3.4592 0
M  V30 20907 H 2029.26 -1.89231 4.54371 0
M  V30 20908 N 2030.91 -1.53174 -0.370891 0
M  V30 20909 C 2032.16 -1.69098 -1.11409 0
M  V30 20910 C 2032.48 -0.440066 -1.89456 0
M  V30 20911 O 2031.74 0.577901 -1.86973 0
M  V30 20912 C 2032.04 -2.88881 -2.10435 0
M  V30 20913 C 2031.7 -4.25602 -1.48908 0
M  V30 20914 C 2030.37 -4.62782 -1.31856 0
M  V30 20915 C 2032.72 -5.10648 -1.04346 0
M  V30 20916 C 2030.05 -5.8265 -0.688168 0
M  V30 20917 C 2032.4 -6.31157 -0.427093 0
M  V30 20918 C 2031.06 -6.67054 -0.244019 0
M  V30 20919 H 2030.33 -0.618775 -0.407674 0
M  V30 20920 H 2032.98 -1.8735 -0.396513 0
M  V30 20921 H 2031.28 -2.65119 -2.88477 0
M  V30 20922 H 2032.98 -2.98396 -2.67882 0
M  V30 20923 H 2029.57 -3.96324 -1.63173 0
M  V30 20924 H 2033.76 -4.82477 -1.16315 0
M  V30 20925 H 2029.01 -6.09057 -0.53469 0
M  V30 20926 H 2033.19 -6.96361 -0.0735755 0
M  V30 20927 H 2030.81 -7.598 0.246525 0
M  V30 20928 N 2032.39 0.630389 -1.44443 0
M  V30 20929 C 2033.8 1.21202 -1.4201 0
M  V30 20930 C 2034.15 1.95729 -0.135833 0
M  V30 20931 O 2033.27 2.02474 0.763765 0
M  V30 20932 C 2033.87 2.20458 -2.57262 0
M  V30 20933 C 2032.43 2.74047 -2.58021 0
M  V30 20934 C 2031.58 1.49058 -2.33831 0
M  V30 20935 H 2034.53 0.421022 -1.53013 0
M  V30 20936 H 2034.55 3.03074 -2.30057 0
M  V30 20937 H 2034.06 1.66188 -3.50718 0
M  V30 20938 H 2032.16 3.32319 -1.68509 0
M  V30 20939 H 2032.27 3.20036 -3.56531 0
M  V30 20940 H 2030.64 1.77216 -1.82939 0
M  V30 20941 H 2031.42 0.96689 -3.29403 0
M  V30 20942 N 2033.87 1.31354 0.870861 0
M  V30 20943 C 2035.14 1.11627 1.6062 0
M  V30 20944 C 2035.52 -0.329351 2.08515 0
M  V30 20945 O 2034.87 -1.3233 1.86282 0
M  V30 20946 C 2035.08 2.12968 2.76488 0
M  V30 20947 C 2036.43 2.45442 3.46473 0
M  V30 20948 O 2037.45 2.11388 2.86694 0
M  V30 20949 O 2036.31 3.03753 4.54309 0
M  V30 20950 H 2033.41 0.429682 0.706614 0
M  V30 20951 H 2035.95 1.42829 0.916402 0
M  V30 20952 H 2034.72 3.10212 2.38504 0
M  V30 20953 H 2034.35 1.82666 3.53156 0
M  V30 20954 N 2035.34 -1.08505 1.143 0
M  V30 20955 C 2036.59 -1.80248 0.90519 0
M  V30 20956 C 2036.91 -1.87116 -0.56981 0
M  V30 20957 O 2038.11 -2.55262 -0.924844 0
M  V30 20958 C 2036.57 -3.23851 1.56998 0
M  V30 20959 C 2036.18 -3.2522 3.08117 0
M  V30 20960 C 2037.92 -4.00284 1.41325 0
M  V30 20961 C 2035.83 -4.63405 3.67437 0
M  V30 20962 H 2034.76 -0.67549 0.335007 0
M  V30 20963 H 2037.41 -1.21877 1.3718 0
M  V30 20964 H 2035.79 -3.82342 1.03104 0
M  V30 20965 H 2036.96 -2.76441 3.68669 0
M  V30 20966 H 2035.28 -2.62281 3.23415 0
M  V30 20967 H 2037.88 -5.02393 1.83046 0
M  V30 20968 H 2038.22 -4.14747 0.359236 0
M  V30 20969 H 2038.75 -3.4826 1.9225 0
M  V30 20970 H 2035.49 -4.54145 4.72686 0
M  V30 20971 H 2035.01 -5.1247 3.11665 0
M  V30 20972 H 2036.69 -5.3238 3.6767 0
M  V30 20973 N 2036.82 -0.937962 -1.26649 0
M  V30 20974 C 2038.07 -0.57958 -1.93194 0
M  V30 20975 C 2038.38 0.88505 -1.74431 0
M  V30 20976 O 2039.59 1.35267 -2.35404 0
M  V30 20977 C 2038.05 -0.985803 -3.46136 0
M  V30 20978 C 2037.65 -2.47182 -3.73637 0
M  V30 20979 C 2039.4 -0.699162 -4.18703 0
M  V30 20980 C 2037.3 -2.81691 -5.20004 0
M  V30 20981 H 2036.23 -0.213046 -0.723275 0
M  V30 20982 H 2038.89 -1.14017 -1.43779 0
M  V30 20983 H 2037.27 -0.353775 -3.94417 0
M  V30 20984 H 2038.44 -3.15263 -3.36075 0
M  V30 20985 H 2036.76 -2.73143 -3.14296 0
M  V30 20986 H 2039.35 -0.933359 -5.26491 0
M  V30 20987 H 2039.7 0.363979 -4.14706 0
M  V30 20988 H 2040.23 -1.29076 -3.76277 0
M  V30 20989 H 2036.97 -3.86955 -5.29099 0
M  V30 20990 H 2036.49 -2.1827 -5.58675 0
M  V30 20991 H 2038.17 -2.69984 -5.87978 0
M  V30 20992 N 2038.3 1.40971 -0.704618 0
M  V30 20993 C 2039.21 2.34555 -0.0457738 0
M  V30 20994 C 2040.23 1.56717 0.756037 0
M  V30 20995 O 2041.4 1.89156 0.691518 0
M  V30 20996 C 2038.47 3.35534 0.872815 0
M  V30 20997 C 2037.53 4.29255 0.062192 0
M  V30 20998 C 2036.76 5.2541 0.937031 0
M  V30 20999 O 2036.98 5.27245 2.17644 0
M  V30 21000 O 2035.92 6.00687 0.381874 0
M  V30 21001 H 2039.74 2.92493 -0.817415 0
M  V30 21002 H 2037.33 1.41979 -0.465014 0
M  V30 21003 H 2039.21 3.97489 1.3993 0
M  V30 21004 H 2037.89 2.80026 1.62379 0
M  V30 21005 H 2036.79 3.7062 -0.509109 0
M  V30 21006 H 2038.13 4.87885 -0.65032 0
M  V30 21007 N 2039.78 0.45001 1.51039 0
M  V30 21008 C 2041.03 -0.113761 2.01379 0
M  V30 21009 C 2041.34 -1.42669 1.33809 0
M  V30 21010 O 2042.55 -2.07416 1.75188 0
M  V30 21011 C 2041 -0.253272 3.59008 0
M  V30 21012 C 2040.61 1.04997 4.35522 0
M  V30 21013 C 2042.35 -0.770131 4.17456 0
M  V30 21014 C 2040.26 0.875408 5.84885 0
M  V30 21015 H 2039.19 -0.0462899 0.752578 0
M  V30 21016 H 2041.84 0.581702 1.74036 0
M  V30 21017 H 2040.22 -1.01203 3.8285 0
M  V30 21018 H 2041.4 1.81805 4.23419 0
M  V30 21019 H 2039.71 1.49632 3.88586 0
M  V30 21020 H 2042.31 -0.917427 5.26771 0
M  V30 21021 H 2042.65 -1.75596 3.77454 0
M  V30 21022 H 2043.19 -0.0693371 3.9774 0
M  V30 21023 H 2039.93 1.83398 6.29321 0
M  V30 21024 H 2039.45 0.14735 5.99619 0
M  V30 21025 H 2041.12 0.533614 6.44796 0
M  V30 21026 N 2041.26 -1.56548 0.18182 0
M  V30 21027 C 2042.53 -1.88906 -0.507337 0
M  V30 21028 C 2042.91 -1.09334 -1.80581 0
M  V30 21029 O 2042.26 -0.190397 -2.27705 0
M  V30 21030 C 2042.47 -3.41085 -0.73904 0
M  V30 21031 C 2043.82 -4.11043 -1.06435 0
M  V30 21032 O 2044.84 -3.46461 -0.82722 0
M  V30 21033 O 2043.7 -5.2516 -1.51225 0
M  V30 21034 H 2040.8 -0.784135 -0.262794 0
M  V30 21035 H 2043.34 -1.68254 0.221041 0
M  V30 21036 H 2042.11 -3.90893 0.17847 0
M  V30 21037 H 2041.74 -3.67384 -1.52036 0
M  V30 21038 N 2042.73 0.0918577 -1.57332 0
M  V30 21039 C 2043.66 1.11191 -2.05326 0
M  V30 21040 C 2044.65 1.41581 -0.942802 0
M  V30 21041 O 2045.83 1.51555 -1.21428 0
M  V30 21042 C 2042.96 2.4309 -2.48041 0
M  V30 21043 C 2041.91 2.271 -3.6278 0
M  V30 21044 C 2041.24 3.64205 -3.91482 0
M  V30 21045 C 2042.54 1.70886 -4.93554 0
M  V30 21046 H 2044.23 0.712608 -2.90796 0
M  V30 21047 H 2041.78 0.341338 -1.39896 0
M  V30 21048 H 2043.73 3.14724 -2.80226 0
M  V30 21049 H 2042.46 2.84962 -1.59575 0
M  V30 21050 H 2041.12 1.57911 -3.30847 0
M  V30 21051 H 2040.76 4.03611 -3.00179 0
M  V30 21052 H 2040.46 3.54352 -4.68731 0
M  V30 21053 H 2041.99 4.37302 -4.26145 0
M  V30 21054 H 2043.4 2.32364 -5.24099 0
M  V30 21055 H 2041.8 1.71783 -5.74987 0
M  V30 21056 H 2042.87 0.668569 -4.80269 0
M  V30 21057 N 2044.21 1.53368 0.362763 0
M  V30 21058 C 2045.44 1.73348 1.12402 0
M  V30 21059 C 2045.85 0.463567 1.83433 0
M  V30 21060 O 2045.19 -0.573438 1.7452 0
M  V30 21061 C 2045.26 2.84605 2.19637 0
M  V30 21062 C 2044.92 4.24862 1.68348 0
M  V30 21063 C 2045.92 5.07111 1.14605 0
M  V30 21064 C 2043.6 4.71283 1.73776 0
M  V30 21065 C 2045.6 6.33872 0.669702 0
M  V30 21066 C 2043.28 5.98021 1.25753 0
M  V30 21067 C 2044.28 6.79148 0.724405 0
M  V30 21068 O 2043.97 8.03507 0.251275 0
M  V30 21069 H 2043.7 0.583168 0.341893 0
M  V30 21070 H 2046.25 2.00919 0.426694 0
M  V30 21071 H 2044.48 2.52514 2.92871 0
M  V30 21072 H 2046.17 2.92735 2.81177 0
M  V30 21073 H 2046.94 4.7242 1.09748 0
M  V30 21074 H 2042.82 4.08208 2.14213 0
M  V30 21075 H 2046.36 6.97141 0.252909 0
M  V30 21076 H 2042.26 6.32211 1.30304 0
M  V30 21077 H 2043.03 8.17662 0.370343 0
M  V30 21078 N 2045.69 -0.62272 1.44776 0
M  V30 21079 C 2046.64 -1.72819 1.4872 0
M  V30 21080 C 2047.62 -1.57001 0.352059 0
M  V30 21081 O 2048.82 -1.66595 0.597926 0
M  V30 21082 C 2045.95 -3.11532 1.44231 0
M  V30 21083 C 2045.03 -3.3279 2.62891 0
M  V30 21084 N 2045.42 -3.24375 3.88091 0
M  V30 21085 C 2043.72 -3.63613 2.58266 0
M  V30 21086 C 2044.42 -3.46551 4.67202 0
M  V30 21087 N 2043.4 -3.69825 3.9841 0
M  V30 21088 H 2047.2 -1.64784 2.43359 0
M  V30 21089 H 2044.71 -0.825474 1.39856 0
M  V30 21090 H 2046.71 -3.90819 1.45141 0
M  V30 21091 H 2045.37 -3.20727 0.506374 0
M  V30 21092 H 2046.38 -3.03108 4.19935 0
M  V30 21093 H 2043.06 -3.79738 1.73509 0
M  V30 21094 H 2044.45 -3.45567 5.76223 0
M  V30 21095 N 2047.17 -1.31814 -0.863883 0
M  V30 21096 C 2048.39 -1.24961 -1.65528 0
M  V30 21097 C 2048.82 0.18096 -1.87228 0
M  V30 21098 O 2048.18 1.12919 -1.41842 0
M  V30 21099 C 2048.22 -2.00518 -2.99708 0
M  V30 21100 O 2047.33 -1.34668 -3.89793 0
M  V30 21101 H 2046.67 -0.431127 -0.505001 0
M  V30 21102 H 2049.2 -1.73981 -1.07665 0
M  V30 21103 H 2049.21 -2.10344 -3.49599 0
M  V30 21104 H 2047.88 -3.0455 -2.83235 0
M  V30 21105 H 2046.46 -1.33332 -3.48249 0
M  V30 21106 N 2048.65 1.07897 -1.14873 0
M  V30 21107 C 2049.56 2.18494 -0.854259 0
M  V30 21108 C 2050.57 1.73194 0.167297 0
M  V30 21109 O 2051.75 2.01399 -0.00544437 0
M  V30 21110 C 2048.81 3.45013 -0.341649 0
M  V30 21111 C 2047.87 4.0491 -1.42641 0
M  V30 21112 C 2047.11 5.2539 -0.938165 0
M  V30 21113 O 2047.33 5.69982 0.218391 0
M  V30 21114 O 2046.26 5.76818 -1.71943 0
M  V30 21115 H 2050.09 2.46164 -1.77867 0
M  V30 21116 H 2047.68 1.1713 -0.927406 0
M  V30 21117 H 2049.56 4.21354 -0.0619573 0
M  V30 21118 H 2048.23 3.18907 0.554969 0
M  V30 21119 H 2047.14 3.30133 -1.75963 0
M  V30 21120 H 2048.47 4.35276 -2.29774 0
M  V30 21121 N 2050.12 0.944665 1.2615 0
M  V30 21122 C 2051.03 0.463226 2.29981 0
M  V30 21123 C 2052.05 -0.464516 1.67685 0
M  V30 21124 O 2053.23 -0.343195 1.98454 0
M  V30 21125 C 2050.29 -0.260612 3.45719 0
M  V30 21126 C 2049.35 0.704117 4.23486 0
M  V30 21127 C 2048.59 0.0147279 5.33698 0
M  V30 21128 O 2048.81 -1.20155 5.57601 0
M  V30 21129 O 2047.74 0.695202 5.97872 0
M  V30 21130 H 2051.57 1.3258 2.73233 0
M  V30 21131 H 2049.15 0.710696 1.31413 0
M  V30 21132 H 2051.04 -0.668207 4.16068 0
M  V30 21133 H 2049.71 -1.09852 3.0449 0
M  V30 21134 H 2048.62 1.16172 3.55605 0
M  V30 21135 H 2049.95 1.50974 4.68474 0
M  V30 21136 N 2051.6 -1.40596 0.712085 0
M  V30 21137 C 2052.55 -2.32554 0.0460888 0
M  V30 21138 C 2053.54 -1.51853 -0.750809 0
M  V30 21139 O 2054.75 -1.67676 -0.654572 0
M  V30 21140 H 2051.13 -0.75199 -0.00389841 0
M  V30 21141 H 2053.1 -2.86378 0.838447 0
M  V30 21142 C 2051.85 -3.36789 -0.864212 0
M  V30 21143 H 2051.17 -3.98951 -0.260421 0
M  V30 21144 H 2052.61 -4.03636 -1.29823 0
M  V30 21145 C 2051.07 -2.71989 -1.98805 0
M  V30 21146 O 2051.6 -2.58048 -3.07854 0
M  V30 21147 N 2049.8 -2.30427 -1.77064 0
M  V30 21148 H 2049.35 -2.41966 -0.88375 0
M  V30 21149 H 2049.31 -1.87408 -2.52439 0
M  V30 21150 N 2053.08 -0.458013 -1.50798 0
M  V30 21151 C 2053.99 0.348558 -2.31996 0
M  V30 21152 C 2055.01 1.00835 -1.41804 0
M  V30 21153 O 2056.18 0.999192 -1.74866 0
M  V30 21154 C 2053.25 1.4236 -3.16124 0
M  V30 21155 C 2052.31 0.781781 -4.22122 0
M  V30 21156 C 2051.54 1.8056 -5.02229 0
M  V30 21157 O 2051.76 3.0305 -4.83236 0
M  V30 21158 O 2050.7 1.38466 -5.85757 0
M  V30 21159 H 2054.52 -0.314893 -3.02063 0
M  V30 21160 H 2052.11 -0.220117 -1.4777 0
M  V30 21161 H 2053.99 2.04661 -3.68364 0
M  V30 21162 H 2052.67 2.07076 -2.488 0
M  V30 21163 H 2051.57 0.120169 -3.73907 0
M  V30 21164 H 2052.91 0.177782 -4.91879 0
M  V30 21165 N 2054.56 1.56449 -0.190119 0
M  V30 21166 C 2055.47 2.22463 0.744809 0
M  V30 21167 C 2056.49 1.22213 1.23855 0
M  V30 21168 O 2057.66 1.54934 1.28675 0
M  V30 21169 C 2054.73 2.86716 1.94923 0
M  V30 21170 C 2053.79 4.02222 1.50054 0
M  V30 21171 C 2053.02 4.63401 2.64755 0
M  V30 21172 O 2053.24 4.23495 3.8211 0
M  V30 21173 O 2052.18 5.52953 2.37752 0
M  V30 21174 H 2056 3.02955 0.212633 0
M  V30 21175 H 2053.59 1.49349 0.0389463 0
M  V30 21176 H 2055.47 3.27385 2.65324 0
M  V30 21177 H 2054.15 2.09207 2.4701 0
M  V30 21178 H 2053.05 3.66185 0.765469 0
M  V30 21179 H 2054.39 4.81379 1.02638 0
M  V30 21180 N 2056.04 -0.0835127 1.57379 0
M  V30 21181 C 2056.95 -1.11858 2.06216 0
M  V30 21182 C 2057.96 -1.43137 0.989333 0
M  V30 21183 O 2059.14 -1.53548 1.30327 0
M  V30 21184 C 2056.2 -2.41603 2.48655 0
M  V30 21185 C 2055.27 -2.17401 3.70183 0
M  V30 21186 C 2054.5 -3.40959 4.10588 0
M  V30 21187 O 2054.72 -4.49637 3.50974 0
M  V30 21188 O 2053.66 -3.29863 5.03462 0
M  V30 21189 H 2057.48 -0.733741 2.94703 0
M  V30 21190 H 2055.07 -0.296834 1.46421 0
M  V30 21191 H 2056.95 -3.1798 2.76526 0
M  V30 21192 H 2055.62 -2.7949 1.63301 0
M  V30 21193 H 2054.53 -1.38767 3.47411 0
M  V30 21194 H 2055.86 -1.84401 4.56352 0
M  V30 21195 N 2057.52 -1.53558 -0.354624 0
M  V30 21196 C 2058.43 -1.83745 -1.4586 0
M  V30 21197 C 2059.44 -0.72668 -1.58099 0
M  V30 21198 O 2060.62 -1.01786 -1.73786 0
M  V30 21199 C 2057.68 -2.03089 -2.80991 0
M  V30 21200 C 2056.74 -3.26971 -2.78187 0
M  V30 21201 C 2055.98 -3.45383 -4.06874 0
M  V30 21202 O 2056.2 -2.6786 -5.03594 0
M  V30 21203 O 2055.13 -4.38776 -4.12019 0
M  V30 21204 H 2058.96 -2.77557 -1.23271 0
M  V30 21205 H 2056.54 -1.39075 -0.545763 0
M  V30 21206 H 2058.43 -2.17321 -3.6104 0
M  V30 21207 H 2057.1 -1.12466 -3.03534 0
M  V30 21208 H 2056.01 -3.18153 -1.96798 0
M  V30 21209 H 2057.34 -4.17552 -2.60598 0
M  V30 21210 N 2058.99 0.615033 -1.45104 0
M  V30 21211 C 2059.9 1.75459 -1.55728 0
M  V30 21212 C 2060.92 1.6829 -0.442095 0
M  V30 21213 O 2062.1 1.88779 -0.701735 0
M  V30 21214 C 2059.16 3.11899 -1.51394 0
M  V30 21215 C 2058.22 3.30578 -2.73892 0
M  V30 21216 C 2057.45 4.60509 -2.69754 0
M  V30 21217 O 2057.68 5.42353 -1.76662 0
M  V30 21218 O 2056.61 4.81739 -3.60848 0
M  V30 21219 H 2060.44 1.69447 -2.52035 0
M  V30 21220 H 2058.02 0.778221 -1.27531 0
M  V30 21221 H 2059.9 3.93203 -1.51557 0
M  V30 21222 H 2058.58 3.18418 -0.582365 0
M  V30 21223 H 2057.49 2.48891 -2.79292 0
M  V30 21224 H 2058.82 3.2893 -3.6615 0
M  V30 21225 N 2060.47 1.3227 0.85688 0
M  V30 21226 C 2061.38 1.23012 1.99763 0
M  V30 21227 C 2062.4 0.144168 1.73402 0
M  V30 21228 O 2063.57 0.364429 1.98075 0
M  V30 21229 C 2060.64 0.951293 3.33394 0
M  V30 21230 C 2059.7 2.12547 3.72991 0
M  V30 21231 C 2058.93 1.85984 5.00245 0
M  V30 21232 O 2059.16 0.801321 5.64743 0
M  V30 21233 O 2058.09 2.72029 5.36921 0
M  V30 21234 H 2061.92 2.18906 2.10509 0
M  V30 21235 H 2059.5 1.12138 0.987193 0
M  V30 21236 H 2061.38 0.812192 4.13499 0
M  V30 21237 H 2060.06 0.0224976 3.23692 0
M  V30 21238 H 2058.96 2.32003 2.93471 0
M  V30 21239 H 2060.3 3.03697 3.87336 0
M  V30 21240 N 2061.95 -1.07287 1.15444 0
M  V30 21241 C 2063.19 -1.8149 0.940261 0
M  V30 21242 C 2063.55 -1.84734 -0.523206 0
M  V30 21243 O 2064.75 -2.54815 -0.855738 0
M  V30 21244 C 2063.03 -3.22592 1.53848 0
M  V30 21245 S 2064.58 -4.13533 1.4675 0
M  V30 21246 H 2061.4 -0.625317 0.338377 0
M  V30 21247 H 2064 -1.28879 1.47005 0
M  V30 21248 H 2062.71 -3.1782 2.59651 0
M  V30 21249 H 2062.24 -3.80278 1.00758 0
M  V30 21250 H 2064.25 -4.94055 0.460833 0
M  V30 21251 N 2063.43 -0.951342 -1.25647 0
M  V30 21252 C 2064.39 -0.473447 -2.24257 0
M  V30 21253 C 2065.39 0.421053 -1.5519 0
M  V30 21254 O 2066.58 0.218803 -1.7282 0
M  V30 21255 C 2063.71 0.316367 -3.39429 0
M  V30 21256 H 2064.91 -1.34499 -2.68049 0
M  V30 21257 H 2062.46 -0.734296 -1.37978 0
M  V30 21258 H 2063.19 1.20572 -3.01053 0
M  V30 21259 H 2062.98 -0.325315 -3.90748 0
M  V30 21260 H 2064.47 0.640306 -4.12662 0
M  V30 21261 N 2064.91 1.40216 -0.719531 0
M  V30 21262 C 2065.85 2.32527 -0.0584211 0
M  V30 21263 C 2066.85 1.52249 0.742746 0
M  V30 21264 O 2068.05 1.68021 0.64567 0
M  V30 21265 H 2064.43 0.752 -8.96276e-05 0
M  V30 21266 H 2066.4 2.8593 -0.853622 0
M  V30 21267 C 2065.15 3.37242 0.846339 0
M  V30 21268 H 2064.47 3.99083 0.23926 0
M  V30 21269 H 2065.91 4.04319 1.2768 0
M  V30 21270 C 2064.37 2.7304 1.9736 0
M  V30 21271 O 2064.9 2.59677 3.06481 0
M  V30 21272 N 2063.11 2.31363 1.7584 0
M  V30 21273 H 2062.65 2.42431 0.870906 0
M  V30 21274 H 2062.61 1.88744 2.51442 0
M  V30 21275 N 2066.38 0.466004 1.50553 0
M  V30 21276 C 2067.35 -0.319434 2.26963 0
M  V30 21277 C 2068.35 -0.92489 1.31539 0
M  V30 21278 O 2069.54 -0.794862 1.55008 0
M  V30 21279 C 2066.67 -1.45457 3.0831 0
M  V30 21280 H 2067.86 0.350606 2.97844 0
M  V30 21281 H 2065.41 0.219925 1.54745 0
M  V30 21282 H 2066.15 -2.15982 2.41914 0
M  V30 21283 H 2065.93 -1.02628 3.78431 0
M  V30 21284 H 2067.42 -2.00876 3.66113 0
M  V30 21285 N 2067.86 -1.56346 0.198413 0
M  V30 21286 C 2069.09 -2.02058 -0.444989 0
M  V30 21287 C 2069.5 -1.07852 -1.54963 0
M  V30 21288 O 2068.86 -0.0839717 -1.82307 0
M  V30 21289 C 2068.91 -3.47445 -0.99822 0
M  V30 21290 O 2068.63 -4.38056 0.0623476 0
M  V30 21291 C 2070.13 -4.08691 -1.71717 0
M  V30 21292 H 2067.35 -0.661691 -0.111383 0
M  V30 21293 H 2069.9 -2.02166 0.308092 0
M  V30 21294 H 2068.05 -3.48026 -1.70167 0
M  V30 21295 H 2068.47 -5.23331 -0.349939 0
M  V30 21296 H 2069.94 -5.1226 -2.05654 0
M  V30 21297 H 2070.42 -3.52341 -2.62207 0
M  V30 21298 H 2071.02 -4.11892 -1.05949 0
M  V30 21299 N 2069.34 0.0751653 -1.57421 0
M  V30 21300 C 2070.62 0.807768 -1.78142 0
M  V30 21301 C 2071 1.95956 -0.785139 0
M  V30 21302 O 2070.35 2.27771 0.182413 0
M  V30 21303 C 2070.56 1.28385 -3.24528 0
M  V30 21304 C 2071.9 1.71859 -3.88265 0
M  V30 21305 O 2072.93 1.3796 -3.28398 0
M  V30 21306 O 2071.79 2.3461 -4.93579 0
M  V30 21307 H 2068.88 0.386806 -0.730965 0
M  V30 21308 H 2071.43 0.0555021 -1.69609 0
M  V30 21309 H 2070.2 0.459543 -3.88592 0
M  V30 21310 H 2069.82 2.09753 -3.37771 0
M  V30 21311 N 2070.82 1.53744 0.346476 0
M  V30 21312 C 2072.06 1.71103 1.08866 0
M  V30 21313 C 2072.4 0.47131 1.88394 0
M  V30 21314 O 2071.67 -0.531638 1.87093 0
M  V30 21315 C 2071.96 2.97273 2.03225 0
M  V30 21316 C 2071.81 4.31446 1.27179 0
M  V30 21317 C 2073.13 3.19105 3.03084 0
M  V30 21318 H 2070.25 0.622598 0.394387 0
M  V30 21319 H 2072.89 1.86412 0.367514 0
M  V30 21320 H 2071.04 2.84352 2.64719 0
M  V30 21321 H 2072.71 4.56212 0.683225 0
M  V30 21322 H 2070.95 4.29989 0.573773 0
M  V30 21323 H 2071.62 5.15901 1.96343 0
M  V30 21324 H 2074.1 3.31337 2.51704 0
M  V30 21325 H 2072.98 4.08786 3.66313 0
M  V30 21326 H 2073.24 2.35265 3.74303 0
M  V30 21327 N 2072.3 -0.607329 1.45428 0
M  V30 21328 C 2073.52 -1.39296 1.52984 0
M  V30 21329 C 2073.94 -1.88099 0.162539 0
M  V30 21330 O 2073.3 -1.62229 -0.835945 0
M  V30 21331 C 2073.35 -2.59727 2.51444 0
M  V30 21332 O 2073.07 -2.12952 3.82862 0
M  V30 21333 C 2074.57 -3.52583 2.68701 0
M  V30 21334 H 2071.79 -0.426391 0.518104 0
M  V30 21335 H 2074.33 -0.740646 1.90617 0
M  V30 21336 H 2072.49 -3.20999 2.16883 0
M  V30 21337 H 2072.9 -2.91201 4.36237 0
M  V30 21338 H 2074.38 -4.33629 3.4157 0
M  V30 21339 H 2074.85 -4.0294 1.74746 0
M  V30 21340 H 2075.46 -2.97163 3.0426 0
M  V30 21341 N 2073.77 -1.32722 -0.849853 0
M  V30 21342 C 2075 -1.26568 -1.63671 0
M  V30 21343 C 2075.42 0.165453 -1.88074 0
M  V30 21344 O 2074.77 1.1041 -1.45313 0
M  V30 21345 C 2074.83 -2.027 -2.99324 0
M  V30 21346 O 2074.55 -3.40229 -2.75999 0
M  V30 21347 C 2076.05 -2.03626 -3.93766 0
M  V30 21348 H 2073.27 -0.436491 -0.509624 0
M  V30 21349 H 2075.81 -1.74922 -1.05937 0
M  V30 21350 H 2073.97 -1.58056 -3.53691 0
M  V30 21351 H 2074.38 -3.79256 -3.62305 0
M  V30 21352 H 2075.85 -2.61369 -4.862 0
M  V30 21353 H 2076.33 -1.02373 -4.27102 0
M  V30 21354 H 2076.94 -2.48239 -3.45337 0
M  V30 21355 N 2075.25 1.06673 -1.16011 0
M  V30 21356 C 2076.48 1.83106 -0.963322 0
M  V30 21357 C 2076.9 1.82372 0.488451 0
M  V30 21358 O 2076.25 1.24012 1.33893 0
M  V30 21359 C 2076.3 3.29888 -1.47838 0
M  V30 21360 O 2076.02 3.30717 -2.87328 0
M  V30 21361 C 2077.53 4.23065 -1.32405 0
M  V30 21362 H 2074.75 0.577476 -0.341705 0
M  V30 21363 H 2077.29 1.34611 -1.53948 0
M  V30 21364 H 2075.44 3.75708 -0.944585 0
M  V30 21365 H 2075.86 4.22475 -3.1083 0
M  V30 21366 H 2077.33 5.24098 -1.73279 0
M  V30 21367 H 2077.81 4.38375 -0.269104 0
M  V30 21368 H 2078.42 3.83088 -1.84726 0
M  V30 21369 N 2076.73 0.957992 1.25141 0
M  V30 21370 C 2078.14 0.65484 1.74839 0
M  V30 21371 C 2078.49 -0.829713 1.77793 0
M  V30 21372 O 2077.62 -1.6493 1.40096 0
M  V30 21373 C 2078.21 1.18197 3.17513 0
M  V30 21374 C 2076.77 0.928917 3.64758 0
M  V30 21375 C 2075.92 1.32303 2.43703 0
M  V30 21376 H 2078.87 1.13442 1.1098 0
M  V30 21377 H 2078.89 0.543641 3.76596 0
M  V30 21378 H 2078.4 2.26246 3.15332 0
M  V30 21379 H 2076.5 -0.136467 3.7235 0
M  V30 21380 H 2076.62 1.56774 4.52724 0
M  V30 21381 H 2074.98 0.741407 2.4367 0
M  V30 21382 H 2075.76 2.41281 2.4421 0
M  V30 21383 N 2078.21 -1.39832 0.726957 0
M  V30 21384 C 2079.43 -2.05501 0.280008 0
M  V30 21385 C 2079.86 -1.54436 -1.07383 0
M  V30 21386 O 2079.22 -0.684615 -1.67877 0
M  V30 21387 C 2079.26 -3.59492 0.282502 0
M  V30 21388 O 2078.37 -4.05842 -0.732546 0
M  V30 21389 H 2077.71 -0.651361 0.128936 0
M  V30 21390 H 2080.24 -1.79019 0.990626 0
M  V30 21391 H 2080.25 -4.07811 0.124104 0
M  V30 21392 H 2078.92 -3.96022 1.27041 0
M  V30 21393 H 2077.5 -3.68956 -0.540943 0
M  V30 21394 N 2079.69 -0.473982 -1.50304 0
M  V30 21395 C 2080.93 0.0801282 -2.02642 0
M  V30 21396 C 2081.27 1.3911 -1.35506 0
M  V30 21397 O 2080.54 1.8844 -0.481719 0
M  V30 21398 C 2080.82 0.26092 -3.59153 0
M  V30 21399 C 2080.68 -1.07128 -4.36857 0
M  V30 21400 C 2082 1.01413 -4.28256 0
M  V30 21401 H 2079.11 0.0276467 -0.736481 0
M  V30 21402 H 2081.76 -0.620135 -1.79595 0
M  V30 21403 H 2079.91 0.857378 -3.78921 0
M  V30 21404 H 2081.58 -1.70454 -4.28653 0
M  V30 21405 H 2079.82 -1.66721 -4.00483 0
M  V30 21406 H 2080.49 -0.898389 -5.4464 0
M  V30 21407 H 2082.97 0.508536 -4.12981 0
M  V30 21408 H 2081.84 1.10943 -5.37571 0
M  V30 21409 H 2082.11 2.05141 -3.91624 0
M  V30 21410 N 2081.16 1.56239 -0.206702 0
M  V30 21411 C 2082.1 2.16873 0.741546 0
M  V30 21412 C 2083.11 1.1337 1.16838 0
M  V30 21413 O 2084.3 1.40413 1.1021 0
M  V30 21414 C 2081.4 2.72544 2.01427 0
M  V30 21415 C 2080.57 4.01068 1.74538 0
M  V30 21416 C 2079.63 4.4145 2.86371 0
M  V30 21417 O 2078.66 5.08645 2.55479 0
M  V30 21418 N 2079.86 4.05908 4.14993 0
M  V30 21419 H 2082.62 2.98869 0.222965 0
M  V30 21420 H 2080.18 1.6188 -0.0251503 0
M  V30 21421 H 2082.18 2.96538 2.75404 0
M  V30 21422 H 2080.75 1.94935 2.44375 0
M  V30 21423 H 2079.97 3.85085 0.842806 0
M  V30 21424 H 2081.25 4.84939 1.53985 0
M  V30 21425 H 2080.65 3.51882 4.4294 0
M  V30 21426 H 2079.21 4.34827 4.85561 0
M  V30 21427 N 2082.64 -0.0668159 1.57458 0
M  V30 21428 C 2083.87 -0.776687 1.91445 0
M  V30 21429 C 2084.28 -1.71389 0.801403 0
M  V30 21430 O 2083.62 -1.82206 -0.233788 0
M  V30 21431 C 2083.69 -1.61981 3.2094 0
M  V30 21432 C 2083.35 -0.851453 4.48998 0
M  V30 21433 C 2084.35 -0.168463 5.19627 0
M  V30 21434 C 2082.03 -0.817153 4.95609 0
M  V30 21435 C 2084.03 0.538543 6.35121 0
M  V30 21436 C 2081.71 -0.106378 6.11007 0
M  V30 21437 C 2082.71 0.570265 6.80615 0
M  V30 21438 O 2082.4 1.26958 7.93812 0
M  V30 21439 H 2082.13 -0.225698 0.63721 0
M  V30 21440 H 2084.68 -0.0398627 2.05361 0
M  V30 21441 H 2082.91 -2.39956 3.03246 0
M  V30 21442 H 2084.6 -2.20882 3.40538 0
M  V30 21443 H 2085.37 -0.186236 4.84642 0
M  V30 21444 H 2081.25 -1.33329 4.41299 0
M  V30 21445 H 2084.79 1.06725 6.89388 0
M  V30 21446 H 2080.69 -0.0865497 6.45442 0
M  V30 21447 H 2081.46 1.17936 8.09959 0
M  V30 21448 N 2084.12 -1.53926 -0.338317 0
M  V30 21449 C 2085.37 -1.70639 -1.07542 0
M  V30 21450 C 2085.68 -0.479077 -1.89642 0
M  V30 21451 O 2086.89 -0.527259 -2.66331 0
M  V30 21452 C 2085.35 -3.0176 -1.96134 0
M  V30 21453 C 2084.95 -4.31847 -1.19216 0
M  V30 21454 C 2086.7 -3.27839 -2.6967 0
M  V30 21455 C 2084.6 -5.54039 -2.06869 0
M  V30 21456 H 2083.53 -0.635868 -0.4052 0
M  V30 21457 H 2086.19 -1.80424 -0.334569 0
M  V30 21458 H 2084.57 -2.85845 -2.7406 0
M  V30 21459 H 2085.74 -4.58482 -0.461647 0
M  V30 21460 H 2084.06 -4.12421 -0.574263 0
M  V30 21461 H 2086.65 -4.16322 -3.3553 0
M  V30 21462 H 2087 -2.45074 -3.36518 0
M  V30 21463 H 2087.53 -3.44554 -1.98815 0
M  V30 21464 H 2084.27 -6.39363 -1.44554 0
M  V30 21465 H 2083.79 -5.31645 -2.77694 0
M  V30 21466 H 2085.47 -5.89881 -2.658 0
M  V30 21467 N 2085.6 0.599608 -1.45748 0
M  V30 21468 C 2086.55 1.73095 -1.55374 0
M  V30 21469 C 2087.54 1.64028 -0.423205 0
M  V30 21470 O 2088.75 1.69726 -0.599429 0
M  V30 21471 H 2085.12 0.572 -0.48818 0
M  V30 21472 H 2087.09 1.62104 -2.50529 0
M  V30 21473 C 2085.84 3.1148 -1.54517 0
M  V30 21474 H 2085.17 3.19119 -2.40838 0
M  V30 21475 H 2086.61 3.90447 -1.65309 0
M  V30 21476 C 2085.06 3.35809 -0.270913 0
M  V30 21477 O 2085.59 3.96473 0.645927 0
M  V30 21478 N 2083.8 2.90136 -0.164103 0
M  V30 21479 H 2083.35 2.40951 -0.911075 0
M  V30 21480 H 2083.31 3.06788 0.687647 0
M  V30 21481 N 2087.08 1.33171 0.842803 0
M  V30 21482 C 2088.33 1.24159 1.59464 0
M  V30 21483 C 2088.65 -0.193595 1.94037 0
M  V30 21484 O 2087.92 -1.12135 1.60632 0
M  V30 21485 H 2086.5 0.456555 0.591241 0
M  V30 21486 H 2089.16 1.66842 1.00746 0
M  V30 21487 H 2088.25 1.83255 2.52634 0
M  V30 21488 N 2088.56 -1.06056 1.16576 0
M  V30 21489 C 2089.5 -2.13591 0.874513 0
M  V30 21490 C 2090.47 -1.65143 -0.178027 0
M  V30 21491 O 2091.66 -1.90752 -0.0427107 0
M  V30 21492 C 2088.8 -3.42953 0.384377 0
M  V30 21493 C 2087.91 -4.05121 1.50002 0
M  V30 21494 C 2087.05 -5.22367 0.964658 0
M  V30 21495 C 2086.08 -5.76525 2.05635 0
M  V30 21496 N 2085.22 -6.85084 1.53639 0
M  V30 21497 H 2090.06 -2.37842 1.79541 0
M  V30 21498 H 2087.6 -1.16692 0.895622 0
M  V30 21499 H 2089.56 -4.1712 0.0818205 0
M  V30 21500 H 2088.19 -3.18911 -0.499573 0
M  V30 21501 H 2087.24 -3.28478 1.91849 0
M  V30 21502 H 2088.55 -4.41366 2.32374 0
M  V30 21503 H 2087.7 -6.03571 0.615426 0
M  V30 21504 H 2086.44 -4.87575 0.110275 0
M  V30 21505 H 2085.45 -4.93957 2.41425 0
M  V30 21506 H 2086.67 -6.13368 2.91474 0
M  V30 21507 H 2084.62 -6.52205 0.70458 0
M  V30 21508 H 2084.54 -7.20283 2.29626 0
M  V30 21509 H 2085.8 -7.6996 1.21581 0
M  V30 21510 N 2090.03 -0.964615 -1.24631 0
M  V30 21511 C 2090.98 -0.463395 -2.23241 0
M  V30 21512 C 2091.97 0.452893 -1.54395 0
M  V30 21513 O 2093.16 0.284318 -1.74702 0
M  V30 21514 C 2090.29 0.248095 -3.42402 0
M  V30 21515 C 2089.37 -0.686842 -4.18501 0
M  V30 21516 N 2089.77 -1.82277 -4.71814 0
M  V30 21517 C 2088.06 -0.497011 -4.43222 0
M  V30 21518 C 2088.76 -2.40731 -5.2955 0
M  V30 21519 N 2087.74 -1.69279 -5.16571 0
M  V30 21520 H 2091.54 -1.33017 -2.62076 0
M  V30 21521 H 2089.06 -0.823324 -1.39983 0
M  V30 21522 H 2091.05 0.62437 -4.12198 0
M  V30 21523 H 2089.71 1.11135 -3.05089 0
M  V30 21524 H 2090.72 -2.20439 -4.68644 0
M  V30 21525 H 2087.4 0.322534 -4.16252 0
M  V30 21526 H 2088.79 -3.36573 -5.81522 0
M  V30 21527 N 2091.51 1.39445 -0.734362 0
M  V30 21528 C 2092.44 2.33245 -0.109065 0
M  V30 21529 C 2093.42 1.53878 0.724945 0
M  V30 21530 O 2094.61 1.82274 0.670055 0
M  V30 21531 C 2091.74 3.37973 0.799454 0
M  V30 21532 C 2090.69 4.27943 0.0696508 0
M  V30 21533 C 2090.02 5.23365 1.09514 0
M  V30 21534 C 2091.32 5.10855 -1.08738 0
M  V30 21535 H 2093.01 2.85786 -0.892581 0
M  V30 21536 H 2090.56 1.37409 -0.430672 0
M  V30 21537 H 2092.51 4.02545 1.24643 0
M  V30 21538 H 2091.23 2.83871 1.61508 0
M  V30 21539 H 2089.89 3.64851 -0.357693 0
M  V30 21540 H 2089.54 4.65559 1.90432 0
M  V30 21541 H 2089.24 5.84408 0.611606 0
M  V30 21542 H 2090.77 5.90813 1.54183 0
M  V30 21543 H 2092.18 5.68775 -0.718888 0
M  V30 21544 H 2090.58 5.81038 -1.50051 0
M  V30 21545 H 2091.65 4.45725 -1.90937 0
M  V30 21546 N 2092.99 0.481946 1.5005 0
M  V30 21547 C 2094.24 -0.0693805 2.02681 0
M  V30 21548 C 2094.57 -1.3839 1.36242 0
M  V30 21549 O 2093.84 -1.88182 0.491706 0
M  V30 21550 C 2094.13 -0.24187 3.59287 0
M  V30 21551 C 2093.98 1.09443 4.36282 0
M  V30 21552 C 2095.3 -0.991404 4.28788 0
M  V30 21553 H 2092.42 -0.0237405 0.736618 0
M  V30 21554 H 2095.06 0.629651 1.79263 0
M  V30 21555 H 2093.21 -0.837271 3.79371 0
M  V30 21556 H 2094.88 1.72725 4.27743 0
M  V30 21557 H 2093.12 1.68843 3.99593 0
M  V30 21558 H 2093.8 0.92726 5.44156 0
M  V30 21559 H 2096.27 -0.486628 4.13245 0
M  V30 21560 H 2095.15 -1.08091 5.38152 0
M  V30 21561 H 2095.41 -2.03061 3.92707 0
M  V30 21562 N 2094.47 -1.56127 0.214985 0
M  V30 21563 C 2095.7 -2.02519 -0.423533 0
M  V30 21564 C 2096.11 -1.0949 -1.5381 0
M  V30 21565 O 2095.47 -0.103303 -1.82207 0
M  V30 21566 C 2095.52 -3.48484 -0.961313 0
M  V30 21567 O 2095.24 -4.37965 0.108806 0
M  V30 21568 C 2096.74 -4.10489 -1.67373 0
M  V30 21569 H 2093.96 -0.662835 -0.104359 0
M  V30 21570 H 2096.5 -2.01828 0.329517 0
M  V30 21571 H 2094.66 -3.49811 -1.66466 0
M  V30 21572 H 2095.07 -5.23673 -0.294413 0
M  V30 21573 H 2096.55 -5.14412 -2.00209 0
M  V30 21574 H 2097.02 -3.55102 -2.58455 0
M  V30 21575 H 2097.63 -4.12992 -1.01575 0
M  V30 21576 N 2095.95 0.0584645 -1.57492 0
M  V30 21577 C 2097.17 0.767637 -1.92133 0
M  V30 21578 C 2097.59 1.70438 -0.812178 0
M  V30 21579 O 2096.95 1.81246 0.213598 0
M  V30 21580 C 2097 1.54992 -3.26588 0
M  V30 21581 O 2096.72 0.650813 -4.33239 0
M  V30 21582 C 2098.22 2.3589 -3.75328 0
M  V30 21583 H 2095.44 0.2175 -0.634772 0
M  V30 21584 H 2097.98 0.0247547 -2.04485 0
M  V30 21585 H 2096.14 2.24495 -3.15722 0
M  V30 21586 H 2096.55 1.19628 -5.10675 0
M  V30 21587 H 2098.03 2.86216 -4.72 0
M  V30 21588 H 2098.5 3.16011 -3.05014 0
M  V30 21589 H 2099.11 1.71518 -3.89181 0
M  V30 21590 N 2097.42 1.54103 0.330149 0
M  V30 21591 C 2098.67 1.72248 1.07045 0
M  V30 21592 C 2099 0.491265 1.87884 0
M  V30 21593 O 2098.28 -0.511764 1.87647 0
M  V30 21594 C 2098.56 2.99412 2.00061 0
M  V30 21595 C 2098.41 4.3277 1.22596 0
M  V30 21596 C 2099.73 3.22301 2.99683 0
M  V30 21597 H 2096.85 0.626746 0.387761 0
M  V30 21598 H 2099.49 1.86791 0.347722 0
M  V30 21599 H 2097.64 2.87144 2.61688 0
M  V30 21600 H 2099.32 4.56911 0.634799 0
M  V30 21601 H 2097.56 4.30573 0.528135 0
M  V30 21602 H 2098.23 5.17954 1.9086 0
M  V30 21603 H 2100.71 3.33988 2.48176 0
M  V30 21604 H 2099.58 4.12648 3.61956 0
M  V30 21605 H 2099.84 2.39221 3.71787 0
M  V30 21606 N 2098.9 -0.59187 1.46064 0
M  V30 21607 C 2100.31 -1.17395 1.45174 0
M  V30 21608 C 2100.66 -1.953 0.187679 0
M  V30 21609 O 2099.79 -2.04428 -0.709814 0
M  V30 21610 C 2100.38 -2.1356 2.63017 0
M  V30 21611 C 2098.94 -2.6711 2.65197 0
M  V30 21612 C 2098.09 -1.42806 2.37701 0
M  V30 21613 H 2101.04 -0.380305 1.54076 0
M  V30 21614 H 2101.06 -2.96868 2.38012 0
M  V30 21615 H 2100.57 -1.5683 3.55001 0
M  V30 21616 H 2098.68 -3.27734 1.7726 0
M  V30 21617 H 2098.79 -3.1047 3.6489 0
M  V30 21618 H 2097.15 -1.72303 1.87573 0
M  V30 21619 H 2097.94 -0.879215 3.3185 0
M  V30 21620 N 2100.38 -1.33616 -0.835729 0
M  V30 21621 C 2101.33 -1.24131 -1.94577 0
M  V30 21622 C 2102.3 -0.119257 -1.65671 0
M  V30 21623 O 2103.48 -0.298063 -1.88457 0
M  V30 21624 C 2100.62 -0.989665 -3.30605 0
M  V30 21625 C 2099.74 -2.19828 -3.71887 0
M  V30 21626 C 2098.87 -1.88052 -4.96799 0
M  V30 21627 C 2097.91 -3.05128 -5.30625 0
M  V30 21628 N 2097.05 -2.7332 -6.46715 0
M  V30 21629 H 2101.89 -2.19069 -2.02022 0
M  V30 21630 H 2099.42 -1.08932 -0.988545 0
M  V30 21631 H 2101.38 -0.824187 -4.08978 0
M  V30 21632 H 2100.01 -0.0770128 -3.22708 0
M  V30 21633 H 2099.06 -2.4734 -2.89011 0
M  V30 21634 H 2100.38 -3.07341 -3.92865 0
M  V30 21635 H 2099.53 -1.68166 -5.82928 0
M  V30 21636 H 2098.27 -0.977799 -4.77797 0
M  V30 21637 H 2097.27 -3.25624 -4.43 0
M  V30 21638 H 2098.5 -3.9616 -5.51574 0
M  V30 21639 H 2096.44 -1.8561 -6.29194 0
M  V30 21640 H 2096.36 -3.54365 -6.67804 0
M  V30 21641 H 2097.63 -2.56909 -7.35947 0
M  V30 21642 N 2101.86 1.05436 -1.17136 0
M  V30 21643 C 2103.14 1.75275 -0.868216 0
M  V30 21644 C 2103.52 2.01415 0.632074 0
M  V30 21645 O 2102.86 1.64823 1.58258 0
M  V30 21646 C 2103.07 3.04772 -1.70044 0
M  V30 21647 C 2104.42 3.78768 -1.91885 0
M  V30 21648 O 2105.45 3.14636 -1.66982 0
M  V30 21649 O 2104.3 4.94 -2.33723 0
M  V30 21650 H 2101.4 0.762066 -0.321223 0
M  V30 21651 H 2103.94 1.11627 -1.27818 0
M  V30 21652 H 2102.72 2.81485 -2.71812 0
M  V30 21653 H 2102.34 3.76157 -1.28808 0
M  V30 21654 N 2103.34 0.971211 1.24118 0
M  V30 21655 C 2104.75 0.673347 1.74135 0
M  V30 21656 C 2105.1 -0.810809 1.78663 0
M  V30 21657 O 2104.22 -1.63435 1.41838 0
M  V30 21658 C 2104.82 1.21558 3.16242 0
M  V30 21659 C 2103.38 0.967552 3.63752 0
M  V30 21660 C 2102.52 1.34881 2.42286 0
M  V30 21661 H 2105.48 1.14613 1.09771 0
M  V30 21662 H 2105.5 0.583554 3.75999 0
M  V30 21663 H 2105.01 2.29578 3.12914 0
M  V30 21664 H 2103.11 -0.0969669 3.72474 0
M  V30 21665 H 2103.22 1.61567 4.51035 0
M  V30 21666 H 2101.59 0.767209 2.4287 0
M  V30 21667 H 2102.37 2.43858 2.41637 0
M  V30 21668 N 2104.81 -1.39054 0.741747 0
M  V30 21669 C 2105.72 -2.34352 0.107946 0
M  V30 21670 C 2106.74 -1.58666 -0.71422 0
M  V30 21671 O 2107.92 -1.90923 -0.641124 0
M  V30 21672 C 2104.98 -3.3773 -0.783547 0
M  V30 21673 C 2104.04 -4.29269 0.0516392 0
M  V30 21674 C 2103.28 -5.27709 -0.797398 0
M  V30 21675 O 2103.5 -5.3283 -2.03588 0
M  V30 21676 O 2102.43 -6.01489 -0.222478 0
M  V30 21677 H 2106.26 -2.90223 0.894677 0
M  V30 21678 H 2103.84 -1.40696 0.502494 0
M  V30 21679 H 2105.73 -4.01059 -1.29342 0
M  V30 21680 H 2104.4 -2.84233 -1.54898 0
M  V30 21681 H 2103.31 -3.6914 0.607193 0
M  V30 21682 H 2104.64 -4.85989 0.779446 0
M  V30 21683 N 2106.29 -0.489897 -1.49792 0
M  V30 21684 C 2107.26 0.283286 -2.27443 0
M  V30 21685 C 2108.26 0.903846 -1.32993 0
M  V30 21686 O 2109.45 0.770101 -1.56253 0
M  V30 21687 C 2106.58 1.40534 -3.10585 0
M  V30 21688 H 2107.77 -0.397946 -2.97248 0
M  V30 21689 H 2105.32 -0.244516 -1.54376 0
M  V30 21690 H 2106.06 2.12106 -2.4532 0
M  V30 21691 H 2105.84 0.965947 -3.80016 0
M  V30 21692 H 2107.33 1.95026 -3.69262 0
M  V30 21693 N 2107.77 1.56011 -0.223262 0
M  V30 21694 C 2108.73 2.19108 0.672641 0
M  V30 21695 C 2109.73 1.15344 1.12038 0
M  V30 21696 O 2110.92 1.40567 1.0289 0
M  V30 21697 C 2108.06 2.81576 1.92165 0
M  V30 21698 H 2109.25 2.9965 0.1225 0
M  V30 21699 H 2106.8 1.56278 0.0263484 0
M  V30 21700 H 2107.54 2.04909 2.51362 0
M  V30 21701 H 2107.32 3.57564 1.60906 0
M  V30 21702 H 2108.81 3.29937 2.55991 0
M  V30 21703 N 2109.25 -0.0501116 1.5752 0
M  V30 21704 C 2110.16 -1.07459 2.08542 0
M  V30 21705 C 2111.17 -1.41006 1.01947 0
M  V30 21706 O 2112.35 -1.50749 1.33555 0
M  V30 21707 C 2109.42 -2.36274 2.53723 0
M  V30 21708 C 2108.48 -2.095 3.74711 0
M  V30 21709 C 2107.71 -3.32174 4.17728 0
M  V30 21710 O 2107.93 -4.42091 3.60432 0
M  V30 21711 O 2106.87 -3.1911 5.10346 0
M  V30 21712 H 2110.69 -0.671065 2.96193 0
M  V30 21713 H 2108.28 -0.265709 1.47018 0
M  V30 21714 H 2110.16 -3.12043 2.83208 0
M  V30 21715 H 2108.83 -2.75963 1.69192 0
M  V30 21716 H 2107.74 -1.31366 3.50277 0
M  V30 21717 H 2109.07 -1.74679 4.60161 0
M  V30 21718 N 2110.73 -1.54276 -0.321972 0
M  V30 21719 C 2111.69 -1.83051 -1.37931 0
M  V30 21720 C 2112.69 -0.702392 -1.44648 0
M  V30 21721 O 2113.88 -0.970701 -1.44648 0
M  V30 21722 C 2111.01 -1.99197 -2.76647 0
M  V30 21723 H 2112.2 -2.77523 -1.1367 0
M  V30 21724 H 2109.76 -1.46018 -0.55754 0
M  V30 21725 H 2110.49 -1.06942 -3.0616 0
M  V30 21726 H 2110.28 -2.81289 -2.73164 0
M  V30 21727 H 2111.77 -2.22902 -3.53135 0
M  V30 21728 N 2112.2 0.584116 -1.46376 0
M  V30 21729 C 2113.62 0.907336 -1.313 0
M  V30 21730 C 2113.82 1.99497 -0.283388 0
M  V30 21731 O 2112.88 2.50533 0.314536 0
M  V30 21732 C 2114.19 1.32602 -2.69883 0
M  V30 21733 C 2115.74 1.43895 -2.77963 0
M  V30 21734 C 2116.21 1.89131 -4.17125 0
M  V30 21735 N 2117.7 1.96326 -4.19536 0
M  V30 21736 C 2118.44 2.32599 -5.24104 0
M  V30 21737 N 2117.93 2.67675 -6.39001 0
M  V30 21738 N 2119.73 2.33142 -5.1147 0
M  V30 21739 H 2111.88 -0.134382 -2.11974 0
M  V30 21740 H 2114.14 0.00254953 -0.947997 0
M  V30 21741 H 2113.85 0.600869 -3.46529 0
M  V30 21742 H 2113.72 2.28783 -2.99897 0
M  V30 21743 H 2116.11 2.15497 -2.01606 0
M  V30 21744 H 2116.19 0.459692 -2.51636 0
M  V30 21745 H 2115.83 1.18108 -4.93977 0
M  V30 21746 H 2115.76 2.88012 -4.40859 0
M  V30 21747 H 2118.25 1.71715 -3.36634 0
M  V30 21748 H 2118.57 2.94302 -7.14567 0
M  V30 21749 H 2116.91 2.65317 -6.42364 0
M  V30 21750 H 2120.1 2.05161 -4.20745 0
M  V30 21751 H 2120.28 2.61083 -5.93077 0
M  V30 21752 N 2113.68 1.34058 0.828631 0
M  V30 21753 C 2115.1 1.13615 1.12088 0
M  V30 21754 C 2115.3 -0.0661541 2.01391 0
M  V30 21755 O 2114.36 -0.743382 2.41309 0
M  V30 21756 C 2115.67 2.42862 1.7731 0
M  V30 21757 C 2117.22 2.48865 1.8983 0
M  V30 21758 C 2117.69 3.78099 2.58468 0
M  V30 21759 N 2119.18 3.79227 2.65972 0
M  V30 21760 C 2119.92 4.7594 3.19795 0
M  V30 21761 N 2119.41 5.83032 3.74226 0
M  V30 21762 N 2121.21 4.63402 3.18143 0
M  V30 21763 H 2113.36 2.11101 0.234506 0
M  V30 21764 H 2115.62 0.93325 0.166579 0
M  V30 21765 H 2115.33 3.30901 1.19153 0
M  V30 21766 H 2115.2 2.55776 2.77233 0
M  V30 21767 H 2117.59 1.61268 2.47137 0
M  V30 21768 H 2117.67 2.39883 0.888256 0
M  V30 21769 H 2117.31 4.66082 2.01817 0
M  V30 21770 H 2117.24 3.84361 3.59964 0
M  V30 21771 H 2119.73 3.01836 2.27384 0
M  V30 21772 H 2120.05 6.5285 4.1353 0
M  V30 21773 H 2118.39 5.86753 3.72486 0
M  V30 21774 H 2121.58 3.78889 2.74883 0
M  V30 21775 H 2121.76 5.38942 3.59786 0
M  V30 21776 N 2115.16 -1.04814 1.17694 0
M  V30 21777 C 2116.41 -1.77532 0.96576 0
M  V30 21778 C 2116.73 -1.88306 -0.506545 0
M  V30 21779 O 2116 -1.40259 -1.36763 0
M  V30 21780 H 2114.58 -0.657613 0.354336 0
M  V30 21781 H 2117.24 -1.26536 1.48239 0
M  V30 21782 H 2116.34 -2.79071 1.39735 0
M  V30 21783 N 2116.64 -0.977779 -1.23601 0
M  V30 21784 C 2117.57 -0.473925 -2.24247 0
M  V30 21785 C 2118.58 0.422811 -1.57214 0
M  V30 21786 O 2119.77 0.227368 -1.77046 0
M  V30 21787 C 2116.87 0.334033 -3.3725 0
M  V30 21788 C 2116.05 -0.555203 -4.33862 0
M  V30 21789 C 2115.11 0.198457 -5.25826 0
M  V30 21790 O 2114.13 -0.411037 -5.67714 0
M  V30 21791 N 2115.33 1.48519 -5.61179 0
M  V30 21792 H 2118.1 -1.3393 -2.6811 0
M  V30 21793 H 2115.66 -0.850748 -1.37746 0
M  V30 21794 H 2117.65 0.846503 -3.95748 0
M  V30 21795 H 2116.22 1.1004 -2.92592 0
M  V30 21796 H 2115.44 -1.24853 -3.73905 0
M  V30 21797 H 2116.73 -1.16132 -4.95369 0
M  V30 21798 H 2116.13 2.00194 -5.29092 0
M  V30 21799 H 2114.68 1.94316 -6.22161 0
M  V30 21800 N 2118.12 1.38658 -0.749111 0
M  V30 21801 C 2119.36 2.00216 -0.303277 0
M  V30 21802 C 2119.69 1.59459 1.1137 0
M  V30 21803 O 2118.95 0.821377 1.77628 0
M  V30 21804 C 2119.25 3.55494 -0.368653 0
M  V30 21805 C 2118.91 4.15948 -1.74064 0
M  V30 21806 C 2117.57 4.32173 -2.11613 0
M  V30 21807 C 2119.93 4.49344 -2.64083 0
M  V30 21808 C 2117.25 4.79088 -3.38661 0
M  V30 21809 C 2119.61 4.97674 -3.90517 0
M  V30 21810 C 2118.27 5.12106 -4.2814 0
M  V30 21811 H 2117.54 0.732643 -0.110977 0
M  V30 21812 H 2120.19 1.65774 -0.958716 0
M  V30 21813 H 2118.49 3.90046 0.370354 0
M  V30 21814 H 2120.19 4.01 -0.00534235 0
M  V30 21815 H 2116.78 4.0373 -1.43875 0
M  V30 21816 H 2120.96 4.36414 -2.3634 0
M  V30 21817 H 2116.22 4.88447 -3.67735 0
M  V30 21818 H 2120.39 5.22485 -4.60415 0
M  V30 21819 H 2118.02 5.4822 -5.26649 0
M  V30 21820 N 2119.6 0.497834 1.49531 0
M  V30 21821 C 2120.51 -0.286926 2.32839 0
M  V30 21822 C 2121.52 -0.970397 1.44427 0
M  V30 21823 O 2122.7 -0.952478 1.77454 0
M  V30 21824 C 2119.76 -1.33928 3.19788 0
M  V30 21825 C 2118.82 -0.669588 4.24046 0
M  V30 21826 C 2118.06 -1.67181 5.0684 0
M  V30 21827 O 2118.28 -2.90132 4.91101 0
M  V30 21828 O 2117.21 -1.22887 5.89222 0
M  V30 21829 H 2121.04 0.394869 3.01122 0
M  V30 21830 H 2118.62 0.259218 1.47134 0
M  V30 21831 H 2120.51 -1.94822 3.73661 0
M  V30 21832 H 2119.18 -2.00407 2.54202 0
M  V30 21833 H 2118.09 -0.0209922 3.74094 0
M  V30 21834 H 2119.42 -0.0473067 4.92177 0
M  V30 21835 N 2121.07 -1.5589 0.231532 0
M  V30 21836 C 2122.3 -2.03407 -0.405035 0
M  V30 21837 C 2122.72 -1.11007 -1.51852 0
M  V30 21838 O 2122.08 -0.100101 -1.81023 0
M  V30 21839 C 2122.13 -3.4907 -0.904554 0
M  V30 21840 O 2121.23 -3.59808 -2.01524 0
M  V30 21841 H 2120.57 -0.657819 -0.090391 0
M  V30 21842 H 2123.1 -2.0153 0.353092 0
M  V30 21843 H 2123.11 -3.89589 -1.21178 0
M  V30 21844 H 2121.79 -4.15803 -0.0896407 0
M  V30 21845 H 2120.37 -3.3118 -1.71388 0
M  V30 21846 N 2122.55 0.0417572 -1.57545 0
M  V30 21847 C 2123.8 0.736189 -1.88966 0
M  V30 21848 C 2124.13 1.75678 -0.827697 0
M  V30 21849 O 2123.41 1.93851 0.158734 0
M  V30 21850 C 2123.69 1.4172 -3.3104 0
M  V30 21851 C 2123.54 0.410987 -4.47918 0
M  V30 21852 C 2124.86 2.3545 -3.71822 0
M  V30 21853 H 2121.98 0.266166 -0.687259 0
M  V30 21854 H 2124.62 -0.000952352 -1.9 0
M  V30 21855 H 2122.77 2.04552 -3.30289 0
M  V30 21856 H 2124.44 -0.214433 -4.60801 0
M  V30 21857 H 2122.69 -0.270954 -4.32953 0
M  V30 21858 H 2123.36 0.925718 -5.44182 0
M  V30 21859 H 2125.83 1.82673 -3.73858 0
M  V30 21860 H 2124.71 2.80087 -4.72062 0
M  V30 21861 H 2124.97 3.21575 -3.03384 0
M  V30 21862 N 2124.03 1.54445 0.313786 0
M  V30 21863 C 2124.99 1.8378 1.36959 0
M  V30 21864 C 2125.99 0.710053 1.44274 0
M  V30 21865 O 2127.18 0.978359 1.44131 0
M  V30 21866 C 2124.31 2.00661 2.75586 0
M  V30 21867 H 2125.51 2.78122 1.12197 0
M  V30 21868 H 2123.06 1.46311 0.549789 0
M  V30 21869 H 2123.8 1.08564 3.05589 0
M  V30 21870 H 2123.58 2.82734 2.71669 0
M  V30 21871 H 2125.07 2.24771 3.51948 0
M  V30 21872 N 2125.51 -0.576345 1.46683 0
M  V30 21873 C 2126.92 -1.15848 1.46411 0
M  V30 21874 C 2127.27 -1.9509 0.208383 0
M  V30 21875 O 2126.39 -2.05169 -0.688092 0
M  V30 21876 C 2126.99 -2.10758 2.65267 0
M  V30 21877 C 2125.55 -2.64282 2.68015 0
M  V30 21878 C 2124.7 -1.40277 2.39202 0
M  V30 21879 H 2127.65 -0.363942 1.54471 0
M  V30 21880 H 2127.67 -2.94327 2.41147 0
M  V30 21881 H 2127.18 -1.53056 3.56645 0
M  V30 21882 H 2125.28 -3.25835 1.80726 0
M  V30 21883 H 2125.39 -3.06583 3.68163 0
M  V30 21884 H 2123.76 -1.70304 1.8939 0
M  V30 21885 H 2124.54 -0.843968 3.32764 0
M  V30 21886 N 2126.99 -1.34495 -0.82151 0
M  V30 21887 C 2128.21 -1.30164 -1.61468 0
M  V30 21888 C 2128.64 0.121303 -1.87708 0
M  V30 21889 O 2127.99 1.08349 -1.45362 0
M  V30 21890 C 2128.04 -2.09951 -2.93177 0
M  V30 21891 O 2127.15 -1.47 -3.85311 0
M  V30 21892 H 2126.49 -0.446975 -0.491029 0
M  V30 21893 H 2129.02 -1.77318 -1.02075 0
M  V30 21894 H 2129.03 -2.21359 -3.4273 0
M  V30 21895 H 2127.7 -3.13407 -2.73402 0
M  V30 21896 H 2126.28 -1.44343 -3.4383 0
M  V30 21897 N 2128.46 1.04188 -1.18248 0
M  V30 21898 C 2129.4 2.12204 -0.866138 0
M  V30 21899 C 2130.41 1.62233 0.135743 0
M  V30 21900 O 2131.6 1.78263 -0.0919276 0
M  V30 21901 C 2128.7 3.37802 -0.272597 0
M  V30 21902 C 2127.87 4.17012 -1.31983 0
M  V30 21903 C 2126.93 5.20939 -0.74221 0
M  V30 21904 O 2125.96 5.5129 -1.41662 0
M  V30 21905 N 2127.16 5.78668 0.460879 0
M  V30 21906 H 2129.92 2.39936 -1.79585 0
M  V30 21907 H 2127.48 1.20371 -1.0827 0
M  V30 21908 H 2129.48 4.045 0.127367 0
M  V30 21909 H 2128.05 3.07523 0.561114 0
M  V30 21910 H 2127.27 3.45655 -1.89516 0
M  V30 21911 H 2128.55 4.66728 -2.0259 0
M  V30 21912 H 2127.95 5.56308 1.02655 0
M  V30 21913 H 2126.51 6.46837 0.80278 0
M  V30 21914 N 2129.94 0.98432 1.23081 0
M  V30 21915 C 2130.89 0.520259 2.26707 0
M  V30 21916 C 2131.88 -0.424715 1.63989 0
M  V30 21917 O 2133.09 -0.298177 1.77513 0
M  V30 21918 H 2129.47 0.149826 0.736923 0
M  V30 21919 H 2131.44 1.40587 2.63207 0
M  V30 21920 C 2130.19 -0.157874 3.47341 0
M  V30 21921 H 2129.51 0.560186 3.95856 0
M  V30 21922 H 2130.95 -0.446157 4.21646 0
M  V30 21923 C 2129.41 -1.3904 3.0687 0
M  V30 21924 O 2129.94 -2.48637 3.15503 0
M  V30 21925 N 2128.14 -1.26249 2.61743 0
M  V30 21926 H 2127.69 -0.370736 2.54918 0
M  V30 21927 H 2127.65 -2.08824 2.35032 0
M  V30 21928 N 2131.42 -1.38259 0.756453 0
M  V30 21929 C 2132.67 -2.00052 0.313891 0
M  V30 21930 C 2133 -1.60047 -1.10523 0
M  V30 21931 O 2132.25 -0.830786 -1.7719 0
M  V30 21932 C 2132.55 -3.55293 0.3875 0
M  V30 21933 C 2132.22 -4.15019 1.76268 0
M  V30 21934 C 2130.88 -4.31045 2.13902 0
M  V30 21935 C 2133.23 -4.47937 2.66462 0
M  V30 21936 C 2130.56 -4.77286 3.41197 0
M  V30 21937 C 2132.91 -4.95596 3.93151 0
M  V30 21938 C 2131.57 -5.09828 4.3085 0
M  V30 21939 H 2130.84 -0.732044 0.114861 0
M  V30 21940 H 2133.49 -1.65263 0.967494 0
M  V30 21941 H 2131.8 -3.90237 -0.349664 0
M  V30 21942 H 2133.49 -4.00991 0.0266083 0
M  V30 21943 H 2130.08 -4.02962 1.46014 0
M  V30 21944 H 2134.27 -4.35154 2.38651 0
M  V30 21945 H 2129.52 -4.8649 3.7032 0
M  V30 21946 H 2133.7 -5.20036 4.6318 0
M  V30 21947 H 2131.32 -5.45419 5.29549 0
M  V30 21948 N 2132.9 -0.505757 -1.49264 0
M  V30 21949 C 2134.12 0.0358953 -2.07369 0
M  V30 21950 C 2134.55 1.29628 -1.36302 0
M  V30 21951 O 2133.91 1.76338 -0.421242 0
M  V30 21952 C 2133.95 0.267709 -3.59605 0
M  V30 21953 O 2133.06 1.34146 -3.89973 0
M  V30 21954 H 2132.4 -0.0283388 -0.663395 0
M  V30 21955 H 2134.93 -0.70674 -1.92006 0
M  V30 21956 H 2134.94 0.497774 -4.04952 0
M  V30 21957 H 2133.61 -0.653126 -4.1074 0
M  V30 21958 H 2132.19 1.09597 -3.56431 0
M  V30 21959 N 2134.38 1.55765 -0.239796 0
M  V30 21960 C 2135.65 1.90659 0.436876 0
M  V30 21961 C 2136.03 1.1596 1.76398 0
M  V30 21962 O 2135.38 0.274778 2.26842 0
M  V30 21963 C 2135.59 3.43593 0.611939 0
M  V30 21964 C 2136.94 4.1471 0.911065 0
M  V30 21965 O 2137.96 3.49293 0.698064 0
M  V30 21966 O 2136.82 5.30411 1.3163 0
M  V30 21967 H 2133.92 0.793348 0.233511 0
M  V30 21968 H 2136.46 1.67318 -0.283335 0
M  V30 21969 H 2135.23 3.89961 -0.323424 0
M  V30 21970 H 2134.86 3.72773 1.38296 0
M  V30 21971 N 2135.85 -0.0334016 1.57565 0
M  V30 21972 C 2137.08 -0.740692 1.93723 0
M  V30 21973 C 2137.5 -1.6833 0.839447 0
M  V30 21974 O 2136.86 -1.80136 -0.205152 0
M  V30 21975 C 2136.91 -1.47761 3.28936 0
M  V30 21976 O 2136.01 -2.59056 3.2088 0
M  V30 21977 H 2135.36 -0.199518 0.633315 0
M  V30 21978 H 2137.89 0.00982998 2.04598 0
M  V30 21979 H 2137.9 -1.84849 3.63724 0
M  V30 21980 H 2136.57 -0.786263 4.084 0
M  V30 21981 H 2135.15 -2.24543 2.97716 0
M  V30 21982 N 2137.33 -1.54609 -0.305591 0
M  V30 21983 C 2138.56 -1.77981 -1.06479 0
M  V30 21984 C 2138.98 -0.535455 -1.80318 0
M  V30 21985 O 2138.34 0.513813 -1.73867 0
M  V30 21986 C 2138.39 -2.984 -2.0246 0
M  V30 21987 O 2137.49 -2.71203 -3.10681 0
M  V30 21988 H 2136.83 -0.589228 -0.306114 0
M  V30 21989 H 2139.36 -2.0168 -0.344411 0
M  V30 21990 H 2139.37 -3.26244 -2.45008 0
M  V30 21991 H 2138.05 -3.8863 -1.48121 0
M  V30 21992 H 2136.63 -2.54362 -2.7268 0
M  V30 21993 N 2138.81 0.568558 -1.46987 0
M  V30 21994 C 2139.72 1.70416 -1.61232 0
M  V30 21995 C 2140.74 1.66798 -0.495411 0
M  V30 21996 O 2141.91 1.86451 -0.761438 0
M  V30 21997 C 2138.98 3.06924 -1.6124 0
M  V30 21998 C 2138.04 3.21697 -2.8427 0
M  V30 21999 C 2137.27 4.51694 -2.84268 0
M  V30 22000 O 2137.49 5.36458 -1.93827 0
M  V30 22001 O 2136.43 4.70015 -3.75991 0
M  V30 22002 H 2140.25 1.61343 -2.57298 0
M  V30 22003 H 2137.84 0.737255 -1.29942 0
M  V30 22004 H 2139.72 3.88182 -1.6399 0
M  V30 22005 H 2138.4 3.16404 -0.683373 0
M  V30 22006 H 2137.3 2.39879 -2.87069 0
M  V30 22007 H 2138.64 3.17115 -3.76429 0
M  V30 22008 N 2140.29 1.34929 0.814366 0
M  V30 22009 C 2141.51 1.31019 1.60776 0
M  V30 22010 C 2141.94 -0.111347 1.8777 0
M  V30 22011 O 2141.3 -1.07577 1.45935 0
M  V30 22012 C 2141.34 2.11503 2.92059 0
M  V30 22013 O 2140.45 1.49042 3.84526 0
M  V30 22014 H 2139.79 0.449572 0.488652 0
M  V30 22015 H 2142.32 1.77857 1.01133 0
M  V30 22016 H 2142.33 2.23174 3.41552 0
M  V30 22017 H 2141 3.14853 2.71736 0
M  V30 22018 H 2139.58 1.46165 3.4306 0
M  V30 22019 N 2141.77 -1.0356 1.18799 0
M  V30 22020 C 2143.04 -1.73872 0.895991 0
M  V30 22021 C 2143.42 -2.02395 -0.59995 0
M  V30 22022 O 2142.77 -1.6732 -1.55616 0
M  V30 22023 C 2142.98 -3.02028 1.74871 0
M  V30 22024 C 2144.33 -3.75667 1.97887 0
M  V30 22025 O 2145.35 -3.11939 1.71966 0
M  V30 22026 O 2144.21 -4.90219 2.41553 0
M  V30 22027 H 2141.31 -0.756859 0.333306 0
M  V30 22028 H 2143.85 -1.09579 1.29578 0
M  V30 22029 H 2142.62 -2.77126 2.76256 0
M  V30 22030 H 2142.25 -3.7406 1.34776 0
M  V30 22031 N 2143.25 -0.990834 -1.22557 0
M  V30 22032 C 2144.47 -0.683901 -1.9527 0
M  V30 22033 C 2144.89 0.751046 -1.73219 0
M  V30 22034 O 2144.25 1.50657 -1.02999 0
M  V30 22035 C 2144.3 -0.977753 -3.48026 0
M  V30 22036 O 2144.02 -2.35631 -3.69337 0
M  V30 22037 C 2145.52 -0.688232 -4.37925 0
M  V30 22038 H 2142.74 -0.25317 -0.621406 0
M  V30 22039 H 2145.28 -1.32505 -1.55765 0
M  V30 22040 H 2143.44 -0.382447 -3.85508 0
M  V30 22041 H 2143.85 -2.45399 -4.63551 0
M  V30 22042 H 2145.33 -0.944126 -5.43866 0
M  V30 22043 H 2145.8 0.377761 -4.37572 0
M  V30 22044 H 2146.41 -1.26449 -4.06067 0
M  V30 22045 N 2144.72 1.37856 -0.763775 0
M  V30 22046 C 2145.67 2.27693 -0.118367 0
M  V30 22047 C 2146.66 1.45707 0.682513 0
M  V30 22048 O 2147.85 1.68342 0.546795 0
M  V30 22049 C 2144.98 3.34642 0.766129 0
M  V30 22050 C 2144.06 4.24079 -0.0421497 0
M  V30 22051 N 2144.46 4.94053 -1.08375 0
M  V30 22052 C 2142.75 4.45624 0.183082 0
M  V30 22053 C 2143.45 5.6001 -1.57365 0
M  V30 22054 N 2142.43 5.36311 -0.887185 0
M  V30 22055 H 2146.23 2.79262 -0.915967 0
M  V30 22056 H 2143.75 1.50879 -0.600774 0
M  V30 22057 H 2145.74 3.97901 1.24421 0
M  V30 22058 H 2144.4 2.8463 1.56256 0
M  V30 22059 H 2145.41 4.96726 -1.46575 0
M  V30 22060 H 2142.09 4.065 0.952055 0
M  V30 22061 H 2143.48 6.25958 -2.44183 0
M  V30 22062 N 2146.2 0.513665 1.48994 0
M  V30 22063 C 2147.61 0.0690541 1.86572 0
M  V30 22064 C 2147.96 -1.34882 1.42482 0
M  V30 22065 O 2147.09 -2.00738 0.808279 0
M  V30 22066 C 2147.68 0.118539 3.38593 0
M  V30 22067 C 2146.24 -0.270792 3.75425 0
M  V30 22068 C 2145.39 0.485519 2.73016 0
M  V30 22069 H 2148.34 0.725789 1.41131 0
M  V30 22070 H 2148.36 -0.673737 3.74488 0
M  V30 22071 H 2147.87 1.1506 3.70652 0
M  V30 22072 H 2145.97 -1.30561 3.48976 0
M  V30 22073 H 2146.09 0.0574672 4.79066 0
M  V30 22074 H 2144.45 -0.066227 2.54614 0
M  V30 22075 H 2145.23 1.5179 3.0792 0
M  V30 22076 N 2147.68 -1.55636 0.248053 0
M  V30 22077 C 2148.93 -1.98972 -0.37637 0
M  V30 22078 C 2149.25 -1.1362 -1.57863 0
M  V30 22079 O 2148.51 -0.187287 -1.94802 0
M  V30 22080 C 2148.81 -3.47664 -0.828526 0
M  V30 22081 C 2148.47 -4.50114 0.266108 0
M  V30 22082 C 2147.14 -4.77851 0.566745 0
M  V30 22083 C 2149.49 -5.11418 1.00506 0
M  V30 22084 C 2146.82 -5.64166 1.61039 0
M  V30 22085 C 2149.17 -5.98865 2.03823 0
M  V30 22086 C 2147.83 -6.24934 2.3455 0
M  V30 22087 H 2147.1 -0.728089 -0.137723 0
M  V30 22088 H 2149.75 -1.8816 0.356118 0
M  V30 22089 H 2148.05 -3.55814 -1.64024 0
M  V30 22090 H 2149.75 -3.78583 -1.32196 0
M  V30 22091 H 2146.34 -4.28595 0.0216504 0
M  V30 22092 H 2150.53 -4.90036 0.786048 0
M  V30 22093 H 2145.78 -5.82619 1.85378 0
M  V30 22094 H 2149.96 -6.45409 2.61573 0
M  V30 22095 H 2147.58 -6.91612 3.15558 0
M  V30 22096 N 2149.16 0.0250451 -1.5758 0
M  V30 22097 C 2150.4 0.716105 -1.89736 0
M  V30 22098 C 2150.74 1.7479 -0.846284 0
M  V30 22099 O 2150.01 1.94009 0.138165 0
M  V30 22100 C 2150.29 1.38201 -3.32524 0
M  V30 22101 C 2150.15 0.363457 -4.48329 0
M  V30 22102 C 2151.47 2.31493 -3.74298 0
M  V30 22103 H 2148.59 0.258862 -0.690043 0
M  V30 22104 H 2151.23 -0.0211043 -1.89988 0
M  V30 22105 H 2149.38 2.01037 -3.3244 0
M  V30 22106 H 2151.05 -0.263295 -4.60548 0
M  V30 22107 H 2149.29 -0.316859 -4.32641 0
M  V30 22108 H 2149.96 0.867948 -5.45134 0
M  V30 22109 H 2152.44 1.78697 -3.75774 0
M  V30 22110 H 2151.32 2.75065 -4.75006 0
M  V30 22111 H 2151.58 3.1834 -3.06777 0
M  V30 22112 N 2150.64 1.54769 0.297388 0
M  V30 22113 C 2151.88 1.7343 1.0298 0
M  V30 22114 C 2152.2 0.529189 1.88305 0
M  V30 22115 O 2153.4 0.597687 2.64839 0
M  V30 22116 C 2151.86 3.06854 1.88065 0
M  V30 22117 C 2151.47 4.34856 1.07724 0
M  V30 22118 C 2153.21 3.34873 2.60883 0
M  V30 22119 C 2151.12 5.59329 1.92107 0
M  V30 22120 H 2150.05 0.646388 0.388199 0
M  V30 22121 H 2152.7 1.81248 0.286615 0
M  V30 22122 H 2151.08 2.93011 2.66385 0
M  V30 22123 H 2152.26 4.59544 0.339927 0
M  V30 22124 H 2150.57 4.13799 0.464715 0
M  V30 22125 H 2153.17 4.25071 3.24374 0
M  V30 22126 H 2153.51 2.5391 3.29902 0
M  V30 22127 H 2154.04 3.49704 1.8961 0
M  V30 22128 H 2150.78 6.4297 1.27551 0
M  V30 22129 H 2150.3 5.3882 2.63501 0
M  V30 22130 H 2151.98 5.96721 2.50067 0
M  V30 22131 N 2152.11 -0.560755 1.47286 0
M  V30 22132 C 2153.08 -1.6502 1.59063 0
M  V30 22133 C 2154.08 -1.539 0.465997 0
M  V30 22134 O 2155.27 -1.58122 0.730962 0
M  V30 22135 C 2152.4 -3.04548 1.53177 0
M  V30 22136 H 2153.59 -1.5593 2.56176 0
M  V30 22137 H 2151.14 -0.780391 1.35424 0
M  V30 22138 H 2151.88 -3.19175 0.574264 0
M  V30 22139 H 2151.66 -3.14029 2.34794 0
M  V30 22140 H 2153.15 -3.83814 1.64549 0
M  V30 22141 N 2153.59 -1.35359 -0.807199 0
M  V30 22142 C 2154.54 -1.2823 -1.919 0
M  V30 22143 C 2155.51 -0.154371 -1.65381 0
M  V30 22144 O 2156.69 -0.337971 -1.87783 0
M  V30 22145 C 2153.83 -1.05957 -3.28431 0
M  V30 22146 C 2152.95 -2.27666 -3.6714 0
M  V30 22147 C 2152.08 -1.98548 -4.92699 0
M  V30 22148 C 2151.12 -3.16315 -5.24034 0
M  V30 22149 N 2150.26 -2.86976 -6.40772 0
M  V30 22150 H 2155.1 -2.23305 -1.97329 0
M  V30 22151 H 2152.63 -1.11004 -0.965216 0
M  V30 22152 H 2154.59 -0.910752 -4.07138 0
M  V30 22153 H 2153.22 -0.145447 -3.22472 0
M  V30 22154 H 2152.27 -2.53414 -2.83699 0
M  V30 22155 H 2153.59 -3.15606 -3.86257 0
M  V30 22156 H 2152.74 -1.80493 -5.7923 0
M  V30 22157 H 2151.48 -1.07893 -4.75616 0
M  V30 22158 H 2150.48 -3.34948 -4.35993 0
M  V30 22159 H 2151.71 -4.07771 -5.43047 0
M  V30 22160 H 2149.66 -1.98914 -6.25115 0
M  V30 22161 H 2149.57 -3.6845 -6.60137 0
M  V30 22162 H 2150.84 -2.72461 -7.30332 0
M  V30 22163 N 2155.07 1.02928 -1.19346 0
M  V30 22164 C 2156.3 1.79948 -1.02109 0
M  V30 22165 C 2156.71 1.83834 0.430184 0
M  V30 22166 O 2156.07 1.28209 1.2988 0
M  V30 22167 C 2156.12 3.25018 -1.58258 0
M  V30 22168 O 2155.84 3.21409 -2.97705 0
M  V30 22169 C 2157.34 4.18638 -1.45798 0
M  V30 22170 H 2154.56 0.566313 -0.359904 0
M  V30 22171 H 2157.11 1.29645 -1.58153 0
M  V30 22172 H 2155.26 3.72512 -1.06364 0
M  V30 22173 H 2155.68 4.12372 -3.24113 0
M  V30 22174 H 2157.15 5.1832 -1.89865 0
M  V30 22175 H 2157.63 4.37297 -0.408433 0
M  V30 22176 H 2158.23 3.77017 -1.96821 0
M  V30 22177 N 2156.55 0.997319 1.2203 0
M  V30 22178 C 2157.46 0.560352 2.2781 0
M  V30 22179 C 2158.47 -0.392977 1.69504 0
M  V30 22180 O 2159.65 -0.258715 1.99731 0
M  V30 22181 C 2156.71 -0.113747 3.46513 0
M  V30 22182 C 2155.78 0.883099 4.20119 0
M  V30 22183 C 2155.01 0.241074 5.33155 0
M  V30 22184 O 2155.23 -0.963972 5.62195 0
M  V30 22185 O 2154.17 0.948154 5.94385 0
M  V30 22186 H 2157.99 1.44049 2.67364 0
M  V30 22187 H 2155.58 0.765793 1.28281 0
M  V30 22188 H 2157.46 -0.491137 4.18528 0
M  V30 22189 H 2156.13 -0.968387 3.08875 0
M  V30 22190 H 2155.04 1.3115 3.50358 0
M  V30 22191 H 2156.37 1.70708 4.61649 0
M  V30 22192 N 2158.03 -1.37449 0.771075 0
M  V30 22193 C 2158.96 -2.32874 0.170867 0
M  V30 22194 C 2159.94 -1.55746 -0.683892 0
M  V30 22195 O 2161.12 -1.83987 -0.621492 0
M  V30 22196 C 2158.25 -3.39974 -0.709566 0
M  V30 22197 C 2157.21 -4.27978 0.0438353 0
M  V30 22198 C 2156.53 -5.26084 -0.955998 0
M  V30 22199 C 2157.83 -5.07793 1.22245 0
M  V30 22200 H 2159.53 -2.83319 0.968038 0
M  V30 22201 H 2157.07 -1.36219 0.466952 0
M  V30 22202 H 2159.03 -4.05708 -1.13926 0
M  V30 22203 H 2157.75 -2.88053 -1.53925 0
M  V30 22204 H 2156.41 -3.63774 0.454301 0
M  V30 22205 H 2156.06 -4.70444 -1.78021 0
M  V30 22206 H 2155.76 -5.85824 -0.456445 0
M  V30 22207 H 2157.28 -5.94693 -1.38465 0
M  V30 22208 H 2158.69 -5.66669 0.869436 0
M  V30 22209 H 2157.09 -5.76855 1.65404 0
M  V30 22210 H 2158.16 -4.40506 2.02688 0
M  V30 22211 N 2159.5 -0.52156 -1.4872 0
M  V30 22212 C 2160.73 0.013899 -2.07395 0
M  V30 22213 C 2161.15 1.28175 -1.37669 0
M  V30 22214 O 2160.51 1.75882 -0.439921 0
M  V30 22215 C 2160.56 0.229553 -3.59869 0
M  V30 22216 O 2159.66 1.30002 -3.91374 0
M  V30 22217 H 2159.01 -0.0353734 -0.663057 0
M  V30 22218 H 2161.54 -0.727065 -1.91246 0
M  V30 22219 H 2161.55 0.454795 -4.05457 0
M  V30 22220 H 2160.22 -0.696653 -4.10024 0
M  V30 22221 H 2158.8 1.0581 -3.57573 0
M  V30 22222 N 2160.98 1.55502 -0.256304 0
M  V30 22223 C 2162.21 2.0357 0.36969 0
M  V30 22224 C 2162.63 1.13529 1.50853 0
M  V30 22225 O 2161.98 0.151576 1.81869 0
M  V30 22226 C 2162.03 3.5091 0.868581 0
M  V30 22227 O 2161.75 4.37522 -0.224886 0
M  V30 22228 C 2163.26 4.14782 1.56431 0
M  V30 22229 H 2160.48 0.665369 0.0867485 0
M  V30 22230 H 2163.02 2.00883 -0.382912 0
M  V30 22231 H 2161.17 3.54102 1.57133 0
M  V30 22232 H 2161.59 5.2427 0.155467 0
M  V30 22233 H 2163.06 5.1954 1.865 0
M  V30 22234 H 2163.54 3.6183 2.48949 0
M  V30 22235 H 2164.15 4.1554 0.905893 0
M  V30 22236 N 2162.46 -0.0166879 1.57591 0
M  V30 22237 C 2163.42 -0.998156 2.06324 0
M  V30 22238 C 2164.42 -1.28282 0.969561 0
M  V30 22239 O 2165.61 -1.23078 1.23278 0
M  V30 22240 C 2162.75 -2.32767 2.49063 0
M  V30 22241 H 2163.94 -0.576954 2.94298 0
M  V30 22242 H 2161.49 -0.263799 1.54058 0
M  V30 22243 H 2162.23 -2.7961 1.64282 0
M  V30 22244 H 2162.01 -2.13431 3.28922 0
M  V30 22245 H 2163.5 -3.03207 2.87151 0
M  V30 22246 N 2163.94 -1.54924 -0.289176 0
M  V30 22247 C 2165.18 -1.75025 -1.0244 0
M  V30 22248 C 2165.52 -0.540906 -1.86515 0
M  V30 22249 O 2164.79 0.461833 -1.88937 0
M  V30 22250 C 2165.08 -3.04611 -1.92052 0
M  V30 22251 C 2164.93 -4.35869 -1.11079 0
M  V30 22252 C 2166.25 -3.30134 -2.91032 0
M  V30 22253 H 2163.37 -0.636806 -0.371008 0
M  V30 22254 H 2166.01 -1.87647 -0.298076 0
M  V30 22255 H 2164.16 -2.93981 -2.53983 0
M  V30 22256 H 2165.83 -4.58434 -0.513434 0
M  V30 22257 H 2164.07 -4.31822 -0.41379 0
M  V30 22258 H 2164.74 -5.22832 -1.7706 0
M  V30 22259 H 2167.22 -3.40451 -2.39233 0
M  V30 22260 H 2166.1 -4.221 -3.50889 0
M  V30 22261 H 2166.36 -2.48995 -3.65314 0
M  V30 22262 N 2165.42 0.552936 -1.47582 0
M  V30 22263 C 2166.35 1.67497 -1.56453 0
M  V30 22264 C 2167.36 1.56445 -0.450408 0
M  V30 22265 O 2168.55 1.63325 -0.720217 0
M  V30 22266 C 2165.65 3.05994 -1.45674 0
M  V30 22267 C 2164.82 3.42757 -2.71729 0
M  V30 22268 C 2163.88 4.60435 -2.54727 0
M  V30 22269 O 2162.91 4.64802 -3.28554 0
M  V30 22270 N 2164.11 5.57194 -1.62833 0
M  V30 22271 H 2166.88 1.60332 -2.53207 0
M  V30 22272 H 2164.44 0.739677 -1.44015 0
M  V30 22273 H 2166.43 3.82558 -1.32028 0
M  V30 22274 H 2165 3.07362 -0.569854 0
M  V30 22275 H 2164.22 2.55598 -3.00106 0
M  V30 22276 H 2165.51 3.64095 -3.55404 0
M  V30 22277 H 2164.9 5.56426 -1.02012 0
M  V30 22278 H 2163.46 6.33068 -1.55137 0
M  V30 22279 N 2166.89 1.35785 0.800009 0
M  V30 22280 C 2168.31 1.26354 1.37446 0
M  V30 22281 C 2168.66 -0.101241 1.95939 0
M  V30 22282 O 2167.78 -1.00241 1.91783 0
M  V30 22283 C 2168.38 2.28793 2.49878 0
M  V30 22284 C 2166.94 2.23083 3.03168 0
M  V30 22285 C 2166.08 2.14145 1.76174 0
M  V30 22286 H 2169.03 1.46818 0.602508 0
M  V30 22287 H 2169.05 1.91822 3.2861 0
M  V30 22288 H 2168.57 3.28113 2.07277 0
M  V30 22289 H 2166.67 1.27195 3.50217 0
M  V30 22290 H 2166.78 3.15326 3.60703 0
M  V30 22291 H 2165.14 1.60228 1.97987 0
M  V30 22292 H 2165.93 3.15335 1.35715 0
M  V30 22293 N 2168.37 -1.02294 1.19891 0
M  V30 22294 C 2169.32 -2.12815 0.938741 0
M  V30 22295 C 2170.31 -1.69058 -0.107611 0
M  V30 22296 O 2171.52 -1.79951 0.042175 0
M  V30 22297 H 2167.9 -0.695408 0.286203 0
M  V30 22298 H 2169.87 -2.31946 1.87732 0
M  V30 22299 C 2168.62 -3.4408 0.500448 0
M  V30 22300 H 2167.94 -3.78172 1.29716 0
M  V30 22301 H 2169.38 -4.2249 0.357569 0
M  V30 22302 C 2167.84 -3.27596 -0.786307 0
M  V30 22303 O 2168.37 -3.56756 -1.84629 0
M  V30 22304 N 2166.57 -2.80865 -0.745861 0
M  V30 22305 H 2166.12 -2.57334 0.116994 0
M  V30 22306 H 2166.08 -2.70217 -1.60718 0
M  V30 22307 N 2169.85 -1.00378 -1.21499 0
M  V30 22308 C 2170.76 -0.572425 -2.27509 0
M  V30 22309 C 2171.78 0.383982 -1.6971 0
M  V30 22310 O 2172.95 0.248119 -1.99866 0
M  V30 22311 C 2170.02 0.0953686 -3.46569 0
M  V30 22312 C 2169.08 -0.905366 -4.19645 0
M  V30 22313 C 2168.31 -0.269345 -5.3302 0
M  V30 22314 O 2168.53 0.934144 -5.62699 0
M  V30 22315 O 2167.47 -0.979662 -5.93874 0
M  V30 22316 H 2171.29 -1.45465 -2.66596 0
M  V30 22317 H 2168.88 -0.772585 -1.27873 0
M  V30 22318 H 2170.76 0.468934 -4.18783 0
M  V30 22319 H 2169.44 0.951993 -3.09385 0
M  V30 22320 H 2168.34 -1.33007 -3.49657 0
M  V30 22321 H 2169.68 -1.73154 -4.60737 0
M  V30 22322 N 2171.33 1.37038 -0.778354 0
M  V30 22323 C 2172.55 2.0432 -0.356086 0
M  V30 22324 C 2172.98 1.58315 1.01577 0
M  V30 22325 O 2172.34 0.74645 1.65221 0
M  V30 22326 C 2172.38 3.58196 -0.41573 0
M  V30 22327 O 2171.49 4.08281 0.581416 0
M  V30 22328 H 2170.83 0.646127 -0.153022 0
M  V30 22329 H 2173.36 1.75219 -1.05639 0
M  V30 22330 H 2173.37 4.0707 -0.275375 0
M  V30 22331 H 2172.04 3.91034 -1.41652 0
M  V30 22332 H 2170.62 3.70709 0.403635 0
M  V30 22333 N 2172.81 0.529439 1.48441 0
M  V30 22334 C 2174.04 -0.000824174 2.069 0
M  V30 22335 C 2174.45 -1.28195 1.38605 0
M  V30 22336 O 2173.81 -1.76253 0.4734 0
M  V30 22337 C 2173.86 -0.229032 3.60774 0
M  V30 22338 O 2173.58 1.00134 4.26503 0
M  V30 22339 C 2175.08 -0.799736 4.36027 0
M  V30 22340 H 2172.3 0.0332691 0.670175 0
M  V30 22341 H 2174.84 0.734929 1.90838 0
M  V30 22342 H 2173 -0.914832 3.76443 0
M  V30 22343 H 2173.41 0.781737 5.18642 0
M  V30 22344 H 2174.89 -0.908842 5.44467 0
M  V30 22345 H 2175.36 -1.8045 4.00418 0
M  V30 22346 H 2175.97 -0.150518 4.25034 0
M  V30 22347 N 2174.29 -1.55364 0.264547 0
M  V30 22348 C 2175.2 -2.25763 -0.637821 0
M  V30 22349 C 2176.21 -1.27983 -1.17883 0
M  V30 22350 O 2177.39 -1.60897 -1.21136 0
M  V30 22351 C 2174.45 -2.95689 -1.81021 0
M  V30 22352 C 2173.51 -4.08923 -1.30693 0
M  V30 22353 C 2172.75 -4.75505 -2.42344 0
M  V30 22354 O 2172.97 -4.41244 -3.61469 0
M  V30 22355 O 2171.9 -5.63667 -2.111 0
M  V30 22356 H 2175.73 -3.03624 -0.0678471 0
M  V30 22357 H 2173.31 -1.49365 0.0323545 0
M  V30 22358 H 2175.2 -3.39671 -2.49402 0
M  V30 22359 H 2173.87 -2.20754 -2.36747 0
M  V30 22360 H 2172.78 -3.6942 -0.589885 0
M  V30 22361 H 2174.11 -4.85728 -0.795542 0
M  V30 22362 N 2175.76 0.00833021 -1.57598 0
M  V30 22363 C 2176.99 0.706123 -1.94478 0
M  V30 22364 C 2177.41 1.67768 -0.86599 0
M  V30 22365 O 2176.76 1.81834 0.155828 0
M  V30 22366 C 2176.81 1.44523 -3.31354 0
M  V30 22367 O 2176.54 0.512651 -4.3509 0
M  V30 22368 C 2178.04 2.2383 -3.82642 0
M  V30 22369 H 2175.26 0.197195 -0.64137 0
M  V30 22370 H 2177.8 -0.0403132 -2.0446 0
M  V30 22371 H 2175.96 2.14337 -3.22705 0
M  V30 22372 H 2176.37 1.03321 -5.14223 0
M  V30 22373 H 2177.84 2.71055 -4.80867 0
M  V30 22374 H 2178.32 3.06148 -3.14913 0
M  V30 22375 H 2178.93 1.59049 -3.94441 0
M  V30 22376 N 2177.24 1.55075 0.280956 0
M  V30 22377 C 2178.47 1.79322 1.03205 0
M  V30 22378 C 2178.88 0.56257 1.80224 0
M  V30 22379 O 2178.24 -0.468172 1.76393 0
M  V30 22380 C 2178.29 3.01341 1.99689 0
M  V30 22381 O 2178.01 4.19652 1.25792 0
M  V30 22382 C 2179.51 3.38131 2.86675 0
M  V30 22383 H 2176.73 0.597563 0.30522 0
M  V30 22384 H 2179.28 2.02073 0.31415 0
M  V30 22385 H 2177.43 2.8074 2.66953 0
M  V30 22386 H 2177.85 4.88582 1.90757 0
M  V30 22387 H 2179.32 4.267 3.50188 0
M  V30 22388 H 2179.8 2.57177 3.56029 0
M  V30 22389 H 2180.4 3.60962 2.24914 0
M  V30 22390 N 2178.72 -0.545102 1.47873 0
M  V30 22391 C 2179.63 -1.67829 1.63922 0
M  V30 22392 C 2180.65 -1.65989 0.521885 0
M  V30 22393 O 2181.82 -1.85216 0.791005 0
M  V30 22394 C 2178.89 -3.0432 1.66102 0
M  V30 22395 C 2177.95 -3.17134 2.89352 0
M  V30 22396 C 2177.18 -4.47114 2.91419 0
M  V30 22397 O 2177.4 -5.33307 2.02337 0
M  V30 22398 O 2176.34 -4.63974 3.83421 0
M  V30 22399 H 2180.16 -1.57229 2.59832 0
M  V30 22400 H 2177.75 -0.716489 1.31098 0
M  V30 22401 H 2179.63 -3.85524 1.70145 0
M  V30 22402 H 2178.31 -3.15277 0.733623 0
M  V30 22403 H 2177.21 -2.35282 2.90849 0
M  V30 22404 H 2178.55 -3.11086 3.81426 0
M  V30 22405 N 2180.2 -1.36208 -0.792797 0
M  V30 22406 C 2181.42 -1.3356 -1.58671 0
M  V30 22407 C 2181.85 0.0814602 -1.87924 0
M  V30 22408 O 2181.21 1.05241 -1.47628 0
M  V30 22409 C 2181.25 -2.16123 -2.88658 0
M  V30 22410 O 2180.36 -1.5514 -3.82106 0
M  V30 22411 H 2179.7 -0.45729 -0.481438 0
M  V30 22412 H 2182.23 -1.79444 -0.982909 0
M  V30 22413 H 2182.24 -2.28579 -3.37958 0
M  V30 22414 H 2180.91 -3.19136 -2.66693 0
M  V30 22415 H 2179.49 -1.51604 -3.40691 0
M  V30 22416 N 2181.68 1.01656 -1.20431 0
M  V30 22417 C 2182.61 2.12074 -0.977076 0
M  V30 22418 C 2183.59 1.6984 0.0939563 0
M  V30 22419 O 2184.77 1.94096 -0.0635618 0
M  V30 22420 C 2181.9 3.43257 -0.528392 0
M  V30 22421 C 2180.86 3.99231 -1.54267 0
M  V30 22422 C 2180.18 5.26182 -0.950621 0
M  V30 22423 C 2181.48 4.32619 -2.92639 0
M  V30 22424 H 2183.18 2.31342 -1.90056 0
M  V30 22425 H 2180.72 1.11175 -0.915209 0
M  V30 22426 H 2182.67 4.19888 -0.35665 0
M  V30 22427 H 2181.4 3.23747 0.430716 0
M  V30 22428 H 2180.06 3.24708 -1.70177 0
M  V30 22429 H 2179.71 5.02997 0.0164182 0
M  V30 22430 H 2179.41 5.64597 -1.62802 0
M  V30 22431 H 2180.93 6.05469 -0.789947 0
M  V30 22432 H 2182.34 5.00138 -2.8024 0
M  V30 22433 H 2180.74 4.82148 -3.57286 0
M  V30 22434 H 2181.81 3.41386 -3.4436 0
M  V30 22435 N 2183.15 1.01021 1.20965 0
M  V30 22436 C 2184.06 0.584483 2.27202 0
M  V30 22437 C 2185.08 -0.374977 1.69912 0
M  V30 22438 O 2186.26 -0.237516 1.99995 0
M  V30 22439 C 2183.32 -0.0769879 3.46615 0
M  V30 22440 C 2182.38 0.927608 4.19159 0
M  V30 22441 C 2181.61 0.297609 5.3287 0
M  V30 22442 O 2181.84 -0.904289 5.63186 0
M  V30 22443 O 2180.77 1.01114 5.93346 0
M  V30 22444 H 2184.6 1.46877 2.65821 0
M  V30 22445 H 2182.18 0.779356 1.27461 0
M  V30 22446 H 2184.06 -0.446718 4.19026 0
M  V30 22447 H 2182.74 -0.935572 3.09885 0
M  V30 22448 H 2181.65 1.34859 3.48947 0
M  V30 22449 H 2182.98 1.75595 4.59812 0
M  V30 22450 N 2184.63 -1.36623 0.78561 0
M  V30 22451 C 2185.88 -1.99637 0.356782 0
M  V30 22452 C 2186.21 -1.62212 -1.06775 0
M  V30 22453 O 2185.49 -0.875041 -1.73705 0
M  V30 22454 C 2185.77 -3.56381 0.516214 0
M  V30 22455 C 2185.62 -4.03672 1.98417 0
M  V30 22456 C 2186.94 -4.40043 -0.0710792 0
M  V30 22457 H 2184.06 -0.725244 0.13111 0
M  V30 22458 H 2186.7 -1.62094 0.99124 0
M  V30 22459 H 2184.85 -3.88493 -0.023898 0
M  V30 22460 H 2186.52 -3.82064 2.58505 0
M  V30 22461 H 2184.77 -3.55352 2.48812 0
M  V30 22462 H 2185.44 -5.12654 2.0467 0
M  V30 22463 H 2187.91 -4.14269 0.389931 0
M  V30 22464 H 2186.79 -5.48855 0.070524 0
M  V30 22465 H 2187.05 -4.26534 -1.16281 0
M  V30 22466 N 2186.11 -0.537304 -1.48158 0
M  V30 22467 C 2187.34 -0.0101482 -2.06898 0
M  V30 22468 C 2187.75 1.27458 -1.39283 0
M  V30 22469 O 2187.11 1.76 -0.48274 0
M  V30 22470 C 2187.16 0.209896 -3.6089 0
M  V30 22471 O 2186.88 -1.02394 -4.25966 0
M  V30 22472 C 2188.38 0.776601 -4.36444 0
M  V30 22473 H 2185.6 -0.0368227 -0.669989 0
M  V30 22474 H 2188.15 -0.745039 -1.90445 0
M  V30 22475 H 2186.3 0.894855 -3.76923 0
M  V30 22476 H 2186.72 -0.809231 -5.1822 0
M  V30 22477 H 2188.19 0.879955 -5.44941 0
M  V30 22478 H 2188.67 1.78324 -4.01369 0
M  V30 22479 H 2189.27 0.127975 -4.25107 0
M  V30 22480 N 2187.59 1.55221 -0.272782 0
M  V30 22481 C 2188.83 2.00569 0.338179 0
M  V30 22482 C 2189.19 1.15787 1.53659 0
M  V30 22483 O 2188.48 0.219393 1.9034 0
M  V30 22484 C 2188.68 3.48938 0.773111 0
M  V30 22485 C 2188.51 4.48078 -0.381611 0
M  V30 22486 C 2187.28 4.97847 -0.864644 0
M  V30 22487 C 2189.47 4.99686 -1.21731 0
M  V30 22488 N 2187.46 5.80783 -1.98908 0
M  V30 22489 C 2188.83 5.80046 -2.18968 0
M  V30 22490 C 2190.88 4.8193 -1.25092 0
M  V30 22491 C 2189.58 6.44543 -3.19307 0
M  V30 22492 C 2191.61 5.47224 -2.24275 0
M  V30 22493 C 2190.97 6.27394 -3.20244 0
M  V30 22494 H 2187.07 0.776921 0.0889851 0
M  V30 22495 H 2189.66 1.90625 -0.396271 0
M  V30 22496 H 2187.83 3.59229 1.47679 0
M  V30 22497 H 2189.56 3.81121 1.36121 0
M  V30 22498 H 2186.31 4.71511 -0.444346 0
M  V30 22499 H 2186.74 6.26943 -2.55484 0
M  V30 22500 H 2191.38 4.19556 -0.522767 0
M  V30 22501 H 2189.1 7.06068 -3.93057 0
M  V30 22502 H 2192.68 5.35428 -2.27614 0
M  V30 22503 H 2191.56 6.77025 -3.95736 0
M  V30 22504 N 2189.07 2.77022e-05 1.576 0
M  V30 22505 C 2190.01 -0.991376 2.08424 0
M  V30 22506 C 2190.98 -1.34134 0.979661 0
M  V30 22507 O 2192.17 -1.4397 1.25209 0
M  V30 22508 C 2189.31 -2.27808 2.59224 0
M  V30 22509 C 2188.42 -1.98715 3.83584 0
M  V30 22510 C 2187.56 -3.21468 4.22885 0
M  V30 22511 C 2186.6 -2.88061 5.40081 0
M  V30 22512 N 2185.73 -4.0335 5.74676 0
M  V30 22513 H 2190.57 -0.551038 2.92861 0
M  V30 22514 H 2188.11 -0.260432 1.44776 0
M  V30 22515 H 2190.07 -3.03029 2.86756 0
M  V30 22516 H 2188.7 -2.69511 1.77661 0
M  V30 22517 H 2187.75 -1.13862 3.62959 0
M  V30 22518 H 2189.06 -1.70092 4.68903 0
M  V30 22519 H 2188.22 -4.05034 4.517 0
M  V30 22520 H 2186.95 -3.53229 3.36275 0
M  V30 22521 H 2185.96 -2.02902 5.1099 0
M  V30 22522 H 2187.18 -2.57547 6.28368 0
M  V30 22523 H 2185.13 -4.35008 4.91023 0
M  V30 22524 H 2185.05 -3.78251 6.5457 0
M  V30 22525 H 2186.32 -4.87705 6.08082 0
M  V30 22526 N 2190.54 -1.55222 -0.272728 0
M  V30 22527 C 2191.96 -1.66547 -0.843751 0
M  V30 22528 C 2192.31 -0.592674 -1.87034 0
M  V30 22529 O 2191.43 0.26578 -2.14762 0
M  V30 22530 C 2192.03 -3.01921 -1.53718 0
M  V30 22531 C 2190.59 -3.15272 -2.05623 0
M  V30 22532 C 2189.73 -2.62344 -0.898377 0
M  V30 22533 H 2192.68 -1.58624 -0.0490719 0
M  V30 22534 H 2192.7 -2.94925 -2.40415 0
M  V30 22535 H 2192.22 -3.79979 -0.789763 0
M  V30 22536 H 2190.32 -2.41988 -2.83324 0
M  V30 22537 H 2190.43 -4.21837 -2.27135 0
M  V30 22538 H 2188.79 -2.19509 -1.29182 0
M  V30 22539 H 2189.58 -3.42906 -0.164467 0
M  V30 22540 N 2192.02 0.537252 -1.4816 0
M  V30 22541 C 2192.93 1.66957 -1.6481 0
M  V30 22542 C 2193.95 1.6571 -0.53068 0
M  V30 22543 O 2195.12 1.84794 -0.800816 0
M  V30 22544 C 2192.19 3.03435 -1.67714 0
M  V30 22545 C 2191.25 3.15595 -2.9103 0
M  V30 22546 C 2190.48 4.45562 -2.93786 0
M  V30 22547 O 2190.71 5.32226 -2.05162 0
M  V30 22548 O 2189.64 4.61934 -3.85876 0
M  V30 22549 H 2193.47 1.55849 -2.60662 0
M  V30 22550 H 2191.05 0.709526 -1.31477 0
M  V30 22551 H 2192.93 3.84616 -1.72187 0
M  V30 22552 H 2191.61 3.14884 -0.750333 0
M  V30 22553 H 2190.52 2.33736 -2.92093 0
M  V30 22554 H 2191.85 3.09059 -3.83071 0
M  V30 22555 N 2193.5 1.36626 0.785562 0
M  V30 22556 C 2194.73 1.34233 1.57446 0
M  V30 22557 C 2195.14 -0.0755322 1.88649 0
M  V30 22558 O 2194.5 -1.03351 1.50416 0
M  V30 22559 C 2194.55 2.1675 2.89312 0
M  V30 22560 O 2194.27 3.5301 2.59452 0
M  V30 22561 C 2195.77 2.22181 3.83602 0
M  V30 22562 H 2192.99 0.460309 0.488218 0
M  V30 22563 H 2195.54 1.79777 0.974701 0
M  V30 22564 H 2193.69 1.74751 3.45747 0
M  V30 22565 H 2194.11 3.96111 3.43797 0
M  V30 22566 H 2195.58 2.84268 4.73176 0
M  V30 22567 H 2196.06 1.22634 4.21732 0
M  V30 22568 H 2196.66 2.64433 3.331 0
M  V30 22569 N 2194.98 -1.01016 1.20969 0
M  V30 22570 C 2196.21 -1.78043 1.04806 0
M  V30 22571 C 2196.62 -1.84805 -0.405429 0
M  V30 22572 O 2195.96 -1.30471 -1.29318 0
M  V30 22573 C 2196.02 -3.23705 1.56383 0
M  V30 22574 C 2195.69 -3.40533 3.04773 0
M  V30 22575 C 2196.68 -3.29231 4.02371 0
M  V30 22576 C 2194.37 -3.66141 3.43869 0
M  V30 22577 C 2196.36 -3.43294 5.37055 0
M  V30 22578 C 2194.05 -3.79847 4.78706 0
M  V30 22579 C 2195.05 -3.68429 5.75108 0
M  V30 22580 O 2194.73 -3.81706 7.075 0
M  V30 22581 H 2194.47 -0.566543 0.368788 0
M  V30 22582 H 2197.02 -1.27994 1.60645 0
M  V30 22583 H 2195.25 -3.74865 0.949363 0
M  V30 22584 H 2196.94 -3.82387 1.36142 0
M  V30 22585 H 2197.71 -3.09377 3.73511 0
M  V30 22586 H 2193.58 -3.74113 2.69371 0
M  V30 22587 H 2197.13 -3.34299 6.12283 0
M  V30 22588 H 2193.03 -3.99204 5.07254 0
M  V30 22589 H 2193.79 -3.98685 7.14837 0
M  V30 22590 N 2196.46 -1.01661 -1.20428 0
M  V30 22591 C 2197.87 -0.737512 -1.71516 0
M  V30 22592 C 2198.22 0.743941 -1.81549 0
M  V30 22593 O 2197.34 1.58058 -1.47806 0
M  V30 22594 C 2197.94 -1.33212 -3.11513 0
M  V30 22595 C 2196.5 -1.10189 -3.5991 0
M  V30 22596 C 2195.64 -1.4378 -2.37113 0
M  V30 22597 H 2198.6 -1.18608 -1.05441 0
M  V30 22598 H 2198.62 -0.722701 -3.73574 0
M  V30 22599 H 2198.13 -2.41034 -3.04178 0
M  V30 22600 H 2196.23 -0.0413411 -3.72577 0
M  V30 22601 H 2196.34 -1.78195 -4.44728 0
M  V30 22602 H 2194.71 -0.856821 -2.39856 0
M  V30 22603 H 2195.49 -2.52658 -2.3242 0
M  V30 22604 N 2197.93 1.36205 -0.792844 0
M  V30 22605 C 2198.84 2.33789 -0.19485 0
M  V30 22606 C 2199.86 1.61207 0.65484 0
M  V30 22607 O 2201.04 1.93171 0.569822 0
M  V30 22608 C 2198.1 3.40405 0.657661 0
M  V30 22609 C 2197.16 4.28782 -0.210924 0
M  V30 22610 C 2196.4 5.30305 0.600993 0
M  V30 22611 O 2196.62 5.40019 1.83673 0
M  V30 22612 O 2195.55 6.019 -0.000914076 0
M  V30 22613 H 2199.38 2.86702 -1.00178 0
M  V30 22614 H 2196.96 1.38734 -0.554366 0
M  V30 22615 H 2198.85 4.05583 1.14368 0
M  V30 22616 H 2197.52 2.89786 1.44242 0
M  V30 22617 H 2196.43 3.66632 -0.743779 0
M  V30 22618 H 2197.76 4.82761 -0.95928 0
M  V30 22619 N 2199.41 0.545154 1.47871 0
M  V30 22620 C 2200.64 0.0211204 2.06889 0
M  V30 22621 C 2201.06 -1.26718 1.39957 0
M  V30 22622 O 2200.41 -1.75741 0.492067 0
M  V30 22623 C 2200.46 -0.190754 3.60996 0
M  V30 22624 O 2200.18 1.04652 4.25417 0
M  V30 22625 C 2201.69 -0.753445 4.3685 0
M  V30 22626 H 2198.91 0.0403753 0.669784 0
M  V30 22627 H 2201.45 0.755128 1.90048 0
M  V30 22628 H 2199.6 -0.874854 3.77392 0
M  V30 22629 H 2200.02 0.836702 5.17783 0
M  V30 22630 H 2201.49 -0.851043 5.454 0
M  V30 22631 H 2201.97 -1.76193 4.02309 0
M  V30 22632 H 2202.58 -0.105429 4.25169 0
M  V30 22633 N 2200.89 -1.55074 0.28101 0
M  V30 22634 C 2202.12 -2.04592 -0.340118 0
M  V30 22635 C 2202.54 -1.15782 -1.48244 0
M  V30 22636 O 2201.9 -0.157642 -1.80613 0
M  V30 22637 C 2201.95 -3.51772 -0.793042 0
M  V30 22638 O 2201.05 -3.66037 -1.89975 0
M  V30 22639 H 2200.39 -0.660361 -0.0694173 0
M  V30 22640 H 2202.92 -2.00305 0.417028 0
M  V30 22641 H 2202.93 -3.93247 -1.08722 0
M  V30 22642 H 2201.61 -4.15878 0.0426894 0
M  V30 22643 H 2200.18 -3.36465 -1.60765 0
M  V30 22644 N 2202.37 -0.00838561 -1.57598 0
M  V30 22645 C 2203.28 0.99645 -2.12387 0
M  V30 22646 C 2204.3 1.37125 -1.0711 0
M  V30 22647 O 2205.47 1.45688 -1.39058 0
M  V30 22648 C 2202.54 2.26694 -2.62318 0
M  V30 22649 C 2201.6 1.95449 -3.82228 0
M  V30 22650 C 2200.83 3.16441 -4.29768 0
M  V30 22651 O 2201.05 4.2841 -3.76592 0
M  V30 22652 O 2199.99 2.99949 -5.21837 0
M  V30 22653 H 2203.81 0.560673 -2.9848 0
M  V30 22654 H 2201.4 0.210961 -1.47903 0
M  V30 22655 H 2203.28 3.01317 -2.94594 0
M  V30 22656 H 2201.96 2.69494 -1.79318 0
M  V30 22657 H 2200.86 1.18275 -3.54911 0
M  V30 22658 H 2202.2 1.57481 -4.66327 0
M  V30 22659 N 2203.85 1.55365 0.264492 0
M  V30 22660 C 2204.8 1.85216 1.32962 0
M  V30 22661 C 2205.78 0.711678 1.44305 0
M  V30 22662 O 2206.97 0.973218 1.47843 0
M  V30 22663 C 2204.1 2.135 2.68836 0
M  V30 22664 C 2203.19 3.3383 2.61569 0
M  V30 22665 N 2203.58 4.53532 2.23925 0
M  V30 22666 C 2201.88 3.36589 2.92615 0
M  V30 22667 C 2202.58 5.3564 2.26858 0
M  V30 22668 N 2201.55 4.74259 2.65669 0
M  V30 22669 H 2205.36 2.75305 1.02879 0
M  V30 22670 H 2202.87 1.55355 0.473129 0
M  V30 22671 H 2204.87 2.33045 3.45681 0
M  V30 22672 H 2203.53 1.24699 2.998 0
M  V30 22673 H 2204.54 4.79477 1.9576 0
M  V30 22674 H 2201.22 2.58008 3.28235 0
M  V30 22675 H 2202.61 6.41368 2.00243 0
M  V30 22676 N 2205.33 -0.529387 1.48443 0
M  V30 22677 C 2206.57 -1.28518 1.56491 0
M  V30 22678 C 2206.9 -1.93025 0.239076 0
M  V30 22679 O 2206.16 -1.79886 -0.770681 0
M  V30 22680 C 2206.45 -2.39553 2.65234 0
M  V30 22681 C 2206.12 -1.92695 4.07651 0
M  V30 22682 C 2204.78 -1.79633 4.46414 0
M  V30 22683 C 2207.13 -1.57291 4.96899 0
M  V30 22684 C 2204.46 -1.29504 5.72229 0
M  V30 22685 C 2206.81 -1.08625 6.23204 0
M  V30 22686 C 2205.48 -0.941803 6.60822 0
M  V30 22687 H 2204.75 -0.470282 0.572639 0
M  V30 22688 H 2207.4 -0.590688 1.82162 0
M  V30 22689 H 2205.7 -3.14675 2.33425 0
M  V30 22690 H 2207.4 -2.97681 2.68676 0
M  V30 22691 H 2203.99 -2.03812 3.77039 0
M  V30 22692 H 2208.17 -1.66242 4.67629 0
M  V30 22693 H 2203.43 -1.17009 6.00099 0
M  V30 22694 H 2207.6 -0.803015 6.91755 0
M  V30 22695 H 2205.23 -0.551167 7.58199 0
M  V30 22696 N 2206.8 -1.37041 -0.778305 0
M  V30 22697 C 2208.03 -1.35235 -1.57246 0
M  V30 22698 C 2208.45 0.0615238 -1.87999 0
M  V30 22699 O 2207.81 1.0367 -1.48736 0
M  V30 22700 C 2207.86 -2.19172 -2.86349 0
M  V30 22701 O 2206.96 -1.59184 -3.80439 0
M  V30 22702 H 2206.3 -0.46237 -0.47656 0
M  V30 22703 H 2208.83 -1.80476 -0.963821 0
M  V30 22704 H 2208.84 -2.32151 -3.35514 0
M  V30 22705 H 2207.52 -3.21947 -2.63293 0
M  V30 22706 H 2206.1 -1.55209 -3.39064 0
M  V30 22707 N 2208.28 1.00373 -1.21503 0
M  V30 22708 C 2209.53 1.73825 -1.03098 0
M  V30 22709 C 2209.85 1.90056 0.436307 0
M  V30 22710 O 2209.12 1.45238 1.31464 0
M  V30 22711 H 2207.7 0.644009 -0.378498 0
M  V30 22712 H 2210.36 1.20947 -1.52833 0
M  V30 22713 H 2209.46 2.73692 -1.49996 0
M  V30 22714 N 2209.76 1.02298 1.19887 0
M  V30 22715 C 2211.01 0.714591 1.89045 0
M  V30 22716 C 2211.33 -0.758649 1.79637 0
M  V30 22717 O 2210.6 -1.54616 1.20294 0
M  V30 22718 H 2209.18 0.261329 0.699797 0
M  V30 22719 H 2211.84 1.29595 1.45572 0
M  V30 22720 H 2210.94 1.00365 2.95522 0
M  V30 22721 N 2211.24 -1.35782 0.800057 0
M  V30 22722 C 2212.15 -2.33683 0.207245 0
M  V30 22723 C 2213.16 -1.61552 -0.646282 0
M  V30 22724 O 2214.34 -1.9347 -0.55957 0
M  V30 22725 C 2211.4 -3.40749 -0.639599 0
M  V30 22726 C 2210.47 -4.28664 0.23366 0
M  V30 22727 C 2209.7 -5.30617 -0.572861 0
M  V30 22728 O 2209.92 -5.40986 -1.80806 0
M  V30 22729 O 2208.86 -6.01891 0.0328343 0
M  V30 22730 H 2212.68 -2.86167 1.01697 0
M  V30 22731 H 2210.27 -1.38438 0.561715 0
M  V30 22732 H 2212.15 -4.06184 -1.12216 0
M  V30 22733 H 2210.82 -2.90547 -1.42703 0
M  V30 22734 H 2209.73 -3.66232 0.763212 0
M  V30 22735 H 2211.06 -4.82246 0.984869 0
M  V30 22736 N 2212.72 -0.552988 -1.4758 0
M  V30 22737 C 2214.13 -0.118496 -1.86324 0
M  V30 22738 C 2214.48 1.31057 -1.46008 0
M  V30 22739 O 2213.6 1.98525 -0.861217 0
M  V30 22740 C 2214.2 -0.208269 -3.38159 0
M  V30 22741 C 2212.76 0.17116 -3.76011 0
M  V30 22742 C 2211.9 -0.557734 -2.71633 0
M  V30 22743 H 2214.85 -0.762953 -1.39157 0
M  V30 22744 H 2214.88 0.574212 -3.76142 0
M  V30 22745 H 2214.39 -1.24847 -3.67471 0
M  V30 22746 H 2212.49 1.21263 -3.52315 0
M  V30 22747 H 2212.6 -0.184463 -4.78745 0
M  V30 22748 H 2210.97 -0.00130269 -2.547 0
M  V30 22749 H 2211.75 -1.59901 -3.03787 0
M  V30 22750 N 2214.19 1.54923 -0.28923 0
M  V30 22751 C 2215.47 1.91952 0.375998 0
M  V30 22752 C 2215.85 1.21514 1.7262 0
M  V30 22753 O 2215.2 0.346807 2.25853 0
M  V30 22754 C 2215.41 3.45366 0.502318 0
M  V30 22755 C 2216.76 4.17399 0.778667 0
M  V30 22756 O 2217.78 3.51337 0.586585 0
M  V30 22757 O 2216.64 5.3433 1.14689 0
M  V30 22758 H 2213.73 0.800376 0.208153 0
M  V30 22759 H 2216.28 1.66332 -0.336423 0
M  V30 22760 H 2215.05 3.88735 -0.447324 0
M  V30 22761 H 2214.67 3.76985 1.26366 0
M  V30 22762 N 2215.67 0.0167433 1.57591 0
M  V30 22763 C 2216.92 -0.665548 1.91568 0
M  V30 22764 C 2217.25 -1.72485 0.892329 0
M  V30 22765 O 2216.53 -1.94307 -0.0866785 0
M  V30 22766 C 2216.81 -1.29336 3.36072 0
M  V30 22767 C 2216.66 -0.244462 4.49135 0
M  V30 22768 C 2217.98 -2.21488 3.80304 0
M  V30 22769 H 2215.1 -0.240476 0.696664 0
M  V30 22770 H 2217.74 0.071469 1.89866 0
M  V30 22771 H 2215.89 -1.92153 3.37653 0
M  V30 22772 H 2217.56 0.385309 4.59688 0
M  V30 22773 H 2215.81 0.431455 4.31649 0
M  V30 22774 H 2216.48 -0.723111 5.47243 0
M  V30 22775 H 2218.95 -1.68672 3.8038 0
M  V30 22776 H 2217.83 -2.62374 4.82132 0
M  V30 22777 H 2218.09 -3.10094 3.1511 0
M  V30 22778 N 2217.15 -1.55503 -0.256249 0
M  V30 22779 C 2218.4 -1.76897 -0.985588 0
M  V30 22780 C 2218.73 -0.579387 -1.8567 0
M  V30 22781 O 2217.98 0.437617 -1.90744 0
M  V30 22782 C 2218.28 -3.03694 -1.88427 0
M  V30 22783 C 2217.95 -4.35475 -1.16928 0
M  V30 22784 C 2216.61 -4.71288 -0.971647 0
M  V30 22785 C 2218.96 -5.16981 -0.661798 0
M  V30 22786 C 2216.29 -5.8615 -0.254076 0
M  V30 22787 C 2218.64 -6.32586 0.0422602 0
M  V30 22788 C 2217.3 -6.67026 0.251457 0
M  V30 22789 H 2216.57 -0.647311 -0.360652 0
M  V30 22790 H 2219.22 -1.89775 -0.256449 0
M  V30 22791 H 2217.53 -2.85788 -2.68016 0
M  V30 22792 H 2219.22 -3.17445 -2.4501 0
M  V30 22793 H 2215.81 -4.07336 -1.33325 0
M  V30 22794 H 2220 -4.89776 -0.802059 0
M  V30 22795 H 2215.25 -6.11346 -0.0814334 0
M  V30 22796 H 2219.43 -6.94988 0.443171 0
M  V30 22797 H 2217.05 -7.55878 0.809447 0
M  V30 22798 N 2218.63 0.521507 -1.48721 0
M  V30 22799 C 2220.04 1.10334 -1.50609 0
M  V30 22800 C 2220.39 1.94182 -0.280646 0
M  V30 22801 O 2219.52 2.07581 0.61147 0
M  V30 22802 C 2220.11 2.00768 -2.72906 0
M  V30 22803 C 2218.67 2.54153 -2.77639 0
M  V30 22804 C 2217.82 1.31302 -2.44244 0
M  V30 22805 H 2220.77 0.30636 -1.55715 0
M  V30 22806 H 2220.79 2.85174 -2.51905 0
M  V30 22807 H 2220.3 1.39714 -3.62079 0
M  V30 22808 H 2218.4 3.18903 -1.92695 0
M  V30 22809 H 2218.51 2.92707 -3.79288 0
M  V30 22810 H 2216.88 1.63158 -1.9558 0
M  V30 22811 H 2217.66 0.719884 -3.35667 0
M  V30 22812 N 2220.11 1.37452 0.771027 0
M  V30 22813 C 2221.33 1.35895 1.56013 0
M  V30 22814 C 2221.75 -0.0555192 1.88718 0
M  V30 22815 O 2221.11 -1.0175 1.51503 0
M  V30 22816 C 2221.16 2.19806 2.86997 0
M  V30 22817 O 2220.88 3.55742 2.55694 0
M  V30 22818 C 2222.38 2.26237 3.81224 0
M  V30 22819 H 2219.6 0.465461 0.483308 0
M  V30 22820 H 2222.14 1.80801 0.955579 0
M  V30 22821 H 2220.3 1.78408 3.43874 0
M  V30 22822 H 2220.71 3.99735 3.39577 0
M  V30 22823 H 2222.19 2.89271 4.70134 0
M  V30 22824 H 2222.66 1.271 4.20407 0
M  V30 22825 H 2223.27 2.67951 3.30276 0
M  V30 22826 N 2221.58 -0.997276 1.22033 0
M  V30 22827 C 2222.83 -1.73876 1.04379 0
M  V30 22828 C 2223.16 -1.89589 -0.420682 0
M  V30 22829 O 2222.44 -1.43586 -1.312 0
M  V30 22830 C 2222.72 -3.14688 1.75052 0
M  V30 22831 C 2222.57 -3.06651 3.29067 0
M  V30 22832 C 2223.89 -4.13772 1.49936 0
M  V30 22833 H 2221.01 -0.631127 0.380589 0
M  V30 22834 H 2223.65 -1.16214 1.50314 0
M  V30 22835 H 2221.8 -3.63917 1.36002 0
M  V30 22836 H 2223.48 -2.65076 3.77534 0
M  V30 22837 H 2221.72 -2.43562 3.58971 0
M  V30 22838 H 2222.39 -4.06275 3.73691 0
M  V30 22839 H 2224.87 -3.73281 1.83849 0
M  V30 22840 H 2223.74 -5.10424 2.01887 0
M  V30 22841 H 2224 -4.39994 0.431006 0
M  V30 22842 N 2223.06 -1.02932 -1.19343 0
M  V30 22843 C 2224.47 -0.755663 -1.70724 0
M  V30 22844 C 2224.82 0.724644 -1.82328 0
M  V30 22845 O 2223.95 1.56482 -1.49474 0
M  V30 22846 C 2224.54 -1.36508 -3.10082 0
M  V30 22847 C 2223.1 -1.14 -3.58721 0
M  V30 22848 C 2222.25 -1.46287 -2.35575 0
M  V30 22849 H 2225.2 -1.19719 -1.04178 0
M  V30 22850 H 2225.22 -0.762283 -3.72786 0
M  V30 22851 H 2224.73 -2.44246 -3.01605 0
M  V30 22852 H 2222.84 -0.0808556 -3.72512 0
M  V30 22853 H 2222.95 -1.82902 -4.42813 0
M  V30 22854 H 2221.31 -0.882212 -2.38933 0
M  V30 22855 H 2222.1 -2.55109 -2.29727 0
M  V30 22856 N 2224.54 1.35356 -0.807246 0
M  V30 22857 C 2225.79 1.9875 -0.387923 0
M  V30 22858 C 2226.12 1.64039 1.04506 0
M  V30 22859 O 2225.37 0.895977 1.73985 0
M  V30 22860 C 2225.67 3.5361 -0.519098 0
M  V30 22861 C 2225.34 4.08191 -1.91549 0
M  V30 22862 C 2224 4.22809 -2.29752 0
M  V30 22863 C 2226.35 4.37739 -2.82903 0
M  V30 22864 C 2223.68 4.64294 -3.58676 0
M  V30 22865 C 2226.03 4.80663 -4.11274 0
M  V30 22866 C 2224.69 4.93486 -4.49475 0
M  V30 22867 H 2223.96 0.727276 -0.141951 0
M  V30 22868 H 2226.61 1.61558 -1.02816 0
M  V30 22869 H 2224.92 3.91265 0.204589 0
M  V30 22870 H 2226.61 4.00616 -0.175415 0
M  V30 22871 H 2223.2 3.97265 -1.60869 0
M  V30 22872 H 2227.39 4.25997 -2.54637 0
M  V30 22873 H 2222.64 4.72411 -3.88121 0
M  V30 22874 H 2226.82 5.02487 -4.82161 0
M  V30 22875 H 2224.44 5.2539 -5.49427 0
M  V30 22876 N 2226.02 0.560807 1.47284 0
M  V30 22877 C 2226.97 -0.205344 2.27073 0
M  V30 22878 C 2227.95 -0.88202 1.34571 0
M  V30 22879 O 2229.14 -0.779732 1.589 0
M  V30 22880 C 2226.27 -1.23241 3.20416 0
M  V30 22881 C 2225.36 -0.558967 4.204 0
M  V30 22882 N 2225.75 0.373016 5.04423 0
M  V30 22883 C 2224.05 -0.812445 4.38538 0
M  V30 22884 C 2224.75 0.764548 5.76654 0
M  V30 22885 N 2223.73 0.118575 5.43471 0
M  V30 22886 H 2227.53 0.511168 2.89421 0
M  V30 22887 H 2225.04 0.381002 1.57867 0
M  V30 22888 H 2227.04 -1.79528 3.76265 0
M  V30 22889 H 2225.7 -1.94998 2.59627 0
M  V30 22890 H 2226.71 0.747377 5.12479 0
M  V30 22891 H 2223.39 -1.51825 3.88916 0
M  V30 22892 H 2224.78 1.53057 6.54235 0
M  V30 22893 N 2227.5 -1.54768 0.297442 0
M  V30 22894 C 2228.41 -2.27065 -0.58979 0
M  V30 22895 C 2229.42 -1.30455 -1.15142 0
M  V30 22896 O 2230.6 -1.63431 -1.17696 0
M  V30 22897 C 2227.66 -2.99463 -1.74708 0
M  V30 22898 C 2226.72 -4.11603 -1.21989 0
M  V30 22899 C 2225.96 -4.80539 -2.32203 0
M  V30 22900 O 2226.18 -4.48812 -3.52028 0
M  V30 22901 O 2225.11 -5.68018 -1.99096 0
M  V30 22902 H 2228.94 -3.037 -0.00342861 0
M  V30 22903 H 2226.53 -1.49263 0.0640297 0
M  V30 22904 H 2228.41 -3.44885 -2.42141 0
M  V30 22905 H 2227.08 -2.25726 -2.32012 0
M  V30 22906 H 2225.99 -3.70588 -0.511393 0
M  V30 22907 H 2227.32 -4.87306 -0.692333 0
M  V30 22908 N 2228.97 -0.0251005 -1.5758 0
M  V30 22909 C 2229.88 0.973867 -2.13431 0
M  V30 22910 C 2230.9 1.35982 -1.08559 0
M  V30 22911 O 2232.08 1.44205 -1.40595 0
M  V30 22912 C 2229.14 2.23899 -2.64707 0
M  V30 22913 C 2228.2 1.91384 -3.84279 0
M  V30 22914 C 2227.44 3.11865 -4.331 0
M  V30 22915 O 2227.66 4.24391 -3.81115 0
M  V30 22916 O 2226.59 2.94397 -5.24989 0
M  V30 22917 H 2230.42 0.528984 -2.99058 0
M  V30 22918 H 2228 0.195262 -1.48118 0
M  V30 22919 H 2229.89 2.98176 -2.97774 0
M  V30 22920 H 2228.56 2.67576 -1.82166 0
M  V30 22921 H 2227.47 1.14505 -3.56145 0
M  V30 22922 H 2228.8 1.52526 -4.67971 0
M  V30 22923 N 2230.45 1.55637 0.247999 0
M  V30 22924 C 2231.7 1.77417 0.976193 0
M  V30 22925 C 2232.03 0.589226 1.8536 0
M  V30 22926 O 2231.28 -0.427495 1.90974 0
M  V30 22927 C 2231.58 3.04689 1.86813 0
M  V30 22928 C 2231.25 4.36089 1.14617 0
M  V30 22929 C 2229.91 4.71797 0.94664 0
M  V30 22930 C 2232.26 5.17325 0.634372 0
M  V30 22931 C 2229.59 5.86276 0.222988 0
M  V30 22932 C 2231.94 6.32555 -0.0758071 0
M  V30 22933 C 2230.61 6.66883 -0.286828 0
M  V30 22934 H 2229.88 0.649214 0.357214 0
M  V30 22935 H 2232.52 1.89908 0.246381 0
M  V30 22936 H 2230.83 2.87205 2.66497 0
M  V30 22937 H 2232.52 3.1874 2.43323 0
M  V30 22938 H 2229.11 4.08037 1.31163 0
M  V30 22939 H 2233.3 4.90195 0.776074 0
M  V30 22940 H 2228.55 6.1138 0.0490111 0
M  V30 22941 H 2232.73 6.94744 -0.480022 0
M  V30 22942 H 2230.36 7.55438 -0.849522 0
M  V30 22943 N 2231.93 -0.513613 1.48996 0
M  V30 22944 C 2232.84 -1.64314 1.67446 0
M  V30 22945 C 2233.86 -1.64845 0.556976 0
M  V30 22946 O 2235.03 -1.83497 0.830114 0
M  V30 22947 C 2232.1 -3.00729 1.7252 0
M  V30 22948 C 2231.16 -3.10925 2.96014 0
M  V30 22949 C 2230.39 -4.40832 3.00837 0
M  V30 22950 O 2230.62 -5.28895 2.13604 0
M  V30 22951 O 2229.55 -4.55737 3.93176 0
M  V30 22952 H 2233.38 -1.51682 2.63109 0
M  V30 22953 H 2230.96 -0.688519 1.32589 0
M  V30 22954 H 2232.84 -3.81828 1.78284 0
M  V30 22955 H 2231.52 -3.1365 0.800333 0
M  V30 22956 H 2230.42 -2.2906 2.95774 0
M  V30 22957 H 2231.76 -3.02926 3.87939 0
M  V30 22958 N 2233.41 -1.37859 -0.763727 0
M  V30 22959 C 2234.63 -1.36896 -1.55802 0
M  V30 22960 C 2235.06 0.0415805 -1.88054 0
M  V30 22961 O 2234.42 1.02086 -1.49827 0
M  V30 22962 C 2234.47 -2.22197 -2.84008 0
M  V30 22963 O 2233.57 -1.6321 -3.7873 0
M  V30 22964 H 2232.91 -0.467399 -0.47163 0
M  V30 22965 H 2235.44 -1.81488 -0.944625 0
M  V30 22966 H 2235.45 -2.35696 -3.33033 0
M  V30 22967 H 2234.13 -3.24721 -2.59864 0
M  V30 22968 H 2232.7 -1.58797 -3.37399 0
M  V30 22969 N 2234.89 0.990791 -1.22561 0
M  V30 22970 C 2236.14 1.72722 -1.04936 0
M  V30 22971 C 2236.46 1.90508 0.416125 0
M  V30 22972 O 2235.73 1.46624 1.29916 0
M  V30 22973 H 2234.31 0.639959 -0.385308 0
M  V30 22974 H 2236.97 1.19319 -1.54107 0
M  V30 22975 H 2236.06 2.72086 -1.52891 0
M  V30 22976 N 2236.37 1.03564 1.18795 0
M  V30 22977 C 2237.59 0.755903 1.92597 0
M  V30 22978 C 2238.01 -0.68624 1.75887 0
M  V30 22979 O 2237.37 -1.4673 1.08519 0
M  V30 22980 C 2237.42 1.10625 3.44158 0
M  V30 22981 O 2237.14 2.49177 3.60337 0
M  V30 22982 C 2238.64 0.850291 4.35069 0
M  V30 22983 H 2235.86 0.276059 0.611582 0
M  V30 22984 H 2238.4 1.38194 1.5074 0
M  V30 22985 H 2236.56 0.525262 3.83823 0
M  V30 22986 H 2236.97 2.62435 4.54124 0
M  V30 22987 H 2238.45 1.14533 5.39987 0
M  V30 22988 H 2238.92 -0.215098 4.38673 0
M  V30 22989 H 2239.53 1.41433 4.01094 0
M  V30 22990 N 2237.84 -1.34926 0.814413 0
M  V30 22991 C 2238.81 -2.27984 0.235799 0
M  V30 22992 C 2239.81 -1.49922 -0.581385 0
M  V30 22993 O 2241 -1.69575 -0.398728 0
M  V30 22994 C 2238.13 -3.34244 -0.670374 0
M  V30 22995 H 2239.32 -2.80669 1.05664 0
M  V30 22996 H 2236.87 -1.44914 0.585639 0
M  V30 22997 H 2237.61 -2.86758 -1.51461 0
M  V30 22998 H 2237.39 -3.92006 -0.0860133 0
M  V30 22999 H 2238.88 -4.03678 -1.06928 0
M  V30 23000 N 2239.32 -0.56861 -1.46985 0
M  V30 23001 C 2240.27 0.172666 -2.30153 0
M  V30 23002 C 2241.24 0.897562 -1.39761 0
M  V30 23003 O 2242.42 0.891014 -1.68717 0
M  V30 23004 C 2239.56 1.18944 -3.23954 0
M  V30 23005 C 2238.68 0.469441 -4.29442 0
M  V30 23006 C 2237.81 1.4725 -5.10383 0
M  V30 23007 C 2236.85 0.738118 -6.07633 0
M  V30 23008 N 2235.99 1.68856 -6.81493 0
M  V30 23009 H 2240.83 -0.542647 -2.93018 0
M  V30 23010 H 2238.36 -0.279426 -1.44422 0
M  V30 23011 H 2240.32 1.79166 -3.7677 0
M  V30 23012 H 2238.95 1.87264 -2.62929 0
M  V30 23013 H 2238 -0.247534 -3.79594 0
M  V30 23014 H 2239.32 -0.105329 -4.98689 0
M  V30 23015 H 2238.47 2.14793 -5.67405 0
M  V30 23016 H 2237.21 2.0812 -4.41064 0
M  V30 23017 H 2236.21 0.0488326 -5.49778 0
M  V30 23018 H 2237.44 0.13501 -6.78966 0
M  V30 23019 H 2235.39 2.28562 -6.14895 0
M  V30 23020 H 2235.3 1.16623 -7.4695 0
M  V30 23021 H 2236.57 2.35477 -7.43082 0
M  V30 23022 N 2240.8 1.54608 -0.305646 0
M  V30 23023 C 2241.75 2.23692 0.568382 0
M  V30 23024 C 2242.72 1.22118 1.1259 0
M  V30 23025 O 2243.9 1.50751 1.16956 0
M  V30 23026 C 2241.04 2.9848 1.73215 0
M  V30 23027 C 2240.15 4.14837 1.20558 0
M  V30 23028 C 2239.29 4.77197 2.33359 0
M  V30 23029 C 2238.33 5.8569 1.7786 0
M  V30 23030 N 2237.47 6.41985 2.84252 0
M  V30 23031 H 2242.31 2.97987 -0.0273391 0
M  V30 23032 H 2239.84 1.47078 -0.0252622 0
M  V30 23033 H 2241.8 3.40076 2.41669 0
M  V30 23034 H 2240.43 2.26552 2.29943 0
M  V30 23035 H 2239.48 3.7815 0.413156 0
M  V30 23036 H 2240.79 4.92986 0.759331 0
M  V30 23037 H 2239.95 5.21669 3.09751 0
M  V30 23038 H 2238.69 3.98389 2.81313 0
M  V30 23039 H 2237.69 5.40637 0.999585 0
M  V30 23040 H 2238.92 6.66384 1.30804 0
M  V30 23041 H 2236.86 5.66059 3.31531 0
M  V30 23042 H 2236.78 7.15495 2.44136 0
M  V30 23043 H 2238.05 6.91115 3.60528 0
M  V30 23044 N 2242.28 0.033457 1.57564 0
M  V30 23045 C 2243.53 -0.642966 1.91599 0
M  V30 23046 C 2243.85 -1.72418 0.910877 0
M  V30 23047 O 2243.12 -1.95844 -0.0469587 0
M  V30 23048 H 2241.7 -0.240483 0.707232 0
M  V30 23049 H 2244.36 0.0822831 1.94726 0
M  V30 23050 H 2243.45 -1.09293 2.92338 0
M  V30 23051 N 2243.76 -1.55766 -0.239741 0
M  V30 23052 C 2244.72 -1.90105 -1.28034 0
M  V30 23053 C 2245.72 -0.77808 -1.40722 0
M  V30 23054 O 2246.91 -1.04601 -1.39299 0
M  V30 23055 C 2244.04 -2.13581 -2.65699 0
M  V30 23056 H 2245.23 -2.83158 -0.987998 0
M  V30 23057 H 2242.79 -1.48768 -0.479356 0
M  V30 23058 H 2243.52 -1.2302 -3.00061 0
M  V30 23059 H 2243.31 -2.95374 -2.5787 0
M  V30 23060 H 2244.8 -2.41307 -3.40823 0
M  V30 23061 N 2245.23 0.505704 -1.49266 0
M  V30 23062 C 2246.14 1.63424 -1.68315 0
M  V30 23063 C 2247.16 1.64547 -0.56571 0
M  V30 23064 O 2248.34 1.83054 -0.839833 0
M  V30 23065 C 2245.4 2.9981 -1.74112 0
M  V30 23066 C 2244.46 3.0935 -2.97659 0
M  V30 23067 C 2243.69 4.3923 -3.03171 0
M  V30 23068 O 2243.92 5.27755 -2.16405 0
M  V30 23069 O 2242.85 4.53645 -3.95588 0
M  V30 23070 H 2246.68 1.50284 -2.6391 0
M  V30 23071 H 2244.26 0.681478 -1.32952 0
M  V30 23072 H 2246.14 3.80877 -1.80306 0
M  V30 23073 H 2244.82 3.13221 -0.816956 0
M  V30 23074 H 2243.73 2.27488 -2.96985 0
M  V30 23075 H 2245.06 3.00864 -3.8954 0
M  V30 23076 N 2246.71 1.38262 0.756405 0
M  V30 23077 C 2247.94 1.3772 1.55074 0
M  V30 23078 C 2248.36 -0.0316069 1.88073 0
M  V30 23079 O 2247.72 -1.0129 1.50366 0
M  V30 23080 C 2247.77 2.237 2.82826 0
M  V30 23081 O 2246.87 1.65217 3.77859 0
M  V30 23082 H 2246.21 0.469893 0.469144 0
M  V30 23083 H 2248.74 1.81987 0.934987 0
M  V30 23084 H 2248.75 2.37459 3.31779 0
M  V30 23085 H 2247.43 3.26095 2.58138 0
M  V30 23086 H 2246.01 1.60584 3.36552 0
M  V30 23087 N 2248.19 -0.984277 1.23084 0
M  V30 23088 C 2249.44 -1.72759 1.06217 0
M  V30 23089 C 2249.77 -1.90024 -0.40055 0
M  V30 23090 O 2249.04 -1.44969 -1.2967 0
M  V30 23091 C 2249.33 -3.12814 1.7838 0
M  V30 23092 C 2249.18 -3.03143 3.32301 0
M  V30 23093 C 2250.5 -4.12159 1.54316 0
M  V30 23094 H 2247.62 -0.627054 0.387262 0
M  V30 23095 H 2250.26 -1.14614 1.51538 0
M  V30 23096 H 2248.41 -3.62454 1.39854 0
M  V30 23097 H 2250.08 -2.61057 3.80325 0
M  V30 23098 H 2248.33 -2.39741 3.61534 0
M  V30 23099 H 2249 -4.02289 3.77979 0
M  V30 23100 H 2251.47 -3.7131 1.87797 0
M  V30 23101 H 2250.35 -5.08254 2.0729 0
M  V30 23102 H 2250.61 -4.39512 0.477649 0
M  V30 23103 N 2249.67 -1.04192 -1.18244 0
M  V30 23104 C 2250.9 -0.766106 -1.92194 0
M  V30 23105 C 2251.31 0.676902 -1.76248 0
M  V30 23106 O 2250.67 1.46153 -1.09296 0
M  V30 23107 C 2250.72 -1.12448 -3.43566 0
M  V30 23108 O 2250.44 -2.51084 -3.5901 0
M  V30 23109 C 2251.94 -0.873351 -4.34612 0
M  V30 23110 H 2249.16 -0.279299 -0.610109 0
M  V30 23111 H 2251.71 -1.38992 -1.50005 0
M  V30 23112 H 2249.86 -0.54561 -3.83539 0
M  V30 23113 H 2250.27 -2.64839 -4.52726 0
M  V30 23114 H 2251.75 -1.17395 -5.39372 0
M  V30 23115 H 2252.23 0.191832 -4.38781 0
M  V30 23116 H 2252.83 -1.43558 -4.00339 0
M  V30 23117 N 2251.15 1.34492 -0.821557 0
M  V30 23118 C 2252.06 2.33324 -0.244396 0
M  V30 23119 C 2253.07 1.6256 0.620499 0
M  V30 23120 O 2254.25 1.94336 0.52872 0
M  V30 23121 C 2251.31 3.41724 0.585308 0
M  V30 23122 C 2250.37 4.28238 -0.301827 0
M  V30 23123 C 2249.61 5.31461 0.488372 0
M  V30 23124 O 2249.83 5.43794 1.72177 0
M  V30 23125 O 2248.76 6.01763 -0.128586 0
M  V30 23126 H 2252.59 2.84513 -1.06236 0
M  V30 23127 H 2250.18 1.37527 -0.583669 0
M  V30 23128 H 2252.06 4.07918 1.0574 0
M  V30 23129 H 2250.73 2.9278 1.38063 0
M  V30 23130 H 2249.64 3.64971 -0.821379 0
M  V30 23131 H 2250.97 4.80618 -1.06147 0
M  V30 23132 N 2252.62 0.576397 1.46681 0
M  V30 23133 C 2254.04 0.23759 1.57822 0
M  V30 23134 C 2254.24 -1.26008 1.5724 0
M  V30 23135 O 2253.3 -2.04143 1.48599 0
M  V30 23136 C 2254.61 0.881218 2.87498 0
M  V30 23137 C 2256.16 0.854222 3.01118 0
M  V30 23138 C 2256.63 1.47727 4.33521 0
M  V30 23139 N 2258.12 1.44133 4.40204 0
M  V30 23140 C 2258.86 1.89286 5.41256 0
M  V30 23141 N 2258.35 2.42383 6.49017 0
M  V30 23142 N 2260.15 1.8024 5.32419 0
M  V30 23143 H 2252.3 1.54921 1.45304 0
M  V30 23144 H 2254.56 0.647179 0.692722 0
M  V30 23145 H 2254.27 1.93452 2.93716 0
M  V30 23146 H 2254.14 0.385658 3.75223 0
M  V30 23147 H 2256.53 -0.190439 2.94485 0
M  V30 23148 H 2256.61 1.38774 2.14885 0
M  V30 23149 H 2256.25 2.5211 4.40911 0
M  V30 23150 H 2256.18 0.919038 5.18518 0
M  V30 23151 H 2258.67 1.05314 3.62929 0
M  V30 23152 H 2258.99 2.7471 7.22325 0
M  V30 23153 H 2257.33 2.46405 6.49854 0
M  V30 23154 H 2260.52 1.38521 4.47135 0
M  V30 23155 H 2260.7 2.15746 6.1103 0
M  V30 23156 N 2254.1 -1.54444 0.313841 0
M  V30 23157 C 2255.38 -1.92526 -0.345413 0
M  V30 23158 C 2255.76 -1.24245 -1.70665 0
M  V30 23159 O 2255.11 -0.382694 -2.25273 0
M  V30 23160 C 2255.32 -3.46122 -0.447309 0
M  V30 23161 C 2256.67 -4.18585 -0.712164 0
M  V30 23162 O 2257.69 -3.52226 -0.530616 0
M  V30 23163 O 2256.55 -5.36087 -1.06173 0
M  V30 23164 H 2253.64 -0.803586 -0.195393 0
M  V30 23165 H 2256.19 -1.65776 0.362842 0
M  V30 23166 H 2254.96 -3.87974 0.509111 0
M  V30 23167 H 2254.58 -3.78947 -1.20353 0
M  V30 23168 N 2255.58 -0.0418125 -1.57545 0
M  V30 23169 C 2256.81 0.643894 -1.96626 0
M  V30 23170 C 2257.22 1.64928 -0.918926 0
M  V30 23171 O 2256.58 1.82237 0.0979003 0
M  V30 23172 C 2256.63 1.33908 -3.35784 0
M  V30 23173 O 2256.35 0.373971 -4.36501 0
M  V30 23174 C 2257.85 2.11543 -3.8957 0
M  V30 23175 H 2255.07 0.17669 -0.647319 0
M  V30 23176 H 2257.62 -0.10534 -2.04229 0
M  V30 23177 H 2255.77 2.03962 -3.2936 0
M  V30 23178 H 2256.19 0.869088 -5.1725 0
M  V30 23179 H 2257.66 2.5562 -4.89247 0
M  V30 23180 H 2258.14 2.95974 -3.24493 0
M  V30 23181 H 2258.74 1.4642 -3.99301 0
M  V30 23182 N 2257.06 1.55891 0.231477 0
M  V30 23183 C 2257.97 1.94754 1.30797 0
M  V30 23184 C 2258.98 0.850015 1.51825 0
M  V30 23185 O 2260.16 1.15274 1.65148 0
M  V30 23186 C 2257.23 2.24775 2.63964 0
M  V30 23187 C 2256.29 3.48044 2.51325 0
M  V30 23188 C 2255.52 3.76623 3.78141 0
M  V30 23189 O 2255.74 3.07031 4.80716 0
M  V30 23190 O 2254.68 4.70129 3.75848 0
M  V30 23191 H 2258.5 2.86475 1.00825 0
M  V30 23192 H 2256.09 1.42972 0.433522 0
M  V30 23193 H 2257.97 2.45324 3.42629 0
M  V30 23194 H 2256.64 1.3623 2.93637 0
M  V30 23195 H 2255.55 3.32785 1.70894 0
M  V30 23196 H 2256.88 4.3694 2.26593 0
M  V30 23197 N 2258.54 -0.497781 1.49532 0
M  V30 23198 C 2259.78 -1.25355 1.59417 0
M  V30 23199 C 2260.12 -1.9215 0.281455 0
M  V30 23200 O 2259.39 -1.80873 -0.715217 0
M  V30 23201 C 2259.67 -2.31805 2.7557 0
M  V30 23202 C 2259.53 -1.69491 4.16645 0
M  V30 23203 C 2260.85 -3.33341 2.87353 0
M  V30 23204 H 2257.96 -0.454398 0.580252 0
M  V30 23205 H 2260.61 -0.55123 1.81828 0
M  V30 23206 H 2258.76 -2.91707 2.56592 0
M  V30 23207 H 2260.43 -1.13391 4.47147 0
M  V30 23208 H 2258.67 -0.998904 4.22143 0
M  V30 23209 H 2259.34 -2.46717 4.93796 0
M  V30 23210 H 2261.82 -2.83433 3.04639 0
M  V30 23211 H 2260.69 -4.05181 3.70296 0
M  V30 23212 H 2260.96 -3.95861 1.96841 0
M  V30 23213 N 2260.01 -1.38661 -0.749062 0
M  V30 23214 C 2261.26 -1.3485 -1.50532 0
M  V30 23215 C 2261.58 0.0594673 -1.94909 0
M  V30 23216 O 2260.85 1.00803 -1.67975 0
M  V30 23217 H 2259.43 -0.4962 -0.558386 0
M  V30 23218 H 2262.1 -1.73386 -0.890134 0
M  V30 23219 H 2261.19 -2.00223 -2.3941 0
M  V30 23220 N 2261.49 0.977736 -1.23605 0
M  V30 23221 C 2262.44 2.05544 -0.9867 0
M  V30 23222 C 2263.43 1.60755 0.0682726 0
M  V30 23223 O 2264.62 1.76412 -0.144193 0
M  V30 23224 C 2261.75 3.38319 -0.582683 0
M  V30 23225 C 2260.83 3.89698 -1.6732 0
M  V30 23226 N 2261.23 4.14127 -2.90401 0
M  V30 23227 C 2259.52 4.18259 -1.54839 0
M  V30 23228 C 2260.22 4.5611 -3.61025 0
M  V30 23229 N 2259.2 4.60696 -2.88548 0
M  V30 23230 H 2263 2.22392 -1.92143 0
M  V30 23231 H 2260.52 1.16072 -1.13582 0
M  V30 23232 H 2262.51 4.15116 -0.385313 0
M  V30 23233 H 2261.17 3.22862 0.344973 0
M  V30 23234 H 2262.18 4.01871 -3.2668 0
M  V30 23235 H 2258.86 4.11792 -0.688041 0
M  V30 23236 H 2260.25 4.83506 -4.66553 0
M  V30 23237 N 2262.97 1.04818 1.1769 0
M  V30 23238 C 2263.9 0.603861 2.21102 0
M  V30 23239 C 2264.92 -0.330432 1.59411 0
M  V30 23240 O 2266.11 -0.123758 1.7807 0
M  V30 23241 C 2263.21 -0.136838 3.38624 0
M  V30 23242 C 2262.38 0.807213 4.29887 0
M  V30 23243 C 2261.44 0.108452 5.26088 0
M  V30 23244 O 2260.46 0.741331 5.64352 0
M  V30 23245 N 2261.67 -1.15548 5.68884 0
M  V30 23246 H 2264.43 1.49334 2.59845 0
M  V30 23247 H 2261.99 0.92961 1.32551 0
M  V30 23248 H 2263.98 -0.614331 4.0001 0
M  V30 23249 H 2262.55 -0.927941 2.9851 0
M  V30 23250 H 2261.77 1.46441 3.6599 0
M  V30 23251 H 2263.06 1.44816 4.87756 0
M  V30 23252 H 2262.46 -1.69006 5.39864 0
M  V30 23253 H 2261.02 -1.57711 6.32432 0
M  V30 23254 N 2264.45 -1.34055 0.828678 0
M  V30 23255 C 2265.41 -2.27721 0.259967 0
M  V30 23256 C 2266.41 -1.5053 -0.565451 0
M  V30 23257 O 2267.6 -1.69989 -0.38072 0
M  V30 23258 C 2264.73 -3.34936 -0.634885 0
M  V30 23259 H 2265.93 -2.79532 1.08635 0
M  V30 23260 H 2263.48 -1.44284 0.600977 0
M  V30 23261 H 2264.22 -2.88348 -1.48411 0
M  V30 23262 H 2264 -3.92075 -0.044431 0
M  V30 23263 H 2265.49 -4.0479 -1.02641 0
M  V30 23264 N 2265.93 -0.584167 -1.46374 0
M  V30 23265 C 2266.88 0.169192 -2.27371 0
M  V30 23266 C 2267.86 0.860499 -1.35957 0
M  V30 23267 O 2269.05 0.754354 -1.6012 0
M  V30 23268 C 2266.18 1.18128 -3.22336 0
M  V30 23269 C 2265.27 0.492014 -4.21236 0
M  V30 23270 N 2265.66 -0.453218 -5.03765 0
M  V30 23271 C 2263.96 0.742574 -4.39775 0
M  V30 23272 C 2264.66 -0.856192 -5.75364 0
M  V30 23273 N 2263.63 -0.205022 -5.43213 0
M  V30 23274 H 2267.44 -0.557147 -2.88571 0
M  V30 23275 H 2264.95 -0.40607 -1.57241 0
M  V30 23276 H 2266.95 1.73519 -3.79074 0
M  V30 23277 H 2265.61 1.90843 -2.62696 0
M  V30 23278 H 2266.62 -0.828813 -5.11225 0
M  V30 23279 H 2263.3 1.45618 -3.91282 0
M  V30 23280 H 2264.69 -1.63446 -6.51717 0
M  V30 23281 N 2267.41 1.54275 -0.322027 0
M  V30 23282 C 2268.32 2.27975 0.553591 0
M  V30 23283 C 2269.33 1.3227 1.13052 0
M  V30 23284 O 2270.51 1.65282 1.15081 0
M  V30 23285 C 2267.57 3.02204 1.69922 0
M  V30 23286 C 2266.63 4.13492 1.15426 0
M  V30 23287 C 2265.87 4.84172 2.24529 0
M  V30 23288 O 2266.09 4.54356 3.44844 0
M  V30 23289 O 2265.02 5.71114 1.90034 0
M  V30 23290 H 2268.85 3.03667 -0.0448878 0
M  V30 23291 H 2266.43 1.49142 -0.087768 0
M  V30 23292 H 2268.32 3.48694 2.36624 0
M  V30 23293 H 2266.99 2.29389 2.28391 0
M  V30 23294 H 2265.9 3.71355 0.452371 0
M  V30 23295 H 2267.23 4.88346 0.614719 0
M  V30 23296 N 2268.88 0.0501669 1.5752 0
M  V30 23297 C 2269.83 -0.934194 2.07983 0
M  V30 23298 C 2270.82 -1.27244 0.984767 0
M  V30 23299 O 2272.01 -1.25503 1.24811 0
M  V30 23300 C 2269.14 -2.2094 2.62755 0
M  V30 23301 C 2268.22 -1.89859 3.79229 0
M  V30 23302 N 2268.62 -1.29133 4.89038 0
M  V30 23303 C 2266.91 -2.19734 3.88115 0
M  V30 23304 C 2267.61 -1.15659 5.70086 0
M  V30 23305 N 2266.59 -1.65914 5.17662 0
M  V30 23306 H 2270.39 -0.460002 2.90278 0
M  V30 23307 H 2267.91 -0.154311 1.61665 0
M  V30 23308 H 2269.9 -2.92355 2.97211 0
M  V30 23309 H 2268.56 -2.68966 1.81899 0
M  V30 23310 H 2269.57 -0.963667 5.08855 0
M  V30 23311 H 2266.25 -2.70288 3.18199 0
M  V30 23312 H 2267.64 -0.685238 6.68397 0
M  V30 23313 N 2270.36 -1.56011 -0.223207 0
M  V30 23314 C 2271.59 -1.83029 -0.96478 0
M  V30 23315 C 2272 -0.629072 -1.78012 0
M  V30 23316 O 2271.36 0.402382 -1.78009 0
M  V30 23317 C 2271.41 -3.08545 -1.88368 0
M  V30 23318 O 2271.13 -4.24032 -1.1013 0
M  V30 23319 C 2272.63 -3.48537 -2.73928 0
M  V30 23320 H 2269.85 -0.60848 -0.282831 0
M  V30 23321 H 2272.4 -2.03099 -0.238936 0
M  V30 23322 H 2270.55 -2.90455 -2.56349 0
M  V30 23323 H 2270.97 -4.95325 -1.72492 0
M  V30 23324 H 2272.44 -4.39403 -3.3411 0
M  V30 23325 H 2272.92 -2.70213 -3.46239 0
M  V30 23326 H 2273.52 -3.69061 -2.11362 0
M  V30 23327 N 2271.84 0.489844 -1.49794 0
M  V30 23328 C 2272.75 1.6163 -1.70038 0
M  V30 23329 C 2273.77 1.63938 -0.583131 0
M  V30 23330 O 2274.94 1.82153 -0.859201 0
M  V30 23331 C 2272.01 2.97946 -1.77282 0
M  V30 23332 C 2271.07 3.06176 -3.00923 0
M  V30 23333 C 2270.3 4.3599 -3.07812 0
M  V30 23334 O 2270.52 5.2543 -2.21991 0
M  V30 23335 O 2269.46 4.49424 -4.00377 0
M  V30 23336 H 2273.28 1.47477 -2.65489 0
M  V30 23337 H 2270.87 0.667339 -1.33667 0
M  V30 23338 H 2272.75 3.78944 -1.84336 0
M  V30 23339 H 2271.43 3.12337 -0.850131 0
M  V30 23340 H 2270.33 2.24325 -2.99381 0
M  V30 23341 H 2271.67 2.96716 -3.92709 0
M  V30 23342 N 2273.32 1.39056 0.741698 0
M  V30 23343 C 2274.73 1.3207 1.31963 0
M  V30 23344 C 2275.08 -0.0180453 1.96192 0
M  V30 23345 O 2274.2 -0.920162 1.95862 0
M  V30 23346 C 2274.8 2.39185 2.3995 0
M  V30 23347 C 2273.36 2.35741 2.93434 0
M  V30 23348 C 2272.51 2.21425 1.66932 0
M  V30 23349 H 2275.46 1.49241 0.539695 0
M  V30 23350 H 2275.48 2.05587 3.20178 0
M  V30 23351 H 2274.99 3.36609 1.93174 0
M  V30 23352 H 2273.09 1.41935 3.44507 0
M  V30 23353 H 2273.2 3.30341 3.47004 0
M  V30 23354 H 2271.57 1.68481 1.91014 0
M  V30 23355 H 2272.35 3.20808 1.22218 0
M  V30 23356 N 2274.8 -0.971167 1.24121 0
M  V30 23357 C 2276.04 -1.71623 1.08044 0
M  V30 23358 C 2276.37 -1.90438 -0.380373 0
M  V30 23359 O 2275.65 -1.46336 -1.28125 0
M  V30 23360 C 2275.93 -3.10904 1.81688 0
M  V30 23361 C 2275.79 -2.99602 3.35498 0
M  V30 23362 C 2277.1 -4.10499 1.58679 0
M  V30 23363 H 2274.22 -0.622912 0.393891 0
M  V30 23364 H 2276.87 -1.13 1.52745 0
M  V30 23365 H 2275.02 -3.6095 1.43691 0
M  V30 23366 H 2276.69 -2.57009 3.83072 0
M  V30 23367 H 2274.93 -2.35893 3.64056 0
M  V30 23368 H 2275.6 -3.98257 3.82224 0
M  V30 23369 H 2278.08 -3.69298 1.91725 0
M  V30 23370 H 2276.95 -5.06027 2.12669 0
M  V30 23371 H 2277.21 -4.38981 0.524238 0
M  V30 23372 N 2276.27 -1.05441 -1.17133 0
M  V30 23373 C 2277.5 -0.786429 -1.91912 0
M  V30 23374 C 2277.92 0.652203 -1.76431 0
M  V30 23375 O 2277.28 1.45343 -1.08375 0
M  V30 23376 C 2277.33 -1.17503 -3.40918 0
M  V30 23377 O 2276.43 -0.308661 -4.11243 0
M  V30 23378 H 2275.78 -0.288168 -0.59821 0
M  V30 23379 H 2278.31 -1.40792 -1.48454 0
M  V30 23380 H 2278.32 -1.14287 -3.91666 0
M  V30 23381 H 2276.99 -2.22298 -3.51506 0
M  V30 23382 H 2275.57 -0.401635 -3.70731 0
M  V30 23383 N 2277.75 1.33613 -0.835776 0
M  V30 23384 C 2278.68 2.31794 -0.28178 0
M  V30 23385 C 2279.66 1.58832 0.608805 0
M  V30 23386 O 2280.85 1.86742 0.533002 0
M  V30 23387 C 2277.98 3.42972 0.546552 0
M  V30 23388 C 2276.93 4.27281 -0.247979 0
M  V30 23389 C 2276.26 5.30046 0.703907 0
M  V30 23390 C 2277.56 5.01382 -1.46333 0
M  V30 23391 H 2279.25 2.78377 -1.10211 0
M  V30 23392 H 2276.8 1.33836 -0.531412 0
M  V30 23393 H 2278.75 4.10681 0.944395 0
M  V30 23394 H 2277.48 2.95069 1.40006 0
M  V30 23395 H 2276.13 3.61192 -0.627345 0
M  V30 23396 H 2275.78 4.78402 1.55373 0
M  V30 23397 H 2275.48 5.87335 0.176421 0
M  V30 23398 H 2277.01 6.00622 1.09933 0
M  V30 23399 H 2278.42 5.61875 -1.13881 0
M  V30 23400 H 2276.82 5.68306 -1.92738 0
M  V30 23401 H 2277.89 4.30334 -2.23474 0
M  V30 23402 N 2279.23 0.591922 1.46062 0
M  V30 23403 C 2280.48 0.0810347 2.02338 0
M  V30 23404 C 2280.81 -1.28246 1.4623 0
M  V30 23405 O 2280.06 -1.85591 0.620851 0
M  V30 23406 C 2280.36 -0.0249184 3.57391 0
M  V30 23407 C 2280.03 1.27219 4.32581 0
M  V30 23408 C 2278.69 1.62753 4.52841 0
M  V30 23409 C 2281.04 2.13014 4.75683 0
M  V30 23410 C 2278.37 2.83864 5.13457 0
M  V30 23411 C 2280.72 3.33359 5.37638 0
M  V30 23412 C 2279.38 3.69165 5.56124 0
M  V30 23413 H 2278.65 0.0296527 0.740406 0
M  V30 23414 H 2281.3 0.770405 1.7532 0
M  V30 23415 H 2279.61 -0.797469 3.83598 0
M  V30 23416 H 2281.3 -0.436114 3.98621 0
M  V30 23417 H 2277.89 0.985572 4.17114 0
M  V30 23418 H 2282.08 1.86863 4.59778 0
M  V30 23419 H 2277.33 3.11731 5.2596 0
M  V30 23420 H 2281.51 4.00102 5.69993 0
M  V30 23421 H 2279.13 4.631 6.02862 0
M  V30 23422 N 2280.71 -1.54102 0.330204 0
M  V30 23423 C 2282.12 -1.86043 -0.156487 0
M  V30 23424 C 2282.47 -1.25173 -1.51083 0
M  V30 23425 O 2281.6 -0.560254 -2.09022 0
M  V30 23426 C 2282.19 -3.3755 -0.290725 0
M  V30 23427 C 2280.75 -3.69418 -0.72164 0
M  V30 23428 C 2279.9 -2.76879 0.152671 0
M  V30 23429 H 2282.85 -1.48855 0.550263 0
M  V30 23430 H 2282.87 -3.63627 -1.12051 0
M  V30 23431 H 2282.38 -3.81824 0.695135 0
M  V30 23432 H 2280.48 -3.30681 -1.71701 0
M  V30 23433 H 2280.59 -4.76261 -0.520785 0
M  V30 23434 H 2278.96 -2.51956 -0.37285 0
M  V30 23435 H 2279.74 -3.2398 1.13542 0
M  V30 23436 N 2282.19 -0.0585199 -1.57491 0
M  V30 23437 C 2283.1 0.928376 -2.15449 0
M  V30 23438 C 2284.11 1.33648 -1.11419 0
M  V30 23439 O 2285.29 1.4119 -1.43622 0
M  V30 23440 C 2282.35 2.18234 -2.69397 0
M  V30 23441 C 2281.41 1.8319 -3.88253 0
M  V30 23442 C 2280.65 3.02608 -4.39618 0
M  V30 23443 O 2280.87 4.16212 -3.90031 0
M  V30 23444 O 2279.8 2.83195 -5.31116 0
M  V30 23445 H 2283.63 0.46543 -3.00112 0
M  V30 23446 H 2281.22 0.1638 -1.48499 0
M  V30 23447 H 2283.1 2.91792 -3.04032 0
M  V30 23448 H 2281.77 2.63652 -1.87801 0
M  V30 23449 H 2280.68 1.06924 -3.58494 0
M  V30 23450 H 2282.01 1.42565 -4.71101 0
M  V30 23451 N 2283.66 1.56128 0.21493 0
M  V30 23452 C 2284.57 1.96131 1.28724 0
M  V30 23453 C 2285.59 0.866071 1.50915 0
M  V30 23454 O 2286.77 1.17019 1.63916 0
M  V30 23455 C 2283.83 2.27562 2.61565 0
M  V30 23456 C 2282.89 3.5069 2.47619 0
M  V30 23457 C 2282.13 3.80612 3.74125 0
M  V30 23458 O 2282.35 3.12112 4.77433 0
M  V30 23459 O 2281.28 4.74089 3.70841 0
M  V30 23460 H 2285.11 2.87529 0.977805 0
M  V30 23461 H 2282.69 1.43424 0.418333 0
M  V30 23462 H 2284.58 2.48944 3.40007 0
M  V30 23463 H 2283.25 1.39337 2.92176 0
M  V30 23464 H 2282.16 3.34579 1.67355 0
M  V30 23465 H 2283.49 4.39319 2.21946 0
M  V30 23466 N 2285.14 -0.481893 1.50052 0
M  V30 23467 C 2286.37 -1.26298 1.6451 0
M  V30 23468 C 2286.79 -1.85291 0.323884 0
M  V30 23469 O 2286.15 -1.66779 -0.710939 0
M  V30 23470 C 2286.2 -2.35529 2.73054 0
M  V30 23471 O 2285.3 -3.3989 2.33556 0
M  V30 23472 H 2284.64 -0.372039 0.549985 0
M  V30 23473 H 2287.17 -0.574751 1.96361 0
M  V30 23474 H 2287.18 -2.81005 2.95804 0
M  V30 23475 H 2285.86 -1.91961 3.6895 0
M  V30 23476 H 2284.44 -3.002 2.21211 0
M  V30 23477 N 2286.62 -1.39448 -0.734313 0
M  V30 23478 C 2287.85 -1.4017 -1.52864 0
M  V30 23479 C 2288.27 0.00168206 -1.881 0
M  V30 23480 O 2287.63 0.988853 -1.51959 0
M  V30 23481 C 2287.68 -2.28171 -2.79231 0
M  V30 23482 O 2286.78 -1.71207 -3.75182 0
M  V30 23483 H 2286.12 -0.477298 -0.461609 0
M  V30 23484 H 2288.65 -1.83451 -0.905916 0
M  V30 23485 H 2288.66 -2.42708 -3.27959 0
M  V30 23486 H 2287.34 -3.3016 -2.52917 0
M  V30 23487 H 2285.91 -1.65918 -3.33955 0
M  V30 23488 N 2288.1 0.964571 -1.24635 0
M  V30 23489 C 2289.35 1.70457 -1.08576 0
M  V30 23490 C 2289.67 1.91348 0.375621 0
M  V30 23491 O 2288.94 1.49347 1.26776 0
M  V30 23492 H 2287.52 0.631642 -0.398795 0
M  V30 23493 H 2290.18 1.16023 -1.56603 0
M  V30 23494 H 2289.28 2.68782 -1.58628 0
M  V30 23495 N 2289.58 1.0606 1.16572 0
M  V30 23496 C 2290.49 0.680321 2.24519 0
M  V30 23497 C 2291.5 -0.302574 1.71349 0
M  V30 23498 O 2292.68 -0.152478 2.00822 0
M  V30 23499 C 2289.74 0.0700925 3.46629 0
M  V30 23500 C 2288.8 1.10455 4.14847 0
M  V30 23501 C 2288.04 0.523349 5.31128 0
M  V30 23502 O 2288.26 -0.664609 5.66515 0
M  V30 23503 O 2287.19 1.26189 5.88523 0
M  V30 23504 H 2291.02 1.58019 2.59352 0
M  V30 23505 H 2288.61 0.832715 1.24041 0
M  V30 23506 H 2290.49 -0.268593 4.20543 0
M  V30 23507 H 2289.16 -0.803298 3.13574 0
M  V30 23508 H 2288.07 1.49538 3.42913 0
M  V30 23509 H 2289.4 1.94939 4.51951 0
M  V30 23510 N 2291.06 -1.33168 0.84285 0
M  V30 23511 C 2292.3 -1.96914 0.436773 0
M  V30 23512 C 2292.62 -1.67493 -1.01022 0
M  V30 23513 O 2293.82 -2.24884 -1.52116 0
M  V30 23514 C 2292.28 -3.52417 0.730082 0
M  V30 23515 C 2291.89 -3.9071 2.19202 0
M  V30 23516 C 2293.63 -4.22694 0.391151 0
M  V30 23517 C 2291.54 -5.39208 2.42917 0
M  V30 23518 H 2290.47 -0.736917 0.159593 0
M  V30 23519 H 2293.12 -1.51731 1.03199 0
M  V30 23520 H 2291.5 -3.95948 0.0644451 0
M  V30 23521 H 2292.68 -3.58226 2.89846 0
M  V30 23522 H 2290.99 -3.33426 2.49431 0
M  V30 23523 H 2293.59 -5.31906 0.54591 0
M  V30 23524 H 2293.93 -4.10935 -0.666222 0
M  V30 23525 H 2294.46 -3.84707 1.01219 0
M  V30 23526 H 2291.2 -5.55976 3.47234 0
M  V30 23527 H 2290.72 -5.73139 1.76837 0
M  V30 23528 H 2292.4 -6.06144 2.2627 0
M  V30 23529 N 2292.53 -0.599659 -1.45746 0
M  V30 23530 C 2293.5 0.113794 -2.28917 0
M  V30 23531 C 2294.5 0.802705 -1.39332 0
M  V30 23532 O 2295.69 0.652074 -1.61535 0
M  V30 23533 C 2292.82 1.17108 -3.20154 0
M  V30 23534 H 2294.01 -0.617341 -2.93477 0
M  V30 23535 H 2291.56 -0.358354 -1.52136 0
M  V30 23536 H 2292.3 1.93324 -2.60377 0
M  V30 23537 H 2292.08 0.6814 -3.86134 0
M  V30 23538 H 2293.57 1.67098 -3.82711 0
M  V30 23539 N 2294.01 1.53925 -0.338371 0
M  V30 23540 C 2295.26 2.00008 0.260697 0
M  V30 23541 C 2295.57 1.2302 1.52071 0
M  V30 23542 O 2296.78 1.59554 2.1967 0
M  V30 23543 C 2295.24 3.56195 0.515087 0
M  V30 23544 C 2294.84 4.42034 -0.728723 0
M  V30 23545 C 2296.59 4.10707 1.0733 0
M  V30 23546 C 2294.49 5.8972 -0.445419 0
M  V30 23547 H 2293.42 0.747179 0.101192 0
M  V30 23548 H 2296.08 1.77823 -0.452897 0
M  V30 23549 H 2294.46 3.74425 1.28925 0
M  V30 23550 H 2295.63 4.35579 -1.50359 0
M  V30 23551 H 2293.95 3.98487 -1.2082 0
M  V30 23552 H 2296.54 5.18653 1.30013 0
M  V30 23553 H 2296.89 3.63605 2.02724 0
M  V30 23554 H 2297.42 3.96168 0.359964 0
M  V30 23555 H 2294.16 6.41046 -1.36894 0
M  V30 23556 H 2293.68 5.99091 0.291464 0
M  V30 23557 H 2295.36 6.46971 -0.0607355 0
M  V30 23558 N 2295.49 0.0668712 1.57458 0
M  V30 23559 C 2296.77 -0.6441 1.84691 0
M  V30 23560 C 2297.15 -1.88091 0.958376 0
M  V30 23561 O 2296.49 -2.28488 0.0233981 0
M  V30 23562 C 2296.7 -0.986451 3.34769 0
M  V30 23563 C 2298.05 -1.36205 4.02161 0
M  V30 23564 O 2299.08 -1.07833 3.39486 0
M  V30 23565 O 2297.94 -1.89218 5.12698 0
M  V30 23566 H 2295.03 -0.319424 0.762822 0
M  V30 23567 H 2297.58 0.0974284 1.6942 0
M  V30 23568 H 2296.35 -0.107814 3.91151 0
M  V30 23569 H 2295.97 -1.78491 3.55284 0
M  V30 23570 N 2296.97 -1.56239 -0.206647 0
M  V30 23571 C 2297.9 -1.90132 -1.27994 0
M  V30 23572 C 2298.91 -0.790908 -1.42297 0
M  V30 23573 O 2300.1 -1.06928 -1.42929 0
M  V30 23574 C 2297.2 -2.10796 -2.65364 0
M  V30 23575 C 2296.37 -3.41891 -2.72818 0
M  V30 23576 C 2295.43 -3.51806 -3.91304 0
M  V30 23577 O 2294.46 -4.24722 -3.78946 0
M  V30 23578 N 2295.66 -2.84043 -5.0626 0
M  V30 23579 H 2298.43 -2.82793 -0.992394 0
M  V30 23580 H 2295.99 -1.56967 -0.396624 0
M  V30 23581 H 2297.98 -2.1473 -3.43035 0
M  V30 23582 H 2296.55 -1.2469 -2.86655 0
M  V30 23583 H 2295.77 -3.49926 -1.81509 0
M  V30 23584 H 2297.06 -4.28222 -2.74779 0
M  V30 23585 H 2296.46 -2.24609 -5.19199 0
M  V30 23586 H 2295.01 -2.93619 -5.8192 0
M  V30 23587 N 2298.45 0.473929 -1.50305 0
M  V30 23588 C 2299.36 1.59817 -1.71743 0
M  V30 23589 C 2300.37 1.6331 -0.600486 0
M  V30 23590 O 2301.55 1.81231 -0.878473 0
M  V30 23591 C 2298.61 2.96049 -1.80433 0
M  V30 23592 C 2297.67 3.02967 -3.04154 0
M  V30 23593 C 2296.91 4.32701 -3.12419 0
M  V30 23594 O 2297.13 5.23045 -2.27551 0
M  V30 23595 O 2296.06 4.45152 -4.05121 0
M  V30 23596 H 2299.89 1.44653 -2.67038 0
M  V30 23597 H 2297.47 0.653124 -1.34368 0
M  V30 23598 H 2299.36 3.76967 -1.88345 0
M  V30 23599 H 2298.03 3.11418 -0.883211 0
M  V30 23600 H 2296.94 2.21137 -3.01744 0
M  V30 23601 H 2298.27 2.92534 -3.95834 0
M  V30 23602 N 2299.92 1.39835 0.726907 0
M  V30 23603 C 2301.15 1.40978 1.52118 0
M  V30 23604 C 2301.57 0.00829336 1.88098 0
M  V30 23605 O 2300.93 -0.98078 1.52481 0
M  V30 23606 C 2300.98 2.29649 2.78017 0
M  V30 23607 O 2300.08 1.73194 3.74269 0
M  V30 23608 H 2299.42 0.479739 0.459071 0
M  V30 23609 H 2301.95 1.83929 0.896175 0
M  V30 23610 H 2301.96 2.44443 3.26667 0
M  V30 23611 H 2300.64 3.31497 2.51163 0
M  V30 23612 H 2299.22 1.67686 3.3307 0
M  V30 23613 N 2301.4 -0.957948 1.25144 0
M  V30 23614 C 2302.33 -2.05734 1.01026 0
M  V30 23615 C 2303.35 -1.62783 -0.0236616 0
M  V30 23616 O 2304.54 -1.77206 0.214511 0
M  V30 23617 C 2301.64 -3.35122 0.504654 0
M  V30 23618 C 2300.81 -4.06929 1.60397 0
M  V30 23619 C 2299.87 -5.14589 1.09931 0
M  V30 23620 O 2298.89 -5.40221 1.79303 0
M  V30 23621 N 2300.1 -5.80468 -0.0611525 0
M  V30 23622 H 2302.86 -2.26995 1.95687 0
M  V30 23623 H 2300.42 -1.12627 1.16305 0
M  V30 23624 H 2302.41 -4.04416 0.151587 0
M  V30 23625 H 2300.98 -3.10658 -0.347935 0
M  V30 23626 H 2300.2 -3.31778 2.12877 0
M  V30 23627 H 2301.49 -4.51663 2.3426 0
M  V30 23628 H 2300.89 -5.62058 -0.640887 0
M  V30 23629 H 2299.45 -6.50831 -0.355281 0
M  V30 23630 N 2302.88 -1.06677 -1.16008 0
M  V30 23631 C 2303.83 -0.681006 -2.20524 0
M  V30 23632 C 2304.8 0.324255 -1.62904 0
M  V30 23633 O 2305.98 0.21226 -1.89616 0
M  V30 23634 C 2303.12 -0.0777158 -3.45012 0
M  V30 23635 C 2302.23 -1.13362 -4.16861 0
M  V30 23636 C 2301.37 -0.496063 -5.28879 0
M  V30 23637 C 2300.41 -1.53524 -5.92534 0
M  V30 23638 N 2299.55 -0.920754 -6.96036 0
M  V30 23639 H 2304.39 -1.57667 -2.52874 0
M  V30 23640 H 2301.92 -0.788245 -1.24198 0
M  V30 23641 H 2303.88 0.28963 -4.16193 0
M  V30 23642 H 2302.51 0.781338 -3.13201 0
M  V30 23643 H 2301.56 -1.61863 -3.44245 0
M  V30 23644 H 2302.87 -1.92182 -4.6029 0
M  V30 23645 H 2302.03 -0.0759671 -6.06652 0
M  V30 23646 H 2300.77 0.323976 -4.86623 0
M  V30 23647 H 2299.77 -1.96519 -5.13479 0
M  V30 23648 H 2301 -2.35744 -6.36869 0
M  V30 23649 H 2298.94 -0.121495 -6.55887 0
M  V30 23650 H 2298.86 -1.64629 -7.37857 0
M  V30 23651 H 2300.13 -0.525932 -7.77724 0
M  V30 23652 N 2304.36 1.32719 -0.8499 0
M  V30 23653 C 2305.61 1.9668 -0.447209 0
M  V30 23654 C 2305.92 1.68027 1.00132 0
M  V30 23655 O 2307.13 2.25688 1.50922 0
M  V30 23656 C 2305.58 3.52025 -0.748762 0
M  V30 23657 C 2305.19 3.89542 -2.21271 0
M  V30 23658 C 2306.93 4.22481 -0.413562 0
M  V30 23659 C 2304.84 5.37912 -2.45773 0
M  V30 23660 H 2303.77 0.73606 -0.163499 0
M  V30 23661 H 2306.42 1.51181 -1.04002 0
M  V30 23662 H 2304.8 3.95908 -0.0854423 0
M  V30 23663 H 2305.98 3.56684 -2.91742 0
M  V30 23664 H 2304.29 3.32099 -2.51196 0
M  V30 23665 H 2306.89 5.31609 -0.574111 0
M  V30 23666 H 2307.23 4.11282 0.64442 0
M  V30 23667 H 2307.77 3.84165 -1.03257 0
M  V30 23668 H 2304.5 5.54126 -3.50177 0
M  V30 23669 H 2304.02 5.72193 -1.79874 0
M  V30 23670 H 2305.7 6.04936 -2.29482 0
M  V30 23671 N 2305.84 0.60738 1.45426 0
M  V30 23672 C 2306.8 -0.101653 2.28974 0
M  V30 23673 C 2307.8 -0.795304 1.39755 0
M  V30 23674 O 2308.99 -0.643499 1.61879 0
M  V30 23675 C 2306.12 -1.15409 3.2077 0
M  V30 23676 H 2307.31 0.632896 2.93146 0
M  V30 23677 H 2304.87 0.366417 1.51944 0
M  V30 23678 H 2305.6 -1.91941 2.61399 0
M  V30 23679 H 2305.39 -0.660912 3.8649 0
M  V30 23680 H 2306.88 -1.65066 3.83592 0
M  V30 23681 N 2307.31 -1.53743 0.34653 0
M  V30 23682 C 2308.56 -2.00962 -0.249069 0
M  V30 23683 C 2308.89 -1.23429 -1.50318 0
M  V30 23684 O 2308.14 -0.310795 -1.93216 0
M  V30 23685 C 2308.44 -3.52229 -0.605747 0
M  V30 23686 C 2308.11 -4.47511 0.551825 0
M  V30 23687 C 2306.77 -4.73279 0.869493 0
M  V30 23688 C 2309.12 -5.03991 1.32827 0
M  V30 23689 C 2306.45 -5.52783 1.96592 0
M  V30 23690 C 2308.8 -5.8469 2.41496 0
M  V30 23691 C 2307.47 -6.08752 2.73819 0
M  V30 23692 H 2306.74 -0.735374 -0.0911408 0
M  V30 23693 H 2309.38 -1.85514 0.47506 0
M  V30 23694 H 2307.69 -3.65525 -1.41063 0
M  V30 23695 H 2309.39 -3.86224 -1.07852 0
M  V30 23696 H 2305.98 -4.27589 0.294177 0
M  V30 23697 H 2310.16 -4.84045 1.0961 0
M  V30 23698 H 2305.42 -5.6965 2.22055 0
M  V30 23699 H 2309.59 -6.27467 3.02089 0
M  V30 23700 H 2307.22 -6.70144 3.58903 0
M  V30 23701 N 2308.79 -0.0752207 -1.5742 0
M  V30 23702 C 2309.76 0.876166 -2.11792 0
M  V30 23703 C 2310.76 1.22411 -1.0427 0
M  V30 23704 O 2311.95 1.15681 -1.30244 0
M  V30 23705 C 2309.08 2.1785 -2.6221 0
M  V30 23706 H 2310.27 0.404388 -2.97161 0
M  V30 23707 H 2307.82 0.17353 -1.55334 0
M  V30 23708 H 2308.56 2.69556 -1.80305 0
M  V30 23709 H 2308.34 1.93891 -3.40806 0
M  V30 23710 H 2309.83 2.85949 -3.0434 0
M  V30 23711 N 2310.27 1.56347 0.198358 0
M  V30 23712 C 2311.69 1.49858 0.549059 0
M  V30 23713 C 2311.89 0.774644 1.86015 0
M  V30 23714 O 2310.94 0.32382 2.50415 0
M  V30 23715 C 2312.26 2.94514 0.606816 0
M  V30 23716 C 2313.8 3.05167 0.695872 0
M  V30 23717 C 2314.28 4.51227 0.784769 0
M  V30 23718 N 2315.77 4.55364 0.848383 0
M  V30 23719 C 2316.5 5.65688 0.937279 0
M  V30 23720 N 2316 6.85709 0.98868 0
M  V30 23721 N 2317.79 5.53593 0.974215 0
M  V30 23722 H 2309.94 2.0183 -0.661691 0
M  V30 23723 H 2312.21 0.91834 -0.235277 0
M  V30 23724 H 2311.91 3.50524 -0.287381 0
M  V30 23725 H 2311.79 3.47689 1.46262 0
M  V30 23726 H 2314.17 2.49207 1.5805 0
M  V30 23727 H 2314.26 2.55122 -0.186066 0
M  V30 23728 H 2313.9 5.0781 -0.0954964 0
M  V30 23729 H 2313.83 4.99 1.68246 0
M  V30 23730 H 2316.32 3.6894 0.818038 0
M  V30 23731 H 2316.63 7.65538 1.05693 0
M  V30 23732 H 2314.98 6.88374 0.957413 0
M  V30 23733 H 2318.17 4.58751 0.930873 0
M  V30 23734 H 2318.34 6.39599 1.04004 0
M  V30 23735 N 2311.75 -0.465951 1.50554 0
M  V30 23736 C 2312.71 -1.54571 1.69235 0
M  V30 23737 C 2313.71 -1.50625 0.562928 0
M  V30 23738 O 2314.9 -1.53153 0.830042 0
M  V30 23739 C 2312.03 -2.9419 1.72235 0
M  V30 23740 H 2313.23 -1.39322 2.65574 0
M  V30 23741 H 2310.78 -0.692687 1.40113 0
M  V30 23742 H 2311.51 -3.14877 0.776085 0
M  V30 23743 H 2311.3 -2.98461 2.5429 0
M  V30 23744 H 2312.79 -3.72573 1.88625 0
M  V30 23745 N 2313.23 -1.40218 -0.719481 0
M  V30 23746 C 2314.45 -1.41592 -1.50862 0
M  V30 23747 C 2314.87 -0.0145607 -1.88794 0
M  V30 23748 O 2314.23 0.960566 -1.55175 0
M  V30 23749 C 2314.28 -2.30307 -2.78641 0
M  V30 23750 O 2314 -3.64987 -2.42314 0
M  V30 23751 C 2315.5 -2.4023 -3.72564 0
M  V30 23752 H 2312.72 -0.483078 -0.4657 0
M  V30 23753 H 2315.26 -1.84223 -0.887817 0
M  V30 23754 H 2313.42 -1.91048 -3.37015 0
M  V30 23755 H 2313.83 -4.12062 -3.24507 0
M  V30 23756 H 2315.31 -3.0652 -4.59074 0
M  V30 23757 H 2315.78 -1.42616 -4.154 0
M  V30 23758 H 2316.39 -2.80024 -3.20104 0
M  V30 23759 N 2314.7 0.951297 -1.25651 0
M  V30 23760 C 2315.61 2.08222 -1.08077 0
M  V30 23761 C 2316.63 1.73992 -0.0169971 0
M  V30 23762 O 2317.81 2.0021 -0.218628 0
M  V30 23763 C 2314.87 3.39457 -0.704982 0
M  V30 23764 C 2313.93 3.87534 -1.84706 0
M  V30 23765 C 2313.17 5.12505 -1.48911 0
M  V30 23766 O 2313.39 5.69091 -0.386256 0
M  V30 23767 O 2312.32 5.55373 -2.32043 0
M  V30 23768 H 2316.15 2.25951 -2.02928 0
M  V30 23769 H 2313.73 1.06654 -1.0462 0
M  V30 23770 H 2315.62 4.18331 -0.507683 0
M  V30 23771 H 2314.29 3.2299 0.214234 0
M  V30 23772 H 2313.2 3.09649 -2.09924 0
M  V30 23773 H 2314.53 4.08504 -2.74564 0
M  V30 23774 N 2316.18 1.07291 1.1544 0
M  V30 23775 C 2317.43 0.796879 1.86488 0
M  V30 23776 C 2317.76 -0.675339 1.82079 0
M  V30 23777 O 2317.04 -1.49558 1.24349 0
M  V30 23778 C 2317.32 1.30495 3.35624 0
M  V30 23779 C 2317.17 2.84167 3.48668 0
M  V30 23780 C 2318.49 0.920983 4.30356 0
M  V30 23781 H 2315.61 0.290951 0.677139 0
M  V30 23782 H 2318.25 1.33058 1.3563 0
M  V30 23783 H 2316.4 0.850949 3.79066 0
M  V30 23784 H 2318.07 3.37851 3.14093 0
M  V30 23785 H 2316.32 3.22396 2.90247 0
M  V30 23786 H 2316.99 3.14785 4.53447 0
M  V30 23787 H 2319.46 1.31217 3.94869 0
M  V30 23788 H 2318.34 1.30382 5.3319 0
M  V30 23789 H 2318.6 -0.173149 4.41761 0
M  V30 23790 N 2317.66 -1.32267 0.856927 0
M  V30 23791 C 2318.89 -2.01362 0.475475 0
M  V30 23792 C 2319.3 -1.64393 -0.928457 0
M  V30 23793 O 2318.66 -0.866415 -1.60622 0
M  V30 23794 C 2318.71 -3.56357 0.607608 0
M  V30 23795 O 2318.43 -3.91999 1.95624 0
M  V30 23796 C 2319.93 -4.42726 0.225459 0
M  V30 23797 H 2317.15 -0.644518 0.186647 0
M  V30 23798 H 2319.7 -1.68795 1.15449 0
M  V30 23799 H 2317.85 -3.87393 -0.0237038 0
M  V30 23800 H 2318.27 -4.86718 1.95464 0
M  V30 23801 H 2319.74 -5.50766 0.368909 0
M  V30 23802 H 2320.22 -4.31203 -0.834293 0
M  V30 23803 H 2320.82 -4.17084 0.831937 0
M  V30 23804 N 2319.14 -0.615084 -1.45102 0
M  V30 23805 C 2320.39 -0.113215 -2.02183 0
M  V30 23806 C 2320.71 1.25904 -1.48252 0
M  V30 23807 O 2319.97 1.8458 -0.650298 0
M  V30 23808 C 2320.27 -0.0319426 -3.57386 0
M  V30 23809 C 2319.93 -1.34084 -4.30502 0
M  V30 23810 C 2318.6 -1.69937 -4.50194 0
M  V30 23811 C 2320.95 -2.20555 -4.72234 0
M  V30 23812 C 2318.28 -2.91997 -5.08876 0
M  V30 23813 C 2320.63 -3.4187 -5.32266 0
M  V30 23814 C 2319.29 -3.77966 -5.5018 0
M  V30 23815 H 2318.56 -0.0414282 -0.739841 0
M  V30 23816 H 2321.21 -0.798199 -1.74072 0
M  V30 23817 H 2319.51 0.736341 -3.84818 0
M  V30 23818 H 2321.21 0.372642 -3.99265 0
M  V30 23819 H 2317.8 -1.05181 -4.15494 0
M  V30 23820 H 2321.98 -1.94154 -4.56747 0
M  V30 23821 H 2317.24 -3.2006 -5.20934 0
M  V30 23822 H 2321.41 -4.09119 -5.63555 0
M  V30 23823 H 2319.04 -4.72632 -5.95418 0
M  V30 23824 N 2320.62 1.53557 -0.354678 0
M  V30 23825 C 2321.87 2.00694 0.237937 0
M  V30 23826 C 2322.19 1.24394 1.50171 0
M  V30 23827 O 2321.46 0.354169 1.92672 0
M  V30 23828 H 2320.04 0.741447 0.0909126 0
M  V30 23829 H 2322.7 1.88937 -0.478401 0
M  V30 23830 H 2321.79 3.08501 0.472586 0
M  V30 23831 N 2322.1 0.083568 1.57378 0
M  V30 23832 C 2323.01 -0.893982 2.16899 0
M  V30 23833 C 2324.02 -1.31859 1.13531 0
M  V30 23834 O 2325.2 -1.38887 1.4585 0
M  V30 23835 C 2322.26 -2.13921 2.72835 0
M  V30 23836 C 2321.32 -1.7699 3.91118 0
M  V30 23837 C 2320.56 -2.95576 4.44377 0
M  V30 23838 O 2320.78 -4.09954 3.96603 0
M  V30 23839 O 2319.71 -2.7471 5.35554 0
M  V30 23840 H 2323.54 -0.417626 3.00815 0
M  V30 23841 H 2321.12 -0.140155 1.48741 0
M  V30 23842 H 2323.01 -2.86919 3.08635 0
M  V30 23843 H 2321.68 -2.60631 1.91972 0
M  V30 23844 H 2320.59 -1.01208 3.6015 0
M  V30 23845 H 2321.92 -1.35052 4.73309 0
M  V30 23846 N 2323.57 -1.5645 -0.190064 0
M  V30 23847 C 2324.48 -1.98154 -1.25587 0
M  V30 23848 C 2325.5 -0.88997 -1.49518 0
M  V30 23849 O 2326.68 -1.19612 -1.62034 0
M  V30 23850 C 2323.74 -2.31695 -2.57912 0
M  V30 23851 C 2322.8 -3.54585 -2.42009 0
M  V30 23852 C 2322.03 -3.86516 -3.68023 0
M  V30 23853 O 2322.26 -3.19668 -4.72407 0
M  V30 23854 O 2321.19 -4.79929 -3.63251 0
M  V30 23855 H 2325.02 -2.89048 -0.931938 0
M  V30 23856 H 2322.6 -1.44071 -0.395463 0
M  V30 23857 H 2324.48 -2.54321 -3.36004 0
M  V30 23858 H 2323.16 -1.43968 -2.89922 0
M  V30 23859 H 2322.07 -3.37199 -1.62011 0
M  V30 23860 H 2323.4 -4.42794 -2.14929 0
M  V30 23861 N 2325.05 0.45796 -1.50799 0
M  V30 23862 C 2326.3 1.21085 -1.62685 0
M  V30 23863 C 2326.63 1.91336 -0.332301 0
M  V30 23864 O 2325.91 1.82705 0.667011 0
M  V30 23865 C 2326.19 2.24417 -2.81619 0
M  V30 23866 C 2326.04 1.58384 -4.20992 0
M  V30 23867 C 2327.36 3.25605 -2.9609 0
M  V30 23868 H 2324.48 0.438853 -0.592095 0
M  V30 23869 H 2327.12 0.502828 -1.83226 0
M  V30 23870 H 2325.27 2.84801 -2.64236 0
M  V30 23871 H 2326.94 1.01496 -4.49996 0
M  V30 23872 H 2325.19 0.886629 -4.24643 0
M  V30 23873 H 2325.86 2.33538 -5.00164 0
M  V30 23874 H 2328.33 2.75256 -3.12047 0
M  V30 23875 H 2327.21 3.95221 -3.80909 0
M  V30 23876 H 2327.47 3.90503 -2.07267 0
M  V30 23877 N 2326.53 1.40598 0.712035 0
M  V30 23878 C 2327.44 1.43469 1.85617 0
M  V30 23879 C 2328.46 0.326932 1.70901 0
M  V30 23880 O 2329.63 0.572077 1.93104 0
M  V30 23881 C 2326.7 1.2989 3.21449 0
M  V30 23882 C 2325.76 2.50839 3.48394 0
M  V30 23883 C 2324.99 2.37899 4.77745 0
M  V30 23884 O 2325.21 1.39469 5.53086 0
M  V30 23885 O 2324.15 3.27342 5.05105 0
M  V30 23886 H 2327.97 2.39961 1.86151 0
M  V30 23887 H 2325.56 1.21959 0.862929 0
M  V30 23888 H 2327.44 1.24538 4.02577 0
M  V30 23889 H 2326.12 0.365053 3.21635 0
M  V30 23890 H 2325.02 2.61768 2.67261 0
M  V30 23891 H 2326.36 3.42996 3.53007 0
M  V30 23892 N 2328.01 -0.94462 1.26153 0
M  V30 23893 C 2328.95 -2.04283 1.07411 0
M  V30 23894 C 2329.92 -1.66088 -0.0198121 0
M  V30 23895 O 2331.11 -1.90291 0.139297 0
M  V30 23896 C 2328.25 -3.37728 0.709509 0
M  V30 23897 C 2327.36 -3.8898 1.87933 0
M  V30 23898 C 2326.5 -5.10795 1.45816 0
M  V30 23899 C 2325.54 -5.543 2.59649 0
M  V30 23900 N 2324.67 -6.67321 2.18238 0
M  V30 23901 H 2329.51 -2.19647 2.01393 0
M  V30 23902 H 2327.05 -1.07624 1.00277 0
M  V30 23903 H 2329.01 -4.14441 0.479021 0
M  V30 23904 H 2327.64 -3.22221 -0.193332 0
M  V30 23905 H 2326.69 -3.08697 2.22285 0
M  V30 23906 H 2328 -4.17208 2.73384 0
M  V30 23907 H 2327.16 -5.94957 1.18791 0
M  V30 23908 H 2325.9 -4.84304 0.5745 0
M  V30 23909 H 2324.9 -4.68697 2.87407 0
M  V30 23910 H 2326.13 -5.82794 3.48609 0
M  V30 23911 H 2324.07 -6.4252 1.32301 0
M  V30 23912 H 2323.99 -6.95118 2.97233 0
M  V30 23913 H 2325.26 -7.54866 1.94416 0
M  V30 23914 N 2329.49 -1.07901 -1.1487 0
M  V30 23915 C 2330.71 -0.82696 -1.902 0
M  V30 23916 C 2331.14 0.614633 -1.77775 0
M  V30 23917 O 2330.49 1.43011 -1.11434 0
M  V30 23918 C 2330.54 -1.24708 -3.38349 0
M  V30 23919 O 2329.65 -0.395823 -4.10496 0
M  V30 23920 H 2328.99 -0.300792 -0.591963 0
M  V30 23921 H 2331.52 -1.4391 -1.45434 0
M  V30 23922 H 2331.53 -1.2257 -3.89154 0
M  V30 23923 H 2330.2 -2.29704 -3.46711 0
M  V30 23924 H 2328.78 -0.480182 -3.69795 0
M  V30 23925 N 2330.96 1.31811 -0.863929 0
M  V30 23926 C 2332.19 2.01107 -0.486147 0
M  V30 23927 C 2332.61 1.64883 0.919726 0
M  V30 23928 O 2331.96 0.874921 1.6016 0
M  V30 23929 C 2332.01 3.5603 -0.626498 0
M  V30 23930 O 2331.74 3.90956 -1.977 0
M  V30 23931 C 2333.24 4.42601 -0.248935 0
M  V30 23932 H 2330.46 0.643519 -0.190063 0
M  V30 23933 H 2333 1.6818 -1.16343 0
M  V30 23934 H 2331.16 3.874 0.00315907 0
M  V30 23935 H 2331.57 4.85674 -1.98042 0
M  V30 23936 H 2333.04 5.50562 -0.398113 0
M  V30 23937 H 2333.52 4.3164 0.811413 0
M  V30 23938 H 2334.13 4.16637 -0.854044 0
M  V30 23939 N 2332.44 0.62277 1.44773 0
M  V30 23940 C 2333.67 0.129004 2.06998 0
M  V30 23941 C 2334.09 -1.18387 1.46172 0
M  V30 23942 O 2333.45 -1.72433 0.560037 0
M  V30 23943 C 2333.5 0.0188985 3.60595 0
M  V30 23944 O 2332.6 -1.02732 3.99399 0
M  V30 23945 H 2331.94 0.0809659 0.659045 0
M  V30 23946 H 2334.47 0.857083 1.85783 0
M  V30 23947 H 2334.48 -0.174404 4.07627 0
M  V30 23948 H 2333.16 0.977455 4.04251 0
M  V30 23949 H 2331.73 -0.809262 3.64013 0
M  V30 23950 N 2333.92 -1.53367 0.362817 0
M  V30 23951 C 2335.17 -2.01513 -0.228078 0
M  V30 23952 C 2335.5 -1.24972 -1.48646 0
M  V30 23953 O 2334.77 -0.342649 -1.91458 0
M  V30 23954 C 2335.06 -3.56284 -0.522821 0
M  V30 23955 C 2334.91 -4.4352 0.748997 0
M  V30 23956 C 2336.23 -4.19695 -1.32454 0
M  V30 23957 H 2333.35 -0.732489 -0.0814214 0
M  V30 23958 H 2335.99 -1.83648 0.487162 0
M  V30 23959 H 2334.14 -3.71638 -1.13214 0
M  V30 23960 H 2335.81 -4.39968 1.38656 0
M  V30 23961 H 2334.05 -4.11601 1.36993 0
M  V30 23962 H 2334.73 -5.49751 0.497763 0
M  V30 23963 H 2337.2 -4.08157 -0.809131 0
M  V30 23964 H 2336.08 -5.28021 -1.49951 0
M  V30 23965 H 2336.34 -3.75577 -2.33226 0
M  V30 23966 N 2335.4 -0.091913 -1.57332 0
M  V30 23967 C 2336.63 0.581013 -1.98575 0
M  V30 23968 C 2337.04 1.61921 -0.970931 0
M  V30 23969 O 2336.4 1.82456 0.0398733 0
M  V30 23970 C 2336.45 1.23158 -3.39874 0
M  V30 23971 O 2336.17 0.234912 -4.3747 0
M  V30 23972 C 2337.67 1.99042 -3.96103 0
M  V30 23973 H 2334.89 0.156007 -0.652612 0
M  V30 23974 H 2337.44 -0.170261 -2.0379 0
M  V30 23975 H 2335.59 1.9338 -3.35683 0
M  V30 23976 H 2336 0.704089 -5.19753 0
M  V30 23977 H 2337.48 2.39925 -4.97132 0
M  V30 23978 H 2337.96 2.85501 -3.33745 0
M  V30 23979 H 2338.56 1.33642 -4.03757 0
M  V30 23980 N 2336.88 1.56548 0.181765 0
M  V30 23981 C 2338.11 1.85254 0.914586 0
M  V30 23982 C 2338.51 0.673945 1.7679 0
M  V30 23983 O 2337.86 -0.366385 1.80009 0
M  V30 23984 C 2337.92 3.08237 1.85014 0
M  V30 23985 C 2337.58 4.41571 1.17746 0
M  V30 23986 C 2338.58 5.17004 0.547944 0
M  V30 23987 C 2336.27 4.88307 1.17734 0
M  V30 23988 C 2338.26 6.37359 -0.0727248 0
M  V30 23989 C 2335.95 6.08594 0.55284 0
M  V30 23990 C 2336.94 6.82963 -0.071098 0
M  V30 23991 O 2336.63 8.0097 -0.685775 0
M  V30 23992 H 2336.36 0.619002 0.271684 0
M  V30 23993 H 2338.92 2.0452 0.189909 0
M  V30 23994 H 2337.15 2.84889 2.61486 0
M  V30 23995 H 2338.84 3.23476 2.45189 0
M  V30 23996 H 2339.6 4.81983 0.54009 0
M  V30 23997 H 2335.48 4.30369 1.65238 0
M  V30 23998 H 2339.03 6.95346 -0.560335 0
M  V30 23999 H 2334.92 6.43082 0.558241 0
M  V30 24000 H 2335.69 8.16414 -0.583993 0
M  V30 24001 N 2338.35 -0.449957 1.5104 0
M  V30 24002 C 2339.58 -1.22317 1.66871 0
M  V30 24003 C 2340 -1.85321 0.360759 0
M  V30 24004 O 2339.35 -1.70167 -0.659501 0
M  V30 24005 C 2339.41 -2.31648 2.77528 0
M  V30 24006 O 2339.13 -1.71223 4.03255 0
M  V30 24007 C 2340.63 -3.22155 3.04518 0
M  V30 24008 H 2337.85 -0.369145 0.560333 0
M  V30 24009 H 2340.39 -0.534684 1.97386 0
M  V30 24010 H 2338.55 -2.96234 2.49648 0
M  V30 24011 H 2338.96 -2.43381 4.64614 0
M  V30 24012 H 2340.43 -3.95031 3.85557 0
M  V30 24013 H 2340.91 -3.82176 2.16422 0
M  V30 24014 H 2341.52 -2.63282 3.3401 0
M  V30 24015 N 2339.83 -1.40974 -0.704569 0
M  V30 24016 C 2341.24 -1.35523 -1.28415 0
M  V30 24017 C 2341.59 -0.0339779 -1.96171 0
M  V30 24018 O 2340.72 0.867909 -1.98233 0
M  V30 24019 C 2341.31 -2.45463 -2.33524 0
M  V30 24020 C 2339.87 -2.43438 -2.8708 0
M  V30 24021 C 2339.02 -2.25773 -1.61003 0
M  V30 24022 H 2341.97 -1.5062 -0.499936 0
M  V30 24023 H 2341.99 -2.14004 -3.14615 0
M  V30 24024 H 2341.5 -3.41612 -1.84181 0
M  V30 24025 H 2339.61 -1.51019 -3.40623 0
M  V30 24026 H 2339.72 -3.39425 -3.38124 0
M  V30 24027 H 2338.08 -1.73486 -1.86479 0
M  V30 24028 H 2338.87 -3.23935 -1.13669 0
M  V30 24029 N 2341.31 0.937917 -1.26653 0
M  V30 24030 C 2342.54 1.71878 -1.15176 0
M  V30 24031 C 2342.95 1.86518 0.292635 0
M  V30 24032 O 2342.31 1.3749 1.20011 0
M  V30 24033 C 2342.36 3.12383 -1.81931 0
M  V30 24034 O 2342.08 2.9844 -3.20726 0
M  V30 24035 C 2343.58 4.0667 -1.76449 0
M  V30 24036 H 2340.8 0.538056 -0.40092 0
M  V30 24037 H 2343.35 1.17557 -1.67334 0
M  V30 24038 H 2341.5 3.63596 -1.33703 0
M  V30 24039 H 2341.92 3.87194 -3.53809 0
M  V30 24040 H 2343.39 5.02808 -2.2779 0
M  V30 24041 H 2343.87 4.33062 -0.731684 0
M  V30 24042 H 2344.47 3.61379 -2.24245 0
M  V30 24043 N 2342.79 1.08509 1.14296 0
M  V30 24044 C 2344.04 0.810338 1.84706 0
M  V30 24045 C 2344.35 -0.666238 1.83904 0
M  V30 24046 O 2345.56 -1.05619 2.50114 0
M  V30 24047 C 2344.01 1.39963 3.31569 0
M  V30 24048 C 2343.62 2.90807 3.40786 0
M  V30 24049 C 2345.36 1.20342 4.07085 0
M  V30 24050 C 2343.27 3.42869 4.81866 0
M  V30 24051 H 2342.2 0.299466 0.69198 0
M  V30 24052 H 2344.85 1.30663 1.28838 0
M  V30 24053 H 2343.23 0.831045 3.87182 0
M  V30 24054 H 2344.41 3.53811 2.95219 0
M  V30 24055 H 2342.72 3.09355 2.78727 0
M  V30 24056 H 2345.32 1.56702 5.11223 0
M  V30 24057 H 2345.66 0.14331 4.16053 0
M  V30 24058 H 2346.2 1.739 3.57776 0
M  V30 24059 H 2342.94 4.48457 4.78086 0
M  V30 24060 H 2342.46 2.84624 5.27967 0
M  V30 24061 H 2344.13 3.39519 5.50759 0
M  V30 24062 N 2344.27 -1.31351 0.870907 0
M  V30 24063 C 2345.51 -1.96964 0.483022 0
M  V30 24064 C 2345.85 -1.68674 -0.962433 0
M  V30 24065 O 2345.12 -0.983739 -1.67788 0
M  V30 24066 C 2345.4 -3.52376 0.741814 0
M  V30 24067 C 2345.26 -3.90236 2.23687 0
M  V30 24068 C 2346.58 -4.39604 0.208915 0
M  V30 24069 H 2343.69 -0.715438 0.176967 0
M  V30 24070 H 2346.34 -1.55462 1.09232 0
M  V30 24071 H 2344.49 -3.87858 0.223217 0
M  V30 24072 H 2346.16 -3.64851 2.82279 0
M  V30 24073 H 2344.4 -3.38809 2.70907 0
M  V30 24074 H 2345.07 -4.986 2.36859 0
M  V30 24075 H 2347.55 -4.10951 0.652601 0
M  V30 24076 H 2346.42 -5.47295 0.419432 0
M  V30 24077 H 2346.69 -4.33065 -0.889199 0
M  V30 24078 N 2345.74 -0.630439 -1.44441 0
M  V30 24079 C 2347.16 -0.217096 -1.85434 0
M  V30 24080 C 2347.51 1.23133 -1.5275 0
M  V30 24081 O 2346.63 1.9368 -0.965239 0
M  V30 24082 C 2347.23 -0.387227 -3.3658 0
M  V30 24083 C 2345.79 -0.0283959 -3.76389 0
M  V30 24084 C 2344.93 -0.700937 -2.68295 0
M  V30 24085 H 2347.88 -0.835644 -1.34917 0
M  V30 24086 H 2347.9 0.37402 -3.78657 0
M  V30 24087 H 2347.42 -1.4415 -3.60336 0
M  V30 24088 H 2345.52 1.02417 -3.58248 0
M  V30 24089 H 2345.63 -0.437976 -4.77094 0
M  V30 24090 H 2343.99 -0.136312 -2.54335 0
M  V30 24091 H 2344.78 -1.75779 -2.94884 0
M  V30 24092 N 2347.22 1.53172 -0.370945 0
M  V30 24093 C 2348.45 2.06227 0.220257 0
M  V30 24094 C 2348.87 1.24228 1.41241 0
M  V30 24095 O 2348.23 0.262677 1.79387 0
M  V30 24096 C 2348.28 3.55797 0.5866 0
M  V30 24097 O 2347.38 3.76491 1.68311 0
M  V30 24098 H 2346.72 0.663285 0.0307982 0
M  V30 24099 H 2349.25 1.97533 -0.533102 0
M  V30 24100 H 2349.26 3.98917 0.8561 0
M  V30 24101 H 2347.94 4.14922 -0.285086 0
M  V30 24102 H 2346.52 3.45266 1.40875 0
M  V30 24103 N 2348.7 0.100255 1.57281 0
M  V30 24104 C 2349.93 -0.573846 1.99303 0
M  V30 24105 C 2350.35 -1.6061 0.979087 0
M  V30 24106 O 2349.71 -1.81226 -0.0517485 0
M  V30 24107 C 2349.76 -1.19352 3.40276 0
M  V30 24108 O 2348.86 -2.30929 3.4168 0
M  V30 24109 H 2348.2 -0.145127 0.647946 0
M  V30 24110 H 2350.73 0.183192 2.03778 0
M  V30 24111 H 2350.74 -1.53358 3.78081 0
M  V30 24112 H 2349.42 -0.437313 4.13594 0
M  V30 24113 H 2347.99 -1.98504 3.15675 0
M  V30 24114 N 2350.18 -1.56643 -0.17346 0
M  V30 24115 C 2351.14 -1.95364 -1.19856 0
M  V30 24116 C 2352.14 -0.837064 -1.37295 0
M  V30 24117 O 2353.33 -1.10415 -1.34737 0
M  V30 24118 C 2350.46 -2.24658 -2.56401 0
M  V30 24119 H 2351.66 -2.87094 -0.867012 0
M  V30 24120 H 2349.21 -1.50667 -0.415827 0
M  V30 24121 H 2349.95 -1.35636 -2.94573 0
M  V30 24122 H 2349.73 -3.06045 -2.4511 0
M  V30 24123 H 2351.22 -2.55546 -3.30282 0
M  V30 24124 N 2351.66 0.44194 -1.51277 0
M  V30 24125 C 2352.88 1.21892 -1.67801 0
M  V30 24126 C 2353.31 1.84367 -0.372896 0
M  V30 24127 O 2352.67 1.68606 0.666471 0
M  V30 24128 C 2352.71 2.28206 -2.79203 0
M  V30 24129 O 2351.82 3.33579 -2.42485 0
M  V30 24130 H 2351.16 0.357326 -0.559655 0
M  V30 24131 H 2353.69 0.522487 -1.97816 0
M  V30 24132 H 2353.7 2.73064 -3.03151 0
M  V30 24133 H 2352.37 1.82111 -3.7391 0
M  V30 24134 H 2350.95 2.9423 -2.29092 0
M  V30 24135 N 2353.14 1.41345 0.697083 0
M  V30 24136 C 2354.1 1.42801 1.79278 0
M  V30 24137 C 2355.1 0.318865 1.57607 0
M  V30 24138 O 2356.29 0.578671 1.64308 0
M  V30 24139 C 2353.42 1.2379 3.1763 0
M  V30 24140 H 2354.61 2.40338 1.79381 0
M  V30 24141 H 2352.17 1.27465 0.90456 0
M  V30 24142 H 2352.9 0.270871 3.23167 0
M  V30 24143 H 2352.69 2.0415 3.34761 0
M  V30 24144 H 2354.18 1.2764 3.97615 0
M  V30 24145 N 2354.61 -0.931187 1.27148 0
M  V30 24146 C 2355.84 -1.71017 1.15917 0
M  V30 24147 C 2356.25 -1.87009 -0.287079 0
M  V30 24148 O 2355.59 -1.38431 -1.20759 0
M  V30 24149 C 2355.66 -3.13104 1.76653 0
M  V30 24150 C 2355.32 -3.20461 3.25812 0
M  V30 24151 C 2356.32 -3.02976 4.22495 0
M  V30 24152 C 2354 -3.43531 3.66458 0
M  V30 24153 C 2356 -3.08445 5.578 0
M  V30 24154 C 2353.68 -3.48634 5.01894 0
M  V30 24155 C 2354.68 -3.31108 5.97374 0
M  V30 24156 O 2354.37 -3.35939 7.30342 0
M  V30 24157 H 2354.1 -0.541943 0.404072 0
M  V30 24158 H 2356.66 -1.17518 1.68459 0
M  V30 24159 H 2354.89 -3.68069 1.18584 0
M  V30 24160 H 2356.57 -3.72955 1.60185 0
M  V30 24161 H 2357.34 -2.84997 3.9243 0
M  V30 24162 H 2353.22 -3.56225 2.92617 0
M  V30 24163 H 2356.76 -2.94683 6.32304 0
M  V30 24164 H 2352.66 -3.66136 5.31615 0
M  V30 24165 H 2353.43 -3.52417 7.38745 0
M  V30 24166 N 2356.09 -1.09114 -1.13719 0
M  V30 24167 C 2357.34 -0.826447 -1.85196 0
M  V30 24168 C 2357.67 0.646287 -1.8313 0
M  V30 24169 O 2356.95 1.47561 -1.26712 0
M  V30 24170 C 2357.23 -1.35818 -3.33505 0
M  V30 24171 C 2357.08 -2.89678 -3.44103 0
M  V30 24172 C 2358.4 -0.989332 -4.28836 0
M  V30 24173 H 2355.52 -0.301686 -0.672424 0
M  V30 24174 H 2358.16 -1.35199 -1.33496 0
M  V30 24175 H 2356.31 -0.911148 -3.77664 0
M  V30 24176 H 2357.98 -3.42806 -3.08678 0
M  V30 24177 H 2356.23 -3.26972 -2.85082 0
M  V30 24178 H 2356.9 -3.21959 -4.48382 0
M  V30 24179 H 2359.37 -1.37482 -3.92731 0
M  V30 24180 H 2358.25 -1.38848 -5.31049 0
M  V30 24181 H 2358.51 0.102846 -4.4198 0
M  V30 24182 N 2357.57 1.30887 -0.877861 0
M  V30 24183 C 2358.79 2.01116 -0.506665 0
M  V30 24184 C 2359.22 1.65414 0.895535 0
M  V30 24185 O 2358.58 0.86695 1.59228 0
M  V30 24186 C 2358.63 3.54125 -0.680285 0
M  V30 24187 O 2357.73 4.11469 0.276961 0
M  V30 24188 H 2357.07 0.632996 -0.200529 0
M  V30 24189 H 2359.6 1.669 -1.18345 0
M  V30 24190 H 2359.61 4.03906 -0.576571 0
M  V30 24191 H 2358.29 3.79449 -1.70267 0
M  V30 24192 H 2356.86 3.72682 0.12754 0
M  V30 24193 N 2359.05 0.638091 1.44105 0
M  V30 24194 C 2359.96 -0.0636922 2.34514 0
M  V30 24195 C 2360.97 -0.828319 1.53019 0
M  V30 24196 O 2362.15 -0.779003 1.85724 0
M  V30 24197 C 2359.21 -1.02839 3.31097 0
M  V30 24198 C 2358.28 -0.262364 4.28498 0
M  V30 24199 C 2357.51 -1.18111 5.20467 0
M  V30 24200 O 2357.73 -2.42002 5.16518 0
M  V30 24201 O 2356.67 -0.661668 5.98252 0
M  V30 24202 H 2360.49 0.680082 2.95987 0
M  V30 24203 H 2358.08 0.398277 1.43993 0
M  V30 24204 H 2359.96 -1.5832 3.90529 0
M  V30 24205 H 2358.63 -1.75265 2.72147 0
M  V30 24206 H 2357.54 0.335667 3.72591 0
M  V30 24207 H 2358.87 0.422022 4.90387 0
M  V30 24208 N 2360.53 -1.52973 0.379063 0
M  V30 24209 C 2361.44 -2.29872 -0.468599 0
M  V30 24210 C 2362.45 -1.36375 -1.08065 0
M  V30 24211 O 2363.63 -1.6944 -1.08868 0
M  V30 24212 C 2360.69 -3.08303 -1.58589 0
M  V30 24213 C 2359.75 -4.17491 -0.999997 0
M  V30 24214 C 2358.99 -4.92172 -2.06404 0
M  V30 24215 O 2359.21 -4.66841 -3.27743 0
M  V30 24216 O 2358.14 -5.77773 -1.68707 0
M  V30 24217 H 2361.97 -3.03291 0.157561 0
M  V30 24218 H 2359.55 -1.48713 0.143061 0
M  V30 24219 H 2361.44 -3.57235 -2.23519 0
M  V30 24220 H 2360.11 -2.37707 -2.1972 0
M  V30 24221 H 2359.02 -3.72778 -0.314233 0
M  V30 24222 H 2360.35 -4.90291 -0.433049 0
M  V30 24223 N 2362 -0.108595 -1.57225 0
M  V30 24224 C 2362.91 0.859363 -2.18294 0
M  V30 24225 C 2363.93 1.30036 -1.15614 0
M  V30 24226 O 2365.11 1.36549 -1.48041 0
M  V30 24227 C 2362.17 2.09553 -2.76204 0
M  V30 24228 C 2361.23 1.70745 -3.93884 0
M  V30 24229 C 2360.46 2.88469 -4.49023 0
M  V30 24230 O 2360.69 4.03592 -4.03075 0
M  V30 24231 O 2359.62 2.66155 -5.39857 0
M  V30 24232 H 2363.45 0.369716 -3.01441 0
M  V30 24233 H 2361.03 0.116473 -1.48945 0
M  V30 24234 H 2362.91 2.81972 -3.13161 0
M  V30 24235 H 2361.59 2.57544 -1.96094 0
M  V30 24236 H 2360.5 0.95465 -3.61714 0
M  V30 24237 H 2361.83 1.27505 -4.75398 0
M  V30 24238 N 2363.48 1.56732 0.16515 0
M  V30 24239 C 2364.44 1.95997 1.18818 0
M  V30 24240 C 2365.44 0.844334 1.36849 0
M  V30 24241 O 2366.63 1.11128 1.3415 0
M  V30 24242 C 2363.77 2.26015 2.55206 0
M  V30 24243 H 2364.96 2.8755 0.851774 0
M  V30 24244 H 2362.51 1.50885 0.407831 0
M  V30 24245 H 2363.25 1.37196 2.9385 0
M  V30 24246 H 2363.03 3.0734 2.43484 0
M  V30 24247 H 2364.52 2.57294 3.28922 0
M  V30 24248 N 2364.96 -0.433911 1.51509 0
M  V30 24249 C 2366.21 -1.18481 1.64591 0
M  V30 24250 C 2366.54 -1.90783 0.362699 0
M  V30 24251 O 2365.81 -1.83743 -0.637859 0
M  V30 24252 C 2366.1 -2.19908 2.85153 0
M  V30 24253 C 2365.95 -1.51667 4.23459 0
M  V30 24254 C 2367.27 -3.20853 3.01233 0
M  V30 24255 H 2364.39 -0.429378 0.599002 0
M  V30 24256 H 2367.03 -0.473615 1.84002 0
M  V30 24257 H 2365.18 -2.80561 2.68733 0
M  V30 24258 H 2366.85 -0.943243 4.51554 0
M  V30 24259 H 2365.1 -0.81896 4.25999 0
M  V30 24260 H 2365.77 -2.25551 5.03816 0
M  V30 24261 H 2368.24 -2.70257 3.16386 0
M  V30 24262 H 2367.12 -3.89111 3.87148 0
M  V30 24263 H 2367.38 -3.87156 2.13454 0
M  V30 24264 N 2366.44 -1.41713 -0.689577 0
M  V30 24265 C 2367.67 -1.4476 -1.47825 0
M  V30 24266 C 2368.08 -0.0546035 -1.88721 0
M  V30 24267 O 2367.44 0.927435 -1.57178 0
M  V30 24268 C 2367.49 -2.36165 -2.73694 0
M  V30 24269 O 2367.21 -3.70045 -2.34518 0
M  V30 24270 C 2368.71 -2.48079 -3.67385 0
M  V30 24271 H 2365.93 -0.492848 -0.455349 0
M  V30 24272 H 2368.48 -1.86065 -0.848541 0
M  V30 24273 H 2366.63 -1.98154 -3.32887 0
M  V30 24274 H 2367.04 -4.18853 -3.15694 0
M  V30 24275 H 2368.52 -3.16189 -4.52469 0
M  V30 24276 H 2369 -1.51395 -4.12282 0
M  V30 24277 H 2369.6 -2.86751 -3.14092 0
M  V30 24278 N 2367.92 0.924431 -1.2764 0
M  V30 24279 C 2368.85 2.04242 -1.1317 0
M  V30 24280 C 2369.83 1.70069 -0.0322859 0
M  V30 24281 O 2371.01 1.9309 -0.207362 0
M  V30 24282 C 2368.14 3.38392 -0.781556 0
M  V30 24283 C 2367.1 3.86688 -1.83456 0
M  V30 24284 C 2366.42 5.17681 -1.33831 0
M  V30 24285 C 2367.72 4.0972 -3.23924 0
M  V30 24286 H 2369.42 2.16607 -2.06693 0
M  V30 24287 H 2366.96 1.0408 -0.995155 0
M  V30 24288 H 2368.92 4.16086 -0.66713 0
M  V30 24289 H 2367.64 3.2605 0.189381 0
M  V30 24290 H 2366.3 3.1119 -1.93794 0
M  V30 24291 H 2365.95 5.01733 -0.356738 0
M  V30 24292 H 2365.65 5.50965 -2.04234 0
M  V30 24293 H 2367.17 5.97941 -1.23689 0
M  V30 24294 H 2368.58 4.77973 -3.16567 0
M  V30 24295 H 2366.98 4.54317 -3.92067 0
M  V30 24296 H 2368.05 3.14901 -3.68735 0
M  V30 24297 N 2369.39 1.09715 1.13139 0
M  V30 24298 C 2370.64 0.829883 1.83836 0
M  V30 24299 C 2370.96 -0.646696 1.846 0
M  V30 24300 O 2372.16 -1.0296 2.5122 0
M  V30 24301 C 2370.62 1.43472 3.30066 0
M  V30 24302 C 2370.23 2.94405 3.37682 0
M  V30 24303 C 2371.97 1.24652 4.05786 0
M  V30 24304 C 2369.88 3.4796 4.78202 0
M  V30 24305 H 2368.81 0.306789 0.688765 0
M  V30 24306 H 2371.46 1.32023 1.27445 0
M  V30 24307 H 2369.84 0.872064 3.86278 0
M  V30 24308 H 2371.01 3.56923 2.91449 0
M  V30 24309 H 2369.33 3.12293 2.7543 0
M  V30 24310 H 2371.93 1.62115 5.09532 0
M  V30 24311 H 2372.27 0.18743 4.15878 0
M  V30 24312 H 2372.8 1.77685 3.55912 0
M  V30 24313 H 2369.54 4.53503 4.73303 0
M  V30 24314 H 2369.06 2.90208 5.24919 0
M  V30 24315 H 2370.74 3.45341 5.47127 0
M  V30 24316 N 2370.87 -1.30419 0.88479 0
M  V30 24317 C 2372.12 -1.95762 0.502146 0
M  V30 24318 C 2372.44 -1.70194 -0.951785 0
M  V30 24319 O 2371.71 -1.02543 -1.66918 0
M  V30 24320 H 2370.29 -0.724312 0.182707 0
M  V30 24321 H 2372.95 -1.58953 1.12782 0
M  V30 24322 H 2372.05 -3.04774 0.672242 0
M  V30 24323 N 2372.35 -0.645724 -1.43764 0
M  V30 24324 C 2373.3 0.062444 -2.32516 0
M  V30 24325 C 2374.29 0.820829 -1.48185 0
M  V30 24326 O 2375.5 0.732077 -1.6444 0
M  V30 24327 H 2371.87 0.0389732 -0.750989 0
M  V30 24328 H 2373.84 -0.703943 -2.89978 0
M  V30 24329 C 2372.59 1.02038 -3.32391 0
M  V30 24330 H 2371.92 0.446242 -3.97302 0
M  V30 24331 H 2373.36 1.4851 -3.97141 0
M  V30 24332 C 2371.82 2.11276 -2.62419 0
M  V30 24333 O 2372.35 3.19556 -2.43406 0
M  V30 24334 N 2370.55 1.8762 -2.21917 0
M  V30 24335 H 2370.1 0.995661 -2.3758 0
M  V30 24336 H 2370.06 2.60907 -1.75428 0
M  V30 24337 N 2373.83 1.5277 -0.38717 0
M  V30 24338 C 2375.24 1.86496 0.0873306 0
M  V30 24339 C 2375.59 1.30694 1.46334 0
M  V30 24340 O 2374.72 0.637445 2.06798 0
M  V30 24341 C 2375.31 3.38397 0.165245 0
M  V30 24342 C 2373.87 3.71841 0.584036 0
M  V30 24343 C 2373.02 2.76122 -0.255328 0
M  V30 24344 H 2375.97 1.4671 -0.60513 0
M  V30 24345 H 2375.99 3.67535 0.984783 0
M  V30 24346 H 2375.5 3.78981 -0.836368 0
M  V30 24347 H 2373.6 3.36825 1.59309 0
M  V30 24348 H 2373.71 4.77866 0.343665 0
M  V30 24349 H 2372.08 2.53166 0.279081 0
M  V30 24350 H 2372.86 3.19543 -1.25488 0
M  V30 24351 N 2375.31 0.116931 1.57166 0
M  V30 24352 C 2376.55 -0.536132 1.96207 0
M  V30 24353 C 2376.91 -1.64421 0.999179 0
M  V30 24354 O 2376.2 -1.91578 0.0288532 0
M  V30 24355 C 2376.39 -1.11658 3.3951 0
M  V30 24356 C 2376.22 -0.0662684 4.49651 0
M  V30 24357 C 2374.99 0.364829 5.03981 0
M  V30 24358 C 2377.19 0.713918 5.09321 0
M  V30 24359 N 2375.17 1.40113 5.97697 0
M  V30 24360 C 2376.54 1.60147 5.9896 0
M  V30 24361 C 2378.6 0.765034 4.91987 0
M  V30 24362 C 2377.3 2.53568 6.73124 0
M  V30 24363 C 2379.33 1.68695 5.6683 0
M  V30 24364 C 2378.69 2.56208 6.56153 0
M  V30 24365 H 2374.79 -0.165872 0.764206 0
M  V30 24366 H 2377.37 0.204569 1.93622 0
M  V30 24367 H 2375.54 -1.82701 3.42746 0
M  V30 24368 H 2377.28 -1.73379 3.6568 0
M  V30 24369 H 2374.03 -0.0271687 4.73592 0
M  V30 24370 H 2374.46 1.91814 6.49258 0
M  V30 24371 H 2379.1 0.102575 4.22676 0
M  V30 24372 H 2376.82 3.20829 7.41684 0
M  V30 24373 H 2380.4 1.73191 5.55424 0
M  V30 24374 H 2379.28 3.26385 7.13052 0
M  V30 24375 N 2376.78 -1.56818 -0.156836 0
M  V30 24376 C 2378.2 -1.72346 -0.717886 0
M  V30 24377 C 2378.55 -0.729779 -1.82123 0
M  V30 24378 O 2377.67 0.105743 -2.16141 0
M  V30 24379 C 2378.27 -3.12492 -1.30898 0
M  V30 24380 C 2376.83 -3.29656 -1.8167 0
M  V30 24381 C 2375.97 -2.68285 -0.701302 0
M  V30 24382 H 2378.92 -1.58551 0.0687268 0
M  V30 24383 H 2378.94 -3.11946 -2.17876 0
M  V30 24384 H 2378.46 -3.84791 -0.505728 0
M  V30 24385 H 2376.56 -2.62337 -2.64594 0
M  V30 24386 H 2376.67 -4.37523 -1.95218 0
M  V30 24387 H 2375.03 -2.28486 -1.12544 0
M  V30 24388 H 2375.82 -3.43181 0.0903449 0
M  V30 24389 N 2378.26 0.425871 -1.51737 0
M  V30 24390 C 2379.54 1.18627 -1.55522 0
M  V30 24391 C 2379.92 2.08564 -0.326256 0
M  V30 24392 O 2379.27 2.17897 0.687974 0
M  V30 24393 C 2379.48 1.97815 -2.87524 0
M  V30 24394 C 2380.83 2.54462 -3.39903 0
M  V30 24395 O 2381.85 2.08014 -2.89152 0
M  V30 24396 O 2380.71 3.39208 -4.28486 0
M  V30 24397 H 2377.8 0.54071 -0.625749 0
M  V30 24398 H 2380.35 0.434009 -1.64056 0
M  V30 24399 H 2379.12 1.3183 -3.68425 0
M  V30 24400 H 2378.74 2.80083 -2.82205 0
M  V30 24401 N 2379.74 1.42077 0.682052 0
M  V30 24402 C 2381.02 1.32644 1.43753 0
M  V30 24403 C 2381.4 -0.039624 2.11063 0
M  V30 24404 O 2380.75 -1.0547 2.02702 0
M  V30 24405 C 2380.96 2.4895 2.44591 0
M  V30 24406 C 2382.3 2.90735 3.09448 0
M  V30 24407 O 2383.33 2.48788 2.54918 0
M  V30 24408 O 2382.19 3.63314 4.08246 0
M  V30 24409 H 2379.28 0.522726 0.640848 0
M  V30 24410 H 2381.83 1.54069 0.711388 0
M  V30 24411 H 2380.6 3.4005 1.93603 0
M  V30 24412 H 2380.22 2.29473 3.24697 0
M  V30 24413 N 2381.22 -0.917649 1.28129 0
M  V30 24414 C 2382.15 -2.03639 1.14251 0
M  V30 24415 C 2383.13 -1.7005 0.0413047 0
M  V30 24416 O 2384.32 -1.92977 0.217599 0
M  V30 24417 C 2381.45 -3.37973 0.799491 0
M  V30 24418 C 2380.4 -3.8571 1.85504 0
M  V30 24419 C 2379.73 -5.16964 1.36575 0
M  V30 24420 C 2381.03 -4.07997 3.26092 0
M  V30 24421 H 2382.72 -2.15508 2.07839 0
M  V30 24422 H 2380.27 -1.03551 1.00066 0
M  V30 24423 H 2382.22 -4.15726 0.689187 0
M  V30 24424 H 2380.94 -3.26146 -0.172088 0
M  V30 24425 H 2379.6 -3.10158 1.95442 0
M  V30 24426 H 2379.25 -5.01537 0.383341 0
M  V30 24427 H 2378.95 -5.49874 2.07153 0
M  V30 24428 H 2380.47 -5.97277 1.26859 0
M  V30 24429 H 2381.89 -4.76287 3.19098 0
M  V30 24430 H 2380.28 -4.52231 3.9447 0
M  V30 24431 H 2381.35 -3.12941 3.70399 0
M  V30 24432 N 2382.7 -1.10314 -1.12555 0
M  V30 24433 C 2383.63 -0.772837 -2.20339 0
M  V30 24434 C 2384.61 0.25362 -1.68199 0
M  V30 24435 O 2385.79 0.119665 -1.93831 0
M  V30 24436 C 2382.92 -0.202504 -3.46709 0
M  V30 24437 C 2381.88 -1.15951 -4.11994 0
M  V30 24438 C 2381.2 -0.450438 -5.32799 0
M  V30 24439 C 2382.5 -2.5056 -4.58276 0
M  V30 24440 H 2384.2 -1.67405 -2.48226 0
M  V30 24441 H 2381.74 -0.806347 -1.19307 0
M  V30 24442 H 2383.7 0.0407012 -4.2138 0
M  V30 24443 H 2382.42 0.733945 -3.18246 0
M  V30 24444 H 2381.08 -1.38814 -3.39302 0
M  V30 24445 H 2380.73 0.490443 -5.00603 0
M  V30 24446 H 2380.43 -1.08862 -5.77428 0
M  V30 24447 H 2381.95 -0.215749 -6.10219 0
M  V30 24448 H 2383.37 -2.31852 -5.24326 0
M  V30 24449 H 2381.76 -3.10251 -5.13677 0
M  V30 24450 H 2382.83 -3.1065 -3.72323 0
M  V30 24451 N 2384.18 1.29948 -0.891694 0
M  V30 24452 C 2385.4 2.00567 -0.527967 0
M  V30 24453 C 2385.83 1.66355 0.87794 0
M  V30 24454 O 2385.18 0.88379 1.583 0
M  V30 24455 C 2385.23 3.53383 -0.717807 0
M  V30 24456 O 2384.34 4.1174 0.233304 0
M  V30 24457 H 2383.68 0.630834 -0.207231 0
M  V30 24458 H 2386.21 1.65636 -1.20108 0
M  V30 24459 H 2386.22 4.03271 -0.619378 0
M  V30 24460 H 2384.89 3.77622 -1.74282 0
M  V30 24461 H 2383.47 3.72796 0.0880051 0
M  V30 24462 N 2385.65 0.653339 1.4342 0
M  V30 24463 C 2386.88 0.174528 2.06163 0
M  V30 24464 C 2387.3 -1.15987 1.48971 0
M  V30 24465 O 2386.65 -1.71607 0.621072 0
M  V30 24466 C 2386.7 0.0775501 3.61417 0
M  V30 24467 O 2386.43 1.3592 4.16482 0
M  V30 24468 C 2387.93 -0.427324 4.41236 0
M  V30 24469 H 2385.15 0.089947 0.664944 0
M  V30 24470 H 2387.69 0.894021 1.83923 0
M  V30 24471 H 2385.85 -0.592503 3.82842 0
M  V30 24472 H 2386.26 1.21848 5.1015 0
M  V30 24473 H 2387.73 -0.444134 5.5021 0
M  V30 24474 H 2388.21 -1.45865 4.1427 0
M  V30 24475 H 2388.82 0.210242 4.2478 0
M  V30 24476 N 2387.13 -1.52563 0.395266 0
M  V30 24477 C 2388.08 -2.26625 -0.436996 0
M  V30 24478 C 2389.05 -1.28474 -1.05278 0
M  V30 24479 O 2390.23 -1.57313 -1.07968 0
M  V30 24480 C 2387.37 -3.08072 -1.55518 0
M  V30 24481 C 2386.49 -4.2116 -0.961671 0
M  V30 24482 C 2385.62 -4.89991 -2.0514 0
M  V30 24483 C 2384.66 -5.95063 -1.4341 0
M  V30 24484 N 2383.8 -6.57466 -2.46339 0
M  V30 24485 H 2388.64 -2.97321 0.201028 0
M  V30 24486 H 2386.17 -1.46681 0.11097 0
M  V30 24487 H 2388.13 -3.53588 -2.2143 0
M  V30 24488 H 2386.76 -2.39573 -2.16343 0
M  V30 24489 H 2385.81 -3.79915 -0.191981 0
M  V30 24490 H 2387.13 -4.96575 -0.470614 0
M  V30 24491 H 2386.28 -5.38841 -2.7881 0
M  V30 24492 H 2385.02 -4.14113 -2.57607 0
M  V30 24493 H 2384.02 -5.45545 -0.682678 0
M  V30 24494 H 2385.25 -6.72876 -0.917298 0
M  V30 24495 H 2383.2 -5.84426 -2.97964 0
M  V30 24496 H 2383.11 -7.28512 -2.02006 0
M  V30 24497 H 2384.38 -7.10959 -3.1962 0
M  V30 24498 N 2388.61 -0.125265 -1.57101 0
M  V30 24499 C 2389.52 0.836161 -2.19193 0
M  V30 24500 C 2390.54 1.28802 -1.16987 0
M  V30 24501 O 2391.71 1.34972 -1.49481 0
M  V30 24502 C 2388.78 2.06612 -2.78411 0
M  V30 24503 C 2387.84 1.66558 -3.95673 0
M  V30 24504 C 2387.07 2.8369 -4.52057 0
M  V30 24505 O 2387.29 3.99295 -4.07333 0
M  V30 24506 O 2386.23 2.60414 -5.42649 0
M  V30 24507 H 2390.05 0.337723 -3.01816 0
M  V30 24508 H 2387.64 0.100669 -1.4906 0
M  V30 24509 H 2389.52 2.78635 -3.16134 0
M  V30 24510 H 2388.2 2.5545 -1.98814 0
M  V30 24511 H 2387.1 0.916232 -3.62706 0
M  V30 24512 H 2388.44 1.22456 -4.76724 0
M  V30 24513 N 2390.09 1.56899 0.148518 0
M  V30 24514 C 2391.31 1.87789 0.880352 0
M  V30 24515 C 2391.74 0.714124 1.74017 0
M  V30 24516 O 2391.1 -0.336312 1.78153 0
M  V30 24517 C 2391.14 3.17252 1.71416 0
M  V30 24518 O 2390.25 3.01079 2.81824 0
M  V30 24519 H 2389.59 0.617032 0.24529 0
M  V30 24520 H 2392.12 2.04122 0.139791 0
M  V30 24521 H 2392.13 3.49235 2.10948 0
M  V30 24522 H 2390.8 4.01558 1.08277 0
M  V30 24523 H 2389.38 2.80501 2.4571 0
M  V30 24524 N 2391.57 -0.417818 1.51961 0
M  V30 24525 C 2392.81 -1.16408 1.66796 0
M  V30 24526 C 2393.17 -1.88431 0.388791 0
M  V30 24527 O 2392.46 -1.81415 -0.616377 0
M  V30 24528 C 2392.65 -2.19219 2.82273 0
M  V30 24529 C 2392.48 -1.5729 4.21296 0
M  V30 24530 C 2391.25 -1.34936 4.8695 0
M  V30 24531 C 2393.45 -1.03849 5.03706 0
M  V30 24532 N 2391.43 -0.688088 6.10032 0
M  V30 24533 C 2392.8 -0.503633 6.17951 0
M  V30 24534 C 2394.86 -0.932117 4.89097 0
M  V30 24535 C 2393.56 0.12716 7.19188 0
M  V30 24536 C 2395.59 -0.31519 5.90559 0
M  V30 24537 C 2394.95 0.20903 7.0409 0
M  V30 24538 H 2391.05 -0.412947 0.664077 0
M  V30 24539 H 2393.63 -0.457738 1.89243 0
M  V30 24540 H 2391.8 -2.8722 2.61456 0
M  V30 24541 H 2393.54 -2.86144 2.86188 0
M  V30 24542 H 2390.29 -1.61649 4.45159 0
M  V30 24543 H 2390.71 -0.37433 6.75964 0
M  V30 24544 H 2395.36 -1.32325 4.0156 0
M  V30 24545 H 2393.07 0.530373 8.06358 0
M  V30 24546 H 2396.66 -0.234523 5.81327 0
M  V30 24547 H 2395.54 0.678888 7.81256 0
M  V30 24548 N 2393.04 -1.42436 -0.674508 0
M  V30 24549 C 2394.29 -1.43133 -1.43669 0
M  V30 24550 C 2394.62 -0.0476362 -1.94142 0
M  V30 24551 O 2393.9 0.928158 -1.70925 0
M  V30 24552 C 2394.18 -2.45598 -2.63351 0
M  V30 24553 C 2394.03 -3.9316 -2.18507 0
M  V30 24554 C 2395.35 -2.45049 -3.65567 0
M  V30 24555 H 2392.47 -0.521207 -0.521068 0
M  V30 24556 H 2395.11 -1.73852 -0.766521 0
M  V30 24557 H 2393.26 -2.19534 -3.20526 0
M  V30 24558 H 2394.94 -4.30205 -1.66497 0
M  V30 24559 H 2393.18 -4.07012 -1.50079 0
M  V30 24560 H 2393.85 -4.60433 -3.04475 0
M  V30 24561 H 2396.33 -2.68228 -3.18108 0
M  V30 24562 H 2395.2 -3.18721 -4.46887 0
M  V30 24563 H 2395.46 -1.47656 -4.16713 0
M  V30 24564 N 2394.52 0.910841 -1.28614 0
M  V30 24565 C 2395.43 2.04678 -1.14647 0
M  V30 24566 C 2396.45 1.7385 -0.0723427 0
M  V30 24567 O 2397.62 1.99413 -0.282213 0
M  V30 24568 C 2394.69 3.37042 -0.812621 0
M  V30 24569 C 2393.75 3.81461 -1.96941 0
M  V30 24570 C 2392.98 5.07508 -1.6514 0
M  V30 24571 O 2393.21 5.67574 -0.567113 0
M  V30 24572 O 2392.14 5.4771 -2.49594 0
M  V30 24573 H 2395.97 2.19381 -2.10014 0
M  V30 24574 H 2393.55 1.03272 -1.0796 0
M  V30 24575 H 2395.43 4.16504 -0.640515 0
M  V30 24576 H 2394.11 3.23508 0.111369 0
M  V30 24577 H 2393.01 3.02814 -2.19669 0
M  V30 24578 H 2394.35 3.99562 -2.87421 0
M  V30 24579 N 2396 1.10909 1.11969 0
M  V30 24580 C 2396.96 0.765745 2.1603 0
M  V30 24581 C 2397.96 -0.212207 1.59394 0
M  V30 24582 O 2399.15 0.0115747 1.74196 0
M  V30 24583 C 2396.29 0.135113 3.40632 0
M  V30 24584 H 2397.48 1.68753 2.47916 0
M  V30 24585 H 2395.03 0.910249 1.2706 0
M  V30 24586 H 2395.77 -0.797162 3.1435 0
M  V30 24587 H 2395.55 0.839004 3.83018 0
M  V30 24588 H 2397.04 -0.0891735 4.17505 0
M  V30 24589 N 2397.48 -1.29474 0.898573 0
M  V30 24590 C 2398.71 -1.99748 0.539296 0
M  V30 24591 C 2399.12 -1.67264 -0.875687 0
M  V30 24592 O 2398.48 -0.917077 -1.57784 0
M  V30 24593 C 2398.53 -3.54244 0.720673 0
M  V30 24594 O 2398.25 -3.85577 2.07996 0
M  V30 24595 C 2399.75 -4.41785 0.366195 0
M  V30 24596 H 2396.97 -0.638254 0.207058 0
M  V30 24597 H 2399.52 -1.65036 1.20761 0
M  V30 24598 H 2397.67 -3.87272 0.0995543 0
M  V30 24599 H 2398.08 -4.80253 2.10849 0
M  V30 24600 H 2399.56 -5.49313 0.543945 0
M  V30 24601 H 2400.04 -4.33639 -0.696686 0
M  V30 24602 H 2400.64 -4.14226 0.964208 0
M  V30 24603 N 2398.96 -0.660936 -1.43071 0
M  V30 24604 C 2400.37 -0.25638 -1.84931 0
M  V30 24605 C 2400.72 1.19866 -1.55328 0
M  V30 24606 O 2399.84 1.91589 -1.0061 0
M  V30 24607 C 2400.44 -0.458534 -3.35683 0
M  V30 24608 C 2399 -0.108227 -3.76244 0
M  V30 24609 C 2398.14 -0.757688 -2.66748 0
M  V30 24610 H 2401.1 -0.864074 -1.33114 0
M  V30 24611 H 2401.12 0.293617 -3.79365 0
M  V30 24612 H 2400.63 -1.51761 -3.57198 0
M  V30 24613 H 2398.73 0.94795 -3.6034 0
M  V30 24614 H 2398.84 -0.539076 -4.76058 0
M  V30 24615 H 2397.21 -0.190229 -2.53989 0
M  V30 24616 H 2397.99 -1.81995 -2.91089 0
M  V30 24617 N 2400.43 1.52351 -0.403352 0
M  V30 24618 C 2401.85 1.59509 -0.0539561 0
M  V30 24619 C 2402.05 1.41655 1.43304 0
M  V30 24620 O 2401.11 1.24059 2.19922 0
M  V30 24621 C 2402.42 2.95744 -0.543706 0
M  V30 24622 C 2403.97 3.08961 -0.50118 0
M  V30 24623 C 2404.44 4.47668 -0.967345 0
M  V30 24624 N 2405.93 4.53892 -0.923929 0
M  V30 24625 C 2406.67 5.59478 -1.25588 0
M  V30 24626 N 2406.16 6.72643 -1.65901 0
M  V30 24627 N 2407.96 5.49656 -1.17623 0
M  V30 24628 H 2400.11 1.62204 -1.37126 0
M  V30 24629 H 2402.37 0.76275 -0.562953 0
M  V30 24630 H 2402.08 3.14071 -1.5828 0
M  V30 24631 H 2401.95 3.77167 0.0497379 0
M  V30 24632 H 2404.34 2.90322 0.528858 0
M  V30 24633 H 2404.42 2.29458 -1.1306 0
M  V30 24634 H 2404.06 4.67049 -1.99568 0
M  V30 24635 H 2403.99 5.25658 -0.31479 0
M  V30 24636 H 2406.48 3.72654 -0.627469 0
M  V30 24637 H 2406.8 7.49192 -1.89556 0
M  V30 24638 H 2405.14 6.73939 -1.69799 0
M  V30 24639 H 2408.33 4.60129 -0.860196 0
M  V30 24640 H 2408.51 6.31838 -1.43823 0
M  V30 24641 N 2401.91 0.133594 1.57033 0
M  V30 24642 C 2402.84 -0.841906 2.13177 0
M  V30 24643 C 2403.86 -1.22 1.07796 0
M  V30 24644 O 2405.05 -1.1664 1.35119 0
M  V30 24645 C 2402.15 -2.13922 2.62851 0
M  V30 24646 C 2401.32 -1.93057 3.92489 0
M  V30 24647 C 2400.38 -3.06652 4.27611 0
M  V30 24648 O 2399.4 -2.78928 4.96173 0
M  V30 24649 N 2400.61 -4.33476 3.86107 0
M  V30 24650 H 2403.37 -0.36214 2.97504 0
M  V30 24651 H 2400.93 -0.0503915 1.61822 0
M  V30 24652 H 2402.92 -2.88937 2.83368 0
M  V30 24653 H 2401.49 -2.53202 1.83324 0
M  V30 24654 H 2400.71 -1.02152 3.80734 0
M  V30 24655 H 2402 -1.76439 4.77228 0
M  V30 24656 H 2401.4 -4.58872 3.30836 0
M  V30 24657 H 2399.96 -5.05316 4.11703 0
M  V30 24658 N 2403.39 -1.56975 -0.140195 0
M  V30 24659 C 2404.64 -1.83992 -0.852917 0
M  V30 24660 C 2404.97 -0.716218 -1.8051 0
M  V30 24661 O 2404.24 0.279647 -1.92479 0
M  V30 24662 C 2404.53 -3.2153 -1.62144 0
M  V30 24663 C 2404.38 -4.44472 -0.690285 0
M  V30 24664 C 2405.7 -3.5637 -2.58241 0
M  V30 24665 H 2402.82 -0.669269 -0.308622 0
M  V30 24666 H 2405.46 -1.89634 -0.117865 0
M  V30 24667 H 2403.61 -3.16851 -2.24806 0
M  V30 24668 H 2405.28 -4.6124 -0.0741453 0
M  V30 24669 H 2403.53 -4.338 -0.000320181 0
M  V30 24670 H 2404.2 -5.37328 -1.26421 0
M  V30 24671 H 2406.67 -3.61703 -2.05694 0
M  V30 24672 H 2405.55 -4.53623 -3.09059 0
M  V30 24673 H 2405.81 -2.8268 -3.39918 0
M  V30 24674 N 2404.87 0.409753 -1.5218 0
M  V30 24675 C 2406.11 1.15848 -1.66455 0
M  V30 24676 C 2406.45 1.90182 -0.393005 0
M  V30 24677 O 2405.72 1.84735 0.608547 0
M  V30 24678 C 2406.01 2.15344 -2.88616 0
M  V30 24679 C 2405.86 1.44911 -4.25818 0
M  V30 24680 C 2407.18 3.1602 -3.06299 0
M  V30 24681 H 2404.3 0.419794 -0.605757 0
M  V30 24682 H 2406.94 0.444282 -1.84733 0
M  V30 24683 H 2405.09 2.7625 -2.73163 0
M  V30 24684 H 2406.76 0.871285 -4.52997 0
M  V30 24685 H 2405 0.751084 -4.27248 0
M  V30 24686 H 2405.67 2.17507 -5.07341 0
M  V30 24687 H 2408.15 2.6519 -3.20646 0
M  V30 24688 H 2407.03 3.82903 -3.93289 0
M  V30 24689 H 2407.29 3.83711 -2.19586 0
M  V30 24690 N 2406.35 1.42792 0.666944 0
M  V30 24691 C 2407.26 1.49302 1.80959 0
M  V30 24692 C 2408.27 0.381138 1.69774 0
M  V30 24693 O 2409.45 0.633222 1.91186 0
M  V30 24694 C 2406.51 1.40051 3.17154 0
M  V30 24695 C 2405.57 2.61796 3.40237 0
M  V30 24696 C 2404.81 2.52977 4.69934 0
M  V30 24697 O 2405.03 1.56995 5.48369 0
M  V30 24698 O 2403.96 3.43246 4.94435 0
M  V30 24699 H 2407.79 2.45762 1.78423 0
M  V30 24700 H 2405.38 1.24642 0.823691 0
M  V30 24701 H 2407.26 1.37283 3.98411 0
M  V30 24702 H 2405.93 0.467194 3.20311 0
M  V30 24703 H 2404.84 2.70138 2.58798 0
M  V30 24704 H 2406.17 3.54053 3.41917 0
M  V30 24705 N 2407.82 -0.904008 1.29095 0
M  V30 24706 C 2408.75 -2.02416 1.16405 0
M  V30 24707 C 2409.74 -1.69996 0.0593384 0
M  V30 24708 O 2410.92 -1.92735 0.238055 0
M  V30 24709 C 2408.05 -3.37106 0.835292 0
M  V30 24710 C 2407 -3.83721 1.89585 0
M  V30 24711 C 2406.33 -5.15486 1.4205 0
M  V30 24712 C 2407.63 -4.04515 3.30401 0
M  V30 24713 H 2409.32 -2.13291 2.10113 0
M  V30 24714 H 2406.87 -1.02484 1.01159 0
M  V30 24715 H 2408.82 -4.14972 0.733241 0
M  V30 24716 H 2407.55 -3.2631 -0.137486 0
M  V30 24717 H 2406.21 -3.08068 1.98721 0
M  V30 24718 H 2405.85 -5.01102 0.436514 0
M  V30 24719 H 2405.55 -5.47646 2.12974 0
M  V30 24720 H 2407.08 -5.95897 1.33186 0
M  V30 24721 H 2408.49 -4.72876 3.24131 0
M  V30 24722 H 2406.89 -4.48022 3.99245 0
M  V30 24723 H 2407.96 -3.08995 3.73698 0
M  V30 24724 N 2409.3 -1.11501 -1.11379 0
M  V30 24725 C 2410.53 -0.887052 -1.87473 0
M  V30 24726 C 2410.95 0.557764 -1.7964 0
M  V30 24727 O 2410.31 1.39394 -1.15927 0
M  V30 24728 C 2410.36 -1.35409 -3.34211 0
M  V30 24729 O 2409.46 -0.526218 -4.09029 0
M  V30 24730 H 2408.8 -0.319473 -0.582094 0
M  V30 24731 H 2411.33 -1.48464 -1.40782 0
M  V30 24732 H 2411.34 -1.34888 -3.85057 0
M  V30 24733 H 2410.02 -2.40618 -3.39228 0
M  V30 24734 H 2408.6 -0.597587 -3.68081 0
M  V30 24735 N 2410.78 1.28995 -0.905426 0
M  V30 24736 C 2412.03 1.94939 -0.533227 0
M  V30 24737 C 2412.35 1.71687 0.924588 0
M  V30 24738 O 2411.62 1.05186 1.65266 0
M  V30 24739 H 2410.2 0.721313 -0.194207 0
M  V30 24740 H 2412.86 1.57139 -1.15297 0
M  V30 24741 H 2411.96 3.03666 -0.720644 0
M  V30 24742 N 2412.26 0.668514 1.42719 0
M  V30 24743 C 2413.48 0.194794 2.06483 0
M  V30 24744 C 2413.91 -1.13677 1.49864 0
M  V30 24745 O 2413.27 -1.70564 0.614612 0
M  V30 24746 C 2413.32 0.133609 3.60352 0
M  V30 24747 O 2412.42 -0.899736 4.02466 0
M  V30 24748 H 2411.76 0.101892 0.656136 0
M  V30 24749 H 2414.29 0.915754 1.82962 0
M  V30 24750 H 2414.3 -0.0446324 4.07976 0
M  V30 24751 H 2412.98 1.10557 4.00936 0
M  V30 24752 H 2411.55 -0.693044 3.66403 0
M  V30 24753 N 2413.74 -1.52135 0.411426 0
M  V30 24754 C 2414.96 -2.06739 -0.165502 0
M  V30 24755 C 2415.39 -1.27929 -1.37898 0
M  V30 24756 O 2414.75 -0.310146 -1.78628 0
M  V30 24757 C 2414.79 -3.57227 -0.492061 0
M  V30 24758 O 2413.9 -3.80821 -1.5827 0
M  V30 24759 H 2413.24 -0.663869 -0.0132016 0
M  V30 24760 H 2415.77 -1.9605 0.585287 0
M  V30 24761 H 2415.78 -4.01047 -0.750033 0
M  V30 24762 H 2414.45 -4.1402 0.394995 0
M  V30 24763 H 2413.03 -3.4888 -1.31671 0
M  V30 24764 N 2415.22 -0.14192 -1.5696 0
M  V30 24765 C 2416.44 0.520802 -2.00755 0
M  V30 24766 C 2416.87 1.57957 -1.02133 0
M  V30 24767 O 2416.22 1.813 0.00368137 0
M  V30 24768 C 2416.27 1.10288 -3.4332 0
M  V30 24769 O 2415.38 2.21789 -3.47683 0
M  V30 24770 H 2414.72 0.127897 -0.651566 0
M  V30 24771 H 2417.25 -0.237156 -2.03221 0
M  V30 24772 H 2417.26 1.4328 -3.82014 0
M  V30 24773 H 2415.93 0.327502 -4.14609 0
M  V30 24774 H 2414.51 1.90064 -3.20827 0
M  V30 24775 N 2416.69 1.57047 0.131868 0
M  V30 24776 C 2417.94 1.83358 0.840408 0
M  V30 24777 C 2418.26 0.725567 1.81645 0
M  V30 24778 O 2419.46 0.874704 2.57024 0
M  V30 24779 C 2417.92 3.2504 1.54522 0
M  V30 24780 C 2417.53 4.43816 0.610823 0
M  V30 24781 C 2419.27 3.6061 2.23965 0
M  V30 24782 C 2417.18 5.76523 1.31813 0
M  V30 24783 H 2416.11 0.683853 0.317587 0
M  V30 24784 H 2418.76 1.83264 0.0931239 0
M  V30 24785 H 2417.14 3.19565 2.33867 0
M  V30 24786 H 2418.31 4.60561 -0.148488 0
M  V30 24787 H 2416.63 4.16393 0.0240284 0
M  V30 24788 H 2419.23 4.57023 2.7755 0
M  V30 24789 H 2419.57 2.87409 3.01168 0
M  V30 24790 H 2420.1 3.67812 1.51522 0
M  V30 24791 H 2416.84 6.52861 0.587656 0
M  V30 24792 H 2416.36 5.63688 2.04977 0
M  V30 24793 H 2418.04 6.19841 1.85489 0
M  V30 24794 N 2418.17 -0.401677 1.52395 0
M  V30 24795 C 2419.58 -0.980174 1.58901 0
M  V30 24796 C 2419.93 -1.91338 0.434066 0
M  V30 24797 O 2419.06 -2.11784 -0.444582 0
M  V30 24798 C 2419.65 -1.78446 2.87997 0
M  V30 24799 C 2418.21 -2.31287 2.96957 0
M  V30 24800 C 2417.36 -1.11478 2.53905 0
M  V30 24801 H 2420.31 -0.181652 1.57657 0
M  V30 24802 H 2420.33 -2.64254 2.7377 0
M  V30 24803 H 2419.84 -1.105 3.72037 0
M  V30 24804 H 2417.94 -3.02582 2.17427 0
M  V30 24805 H 2418.06 -2.61642 4.01348 0
M  V30 24806 H 2416.42 -1.471 2.07927 0
M  V30 24807 H 2417.2 -0.450869 3.40326 0
M  V30 24808 N 2419.65 -1.43144 -0.659362 0
M  V30 24809 C 2420.9 -1.43723 -1.41515 0
M  V30 24810 C 2421.21 -0.062852 -1.95499 0
M  V30 24811 O 2422.42 0.0539206 -2.71446 0
M  V30 24812 C 2420.87 -2.5289 -2.56076 0
M  V30 24813 C 2420.48 -3.96406 -2.08726 0
M  V30 24814 C 2422.23 -2.62655 -3.33485 0
M  V30 24815 C 2420.13 -4.9705 -3.20461 0
M  V30 24816 H 2419.06 -0.534618 -0.531696 0
M  V30 24817 H 2421.71 -1.6911 -0.712314 0
M  V30 24818 H 2420.1 -2.20693 -3.28801 0
M  V30 24819 H 2421.27 -4.38033 -1.43052 0
M  V30 24820 H 2419.58 -3.9063 -1.44212 0
M  V30 24821 H 2422.18 -3.35025 -4.16729 0
M  V30 24822 H 2422.52 -1.6752 -3.81107 0
M  V30 24823 H 2423.06 -2.94123 -2.67837 0
M  V30 24824 H 2419.8 -5.93717 -2.77814 0
M  V30 24825 H 2419.32 -4.60041 -3.84866 0
M  V30 24826 H 2421 -5.19474 -3.85689 0
M  V30 24827 N 2421.13 0.897149 -1.29572 0
M  V30 24828 C 2422.36 1.68127 -1.20585 0
M  V30 24829 C 2422.77 1.87355 0.233148 0
M  V30 24830 O 2422.13 1.41238 1.15577 0
M  V30 24831 C 2422.18 3.06437 -1.91777 0
M  V30 24832 O 2421.9 2.88086 -3.30058 0
M  V30 24833 C 2423.4 4.00851 -1.89298 0
M  V30 24834 H 2420.62 0.525029 -0.417835 0
M  V30 24835 H 2423.16 1.12174 -1.70989 0
M  V30 24836 H 2421.32 3.59159 -1.45202 0
M  V30 24837 H 2421.73 3.75742 -3.65948 0
M  V30 24838 H 2423.21 4.95306 -2.43671 0
M  V30 24839 H 2423.68 4.30515 -0.869089 0
M  V30 24840 H 2424.29 3.54061 -2.35628 0
M  V30 24841 N 2422.61 1.1209 1.10786 0
M  V30 24842 C 2423.52 0.798377 2.20597 0
M  V30 24843 C 2424.53 -0.21132 1.72712 0
M  V30 24844 O 2425.71 -0.0458123 2.01348 0
M  V30 24845 C 2422.77 0.253734 3.4577 0
M  V30 24846 C 2421.83 1.3229 4.08409 0
M  V30 24847 C 2421.07 0.804153 5.27607 0
M  V30 24848 O 2421.29 -0.363378 5.69241 0
M  V30 24849 O 2420.22 1.57208 5.81007 0
M  V30 24850 H 2424.05 1.71545 2.50611 0
M  V30 24851 H 2421.63 0.897296 1.19453 0
M  V30 24852 H 2423.52 -0.045295 4.21376 0
M  V30 24853 H 2422.19 -0.635949 3.17392 0
M  V30 24854 H 2421.1 1.67505 3.34504 0
M  V30 24855 H 2422.43 2.18622 4.40982 0
M  V30 24856 N 2424.08 -1.28513 0.912254 0
M  V30 24857 C 2425.33 -1.94653 0.543557 0
M  V30 24858 C 2425.65 -1.72175 -0.91547 0
M  V30 24859 O 2424.92 -1.06061 -1.64706 0
M  V30 24860 H 2423.5 -0.720273 0.19803 0
M  V30 24861 H 2426.16 -1.56525 1.16129 0
M  V30 24862 H 2425.26 -3.0328 0.736738 0
M  V30 24863 N 2425.56 -0.676073 -1.42362 0
M  V30 24864 C 2426.79 -0.205741 -2.06377 0
M  V30 24865 C 2427.21 1.1288 -1.50465 0
M  V30 24866 O 2426.57 1.70236 -0.623649 0
M  V30 24867 C 2426.62 -0.152718 -3.60276 0
M  V30 24868 O 2425.72 0.878379 -4.02937 0
M  V30 24869 H 2425.06 -0.10537 -0.655586 0
M  V30 24870 H 2427.59 -0.925445 -1.82474 0
M  V30 24871 H 2427.6 0.0229958 -4.07994 0
M  V30 24872 H 2426.28 -1.12682 -4.00344 0
M  V30 24873 H 2424.86 0.673603 -3.66766 0
M  V30 24874 N 2427.04 1.51915 -0.419488 0
M  V30 24875 C 2428.29 2.01523 0.152602 0
M  V30 24876 C 2428.61 1.30651 1.44759 0
M  V30 24877 O 2427.88 0.435569 1.90996 0
M  V30 24878 H 2426.46 0.744636 0.0593835 0
M  V30 24879 H 2429.12 1.86738 -0.558105 0
M  V30 24880 H 2428.22 3.10228 0.341315 0
M  V30 24881 N 2428.52 0.150242 1.56882 0
M  V30 24882 C 2429.43 -0.801184 2.20495 0
M  V30 24883 C 2430.44 -1.26925 1.19021 0
M  V30 24884 O 2431.62 -1.32576 1.5161 0
M  V30 24885 C 2428.69 -2.02156 2.81662 0
M  V30 24886 C 2427.75 -1.60242 3.98273 0
M  V30 24887 C 2426.98 -2.76462 4.56513 0
M  V30 24888 O 2427.2 -3.92764 4.13634 0
M  V30 24889 O 2426.14 -2.51748 5.46724 0
M  V30 24890 H 2429.96 -0.289664 3.02315 0
M  V30 24891 H 2427.55 -0.0769422 1.49202 0
M  V30 24892 H 2429.43 -2.7357 3.20527 0
M  V30 24893 H 2428.1 -2.52254 2.02853 0
M  V30 24894 H 2427.01 -0.858413 3.64118 0
M  V30 24895 H 2428.34 -1.14856 4.78611 0
M  V30 24896 N 2430 -1.57115 -0.123538 0
M  V30 24897 C 2430.96 -1.99078 -1.1358 0
M  V30 24898 C 2431.96 -0.88032 -1.34562 0
M  V30 24899 O 2433.15 -1.14646 -1.31156 0
M  V30 24900 C 2430.28 -2.32702 -2.49124 0
M  V30 24901 H 2431.47 -2.89707 -0.775236 0
M  V30 24902 H 2429.03 -1.51914 -0.367683 0
M  V30 24903 H 2429.76 -1.44939 -2.90109 0
M  V30 24904 H 2429.55 -3.13688 -2.35249 0
M  V30 24905 H 2431.04 -2.65924 -3.21985 0
M  V30 24906 N 2431.47 0.393589 -1.52606 0
M  V30 24907 C 2432.38 1.50489 -1.79973 0
M  V30 24908 C 2433.4 1.59897 -0.686209 0
M  V30 24909 O 2434.58 1.7632 -0.973305 0
M  V30 24910 C 2431.64 2.86068 -1.95872 0
M  V30 24911 C 2430.7 2.86419 -3.19786 0
M  V30 24912 C 2429.94 4.15532 -3.34916 0
M  V30 24913 O 2430.16 5.10248 -2.54957 0
M  V30 24914 O 2429.09 4.23052 -4.28148 0
M  V30 24915 H 2432.92 1.30294 -2.7433 0
M  V30 24916 H 2430.5 0.58098 -1.37641 0
M  V30 24917 H 2432.39 3.66453 -2.08062 0
M  V30 24918 H 2431.06 3.06298 -1.04704 0
M  V30 24919 H 2429.97 2.04831 -3.13041 0
M  V30 24920 H 2431.3 2.7114 -4.10784 0
M  V30 24921 N 2432.95 1.43492 0.651762 0
M  V30 24922 C 2433.86 1.51213 1.79365 0
M  V30 24923 C 2434.88 0.399123 1.69361 0
M  V30 24924 O 2436.05 0.653464 1.90504 0
M  V30 24925 C 2433.12 1.43407 3.15651 0
M  V30 24926 C 2432.18 2.6539 3.37441 0
M  V30 24927 C 2431.41 2.57947 4.67225 0
M  V30 24928 O 2431.64 1.62802 5.46673 0
M  V30 24929 O 2430.57 3.48471 4.90767 0
M  V30 24930 H 2434.4 2.47641 1.75806 0
M  V30 24931 H 2431.98 1.25509 0.810425 0
M  V30 24932 H 2433.86 1.41501 3.96932 0
M  V30 24933 H 2432.54 0.501141 3.19797 0
M  V30 24934 H 2431.45 2.72868 2.55918 0
M  V30 24935 H 2432.78 3.5766 3.38142 0
M  V30 24936 N 2434.43 -0.890264 1.30046 0
M  V30 24937 C 2435.71 -1.6226 1.0923 0
M  V30 24938 C 2436.09 -2.08003 -0.360268 0
M  V30 24939 O 2435.44 -1.84297 -1.35081 0
M  V30 24940 C 2435.65 -2.79619 2.0884 0
M  V30 24941 C 2436.99 -3.50078 2.40272 0
M  V30 24942 O 2438.02 -2.898 2.07109 0
M  V30 24943 O 2436.88 -4.58768 2.96975 0
M  V30 24944 H 2433.97 -0.712914 0.419145 0
M  V30 24945 H 2436.52 -0.937504 1.41453 0
M  V30 24946 H 2435.29 -2.43083 3.06637 0
M  V30 24947 H 2434.91 -3.55828 1.77403 0
M  V30 24948 N 2435.91 -1.12676 -1.1019 0
M  V30 24949 C 2436.82 -0.810065 -2.20171 0
M  V30 24950 C 2437.83 0.202158 -1.72822 0
M  V30 24951 O 2439.01 0.0351337 -2.01369 0
M  V30 24952 C 2436.08 -0.272068 -3.45631 0
M  V30 24953 C 2435.14 -1.34454 -4.07702 0
M  V30 24954 C 2434.37 -0.832122 -5.27173 0
M  V30 24955 O 2434.59 0.333184 -5.69426 0
M  V30 24956 O 2433.53 -1.60287 -5.80165 0
M  V30 24957 H 2437.35 -1.72871 -2.49698 0
M  V30 24958 H 2434.94 -0.903618 -1.18975 0
M  V30 24959 H 2436.82 0.0229478 -4.21394 0
M  V30 24960 H 2435.49 0.619108 -3.17724 0
M  V30 24961 H 2434.4 -1.69276 -3.33611 0
M  V30 24962 H 2435.73 -2.20958 -4.39817 0
M  V30 24963 N 2437.39 1.28028 -0.919057 0
M  V30 24964 C 2438.66 1.89777 -0.473701 0
M  V30 24965 C 2439.04 1.83261 1.0478 0
M  V30 24966 O 2438.39 1.27206 1.89818 0
M  V30 24967 C 2438.6 3.34065 -1.01004 0
M  V30 24968 C 2439.95 4.11018 -1.06532 0
M  V30 24969 O 2440.97 3.43046 -0.959056 0
M  V30 24970 O 2439.83 5.32528 -1.22786 0
M  V30 24971 H 2436.93 0.813099 -0.150994 0
M  V30 24972 H 2439.47 1.36357 -1.01019 0
M  V30 24973 H 2438.24 3.33058 -2.05398 0
M  V30 24974 H 2437.87 3.94991 -0.454695 0
M  V30 24975 N 2438.86 0.683613 1.42002 0
M  V30 24976 C 2440.09 0.218218 2.05746 0
M  V30 24977 C 2440.51 -1.12801 1.51398 0
M  V30 24978 O 2439.86 -1.70251 0.657333 0
M  V30 24979 C 2439.92 0.154194 3.61171 0
M  V30 24980 O 2439.64 1.44723 4.13505 0
M  V30 24981 C 2441.14 -0.333635 4.42043 0
M  V30 24982 H 2438.36 0.104031 0.662886 0
M  V30 24983 H 2440.9 0.932832 1.81985 0
M  V30 24984 H 2439.06 -0.511163 3.84013 0
M  V30 24985 H 2439.47 1.32641 5.07451 0
M  V30 24986 H 2440.94 -0.327326 5.51029 0
M  V30 24987 H 2441.42 -1.37045 4.17271 0
M  V30 24988 H 2442.03 0.300297 4.24239 0
M  V30 24989 N 2440.34 -1.5169 0.427538 0
M  V30 24990 C 2441.28 -2.24038 -0.433837 0
M  V30 24991 C 2442.25 -1.25583 -1.03285 0
M  V30 24992 O 2443.44 -1.5469 -1.07719 0
M  V30 24993 C 2440.57 -2.98322 -1.60379 0
M  V30 24994 C 2439.61 -4.11357 -1.12641 0
M  V30 24995 S 2440.44 -5.35445 -0.0764489 0
M  V30 24996 C 2441.6 -6.13264 -1.2513 0
M  V30 24997 H 2441.83 -2.96752 0.18042 0
M  V30 24998 H 2439.37 -1.52938 0.211973 0
M  V30 24999 H 2441.32 -3.41722 -2.27456 0
M  V30 25000 H 2439.99 -2.25216 -2.18944 0
M  V30 25001 H 2439.18 -4.62574 -2.00102 0
M  V30 25002 H 2438.78 -3.70168 -0.534023 0
M  V30 25003 H 2441.07 -6.41757 -2.17151 0
M  V30 25004 H 2442.02 -7.03799 -0.779287 0
M  V30 25005 H 2442.42 -5.44606 -1.48543 0
M  V30 25006 N 2441.82 -0.15856 -1.568 0
M  V30 25007 C 2443.07 0.489645 -1.96491 0
M  V30 25008 C 2443.4 1.64108 -1.04397 0
M  V30 25009 O 2442.65 1.95554 -0.0754745 0
M  V30 25010 C 2442.95 1.02617 -3.42351 0
M  V30 25011 C 2442.62 -0.00802452 -4.50899 0
M  V30 25012 C 2441.28 -0.292292 -4.80311 0
M  V30 25013 C 2443.63 -0.710675 -5.16332 0
M  V30 25014 C 2440.96 -1.28482 -5.72459 0
M  V30 25015 C 2443.31 -1.6921 -6.0955 0
M  V30 25016 C 2441.97 -1.98394 -6.37335 0
M  V30 25017 H 2441.24 0.179174 -0.719012 0
M  V30 25018 H 2443.89 -0.247831 -1.8989 0
M  V30 25019 H 2442.2 1.84122 -3.45842 0
M  V30 25020 H 2443.89 1.53649 -3.70396 0
M  V30 25021 H 2440.48 0.223715 -4.28016 0
M  V30 25022 H 2444.67 -0.504261 -4.93732 0
M  V30 25023 H 2439.92 -1.51725 -5.92275 0
M  V30 25024 H 2444.1 -2.242 -6.59323 0
M  V30 25025 H 2441.72 -2.75453 -7.08541 0
M  V30 25026 N 2443.3 1.57178 0.115204 0
M  V30 25027 C 2444.53 1.8924 0.836403 0
M  V30 25028 C 2444.94 0.750206 1.73255 0
M  V30 25029 O 2444.3 -0.2788 1.80358 0
M  V30 25030 C 2444.35 3.20788 1.66665 0
M  V30 25031 O 2444.07 4.30611 0.806576 0
M  V30 25032 C 2445.57 3.6658 2.49267 0
M  V30 25033 H 2442.79 0.626518 0.240242 0
M  V30 25034 H 2445.34 2.04263 0.0984573 0
M  V30 25035 H 2443.49 3.07424 2.35731 0
M  V30 25036 H 2443.91 5.06031 1.37961 0
M  V30 25037 H 2445.38 4.61375 3.03046 0
M  V30 25038 H 2445.86 2.93423 3.26802 0
M  V30 25039 H 2446.46 3.82745 1.85436 0
M  V30 25040 N 2444.78 -0.38549 1.52813 0
M  V30 25041 C 2445.71 -1.49286 1.72595 0
M  V30 25042 C 2446.69 -1.52137 0.573846 0
M  V30 25043 O 2447.87 -1.7049 0.80407 0
M  V30 25044 C 2445 -2.87738 1.78674 0
M  V30 25045 C 2444.05 -3.02698 3.0046 0
M  V30 25046 S 2444.88 -2.7353 4.60371 0
M  V30 25047 C 2446.03 -4.14169 4.6927 0
M  V30 25048 H 2446.27 -1.32281 2.6625 0
M  V30 25049 H 2443.8 -0.578586 1.43149 0
M  V30 25050 H 2445.76 -3.67521 1.82862 0
M  V30 25051 H 2444.42 -3.02067 0.861054 0
M  V30 25052 H 2443.61 -4.04049 3.01265 0
M  V30 25053 H 2443.21 -2.30812 2.94282 0
M  V30 25054 H 2445.51 -5.08145 4.48101 0
M  V30 25055 H 2446.45 -4.18378 5.71284 0
M  V30 25056 H 2446.86 -4.00242 3.98079 0
M  V30 25057 N 2446.26 -1.43835 -0.644143 0
M  V30 25058 C 2447.5 -1.46149 -1.406 0
M  V30 25059 C 2447.83 -0.0888058 -1.93997 0
M  V30 25060 O 2447.11 0.891693 -1.72856 0
M  V30 25061 C 2447.39 -2.51129 -2.58082 0
M  V30 25062 C 2447.25 -3.97706 -2.10119 0
M  V30 25063 C 2448.56 -2.52748 -3.60287 0
M  V30 25064 H 2445.68 -0.532143 -0.509895 0
M  V30 25065 H 2448.33 -1.75439 -0.729472 0
M  V30 25066 H 2446.48 -2.26284 -3.15797 0
M  V30 25067 H 2448.15 -4.3364 -1.57334 0
M  V30 25068 H 2446.39 -4.10104 -1.41411 0
M  V30 25069 H 2447.06 -4.66788 -2.9464 0
M  V30 25070 H 2449.54 -2.74915 -3.12347 0
M  V30 25071 H 2448.41 -3.28128 -4.40026 0
M  V30 25072 H 2448.67 -1.56462 -4.13488 0
M  V30 25073 N 2447.73 0.883355 -1.30517 0
M  V30 25074 C 2448.96 1.66839 -1.22362 0
M  V30 25075 C 2449.38 1.87592 0.213263 0
M  V30 25076 O 2448.73 1.42456 1.14072 0
M  V30 25077 C 2448.78 3.04386 -1.95017 0
M  V30 25078 O 2448.51 2.84569 -3.33095 0
M  V30 25079 C 2450.01 3.9882 -1.93539 0
M  V30 25080 H 2447.23 0.520567 -0.42338 0
M  V30 25081 H 2449.77 1.10354 -1.72169 0
M  V30 25082 H 2447.93 3.57598 -1.49004 0
M  V30 25083 H 2448.34 3.71839 -3.69913 0
M  V30 25084 H 2449.81 4.92694 -2.48911 0
M  V30 25085 H 2450.29 4.29569 -0.914702 0
M  V30 25086 H 2450.9 3.51542 -2.3937 0
M  V30 25087 N 2449.21 1.13259 1.09591 0
M  V30 25088 C 2450.49 0.804463 1.78291 0
M  V30 25089 C 2450.87 -0.704275 1.99005 0
M  V30 25090 O 2450.22 -1.64098 1.5901 0
M  V30 25091 C 2450.43 1.58946 3.10704 0
M  V30 25092 C 2451.77 1.78106 3.85439 0
M  V30 25093 O 2452.8 1.5553 3.20451 0
M  V30 25094 O 2451.66 2.15762 5.02105 0
M  V30 25095 H 2448.75 0.293541 0.773151 0
M  V30 25096 H 2451.3 1.23711 1.16162 0
M  V30 25097 H 2450.07 2.61487 2.91101 0
M  V30 25098 H 2449.69 1.15164 3.80556 0
M  V30 25099 N 2450.69 -1.27539 0.925834 0
M  V30 25100 C 2451.62 -2.29302 0.440788 0
M  V30 25101 C 2452.6 -1.62649 -0.497942 0
M  V30 25102 O 2453.79 -1.89971 -0.403093 0
M  V30 25103 C 2450.92 -3.45923 -0.308987 0
M  V30 25104 C 2449.87 -4.24558 0.541735 0
M  V30 25105 C 2449.2 -5.33636 -0.337097 0
M  V30 25106 C 2450.5 -4.9011 1.80524 0
M  V30 25107 H 2452.19 -2.70124 1.29126 0
M  V30 25108 H 2449.74 -1.29857 0.622346 0
M  V30 25109 H 2451.69 -4.16211 -0.659242 0
M  V30 25110 H 2450.41 -3.04013 -1.19347 0
M  V30 25111 H 2449.07 -3.56013 0.874672 0
M  V30 25112 H 2448.72 -4.87969 -1.22048 0
M  V30 25113 H 2448.42 -5.87155 0.228601 0
M  V30 25114 H 2449.94 -6.06768 -0.682965 0
M  V30 25115 H 2451.36 -5.52696 1.52317 0
M  V30 25116 H 2449.75 -5.53679 2.3143 0
M  V30 25117 H 2450.82 -4.13917 2.52588 0
M  V30 25118 N 2452.17 -0.691135 -1.41637 0
M  V30 25119 C 2453.39 -0.227619 -2.06147 0
M  V30 25120 C 2453.82 1.11278 -1.51654 0
M  V30 25121 O 2453.18 1.69565 -0.64167 0
M  V30 25122 C 2453.22 -0.190922 -3.60094 0
M  V30 25123 O 2452.33 0.835593 -4.03846 0
M  V30 25124 H 2451.67 -0.112318 -0.654432 0
M  V30 25125 H 2454.2 -0.944746 -1.81482 0
M  V30 25126 H 2454.21 -0.0202787 -4.07995 0
M  V30 25127 H 2452.88 -1.16922 -3.99127 0
M  V30 25128 H 2451.46 0.634665 -3.67459 0
M  V30 25129 N 2453.65 1.51461 -0.435577 0
M  V30 25130 C 2454.58 2.25457 0.412531 0
M  V30 25131 C 2455.59 1.29408 0.987799 0
M  V30 25132 O 2456.78 1.55173 0.882239 0
M  V30 25133 C 2453.88 2.99345 1.58889 0
M  V30 25134 C 2453.05 4.22476 1.13281 0
M  V30 25135 C 2452.11 4.78959 2.17909 0
M  V30 25136 O 2451.14 5.40844 1.77415 0
M  V30 25137 N 2452.34 4.62838 3.50373 0
M  V30 25138 H 2455.1 2.98879 -0.221655 0
M  V30 25139 H 2452.67 1.59727 -0.26437 0
M  V30 25140 H 2454.66 3.34019 2.28502 0
M  V30 25141 H 2453.23 2.28945 2.12845 0
M  V30 25142 H 2452.45 3.93316 0.263812 0
M  V30 25143 H 2453.74 5.02384 0.805454 0
M  V30 25144 H 2453.13 4.13541 3.86006 0
M  V30 25145 H 2451.69 5.01878 4.15886 0
M  V30 25146 N 2455.12 0.166873 1.56714 0
M  V30 25147 C 2456.54 -0.189345 1.58473 0
M  V30 25148 C 2456.74 -1.63187 1.18204 0
M  V30 25149 O 2455.8 -2.36236 0.89157 0
M  V30 25150 C 2457.11 0.0874401 3.00573 0
M  V30 25151 C 2458.66 0.0252993 3.1299 0
M  V30 25152 C 2459.13 0.275014 4.57174 0
M  V30 25153 N 2460.62 0.222634 4.62665 0
M  V30 25154 C 2461.36 0.390086 5.72072 0
M  V30 25155 N 2460.85 0.616351 6.90053 0
M  V30 25156 N 2462.65 0.326301 5.61152 0
M  V30 25157 H 2454.8 1.10853 1.81178 0
M  V30 25158 H 2457.06 0.440357 0.839518 0
M  V30 25159 H 2456.77 1.08656 3.34495 0
M  V30 25160 H 2456.64 -0.622972 3.7202 0
M  V30 25161 H 2459.03 -0.964391 2.78897 0
M  V30 25162 H 2459.11 0.768352 2.43988 0
M  V30 25163 H 2458.75 1.26189 4.91974 0
M  V30 25164 H 2458.68 -0.488597 5.24328 0
M  V30 25165 H 2461.17 0.0532177 3.77863 0
M  V30 25166 H 2461.49 0.733694 7.69309 0
M  V30 25167 H 2459.83 0.652912 6.91926 0
M  V30 25168 H 2463.02 0.150154 4.67859 0
M  V30 25169 H 2463.2 0.46023 6.46364 0
M  V30 25170 N 2456.6 -1.57237 -0.106866 0
M  V30 25171 C 2457.55 -2.02217 -1.1494 0
M  V30 25172 C 2458.54 -0.921165 -1.42165 0
M  V30 25173 O 2459.75 -1.10636 -1.41985 0
M  V30 25174 H 2456.13 -0.644276 -0.38783 0
M  V30 25175 H 2458.1 -2.88986 -0.743632 0
M  V30 25176 C 2456.85 -2.45255 -2.46466 0
M  V30 25177 H 2456.17 -3.29549 -2.26358 0
M  V30 25178 H 2457.61 -2.80514 -3.17944 0
M  V30 25179 C 2456.07 -1.32105 -3.09919 0
M  V30 25180 O 2456.6 -0.643691 -3.96509 0
M  V30 25181 N 2454.8 -1.07502 -2.69985 0
M  V30 25182 H 2454.35 -1.62764 -1.99664 0
M  V30 25183 H 2454.31 -0.319931 -3.12768 0
M  V30 25184 N 2458.08 0.377381 -1.53015 0
M  V30 25185 C 2459.31 1.14216 -1.72517 0
M  V30 25186 C 2459.72 1.83389 -0.448768 0
M  V30 25187 O 2459.08 1.7312 0.577562 0
M  V30 25188 C 2459.13 2.18143 -2.88264 0
M  V30 25189 O 2458.85 1.51788 -4.10965 0
M  V30 25190 C 2460.35 3.07259 -3.19542 0
M  V30 25191 H 2457.57 0.34199 -0.577307 0
M  V30 25192 H 2460.12 0.4399 -1.99713 0
M  V30 25193 H 2458.27 2.83986 -2.63497 0
M  V30 25194 H 2458.69 2.20937 -4.75697 0
M  V30 25195 H 2460.16 3.76186 -4.03966 0
M  V30 25196 H 2460.64 3.71415 -2.34409 0
M  V30 25197 H 2461.24 2.47047 -3.46191 0
M  V30 25198 N 2459.56 1.44175 0.636506 0
M  V30 25199 C 2460.79 1.50147 1.4235 0
M  V30 25200 C 2461.2 0.124608 1.88388 0
M  V30 25201 O 2460.56 -0.868461 1.60512 0
M  V30 25202 C 2460.61 2.46161 2.6474 0
M  V30 25203 O 2460.33 3.78494 2.20622 0
M  V30 25204 C 2461.83 2.61543 3.57925 0
M  V30 25205 H 2459.05 0.509408 0.436743 0
M  V30 25206 H 2461.6 1.89086 0.7789 0
M  V30 25207 H 2459.75 2.10372 3.25303 0
M  V30 25208 H 2460.16 4.30281 2.99931 0
M  V30 25209 H 2461.64 3.32764 4.40422 0
M  V30 25210 H 2462.12 1.66592 4.06379 0
M  V30 25211 H 2462.72 2.98211 3.03233 0
M  V30 25212 N 2461.04 -0.876421 1.30983 0
M  V30 25213 C 2462.31 -1.61092 1.10945 0
M  V30 25214 C 2462.69 -2.08373 -0.338187 0
M  V30 25215 O 2462.04 -1.85719 -1.33119 0
M  V30 25216 C 2462.25 -2.77388 2.11794 0
M  V30 25217 C 2463.6 -3.4751 2.43971 0
M  V30 25218 O 2464.62 -2.87587 2.10171 0
M  V30 25219 O 2463.48 -4.55592 3.01825 0
M  V30 25220 H 2460.58 -0.708429 0.426682 0
M  V30 25221 H 2463.12 -0.922449 1.42439 0
M  V30 25222 H 2461.89 -2.39817 3.09198 0
M  V30 25223 H 2461.52 -3.53927 1.81167 0
M  V30 25224 N 2462.51 -1.13839 -1.08989 0
M  V30 25225 C 2463.74 -0.926235 -1.85009 0
M  V30 25226 C 2464.16 0.525096 -1.81351 0
M  V30 25227 O 2463.51 1.36364 -1.21289 0
M  V30 25228 C 2463.57 -1.41161 -3.328 0
M  V30 25229 O 2463.29 -2.80607 -3.36439 0
M  V30 25230 C 2464.79 -1.23855 -4.25647 0
M  V30 25231 H 2462.01 -0.330001 -0.584244 0
M  V30 25232 H 2464.55 -1.51205 -1.37686 0
M  V30 25233 H 2462.71 -0.868697 -3.77535 0
M  V30 25234 H 2463.12 -3.02255 -4.28651 0
M  V30 25235 H 2464.59 -1.62685 -5.27482 0
M  V30 25236 H 2465.07 -0.180728 -4.38828 0
M  V30 25237 H 2465.68 -1.76971 -3.86732 0
M  V30 25238 N 2463.99 1.27046 -0.932584 0
M  V30 25239 C 2464.92 2.29065 -0.452942 0
M  V30 25240 C 2465.9 1.6291 0.48931 0
M  V30 25241 O 2467.09 1.90182 0.393013 0
M  V30 25242 C 2464.22 3.46082 0.290637 0
M  V30 25243 C 2463.17 4.24264 -0.564242 0
M  V30 25244 C 2462.5 5.33808 0.308793 0
M  V30 25245 C 2463.8 4.89146 -1.83121 0
M  V30 25246 H 2465.49 2.69435 -1.30557 0
M  V30 25247 H 2463.04 1.29525 -0.629224 0
M  V30 25248 H 2464.99 4.16555 0.63716 0
M  V30 25249 H 2463.72 3.04642 1.17733 0
M  V30 25250 H 2462.37 3.55544 -0.89354 0
M  V30 25251 H 2462.02 4.88609 1.19458 0
M  V30 25252 H 2461.72 5.87026 -0.259736 0
M  V30 25253 H 2463.25 6.07122 0.650777 0
M  V30 25254 H 2464.66 5.5188 -1.55246 0
M  V30 25255 H 2463.06 5.52444 -2.34363 0
M  V30 25256 H 2464.13 4.12572 -2.5478 0
M  V30 25257 N 2465.47 0.698636 1.41269 0
M  V30 25258 C 2466.72 0.227984 2.00407 0
M  V30 25259 C 2467.03 -1.1802 1.55983 0
M  V30 25260 O 2468.24 -1.74848 2.07702 0
M  V30 25261 C 2466.69 0.356699 3.58128 0
M  V30 25262 C 2466.3 1.77045 4.11533 0
M  V30 25263 C 2468.05 -0.0540223 4.24466 0
M  V30 25264 C 2465.95 1.85065 5.61698 0
M  V30 25265 H 2464.88 0.0814788 0.749585 0
M  V30 25266 H 2467.53 0.867277 1.61711 0
M  V30 25267 H 2465.92 -0.350896 3.94442 0
M  V30 25268 H 2467.09 2.50705 3.86631 0
M  V30 25269 H 2465.41 2.13112 3.57732 0
M  V30 25270 H 2468 -0.0145783 5.34698 0
M  V30 25271 H 2468.35 -1.09325 4.01689 0
M  V30 25272 H 2468.88 0.603406 3.93197 0
M  V30 25273 H 2465.62 2.87051 5.89307 0
M  V30 25274 H 2465.14 1.15794 5.88517 0
M  V30 25275 H 2466.82 1.61495 6.26521 0
M  V30 25276 N 2466.95 -1.51228 0.443603 0
M  V30 25277 C 2468.18 -2.06556 -0.119253 0
M  V30 25278 C 2468.59 -1.3104 -1.35919 0
M  V30 25279 O 2467.95 -0.371736 -1.78674 0
M  V30 25280 C 2468 -3.58871 -0.435165 0
M  V30 25281 O 2467.72 -4.31535 0.755562 0
M  V30 25282 C 2469.22 -4.30734 -1.04801 0
M  V30 25283 H 2466.44 -0.67098 -0.0051466 0
M  V30 25284 H 2468.99 -1.94732 0.624487 0
M  V30 25285 H 2467.14 -3.7059 -1.12881 0
M  V30 25286 H 2467.55 -5.22266 0.483582 0
M  V30 25287 H 2469.03 -5.38372 -1.21901 0
M  V30 25288 H 2469.51 -3.89432 -2.03074 0
M  V30 25289 H 2470.11 -4.23475 -0.393562 0
M  V30 25290 N 2468.43 -0.175182 -1.56623 0
M  V30 25291 C 2469.36 0.749156 -2.21156 0
M  V30 25292 C 2470.34 1.23624 -1.16838 0
M  V30 25293 O 2471.52 1.2887 -1.4528 0
M  V30 25294 C 2468.65 1.97706 -2.85534 0
M  V30 25295 C 2467.61 1.62568 -3.95924 0
M  V30 25296 C 2466.93 2.92856 -4.4737 0
M  V30 25297 C 2468.23 0.850747 -5.15325 0
M  V30 25298 H 2469.93 0.211242 -2.98654 0
M  V30 25299 H 2467.47 0.100163 -1.43651 0
M  V30 25300 H 2469.43 2.62875 -3.29355 0
M  V30 25301 H 2468.15 2.53918 -2.0541 0
M  V30 25302 H 2466.81 0.997657 -3.52764 0
M  V30 25303 H 2466.46 3.47115 -3.64033 0
M  V30 25304 H 2466.16 2.70097 -5.21844 0
M  V30 25305 H 2467.68 3.59048 -4.9388 0
M  V30 25306 H 2469.09 1.40511 -5.55814 0
M  V30 25307 H 2467.49 0.72205 -5.9574 0
M  V30 25308 H 2468.56 -0.152167 -4.84661 0
M  V30 25309 N 2469.91 1.57292 0.0985263 0
M  V30 25310 C 2471.18 1.76923 0.834124 0
M  V30 25311 C 2471.56 0.755962 1.971 0
M  V30 25312 O 2470.91 -0.216205 2.27475 0
M  V30 25313 C 2471.12 3.22586 1.33188 0
M  V30 25314 C 2472.47 3.85671 1.77604 0
M  V30 25315 O 2473.49 3.26314 1.4282 0
M  V30 25316 O 2472.35 4.90042 2.41911 0
M  V30 25317 H 2469.45 0.725142 0.397615 0
M  V30 25318 H 2471.99 1.69508 0.0806746 0
M  V30 25319 H 2470.76 3.87867 0.51718 0
M  V30 25320 H 2470.39 3.3462 2.14744 0
M  V30 25321 N 2471.38 -0.369261 1.53213 0
M  V30 25322 C 2472.61 -1.133 1.73121 0
M  V30 25323 C 2473.03 -1.83148 0.458487 0
M  V30 25324 O 2472.38 -1.73424 -0.568372 0
M  V30 25325 C 2472.43 -2.16611 2.89417 0
M  V30 25326 O 2472.16 -1.49607 4.11764 0
M  V30 25327 C 2473.66 -3.0556 3.21167 0
M  V30 25328 H 2470.88 -0.338924 0.579113 0
M  V30 25329 H 2473.42 -0.429302 1.99943 0
M  V30 25330 H 2471.58 -2.82585 2.64999 0
M  V30 25331 H 2471.99 -2.18411 4.76862 0
M  V30 25332 H 2473.46 -3.74038 4.05955 0
M  V30 25333 H 2473.94 -3.70166 2.36376 0
M  V30 25334 H 2474.55 -2.45207 3.47496 0
M  V30 25335 N 2472.86 -1.4451 -0.628851 0
M  V30 25336 C 2474.09 -1.51122 -1.42045 0
M  V30 25337 C 2474.51 -0.13785 -1.87594 0
M  V30 25338 O 2473.87 0.873409 -1.58875 0
M  V30 25339 C 2473.92 -2.48256 -2.61537 0
M  V30 25340 O 2473.02 -1.98566 -3.61449 0
M  V30 25341 H 2472.36 -0.510224 -0.424933 0
M  V30 25342 H 2474.89 -1.89666 -0.767341 0
M  V30 25343 H 2474.9 -2.66366 -3.09052 0
M  V30 25344 H 2473.58 -3.48011 -2.2773 0
M  V30 25345 H 2472.15 -1.90232 -3.20727 0
M  V30 25346 N 2474.34 0.869463 -1.31446 0
M  V30 25347 C 2475.76 1.15529 -1.10115 0
M  V30 25348 C 2475.96 2.01093 0.128052 0
M  V30 25349 O 2475.01 2.38909 0.817234 0
M  V30 25350 C 2476.32 1.84694 -2.37294 0
M  V30 25351 C 2477.87 1.97393 -2.42909 0
M  V30 25352 C 2478.35 2.69972 -3.69972 0
M  V30 25353 N 2479.84 2.77508 -3.70869 0
M  V30 25354 C 2480.57 3.34279 -4.65881 0
M  V30 25355 N 2480.07 3.91978 -5.71249 0
M  V30 25356 N 2481.86 3.32242 -4.534 0
M  V30 25357 H 2474.01 0.29931 -2.10281 0
M  V30 25358 H 2476.28 0.195198 -0.927686 0
M  V30 25359 H 2475.98 1.29272 -3.2708 0
M  V30 25360 H 2475.86 2.84968 -2.4713 0
M  V30 25361 H 2478.24 2.51979 -1.53592 0
M  V30 25362 H 2478.32 0.961601 -2.37038 0
M  V30 25363 H 2477.97 2.16054 -4.59656 0
M  V30 25364 H 2477.9 3.71613 -3.7311 0
M  V30 25365 H 2480.39 2.36558 -2.94701 0
M  V30 25366 H 2480.7 4.3341 -6.39825 0
M  V30 25367 H 2479.05 3.90352 -5.75022 0
M  V30 25368 H 2482.24 2.86404 -3.70257 0
M  V30 25369 H 2482.41 3.76188 -5.27623 0
M  V30 25370 N 2475.82 1.14415 1.08383 0
M  V30 25371 C 2477.07 0.907107 1.80151 0
M  V30 25372 C 2477.38 -0.567818 1.87177 0
M  V30 25373 O 2478.59 -0.922127 2.55361 0
M  V30 25374 C 2477.04 1.57342 3.23684 0
M  V30 25375 C 2476.65 3.08463 3.24892 0
M  V30 25376 C 2478.39 1.41751 4.00134 0
M  V30 25377 C 2476.3 3.67929 4.63014 0
M  V30 25378 H 2475.23 0.335726 0.675133 0
M  V30 25379 H 2477.88 1.37309 1.21731 0
M  V30 25380 H 2476.26 1.03511 3.82232 0
M  V30 25381 H 2477.44 3.68963 2.76049 0
M  V30 25382 H 2475.75 3.23694 2.61937 0
M  V30 25383 H 2478.35 1.83581 5.02197 0
M  V30 25384 H 2478.69 0.363649 4.14709 0
M  V30 25385 H 2479.23 1.9262 3.48055 0
M  V30 25386 H 2475.96 4.73169 4.53642 0
M  V30 25387 H 2475.48 3.1221 5.12138 0
M  V30 25388 H 2477.16 3.68236 5.31988 0
M  V30 25389 N 2477.3 -1.26549 0.939309 0
M  V30 25390 C 2478.54 -1.93132 0.581635 0
M  V30 25391 C 2478.86 -1.74525 -0.883193 0
M  V30 25392 O 2480.06 -2.35548 -1.35016 0
M  V30 25393 C 2478.52 -3.46031 0.989486 0
M  V30 25394 C 2478.13 -3.73374 2.4758 0
M  V30 25395 C 2479.87 -4.18628 0.703617 0
M  V30 25396 C 2477.78 -5.19704 2.82245 0
M  V30 25397 H 2476.71 -0.723048 0.213816 0
M  V30 25398 H 2479.36 -1.43658 1.14169 0
M  V30 25399 H 2477.74 -3.94379 0.357972 0
M  V30 25400 H 2478.92 -3.35739 3.1562 0
M  V30 25401 H 2477.23 -3.14005 2.73477 0
M  V30 25402 H 2479.83 -5.26391 0.938961 0
M  V30 25403 H 2480.17 -4.14744 -0.359566 0
M  V30 25404 H 2480.7 -3.76139 1.29476 0
M  V30 25405 H 2477.44 -5.28687 3.87518 0
M  V30 25406 H 2476.96 -5.58443 2.18864 0
M  V30 25407 H 2478.64 -5.8769 2.70609 0
M  V30 25408 N 2478.77 -0.706118 -1.40896 0
M  V30 25409 C 2480 -0.250923 -2.05373 0
M  V30 25410 C 2480.42 1.10378 -1.53174 0
M  V30 25411 O 2479.77 1.69184 -0.684335 0
M  V30 25412 C 2479.82 -0.211634 -3.6088 0
M  V30 25413 O 2479.55 -1.51283 -4.11151 0
M  V30 25414 C 2481.05 0.263268 -4.42518 0
M  V30 25415 H 2478.27 -0.114564 -0.661148 0
M  V30 25416 H 2480.81 -0.961666 -1.80478 0
M  V30 25417 H 2478.97 0.450005 -3.84777 0
M  V30 25418 H 2479.38 -1.40698 -5.05277 0
M  V30 25419 H 2480.85 0.239621 -5.5148 0
M  V30 25420 H 2481.33 1.30389 -4.19399 0
M  V30 25421 H 2481.94 -0.367751 -4.23707 0
M  V30 25422 N 2480.25 1.50991 -0.451617 0
M  V30 25423 C 2481.16 2.31846 0.35839 0
M  V30 25424 C 2482.18 1.41375 1.01435 0
M  V30 25425 O 2483.35 1.74441 1.0066 0
M  V30 25426 C 2480.42 3.15518 1.43699 0
M  V30 25427 C 2479.48 4.21786 0.799668 0
M  V30 25428 C 2478.71 5.01459 1.82687 0
M  V30 25429 O 2478.94 4.81947 3.05096 0
M  V30 25430 O 2477.87 5.85164 1.40948 0
M  V30 25431 H 2481.7 3.02194 -0.302085 0
M  V30 25432 H 2479.28 1.47862 -0.213851 0
M  V30 25433 H 2481.16 3.67493 2.0622 0
M  V30 25434 H 2479.84 2.4792 2.08129 0
M  V30 25435 H 2478.74 3.73853 0.136018 0
M  V30 25436 H 2480.08 4.91799 0.198632 0
M  V30 25437 N 2481.73 0.183486 1.56528 0
M  V30 25438 C 2482.95 -0.467393 2.02065 0
M  V30 25439 C 2483.38 -1.55194 1.06285 0
M  V30 25440 O 2482.74 -1.81246 0.0443883 0
M  V30 25441 C 2482.79 -1.01147 3.46124 0
M  V30 25442 O 2481.89 -2.12493 3.53441 0
M  V30 25443 H 2481.23 -0.110577 0.654728 0
M  V30 25444 H 2483.76 0.290953 2.02521 0
M  V30 25445 H 2483.77 -1.33101 3.85679 0
M  V30 25446 H 2482.45 -0.21746 4.15331 0
M  V30 25447 H 2481.02 -1.81491 3.25754 0
M  V30 25448 N 2483.21 -1.57342 -0.0901833 0
M  V30 25449 C 2484.45 -1.86337 -0.792775 0
M  V30 25450 C 2484.78 -0.772694 -1.78493 0
M  V30 25451 O 2484.04 0.233223 -1.94305 0
M  V30 25452 C 2484.34 -3.21936 -1.55217 0
M  V30 25453 C 2484 -4.45407 -0.701687 0
M  V30 25454 C 2482.66 -4.78926 -0.46725 0
M  V30 25455 C 2485.02 -5.21082 -0.110769 0
M  V30 25456 C 2482.34 -5.85545 0.367888 0
M  V30 25457 C 2484.7 -6.28584 0.71172 0
M  V30 25458 C 2483.36 -6.60616 0.956202 0
M  V30 25459 H 2482.63 -0.681854 -0.290097 0
M  V30 25460 H 2485.28 -1.91424 -0.0540996 0
M  V30 25461 H 2483.58 -3.12556 -2.36255 0
M  V30 25462 H 2485.28 -3.41599 -2.10026 0
M  V30 25463 H 2481.87 -4.19161 -0.894525 0
M  V30 25464 H 2486.05 -4.95515 -0.279042 0
M  V30 25465 H 2481.31 -6.08772 0.566235 0
M  V30 25466 H 2485.48 -6.86391 1.17644 0
M  V30 25467 H 2483.11 -7.43061 1.60512 0
M  V30 25468 N 2484.69 0.36113 -1.53407 0
M  V30 25469 C 2485.93 1.1033 -1.69804 0
M  V30 25470 C 2486.26 1.89172 -0.45212 0
M  V30 25471 O 2485.52 1.87337 0.565984 0
M  V30 25472 C 2485.82 2.08591 -2.90215 0
M  V30 25473 C 2485.48 1.46195 -4.26542 0
M  V30 25474 C 2484.14 1.28907 -4.63612 0
M  V30 25475 C 2486.5 1.01092 -5.11302 0
M  V30 25476 C 2483.82 0.651054 -5.83076 0
M  V30 25477 C 2486.18 0.386896 -6.31416 0
M  V30 25478 C 2484.84 0.20154 -6.67196 0
M  V30 25479 H 2484.11 0.403726 -0.621358 0
M  V30 25480 H 2486.76 0.384576 -1.87599 0
M  V30 25481 H 2485.06 2.86783 -2.66951 0
M  V30 25482 H 2486.76 2.65977 -3.00096 0
M  V30 25483 H 2483.35 1.60646 -3.97355 0
M  V30 25484 H 2487.53 1.13241 -4.83208 0
M  V30 25485 H 2482.79 0.495898 -6.09386 0
M  V30 25486 H 2486.96 0.0292339 -6.96394 0
M  V30 25487 H 2484.59 -0.2949 -7.59628 0
M  V30 25488 N 2486.16 1.44842 0.621179 0
M  V30 25489 C 2487.07 1.54983 1.76117 0
M  V30 25490 C 2488.09 0.434957 1.68476 0
M  V30 25491 O 2489.27 0.693726 1.89075 0
M  V30 25492 C 2486.33 1.5007 3.12538 0
M  V30 25493 C 2485.39 2.72488 3.31736 0
M  V30 25494 C 2484.63 2.678 4.61648 0
M  V30 25495 O 2484.85 1.74361 5.43097 0
M  V30 25496 O 2483.78 3.58802 4.83265 0
M  V30 25497 H 2487.61 2.51314 1.70514 0
M  V30 25498 H 2485.19 1.272 0.783621 0
M  V30 25499 H 2487.08 1.49889 3.93842 0
M  V30 25500 H 2485.75 0.568862 3.18662 0
M  V30 25501 H 2484.66 2.78235 2.50072 0
M  V30 25502 H 2485.99 3.64752 3.3048 0
M  V30 25503 N 2487.64 -0.862479 1.31905 0
M  V30 25504 C 2488.89 -1.61849 1.222 0
M  V30 25505 C 2489.22 -1.92977 -0.217607 0
M  V30 25506 O 2488.5 -1.56668 -1.15262 0
M  V30 25507 C 2488.78 -2.94388 2.07384 0
M  V30 25508 C 2488.63 -2.7009 3.59682 0
M  V30 25509 C 2489.95 -3.95574 1.92898 0
M  V30 25510 H 2487.07 -0.587288 0.445266 0
M  V30 25511 H 2489.71 -0.996481 1.61772 0
M  V30 25512 H 2487.86 -3.47474 1.73765 0
M  V30 25513 H 2489.53 -2.23618 4.03476 0
M  V30 25514 H 2487.78 -2.0419 3.82739 0
M  V30 25515 H 2488.45 -3.6443 4.14602 0
M  V30 25516 H 2490.92 -3.5172 2.22333 0
M  V30 25517 H 2489.8 -4.86183 2.5479 0
M  V30 25518 H 2490.06 -4.32958 0.894391 0
M  V30 25519 N 2489.12 -1.14988 -1.07775 0
M  V30 25520 C 2490.53 -0.932156 -1.61764 0
M  V30 25521 C 2490.88 0.527547 -1.88975 0
M  V30 25522 O 2490.01 1.39778 -1.652 0
M  V30 25523 C 2490.6 -1.68569 -2.93888 0
M  V30 25524 C 2489.16 -1.51336 -3.44637 0
M  V30 25525 C 2488.31 -1.70404 -2.18764 0
M  V30 25526 H 2491.26 -1.30076 -0.909178 0
M  V30 25527 H 2491.28 -1.15266 -3.62621 0
M  V30 25528 H 2490.79 -2.74804 -2.74052 0
M  V30 25529 H 2488.89 -0.474767 -3.69563 0
M  V30 25530 H 2489.01 -2.28754 -4.20962 0
M  V30 25531 H 2487.37 -1.13021 -2.28251 0
M  V30 25532 H 2488.15 -2.77996 -2.01428 0
M  V30 25533 N 2490.6 1.26049 -0.946007 0
M  V30 25534 C 2491.56 2.24456 -0.463936 0
M  V30 25535 C 2492.56 1.5501 0.427627 0
M  V30 25536 O 2493.75 1.72726 0.226127 0
M  V30 25537 C 2490.88 3.39292 0.330753 0
M  V30 25538 H 2492.08 2.68616 -1.33361 0
M  V30 25539 H 2489.63 1.38288 -0.72844 0
M  V30 25540 H 2490.36 3.00539 1.21847 0
M  V30 25541 H 2490.15 3.90883 -0.308748 0
M  V30 25542 H 2491.64 4.12387 0.657793 0
M  V30 25543 N 2492.08 0.71358 1.4052 0
M  V30 25544 C 2493.3 0.261811 2.05237 0
M  V30 25545 C 2493.72 -1.09564 1.53757 0
M  V30 25546 O 2493.08 -1.68818 0.693298 0
M  V30 25547 C 2493.13 0.230769 3.60763 0
M  V30 25548 O 2492.85 1.53462 4.10343 0
M  V30 25549 C 2494.35 -0.239796 4.42651 0
M  V30 25550 H 2491.57 0.118069 0.660531 0
M  V30 25551 H 2494.11 0.971224 1.79965 0
M  V30 25552 H 2492.27 -0.429593 3.85011 0
M  V30 25553 H 2492.68 1.43375 5.04523 0
M  V30 25554 H 2494.16 -0.210371 5.51599 0
M  V30 25555 H 2494.63 -1.28163 4.20084 0
M  V30 25556 H 2495.24 0.390216 4.23506 0
M  V30 25557 N 2493.55 -1.50749 0.459618 0
M  V30 25558 C 2494.78 -2.06671 -0.0973386 0
M  V30 25559 C 2495.2 -1.32475 -1.34521 0
M  V30 25560 O 2494.55 -0.390665 -1.7827 0
M  V30 25561 C 2494.61 -3.59313 -0.397077 0
M  V30 25562 O 2494.33 -4.3071 0.801289 0
M  V30 25563 C 2495.83 -4.31821 -1.00226 0
M  V30 25564 H 2493.05 -0.670997 0.00197033 0
M  V30 25565 H 2495.59 -1.94058 0.645106 0
M  V30 25566 H 2493.75 -3.71766 -1.08944 0
M  V30 25567 H 2494.16 -5.21724 0.538949 0
M  V30 25568 H 2495.63 -5.39634 -1.16184 0
M  V30 25569 H 2496.11 -3.91564 -1.98933 0
M  V30 25570 H 2496.72 -4.23869 -0.348625 0
M  V30 25571 N 2495.03 -0.191784 -1.56429 0
M  V30 25572 C 2496.28 0.448053 -1.96661 0
M  V30 25573 C 2496.59 1.62989 -1.08139 0
M  V30 25574 O 2497.8 2.3373 -1.38139 0
M  V30 25575 C 2496.26 0.848524 -3.49754 0
M  V30 25576 C 2495.86 -0.308842 -4.46934 0
M  V30 25577 C 2497.61 1.45563 -3.98763 0
M  V30 25578 C 2495.52 0.112402 -5.91293 0
M  V30 25579 H 2494.45 0.171166 -0.734315 0
M  V30 25580 H 2497.1 -0.283274 -1.813 0
M  V30 25581 H 2495.48 1.63642 -3.60607 0
M  V30 25582 H 2496.65 -1.08635 -4.47811 0
M  V30 25583 H 2494.97 -0.827229 -4.081 0
M  V30 25584 H 2497.56 1.78319 -5.0409 0
M  V30 25585 H 2497.91 2.36093 -3.42879 0
M  V30 25586 H 2498.44 0.731768 -3.91012 0
M  V30 25587 H 2495.18 -0.758629 -6.51095 0
M  V30 25588 H 2494.7 0.854837 -5.93677 0
M  V30 25589 H 2496.38 0.549335 -6.44664 0
M  V30 25590 N 2496.51 1.57387 0.0818378 0
M  V30 25591 C 2497.74 1.90695 0.79492 0
M  V30 25592 C 2498.15 0.785012 1.72146 0
M  V30 25593 O 2497.49 -0.251164 1.81975 0
M  V30 25594 C 2497.55 3.19379 1.65037 0
M  V30 25595 C 2497.22 4.48165 0.894258 0
M  V30 25596 C 2498.21 5.19443 0.218039 0
M  V30 25597 C 2495.9 4.94806 0.864408 0
M  V30 25598 C 2497.89 6.35606 -0.477914 0
M  V30 25599 C 2495.58 6.10878 0.164677 0
M  V30 25600 C 2496.58 6.81128 -0.505293 0
M  V30 25601 O 2496.27 7.94987 -1.19377 0
M  V30 25602 H 2496 0.635027 0.231768 0
M  V30 25603 H 2498.55 2.05314 0.0594569 0
M  V30 25604 H 2496.78 3.00942 2.42839 0
M  V30 25605 H 2498.47 3.38415 2.24121 0
M  V30 25606 H 2499.24 4.84443 0.232473 0
M  V30 25607 H 2495.12 4.40006 1.37534 0
M  V30 25608 H 2498.66 6.90375 -1.00141 0
M  V30 25609 H 2494.56 6.4533 0.148135 0
M  V30 25610 H 2495.33 8.11047 -1.10202 0
M  V30 25611 N 2497.99 -0.35299 1.53596 0
M  V30 25612 C 2499.4 -0.929124 1.61939 0
M  V30 25613 C 2499.75 -1.8986 0.494719 0
M  V30 25614 O 2498.88 -2.13091 -0.376979 0
M  V30 25615 C 2499.47 -1.69193 2.93529 0
M  V30 25616 C 2498.03 -2.21722 3.04165 0
M  V30 25617 C 2497.18 -1.03344 2.57323 0
M  V30 25618 H 2500.13 -0.131403 1.58155 0
M  V30 25619 H 2500.15 -2.55411 2.82038 0
M  V30 25620 H 2499.66 -0.986078 3.75364 0
M  V30 25621 H 2497.76 -2.95512 2.26944 0
M  V30 25622 H 2497.87 -2.48741 4.09469 0
M  V30 25623 H 2496.24 -1.4041 2.12502 0
M  V30 25624 H 2497.02 -0.342368 3.41589 0
M  V30 25625 N 2499.47 -1.45169 -0.613489 0
M  V30 25626 C 2500.71 -1.49098 -1.37469 0
M  V30 25627 C 2501.05 -0.129935 -1.93765 0
M  V30 25628 O 2500.32 0.854827 -1.74708 0
M  V30 25629 C 2500.6 -2.56547 -2.52697 0
M  V30 25630 C 2500.46 -4.02074 -2.01636 0
M  V30 25631 C 2501.78 -2.60333 -3.54844 0
M  V30 25632 H 2498.9 -0.542839 -0.498493 0
M  V30 25633 H 2501.54 -1.76946 -0.692094 0
M  V30 25634 H 2499.69 -2.32931 -3.10927 0
M  V30 25635 H 2501.36 -4.3688 -1.481 0
M  V30 25636 H 2499.6 -4.13011 -1.32681 0
M  V30 25637 H 2500.27 -4.72933 -2.84673 0
M  V30 25638 H 2502.75 -2.81479 -3.06445 0
M  V30 25639 H 2501.63 -3.37388 -4.32967 0
M  V30 25640 H 2501.89 -1.65198 -4.10076 0
M  V30 25641 N 2500.95 0.855472 -1.32361 0
M  V30 25642 C 2502.17 1.64729 -1.26013 0
M  V30 25643 C 2502.6 1.87339 0.169035 0
M  V30 25644 O 2501.95 1.42558 1.12013 0
M  V30 25645 C 2502 2.98425 -2.02422 0
M  V30 25646 O 2501.11 3.88927 -1.37147 0
M  V30 25647 H 2500.45 0.502245 -0.434334 0
M  V30 25648 H 2502.98 1.06555 -1.74663 0
M  V30 25649 H 2502.99 3.48253 -2.12565 0
M  V30 25650 H 2501.66 2.8129 -3.06348 0
M  V30 25651 H 2500.24 3.47393 -1.35546 0
M  V30 25652 N 2502.42 1.15558 1.07164 0
M  V30 25653 C 2503.33 0.868154 2.17945 0
M  V30 25654 C 2504.35 -0.156266 1.73297 0
M  V30 25655 O 2505.53 0.0182681 2.01392 0
M  V30 25656 C 2502.59 0.36361 3.44788 0
M  V30 25657 C 2501.65 1.45216 4.03993 0
M  V30 25658 C 2500.88 0.9716 5.24782 0
M  V30 25659 O 2501.11 -0.182094 5.70109 0
M  V30 25660 O 2500.04 1.75613 5.75712 0
M  V30 25661 H 2503.87 1.79431 2.45027 0
M  V30 25662 H 2501.45 0.934845 1.16538 0
M  V30 25663 H 2503.33 0.0887854 4.21306 0
M  V30 25664 H 2502.01 -0.534652 3.19254 0
M  V30 25665 H 2500.92 1.78062 3.29006 0
M  V30 25666 H 2502.25 2.32541 4.33804 0
M  V30 25667 N 2503.9 -1.25546 0.952678 0
M  V30 25668 C 2504.83 -2.25156 0.428648 0
M  V30 25669 C 2505.85 -1.5633 -0.4544 0
M  V30 25670 O 2507.04 -1.76552 -0.262992 0
M  V30 25671 C 2504.14 -3.36508 -0.401912 0
M  V30 25672 C 2503.31 -4.34893 0.467678 0
M  V30 25673 C 2502.37 -5.25319 -0.304358 0
M  V30 25674 O 2501.39 -5.68427 0.296573 0
M  V30 25675 N 2502.6 -5.58073 -1.59796 0
M  V30 25676 H 2505.36 -2.70754 1.28501 0
M  V30 25677 H 2502.92 -1.39432 0.822823 0
M  V30 25678 H 2504.91 -3.93962 -0.926065 0
M  V30 25679 H 2503.48 -2.90315 -1.15913 0
M  V30 25680 H 2502.7 -3.76345 1.17295 0
M  V30 25681 H 2503.99 -4.97609 1.06128 0
M  V30 25682 H 2503.39 -5.24952 -2.10813 0
M  V30 25683 H 2501.95 -6.1812 -2.06811 0
M  V30 25684 N 2505.38 -0.721022 -1.40139 0
M  V30 25685 C 2506.79 -0.334585 -1.83677 0
M  V30 25686 C 2507.14 1.1317 -1.60272 0
M  V30 25687 O 2506.27 1.8715 -1.08646 0
M  V30 25688 C 2506.86 -0.600496 -3.33436 0
M  V30 25689 C 2505.42 -0.267708 -3.75447 0
M  V30 25690 C 2504.57 -0.870143 -2.63294 0
M  V30 25691 H 2507.52 -0.919755 -1.2933 0
M  V30 25692 H 2507.54 0.132451 -3.80269 0
M  V30 25693 H 2507.05 -1.66775 -3.5044 0
M  V30 25694 H 2505.15 0.794265 -3.64036 0
M  V30 25695 H 2505.27 -0.740503 -4.73343 0
M  V30 25696 H 2503.63 -0.297783 -2.52953 0
M  V30 25697 H 2504.41 -1.94177 -2.83108 0
M  V30 25698 N 2506.86 1.50503 -0.467606 0
M  V30 25699 C 2508.08 2.0721 0.0886579 0
M  V30 25700 C 2508.51 1.32959 1.33055 0
M  V30 25701 O 2507.87 0.376228 1.77353 0
M  V30 25702 C 2507.91 3.58807 0.359139 0
M  V30 25703 O 2507.02 3.86432 1.44027 0
M  V30 25704 H 2506.36 0.663901 -0.0114466 0
M  V30 25705 H 2508.89 1.93743 -0.657647 0
M  V30 25706 H 2508.9 4.03554 0.600671 0
M  V30 25707 H 2507.57 4.12269 -0.548383 0
M  V30 25708 H 2506.15 3.53526 1.18632 0
M  V30 25709 N 2508.34 0.200077 1.56325 0
M  V30 25710 C 2509.3 -0.705094 2.18085 0
M  V30 25711 C 2510.3 -1.13738 1.13668 0
M  V30 25712 O 2511.49 -1.04966 1.39025 0
M  V30 25713 C 2508.62 -1.96324 2.78693 0
M  V30 25714 H 2509.81 -0.16697 2.99435 0
M  V30 25715 H 2507.37 -0.049545 1.56221 0
M  V30 25716 H 2508.1 -2.54376 2.01155 0
M  V30 25717 H 2507.89 -1.66196 3.55136 0
M  V30 25718 H 2509.38 -2.60861 3.261 0
M  V30 25719 N 2509.81 -1.57429 -0.0734901 0
M  V30 25720 C 2510.76 -2.03572 -1.08752 0
M  V30 25721 C 2511.73 -0.916024 -1.38558 0
M  V30 25722 O 2512.92 -1.18357 -1.49654 0
M  V30 25723 C 2510.06 -2.48315 -2.39653 0
M  V30 25724 C 2509.17 -3.73896 -2.16392 0
M  V30 25725 C 2508.3 -4.07429 -3.40845 0
M  V30 25726 C 2507.34 -5.26056 -3.12941 0
M  V30 25727 N 2506.48 -5.55235 -4.29719 0
M  V30 25728 H 2511.32 -2.89972 -0.687053 0
M  V30 25729 H 2508.86 -1.43404 -0.327684 0
M  V30 25730 H 2510.81 -2.72308 -3.16076 0
M  V30 25731 H 2509.44 -1.64896 -2.77505 0
M  V30 25732 H 2508.5 -3.57253 -1.3067 0
M  V30 25733 H 2509.81 -4.60458 -1.9178 0
M  V30 25734 H 2508.96 -4.32314 -4.25664 0
M  V30 25735 H 2507.7 -3.19431 -3.68531 0
M  V30 25736 H 2506.71 -5.00969 -2.26517 0
M  V30 25737 H 2507.93 -6.1567 -2.86579 0
M  V30 25738 H 2505.88 -4.70196 -4.5744 0
M  V30 25739 H 2505.79 -6.36213 -4.08374 0
M  V30 25740 H 2507.06 -5.8467 -5.1554 0
M  V30 25741 N 2511.29 0.344839 -1.53781 0
M  V30 25742 C 2512.54 1.08684 -1.71218 0
M  V30 25743 C 2512.87 1.88344 -0.473314 0
M  V30 25744 O 2512.15 1.8715 0.529647 0
M  V30 25745 C 2512.43 2.02909 -2.97489 0
M  V30 25746 C 2512.28 1.2672 -4.31581 0
M  V30 25747 C 2513.6 3.02745 -3.19427 0
M  V30 25748 H 2510.72 0.393724 -0.623017 0
M  V30 25749 H 2513.36 0.36553 -1.86451 0
M  V30 25750 H 2511.51 2.64416 -2.84634 0
M  V30 25751 H 2513.18 0.67837 -4.56285 0
M  V30 25752 H 2511.43 0.569197 -4.3005 0
M  V30 25753 H 2512.1 1.95793 -5.16109 0
M  V30 25754 H 2514.57 2.51351 -3.31605 0
M  V30 25755 H 2513.45 3.65878 -4.09176 0
M  V30 25756 H 2513.71 3.74053 -2.35663 0
M  V30 25757 N 2512.77 1.45492 0.605781 0
M  V30 25758 C 2514.02 1.49825 1.36676 0
M  V30 25759 C 2514.35 0.140209 1.93693 0
M  V30 25760 O 2513.62 -0.84555 1.75159 0
M  V30 25761 C 2513.91 2.57883 2.51333 0
M  V30 25762 C 2513.76 4.03137 1.995 0
M  V30 25763 C 2515.08 2.62212 3.53459 0
M  V30 25764 H 2512.2 0.545475 0.495607 0
M  V30 25765 H 2514.84 1.77311 0.682701 0
M  V30 25766 H 2512.99 2.34577 3.09687 0
M  V30 25767 H 2514.66 4.37659 1.45782 0
M  V30 25768 H 2512.9 4.13709 1.30489 0
M  V30 25769 H 2513.58 4.74436 2.82161 0
M  V30 25770 H 2516.05 2.831 3.04948 0
M  V30 25771 H 2514.93 3.3968 4.31172 0
M  V30 25772 H 2515.19 1.6737 4.09194 0
M  V30 25773 N 2514.25 -0.848441 1.32813 0
M  V30 25774 C 2515.66 -1.41912 1.21317 0
M  V30 25775 C 2516.01 -1.95446 -0.171812 0
M  V30 25776 O 2515.14 -1.88045 -1.07089 0
M  V30 25777 C 2515.73 -2.57964 2.19636 0
M  V30 25778 C 2514.29 -3.11013 2.12008 0
M  V30 25779 C 2513.44 -1.83779 2.07655 0
M  V30 25780 H 2516.39 -0.655045 1.44551 0
M  V30 25781 H 2516.41 -3.35312 1.79851 0
M  V30 25782 H 2515.92 -2.18971 3.20427 0
M  V30 25783 H 2514.02 -3.54575 1.14487 0
M  V30 25784 H 2514.13 -3.71836 3.02117 0
M  V30 25785 H 2512.5 -2.03635 1.52986 0
M  V30 25786 H 2513.28 -1.46994 3.10238 0
M  V30 25787 N 2515.73 -1.16125 -1.06549 0
M  V30 25788 C 2516.95 -0.96527 -1.83003 0
M  V30 25789 C 2517.37 0.48651 -1.82424 0
M  V30 25790 O 2516.73 1.33761 -1.24155 0
M  V30 25791 C 2516.78 -1.48189 -3.29731 0
M  V30 25792 O 2516.5 -2.8768 -3.30411 0
M  V30 25793 C 2518 -1.32855 -4.22924 0
M  V30 25794 H 2515.22 -0.342319 -0.577112 0
M  V30 25795 H 2517.76 -1.54091 -1.34447 0
M  V30 25796 H 2515.92 -0.948583 -3.75607 0
M  V30 25797 H 2516.33 -3.11279 -4.22144 0
M  V30 25798 H 2517.81 -1.73837 -5.23913 0
M  V30 25799 H 2518.28 -0.273769 -4.38346 0
M  V30 25800 H 2518.89 -1.85134 -3.82891 0
M  V30 25801 N 2517.2 1.25039 -0.959323 0
M  V30 25802 C 2518.15 2.25709 -0.482097 0
M  V30 25803 C 2519.12 1.59373 0.467911 0
M  V30 25804 O 2520.31 1.86975 0.380126 0
M  V30 25805 C 2517.45 3.44336 0.229562 0
M  V30 25806 C 2516.56 4.25294 -0.758231 0
M  V30 25807 C 2515.69 5.31195 -0.0235337 0
M  V30 25808 C 2514.73 6.03844 -1.00195 0
M  V30 25809 N 2513.87 7.01468 -0.297814 0
M  V30 25810 H 2518.71 2.65899 -1.34543 0
M  V30 25811 H 2516.25 1.30719 -0.674615 0
M  V30 25812 H 2518.21 4.11966 0.658784 0
M  V30 25813 H 2516.84 3.05007 1.05691 0
M  V30 25814 H 2515.89 3.57281 -1.30592 0
M  V30 25815 H 2517.2 4.75564 -1.50467 0
M  V30 25816 H 2516.35 6.04922 0.464095 0
M  V30 25817 H 2515.09 4.8181 0.755657 0
M  V30 25818 H 2514.1 5.28927 -1.50053 0
M  V30 25819 H 2515.32 6.55318 -1.78145 0
M  V30 25820 H 2513.27 6.54367 0.462553 0
M  V30 25821 H 2513.19 7.49579 -0.98326 0
M  V30 25822 H 2514.45 7.79319 0.168123 0
M  V30 25823 N 2518.68 0.728444 1.39755 0
M  V30 25824 C 2519.93 0.273522 2.00644 0
M  V30 25825 C 2520.26 -1.13725 1.57788 0
M  V30 25826 O 2519.51 -1.78828 0.794918 0
M  V30 25827 C 2519.81 0.315839 3.56002 0
M  V30 25828 C 2519.48 1.6787 4.18486 0
M  V30 25829 C 2518.14 2.05174 4.35267 0
M  V30 25830 C 2520.49 2.57383 4.53214 0
M  V30 25831 C 2517.82 3.31511 4.84063 0
M  V30 25832 C 2520.17 3.83086 5.03416 0
M  V30 25833 C 2518.84 4.2049 5.18405 0
M  V30 25834 H 2518.11 0.100089 0.734209 0
M  V30 25835 H 2520.75 0.934001 1.67179 0
M  V30 25836 H 2519.06 -0.428216 3.89453 0
M  V30 25837 H 2520.75 -0.054187 4.00963 0
M  V30 25838 H 2517.34 1.37865 4.05822 0
M  V30 25839 H 2521.53 2.29835 4.39874 0
M  V30 25840 H 2516.78 3.60443 4.93853 0
M  V30 25841 H 2520.96 4.52608 5.29262 0
M  V30 25842 H 2518.59 5.18452 5.55978 0
M  V30 25843 N 2520.16 -1.50253 0.475581 0
M  V30 25844 C 2521.41 -2.0265 -0.0779717 0
M  V30 25845 C 2521.74 -1.35654 -1.38966 0
M  V30 25846 O 2521.01 -0.483724 -1.88389 0
M  V30 25847 C 2521.3 -3.59181 -0.257098 0
M  V30 25848 C 2521.15 -4.36742 1.07593 0
M  V30 25849 C 2522.47 -4.28364 -1.00957 0
M  V30 25850 H 2519.59 -0.73651 -0.0268629 0
M  V30 25851 H 2522.23 -1.79529 0.622046 0
M  V30 25852 H 2520.38 -3.79012 -0.853345 0
M  V30 25853 H 2522.05 -4.28471 1.7091 0
M  V30 25854 H 2520.3 -4.00305 1.67147 0
M  V30 25855 H 2520.97 -5.44544 0.904184 0
M  V30 25856 H 2523.44 -4.13035 -0.504141 0
M  V30 25857 H 2522.32 -5.37689 -1.10371 0
M  V30 25858 H 2522.58 -3.91843 -2.04724 0
M  V30 25859 N 2521.64 -0.208365 -1.56217 0
M  V30 25860 C 2522.86 0.435187 -2.02783 0
M  V30 25861 C 2523.29 1.53483 -1.0874 0
M  V30 25862 O 2522.65 1.81152 -0.0732173 0
M  V30 25863 C 2522.69 0.956274 -3.47689 0
M  V30 25864 O 2521.8 2.06843 -3.56777 0
M  V30 25865 H 2521.14 0.100146 -0.656404 0
M  V30 25866 H 2523.67 -0.323135 -2.02032 0
M  V30 25867 H 2523.68 1.26948 -3.87747 0
M  V30 25868 H 2522.35 0.151357 -4.15624 0
M  V30 25869 H 2520.93 1.76286 -3.286 0
M  V30 25870 N 2523.12 1.57465 0.0651402 0
M  V30 25871 C 2524.03 2.07507 1.09444 0
M  V30 25872 C 2525.04 1.00597 1.41973 0
M  V30 25873 O 2526.22 1.3211 1.52016 0
M  V30 25874 C 2523.28 2.51457 2.38684 0
M  V30 25875 C 2522.34 3.72695 2.13066 0
M  V30 25876 C 2521.58 4.14539 3.36144 0
M  V30 25877 O 2521.8 3.56197 4.45511 0
M  V30 25878 O 2520.73 5.07277 3.23965 0
M  V30 25879 H 2524.56 2.95539 0.699298 0
M  V30 25880 H 2522.15 1.46758 0.279726 0
M  V30 25881 H 2524.03 2.80218 3.14732 0
M  V30 25882 H 2522.7 1.66551 2.77565 0
M  V30 25883 H 2521.61 3.49007 1.34703 0
M  V30 25884 H 2522.94 4.58473 1.79062 0
M  V30 25885 N 2524.59 -0.336679 1.53962 0
M  V30 25886 C 2525.82 -1.09602 1.75485 0
M  V30 25887 C 2526.24 -1.82135 0.497232 0
M  V30 25888 O 2525.59 -1.7459 -0.531459 0
M  V30 25889 C 2525.65 -2.10423 2.93946 0
M  V30 25890 O 2525.37 -1.40839 4.14845 0
M  V30 25891 C 2526.87 -2.98679 3.27576 0
M  V30 25892 H 2524.09 -0.326564 0.586171 0
M  V30 25893 H 2526.63 -0.386795 2.00809 0
M  V30 25894 H 2524.79 -2.769 2.70934 0
M  V30 25895 H 2525.2 -2.08247 4.81387 0
M  V30 25896 H 2526.67 -3.65343 4.13798 0
M  V30 25897 H 2527.15 -3.65069 2.44174 0
M  V30 25898 H 2527.76 -2.37781 3.52619 0
M  V30 25899 N 2526.07 -1.45812 -0.598057 0
M  V30 25900 C 2527.35 -1.408 -1.35775 0
M  V30 25901 C 2527.73 -0.083499 -2.10935 0
M  V30 25902 O 2527.08 0.934727 -2.08507 0
M  V30 25903 C 2527.29 -2.62787 -2.29661 0
M  V30 25904 C 2528.64 -3.08282 -2.91971 0
M  V30 25905 O 2529.66 -2.63227 -2.39979 0
M  V30 25906 O 2528.52 -3.86498 -3.8637 0
M  V30 25907 H 2525.61 -0.5592 -0.609281 0
M  V30 25908 H 2528.16 -1.57955 -0.620351 0
M  V30 25909 H 2526.93 -3.50759 -1.73447 0
M  V30 25910 H 2526.55 -2.48013 -3.10765 0
M  V30 25911 N 2527.55 0.841385 -1.33261 0
M  V30 25912 C 2528.78 1.62861 -1.27608 0
M  V30 25913 C 2529.19 1.88175 0.153474 0
M  V30 25914 O 2528.55 1.46013 1.09482 0
M  V30 25915 C 2528.6 2.98028 -2.04602 0
M  V30 25916 O 2528.32 2.73828 -3.4198 0
M  V30 25917 C 2529.82 3.92461 -2.06129 0
M  V30 25918 H 2527.04 0.506834 -0.439727 0
M  V30 25919 H 2529.59 1.04821 -1.75593 0
M  V30 25920 H 2527.74 3.52677 -1.60305 0
M  V30 25921 H 2528.16 3.59883 -3.81556 0
M  V30 25922 H 2529.63 4.84526 -2.64459 0
M  V30 25923 H 2530.11 4.26442 -1.0509 0
M  V30 25924 H 2530.71 3.43749 -2.50433 0
M  V30 25925 N 2529.03 1.16688 1.05932 0
M  V30 25926 C 2530.25 0.975487 1.83027 0
M  V30 25927 C 2530.68 -0.47142 1.82097 0
M  V30 25928 O 2530.04 -1.33704 1.22446 0
M  V30 25929 C 2530.09 1.51201 3.27369 0
M  V30 25930 O 2529.19 0.720772 4.06053 0
M  V30 25931 H 2528.53 0.346882 0.566188 0
M  V30 25932 H 2531.06 1.55011 1.33539 0
M  V30 25933 H 2531.07 1.53106 3.78183 0
M  V30 25934 H 2529.75 2.56529 3.27362 0
M  V30 25935 H 2528.32 0.772522 3.6481 0
M  V30 25936 N 2530.51 -1.24529 0.96594 0
M  V30 25937 C 2531.42 -2.29162 0.502194 0
M  V30 25938 C 2532.43 -1.68449 -0.435987 0
M  V30 25939 O 2533.61 -1.99008 -0.309462 0
M  V30 25940 C 2530.67 -3.46112 -0.201895 0
M  V30 25941 C 2529.74 -4.2223 0.775895 0
M  V30 25942 C 2528.97 -5.33596 0.105311 0
M  V30 25943 O 2529.19 -5.5956 -1.10674 0
M  V30 25944 O 2528.13 -5.96606 0.796579 0
M  V30 25945 H 2531.95 -2.70943 1.37199 0
M  V30 25946 H 2529.54 -1.30188 0.732898 0
M  V30 25947 H 2531.42 -4.17143 -0.59749 0
M  V30 25948 H 2530.09 -3.06311 -1.04668 0
M  V30 25949 H 2529 -3.53582 1.22191 0
M  V30 25950 H 2530.33 -4.65844 1.58904 0
M  V30 25951 N 2531.99 -0.735845 -1.39367 0
M  V30 25952 C 2533.23 -0.293475 -2.01272 0
M  V30 25953 C 2533.59 1.10725 -1.57346 0
M  V30 25954 O 2532.88 1.74429 -0.792774 0
M  V30 25955 C 2533.07 -0.334714 -3.55829 0
M  V30 25956 C 2532.9 -1.73791 -4.14761 0
M  V30 25957 C 2531.67 -2.35034 -4.47311 0
M  V30 25958 C 2533.87 -2.69164 -4.38241 0
M  V30 25959 N 2531.85 -3.67499 -4.9175 0
M  V30 25960 C 2533.22 -3.86366 -4.84893 0
M  V30 25961 C 2535.28 -2.66916 -4.2031 0
M  V30 25962 C 2533.98 -5.01654 -5.15496 0
M  V30 25963 C 2536.01 -3.81348 -4.52027 0
M  V30 25964 C 2535.37 -4.97284 -4.98886 0
M  V30 25965 H 2531.47 -0.153665 -0.766754 0
M  V30 25966 H 2534.05 -0.961997 -1.69274 0
M  V30 25967 H 2532.22 0.303458 -3.87213 0
M  V30 25968 H 2533.96 0.126287 -4.04503 0
M  V30 25969 H 2530.71 -1.86951 -4.35139 0
M  V30 25970 H 2531.13 -4.35508 -5.18326 0
M  V30 25971 H 2535.78 -1.78475 -3.83284 0
M  V30 25972 H 2533.49 -5.90723 -5.51427 0
M  V30 25973 H 2537.08 -3.80906 -4.39775 0
M  V30 25974 H 2535.96 -5.84362 -5.22963 0
M  V30 25975 N 2533.46 1.49999 -0.483543 0
M  V30 25976 C 2534.71 2.01582 0.0688748 0
M  V30 25977 C 2535.03 1.36954 1.39653 0
M  V30 25978 O 2536.23 1.79765 2.03462 0
M  V30 25979 C 2534.69 3.59483 0.173238 0
M  V30 25980 C 2534.3 4.33075 -1.14672 0
M  V30 25981 C 2536.04 4.19068 0.67695 0
M  V30 25982 C 2533.95 5.8279 -1.00548 0
M  V30 25983 H 2532.88 0.753422 0.0295144 0
M  V30 25984 H 2535.53 1.72697 -0.620325 0
M  V30 25985 H 2533.91 3.85009 0.926501 0
M  V30 25986 H 2535.08 4.19264 -1.91192 0
M  V30 25987 H 2533.4 3.85156 -1.58251 0
M  V30 25988 H 2536 5.28684 0.799859 0
M  V30 25989 H 2536.34 3.81272 1.67144 0
M  V30 25990 H 2536.87 3.97795 -0.0192782 0
M  V30 25991 H 2533.61 6.2508 -1.97371 0
M  V30 25992 H 2533.13 5.99142 -0.280881 0
M  V30 25993 H 2534.81 6.43447 -0.677113 0
M  V30 25994 N 2534.94 0.216646 1.56104 0
M  V30 25995 C 2536.17 -0.424426 2.03011 0
M  V30 25996 C 2536.59 -1.52905 1.09553 0
M  V30 25997 O 2535.95 -1.81111 0.0828232 0
M  V30 25998 C 2536 -0.937822 3.48191 0
M  V30 25999 O 2535.1 -2.04948 3.57869 0
M  V30 26000 H 2534.44 -0.096664 0.656926 0
M  V30 26001 H 2536.97 0.333845 2.01858 0
M  V30 26002 H 2536.98 -1.2489 3.88415 0
M  V30 26003 H 2535.66 -0.129313 4.15699 0
M  V30 26004 H 2534.23 -1.74541 3.2953 0
M  V30 26005 N 2536.42 -1.57498 -0.0567885 0
M  V30 26006 C 2537.64 -1.92602 -0.769368 0
M  V30 26007 C 2538.07 -0.814366 -1.69557 0
M  V30 26008 O 2537.43 0.231871 -1.79811 0
M  V30 26009 C 2537.48 -3.26706 -1.52628 0
M  V30 26010 O 2536.58 -3.16998 -2.63791 0
M  V30 26011 H 2535.92 -0.630284 -0.208898 0
M  V30 26012 H 2538.45 -2.0459 -0.0205438 0
M  V30 26013 H 2538.46 -3.6094 -1.90228 0
M  V30 26014 H 2537.14 -4.07188 -0.846803 0
M  V30 26015 H 2535.71 -2.9435 -2.28938 0
M  V30 26016 N 2537.9 0.328509 -1.54138 0
M  V30 26017 C 2539.13 1.0867 -1.76064 0
M  V30 26018 C 2539.54 1.81868 -0.506884 0
M  V30 26019 O 2538.9 1.7487 0.522192 0
M  V30 26020 C 2538.95 2.08861 -2.95058 0
M  V30 26021 O 2538.67 1.38637 -4.15586 0
M  V30 26022 C 2540.17 2.96937 -3.29155 0
M  V30 26023 H 2537.39 0.323451 -0.587895 0
M  V30 26024 H 2539.93 0.37614 -2.01011 0
M  V30 26025 H 2538.09 2.75459 -2.72399 0
M  V30 26026 H 2538.5 2.05691 -4.82485 0
M  V30 26027 H 2539.98 3.63143 -4.15729 0
M  V30 26028 H 2540.45 3.63769 -2.46107 0
M  V30 26029 H 2541.06 2.35908 -3.53875 0
M  V30 26030 N 2539.38 1.46127 0.590316 0
M  V30 26031 C 2540.6 1.546 1.37501 0
M  V30 26032 C 2541.02 0.18448 1.87897 0
M  V30 26033 O 2540.38 -0.816956 1.63193 0
M  V30 26034 C 2540.43 2.54458 2.56775 0
M  V30 26035 O 2540.15 3.85321 2.08469 0
M  V30 26036 C 2541.65 2.72798 3.49423 0
M  V30 26037 H 2538.87 0.523045 0.420316 0
M  V30 26038 H 2541.41 1.91468 0.71835 0
M  V30 26039 H 2539.57 2.20615 3.18446 0
M  V30 26040 H 2539.98 4.39605 2.8609 0
M  V30 26041 H 2541.46 3.46608 4.29613 0
M  V30 26042 H 2541.93 1.79436 4.00873 0
M  V30 26043 H 2542.54 3.07707 2.93592 0
M  V30 26044 N 2540.85 -0.834306 1.33705 0
M  V30 26045 C 2542.1 -1.5922 1.25606 0
M  V30 26046 C 2542.43 -1.93395 -0.176625 0
M  V30 26047 O 2541.71 -1.59078 -1.11913 0
M  V30 26048 C 2541.99 -2.89923 2.13581 0
M  V30 26049 C 2541.84 -2.624 3.6533 0
M  V30 26050 C 2543.16 -3.91393 2.01245 0
M  V30 26051 H 2540.28 -0.577711 0.457623 0
M  V30 26052 H 2542.92 -0.961943 1.6385 0
M  V30 26053 H 2541.07 -3.4371 1.81096 0
M  V30 26054 H 2542.75 -2.1501 4.08128 0
M  V30 26055 H 2540.99 -1.96026 3.86984 0
M  V30 26056 H 2541.66 -3.55554 4.22238 0
M  V30 26057 H 2544.14 -3.46925 2.29744 0
M  V30 26058 H 2543.01 -4.80669 2.65045 0
M  V30 26059 H 2543.27 -4.30964 0.986026 0
M  V30 26060 N 2542.33 -1.17248 -1.05312 0
M  V30 26061 C 2543.24 -0.902718 -2.16537 0
M  V30 26062 C 2544.26 0.128676 -1.73524 0
M  V30 26063 O 2545.43 -0.0503055 -2.01337 0
M  V30 26064 C 2542.5 -0.418417 -3.44166 0
M  V30 26065 C 2541.56 -1.51625 -4.01632 0
M  V30 26066 C 2540.79 -1.05497 -5.23169 0
M  V30 26067 O 2541.02 0.0913713 -5.70327 0
M  V30 26068 O 2539.95 -1.8475 -5.72845 0
M  V30 26069 H 2543.78 -1.83306 -2.42141 0
M  V30 26070 H 2541.36 -0.953267 -1.15036 0
M  V30 26071 H 2543.24 -0.1558 -4.21112 0
M  V30 26072 H 2541.92 0.483794 -3.20064 0
M  V30 26073 H 2540.82 -1.83273 -3.26131 0
M  V30 26074 H 2542.16 -2.39413 -4.30049 0
M  V30 26075 N 2543.81 1.24015 -0.972531 0
M  V30 26076 C 2544.72 2.28892 -0.51434 0
M  V30 26077 C 2545.74 1.68678 0.427048 0
M  V30 26078 O 2546.91 1.9917 0.298904 0
M  V30 26079 C 2543.98 3.46214 0.183537 0
M  V30 26080 C 2543.04 4.21813 -0.798276 0
M  V30 26081 C 2542.27 5.33533 -0.133608 0
M  V30 26082 O 2542.49 5.60139 1.07704 0
M  V30 26083 O 2541.43 5.96175 -0.828208 0
M  V30 26084 H 2545.25 2.70212 -1.38633 0
M  V30 26085 H 2542.84 1.29798 -0.739792 0
M  V30 26086 H 2544.72 4.17454 0.57536 0
M  V30 26087 H 2543.4 3.06862 1.03042 0
M  V30 26088 H 2542.3 3.52929 -1.24065 0
M  V30 26089 H 2543.64 4.64994 -1.61372 0
M  V30 26090 N 2545.29 0.743226 1.38974 0
M  V30 26091 C 2546.24 0.108651 2.30544 0
M  V30 26092 C 2547.21 -0.720842 1.49643 0
M  V30 26093 O 2548.39 -0.679111 1.78305 0
M  V30 26094 C 2545.53 -0.786437 3.3602 0
M  V30 26095 C 2544.64 0.0565608 4.31963 0
M  V30 26096 C 2543.78 -0.840565 5.24507 0
M  V30 26097 C 2542.82 0.00669122 6.121 0
M  V30 26098 N 2541.95 -0.84682 6.96974 0
M  V30 26099 H 2546.79 0.895138 2.84238 0
M  V30 26100 H 2544.33 0.453072 1.39949 0
M  V30 26101 H 2546.29 -1.31992 3.9577 0
M  V30 26102 H 2544.92 -1.53882 2.83761 0
M  V30 26103 H 2543.97 0.707558 3.73762 0
M  V30 26104 H 2545.28 0.711315 4.93702 0
M  V30 26105 H 2544.44 -1.44159 5.89324 0
M  V30 26106 H 2543.18 -1.52908 4.6311 0
M  V30 26107 H 2542.18 0.620462 5.46288 0
M  V30 26108 H 2543.41 0.692111 6.75564 0
M  V30 26109 H 2541.35 -1.52048 6.38136 0
M  V30 26110 H 2541.27 -0.248731 7.55591 0
M  V30 26111 H 2542.54 -1.43315 7.66212 0
M  V30 26112 N 2546.77 -1.4974 0.491491 0
M  V30 26113 C 2547.71 -2.28946 -0.291986 0
M  V30 26114 C 2548.68 -1.3491 -0.968949 0
M  V30 26115 O 2549.87 -1.63861 -0.977452 0
M  V30 26116 C 2547.01 -3.17338 -1.35611 0
M  V30 26117 C 2546.12 -4.26423 -0.691882 0
M  V30 26118 C 2545.26 -5.02045 -1.73563 0
M  V30 26119 C 2544.3 -6.02979 -1.05276 0
M  V30 26120 N 2543.43 -6.71801 -2.04028 0
M  V30 26121 H 2548.27 -2.95441 0.389706 0
M  V30 26122 H 2545.81 -1.45678 0.204029 0
M  V30 26123 H 2547.77 -3.66954 -1.98495 0
M  V30 26124 H 2546.4 -2.52847 -2.00669 0
M  V30 26125 H 2545.45 -3.80367 0.0500192 0
M  V30 26126 H 2546.76 -4.98563 -0.153858 0
M  V30 26127 H 2545.92 -5.55482 -2.43977 0
M  V30 26128 H 2544.65 -4.29658 -2.3075 0
M  V30 26129 H 2543.66 -5.48782 -0.33435 0
M  V30 26130 H 2544.88 -6.77348 -0.487517 0
M  V30 26131 H 2542.83 -6.02192 -2.60194 0
M  V30 26132 H 2542.75 -7.39884 -1.55266 0
M  V30 26133 H 2544.02 -7.29847 -2.73759 0
M  V30 26134 N 2548.24 -0.224922 -1.55987 0
M  V30 26135 C 2549.66 0.130398 -1.59066 0
M  V30 26136 C 2549.86 1.58688 -1.24179 0
M  V30 26137 O 2548.92 2.32764 -0.978633 0
M  V30 26138 C 2550.23 -0.198935 -3.00041 0
M  V30 26139 C 2551.78 -0.141446 -3.1268 0
M  V30 26140 C 2552.25 -0.444502 -4.55838 0
M  V30 26141 N 2553.74 -0.394196 -4.6152 0
M  V30 26142 C 2554.48 -0.602138 -5.7023 0
M  V30 26143 N 2553.97 -0.872035 -6.8729 0
M  V30 26144 N 2555.77 -0.534344 -5.59554 0
M  V30 26145 H 2547.92 -1.17501 -1.76939 0
M  V30 26146 H 2550.18 -0.471212 -0.822596 0
M  V30 26147 H 2549.89 -1.20995 -3.30232 0
M  V30 26148 H 2549.76 0.48447 -3.74076 0
M  V30 26149 H 2552.15 0.860215 -2.82284 0
M  V30 26150 H 2552.23 -0.858377 -2.40968 0
M  V30 26151 H 2551.87 -1.44362 -4.86952 0
M  V30 26152 H 2551.8 0.29366 -5.25781 0
M  V30 26153 H 2554.29 -0.193422 -3.77405 0
M  V30 26154 H 2554.61 -1.01871 -7.66056 0
M  V30 26155 H 2552.95 -0.909266 -6.89026 0
M  V30 26156 H 2556.14 -0.323694 -4.66979 0
M  V30 26157 H 2556.32 -0.699806 -6.4421 0
M  V30 26158 N 2549.72 1.57526 0.0484352 0
M  V30 26159 C 2550.67 2.05276 1.055 0
M  V30 26160 C 2551.64 0.937951 1.37083 0
M  V30 26161 O 2552.82 1.20723 1.47752 0
M  V30 26162 C 2549.96 2.52097 2.35672 0
M  V30 26163 C 2549.08 3.77292 2.10417 0
M  V30 26164 C 2548.21 4.128 3.3432 0
M  V30 26165 C 2547.25 5.30968 3.04532 0
M  V30 26166 N 2546.39 5.62001 4.20831 0
M  V30 26167 H 2551.23 2.91028 0.640834 0
M  V30 26168 H 2548.77 1.43907 0.304828 0
M  V30 26169 H 2550.72 2.77302 3.11704 0
M  V30 26170 H 2549.35 1.6929 2.74847 0
M  V30 26171 H 2548.41 3.59286 1.2497 0
M  V30 26172 H 2549.72 4.63451 1.8443 0
M  V30 26173 H 2548.87 4.39031 4.18732 0
M  V30 26174 H 2547.61 3.25254 3.63403 0
M  V30 26175 H 2546.62 5.04509 2.18519 0
M  V30 26176 H 2547.84 6.20151 2.76748 0
M  V30 26177 H 2545.79 4.77414 4.49902 0
M  V30 26178 H 2545.7 6.42629 3.98201 0
M  V30 26179 H 2546.97 5.92797 5.06173 0
M  V30 26180 N 2551.2 -0.32033 1.5431 0
M  V30 26181 C 2552.11 -1.4173 1.86948 0
M  V30 26182 C 2553.13 -1.56441 0.761717 0
M  V30 26183 O 2554.3 -1.71475 1.05632 0
M  V30 26184 C 2551.37 -2.76397 2.09297 0
M  V30 26185 C 2550.43 -2.70835 3.33087 0
M  V30 26186 C 2549.66 -3.99079 3.5436 0
M  V30 26187 O 2549.88 -4.97503 2.79011 0
M  V30 26188 O 2548.82 -4.02142 4.47845 0
M  V30 26189 H 2552.64 -1.17057 2.80234 0
M  V30 26190 H 2550.23 -0.514649 1.40256 0
M  V30 26191 H 2552.11 -3.56109 2.25309 0
M  V30 26192 H 2550.79 -3.00954 1.19199 0
M  V30 26193 H 2549.69 -1.89663 3.22458 0
M  V30 26194 H 2551.03 -2.51232 4.23253 0
M  V30 26195 N 2552.68 -1.46438 -0.582558 0
M  V30 26196 C 2553.59 -1.59598 -1.71946 0
M  V30 26197 C 2554.6 -0.479473 -1.67263 0
M  V30 26198 O 2555.78 -0.743612 -1.87169 0
M  V30 26199 C 2552.85 -1.58304 -3.08449 0
M  V30 26200 C 2551.91 -2.81188 -3.24395 0
M  V30 26201 C 2551.14 -2.79945 -4.54386 0
M  V30 26202 O 2551.36 -1.88699 -5.38283 0
M  V30 26203 O 2550.3 -3.71489 -4.73582 0
M  V30 26204 H 2554.12 -2.55747 -1.6379 0
M  V30 26205 H 2551.71 -1.29233 -0.74962 0
M  V30 26206 H 2553.59 -1.60278 -3.89729 0
M  V30 26207 H 2552.26 -0.65315 -3.17042 0
M  V30 26208 H 2551.17 -2.84767 -2.42608 0
M  V30 26209 H 2552.5 -3.73386 -3.20693 0
M  V30 26210 N 2554.16 0.827204 -1.34146 0
M  V30 26211 C 2555.07 1.96973 -1.27432 0
M  V30 26212 C 2556.08 1.73038 -0.182758 0
M  V30 26213 O 2557.26 1.97214 -0.408461 0
M  V30 26214 C 2554.32 3.31192 -1.02532 0
M  V30 26215 C 2553.38 3.68164 -2.20802 0
M  V30 26216 C 2552.62 4.95978 -1.97081 0
M  V30 26217 O 2552.84 5.62818 -0.926921 0
M  V30 26218 O 2551.77 5.30728 -2.83921 0
M  V30 26219 H 2555.6 2.0558 -2.23541 0
M  V30 26220 H 2553.19 0.961969 -1.14309 0
M  V30 26221 H 2555.07 4.11587 -0.904099 0
M  V30 26222 H 2553.74 3.23562 -0.0945958 0
M  V30 26223 H 2552.65 2.88231 -2.38483 0
M  V30 26224 H 2553.98 3.80474 -3.1225 0
M  V30 26225 N 2555.63 1.17805 1.04688 0
M  V30 26226 C 2556.88 0.967648 1.77429 0
M  V30 26227 C 2557.2 -0.50454 1.8836 0
M  V30 26228 O 2556.47 -1.36614 1.40404 0
M  V30 26229 H 2555.05 0.355035 0.657236 0
M  V30 26230 H 2557.72 1.48373 1.26378 0
M  V30 26231 H 2556.81 1.40032 2.78922 0
M  V30 26232 N 2557.11 -1.23497 0.979094 0
M  V30 26233 C 2558.34 -1.95914 0.665236 0
M  V30 26234 C 2558.76 -1.72494 -0.767541 0
M  V30 26235 O 2558.11 -1.01557 -1.51633 0
M  V30 26236 C 2558.16 -3.48943 0.9445 0
M  V30 26237 O 2557.88 -3.71568 2.32096 0
M  V30 26238 C 2559.39 -4.38562 0.646413 0
M  V30 26239 H 2556.61 -0.623794 0.247229 0
M  V30 26240 H 2559.15 -1.57022 1.31012 0
M  V30 26241 H 2557.3 -3.85855 0.345643 0
M  V30 26242 H 2557.72 -4.65871 2.40965 0
M  V30 26243 H 2559.19 -5.44742 0.892186 0
M  V30 26244 H 2559.67 -4.37192 -0.419498 0
M  V30 26245 H 2560.28 -4.07255 1.22569 0
M  V30 26246 N 2558.59 -0.750586 -1.38578 0
M  V30 26247 C 2559.82 -0.316134 -2.04471 0
M  V30 26248 C 2560.23 1.05449 -1.56608 0
M  V30 26249 O 2559.59 1.66921 -0.737813 0
M  V30 26250 C 2559.64 -0.326338 -3.60024 0
M  V30 26251 O 2559.36 -1.64287 -4.0613 0
M  V30 26252 C 2560.86 0.122351 -4.43131 0
M  V30 26253 H 2558.08 -0.13554 -0.657168 0
M  V30 26254 H 2560.63 -1.0186 -1.77327 0
M  V30 26255 H 2558.78 0.327363 -3.86014 0
M  V30 26256 H 2559.2 -1.56701 -5.00545 0
M  V30 26257 H 2560.67 0.0640503 -5.51963 0
M  V30 26258 H 2561.15 1.16981 -4.23335 0
M  V30 26259 H 2561.75 -0.502364 -4.22323 0
M  V30 26260 N 2560.07 1.49477 -0.499425 0
M  V30 26261 C 2561.32 2.02049 0.0455641 0
M  V30 26262 C 2561.64 1.38141 1.3763 0
M  V30 26263 O 2560.91 0.536199 1.88419 0
M  V30 26264 H 2559.49 0.746737 0.0198285 0
M  V30 26265 H 2562.15 1.83517 -0.656307 0
M  V30 26266 H 2561.25 3.11601 0.17639 0
M  V30 26267 N 2561.55 0.233191 1.55865 0
M  V30 26268 C 2562.78 -0.39987 2.02999 0
M  V30 26269 C 2563.19 -1.52522 1.11277 0
M  V30 26270 O 2562.55 -1.82074 0.12456 0
M  V30 26271 C 2562.6 -0.920578 3.49582 0
M  V30 26272 O 2562.32 0.159911 4.37808 0
M  V30 26273 C 2563.82 -1.62571 4.12414 0
M  V30 26274 H 2561.04 -0.0966164 0.664008 0
M  V30 26275 H 2563.58 0.353048 2.01429 0
M  V30 26276 H 2561.74 -1.62372 3.5173 0
M  V30 26277 H 2562.15 -0.233278 5.23981 0
M  V30 26278 H 2563.63 -1.94192 5.16714 0
M  V30 26279 H 2564.1 -2.54293 3.58095 0
M  V30 26280 H 2564.71 -0.96748 4.1415 0
M  V30 26281 N 2563.03 -1.57549 -0.0400806 0
M  V30 26282 C 2563.99 -2.04819 -1.02868 0
M  V30 26283 C 2564.99 -0.950411 -1.29707 0
M  V30 26284 O 2566.18 -1.21437 -1.24895 0
M  V30 26285 C 2563.31 -2.4558 -2.36438 0
M  V30 26286 H 2564.5 -2.93409 -0.620579 0
M  V30 26287 H 2562.06 -1.53649 -0.28664 0
M  V30 26288 H 2562.79 -1.60113 -2.82018 0
M  V30 26289 H 2562.58 -3.25717 -2.18291 0
M  V30 26290 H 2564.07 -2.82618 -3.07436 0
M  V30 26291 N 2564.5 0.312142 -1.54478 0
M  V30 26292 C 2565.73 1.07232 -1.77528 0
M  V30 26293 C 2566.15 1.80543 -0.527807 0
M  V30 26294 O 2565.51 1.73647 0.521179 0
M  V30 26295 C 2565.56 2.03723 -2.97539 0
M  V30 26296 O 2564.66 3.11828 -2.69884 0
M  V30 26297 H 2564 0.308609 -0.587925 0
M  V30 26298 H 2566.53 0.352957 -2.01533 0
M  V30 26299 H 2566.54 2.46389 -3.25202 0
M  V30 26300 H 2565.22 1.49767 -3.87998 0
M  V30 26301 H 2563.8 2.73755 -2.53204 0
M  V30 26302 N 2565.98 1.46745 0.574784 0
M  V30 26303 C 2567.21 1.56049 1.35854 0
M  V30 26304 C 2567.62 0.204398 1.8769 0
M  V30 26305 O 2566.98 -0.799601 1.64051 0
M  V30 26306 C 2567.03 2.57168 2.54061 0
M  V30 26307 O 2566.75 3.8751 2.04371 0
M  V30 26308 C 2568.25 2.76489 3.4651 0
M  V30 26309 H 2565.47 0.527473 0.414744 0
M  V30 26310 H 2568.02 1.92219 0.698001 0
M  V30 26311 H 2566.17 2.2398 3.16088 0
M  V30 26312 H 2566.59 4.42615 2.81411 0
M  V30 26313 H 2568.06 3.51145 4.25912 0
M  V30 26314 H 2568.54 1.83678 3.98947 0
M  V30 26315 H 2569.14 3.10804 2.90312 0
M  V30 26316 N 2567.46 -0.820078 1.34583 0
M  V30 26317 C 2568.71 -1.57645 1.27099 0
M  V30 26318 C 2569.03 -1.93855 -0.158283 0
M  V30 26319 O 2568.29 -1.60465 -1.12025 0
M  V30 26320 C 2568.59 -2.88466 2.11002 0
M  V30 26321 C 2568.25 -2.71536 3.59971 0
M  V30 26322 C 2566.92 -2.66627 4.00579 0
M  V30 26323 C 2569.27 -2.55013 4.54552 0
M  V30 26324 C 2566.6 -2.43119 5.33957 0
M  V30 26325 C 2568.95 -2.33037 5.88113 0
M  V30 26326 C 2567.61 -2.26541 6.27882 0
M  V30 26327 H 2566.88 -0.576865 0.465089 0
M  V30 26328 H 2569.53 -0.948642 1.66352 0
M  V30 26329 H 2567.83 -3.55554 1.64586 0
M  V30 26330 H 2569.53 -3.46081 2.02556 0
M  V30 26331 H 2566.12 -2.76199 3.27738 0
M  V30 26332 H 2570.31 -2.57828 4.24074 0
M  V30 26333 H 2565.56 -2.3655 5.63786 0
M  V30 26334 H 2569.74 -2.1924 6.60989 0
M  V30 26335 H 2567.36 -2.08087 7.31166 0
M  V30 26336 N 2568.94 -1.18359 -1.04062 0
M  V30 26337 C 2569.85 -0.925634 -2.15567 0
M  V30 26338 C 2570.86 0.110265 -1.7365 0
M  V30 26339 O 2572.04 -0.0716572 -2.01272 0
M  V30 26340 C 2569.1 -0.454897 -3.43703 0
M  V30 26341 C 2568.17 -1.55877 -4.00001 0
M  V30 26342 C 2567.4 -1.11039 -5.22021 0
M  V30 26343 O 2567.62 0.0308754 -5.70392 0
M  V30 26344 O 2566.56 -1.90815 -5.70853 0
M  V30 26345 H 2570.38 -1.85864 -2.40183 0
M  V30 26346 H 2567.97 -0.965414 -1.14018 0
M  V30 26347 H 2569.85 -0.200456 -4.20923 0
M  V30 26348 H 2568.52 0.449819 -3.20559 0
M  V30 26349 H 2567.43 -1.86722 -3.24169 0
M  V30 26350 H 2568.76 -2.43961 -4.27486 0
M  V30 26351 N 2570.42 1.22976 -0.98563 0
M  V30 26352 C 2571.66 1.91815 -0.658393 0
M  V30 26353 C 2571.99 1.76654 0.806661 0
M  V30 26354 O 2571.27 1.13081 1.5825 0
M  V30 26355 C 2571.55 3.44266 -1.05606 0
M  V30 26356 C 2571.41 3.68512 -2.57913 0
M  V30 26357 C 2572.72 4.35938 -0.603857 0
M  V30 26358 H 2569.84 0.696599 -0.240662 0
M  V30 26359 H 2572.49 1.44996 -1.22785 0
M  V30 26360 H 2570.64 3.84273 -0.571513 0
M  V30 26361 H 2572.31 3.37954 -3.13982 0
M  V30 26362 H 2570.55 3.13043 -3.00311 0
M  V30 26363 H 2571.22 4.7525 -2.80788 0
M  V30 26364 H 2573.7 4.03406 -1.01994 0
M  V30 26365 H 2572.57 5.41296 -0.910478 0
M  V30 26366 H 2572.83 4.39312 0.495684 0
M  V30 26367 N 2571.89 0.757924 1.38178 0
M  V30 26368 C 2573.12 0.326499 2.04004 0
M  V30 26369 C 2573.53 -1.05153 1.57288 0
M  V30 26370 O 2572.87 -1.67996 0.743174 0
M  V30 26371 C 2572.94 0.275465 3.58443 0
M  V30 26372 C 2572.6 1.59577 4.28234 0
M  V30 26373 C 2573.6 2.54574 4.53308 0
M  V30 26374 C 2571.28 1.8664 4.66338 0
M  V30 26375 C 2573.28 3.74851 5.15525 0
M  V30 26376 C 2570.96 3.0719 5.28278 0
M  V30 26377 C 2571.96 4.01115 5.52807 0
M  V30 26378 O 2571.65 5.19545 6.13456 0
M  V30 26379 H 2571.38 0.136751 0.662024 0
M  V30 26380 H 2573.94 1.02896 1.77768 0
M  V30 26381 H 2572.17 -0.483269 3.83668 0
M  V30 26382 H 2573.85 -0.127027 4.05701 0
M  V30 26383 H 2574.62 2.34944 4.24295 0
M  V30 26384 H 2570.5 1.14366 4.46589 0
M  V30 26385 H 2574.04 4.48178 5.34586 0
M  V30 26386 H 2569.94 3.26711 5.56714 0
M  V30 26387 H 2570.71 5.20184 6.31942 0
M  V30 26388 N 2573.37 -1.4921 0.507345 0
M  V30 26389 C 2574.6 -2.07373 -0.0336885 0
M  V30 26390 C 2575.02 -1.3644 -1.29483 0
M  V30 26391 O 2574.38 -0.423118 -1.76294 0
M  V30 26392 C 2574.43 -3.59633 -0.263882 0
M  V30 26393 O 2573.53 -3.90115 -1.33731 0
M  V30 26394 H 2572.87 -0.663364 0.0290447 0
M  V30 26395 H 2575.4 -1.91931 0.708783 0
M  V30 26396 H 2575.41 -4.05005 -0.493464 0
M  V30 26397 H 2574.09 -4.1067 0.657496 0
M  V30 26398 H 2572.67 -3.56547 -1.09217 0
M  V30 26399 N 2574.85 -0.241454 -1.55739 0
M  V30 26400 C 2576.08 0.392076 -2.0366 0
M  V30 26401 C 2576.5 1.51142 -1.11971 0
M  V30 26402 O 2575.86 1.80956 -0.111626 0
M  V30 26403 C 2575.91 0.882309 -3.49639 0
M  V30 26404 O 2575.01 1.99229 -3.61084 0
M  V30 26405 H 2574.35 0.0862006 -0.658381 0
M  V30 26406 H 2576.88 -0.365917 -2.01301 0
M  V30 26407 H 2576.89 1.18695 -3.90353 0
M  V30 26408 H 2575.57 0.063163 -4.15852 0
M  V30 26409 H 2574.14 1.69276 -3.32265 0
M  V30 26410 N 2576.33 1.57568 0.0317248 0
M  V30 26411 C 2577.56 1.93408 0.734915 0
M  V30 26412 C 2577.97 0.84099 1.69035 0
M  V30 26413 O 2577.33 -0.182804 1.81582 0
M  V30 26414 C 2577.38 3.29172 1.49426 0
M  V30 26415 O 2577.1 4.34281 0.577184 0
M  V30 26416 C 2578.6 3.79277 2.29485 0
M  V30 26417 H 2575.82 0.638372 0.206694 0
M  V30 26418 H 2578.37 2.04498 -0.0099564 0
M  V30 26419 H 2576.52 3.19487 2.19104 0
M  V30 26420 H 2576.93 5.12632 1.10943 0
M  V30 26421 H 2578.41 4.7679 2.78164 0
M  V30 26422 H 2578.89 3.10334 3.10789 0
M  V30 26423 H 2579.49 3.92036 1.64887 0
M  V30 26424 N 2577.81 -0.303946 1.54641 0
M  V30 26425 C 2578.74 -1.39633 1.81756 0
M  V30 26426 C 2579.75 -1.46965 0.700376 0
M  V30 26427 O 2580.94 -1.49336 0.977807 0
M  V30 26428 C 2578.04 -2.78027 1.93789 0
M  V30 26429 C 2577.21 -2.93663 3.24161 0
M  V30 26430 C 2576.27 -4.12538 3.26648 0
M  V30 26431 O 2575.3 -4.04764 4.00194 0
M  V30 26432 N 2576.5 -5.23032 2.51829 0
M  V30 26433 H 2579.27 -1.16729 2.76033 0
M  V30 26434 H 2576.83 -0.494006 1.54179 0
M  V30 26435 H 2578.82 -3.55792 1.92858 0
M  V30 26436 H 2577.39 -2.93891 1.0652 0
M  V30 26437 H 2576.61 -2.03036 3.37891 0
M  V30 26438 H 2577.9 -3.0102 4.10201 0
M  V30 26439 H 2577.29 -5.32228 1.91702 0
M  V30 26440 H 2575.85 -5.99142 2.56654 0
M  V30 26441 N 2579.28 -1.47047 -0.566994 0
M  V30 26442 C 2580.7 -1.32349 -0.891951 0
M  V30 26443 C 2580.9 -0.306651 -1.99153 0
M  V30 26444 O 2579.96 0.285276 -2.50883 0
M  V30 26445 C 2581.27 -2.71413 -1.29444 0
M  V30 26446 C 2582.82 -2.79623 -1.40641 0
M  V30 26447 C 2583.29 -4.19304 -1.8425 0
M  V30 26448 N 2584.78 -4.21798 -1.91417 0
M  V30 26449 C 2585.52 -5.26783 -2.26467 0
M  V30 26450 N 2585.01 -6.42081 -2.60199 0
M  V30 26451 N 2586.81 -5.14156 -2.27157 0
M  V30 26452 H 2578.96 -2.11803 0.159111 0
M  V30 26453 H 2581.22 -0.947962 0.00851418 0
M  V30 26454 H 2580.93 -3.47207 -0.560387 0
M  V30 26455 H 2580.8 -3.02546 -2.25268 0
M  V30 26456 H 2583.19 -2.04107 -2.1313 0
M  V30 26457 H 2583.27 -2.52155 -0.430294 0
M  V30 26458 H 2582.91 -4.95321 -1.12335 0
M  V30 26459 H 2582.84 -4.4419 -2.82847 0
M  V30 26460 H 2585.33 -3.38615 -1.67774 0
M  V30 26461 H 2585.65 -7.17953 -2.85943 0
M  V30 26462 H 2583.99 -6.45417 -2.57802 0
M  V30 26463 H 2587.18 -4.23111 -2.00237 0
M  V30 26464 H 2587.36 -5.96083 -2.54144 0
M  V30 26465 N 2580.76 0.812929 -1.35016 0
M  V30 26466 C 2581.99 1.60636 -1.3119 0
M  V30 26467 C 2582.41 1.87782 0.109349 0
M  V30 26468 O 2581.77 1.46049 1.07421 0
M  V30 26469 C 2581.82 2.91834 -2.11814 0
M  V30 26470 O 2580.92 3.84367 -1.49451 0
M  V30 26471 H 2580.26 0.488173 -0.450092 0
M  V30 26472 H 2582.79 1.00944 -1.77965 0
M  V30 26473 H 2582.8 3.41314 -2.23537 0
M  V30 26474 H 2581.48 2.71401 -3.15142 0
M  V30 26475 H 2580.06 3.42904 -1.4653 0
M  V30 26476 N 2582.24 1.18909 1.03433 0
M  V30 26477 C 2583.52 0.897841 1.73776 0
M  V30 26478 C 2583.9 -0.597796 2.02459 0
M  V30 26479 O 2583.25 -1.55438 1.67485 0
M  V30 26480 C 2583.46 1.75192 3.01842 0
M  V30 26481 C 2584.8 1.98286 3.75457 0
M  V30 26482 O 2585.83 1.72298 3.11756 0
M  V30 26483 O 2584.69 2.42074 4.89962 0
M  V30 26484 H 2581.78 0.334112 0.756504 0
M  V30 26485 H 2584.33 1.29695 1.09441 0
M  V30 26486 H 2583.1 2.7655 2.76831 0
M  V30 26487 H 2582.72 1.35174 3.73917 0
M  V30 26488 N 2583.72 -1.22452 0.992137 0
M  V30 26489 C 2584.65 -2.23678 0.500063 0
M  V30 26490 C 2585.66 -1.57696 -0.404435 0
M  V30 26491 O 2586.85 -1.77299 -0.206691 0
M  V30 26492 C 2583.95 -3.37617 -0.294651 0
M  V30 26493 C 2583.13 -4.33185 0.605799 0
M  V30 26494 C 2582.18 -5.26021 -0.137077 0
M  V30 26495 O 2581.21 -5.67196 0.477263 0
M  V30 26496 N 2582.41 -5.62874 -1.4196 0
M  V30 26497 H 2585.18 -2.66528 1.3705 0
M  V30 26498 H 2582.74 -1.36744 0.866765 0
M  V30 26499 H 2584.73 -3.96709 -0.80026 0
M  V30 26500 H 2583.3 -2.93856 -1.06618 0
M  V30 26501 H 2582.52 -3.72423 1.29209 0
M  V30 26502 H 2583.81 -4.9398 1.21905 0
M  V30 26503 H 2583.21 -5.31393 -1.94006 0
M  V30 26504 H 2581.76 -6.24387 -1.87041 0
M  V30 26505 N 2585.2 -0.765242 -1.37774 0
M  V30 26506 C 2586.13 -0.160994 -2.32944 0
M  V30 26507 C 2587.11 0.690488 -1.55455 0
M  V30 26508 O 2588.29 0.629286 -1.83722 0
M  V30 26509 C 2585.42 0.723971 -3.3967 0
M  V30 26510 C 2584.38 -0.0256925 -4.27992 0
M  V30 26511 C 2583.7 0.97829 -5.25674 0
M  V30 26512 C 2585 -1.20091 -5.08306 0
M  V30 26513 H 2586.7 -0.956019 -2.83726 0
M  V30 26514 H 2584.24 -0.461173 -1.36416 0
M  V30 26515 H 2586.2 1.15645 -4.05221 0
M  V30 26516 H 2584.92 1.55144 -2.87398 0
M  V30 26517 H 2583.58 -0.438876 -3.63964 0
M  V30 26518 H 2583.23 1.80014 -4.69685 0
M  V30 26519 H 2582.93 0.481275 -5.85626 0
M  V30 26520 H 2584.45 1.40984 -5.94101 0
M  V30 26521 H 2585.86 -0.845407 -5.67032 0
M  V30 26522 H 2584.26 -1.62957 -5.77551 0
M  V30 26523 H 2585.33 -2.00819 -4.41361 0
M  V30 26524 N 2586.67 1.48939 -0.515251 0
M  V30 26525 C 2587.92 2.01683 0.0261007 0
M  V30 26526 C 2588.24 1.39886 1.36716 0
M  V30 26527 O 2589.44 1.84041 1.99603 0
M  V30 26528 C 2587.9 3.59769 0.0969479 0
M  V30 26529 C 2587.51 4.30545 -1.23833 0
M  V30 26530 C 2589.25 4.20409 0.587908 0
M  V30 26531 C 2587.16 5.80526 -1.12887 0
M  V30 26532 H 2586.09 0.753879 0.0135266 0
M  V30 26533 H 2588.74 1.71342 -0.656817 0
M  V30 26534 H 2587.12 3.86888 0.844626 0
M  V30 26535 H 2588.29 4.15114 -2.00042 0
M  V30 26536 H 2586.61 3.81713 -1.66385 0
M  V30 26537 H 2589.21 5.30261 0.687537 0
M  V30 26538 H 2589.55 3.84732 1.59019 0
M  V30 26539 H 2590.08 3.97665 -0.103652 0
M  V30 26540 H 2586.82 6.20753 -2.10586 0
M  V30 26541 H 2586.34 5.98411 -0.407905 0
M  V30 26542 H 2588.02 6.41866 -0.813445 0
M  V30 26543 N 2588.15 0.249709 1.55609 0
M  V30 26544 C 2589.08 -0.642787 2.24478 0
M  V30 26545 C 2590.06 -1.17909 1.22603 0
M  V30 26546 O 2591.25 -1.21792 1.51263 0
M  V30 26547 C 2588.38 -1.83858 2.94641 0
M  V30 26548 C 2587.33 -1.43493 4.03229 0
M  V30 26549 C 2586.66 -2.71178 4.60833 0
M  V30 26550 C 2587.96 -0.60391 5.18797 0
M  V30 26551 H 2589.65 -0.0685099 2.99322 0
M  V30 26552 H 2587.2 -0.031511 1.43966 0
M  V30 26553 H 2589.15 -2.46862 3.41522 0
M  V30 26554 H 2587.88 -2.43828 2.17291 0
M  V30 26555 H 2586.54 -0.828212 3.57122 0
M  V30 26556 H 2586.18 -3.29352 3.8018 0
M  V30 26557 H 2585.88 -2.44892 5.34137 0
M  V30 26558 H 2587.41 -3.35075 5.10448 0
M  V30 26559 H 2588.82 -1.13832 5.61885 0
M  V30 26560 H 2587.22 -0.436992 5.98507 0
M  V30 26561 H 2588.29 0.383232 4.83383 0
M  V30 26562 N 2589.63 -1.57583 -0.0233682 0
M  V30 26563 C 2591.04 -1.7781 -0.569239 0
M  V30 26564 C 2591.39 -0.881503 -1.75283 0
M  V30 26565 O 2590.52 -0.0778186 -2.1626 0
M  V30 26566 C 2591.11 -3.22461 -1.03944 0
M  V30 26567 C 2589.67 -3.43866 -1.53078 0
M  V30 26568 C 2588.82 -2.73264 -0.471406 0
M  V30 26569 H 2591.77 -1.57398 0.202852 0
M  V30 26570 H 2591.79 -3.29289 -1.90655 0
M  V30 26571 H 2591.3 -3.87693 -0.177796 0
M  V30 26572 H 2589.4 -2.83818 -2.41409 0
M  V30 26573 H 2589.52 -4.52494 -1.57436 0
M  V30 26574 H 2587.88 -2.37202 -0.927746 0
M  V30 26575 H 2588.66 -3.41181 0.380868 0
M  V30 26576 N 2591.11 0.29574 -1.548 0
M  V30 26577 C 2592.36 1.03029 -1.74331 0
M  V30 26578 C 2592.68 1.87084 -0.531948 0
M  V30 26579 O 2591.94 1.89569 0.486019 0
M  V30 26580 C 2592.24 1.96094 -2.98801 0
M  V30 26581 C 2591.9 1.27973 -4.32358 0
M  V30 26582 C 2590.57 1.09127 -4.68663 0
M  V30 26583 C 2592.92 0.793153 -5.1513 0
M  V30 26584 C 2590.25 0.403166 -5.85313 0
M  V30 26585 C 2592.6 0.118743 -6.32489 0
M  V30 26586 C 2591.26 -0.0816217 -6.6745 0
M  V30 26587 H 2590.53 0.377009 -0.637923 0
M  V30 26588 H 2593.18 0.304663 -1.89061 0
M  V30 26589 H 2591.48 2.75203 -2.78874 0
M  V30 26590 H 2593.18 2.53009 -3.11107 0
M  V30 26591 H 2589.77 1.43648 -4.03811 0
M  V30 26592 H 2593.96 0.926444 -4.87576 0
M  V30 26593 H 2589.21 0.236991 -6.10941 0
M  V30 26594 H 2593.39 -0.266157 -6.95891 0
M  V30 26595 H 2591.01 -0.616818 -7.57693 0
M  V30 26596 N 2592.59 1.47346 0.559187 0
M  V30 26597 C 2593.5 1.62314 1.69386 0
M  V30 26598 C 2594.51 0.506022 1.66479 0
M  V30 26599 O 2595.69 0.773295 1.85963 0
M  V30 26600 C 2592.75 1.63191 3.05892 0
M  V30 26601 C 2591.82 2.86313 3.1988 0
M  V30 26602 C 2591.05 2.87139 4.49874 0
M  V30 26603 O 2591.27 1.97239 5.35213 0
M  V30 26604 O 2590.21 3.78976 4.67612 0
M  V30 26605 H 2594.03 2.5832 1.59701 0
M  V30 26606 H 2591.62 1.30409 0.728966 0
M  V30 26607 H 2593.5 1.66458 3.8713 0
M  V30 26608 H 2592.17 0.703506 3.15963 0
M  V30 26609 H 2591.08 2.88591 2.38046 0
M  V30 26610 H 2592.41 3.78441 3.14712 0
M  V30 26611 N 2594.07 -0.805758 1.35445 0
M  V30 26612 C 2595 -1.93224 1.31099 0
M  V30 26613 C 2595.98 -1.69088 0.185274 0
M  V30 26614 O 2597.16 -1.90439 0.380366 0
M  V30 26615 C 2594.29 -3.29981 1.08305 0
M  V30 26616 C 2593.25 -3.68601 2.17526 0
M  V30 26617 C 2592.57 -5.03529 1.79896 0
M  V30 26618 C 2593.87 -3.78892 3.59497 0
M  V30 26619 H 2595.57 -1.97118 2.25355 0
M  V30 26620 H 2593.11 -0.946977 1.08482 0
M  V30 26621 H 2595.06 -4.08389 1.03904 0
M  V30 26622 H 2593.79 -3.26431 0.104942 0
M  V30 26623 H 2592.45 -2.92478 2.21025 0
M  V30 26624 H 2592.1 -4.96484 0.807017 0
M  V30 26625 H 2591.8 -5.30339 2.5301 0
M  V30 26626 H 2593.32 -5.84376 1.77022 0
M  V30 26627 H 2594.73 -4.4753 3.58315 0
M  V30 26628 H 2593.13 -4.17173 4.31378 0
M  V30 26629 H 2594.2 -2.80424 3.95589 0
M  V30 26630 N 2595.54 -1.19456 -1.02801 0
M  V30 26631 C 2596.45 -0.948445 -2.14573 0
M  V30 26632 C 2597.47 0.0918405 -1.73757 0
M  V30 26633 O 2598.65 -0.0930008 -2.01185 0
M  V30 26634 C 2595.71 -0.491326 -3.43201 0
M  V30 26635 C 2594.77 -1.6011 -3.98325 0
M  V30 26636 C 2594 -1.1657 -5.20814 0
M  V30 26637 O 2594.23 -0.029624 -5.70392 0
M  V30 26638 O 2593.16 -1.96859 -5.68797 0
M  V30 26639 H 2596.99 -1.88401 -2.38199 0
M  V30 26640 H 2594.57 -0.977453 -1.12988 0
M  V30 26641 H 2596.45 -0.245089 -4.20687 0
M  V30 26642 H 2595.13 0.415794 -3.21018 0
M  V30 26643 H 2594.04 -1.9015 -3.22171 0
M  V30 26644 H 2595.37 -2.48481 -4.24874 0
M  V30 26645 N 2597.02 1.21924 -0.998617 0
M  V30 26646 C 2598.25 1.95371 -0.69605 0
M  V30 26647 C 2598.67 1.73197 0.733795 0
M  V30 26648 O 2598.03 1.01477 1.5024 0
M  V30 26649 C 2598.08 3.46029 -1.01472 0
M  V30 26650 O 2597.18 4.12235 -0.116487 0
M  V30 26651 H 2596.52 0.611001 -0.259949 0
M  V30 26652 H 2599.05 1.5486 -1.33714 0
M  V30 26653 H 2599.06 3.96571 -0.958924 0
M  V30 26654 H 2597.74 3.61493 -2.05659 0
M  V30 26655 H 2596.31 3.72201 -0.228258 0
M  V30 26656 N 2598.5 0.772537 1.37367 0
M  V30 26657 C 2599.91 0.402525 1.82309 0
M  V30 26658 C 2600.26 -1.07144 1.64362 0
M  V30 26659 O 2599.39 -1.82988 1.15517 0
M  V30 26660 C 2599.98 0.723835 3.30977 0
M  V30 26661 C 2598.54 0.406868 3.74195 0
M  V30 26662 C 2597.69 0.967264 2.59883 0
M  V30 26663 H 2600.64 0.967121 1.25827 0
M  V30 26664 H 2600.66 0.0087752 3.80499 0
M  V30 26665 H 2600.17 1.79666 3.44008 0
M  V30 26666 H 2598.27 -0.658608 3.66733 0
M  V30 26667 H 2598.39 0.915671 4.70268 0
M  V30 26668 H 2596.75 0.39146 2.51674 0
M  V30 26669 H 2597.53 2.04551 2.75706 0
M  V30 26670 N 2599.98 -1.48664 0.523142 0
M  V30 26671 C 2600.93 -2.31178 -0.256818 0
M  V30 26672 C 2601.92 -1.40796 -0.941965 0
M  V30 26673 O 2603.13 -1.57737 -0.867129 0
M  V30 26674 H 2599.5 -0.745093 -0.101687 0
M  V30 26675 H 2601.47 -2.94852 0.458791 0
M  V30 26676 C 2600.22 -3.22685 -1.29498 0
M  V30 26677 H 2599.54 -3.92173 -0.777179 0
M  V30 26678 H 2600.98 -3.83318 -1.81226 0
M  V30 26679 C 2599.44 -2.43817 -2.32497 0
M  V30 26680 O 2599.97 -2.15808 -3.38806 0
M  V30 26681 N 2598.18 -2.05436 -2.05534 0
M  V30 26682 H 2597.73 -2.28414 -1.191 0
M  V30 26683 H 2597.68 -1.52977 -2.74673 0
M  V30 26684 N 2601.46 -0.257958 -1.55475 0
M  V30 26685 C 2602.7 0.364231 -1.99502 0
M  V30 26686 C 2603.03 1.5678 -1.14603 0
M  V30 26687 O 2602.31 1.93341 -0.212002 0
M  V30 26688 C 2602.59 0.763272 -3.51918 0
M  V30 26689 C 2602.45 -0.44645 -4.47579 0
M  V30 26690 C 2603.76 1.60615 -4.09745 0
M  V30 26691 H 2600.88 0.130916 -0.725279 0
M  V30 26692 H 2603.53 -0.361479 -1.8653 0
M  V30 26693 H 2601.68 1.3816 -3.63103 0
M  V30 26694 H 2603.35 -1.08495 -4.4836 0
M  V30 26695 H 2601.59 -1.0876 -4.19945 0
M  V30 26696 H 2602.26 -0.123742 -5.51861 0
M  V30 26697 H 2604.74 1.08411 -4.01729 0
M  V30 26698 H 2603.61 1.8542 -5.16634 0
M  V30 26699 H 2603.87 2.58163 -3.58893 0
M  V30 26700 N 2602.93 1.57593 0.0150108 0
M  V30 26701 C 2603.9 2.0643 0.99596 0
M  V30 26702 C 2604.9 0.970926 1.28178 0
M  V30 26703 O 2606.09 1.23409 1.22947 0
M  V30 26704 C 2603.22 2.49311 2.32502 0
M  V30 26705 H 2604.41 2.94359 0.573822 0
M  V30 26706 H 2601.97 1.54086 0.262159 0
M  V30 26707 H 2602.7 1.6458 2.79435 0
M  V30 26708 H 2602.49 3.29149 2.13081 0
M  V30 26709 H 2603.98 2.87473 3.02901 0
M  V30 26710 N 2604.41 -0.287527 1.54955 0
M  V30 26711 C 2605.64 -1.03964 1.78883 0
M  V30 26712 C 2606.06 -1.80461 0.554925 0
M  V30 26713 O 2605.41 -1.76193 -0.475645 0
M  V30 26714 C 2605.46 -2.00965 3.00492 0
M  V30 26715 O 2605.18 -1.27569 4.19115 0
M  V30 26716 C 2606.69 -2.88106 3.36912 0
M  V30 26717 H 2603.91 -0.30775 0.596264 0
M  V30 26718 H 2606.45 -0.322713 2.01938 0
M  V30 26719 H 2604.6 -2.6814 2.79606 0
M  V30 26720 H 2605.02 -1.92826 4.87769 0
M  V30 26721 H 2606.49 -3.51993 4.25211 0
M  V30 26722 H 2606.97 -3.57116 2.55665 0
M  V30 26723 H 2607.58 -2.26442 3.60005 0
M  V30 26724 N 2605.89 -1.47641 -0.551365 0
M  V30 26725 C 2607.12 -1.58439 -1.33835 0
M  V30 26726 C 2607.54 -0.237096 -1.866 0
M  V30 26727 O 2606.9 0.787965 -1.63281 0
M  V30 26728 C 2606.95 -2.6177 -2.4801 0
M  V30 26729 O 2606.05 -2.17446 -3.50415 0
M  V30 26730 H 2605.39 -0.532031 -0.397289 0
M  V30 26731 H 2607.92 -1.93466 -0.665725 0
M  V30 26732 H 2607.93 -2.82374 -2.94498 0
M  V30 26733 H 2606.61 -3.59594 -2.08962 0
M  V30 26734 H 2605.18 -2.06966 -3.10193 0
M  V30 26735 N 2607.37 0.798563 -1.3587 0
M  V30 26736 C 2608.59 1.59236 -1.32886 0
M  V30 26737 C 2609.02 1.87887 0.0894257 0
M  V30 26738 O 2608.38 1.4718 1.05866 0
M  V30 26739 C 2608.42 2.89571 -2.14897 0
M  V30 26740 O 2607.53 3.82761 -1.53519 0
M  V30 26741 H 2606.87 0.483372 -0.455245 0
M  V30 26742 H 2609.4 0.990507 -1.79025 0
M  V30 26743 H 2609.41 3.38924 -2.27145 0
M  V30 26744 H 2608.08 2.68043 -3.18003 0
M  V30 26745 H 2606.66 3.41331 -1.50159 0
M  V30 26746 N 2608.85 1.19999 1.02166 0
M  V30 26747 C 2610.12 0.916221 1.72814 0
M  V30 26748 C 2610.5 -0.576289 2.03082 0
M  V30 26749 O 2609.85 -1.53653 1.69124 0
M  V30 26750 C 2610.06 1.78384 2.99967 0
M  V30 26751 C 2611.41 2.02257 3.73332 0
M  V30 26752 O 2612.43 1.75595 3.09911 0
M  V30 26753 O 2611.29 2.47257 4.87367 0
M  V30 26754 H 2608.39 0.342117 0.752918 0
M  V30 26755 H 2610.93 1.30848 1.0806 0
M  V30 26756 H 2609.7 2.79471 2.73883 0
M  V30 26757 H 2609.33 1.39132 3.72462 0
M  V30 26758 N 2610.32 -1.21392 1.00507 0
M  V30 26759 C 2611.55 -1.94999 0.706401 0
M  V30 26760 C 2611.97 -1.73583 -0.7246 0
M  V30 26761 O 2611.33 -1.02272 -1.497 0
M  V30 26762 C 2611.38 -3.45486 1.03306 0
M  V30 26763 O 2610.48 -4.12168 0.138347 0
M  V30 26764 H 2609.83 -0.609614 0.263186 0
M  V30 26765 H 2612.36 -1.54149 1.34533 0
M  V30 26766 H 2612.37 -3.96057 0.979942 0
M  V30 26767 H 2611.04 -3.60397 2.07573 0
M  V30 26768 H 2609.62 -3.72074 0.247994 0
M  V30 26769 N 2611.8 -0.779811 -1.36955 0
M  V30 26770 C 2613.05 -0.347114 -1.99097 0
M  V30 26771 C 2613.37 1.08229 -1.62208 0
M  V30 26772 O 2612.64 1.74444 -0.891404 0
M  V30 26773 H 2611.22 -0.125355 -0.736407 0
M  V30 26774 H 2613.88 -0.999726 -1.67307 0
M  V30 26775 H 2612.98 -0.431216 -3.09107 0
M  V30 26776 N 2613.28 1.48384 -0.531019 0
M  V30 26777 C 2614.51 2.069 -0.00137759 0
M  V30 26778 C 2614.92 1.38742 1.28047 0
M  V30 26779 O 2614.28 0.475275 1.76203 0
M  V30 26780 C 2614.33 3.60798 0.225192 0
M  V30 26781 O 2614.05 4.26396 -1.00587 0
M  V30 26782 C 2615.55 4.36111 0.795096 0
M  V30 26783 H 2612.77 0.670139 -0.0339822 0
M  V30 26784 H 2615.32 1.90759 -0.736959 0
M  V30 26785 H 2613.47 3.7654 0.910825 0
M  V30 26786 H 2613.89 5.18558 -0.787256 0
M  V30 26787 H 2615.36 5.44563 0.903047 0
M  V30 26788 H 2615.84 4.0061 1.80024 0
M  V30 26789 H 2616.44 4.25049 0.145995 0
M  V30 26790 N 2614.76 0.2662 1.55336 0
M  V30 26791 C 2616.17 -0.0881785 1.59356 0
M  V30 26792 C 2616.37 -1.5534 1.28343 0
M  V30 26793 O 2615.43 -2.30087 1.04 0
M  V30 26794 C 2616.74 0.278416 2.99408 0
M  V30 26795 C 2618.29 0.224298 3.12195 0
M  V30 26796 C 2618.77 0.565203 4.54499 0
M  V30 26797 N 2620.26 0.516421 4.60312 0
M  V30 26798 C 2620.99 0.753113 5.68433 0
M  V30 26799 N 2620.49 1.05395 6.84736 0
M  V30 26800 N 2622.28 0.682512 5.57941 0
M  V30 26801 H 2614.43 1.22151 1.73761 0
M  V30 26802 H 2616.7 0.492856 0.809813 0
M  V30 26803 H 2616.4 1.29708 3.26908 0
M  V30 26804 H 2616.28 -0.38512 3.75229 0
M  V30 26805 H 2618.66 -0.78507 2.84466 0
M  V30 26806 H 2618.74 0.921964 2.38607 0
M  V30 26807 H 2618.39 1.57222 4.82953 0
M  V30 26808 H 2618.32 -0.154155 5.26374 0
M  V30 26809 H 2620.81 0.293416 3.76759 0
M  V30 26810 H 2621.12 1.22146 7.63086 0
M  V30 26811 H 2619.47 1.09163 6.86373 0
M  V30 26812 H 2622.66 0.447391 4.65957 0
M  V30 26813 H 2622.83 0.870361 6.42128 0
M  V30 26814 N 2616.24 -1.57599 -0.0066531 0
M  V30 26815 C 2617.18 -2.08001 -1.0002 0
M  V30 26816 C 2618.15 -0.973967 -1.34548 0
M  V30 26817 O 2619.34 -1.24598 -1.44499 0
M  V30 26818 C 2616.48 -2.58256 -2.28905 0
M  V30 26819 C 2615.59 -3.82738 -2.00339 0
M  V30 26820 C 2614.73 -4.21519 -3.23257 0
M  V30 26821 C 2613.77 -5.38855 -2.90347 0
M  V30 26822 N 2612.9 -5.72961 -4.05783 0
M  V30 26823 H 2617.74 -2.92625 -0.563448 0
M  V30 26824 H 2615.28 -1.44665 -0.266567 0
M  V30 26825 H 2617.24 -2.85469 -3.04242 0
M  V30 26826 H 2615.87 -1.76517 -2.70262 0
M  V30 26827 H 2614.92 -3.62473 -1.154 0
M  V30 26828 H 2616.23 -4.68178 -1.72078 0
M  V30 26829 H 2615.39 -4.49979 -4.06945 0
M  V30 26830 H 2614.12 -3.34774 -3.54651 0
M  V30 26831 H 2613.13 -5.10126 -2.05066 0
M  V30 26832 H 2614.35 -6.27271 -2.60208 0
M  V30 26833 H 2612.3 -4.89175 -4.37086 0
M  V30 26834 H 2612.22 -6.52961 -3.81023 0
M  V30 26835 H 2613.49 -6.06009 -4.90278 0
M  V30 26836 N 2617.72 0.279305 -1.55105 0
M  V30 26837 C 2618.94 1.03442 -1.79762 0
M  V30 26838 C 2619.37 1.79383 -0.565984 0
M  V30 26839 O 2618.72 1.74714 0.484229 0
M  V30 26840 C 2618.77 1.97366 -3.01793 0
M  V30 26841 O 2617.88 3.06033 -2.76437 0
M  V30 26842 H 2617.22 0.296069 -0.594339 0
M  V30 26843 H 2619.75 0.31013 -2.02236 0
M  V30 26844 H 2619.76 2.39436 -3.30355 0
M  V30 26845 H 2618.43 1.41503 -3.91088 0
M  V30 26846 H 2617.01 2.68323 -2.58954 0
M  V30 26847 N 2619.19 1.47931 0.543528 0
M  V30 26848 C 2620.44 1.55257 1.30006 0
M  V30 26849 C 2620.77 0.220646 1.93244 0
M  V30 26850 O 2620.02 -0.787811 1.79142 0
M  V30 26851 C 2620.32 2.62936 2.42073 0
M  V30 26852 C 2619.99 4.05794 1.96576 0
M  V30 26853 C 2618.65 4.44679 1.83885 0
M  V30 26854 C 2621 4.95376 1.62026 0
M  V30 26855 C 2618.33 5.70967 1.34959 0
M  V30 26856 C 2620.68 6.22139 1.14566 0
M  V30 26857 C 2619.35 6.59894 1.00482 0
M  V30 26858 H 2618.62 0.568126 0.475725 0
M  V30 26859 H 2621.26 1.8159 0.608043 0
M  V30 26860 H 2619.57 2.30411 3.16888 0
M  V30 26861 H 2621.27 2.65823 3.00231 0
M  V30 26862 H 2617.86 3.75077 2.07401 0
M  V30 26863 H 2622.04 4.66022 1.70697 0
M  V30 26864 H 2617.3 5.98955 1.2273 0
M  V30 26865 H 2621.47 6.90957 0.868987 0
M  V30 26866 H 2619.1 7.57639 0.62349 0
M  V30 26867 N 2620.67 -0.791347 1.36292 0
M  V30 26868 C 2621.6 -1.91038 1.24819 0
M  V30 26869 C 2622.58 -1.62057 0.132767 0
M  V30 26870 O 2623.77 -1.8604 0.303559 0
M  V30 26871 C 2620.89 -3.25813 0.925412 0
M  V30 26872 C 2619.94 -3.73727 2.05501 0
M  V30 26873 S 2620.77 -3.89716 3.67262 0
M  V30 26874 C 2621.93 -5.2737 3.37093 0
M  V30 26875 H 2622.16 -2.00477 2.19536 0
M  V30 26876 H 2619.69 -0.950371 1.21685 0
M  V30 26877 H 2621.65 -4.03665 0.745995 0
M  V30 26878 H 2620.31 -3.141 -0.00394577 0
M  V30 26879 H 2619.51 -4.71382 1.78368 0
M  V30 26880 H 2619.11 -3.02918 2.19355 0
M  V30 26881 H 2621.4 -6.11885 2.90867 0
M  V30 26882 H 2622.34 -5.59505 4.34005 0
M  V30 26883 H 2622.75 -4.94379 2.72488 0
M  V30 26884 N 2622.15 -1.2054 -1.01528 0
M  V30 26885 C 2623.37 -1.04274 -1.79281 0
M  V30 26886 C 2623.8 0.403511 -1.83721 0
M  V30 26887 O 2623.16 1.29067 -1.27324 0
M  V30 26888 C 2623.21 -1.63247 -3.21532 0
M  V30 26889 O 2622.31 -0.870979 -4.03098 0
M  V30 26890 H 2621.65 -0.367656 -0.552924 0
M  V30 26891 H 2624.18 -1.59861 -1.27694 0
M  V30 26892 H 2624.19 -1.67037 -3.7224 0
M  V30 26893 H 2622.87 -2.68502 -3.17615 0
M  V30 26894 H 2621.44 -0.907387 -3.61692 0
M  V30 26895 N 2623.63 1.20858 -1.01149 0
M  V30 26896 C 2624.56 2.25721 -0.597702 0
M  V30 26897 C 2625.54 1.65692 0.384714 0
M  V30 26898 O 2626.72 1.92296 0.271269 0
M  V30 26899 C 2623.85 3.4723 0.0699539 0
M  V30 26900 C 2622.81 4.19817 -0.832917 0
M  V30 26901 C 2622.13 5.34691 -0.0313142 0
M  V30 26902 C 2623.43 4.7651 -2.13858 0
M  V30 26903 H 2625.13 2.60587 -1.47428 0
M  V30 26904 H 2622.67 1.25261 -0.710323 0
M  V30 26905 H 2624.63 4.19764 0.370956 0
M  V30 26906 H 2623.35 3.11512 0.981205 0
M  V30 26907 H 2622.01 3.49142 -1.11784 0
M  V30 26908 H 2621.66 4.95217 0.881428 0
M  V30 26909 H 2621.36 5.84186 -0.632536 0
M  V30 26910 H 2622.88 6.10032 0.263353 0
M  V30 26911 H 2624.3 5.4089 -1.90029 0
M  V30 26912 H 2622.69 5.36421 -2.69022 0
M  V30 26913 H 2623.76 3.95533 -2.80502 0
M  V30 26914 N 2625.11 0.787064 1.3654 0
M  V30 26915 C 2626.33 0.370235 2.0356 0
M  V30 26916 C 2626.75 -1.0126 1.59348 0
M  V30 26917 O 2626.11 -1.64906 0.78181 0
M  V30 26918 C 2626.16 0.421677 3.59032 0
M  V30 26919 O 2625.88 1.74997 4.01631 0
M  V30 26920 C 2627.38 -0.00481971 4.433 0
M  V30 26921 H 2624.6 0.152916 0.653343 0
M  V30 26922 H 2627.14 1.06525 1.74564 0
M  V30 26923 H 2625.3 -0.224903 3.86747 0
M  V30 26924 H 2625.71 1.69917 4.96214 0
M  V30 26925 H 2627.19 0.0823154 5.51939 0
M  V30 26926 H 2627.66 -1.05716 4.26287 0
M  V30 26927 H 2628.27 0.614159 4.20842 0
M  V30 26928 N 2626.58 -1.48101 0.53888 0
M  V30 26929 C 2627.81 -2.06896 0.01235 0
M  V30 26930 C 2628.23 -1.39419 -1.2731 0
M  V30 26931 O 2627.58 -0.484613 -1.75948 0
M  V30 26932 C 2627.63 -3.60912 -0.206055 0
M  V30 26933 O 2627.36 -4.25857 1.02847 0
M  V30 26934 C 2628.86 -4.36527 -0.771956 0
M  V30 26935 H 2626.08 -0.669949 0.0375357 0
M  V30 26936 H 2628.62 -1.90366 0.747065 0
M  V30 26937 H 2626.78 -3.77018 -0.890844 0
M  V30 26938 H 2627.19 -5.18133 0.814745 0
M  V30 26939 H 2628.66 -5.45034 -0.874155 0
M  V30 26940 H 2629.14 -4.01559 -1.77897 0
M  V30 26941 H 2629.75 -4.25121 -0.123451 0
M  V30 26942 N 2628.06 -0.274434 -1.55192 0
M  V30 26943 C 2629.47 0.223456 -1.85358 0
M  V30 26944 C 2629.82 1.55498 -1.19645 0
M  V30 26945 O 2628.95 2.10906 -0.484535 0
M  V30 26946 C 2629.54 0.412226 -3.36283 0
M  V30 26947 C 2628.1 0.854349 -3.66576 0
M  V30 26948 C 2627.25 -0.0527543 -2.7725 0
M  V30 26949 H 2630.2 -0.496242 -1.50742 0
M  V30 26950 H 2630.22 1.25088 -3.59351 0
M  V30 26951 H 2629.73 -0.557032 -3.84082 0
M  V30 26952 H 2627.83 1.8351 -3.24276 0
M  V30 26953 H 2627.95 0.692143 -4.74074 0
M  V30 26954 H 2626.31 0.46344 -2.50448 0
M  V30 26955 H 2627.09 -1.01788 -3.27863 0
M  V30 26956 N 2629.54 1.576 -0.00170483 0
M  V30 26957 C 2630.77 1.94923 0.693725 0
M  V30 26958 C 2631.18 0.876655 1.67213 0
M  V30 26959 O 2630.54 -0.144247 1.81929 0
M  V30 26960 C 2630.59 3.32267 1.42411 0
M  V30 26961 O 2630.31 4.35408 0.484937 0
M  V30 26962 C 2631.81 3.8406 2.21389 0
M  V30 26963 H 2629.03 0.642612 0.193107 0
M  V30 26964 H 2631.58 2.0443 -0.0533311 0
M  V30 26965 H 2629.73 3.24063 2.12278 0
M  V30 26966 H 2630.15 5.1487 1.00044 0
M  V30 26967 H 2631.62 4.82583 2.67988 0
M  V30 26968 H 2632.1 3.16856 3.04136 0
M  V30 26969 H 2632.7 3.95445 1.56535 0
M  V30 26970 N 2631.02 -0.271076 1.55251 0
M  V30 26971 C 2631.95 -1.35746 1.84677 0
M  V30 26972 C 2632.96 -1.45446 0.731392 0
M  V30 26973 O 2634.15 -1.47228 1.00926 0
M  V30 26974 C 2631.25 -2.73854 1.99643 0
M  V30 26975 C 2630.42 -2.86721 3.30317 0
M  V30 26976 C 2629.48 -4.05517 3.35325 0
M  V30 26977 O 2628.51 -3.96184 4.08689 0
M  V30 26978 N 2629.71 -5.17573 2.62867 0
M  V30 26979 H 2632.48 -1.10848 2.78447 0
M  V30 26980 H 2630.04 -0.461191 1.55192 0
M  V30 26981 H 2632.03 -3.51621 2.00362 0
M  V30 26982 H 2630.6 -2.91566 1.1273 0
M  V30 26983 H 2629.82 -1.95823 3.42121 0
M  V30 26984 H 2631.11 -2.92251 4.16493 0
M  V30 26985 H 2630.51 -5.28042 2.02948 0
M  V30 26986 H 2629.06 -5.93564 2.69305 0
M  V30 26987 N 2632.5 -1.48217 -0.535675 0
M  V30 26988 C 2633.72 -1.5985 -1.32147 0
M  V30 26989 C 2634.15 -0.256874 -1.86338 0
M  V30 26990 O 2633.5 0.770603 -1.64108 0
M  V30 26991 C 2633.55 -2.64386 -2.45219 0
M  V30 26992 O 2632.66 -2.2115 -3.48089 0
M  V30 26993 H 2632 -0.536215 -0.391624 0
M  V30 26994 H 2634.53 -1.94162 -0.645168 0
M  V30 26995 H 2634.54 -2.85481 -2.91486 0
M  V30 26996 H 2633.21 -3.6179 -2.05137 0
M  V30 26997 H 2631.79 -2.10244 -3.0798 0
M  V30 26998 N 2633.97 0.784108 -1.3671 0
M  V30 26999 C 2634.88 1.92819 -1.33634 0
M  V30 27000 C 2635.9 1.72369 -0.237716 0
M  V30 27001 O 2637.08 1.95815 -0.470996 0
M  V30 27002 C 2634.14 3.27762 -1.13017 0
M  V30 27003 C 2633.2 3.60953 -2.32403 0
M  V30 27004 C 2632.44 4.89457 -2.12761 0
M  V30 27005 O 2632.66 5.59584 -1.10551 0
M  V30 27006 O 2631.59 5.21427 -3.00662 0
M  V30 27007 H 2635.42 1.98364 -2.29968 0
M  V30 27008 H 2633 0.925115 -1.17311 0
M  V30 27009 H 2634.89 4.08503 -1.03458 0
M  V30 27010 H 2633.56 3.23097 -0.197487 0
M  V30 27011 H 2632.47 2.80498 -2.47532 0
M  V30 27012 H 2633.8 3.70348 -3.24196 0
M  V30 27013 N 2635.45 1.21076 1.00888 0
M  V30 27014 C 2636.87 0.967279 1.26948 0
M  V30 27015 C 2637.07 -0.348638 1.98461 0
M  V30 27016 O 2636.12 -1.07526 2.28461 0
M  V30 27017 C 2637.44 2.15521 2.09693 0
M  V30 27018 C 2638.99 2.19704 2.22933 0
M  V30 27019 C 2639.46 3.38005 3.09058 0
M  V30 27020 N 2640.95 3.38067 3.16647 0
M  V30 27021 C 2641.69 4.26252 3.83532 0
M  V30 27022 N 2641.18 5.24628 4.52479 0
M  V30 27023 N 2642.98 4.14071 3.80134 0
M  V30 27024 H 2635.13 2.05708 0.528969 0
M  V30 27025 H 2637.39 0.900561 0.296132 0
M  V30 27026 H 2637.1 3.10862 1.64492 0
M  V30 27027 H 2636.97 2.14259 3.1044 0
M  V30 27028 H 2639.36 1.24921 2.67355 0
M  V30 27029 H 2639.44 2.25012 1.21669 0
M  V30 27030 H 2639.08 4.33079 2.6534 0
M  V30 27031 H 2639.01 3.29935 4.10427 0
M  V30 27032 H 2641.5 2.66869 2.67561 0
M  V30 27033 H 2641.82 5.88226 5.01208 0
M  V30 27034 H 2640.16 5.28557 4.51279 0
M  V30 27035 H 2643.35 3.3648 3.25421 0
M  V30 27036 H 2643.52 4.83006 4.31983 0
M  V30 27037 N 2636.93 -1.2032 1.01789 0
M  V30 27038 C 2637.84 -2.26826 0.598938 0
M  V30 27039 C 2638.86 -1.70147 -0.36415 0
M  V30 27040 O 2640.03 -2.00142 -0.224777 0
M  V30 27041 C 2637.1 -3.46657 -0.054916 0
M  V30 27042 C 2636.16 -4.18559 0.954279 0
M  V30 27043 C 2635.39 -5.32669 0.331533 0
M  V30 27044 O 2635.61 -5.63751 -0.868411 0
M  V30 27045 O 2634.55 -5.9269 1.0489 0
M  V30 27046 H 2638.37 -2.6488 1.48567 0
M  V30 27047 H 2635.96 -1.26963 0.787456 0
M  V30 27048 H 2637.84 -4.19301 -0.420028 0
M  V30 27049 H 2636.52 -3.10474 -0.915822 0
M  V30 27050 H 2635.42 -3.48081 1.37078 0
M  V30 27051 H 2636.76 -4.58685 1.78519 0
M  V30 27052 N 2638.41 -0.794293 -1.3612 0
M  V30 27053 C 2639.34 -0.141885 -2.27758 0
M  V30 27054 C 2640.32 0.684895 -1.47472 0
M  V30 27055 O 2641.5 0.654826 -1.76761 0
M  V30 27056 C 2638.63 0.804388 -3.2901 0
M  V30 27057 C 2637.68 0.0587868 -4.26459 0
M  V30 27058 S 2638.51 -1.26882 -5.20251 0
M  V30 27059 C 2639.67 -0.326672 -6.25047 0
M  V30 27060 H 2639.9 -0.918868 -2.82744 0
M  V30 27061 H 2637.43 -0.588747 -1.42734 0
M  V30 27062 H 2639.39 1.34488 -3.87844 0
M  V30 27063 H 2638.05 1.55466 -2.72927 0
M  V30 27064 H 2637.24 0.777 -4.97975 0
M  V30 27065 H 2636.85 -0.411374 -3.71731 0
M  V30 27066 H 2639.14 0.492676 -6.75706 0
M  V30 27067 H 2640.08 -1.01065 -7.00851 0
M  V30 27068 H 2640.49 0.0721635 -5.64454 0
M  V30 27069 N 2639.89 1.47813 -0.546727 0
M  V30 27070 C 2641.11 2.06887 -0.023322 0
M  V30 27071 C 2641.53 1.40092 1.26569 0
M  V30 27072 O 2640.89 0.493937 1.75689 0
M  V30 27073 C 2640.94 3.61016 0.186912 0
M  V30 27074 O 2640.66 4.25305 -1.05104 0
M  V30 27075 C 2642.16 4.3693 0.748795 0
M  V30 27076 H 2639.38 0.669741 -0.041088 0
M  V30 27077 H 2641.92 1.89967 -0.75715 0
M  V30 27078 H 2640.08 3.77485 0.870837 0
M  V30 27079 H 2640.49 5.17694 -0.842212 0
M  V30 27080 H 2641.97 5.4549 0.845238 0
M  V30 27081 H 2642.44 4.02496 1.75765 0
M  V30 27082 H 2643.05 4.2518 0.100904 0
M  V30 27083 N 2641.36 0.28266 1.55044 0
M  V30 27084 C 2642.64 -0.384132 1.91791 0
M  V30 27085 C 2643.02 -1.73133 1.20781 0
M  V30 27086 O 2642.37 -2.25998 0.337229 0
M  V30 27087 C 2642.58 -0.516954 3.4515 0
M  V30 27088 C 2643.93 -0.796354 4.17065 0
M  V30 27089 O 2644.95 -0.601474 3.51085 0
M  V30 27090 O 2643.81 -1.16953 5.33839 0
M  V30 27091 H 2640.9 -0.211544 0.799486 0
M  V30 27092 H 2643.45 0.329369 1.66473 0
M  V30 27093 H 2642.22 0.430841 3.88921 0
M  V30 27094 H 2641.85 -1.27963 3.76445 0
M  V30 27095 N 2642.84 -1.57597 0.0100627 0
M  V30 27096 C 2644.07 -1.95692 -0.686987 0
M  V30 27097 C 2644.49 -0.885548 -1.65951 0
M  V30 27098 O 2643.85 0.155398 -1.80633 0
M  V30 27099 C 2643.9 -3.32886 -1.38634 0
M  V30 27100 O 2643 -3.27901 -2.50109 0
M  V30 27101 H 2642.34 -0.638577 -0.181978 0
M  V30 27102 H 2644.87 -2.04493 0.0662482 0
M  V30 27103 H 2644.88 -3.68683 -1.74748 0
M  V30 27104 H 2643.56 -4.10413 -0.673339 0
M  V30 27105 H 2642.14 -3.03795 -2.16247 0
M  V30 27106 N 2644.32 0.262839 -1.55393 0
M  V30 27107 C 2645.55 1.01105 -1.80514 0
M  V30 27108 C 2645.96 1.79555 -0.583565 0
M  V30 27109 O 2645.32 1.76927 0.447554 0
M  V30 27110 C 2645.37 1.96159 -3.03651 0
M  V30 27111 O 2645.09 1.20886 -4.21092 0
M  V30 27112 C 2646.59 2.82709 -3.41453 0
M  V30 27113 H 2643.81 0.298225 -0.601085 0
M  V30 27114 H 2646.36 0.290546 -2.02425 0
M  V30 27115 H 2644.51 2.63658 -2.83837 0
M  V30 27116 H 2644.93 1.85042 -4.90775 0
M  V30 27117 H 2646.4 3.45184 -4.30757 0
M  V30 27118 H 2646.88 3.53004 -2.61314 0
M  V30 27119 H 2647.48 2.20686 -3.63562 0
M  V30 27120 N 2645.8 1.48499 0.527807 0
M  V30 27121 C 2647.21 1.5014 1.10972 0
M  V30 27122 C 2647.56 0.272412 1.943 0
M  V30 27123 O 2646.69 -0.620264 2.0732 0
M  V30 27124 C 2647.28 2.72053 2.01923 0
M  V30 27125 C 2645.84 2.76559 2.55328 0
M  V30 27126 C 2644.99 2.43685 1.32336 0
M  V30 27127 H 2647.94 1.55584 0.312958 0
M  V30 27128 H 2647.96 2.50694 2.86239 0
M  V30 27129 H 2647.47 3.61484 1.41248 0
M  V30 27130 H 2645.57 1.91341 3.19717 0
M  V30 27131 H 2645.68 3.78044 2.94313 0
M  V30 27132 H 2644.05 1.94887 1.63985 0
M  V30 27133 H 2644.83 3.35359 0.734106 0
M  V30 27134 N 2647.28 -0.776847 1.37123 0
M  V30 27135 C 2648.52 -1.53749 1.32246 0
M  V30 27136 C 2648.86 -1.9397 -0.0944404 0
M  V30 27137 O 2648.13 -1.63682 -1.05065 0
M  V30 27138 C 2648.41 -2.80603 2.25686 0
M  V30 27139 C 2648.27 -2.46669 3.76131 0
M  V30 27140 C 2649.59 -3.82505 2.17664 0
M  V30 27141 H 2646.71 -0.557782 0.481714 0
M  V30 27142 H 2649.35 -0.891583 1.67782 0
M  V30 27143 H 2647.5 -3.3572 1.95511 0
M  V30 27144 H 2649.17 -1.97506 4.1688 0
M  V30 27145 H 2647.41 -1.79436 3.9495 0
M  V30 27146 H 2648.08 -3.37326 4.36939 0
M  V30 27147 H 2650.56 -3.36869 2.44251 0
M  V30 27148 H 2649.44 -4.68995 2.85193 0
M  V30 27149 H 2649.7 -4.26394 1.16793 0
M  V30 27150 N 2648.76 -1.2161 -1.00244 0
M  V30 27151 C 2650 -1.03488 -1.74059 0
M  V30 27152 C 2650.33 0.431274 -1.89658 0
M  V30 27153 O 2649.59 1.33625 -1.42979 0
M  V30 27154 C 2649.88 -1.68015 -3.15446 0
M  V30 27155 C 2649.55 -3.17879 -3.19787 0
M  V30 27156 C 2648.21 -3.58774 -3.20679 0
M  V30 27157 C 2650.56 -4.13847 -3.16828 0
M  V30 27158 C 2647.89 -4.94136 -3.16301 0
M  V30 27159 C 2650.24 -5.49174 -3.13991 0
M  V30 27160 C 2648.91 -5.89462 -3.13194 0
M  V30 27161 H 2648.18 -0.378689 -0.636927 0
M  V30 27162 H 2650.83 -1.51238 -1.17471 0
M  V30 27163 H 2649.13 -1.12564 -3.75282 0
M  V30 27164 H 2650.83 -1.51493 -3.71283 0
M  V30 27165 H 2647.42 -2.85311 -3.19837 0
M  V30 27166 H 2651.6 -3.83278 -3.15297 0
M  V30 27167 H 2646.86 -5.24595 -3.14023 0
M  V30 27168 H 2651.03 -6.2327 -3.10656 0
M  V30 27169 H 2648.66 -6.94319 -3.09556 0
M  V30 27170 N 2650.23 1.19778 -1.02425 0
M  V30 27171 C 2651.46 1.9331 -0.73749 0
M  V30 27172 C 2651.88 1.75224 0.702992 0
M  V30 27173 O 2651.23 1.07114 1.47759 0
M  V30 27174 C 2651.28 3.45197 -1.07336 0
M  V30 27175 O 2651.01 3.62698 -2.45727 0
M  V30 27176 C 2652.51 4.3586 -0.808737 0
M  V30 27177 H 2649.73 0.614188 -0.270211 0
M  V30 27178 H 2652.27 1.52052 -1.3675 0
M  V30 27179 H 2650.43 3.84306 -0.488613 0
M  V30 27180 H 2650.84 4.56607 -2.58089 0
M  V30 27181 H 2652.31 5.41056 -1.09375 0
M  V30 27182 H 2652.79 4.38448 0.256948 0
M  V30 27183 H 2653.4 4.02426 -1.37599 0
M  V30 27184 N 2651.71 0.801501 1.35697 0
M  V30 27185 C 2652.62 0.209732 2.33661 0
M  V30 27186 C 2653.64 -0.644562 1.61621 0
M  V30 27187 O 2654.81 -0.557511 1.9353 0
M  V30 27188 C 2651.88 -0.635973 3.40817 0
M  V30 27189 C 2650.94 0.238222 4.28639 0
M  V30 27190 C 2650.17 -0.567214 5.30677 0
M  V30 27191 O 2650.4 -1.8023 5.41178 0
M  V30 27192 O 2649.33 0.0392394 6.01887 0
M  V30 27193 H 2653.16 1.02001 2.86059 0
M  V30 27194 H 2650.74 0.563188 1.38378 0
M  V30 27195 H 2652.62 -1.11783 4.06303 0
M  V30 27196 H 2651.3 -1.42394 2.90699 0
M  V30 27197 H 2650.2 0.767109 3.66151 0
M  V30 27198 H 2651.54 0.99 4.82141 0
M  V30 27199 N 2653.19 -1.47521 0.554558 0
M  V30 27200 C 2654.42 -2.06872 0.0342934 0
M  V30 27201 C 2654.83 -1.40761 -1.25824 0
M  V30 27202 O 2654.19 -0.503247 -1.75424 0
M  V30 27203 C 2654.24 -3.61111 -0.167764 0
M  V30 27204 O 2653.96 -4.24742 1.07358 0
M  V30 27205 C 2655.46 -4.37321 -0.725613 0
M  V30 27206 H 2652.68 -0.669514 0.0446393 0
M  V30 27207 H 2655.23 -1.89563 0.767214 0
M  V30 27208 H 2653.38 -3.77942 -0.850806 0
M  V30 27209 H 2653.8 -5.1724 0.869654 0
M  V30 27210 H 2655.27 -5.45931 -0.816298 0
M  V30 27211 H 2655.75 -4.03423 -1.73628 0
M  V30 27212 H 2656.35 -4.25228 -0.0783544 0
M  V30 27213 N 2654.67 -0.290879 -1.54892 0
M  V30 27214 C 2655.62 0.605537 -2.2458 0
M  V30 27215 C 2656.61 1.1452 -1.24826 0
M  V30 27216 O 2657.82 1.09701 -1.42708 0
M  V30 27217 H 2654.19 0.21386 -0.720949 0
M  V30 27218 H 2656.16 -0.00486975 -2.984 0
M  V30 27219 C 2654.91 1.77083 -2.99227 0
M  V30 27220 H 2654.23 1.36477 -3.75784 0
M  V30 27221 H 2655.67 2.37434 -3.51285 0
M  V30 27222 C 2654.13 2.66884 -2.05607 0
M  V30 27223 O 2654.66 3.67695 -1.61751 0
M  V30 27224 N 2652.87 2.34396 -1.71775 0
M  V30 27225 H 2652.42 1.52464 -2.07636 0
M  V30 27226 H 2652.37 2.94749 -1.09409 0
M  V30 27227 N 2656.15 1.57589 -0.0184203 0
M  V30 27228 C 2657.37 1.95648 0.673012 0
M  V30 27229 C 2657.79 0.894341 1.66274 0
M  V30 27230 O 2657.15 -0.124943 1.82072 0
M  V30 27231 C 2657.2 3.33759 1.38878 0
M  V30 27232 O 2656.92 4.35898 0.438729 0
M  V30 27233 C 2658.42 3.86386 2.17303 0
M  V30 27234 H 2655.64 0.644624 0.18628 0
M  V30 27235 H 2658.18 2.04362 -0.0750107 0
M  V30 27236 H 2656.34 3.26296 2.08829 0
M  V30 27237 H 2656.75 5.15902 0.945778 0
M  V30 27238 H 2658.23 4.85398 2.62854 0
M  V30 27239 H 2658.7 3.20064 3.00759 0
M  V30 27240 H 2659.31 3.97083 1.52332 0
M  V30 27241 N 2657.62 -0.254594 1.5553 0
M  V30 27242 C 2658.55 -1.31893 1.92682 0
M  V30 27243 C 2659.53 -1.50599 0.790824 0
M  V30 27244 O 2660.72 -1.63335 1.05048 0
M  V30 27245 C 2657.85 -2.67513 2.21482 0
M  V30 27246 C 2656.8 -2.63513 3.37261 0
M  V30 27247 C 2656.13 -4.02856 3.51583 0
M  V30 27248 C 2657.43 -2.2117 4.73161 0
M  V30 27249 H 2659.12 -1.01046 2.81833 0
M  V30 27250 H 2656.67 -0.484638 1.356 0
M  V30 27251 H 2658.62 -3.42099 2.46061 0
M  V30 27252 H 2657.35 -2.9998 1.29149 0
M  V30 27253 H 2656.01 -1.91384 3.12678 0
M  V30 27254 H 2655.65 -4.32576 2.56684 0
M  V30 27255 H 2655.35 -4.0107 4.29437 0
M  V30 27256 H 2656.88 -4.79154 3.78475 0
M  V30 27257 H 2658.29 -2.85486 4.97163 0
M  V30 27258 H 2656.69 -2.30511 5.54062 0
M  V30 27259 H 2657.76 -1.16324 4.70741 0
M  V30 27260 N 2659.1 -1.48777 -0.519925 0
M  V30 27261 C 2660.01 -1.66747 -1.65023 0
M  V30 27262 C 2661.03 -0.549983 -1.65079 0
M  V30 27263 O 2662.2 -0.822328 -1.83847 0
M  V30 27264 C 2659.27 -1.71244 -3.01457 0
M  V30 27265 C 2658.33 -2.94693 -3.12177 0
M  V30 27266 C 2657.56 -2.98965 -4.42103 0
M  V30 27267 O 2657.79 -2.1136 -5.29795 0
M  V30 27268 O 2656.72 -3.91241 -4.57399 0
M  V30 27269 H 2660.55 -2.62464 -1.52796 0
M  V30 27270 H 2658.13 -1.32296 -0.694134 0
M  V30 27271 H 2660.01 -1.76664 -3.82581 0
M  V30 27272 H 2658.69 -0.78703 -3.13987 0
M  V30 27273 H 2657.59 -2.94801 -2.30311 0
M  V30 27274 H 2658.93 -3.86652 -3.04568 0
M  V30 27275 N 2660.58 0.769564 -1.37534 0
M  V30 27276 C 2661.53 1.9043 -1.33564 0
M  V30 27277 C 2662.52 1.67912 -0.224057 0
M  V30 27278 O 2663.73 1.75675 -0.392205 0
M  V30 27279 H 2660.1 0.626264 -0.41629 0
M  V30 27280 H 2662.07 1.90894 -2.29351 0
M  V30 27281 C 2660.82 3.2772 -1.16168 0
M  V30 27282 H 2660.15 3.45625 -2.00957 0
M  V30 27283 H 2661.59 4.07411 -1.17441 0
M  V30 27284 C 2660.04 3.36639 0.132524 0
M  V30 27285 O 2660.57 3.85906 1.11532 0
M  V30 27286 N 2658.78 2.90017 0.183962 0
M  V30 27287 H 2658.33 2.50115 -0.616459 0
M  V30 27288 H 2658.29 2.96366 1.04951 0
M  V30 27289 N 2662.06 1.22139 0.995977 0
M  V30 27290 C 2662.99 1.01293 2.10385 0
M  V30 27291 C 2663.97 -0.0651155 1.69975 0
M  V30 27292 O 2665.15 0.0964969 1.9396 0
M  V30 27293 C 2662.28 0.586577 3.42311 0
M  V30 27294 C 2661.24 1.61021 3.96556 0
M  V30 27295 C 2660.56 1.03979 5.24493 0
M  V30 27296 C 2661.86 2.9994 4.2759 0
M  V30 27297 H 2663.56 1.93955 2.28083 0
M  V30 27298 H 2661.1 0.933947 1.09606 0
M  V30 27299 H 2663.06 0.427867 4.19222 0
M  V30 27300 H 2661.78 -0.375704 3.24432 0
M  V30 27301 H 2660.44 1.75664 3.21773 0
M  V30 27302 H 2660.09 0.0689587 5.02953 0
M  V30 27303 H 2659.79 1.72362 5.61752 0
M  V30 27304 H 2661.31 0.892601 6.04041 0
M  V30 27305 H 2662.73 2.88689 4.9531 0
M  V30 27306 H 2661.12 3.65418 4.76014 0
M  V30 27307 H 2662.19 3.50105 3.35491 0
M  V30 27308 N 2663.54 -1.19233 1.03059 0
M  V30 27309 C 2664.78 -1.88586 0.726614 0
M  V30 27310 C 2665.11 -1.80117 -0.747196 0
M  V30 27311 O 2664.38 -1.21277 -1.53847 0
M  V30 27312 H 2662.96 -0.698119 0.26578 0
M  V30 27313 H 2665.62 -1.44744 1.30519 0
M  V30 27314 H 2664.71 -2.94877 1.02245 0
M  V30 27315 N 2665.01 -0.808686 -1.3527 0
M  V30 27316 C 2665.98 -0.226133 -2.28082 0
M  V30 27317 C 2666.98 0.587735 -1.49674 0
M  V30 27318 O 2668.17 0.405913 -1.69405 0
M  V30 27319 C 2665.3 0.684537 -3.33956 0
M  V30 27320 H 2666.49 -1.04474 -2.81114 0
M  V30 27321 H 2664.05 -0.579491 -1.45161 0
M  V30 27322 H 2664.78 1.52675 -2.86113 0
M  V30 27323 H 2664.57 0.10263 -3.91966 0
M  V30 27324 H 2666.06 1.08639 -4.03221 0
M  V30 27325 N 2666.49 1.47225 -0.562374 0
M  V30 27326 C 2667.42 2.28142 0.21997 0
M  V30 27327 C 2668.44 1.37314 0.874571 0
M  V30 27328 O 2669.63 1.62092 0.747554 0
M  V30 27329 C 2666.73 3.11734 1.32947 0
M  V30 27330 C 2665.9 4.30557 0.770683 0
M  V30 27331 C 2664.96 4.95704 1.76533 0
M  V30 27332 O 2663.98 5.53934 1.3094 0
M  V30 27333 N 2665.19 4.90867 3.09887 0
M  V30 27334 H 2667.95 2.95925 -0.474159 0
M  V30 27335 H 2665.51 1.56912 -0.398788 0
M  V30 27336 H 2667.5 3.52183 1.99372 0
M  V30 27337 H 2666.07 2.4616 1.92676 0
M  V30 27338 H 2665.29 3.94137 -0.0704749 0
M  V30 27339 H 2666.58 5.07403 0.376783 0
M  V30 27340 H 2665.98 4.44767 3.49569 0
M  V30 27341 H 2664.54 5.35319 3.71855 0
M  V30 27342 N 2667.97 0.299089 1.54736 0
M  V30 27343 C 2669.2 -0.313411 2.04512 0
M  V30 27344 C 2669.61 -1.47665 1.17646 0
M  V30 27345 O 2668.97 -1.81382 0.201672 0
M  V30 27346 C 2669.02 -0.77148 3.53172 0
M  V30 27347 O 2668.74 0.345456 4.36736 0
M  V30 27348 C 2670.24 -1.44933 4.18938 0
M  V30 27349 H 2667.46 -0.0683666 0.667508 0
M  V30 27350 H 2670.01 0.438164 1.99751 0
M  V30 27351 H 2668.16 -1.47308 3.583 0
M  V30 27352 H 2668.58 -0.0108297 5.24499 0
M  V30 27353 H 2670.05 -1.72102 5.24485 0
M  V30 27354 H 2670.53 -2.38876 3.68558 0
M  V30 27355 H 2671.13 -0.790955 4.1788 0
M  V30 27356 N 2669.45 -1.57577 0.0267774 0
M  V30 27357 C 2670.68 -1.96002 -0.662627 0
M  V30 27358 C 2671.09 -0.903146 -1.65797 0
M  V30 27359 O 2670.45 0.115285 -1.82136 0
M  V30 27360 C 2670.5 -3.34491 -1.37107 0
M  V30 27361 O 2670.22 -4.36124 -0.415606 0
M  V30 27362 C 2671.72 -3.87533 -2.15251 0
M  V30 27363 H 2668.94 -0.645603 -0.182859 0
M  V30 27364 H 2671.49 -2.0432 0.0858475 0
M  V30 27365 H 2669.64 -3.27399 -2.07096 0
M  V30 27366 H 2670.05 -5.16397 -0.918405 0
M  V30 27367 H 2671.53 -4.86786 -2.60277 0
M  V30 27368 H 2672.01 -3.21654 -2.99057 0
M  V30 27369 H 2672.61 -3.97886 -1.50224 0
M  V30 27370 N 2670.93 0.246342 -1.55663 0
M  V30 27371 C 2671.84 1.32649 -1.93498 0
M  V30 27372 C 2672.85 1.52629 -0.835489 0
M  V30 27373 O 2674.03 1.6624 -1.13693 0
M  V30 27374 C 2671.09 2.66097 -2.22246 0
M  V30 27375 C 2670.15 2.54635 -3.45629 0
M  V30 27376 C 2669.39 3.81718 -3.72998 0
M  V30 27377 O 2669.61 4.83624 -3.0243 0
M  V30 27378 O 2668.54 3.80317 -4.66522 0
M  V30 27379 H 2672.37 1.03554 -2.855 0
M  V30 27380 H 2669.96 0.447144 -1.42552 0
M  V30 27381 H 2671.84 3.44954 -2.42043 0
M  V30 27382 H 2670.51 2.94924 -1.33422 0
M  V30 27383 H 2669.42 1.74062 -3.31139 0
M  V30 27384 H 2670.75 2.30752 -4.34758 0
M  V30 27385 N 2672.4 1.4905 0.512027 0
M  V30 27386 C 2673.35 1.61301 1.61139 0
M  V30 27387 C 2674.34 0.469187 1.53907 0
M  V30 27388 O 2675.53 0.721575 1.61624 0
M  V30 27389 C 2672.66 1.67262 2.99797 0
M  V30 27390 C 2671.75 2.87185 3.12067 0
M  V30 27391 N 2672.14 4.11396 2.94256 0
M  V30 27392 C 2670.43 2.84892 3.43151 0
M  V30 27393 C 2671.14 4.91951 3.10417 0
M  V30 27394 N 2670.11 4.25106 3.388 0
M  V30 27395 H 2673.91 2.55067 1.46006 0
M  V30 27396 H 2671.43 1.4567 0.717908 0
M  V30 27397 H 2673.42 1.74135 3.78791 0
M  V30 27398 H 2672.08 0.74625 3.16008 0
M  V30 27399 H 2673.1 4.41551 2.70654 0
M  V30 27400 H 2669.77 2.01588 3.65607 0
M  V30 27401 H 2671.16 6.0059 3.01233 0
M  V30 27402 N 2673.88 -0.762259 1.3794 0
M  V30 27403 C 2675.11 -1.55657 1.37061 0
M  V30 27404 C 2675.53 -1.88058 -0.0395792 0
M  V30 27405 O 2674.89 -1.49935 -1.01927 0
M  V30 27406 C 2674.94 -2.83772 2.22499 0
M  V30 27407 O 2674.04 -3.78556 1.63613 0
M  V30 27408 H 2673.38 -0.471132 0.4679 0
M  V30 27409 H 2675.91 -0.942693 1.81589 0
M  V30 27410 H 2675.92 -3.32782 2.36051 0
M  V30 27411 H 2674.6 -2.59518 3.24997 0
M  V30 27412 H 2673.18 -3.3723 1.59156 0
M  V30 27413 N 2675.36 -1.22666 -0.989486 0
M  V30 27414 C 2676.59 -1.08054 -1.77029 0
M  V30 27415 C 2677.01 0.364451 -1.84536 0
M  V30 27416 O 2676.37 1.26338 -1.30033 0
M  V30 27417 C 2676.42 -1.7003 -3.17997 0
M  V30 27418 O 2675.52 -0.956286 -4.01159 0
M  V30 27419 H 2674.86 -0.379302 -0.545001 0
M  V30 27420 H 2677.39 -1.62534 -1.24274 0
M  V30 27421 H 2677.4 -1.74895 -3.68613 0
M  V30 27422 H 2676.08 -2.75179 -3.11848 0
M  V30 27423 H 2674.65 -0.983903 -3.59686 0
M  V30 27424 N 2676.84 1.18685 -1.0369 0
M  V30 27425 C 2678.09 1.87899 -0.733268 0
M  V30 27426 C 2678.4 1.80992 0.741713 0
M  V30 27427 O 2679.61 2.45532 1.15871 0
M  V30 27428 C 2678.06 3.37073 -1.26133 0
M  V30 27429 C 2677.67 3.5252 -2.76467 0
M  V30 27430 C 2679.42 4.11713 -1.03406 0
M  V30 27431 C 2677.32 4.95632 -3.2265 0
M  V30 27432 H 2676.25 0.703771 -0.270597 0
M  V30 27433 H 2678.9 1.34131 -1.25224 0
M  V30 27434 H 2677.29 3.90287 -0.670233 0
M  V30 27435 H 2678.46 3.09596 -3.41302 0
M  V30 27436 H 2676.77 2.9128 -2.97565 0
M  V30 27437 H 2679.37 5.17265 -1.35429 0
M  V30 27438 H 2679.71 4.1629 0.0288514 0
M  V30 27439 H 2680.25 3.64661 -1.58957 0
M  V30 27440 H 2676.99 4.96221 -4.28305 0
M  V30 27441 H 2676.51 5.39285 -2.62549 0
M  V30 27442 H 2678.19 5.64328 -3.16454 0
M  V30 27443 N 2678.32 0.815849 1.34839 0
M  V30 27444 C 2679.27 0.205209 2.27075 0
M  V30 27445 C 2680.25 -0.626388 1.48207 0
M  V30 27446 O 2681.44 -0.482127 1.70307 0
M  V30 27447 C 2678.57 -0.637812 3.37323 0
M  V30 27448 C 2677.66 0.204023 4.23609 0
M  V30 27449 N 2678.05 1.27158 4.89555 0
M  V30 27450 C 2676.35 -0.0128187 4.45998 0
M  V30 27451 C 2677.05 1.7863 5.53594 0
M  V30 27452 N 2676.02 1.09129 5.32533 0
M  V30 27453 H 2679.83 1.02191 2.75561 0
M  V30 27454 H 2677.34 0.657938 1.48475 0
M  V30 27455 H 2679.34 -1.09139 4.02361 0
M  V30 27456 H 2678 -1.45276 2.90388 0
M  V30 27457 H 2679.01 1.65432 4.90767 0
M  V30 27458 H 2675.69 -0.796168 4.09838 0
M  V30 27459 H 2677.08 2.67903 6.1618 0
M  V30 27460 N 2679.8 -1.46924 0.570174 0
M  V30 27461 C 2680.73 -2.28255 -0.207868 0
M  V30 27462 C 2681.74 -1.37776 -0.867277 0
M  V30 27463 O 2682.93 -1.62486 -0.738948 0
M  V30 27464 C 2680.03 -3.12435 -1.31292 0
M  V30 27465 C 2679.2 -4.3096 -0.747839 0
M  V30 27466 C 2678.26 -4.96633 -1.73901 0
M  V30 27467 O 2677.29 -5.54621 -1.28001 0
M  V30 27468 N 2678.49 -4.92503 -3.0728 0
M  V30 27469 H 2681.25 -2.9567 0.489846 0
M  V30 27470 H 2678.82 -1.56698 0.407104 0
M  V30 27471 H 2680.81 -3.53236 -1.97501 0
M  V30 27472 H 2679.38 -2.47178 -1.91368 0
M  V30 27473 H 2678.6 -3.94094 0.0913759 0
M  V30 27474 H 2679.89 -5.07596 -0.349869 0
M  V30 27475 H 2679.28 -4.46615 -3.47206 0
M  V30 27476 H 2677.84 -5.37284 -3.69011 0
M  V30 27477 N 2681.27 -0.307291 -1.54575 0
M  V30 27478 C 2682.68 0.184088 -1.8579 0
M  V30 27479 C 2683.04 1.52925 -1.22916 0
M  V30 27480 O 2682.16 2.0983 -0.529163 0
M  V30 27481 C 2682.76 0.340803 -3.37082 0
M  V30 27482 C 2681.31 0.776401 -3.68306 0
M  V30 27483 C 2680.46 -0.111551 -2.77076 0
M  V30 27484 H 2683.41 -0.528105 -1.49655 0
M  V30 27485 H 2683.43 1.17437 -3.61924 0
M  V30 27486 H 2682.95 -0.638376 -3.82814 0
M  V30 27487 H 2681.05 1.76591 -3.28095 0
M  V30 27488 H 2681.16 0.591429 -4.75436 0
M  V30 27489 H 2679.52 0.410212 -2.51375 0
M  V30 27490 H 2680.31 -1.0872 -3.2563 0
M  V30 27491 N 2682.75 1.57561 -0.0351337 0
M  V30 27492 C 2684 1.91668 0.640926 0
M  V30 27493 C 2684.32 0.912712 1.72321 0
M  V30 27494 O 2683.59 -0.0448745 1.95849 0
M  V30 27495 H 2682.17 0.707487 0.23973 0
M  V30 27496 H 2684.83 1.94717 -0.0843552 0
M  V30 27497 H 2683.93 2.92454 1.08982 0
M  V30 27498 N 2684.23 -0.238084 1.55791 0
M  V30 27499 C 2685.48 -0.966305 1.78299 0
M  V30 27500 C 2685.81 -1.84636 0.601936 0
M  V30 27501 O 2685.08 -1.90354 -0.399465 0
M  V30 27502 C 2685.37 -1.81933 3.10761 0
M  V30 27503 C 2685.22 -0.966881 4.39285 0
M  V30 27504 C 2686.54 -2.80021 3.39524 0
M  V30 27505 H 2683.66 -0.349871 0.64866 0
M  V30 27506 H 2686.3 -0.23622 1.88526 0
M  V30 27507 H 2684.45 -2.4418 3.02173 0
M  V30 27508 H 2686.12 -0.362433 4.59874 0
M  V30 27509 H 2684.36 -0.271593 4.32949 0
M  V30 27510 H 2685.04 -1.59775 5.28371 0
M  V30 27511 H 2687.51 -2.27911 3.48132 0
M  V30 27512 H 2686.39 -3.36821 4.33408 0
M  V30 27513 H 2686.65 -3.5693 2.60871 0
M  V30 27514 N 2685.71 -1.4932 -0.504115 0
M  V30 27515 C 2686.64 -1.61875 -1.62262 0
M  V30 27516 C 2687.65 -0.5016 -1.5488 0
M  V30 27517 O 2688.84 -0.773525 -1.60869 0
M  V30 27518 C 2685.94 -1.55656 -3.01039 0
M  V30 27519 C 2685.11 -2.82851 -3.33637 0
M  V30 27520 C 2684.17 -2.69727 -4.51812 0
M  V30 27521 O 2683.2 -3.43658 -4.53749 0
M  V30 27522 N 2684.4 -1.81064 -5.5154 0
M  V30 27523 H 2687.17 -2.58342 -1.5192 0
M  V30 27524 H 2684.73 -1.46369 -0.691928 0
M  V30 27525 H 2686.72 -1.44534 -3.7801 0
M  V30 27526 H 2685.29 -0.6706 -3.05322 0
M  V30 27527 H 2684.51 -3.08347 -2.45593 0
M  V30 27528 H 2685.8 -3.67183 -3.52213 0
M  V30 27529 H 2685.2 -1.20251 -5.52771 0
M  V30 27530 H 2683.75 -1.75867 -6.27626 0
M  V30 27531 N 2687.19 0.754933 -1.38342 0
M  V30 27532 C 2688.1 1.89941 -1.37693 0
M  V30 27533 C 2689.11 1.71826 -0.274225 0
M  V30 27534 O 2690.29 1.94772 -0.512426 0
M  V30 27535 C 2687.35 3.25291 -1.19944 0
M  V30 27536 C 2686.41 3.55942 -2.40007 0
M  V30 27537 C 2685.65 4.84834 -2.23095 0
M  V30 27538 O 2685.87 5.57114 -1.22396 0
M  V30 27539 O 2684.8 5.14932 -3.11655 0
M  V30 27540 H 2688.63 1.93442 -2.34124 0
M  V30 27541 H 2686.21 0.900023 -1.19247 0
M  V30 27542 H 2688.1 4.06216 -1.121 0
M  V30 27543 H 2686.77 3.22605 -0.265976 0
M  V30 27544 H 2685.68 2.75184 -2.53426 0
M  V30 27545 H 2687.01 3.63388 -3.31979 0
M  V30 27546 N 2688.66 1.23189 0.982967 0
M  V30 27547 C 2689.91 1.06034 1.7205 0
M  V30 27548 C 2690.23 -0.403986 1.90769 0
M  V30 27549 O 2689.5 -1.28979 1.47449 0
M  V30 27550 H 2688.08 0.389375 0.637492 0
M  V30 27551 H 2690.74 1.54864 1.18335 0
M  V30 27552 H 2689.84 1.5462 2.71107 0
M  V30 27553 N 2690.14 -1.18133 1.04318 0
M  V30 27554 C 2691.07 -2.24057 0.657338 0
M  V30 27555 C 2692.05 -1.66654 -0.340649 0
M  V30 27556 O 2693.24 -1.92948 -0.22019 0
M  V30 27557 C 2690.37 -3.47293 0.0221325 0
M  V30 27558 C 2689.32 -4.17461 0.943931 0
M  V30 27559 C 2688.65 -5.3442 0.173067 0
M  V30 27560 C 2689.95 -4.70673 2.26417 0
M  V30 27561 H 2691.64 -2.56586 1.54285 0
M  V30 27562 H 2689.19 -1.23334 0.743284 0
M  V30 27563 H 2691.14 -4.206 -0.259533 0
M  V30 27564 H 2689.86 -3.14004 -0.898268 0
M  V30 27565 H 2688.52 -3.46055 1.21002 0
M  V30 27566 H 2688.17 -4.9738 -0.74982 0
M  V30 27567 H 2687.87 -5.82303 0.7872 0
M  V30 27568 H 2689.4 -6.10516 -0.101521 0
M  V30 27569 H 2690.81 -5.35661 2.04303 0
M  V30 27570 H 2689.21 -5.291 2.83149 0
M  V30 27571 H 2690.28 -3.87957 2.9089 0
M  V30 27572 N 2691.62 -0.822988 -1.34405 0
M  V30 27573 C 2692.85 -0.424075 -2.02507 0
M  V30 27574 C 2693.26 0.969994 -1.61977 0
M  V30 27575 O 2692.62 1.62775 -0.825257 0
M  V30 27576 C 2692.67 -0.51672 -3.57788 0
M  V30 27577 O 2692.39 -1.85584 -3.9685 0
M  V30 27578 C 2693.89 -0.112715 -4.43157 0
M  V30 27579 H 2691.11 -0.170184 -0.64906 0
M  V30 27580 H 2693.66 -1.11116 -1.71678 0
M  V30 27581 H 2691.81 0.122285 -3.87207 0
M  V30 27582 H 2692.23 -1.83014 -4.91535 0
M  V30 27583 H 2693.7 -0.228623 -5.51526 0
M  V30 27584 H 2694.18 0.943761 -4.2894 0
M  V30 27585 H 2694.78 -0.725522 -4.19066 0
M  V30 27586 N 2693.1 1.4662 -0.577957 0
M  V30 27587 C 2694.33 2.06791 -0.0672005 0
M  V30 27588 C 2694.74 1.42745 1.23569 0
M  V30 27589 O 2694.1 0.531092 1.74601 0
M  V30 27590 C 2694.15 3.61332 0.110293 0
M  V30 27591 O 2693.87 4.2298 -1.14102 0
M  V30 27592 C 2695.37 4.3842 0.655948 0
M  V30 27593 H 2692.59 0.668719 -0.055285 0
M  V30 27594 H 2695.14 1.88318 -0.797275 0
M  V30 27595 H 2693.29 3.79248 0.790571 0
M  V30 27596 H 2693.7 5.15791 -0.951833 0
M  V30 27597 H 2695.18 5.4716 0.729341 0
M  V30 27598 H 2695.66 4.06134 1.67188 0
M  V30 27599 H 2696.26 4.25299 0.0106944 0
M  V30 27600 N 2694.58 0.315484 1.5441 0
M  V30 27601 C 2695.51 -0.546999 2.27003 0
M  V30 27602 C 2696.49 -1.12603 1.27494 0
M  V30 27603 O 2697.67 -1.15267 1.56292 0
M  V30 27604 C 2694.8 -1.71196 3.02174 0
M  V30 27605 C 2693.76 -1.26261 4.08952 0
M  V30 27606 C 2693.08 -2.51388 4.7192 0
M  V30 27607 C 2694.38 -0.383327 5.20891 0
M  V30 27608 H 2696.08 0.0585043 2.99343 0
M  V30 27609 H 2693.62 0.0295781 1.4397 0
M  V30 27610 H 2695.58 -2.32155 3.51685 0
M  V30 27611 H 2694.3 -2.34393 2.27437 0
M  V30 27612 H 2692.96 -0.675999 3.60313 0
M  V30 27613 H 2692.61 -3.12931 3.93806 0
M  V30 27614 H 2692.31 -2.22017 5.44043 0
M  V30 27615 H 2693.83 -3.13124 5.242 0
M  V30 27616 H 2695.24 -0.898983 5.66208 0
M  V30 27617 H 2693.64 -0.182752 5.99822 0
M  V30 27618 H 2694.71 0.587906 4.81323 0
M  V30 27619 N 2696.05 -1.5754 0.0434891 0
M  V30 27620 C 2697.47 -1.80065 -0.493311 0
M  V30 27621 C 2697.82 -0.955053 -1.71386 0
M  V30 27622 O 2696.94 -0.169472 -2.15735 0
M  V30 27623 C 2697.54 -3.2658 -0.901733 0
M  V30 27624 C 2696.1 -3.50049 -1.38356 0
M  V30 27625 C 2695.24 -2.75017 -0.355081 0
M  V30 27626 H 2698.19 -1.56396 0.269428 0
M  V30 27627 H 2698.21 -3.37079 -1.76517 0
M  V30 27628 H 2697.73 -3.88098 -0.0132028 0
M  V30 27629 H 2695.83 -2.93802 -2.29154 0
M  V30 27630 H 2695.94 -4.58764 -1.38102 0
M  V30 27631 H 2694.3 -2.40924 -0.826306 0
M  V30 27632 H 2695.09 -3.39258 0.525231 0
M  V30 27633 N 2697.53 0.229818 -1.55915 0
M  V30 27634 C 2698.95 0.57914 -1.48722 0
M  V30 27635 C 2699.15 1.87538 -0.737009 0
M  V30 27636 O 2698.2 2.51017 -0.273302 0
M  V30 27637 C 2699.52 0.66603 -2.93231 0
M  V30 27638 C 2701.07 0.757214 -3.03703 0
M  V30 27639 C 2701.54 0.875521 -4.49554 0
M  V30 27640 N 2703.03 0.939955 -4.53563 0
M  V30 27641 C 2703.77 1.05106 -5.63685 0
M  V30 27642 N 2703.26 1.12663 -6.83578 0
M  V30 27643 N 2705.06 1.08555 -5.51518 0
M  V30 27644 H 2697.21 -0.620893 -2.03122 0
M  V30 27645 H 2699.47 -0.216727 -0.922894 0
M  V30 27646 H 2699.18 -0.216701 -3.51032 0
M  V30 27647 H 2699.05 1.53237 -3.44671 0
M  V30 27648 H 2701.44 1.63039 -2.45972 0
M  V30 27649 H 2701.52 -0.134628 -2.55445 0
M  V30 27650 H 2701.16 0.00683423 -5.079 0
M  V30 27651 H 2701.09 1.78266 -4.95509 0
M  V30 27652 H 2703.58 0.892204 -3.67217 0
M  V30 27653 H 2703.9 1.21096 -7.63253 0
M  V30 27654 H 2702.24 1.09591 -6.86305 0
M  V30 27655 H 2705.43 1.02311 -4.56782 0
M  V30 27656 H 2705.6 1.16869 -6.37374 0
M  V30 27657 N 2699.01 1.49585 0.49619 0
M  V30 27658 C 2700.24 1.63297 1.27862 0
M  V30 27659 C 2700.66 0.306188 1.85591 0
M  V30 27660 O 2700.02 -0.726822 1.66093 0
M  V30 27661 C 2700.07 2.70794 2.38123 0
M  V30 27662 O 2699.17 2.30302 3.42104 0
M  V30 27663 H 2698.51 0.54641 0.37727 0
M  V30 27664 H 2701.04 1.95804 0.593462 0
M  V30 27665 H 2701.05 2.93109 2.83815 0
M  V30 27666 H 2699.73 3.67101 1.95472 0
M  V30 27667 H 2698.3 2.18336 3.02297 0
M  V30 27668 N 2700.49 -0.747586 1.3874 0
M  V30 27669 C 2701.9 -1.32522 1.3151 0
M  V30 27670 C 2702.25 -1.96182 -0.0263618 0
M  V30 27671 O 2701.38 -1.9547 -0.928456 0
M  V30 27672 C 2701.97 -2.40962 2.38166 0
M  V30 27673 C 2700.53 -2.9443 2.34495 0
M  V30 27674 C 2699.68 -1.6787 2.20715 0
M  V30 27675 H 2702.63 -0.546016 1.49011 0
M  V30 27676 H 2702.65 -3.21047 2.04228 0
M  V30 27677 H 2702.16 -1.94599 3.35787 0
M  V30 27678 H 2700.26 -3.45106 1.40473 0
M  V30 27679 H 2700.37 -3.48401 3.28867 0
M  V30 27680 H 2698.74 -1.91726 1.6767 0
M  V30 27681 H 2699.52 -1.23577 3.20287 0
M  V30 27682 N 2701.97 -1.23709 -0.97642 0
M  V30 27683 C 2702.93 -1.02291 -2.05108 0
M  V30 27684 C 2703.93 0.0166912 -1.60791 0
M  V30 27685 O 2705.12 -0.223438 -1.72761 0
M  V30 27686 C 2702.25 -0.548566 -3.36457 0
M  V30 27687 H 2703.44 -1.97664 -2.25542 0
M  V30 27688 H 2701 -1.05808 -1.1504 0
M  V30 27689 H 2701.73 0.408761 -3.21714 0
M  V30 27690 H 2701.52 -1.2988 -3.69964 0
M  V30 27691 H 2703.01 -0.419479 -4.15488 0
M  V30 27692 N 2703.44 1.17579 -1.04943 0
M  V30 27693 C 2704.67 1.92243 -0.778287 0
M  V30 27694 C 2705.09 1.76153 0.659676 0
M  V30 27695 O 2704.45 1.07758 1.45801 0
M  V30 27696 C 2704.5 3.41414 -1.16057 0
M  V30 27697 O 2703.6 4.1137 -0.291225 0
M  V30 27698 H 2702.95 0.599426 -0.28563 0
M  V30 27699 H 2705.48 1.4905 -1.40162 0
M  V30 27700 H 2705.49 3.92147 -1.12626 0
M  V30 27701 H 2704.16 3.52445 -2.20806 0
M  V30 27702 H 2702.74 3.70898 -0.385916 0
M  V30 27703 N 2704.92 0.830104 1.33967 0
M  V30 27704 C 2706.17 0.422226 1.98356 0
M  V30 27705 C 2706.5 -1.01385 1.65635 0
M  V30 27706 O 2705.78 -1.70734 0.931678 0
M  V30 27707 C 2706.06 0.633105 3.54491 0
M  V30 27708 C 2705.91 2.11581 3.9693 0
M  V30 27709 C 2707.23 0.0736357 4.40038 0
M  V30 27710 H 2704.35 0.154883 0.720542 0
M  V30 27711 H 2706.99 1.044 1.58747 0
M  V30 27712 H 2705.14 0.103843 3.88361 0
M  V30 27713 H 2706.81 2.70927 3.73358 0
M  V30 27714 H 2705.06 2.6036 3.4698 0
M  V30 27715 H 2705.73 2.21415 5.05648 0
M  V30 27716 H 2708.2 0.525923 4.12763 0
M  V30 27717 H 2707.08 0.250938 5.48326 0
M  V30 27718 H 2707.34 -1.02195 4.30126 0
M  V30 27719 N 2706.4 -1.46311 0.585725 0
M  V30 27720 C 2707.65 -2.0237 0.0724566 0
M  V30 27721 C 2707.98 -1.45685 -1.28865 0
M  V30 27722 O 2707.23 -0.612978 -1.85852 0
M  V30 27723 C 2707.53 -3.57378 -0.0400683 0
M  V30 27724 C 2707.2 -4.33116 1.25384 0
M  V30 27725 C 2705.86 -4.53527 1.60832 0
M  V30 27726 C 2708.21 -4.76582 2.10995 0
M  V30 27727 C 2705.54 -5.14656 2.81685 0
M  V30 27728 C 2707.89 -5.39046 3.31077 0
M  V30 27729 C 2706.55 -5.57684 3.66804 0
M  V30 27730 H 2705.82 -0.740526 0.0265138 0
M  V30 27731 H 2708.47 -1.75645 0.762966 0
M  V30 27732 H 2706.78 -3.83257 -0.813723 0
M  V30 27733 H 2708.47 -3.98433 -0.453008 0
M  V30 27734 H 2705.06 -4.17528 0.967881 0
M  V30 27735 H 2709.25 -4.60566 1.84912 0
M  V30 27736 H 2704.5 -5.27276 3.09499 0
M  V30 27737 H 2708.68 -5.71684 3.97682 0
M  V30 27738 H 2706.3 -6.0482 4.6054 0
M  V30 27739 N 2707.88 -0.323668 -1.54241 0
M  V30 27740 C 2708.81 0.584794 -2.2058 0
M  V30 27741 C 2709.79 1.11565 -1.18288 0
M  V30 27742 O 2710.97 1.17963 -1.47027 0
M  V30 27743 C 2708.1 1.80244 -2.86757 0
M  V30 27744 C 2707.15 1.40282 -4.02769 0
M  V30 27745 S 2707.98 0.439445 -5.33694 0
M  V30 27746 C 2709.14 1.66437 -6.03365 0
M  V30 27747 H 2709.37 0.0212716 -2.97292 0
M  V30 27748 H 2706.9 -0.107753 -1.54024 0
M  V30 27749 H 2708.86 2.5011 -3.25507 0
M  V30 27750 H 2707.52 2.33715 -2.09848 0
M  V30 27751 H 2706.71 2.31016 -4.47937 0
M  V30 27752 H 2706.32 0.783864 -3.65693 0
M  V30 27753 H 2708.61 2.60179 -6.2555 0
M  V30 27754 H 2709.55 1.25485 -6.96892 0
M  V30 27755 H 2709.96 1.8514 -5.33276 0
M  V30 27756 N 2709.36 1.57515 -0.0518432 0
M  V30 27757 C 2710.27 2.15054 0.937501 0
M  V30 27758 C 2711.28 1.10851 1.3412 0
M  V30 27759 O 2712.46 1.43022 1.41798 0
M  V30 27760 C 2709.52 2.68469 2.19374 0
M  V30 27761 C 2708.59 3.87473 1.84834 0
M  V30 27762 C 2707.82 4.38331 3.04469 0
M  V30 27763 O 2708.04 3.88263 4.17861 0
M  V30 27764 O 2706.98 5.29911 2.85444 0
M  V30 27765 H 2710.8 2.99912 0.478148 0
M  V30 27766 H 2708.39 1.48429 0.170094 0
M  V30 27767 H 2710.27 3.02792 2.93079 0
M  V30 27768 H 2708.94 1.86682 2.64446 0
M  V30 27769 H 2707.85 3.58038 1.08443 0
M  V30 27770 H 2709.18 4.70492 1.44561 0
M  V30 27771 N 2710.84 -0.221546 1.56035 0
M  V30 27772 C 2711.77 -1.29802 1.88902 0
M  V30 27773 C 2712.78 -1.43045 0.777294 0
M  V30 27774 O 2713.97 -1.43943 1.05559 0
M  V30 27775 C 2711.07 -2.67363 2.08255 0
M  V30 27776 C 2710.24 -2.76068 3.39272 0
M  V30 27777 C 2709.3 -3.94643 3.48056 0
M  V30 27778 O 2708.33 -3.82981 4.21087 0
M  V30 27779 N 2709.53 -5.08948 2.792 0
M  V30 27780 H 2712.29 -1.01933 2.81833 0
M  V30 27781 H 2709.86 -0.411584 1.56581 0
M  V30 27782 H 2711.85 -3.45069 2.11447 0
M  V30 27783 H 2710.42 -2.87832 1.21949 0
M  V30 27784 H 2709.64 -1.84839 3.48178 0
M  V30 27785 H 2710.93 -2.78853 4.2558 0
M  V30 27786 H 2710.32 -5.21318 2.19645 0
M  V30 27787 H 2708.88 -5.84695 2.88053 0
M  V30 27788 N 2712.31 -1.49846 -0.48825 0
M  V30 27789 C 2713.56 -1.59659 -1.23909 0
M  V30 27790 C 2713.88 -0.291039 -1.92816 0
M  V30 27791 O 2713.15 0.690453 -1.83329 0
M  V30 27792 H 2711.73 -0.588294 -0.460347 0
M  V30 27793 H 2714.39 -1.86538 -0.564761 0
M  V30 27794 H 2713.49 -2.39912 -1.99621 0
M  V30 27795 N 2713.79 0.740218 -1.39135 0
M  V30 27796 C 2715.02 1.53456 -1.3952 0
M  V30 27797 C 2715.44 1.88098 0.00965577 0
M  V30 27798 O 2714.8 1.51538 0.995285 0
M  V30 27799 C 2714.85 2.80196 -2.26986 0
M  V30 27800 O 2713.95 3.75905 -1.69615 0
M  V30 27801 H 2713.29 0.463628 -0.475336 0
M  V30 27802 H 2715.82 0.913685 -1.83065 0
M  V30 27803 H 2715.83 3.28985 -2.41315 0
M  V30 27804 H 2714.51 2.54315 -3.29085 0
M  V30 27805 H 2713.08 3.34655 -1.645 0
M  V30 27806 N 2715.27 1.24225 0.969846 0
M  V30 27807 C 2716.52 1.07853 1.70916 0
M  V30 27808 C 2716.84 -0.383729 1.91187 0
M  V30 27809 O 2716.11 -1.27408 1.48808 0
M  V30 27810 H 2714.69 0.396114 0.633327 0
M  V30 27811 H 2717.35 1.5611 1.16686 0
M  V30 27812 H 2716.45 1.57487 2.69452 0
M  V30 27813 N 2716.75 -1.1702 1.05565 0
M  V30 27814 C 2717.66 -2.24805 0.670797 0
M  V30 27815 C 2718.67 -1.71219 -0.309835 0
M  V30 27816 O 2719.85 -2.00756 -0.16099 0
M  V30 27817 C 2716.91 -3.46656 0.0553979 0
M  V30 27818 C 2715.98 -4.15312 1.08696 0
M  V30 27819 C 2715.21 -5.31345 0.50083 0
M  V30 27820 O 2715.43 -5.66228 -0.688618 0
M  V30 27821 O 2714.37 -5.89053 1.23693 0
M  V30 27822 H 2718.19 -2.6002 1.56918 0
M  V30 27823 H 2715.78 -1.24393 0.82745 0
M  V30 27824 H 2717.66 -4.20426 -0.286418 0
M  V30 27825 H 2716.33 -3.13231 -0.816583 0
M  V30 27826 H 2715.24 -3.43544 1.48083 0
M  V30 27827 H 2716.57 -4.52773 1.93022 0
M  V30 27828 N 2718.23 -0.837197 -1.33524 0
M  V30 27829 C 2719.19 -0.274461 -2.27551 0
M  V30 27830 C 2720.19 0.555855 -1.50887 0
M  V30 27831 O 2721.38 0.369888 -1.70228 0
M  V30 27832 C 2718.51 0.613546 -3.35333 0
M  V30 27833 H 2719.7 -1.10413 -2.78835 0
M  V30 27834 H 2717.26 -0.610151 -1.43899 0
M  V30 27835 H 2717.99 1.46572 -2.89288 0
M  V30 27836 H 2717.78 0.0194652 -3.92095 0
M  V30 27837 H 2719.27 1.00061 -4.05435 0
M  V30 27838 N 2719.7 1.45999 -0.593476 0
M  V30 27839 C 2720.67 2.28867 0.123497 0
M  V30 27840 C 2721.67 1.3899 0.808604 0
M  V30 27841 O 2722.86 1.61257 0.658916 0
M  V30 27842 C 2719.99 3.19655 1.18464 0
M  V30 27843 H 2721.18 2.93736 -0.604894 0
M  V30 27844 H 2718.73 1.52287 -0.351902 0
M  V30 27845 H 2719.47 2.59555 1.94426 0
M  V30 27846 H 2719.25 3.85842 0.697762 0
M  V30 27847 H 2720.74 3.82 1.68719 0
M  V30 27848 N 2721.18 0.331843 1.54067 0
M  V30 27849 C 2722.15 -0.517729 2.23276 0
M  V30 27850 C 2723.15 -1.03695 1.22898 0
M  V30 27851 O 2724.34 -0.928058 1.4742 0
M  V30 27852 C 2721.47 -1.71998 2.94329 0
M  V30 27853 H 2722.66 0.0874034 2.99773 0
M  V30 27854 H 2720.21 0.0830317 1.56079 0
M  V30 27855 H 2720.95 -2.36413 2.2199 0
M  V30 27856 H 2720.73 -1.355 3.67943 0
M  V30 27857 H 2722.22 -2.32285 3.47035 0
M  V30 27858 N 2722.66 -1.57485 0.0601958 0
M  V30 27859 C 2723.94 -1.84416 -0.651923 0
M  V30 27860 C 2724.32 -0.950394 -1.88496 0
M  V30 27861 O 2723.67 -0.0137121 -2.28496 0
M  V30 27862 C 2723.88 -3.34348 -1.00063 0
M  V30 27863 C 2725.22 -4.0158 -1.37908 0
M  V30 27864 O 2726.25 -3.39026 -1.09271 0
M  V30 27865 O 2725.11 -5.11891 -1.9139 0
M  V30 27866 H 2722.2 -0.761461 -0.322655 0
M  V30 27867 H 2724.75 -1.6946 0.0902457 0
M  V30 27868 H 2723.52 -3.91102 -0.124394 0
M  V30 27869 H 2723.14 -3.54524 -1.79995 0
M  V30 27870 N 2724.14 0.213268 -1.5615 0
M  V30 27871 C 2725.55 0.779552 -1.69646 0
M  V30 27872 C 2725.9 1.84635 -0.663648 0
M  V30 27873 O 2725.03 2.1562 0.183595 0
M  V30 27874 C 2725.62 1.42079 -3.0757 0
M  V30 27875 C 2724.18 1.93437 -3.22892 0
M  V30 27876 C 2723.33 0.797565 -2.65583 0
M  V30 27877 H 2726.28 -0.011523 -1.58696 0
M  V30 27878 H 2726.3 2.28981 -3.03888 0
M  V30 27879 H 2725.81 0.64412 -3.82718 0
M  V30 27880 H 2723.91 2.73879 -2.52628 0
M  V30 27881 H 2724.02 2.10864 -4.30201 0
M  V30 27882 H 2722.39 1.20708 -2.2428 0
M  V30 27883 H 2723.17 0.0334336 -3.43284 0
M  V30 27884 N 2725.62 1.50103 0.480296 0
M  V30 27885 C 2726.53 1.71064 1.60544 0
M  V30 27886 C 2727.54 0.593558 1.63563 0
M  V30 27887 O 2728.72 0.870782 1.81602 0
M  V30 27888 C 2725.78 1.79176 2.96811 0
M  V30 27889 C 2724.84 3.02867 3.04254 0
M  V30 27890 C 2724.08 3.10582 4.34021 0
M  V30 27891 O 2724.3 2.25332 5.24005 0
M  V30 27892 O 2723.23 4.0323 4.46866 0
M  V30 27893 H 2727.06 2.66422 1.45783 0
M  V30 27894 H 2724.65 1.3409 0.658814 0
M  V30 27895 H 2726.53 1.86745 3.77762 0
M  V30 27896 H 2725.2 0.870002 3.11789 0
M  V30 27897 H 2724.11 3.00803 2.22414 0
M  V30 27898 H 2725.44 3.94591 2.94209 0
M  V30 27899 N 2727.09 -0.732829 1.39526 0
M  V30 27900 C 2728.32 -1.52206 1.40146 0
M  V30 27901 C 2728.74 -1.888 -0.00345517 0
M  V30 27902 O 2728.09 -1.54252 -0.97533 0
M  V30 27903 C 2728.15 -2.80826 2.27637 0
M  V30 27904 O 2727.87 -2.45786 3.62658 0
M  V30 27905 C 2729.37 -3.7484 2.36664 0
M  V30 27906 H 2726.59 -0.470289 0.478612 0
M  V30 27907 H 2729.13 -0.905356 1.83367 0
M  V30 27908 H 2727.29 -3.38823 1.87824 0
M  V30 27909 H 2727.7 -3.28424 4.08947 0
M  V30 27910 H 2729.17 -4.61978 3.02126 0
M  V30 27911 H 2729.65 -4.16742 1.38645 0
M  V30 27912 H 2730.26 -3.22761 2.76957 0
M  V30 27913 N 2728.57 -1.24737 -0.963244 0
M  V30 27914 C 2729.8 -1.11689 -1.74164 0
M  V30 27915 C 2730.22 0.330155 -1.85891 0
M  V30 27916 O 2729.57 1.22757 -1.35044 0
M  V30 27917 C 2729.62 -1.756 -3.15985 0
M  V30 27918 O 2729.34 -3.14648 -3.04842 0
M  V30 27919 C 2730.85 -1.6822 -4.10142 0
M  V30 27920 H 2728.07 -0.389998 -0.546024 0
M  V30 27921 H 2730.61 -1.64931 -1.20904 0
M  V30 27922 H 2728.76 -1.2635 -3.66216 0
M  V30 27923 H 2729.18 -3.45936 -3.94244 0
M  V30 27924 H 2730.65 -2.17613 -5.07295 0
M  V30 27925 H 2731.13 -0.644284 -4.34449 0
M  V30 27926 H 2731.74 -2.16918 -3.65823 0
M  V30 27927 N 2730.05 1.16459 -1.06184 0
M  V30 27928 C 2731.28 1.90866 -0.798617 0
M  V30 27929 C 2731.69 1.77372 0.64689 0
M  V30 27930 O 2731.05 1.11761 1.44277 0
M  V30 27931 C 2731.1 3.41608 -1.18264 0
M  V30 27932 O 2730.82 3.54697 -2.57141 0
M  V30 27933 C 2732.32 4.33067 -0.946993 0
M  V30 27934 H 2729.54 0.605281 -0.289614 0
M  V30 27935 H 2732.09 1.47624 -1.41518 0
M  V30 27936 H 2730.24 3.82557 -0.61063 0
M  V30 27937 H 2730.66 4.48165 -2.72485 0
M  V30 27938 H 2732.13 5.37302 -1.26533 0
M  V30 27939 H 2732.61 4.39043 0.117329 0
M  V30 27940 H 2733.21 3.97844 -1.50333 0
M  V30 27941 N 2731.53 0.844266 1.33079 0
M  V30 27942 C 2732.77 0.44324 1.97897 0
M  V30 27943 C 2733.11 -0.996221 1.66701 0
M  V30 27944 O 2732.38 -1.69736 0.949734 0
M  V30 27945 C 2732.67 0.670668 3.53799 0
M  V30 27946 C 2732.52 2.15779 3.94664 0
M  V30 27947 C 2733.84 0.120304 4.39936 0
M  V30 27948 H 2730.96 0.162517 0.718858 0
M  V30 27949 H 2733.6 1.06078 1.57631 0
M  V30 27950 H 2731.75 0.145028 3.88229 0
M  V30 27951 H 2733.42 2.74871 3.70464 0
M  V30 27952 H 2731.66 2.64026 3.44199 0
M  V30 27953 H 2732.33 2.26765 5.03271 0
M  V30 27954 H 2734.81 0.569672 4.12182 0
M  V30 27955 H 2733.69 0.309081 5.48029 0
M  V30 27956 H 2733.95 -0.976271 4.31186 0
M  V30 27957 N 2733.01 -1.45682 0.60121 0
M  V30 27958 C 2734.23 -2.07167 0.0982609 0
M  V30 27959 C 2734.66 -1.44398 -1.20544 0
M  V30 27960 O 2734.01 -0.534378 -1.73246 0
M  V30 27961 C 2734.06 -3.60583 -0.0346342 0
M  V30 27962 O 2733.17 -3.9783 -1.0865 0
M  V30 27963 H 2732.51 -0.660174 0.0711734 0
M  V30 27964 H 2735.04 -1.87035 0.829409 0
M  V30 27965 H 2735.05 -4.07323 -0.234897 0
M  V30 27966 H 2733.72 -4.05657 0.917336 0
M  V30 27967 H 2732.3 -3.62771 -0.863211 0
M  V30 27968 N 2734.48 -0.340009 -1.53889 0
M  V30 27969 C 2735.71 0.261761 -2.05742 0
M  V30 27970 C 2736.13 1.43715 -1.21357 0
M  V30 27971 O 2735.49 1.7988 -0.226481 0
M  V30 27972 C 2735.54 0.658165 -3.54543 0
M  V30 27973 O 2734.64 1.75862 -3.73023 0
M  V30 27974 H 2733.99 0.0441556 -0.66253 0
M  V30 27975 H 2736.52 -0.493196 -1.98567 0
M  V30 27976 H 2736.53 0.936298 -3.97111 0
M  V30 27977 H 2735.2 -0.201431 -4.15412 0
M  V30 27978 H 2733.78 1.47803 -3.42358 0
M  V30 27979 N 2735.96 1.57451 -0.0685468 0
M  V30 27980 C 2737.21 1.93366 0.601314 0
M  V30 27981 C 2737.54 0.948323 1.69815 0
M  V30 27982 O 2736.79 -0.0365855 1.95666 0
M  V30 27983 C 2737.09 3.35916 1.22045 0
M  V30 27984 C 2736.76 4.50206 0.250086 0
M  V30 27985 C 2735.42 4.81197 -0.0168799 0
M  V30 27986 C 2737.77 5.19553 -0.413959 0
M  V30 27987 C 2735.1 5.78875 -0.955032 0
M  V30 27988 C 2737.45 6.18236 -1.34041 0
M  V30 27989 C 2736.12 6.47646 -1.61588 0
M  V30 27990 H 2735.39 0.707577 0.220036 0
M  V30 27991 H 2738.03 1.90997 -0.138731 0
M  V30 27992 H 2736.34 3.34735 2.03616 0
M  V30 27993 H 2738.04 3.60993 1.74599 0
M  V30 27994 H 2734.63 4.26033 0.468346 0
M  V30 27995 H 2738.81 4.95809 -0.22082 0
M  V30 27996 H 2734.07 5.99989 -1.17574 0
M  V30 27997 H 2738.24 6.71076 -1.86093 0
M  V30 27998 H 2735.87 7.23146 -2.34444 0
M  V30 27999 N 2737.44 -0.204984 1.56261 0
M  V30 28000 C 2738.67 -0.947479 1.84493 0
M  V30 28001 C 2739.09 -1.76478 0.650925 0
M  V30 28002 O 2738.45 -1.76825 -0.400319 0
M  V30 28003 C 2738.5 -1.82742 3.10866 0
M  V30 28004 O 2737.6 -2.92495 2.90724 0
M  V30 28005 H 2736.94 -0.267375 0.607788 0
M  V30 28006 H 2739.47 -0.213287 2.03485 0
M  V30 28007 H 2739.48 -2.23401 3.41403 0
M  V30 28008 H 2738.16 -1.22683 3.97394 0
M  V30 28009 H 2736.73 -2.55662 2.71461 0
M  V30 28010 N 2738.92 -1.50356 -0.472329 0
M  V30 28011 C 2739.85 -1.72057 -1.57856 0
M  V30 28012 C 2740.83 -0.569533 -1.60282 0
M  V30 28013 O 2742.02 -0.808534 -1.76568 0
M  V30 28014 C 2739.15 -1.81357 -2.96188 0
M  V30 28015 C 2738.1 -2.96535 -3.08628 0
M  V30 28016 C 2737.43 -2.90975 -4.48595 0
M  V30 28017 C 2738.73 -4.37062 -2.85962 0
M  V30 28018 H 2740.42 -2.64679 -1.39948 0
M  V30 28019 H 2737.97 -1.27368 -0.671823 0
M  V30 28020 H 2739.92 -1.95123 -3.73504 0
M  V30 28021 H 2738.64 -0.853558 -3.15249 0
M  V30 28022 H 2737.3 -2.82417 -2.33744 0
M  V30 28023 H 2736.95 -1.92823 -4.64573 0
M  V30 28024 H 2736.65 -3.68297 -4.57855 0
M  V30 28025 H 2738.17 -3.06789 -5.27933 0
M  V30 28026 H 2739.59 -4.51712 -3.53028 0
M  V30 28027 H 2737.98 -5.15825 -3.06667 0
M  V30 28028 H 2739.05 -4.49517 -1.8183 0
M  V30 28029 N 2740.4 0.725419 -1.39912 0
M  V30 28030 C 2741.35 1.86084 -1.39555 0
M  V30 28031 C 2742.34 1.67114 -0.277363 0
M  V30 28032 O 2743.55 1.74338 -0.447896 0
M  V30 28033 H 2739.92 0.612703 -0.436003 0
M  V30 28034 H 2741.89 1.83501 -2.35308 0
M  V30 28035 C 2740.64 3.23858 -1.26535 0
M  V30 28036 H 2739.96 3.39056 -2.11851 0
M  V30 28037 H 2741.4 4.03468 -1.30343 0
M  V30 28038 C 2739.86 3.3689 0.0253576 0
M  V30 28039 O 2740.39 3.89259 0.99198 0
M  V30 28040 N 2738.6 2.90456 0.0916017 0
M  V30 28041 H 2738.15 2.48027 -0.695719 0
M  V30 28042 H 2738.1 2.99555 0.954692 0
M  V30 28043 N 2741.88 1.25246 0.956615 0
M  V30 28044 C 2743.12 1.10039 1.7035 0
M  V30 28045 C 2743.45 -0.358122 1.90869 0
M  V30 28046 O 2742.73 -1.26408 1.47822 0
M  V30 28047 C 2743.01 1.85304 3.08763 0
M  V30 28048 C 2742.87 3.38972 2.95666 0
M  V30 28049 C 2744.18 1.63458 4.08619 0
M  V30 28050 H 2741.3 0.401134 0.618272 0
M  V30 28051 H 2743.95 1.54053 1.1121 0
M  V30 28052 H 2742.1 1.47893 3.59249 0
M  V30 28053 H 2743.77 3.86045 2.5252 0
M  V30 28054 H 2742.01 3.66785 2.31628 0
M  V30 28055 H 2742.68 3.86846 3.93769 0
M  V30 28056 H 2745.16 1.96022 3.67035 0
M  V30 28057 H 2744.03 2.1856 5.03511 0
M  V30 28058 H 2744.29 0.575434 4.38339 0
M  V30 28059 N 2743.35 -1.15894 1.068 0
M  V30 28060 C 2744.26 -2.24081 0.694603 0
M  V30 28061 C 2745.28 -1.71538 -0.291657 0
M  V30 28062 O 2746.46 -2.00915 -0.139688 0
M  V30 28063 C 2743.52 -3.46577 0.0921623 0
M  V30 28064 C 2742.58 -4.14135 1.13095 0
M  V30 28065 C 2741.81 -5.30784 0.557158 0
M  V30 28066 O 2742.04 -5.66927 -0.628523 0
M  V30 28067 O 2740.97 -5.87708 1.29934 0
M  V30 28068 H 2744.8 -2.58341 1.59668 0
M  V30 28069 H 2742.38 -1.23508 0.840597 0
M  V30 28070 H 2744.26 -4.20706 -0.24181 0
M  V30 28071 H 2742.94 -3.14079 -0.783315 0
M  V30 28072 H 2741.85 -3.41954 1.51718 0
M  V30 28073 H 2743.18 -4.507 1.97813 0
M  V30 28074 N 2744.83 -0.851312 -1.32629 0
M  V30 28075 C 2746.06 -0.466257 -2.0127 0
M  V30 28076 C 2746.47 0.940685 -1.64158 0
M  V30 28077 O 2745.81 1.62477 -0.857137 0
M  V30 28078 C 2745.87 -0.521735 -3.55694 0
M  V30 28079 C 2745.54 -1.88698 -4.16224 0
M  V30 28080 C 2746.54 -2.85197 -4.34694 0
M  V30 28081 C 2744.22 -2.18321 -4.52373 0
M  V30 28082 C 2746.21 -4.09474 -4.88477 0
M  V30 28083 C 2743.9 -3.42852 -5.05861 0
M  V30 28084 C 2744.9 -4.38244 -5.23862 0
M  V30 28085 O 2744.59 -5.6057 -5.76209 0
M  V30 28086 H 2744.32 -0.182031 -0.65103 0
M  V30 28087 H 2746.87 -1.14897 -1.70258 0
M  V30 28088 H 2745.1 0.21782 -3.86086 0
M  V30 28089 H 2746.79 -0.152754 -4.05612 0
M  V30 28090 H 2747.56 -2.63614 -4.07103 0
M  V30 28091 H 2743.44 -1.44859 -4.37649 0
M  V30 28092 H 2746.98 -4.8394 -5.02442 0
M  V30 28093 H 2742.88 -3.64286 -5.32885 0
M  V30 28094 H 2743.65 -5.62482 -5.94606 0
M  V30 28095 N 2746.31 1.45361 -0.608928 0
M  V30 28096 C 2747.27 2.28985 0.099216 0
M  V30 28097 C 2748.27 1.3984 0.793817 0
M  V30 28098 O 2749.46 1.61947 0.641776 0
M  V30 28099 C 2746.59 3.20893 1.15067 0
M  V30 28100 H 2747.79 2.93078 -0.636015 0
M  V30 28101 H 2745.34 1.51905 -0.368034 0
M  V30 28102 H 2746.08 2.61603 1.91662 0
M  V30 28103 H 2745.86 3.8656 0.656799 0
M  V30 28104 H 2747.35 3.83768 1.64658 0
M  V30 28105 N 2747.79 0.348166 1.53706 0
M  V30 28106 C 2749.04 -0.247957 2.0017 0
M  V30 28107 C 2749.35 -1.51284 1.23986 0
M  V30 28108 O 2750.56 -2.18649 1.6095 0
M  V30 28109 C 2749.01 -0.492396 3.56516 0
M  V30 28110 C 2748.62 0.756854 4.41561 0
M  V30 28111 C 2750.36 -1.04712 4.11382 0
M  V30 28112 C 2748.27 0.48296 5.89425 0
M  V30 28113 H 2747.2 -0.096432 0.747808 0
M  V30 28114 H 2749.85 0.464211 1.77531 0
M  V30 28115 H 2748.23 -1.26538 3.75239 0
M  V30 28116 H 2749.41 1.5313 4.34612 0
M  V30 28117 H 2747.72 1.23355 3.97709 0
M  V30 28118 H 2750.32 -1.26708 5.1947 0
M  V30 28119 H 2750.66 -2.00405 3.64889 0
M  V30 28120 H 2751.2 -0.334731 3.96389 0
M  V30 28121 H 2747.93 1.40973 6.40162 0
M  V30 28122 H 2747.45 -0.253311 5.99265 0
M  V30 28123 H 2749.13 0.10193 6.4692 0
M  V30 28124 N 2749.27 -1.57412 0.0768958 0
M  V30 28125 C 2750.2 -2.10004 -0.918211 0
M  V30 28126 C 2751.21 -1.03328 -1.25806 0
M  V30 28127 O 2752.4 -1.30827 -1.21436 0
M  V30 28128 C 2749.5 -2.54968 -2.23259 0
M  V30 28129 C 2748.67 -3.85274 -2.07081 0
M  V30 28130 C 2747.73 -4.16278 -3.21869 0
M  V30 28131 O 2746.76 -4.85795 -2.96634 0
M  V30 28132 N 2747.96 -3.70229 -4.47114 0
M  V30 28133 H 2750.72 -2.96005 -0.469157 0
M  V30 28134 H 2748.29 -1.61535 -0.108697 0
M  V30 28135 H 2750.28 -2.72767 -2.98965 0
M  V30 28136 H 2748.85 -1.74076 -2.59646 0
M  V30 28137 H 2748.07 -3.76804 -1.15812 0
M  V30 28138 H 2749.36 -4.70557 -1.93529 0
M  V30 28139 H 2748.75 -3.14079 -4.70501 0
M  V30 28140 H 2747.31 -3.93218 -5.1983 0
M  V30 28141 N 2750.74 0.196695 -1.56368 0
M  V30 28142 C 2751.71 1.22743 -1.93563 0
M  V30 28143 C 2752.71 1.38522 -0.81659 0
M  V30 28144 O 2753.9 1.36362 -1.08403 0
M  V30 28145 C 2751.03 2.59708 -2.20827 0
M  V30 28146 H 2752.22 0.909536 -2.85775 0
M  V30 28147 H 2749.78 0.438148 -1.50033 0
M  V30 28148 H 2750.51 2.96554 -1.31248 0
M  V30 28149 H 2750.3 2.49626 -3.02372 0
M  V30 28150 H 2751.79 3.34039 -2.50614 0
M  V30 28151 N 2752.22 1.50604 0.464349 0
M  V30 28152 C 2753.13 1.72757 1.5872 0
M  V30 28153 C 2754.15 0.610872 1.62924 0
M  V30 28154 O 2755.32 0.889995 1.80668 0
M  V30 28155 C 2752.39 1.82314 2.94894 0
M  V30 28156 C 2751.45 3.06077 3.01024 0
M  V30 28157 C 2750.68 3.15168 4.30703 0
M  V30 28158 O 2750.91 2.30877 5.21586 0
M  V30 28159 O 2749.84 4.07947 4.42564 0
M  V30 28160 H 2753.67 2.67954 1.42949 0
M  V30 28161 H 2751.25 1.34781 0.644555 0
M  V30 28162 H 2753.13 1.90741 3.7576 0
M  V30 28163 H 2751.81 0.903022 3.10849 0
M  V30 28164 H 2750.72 3.03146 2.19211 0
M  V30 28165 H 2752.05 3.97689 2.90007 0
M  V30 28166 N 2753.7 -0.717989 1.40295 0
M  V30 28167 C 2754.65 -1.83207 1.4037 0
M  V30 28168 C 2755.62 -1.64037 0.260981 0
M  V30 28169 O 2756.8 -1.85205 0.458681 0
M  V30 28170 C 2753.94 -3.20893 1.26971 0
M  V30 28171 C 2753.06 -3.51652 2.50929 0
M  V30 28172 C 2752.19 -4.7883 2.2999 0
M  V30 28173 C 2751.23 -5.02485 3.49536 0
M  V30 28174 N 2750.37 -6.20876 3.27807 0
M  V30 28175 H 2755.21 -1.82478 2.35597 0
M  V30 28176 H 2752.74 -0.891423 1.17013 0
M  V30 28177 H 2754.7 -4.00397 1.17209 0
M  V30 28178 H 2753.33 -3.20857 0.353647 0
M  V30 28179 H 2752.38 -2.6672 2.71228 0
M  V30 28180 H 2753.7 -3.65042 3.3992 0
M  V30 28181 H 2752.85 -5.66347 2.17568 0
M  V30 28182 H 2751.59 -4.67644 1.38419 0
M  V30 28183 H 2750.59 -4.13424 3.62437 0
M  V30 28184 H 2751.82 -5.15545 4.4203 0
M  V30 28185 H 2749.76 -6.10946 2.38917 0
M  V30 28186 H 2749.68 -6.34932 4.10363 0
M  V30 28187 H 2750.95 -7.11187 3.19113 0
M  V30 28188 N 2755.18 -1.25752 -0.94996 0
M  V30 28189 C 2756.09 -1.08299 -2.08107 0
M  V30 28190 C 2757.1 -0.0188487 -1.7399 0
M  V30 28191 O 2758.28 -0.220759 -2.00186 0
M  V30 28192 C 2755.35 -0.708594 -3.39382 0
M  V30 28193 C 2754.41 -1.85118 -3.87337 0
M  V30 28194 C 2753.64 -1.49456 -5.12346 0
M  V30 28195 O 2753.86 -0.392312 -5.69049 0
M  V30 28196 O 2752.8 -2.32634 -5.55126 0
M  V30 28197 H 2756.62 -2.03169 -2.25735 0
M  V30 28198 H 2754.21 -1.04733 -1.06543 0
M  V30 28199 H 2756.09 -0.512134 -4.18276 0
M  V30 28200 H 2754.76 0.210797 -3.23013 0
M  V30 28201 H 2753.67 -2.10254 -3.09426 0
M  V30 28202 H 2755 -2.74998 -4.08212 0
M  V30 28203 N 2756.66 1.15326 -1.07413 0
M  V30 28204 C 2757.9 1.86403 -0.798863 0
M  V30 28205 C 2758.24 1.82151 0.673401 0
M  V30 28206 O 2757.51 1.24508 1.49426 0
M  V30 28207 C 2757.79 3.35484 -1.30852 0
M  V30 28208 C 2757.65 3.48365 -2.84538 0
M  V30 28209 C 2758.97 4.30257 -0.925562 0
M  V30 28210 H 2756.08 0.676829 -0.291671 0
M  V30 28211 H 2758.73 1.35489 -1.33202 0
M  V30 28212 H 2756.88 3.78975 -0.854983 0
M  V30 28213 H 2758.55 3.13733 -3.38185 0
M  V30 28214 H 2756.79 2.89904 -3.22704 0
M  V30 28215 H 2757.46 4.53112 -3.15267 0
M  V30 28216 H 2759.94 3.94729 -1.31637 0
M  V30 28217 H 2758.81 5.33051 -1.30949 0
M  V30 28218 H 2759.08 4.41779 0.168447 0
M  V30 28219 N 2758.13 0.858334 1.32176 0
M  V30 28220 C 2759.1 0.310628 2.27085 0
M  V30 28221 C 2760.1 -0.53178 1.51752 0
M  V30 28222 O 2761.29 -0.34276 1.70795 0
M  V30 28223 C 2758.42 -0.56012 3.36267 0
M  V30 28224 H 2759.61 1.14835 2.77043 0
M  V30 28225 H 2757.17 0.632967 1.4291 0
M  V30 28226 H 2757.9 -1.41951 2.91583 0
M  V30 28227 H 2757.69 0.0429162 3.92077 0
M  V30 28228 H 2759.18 -0.935984 4.06976 0
M  V30 28229 N 2759.61 -1.45036 0.616628 0
M  V30 28230 C 2760.86 -2.01772 0.115138 0
M  V30 28231 C 2761.18 -1.48641 -1.26218 0
M  V30 28232 O 2760.45 -0.684231 -1.83562 0
M  V30 28233 H 2759.03 -0.745951 0.0395738 0
M  V30 28234 H 2761.69 -1.77722 0.800064 0
M  V30 28235 H 2760.79 -3.12017 0.0717822 0
M  V30 28236 N 2761.09 -0.356312 -1.53519 0
M  V30 28237 C 2762.32 0.237291 -2.05535 0
M  V30 28238 C 2762.73 1.43197 -1.23045 0
M  V30 28239 O 2762.09 1.80509 -0.268852 0
M  V30 28240 C 2762.14 0.639871 -3.55792 0
M  V30 28241 O 2761.86 -0.50731 -4.35153 0
M  V30 28242 C 2763.36 1.29284 -4.24029 0
M  V30 28243 H 2760.58 0.0435454 -0.669586 0
M  V30 28244 H 2763.13 -0.511998 -1.97987 0
M  V30 28245 H 2761.28 1.33909 -3.63521 0
M  V30 28246 H 2761.7 -0.183842 -5.24178 0
M  V30 28247 H 2763.17 1.52517 -5.30511 0
M  V30 28248 H 2763.65 2.25033 -3.7717 0
M  V30 28249 H 2764.25 0.635316 -4.20528 0
M  V30 28250 N 2762.57 1.57369 -0.0852427 0
M  V30 28251 C 2763.5 2.16505 0.874518 0
M  V30 28252 C 2764.48 1.0957 1.30109 0
M  V30 28253 O 2765.66 1.37665 1.36975 0
M  V30 28254 C 2762.79 2.73749 2.13726 0
M  V30 28255 C 2761.75 3.85969 1.84964 0
M  V30 28256 C 2761.07 4.29873 3.17983 0
M  V30 28257 C 2762.37 5.0961 1.14433 0
M  V30 28258 H 2764.07 2.96955 0.381847 0
M  V30 28259 H 2761.61 1.42842 0.182225 0
M  V30 28260 H 2763.57 3.13768 2.81297 0
M  V30 28261 H 2762.29 1.90539 2.65259 0
M  V30 28262 H 2760.95 3.46475 1.19794 0
M  V30 28263 H 2760.6 3.43567 3.67384 0
M  V30 28264 H 2760.3 5.05528 2.99525 0
M  V30 28265 H 2761.82 4.72518 3.86729 0
M  V30 28266 H 2763.24 5.4686 1.72096 0
M  V30 28267 H 2761.63 5.9063 1.06187 0
M  V30 28268 H 2762.7 4.84738 0.125505 0
M  V30 28269 N 2764.05 -0.188399 1.5647 0
M  V30 28270 C 2765.27 -0.927858 1.85487 0
M  V30 28271 C 2765.7 -1.75778 0.669606 0
M  V30 28272 O 2765.05 -1.7724 -0.381542 0
M  V30 28273 C 2765.1 -1.79434 3.12787 0
M  V30 28274 O 2764.21 -2.89395 2.9381 0
M  V30 28275 H 2763.55 -0.260914 0.61059 0
M  V30 28276 H 2766.08 -0.191693 2.037 0
M  V30 28277 H 2766.09 -2.19768 3.43753 0
M  V30 28278 H 2764.76 -1.18461 3.98673 0
M  V30 28279 H 2763.34 -2.52769 2.74157 0
M  V30 28280 N 2765.53 -1.50848 -0.456355 0
M  V30 28281 C 2766.94 -1.55264 -1.03682 0
M  V30 28282 C 2767.29 -0.364805 -1.92779 0
M  V30 28283 O 2766.41 0.520643 -2.10043 0
M  V30 28284 C 2767.01 -2.81377 -1.88713 0
M  V30 28285 C 2765.57 -2.88426 -2.41842 0
M  V30 28286 C 2764.71 -2.49721 -1.20559 0
M  V30 28287 H 2767.66 -1.569 -0.238371 0
M  V30 28288 H 2767.69 -2.64065 -2.73952 0
M  V30 28289 H 2767.2 -3.67811 -1.2384 0
M  V30 28290 H 2765.3 -2.06378 -3.10224 0
M  V30 28291 H 2765.41 -3.91655 -2.7594 0
M  V30 28292 H 2763.78 -2.02489 -1.545 0
M  V30 28293 H 2764.56 -3.3848 -0.573266 0
M  V30 28294 N 2767 0.710538 -1.40674 0
M  V30 28295 C 2767.95 1.81634 -1.37815 0
M  V30 28296 C 2768.94 1.58868 -0.254881 0
M  V30 28297 O 2770.13 1.69955 -0.494386 0
M  V30 28298 C 2767.26 3.19809 -1.24808 0
M  V30 28299 C 2766.34 3.48321 -2.41937 0
M  V30 28300 N 2766.74 3.47618 -3.67417 0
M  V30 28301 C 2765.03 3.78802 -2.35426 0
M  V30 28302 C 2765.73 3.74615 -4.45015 0
M  V30 28303 N 2764.71 3.93616 -3.74923 0
M  V30 28304 H 2768.51 1.79432 -2.32769 0
M  V30 28305 H 2766.03 0.909885 -1.34517 0
M  V30 28306 H 2768.02 3.99002 -1.20842 0
M  V30 28307 H 2766.68 3.23233 -0.308259 0
M  V30 28308 H 2767.69 3.28349 -4.00509 0
M  V30 28309 H 2764.37 3.89686 -1.49837 0
M  V30 28310 H 2765.76 3.80335 -5.53891 0
M  V30 28311 N 2768.48 1.26254 0.943277 0
M  V30 28312 C 2769.73 1.1184 1.69173 0
M  V30 28313 C 2770.06 -0.337858 1.91238 0
M  V30 28314 O 2769.34 -1.24833 1.49154 0
M  V30 28315 C 2769.62 1.88568 3.0678 0
M  V30 28316 C 2769.47 3.42088 2.92054 0
M  V30 28317 C 2770.79 1.67783 4.06862 0
M  V30 28318 H 2767.91 0.407669 0.613983 0
M  V30 28319 H 2770.55 1.55224 1.09569 0
M  V30 28320 H 2768.7 1.51695 3.5766 0
M  V30 28321 H 2770.37 3.88702 2.48412 0
M  V30 28322 H 2768.62 3.69221 2.27725 0
M  V30 28323 H 2769.29 3.91001 3.89644 0
M  V30 28324 H 2771.76 1.99904 3.64935 0
M  V30 28325 H 2770.64 2.23888 5.01164 0
M  V30 28326 H 2770.9 0.621893 4.37704 0
M  V30 28327 N 2769.96 -1.14755 1.08024 0
M  V30 28328 C 2770.87 -2.23332 0.718331 0
M  V30 28329 C 2771.89 -1.71838 -0.273447 0
M  V30 28330 O 2773.06 -2.01052 -0.11837 0
M  V30 28331 C 2770.13 -3.4646 0.128916 0
M  V30 28332 C 2769.19 -4.12913 1.17481 0
M  V30 28333 C 2768.42 -5.30163 0.613423 0
M  V30 28334 O 2768.64 -5.67561 -0.568358 0
M  V30 28335 O 2767.58 -5.86297 1.3616 0
M  V30 28336 H 2771.4 -2.56633 1.62399 0
M  V30 28337 H 2768.99 -1.2261 0.853649 0
M  V30 28338 H 2770.87 -4.20938 -0.197175 0
M  V30 28339 H 2769.55 -3.14893 -0.749959 0
M  V30 28340 H 2768.45 -3.40325 1.55336 0
M  V30 28341 H 2769.79 -4.48577 2.02582 0
M  V30 28342 N 2771.44 -0.865331 -1.31719 0
M  V30 28343 C 2772.67 -0.488286 -2.01056 0
M  V30 28344 C 2773.08 0.917971 -1.64981 0
M  V30 28345 O 2772.44 1.60067 -0.876625 0
M  V30 28346 C 2772.49 -0.630286 -3.55963 0
M  V30 28347 O 2772.21 -1.98116 -3.90745 0
M  V30 28348 C 2773.71 -0.253645 -4.42574 0
M  V30 28349 H 2770.93 -0.190748 -0.643317 0
M  V30 28350 H 2773.47 -1.16522 -1.68056 0
M  V30 28351 H 2771.63 -0.000963517 -3.874 0
M  V30 28352 H 2772.04 -1.98559 -4.85463 0
M  V30 28353 H 2773.52 -0.403971 -5.5052 0
M  V30 28354 H 2773.99 0.806819 -4.31726 0
M  V30 28355 H 2774.6 -0.858478 -4.16546 0
M  V30 28356 N 2772.92 1.44707 -0.624311 0
M  V30 28357 C 2774.14 2.06472 -0.132955 0
M  V30 28358 C 2774.56 1.46604 1.18965 0
M  V30 28359 O 2773.92 0.586371 1.72823 0
M  V30 28360 C 2773.97 3.615 -0.00471772 0
M  V30 28361 O 2773.69 4.19136 -1.27501 0
M  V30 28362 C 2775.19 4.40285 0.516135 0
M  V30 28363 H 2772.41 0.666621 -0.0765318 0
M  V30 28364 H 2774.95 1.85686 -0.856783 0
M  V30 28365 H 2773.11 3.81571 0.669516 0
M  V30 28366 H 2773.52 5.12502 -1.11545 0
M  V30 28367 H 2775 5.49204 0.554897 0
M  V30 28368 H 2775.47 4.11247 1.54182 0
M  V30 28369 H 2776.08 4.25117 -0.124616 0
M  V30 28370 N 2774.39 0.364449 1.53328 0
M  V30 28371 C 2775.64 -0.225599 2.01239 0
M  V30 28372 C 2775.97 -1.48867 1.25175 0
M  V30 28373 O 2775.22 -1.9284 0.333323 0
M  V30 28374 C 2775.52 -0.564599 3.52912 0
M  V30 28375 C 2775.19 0.604014 4.46836 0
M  V30 28376 C 2773.85 0.924668 4.72232 0
M  V30 28377 C 2776.2 1.387 5.02406 0
M  V30 28378 C 2773.53 2.0303 5.50451 0
M  V30 28379 C 2775.88 2.48303 5.81832 0
M  V30 28380 C 2774.55 2.80905 6.05515 0
M  V30 28381 H 2773.82 -0.0825525 0.736387 0
M  V30 28382 H 2776.46 0.496678 1.84947 0
M  V30 28383 H 2774.77 -1.36788 3.67146 0
M  V30 28384 H 2776.47 -1.03337 3.87456 0
M  V30 28385 H 2773.06 0.344058 4.27217 0
M  V30 28386 H 2777.24 1.15252 4.82733 0
M  V30 28387 H 2772.5 2.28688 5.6702 0
M  V30 28388 H 2776.67 3.09391 6.23899 0
M  V30 28389 H 2774.3 3.667 6.65909 0
M  V30 28390 N 2775.87 -1.57322 0.0935872 0
M  V30 28391 C 2777.1 -1.99058 -0.582289 0
M  V30 28392 C 2777.52 -0.97227 -1.61023 0
M  V30 28393 O 2776.88 0.0594303 -1.81203 0
M  V30 28394 C 2776.93 -3.39767 -1.20793 0
M  V30 28395 O 2776.03 -3.40698 -2.32376 0
M  V30 28396 H 2775.37 -0.647325 -0.147872 0
M  V30 28397 H 2777.9 -2.03854 0.174552 0
M  V30 28398 H 2777.91 -3.77428 -1.54959 0
M  V30 28399 H 2776.59 -4.13405 -0.454841 0
M  V30 28400 H 2775.16 -3.14831 -1.9984 0
M  V30 28401 N 2777.35 0.180099 -1.56568 0
M  V30 28402 C 2778.58 0.913939 -1.8562 0
M  V30 28403 C 2778.99 1.76209 -0.677923 0
M  V30 28404 O 2778.35 1.79051 0.35314 0
M  V30 28405 C 2778.4 1.79787 -3.13622 0
M  V30 28406 O 2778.12 0.983945 -4.26908 0
M  V30 28407 C 2779.62 2.64212 -3.55959 0
M  V30 28408 H 2776.84 0.265944 -0.616048 0
M  V30 28409 H 2779.39 0.182836 -2.03681 0
M  V30 28410 H 2777.54 2.48242 -2.97413 0
M  V30 28411 H 2777.96 1.58767 -4.99893 0
M  V30 28412 H 2779.43 3.21865 -4.48449 0
M  V30 28413 H 2779.91 3.38656 -2.79659 0
M  V30 28414 H 2780.51 2.01104 -3.74749 0
M  V30 28415 N 2778.83 1.51088 0.448349 0
M  V30 28416 C 2779.74 1.74431 1.56879 0
M  V30 28417 C 2780.75 0.628118 1.62267 0
M  V30 28418 O 2781.93 0.909107 1.79714 0
M  V30 28419 C 2778.99 1.85431 2.92944 0
M  V30 28420 C 2778.06 3.09252 2.97761 0
M  V30 28421 C 2777.29 3.19718 4.27336 0
M  V30 28422 O 2777.51 2.36396 5.19108 0
M  V30 28423 O 2776.45 4.12618 4.38212 0
M  V30 28424 H 2780.27 2.69455 1.40099 0
M  V30 28425 H 2777.86 1.35457 0.630223 0
M  V30 28426 H 2779.74 1.94716 3.73716 0
M  V30 28427 H 2778.41 0.935941 3.09874 0
M  V30 28428 H 2777.32 3.05454 2.15984 0
M  V30 28429 H 2778.65 4.00743 2.85773 0
M  V30 28430 N 2780.31 -0.703068 1.41049 0
M  V30 28431 C 2781.72 -1.28271 1.35659 0
M  V30 28432 C 2782.07 -1.96167 0.0360654 0
M  V30 28433 O 2781.19 -1.98325 -0.865799 0
M  V30 28434 C 2781.79 -2.33262 2.45711 0
M  V30 28435 C 2780.35 -2.86821 2.43743 0
M  V30 28436 C 2779.49 -1.60763 2.25944 0
M  V30 28437 H 2782.45 -0.498333 1.50673 0
M  V30 28438 H 2782.47 -3.14387 2.14338 0
M  V30 28439 H 2781.98 -1.83818 3.41808 0
M  V30 28440 H 2780.08 -3.40462 1.51381 0
M  V30 28441 H 2780.19 -3.37762 3.39785 0
M  V30 28442 H 2778.56 -1.86295 1.73685 0
M  V30 28443 H 2779.34 -1.13325 3.24056 0
M  V30 28444 N 2781.78 -1.26752 -0.936569 0
M  V30 28445 C 2783.01 -1.15358 -1.71756 0
M  V30 28446 C 2783.43 0.29065 -1.86549 0
M  V30 28447 O 2782.78 1.19865 -1.37618 0
M  V30 28448 C 2782.84 -1.82263 -3.1219 0
M  V30 28449 O 2782.56 -3.21043 -2.98099 0
M  V30 28450 C 2784.06 -1.76882 -4.06482 0
M  V30 28451 H 2781.28 -0.401492 -0.537629 0
M  V30 28452 H 2783.82 -1.67459 -1.17379 0
M  V30 28453 H 2781.98 -1.34089 -3.63454 0
M  V30 28454 H 2782.39 -3.54221 -3.86817 0
M  V30 28455 H 2783.86 -2.28325 -5.02565 0
M  V30 28456 H 2784.34 -0.736292 -4.32984 0
M  V30 28457 H 2784.95 -2.24629 -3.6114 0
M  V30 28458 N 2783.26 1.1418 -1.08631 0
M  V30 28459 C 2784.51 1.84905 -0.815763 0
M  V30 28460 C 2784.83 1.83476 0.660409 0
M  V30 28461 O 2784.1 1.28479 1.47885 0
M  V30 28462 H 2782.68 0.684643 -0.298785 0
M  V30 28463 H 2785.34 1.38352 -1.37276 0
M  V30 28464 H 2784.44 2.89663 -1.16198 0
M  V30 28465 N 2784.74 0.872304 1.31258 0
M  V30 28466 C 2785.67 0.345595 2.30928 0
M  V30 28467 C 2786.65 -0.564772 1.6045 0
M  V30 28468 O 2787.84 -0.481301 1.88141 0
M  V30 28469 C 2784.97 -0.451762 3.44349 0
M  V30 28470 C 2783.92 0.365716 4.26435 0
M  V30 28471 C 2783.25 -0.557469 5.31786 0
M  V30 28472 C 2784.55 1.60104 4.97156 0
M  V30 28473 H 2786.24 1.17846 2.75232 0
M  V30 28474 H 2783.79 0.568117 1.32319 0
M  V30 28475 H 2785.74 -0.830782 4.13129 0
M  V30 28476 H 2784.46 -1.31816 2.98818 0
M  V30 28477 H 2783.12 0.726712 3.59325 0
M  V30 28478 H 2782.77 -1.42121 4.82505 0
M  V30 28479 H 2782.47 -0.0143845 5.87598 0
M  V30 28480 H 2783.99 -0.933281 6.03425 0
M  V30 28481 H 2785.41 1.29333 5.58521 0
M  V30 28482 H 2783.81 2.08337 5.62775 0
M  V30 28483 H 2784.88 2.35257 4.24007 0
M  V30 28484 N 2786.22 -1.44374 0.631976 0
M  V30 28485 C 2787.46 -2.02337 0.137005 0
M  V30 28486 C 2787.8 -1.49604 -1.23824 0
M  V30 28487 O 2787.07 -0.680447 -1.82209 0
M  V30 28488 C 2787.36 -3.59884 0.1246 0
M  V30 28489 C 2787.21 -4.22898 1.53224 0
M  V30 28490 C 2788.53 -4.36645 -0.550404 0
M  V30 28491 H 2785.65 -0.735215 0.0512599 0
M  V30 28492 H 2788.29 -1.71935 0.808612 0
M  V30 28493 H 2786.44 -3.85916 -0.447303 0
M  V30 28494 H 2788.11 -4.0797 2.1531 0
M  V30 28495 H 2786.35 -3.8036 2.08587 0
M  V30 28496 H 2787.02 -5.31912 1.47559 0
M  V30 28497 H 2789.5 -4.16051 -0.0640423 0
M  V30 28498 H 2788.38 -5.46352 -0.528275 0
M  V30 28499 H 2788.64 -4.11314 -1.6209 0
M  V30 28500 N 2787.7 -0.372575 -1.53133 0
M  V30 28501 C 2788.63 0.462372 -2.28876 0
M  V30 28502 C 2789.61 1.07793 -1.31585 0
M  V30 28503 O 2790.79 1.09387 -1.60462 0
M  V30 28504 C 2787.92 1.59863 -3.0832 0
M  V30 28505 C 2786.88 1.10996 -4.13357 0
M  V30 28506 C 2786.2 2.337 -4.80925 0
M  V30 28507 C 2787.5 0.189738 -5.21955 0
M  V30 28508 H 2789.2 -0.169563 -2.98919 0
M  V30 28509 H 2786.74 -0.0829911 -1.43761 0
M  V30 28510 H 2788.7 2.18942 -3.60059 0
M  V30 28511 H 2787.42 2.2579 -2.3598 0
M  V30 28512 H 2786.08 0.541805 -3.62574 0
M  V30 28513 H 2785.73 2.98099 -4.05149 0
M  V30 28514 H 2785.43 2.01672 -5.51908 0
M  V30 28515 H 2786.95 2.93453 -5.35461 0
M  V30 28516 H 2788.36 0.688219 -5.69154 0
M  V30 28517 H 2786.76 -0.0399942 -6.00087 0
M  V30 28518 H 2787.83 -0.766141 -4.78809 0
M  V30 28519 N 2789.17 1.5727 -0.101929 0
M  V30 28520 C 2790.4 1.99364 0.571724 0
M  V30 28521 C 2790.82 0.980796 1.60505 0
M  V30 28522 O 2790.18 -0.0498199 1.81232 0
M  V30 28523 C 2790.23 3.40402 1.1899 0
M  V30 28524 O 2789.33 3.41926 2.30566 0
M  V30 28525 H 2788.68 0.6481 0.144437 0
M  V30 28526 H 2791.21 2.03759 -0.185361 0
M  V30 28527 H 2791.22 3.78244 1.52955 0
M  V30 28528 H 2789.89 4.13641 0.432911 0
M  V30 28529 H 2788.47 3.15886 1.98167 0
M  V30 28530 N 2790.65 -0.171793 1.56661 0
M  V30 28531 C 2791.88 -0.904082 1.86102 0
M  V30 28532 C 2792.3 -1.75847 0.687258 0
M  V30 28533 O 2791.65 -1.79236 -0.343639 0
M  V30 28534 C 2791.7 -1.78121 3.14571 0
M  V30 28535 O 2791.42 -0.961291 4.27423 0
M  V30 28536 C 2792.93 -2.62321 3.57355 0
M  V30 28537 H 2790.15 -0.262673 0.61745 0
M  V30 28538 H 2792.69 -0.172032 2.03775 0
M  V30 28539 H 2790.84 -2.46661 2.98726 0
M  V30 28540 H 2791.26 -1.56114 5.00728 0
M  V30 28541 H 2792.73 -3.19482 4.5015 0
M  V30 28542 H 2793.21 -3.37168 2.81451 0
M  V30 28543 H 2793.82 -1.99114 3.75811 0
M  V30 28544 N 2792.13 -1.51324 -0.44033 0
M  V30 28545 C 2793.38 -1.64087 -1.19178 0
M  V30 28546 C 2793.71 -0.354609 -1.90935 0
M  V30 28547 O 2792.98 0.645643 -1.83471 0
M  V30 28548 C 2793.27 -2.84218 -2.21115 0
M  V30 28549 C 2793.12 -4.22812 -1.5346 0
M  V30 28550 C 2794.44 -2.9987 -3.22127 0
M  V30 28551 H 2791.56 -0.597176 -0.431914 0
M  V30 28552 H 2794.2 -1.838 -0.48141 0
M  V30 28553 H 2792.35 -2.67542 -2.81698 0
M  V30 28554 H 2794.02 -4.5115 -0.962376 0
M  V30 28555 H 2792.27 -4.25648 -0.837011 0
M  V30 28556 H 2792.94 -5.02856 -2.27685 0
M  V30 28557 H 2795.41 -3.15238 -2.71596 0
M  V30 28558 H 2794.29 -3.85495 -3.90749 0
M  V30 28559 H 2794.55 -2.1181 -3.88058 0
M  V30 28560 N 2793.61 0.695578 -1.41419 0
M  V30 28561 C 2794.54 1.81985 -1.37683 0
M  V30 28562 C 2795.52 1.60757 -0.24409 0
M  V30 28563 O 2796.7 1.83507 -0.430997 0
M  V30 28564 C 2793.83 3.18664 -1.14766 0
M  V30 28565 C 2792.88 3.58682 -2.30758 0
M  V30 28566 S 2793.71 3.63491 -3.93236 0
M  V30 28567 C 2794.87 5.02895 -3.72622 0
M  V30 28568 H 2795.1 1.84878 -2.32825 0
M  V30 28569 H 2792.63 0.864287 -1.27943 0
M  V30 28570 H 2794.59 3.97567 -1.0223 0
M  V30 28571 H 2793.25 3.13381 -0.21244 0
M  V30 28572 H 2792.44 4.57974 -2.10417 0
M  V30 28573 H 2792.05 2.87088 -2.39701 0
M  V30 28574 H 2794.34 5.90394 -3.32327 0
M  V30 28575 H 2795.28 5.28278 -4.71517 0
M  V30 28576 H 2795.69 4.74433 -3.05898 0
M  V30 28577 N 2795.09 1.27247 0.929833 0
M  V30 28578 C 2796.36 1.04189 1.65542 0
M  V30 28579 C 2796.74 -0.42406 2.06797 0
M  V30 28580 O 2796.09 -1.40684 1.80056 0
M  V30 28581 C 2796.3 2.00143 2.85909 0
M  V30 28582 C 2797.65 2.29393 3.57301 0
M  V30 28583 O 2798.67 1.981 2.96032 0
M  V30 28584 O 2797.53 2.82728 4.67683 0
M  V30 28585 H 2794.63 0.397024 0.725466 0
M  V30 28586 H 2797.17 1.38503 0.980559 0
M  V30 28587 H 2795.95 2.99017 2.52398 0
M  V30 28588 H 2795.57 1.66377 3.61115 0
M  V30 28589 N 2796.57 -1.13603 1.09235 0
M  V30 28590 C 2797.98 -1.36825 0.821654 0
M  V30 28591 C 2798.18 -1.93417 -0.564987 0
M  V30 28592 O 2797.24 -2.15236 -1.32022 0
M  V30 28593 C 2798.55 -2.32143 1.91128 0
M  V30 28594 C 2800.1 -2.45763 1.93828 0
M  V30 28595 C 2800.57 -3.44388 3.01929 0
M  V30 28596 N 2802.06 -3.51937 3.01155 0
M  V30 28597 C 2802.8 -4.28124 3.81442 0
M  V30 28598 N 2802.3 -5.07481 4.7163 0
M  V30 28599 N 2804.09 -4.23405 3.69709 0
M  V30 28600 H 2796.24 -0.7522 1.98635 0
M  V30 28601 H 2798.5 -0.393467 0.862489 0
M  V30 28602 H 2798.21 -1.97712 2.90865 0
M  V30 28603 H 2798.08 -3.32139 1.78783 0
M  V30 28604 H 2800.47 -2.79482 0.947309 0
M  V30 28605 H 2800.55 -1.45699 2.10251 0
M  V30 28606 H 2800.19 -3.11401 4.01238 0
M  V30 28607 H 2800.12 -4.44252 2.8275 0
M  V30 28608 H 2802.62 -2.95313 2.35794 0
M  V30 28609 H 2802.93 -5.62915 5.29478 0
M  V30 28610 H 2801.27 -5.0672 4.75667 0
M  V30 28611 H 2804.46 -3.60484 2.98612 0
M  V30 28612 H 2804.64 -4.82528 4.32517 0
M  V30 28613 N 2798.04 -0.879253 -1.30793 0
M  V30 28614 C 2799.29 -0.495553 -1.96652 0
M  V30 28615 C 2799.62 0.951673 -1.69283 0
M  V30 28616 O 2798.9 1.67158 -0.994403 0
M  V30 28617 C 2799.18 -0.764236 -3.51897 0
M  V30 28618 C 2799.03 -2.26167 -3.88804 0
M  V30 28619 C 2800.35 -0.236902 -4.39462 0
M  V30 28620 H 2797.47 -0.181519 -0.714297 0
M  V30 28621 H 2800.11 -1.1022 -1.54763 0
M  V30 28622 H 2798.26 -0.247909 -3.87708 0
M  V30 28623 H 2799.94 -2.84597 -3.63046 0
M  V30 28624 H 2798.18 -2.73059 -3.37078 0
M  V30 28625 H 2798.85 -2.40029 -4.97082 0
M  V30 28626 H 2801.33 -0.678755 -4.10527 0
M  V30 28627 H 2800.2 -0.454272 -5.47017 0
M  V30 28628 H 2800.46 0.861606 -4.33623 0
M  V30 28629 N 2799.52 1.44037 -0.639624 0
M  V30 28630 C 2800.77 2.02261 -0.147734 0
M  V30 28631 C 2801.1 1.50258 1.23029 0
M  V30 28632 O 2800.38 0.6901 1.81846 0
M  V30 28633 C 2800.66 3.59813 -0.143683 0
M  V30 28634 C 2800.51 4.22079 -1.55465 0
M  V30 28635 C 2801.83 4.3693 0.52724 0
M  V30 28636 H 2798.95 0.734933 -0.0551582 0
M  V30 28637 H 2801.59 1.71503 -0.817718 0
M  V30 28638 H 2799.74 3.86148 0.42683 0
M  V30 28639 H 2801.41 4.06822 -2.17471 0
M  V30 28640 H 2799.66 3.79249 -2.10601 0
M  V30 28641 H 2800.33 5.31122 -1.50378 0
M  V30 28642 H 2802.8 4.16079 0.0419772 0
M  V30 28643 H 2801.68 5.46624 0.499293 0
M  V30 28644 H 2801.94 4.12168 1.59907 0
M  V30 28645 N 2801 0.380691 1.52933 0
M  V30 28646 C 2801.96 -0.446433 2.2481 0
M  V30 28647 C 2802.96 -0.997325 1.26135 0
M  V30 28648 O 2804.15 -0.880687 1.50298 0
M  V30 28649 C 2801.28 -1.62548 2.99652 0
M  V30 28650 H 2802.48 0.182729 2.99343 0
M  V30 28651 H 2800.03 0.132645 1.55736 0
M  V30 28652 H 2800.77 -2.29231 2.29399 0
M  V30 28653 H 2800.55 -1.23726 3.72068 0
M  V30 28654 H 2802.04 -2.21127 3.5425 0
M  V30 28655 N 2802.48 -1.57214 0.110268 0
M  V30 28656 C 2803.39 -2.18385 -0.857039 0
M  V30 28657 C 2804.4 -1.15752 -1.29913 0
M  V30 28658 O 2805.58 -1.48186 -1.36392 0
M  V30 28659 C 2802.64 -2.76426 -2.09259 0
M  V30 28660 C 2801.71 -3.94066 -1.70326 0
M  V30 28661 C 2800.94 -4.4933 -2.87991 0
M  V30 28662 O 2801.16 -4.03504 -4.03163 0
M  V30 28663 O 2800.1 -5.4014 -2.6558 0
M  V30 28664 H 2803.92 -3.0148 -0.366508 0
M  V30 28665 H 2801.51 -1.48958 -0.114888 0
M  V30 28666 H 2803.39 -3.13461 -2.81639 0
M  V30 28667 H 2802.06 -1.96368 -2.57335 0
M  V30 28668 H 2800.97 -3.61816 -0.950801 0
M  V30 28669 H 2802.3 -4.75533 -1.26999 0
M  V30 28670 N 2803.96 0.163482 -1.5675 0
M  V30 28671 C 2804.9 1.22155 -1.97941 0
M  V30 28672 C 2805.9 1.45394 -0.869314 0
M  V30 28673 O 2807.1 1.45881 -1.05445 0
M  V30 28674 H 2803.48 0.410804 -0.629876 0
M  V30 28675 H 2805.45 0.84733 -2.86117 0
M  V30 28676 C 2804.2 2.55147 -2.3621 0
M  V30 28677 H 2803.52 2.38091 -3.21174 0
M  V30 28678 H 2804.96 3.2785 -2.68869 0
M  V30 28679 C 2803.42 3.1448 -1.20847 0
M  V30 28680 O 2803.95 3.98572 -0.500328 0
M  V30 28681 N 2802.16 2.73685 -0.976991 0
M  V30 28682 H 2801.7 2.05402 -1.5546 0
M  V30 28683 H 2801.66 3.13718 -0.206967 0
M  V30 28684 N 2805.43 1.51555 0.432299 0
M  V30 28685 C 2806.68 1.63705 1.17828 0
M  V30 28686 C 2807 0.361593 1.92229 0
M  V30 28687 O 2808.2 0.362543 2.69069 0
M  V30 28688 C 2806.66 2.89133 2.14313 0
M  V30 28689 C 2806.27 4.23702 1.45537 0
M  V30 28690 C 2808.01 3.10642 2.89313 0
M  V30 28691 C 2805.92 5.40275 2.40535 0
M  V30 28692 H 2804.85 0.609757 0.443522 0
M  V30 28693 H 2807.5 1.78026 0.444847 0
M  V30 28694 H 2805.88 2.68457 2.91113 0
M  V30 28695 H 2807.05 4.54777 0.742613 0
M  V30 28696 H 2805.37 4.08111 0.8267 0
M  V30 28697 H 2807.97 3.94908 3.60488 0
M  V30 28698 H 2808.31 2.23924 3.50947 0
M  V30 28699 H 2808.84 3.31681 2.1962 0
M  V30 28700 H 2805.58 6.29267 1.83583 0
M  V30 28701 H 2805.1 5.13569 3.0985 0
M  V30 28702 H 2806.78 5.72426 3.01558 0
M  V30 28703 N 2806.91 -0.688069 1.41786 0
M  V30 28704 C 2808.14 -1.4767 1.44917 0
M  V30 28705 C 2808.55 -1.88715 0.0566118 0
M  V30 28706 O 2807.91 -1.57276 -0.925762 0
M  V30 28707 C 2807.96 -2.73442 2.36456 0
M  V30 28708 O 2807.68 -2.34124 3.70294 0
M  V30 28709 C 2809.18 -3.67121 2.4847 0
M  V30 28710 H 2806.4 -0.454824 0.493332 0
M  V30 28711 H 2808.95 -0.846561 1.86155 0
M  V30 28712 H 2807.1 -3.32676 1.98508 0
M  V30 28713 H 2807.52 -3.15248 4.19189 0
M  V30 28714 H 2808.99 -4.52133 3.1667 0
M  V30 28715 H 2809.47 -4.1212 1.51833 0
M  V30 28716 H 2810.07 -3.13787 2.87085 0
M  V30 28717 N 2808.39 -1.27739 -0.923072 0
M  V30 28718 C 2809.32 -1.06661 -2.02869 0
M  V30 28719 C 2810.33 -0.0212381 -1.62786 0
M  V30 28720 O 2811.52 -0.263298 -1.76547 0
M  V30 28721 C 2808.62 -0.596879 -3.33602 0
M  V30 28722 C 2807.8 -1.71558 -4.02351 0
M  V30 28723 C 2806.86 -1.2408 -5.11361 0
M  V30 28724 O 2805.88 -1.94132 -5.35071 0
M  V30 28725 N 2807.08 -0.0989464 -5.80416 0
M  V30 28726 H 2809.85 -2.01873 -2.21512 0
M  V30 28727 H 2807.41 -1.19367 -1.09376 0
M  V30 28728 H 2809.4 -0.263055 -4.03844 0
M  V30 28729 H 2807.97 0.262132 -3.11499 0
M  V30 28730 H 2807.19 -2.21946 -3.25782 0
M  V30 28731 H 2808.48 -2.46627 -4.45031 0
M  V30 28732 H 2807.88 0.485644 -5.63612 0
M  V30 28733 H 2806.43 0.175666 -6.51563 0
M  V30 28734 N 2809.87 1.13022 -1.09836 0
M  V30 28735 C 2811.1 1.88228 -0.858935 0
M  V30 28736 C 2811.51 1.7934 0.590133 0
M  V30 28737 O 2810.87 1.16294 1.40648 0
M  V30 28738 C 2810.92 3.37673 -1.29072 0
M  V30 28739 O 2810.64 3.46337 -2.68296 0
M  V30 28740 C 2812.14 4.29835 -1.08429 0
M  V30 28741 H 2809.36 0.595761 -0.308724 0
M  V30 28742 H 2811.91 1.43047 -1.46143 0
M  V30 28743 H 2810.06 3.80421 -0.732028 0
M  V30 28744 H 2810.47 4.39269 -2.86605 0
M  V30 28745 H 2811.95 5.33004 -1.43563 0
M  V30 28746 H 2812.43 4.39194 -0.0224087 0
M  V30 28747 H 2813.03 3.9286 -1.62914 0
M  V30 28748 N 2811.35 0.886177 1.30325 0
M  V30 28749 C 2812.57 0.51946 2.00789 0
M  V30 28750 C 2813 -0.884984 1.65981 0
M  V30 28751 O 2812.35 -1.58673 0.877071 0
M  V30 28752 C 2812.4 0.70282 3.53685 0
M  V30 28753 O 2811.51 -0.250756 4.11637 0
M  V30 28754 H 2810.85 0.204555 0.631707 0
M  V30 28755 H 2813.38 1.19405 1.66143 0
M  V30 28756 H 2813.39 0.602278 4.0353 0
M  V30 28757 H 2812.06 1.7268 3.78357 0
M  V30 28758 H 2810.64 -0.103807 3.72755 0
M  V30 28759 N 2812.82 -1.43695 0.647253 0
M  V30 28760 C 2814.24 -1.56475 0.314283 0
M  V30 28761 C 2814.44 -1.63198 -1.18189 0
M  V30 28762 O 2813.5 -1.58379 -1.96652 0
M  V30 28763 C 2814.81 -2.82858 1.02039 0
M  V30 28764 C 2816.36 -2.96593 1.00007 0
M  V30 28765 C 2816.83 -4.258 1.68696 0
M  V30 28766 N 2818.32 -4.32651 1.65432 0
M  V30 28767 C 2819.06 -5.3138 2.1546 0
M  V30 28768 N 2818.55 -6.36422 2.7375 0
M  V30 28769 N 2820.35 -5.22994 2.05994 0
M  V30 28770 H 2812.5 -1.37575 1.61824 0
M  V30 28771 H 2814.76 -0.660332 0.680195 0
M  V30 28772 H 2814.47 -2.83931 2.07547 0
M  V30 28773 H 2814.34 -3.72896 0.568211 0
M  V30 28774 H 2816.73 -2.95063 -0.0465801 0
M  V30 28775 H 2816.81 -2.0786 1.4909 0
M  V30 28776 H 2816.45 -4.2809 2.73315 0
M  V30 28777 H 2816.38 -5.13419 1.17085 0
M  V30 28778 H 2818.87 -3.5736 1.2289 0
M  V30 28779 H 2819.19 -7.08067 3.09614 0
M  V30 28780 H 2817.53 -6.37062 2.77808 0
M  V30 28781 H 2820.72 -4.39846 1.60165 0
M  V30 28782 H 2820.9 -5.9978 2.45292 0
M  V30 28783 N 2814.3 -0.388796 -1.52729 0
M  V30 28784 C 2815.21 0.453952 -2.30166 0
M  V30 28785 C 2816.23 1.07194 -1.3706 0
M  V30 28786 O 2817.4 1.07787 -1.70129 0
M  V30 28787 C 2814.47 1.56623 -3.09306 0
M  V30 28788 C 2813.53 0.973393 -4.18119 0
M  V30 28789 C 2812.76 2.03266 -4.93476 0
M  V30 28790 O 2812.99 3.24764 -4.68919 0
M  V30 28791 O 2811.92 1.65024 -5.78836 0
M  V30 28792 H 2815.75 -0.176869 -3.03185 0
M  V30 28793 H 2813.33 -0.152527 -1.48619 0
M  V30 28794 H 2815.21 2.2124 -3.58651 0
M  V30 28795 H 2813.89 2.18202 -2.39101 0
M  V30 28796 H 2812.8 0.290491 -3.7297 0
M  V30 28797 H 2814.13 0.401822 -4.90557 0
M  V30 28798 N 2815.78 1.57153 -0.118604 0
M  V30 28799 C 2817.03 1.94356 0.539304 0
M  V30 28800 C 2817.34 1.00418 1.67856 0
M  V30 28801 O 2818.55 1.27085 2.3992 0
M  V30 28802 C 2817 3.45415 1.01075 0
M  V30 28803 C 2816.61 4.47888 -0.100019 0
M  V30 28804 C 2818.36 3.91538 1.64006 0
M  V30 28805 C 2816.26 5.90125 0.388108 0
M  V30 28806 H 2815.19 0.725531 0.205234 0
M  V30 28807 H 2817.84 1.82424 -0.198392 0
M  V30 28808 H 2816.23 3.5258 1.80286 0
M  V30 28809 H 2817.4 4.52392 -0.876268 0
M  V30 28810 H 2815.72 4.11515 -0.635957 0
M  V30 28811 H 2818.31 4.95223 2.0164 0
M  V30 28812 H 2818.66 3.31492 2.51831 0
M  V30 28813 H 2819.19 3.87172 0.913371 0
M  V30 28814 H 2815.93 6.53925 -0.454078 0
M  V30 28815 H 2815.45 5.89043 1.13085 0
M  V30 28816 H 2817.13 6.41399 0.849462 0
M  V30 28817 N 2817.26 -0.155167 1.56834 0
M  V30 28818 C 2818.5 -0.870435 1.8317 0
M  V30 28819 C 2818.84 -1.81185 0.698961 0
M  V30 28820 O 2818.11 -1.92204 -0.298001 0
M  V30 28821 C 2818.4 -1.65205 3.19968 0
M  V30 28822 C 2818.25 -0.732666 4.43793 0
M  V30 28823 C 2819.57 -2.6163 3.5389 0
M  V30 28824 H 2816.69 -0.314995 0.666294 0
M  V30 28825 H 2819.33 -0.135954 1.89513 0
M  V30 28826 H 2817.48 -2.27819 3.14691 0
M  V30 28827 H 2819.15 -0.118154 4.61149 0
M  V30 28828 H 2817.39 -0.0417143 4.3378 0
M  V30 28829 H 2818.06 -1.31542 5.36098 0
M  V30 28830 H 2820.54 -2.09136 3.59724 0
M  V30 28831 H 2819.42 -3.13374 4.50653 0
M  V30 28832 H 2819.68 -3.426 2.79424 0
M  V30 28833 N 2818.74 -1.51782 -0.424256 0
M  V30 28834 C 2819.99 -1.64328 -1.16958 0
M  V30 28835 C 2820.3 -0.371783 -1.92034 0
M  V30 28836 O 2821.5 -0.376807 -2.68872 0
M  V30 28837 C 2819.96 -2.90265 -2.12777 0
M  V30 28838 C 2819.57 -4.24467 -1.43288 0
M  V30 28839 C 2821.31 -3.12171 -2.87662 0
M  V30 28840 C 2819.22 -5.41543 -2.37667 0
M  V30 28841 H 2818.15 -0.612101 -0.440282 0
M  V30 28842 H 2820.8 -1.7826 -0.4354 0
M  V30 28843 H 2819.18 -2.69997 -2.89685 0
M  V30 28844 H 2820.36 -4.55164 -0.718484 0
M  V30 28845 H 2818.67 -4.08544 -0.805046 0
M  V30 28846 H 2821.27 -3.96815 -3.58388 0
M  V30 28847 H 2821.61 -2.25782 -3.49754 0
M  V30 28848 H 2822.14 -3.32841 -2.17857 0
M  V30 28849 H 2818.88 -6.30232 -1.80244 0
M  V30 28850 H 2818.4 -5.15205 -3.07123 0
M  V30 28851 H 2820.08 -5.74017 -2.98519 0
M  V30 28852 N 2820.21 0.68054 -1.42149 0
M  V30 28853 C 2821.44 1.47401 -1.45903 0
M  V30 28854 C 2821.86 1.87969 -0.0701315 0
M  V30 28855 O 2821.22 1.55623 0.930117 0
M  V30 28856 C 2821.27 2.70317 -2.38666 0
M  V30 28857 O 2820.37 3.68373 -1.85406 0
M  V30 28858 H 2819.72 0.443051 -0.494573 0
M  V30 28859 H 2822.25 0.835218 -1.86776 0
M  V30 28860 H 2822.26 3.18454 -2.55051 0
M  V30 28861 H 2820.93 2.40128 -3.39575 0
M  V30 28862 H 2819.51 3.27377 -1.78546 0
M  V30 28863 N 2821.69 1.28226 0.916285 0
M  V30 28864 C 2822.6 1.13778 2.05163 0
M  V30 28865 C 2823.62 0.0649724 1.73879 0
M  V30 28866 O 2824.79 0.273757 1.99531 0
M  V30 28867 C 2821.86 0.798326 3.37384 0
M  V30 28868 C 2820.92 1.95323 3.82292 0
M  V30 28869 C 2820.15 1.62987 5.08204 0
M  V30 28870 O 2820.38 0.543048 5.67809 0
M  V30 28871 O 2819.31 2.4727 5.48763 0
M  V30 28872 H 2823.14 2.09082 2.20269 0
M  V30 28873 H 2820.72 1.07521 1.03728 0
M  V30 28874 H 2822.6 0.622853 4.16772 0
M  V30 28875 H 2821.28 -0.125082 3.23458 0
M  V30 28876 H 2820.19 2.18384 3.03742 0
M  V30 28877 H 2821.52 2.85725 4.00777 0
M  V30 28878 N 2823.17 -1.12438 1.10433 0
M  V30 28879 C 2824.59 -1.35946 0.83612 0
M  V30 28880 C 2824.79 -1.94005 -0.544441 0
M  V30 28881 O 2823.84 -2.16624 -1.29732 0
M  V30 28882 C 2825.16 -2.30103 1.93579 0
M  V30 28883 C 2826.7 -2.43694 1.96424 0
M  V30 28884 C 2827.18 -3.41166 3.05565 0
M  V30 28885 N 2828.67 -3.48723 3.04871 0
M  V30 28886 C 2829.4 -4.24054 3.85961 0
M  V30 28887 N 2828.9 -5.0245 4.76986 0
M  V30 28888 N 2830.69 -4.1946 3.74179 0
M  V30 28889 H 2822.84 -0.731089 1.99421 0
M  V30 28890 H 2825.11 -0.384297 0.866614 0
M  V30 28891 H 2824.81 -1.94616 2.92946 0
M  V30 28892 H 2824.69 -3.30224 1.82296 0
M  V30 28893 H 2827.07 -2.78461 0.976899 0
M  V30 28894 H 2827.16 -1.43461 2.11784 0
M  V30 28895 H 2826.8 -3.07128 4.04518 0
M  V30 28896 H 2826.73 -4.41229 2.87446 0
M  V30 28897 H 2829.22 -2.92795 2.38913 0
M  V30 28898 H 2829.53 -5.57267 5.35419 0
M  V30 28899 H 2827.88 -5.01647 4.81015 0
M  V30 28900 H 2831.07 -3.57296 3.02419 0
M  V30 28901 H 2831.24 -4.77913 4.37611 0
M  V30 28902 N 2824.65 -0.893076 -1.29853 0
M  V30 28903 C 2825.58 -0.382289 -2.30349 0
M  V30 28904 C 2826.56 0.539174 -1.61329 0
M  V30 28905 O 2827.75 0.451309 -1.88883 0
M  V30 28906 C 2824.88 0.396922 -3.45024 0
M  V30 28907 C 2823.83 -0.433512 -4.25799 0
M  V30 28908 C 2823.16 0.472796 -5.32606 0
M  V30 28909 C 2824.46 -1.67993 -4.94546 0
M  V30 28910 H 2826.15 -1.2221 -2.73322 0
M  V30 28911 H 2823.7 -0.589096 -1.31399 0
M  V30 28912 H 2825.65 0.764951 -4.14399 0
M  V30 28913 H 2824.37 1.27045 -3.00877 0
M  V30 28914 H 2823.03 -0.783786 -3.58123 0
M  V30 28915 H 2822.68 1.34427 -4.84704 0
M  V30 28916 H 2822.38 -0.0790991 -5.87547 0
M  V30 28917 H 2823.9 0.837163 -6.04834 0
M  V30 28918 H 2825.32 -1.38202 -5.56393 0
M  V30 28919 H 2823.71 -2.17264 -5.59389 0
M  V30 28920 H 2824.78 -2.41972 -4.20211 0
M  V30 28921 N 2826.13 1.4335 -0.654865 0
M  V30 28922 C 2827.38 2.01396 -0.168594 0
M  V30 28923 C 2827.7 1.51935 1.22232 0
M  V30 28924 O 2826.97 0.732659 1.81684 0
M  V30 28925 H 2825.55 0.74464 -0.0593375 0
M  V30 28926 H 2828.21 1.75538 -0.846902 0
M  V30 28927 H 2827.3 3.11717 -0.154483 0
M  V30 28928 N 2827.61 0.39689 1.52521 0
M  V30 28929 C 2828.52 -0.44174 2.30404 0
M  V30 28930 C 2829.53 -1.06466 1.37626 0
M  V30 28931 O 2830.71 -1.06883 1.70699 0
M  V30 28932 C 2827.77 -1.5498 3.10132 0
M  V30 28933 C 2826.83 -0.951206 4.18629 0
M  V30 28934 C 2826.07 -2.00646 4.94547 0
M  V30 28935 O 2826.29 -3.22272 4.70634 0
M  V30 28936 O 2825.22 -1.61952 5.79703 0
M  V30 28937 H 2829.05 0.192946 3.03086 0
M  V30 28938 H 2826.63 0.160406 1.48536 0
M  V30 28939 H 2828.52 -2.19335 3.5982 0
M  V30 28940 H 2827.19 -2.16931 2.40255 0
M  V30 28941 H 2826.1 -0.270707 3.73119 0
M  V30 28942 H 2827.43 -0.375801 4.90763 0
M  V30 28943 N 2829.08 -1.57088 0.126936 0
M  V30 28944 C 2830.49 -1.82427 -0.397169 0
M  V30 28945 C 2830.85 -1.04456 -1.66083 0
M  V30 28946 O 2829.97 -0.28359 -2.14534 0
M  V30 28947 C 2830.57 -3.309 -0.727353 0
M  V30 28948 C 2829.12 -3.56891 -1.19606 0
M  V30 28949 C 2828.27 -2.76513 -0.208801 0
M  V30 28950 H 2831.22 -1.54748 0.351951 0
M  V30 28951 H 2831.24 -3.45961 -1.58401 0
M  V30 28952 H 2830.76 -3.87622 0.192538 0
M  V30 28953 H 2828.86 -3.05535 -2.13258 0
M  V30 28954 H 2828.97 -4.6544 -1.1359 0
M  V30 28955 H 2827.33 -2.44965 -0.697436 0
M  V30 28956 H 2828.12 -3.35997 0.704326 0
M  V30 28957 N 2830.56 0.146848 -1.56914 0
M  V30 28958 C 2831.51 1.20049 -1.99226 0
M  V30 28959 C 2832.5 1.44463 -0.884686 0
M  V30 28960 O 2833.71 1.44754 -1.06987 0
M  V30 28961 H 2830.08 0.404101 -0.634198 0
M  V30 28962 H 2832.06 0.816936 -2.86999 0
M  V30 28963 C 2830.8 2.52627 -2.38903 0
M  V30 28964 H 2830.13 2.34671 -3.23681 0
M  V30 28965 H 2831.57 3.24979 -2.72331 0
M  V30 28966 C 2830.03 3.13181 -1.24175 0
M  V30 28967 O 2830.56 3.98019 -0.542573 0
M  V30 28968 N 2828.76 2.72633 -1.00596 0
M  V30 28969 H 2828.31 2.03741 -1.5763 0
M  V30 28970 H 2828.27 3.13481 -0.240229 0
M  V30 28971 N 2832.04 1.52005 0.4162 0
M  V30 28972 C 2833.27 1.69309 1.18398 0
M  V30 28973 C 2833.68 0.399104 1.84943 0
M  V30 28974 O 2833.02 -0.634147 1.72407 0
M  V30 28975 C 2833.08 2.76746 2.2946 0
M  V30 28976 C 2832.75 4.18712 1.8311 0
M  V30 28977 C 2833.74 5.02791 1.32277 0
M  V30 28978 C 2831.43 4.64914 1.90158 0
M  V30 28979 C 2833.42 6.31141 0.891067 0
M  V30 28980 C 2831.11 5.93255 1.46599 0
M  V30 28981 C 2832.11 6.76197 0.961577 0
M  V30 28982 O 2831.8 8.02136 0.532247 0
M  V30 28983 H 2831.53 0.570849 0.362088 0
M  V30 28984 H 2834.08 1.99303 0.496729 0
M  V30 28985 H 2832.31 2.42112 3.01527 0
M  V30 28986 H 2834 2.82719 2.91247 0
M  V30 28987 H 2834.77 4.68291 1.2621 0
M  V30 28988 H 2830.65 4.00463 2.28364 0
M  V30 28989 H 2834.19 6.9583 0.496665 0
M  V30 28990 H 2830.09 6.27265 1.52344 0
M  V30 28991 H 2830.85 8.15865 0.656195 0
M  V30 28992 N 2833.52 -0.672992 1.42508 0
M  V30 28993 C 2834.77 -1.43021 1.42792 0
M  V30 28994 C 2835.09 -1.94946 0.0460081 0
M  V30 28995 O 2834.36 -1.73179 -0.915734 0
M  V30 28996 H 2832.94 -0.530739 0.525666 0
M  V30 28997 H 2835.6 -0.795081 1.77945 0
M  V30 28998 H 2834.69 -2.28233 2.12876 0
M  V30 28999 N 2835 -1.2871 -0.909472 0
M  V30 29000 C 2835.96 -1.13019 -1.99397 0
M  V30 29001 C 2836.96 -0.0685643 -1.60654 0
M  V30 29002 O 2838.15 -0.314701 -1.71334 0
M  V30 29003 C 2835.28 -0.726144 -3.33077 0
M  V30 29004 H 2836.47 -2.09341 -2.14747 0
M  V30 29005 H 2834.03 -1.11758 -1.0927 0
M  V30 29006 H 2834.76 0.237653 -3.23428 0
M  V30 29007 H 2834.55 -1.49308 -3.6256 0
M  V30 29008 H 2836.04 -0.639131 -4.1268 0
M  V30 29009 N 2836.47 1.1185 -1.11028 0
M  V30 29010 C 2837.38 2.21349 -0.777291 0
M  V30 29011 C 2838.4 1.72502 0.227791 0
M  V30 29012 O 2839.58 2.01295 0.0650233 0
M  V30 29013 C 2836.64 3.45997 -0.220729 0
M  V30 29014 C 2835.7 4.09653 -1.28387 0
M  V30 29015 C 2834.93 5.2835 -0.753771 0
M  V30 29016 O 2835.16 5.68869 0.417679 0
M  V30 29017 O 2834.09 5.82481 -1.51657 0
M  V30 29018 H 2837.92 2.52237 -1.69146 0
M  V30 29019 H 2835.5 1.20304 -0.885857 0
M  V30 29020 H 2837.38 4.21313 0.0855016 0
M  V30 29021 H 2836.06 3.1677 0.666207 0
M  V30 29022 H 2834.97 3.36087 -1.64305 0
M  V30 29023 H 2836.3 4.43048 -2.14404 0
M  V30 29024 N 2837.95 0.89995 1.29378 0
M  V30 29025 C 2839.2 0.521971 1.94829 0
M  V30 29026 C 2839.51 -0.936443 1.71727 0
M  V30 29027 O 2840.72 -1.42195 2.31285 0
M  V30 29028 C 2839.18 0.882611 3.4891 0
M  V30 29029 C 2838.78 2.35981 3.80811 0
M  V30 29030 C 2840.53 0.574554 4.20594 0
M  V30 29031 C 2838.43 2.6613 5.28137 0
M  V30 29032 H 2837.36 0.191481 0.729281 0
M  V30 29033 H 2840.02 1.09698 1.47101 0
M  V30 29034 H 2838.4 0.236529 3.95293 0
M  V30 29035 H 2839.57 3.05147 3.45286 0
M  V30 29036 H 2837.89 2.63692 3.22266 0
M  V30 29037 H 2840.48 0.776649 5.2903 0
M  V30 29038 H 2840.83 -0.486932 4.13442 0
M  V30 29039 H 2841.36 1.17849 3.79943 0
M  V30 29040 H 2838.1 3.71077 5.40353 0
M  V30 29041 H 2837.62 2.01588 5.64909 0
M  V30 29042 H 2839.3 2.5241 5.95734 0
M  V30 29043 N 2839.43 -1.43001 0.662458 0
M  V30 29044 C 2840.85 -1.56133 0.330862 0
M  V30 29045 C 2841.05 -1.64443 -1.16451 0
M  V30 29046 O 2840.1 -1.60456 -1.94962 0
M  V30 29047 C 2841.42 -2.81759 1.05034 0
M  V30 29048 C 2842.96 -2.95516 1.03148 0
M  V30 29049 C 2843.44 -4.23987 1.73203 0
M  V30 29050 N 2844.93 -4.30872 1.70011 0
M  V30 29051 C 2845.66 -5.29065 2.21084 0
M  V30 29052 N 2845.16 -6.33483 2.80484 0
M  V30 29053 N 2846.95 -5.2078 2.1153 0
M  V30 29054 H 2839.1 -1.35851 1.63274 0
M  V30 29055 H 2841.37 -0.65308 0.687161 0
M  V30 29056 H 2841.07 -2.81714 2.10547 0
M  V30 29057 H 2840.95 -3.72272 0.60773 0
M  V30 29058 H 2843.33 -2.95096 -0.015282 0
M  V30 29059 H 2843.42 -2.06267 1.51286 0
M  V30 29060 H 2843.06 -4.25167 2.7784 0
M  V30 29061 H 2842.99 -5.12148 1.22524 0
M  V30 29062 H 2845.48 -3.56037 1.26673 0
M  V30 29063 H 2845.79 -7.04743 3.17107 0
M  V30 29064 H 2844.14 -6.3408 2.84549 0
M  V30 29065 H 2847.33 -4.38123 1.64821 0
M  V30 29066 H 2847.5 -5.97145 2.51639 0
M  V30 29067 N 2840.91 -0.404973 -1.52308 0
M  V30 29068 C 2842.16 0.171824 -2.01368 0
M  V30 29069 C 2842.48 1.46 -1.29264 0
M  V30 29070 O 2841.75 1.91403 -0.417324 0
M  V30 29071 H 2840.33 0.0664863 -0.744035 0
M  V30 29072 H 2842.99 -0.540261 -1.87262 0
M  V30 29073 H 2842.09 0.370902 -3.09888 0
M  V30 29074 N 2842.39 1.57018 -0.135265 0
M  V30 29075 C 2843.63 1.95743 0.51876 0
M  V30 29076 C 2843.96 1.01949 1.6564 0
M  V30 29077 O 2843.22 0.046436 1.95645 0
M  V30 29078 C 2843.52 3.4079 1.07688 0
M  V30 29079 C 2843.18 4.50862 0.0589128 0
M  V30 29080 C 2841.84 4.80692 -0.220957 0
M  V30 29081 C 2844.2 5.1733 -0.633947 0
M  V30 29082 C 2841.52 5.74303 -1.19969 0
M  V30 29083 C 2843.88 6.11994 -1.60142 0
M  V30 29084 C 2842.54 6.4021 -1.88911 0
M  V30 29085 H 2841.81 0.716273 0.189828 0
M  V30 29086 H 2844.46 1.90237 -0.219614 0
M  V30 29087 H 2842.76 3.4307 1.89235 0
M  V30 29088 H 2844.46 3.68074 1.59131 0
M  V30 29089 H 2841.05 4.27636 0.287229 0
M  V30 29090 H 2845.23 4.94426 -0.43091 0
M  V30 29091 H 2840.49 5.94462 -1.42916 0
M  V30 29092 H 2844.66 6.62579 -2.14388 0
M  V30 29093 H 2842.29 7.12552 -2.64904 0
M  V30 29094 N 2843.86 -0.138524 1.5699 0
M  V30 29095 C 2845.09 -0.868377 1.88345 0
M  V30 29096 C 2845.51 -1.73559 0.72519 0
M  V30 29097 O 2844.87 -1.78364 -0.324961 0
M  V30 29098 C 2844.92 -1.69393 3.18337 0
M  V30 29099 O 2844.02 -2.79902 3.02868 0
M  V30 29100 H 2843.37 -0.241356 0.618582 0
M  V30 29101 H 2845.9 -0.12679 2.04207 0
M  V30 29102 H 2845.91 -2.0872 3.50571 0
M  V30 29103 H 2844.58 -1.05717 4.0224 0
M  V30 29104 H 2843.16 -2.43919 2.8206 0
M  V30 29105 N 2845.34 -1.52224 -0.408133 0
M  V30 29106 C 2846.57 -1.70181 -1.17669 0
M  V30 29107 C 2846.99 -0.411728 -1.84256 0
M  V30 29108 O 2846.34 0.612324 -1.71921 0
M  V30 29109 C 2846.39 -2.8381 -2.23906 0
M  V30 29110 O 2846.11 -4.07823 -1.60037 0
M  V30 29111 C 2847.62 -3.13286 -3.13634 0
M  V30 29112 H 2844.84 -0.5703 -0.353552 0
M  V30 29113 H 2847.38 -1.98786 -0.480048 0
M  V30 29114 H 2845.53 -2.57722 -2.89237 0
M  V30 29115 H 2845.95 -4.71149 -2.30476 0
M  V30 29116 H 2847.42 -3.96305 -3.84248 0
M  V30 29117 H 2847.9 -2.26879 -3.76062 0
M  V30 29118 H 2848.51 -3.41143 -2.53971 0
M  V30 29119 N 2846.82 0.665425 -1.42863 0
M  V30 29120 C 2848.07 1.42262 -1.43548 0
M  V30 29121 C 2848.39 1.94919 -0.0563459 0
M  V30 29122 O 2847.66 1.73663 0.906537 0
M  V30 29123 H 2846.24 0.527944 -0.528473 0
M  V30 29124 H 2848.9 0.785633 -1.78364 0
M  V30 29125 H 2848 2.27101 -2.14083 0
M  V30 29126 N 2848.3 1.29191 0.902633 0
M  V30 29127 C 2849.55 1.16992 1.65285 0
M  V30 29128 C 2849.87 -0.279198 1.92486 0
M  V30 29129 O 2849.13 -1.2184 1.53145 0
M  V30 29130 C 2849.43 1.9255 3.01097 0
M  V30 29131 C 2849.09 3.42286 2.93515 0
M  V30 29132 C 2847.76 3.83122 2.91155 0
M  V30 29133 C 2850.11 4.37715 2.82939 0
M  V30 29134 C 2847.44 5.17709 2.76034 0
M  V30 29135 C 2849.79 5.72389 2.69358 0
M  V30 29136 C 2848.45 6.12486 2.65362 0
M  V30 29137 H 2847.72 0.428104 0.60482 0
M  V30 29138 H 2850.37 1.60094 1.05081 0
M  V30 29139 H 2848.67 1.4203 3.6515 0
M  V30 29140 H 2850.37 1.80518 3.5807 0
M  V30 29141 H 2846.96 3.09825 2.96153 0
M  V30 29142 H 2851.14 4.07121 2.83842 0
M  V30 29143 H 2846.4 5.4789 2.71343 0
M  V30 29144 H 2850.57 6.45986 2.60145 0
M  V30 29145 H 2848.2 7.16722 2.53403 0
M  V30 29146 N 2849.78 -1.1126 1.1162 0
M  V30 29147 C 2851.19 -1.64554 0.881971 0
M  V30 29148 C 2851.54 -1.87263 -0.585409 0
M  V30 29149 O 2850.66 -1.60824 -1.44792 0
M  V30 29150 C 2851.26 -2.98932 1.59452 0
M  V30 29151 C 2849.82 -3.49127 1.40667 0
M  V30 29152 C 2848.96 -2.23901 1.63597 0
M  V30 29153 H 2851.92 -0.948747 1.27218 0
M  V30 29154 H 2851.94 -3.65994 1.0406 0
M  V30 29155 H 2851.45 -2.82373 2.66246 0
M  V30 29156 H 2849.55 -3.70848 0.3609 0
M  V30 29157 H 2849.66 -4.27797 2.15701 0
M  V30 29158 H 2848.03 -2.31618 1.05948 0
M  V30 29159 H 2848.81 -2.09882 2.7167 0
M  V30 29160 N 2851.25 -0.906798 -1.28899 0
M  V30 29161 C 2852.18 -0.4067 -2.29931 0
M  V30 29162 C 2853.17 0.522033 -1.61891 0
M  V30 29163 O 2854.35 0.43125 -1.89351 0
M  V30 29164 C 2851.48 0.360305 -3.45426 0
M  V30 29165 C 2850.43 -0.478649 -4.25315 0
M  V30 29166 C 2849.76 0.416279 -5.33077 0
M  V30 29167 C 2851.06 -1.73229 -4.92736 0
M  V30 29168 H 2852.75 -1.25102 -2.72011 0
M  V30 29169 H 2850.3 -0.603 -1.30767 0
M  V30 29170 H 2852.25 0.720956 -4.15187 0
M  V30 29171 H 2850.98 1.23847 -3.02208 0
M  V30 29172 H 2849.64 -0.821725 -3.57272 0
M  V30 29173 H 2849.28 1.29278 -4.86103 0
M  V30 29174 H 2848.98 -0.141412 -5.8743 0
M  V30 29175 H 2850.51 0.772965 -6.05688 0
M  V30 29176 H 2851.92 -1.44095 -5.54896 0
M  V30 29177 H 2850.32 -2.23185 -5.57054 0
M  V30 29178 H 2851.39 -2.46416 -4.17621 0
M  V30 29179 N 2852.73 1.42648 -0.670032 0
M  V30 29180 C 2853.64 2.34597 0.0114375 0
M  V30 29181 C 2854.66 1.54826 0.794028 0
M  V30 29182 O 2855.83 1.87413 0.737439 0
M  V30 29183 C 2852.9 3.33305 0.954377 0
M  V30 29184 C 2851.96 4.28976 0.16685 0
M  V30 29185 C 2851.19 5.22969 1.06488 0
M  V30 29186 O 2851.42 5.21781 2.30436 0
M  V30 29187 O 2850.35 5.99578 0.528241 0
M  V30 29188 H 2854.18 2.94399 -0.745846 0
M  V30 29189 H 2851.76 1.43071 -0.430253 0
M  V30 29190 H 2853.64 3.93958 1.49582 0
M  V30 29191 H 2852.32 2.75983 1.69159 0
M  V30 29192 H 2851.23 3.71751 -0.41858 0
M  V30 29193 H 2852.56 4.89326 -0.531153 0
M  V30 29194 N 2854.21 0.413044 1.52091 0
M  V30 29195 C 2855.12 -0.417277 2.30859 0
M  V30 29196 C 2856.14 -1.05 1.38748 0
M  V30 29197 O 2857.31 -1.05066 1.71823 0
M  V30 29198 C 2854.38 -1.51682 3.11759 0
M  V30 29199 C 2853.44 -0.906751 4.19615 0
M  V30 29200 C 2852.67 -1.9539 4.96647 0
M  V30 29201 O 2852.9 -3.17263 4.74026 0
M  V30 29202 O 2851.83 -1.55795 5.81388 0
M  V30 29203 H 2855.66 0.225081 3.02865 0
M  V30 29204 H 2853.24 0.176152 1.48358 0
M  V30 29205 H 2855.12 -2.15506 3.62126 0
M  V30 29206 H 2853.8 -2.14371 2.42543 0
M  V30 29207 H 2852.7 -0.231118 3.73385 0
M  V30 29208 H 2854.04 -0.323727 4.91134 0
M  V30 29209 N 2855.69 -1.56945 0.143591 0
M  V30 29210 C 2856.97 -1.87613 -0.553252 0
M  V30 29211 C 2857.35 -1.04898 -1.83193 0
M  V30 29212 O 2856.69 -0.134814 -2.28102 0
M  V30 29213 C 2856.9 -3.39182 -0.821996 0
M  V30 29214 C 2858.25 -4.08326 -1.16427 0
M  V30 29215 O 2859.28 -3.44341 -0.911461 0
M  V30 29216 O 2858.14 -5.21316 -1.63987 0
M  V30 29217 H 2855.23 -0.777494 -0.281838 0
M  V30 29218 H 2857.78 -1.68743 0.179946 0
M  V30 29219 H 2856.55 -3.91212 0.0830953 0
M  V30 29220 H 2856.17 -3.63567 -1.60949 0
M  V30 29221 N 2857.17 0.130197 -1.57061 0
M  V30 29222 C 2858.41 0.839939 -1.84259 0
M  V30 29223 C 2858.74 1.80401 -0.727018 0
M  V30 29224 O 2858 1.93649 0.282597 0
M  V30 29225 C 2858.3 1.63359 -3.17881 0
M  V30 29226 C 2857.96 0.814813 -4.43477 0
M  V30 29227 C 2856.62 0.588982 -4.77582 0
M  V30 29228 C 2858.98 0.243345 -5.20632 0
M  V30 29229 C 2856.3 -0.218751 -5.86292 0
M  V30 29230 C 2858.66 -0.551518 -6.30191 0
M  V30 29231 C 2857.32 -0.78777 -6.62835 0
M  V30 29232 H 2856.59 0.307356 -0.67425 0
M  V30 29233 H 2859.24 0.102798 -1.91224 0
M  V30 29234 H 2857.54 2.44133 -3.06442 0
M  V30 29235 H 2859.24 2.18652 -3.36144 0
M  V30 29236 H 2855.83 1.00091 -4.16749 0
M  V30 29237 H 2860.01 0.405058 -4.94644 0
M  V30 29238 H 2855.27 -0.411123 -6.10016 0
M  V30 29239 H 2859.44 -1.00138 -6.89163 0
M  V30 29240 H 2857.07 -1.4155 -7.46905 0
M  V30 29241 N 2858.65 1.52438 0.400055 0
M  V30 29242 C 2859.87 1.71098 1.17218 0
M  V30 29243 C 2860.3 0.423597 1.83268 0
M  V30 29244 O 2859.65 -0.619721 1.70379 0
M  V30 29245 C 2859.7 2.8539 2.2042 0
M  V30 29246 O 2858.81 2.51592 3.26765 0
M  V30 29247 H 2858.15 0.569297 0.341756 0
M  V30 29248 H 2860.68 1.99182 0.467737 0
M  V30 29249 H 2860.69 3.10566 2.646 0
M  V30 29250 H 2859.36 3.78789 1.7173 0
M  V30 29251 H 2857.94 2.37119 2.878 0
M  V30 29252 N 2860.12 -0.657839 1.43214 0
M  V30 29253 C 2861.37 -1.41498 1.44301 0
M  V30 29254 C 2861.69 -1.94886 0.0666821 0
M  V30 29255 O 2860.96 -1.74141 -0.897315 0
M  V30 29256 H 2859.54 -0.525134 0.531266 0
M  V30 29257 H 2862.2 -0.776163 1.78778 0
M  V30 29258 H 2861.3 -2.25963 2.15284 0
M  V30 29259 N 2861.6 -1.29668 -0.895769 0
M  V30 29260 C 2862.88 -1.08541 -1.62721 0
M  V30 29261 C 2863.26 0.369083 -2.07848 0
M  V30 29262 O 2862.61 1.35861 -1.83723 0
M  V30 29263 C 2862.82 -2.07653 -2.80502 0
M  V30 29264 C 2864.16 -2.38786 -3.51093 0
M  V30 29265 O 2865.19 -2.05879 -2.90676 0
M  V30 29266 O 2864.05 -2.95028 -4.60023 0
M  V30 29267 H 2861.14 -0.416119 -0.714685 0
M  V30 29268 H 2863.69 -1.41054 -0.943492 0
M  V30 29269 H 2862.46 -3.05604 -2.44381 0
M  V30 29270 H 2862.08 -1.75893 -3.56577 0
M  V30 29271 N 2863.08 1.10667 -1.12208 0
M  V30 29272 C 2864.33 1.82576 -0.875907 0
M  V30 29273 C 2864.65 1.85069 0.59831 0
M  V30 29274 O 2863.91 1.30523 1.45816 0
M  V30 29275 C 2864.21 3.29143 -1.39282 0
M  V30 29276 C 2863.87 3.46801 -2.88166 0
M  V30 29277 C 2862.54 3.51328 -3.28819 0
M  V30 29278 C 2864.89 3.52393 -3.84017 0
M  V30 29279 C 2862.22 3.59011 -4.64034 0
M  V30 29280 C 2864.57 3.61608 -5.19059 0
M  V30 29281 C 2863.23 3.64398 -5.59258 0
M  V30 29282 H 2862.5 0.668094 -0.320517 0
M  V30 29283 H 2865.15 1.30461 -1.40186 0
M  V30 29284 H 2863.45 3.83809 -0.787275 0
M  V30 29285 H 2865.15 3.83289 -1.17858 0
M  V30 29286 H 2861.74 3.43953 -2.55723 0
M  V30 29287 H 2865.93 3.48148 -3.53704 0
M  V30 29288 H 2861.18 3.59452 -4.94575 0
M  V30 29289 H 2865.36 3.64878 -5.93158 0
M  V30 29290 H 2862.98 3.70104 -6.64023 0
M  V30 29291 N 2864.56 0.913621 1.28416 0
M  V30 29292 C 2865.97 0.611754 1.4741 0
M  V30 29293 C 2866.17 -0.842976 1.8302 0
M  V30 29294 O 2865.23 -1.62207 1.93508 0
M  V30 29295 C 2866.54 1.54954 2.57701 0
M  V30 29296 C 2868.09 1.55624 2.7157 0
M  V30 29297 C 2868.57 2.48065 3.85003 0
M  V30 29298 N 2870.06 2.46191 3.92357 0
M  V30 29299 C 2870.79 3.14415 4.79511 0
M  V30 29300 N 2870.29 3.91968 5.71255 0
M  V30 29301 N 2872.08 3.03503 4.7312 0
M  V30 29302 H 2864.23 1.85431 1.03582 0
M  V30 29303 H 2866.49 0.795335 0.515893 0
M  V30 29304 H 2866.2 2.58668 2.38294 0
M  V30 29305 H 2866.07 1.28055 3.54798 0
M  V30 29306 H 2868.46 0.526492 2.90365 0
M  V30 29307 H 2868.54 1.86568 1.75003 0
M  V30 29308 H 2868.19 3.51142 3.66962 0
M  V30 29309 H 2868.12 2.14424 4.80967 0
M  V30 29310 H 2870.61 1.89857 3.26746 0
M  V30 29311 H 2870.92 4.41046 6.34585 0
M  V30 29312 H 2869.27 3.96073 5.71096 0
M  V30 29313 H 2872.46 2.4242 4.00438 0
M  V30 29314 H 2872.63 3.56945 5.40827 0
M  V30 29315 N 2866.04 -1.4229 0.677588 0
M  V30 29316 C 2866.95 -2.346 0.00100389 0
M  V30 29317 C 2867.96 -1.55245 -0.785806 0
M  V30 29318 O 2869.14 -1.87802 -0.72749 0
M  V30 29319 C 2866.2 -3.33807 -0.936688 0
M  V30 29320 C 2865.26 -4.29058 -0.144098 0
M  V30 29321 C 2864.5 -5.23526 -1.03713 0
M  V30 29322 O 2864.72 -5.22996 -2.27666 0
M  V30 29323 O 2863.65 -5.99849 -0.496437 0
M  V30 29324 H 2867.48 -2.93999 0.761448 0
M  V30 29325 H 2865.06 -1.4284 0.437835 0
M  V30 29326 H 2866.95 -3.94746 -1.4749 0
M  V30 29327 H 2865.62 -2.76876 -1.67693 0
M  V30 29328 H 2864.53 -3.71524 0.438289 0
M  V30 29329 H 2865.86 -4.89037 0.557096 0
M  V30 29330 N 2867.51 -0.421104 -1.5187 0
M  V30 29331 C 2868.74 0.149686 -2.06057 0
M  V30 29332 C 2869.15 1.38399 -1.29005 0
M  V30 29333 O 2868.49 1.80556 -0.338416 0
M  V30 29334 C 2868.56 0.553276 -3.55217 0
M  V30 29335 C 2868.22 -0.571959 -4.53407 0
M  V30 29336 C 2869.22 -1.43919 -4.99583 0
M  V30 29337 C 2866.9 -0.748066 -4.96698 0
M  V30 29338 C 2868.9 -2.46738 -5.87707 0
M  V30 29339 C 2866.58 -1.77954 -5.84616 0
M  V30 29340 C 2867.58 -2.63759 -6.30016 0
M  V30 29341 O 2867.27 -3.65139 -7.16191 0
M  V30 29342 H 2867 0.0185983 -0.675744 0
M  V30 29343 H 2869.56 -0.5942 -1.96617 0
M  V30 29344 H 2867.79 1.34963 -3.62384 0
M  V30 29345 H 2869.47 1.05335 -3.91994 0
M  V30 29346 H 2870.24 -1.3146 -4.66844 0
M  V30 29347 H 2866.12 -0.0898167 -4.60912 0
M  V30 29348 H 2869.66 -3.13745 -6.23065 0
M  V30 29349 H 2865.56 -1.9044 -6.16768 0
M  V30 29350 H 2866.33 -3.61525 -7.34331 0
M  V30 29351 N 2868.99 1.56866 -0.151912 0
M  V30 29352 C 2870.22 2.01082 0.508009 0
M  V30 29353 C 2870.64 1.03136 1.57304 0
M  V30 29354 O 2870 0.00786277 1.81298 0
M  V30 29355 C 2870.05 3.44016 1.081 0
M  V30 29356 O 2869.15 3.49088 2.19571 0
M  V30 29357 H 2868.49 0.652367 0.123745 0
M  V30 29358 H 2871.02 2.03066 -0.250091 0
M  V30 29359 H 2871.03 3.82919 1.40844 0
M  V30 29360 H 2869.71 4.14809 0.301095 0
M  V30 29361 H 2868.29 3.22031 1.88017 0
M  V30 29362 N 2870.47 -0.121866 1.57128 0
M  V30 29363 C 2871.7 -0.844418 1.88884 0
M  V30 29364 C 2872.11 -1.73572 0.742854 0
M  V30 29365 O 2871.47 -1.80238 -0.286443 0
M  V30 29366 C 2871.52 -1.68023 3.20079 0
M  V30 29367 O 2871.24 -0.824823 4.30265 0
M  V30 29368 C 2872.74 -2.50819 3.6552 0
M  V30 29369 H 2869.96 -0.242896 0.625494 0
M  V30 29370 H 2872.51 -0.107115 2.04219 0
M  V30 29371 H 2870.66 -2.37032 3.06422 0
M  V30 29372 H 2871.08 -1.40104 5.05441 0
M  V30 29373 H 2872.55 -3.05 4.60086 0
M  V30 29374 H 2873.03 -3.28043 2.92035 0
M  V30 29375 H 2873.63 -1.87057 3.81955 0
M  V30 29376 N 2871.95 -1.52648 -0.391965 0
M  V30 29377 C 2873.19 -1.67795 -1.13897 0
M  V30 29378 C 2873.53 -0.415174 -1.8971 0
M  V30 29379 O 2872.8 0.586946 -1.85432 0
M  V30 29380 C 2873.09 -2.91109 -2.11961 0
M  V30 29381 C 2872.94 -4.2748 -1.39931 0
M  V30 29382 C 2874.26 -3.09966 -3.12424 0
M  V30 29383 H 2871.38 -0.610615 -0.412696 0
M  V30 29384 H 2874.02 -1.85239 -0.422692 0
M  V30 29385 H 2872.17 -2.76368 -2.73044 0
M  V30 29386 H 2873.84 -4.53983 -0.818359 0
M  V30 29387 H 2872.08 -4.28096 -0.701171 0
M  V30 29388 H 2872.75 -5.09845 -2.11572 0
M  V30 29389 H 2875.23 -3.23719 -2.61429 0
M  V30 29390 H 2874.11 -3.97731 -3.78287 0
M  V30 29391 H 2874.37 -2.24049 -3.81123 0
M  V30 29392 N 2873.43 0.650235 -1.43561 0
M  V30 29393 C 2874.65 1.44273 -1.48997 0
M  V30 29394 C 2875.08 1.87778 -0.109987 0
M  V30 29395 O 2874.43 1.57561 0.896898 0
M  V30 29396 C 2874.48 2.65193 -2.44346 0
M  V30 29397 O 2873.59 3.64357 -1.93178 0
M  V30 29398 H 2872.93 0.43246 -0.503859 0
M  V30 29399 H 2875.46 0.795413 -1.88506 0
M  V30 29400 H 2875.47 3.12972 -2.61749 0
M  V30 29401 H 2874.14 2.32871 -3.44592 0
M  V30 29402 H 2872.72 3.23516 -1.8545 0
M  V30 29403 N 2874.9 1.30141 0.88888 0
M  V30 29404 C 2875.85 1.12806 1.98138 0
M  V30 29405 C 2876.84 0.044342 1.60839 0
M  V30 29406 O 2878.03 0.267239 1.74971 0
M  V30 29407 C 2875.16 0.817908 3.33414 0
M  V30 29408 C 2874.25 1.94169 3.7704 0
M  V30 29409 N 2874.64 3.18658 3.92799 0
M  V30 29410 C 2872.93 1.83717 4.06404 0
M  V30 29411 C 2873.64 3.92045 4.29739 0
M  V30 29412 N 2872.61 3.20067 4.39384 0
M  V30 29413 H 2876.41 2.07228 2.08407 0
M  V30 29414 H 2873.93 1.21423 1.07843 0
M  V30 29415 H 2875.92 0.674741 4.11404 0
M  V30 29416 H 2874.58 -0.118287 3.24484 0
M  V30 29417 H 2875.6 3.5399 3.78036 0
M  V30 29418 H 2872.27 0.974402 4.0597 0
M  V30 29419 H 2873.66 4.99231 4.49687 0
M  V30 29420 N 2876.38 -1.1007 1.12794 0
M  V30 29421 C 2877.79 -1.6361 0.899375 0
M  V30 29422 C 2878.14 -1.87873 -0.565514 0
M  V30 29423 O 2877.27 -1.6235 -1.43078 0
M  V30 29424 C 2877.86 -2.97224 1.62613 0
M  V30 29425 C 2876.42 -3.47616 1.44362 0
M  V30 29426 C 2875.57 -2.22153 1.65962 0
M  V30 29427 H 2878.52 -0.935201 1.28217 0
M  V30 29428 H 2878.54 -3.6487 1.07936 0
M  V30 29429 H 2878.05 -2.79533 2.69226 0
M  V30 29430 H 2876.16 -3.70444 0.400213 0
M  V30 29431 H 2876.27 -4.25485 2.20226 0
M  V30 29432 H 2874.63 -2.30482 1.08399 0
M  V30 29433 H 2875.42 -2.06988 2.73881 0
M  V30 29434 N 2877.86 -0.920419 -1.2793 0
M  V30 29435 C 2879.11 -0.552901 -1.93974 0
M  V30 29436 C 2879.42 0.909004 -1.73195 0
M  V30 29437 O 2880.63 1.38498 -2.33518 0
M  V30 29438 C 2879.08 -0.938008 -3.47461 0
M  V30 29439 C 2878.69 -2.4201 -3.77008 0
M  V30 29440 C 2880.44 -0.641394 -4.19626 0
M  V30 29441 C 2878.34 -2.74498 -5.23836 0
M  V30 29442 H 2877.27 -0.203059 -0.726143 0
M  V30 29443 H 2879.92 -1.12024 -1.45337 0
M  V30 29444 H 2878.31 -0.299386 -3.94867 0
M  V30 29445 H 2879.48 -3.10601 -3.40387 0
M  V30 29446 H 2877.8 -2.68785 -3.18031 0
M  V30 29447 H 2880.39 -0.860714 -5.27727 0
M  V30 29448 H 2880.74 0.421095 -4.14165 0
M  V30 29449 H 2881.27 -1.23878 -3.7802 0
M  V30 29450 H 2878.01 -3.79627 -5.34381 0
M  V30 29451 H 2877.53 -2.1055 -5.6163 0
M  V30 29452 H 2879.21 -2.61855 -5.91643 0
M  V30 29453 N 2879.34 1.41929 -0.685124 0
M  V30 29454 C 2880.3 2.29189 -0.0223035 0
M  V30 29455 C 2881.3 1.43851 0.718575 0
M  V30 29456 O 2882.49 1.65121 0.555029 0
M  V30 29457 C 2879.62 3.26541 0.978955 0
M  V30 29458 H 2880.82 2.89295 -0.790475 0
M  V30 29459 H 2878.37 1.49741 -0.448038 0
M  V30 29460 H 2879.1 2.71395 1.77526 0
M  V30 29461 H 2878.89 3.89498 0.450969 0
M  V30 29462 H 2880.38 3.91956 1.44084 0
M  V30 29463 N 2880.82 0.429152 1.51644 0
M  V30 29464 C 2881.76 -0.386406 2.27542 0
M  V30 29465 C 2882.73 -1.02391 1.30788 0
M  V30 29466 O 2883.92 -1.04437 1.59679 0
M  V30 29467 C 2881.06 -1.48617 3.11459 0
M  V30 29468 C 2880.17 -0.867617 4.23198 0
M  V30 29469 C 2879.31 -1.94175 4.94439 0
M  V30 29470 C 2878.35 -1.30119 5.9811 0
M  V30 29471 N 2877.48 -2.31633 6.6279 0
M  V30 29472 H 2882.32 0.267207 2.968 0
M  V30 29473 H 2879.86 0.143616 1.46397 0
M  V30 29474 H 2881.82 -2.13499 3.58433 0
M  V30 29475 H 2880.45 -2.10953 2.44333 0
M  V30 29476 H 2879.5 -0.107306 3.80249 0
M  V30 29477 H 2880.81 -0.359883 4.975 0
M  V30 29478 H 2879.97 -2.66738 5.44918 0
M  V30 29479 H 2878.7 -2.48319 4.19749 0
M  V30 29480 H 2877.71 -0.560986 5.46931 0
M  V30 29481 H 2878.93 -0.767185 6.74753 0
M  V30 29482 H 2876.88 -2.84872 5.90918 0
M  V30 29483 H 2876.8 -1.85728 7.32831 0
M  V30 29484 H 2878.07 -3.03704 7.17903 0
M  V30 29485 N 2882.29 -1.56783 0.160229 0
M  V30 29486 C 2883.2 -2.21001 -0.787128 0
M  V30 29487 C 2884.22 -1.19827 -1.26165 0
M  V30 29488 O 2885.4 -1.52451 -1.31608 0
M  V30 29489 C 2882.46 -2.82944 -2.00359 0
M  V30 29490 C 2881.52 -3.99285 -1.57703 0
M  V30 29491 C 2880.76 -4.58264 -2.7355 0
M  V30 29492 O 2880.98 -4.16126 -3.90122 0
M  V30 29493 O 2879.91 -5.48315 -2.48262 0
M  V30 29494 H 2883.74 -3.02494 -0.270409 0
M  V30 29495 H 2881.32 -1.49248 -0.0674404 0
M  V30 29496 H 2883.21 -3.22262 -2.71524 0
M  V30 29497 H 2881.88 -2.04455 -2.50958 0
M  V30 29498 H 2880.79 -3.64657 -0.83521 0
M  V30 29499 H 2882.12 -4.79333 -1.11806 0
M  V30 29500 N 2883.77 0.113531 -1.57191 0
M  V30 29501 C 2884.68 1.15773 -2.04043 0
M  V30 29502 C 2885.7 1.44999 -0.961837 0
M  V30 29503 O 2886.88 1.56007 -1.27373 0
M  V30 29504 C 2883.94 2.46304 -2.43999 0
M  V30 29505 C 2883 2.24426 -3.65966 0
M  V30 29506 C 2882.23 3.48733 -4.04006 0
M  V30 29507 O 2882.46 4.56253 -3.42329 0
M  V30 29508 O 2881.39 3.39411 -4.97075 0
M  V30 29509 H 2885.22 0.789848 -2.93249 0
M  V30 29510 H 2882.8 0.324722 -1.45828 0
M  V30 29511 H 2884.68 3.232 -2.70407 0
M  V30 29512 H 2883.36 2.82555 -1.57937 0
M  V30 29513 H 2882.27 1.45371 -3.447 0
M  V30 29514 H 2883.6 1.93076 -4.5275 0
M  V30 29515 N 2885.25 1.52854 0.383864 0
M  V30 29516 C 2886.48 1.72032 1.14947 0
M  V30 29517 C 2886.89 0.44099 1.83578 0
M  V30 29518 O 2886.25 -0.584895 1.72873 0
M  V30 29519 C 2886.3 2.87337 2.19363 0
M  V30 29520 O 2886.02 4.10318 1.53529 0
M  V30 29521 C 2887.52 3.18236 3.08611 0
M  V30 29522 H 2884.74 0.575852 0.344435 0
M  V30 29523 H 2887.29 1.99524 0.448362 0
M  V30 29524 H 2885.44 2.62291 2.851 0
M  V30 29525 H 2885.86 4.74756 2.22951 0
M  V30 29526 H 2887.33 4.02368 3.77895 0
M  V30 29527 H 2887.81 2.32833 3.72405 0
M  V30 29528 H 2888.41 3.4514 2.48512 0
M  V30 29529 N 2886.73 -0.642612 1.43904 0
M  V30 29530 C 2887.98 -1.40445 1.46298 0
M  V30 29531 C 2888.31 -1.93987 0.0908702 0
M  V30 29532 O 2887.58 -1.7295 -0.889853 0
M  V30 29533 C 2887.87 -2.57814 2.51404 0
M  V30 29534 C 2887.72 -2.09695 3.97929 0
M  V30 29535 C 2889.04 -3.60017 2.53131 0
M  V30 29536 H 2886.16 -0.509329 0.532685 0
M  V30 29537 H 2888.8 -0.727604 1.75516 0
M  V30 29538 H 2886.95 -3.15556 2.26619 0
M  V30 29539 H 2888.62 -1.56872 4.33807 0
M  V30 29540 H 2886.86 -1.40975 4.10254 0
M  V30 29541 H 2887.54 -2.94144 4.67101 0
M  V30 29542 H 2890.01 -3.12054 2.75248 0
M  V30 29543 H 2888.89 -4.39677 3.28597 0
M  V30 29544 H 2889.15 -4.13321 1.56902 0
M  V30 29545 N 2888.21 -1.30611 -0.881966 0
M  V30 29546 C 2889.14 -1.11574 -1.99064 0
M  V30 29547 C 2890.12 -0.0225445 -1.62584 0
M  V30 29548 O 2891.3 -0.176677 -1.8767 0
M  V30 29549 C 2888.43 -0.702295 -3.31339 0
M  V30 29550 C 2887.48 -1.7968 -3.86804 0
M  V30 29551 S 2888.31 -3.39983 -4.13729 0
M  V30 29552 C 2889.46 -3.00548 -5.49019 0
M  V30 29553 H 2889.7 -2.05433 -2.14906 0
M  V30 29554 H 2887.23 -1.14959 -1.03072 0
M  V30 29555 H 2889.19 -0.470487 -4.07795 0
M  V30 29556 H 2887.85 0.216979 -3.1335 0
M  V30 29557 H 2887.04 -1.45986 -4.82394 0
M  V30 29558 H 2886.64 -1.98304 -3.17099 0
M  V30 29559 H 2888.94 -2.48695 -6.30204 0
M  V30 29560 H 2889.88 -3.95056 -5.87653 0
M  V30 29561 H 2890.29 -2.38329 -5.11722 0
M  V30 29562 N 2889.69 1.0947 -1.13376 0
M  V30 29563 C 2890.62 2.1537 -0.754392 0
M  V30 29564 C 2891.6 1.60521 0.259177 0
M  V30 29565 O 2892.78 1.87896 0.150786 0
M  V30 29566 C 2889.91 3.38493 -0.118256 0
M  V30 29567 C 2888.95 4.12064 -1.10025 0
M  V30 29568 S 2889.79 4.66326 -2.6325 0
M  V30 29569 C 2890.94 5.92749 -2.00995 0
M  V30 29570 H 2891.18 2.47217 -1.6514 0
M  V30 29571 H 2888.71 1.21412 -0.953859 0
M  V30 29572 H 2890.67 4.09784 0.242375 0
M  V30 29573 H 2889.33 3.04866 0.756012 0
M  V30 29574 H 2888.52 5.0038 -0.602958 0
M  V30 29575 H 2888.12 3.46634 -1.40432 0
M  V30 29576 H 2890.41 6.63735 -1.35874 0
M  V30 29577 H 2891.36 6.47157 -2.87391 0
M  V30 29578 H 2891.77 5.45247 -1.4617 0
M  V30 29579 N 2891.16 0.92719 1.2744 0
M  V30 29580 C 2892.07 0.431488 2.30598 0
M  V30 29581 C 2893.09 -0.48758 1.67029 0
M  V30 29582 O 2894.27 -0.370512 1.97963 0
M  V30 29583 C 2891.33 -0.308231 3.45327 0
M  V30 29584 C 2890.39 0.64569 4.24416 0
M  V30 29585 C 2889.62 -0.0588226 5.33668 0
M  V30 29586 O 2889.85 -1.27828 5.55892 0
M  V30 29587 O 2888.78 0.612743 5.98773 0
M  V30 29588 H 2892.61 1.28802 2.75034 0
M  V30 29589 H 2890.19 0.692518 1.3238 0
M  V30 29590 H 2892.07 -0.725482 4.15108 0
M  V30 29591 H 2890.75 -1.14038 3.02947 0
M  V30 29592 H 2889.66 1.11261 3.57172 0
M  V30 29593 H 2890.99 1.44504 4.7051 0
M  V30 29594 N 2892.64 -1.41564 0.692641 0
M  V30 29595 C 2893.89 -2.00878 0.221931 0
M  V30 29596 C 2894.21 -1.55122 -1.18161 0
M  V30 29597 O 2893.48 -0.780572 -1.79677 0
M  V30 29598 H 2892.06 -0.742805 0.0790594 0
M  V30 29599 H 2894.72 -1.73231 0.893145 0
M  V30 29600 H 2893.82 -3.11198 0.237075 0
M  V30 29601 N 2894.12 -0.437188 -1.51415 0
M  V30 29602 C 2895.34 0.130388 -2.0699 0
M  V30 29603 C 2895.77 1.35707 -1.30251 0
M  V30 29604 O 2895.13 1.78075 -0.34042 0
M  V30 29605 C 2895.18 0.431357 -3.58011 0
M  V30 29606 O 2894.28 1.51783 -3.83452 0
M  V30 29607 H 2893.62 0.00193172 -0.663997 0
M  V30 29608 H 2896.15 -0.618479 -1.95028 0
M  V30 29609 H 2896.16 0.681855 -4.02262 0
M  V30 29610 H 2894.84 -0.46521 -4.1329 0
M  V30 29611 H 2893.41 1.25731 -3.51064 0
M  V30 29612 N 2895.6 1.56696 -0.168541 0
M  V30 29613 C 2896.85 1.9641 0.476181 0
M  V30 29614 C 2897.17 1.05547 1.63966 0
M  V30 29615 O 2896.44 0.12127 1.95524 0
M  V30 29616 H 2895.02 0.725259 0.178908 0
M  V30 29617 H 2897.68 1.93302 -0.249076 0
M  V30 29618 H 2896.77 3.00638 0.838041 0
M  V30 29619 N 2897.08 -0.105193 1.57249 0
M  V30 29620 C 2898.35 -0.841616 1.76568 0
M  V30 29621 C 2898.73 -1.97419 0.7476 0
M  V30 29622 O 2898.08 -2.27381 -0.225846 0
M  V30 29623 C 2898.29 -1.34555 3.22019 0
M  V30 29624 C 2899.64 -1.79238 3.84914 0
M  V30 29625 O 2900.66 -1.44202 3.25706 0
M  V30 29626 O 2899.52 -2.43986 4.89012 0
M  V30 29627 H 2896.62 -0.400685 0.72345 0
M  V30 29628 H 2899.16 -0.0878595 1.69472 0
M  V30 29629 H 2897.93 -0.533617 3.87644 0
M  V30 29630 H 2897.56 -2.16161 3.33707 0
M  V30 29631 N 2898.55 -1.53055 -0.375752 0
M  V30 29632 C 2899.52 -1.78113 -1.44251 0
M  V30 29633 C 2900.52 -0.651354 -1.47017 0
M  V30 29634 O 2901.71 -0.919498 -1.47956 0
M  V30 29635 C 2898.84 -1.89396 -2.83447 0
M  V30 29636 H 2900.03 -2.73376 -1.23311 0
M  V30 29637 H 2897.59 -1.43978 -0.608287 0
M  V30 29638 H 2898.32 -0.961643 -3.09714 0
M  V30 29639 H 2898.11 -2.7156 -2.82839 0
M  V30 29640 H 2899.6 -2.1041 -3.60718 0
M  V30 29641 N 2900.03 0.634971 -1.44242 0
M  V30 29642 C 2901 1.729 -1.5046 0
M  V30 29643 C 2902 1.56071 -0.387085 0
M  V30 29644 O 2903.19 1.61637 -0.649559 0
M  V30 29645 C 2900.32 3.11948 -1.37483 0
M  V30 29646 H 2901.51 1.68763 -2.4791 0
M  V30 29647 H 2899.06 0.848287 -1.31278 0
M  V30 29648 H 2899.8 3.21684 -0.411116 0
M  V30 29649 H 2899.58 3.25569 -2.18511 0
M  V30 29650 H 2901.07 3.9169 -1.44806 0
M  V30 29651 N 2901.51 1.31076 0.875027 0
M  V30 29652 C 2902.76 1.20472 1.62766 0
M  V30 29653 C 2903.09 -0.238307 1.93035 0
M  V30 29654 O 2902.34 -1.18564 1.55695 0
M  V30 29655 C 2902.64 1.98894 2.96945 0
M  V30 29656 C 2902.31 3.48435 2.86189 0
M  V30 29657 C 2900.97 3.89212 2.82963 0
M  V30 29658 C 2903.32 4.43618 2.73591 0
M  V30 29659 C 2900.65 5.23447 2.6499 0
M  V30 29660 C 2903 5.77974 2.57156 0
M  V30 29661 C 2901.66 6.17977 2.5231 0
M  V30 29662 H 2900.93 0.440837 0.595603 0
M  V30 29663 H 2903.58 1.62287 1.01662 0
M  V30 29664 H 2901.89 1.49743 3.62055 0
M  V30 29665 H 2903.58 1.88073 3.5416 0
M  V30 29666 H 2900.17 3.16037 2.89515 0
M  V30 29667 H 2904.36 4.1305 2.75143 0
M  V30 29668 H 2899.61 5.53522 2.5966 0
M  V30 29669 H 2903.79 6.51358 2.46384 0
M  V30 29670 H 2901.41 7.21936 2.38143 0
M  V30 29671 N 2902.99 -1.08867 1.13955 0
M  V30 29672 C 2904.4 -1.33217 0.878947 0
M  V30 29673 C 2904.6 -1.95639 -0.482444 0
M  V30 29674 O 2903.66 -2.20642 -1.22774 0
M  V30 29675 C 2904.97 -2.23828 2.00802 0
M  V30 29676 C 2906.52 -2.37321 2.04077 0
M  V30 29677 C 2907 -3.31272 3.16264 0
M  V30 29678 N 2908.49 -3.38847 3.15811 0
M  V30 29679 C 2909.22 -4.1156 3.99257 0
M  V30 29680 N 2908.72 -4.87021 4.9273 0
M  V30 29681 N 2910.51 -4.07343 3.87334 0
M  V30 29682 H 2902.66 -0.667275 2.01646 0
M  V30 29683 H 2904.93 -0.356532 0.878401 0
M  V30 29684 H 2904.63 -1.85198 2.98989 0
M  V30 29685 H 2904.51 -3.24257 1.92709 0
M  V30 29686 H 2906.89 -2.75212 1.06499 0
M  V30 29687 H 2906.97 -1.36651 2.16241 0
M  V30 29688 H 2906.62 -2.94103 4.14084 0
M  V30 29689 H 2906.55 -4.3186 3.01337 0
M  V30 29690 H 2909.04 -2.85046 2.48107 0
M  V30 29691 H 2909.35 -5.39951 5.52877 0
M  V30 29692 H 2907.7 -4.8609 4.96731 0
M  V30 29693 H 2910.89 -3.47494 3.13633 0
M  V30 29694 H 2911.06 -4.63749 4.52594 0
M  V30 29695 N 2904.47 -0.933936 -1.26946 0
M  V30 29696 C 2905.74 -0.495817 -1.89212 0
M  V30 29697 C 2906.12 1.02634 -1.84471 0
M  V30 29698 O 2905.47 1.88321 -1.29412 0
M  V30 29699 C 2905.68 -1.04896 -3.32863 0
M  V30 29700 C 2907.03 -1.11322 -4.09747 0
M  V30 29701 O 2908.05 -0.999026 -3.41903 0
M  V30 29702 O 2906.91 -1.28992 -5.31059 0
M  V30 29703 H 2904.01 -0.160473 -0.811281 0
M  V30 29704 H 2906.55 -1.02603 -1.35169 0
M  V30 29705 H 2905.32 -2.09271 -3.30638 0
M  V30 29706 H 2904.95 -0.500761 -3.94434 0
M  V30 29707 N 2905.94 1.41194 -0.700139 0
M  V30 29708 C 2907.17 2.05477 -0.242215 0
M  V30 29709 C 2907.59 1.52704 1.11026 0
M  V30 29710 O 2906.94 0.677157 1.69472 0
M  V30 29711 C 2907 3.60966 -0.196334 0
M  V30 29712 O 2906.72 4.11788 -1.49539 0
M  V30 29713 C 2908.22 4.42402 0.282024 0
M  V30 29714 H 2905.44 0.661627 -0.11176 0
M  V30 29715 H 2907.98 1.80884 -0.954007 0
M  V30 29716 H 2906.14 3.84583 0.466312 0
M  V30 29717 H 2906.55 5.05868 -1.38554 0
M  V30 29718 H 2908.02 5.51373 0.262996 0
M  V30 29719 H 2908.5 4.18842 1.32166 0
M  V30 29720 H 2909.11 4.23859 -0.349787 0
M  V30 29721 N 2907.42 0.445212 1.51181 0
M  V30 29722 C 2908.35 -0.398166 2.25715 0
M  V30 29723 C 2909.37 -0.979539 1.30034 0
M  V30 29724 O 2910.56 -0.87234 1.55732 0
M  V30 29725 C 2907.66 -1.5698 3.00351 0
M  V30 29726 C 2906.83 -1.10589 4.23189 0
M  V30 29727 C 2905.89 -2.14855 4.80337 0
M  V30 29728 O 2904.91 -1.73968 5.41963 0
M  V30 29729 N 2906.12 -3.47419 4.65059 0
M  V30 29730 H 2908.88 0.240682 2.98732 0
M  V30 29731 H 2906.44 0.274535 1.59555 0
M  V30 29732 H 2908.43 -2.2637 3.35468 0
M  V30 29733 H 2907 -2.11383 2.30295 0
M  V30 29734 H 2906.22 -0.238762 3.93476 0
M  V30 29735 H 2907.51 -0.773449 5.02887 0
M  V30 29736 H 2906.91 -3.83365 4.1599 0
M  V30 29737 H 2905.47 -4.12682 5.04516 0
M  V30 29738 N 2908.9 -1.56605 0.176849 0
M  V30 29739 C 2910.13 -2.01426 -0.472793 0
M  V30 29740 C 2910.54 -1.05706 -1.56434 0
M  V30 29741 O 2909.9 -0.05884 -1.82405 0
M  V30 29742 C 2909.95 -3.46036 -1.04601 0
M  V30 29743 O 2909.67 -4.381 0.00197309 0
M  V30 29744 C 2911.17 -4.06285 -1.77333 0
M  V30 29745 H 2908.39 -0.660093 -0.120492 0
M  V30 29746 H 2910.94 -2.02571 0.280202 0
M  V30 29747 H 2909.09 -3.45648 -1.74947 0
M  V30 29748 H 2909.51 -5.22799 -0.422026 0
M  V30 29749 H 2910.98 -5.09377 -2.12694 0
M  V30 29750 H 2911.46 -3.48694 -2.67037 0
M  V30 29751 H 2912.06 -4.10393 -1.11616 0
M  V30 29752 N 2910.38 0.0968524 -1.57302 0
M  V30 29753 C 2911.6 0.818135 -1.90582 0
M  V30 29754 C 2912.03 1.71575 -0.770951 0
M  V30 29755 O 2911.39 1.79163 0.277557 0
M  V30 29756 C 2911.43 1.60893 -3.22716 0
M  V30 29757 O 2910.54 2.71773 -3.10182 0
M  V30 29758 H 2909.88 0.224871 -0.624763 0
M  V30 29759 H 2912.41 0.072604 -2.04471 0
M  V30 29760 H 2912.42 1.99352 -3.55981 0
M  V30 29761 H 2911.09 0.950156 -4.04901 0
M  V30 29762 H 2909.67 2.36355 -2.88428 0
M  V30 29763 N 2911.86 1.53252 0.36763 0
M  V30 29764 C 2913.27 1.61045 0.944535 0
M  V30 29765 C 2913.62 0.476579 1.90324 0
M  V30 29766 O 2912.74 -0.397296 2.12722 0
M  V30 29767 C 2913.34 2.91901 1.71987 0
M  V30 29768 C 2911.9 3.02035 2.24614 0
M  V30 29769 C 2911.04 2.56326 1.05795 0
M  V30 29770 H 2914 1.58022 0.146489 0
M  V30 29771 H 2914.02 2.79588 2.5809 0
M  V30 29772 H 2913.53 3.74406 1.02185 0
M  V30 29773 H 2911.63 2.24114 2.97664 0
M  V30 29774 H 2911.74 4.07077 2.52636 0
M  V30 29775 H 2910.11 2.11152 1.42432 0
M  V30 29776 H 2910.89 3.41246 0.374948 0
M  V30 29777 N 2913.34 -0.627313 1.44577 0
M  V30 29778 C 2914.56 -1.41884 1.51273 0
M  V30 29779 C 2914.99 -1.87579 0.139847 0
M  V30 29780 O 2914.34 -1.58968 -0.871718 0
M  V30 29781 C 2914.39 -2.61273 2.48534 0
M  V30 29782 O 2913.5 -3.61238 1.9895 0
M  V30 29783 H 2912.84 -0.42439 0.510676 0
M  V30 29784 H 2915.37 -0.765322 1.89747 0
M  V30 29785 H 2915.38 -3.08768 2.66695 0
M  V30 29786 H 2914.05 -2.2736 3.48253 0
M  V30 29787 H 2912.63 -3.20525 1.90574 0
M  V30 29788 N 2914.81 -1.31539 -0.868063 0
M  V30 29789 C 2916.04 -1.24301 -1.65399 0
M  V30 29790 C 2916.46 0.191356 -1.87828 0
M  V30 29791 O 2915.81 1.12402 -1.43778 0
M  V30 29792 C 2915.86 -1.98556 -3.02089 0
M  V30 29793 O 2915.59 -3.36393 -2.80662 0
M  V30 29794 C 2917.09 -1.9818 -3.96534 0
M  V30 29795 H 2914.31 -0.429426 -0.515591 0
M  V30 29796 H 2916.85 -1.73445 -1.08337 0
M  V30 29797 H 2915.01 -1.53167 -3.55835 0
M  V30 29798 H 2915.42 -3.74227 -3.67497 0
M  V30 29799 H 2916.89 -2.54644 -4.89756 0
M  V30 29800 H 2917.37 -0.964773 -4.28473 0
M  V30 29801 H 2917.98 -2.43456 -3.48725 0
M  V30 29802 N 2916.29 1.08262 -1.1453 0
M  V30 29803 C 2917.54 1.80945 -0.915791 0
M  V30 29804 C 2917.87 1.86065 0.556197 0
M  V30 29805 O 2917.15 1.33759 1.41205 0
M  V30 29806 C 2917.43 3.26484 -1.51922 0
M  V30 29807 C 2917.28 3.29565 -3.06116 0
M  V30 29808 C 2918.6 4.235 -1.19732 0
M  V30 29809 H 2915.72 0.656909 -0.334124 0
M  V30 29810 H 2918.36 1.26743 -1.41549 0
M  V30 29811 H 2916.51 3.72771 -1.09427 0
M  V30 29812 H 2918.18 2.9159 -3.57453 0
M  V30 29813 H 2916.43 2.68794 -3.40488 0
M  V30 29814 H 2917.1 4.32145 -3.43445 0
M  V30 29815 H 2919.57 3.85558 -1.56474 0
M  V30 29816 H 2918.45 5.23644 -1.64584 0
M  V30 29817 H 2918.71 4.41956 -0.112849 0
M  V30 29818 N 2917.77 0.940655 1.26449 0
M  V30 29819 C 2919.18 0.630683 1.75725 0
M  V30 29820 C 2919.53 -0.854136 1.76632 0
M  V30 29821 O 2918.66 -1.66845 1.3781 0
M  V30 29822 C 2919.25 1.13811 3.19112 0
M  V30 29823 C 2917.81 0.878561 3.66003 0
M  V30 29824 C 2916.96 1.28932 2.45503 0
M  V30 29825 H 2919.91 1.11902 1.12533 0
M  V30 29826 H 2919.93 0.491691 3.7731 0
M  V30 29827 H 2919.44 2.21879 3.1842 0
M  V30 29828 H 2917.54 -0.187768 3.72127 0
M  V30 29829 H 2917.66 1.5052 4.54841 0
M  V30 29830 H 2916.02 0.707756 2.44669 0
M  V30 29831 H 2916.8 2.37893 2.47512 0
M  V30 29832 N 2919.25 -1.40821 0.707617 0
M  V30 29833 C 2920.48 -2.05346 0.253109 0
M  V30 29834 C 2920.89 -1.53291 -1.10215 0
M  V30 29835 O 2920.25 -0.686135 -1.69111 0
M  V30 29836 C 2920.3 -3.60857 0.215474 0
M  V30 29837 O 2920.02 -4.10989 1.51721 0
M  V30 29838 C 2921.52 -4.42545 -0.258559 0
M  V30 29839 H 2918.74 -0.661025 0.115268 0
M  V30 29840 H 2921.28 -1.80375 0.963586 0
M  V30 29841 H 2919.44 -3.84825 -0.44591 0
M  V30 29842 H 2919.85 -5.05127 1.41235 0
M  V30 29843 H 2921.33 -5.51505 -0.233752 0
M  V30 29844 H 2921.8 -4.19537 -1.29943 0
M  V30 29845 H 2922.41 -4.23668 0.37226 0
M  V30 29846 N 2920.73 -0.453223 -1.50943 0
M  V30 29847 C 2921.95 0.108426 -2.07116 0
M  V30 29848 C 2922.38 1.34318 -1.31683 0
M  V30 29849 O 2921.73 1.77704 -0.359288 0
M  V30 29850 C 2921.78 0.393361 -3.58448 0
M  V30 29851 O 2920.89 1.47708 -3.85041 0
M  V30 29852 H 2920.23 -0.00511097 -0.66398 0
M  V30 29853 H 2922.76 -0.639129 -1.94361 0
M  V30 29854 H 2922.77 0.639151 -4.02963 0
M  V30 29855 H 2921.44 -0.509019 -4.12773 0
M  V30 29856 H 2920.02 1.22 -3.52378 0
M  V30 29857 N 2922.2 1.56509 -0.185151 0
M  V30 29858 C 2923.45 1.97586 0.456899 0
M  V30 29859 C 2923.78 1.07164 1.61955 0
M  V30 29860 O 2923.06 0.12158 1.9412 0
M  V30 29861 C 2923.34 3.47974 0.926604 0
M  V30 29862 C 2923.19 4.49174 -0.237176 0
M  V30 29863 C 2924.51 4.01806 1.79554 0
M  V30 29864 H 2921.63 0.718383 0.164606 0
M  V30 29865 H 2924.27 1.88013 -0.274072 0
M  V30 29866 H 2922.42 3.56263 1.54947 0
M  V30 29867 H 2924.1 4.52933 -0.87462 0
M  V30 29868 H 2922.34 4.24561 -0.890521 0
M  V30 29869 H 2923.01 5.51838 0.133827 0
M  V30 29870 H 2925.49 3.96235 1.27033 0
M  V30 29871 H 2924.36 5.07422 2.09318 0
M  V30 29872 H 2924.62 3.4646 2.74623 0
M  V30 29873 N 2923.68 -0.0885089 1.57351 0
M  V30 29874 C 2924.63 -1.11342 1.98965 0
M  V30 29875 C 2925.62 -1.35409 0.869089 0
M  V30 29876 O 2926.81 -1.3599 1.13295 0
M  V30 29877 C 2923.94 -2.43184 2.42314 0
M  V30 29878 C 2923.02 -2.22463 3.61069 0
M  V30 29879 N 2923.41 -1.71626 4.75792 0
M  V30 29880 C 2921.71 -2.53004 3.67294 0
M  V30 29881 C 2922.41 -1.65329 5.57711 0
M  V30 29882 N 2921.39 -2.10781 5.01071 0
M  V30 29883 H 2925.19 -0.713415 2.8511 0
M  V30 29884 H 2922.7 -0.295839 1.59683 0
M  V30 29885 H 2924.7 -3.17352 2.70358 0
M  V30 29886 H 2923.36 -2.83916 1.57549 0
M  V30 29887 H 2924.37 -1.40729 4.98413 0
M  V30 29888 H 2921.05 -2.97215 2.93205 0
M  V30 29889 H 2922.44 -1.2702 6.59785 0
M  V30 29890 N 2925.16 -1.53445 -0.359498 0
M  V30 29891 C 2926.41 -1.69141 -1.09883 0
M  V30 29892 C 2926.72 -0.452896 -1.90285 0
M  V30 29893 O 2927.93 -0.490506 -2.67032 0
M  V30 29894 C 2926.38 -2.99029 -2.00274 0
M  V30 29895 C 2925.99 -4.30163 -1.25156 0
M  V30 29896 C 2927.74 -3.24091 -2.74163 0
M  V30 29897 C 2925.64 -5.51136 -2.14484 0
M  V30 29898 H 2924.57 -0.630224 -0.413925 0
M  V30 29899 H 2927.22 -1.79946 -0.359402 0
M  V30 29900 H 2925.61 -2.82041 -2.77973 0
M  V30 29901 H 2926.78 -4.57802 -0.524787 0
M  V30 29902 H 2925.09 -4.11591 -0.631044 0
M  V30 29903 H 2927.69 -4.11658 -3.41236 0
M  V30 29904 H 2928.03 -2.40413 -3.39864 0
M  V30 29905 H 2928.57 -3.41781 -2.03544 0
M  V30 29906 H 2925.31 -6.3731 -1.53351 0
M  V30 29907 H 2924.83 -5.27767 -2.84995 0
M  V30 29908 H 2926.51 -5.86162 -2.73904 0
M  V30 29909 N 2926.64 0.619637 -1.44908 0
M  V30 29910 C 2927.86 1.4108 -1.52024 0
M  V30 29911 C 2928.29 1.87503 -0.149793 0
M  V30 29912 O 2927.65 1.59428 0.863275 0
M  V30 29913 C 2927.69 2.59951 -2.49916 0
M  V30 29914 O 2926.8 3.60177 -2.00863 0
M  V30 29915 H 2926.14 0.421675 -0.512919 0
M  V30 29916 H 2928.67 0.755249 -1.9015 0
M  V30 29917 H 2928.68 3.0735 -2.68329 0
M  V30 29918 H 2927.35 2.25509 -3.49454 0
M  V30 29919 H 2925.93 3.1951 -1.92271 0
M  V30 29920 N 2928.12 1.31997 0.861075 0
M  V30 29921 C 2929.07 1.16983 1.95701 0
M  V30 29922 C 2930.05 0.0784483 1.60709 0
M  V30 29923 O 2931.24 0.304293 1.74365 0
M  V30 29924 C 2928.37 0.888446 3.31604 0
M  V30 29925 C 2927.46 2.02123 3.72836 0
M  V30 29926 N 2927.85 3.26918 3.85951 0
M  V30 29927 C 2926.15 1.92296 4.02415 0
M  V30 29928 C 2926.85 4.01072 4.21326 0
M  V30 29929 N 2925.82 3.29315 4.32496 0
M  V30 29930 H 2929.63 2.11602 2.03965 0
M  V30 29931 H 2927.14 1.23684 1.05243 0
M  V30 29932 H 2929.14 0.761854 4.0988 0
M  V30 29933 H 2927.8 -0.0494328 3.24662 0
M  V30 29934 H 2928.81 3.6193 3.70442 0
M  V30 29935 H 2925.48 1.0603 4.03812 0
M  V30 29936 H 2926.87 5.08657 4.38996 0
M  V30 29937 N 2929.59 -1.07653 1.15103 0
M  V30 29938 C 2930.84 -1.7957 0.91856 0
M  V30 29939 C 2931.16 -1.87535 -0.555889 0
M  V30 29940 O 2932.36 -2.55943 -0.905848 0
M  V30 29941 C 2930.82 -3.22676 1.594 0
M  V30 29942 C 2930.43 -3.22921 3.10525 0
M  V30 29943 C 2932.17 -3.99223 1.44296 0
M  V30 29944 C 2930.08 -4.60662 3.7087 0
M  V30 29945 H 2929.01 -0.672981 0.340018 0
M  V30 29946 H 2931.66 -1.20854 1.38082 0
M  V30 29947 H 2930.04 -3.81565 1.05943 0
M  V30 29948 H 2931.21 -2.73694 3.70713 0
M  V30 29949 H 2929.53 -2.59871 3.25356 0
M  V30 29950 H 2932.13 -5.01018 1.86775 0
M  V30 29951 H 2932.47 -4.14469 0.390048 0
M  V30 29952 H 2933 -3.46821 1.94832 0
M  V30 29953 H 2929.74 -4.5062 4.76048 0
M  V30 29954 H 2929.26 -5.10139 3.15465 0
M  V30 29955 H 2930.94 -5.29633 3.71616 0
M  V30 29956 N 2931.07 -0.947348 -1.25949 0
M  V30 29957 C 2932.3 -0.614668 -1.98082 0
M  V30 29958 C 2932.72 0.804785 -1.70014 0
M  V30 29959 O 2932.08 1.54308 -0.951777 0
M  V30 29960 C 2932.13 -0.870767 -3.49929 0
M  V30 29961 O 2931.23 0.0540726 -4.12365 0
M  V30 29962 H 2930.57 -0.234462 -0.621228 0
M  V30 29963 H 2933.1 -1.27196 -1.60257 0
M  V30 29964 H 2933.11 -0.794121 -4.00197 0
M  V30 29965 H 2931.79 -1.90535 -3.69688 0
M  V30 29966 H 2930.37 -0.0741572 -3.72826 0
M  V30 29967 N 2932.55 1.40444 -0.715075 0
M  V30 29968 C 2933.83 1.94756 -0.181537 0
M  V30 29969 C 2934.21 1.65326 1.31265 0
M  V30 29970 O 2933.56 0.970667 2.06858 0
M  V30 29971 C 2933.77 3.4549 -0.493724 0
M  V30 29972 C 2935.11 4.22396 -0.432106 0
M  V30 29973 O 2936.14 3.53598 -0.429754 0
M  V30 29974 O 2935 5.44966 -0.409187 0
M  V30 29975 H 2932.09 0.826578 -0.0264134 0
M  V30 29976 H 2934.64 1.50055 -0.792573 0
M  V30 29977 H 2933.41 3.60267 -1.5272 0
M  V30 29978 H 2933.03 3.97327 0.1473 0
M  V30 29979 N 2934.03 0.461222 1.507 0
M  V30 29980 C 2935.25 -0.0974409 2.07171 0
M  V30 29981 C 2935.68 -1.33617 1.32393 0
M  V30 29982 O 2935.04 -1.77511 0.368707 0
M  V30 29983 C 2935.08 -0.374346 3.58652 0
M  V30 29984 O 2934.19 -1.45664 3.85818 0
M  V30 29985 H 2933.53 0.00863214 0.663944 0
M  V30 29986 H 2936.06 0.649428 1.9402 0
M  V30 29987 H 2936.07 -0.617772 4.03296 0
M  V30 29988 H 2934.74 0.530902 4.12498 0
M  V30 29989 H 2933.32 -1.2013 3.5302 0
M  V30 29990 N 2935.51 -1.56408 0.193449 0
M  V30 29991 C 2936.42 -2.22621 -0.740073 0
M  V30 29992 C 2937.43 -1.22476 -1.23594 0
M  V30 29993 O 2938.61 -1.55208 -1.28345 0
M  V30 29994 C 2935.67 -2.8713 -1.94312 0
M  V30 29995 C 2934.73 -4.0254 -1.49198 0
M  V30 29996 C 2933.97 -4.63964 -2.63768 0
M  V30 29997 O 2934.19 -4.24308 -3.81208 0
M  V30 29998 O 2933.12 -5.53458 -2.36575 0
M  V30 29999 H 2936.95 -3.02999 -0.206184 0
M  V30 30000 H 2934.54 -1.49357 -0.0357676 0
M  V30 30001 H 2936.42 -3.27949 -2.64627 0
M  V30 30002 H 2935.09 -2.09732 -2.46564 0
M  V30 30003 H 2934 -3.66347 -0.757673 0
M  V30 30004 H 2935.33 -4.81597 -1.01614 0
M  V30 30005 N 2936.98 0.0801629 -1.57396 0
M  V30 30006 C 2938.23 0.779351 -1.86469 0
M  V30 30007 C 2938.55 1.78533 -0.784274 0
M  V30 30008 O 2937.82 1.94996 0.187952 0
M  V30 30009 H 2936.4 0.290818 -0.688065 0
M  V30 30010 H 2939.07 0.0582406 -1.94813 0
M  V30 30011 H 2938.16 1.30073 -2.83703 0
M  V30 30012 N 2938.46 1.53634 0.351355 0
M  V30 30013 C 2939.87 1.62038 0.9274 0
M  V30 30014 C 2940.22 0.496739 1.89808 0
M  V30 30015 O 2939.35 -0.374712 2.13131 0
M  V30 30016 C 2939.94 2.93709 1.68881 0
M  V30 30017 C 2938.5 3.04401 2.21398 0
M  V30 30018 C 2937.65 2.57433 1.0307 0
M  V30 30019 H 2940.6 1.58169 0.12972 0
M  V30 30020 H 2940.62 2.8231 2.55111 0
M  V30 30021 H 2940.13 3.75469 0.982083 0
M  V30 30022 H 2938.24 2.27258 2.9527 0
M  V30 30023 H 2938.35 4.09734 2.48305 0
M  V30 30024 H 2936.71 2.12651 1.40184 0
M  V30 30025 H 2937.5 3.41625 0.338733 0
M  V30 30026 N 2939.94 -0.611943 1.45234 0
M  V30 30027 C 2941.17 -1.40272 1.5277 0
M  V30 30028 C 2941.59 -1.87421 0.159734 0
M  V30 30029 O 2940.95 -1.59883 -0.854808 0
M  V30 30030 C 2941 -2.58622 2.51291 0
M  V30 30031 O 2940.1 -3.59107 2.0277 0
M  V30 30032 H 2939.44 -0.418949 0.515148 0
M  V30 30033 H 2941.97 -0.745154 1.90548 0
M  V30 30034 H 2941.98 -3.05922 2.69955 0
M  V30 30035 H 2940.66 -2.23653 3.50645 0
M  V30 30036 H 2939.23 -3.18485 1.93963 0
M  V30 30037 N 2941.42 -1.32452 -0.854063 0
M  V30 30038 C 2942.64 -1.26188 -1.64594 0
M  V30 30039 C 2943.07 0.167041 -1.87357 0
M  V30 30040 O 2942.43 1.11862 -1.42677 0
M  V30 30041 C 2942.47 -2.0274 -2.9821 0
M  V30 30042 O 2941.58 -1.37561 -3.88781 0
M  V30 30043 H 2940.92 -0.434868 -0.501783 0
M  V30 30044 H 2943.45 -1.74777 -1.06369 0
M  V30 30045 H 2943.46 -2.12936 -3.48026 0
M  V30 30046 H 2942.13 -3.06647 -2.80964 0
M  V30 30047 H 2940.71 -1.35916 -3.47248 0
M  V30 30048 N 2942.9 1.07041 -1.15672 0
M  V30 30049 C 2944.13 1.83411 -0.957503 0
M  V30 30050 C 2944.54 1.82216 0.494239 0
M  V30 30051 O 2943.9 1.23586 1.34286 0
M  V30 30052 C 2943.95 3.30356 -1.4679 0
M  V30 30053 O 2943.67 3.31628 -2.86277 0
M  V30 30054 C 2945.17 4.23483 -1.31061 0
M  V30 30055 H 2942.39 0.578558 -0.33987 0
M  V30 30056 H 2944.93 1.35099 -1.5352 0
M  V30 30057 H 2943.09 3.76006 -0.932652 0
M  V30 30058 H 2943.5 4.23459 -3.09487 0
M  V30 30059 H 2944.98 5.24645 -1.71614 0
M  V30 30060 H 2945.45 4.38458 -0.255185 0
M  V30 30061 H 2946.06 3.83672 -1.83509 0
M  V30 30062 N 2944.38 0.954014 1.25445 0
M  V30 30063 C 2945.31 0.417952 2.2434 0
M  V30 30064 C 2946.29 -0.500373 1.5471 0
M  V30 30065 O 2947.47 -0.434891 1.83415 0
M  V30 30066 C 2944.6 -0.398096 3.36352 0
M  V30 30067 C 2943.64 0.460536 4.24006 0
M  V30 30068 S 2944.48 1.8924 5.00948 0
M  V30 30069 C 2945.63 1.08476 6.16428 0
M  V30 30070 H 2945.87 1.25606 2.69463 0
M  V30 30071 H 2943.4 0.758042 1.34511 0
M  V30 30072 H 2945.36 -0.862988 4.01326 0
M  V30 30073 H 2944.02 -1.21103 2.89815 0
M  V30 30074 H 2943.21 -0.165327 5.03729 0
M  V30 30075 H 2942.81 0.860613 3.63964 0
M  V30 30076 H 2945.1 0.333136 6.7668 0
M  V30 30077 H 2946.05 1.85589 6.83347 0
M  V30 30078 H 2946.46 0.61516 5.61138 0
M  V30 30079 N 2945.85 -1.40063 0.722513 0
M  V30 30080 C 2947.1 -2.01056 0.265406 0
M  V30 30081 C 2947.43 -1.57176 -1.14059 0
M  V30 30082 O 2946.71 -0.794947 -1.77513 0
M  V30 30083 C 2946.99 -3.58363 0.35322 0
M  V30 30084 C 2946.84 -4.12297 1.79809 0
M  V30 30085 C 2948.16 -4.39261 -0.2716 0
M  V30 30086 H 2945.28 -0.730467 0.0979131 0
M  V30 30087 H 2947.92 -1.66444 0.916319 0
M  V30 30088 H 2946.07 -3.8798 -0.200969 0
M  V30 30089 H 2947.75 -3.93451 2.4082 0
M  V30 30090 H 2945.99 -3.66325 2.32354 0
M  V30 30091 H 2946.66 -5.21451 1.81088 0
M  V30 30092 H 2949.14 -4.15616 0.20068 0
M  V30 30093 H 2948.01 -5.48606 -0.179746 0
M  V30 30094 H 2948.27 -4.2079 -1.35604 0
M  V30 30095 N 2947.33 -0.469207 -1.50453 0
M  V30 30096 C 2948.56 0.0864528 -2.0722 0
M  V30 30097 C 2948.98 1.32913 -1.331 0
M  V30 30098 O 2948.34 1.77313 -0.378115 0
M  V30 30099 C 2948.39 0.355321 -3.58845 0
M  V30 30100 O 2947.49 1.43615 -3.86586 0
M  V30 30101 H 2946.83 -0.0121531 -0.663889 0
M  V30 30102 H 2949.36 -0.659708 -1.93672 0
M  V30 30103 H 2949.37 0.596376 -4.03618 0
M  V30 30104 H 2948.05 -0.55277 -4.1221 0
M  V30 30105 H 2946.62 1.18256 -3.53652 0
M  V30 30106 N 2948.81 1.56303 -0.201741 0
M  V30 30107 C 2950.04 2.02152 0.440688 0
M  V30 30108 C 2950.45 1.08182 1.54733 0
M  V30 30109 O 2949.81 0.0878517 1.82288 0
M  V30 30110 C 2949.86 3.47656 0.990823 0
M  V30 30111 O 2949.58 4.38041 -0.0716707 0
M  V30 30112 C 2951.08 4.09055 1.70847 0
M  V30 30113 H 2948.3 0.661926 0.109975 0
M  V30 30114 H 2950.85 2.021 -0.312394 0
M  V30 30115 H 2949 3.48387 1.69426 0
M  V30 30116 H 2949.42 5.23405 0.3388 0
M  V30 30117 H 2950.89 5.12697 2.04563 0
M  V30 30118 H 2951.37 3.52899 2.61456 0
M  V30 30119 H 2951.97 4.12116 1.05072 0
M  V30 30120 N 2950.29 -0.0718147 1.57436 0
M  V30 30121 C 2951.51 -0.787712 1.91859 0
M  V30 30122 C 2951.94 -1.70327 0.798149 0
M  V30 30123 O 2951.3 -1.79582 -0.249018 0
M  V30 30124 C 2951.34 -1.55738 3.25235 0
M  V30 30125 O 2950.45 -2.66804 3.14467 0
M  V30 30126 H 2949.79 -0.214903 0.628262 0
M  V30 30127 H 2952.32 -0.0400653 2.04561 0
M  V30 30128 H 2952.33 -1.93663 3.59108 0
M  V30 30129 H 2951 -0.88562 4.06361 0
M  V30 30130 H 2949.58 -2.31736 2.92152 0
M  V30 30131 N 2951.77 -1.53818 -0.343203 0
M  V30 30132 C 2952.73 -1.81133 -1.40441 0
M  V30 30133 C 2953.73 -0.682392 -1.45602 0
M  V30 30134 O 2954.92 -0.950675 -1.45972 0
M  V30 30135 C 2952.05 -1.95366 -2.79365 0
M  V30 30136 H 2953.24 -2.7593 -1.17484 0
M  V30 30137 H 2950.8 -1.45236 -0.57761 0
M  V30 30138 H 2951.53 -1.02712 -3.07605 0
M  V30 30139 H 2951.32 -2.77498 -2.77015 0
M  V30 30140 H 2952.81 -2.18014 -3.56174 0
M  V30 30141 N 2953.24 0.604233 -1.45557 0
M  V30 30142 C 2954.49 1.36314 -1.49749 0
M  V30 30143 C 2954.82 1.93992 -0.14055 0
M  V30 30144 O 2954.07 1.75732 0.861213 0
M  V30 30145 C 2954.37 2.52738 -2.52702 0
M  V30 30146 C 2954.04 2.13188 -3.97318 0
M  V30 30147 C 2952.7 2.02115 -4.36695 0
M  V30 30148 C 2955.05 1.82371 -4.88252 0
M  V30 30149 C 2952.38 1.58453 -5.64898 0
M  V30 30150 C 2954.73 1.40194 -6.1687 0
M  V30 30151 C 2953.4 1.27683 -6.55174 0
M  V30 30152 H 2952.67 0.49881 -0.547969 0
M  V30 30153 H 2955.31 0.682611 -1.78921 0
M  V30 30154 H 2953.62 3.26144 -2.17111 0
M  V30 30155 H 2955.32 3.10966 -2.53182 0
M  V30 30156 H 2951.91 2.22733 -3.6618 0
M  V30 30157 H 2956.09 1.89821 -4.58565 0
M  V30 30158 H 2951.35 1.47392 -5.93368 0
M  V30 30159 H 2955.52 1.15396 -6.86773 0
M  V30 30160 H 2953.15 0.936242 -7.54413 0
M  V30 30161 N 2954.72 1.32903 0.847027 0
M  V30 30162 C 2956.13 1.21468 1.41783 0
M  V30 30163 C 2956.48 -0.169732 1.95464 0
M  V30 30164 O 2955.61 -1.06889 1.88159 0
M  V30 30165 C 2956.2 2.1991 2.5773 0
M  V30 30166 C 2954.76 2.12339 3.10788 0
M  V30 30167 C 2953.91 2.0785 1.83558 0
M  V30 30168 H 2956.86 1.4462 0.653506 0
M  V30 30169 H 2956.88 1.80207 3.3512 0
M  V30 30170 H 2956.39 3.2066 2.1863 0
M  V30 30171 H 2954.49 1.14864 3.54453 0
M  V30 30172 H 2954.61 3.02513 3.71514 0
M  V30 30173 H 2952.97 1.53203 2.03472 0
M  V30 30174 H 2953.75 3.10394 1.46664 0
M  V30 30175 N 2956.2 -1.06426 1.16238 0
M  V30 30176 C 2957.45 -1.79616 0.954449 0
M  V30 30177 C 2957.8 -1.85452 -0.512379 0
M  V30 30178 O 2957.09 -1.33412 -1.3752 0
M  V30 30179 C 2957.29 -3.23747 1.51402 0
M  V30 30180 C 2957.12 -3.31956 3.03373 0
M  V30 30181 C 2955.89 -3.41969 3.72002 0
M  V30 30182 C 2958.08 -3.2193 4.01081 0
M  V30 30183 N 2956.07 -3.39179 5.11694 0
M  V30 30184 C 2957.44 -3.26367 5.27148 0
M  V30 30185 C 2959.49 -3.05805 3.92922 0
M  V30 30186 C 2958.2 -3.16337 6.46006 0
M  V30 30187 C 2960.22 -2.97112 5.1135 0
M  V30 30188 C 2959.58 -3.0217 6.36296 0
M  V30 30189 H 2955.68 -0.670149 0.403019 0
M  V30 30190 H 2958.27 -1.26965 1.47608 0
M  V30 30191 H 2956.44 -3.74797 1.0189 0
M  V30 30192 H 2958.17 -3.85107 1.24397 0
M  V30 30193 H 2954.92 -3.46709 3.22629 0
M  V30 30194 H 2955.35 -3.41287 5.84682 0
M  V30 30195 H 2959.99 -3.00741 2.97178 0
M  V30 30196 H 2957.71 -3.20157 7.41974 0
M  V30 30197 H 2961.29 -2.85725 5.06806 0
M  V30 30198 H 2960.17 -2.955 7.26395 0
M  V30 30199 N 2957.68 -0.960653 -1.24937 0
M  V30 30200 C 2958.59 -0.492475 -2.29373 0
M  V30 30201 C 2959.6 0.443124 -1.68263 0
M  V30 30202 O 2960.78 0.317895 -1.98875 0
M  V30 30203 C 2957.85 0.216566 -3.46023 0
M  V30 30204 C 2956.91 -0.757989 -4.22555 0
M  V30 30205 C 2956.14 -0.0826907 -5.33636 0
M  V30 30206 O 2956.36 1.13045 -5.59086 0
M  V30 30207 O 2955.3 -0.771282 -5.96938 0
M  V30 30208 H 2959.12 -1.36049 -2.71522 0
M  V30 30209 H 2956.71 -0.727373 -1.30498 0
M  V30 30210 H 2958.59 0.615168 -4.16886 0
M  V30 30211 H 2957.26 1.05966 -3.05864 0
M  V30 30212 H 2956.17 -1.20692 -3.54097 0
M  V30 30213 H 2957.5 -1.56928 -4.66513 0
M  V30 30214 N 2959.16 1.39677 -0.729931 0
M  V30 30215 C 2960.07 2.34435 -0.0880735 0
M  V30 30216 C 2961.08 1.58055 0.727647 0
M  V30 30217 O 2962.26 1.90373 0.657287 0
M  V30 30218 C 2959.32 3.37053 0.812152 0
M  V30 30219 C 2958.38 4.29297 -0.0152435 0
M  V30 30220 C 2957.62 5.27014 0.842109 0
M  V30 30221 O 2957.84 5.31085 2.08098 0
M  V30 30222 O 2956.77 6.01278 0.273465 0
M  V30 30223 H 2960.6 2.90971 -0.87004 0
M  V30 30224 H 2958.19 1.41117 -0.490547 0
M  V30 30225 H 2960.07 3.99948 1.32738 0
M  V30 30226 H 2958.74 2.8291 1.57302 0
M  V30 30227 H 2957.65 3.69641 -0.575876 0
M  V30 30228 H 2958.98 4.86633 -0.738215 0
M  V30 30229 N 2960.63 0.47718 1.50202 0
M  V30 30230 C 2961.88 -0.0757029 2.02358 0
M  V30 30231 C 2962.21 -1.39172 1.35873 0
M  V30 30232 O 2961.46 -1.89837 0.475449 0
M  V30 30233 C 2961.76 -0.301262 3.56128 0
M  V30 30234 C 2961.43 0.933802 4.41125 0
M  V30 30235 C 2960.09 1.27241 4.64072 0
M  V30 30236 C 2962.44 1.75585 4.90734 0
M  V30 30237 C 2959.77 2.43301 5.33874 0
M  V30 30238 C 2962.12 2.90778 5.6181 0
M  V30 30239 C 2960.79 3.25047 5.8301 0
M  V30 30240 H 2960.06 -0.0277017 0.740482 0
M  V30 30241 H 2962.7 0.632499 1.80753 0
M  V30 30242 H 2961.01 -1.09177 3.76281 0
M  V30 30243 H 2962.71 -0.743115 3.94054 0
M  V30 30244 H 2959.3 0.660009 4.23488 0
M  V30 30245 H 2963.48 1.50742 4.72854 0
M  V30 30246 H 2958.74 2.70118 5.48494 0
M  V30 30247 H 2962.91 3.54818 5.99231 0
M  V30 30248 H 2960.54 4.15085 6.36874 0
M  V30 30249 N 2962.11 -1.56194 0.210027 0
M  V30 30250 C 2963.34 -2.02383 -0.429961 0
M  V30 30251 C 2963.76 -1.09001 -1.54157 0
M  V30 30252 O 2963.11 -0.0975176 -1.82239 0
M  V30 30253 C 2963.16 -3.48177 -0.972372 0
M  V30 30254 O 2962.88 -4.37997 0.0949001 0
M  V30 30255 C 2964.39 -4.09955 -1.68676 0
M  V30 30256 H 2961.61 -0.6625 -0.106463 0
M  V30 30257 H 2964.15 -2.01931 0.323107 0
M  V30 30258 H 2962.3 -3.49281 -1.67576 0
M  V30 30259 H 2962.72 -5.23577 -0.311038 0
M  V30 30260 H 2964.19 -5.13774 -2.01842 0
M  V30 30261 H 2964.67 -3.5428 -2.59581 0
M  V30 30262 H 2965.28 -4.12668 -1.02885 0
M  V30 30263 N 2963.59 0.0634645 -1.57472 0
M  V30 30264 C 2964.82 0.777526 -1.92274 0
M  V30 30265 C 2965.24 1.69901 -0.807171 0
M  V30 30266 O 2964.6 1.79711 0.239491 0
M  V30 30267 C 2964.65 1.54011 -3.26057 0
M  V30 30268 O 2963.75 2.65133 -3.15877 0
M  V30 30269 H 2963.09 0.211568 -0.629393 0
M  V30 30270 H 2965.62 0.0292164 -2.04579 0
M  V30 30271 H 2965.63 1.91756 -3.6013 0
M  V30 30272 H 2964.31 0.864057 -4.06825 0
M  V30 30273 H 2962.88 2.30184 -2.93377 0
M  V30 30274 N 2965.07 1.53998 0.33504 0
M  V30 30275 C 2966.29 1.75916 1.09856 0
M  V30 30276 C 2966.72 0.500947 1.81307 0
M  V30 30277 O 2966.08 -0.5469 1.72855 0
M  V30 30278 C 2966.12 2.94482 2.08117 0
M  V30 30279 O 2965.23 2.65225 3.158 0
M  V30 30280 H 2964.57 0.583279 0.317303 0
M  V30 30281 H 2967.1 2.00986 0.382836 0
M  V30 30282 H 2967.11 3.21509 2.51189 0
M  V30 30283 H 2965.78 3.85732 1.5551 0
M  V30 30284 H 2964.36 2.49112 2.77484 0
M  V30 30285 N 2966.55 -0.596505 1.45875 0
M  V30 30286 C 2967.51 -1.6885 1.54991 0
M  V30 30287 C 2968.51 -1.5499 0.428329 0
M  V30 30288 O 2969.7 -1.59858 0.692186 0
M  V30 30289 C 2966.83 -3.08193 1.45705 0
M  V30 30290 H 2968.02 -1.6213 2.52297 0
M  V30 30291 H 2965.58 -0.813183 1.3348 0
M  V30 30292 H 2966.31 -3.2048 0.496261 0
M  V30 30293 H 2966.1 -3.19661 2.27067 0
M  V30 30294 H 2967.59 -3.87713 1.5514 0
M  V30 30295 N 2968.02 -1.3335 -0.839967 0
M  V30 30296 C 2968.93 -1.25546 -1.9818 0
M  V30 30297 C 2969.95 -0.166238 -1.73204 0
M  V30 30298 O 2971.13 -0.389624 -1.97595 0
M  V30 30299 C 2968.19 -0.993672 -3.32155 0
M  V30 30300 C 2967.25 -2.17279 -3.70254 0
M  V30 30301 C 2966.49 -1.9234 -4.97836 0
M  V30 30302 O 2966.71 -0.873173 -5.63677 0
M  V30 30303 O 2965.64 -2.78844 -5.33413 0
M  V30 30304 H 2969.47 -2.21569 -2.07704 0
M  V30 30305 H 2967.05 -1.13386 -0.972832 0
M  V30 30306 H 2968.94 -0.864783 -4.12431 0
M  V30 30307 H 2967.61 -0.0637165 -3.23637 0
M  V30 30308 H 2966.52 -2.35721 -2.90493 0
M  V30 30309 H 2967.85 -3.08605 -3.83437 0
M  V30 30310 N 2969.5 1.05808 -1.16801 0
M  V30 30311 C 2970.75 1.78344 -0.950674 0
M  V30 30312 C 2971.07 1.8787 0.522491 0
M  V30 30313 O 2970.34 1.39094 1.37948 0
M  V30 30314 H 2968.92 0.660594 -0.348748 0
M  V30 30315 H 2971.58 1.27788 -1.47161 0
M  V30 30316 H 2970.68 2.80246 -1.37364 0
M  V30 30317 N 2970.98 0.967265 1.24426 0
M  V30 30318 C 2972.21 0.646103 1.97079 0
M  V30 30319 C 2972.63 -0.777635 1.71273 0
M  V30 30320 O 2971.99 -1.52774 0.976206 0
M  V30 30321 C 2972.04 0.926328 3.48499 0
M  V30 30322 O 2971.14 0.0115378 4.12398 0
M  V30 30323 H 2970.48 0.244315 0.617419 0
M  V30 30324 H 2973.01 1.2973 1.58213 0
M  V30 30325 H 2973.02 0.857689 3.98883 0
M  V30 30326 H 2971.7 1.96393 3.6661 0
M  V30 30327 H 2970.27 0.133461 3.72661 0
M  V30 30328 N 2972.46 -1.39288 0.737328 0
M  V30 30329 C 2973.71 -2.0007 0.285727 0
M  V30 30330 C 2974.03 -1.58803 -1.13166 0
M  V30 30331 O 2973.3 -0.837339 -1.77103 0
M  V30 30332 H 2971.88 -0.739913 0.102651 0
M  V30 30333 H 2974.54 -1.70302 0.947805 0
M  V30 30334 H 2973.64 -3.10287 0.33596 0
M  V30 30335 N 2973.94 -0.485139 -1.49947 0
M  V30 30336 C 2974.85 0.306656 -2.32587 0
M  V30 30337 C 2975.86 0.982607 -1.436 0
M  V30 30338 O 2977.04 0.967488 -1.7664 0
M  V30 30339 C 2974.1 1.36635 -3.18641 0
M  V30 30340 C 2973.17 0.705515 -4.23463 0
M  V30 30341 C 2972.4 1.71472 -5.05404 0
M  V30 30342 O 2972.62 2.94285 -4.88623 0
M  V30 30343 O 2971.56 1.27878 -5.88159 0
M  V30 30344 H 2975.38 -0.369325 -3.01446 0
M  V30 30345 H 2972.97 -0.246735 -1.47349 0
M  V30 30346 H 2974.85 1.97983 -3.71995 0
M  V30 30347 H 2973.52 2.02555 -2.52494 0
M  V30 30348 H 2972.43 0.0527075 -3.74063 0
M  V30 30349 H 2973.76 0.0890322 -4.92119 0
M  V30 30350 N 2975.42 1.56081 -0.218307 0
M  V30 30351 C 2976.35 2.17418 0.725409 0
M  V30 30352 C 2977.36 1.14235 1.15993 0
M  V30 30353 O 2978.55 1.41229 1.09164 0
M  V30 30354 C 2975.65 2.74033 1.99396 0
M  V30 30355 C 2974.82 4.02354 1.71553 0
M  V30 30356 C 2973.88 4.43566 2.83083 0
M  V30 30357 O 2972.91 5.10529 2.51692 0
M  V30 30358 N 2974.11 4.08981 4.11965 0
M  V30 30359 H 2976.87 2.99027 0.200748 0
M  V30 30360 H 2974.44 1.61857 -0.0371798 0
M  V30 30361 H 2976.43 2.98576 2.73193 0
M  V30 30362 H 2975 1.96746 2.42919 0
M  V30 30363 H 2974.22 3.85701 0.814165 0
M  V30 30364 H 2975.51 4.8607 1.50377 0
M  V30 30365 H 2974.9 3.55164 4.40313 0
M  V30 30366 H 2973.46 4.38423 4.82316 0
M  V30 30367 N 2976.89 -0.0551124 1.57504 0
M  V30 30368 C 2977.82 -1.06368 2.07865 0
M  V30 30369 C 2978.8 -1.39342 0.97559 0
M  V30 30370 O 2979.99 -1.4868 1.24932 0
M  V30 30371 C 2977.12 -2.37235 2.53647 0
M  V30 30372 C 2976.07 -2.18572 3.67982 0
M  V30 30373 C 2975.4 -3.54969 3.99876 0
M  V30 30374 C 2976.7 -1.59321 4.97407 0
M  V30 30375 H 2978.39 -0.644544 2.9238 0
M  V30 30376 H 2975.94 -0.308595 1.40655 0
M  V30 30377 H 2977.89 -3.08098 2.87495 0
M  V30 30378 H 2976.62 -2.8116 1.66182 0
M  V30 30379 H 2975.28 -1.50146 3.34442 0
M  V30 30380 H 2974.92 -3.96495 3.09517 0
M  V30 30381 H 2974.62 -3.43315 4.76873 0
M  V30 30382 H 2976.15 -4.27237 4.36235 0
M  V30 30383 H 2977.56 -2.20069 5.29379 0
M  V30 30384 H 2975.96 -1.58316 5.7884 0
M  V30 30385 H 2977.03 -0.556296 4.81698 0
M  V30 30386 N 2978.37 -1.54173 -0.326869 0
M  V30 30387 C 2979.62 -1.72475 -1.06678 0
M  V30 30388 C 2979.95 -0.495263 -1.87779 0
M  V30 30389 O 2979.23 0.50777 -1.87755 0
M  V30 30390 C 2979.51 -2.99837 -1.99423 0
M  V30 30391 C 2979.36 -4.3303 -1.21674 0
M  V30 30392 C 2980.68 -3.22939 -2.98996 0
M  V30 30393 H 2977.8 -0.62757 -0.386427 0
M  V30 30394 H 2980.44 -1.86865 -0.343746 0
M  V30 30395 H 2978.59 -2.877 -2.61076 0
M  V30 30396 H 2980.26 -4.57045 -0.625073 0
M  V30 30397 H 2978.51 -4.30685 -0.51897 0
M  V30 30398 H 2979.18 -5.18359 -1.89757 0
M  V30 30399 H 2981.65 -3.34516 -2.47464 0
M  V30 30400 H 2980.53 -4.13418 -3.61077 0
M  V30 30401 H 2980.79 -2.40012 -3.71277 0
M  V30 30402 N 2979.85 0.58876 -1.4619 0
M  V30 30403 C 2981.08 1.37337 -1.54746 0
M  V30 30404 C 2981.49 1.87877 -0.186479 0
M  V30 30405 O 2980.85 1.6328 0.815219 0
M  V30 30406 C 2980.9 2.56504 -2.54732 0
M  V30 30407 O 2980.62 2.08059 -3.85543 0
M  V30 30408 C 2982.12 3.49132 -2.7317 0
M  V30 30409 H 2979.34 0.419759 -0.523492 0
M  V30 30410 H 2981.89 0.716312 -1.91544 0
M  V30 30411 H 2980.04 3.18211 -2.20954 0
M  V30 30412 H 2980.46 2.85622 -4.3991 0
M  V30 30413 H 2981.93 4.29244 -3.47065 0
M  V30 30414 H 2982.41 4.00682 -1.79863 0
M  V30 30415 H 2983.01 2.93265 -3.08019 0
M  V30 30416 N 2981.33 1.33794 0.832883 0
M  V30 30417 C 2982.57 1.25775 1.59086 0
M  V30 30418 C 2982.91 -0.174567 1.93414 0
M  V30 30419 O 2982.18 -1.11743 1.59197 0
M  V30 30420 C 2982.46 2.1389 2.89695 0
M  V30 30421 C 2982.32 3.65609 2.62011 0
M  V30 30422 C 2983.64 2.01661 3.91179 0
M  V30 30423 H 2980.76 0.458237 0.577224 0
M  V30 30424 H 2983.4 1.63952 0.960199 0
M  V30 30425 H 2981.55 1.81462 3.43517 0
M  V30 30426 H 2983.22 4.08357 2.14575 0
M  V30 30427 H 2981.46 3.87192 1.95614 0
M  V30 30428 H 2982.13 4.22616 3.55105 0
M  V30 30429 H 2984.61 2.30113 3.4668 0
M  V30 30430 H 2983.49 2.65556 4.80386 0
M  V30 30431 H 2983.75 0.990612 4.30859 0
M  V30 30432 N 2982.81 -1.05187 1.1736 0
M  V30 30433 C 2984.03 -1.82402 0.987122 0
M  V30 30434 C 2984.46 -1.82393 -0.459816 0
M  V30 30435 O 2983.81 -1.23294 -1.32922 0
M  V30 30436 C 2983.86 -3.264 1.53282 0
M  V30 30437 O 2982.97 -4.05585 0.746612 0
M  V30 30438 H 2982.31 -0.563968 0.35048 0
M  V30 30439 H 2984.84 -1.32549 1.55859 0
M  V30 30440 H 2984.85 -3.77201 1.55511 0
M  V30 30441 H 2983.52 -3.25721 2.58608 0
M  V30 30442 H 2982.1 -3.64311 0.795735 0
M  V30 30443 N 2984.28 -0.97385 -1.23911 0
M  V30 30444 C 2985.51 -0.656546 -1.96734 0
M  V30 30445 C 2985.93 0.768541 -1.71683 0
M  V30 30446 O 2985.29 1.52254 -0.984294 0
M  V30 30447 C 2985.34 -0.944796 -3.48003 0
M  V30 30448 O 2984.44 -0.0334082 -4.12386 0
M  V30 30449 H 2983.78 -0.247586 -0.616114 0
M  V30 30450 H 2986.31 -1.30567 -1.57523 0
M  V30 30451 H 2986.32 -0.87883 -3.98423 0
M  V30 30452 H 2985 -1.98334 -3.65563 0
M  V30 30453 H 2983.58 -0.153222 -3.72585 0
M  V30 30454 N 2985.76 1.38895 -0.744705 0
M  V30 30455 C 2986.99 2.05128 -0.306155 0
M  V30 30456 C 2987.41 1.55791 1.05407 0
M  V30 30457 O 2986.77 0.705938 1.66992 0
M  V30 30458 C 2986.82 3.59103 -0.328258 0
M  V30 30459 O 2985.92 4.06742 0.680804 0
M  V30 30460 H 2985.26 0.649666 -0.13722 0
M  V30 30461 H 2987.79 1.77743 -1.01334 0
M  V30 30462 H 2987.8 4.0762 -0.176027 0
M  V30 30463 H 2986.48 3.94372 -1.32074 0
M  V30 30464 H 2985.05 3.69615 0.493915 0
M  V30 30465 N 2987.24 0.493084 1.49688 0
M  V30 30466 C 2988.49 -0.0543162 2.02727 0
M  V30 30467 C 2988.82 -1.37373 1.37267 0
M  V30 30468 O 2988.09 -1.87811 0.505677 0
M  V30 30469 C 2988.38 -0.215162 3.59457 0
M  V30 30470 C 2988.23 1.12682 4.35457 0
M  V30 30471 C 2989.55 -0.959511 4.29513 0
M  V30 30472 H 2986.67 -0.0182657 0.736774 0
M  V30 30473 H 2989.31 0.642956 1.78791 0
M  V30 30474 H 2987.46 -0.809055 3.79982 0
M  V30 30475 H 2989.13 1.75899 4.26447 0
M  V30 30476 H 2987.38 1.71808 3.98327 0
M  V30 30477 H 2988.05 0.967673 5.43452 0
M  V30 30478 H 2990.52 -0.455904 4.13595 0
M  V30 30479 H 2989.4 -1.04088 5.3894 0
M  V30 30480 H 2989.66 -2.00137 3.94205 0
M  V30 30481 N 2988.72 -1.55963 0.226582 0
M  V30 30482 C 2989.96 -1.98728 -0.404352 0
M  V30 30483 C 2990.3 -1.11421 -1.59057 0
M  V30 30484 O 2989.57 -0.173005 -1.93729 0
M  V30 30485 C 2989.86 -3.50309 -0.834019 0
M  V30 30486 C 2989.71 -4.48388 0.356183 0
M  V30 30487 C 2991.03 -4.06426 -1.68838 0
M  V30 30488 H 2988.15 -0.722494 -0.145502 0
M  V30 30489 H 2990.79 -1.8722 0.323824 0
M  V30 30490 H 2988.94 -3.60246 -1.45447 0
M  V30 30491 H 2990.61 -4.50455 0.994399 0
M  V30 30492 H 2988.85 -4.22051 1.00277 0
M  V30 30493 H 2989.52 -5.51999 0.0125303 0
M  V30 30494 H 2992 -3.99463 -1.16482 0
M  V30 30495 H 2990.88 -5.12793 -1.95791 0
M  V30 30496 H 2991.14 -3.53619 -2.65341 0
M  V30 30497 N 2990.2 0.0467589 -1.57531 0
M  V30 30498 C 2991.61 0.595572 -1.76946 0
M  V30 30499 C 2991.96 1.76572 -0.855385 0
M  V30 30500 O 2991.08 2.16352 -0.045706 0
M  V30 30501 C 2991.68 1.08719 -3.20883 0
M  V30 30502 C 2990.24 1.58166 -3.41556 0
M  V30 30503 C 2989.38 0.51192 -2.72534 0
M  V30 30504 H 2992.34 -0.179464 -1.57682 0
M  V30 30505 H 2992.36 1.95522 -3.26422 0
M  V30 30506 H 2991.87 0.23533 -3.87386 0
M  V30 30507 H 2989.97 2.45595 -2.80203 0
M  V30 30508 H 2990.08 1.64135 -4.50107 0
M  V30 30509 H 2988.45 0.962857 -2.35799 0
M  V30 30510 H 2989.23 -0.330177 -3.41709 0
M  V30 30511 N 2991.67 1.54344 0.318688 0
M  V30 30512 C 2992.92 1.73038 1.05762 0
M  V30 30513 C 2993.25 0.505214 1.87513 0
M  V30 30514 O 2992.53 -0.497805 1.88022 0
M  V30 30515 C 2992.81 3.00891 1.9783 0
M  V30 30516 C 2992.66 4.3367 1.19376 0
M  V30 30517 C 2993.98 3.2452 2.97279 0
M  V30 30518 H 2991.1 0.62961 0.383093 0
M  V30 30519 H 2993.74 1.87044 0.333831 0
M  V30 30520 H 2991.89 2.89081 2.59547 0
M  V30 30521 H 2993.57 4.5737 0.600826 0
M  V30 30522 H 2991.81 4.30954 0.496122 0
M  V30 30523 H 2992.48 5.19358 1.87005 0
M  V30 30524 H 2994.96 3.35823 2.45687 0
M  V30 30525 H 2993.83 4.15327 3.5888 0
M  V30 30526 H 2994.09 2.41978 3.69999 0
M  V30 30527 N 2993.15 -0.580999 1.465 0
M  V30 30528 C 2994.08 -1.70014 1.60055 0
M  V30 30529 C 2995.06 -1.64017 0.450816 0
M  V30 30530 O 2996.25 -1.82007 0.677269 0
M  V30 30531 C 2993.38 -3.08655 1.59215 0
M  V30 30532 C 2992.33 -3.29483 2.73175 0
M  V30 30533 C 2991.66 -4.68669 2.57397 0
M  V30 30534 C 2992.96 -3.17153 4.14984 0
M  V30 30535 H 2994.65 -1.58926 2.53738 0
M  V30 30536 H 2992.2 -0.763152 1.22115 0
M  V30 30537 H 2994.15 -3.86771 1.67292 0
M  V30 30538 H 2992.88 -3.20646 0.620775 0
M  V30 30539 H 2991.53 -2.53768 2.6457 0
M  V30 30540 H 2991.18 -4.77428 1.58339 0
M  V30 30541 H 2990.88 -4.83558 3.33835 0
M  V30 30542 H 2992.41 -5.48951 2.67367 0
M  V30 30543 H 2993.82 -3.85111 4.24691 0
M  V30 30544 H 2992.22 -3.43562 4.92022 0
M  V30 30545 H 2993.29 -2.1421 4.3502 0
M  V30 30546 N 2994.63 -1.34234 -0.825776 0
M  V30 30547 C 2996.04 -1.23708 -1.39833 0
M  V30 30548 C 2996.39 0.138614 -1.9571 0
M  V30 30549 O 2995.52 1.03882 -1.89835 0
M  V30 30550 C 2996.11 -2.23983 -2.54199 0
M  V30 30551 C 2994.67 -2.17257 -3.0737 0
M  V30 30552 C 2993.82 -2.10744 -1.80228 0
M  V30 30553 H 2996.77 -1.45642 -0.630416 0
M  V30 30554 H 2996.79 -1.85516 -3.32211 0
M  V30 30555 H 2996.3 -3.24097 -2.13501 0
M  V30 30556 H 2994.4 -1.20489 -3.52581 0
M  V30 30557 H 2994.52 -3.08385 -3.66654 0
M  V30 30558 H 2992.88 -1.56421 -2.01009 0
M  V30 30559 H 2993.66 -3.12688 -1.41708 0
M  V30 30560 N 2996.11 1.04563 -1.17917 0
M  V30 30561 C 2997.33 1.81876 -0.996781 0
M  V30 30562 C 2997.76 1.82635 0.450136 0
M  V30 30563 O 2997.12 1.23998 1.32266 0
M  V30 30564 C 2997.16 3.25583 -1.55011 0
M  V30 30565 O 2996.27 4.05184 -0.768111 0
M  V30 30566 H 2995.61 0.562101 -0.353466 0
M  V30 30567 H 2998.14 1.31721 -1.56559 0
M  V30 30568 H 2998.15 3.76371 -1.57509 0
M  V30 30569 H 2996.82 3.24345 -2.60332 0
M  V30 30570 H 2995.4 3.63884 -0.815044 0
M  V30 30571 N 2997.59 0.980408 1.23393 0
M  V30 30572 C 2998.55 0.525658 2.23091 0
M  V30 30573 C 2999.55 -0.384718 1.5613 0
M  V30 30574 O 3000.74 -0.178408 1.73284 0
M  V30 30575 C 2997.87 -0.23706 3.40075 0
M  V30 30576 H 2999.06 1.40718 2.64837 0
M  V30 30577 H 2996.62 0.766298 1.36226 0
M  V30 30578 H 2997.35 -1.13512 3.03785 0
M  V30 30579 H 2997.14 0.416424 3.89882 0
M  V30 30580 H 2998.63 -0.543819 4.14044 0
M  V30 30581 N 2999.06 -1.38498 0.75206 0
M  V30 30582 C 3000.31 -2.00448 0.307994 0
M  V30 30583 C 3000.64 -1.5956 -1.10699 0
M  V30 30584 O 2999.92 -0.832422 -1.75787 0
M  V30 30585 C 3000.2 -3.57534 0.429155 0
M  V30 30586 C 3000.05 -4.0839 1.88514 0
M  V30 30587 C 3001.37 -4.39738 -0.178365 0
M  V30 30588 H 2998.49 -0.728226 0.113385 0
M  V30 30589 H 3001.13 -1.64463 0.951418 0
M  V30 30590 H 2999.28 -3.88319 -0.118627 0
M  V30 30591 H 3000.96 -3.88254 2.49111 0
M  V30 30592 H 2999.2 -3.61314 2.40072 0
M  V30 30593 H 2999.87 -5.17492 1.92108 0
M  V30 30594 H 3002.35 -4.15097 0.288793 0
M  V30 30595 H 3001.22 -5.48863 -0.0633384 0
M  V30 30596 H 3001.48 -4.23571 -1.26648 0
M  V30 30597 N 3000.54 -0.501015 -1.49424 0
M  V30 30598 C 3001.47 0.314119 -2.27037 0
M  V30 30599 C 3002.49 0.930603 -1.3358 0
M  V30 30600 O 3003.68 0.81394 -1.58862 0
M  V30 30601 C 3000.78 1.45724 -3.0597 0
M  V30 30602 C 2999.95 0.94806 -4.27002 0
M  V30 30603 C 2999.01 1.96879 -4.87981 0
M  V30 30604 O 2998.03 1.53733 -5.48046 0
M  V30 30605 N 2999.24 3.2992 -4.77633 0
M  V30 30606 H 3002 -0.351388 -2.97633 0
M  V30 30607 H 2999.56 -0.333564 -1.58427 0
M  V30 30608 H 3001.55 2.13764 -3.43638 0
M  V30 30609 H 3000.12 2.0269 -2.37982 0
M  V30 30610 H 2999.34 0.0925618 -3.94091 0
M  V30 30611 H 3000.63 0.586273 -5.05411 0
M  V30 30612 H 3000.03 3.67661 -4.29932 0
M  V30 30613 H 2998.59 3.93673 -5.19485 0
M  V30 30614 N 3002.02 1.5584 -0.234849 0
M  V30 30615 C 3002.97 2.20868 0.669762 0
M  V30 30616 C 3003.94 1.16858 1.1804 0
M  V30 30617 O 3005.12 1.45263 1.23707 0
M  V30 30618 C 3002.26 2.90274 1.86641 0
M  V30 30619 C 3001.38 4.0891 1.39343 0
M  V30 30620 C 3000.51 4.66063 2.5487 0
M  V30 30621 C 2999.55 5.76973 2.04374 0
M  V30 30622 N 2998.69 6.2836 3.13222 0
M  V30 30623 H 3003.53 2.97802 0.108528 0
M  V30 30624 H 3001.06 1.47041 0.0418101 0
M  V30 30625 H 3003.02 3.28706 2.5692 0
M  V30 30626 H 3001.65 2.15835 2.40032 0
M  V30 30627 H 3000.7 3.75873 0.585107 0
M  V30 30628 H 3002.02 4.89013 0.98327 0
M  V30 30629 H 3001.17 5.07007 3.3321 0
M  V30 30630 H 2999.91 3.85152 2.99181 0
M  V30 30631 H 2998.91 5.35518 1.245 0
M  V30 30632 H 3000.14 6.59728 1.61046 0
M  V30 30633 H 2998.09 5.50358 3.56991 0
M  V30 30634 H 2998 7.03622 2.76499 0
M  V30 30635 H 2999.27 6.73962 3.91658 0
M  V30 30636 N 3003.5 -0.038404 1.57553 0
M  V30 30637 C 3004.75 -0.731082 1.88842 0
M  V30 30638 C 3005.07 -1.75856 0.830961 0
M  V30 30639 O 3004.33 -1.94967 -0.169214 0
M  V30 30640 C 3004.63 -1.44548 3.26865 0
M  V30 30641 C 3004.29 -0.554867 4.47473 0
M  V30 30642 C 3002.96 -0.309537 4.80203 0
M  V30 30643 C 3005.31 0.060612 5.21165 0
M  V30 30644 C 3002.64 0.560204 5.84019 0
M  V30 30645 C 3004.99 0.918 6.25904 0
M  V30 30646 C 3003.65 1.17288 6.57115 0
M  V30 30647 H 3002.92 -0.267522 0.691023 0
M  V30 30648 H 3005.57 0.00886561 1.91498 0
M  V30 30649 H 3003.87 -2.25851 3.20154 0
M  V30 30650 H 3005.57 -1.98682 3.4832 0
M  V30 30651 H 3002.16 -0.75623 4.21876 0
M  V30 30652 H 3006.35 -0.115977 4.96164 0
M  V30 30653 H 3001.6 0.76608 6.06582 0
M  V30 30654 H 3005.78 1.40148 6.82152 0
M  V30 30655 H 3003.4 1.84856 7.37382 0
M  V30 30656 N 3004.98 -1.54511 -0.310498 0
M  V30 30657 C 3006.2 -1.77642 -1.07043 0
M  V30 30658 C 3006.63 -0.529728 -1.80487 0
M  V30 30659 O 3005.99 0.519331 -1.73703 0
M  V30 30660 C 3006.03 -2.97756 -2.03406 0
M  V30 30661 O 3005.14 -2.70215 -3.1154 0
M  V30 30662 H 3004.48 -0.588254 -0.307983 0
M  V30 30663 H 3007.01 -2.0157 -0.350813 0
M  V30 30664 H 3007.02 -3.25464 -2.46043 0
M  V30 30665 H 3005.69 -3.88157 -1.49354 0
M  V30 30666 H 3004.27 -2.53495 -2.73486 0
M  V30 30667 N 3006.46 0.573222 -1.46806 0
M  V30 30668 C 3007.7 1.32844 -1.52305 0
M  V30 30669 C 3008.02 1.94166 -0.180193 0
M  V30 30670 O 3007.29 1.79076 0.794259 0
M  V30 30671 H 3005.87 0.493266 -0.560979 0
M  V30 30672 H 3008.54 0.67061 -1.83 0
M  V30 30673 H 3007.63 2.13027 -2.28092 0
M  V30 30674 N 3007.93 1.3467 0.818645 0
M  V30 30675 C 3009.16 1.30354 1.60672 0
M  V30 30676 C 3009.58 -0.121513 1.88409 0
M  V30 30677 O 3008.93 -1.06988 1.47851 0
M  V30 30678 C 3008.98 2.09631 2.94512 0
M  V30 30679 O 3008.71 3.46578 2.67984 0
M  V30 30680 C 3010.21 2.12761 3.88906 0
M  V30 30681 H 3007.43 0.448266 0.499298 0
M  V30 30682 H 3009.97 1.77347 1.01825 0
M  V30 30683 H 3008.13 1.66268 3.49905 0
M  V30 30684 H 3008.54 3.87609 3.53355 0
M  V30 30685 H 3010.01 2.72645 4.79967 0
M  V30 30686 H 3010.49 1.12313 4.24597 0
M  V30 30687 H 3011.1 2.56231 3.39449 0
M  V30 30688 N 3009.41 -1.03936 1.1847 0
M  V30 30689 C 3010.37 -2.10145 0.914981 0
M  V30 30690 C 3011.37 -1.60488 -0.100192 0
M  V30 30691 O 3012.56 -1.73689 0.133396 0
M  V30 30692 C 3009.7 -3.38853 0.373052 0
M  V30 30693 H 3010.89 -2.35505 1.85681 0
M  V30 30694 H 3008.44 -1.20381 0.996897 0
M  V30 30695 H 3009.18 -3.19156 -0.575324 0
M  V30 30696 H 3008.96 -3.76211 1.10487 0
M  V30 30697 H 3010.45 -4.17106 0.203087 0
M  V30 30698 N 3010.89 -0.986938 -1.22871 0
M  V30 30699 C 3012.11 -0.677375 -1.96026 0
M  V30 30700 C 3012.54 0.750289 -1.72488 0
M  V30 30701 O 3011.9 1.51202 -1.00039 0
M  V30 30702 C 3011.95 -0.981654 -3.46981 0
M  V30 30703 O 3011.05 -0.0771454 -4.12328 0
M  V30 30704 H 3010.39 -0.254107 -0.613454 0
M  V30 30705 H 3012.92 -1.3223 -1.56129 0
M  V30 30706 H 3012.93 -0.921039 -3.97468 0
M  V30 30707 H 3011.61 -2.022 -3.63439 0
M  V30 30708 H 3010.18 -0.192731 -3.72402 0
M  V30 30709 N 3012.37 1.38098 -0.759394 0
M  V30 30710 C 3013.59 2.04792 -0.327895 0
M  V30 30711 C 3014.02 1.56901 1.03749 0
M  V30 30712 O 3013.38 0.72361 1.66233 0
M  V30 30713 C 3013.42 3.58734 -0.366327 0
M  V30 30714 O 3012.53 4.07441 0.637626 0
M  V30 30715 H 3011.87 0.648175 -0.144103 0
M  V30 30716 H 3014.4 1.76658 -1.03214 0
M  V30 30717 H 3014.41 4.0741 -0.219251 0
M  V30 30718 H 3013.08 3.92949 -1.36249 0
M  V30 30719 H 3011.66 3.70118 0.454684 0
M  V30 30720 N 3013.85 0.508932 1.49156 0
M  V30 30721 C 3015.09 -0.03465 2.0167 0
M  V30 30722 C 3015.41 -1.37308 1.39305 0
M  V30 30723 O 3016.61 -2.00381 1.83193 0
M  V30 30724 C 3015.07 -0.112198 3.59725 0
M  V30 30725 C 3014.68 1.22007 4.31067 0
M  V30 30726 C 3016.42 -0.605724 4.20156 0
M  V30 30727 C 3014.33 1.10425 5.80999 0
M  V30 30728 H 3013.26 -0.0167222 0.753815 0
M  V30 30729 H 3015.91 0.649548 1.71619 0
M  V30 30730 H 3014.29 -0.861019 3.86526 0
M  V30 30731 H 3015.47 1.9828 4.15959 0
M  V30 30732 H 3013.78 1.64766 3.82415 0
M  V30 30733 H 3016.38 -0.710009 5.29965 0
M  V30 30734 H 3016.72 -1.60649 3.84054 0
M  V30 30735 H 3017.25 0.0867938 3.97705 0
M  V30 30736 H 3013.99 2.07952 6.2164 0
M  V30 30737 H 3013.51 0.382534 5.98579 0
M  V30 30738 H 3015.19 0.786229 6.42205 0
M  V30 30739 N 3015.32 -1.55714 0.243111 0
M  V30 30740 C 3016.57 -1.98027 -0.383153 0
M  V30 30741 C 3016.89 -1.13439 -1.59345 0
M  V30 30742 O 3018.09 -1.45749 -2.29062 0
M  V30 30743 C 3016.55 -3.52355 -0.733073 0
M  V30 30744 C 3016.16 -4.45677 0.455618 0
M  V30 30745 C 3017.9 -4.03333 -1.32374 0
M  V30 30746 C 3015.81 -5.91343 0.0820631 0
M  V30 30747 H 3014.74 -0.739545 -0.146931 0
M  V30 30748 H 3017.39 -1.80271 0.342729 0
M  V30 30749 H 3015.77 -3.65792 -1.51698 0
M  V30 30750 H 3016.94 -4.43998 1.23299 0
M  V30 30751 H 3015.26 -4.0516 0.960957 0
M  V30 30752 H 3017.86 -5.0968 -1.61649 0
M  V30 30753 H 3018.2 -3.50456 -2.24692 0
M  V30 30754 H 3018.73 -3.93206 -0.602816 0
M  V30 30755 H 3015.47 -6.48249 0.972285 0
M  V30 30756 H 3014.99 -5.96167 -0.659186 0
M  V30 30757 H 3016.67 -6.46121 -0.337086 0
M  V30 30758 N 3016.8 0.030048 -1.57571 0
M  V30 30759 C 3018.08 0.756415 -1.80382 0
M  V30 30760 C 3018.46 1.93627 -0.84094 0
M  V30 30761 O 3017.81 2.282 0.117103 0
M  V30 30762 C 3018.02 1.19037 -3.28072 0
M  V30 30763 C 3019.37 1.60669 -3.93028 0
M  V30 30764 O 3020.39 1.28498 -3.32215 0
M  V30 30765 O 3019.25 2.20377 -5.00096 0
M  V30 30766 H 3016.34 0.365712 -0.741744 0
M  V30 30767 H 3018.89 0.00690194 -1.69699 0
M  V30 30768 H 3017.66 0.348059 -3.89749 0
M  V30 30769 H 3017.28 1.99993 -3.4364 0
M  V30 30770 N 3018.28 1.54674 0.3023 0
M  V30 30771 C 3019.19 1.8859 1.39539 0
M  V30 30772 C 3020.21 0.779922 1.55542 0
M  V30 30773 O 3021.38 1.07626 1.70231 0
M  V30 30774 C 3018.45 2.12509 2.73936 0
M  V30 30775 C 3017.51 3.36225 2.66929 0
M  V30 30776 C 3016.74 3.58994 3.94917 0
M  V30 30777 O 3016.96 2.84798 4.94213 0
M  V30 30778 O 3015.9 4.52508 3.96889 0
M  V30 30779 H 3019.72 2.81581 1.13779 0
M  V30 30780 H 3017.31 1.40847 0.498245 0
M  V30 30781 H 3019.19 2.2945 3.53456 0
M  V30 30782 H 3017.87 1.22703 2.99542 0
M  V30 30783 H 3016.77 3.24649 1.85886 0
M  V30 30784 H 3018.11 4.26156 2.46276 0
M  V30 30785 N 3019.76 -0.565428 1.47108 0
M  V30 30786 C 3021.01 -1.32035 1.53007 0
M  V30 30787 C 3021.33 -1.94067 0.190487 0
M  V30 30788 O 3020.6 -1.79495 -0.784751 0
M  V30 30789 H 3019.18 -0.490284 0.563587 0
M  V30 30790 H 3021.84 -0.660896 1.83353 0
M  V30 30791 H 3020.94 -2.11814 2.29219 0
M  V30 30792 N 3021.24 -1.35102 -0.811492 0
M  V30 30793 C 3022.17 -1.30278 -1.93778 0
M  V30 30794 C 3023.15 -0.178105 -1.69165 0
M  V30 30795 O 3024.33 -0.372289 -1.90598 0
M  V30 30796 C 3021.46 -1.06905 -3.30437 0
M  V30 30797 C 3020.42 -2.15961 -3.6952 0
M  V30 30798 C 3019.74 -1.7776 -5.04287 0
M  V30 30799 C 3021.04 -3.57888 -3.80413 0
M  V30 30800 H 3022.74 -2.24518 -1.98071 0
M  V30 30801 H 3020.28 -1.0808 -0.951567 0
M  V30 30802 H 3022.24 -1.02172 -4.08826 0
M  V30 30803 H 3020.96 -0.0911035 -3.26473 0
M  V30 30804 H 3019.62 -2.19783 -2.93413 0
M  V30 30805 H 3019.27 -0.785964 -4.96822 0
M  V30 30806 H 3018.97 -2.50759 -5.31407 0
M  V30 30807 H 3020.49 -1.74543 -5.85121 0
M  V30 30808 H 3021.9 -3.56415 -4.49045 0
M  V30 30809 H 3020.3 -4.29606 -4.18998 0
M  V30 30810 H 3021.37 -3.94396 -2.82098 0
M  V30 30811 N 3022.71 1.03306 -1.19019 0
M  V30 30812 C 3023.96 1.76287 -0.988289 0
M  V30 30813 C 3024.28 1.88936 0.482524 0
M  V30 30814 O 3023.55 1.41989 1.34966 0
M  V30 30815 H 3022.13 0.653048 -0.362681 0
M  V30 30816 H 3024.8 1.24638 -1.49838 0
M  V30 30817 H 3023.89 2.77269 -1.43278 0
M  V30 30818 N 3024.19 0.99344 1.22346 0
M  V30 30819 C 3025.1 0.553116 2.27986 0
M  V30 30820 C 3026.12 -0.398357 1.69379 0
M  V30 30821 O 3027.29 -0.265055 1.99648 0
M  V30 30822 C 3024.36 -0.124748 3.46475 0
M  V30 30823 C 3023.42 0.869756 4.20397 0
M  V30 30824 C 3022.65 0.224146 5.33229 0
M  V30 30825 O 3022.88 -0.981816 5.61887 0
M  V30 30826 O 3021.81 0.929278 5.94683 0
M  V30 30827 H 3025.64 1.432 2.6782 0
M  V30 30828 H 3023.22 0.761716 1.28523 0
M  V30 30829 H 3025.1 -0.504422 4.1837 0
M  V30 30830 H 3023.78 -0.978189 3.08566 0
M  V30 30831 H 3022.69 1.30037 3.50772 0
M  V30 30832 H 3024.02 1.69242 4.62188 0
M  V30 30833 N 3025.67 -1.37693 0.766707 0
M  V30 30834 C 3026.92 -2.0011 0.329236 0
M  V30 30835 C 3027.25 -1.60725 -1.09001 0
M  V30 30836 O 3026.52 -0.851019 -1.74894 0
M  V30 30837 C 3026.81 -3.57058 0.467052 0
M  V30 30838 C 3026.66 -4.06368 1.92835 0
M  V30 30839 C 3027.98 -4.39903 -0.131715 0
M  V30 30840 H 3025.1 -0.726982 0.121103 0
M  V30 30841 H 3027.74 -1.63445 0.968808 0
M  V30 30842 H 3025.89 -3.88423 -0.0774341 0
M  V30 30843 H 3027.56 -3.8559 2.53215 0
M  V30 30844 H 3025.81 -3.58747 2.43891 0
M  V30 30845 H 3026.48 -5.15426 1.97586 0
M  V30 30846 H 3028.95 -4.14767 0.332803 0
M  V30 30847 H 3027.83 -5.489 -0.00512051 0
M  V30 30848 H 3028.09 -4.24891 -1.22148 0
M  V30 30849 N 3027.15 -0.516835 -1.48884 0
M  V30 30850 C 3028.4 0.0219811 -2.02088 0
M  V30 30851 C 3028.72 1.36009 -1.39738 0
M  V30 30852 O 3027.99 1.8778 -0.558152 0
M  V30 30853 H 3026.57 0.0111124 -0.746917 0
M  V30 30854 H 3029.23 -0.677679 -1.82739 0
M  V30 30855 H 3028.33 0.140013 -3.11786 0
M  V30 30856 N 3028.63 1.55583 -0.251365 0
M  V30 30857 C 3029.85 2.03452 0.376151 0
M  V30 30858 C 3030.27 1.1305 1.51213 0
M  V30 30859 O 3029.63 0.145801 1.81917 0
M  V30 30860 C 3029.68 3.50633 0.879717 0
M  V30 30861 O 3029.4 4.37592 -0.210994 0
M  V30 30862 C 3030.9 4.14283 1.57747 0
M  V30 30863 H 3028.12 0.66509 0.0888606 0
M  V30 30864 H 3030.66 2.01004 -0.376532 0
M  V30 30865 H 3028.82 3.53601 1.58256 0
M  V30 30866 H 3029.23 5.24218 0.172111 0
M  V30 30867 H 3030.71 5.18945 1.88149 0
M  V30 30868 H 3031.18 3.61038 2.50097 0
M  V30 30869 H 3031.79 4.15251 0.919081 0
M  V30 30870 N 3030.1 -0.0216912 1.57585 0
M  V30 30871 C 3031.35 -0.712065 1.89888 0
M  V30 30872 C 3031.68 -1.7461 0.850002 0
M  V30 30873 O 3030.96 -1.94038 -0.134036 0
M  V30 30874 C 3031.24 -1.37493 3.32818 0
M  V30 30875 C 3031.09 -0.353914 4.48405 0
M  V30 30876 C 3032.41 -2.30696 3.7479 0
M  V30 30877 H 3029.53 -0.257393 0.690593 0
M  V30 30878 H 3032.17 0.0251479 1.89983 0
M  V30 30879 H 3030.32 -2.00329 3.32867 0
M  V30 30880 H 3032 0.273096 4.60491 0
M  V30 30881 H 3030.24 0.326066 4.32573 0
M  V30 30882 H 3030.91 -0.856344 5.45317 0
M  V30 30883 H 3033.39 -1.77897 3.76154 0
M  V30 30884 H 3032.26 -2.74053 4.7559 0
M  V30 30885 H 3032.52 -3.17686 3.07454 0
M  V30 30886 N 3031.58 -1.54832 -0.294093 0
M  V30 30887 C 3032.53 -1.87024 -1.38293 0
M  V30 30888 C 3033.53 -0.744584 -1.52159 0
M  V30 30889 O 3034.73 -0.928668 -1.54194 0
M  V30 30890 H 3031.11 -0.593286 -0.462078 0
M  V30 30891 H 3033.08 -2.78022 -1.08381 0
M  V30 30892 C 3031.83 -2.14028 -2.74021 0
M  V30 30893 H 3031.15 -3.00121 -2.64135 0
M  V30 30894 H 3032.59 -2.40488 -3.49201 0
M  V30 30895 C 3031.05 -0.941039 -3.2349 0
M  V30 30896 O 3031.58 -0.165007 -4.01361 0
M  V30 30897 N 3029.78 -0.744517 -2.80901 0
M  V30 30898 H 3029.33 -1.37725 -2.17692 0
M  V30 30899 H 3029.29 0.0563099 -3.1435 0
M  V30 30900 N 3033.06 0.557619 -1.47405 0
M  V30 30901 C 3033.97 1.69213 -1.62494 0
M  V30 30902 C 3034.99 1.66426 -0.507793 0
M  V30 30903 O 3036.16 1.8588 -0.775273 0
M  V30 30904 C 3033.23 3.05718 -1.63516 0
M  V30 30905 C 3032.29 3.19575 -2.86653 0
M  V30 30906 C 3031.52 4.49569 -2.87617 0
M  V30 30907 O 3031.75 5.35003 -1.97808 0
M  V30 30908 O 3030.68 4.67208 -3.79474 0
M  V30 30909 H 3034.51 1.59426 -2.5849 0
M  V30 30910 H 3032.09 0.727578 -1.30486 0
M  V30 30911 H 3033.97 3.86953 -1.6687 0
M  V30 30912 H 3032.65 3.15888 -0.706868 0
M  V30 30913 H 3031.55 2.37739 -2.88844 0
M  V30 30914 H 3032.89 3.14309 -3.78775 0
M  V30 30915 N 3034.54 1.35531 0.804316 0
M  V30 30916 C 3035.79 1.28265 1.55663 0
M  V30 30917 C 3036.1 -0.140317 1.95096 0
M  V30 30918 O 3037.31 -0.335255 2.69422 0
M  V30 30919 C 3035.76 2.24957 2.80931 0
M  V30 30920 C 3035.37 3.72611 2.48726 0
M  V30 30921 C 3037.12 2.26639 3.58936 0
M  V30 30922 C 3035.02 4.6112 3.703 0
M  V30 30923 H 3033.95 0.476569 0.584293 0
M  V30 30924 H 3036.6 1.60808 0.883922 0
M  V30 30925 H 3034.99 1.85389 3.49924 0
M  V30 30926 H 3036.16 4.20827 1.87726 0
M  V30 30927 H 3034.47 3.7356 1.83962 0
M  V30 30928 H 3037.07 2.89981 4.49238 0
M  V30 30929 H 3037.41 1.27076 3.96431 0
M  V30 30930 H 3037.95 2.64747 2.96907 0
M  V30 30931 H 3034.69 5.6169 3.37912 0
M  V30 30932 H 3034.21 4.17629 4.30519 0
M  V30 30933 H 3035.89 4.76655 4.37503 0
M  V30 30934 N 3036.02 -1.02674 1.19565 0
M  V30 30935 C 3037.29 -1.73201 0.908887 0
M  V30 30936 C 3037.67 -2.02835 -0.584892 0
M  V30 30937 O 3037.02 -1.68471 -1.54369 0
M  V30 30938 C 3037.23 -3.00721 1.77111 0
M  V30 30939 C 3038.58 -3.74186 2.00673 0
M  V30 30940 O 3039.6 -3.10653 1.7428 0
M  V30 30941 O 3038.46 -4.8841 2.45189 0
M  V30 30942 H 3035.56 -0.754361 0.338922 0
M  V30 30943 H 3038.1 -1.08613 1.30389 0
M  V30 30944 H 3036.88 -2.75065 2.78307 0
M  V30 30945 H 3036.5 -3.73048 1.37552 0
M  V30 30946 N 3037.5 -0.999914 -1.21817 0
M  V30 30947 C 3038.91 -0.711849 -1.42846 0
M  V30 30948 C 3039.11 0.714895 -1.88392 0
M  V30 30949 O 3038.17 1.48491 -2.04222 0
M  V30 30950 C 3039.48 -1.72339 -2.46414 0
M  V30 30951 C 3041.03 -1.73963 -2.60204 0
M  V30 30952 C 3041.5 -2.73998 -3.67 0
M  V30 30953 N 3042.99 -2.72635 -3.74465 0
M  V30 30954 C 3043.73 -3.46701 -4.56712 0
M  V30 30955 N 3043.23 -4.3039 -5.42897 0
M  V30 30956 N 3045.02 -3.35374 -4.51088 0
M  V30 30957 H 3037.17 -1.92126 -0.905622 0
M  V30 30958 H 3039.43 -0.828985 -0.459879 0
M  V30 30959 H 3039.14 -2.74469 -2.19909 0
M  V30 30960 H 3039.01 -1.52192 -3.45134 0
M  V30 30961 H 3041.4 -0.725268 -2.86049 0
M  V30 30962 H 3041.48 -1.9818 -1.61735 0
M  V30 30963 H 3041.12 -3.75588 -3.41901 0
M  V30 30964 H 3041.05 -2.47048 -4.65054 0
M  V30 30965 H 3043.55 -2.11915 -3.12891 0
M  V30 30966 H 3043.86 -4.83713 -6.02695 0
M  V30 30967 H 3042.2 -4.34474 -5.42455 0
M  V30 30968 H 3045.39 -2.69429 -3.82786 0
M  V30 30969 H 3045.57 -3.93353 -5.14953 0
M  V30 30970 N 3038.97 1.37284 -0.773999 0
M  V30 30971 C 3040.39 1.5301 -0.453887 0
M  V30 30972 C 3040.59 1.73176 1.03015 0
M  V30 30973 O 3039.65 1.75442 1.81594 0
M  V30 30974 C 3040.96 2.72522 -1.27092 0
M  V30 30975 C 3042.51 2.86385 -1.26305 0
M  V30 30976 C 3042.98 4.08882 -2.06347 0
M  V30 30977 N 3044.47 4.15999 -2.03713 0
M  V30 30978 C 3045.21 5.09823 -2.62427 0
M  V30 30979 N 3044.7 6.09191 -3.29937 0
M  V30 30980 N 3046.5 5.02324 -2.52245 0
M  V30 30981 H 3038.65 1.22446 -1.73553 0
M  V30 30982 H 3040.91 0.59641 -0.736885 0
M  V30 30983 H 3040.62 2.64092 -2.32268 0
M  V30 30984 H 3040.49 3.66265 -0.901634 0
M  V30 30985 H 3042.88 2.94284 -0.219265 0
M  V30 30986 H 3042.96 1.93593 -1.67198 0
M  V30 30987 H 3042.6 4.01744 -3.10748 0
M  V30 30988 H 3042.53 5.00792 -1.62834 0
M  V30 30989 H 3045.02 3.44845 -1.54565 0
M  V30 30990 H 3045.34 6.77316 -3.72107 0
M  V30 30991 H 3043.68 6.09463 -3.34036 0
M  V30 30992 H 3046.87 4.2364 -1.99116 0
M  V30 30993 H 3047.05 5.7526 -2.98296 0
M  V30 30994 N 3040.45 0.524724 1.48608 0
M  V30 30995 C 3041.68 -0.00948494 2.07398 0
M  V30 30996 C 3042.1 -1.27882 1.37941 0
M  V30 30997 O 3041.46 -1.75788 0.443664 0
M  V30 30998 C 3041.51 -0.221893 3.59917 0
M  V30 30999 O 3040.61 -1.29169 3.91649 0
M  V30 31000 H 3039.95 0.0367845 0.66298 0
M  V30 31001 H 3042.48 0.731134 1.91091 0
M  V30 31002 H 3042.49 -0.446165 4.05553 0
M  V30 31003 H 3041.17 0.705378 4.09875 0
M  V30 31004 H 3039.74 -1.05049 3.57798 0
M  V30 31005 N 3041.93 -1.55447 0.259613 0
M  V30 31006 C 3043.16 -2.03649 -0.365357 0
M  V30 31007 C 3043.57 -1.1385 -1.50611 0
M  V30 31008 O 3042.93 -0.155446 -1.81837 0
M  V30 31009 C 3042.98 -3.51094 -0.86111 0
M  V30 31010 O 3042.7 -4.37474 0.234198 0
M  V30 31011 C 3044.2 -4.15114 -1.55548 0
M  V30 31012 H 3041.42 -0.665552 -0.0853322 0
M  V30 31013 H 3043.97 -2.00801 0.387186 0
M  V30 31014 H 3042.12 -3.54435 -1.56379 0
M  V30 31015 H 3042.54 -5.24301 -0.144308 0
M  V30 31016 H 3044.01 -5.19936 -1.85394 0
M  V30 31017 H 3044.49 -3.62359 -2.48178 0
M  V30 31018 H 3045.09 -4.15732 -0.897047 0
M  V30 31019 N 3043.41 0.0133338 -1.57594 0
M  V30 31020 C 3044.66 0.70007 -1.89161 0
M  V30 31021 C 3044.97 1.75671 -0.860178 0
M  V30 31022 O 3046.18 2.49714 -1.06561 0
M  V30 31023 C 3044.63 1.29629 -3.35745 0
M  V30 31024 C 3044.24 0.27517 -4.47154 0
M  V30 31025 C 3045.98 1.96199 -3.76439 0
M  V30 31026 C 3043.89 0.880623 -5.84807 0
M  V30 31027 H 3042.82 0.265234 -0.705809 0
M  V30 31028 H 3045.47 -0.0450252 -1.83445 0
M  V30 31029 H 3043.85 2.09161 -3.36255 0
M  V30 31030 H 3045.03 -0.494587 -4.58138 0
M  V30 31031 H 3043.34 -0.289329 -4.15394 0
M  V30 31032 H 3045.94 2.42378 -4.7661 0
M  V30 31033 H 3046.28 2.7869 -3.09254 0
M  V30 31034 H 3046.82 1.23419 -3.7817 0
M  V30 31035 H 3043.55 0.0947861 -6.55431 0
M  V30 31036 H 3043.07 1.61985 -5.77513 0
M  V30 31037 H 3044.75 1.38327 -6.3204 0
M  V30 31038 N 3044.89 1.54985 0.285878 0
M  V30 31039 C 3045.82 1.89986 1.35749 0
M  V30 31040 C 3046.8 0.760321 1.52162 0
M  V30 31041 O 3047.98 1.01736 1.65419 0
M  V30 31042 C 3045.11 2.16047 2.71921 0
M  V30 31043 C 3044.07 3.31883 2.70255 0
M  V30 31044 C 3043.39 3.43395 4.09858 0
M  V30 31045 C 3044.69 4.68609 2.30659 0
M  V30 31046 H 3046.39 2.7974 1.06704 0
M  V30 31047 H 3043.93 1.34596 0.51186 0
M  V30 31048 H 3045.88 2.39119 3.46987 0
M  V30 31049 H 3044.61 1.23079 3.02521 0
M  V30 31050 H 3043.27 3.08759 1.97645 0
M  V30 31051 H 3042.92 2.47917 4.3766 0
M  V30 31052 H 3042.62 4.21269 4.09641 0
M  V30 31053 H 3044.14 3.68745 4.86682 0
M  V30 31054 H 3045.55 4.9131 2.95444 0
M  V30 31055 H 3043.95 5.49305 2.41627 0
M  V30 31056 H 3045.02 4.68301 1.25785 0
M  V30 31057 N 3046.36 -0.549794 1.47699 0
M  V30 31058 C 3047.78 -1.13189 1.48476 0
M  V30 31059 C 3048.13 -1.94683 0.243538 0
M  V30 31060 O 3047.25 -2.06377 -0.650973 0
M  V30 31061 C 3047.85 -2.05939 2.69025 0
M  V30 31062 C 3046.41 -2.59405 2.72738 0
M  V30 31063 C 3045.55 -1.35939 2.41694 0
M  V30 31064 H 3048.5 -0.33602 1.55102 0
M  V30 31065 H 3048.52 -2.89929 2.46417 0
M  V30 31066 H 3048.04 -1.46599 3.59347 0
M  V30 31067 H 3046.14 -3.22523 1.86574 0
M  V30 31068 H 3046.25 -2.99892 3.73633 0
M  V30 31069 H 3044.61 -1.6686 1.92431 0
M  V30 31070 H 3045.4 -0.78381 3.34232 0
M  V30 31071 N 3047.84 -1.35955 -0.797117 0
M  V30 31072 C 3049.07 -1.32893 -1.58578 0
M  V30 31073 C 3049.49 0.0915233 -1.88578 0
M  V30 31074 O 3048.84 1.04622 -1.49534 0
M  V30 31075 C 3048.89 -2.14289 -2.9114 0
M  V30 31076 O 3048.61 -3.50798 -2.62436 0
M  V30 31077 C 3050.12 -2.18921 -3.85472 0
M  V30 31078 H 3047.34 -0.456153 -0.492103 0
M  V30 31079 H 3049.88 -1.78944 -0.989908 0
M  V30 31080 H 3048.03 -1.71814 -3.47216 0
M  V30 31081 H 3048.45 -3.93182 -3.47143 0
M  V30 31082 H 3049.92 -2.80246 -4.75569 0
M  V30 31083 H 3050.4 -1.19054 -4.22756 0
M  V30 31084 H 3051.01 -2.61599 -3.3533 0
M  V30 31085 N 3049.32 1.02038 -1.20108 0
M  V30 31086 C 3050.28 2.08662 -0.948298 0
M  V30 31087 C 3051.28 1.60627 0.0746471 0
M  V30 31088 O 3052.47 1.73454 -0.161011 0
M  V30 31089 C 3049.61 3.38216 -0.426914 0
M  V30 31090 H 3050.8 2.32521 -1.89404 0
M  V30 31091 H 3048.35 1.1878 -1.01592 0
M  V30 31092 H 3049.09 3.20031 0.524476 0
M  V30 31093 H 3048.87 3.74406 -1.16458 0
M  V30 31094 H 3050.36 4.1673 -0.26942 0
M  V30 31095 N 3050.8 1.00636 1.21285 0
M  V30 31096 C 3051.71 0.577266 2.27387 0
M  V30 31097 C 3052.72 -0.380369 1.69792 0
M  V30 31098 O 3053.9 -0.243865 1.99918 0
M  V30 31099 C 3050.97 -0.0879922 3.46588 0
M  V30 31100 C 3050.03 0.914296 4.19451 0
M  V30 31101 C 3049.26 0.280689 5.32961 0
M  V30 31102 O 3049.48 -0.922166 5.62896 0
M  V30 31103 O 3048.42 0.9923 5.93664 0
M  V30 31104 H 3052.24 1.46032 2.66286 0
M  V30 31105 H 3049.83 0.775305 1.27708 0
M  V30 31106 H 3051.71 -0.46002 4.18882 0
M  V30 31107 H 3050.38 -0.945406 3.09586 0
M  V30 31108 H 3049.29 1.3375 3.49373 0
M  V30 31109 H 3050.62 1.74134 4.60367 0
M  V30 31110 N 3052.28 -1.36872 0.781268 0
M  V30 31111 C 3053.52 -1.99749 0.350442 0
M  V30 31112 C 3053.86 -1.61872 -1.0729 0
M  V30 31113 O 3053.13 -0.869521 -1.73982 0
M  V30 31114 C 3053.41 -3.56543 0.504897 0
M  V30 31115 C 3053.27 -4.043 1.97134 0
M  V30 31116 C 3054.59 -4.40018 -0.0850499 0
M  V30 31117 H 3051.7 -0.725657 0.128807 0
M  V30 31118 H 3054.35 -1.62408 0.986089 0
M  V30 31119 H 3052.5 -3.88483 -0.0362323 0
M  V30 31120 H 3054.17 -3.82883 2.57291 0
M  V30 31121 H 3052.41 -3.5614 2.47682 0
M  V30 31122 H 3053.08 -5.13301 2.03042 0
M  V30 31123 H 3055.56 -4.14391 0.376776 0
M  V30 31124 H 3054.43 -5.48874 0.0530979 0
M  V30 31125 H 3054.7 -4.26162 -1.17635 0
M  V30 31126 N 3053.75 -0.532597 -1.48328 0
M  V30 31127 C 3054.66 0.232505 -2.33445 0
M  V30 31128 C 3055.68 0.936424 -1.46653 0
M  V30 31129 O 3056.86 0.910802 -1.79628 0
M  V30 31130 C 3053.92 1.26428 -3.22826 0
M  V30 31131 C 3052.98 0.570436 -4.25493 0
M  V30 31132 C 3052.22 1.55306 -5.10603 0
M  V30 31133 O 3052.44 2.78591 -4.97738 0
M  V30 31134 O 3051.37 1.09102 -5.91929 0
M  V30 31135 H 3055.2 -0.465041 -3.00118 0
M  V30 31136 H 3052.78 -0.293487 -1.46489 0
M  V30 31137 H 3054.67 1.86048 -3.78106 0
M  V30 31138 H 3053.34 1.94419 -2.58811 0
M  V30 31139 H 3052.25 -0.0663244 -3.74041 0
M  V30 31140 H 3053.58 -0.0675769 -4.92154 0
M  V30 31141 N 3055.23 1.55307 -0.267853 0
M  V30 31142 C 3056.48 1.99041 0.350308 0
M  V30 31143 C 3056.8 1.15761 1.56922 0
M  V30 31144 O 3056.07 0.24537 1.94357 0
M  V30 31145 H 3054.65 0.735169 0.132422 0
M  V30 31146 H 3057.31 1.91327 -0.371504 0
M  V30 31147 H 3056.41 3.05359 0.64515 0
M  V30 31148 N 3056.71 -0.00497598 1.57599 0
M  V30 31149 C 3057.94 -0.701982 1.94627 0
M  V30 31150 C 3058.35 -1.67583 0.869559 0
M  V30 31151 O 3057.71 -1.81866 -0.151958 0
M  V30 31152 C 3057.76 -1.43818 3.3166 0
M  V30 31153 O 3057.48 -0.50339 4.35198 0
M  V30 31154 C 3058.98 -2.23015 3.83118 0
M  V30 31155 H 3056.2 -0.195829 0.641788 0
M  V30 31156 H 3058.75 0.0446647 2.04451 0
M  V30 31157 H 3056.9 -2.1365 3.2316 0
M  V30 31158 H 3057.32 -1.02226 5.14442 0
M  V30 31159 H 3058.79 -2.70031 4.81443 0
M  V30 31160 H 3059.27 -3.05477 3.15564 0
M  V30 31161 H 3059.87 -1.58209 3.94778 0
M  V30 31162 N 3058.19 -1.55135 -0.277654 0
M  V30 31163 C 3059.14 -1.87695 -1.3431 0
M  V30 31164 C 3060.11 -0.728 -1.49296 0
M  V30 31165 O 3061.29 -0.978835 -1.63779 0
M  V30 31166 C 3058.43 -2.15031 -2.69918 0
M  V30 31167 C 3057.54 -3.4257 -2.63191 0
M  V30 31168 C 3056.68 -3.59629 -3.90948 0
M  V30 31169 C 3055.72 -4.80877 -3.78713 0
M  V30 31170 N 3054.85 -4.94618 -4.98295 0
M  V30 31171 H 3059.69 -2.7857 -1.05842 0
M  V30 31172 H 3057.23 -1.37923 -0.511445 0
M  V30 31173 H 3059.19 -2.28878 -3.48813 0
M  V30 31174 H 3057.82 -1.27396 -2.96598 0
M  V30 31175 H 3056.87 -3.37219 -1.76032 0
M  V30 31176 H 3058.18 -4.31598 -2.50049 0
M  V30 31177 H 3057.34 -3.73268 -4.78284 0
M  V30 31178 H 3056.08 -2.68777 -4.06952 0
M  V30 31179 H 3055.08 -4.67246 -2.89761 0
M  V30 31180 H 3056.31 -5.73159 -3.64232 0
M  V30 31181 H 3054.25 -4.06696 -5.14718 0
M  V30 31182 H 3054.17 -5.77684 -4.87665 0
M  V30 31183 H 3055.44 -5.12638 -5.87216 0
M  V30 31184 N 3059.67 0.541953 -1.47989 0
M  V30 31185 C 3060.63 1.62981 -1.61151 0
M  V30 31186 C 3061.63 1.53294 -0.485557 0
M  V30 31187 O 3062.82 1.57178 -0.751039 0
M  V30 31188 C 3059.95 3.02573 -1.57043 0
M  V30 31189 H 3061.14 1.52655 -2.58141 0
M  V30 31190 H 3058.7 0.763082 -1.36407 0
M  V30 31191 H 3059.43 3.18418 -0.614863 0
M  V30 31192 H 3059.22 3.11013 -2.38774 0
M  V30 31193 H 3060.71 3.81688 -1.69423 0
M  V30 31194 N 3061.15 1.36376 0.789896 0
M  V30 31195 C 3062.56 1.27372 1.36503 0
M  V30 31196 C 3062.91 -0.0866766 1.96008 0
M  V30 31197 O 3062.03 -0.988125 1.92523 0
M  V30 31198 C 3062.63 2.30644 2.48171 0
M  V30 31199 C 3061.19 2.2533 3.01502 0
M  V30 31200 C 3060.33 2.15448 1.74577 0
M  V30 31201 H 3063.28 1.47262 0.59158 0
M  V30 31202 H 3063.31 1.94259 3.27175 0
M  V30 31203 H 3062.82 3.29644 2.04833 0
M  V30 31204 H 3060.92 1.29794 3.49262 0
M  V30 31205 H 3061.03 3.17998 3.58349 0
M  V30 31206 H 3059.4 1.61695 1.96791 0
M  V30 31207 H 3060.18 3.16335 1.33367 0
M  V30 31208 N 3062.62 -1.014 1.20647 0
M  V30 31209 C 3063.87 -1.75298 1.01973 0
M  V30 31210 C 3064.2 -1.88991 -0.44677 0
M  V30 31211 O 3063.48 -1.41764 -1.33166 0
M  V30 31212 C 3063.76 -3.17071 1.70699 0
M  V30 31213 C 3063.61 -3.11156 3.2481 0
M  V30 31214 C 3064.93 -4.15799 1.44219 0
M  V30 31215 H 3062.05 -0.636312 0.371856 0
M  V30 31216 H 3064.69 -1.18275 1.48698 0
M  V30 31217 H 3062.84 -3.65757 1.30974 0
M  V30 31218 H 3064.52 -2.70254 3.73846 0
M  V30 31219 H 3062.76 -2.48486 3.5558 0
M  V30 31220 H 3063.43 -4.11386 3.68056 0
M  V30 31221 H 3065.91 -3.75779 1.78687 0
M  V30 31222 H 3064.78 -5.13158 1.94834 0
M  V30 31223 H 3065.04 -4.40546 0.37033 0
M  V30 31224 N 3064.1 -1.01278 -1.2075 0
M  V30 31225 C 3065.01 -0.589317 -2.27078 0
M  V30 31226 C 3066.03 0.371359 -1.69991 0
M  V30 31227 O 3067.2 0.233259 -2.00045 0
M  V30 31228 C 3064.27 0.0696106 -3.4663 0
M  V30 31229 C 3063.33 -0.936527 -4.1896 0
M  V30 31230 C 3062.56 -0.308949 -5.32805 0
M  V30 31231 O 3062.79 0.892301 -5.63377 0
M  V30 31232 O 3061.72 -1.02377 -5.93129 0
M  V30 31233 H 3065.55 -1.47443 -2.65508 0
M  V30 31234 H 3063.13 -0.782067 -1.27295 0
M  V30 31235 H 3065.01 0.437799 -4.1912 0
M  V30 31236 H 3063.69 0.928975 -3.10083 0
M  V30 31237 H 3062.59 -1.35601 -3.48659 0
M  V30 31238 H 3063.93 -1.76573 -4.59437 0
M  V30 31239 N 3065.58 1.36456 -0.788516 0
M  V30 31240 C 3066.53 2.30062 -0.18439 0
M  V30 31241 C 3067.5 1.51932 0.671253 0
M  V30 31242 O 3068.68 1.80442 0.62012 0
M  V30 31243 C 3065.82 3.38424 0.675536 0
M  V30 31244 C 3064.93 4.31543 -0.19855 0
M  V30 31245 C 3064.07 5.26987 0.667664 0
M  V30 31246 C 3063.11 6.11747 -0.207933 0
M  V30 31247 N 3062.25 6.99382 0.617212 0
M  V30 31248 H 3067.09 2.81141 -0.988106 0
M  V30 31249 H 3064.62 1.38384 -0.498839 0
M  V30 31250 H 3066.58 3.99896 1.18909 0
M  V30 31251 H 3065.21 2.88667 1.44469 0
M  V30 31252 H 3064.26 3.71233 -0.83006 0
M  V30 31253 H 3065.57 4.91097 -0.87325 0
M  V30 31254 H 3064.73 5.93745 1.24706 0
M  V30 31255 H 3063.47 4.67886 1.37599 0
M  V30 31256 H 3062.47 5.43952 -0.799734 0
M  V30 31257 H 3063.7 6.72923 -0.913848 0
M  V30 31258 H 3061.64 6.4279 1.30985 0
M  V30 31259 H 3061.56 7.56 0.000174369 0
M  V30 31260 H 3062.83 7.7051 1.18046 0
M  V30 31261 N 3067.06 0.540456 1.48043 0
M  V30 31262 C 3067.97 -0.220122 2.33565 0
M  V30 31263 C 3068.98 -0.928634 1.47148 0
M  V30 31264 O 3070.16 -0.901263 1.80109 0
M  V30 31265 C 3067.22 -1.24715 3.23492 0
M  V30 31266 C 3066.29 -0.547863 4.2579 0
M  V30 31267 C 3065.52 -1.52596 5.1142 0
M  V30 31268 O 3065.74 -2.75947 4.99209 0
M  V30 31269 O 3064.68 -1.05961 5.925 0
M  V30 31270 H 3068.5 0.480951 2.99868 0
M  V30 31271 H 3066.09 0.301252 1.46331 0
M  V30 31272 H 3067.97 -1.8404 3.79087 0
M  V30 31273 H 3066.64 -1.93044 2.59838 0
M  V30 31274 H 3065.55 0.0861598 3.74001 0
M  V30 31275 H 3066.88 0.0936761 4.92111 0
M  V30 31276 N 3068.54 -1.55163 0.276085 0
M  V30 31277 C 3069.45 -2.26231 -0.621026 0
M  V30 31278 C 3070.46 -1.28855 -1.16929 0
M  V30 31279 O 3071.64 -1.61793 -1.19937 0
M  V30 31280 C 3068.7 -2.97027 -1.78819 0
M  V30 31281 C 3067.76 -4.09883 -1.2765 0
M  V30 31282 C 3067 -4.77293 -2.38803 0
M  V30 31283 O 3067.22 -4.43918 -3.5818 0
M  V30 31284 O 3066.15 -5.6522 -2.06905 0
M  V30 31285 H 3069.98 -3.03666 -0.0452812 0
M  V30 31286 H 3067.56 -1.49337 0.0434537 0
M  V30 31287 H 3069.45 -3.41515 -2.46871 0
M  V30 31288 H 3068.12 -2.22507 -2.351 0
M  V30 31289 H 3067.03 -3.69848 -0.562415 0
M  V30 31290 H 3068.36 -4.86306 -0.759423 0
M  V30 31291 N 3070.01 -0.00338196 -1.576 0
M  V30 31292 C 3071.26 0.681766 -1.90997 0
M  V30 31293 C 3071.59 1.73235 -0.877673 0
M  V30 31294 O 3070.87 1.94226 0.103149 0
M  V30 31295 C 3071.15 1.32181 -3.34963 0
M  V30 31296 C 3071 0.282532 -4.48912 0
M  V30 31297 C 3072.32 2.24704 -3.78412 0
M  V30 31298 H 3069.44 0.246373 -0.6946 0
M  V30 31299 H 3072.08 -0.0553694 -1.89919 0
M  V30 31300 H 3070.23 1.95008 -3.36012 0
M  V30 31301 H 3071.91 -0.346322 -4.59998 0
M  V30 31302 H 3070.15 -0.394844 -4.31999 0
M  V30 31303 H 3070.82 0.76948 -5.4661 0
M  V30 31304 H 3073.3 1.7189 -3.78937 0
M  V30 31305 H 3072.17 2.66452 -4.7989 0
M  V30 31306 H 3072.43 3.12754 -3.12469 0
M  V30 31307 N 3071.49 1.5528 0.269423 0
M  V30 31308 C 3072.44 1.88405 1.33312 0
M  V30 31309 C 3073.41 0.735907 1.48908 0
M  V30 31310 O 3074.59 0.987507 1.63257 0
M  V30 31311 C 3071.73 2.16459 2.68774 0
M  V30 31312 C 3070.85 3.43961 2.61371 0
M  V30 31313 C 3069.98 3.61697 3.89036 0
M  V30 31314 C 3069.02 4.82879 3.76158 0
M  V30 31315 N 3068.16 4.97254 4.95664 0
M  V30 31316 H 3073 2.79128 1.04363 0
M  V30 31317 H 3070.53 1.38192 0.504123 0
M  V30 31318 H 3072.49 2.30725 3.47594 0
M  V30 31319 H 3071.12 1.28967 2.95918 0
M  V30 31320 H 3070.17 3.38148 1.74241 0
M  V30 31321 H 3071.49 4.32918 2.47756 0
M  V30 31322 H 3070.64 3.758 4.76298 0
M  V30 31323 H 3069.38 2.70931 4.05521 0
M  V30 31324 H 3068.38 4.68776 2.87279 0
M  V30 31325 H 3069.61 5.75083 3.61187 0
M  V30 31326 H 3067.56 4.0942 5.12554 0
M  V30 31327 H 3067.47 5.80262 4.84594 0
M  V30 31328 H 3068.74 5.15745 5.84489 0
M  V30 31329 N 3072.97 -0.534097 1.48274 0
M  V30 31330 C 3074.22 -1.29206 1.56313 0
M  V30 31331 C 3074.55 -1.92779 0.234515 0
M  V30 31332 O 3073.82 -1.79075 -0.759111 0
M  V30 31333 C 3074.11 -2.38456 2.69835 0
M  V30 31334 C 3073.96 -1.796 4.12388 0
M  V30 31335 C 3075.28 -3.40249 2.79139 0
M  V30 31336 H 3072.4 -0.468412 0.568998 0
M  V30 31337 H 3075.04 -0.595406 1.8043 0
M  V30 31338 H 3073.19 -2.97877 2.49402 0
M  V30 31339 H 3074.86 -1.24262 4.44249 0
M  V30 31340 H 3073.1 -1.10155 4.19581 0
M  V30 31341 H 3073.78 -2.58685 4.87633 0
M  V30 31342 H 3076.25 -2.90777 2.97637 0
M  V30 31343 H 3075.13 -4.14091 3.60305 0
M  V30 31344 H 3075.39 -4.00544 1.87129 0
M  V30 31345 N 3074.45 -1.36793 -0.782652 0
M  V30 31346 C 3075.67 -1.34735 -1.57674 0
M  V30 31347 C 3076.1 0.0674923 -1.87979 0
M  V30 31348 O 3075.46 1.04141 -1.48406 0
M  V30 31349 C 3075.5 -2.18262 -2.87044 0
M  V30 31350 O 3074.61 -1.57976 -3.80943 0
M  V30 31351 H 3073.95 -0.460855 -0.478026 0
M  V30 31352 H 3076.48 -1.80169 -0.969547 0
M  V30 31353 H 3076.49 -2.31085 -3.3625 0
M  V30 31354 H 3075.16 -3.21109 -2.64314 0
M  V30 31355 H 3073.74 -1.54132 -3.39555 0
M  V30 31356 N 3075.93 1.00759 -1.21184 0
M  V30 31357 C 3077.17 1.74151 -1.02546 0
M  V30 31358 C 3077.5 1.89917 0.442339 0
M  V30 31359 O 3076.77 1.4482 1.31924 0
M  V30 31360 H 3075.35 0.645208 -0.376452 0
M  V30 31361 H 3078.01 1.21431 -1.52448 0
M  V30 31362 H 3077.1 2.74167 -1.49127 0
M  V30 31363 N 3077.4 1.01917 1.20211 0
M  V30 31364 C 3078.63 0.729289 1.93621 0
M  V30 31365 C 3079.05 -0.710413 1.74924 0
M  V30 31366 O 3078.4 -1.48212 1.06487 0
M  V30 31367 C 3078.46 1.05871 3.45649 0
M  V30 31368 O 3078.18 2.44187 3.63737 0
M  V30 31369 C 3079.68 0.790253 4.36199 0
M  V30 31370 H 3076.9 0.267605 0.615328 0
M  V30 31371 H 3079.44 1.36104 1.5263 0
M  V30 31372 H 3077.6 0.472317 3.8451 0
M  V30 31373 H 3078.01 2.56151 4.57697 0
M  V30 31374 H 3079.48 1.0708 5.41514 0
M  V30 31375 H 3079.96 -0.275532 4.38335 0
M  V30 31376 H 3080.57 1.35892 4.03005 0
M  V30 31377 N 3078.88 -1.36036 0.795742 0
M  V30 31378 C 3080.13 -1.99366 0.371609 0
M  V30 31379 C 3080.46 -1.63001 -1.05567 0
M  V30 31380 O 3079.74 -0.887926 -1.7305 0
M  V30 31381 C 3080.02 -3.55987 0.542685 0
M  V30 31382 C 3079.87 -4.02186 2.01411 0
M  V30 31383 C 3081.19 -4.40083 -0.0383753 0
M  V30 31384 H 3078.31 -0.72425 0.136496 0
M  V30 31385 H 3080.95 -1.61353 1.00326 0
M  V30 31386 H 3079.1 -3.885 0.00497359 0
M  V30 31387 H 3080.77 -3.80132 2.61337 0
M  V30 31388 H 3079.02 -3.53493 2.51445 0
M  V30 31389 H 3079.69 -5.11119 2.08475 0
M  V30 31390 H 3082.16 -4.13968 0.420707 0
M  V30 31391 H 3081.04 -5.48787 0.11131 0
M  V30 31392 H 3081.3 -4.27386 -1.13108 0
M  V30 31393 N 3080.36 -0.5483 -1.47755 0
M  V30 31394 C 3081.59 -0.0235115 -2.07387 0
M  V30 31395 C 3082.01 1.25671 -1.39958 0
M  V30 31396 O 3081.37 1.7506 -0.471574 0
M  V30 31397 C 3081.42 0.164605 -3.60224 0
M  V30 31398 O 3080.52 1.22921 -3.93655 0
M  V30 31399 H 3079.86 -0.0473273 -0.662311 0
M  V30 31400 H 3082.39 -0.761442 -1.89903 0
M  V30 31401 H 3082.4 0.381588 -4.06212 0
M  V30 31402 H 3081.08 -0.770497 -4.08701 0
M  V30 31403 H 3079.65 0.993432 -3.59424 0
M  V30 31404 N 3081.84 1.55014 -0.28431 0
M  V30 31405 C 3083.07 2.04204 0.332912 0
M  V30 31406 C 3083.48 1.16232 1.48781 0
M  V30 31407 O 3082.84 0.184355 1.81566 0
M  V30 31408 C 3082.89 3.5242 0.805145 0
M  V30 31409 O 3082.61 4.37046 -0.303766 0
M  V30 31410 C 3084.11 4.17536 1.48924 0
M  V30 31411 H 3081.33 0.666825 0.074733 0
M  V30 31412 H 3083.88 2.0016 -0.419083 0
M  V30 31413 H 3082.03 3.56878 1.5072 0
M  V30 31414 H 3082.44 5.24465 0.0608781 0
M  V30 31415 H 3083.92 5.22819 1.77099 0
M  V30 31416 H 3084.4 3.66262 2.42382 0
M  V30 31417 H 3085 4.17107 0.830794 0
M  V30 31418 N 3083.32 0.0117398 1.57596 0
M  V30 31419 C 3084.26 -0.993998 2.10291 0
M  V30 31420 C 3085.26 -1.34831 1.02552 0
M  V30 31421 O 3086.46 -1.33258 1.21005 0
M  V30 31422 H 3082.84 -0.338256 0.67163 0
M  V30 31423 H 3084.81 -0.524095 2.93761 0
M  V30 31424 C 3083.56 -2.27314 2.63103 0
M  V30 31425 H 3082.88 -2.00921 3.45645 0
M  V30 31426 H 3084.32 -2.95937 3.0364 0
M  V30 31427 C 3082.78 -2.99101 1.55049 0
M  V30 31428 O 3083.31 -3.90542 0.940195 0
M  V30 31429 N 3081.52 -2.61131 1.27511 0
M  V30 31430 H 3081.06 -1.86852 1.77325 0
M  V30 31431 H 3081.02 -3.09474 0.554347 0
M  V30 31432 N 3084.79 -1.55421 -0.261185 0
M  V30 31433 C 3086.04 -1.76583 -0.991199 0
M  V30 31434 C 3086.37 -0.573489 -1.85853 0
M  V30 31435 O 3085.62 0.443671 -1.90604 0
M  V30 31436 C 3085.92 -3.03094 -1.8939 0
M  V30 31437 C 3085.59 -4.35102 -1.1831 0
M  V30 31438 C 3084.25 -4.70977 -0.986605 0
M  V30 31439 C 3086.6 -5.16769 -0.678209 0
M  V30 31440 C 3083.93 -5.86066 -0.272685 0
M  V30 31441 C 3086.28 -6.32596 0.0221758 0
M  V30 31442 C 3084.95 -6.67103 0.230279 0
M  V30 31443 H 3084.22 -0.646162 -0.362705 0
M  V30 31444 H 3086.86 -1.89693 -0.262473 0
M  V30 31445 H 3085.17 -2.84935 -2.68922 0
M  V30 31446 H 3086.87 -3.16665 -2.46016 0
M  V30 31447 H 3083.46 -4.0691 -1.34618 0
M  V30 31448 H 3087.64 -4.89519 -0.817605 0
M  V30 31449 H 3082.9 -6.11317 -0.100843 0
M  V30 31450 H 3087.07 -6.95126 0.421103 0
M  V30 31451 H 3084.7 -7.56131 0.785445 0
M  V30 31452 N 3086.27 0.526227 -1.48555 0
M  V30 31453 C 3087.68 1.10812 -1.50258 0
M  V30 31454 C 3088.03 1.94271 -0.274479 0
M  V30 31455 O 3087.16 2.07386 0.618058 0
M  V30 31456 C 3087.75 2.01633 -2.72267 0
M  V30 31457 C 3086.31 2.55033 -2.7683 0
M  V30 31458 C 3085.46 1.32077 -2.43826 0
M  V30 31459 H 3088.41 0.311303 -1.55617 0
M  V30 31460 H 3088.43 2.85972 -2.50998 0
M  V30 31461 H 3087.94 1.40863 -3.61634 0
M  V30 31462 H 3086.05 3.19514 -1.91682 0
M  V30 31463 H 3086.16 2.9391 -3.78357 0
M  V30 31464 H 3084.52 1.63778 -1.95061 0
M  V30 31465 H 3085.31 0.730537 -3.35437 0
M  V30 31466 N 3087.75 1.37206 0.775387 0
M  V30 31467 C 3088.68 1.28547 1.89758 0
M  V30 31468 C 3089.7 0.202025 1.61542 0
M  V30 31469 O 3090.88 0.457879 1.72527 0
M  V30 31470 C 3087.98 0.963942 3.24902 0
M  V30 31471 C 3087.16 2.15212 3.80792 0
M  V30 31472 C 3086.22 1.80143 4.94403 0
M  V30 31473 O 3085.24 2.52397 5.10181 0
M  V30 31474 N 3086.44 0.743399 5.7572 0
M  V30 31475 H 3089.21 2.25241 1.97704 0
M  V30 31476 H 3086.77 1.30783 0.954325 0
M  V30 31477 H 3088.76 0.710252 3.98419 0
M  V30 31478 H 3087.33 0.085687 3.12483 0
M  V30 31479 H 3086.55 2.56778 2.99097 0
M  V30 31480 H 3087.84 2.94559 4.14864 0
M  V30 31481 H 3087.24 0.143754 5.65517 0
M  V30 31482 H 3085.8 0.54956 6.49479 0
M  V30 31483 N 3089.23 -1.00115 1.21716 0
M  V30 31484 C 3090.46 -1.77516 1.06281 0
M  V30 31485 C 3090.87 -1.84788 -0.387161 0
M  V30 31486 O 3090.23 -1.31205 -1.26852 0
M  V30 31487 C 3090.28 -3.21236 1.65801 0
M  V30 31488 O 3090 -3.14373 3.05125 0
M  V30 31489 C 3091.5 -4.15121 1.55529 0
M  V30 31490 H 3088.72 -0.557759 0.373023 0
M  V30 31491 H 3091.27 -1.25919 1.61136 0
M  V30 31492 H 3089.42 -3.69929 1.15029 0
M  V30 31493 H 3089.83 -4.04695 3.3365 0
M  V30 31494 H 3091.31 -5.13747 2.01911 0
M  V30 31495 H 3091.79 -4.36224 0.510384 0
M  V30 31496 H 3092.39 -3.72321 2.05566 0
M  V30 31497 N 3090.71 -1.02553 -1.19669 0
M  V30 31498 C 3091.96 -0.715305 -1.8859 0
M  V30 31499 C 3092.27 0.75895 -1.80276 0
M  V30 31500 O 3093.48 1.18209 -2.44416 0
M  V30 31501 C 3091.93 -1.22911 -3.38262 0
M  V30 31502 C 3091.54 -2.73091 -3.55142 0
M  V30 31503 C 3093.28 -0.994722 -4.12681 0
M  V30 31504 C 3091.19 -3.17906 -4.98688 0
M  V30 31505 H 3090.12 -0.263869 -0.706321 0
M  V30 31506 H 3092.77 -1.23939 -1.3532 0
M  V30 31507 H 3091.15 -0.632961 -3.90909 0
M  V30 31508 H 3092.33 -3.38332 -3.12839 0
M  V30 31509 H 3090.64 -2.94771 -2.94107 0
M  V30 31510 H 3093.24 -1.30487 -5.18534 0
M  V30 31511 H 3093.58 0.0685734 -4.16244 0
M  V30 31512 H 3094.12 -1.5547 -3.66161 0
M  V30 31513 H 3090.85 -4.2355 -5.00285 0
M  V30 31514 H 3090.37 -2.57391 -5.41766 0
M  V30 31515 H 3092.05 -3.11055 -5.67322 0
M  V30 31516 N 3092.19 1.35612 -0.802945 0
M  V30 31517 C 3093.1 2.33638 -0.212218 0
M  V30 31518 C 3094.11 1.6169 0.642842 0
M  V30 31519 O 3095.29 1.93589 0.555451 0
M  V30 31520 C 3092.35 3.40885 0.632346 0
M  V30 31521 C 3091.41 4.28613 -0.242783 0
M  V30 31522 C 3090.65 5.30737 0.561567 0
M  V30 31523 O 3090.87 5.41369 1.79654 0
M  V30 31524 O 3089.8 6.01883 -0.0456445 0
M  V30 31525 H 3093.63 2.8595 -1.02305 0
M  V30 31526 H 3091.21 1.38318 -0.564661 0
M  V30 31527 H 3093.1 4.06422 1.11351 0
M  V30 31528 H 3091.77 2.9085 1.42084 0
M  V30 31529 H 3090.68 3.66069 -0.771005 0
M  V30 31530 H 3092.01 4.82035 -0.99513 0
M  V30 31531 N 3093.66 0.556128 1.47462 0
M  V30 31532 C 3095.07 0.122462 1.86298 0
M  V30 31533 C 3095.43 -1.30746 1.46287 0
M  V30 31534 O 3094.55 -1.98341 0.86544 0
M  V30 31535 C 3095.15 0.215466 3.38114 0
M  V30 31536 C 3093.7 -0.163157 3.76046 0
M  V30 31537 C 3092.85 0.563514 2.71514 0
M  V30 31538 H 3095.8 0.765913 1.38994 0
M  V30 31539 H 3095.82 -0.566205 3.76264 0
M  V30 31540 H 3095.34 1.25629 3.67204 0
M  V30 31541 H 3093.44 -1.20513 3.52573 0
M  V30 31542 H 3093.55 0.194652 4.78704 0
M  V30 31543 H 3091.91 0.00672356 2.54699 0
M  V30 31544 H 3092.7 1.60547 3.03446 0
M  V30 31545 N 3095.14 -1.54861 0.292527 0
M  V30 31546 C 3096.1 -2.21886 -0.574384 0
M  V30 31547 C 3097.1 -1.2022 -1.06789 0
M  V30 31548 O 3098.29 -1.45011 -0.965275 0
M  V30 31549 C 3095.43 -2.89856 -1.79433 0
M  V30 31550 H 3096.62 -2.99898 0.0110847 0
M  V30 31551 H 3094.17 -1.5624 0.0432835 0
M  V30 31552 H 3094.91 -2.15901 -2.41986 0
M  V30 31553 H 3094.69 -3.64376 -1.4482 0
M  V30 31554 H 3096.18 -3.41011 -2.41042 0
M  V30 31555 N 3096.62 -0.0200973 -1.57587 0
M  V30 31556 C 3097.57 0.964754 -2.09669 0
M  V30 31557 C 3098.54 1.32875 -0.996663 0
M  V30 31558 O 3099.72 1.42364 -1.27032 0
M  V30 31559 C 3096.86 2.24489 -2.62104 0
M  V30 31560 C 3095.97 1.93814 -3.86083 0
M  V30 31561 C 3095.11 3.16056 -4.26945 0
M  V30 31562 C 3094.15 2.8116 -5.43706 0
M  V30 31563 N 3093.29 3.95999 -5.79766 0
M  V30 31564 H 3098.13 0.513699 -2.93539 0
M  V30 31565 H 3095.66 0.241974 -1.45096 0
M  V30 31566 H 3097.62 2.99353 -2.90592 0
M  V30 31567 H 3096.25 2.67227 -1.81079 0
M  V30 31568 H 3095.3 1.09231 -3.6438 0
M  V30 31569 H 3096.61 1.64107 -4.71031 0
M  V30 31570 H 3095.77 3.99249 -4.56821 0
M  V30 31571 H 3094.51 3.48918 -3.40746 0
M  V30 31572 H 3093.51 1.96378 -5.13533 0
M  V30 31573 H 3094.74 2.49524 -6.31597 0
M  V30 31574 H 3092.68 4.2872 -4.96523 0
M  V30 31575 H 3092.6 3.69885 -6.59334 0
M  V30 31576 H 3093.87 4.79922 -6.14244 0
M  V30 31577 N 3098.1 1.55557 0.252939 0
M  V30 31578 C 3099.03 1.92822 1.31688 0
M  V30 31579 C 3100.01 0.792426 1.50515 0
M  V30 31580 O 3101.19 1.05222 1.63224 0
M  V30 31581 C 3098.32 2.21766 2.67277 0
M  V30 31582 C 3097.28 3.37541 2.63154 0
M  V30 31583 C 3096.6 3.52012 4.02482 0
M  V30 31584 C 3097.9 4.73396 2.20667 0
M  V30 31585 H 3099.6 2.81941 1.00746 0
M  V30 31586 H 3097.14 1.35651 0.483195 0
M  V30 31587 H 3099.1 2.46425 3.41837 0
M  V30 31588 H 3097.82 1.29468 2.99843 0
M  V30 31589 H 3096.48 3.12882 1.91052 0
M  V30 31590 H 3096.13 2.57144 4.32303 0
M  V30 31591 H 3095.83 4.29864 4.00613 0
M  V30 31592 H 3097.35 3.78985 4.78751 0
M  V30 31593 H 3098.77 4.97466 2.84957 0
M  V30 31594 H 3097.16 5.54307 2.29921 0
M  V30 31595 H 3098.23 4.70864 1.15823 0
M  V30 31596 N 3099.58 -0.518341 1.48832 0
M  V30 31597 C 3100.82 -1.27284 1.58651 0
M  V30 31598 C 3101.18 -1.90606 0.262119 0
M  V30 31599 O 3100.47 -1.76895 -0.736123 0
M  V30 31600 C 3100.66 -2.37575 2.67007 0
M  V30 31601 C 3100.49 -1.85066 4.09854 0
M  V30 31602 C 3099.26 -1.67145 4.76855 0
M  V30 31603 C 3101.46 -1.37247 4.95649 0
M  V30 31604 N 3099.44 -1.09384 6.04076 0
M  V30 31605 C 3100.81 -0.915081 6.1321 0
M  V30 31606 C 3102.87 -1.25658 4.81783 0
M  V30 31607 C 3101.57 -0.353285 7.18432 0
M  V30 31608 C 3103.6 -0.70877 5.87137 0
M  V30 31609 C 3102.96 -0.261518 7.03914 0
M  V30 31610 H 3099.06 -0.456362 0.635025 0
M  V30 31611 H 3101.64 -0.583064 1.85765 0
M  V30 31612 H 3099.81 -3.04035 2.41696 0
M  V30 31613 H 3101.55 -3.04613 2.66445 0
M  V30 31614 H 3098.3 -1.91009 4.33373 0
M  V30 31615 H 3098.72 -0.824799 6.71957 0
M  V30 31616 H 3103.37 -1.58839 3.91829 0
M  V30 31617 H 3101.08 -0.00917108 8.08099 0
M  V30 31618 H 3104.67 -0.622119 5.78464 0
M  V30 31619 H 3103.55 0.155772 7.84045 0
M  V30 31620 N 3101.05 -1.37615 -0.7681 0
M  V30 31621 C 3102.28 -1.364 -1.56236 0
M  V30 31622 C 3102.7 0.0475508 -1.8804 0
M  V30 31623 O 3102.06 1.02561 -1.49502 0
M  V30 31624 C 3102.11 -2.21294 -2.84712 0
M  V30 31625 O 3101.21 -1.62007 -3.79246 0
M  V30 31626 H 3100.55 -0.465899 -0.473111 0
M  V30 31627 H 3103.08 -1.81187 -0.950383 0
M  V30 31628 H 3103.09 -2.34638 -3.3378 0
M  V30 31629 H 3101.77 -3.23894 -2.60893 0
M  V30 31630 H 3100.35 -1.57725 -3.37901 0
M  V30 31631 N 3102.53 0.994677 -1.22245 0
M  V30 31632 C 3103.95 1.25811 -0.982028 0
M  V30 31633 C 3104.15 1.98854 0.325453 0
M  V30 31634 O 3103.2 2.297 1.04853 0
M  V30 31635 C 3104.52 2.07164 -2.17954 0
M  V30 31636 C 3106.06 2.20354 -2.22291 0
M  V30 31637 C 3106.54 3.05092 -3.41588 0
M  V30 31638 N 3108.03 3.1268 -3.41739 0
M  V30 31639 C 3108.77 3.78532 -4.30699 0
M  V30 31640 N 3108.26 4.46326 -5.29873 0
M  V30 31641 N 3110.05 3.75275 -4.18479 0
M  V30 31642 H 3102.21 0.504926 -2.06311 0
M  V30 31643 H 3104.47 0.285602 -0.903955 0
M  V30 31644 H 3104.17 1.60853 -3.12761 0
M  V30 31645 H 3104.05 3.07918 -2.17867 0
M  V30 31646 H 3106.44 2.65879 -1.28032 0
M  V30 31647 H 3106.52 1.19035 -2.26416 0
M  V30 31648 H 3106.16 2.60268 -4.36146 0
M  V30 31649 H 3106.09 4.06549 -3.34702 0
M  V30 31650 H 3108.58 2.64429 -2.69974 0
M  V30 31651 H 3108.89 4.94309 -5.94035 0
M  V30 31652 H 3107.24 4.4508 -5.33787 0
M  V30 31653 H 3110.43 3.21472 -3.40255 0
M  V30 31654 H 3110.6 4.26317 -4.88014 0
M  V30 31655 N 3104.01 1.03186 1.19123 0
M  V30 31656 C 3104.94 0.573333 2.21913 0
M  V30 31657 C 3105.95 -0.352369 1.58941 0
M  V30 31658 O 3107.14 -0.148287 1.77883 0
M  V30 31659 C 3104.24 -0.183491 3.38403 0
M  V30 31660 C 3103.42 0.747893 4.30959 0
M  V30 31661 C 3102.48 0.0359414 5.26188 0
M  V30 31662 O 3101.5 0.663487 5.6532 0
M  V30 31663 N 3102.7 -1.23377 5.67237 0
M  V30 31664 H 3105.47 1.45739 2.61878 0
M  V30 31665 H 3103.03 0.911255 1.3382 0
M  V30 31666 H 3105.02 -0.669398 3.99125 0
M  V30 31667 H 3103.59 -0.96899 2.97203 0
M  V30 31668 H 3102.81 1.41383 3.67973 0
M  V30 31669 H 3104.1 1.3808 4.89705 0
M  V30 31670 H 3103.5 -1.7643 5.37484 0
M  V30 31671 H 3102.05 -1.66412 6.30199 0
M  V30 31672 N 3105.49 -1.35184 0.810125 0
M  V30 31673 C 3106.4 -2.33522 0.224606 0
M  V30 31674 C 3107.41 -1.62028 -0.634258 0
M  V30 31675 O 3108.59 -1.93881 -0.545177 0
M  V30 31676 C 3105.66 -3.41215 -0.614259 0
M  V30 31677 C 3104.72 -4.28478 0.26551 0
M  V30 31678 C 3103.95 -5.31028 -0.533412 0
M  V30 31679 O 3104.17 -5.42314 -1.76781 0
M  V30 31680 O 3103.11 -6.0185 0.0775631 0
M  V30 31681 H 3106.93 -2.85403 1.0382 0
M  V30 31682 H 3104.52 -1.38017 0.571988 0
M  V30 31683 H 3106.4 -4.07007 -1.09194 0
M  V30 31684 H 3105.07 -2.91599 -1.4054 0
M  V30 31685 H 3103.98 -3.65655 0.790407 0
M  V30 31686 H 3105.31 -4.81501 1.02068 0
M  V30 31687 N 3106.97 -0.56394 -1.47165 0
M  V30 31688 C 3108.21 -0.0424694 -2.02756 0
M  V30 31689 C 3108.55 1.30668 -1.43665 0
M  V30 31690 O 3107.82 1.85185 -0.594708 0
M  V30 31691 C 3108.1 0.043416 -3.60074 0
M  V30 31692 C 3107.96 -1.3333 -4.29585 0
M  V30 31693 C 3109.28 0.753492 -4.33602 0
M  V30 31694 H 3106.39 -0.0169076 -0.736806 0
M  V30 31695 H 3109.04 -0.727527 -1.75519 0
M  V30 31696 H 3107.19 0.626839 -3.8341 0
M  V30 31697 H 3108.86 -1.96045 -4.17569 0
M  V30 31698 H 3107.1 -1.90617 -3.89676 0
M  V30 31699 H 3107.77 -1.22586 -5.38216 0
M  V30 31700 H 3110.25 0.258053 -4.15299 0
M  V30 31701 H 3109.12 0.782564 -5.43293 0
M  V30 31702 H 3109.39 1.81101 -4.03305 0
M  V30 31703 N 3108.44 1.54704 -0.300735 0
M  V30 31704 C 3109.39 2.24961 0.591225 0
M  V30 31705 C 3110.39 1.25552 1.13723 0
M  V30 31706 O 3111.59 1.43404 1.0879 0
M  V30 31707 H 3107.97 0.722296 0.209265 0
M  V30 31708 H 3109.94 2.9839 -0.0238699 0
M  V30 31709 C 3108.69 3.00349 1.75174 0
M  V30 31710 H 3108.01 3.76646 1.34082 0
M  V30 31711 H 3109.45 3.5279 2.35192 0
M  V30 31712 C 3107.91 2.07302 2.6557 0
M  V30 31713 O 3108.44 1.64089 3.66657 0
M  V30 31714 N 3106.65 1.73264 2.33298 0
M  V30 31715 H 3106.19 2.08602 1.51139 0
M  V30 31716 H 3106.15 1.11283 2.94047 0
M  V30 31717 N 3109.92 0.0284543 1.57574 0
M  V30 31718 C 3111.33 -0.510471 1.79586 0
M  V30 31719 C 3111.68 -1.7229 0.938656 0
M  V30 31720 O 3110.81 -2.15887 0.148878 0
M  V30 31721 C 3111.4 -0.932855 3.25704 0
M  V30 31722 C 3109.96 -1.4169 3.48713 0
M  V30 31723 C 3109.11 -0.381308 2.74666 0
M  V30 31724 H 3112.06 0.254492 1.56646 0
M  V30 31725 H 3112.08 -1.79726 3.35379 0
M  V30 31726 H 3111.59 -0.0502353 3.88067 0
M  V30 31727 H 3109.7 -2.31947 2.91602 0
M  V30 31728 H 3109.81 -1.42473 4.57426 0
M  V30 31729 H 3108.17 -0.849258 2.40124 0
M  V30 31730 H 3108.96 0.492835 3.39744 0
M  V30 31731 N 3111.4 -1.55689 -0.244686 0
M  V30 31732 C 3112.65 -1.77887 -0.973855 0
M  V30 31733 C 3112.98 -0.594104 -1.84889 0
M  V30 31734 O 3112.25 0.407531 -1.90183 0
M  V30 31735 C 3112.54 -3.09987 -1.83249 0
M  V30 31736 C 3112.39 -4.38871 -0.985494 0
M  V30 31737 C 3113.71 -3.38334 -2.81458 0
M  V30 31738 H 3110.83 -0.647171 -0.352617 0
M  V30 31739 H 3113.47 -1.88424 -0.24421 0
M  V30 31740 H 3111.62 -3.01135 -2.45459 0
M  V30 31741 H 3113.29 -4.59716 -0.381924 0
M  V30 31742 H 3111.54 -4.3283 -0.289944 0
M  V30 31743 H 3112.21 -5.27689 -1.62013 0
M  V30 31744 H 3114.68 -3.47163 -2.29384 0
M  V30 31745 H 3113.56 -4.31977 -3.38655 0
M  V30 31746 H 3113.82 -2.59355 -3.58033 0
M  V30 31747 N 3112.88 0.510441 -1.49105 0
M  V30 31748 C 3114.29 0.840773 -1.35658 0
M  V30 31749 C 3114.49 1.97837 -0.382459 0
M  V30 31750 O 3113.55 2.5179 0.189286 0
M  V30 31751 C 3114.86 1.18987 -2.76157 0
M  V30 31752 C 3116.41 1.29863 -2.84789 0
M  V30 31753 C 3116.89 1.68107 -4.26033 0
M  V30 31754 N 3118.38 1.75174 -4.28799 0
M  V30 31755 C 3119.11 2.06191 -5.35045 0
M  V30 31756 N 3118.61 2.35496 -6.51547 0
M  V30 31757 N 3120.4 2.07362 -5.22453 0
M  V30 31758 H 3112.55 -0.239857 -2.11041 0
M  V30 31759 H 3114.82 -0.044699 -0.946946 0
M  V30 31760 H 3114.52 0.427423 -3.49093 0
M  V30 31761 H 3114.4 2.13553 -3.10926 0
M  V30 31762 H 3116.78 2.05182 -2.12095 0
M  V30 31763 H 3116.86 0.333713 -2.53614 0
M  V30 31764 H 3116.51 0.933424 -4.99249 0
M  V30 31765 H 3116.44 2.65683 -4.54665 0
M  V30 31766 H 3118.93 1.54724 -3.44773 0
M  V30 31767 H 3119.24 2.58325 -7.28346 0
M  V30 31768 H 3117.59 2.32973 -6.54789 0
M  V30 31769 H 3120.78 1.83937 -4.30447 0
M  V30 31770 H 3120.95 2.31201 -6.05351 0
M  V30 31771 N 3114.36 1.38021 0.760791 0
M  V30 31772 C 3115.29 1.30553 1.88384 0
M  V30 31773 C 3116.3 0.219147 1.61318 0
M  V30 31774 O 3117.49 0.476152 1.72032 0
M  V30 31775 C 3114.59 0.998348 3.23861 0
M  V30 31776 C 3113.76 2.19239 3.78488 0
M  V30 31777 C 3112.82 1.85377 4.92465 0
M  V30 31778 O 3111.85 2.57794 5.07475 0
M  V30 31779 N 3113.05 0.80442 5.74899 0
M  V30 31780 H 3115.82 2.27325 1.95304 0
M  V30 31781 H 3113.38 1.31788 0.9404 0
M  V30 31782 H 3115.37 0.75247 3.97643 0
M  V30 31783 H 3113.94 0.118825 3.12374 0
M  V30 31784 H 3113.16 2.59936 2.96356 0
M  V30 31785 H 3114.45 2.98943 4.11717 0
M  V30 31786 H 3113.84 0.203727 5.65333 0
M  V30 31787 H 3112.4 0.618415 6.4886 0
M  V30 31788 N 3115.83 -0.98818 1.22771 0
M  V30 31789 C 3116.74 -2.11339 1.01848 0
M  V30 31790 C 3117.76 -1.73965 -0.0346631 0
M  V30 31791 O 3118.94 -2.00771 0.159096 0
M  V30 31792 C 3116 -3.414 0.603897 0
M  V30 31793 C 3115.06 -3.92846 1.7312 0
M  V30 31794 C 3114.3 -5.167 1.3363 0
M  V30 31795 O 3114.52 -5.69987 0.217141 0
M  V30 31796 O 3113.45 -5.62017 2.15453 0
M  V30 31797 H 3117.28 -2.31876 1.96131 0
M  V30 31798 H 3114.86 -1.09713 1.01407 0
M  V30 31799 H 3116.75 -4.19653 0.38327 0
M  V30 31800 H 3115.42 -3.22212 -0.310026 0
M  V30 31801 H 3114.33 -3.15745 2.00639 0
M  V30 31802 H 3115.66 -4.16475 2.62316 0
M  V30 31803 N 3117.31 -1.03816 -1.18575 0
M  V30 31804 C 3118.56 -0.735268 -1.87821 0
M  V30 31805 C 3118.87 0.739787 -1.8107 0
M  V30 31806 O 3120.08 1.1561 -2.45656 0
M  V30 31807 C 3118.54 -1.26492 -3.36939 0
M  V30 31808 C 3118.14 -2.76842 -3.52225 0
M  V30 31809 C 3119.89 -1.03844 -4.11603 0
M  V30 31810 C 3117.8 -3.23178 -4.95288 0
M  V30 31811 H 3116.73 -0.271346 -0.703482 0
M  V30 31812 H 3119.38 -1.25367 -1.33998 0
M  V30 31813 H 3117.76 -0.674386 -3.90215 0
M  V30 31814 H 3118.93 -3.41631 -3.09233 0
M  V30 31815 H 3117.25 -2.97874 -2.90964 0
M  V30 31816 H 3119.84 -1.35979 -5.17121 0
M  V30 31817 H 3120.19 0.0244213 -4.16293 0
M  V30 31818 H 3120.72 -1.59345 -3.64492 0
M  V30 31819 H 3117.46 -4.28833 -4.95765 0
M  V30 31820 H 3116.98 -2.63123 -5.39005 0
M  V30 31821 H 3118.66 -3.17055 -5.6399 0
M  V30 31822 N 3118.79 1.34753 -0.817283 0
M  V30 31823 C 3119.7 2.334 -0.236987 0
M  V30 31824 C 3120.72 1.62362 0.625657 0
M  V30 31825 O 3121.89 1.94167 0.534887 0
M  V30 31826 C 3118.96 3.41536 0.596155 0
M  V30 31827 C 3118.02 4.28331 -0.28823 0
M  V30 31828 C 3117.25 5.31303 0.505243 0
M  V30 31829 O 3117.47 5.43244 1.73902 0
M  V30 31830 O 3116.41 6.018 -0.10948 0
M  V30 31831 H 3120.23 2.84849 -1.05333 0
M  V30 31832 H 3117.82 1.37712 -0.579299 0
M  V30 31833 H 3119.7 4.0758 1.07034 0
M  V30 31834 H 3118.38 2.92341 1.38991 0
M  V30 31835 H 3117.28 3.6523 -0.809788 0
M  V30 31836 H 3118.62 4.80953 -1.0462 0
M  V30 31837 N 3120.27 0.571737 1.46864 0
M  V30 31838 C 3121.49 0.0565019 2.07323 0
M  V30 31839 C 3121.92 -1.23429 1.4194 0
M  V30 31840 O 3121.28 -1.74287 0.499364 0
M  V30 31841 C 3121.33 -0.107276 3.6044 0
M  V30 31842 O 3120.43 -1.16643 3.95561 0
M  V30 31843 H 3119.77 0.0578581 0.661474 0
M  V30 31844 H 3122.3 0.791558 1.88668 0
M  V30 31845 H 3122.31 -0.316915 4.06767 0
M  V30 31846 H 3120.99 0.83542 4.07423 0
M  V30 31847 H 3119.56 -0.936125 3.60959 0
M  V30 31848 N 3121.75 -1.54542 0.308935 0
M  V30 31849 C 3122.66 -2.27497 -0.572899 0
M  V30 31850 C 3123.67 -1.31307 -1.14169 0
M  V30 31851 O 3124.85 -1.64301 -1.16478 0
M  V30 31852 C 3121.91 -3.00753 -1.72478 0
M  V30 31853 C 3120.98 -4.12498 -1.18927 0
M  V30 31854 C 3120.21 -4.82251 -2.28626 0
M  V30 31855 O 3120.43 -4.51416 -3.48683 0
M  V30 31856 O 3119.37 -5.69482 -1.94869 0
M  V30 31857 H 3123.19 -3.03694 0.0191411 0
M  V30 31858 H 3120.78 -1.49211 0.0751205 0
M  V30 31859 H 3122.66 -3.46675 -2.39571 0
M  V30 31860 H 3121.33 -2.27444 -2.30328 0
M  V30 31861 H 3120.24 -3.70958 -0.483839 0
M  V30 31862 H 3121.57 -4.87808 -0.6561 0
M  V30 31863 N 3123.23 -0.0368104 -1.57557 0
M  V30 31864 C 3124.45 0.650133 -1.9642 0
M  V30 31865 C 3124.87 1.65219 -0.913685 0
M  V30 31866 O 3124.23 1.82205 0.103686 0
M  V30 31867 C 3124.28 1.34974 -3.35357 0
M  V30 31868 O 3124 0.387828 -4.3638 0
M  V30 31869 C 3125.5 2.12779 -3.88896 0
M  V30 31870 H 3122.72 0.178745 -0.646754 0
M  V30 31871 H 3125.26 -0.0988556 -2.04261 0
M  V30 31872 H 3123.42 2.05007 -3.28711 0
M  V30 31873 H 3123.83 0.885506 -5.16971 0
M  V30 31874 H 3125.31 2.57172 -4.88433 0
M  V30 31875 H 3125.78 2.97003 -3.23552 0
M  V30 31876 H 3126.39 1.47687 -3.98834 0
M  V30 31877 N 3124.7 1.55817 0.236426 0
M  V30 31878 C 3125.93 1.82204 0.980263 0
M  V30 31879 C 3126.35 0.613957 1.78539 0
M  V30 31880 O 3125.7 -0.41746 1.77661 0
M  V30 31881 C 3125.75 3.06937 1.90977 0
M  V30 31882 O 3125.48 4.23083 1.13721 0
M  V30 31883 C 3126.98 3.46202 2.76873 0
M  V30 31884 H 3124.2 0.60606 0.28798 0
M  V30 31885 H 3126.74 2.02889 0.256146 0
M  V30 31886 H 3124.9 2.88271 2.58802 0
M  V30 31887 H 3125.31 4.93845 1.76685 0
M  V30 31888 H 3126.78 4.36554 3.37823 0
M  V30 31889 H 3127.26 2.67268 3.48517 0
M  V30 31890 H 3127.87 3.67256 2.14484 0
M  V30 31891 N 3126.18 -0.502526 1.49373 0
M  V30 31892 C 3127.41 -1.28553 1.62754 0
M  V30 31893 C 3127.83 -1.85719 0.298318 0
M  V30 31894 O 3127.19 -1.65784 -0.733856 0
M  V30 31895 C 3127.24 -2.39269 2.69783 0
M  V30 31896 O 3126.34 -3.43077 2.28849 0
M  V30 31897 H 3125.68 -0.379583 0.544805 0
M  V30 31898 H 3128.21 -0.601757 1.95551 0
M  V30 31899 H 3128.22 -2.85055 2.91904 0
M  V30 31900 H 3126.9 -1.97027 3.66269 0
M  V30 31901 H 3125.47 -3.0322 2.17053 0
M  V30 31902 N 3127.66 -1.38422 -0.75346 0
M  V30 31903 C 3128.57 -1.37896 -1.89795 0
M  V30 31904 C 3129.59 -0.276053 -1.71796 0
M  V30 31905 O 3130.76 -0.514498 -1.94717 0
M  V30 31906 C 3127.83 -1.2029 -3.25163 0
M  V30 31907 C 3126.89 -2.40386 -3.55687 0
M  V30 31908 C 3126.12 -2.23611 -4.84597 0
M  V30 31909 O 3126.34 -1.22988 -5.56983 0
M  V30 31910 O 3125.28 -3.12203 -5.146 0
M  V30 31911 H 3129.1 -2.34329 -1.93193 0
M  V30 31912 H 3126.69 -1.19343 -0.898754 0
M  V30 31913 H 3128.57 -1.12532 -4.06097 0
M  V30 31914 H 3127.25 -0.269409 -3.22577 0
M  V30 31915 H 3126.15 -2.53718 -2.74914 0
M  V30 31916 H 3127.49 -3.32366 -3.63034 0
M  V30 31917 N 3129.14 0.981655 -1.23294 0
M  V30 31918 C 3130.05 2.10796 -1.02967 0
M  V30 31919 C 3131.06 1.73981 0.0254368 0
M  V30 31920 O 3132.24 2.00683 -0.169741 0
M  V30 31921 C 3129.3 3.41075 -0.621994 0
M  V30 31922 C 3128.37 3.91922 -1.75201 0
M  V30 31923 C 3127.6 5.15984 -1.36368 0
M  V30 31924 O 3127.82 5.69863 -0.247365 0
M  V30 31925 O 3126.76 5.60867 -2.18431 0
M  V30 31926 H 3130.58 2.30832 -1.97358 0
M  V30 31927 H 3128.17 1.09174 -1.01988 0
M  V30 31928 H 3130.05 4.19444 -0.405519 0
M  V30 31929 H 3128.72 3.22372 0.292934 0
M  V30 31930 H 3127.63 3.14676 -2.02311 0
M  V30 31931 H 3128.96 4.15078 -2.64521 0
M  V30 31932 N 3130.62 1.04444 1.18022 0
M  V30 31933 C 3131.55 0.596838 2.21293 0
M  V30 31934 C 3132.56 -0.335492 1.59306 0
M  V30 31935 O 3133.75 -0.129411 1.7803 0
M  V30 31936 C 3130.85 -0.147588 3.38578 0
M  V30 31937 C 3130.02 0.79356 4.30141 0
M  V30 31938 C 3129.08 0.0917486 5.2612 0
M  V30 31939 O 3128.11 0.723409 5.64584 0
M  V30 31940 N 3129.31 -1.17354 5.68514 0
M  V30 31941 H 3132.07 1.48508 2.60318 0
M  V30 31942 H 3129.64 0.925397 1.32846 0
M  V30 31943 H 3131.63 -0.627028 3.99813 0
M  V30 31944 H 3130.2 -0.937414 2.98214 0
M  V30 31945 H 3129.42 1.45278 3.66453 0
M  V30 31946 H 3130.71 1.43266 4.88213 0
M  V30 31947 H 3130.1 -1.70719 5.39325 0
M  V30 31948 H 3128.66 -1.59718 6.31928 0
M  V30 31949 N 3132.09 -1.34317 0.824418 0
M  V30 31950 C 3133.34 -1.97497 0.409594 0
M  V30 31951 C 3133.66 -1.66085 -1.0332 0
M  V30 31952 O 3134.86 -2.22766 -1.55201 0
M  V30 31953 C 3133.32 -3.5339 0.681446 0
M  V30 31954 C 3132.93 -3.93694 2.13796 0
M  V30 31955 C 3134.67 -4.23193 0.332862 0
M  V30 31956 C 3132.58 -5.42505 2.35463 0
M  V30 31957 H 3131.51 -0.739046 0.149422 0
M  V30 31958 H 3134.16 -1.53139 1.01098 0
M  V30 31959 H 3132.54 -3.95999 0.00987336 0
M  V30 31960 H 3133.71 -3.62186 2.84882 0
M  V30 31961 H 3132.03 -3.36832 2.44813 0
M  V30 31962 H 3134.63 -5.32608 0.472556 0
M  V30 31963 H 3134.97 -4.09977 -0.72279 0
M  V30 31964 H 3135.5 -3.86066 0.959073 0
M  V30 31965 H 3132.24 -5.60708 3.39539 0
M  V30 31966 H 3131.76 -5.75522 1.68922 0
M  V30 31967 H 3133.44 -6.09205 2.17896 0
M  V30 31968 N 3133.57 -0.579517 -1.46558 0
M  V30 31969 C 3134.5 0.19333 -2.28383 0
M  V30 31970 C 3135.52 0.858487 -1.38325 0
M  V30 31971 O 3136.71 0.728586 -1.62954 0
M  V30 31972 C 3133.81 1.293 -3.13264 0
M  V30 31973 C 3132.98 0.720383 -4.31427 0
M  V30 31974 C 3132.04 1.70736 -4.97731 0
M  V30 31975 O 3131.06 1.24466 -5.55425 0
M  V30 31976 N 3132.27 3.04137 -4.9445 0
M  V30 31977 H 3135.03 -0.508663 -2.95352 0
M  V30 31978 H 3132.59 -0.417073 -1.56436 0
M  V30 31979 H 3134.58 1.95248 -3.54486 0
M  V30 31980 H 3133.15 1.8979 -2.48391 0
M  V30 31981 H 3132.37 -0.116468 -3.94028 0
M  V30 31982 H 3133.66 0.317541 -5.07808 0
M  V30 31983 H 3133.06 3.44355 -4.48817 0
M  V30 31984 H 3131.62 3.65583 -5.39623 0
M  V30 31985 N 3135.05 1.54376 -0.317127 0
M  V30 31986 C 3135.96 2.27798 0.560827 0
M  V30 31987 C 3136.98 1.3191 1.13471 0
M  V30 31988 O 3138.15 1.64916 1.15606 0
M  V30 31989 C 3135.22 3.01663 1.70881 0
M  V30 31990 C 3134.28 4.13123 1.16738 0
M  V30 31991 C 3133.51 4.83457 2.26065 0
M  V30 31992 O 3133.73 4.53258 3.46284 0
M  V30 31993 O 3132.67 5.70507 1.91846 0
M  V30 31994 H 3136.49 3.0368 -0.0352464 0
M  V30 31995 H 3134.08 1.49169 -0.0830325 0
M  V30 31996 H 3135.96 3.47941 2.3773 0
M  V30 31997 H 3134.64 2.28662 2.29118 0
M  V30 31998 H 3133.54 3.71209 0.464159 0
M  V30 31999 H 3134.88 4.88149 0.630221 0
M  V30 32000 N 3136.53 0.0451655 1.57535 0
M  V30 32001 C 3137.44 -0.946609 2.14654 0
M  V30 32002 C 3138.45 -1.34588 1.10282 0
M  V30 32003 O 3139.63 -1.42403 1.4242 0
M  V30 32004 C 3136.7 -2.2051 2.67537 0
M  V30 32005 C 3135.76 -1.86475 3.86686 0
M  V30 32006 C 3134.99 -3.06324 4.37037 0
M  V30 32007 O 3135.21 -4.19503 3.86488 0
M  V30 32008 O 3134.15 -2.87688 5.28696 0
M  V30 32009 H 3137.97 -0.490857 2.99707 0
M  V30 32010 H 3135.56 -0.176384 1.48355 0
M  V30 32011 H 3137.44 -2.9436 3.01547 0
M  V30 32012 H 3136.11 -2.65235 1.85559 0
M  V30 32013 H 3135.02 -1.0996 3.57575 0
M  V30 32014 H 3136.35 -1.46554 4.69875 0
M  V30 32015 N 3138.01 -1.5594 -0.228159 0
M  V30 32016 C 3138.95 -1.91873 -1.2827 0
M  V30 32017 C 3139.92 -0.775129 -1.46905 0
M  V30 32018 O 3141.11 -1.03044 -1.60582 0
M  V30 32019 C 3138.25 -2.23509 -2.62941 0
M  V30 32020 C 3137.36 -3.5077 -2.5216 0
M  V30 32021 C 3136.5 -3.71885 -3.79309 0
M  V30 32022 C 3135.54 -4.92682 -3.63223 0
M  V30 32023 N 3134.67 -5.1022 -4.82306 0
M  V30 32024 H 3139.51 -2.81797 -0.96926 0
M  V30 32025 H 3137.05 -1.3948 -0.467307 0
M  V30 32026 H 3139.01 -2.3986 -3.41355 0
M  V30 32027 H 3137.64 -1.36767 -2.92395 0
M  V30 32028 H 3136.69 -3.42649 -1.65215 0
M  V30 32029 H 3138 -4.39335 -2.36191 0
M  V30 32030 H 3137.16 -3.88296 -4.66167 0
M  V30 32031 H 3135.89 -2.81588 -3.98195 0
M  V30 32032 H 3134.9 -4.76228 -2.74749 0
M  V30 32033 H 3136.12 -5.84457 -3.45813 0
M  V30 32034 H 3134.07 -4.22865 -5.01519 0
M  V30 32035 H 3133.99 -5.92906 -4.69039 0
M  V30 32036 H 3135.26 -5.31061 -5.70609 0
M  V30 32037 N 3139.48 0.494597 -1.49638 0
M  V30 32038 C 3140.71 1.27688 -1.63433 0
M  V30 32039 C 3141.13 1.85559 -0.308163 0
M  V30 32040 O 3140.49 1.66171 0.725054 0
M  V30 32041 C 3140.54 2.37835 -2.71048 0
M  V30 32042 O 3139.64 3.41858 -2.30666 0
M  V30 32043 H 3138.99 0.376688 -0.546811 0
M  V30 32044 H 3141.52 0.591378 -1.95867 0
M  V30 32045 H 3141.53 2.83503 -2.93411 0
M  V30 32046 H 3140.2 1.95082 -3.67309 0
M  V30 32047 H 3138.78 3.02065 -2.18658 0
M  V30 32048 N 3140.96 1.3882 0.746109 0
M  V30 32049 C 3142.21 1.35437 1.50542 0
M  V30 32050 C 3142.54 -0.0532327 1.94427 0
M  V30 32051 O 3141.79 -1.03185 1.66287 0
M  V30 32052 C 3142.09 2.26291 2.76635 0
M  V30 32053 C 3141.76 3.74126 2.51675 0
M  V30 32054 C 3140.42 4.1441 2.44577 0
M  V30 32055 C 3142.77 4.67676 2.30063 0
M  V30 32056 C 3140.1 5.46321 2.13892 0
M  V30 32057 C 3142.45 5.99853 2.00897 0
M  V30 32058 C 3141.12 6.39212 1.9226 0
M  V30 32059 H 3140.39 0.4956 0.550874 0
M  V30 32060 H 3143.03 1.71238 0.857307 0
M  V30 32061 H 3141.34 1.83571 3.46134 0
M  V30 32062 H 3143.03 2.20973 3.34622 0
M  V30 32063 H 3139.62 3.42193 2.58074 0
M  V30 32064 H 3143.81 4.37394 2.34521 0
M  V30 32065 H 3139.06 5.75751 2.05719 0
M  V30 32066 H 3143.24 6.71877 1.83179 0
M  V30 32067 H 3140.87 7.41348 1.68248 0
M  V30 32068 N 3142.44 -0.975103 1.23812 0
M  V30 32069 C 3143.35 -2.10247 1.04084 0
M  V30 32070 C 3144.37 -1.73992 -0.0162098 0
M  V30 32071 O 3145.54 -2.00591 0.180381 0
M  V30 32072 C 3142.61 -3.4074 0.640073 0
M  V30 32073 C 3141.67 -3.90988 1.77277 0
M  V30 32074 C 3140.9 -5.15253 1.39103 0
M  V30 32075 O 3141.12 -5.69724 0.277583 0
M  V30 32076 O 3140.06 -5.59701 2.21402 0
M  V30 32077 H 3143.88 -2.29782 1.98579 0
M  V30 32078 H 3141.47 -1.08631 1.02565 0
M  V30 32079 H 3143.35 -4.19223 0.427758 0
M  V30 32080 H 3142.03 -3.22523 -0.275833 0
M  V30 32081 H 3140.93 -3.13599 2.03977 0
M  V30 32082 H 3142.27 -4.13669 2.66718 0
M  V30 32083 N 3143.92 -1.05068 -1.17467 0
M  V30 32084 C 3145.14 -0.780332 -1.9216 0
M  V30 32085 C 3145.57 0.657801 -1.76223 0
M  V30 32086 O 3144.93 1.45686 -1.07913 0
M  V30 32087 C 3144.97 -1.1642 -3.4129 0
M  V30 32088 O 3144.08 -0.295603 -4.11339 0
M  V30 32089 H 3143.42 -0.286268 -0.599122 0
M  V30 32090 H 3145.95 -1.4032 -1.48901 0
M  V30 32091 H 3145.96 -1.13043 -3.92027 0
M  V30 32092 H 3144.63 -2.21181 -3.5221 0
M  V30 32093 H 3143.21 -0.389863 -3.70856 0
M  V30 32094 N 3145.4 1.33878 -0.831529 0
M  V30 32095 C 3146.81 1.80387 -0.481406 0
M  V30 32096 C 3147.16 1.68864 0.998963 0
M  V30 32097 O 3146.28 1.23363 1.77793 0
M  V30 32098 C 3146.88 3.27518 -0.867048 0
M  V30 32099 C 3145.44 3.72072 -0.56917 0
M  V30 32100 C 3144.58 2.55432 -1.07934 0
M  V30 32101 H 3147.54 1.21503 -1.02091 0
M  V30 32102 H 3147.56 3.80101 -0.174195 0
M  V30 32103 H 3147.07 3.35872 -1.94452 0
M  V30 32104 H 3145.17 3.6925 0.498542 0
M  V30 32105 H 3145.28 4.65843 -1.11926 0
M  V30 32106 H 3143.65 2.49734 -0.500509 0
M  V30 32107 H 3144.43 2.66552 -2.16344 0
M  V30 32108 N 3146.87 0.587281 1.46249 0
M  V30 32109 C 3147.81 -0.181216 2.28482 0
M  V30 32110 C 3148.82 -0.851139 1.38778 0
M  V30 32111 O 3150.01 -0.719934 1.63338 0
M  V30 32112 C 3147.11 -1.27637 3.13946 0
M  V30 32113 C 3146.28 -0.697493 4.31803 0
M  V30 32114 C 3145.34 -1.68094 4.98629 0
M  V30 32115 O 3144.37 -1.21519 5.56077 0
M  V30 32116 N 3145.57 -3.01511 4.96056 0
M  V30 32117 H 3148.33 0.524319 2.95078 0
M  V30 32118 H 3145.89 0.425364 1.56212 0
M  V30 32119 H 3147.89 -1.93365 3.55517 0
M  V30 32120 H 3146.46 -1.88471 2.49394 0
M  V30 32121 H 3145.68 0.137362 3.93961 0
M  V30 32122 H 3146.96 -0.290606 5.07969 0
M  V30 32123 H 3146.36 -3.4197 4.50636 0
M  V30 32124 H 3144.92 -3.62716 5.41554 0
M  V30 32125 N 3148.35 -1.54206 0.325309 0
M  V30 32126 C 3149.3 -2.25873 -0.55536 0
M  V30 32127 C 3150.29 -1.27346 -1.11711 0
M  V30 32128 O 3151.5 -1.45116 -1.06495 0
M  V30 32129 H 3147.88 -0.725534 -0.197747 0
M  V30 32130 H 3149.85 -2.98315 0.0713382 0
M  V30 32131 C 3148.6 -3.03098 -1.70373 0
M  V30 32132 H 3147.92 -3.78731 -1.28073 0
M  V30 32133 H 3149.36 -3.56487 -2.2955 0
M  V30 32134 C 3147.82 -2.11501 -2.62238 0
M  V30 32135 O 3148.35 -1.69902 -3.64 0
M  V30 32136 N 3146.55 -1.76954 -2.30512 0
M  V30 32137 H 3146.1 -2.1098 -1.47801 0
M  V30 32138 H 3146.06 -1.15947 -2.92239 0
M  V30 32139 N 3149.83 -0.0535194 -1.57509 0
M  V30 32140 C 3151.06 0.63276 -1.97512 0
M  V30 32141 C 3151.48 1.63446 -0.930976 0
M  V30 32142 O 3150.84 1.80993 0.105526 0
M  V30 32143 C 3150.89 1.29401 -3.36582 0
M  V30 32144 O 3149.99 2.40971 -3.34674 0
M  V30 32145 H 3149.33 0.164298 -0.643352 0
M  V30 32146 H 3151.86 -0.122616 -2.04232 0
M  V30 32147 H 3151.87 1.64514 -3.73362 0
M  V30 32148 H 3150.55 0.559903 -4.12114 0
M  V30 32149 H 3149.12 2.07787 -3.09643 0
M  V30 32150 N 3151.31 1.56059 0.219886 0
M  V30 32151 C 3152.72 1.69314 0.786736 0
M  V30 32152 C 3153.07 0.655815 1.84915 0
M  V30 32153 O 3152.2 -0.192734 2.1554 0
M  V30 32154 C 3152.79 3.06965 1.43381 0
M  V30 32155 C 3151.35 3.22069 1.94804 0
M  V30 32156 C 3150.5 2.65242 0.808816 0
M  V30 32157 H 3153.45 1.58699 -0.00479567 0
M  V30 32158 H 3153.47 3.02915 2.30267 0
M  V30 32159 H 3152.98 3.82441 0.660338 0
M  V30 32160 H 3151.08 2.51465 2.74948 0
M  V30 32161 H 3151.2 4.29303 2.12686 0
M  V30 32162 H 3149.56 2.23767 1.21658 0
M  V30 32163 H 3150.34 3.43266 0.0479854 0
M  V30 32164 N 3152.79 -0.486655 1.49898 0
M  V30 32165 C 3153.75 -1.56888 1.67089 0
M  V30 32166 C 3154.75 -1.51386 0.542117 0
M  V30 32167 O 3155.94 -1.54283 0.808858 0
M  V30 32168 C 3153.07 -2.96536 1.68165 0
M  V30 32169 H 3154.27 -1.42969 2.63628 0
M  V30 32170 H 3151.82 -0.71193 1.39145 0
M  V30 32171 H 3152.55 -3.15916 0.732618 0
M  V30 32172 H 3152.34 -3.01937 2.50153 0
M  V30 32173 H 3153.83 -3.75137 1.83472 0
M  V30 32174 N 3154.27 -1.39214 -0.738737 0
M  V30 32175 C 3155.49 -1.395 -1.52799 0
M  V30 32176 C 3155.91 0.0114585 -1.88797 0
M  V30 32177 O 3155.27 0.98186 -1.53837 0
M  V30 32178 C 3155.32 -2.26445 -2.81789 0
M  V30 32179 O 3155.04 -3.61613 -2.47321 0
M  V30 32180 C 3156.54 -2.35073 -3.7584 0
M  V30 32181 H 3153.76 -0.476614 -0.472313 0
M  V30 32182 H 3156.3 -1.82982 -0.913121 0
M  V30 32183 H 3154.46 -1.86386 -3.39616 0
M  V30 32184 H 3154.87 -4.07551 -3.30155 0
M  V30 32185 H 3156.35 -3.00165 -4.63255 0
M  V30 32186 H 3156.82 -1.36877 -4.17326 0
M  V30 32187 H 3157.43 -2.75586 -3.23932 0
M  V30 32188 N 3155.74 0.968523 -1.24328 0
M  V30 32189 C 3156.65 2.09692 -1.05197 0
M  V30 32190 C 3157.67 1.73999 0.00698233 0
M  V30 32191 O 3158.85 2.00492 -0.191017 0
M  V30 32192 C 3155.91 3.40396 -0.658134 0
M  V30 32193 C 3154.97 3.90042 -1.79348 0
M  V30 32194 C 3154.2 5.14508 -1.41834 0
M  V30 32195 O 3154.43 5.69569 -0.307793 0
M  V30 32196 O 3153.36 5.58518 -2.24367 0
M  V30 32197 H 3157.19 2.28726 -1.99795 0
M  V30 32198 H 3154.77 1.08086 -1.0314 0
M  V30 32199 H 3156.65 4.18991 -0.449984 0
M  V30 32200 H 3155.33 3.22664 0.258725 0
M  V30 32201 H 3154.24 3.12513 -2.05637 0
M  V30 32202 H 3155.57 4.12249 -2.68908 0
M  V30 32203 N 3157.22 1.0569 1.16908 0
M  V30 32204 C 3158.15 0.620275 2.20647 0
M  V30 32205 C 3159.17 -0.318576 1.59653 0
M  V30 32206 O 3160.36 -0.110522 1.78158 0
M  V30 32207 C 3157.46 -0.111669 3.38716 0
M  V30 32208 C 3156.63 0.839138 4.29275 0
M  V30 32209 C 3155.69 0.147545 5.25993 0
M  V30 32210 O 3154.71 0.78325 5.63785 0
M  V30 32211 N 3155.92 -1.11317 5.69727 0
M  V30 32212 H 3158.68 1.51261 2.58728 0
M  V30 32213 H 3156.24 0.939435 1.31857 0
M  V30 32214 H 3158.23 -0.584587 4.00456 0
M  V30 32215 H 3156.8 -0.905731 2.99191 0
M  V30 32216 H 3156.02 1.49157 3.64892 0
M  V30 32217 H 3157.31 1.48436 4.86666 0
M  V30 32218 H 3156.71 -1.64989 5.41105 0
M  V30 32219 H 3155.27 -1.53007 6.33587 0
M  V30 32220 N 3158.7 -1.33435 0.838617 0
M  V30 32221 C 3159.93 -2.01999 0.44768 0
M  V30 32222 C 3160.34 -1.63098 -0.951024 0
M  V30 32223 O 3159.7 -0.844197 -1.61801 0
M  V30 32224 C 3159.75 -3.57161 0.558441 0
M  V30 32225 O 3159.47 -3.94657 1.90203 0
M  V30 32226 C 3160.97 -4.42995 0.164426 0
M  V30 32227 H 3158.19 -0.647029 0.177748 0
M  V30 32228 H 3160.74 -1.7037 1.13112 0
M  V30 32229 H 3158.89 -3.87323 -0.0770882 0
M  V30 32230 H 3159.31 -4.89365 1.88738 0
M  V30 32231 H 3160.78 -5.51222 0.292973 0
M  V30 32232 H 3161.26 -4.30013 -0.893638 0
M  V30 32233 H 3161.86 -4.18191 0.77438 0
M  V30 32234 N 3160.18 -0.595029 -1.45935 0
M  V30 32235 C 3161.43 -0.0829885 -2.01529 0
M  V30 32236 C 3161.74 1.28953 -1.47073 0
M  V30 32237 O 3162.95 1.8936 -1.94564 0
M  V30 32238 C 3161.4 -0.0977229 -3.59767 0
M  V30 32239 C 3161.01 -1.46932 -4.2322 0
M  V30 32240 C 3162.75 0.35973 -4.22973 0
M  V30 32241 C 3160.66 -1.44111 -5.73573 0
M  V30 32242 H 3159.59 -0.0272558 -0.753507 0
M  V30 32243 H 3162.24 -0.748502 -1.6754 0
M  V30 32244 H 3160.62 0.634199 -3.90889 0
M  V30 32245 H 3161.8 -2.22194 -4.03691 0
M  V30 32246 H 3160.11 -1.86781 -3.72158 0
M  V30 32247 H 3162.71 0.399817 -5.33203 0
M  V30 32248 H 3163.05 1.37984 -3.92767 0
M  V30 32249 H 3163.59 -0.31852 -3.96523 0
M  V30 32250 H 3160.32 -2.43842 -6.08458 0
M  V30 32251 H 3159.84 -0.730872 -5.9533 0
M  V30 32252 H 3161.52 -1.15932 -6.36529 0
M  V30 32253 N 3161.66 1.54031 -0.333483 0
M  V30 32254 C 3162.9 2.00744 0.266098 0
M  V30 32255 C 3163.23 1.2215 1.51359 0
M  V30 32256 O 3162.49 0.294402 1.93473 0
M  V30 32257 C 3162.78 3.51703 0.635588 0
M  V30 32258 C 3162.45 4.47962 -0.513865 0
M  V30 32259 C 3161.11 4.73999 -0.829337 0
M  V30 32260 C 3163.46 5.05099 -1.28549 0
M  V30 32261 C 3160.79 5.54429 -1.91898 0
M  V30 32262 C 3163.14 5.86716 -2.3653 0
M  V30 32263 C 3161.81 6.11052 -2.68648 0
M  V30 32264 H 3161.08 0.734574 0.0973721 0
M  V30 32265 H 3163.73 1.8591 -0.459315 0
M  V30 32266 H 3162.03 3.64316 1.44157 0
M  V30 32267 H 3163.73 3.85296 1.11122 0
M  V30 32268 H 3160.32 4.27823 -0.257915 0
M  V30 32269 H 3164.5 4.84957 -1.05502 0
M  V30 32270 H 3159.76 5.71512 -2.17218 0
M  V30 32271 H 3163.93 6.30006 -2.96758 0
M  V30 32272 H 3161.56 6.73162 -3.53209 0
M  V30 32273 N 3163.13 0.0618717 1.57479 0
M  V30 32274 C 3164.41 -0.649961 1.84485 0
M  V30 32275 C 3164.79 -1.88395 0.9524 0
M  V30 32276 O 3164.14 -2.28494 0.0161437 0
M  V30 32277 C 3164.35 -0.997074 3.34454 0
M  V30 32278 C 3165.7 -1.37481 4.01727 0
M  V30 32279 O 3166.72 -1.0891 3.39142 0
M  V30 32280 O 3165.58 -1.90845 5.12094 0
M  V30 32281 H 3162.67 -0.321844 0.761804 0
M  V30 32282 H 3165.22 0.0920489 1.6945 0
M  V30 32283 H 3163.99 -0.120232 3.91115 0
M  V30 32284 H 3163.61 -1.79618 3.54716 0
M  V30 32285 N 3164.61 -1.56173 -0.211607 0
M  V30 32286 C 3165.84 -1.84089 -0.955291 0
M  V30 32287 C 3166.26 -0.643438 -1.76753 0
M  V30 32288 O 3165.62 0.407811 -1.76654 0
M  V30 32289 C 3165.67 -3.10089 -1.84058 0
M  V30 32290 O 3164.77 -2.89481 -2.93725 0
M  V30 32291 H 3164.11 -0.606649 -0.269949 0
M  V30 32292 H 3166.64 -2.03393 -0.221911 0
M  V30 32293 H 3166.65 -3.40453 -2.24846 0
M  V30 32294 H 3165.33 -3.9687 -1.24366 0
M  V30 32295 H 3163.91 -2.70375 -2.56811 0
M  V30 32296 N 3166.09 0.478699 -1.50154 0
M  V30 32297 C 3167.02 1.59491 -1.64606 0
M  V30 32298 C 3168.04 1.54006 -0.527816 0
M  V30 32299 O 3169.22 1.59533 -0.800718 0
M  V30 32300 C 3166.32 2.98354 -1.60743 0
M  V30 32301 C 3165.5 3.28789 -2.88473 0
M  V30 32302 C 3164.56 4.47168 -2.77357 0
M  V30 32303 O 3163.58 4.47851 -3.5131 0
M  V30 32304 N 3164.78 5.48387 -1.904 0
M  V30 32305 H 3167.55 1.47513 -2.60883 0
M  V30 32306 H 3165.11 0.666985 -1.47523 0
M  V30 32307 H 3167.1 3.75503 -1.5093 0
M  V30 32308 H 3165.67 3.0414 -0.722326 0
M  V30 32309 H 3164.89 2.40324 -3.12471 0
M  V30 32310 H 3166.18 3.4593 -3.73108 0
M  V30 32311 H 3165.58 5.50651 -1.29616 0
M  V30 32312 H 3164.14 6.2455 -1.86495 0
M  V30 32313 N 3167.57 1.39603 0.731343 0
M  V30 32314 C 3168.8 1.40308 1.52057 0
M  V30 32315 C 3169.21 -0.00144602 1.888 0
M  V30 32316 O 3168.57 -0.973688 1.54355 0
M  V30 32317 C 3168.62 2.27936 2.80584 0
M  V30 32318 O 3168.34 3.62919 2.454 0
M  V30 32319 C 3169.84 2.37063 3.74588 0
M  V30 32320 H 3167.06 0.479112 0.469779 0
M  V30 32321 H 3169.61 1.83464 0.903404 0
M  V30 32322 H 3167.76 1.88184 3.38623 0
M  V30 32323 H 3168.17 4.09296 3.27989 0
M  V30 32324 H 3169.65 3.02617 4.61657 0
M  V30 32325 H 3170.13 1.39089 4.16594 0
M  V30 32326 H 3170.73 2.773 3.22466 0
M  V30 32327 N 3169.05 -0.961916 1.2484 0
M  V30 32328 C 3170.29 -1.70562 1.09154 0
M  V30 32329 C 3170.62 -1.90974 -0.368686 0
M  V30 32330 O 3169.88 -1.47295 -1.28852 0
M  V30 32331 C 3170.18 -3.09751 1.78295 0
M  V30 32332 C 3169.84 -3.09163 3.28221 0
M  V30 32333 C 3168.5 -3.0871 3.69123 0
M  V30 32334 C 3170.86 -3.0305 4.2404 0
M  V30 32335 C 3168.18 -2.99883 5.04269 0
M  V30 32336 C 3170.54 -2.95766 5.59201 0
M  V30 32337 C 3169.2 -2.93644 5.99441 0
M  V30 32338 H 3168.47 -0.624132 0.399425 0
M  V30 32339 H 3171.12 -1.12435 1.55018 0
M  V30 32340 H 3169.42 -3.71378 1.24842 0
M  V30 32341 H 3171.12 -3.66101 1.63618 0
M  V30 32342 H 3167.71 -3.10283 2.95672 0
M  V30 32343 H 3171.89 -3.02525 3.93437 0
M  V30 32344 H 3167.15 -2.96605 5.34636 0
M  V30 32345 H 3171.32 -2.89996 6.33147 0
M  V30 32346 H 3168.95 -2.86561 7.04121 0
M  V30 32347 N 3170.52 -1.06308 -1.16346 0
M  V30 32348 C 3171.75 -0.800647 -1.90781 0
M  V30 32349 C 3172.17 0.645002 -1.77441 0
M  V30 32350 O 3171.52 1.44158 -1.11914 0
M  V30 32351 C 3171.58 -1.18627 -3.41482 0
M  V30 32352 O 3171.3 -2.57519 -3.54423 0
M  V30 32353 C 3172.8 -0.951601 -4.32966 0
M  V30 32354 H 3170.02 -0.290258 -0.604972 0
M  V30 32355 H 3172.56 -1.41675 -1.47474 0
M  V30 32356 H 3170.72 -0.6147 -3.82492 0
M  V30 32357 H 3171.13 -2.72962 -4.47875 0
M  V30 32358 H 3172.6 -1.27105 -5.37167 0
M  V30 32359 H 3173.08 0.112657 -4.39055 0
M  V30 32360 H 3173.69 -1.50756 -3.97684 0
M  V30 32361 N 3172 1.32989 -0.845682 0
M  V30 32362 C 3172.91 2.32845 -0.286441 0
M  V30 32363 C 3173.93 1.63653 0.591076 0
M  V30 32364 O 3175.1 1.95258 0.493581 0
M  V30 32365 C 3172.17 3.42724 0.523576 0
M  V30 32366 C 3171.23 4.27624 -0.37902 0
M  V30 32367 C 3170.46 5.32255 0.392432 0
M  V30 32368 O 3170.69 5.46811 1.6234 0
M  V30 32369 O 3169.62 6.01433 -0.237106 0
M  V30 32370 H 3173.45 2.8255 -1.11351 0
M  V30 32371 H 3171.03 1.36452 -0.60838 0
M  V30 32372 H 3172.91 4.09759 0.983646 0
M  V30 32373 H 3171.59 2.95223 1.32759 0
M  V30 32374 H 3170.5 3.63431 -0.887076 0
M  V30 32375 H 3171.83 4.78625 -1.14798 0
M  V30 32376 N 3173.48 0.60276 1.45618 0
M  V30 32377 C 3174.71 0.10229 2.06647 0
M  V30 32378 C 3175.12 -1.21128 1.44822 0
M  V30 32379 O 3174.48 -1.73675 0.560651 0
M  V30 32380 C 3174.53 -0.0489478 3.61467 0
M  V30 32381 O 3174.25 1.21265 4.20983 0
M  V30 32382 C 3175.75 -0.581439 4.3947 0
M  V30 32383 H 3172.97 0.0666273 0.667684 0
M  V30 32384 H 3175.52 0.829123 1.86938 0
M  V30 32385 H 3173.67 -0.726087 3.80535 0
M  V30 32386 H 3174.09 1.03924 5.14101 0
M  V30 32387 H 3175.56 -0.636366 5.4832 0
M  V30 32388 H 3176.04 -1.6027 4.08913 0
M  V30 32389 H 3176.64 0.0614937 4.25256 0
M  V30 32390 N 3174.96 -1.53852 0.341647 0
M  V30 32391 C 3175.87 -2.28661 -0.524515 0
M  V30 32392 C 3176.88 -1.33699 -1.11358 0
M  V30 32393 O 3178.06 -1.66734 -1.12967 0
M  V30 32394 C 3175.13 -3.04344 -1.6606 0
M  V30 32395 C 3174.19 -4.14928 -1.10151 0
M  V30 32396 C 3173.42 -4.86992 -2.18345 0
M  V30 32397 O 3173.64 -4.5871 -3.3903 0
M  V30 32398 O 3172.58 -5.73487 -1.82746 0
M  V30 32399 H 3176.4 -3.03585 0.0835547 0
M  V30 32400 H 3173.99 -1.49018 0.106753 0
M  V30 32401 H 3175.87 -3.51679 -2.32164 0
M  V30 32402 H 3174.54 -2.32279 -2.25451 0
M  V30 32403 H 3173.45 -3.71901 -0.405044 0
M  V30 32404 H 3174.78 -4.89089 -0.552481 0
M  V30 32405 N 3176.44 -0.0702223 -1.57443 0
M  V30 32406 C 3177.37 0.895138 -2.15661 0
M  V30 32407 C 3178.35 1.31149 -1.08323 0
M  V30 32408 O 3179.53 1.38282 -1.36351 0
M  V30 32409 C 3176.66 2.16329 -2.71697 0
M  V30 32410 C 3175.62 1.88639 -3.84187 0
M  V30 32411 C 3174.94 3.22071 -4.26819 0
M  V30 32412 C 3176.24 1.1929 -5.08495 0
M  V30 32413 H 3177.94 0.410165 -2.96577 0
M  V30 32414 H 3175.48 0.195847 -1.42662 0
M  V30 32415 H 3177.44 2.84278 -3.11069 0
M  V30 32416 H 3176.16 2.67065 -1.87999 0
M  V30 32417 H 3174.82 1.23095 -3.45316 0
M  V30 32418 H 3174.47 3.70645 -3.40046 0
M  V30 32419 H 3174.17 3.04335 -5.02647 0
M  V30 32420 H 3175.69 3.9122 -4.68806 0
M  V30 32421 H 3177.1 1.77306 -5.45193 0
M  V30 32422 H 3175.5 1.11818 -5.8959 0
M  V30 32423 H 3176.57 0.171754 -4.84596 0
M  V30 32424 N 3177.91 1.56283 0.203321 0
M  V30 32425 C 3178.86 1.9389 1.25202 0
M  V30 32426 C 3179.83 0.798402 1.45653 0
M  V30 32427 O 3181.02 1.05586 1.58922 0
M  V30 32428 C 3178.16 2.27664 2.59351 0
M  V30 32429 C 3177.27 3.54737 2.46547 0
M  V30 32430 C 3176.4 3.77872 3.73345 0
M  V30 32431 C 3175.44 4.98398 3.55339 0
M  V30 32432 N 3174.58 5.17829 4.74128 0
M  V30 32433 H 3179.42 2.83303 0.924306 0
M  V30 32434 H 3176.96 1.40206 0.445058 0
M  V30 32435 H 3178.92 2.4526 3.37496 0
M  V30 32436 H 3177.55 1.41401 2.90182 0
M  V30 32437 H 3176.6 3.45234 1.59743 0
M  V30 32438 H 3177.91 4.43037 2.29172 0
M  V30 32439 H 3177.06 3.95663 4.5993 0
M  V30 32440 H 3175.8 2.87887 3.93665 0
M  V30 32441 H 3174.81 4.80539 2.67138 0
M  V30 32442 H 3176.03 5.89885 3.36471 0
M  V30 32443 H 3173.98 4.3079 4.94728 0
M  V30 32444 H 3173.9 6.00293 4.59547 0
M  V30 32445 H 3175.16 5.40071 5.62088 0
M  V30 32446 N 3179.39 -0.470729 1.50406 0
M  V30 32447 C 3180.62 -1.24605 1.6517 0
M  V30 32448 C 3181.04 -1.85801 0.335186 0
M  V30 32449 O 3180.39 -1.69242 -0.68289 0
M  V30 32450 C 3180.44 -2.3545 2.74309 0
M  V30 32451 O 3180.17 -1.76764 4.00857 0
M  V30 32452 C 3181.67 -3.26321 3.0005 0
M  V30 32453 H 3178.89 -0.376832 0.555192 0
M  V30 32454 H 3181.43 -0.561835 1.96631 0
M  V30 32455 H 3179.59 -2.99647 2.45542 0
M  V30 32456 H 3180 -2.49761 4.61215 0
M  V30 32457 H 3181.47 -4.00307 3.80077 0
M  V30 32458 H 3181.95 -3.85122 2.11134 0
M  V30 32459 H 3182.56 -2.6786 3.3035 0
M  V30 32460 N 3180.87 -1.39989 -0.72393 0
M  V30 32461 C 3182.1 -1.41112 -1.51311 0
M  V30 32462 C 3182.51 -0.00856652 -1.88798 0
M  V30 32463 O 3181.87 0.965488 -1.5487 0
M  V30 32464 C 3181.92 -2.29421 -2.79371 0
M  V30 32465 O 3181.64 -3.64216 -2.43472 0
M  V30 32466 C 3183.14 -2.39046 -3.73325 0
M  V30 32467 H 3180.36 -0.481597 -0.467231 0
M  V30 32468 H 3182.91 -1.8394 -0.893662 0
M  V30 32469 H 3181.06 -1.89977 -3.3762 0
M  V30 32470 H 3181.48 -4.1103 -3.25814 0
M  V30 32471 H 3182.95 -3.05061 -4.60045 0
M  V30 32472 H 3183.43 -1.41296 -4.15851 0
M  V30 32473 H 3184.03 -2.79007 -3.20991 0
M  V30 32474 N 3182.35 0.955282 -1.25348 0
M  V30 32475 C 3183.63 1.67607 -1.00832 0
M  V30 32476 C 3184.01 2.05901 0.465639 0
M  V30 32477 O 3183.35 1.77185 1.44284 0
M  V30 32478 C 3183.56 2.89883 -1.94342 0
M  V30 32479 C 3184.91 3.6185 -2.22148 0
M  V30 32480 O 3185.94 2.99963 -1.92095 0
M  V30 32481 O 3184.8 4.73284 -2.73248 0
M  V30 32482 H 3181.89 0.733318 -0.382327 0
M  V30 32483 H 3184.44 1.00826 -1.365 0
M  V30 32484 H 3183.21 2.58371 -2.93871 0
M  V30 32485 H 3182.83 3.64394 -1.59068 0
M  V30 32486 N 3183.83 1.06924 1.1578 0
M  V30 32487 C 3185.06 0.809578 1.90077 0
M  V30 32488 C 3185.47 -0.640491 1.78029 0
M  V30 32489 O 3184.81 -1.45071 1.12694 0
M  V30 32490 C 3184.87 1.13308 3.41177 0
M  V30 32491 C 3184.53 2.58287 3.77011 0
M  V30 32492 C 3185.53 3.56528 3.78397 0
M  V30 32493 C 3183.22 2.93752 4.0745 0
M  V30 32494 C 3185.21 4.88271 4.0972 0
M  V30 32495 C 3182.9 4.25693 4.38439 0
M  V30 32496 C 3183.9 5.22763 4.39555 0
M  V30 32497 O 3183.58 6.52335 4.69803 0
M  V30 32498 H 3183.32 0.292605 0.609392 0
M  V30 32499 H 3185.87 1.42787 1.47652 0
M  V30 32500 H 3184.1 0.457744 3.83981 0
M  V30 32501 H 3185.79 0.856656 3.96757 0
M  V30 32502 H 3186.55 3.30471 3.54985 0
M  V30 32503 H 3182.43 2.18848 4.05742 0
M  V30 32504 H 3185.98 5.64031 4.10506 0
M  V30 32505 H 3181.87 4.51505 4.61317 0
M  V30 32506 H 3182.64 6.5742 4.87587 0
M  V30 32507 N 3185.31 -1.32538 0.852723 0
M  V30 32508 C 3186.53 -2.02046 0.468192 0
M  V30 32509 C 3186.96 -1.63675 -0.926939 0
M  V30 32510 O 3186.31 -0.836406 -1.60854 0
M  V30 32511 C 3186.36 -3.55359 0.612582 0
M  V30 32512 O 3185.47 -4.10865 -0.355434 0
M  V30 32513 H 3184.81 -0.636708 0.188412 0
M  V30 32514 H 3187.34 -1.69128 1.15138 0
M  V30 32515 H 3187.35 -4.04932 0.499386 0
M  V30 32516 H 3186.02 -3.8263 1.62995 0
M  V30 32517 H 3184.6 -3.72371 -0.198638 0
M  V30 32518 N 3186.78 -0.610474 -1.45296 0
M  V30 32519 C 3188.03 -0.106953 -2.02518 0
M  V30 32520 C 3188.36 1.26031 -1.47749 0
M  V30 32521 O 3187.64 1.83199 -0.653323 0
M  V30 32522 C 3187.92 -0.0711608 -3.6003 0
M  V30 32523 C 3187.77 -1.4693 -4.25126 0
M  V30 32524 C 3189.09 0.615163 -4.35779 0
M  V30 32525 H 3186.21 -0.0403399 -0.735895 0
M  V30 32526 H 3188.85 -0.782999 -1.73116 0
M  V30 32527 H 3187 0.504543 -3.8521 0
M  V30 32528 H 3188.68 -2.0923 -4.11121 0
M  V30 32529 H 3186.92 -2.02917 -3.83415 0
M  V30 32530 H 3187.59 -1.39647 -5.34044 0
M  V30 32531 H 3190.07 0.125798 -4.1591 0
M  V30 32532 H 3188.94 0.609323 -5.45508 0
M  V30 32533 H 3189.2 1.68178 -4.08862 0
M  V30 32534 N 3188.26 1.53669 -0.349801 0
M  V30 32535 C 3189.19 2.28165 0.496298 0
M  V30 32536 C 3190.17 1.2997 1.09735 0
M  V30 32537 O 3191.36 1.58821 1.11757 0
M  V30 32538 C 3188.49 3.05913 1.64422 0
M  V30 32539 C 3187.44 4.11664 1.1712 0
M  V30 32540 C 3186.77 4.77402 2.40813 0
M  V30 32541 C 3188.07 5.21616 0.267202 0
M  V30 32542 H 3189.76 2.99138 -0.12517 0
M  V30 32543 H 3187.31 1.43868 -0.0616405 0
M  V30 32544 H 3189.26 3.56769 2.24263 0
M  V30 32545 H 3187.98 2.32602 2.29268 0
M  V30 32546 H 3186.64 3.6173 0.59557 0
M  V30 32547 H 3186.29 4.00679 3.04081 0
M  V30 32548 H 3185.99 5.48853 2.09843 0
M  V30 32549 H 3187.52 5.31045 3.01369 0
M  V30 32550 H 3188.93 5.6807 0.772634 0
M  V30 32551 H 3187.33 6.0008 0.0490936 0
M  V30 32552 H 3188.4 4.79894 -0.694977 0
M  V30 32553 N 3189.74 0.0785709 1.57404 0
M  V30 32554 C 3190.97 -0.597827 1.98075 0
M  V30 32555 C 3191.38 -1.62738 0.957169 0
M  V30 32556 O 3190.74 -1.82416 -0.0553407 0
M  V30 32557 C 3190.79 -1.26035 3.38818 0
M  V30 32558 O 3190.51 -0.271993 4.37255 0
M  V30 32559 C 3192.01 -2.02393 3.94401 0
M  V30 32560 H 3189.23 -0.161534 0.651266 0
M  V30 32561 H 3191.78 0.152977 2.03927 0
M  V30 32562 H 3189.93 -1.96219 3.34031 0
M  V30 32563 H 3190.35 -0.748129 5.19137 0
M  V30 32564 H 3191.82 -2.44131 4.9508 0
M  V30 32565 H 3192.3 -2.8832 3.31313 0
M  V30 32566 H 3192.9 -1.37061 4.0261 0
M  V30 32567 N 3191.22 -1.56389 -0.19503 0
M  V30 32568 C 3192.45 -1.84739 -0.93161 0
M  V30 32569 C 3192.86 -0.661077 -1.76848 0
M  V30 32570 O 3192.22 0.370209 -1.78706 0
M  V30 32571 C 3192.27 -3.11892 -1.82772 0
M  V30 32572 O 3191.99 -4.25949 -1.02464 0
M  V30 32573 C 3193.49 -3.53422 -2.67597 0
M  V30 32574 H 3190.71 -0.613482 -0.27181 0
M  V30 32575 H 3193.25 -2.03497 -0.202264 0
M  V30 32576 H 3191.41 -2.95031 -2.51068 0
M  V30 32577 H 3191.82 -4.98356 -1.6353 0
M  V30 32578 H 3193.3 -4.45358 -3.2613 0
M  V30 32579 H 3193.77 -2.76414 -3.41309 0
M  V30 32580 H 3194.38 -3.72813 -2.04671 0
M  V30 32581 N 3192.7 0.462746 -1.50653 0
M  V30 32582 C 3193.64 1.55968 -1.70125 0
M  V30 32583 C 3194.61 1.56987 -0.542609 0
M  V30 32584 O 3195.8 1.74389 -0.774145 0
M  V30 32585 C 3192.94 2.93884 -1.80904 0
M  V30 32586 C 3192.05 3.0259 -3.08324 0
M  V30 32587 C 3191.19 4.31471 -3.09848 0
M  V30 32588 C 3190.22 4.3395 -4.31687 0
M  V30 32589 N 3189.36 5.54316 -4.30904 0
M  V30 32590 H 3194.2 1.3867 -2.6377 0
M  V30 32591 H 3191.74 0.674068 -1.30747 0
M  V30 32592 H 3193.7 3.73873 -1.85135 0
M  V30 32593 H 3192.33 3.09798 -0.906908 0
M  V30 32594 H 3191.38 2.15421 -3.13525 0
M  V30 32595 H 3192.69 3.00281 -3.98287 0
M  V30 32596 H 3191.84 5.19814 -3.12854 0
M  V30 32597 H 3190.58 4.364 -2.17729 0
M  V30 32598 H 3189.59 3.44003 -4.28885 0
M  V30 32599 H 3190.81 4.30706 -5.25042 0
M  V30 32600 H 3188.76 5.60014 -3.41643 0
M  V30 32601 H 3188.68 5.53783 -5.14646 0
M  V30 32602 H 3189.94 6.44761 -4.38068 0
M  V30 32603 N 3194.17 1.40371 0.716495 0
M  V30 32604 C 3195.12 1.40565 1.83058 0
M  V30 32605 C 3196.09 0.262726 1.64009 0
M  V30 32606 O 3197.28 0.460651 1.85156 0
M  V30 32607 C 3194.42 1.27312 3.20758 0
M  V30 32608 C 3193.53 2.51303 3.51384 0
M  V30 32609 C 3192.66 2.30499 4.78585 0
M  V30 32610 C 3191.7 3.5007 5.02113 0
M  V30 32611 N 3190.84 3.28468 6.20527 0
M  V30 32612 H 3195.68 2.35791 1.82227 0
M  V30 32613 H 3193.22 1.17108 0.890177 0
M  V30 32614 H 3195.18 1.17635 4.00272 0
M  V30 32615 H 3193.81 0.357061 3.20819 0
M  V30 32616 H 3192.86 2.71511 2.66432 0
M  V30 32617 H 3194.17 3.40308 3.6468 0
M  V30 32618 H 3193.32 2.1817 5.66115 0
M  V30 32619 H 3192.06 1.38917 4.67497 0
M  V30 32620 H 3191.07 3.62877 4.13038 0
M  V30 32621 H 3192.29 4.42578 5.15074 0
M  V30 32622 H 3190.24 2.39567 6.10691 0
M  V30 32623 H 3190.16 4.11038 6.34495 0
M  V30 32624 H 3191.42 3.1987 7.10847 0
M  V30 32625 N 3195.65 -0.948621 1.25853 0
M  V30 32626 C 3196.88 -1.72849 1.13714 0
M  V30 32627 C 3197.3 -1.86264 -0.308438 0
M  V30 32628 O 3196.65 -1.36468 -1.21173 0
M  V30 32629 C 3196.7 -3.13915 1.79276 0
M  V30 32630 O 3196.42 -3.01149 3.18184 0
M  V30 32631 C 3197.93 -4.08151 1.72995 0
M  V30 32632 H 3195.15 -0.541436 0.396344 0
M  V30 32633 H 3197.69 -1.18971 1.66331 0
M  V30 32634 H 3195.84 -3.64717 1.30615 0
M  V30 32635 H 3196.26 -3.9018 3.50514 0
M  V30 32636 H 3197.73 -5.04721 2.23519 0
M  V30 32637 H 3198.21 -4.33667 0.694942 0
M  V30 32638 H 3198.82 -3.63267 2.21173 0
M  V30 32639 N 3197.13 -1.07536 -1.15212 0
M  V30 32640 C 3198.36 -0.819647 -1.89645 0
M  V30 32641 C 3198.77 0.631041 -1.78366 0
M  V30 32642 O 3198.11 1.44472 -1.13462 0
M  V30 32643 C 3198.17 -1.15116 -3.40571 0
M  V30 32644 C 3197.84 -2.60282 -3.75636 0
M  V30 32645 C 3198.83 -3.58529 -3.76501 0
M  V30 32646 C 3196.52 -2.95908 -4.05886 0
M  V30 32647 C 3198.51 -4.90437 -4.07125 0
M  V30 32648 C 3196.2 -4.28012 -4.36175 0
M  V30 32649 C 3197.2 -5.25086 -4.36776 0
M  V30 32650 O 3196.89 -6.54817 -4.66337 0
M  V30 32651 H 3196.62 -0.295833 -0.607831 0
M  V30 32652 H 3199.17 -1.43568 -1.46892 0
M  V30 32653 H 3197.4 -0.478101 -3.83733 0
M  V30 32654 H 3199.09 -0.877685 -3.96297 0
M  V30 32655 H 3199.86 -3.32349 -3.53227 0
M  V30 32656 H 3195.74 -2.20996 -4.04576 0
M  V30 32657 H 3199.28 -5.662 -4.07509 0
M  V30 32658 H 3195.18 -4.53945 -4.58916 0
M  V30 32659 H 3195.95 -6.59997 -4.84093 0
M  V30 32660 N 3198.61 1.32084 -0.85974 0
M  V30 32661 C 3199.83 2.01795 -0.478901 0
M  V30 32662 C 3200.26 1.64164 0.918246 0
M  V30 32663 O 3199.62 0.844924 1.60408 0
M  V30 32664 C 3199.66 3.55029 -0.631419 0
M  V30 32665 O 3198.77 4.11048 0.333639 0
M  V30 32666 H 3198.11 0.6357 -0.191786 0
M  V30 32667 H 3200.64 1.68515 -1.16034 0
M  V30 32668 H 3200.65 4.04662 -0.520854 0
M  V30 32669 H 3199.32 3.8176 -1.65022 0
M  V30 32670 H 3197.9 3.72471 0.178887 0
M  V30 32671 N 3200.09 0.618171 1.4497 0
M  V30 32672 C 3201.36 0.0490238 1.95539 0
M  V30 32673 C 3201.74 -1.42176 1.56042 0
M  V30 32674 O 3201.09 -2.12965 0.828128 0
M  V30 32675 C 3201.3 0.258254 3.48043 0
M  V30 32676 C 3202.65 0.144616 4.24354 0
M  V30 32677 O 3203.67 0.188932 3.55699 0
M  V30 32678 O 3202.53 0.038615 5.46486 0
M  V30 32679 H 3199.63 -0.0297111 0.826466 0
M  V30 32680 H 3202.17 0.688971 1.55085 0
M  V30 32681 H 3200.94 1.27932 3.69796 0
M  V30 32682 H 3200.57 -0.416453 3.95413 0
M  V30 32683 N 3201.56 -1.53481 0.357946 0
M  V30 32684 C 3202.84 -1.93436 -0.29013 0
M  V30 32685 C 3203.22 -1.29082 -1.67036 0
M  V30 32686 O 3202.57 -0.447057 -2.24084 0
M  V30 32687 C 3202.78 -3.47261 -0.347994 0
M  V30 32688 C 3204.13 -4.20453 -0.591986 0
M  V30 32689 O 3205.15 -3.53601 -0.429519 0
M  V30 32690 O 3204.01 -5.38908 -0.90776 0
M  V30 32691 H 3201.1 -0.808853 -0.172297 0
M  V30 32692 H 3203.65 -1.64668 0.410173 0
M  V30 32693 H 3202.42 -3.86357 0.620021 0
M  V30 32694 H 3202.05 -3.82239 -1.0945 0
M  V30 32695 N 3203.04 -0.0869173 -1.5736 0
M  V30 32696 C 3203.99 0.874958 -2.13572 0
M  V30 32697 C 3204.96 1.28528 -1.05212 0
M  V30 32698 O 3206.14 1.36848 -1.32956 0
M  V30 32699 C 3203.28 2.1317 -2.7139 0
M  V30 32700 C 3202.4 1.77265 -3.93956 0
M  V30 32701 C 3201.53 2.97664 -4.39966 0
M  V30 32702 C 3200.57 2.57846 -5.55141 0
M  V30 32703 N 3199.71 3.71053 -5.9604 0
M  V30 32704 H 3204.55 0.388737 -2.95454 0
M  V30 32705 H 3202.09 0.180216 -1.45992 0
M  V30 32706 H 3204.04 2.86759 -3.03027 0
M  V30 32707 H 3202.67 2.59306 -1.9225 0
M  V30 32708 H 3201.73 0.93678 -3.68685 0
M  V30 32709 H 3203.04 1.43981 -4.77568 0
M  V30 32710 H 3202.19 3.79514 -4.73343 0
M  V30 32711 H 3200.93 3.34152 -3.55238 0
M  V30 32712 H 3199.94 1.7442 -5.214 0
M  V30 32713 H 3201.16 2.22511 -6.41612 0
M  V30 32714 H 3199.11 4.07275 -5.1426 0
M  V30 32715 H 3199.02 3.41587 -6.74429 0
M  V30 32716 H 3200.29 4.53438 -6.34046 0
M  V30 32717 N 3204.52 1.5649 0.186734 0
M  V30 32718 C 3205.43 1.98421 1.25165 0
M  V30 32719 C 3206.45 0.89315 1.49328 0
M  V30 32720 O 3207.62 1.19957 1.61779 0
M  V30 32721 C 3204.69 2.32243 2.57418 0
M  V30 32722 C 3203.75 3.55099 2.41254 0
M  V30 32723 C 3202.98 3.87299 3.67199 0
M  V30 32724 O 3203.2 3.20673 4.71726 0
M  V30 32725 O 3202.14 4.80701 3.62229 0
M  V30 32726 H 3205.96 2.89245 0.925784 0
M  V30 32727 H 3203.55 1.44155 0.392395 0
M  V30 32728 H 3205.43 2.55036 3.35462 0
M  V30 32729 H 3204.11 1.44585 2.89615 0
M  V30 32730 H 3203.01 3.37543 1.61293 0
M  V30 32731 H 3204.35 4.4325 2.13986 0
M  V30 32732 N 3206 -0.45475 1.50897 0
M  V30 32733 C 3206.93 -1.56998 1.6561 0
M  V30 32734 C 3207.91 -1.54595 0.503897 0
M  V30 32735 O 3209.09 -1.73978 0.725516 0
M  V30 32736 C 3206.22 -2.95584 1.65372 0
M  V30 32737 C 3205.27 -3.1608 2.86349 0
M  V30 32738 S 3206.1 -2.94232 4.47424 0
M  V30 32739 C 3207.26 -4.3513 4.49903 0
M  V30 32740 H 3207.49 -1.4428 2.59943 0
M  V30 32741 H 3205.02 -0.64324 1.40363 0
M  V30 32742 H 3206.98 -3.75475 1.65918 0
M  V30 32743 H 3205.64 -3.05678 0.72246 0
M  V30 32744 H 3204.83 -4.17362 2.82533 0
M  V30 32745 H 3204.44 -2.43987 2.83454 0
M  V30 32746 H 3206.73 -5.28044 4.24471 0
M  V30 32747 H 3207.67 -4.43986 5.51618 0
M  V30 32748 H 3208.08 -4.17972 3.7942 0
M  V30 32749 N 3207.48 -1.40749 -0.709041 0
M  V30 32750 C 3208.42 -1.41534 -1.8231 0
M  V30 32751 C 3209.39 -0.27142 -1.63867 0
M  V30 32752 O 3210.58 -0.470464 -1.84909 0
M  V30 32753 C 3207.72 -1.29012 -3.20078 0
M  V30 32754 C 3206.83 -2.53163 -3.50047 0
M  V30 32755 C 3205.97 -2.33034 -4.77356 0
M  V30 32756 C 3205.01 -3.52728 -5.00249 0
M  V30 32757 N 3204.14 -3.31754 -6.18776 0
M  V30 32758 H 3208.98 -2.36754 -1.80974 0
M  V30 32759 H 3206.52 -1.17578 -0.883954 0
M  V30 32760 H 3208.48 -1.19756 -3.99643 0
M  V30 32761 H 3207.11 -0.37407 -3.20625 0
M  V30 32762 H 3206.16 -2.7292 -2.64988 0
M  V30 32763 H 3207.47 -3.42237 -3.62871 0
M  V30 32764 H 3206.63 -2.21169 -5.6495 0
M  V30 32765 H 3205.36 -1.41394 -4.66754 0
M  V30 32766 H 3204.37 -3.65062 -4.11108 0
M  V30 32767 H 3205.59 -4.45304 -5.1272 0
M  V30 32768 H 3203.54 -2.42802 -6.09412 0
M  V30 32769 H 3203.46 -4.14397 -6.32306 0
M  V30 32770 H 3204.73 -3.23635 -7.09141 0
M  V30 32771 N 3208.96 0.941933 -1.26354 0
M  V30 32772 C 3209.87 2.07413 -1.09622 0
M  V30 32773 C 3210.88 1.73974 -0.0299269 0
M  V30 32774 O 3212.06 2.00042 -0.233501 0
M  V30 32775 C 3209.12 3.38923 -0.730189 0
M  V30 32776 C 3208.18 3.8615 -1.87581 0
M  V30 32777 C 3207.42 5.11384 -1.52715 0
M  V30 32778 O 3207.64 5.68788 -0.428538 0
M  V30 32779 O 3206.57 5.53634 -2.36164 0
M  V30 32780 H 3210.4 2.24437 -2.04602 0
M  V30 32781 H 3207.98 1.05874 -1.05409 0
M  V30 32782 H 3209.87 4.17942 -0.538757 0
M  V30 32783 H 3208.54 3.23141 0.190225 0
M  V30 32784 H 3207.45 3.0808 -2.1222 0
M  V30 32785 H 3208.78 4.06452 -2.77592 0
M  V30 32786 N 3210.43 1.08146 1.1464 0
M  V30 32787 C 3211.34 0.720707 2.23255 0
M  V30 32788 C 3212.36 -0.271618 1.71867 0
M  V30 32789 O 3213.54 -0.116231 2.01064 0
M  V30 32790 C 3210.6 0.132603 3.46446 0
M  V30 32791 C 3209.66 1.1792 4.12787 0
M  V30 32792 C 3208.89 0.619065 5.30097 0
M  V30 32793 O 3209.12 -0.562318 5.67621 0
M  V30 32794 O 3208.05 1.36784 5.86152 0
M  V30 32795 H 3211.88 1.62672 2.5646 0
M  V30 32796 H 3209.46 0.854953 1.22519 0
M  V30 32797 H 3211.34 -0.192696 4.20959 0
M  V30 32798 H 3210.02 -0.746607 3.14972 0
M  V30 32799 H 3208.93 1.55699 3.4016 0
M  V30 32800 H 3210.26 2.03059 4.48361 0
M  V30 32801 N 3211.91 -1.31626 0.866732 0
M  V30 32802 C 3213.19 -1.91532 0.396861 0
M  V30 32803 C 3213.57 -1.78891 -1.12077 0
M  V30 32804 O 3212.92 -1.19455 -1.94789 0
M  V30 32805 C 3213.13 -3.37863 0.874638 0
M  V30 32806 C 3214.47 -4.14976 0.898873 0
M  V30 32807 O 3215.5 -3.46631 0.820075 0
M  V30 32808 O 3214.36 -5.37042 1.01232 0
M  V30 32809 H 3211.45 -0.818522 0.118114 0
M  V30 32810 H 3214 -1.40316 0.954431 0
M  V30 32811 H 3212.77 -3.41062 1.91813 0
M  V30 32812 H 3212.39 -3.96503 0.295196 0
M  V30 32813 N 3213.39 -0.62585 -1.4464 0
M  V30 32814 C 3214.62 -0.135153 -2.06458 0
M  V30 32815 C 3215.03 1.18809 -1.46731 0
M  V30 32816 O 3214.39 1.72761 -0.58821 0
M  V30 32817 C 3214.44 -0.00856468 -3.61499 0
M  V30 32818 O 3214.16 -1.27947 -4.19 0
M  V30 32819 C 3215.66 0.51145 -4.4034 0
M  V30 32820 H 3212.88 -0.0772411 -0.666539 0
M  V30 32821 H 3215.43 -0.858759 -1.85595 0
M  V30 32822 H 3213.58 0.665455 -3.81642 0
M  V30 32823 H 3214 -1.1209 -5.12383 0
M  V30 32824 H 3215.47 0.549053 -5.49263 0
M  V30 32825 H 3215.95 1.53745 -4.11411 0
M  V30 32826 H 3216.55 -0.12914 -4.25104 0
M  V30 32827 N 3214.87 1.53289 -0.36608 0
M  V30 32828 C 3216.09 2.06156 0.226803 0
M  V30 32829 C 3216.52 1.23779 1.41635 0
M  V30 32830 O 3215.88 0.25698 1.7947 0
M  V30 32831 C 3215.92 3.55609 0.597894 0
M  V30 32832 O 3215.03 3.75954 1.69505 0
M  V30 32833 H 3214.37 0.663184 0.032904 0
M  V30 32834 H 3216.9 1.97701 -0.526828 0
M  V30 32835 H 3216.91 3.98643 0.868761 0
M  V30 32836 H 3215.58 4.1501 -0.271911 0
M  V30 32837 H 3214.16 3.44817 1.4197 0
M  V30 32838 N 3216.35 0.0952613 1.57312 0
M  V30 32839 C 3217.28 -0.860715 2.17057 0
M  V30 32840 C 3218.26 -1.29409 1.10396 0
M  V30 32841 O 3219.44 -1.36095 1.38534 0
M  V30 32842 C 3216.57 -2.11979 2.75104 0
M  V30 32843 C 3215.53 -1.82503 3.87139 0
M  V30 32844 C 3214.85 -3.1524 4.31889 0
M  V30 32845 C 3216.15 -1.11185 5.10328 0
M  V30 32846 H 3217.85 -0.362931 2.97192 0
M  V30 32847 H 3215.39 -0.173126 1.42955 0
M  V30 32848 H 3217.34 -2.79293 3.15552 0
M  V30 32849 H 3216.07 -2.64041 1.92224 0
M  V30 32850 H 3214.73 -1.17586 3.47231 0
M  V30 32851 H 3214.38 -3.65189 3.45899 0
M  V30 32852 H 3214.08 -2.963 5.07425 0
M  V30 32853 H 3215.6 -3.83712 4.74971 0
M  V30 32854 H 3217.01 -1.6861 5.47945 0
M  V30 32855 H 3215.41 -1.02424 5.91295 0
M  V30 32856 H 3216.48 -0.0946374 4.84808 0
M  V30 32857 N 3217.82 -1.56587 -0.178432 0
M  V30 32858 C 3219.07 -1.81858 -0.897531 0
M  V30 32859 C 3219.4 -0.671987 -1.82203 0
M  V30 32860 O 3218.68 0.326501 -1.9174 0
M  V30 32861 C 3218.96 -3.1748 -1.69937 0
M  V30 32862 C 3218.81 -4.42656 -0.798467 0
M  V30 32863 C 3220.13 -3.49967 -2.66854 0
M  V30 32864 H 3217.25 -0.661544 -0.324851 0
M  V30 32865 H 3219.89 -1.8929 -0.164073 0
M  V30 32866 H 3218.04 -3.11275 -2.32466 0
M  V30 32867 H 3219.72 -4.60922 -0.186599 0
M  V30 32868 H 3217.96 -4.3367 -0.106105 0
M  V30 32869 H 3218.63 -5.34086 -1.39486 0
M  V30 32870 H 3221.11 -3.56579 -2.14453 0
M  V30 32871 H 3219.98 -4.45951 -3.20029 0
M  V30 32872 H 3220.24 -2.74307 -3.4671 0
M  V30 32873 N 3219.3 0.446741 -1.51136 0
M  V30 32874 C 3220.25 1.56221 -1.7233 0
M  V30 32875 C 3221.24 1.58814 -0.589439 0
M  V30 32876 O 3222.45 1.62672 -0.770582 0
M  V30 32877 H 3218.82 0.518835 -0.544348 0
M  V30 32878 H 3220.8 1.35515 -2.65854 0
M  V30 32879 C 3219.54 2.93963 -1.85691 0
M  V30 32880 H 3218.87 2.92695 -2.72341 0
M  V30 32881 H 3220.31 3.71404 -2.04537 0
M  V30 32882 C 3218.77 3.31251 -0.614386 0
M  V30 32883 O 3219.3 4.0101 0.235298 0
M  V30 32884 N 3217.5 2.86916 -0.461231 0
M  V30 32885 H 3217.05 2.30319 -1.15373 0
M  V30 32886 H 3217.01 3.12228 0.368911 0
M  V30 32887 N 3220.78 1.41123 0.701567 0
M  V30 32888 C 3221.71 1.3691 1.82567 0
M  V30 32889 C 3222.69 0.237273 1.60859 0
M  V30 32890 O 3223.87 0.423214 1.83688 0
M  V30 32891 C 3221 1.13414 3.19147 0
M  V30 32892 C 3220.05 2.29236 3.59657 0
M  V30 32893 S 3220.88 3.91692 3.65154 0
M  V30 32894 C 3222.04 3.70487 5.0447 0
M  V30 32895 H 3222.27 2.32039 1.85863 0
M  V30 32896 H 3219.8 1.27576 0.869703 0
M  V30 32897 H 3221.76 1.00544 3.97997 0
M  V30 32898 H 3220.42 0.199154 3.13468 0
M  V30 32899 H 3219.61 2.08474 4.58862 0
M  V30 32900 H 3219.22 2.38482 2.88101 0
M  V30 32901 H 3221.51 3.29822 5.91797 0
M  V30 32902 H 3222.45 4.69273 5.30272 0
M  V30 32903 H 3222.86 3.03884 4.75726 0
M  V30 32904 N 3222.26 -0.935219 1.26852 0
M  V30 32905 C 3223.48 -1.72163 1.15648 0
M  V30 32906 C 3223.91 -1.85946 -0.283876 0
M  V30 32907 O 3223.27 -1.35402 -1.20565 0
M  V30 32908 C 3223.31 -3.10304 1.83695 0
M  V30 32909 O 3222.42 -3.96623 1.12979 0
M  V30 32910 H 3221.76 -0.527995 0.402638 0
M  V30 32911 H 3224.29 -1.1709 1.67783 0
M  V30 32912 H 3224.3 -3.60661 1.90755 0
M  V30 32913 H 3222.97 -2.9959 2.88477 0
M  V30 32914 H 3221.55 -3.55068 1.13935 0
M  V30 32915 N 3223.74 -1.08752 -1.14065 0
M  V30 32916 C 3224.96 -0.840935 -1.89039 0
M  V30 32917 C 3225.38 0.607219 -1.78769 0
M  V30 32918 O 3224.74 1.41751 -1.14947 0
M  V30 32919 C 3224.79 -1.25844 -3.38889 0
M  V30 32920 O 3224.51 -2.64979 -3.48881 0
M  V30 32921 C 3226.01 -1.04323 -4.3085 0
M  V30 32922 H 3223.23 -0.303025 -0.598679 0
M  V30 32923 H 3225.77 -1.44771 -1.44435 0
M  V30 32924 H 3223.93 -0.695694 -3.81102 0
M  V30 32925 H 3224.34 -2.82401 -4.41984 0
M  V30 32926 H 3225.82 -1.3847 -5.3435 0
M  V30 32927 H 3226.29 0.0195012 -4.39196 0
M  V30 32928 H 3226.9 -1.59157 -3.94397 0
M  V30 32929 N 3225.21 1.31165 -0.873701 0
M  V30 32930 C 3226.63 1.78764 -0.538551 0
M  V30 32931 C 3226.98 1.71957 0.944735 0
M  V30 32932 O 3226.1 1.28957 1.73778 0
M  V30 32933 C 3226.7 3.24593 -0.970806 0
M  V30 32934 C 3225.26 3.70073 -0.687254 0
M  V30 32935 C 3224.4 2.51869 -1.16005 0
M  V30 32936 H 3227.35 1.18194 -1.05905 0
M  V30 32937 H 3227.37 3.79354 -0.295033 0
M  V30 32938 H 3226.89 3.29515 -2.0504 0
M  V30 32939 H 3224.99 3.70649 0.380816 0
M  V30 32940 H 3225.1 4.62046 -1.2669 0
M  V30 32941 H 3223.46 2.48015 -0.579707 0
M  V30 32942 H 3224.25 2.59535 -2.24715 0
M  V30 32943 N 3226.69 0.633512 1.44307 0
M  V30 32944 C 3227.97 0.0697606 1.95476 0
M  V30 32945 C 3228.35 -1.40513 1.57542 0
M  V30 32946 O 3227.7 -2.12075 0.850669 0
M  V30 32947 C 3227.91 0.295154 3.4775 0
M  V30 32948 C 3229.26 0.189616 4.24176 0
M  V30 32949 O 3230.28 0.226648 3.55478 0
M  V30 32950 O 3229.14 0.0965751 5.46415 0
M  V30 32951 H 3226.23 -0.0209436 0.826735 0
M  V30 32952 H 3228.78 0.705381 1.54345 0
M  V30 32953 H 3227.55 1.31847 3.68418 0
M  V30 32954 H 3227.17 -0.37449 3.95832 0
M  V30 32955 N 3228.17 -1.53093 0.374204 0
M  V30 32956 C 3229.58 -1.86415 -0.103139 0
M  V30 32957 C 3229.93 -1.29449 -1.47436 0
M  V30 32958 O 3229.06 -0.619889 -2.07331 0
M  V30 32959 C 3229.65 -3.38245 -0.193929 0
M  V30 32960 C 3228.21 -3.71333 -0.61554 0
M  V30 32961 C 3227.36 -2.76329 0.231909 0
M  V30 32962 H 3230.31 -1.47218 0.59267 0
M  V30 32963 H 3230.33 -3.66687 -1.01591 0
M  V30 32964 H 3229.84 -3.79676 0.804207 0
M  V30 32965 H 3227.94 -3.35463 -1.62159 0
M  V30 32966 H 3228.06 -4.77557 -0.384166 0
M  V30 32967 H 3226.42 -2.52921 -0.300535 0
M  V30 32968 H 3227.2 -3.20595 1.22774 0
M  V30 32969 N 3229.65 -0.103603 -1.57259 0
M  V30 32970 C 3230.93 0.600819 -1.86144 0
M  V30 32971 C 3231.31 1.85803 -1.00201 0
M  V30 32972 O 3230.65 2.28371 -0.0767192 0
M  V30 32973 C 3230.86 0.908049 -3.3698 0
M  V30 32974 C 3232.21 1.26781 -4.0523 0
M  V30 32975 O 3233.24 0.998799 -3.4191 0
M  V30 32976 O 3232.09 1.77201 -5.16974 0
M  V30 32977 H 3229.19 0.301533 -0.770069 0
M  V30 32978 H 3231.73 -0.136943 -1.69147 0
M  V30 32979 H 3230.51 0.0164927 -3.91297 0
M  V30 32980 H 3230.13 1.7015 -3.59353 0
M  V30 32981 N 3231.13 1.56679 0.170126 0
M  V30 32982 C 3232.09 1.95619 1.1944 0
M  V30 32983 C 3233.09 0.839984 1.37116 0
M  V30 32984 O 3234.28 1.10702 1.34502 0
M  V30 32985 C 3231.41 2.25204 2.55922 0
M  V30 32986 H 3232.6 2.87278 0.8609 0
M  V30 32987 H 3230.16 1.50755 0.412619 0
M  V30 32988 H 3230.89 1.36263 2.94284 0
M  V30 32989 H 3230.68 3.06566 2.44458 0
M  V30 32990 H 3232.17 2.56248 3.29737 0
M  V30 32991 N 3232.6 -0.43872 1.5137 0
M  V30 32992 C 3233.55 -1.55305 1.73156 0
M  V30 32993 C 3234.55 -1.58499 0.597853 0
M  V30 32994 O 3235.75 -1.62261 0.779198 0
M  V30 32995 H 3232.13 -0.51594 0.547092 0
M  V30 32996 H 3234.1 -1.34103 2.66569 0
M  V30 32997 C 3232.85 -2.92974 1.87248 0
M  V30 32998 H 3232.17 -2.91247 2.73889 0
M  V30 32999 H 3233.61 -3.70314 2.06504 0
M  V30 33000 C 3232.07 -3.3092 0.631945 0
M  V30 33001 O 3232.6 -4.01129 -0.214028 0
M  V30 33002 N 3230.81 -2.86668 0.47644 0
M  V30 33003 H 3230.35 -2.29704 1.16593 0
M  V30 33004 H 3230.31 -3.12419 -0.352348 0
M  V30 33005 N 3234.08 -1.41493 -0.694073 0
M  V30 33006 C 3235.33 -1.40653 -1.45125 0
M  V30 33007 C 3235.65 -0.0170631 -1.94993 0
M  V30 33008 O 3234.92 0.941342 -1.71801 0
M  V30 33009 H 3233.5 -0.517729 -0.538484 0
M  V30 33010 H 3236.16 -1.76745 -0.82141 0
M  V30 33011 H 3235.26 -2.09464 -2.31368 0
M  V30 33012 N 3235.56 0.928479 -1.27346 0
M  V30 33013 C 3236.49 2.04601 -1.12521 0
M  V30 33014 C 3237.47 1.70079 -0.0268862 0
M  V30 33015 O 3238.66 1.93155 -0.201231 0
M  V30 33016 C 3235.79 3.38638 -0.770808 0
M  V30 33017 C 3234.74 3.87269 -1.82227 0
M  V30 33018 C 3234.07 5.18103 -1.32187 0
M  V30 33019 C 3235.37 4.10746 -3.22621 0
M  V30 33020 H 3237.06 2.17262 -2.06004 0
M  V30 33021 H 3234.61 1.04396 -0.991845 0
M  V30 33022 H 3236.56 4.16295 -0.653916 0
M  V30 33023 H 3235.28 3.25989 0.199732 0
M  V30 33024 H 3233.94 3.11804 -1.92805 0
M  V30 33025 H 3233.59 5.01844 -0.340807 0
M  V30 33026 H 3233.29 5.5161 -2.02484 0
M  V30 33027 H 3234.81 5.98331 -1.2179 0
M  V30 33028 H 3236.23 4.78976 -3.15048 0
M  V30 33029 H 3234.63 4.55559 -3.90622 0
M  V30 33030 H 3235.7 3.1607 -3.67733 0
M  V30 33031 N 3237.04 1.09355 1.13486 0
M  V30 33032 C 3237.95 0.744346 2.22478 0
M  V30 33033 C 3238.96 -0.253374 1.72145 0
M  V30 33034 O 3240.14 -0.0948986 2.01176 0
M  V30 33035 C 3237.21 0.169341 3.46286 0
M  V30 33036 C 3236.27 1.22292 4.11513 0
M  V30 33037 C 3235.5 0.675254 5.29411 0
M  V30 33038 O 3235.72 -0.502082 5.68186 0
M  V30 33039 O 3234.66 1.42993 5.84668 0
M  V30 33040 H 3238.48 1.65383 2.5472 0
M  V30 33041 H 3236.07 0.8679 1.21605 0
M  V30 33042 H 3237.95 -0.148036 4.2114 0
M  V30 33043 H 3236.62 -0.713158 3.15746 0
M  V30 33044 H 3235.53 1.59298 3.38489 0
M  V30 33045 H 3236.86 2.07803 4.46182 0
M  V30 33046 N 3238.52 -1.307 0.880644 0
M  V30 33047 C 3239.74 -2.01008 0.510944 0
M  V30 33048 C 3240.17 -1.65604 -0.892012 0
M  V30 33049 O 3239.53 -0.870337 -1.59043 0
M  V30 33050 C 3239.57 -3.53979 0.687821 0
M  V30 33051 O 3238.68 -4.11527 -0.268203 0
M  V30 33052 H 3238.02 -0.632568 0.201876 0
M  V30 33053 H 3240.55 -1.66648 1.187 0
M  V30 33054 H 3240.56 -4.03782 0.585166 0
M  V30 33055 H 3239.23 -3.79086 1.71075 0
M  V30 33056 H 3237.81 -3.72708 -0.119608 0
M  V30 33057 N 3240 -0.641156 -1.43969 0
M  V30 33058 C 3241.23 -0.156815 -2.06004 0
M  V30 33059 C 3241.63 1.17791 -1.48061 0
M  V30 33060 O 3240.98 1.73562 -0.601818 0
M  V30 33061 C 3241.04 0.0216571 -3.59493 0
M  V30 33062 C 3240.7 -1.23646 -4.39955 0
M  V30 33063 C 3241.7 -2.16247 -4.72793 0
M  V30 33064 C 3239.38 -1.47468 -4.80165 0
M  V30 33065 C 3241.38 -3.30971 -5.44735 0
M  V30 33066 C 3239.07 -2.62488 -5.51855 0
M  V30 33067 C 3240.06 -3.54065 -5.84061 0
M  V30 33068 O 3239.75 -4.67078 -6.54288 0
M  V30 33069 H 3239.48 -0.0815803 -0.671059 0
M  V30 33070 H 3242.04 -0.87855 -1.85663 0
M  V30 33071 H 3240.27 0.798641 -3.78363 0
M  V30 33072 H 3241.96 0.461822 -4.03264 0
M  V30 33073 H 3242.72 -1.99081 -4.42258 0
M  V30 33074 H 3238.6 -0.770732 -4.54512 0
M  V30 33075 H 3242.15 -4.02472 -5.69791 0
M  V30 33076 H 3238.04 -2.79593 -5.81806 0
M  V30 33077 H 3238.81 -4.66188 -6.72763 0
M  V30 33078 N 3241.47 1.52892 -0.382318 0
M  V30 33079 C 3242.7 2.05908 0.202372 0
M  V30 33080 C 3243.12 1.25458 1.41088 0
M  V30 33081 O 3242.47 0.299452 1.80026 0
M  V30 33082 C 3242.52 3.56827 0.579389 0
M  V30 33083 O 3242.25 4.34229 -0.581096 0
M  V30 33084 C 3243.75 4.26162 1.22069 0
M  V30 33085 H 3240.97 0.670228 0.0321741 0
M  V30 33086 H 3243.51 1.97089 -0.545529 0
M  V30 33087 H 3241.67 3.65741 1.27719 0
M  V30 33088 H 3242.08 5.2379 -0.272785 0
M  V30 33089 H 3243.55 5.33024 1.43491 0
M  V30 33090 H 3244.03 3.80935 2.18599 0
M  V30 33091 H 3244.64 4.21546 0.563848 0
M  V30 33092 N 3242.95 0.111941 1.57202 0
M  V30 33093 C 3244.18 -0.555678 1.99298 0
M  V30 33094 C 3244.59 -1.60671 0.991473 0
M  V30 33095 O 3243.95 -1.82492 -0.0166351 0
M  V30 33096 C 3244 -1.1882 3.41415 0
M  V30 33097 O 3243.72 -0.179184 4.37733 0
M  V30 33098 C 3245.22 -1.93982 3.98605 0
M  V30 33099 H 3242.44 -0.147684 0.654546 0
M  V30 33100 H 3244.99 0.196199 2.03557 0
M  V30 33101 H 3243.14 -1.8909 3.38118 0
M  V30 33102 H 3243.56 -0.637844 5.20607 0
M  V30 33103 H 3245.03 -2.33575 5.00147 0
M  V30 33104 H 3245.51 -2.81227 3.37354 0
M  V30 33105 H 3246.11 -1.2849 4.05426 0
M  V30 33106 N 3244.43 -1.56767 -0.161814 0
M  V30 33107 C 3245.36 -2.00172 -1.20222 0
M  V30 33108 C 3246.34 -0.878832 -1.45638 0
M  V30 33109 O 3247.53 -1.1456 -1.56811 0
M  V30 33110 C 3244.66 -2.36972 -2.53893 0
M  V30 33111 C 3243.61 -3.52309 -2.43027 0
M  V30 33112 C 3242.94 -3.74879 -3.81274 0
M  V30 33113 C 3244.24 -4.85456 -1.92691 0
M  V30 33114 H 3245.93 -2.87335 -0.84137 0
M  V30 33115 H 3243.48 -1.38238 -0.403285 0
M  V30 33116 H 3245.43 -2.65936 -3.26888 0
M  V30 33117 H 3244.15 -1.4673 -2.91784 0
M  V30 33118 H 3242.81 -3.23488 -1.72485 0
M  V30 33119 H 3242.46 -2.81911 -4.16575 0
M  V30 33120 H 3242.16 -4.52489 -3.74869 0
M  V30 33121 H 3243.68 -4.06253 -4.55841 0
M  V30 33122 H 3245.1 -5.13234 -2.55468 0
M  V30 33123 H 3243.49 -5.66769 -1.97212 0
M  V30 33124 H 3244.56 -4.76816 -0.881732 0
M  V30 33125 N 3245.91 0.430686 -1.51601 0
M  V30 33126 C 3247.32 1.01032 -1.57001 0
M  V30 33127 C 3247.67 1.92132 -0.397473 0
M  V30 33128 O 3246.79 2.10897 0.484917 0
M  V30 33129 C 3247.39 1.8391 -2.84539 0
M  V30 33130 C 3245.95 2.36911 -2.92489 0
M  V30 33131 C 3245.1 1.16303 -2.51732 0
M  V30 33132 H 3248.05 0.211706 -1.57282 0
M  V30 33133 H 3248.07 2.69431 -2.68677 0
M  V30 33134 H 3247.58 1.17579 -3.6986 0
M  V30 33135 H 3245.68 3.06677 -2.11613 0
M  V30 33136 H 3245.79 2.69253 -3.96282 0
M  V30 33137 H 3244.16 1.51041 -2.05082 0
M  V30 33138 H 3244.94 0.515733 -3.39404 0
M  V30 33139 N 3247.39 1.4186 0.686559 0
M  V30 33140 C 3248.3 1.46794 1.82999 0
M  V30 33141 C 3249.31 0.357705 1.70284 0
M  V30 33142 O 3250.49 0.606814 1.92041 0
M  V30 33143 C 3247.55 1.35667 3.19054 0
M  V30 33144 C 3246.61 2.57083 3.43812 0
M  V30 33145 C 3245.85 2.46477 4.73376 0
M  V30 33146 O 3246.07 1.49423 5.50481 0
M  V30 33147 O 3245 3.36399 4.99118 0
M  V30 33148 H 3248.83 2.4328 1.81792 0
M  V30 33149 H 3246.41 1.23495 0.84079 0
M  V30 33150 H 3248.3 1.3178 4.00265 0
M  V30 33151 H 3246.97 0.423008 3.20924 0
M  V30 33152 H 3245.88 2.66546 2.62496 0
M  V30 33153 H 3247.21 3.49308 3.46763 0
M  V30 33154 N 3248.86 -0.921712 1.27837 0
M  V30 33155 C 3249.83 -2.00467 1.11111 0
M  V30 33156 C 3250.83 -1.60712 0.0532312 0
M  V30 33157 O 3252.02 -1.71626 0.298338 0
M  V30 33158 C 3249.15 -3.33754 0.694328 0
M  V30 33159 H 3250.34 -2.16735 2.07283 0
M  V30 33160 H 3247.89 -1.10331 1.1071 0
M  V30 33161 H 3248.63 -3.23187 -0.268504 0
M  V30 33162 H 3248.41 -3.63968 1.45842 0
M  V30 33163 H 3249.9 -4.13271 0.599723 0
M  V30 33164 N 3250.34 -1.09956 -1.12905 0
M  V30 33165 C 3251.57 -0.860938 -1.88137 0
M  V30 33166 C 3251.98 0.588224 -1.79403 0
M  V30 33167 O 3251.34 1.40524 -1.16444 0
M  V30 33168 C 3251.39 -1.29431 -3.37535 0
M  V30 33169 O 3251.11 -2.68664 -3.46051 0
M  V30 33170 C 3252.61 -1.08886 -4.29719 0
M  V30 33171 H 3249.83 -0.309358 -0.595432 0
M  V30 33172 H 3252.38 -1.46295 -1.42892 0
M  V30 33173 H 3250.53 -0.736076 -3.80343 0
M  V30 33174 H 3250.95 -2.87073 -4.38964 0
M  V30 33175 H 3252.42 -1.4413 -5.32851 0
M  V30 33176 H 3252.9 -0.0270825 -4.39192 0
M  V30 33177 H 3253.5 -1.63332 -3.92687 0
M  V30 33178 N 3251.82 1.30231 -0.887563 0
M  V30 33179 C 3252.73 2.31816 -0.360374 0
M  V30 33180 C 3253.75 1.65451 0.538712 0
M  V30 33181 O 3254.92 1.9673 0.431211 0
M  V30 33182 C 3251.99 3.44216 0.414276 0
M  V30 33183 C 3251.05 4.26201 -0.514874 0
M  V30 33184 C 3250.28 5.33234 0.222901 0
M  V30 33185 O 3250.5 5.51699 1.44862 0
M  V30 33186 O 3249.44 6.00374 -0.428327 0
M  V30 33187 H 3253.26 2.78865 -1.20284 0
M  V30 33188 H 3250.85 1.34447 -0.651483 0
M  V30 33189 H 3252.73 4.12681 0.852787 0
M  V30 33190 H 3251.41 2.99297 1.233 0
M  V30 33191 H 3250.31 3.60424 -1.00225 0
M  V30 33192 H 3251.65 4.74731 -1.29967 0
M  V30 33193 N 3253.3 0.648782 1.43627 0
M  V30 33194 C 3254.25 -0.0455131 2.30755 0
M  V30 33195 C 3255.22 -0.819142 1.44497 0
M  V30 33196 O 3256.4 -0.79664 1.73373 0
M  V30 33197 C 3253.54 -1.00902 3.30019 0
M  V30 33198 C 3252.65 -0.231963 4.31377 0
M  V30 33199 C 3251.79 -1.18887 5.17725 0
M  V30 33200 C 3250.83 -0.401989 6.10779 0
M  V30 33201 N 3249.96 -1.31026 6.89766 0
M  V30 33202 H 3254.8 0.703371 2.8958 0
M  V30 33203 H 3252.34 0.358625 1.42661 0
M  V30 33204 H 3254.3 -1.58121 3.86075 0
M  V30 33205 H 3252.93 -1.72483 2.72854 0
M  V30 33206 H 3251.98 0.456439 3.77652 0
M  V30 33207 H 3253.29 0.380111 4.9735 0
M  V30 33208 H 3252.45 -1.83184 5.78385 0
M  V30 33209 H 3251.19 -1.83486 4.51867 0
M  V30 33210 H 3250.19 0.254351 5.49211 0
M  V30 33211 H 3251.42 0.23953 6.78677 0
M  V30 33212 H 3249.36 -1.94313 6.26561 0
M  V30 33213 H 3249.28 -0.752642 7.52244 0
M  V30 33214 H 3250.55 -1.94151 7.54934 0
M  V30 33215 N 3254.78 -1.52688 0.390421 0
M  V30 33216 C 3256 -2.06491 -0.193977 0
M  V30 33217 C 3256.43 -1.26016 -1.39648 0
M  V30 33218 O 3255.78 -0.285499 -1.79038 0
M  V30 33219 C 3255.83 -3.56515 -0.541244 0
M  V30 33220 O 3254.94 -3.78603 -1.63503 0
M  V30 33221 H 3254.28 -0.663624 -0.0223491 0
M  V30 33222 H 3256.81 -1.96838 0.558214 0
M  V30 33223 H 3256.82 -3.99975 -0.805231 0
M  V30 33224 H 3255.49 -4.14525 0.337901 0
M  V30 33225 H 3254.07 -3.47032 -1.36467 0
M  V30 33226 N 3256.25 -0.120276 -1.5714 0
M  V30 33227 C 3257.2 0.840632 -2.11937 0
M  V30 33228 C 3258.19 1.22732 -1.04046 0
M  V30 33229 O 3259.38 1.1982 -1.30277 0
M  V30 33230 C 3256.51 2.09018 -2.72335 0
M  V30 33231 C 3255.6 1.7278 -3.87309 0
M  V30 33232 N 3255.99 1.07223 -4.94304 0
M  V30 33233 C 3254.28 2.02229 -3.97517 0
M  V30 33234 C 3254.99 0.901525 -5.74672 0
M  V30 33235 N 3253.96 1.42693 -5.24538 0
M  V30 33236 H 3257.76 0.330257 -2.92039 0
M  V30 33237 H 3255.28 0.0821529 -1.62192 0
M  V30 33238 H 3257.27 2.78827 -3.09937 0
M  V30 33239 H 3255.93 2.60598 -1.93698 0
M  V30 33240 H 3256.95 0.736068 -5.12643 0
M  V30 33241 H 3253.62 2.55847 -3.29922 0
M  V30 33242 H 3255.01 0.386856 -6.70785 0
M  V30 33243 N 3257.73 1.56851 0.153498 0
M  V30 33244 C 3258.98 1.82991 0.8672 0
M  V30 33245 C 3259.31 0.700157 1.81461 0
M  V30 33246 O 3258.56 -0.311314 1.93208 0
M  V30 33247 C 3258.86 3.15421 1.6806 0
M  V30 33248 C 3258.53 4.42218 0.880558 0
M  V30 33249 C 3257.19 4.76655 0.659815 0
M  V30 33250 C 3259.54 5.20213 0.320607 0
M  V30 33251 C 3256.87 5.86552 -0.131691 0
M  V30 33252 C 3259.22 6.30941 -0.457905 0
M  V30 33253 C 3257.89 6.63932 -0.689284 0
M  V30 33254 H 3257.16 0.669613 0.317331 0
M  V30 33255 H 3259.8 1.9105 0.131174 0
M  V30 33256 H 3258.11 3.02784 2.48655 0
M  V30 33257 H 3259.8 3.32861 2.23618 0
M  V30 33258 H 3256.39 4.15217 1.06267 0
M  V30 33259 H 3260.58 4.93988 0.478443 0
M  V30 33260 H 3255.83 6.10559 -0.32052 0
M  V30 33261 H 3260.01 6.90573 -0.89896 0
M  V30 33262 H 3257.64 7.48924 -1.30446 0
M  V30 33263 N 3259.21 -0.42264 1.51827 0
M  V30 33264 C 3260.46 -1.17081 1.65222 0
M  V30 33265 C 3260.79 -1.9084 0.375541 0
M  V30 33266 O 3260.04 -1.84905 -0.640997 0
M  V30 33267 C 3260.34 -2.20114 2.81575 0
M  V30 33268 C 3260.01 -1.63261 4.20306 0
M  V30 33269 C 3258.67 -1.47479 4.58043 0
M  V30 33270 C 3261.02 -1.21609 5.06814 0
M  V30 33271 C 3258.35 -0.885429 5.7998 0
M  V30 33272 C 3260.7 -0.64096 6.29344 0
M  V30 33273 C 3259.36 -0.470169 6.65842 0
M  V30 33274 H 3258.63 -0.428431 0.604589 0
M  V30 33275 H 3261.28 -0.459841 1.85897 0
M  V30 33276 H 3259.59 -2.97305 2.55181 0
M  V30 33277 H 3261.28 -2.77851 2.89137 0
M  V30 33278 H 3257.87 -1.76524 3.9056 0
M  V30 33279 H 3262.06 -1.32616 4.78254 0
M  V30 33280 H 3257.31 -0.740998 6.06893 0
M  V30 33281 H 3261.49 -0.309766 6.95711 0
M  V30 33282 H 3259.11 -0.0113702 7.60199 0
M  V30 33283 N 3260.69 -1.42222 -0.679027 0
M  V30 33284 C 3261.62 -1.48155 -1.80478 0
M  V30 33285 C 3262.6 -0.338532 -1.66697 0
M  V30 33286 O 3263.78 -0.552261 -1.86182 0
M  V30 33287 C 3260.91 -1.37914 -3.18743 0
M  V30 33288 C 3259.87 -2.50198 -3.47253 0
M  V30 33289 C 3259.19 -2.25016 -4.85048 0
M  V30 33290 C 3260.49 -3.92517 -3.44569 0
M  V30 33291 H 3262.19 -2.42374 -1.7577 0
M  V30 33292 H 3259.73 -1.16657 -0.84422 0
M  V30 33293 H 3261.69 -1.40673 -3.97227 0
M  V30 33294 H 3260.41 -0.401863 -3.24118 0
M  V30 33295 H 3259.07 -2.46749 -2.71128 0
M  V30 33296 H 3258.72 -1.25593 -4.87068 0
M  V30 33297 H 3258.42 -3.00268 -5.05087 0
M  V30 33298 H 3259.94 -2.29518 -5.65821 0
M  V30 33299 H 3261.36 -3.97592 -4.13029 0
M  V30 33300 H 3259.75 -4.67586 -3.76143 0
M  V30 33301 H 3260.82 -4.19489 -2.43223 0
M  V30 33302 N 3262.17 0.91492 -1.28324 0
M  V30 33303 C 3263.13 1.99875 -1.12173 0
M  V30 33304 C 3264.13 1.60681 -0.0617534 0
M  V30 33305 O 3265.32 1.71466 -0.307435 0
M  V30 33306 C 3262.45 3.33381 -0.712018 0
M  V30 33307 H 3263.64 2.15632 -2.08429 0
M  V30 33308 H 3261.2 1.09743 -1.11293 0
M  V30 33309 H 3261.93 3.23324 0.251361 0
M  V30 33310 H 3261.72 3.63189 -1.4777 0
M  V30 33311 H 3263.21 4.12947 -0.621631 0
M  V30 33312 N 3263.64 1.10553 1.1232 0
M  V30 33313 C 3264.87 0.870903 1.87678 0
M  V30 33314 C 3265.29 -0.578702 1.79712 0
M  V30 33315 O 3264.64 -1.39905 1.17188 0
M  V30 33316 C 3264.7 1.31219 3.36844 0
M  V30 33317 O 3264.42 2.70495 3.44621 0
M  V30 33318 C 3265.92 1.11164 4.29136 0
M  V30 33319 H 3263.14 0.312511 0.593783 0
M  V30 33320 H 3265.68 1.47051 1.42114 0
M  V30 33321 H 3263.84 0.756236 3.79947 0
M  V30 33322 H 3264.25 2.89397 4.37436 0
M  V30 33323 H 3265.72 1.46954 5.3208 0
M  V30 33324 H 3266.2 0.0503735 4.39171 0
M  V30 33325 H 3266.81 1.65412 3.91815 0
M  V30 33326 N 3265.12 -1.29758 0.894457 0
M  V30 33327 C 3266.09 -2.26142 0.373133 0
M  V30 33328 C 3267.09 -1.53161 -0.489729 0
M  V30 33329 O 3268.28 -1.71675 -0.29553 0
M  V30 33330 C 3265.41 -3.37684 -0.467174 0
M  V30 33331 H 3266.6 -2.73771 1.22431 0
M  V30 33332 H 3264.15 -1.4111 0.672137 0
M  V30 33333 H 3264.89 -2.95386 -1.33856 0
M  V30 33334 H 3264.67 -3.91809 0.151023 0
M  V30 33335 H 3266.16 -4.09402 -0.823397 0
M  V30 33336 N 3266.6 -0.65639 -1.4328 0
M  V30 33337 C 3267.53 0.0196551 -2.33492 0
M  V30 33338 C 3268.51 0.808654 -1.49649 0
M  V30 33339 O 3269.7 0.769498 -1.78304 0
M  V30 33340 C 3266.83 0.984515 -3.33053 0
M  V30 33341 C 3265.78 0.305408 -4.26909 0
M  V30 33342 C 3265.11 1.38193 -5.16533 0
M  V30 33343 C 3266.41 -0.804172 -5.16072 0
M  V30 33344 H 3268.1 -0.733712 -2.90271 0
M  V30 33345 H 3265.65 -0.354283 -1.39574 0
M  V30 33346 H 3267.6 1.4664 -3.95063 0
M  V30 33347 H 3266.32 1.76908 -2.74538 0
M  V30 33348 H 3264.98 -0.156059 -3.66268 0
M  V30 33349 H 3264.63 2.15802 -4.54355 0
M  V30 33350 H 3264.33 0.932776 -5.80149 0
M  V30 33351 H 3265.85 1.86512 -5.81417 0
M  V30 33352 H 3267.27 -0.404312 -5.71873 0
M  V30 33353 H 3265.67 -1.17799 -5.88424 0
M  V30 33354 H 3266.74 -1.66081 -4.55571 0
M  V30 33355 N 3268.08 1.52478 -0.398513 0
M  V30 33356 C 3269.33 2.01991 0.180984 0
M  V30 33357 C 3269.66 1.28408 1.45688 0
M  V30 33358 O 3268.93 0.387241 1.90606 0
M  V30 33359 C 3269.22 3.57408 0.439525 0
M  V30 33360 C 3269.07 4.41651 -0.852308 0
M  V30 33361 C 3270.39 4.22672 1.22623 0
M  V30 33362 H 3267.51 0.734189 0.0643035 0
M  V30 33363 H 3270.15 1.82461 -0.529892 0
M  V30 33364 H 3268.3 3.74179 1.04509 0
M  V30 33365 H 3269.97 4.36612 -1.48887 0
M  V30 33366 H 3268.21 4.08292 -1.46562 0
M  V30 33367 H 3268.89 5.4844 -0.625936 0
M  V30 33368 H 3271.36 4.09934 0.71365 0
M  V30 33369 H 3270.24 5.31377 1.37587 0
M  V30 33370 H 3270.5 3.80918 2.24396 0
M  V30 33371 N 3269.56 0.128608 1.57074 0
M  V30 33372 C 3270.79 -0.534509 1.99876 0
M  V30 33373 C 3271.2 -1.59611 1.00846 0
M  V30 33374 O 3270.56 -1.825 0.00272155 0
M  V30 33375 C 3270.61 -1.15192 3.42656 0
M  V30 33376 O 3270.33 -0.132746 4.37899 0
M  V30 33377 C 3271.83 -1.89743 4.0064 0
M  V30 33378 H 3269.05 -0.140733 0.656076 0
M  V30 33379 H 3271.59 0.217777 2.03337 0
M  V30 33380 H 3269.75 -1.85493 3.40104 0
M  V30 33381 H 3270.16 -0.58259 5.21254 0
M  V30 33382 H 3271.64 -2.28257 5.02596 0
M  V30 33383 H 3272.11 -2.77634 3.40318 0
M  V30 33384 H 3272.72 -1.24183 4.06766 0
M  V30 33385 N 3271.04 -1.5693 -0.145178 0
M  V30 33386 C 3271.95 -2.0167 -1.19861 0
M  V30 33387 C 3272.96 -0.932428 -1.46907 0
M  V30 33388 O 3274.14 -1.24204 -1.58541 0
M  V30 33389 C 3271.2 -2.38987 -2.5117 0
M  V30 33390 C 3270.26 -3.6137 -2.31754 0
M  V30 33391 C 3269.5 -3.96898 -3.56802 0
M  V30 33392 O 3269.72 -3.33067 -4.63058 0
M  V30 33393 O 3268.65 -4.90136 -3.49357 0
M  V30 33394 H 3272.48 -2.91598 -0.84877 0
M  V30 33395 H 3270.06 -1.45145 -0.354037 0
M  V30 33396 H 3271.95 -2.63841 -3.28582 0
M  V30 33397 H 3270.62 -1.52212 -2.8568 0
M  V30 33398 H 3269.53 -3.41701 -1.52287 0
M  V30 33399 H 3270.86 -4.48768 -2.02159 0
M  V30 33400 N 3272.51 0.414582 -1.52049 0
M  V30 33401 C 3273.74 1.18845 -1.69972 0
M  V30 33402 C 3274.16 1.83664 -0.40609 0
M  V30 33403 O 3273.52 1.6978 0.635951 0
M  V30 33404 C 3273.57 2.23133 -2.83274 0
M  V30 33405 O 3272.67 3.29151 -2.48462 0
M  V30 33406 H 3272.01 0.347173 -0.566009 0
M  V30 33407 H 3274.54 0.486722 -1.98726 0
M  V30 33408 H 3274.55 2.67551 -3.08027 0
M  V30 33409 H 3273.23 1.75337 -3.77134 0
M  V30 33410 H 3271.81 2.9005 -2.34362 0
M  V30 33411 N 3273.99 1.4258 0.671475 0
M  V30 33412 C 3275.24 1.42518 1.42729 0
M  V30 33413 C 3275.55 0.0462751 1.95545 0
M  V30 33414 O 3276.76 -0.0769321 2.71391 0
M  V30 33415 C 3275.22 2.5071 2.58211 0
M  V30 33416 C 3274.82 3.94622 2.12079 0
M  V30 33417 C 3276.57 2.59819 3.357 0
M  V30 33418 C 3274.47 4.94315 3.24663 0
M  V30 33419 H 3273.4 0.530091 0.536209 0
M  V30 33420 H 3276.06 1.685 0.726625 0
M  V30 33421 H 3274.44 2.17898 3.30661 0
M  V30 33422 H 3275.61 4.36804 1.4676 0
M  V30 33423 H 3273.93 3.89393 1.47519 0
M  V30 33424 H 3276.52 3.31479 4.19554 0
M  V30 33425 H 3276.87 1.64283 3.82514 0
M  V30 33426 H 3277.4 2.91841 2.70321 0
M  V30 33427 H 3274.14 5.9134 2.82837 0
M  V30 33428 H 3273.66 4.56762 3.88753 0
M  V30 33429 H 3275.34 5.16185 3.90079 0
M  V30 33430 N 3275.47 -0.908102 1.28807 0
M  V30 33431 C 3276.88 -1.47295 1.14722 0
M  V30 33432 C 3277.23 -1.9446 -0.260729 0
M  V30 33433 O 3276.36 -1.82968 -1.1555 0
M  V30 33434 C 3276.95 -2.67708 2.07648 0
M  V30 33435 C 3275.51 -3.20355 1.9761 0
M  V30 33436 C 3274.66 -1.93054 1.99061 0
M  V30 33437 H 3277.61 -0.720258 1.41414 0
M  V30 33438 H 3277.63 -3.43162 1.64379 0
M  V30 33439 H 3277.14 -2.3335 3.10112 0
M  V30 33440 H 3275.24 -3.59425 0.982045 0
M  V30 33441 H 3275.36 -3.85221 2.84853 0
M  V30 33442 H 3273.72 -2.10397 1.43545 0
M  V30 33443 H 3274.5 -1.60984 3.03215 0
M  V30 33444 N 3276.95 -1.11147 -1.11732 0
M  V30 33445 C 3277.91 -0.770341 -2.15867 0
M  V30 33446 C 3278.91 0.208814 -1.59438 0
M  V30 33447 O 3280.1 -0.0152822 -1.74193 0
M  V30 33448 C 3277.23 -0.142362 -3.40603 0
M  V30 33449 H 3278.43 -1.6928 -2.47557 0
M  V30 33450 H 3275.98 -0.912951 -1.26866 0
M  V30 33451 H 3276.71 0.79047 -3.14519 0
M  V30 33452 H 3276.5 -0.847154 -3.82839 0
M  V30 33453 H 3277.99 0.0802874 -4.17523 0
M  V30 33454 N 3278.43 1.29282 -0.901326 0
M  V30 33455 C 3279.34 2.3142 -0.384941 0
M  V30 33456 C 3280.35 1.66013 0.521134 0
M  V30 33457 O 3281.53 1.97176 0.410321 0
M  V30 33458 C 3278.59 3.44636 0.377744 0
M  V30 33459 C 3277.65 4.25631 -0.560049 0
M  V30 33460 C 3276.89 5.33441 0.166332 0
M  V30 33461 O 3277.11 5.53204 1.39002 0
M  V30 33462 O 3276.04 5.99886 -0.491981 0
M  V30 33463 H 3279.87 2.77573 -1.23235 0
M  V30 33464 H 3277.45 1.33749 -0.665706 0
M  V30 33465 H 3279.34 4.13562 0.808969 0
M  V30 33466 H 3278.01 3.00588 1.20118 0
M  V30 33467 H 3276.92 3.59341 -1.04042 0
M  V30 33468 H 3278.25 4.73326 -1.34995 0
M  V30 33469 N 3279.9 0.663979 1.4293 0
M  V30 33470 C 3280.85 -0.0435783 2.27958 0
M  V30 33471 C 3281.84 -0.784233 1.40494 0
M  V30 33472 O 3283.03 -0.664927 1.64036 0
M  V30 33473 C 3280.16 -1.00177 3.28359 0
M  V30 33474 C 3279.24 -0.259025 4.23308 0
M  V30 33475 N 3279.64 0.73027 5.005 0
M  V30 33476 C 3277.93 -0.498984 4.432 0
M  V30 33477 C 3278.63 1.17211 5.69769 0
M  V30 33478 N 3277.61 0.5042 5.41257 0
M  V30 33479 H 3281.41 0.715398 2.8506 0
M  V30 33480 H 3278.93 0.492144 1.54763 0
M  V30 33481 H 3280.92 -1.52355 3.88064 0
M  V30 33482 H 3279.58 -1.76069 2.72818 0
M  V30 33483 H 3280.59 1.10941 5.05878 0
M  V30 33484 H 3277.27 -1.23824 3.98715 0
M  V30 33485 H 3278.66 1.99128 6.41715 0
M  V30 33486 N 3281.38 -1.52265 0.406593 0
M  V30 33487 C 3282.63 -2.02084 -0.170269 0
M  V30 33488 C 3282.96 -1.29178 -1.45005 0
M  V30 33489 O 3282.24 -0.397344 -1.90398 0
M  V30 33490 C 3282.52 -3.57636 -0.420564 0
M  V30 33491 C 3282.37 -4.41193 0.875718 0
M  V30 33492 C 3283.69 -4.23316 -1.20379 0
M  V30 33493 H 3280.81 -0.73452 -0.060409 0
M  V30 33494 H 3283.45 -1.82178 0.539561 0
M  V30 33495 H 3281.6 -3.74728 -1.02523 0
M  V30 33496 H 3283.27 -4.35817 1.512 0
M  V30 33497 H 3281.52 -4.07509 1.48725 0
M  V30 33498 H 3282.19 -5.481 0.655012 0
M  V30 33499 H 3284.66 -4.10307 -0.6919 0
M  V30 33500 H 3283.54 -5.32099 -1.34767 0
M  V30 33501 H 3283.8 -3.82103 -2.22373 0
M  V30 33502 N 3282.86 -0.136936 -1.57004 0
M  V30 33503 C 3284.11 0.517442 -1.96088 0
M  V30 33504 C 3284.44 1.65174 -1.02133 0
M  V30 33505 O 3283.71 1.94402 -0.0618299 0
M  V30 33506 C 3284 1.03317 -3.4496 0
M  V30 33507 C 3283.85 -0.0989399 -4.49691 0
M  V30 33508 C 3285.17 1.91825 -3.96095 0
M  V30 33509 H 3282.29 0.186619 -0.712981 0
M  V30 33510 H 3284.93 -0.216128 -1.88767 0
M  V30 33511 H 3283.08 1.6583 -3.5133 0
M  V30 33512 H 3284.75 -0.734927 -4.55408 0
M  V30 33513 H 3283 -0.759545 -4.27099 0
M  V30 33514 H 3283.67 0.303457 -5.51165 0
M  V30 33515 H 3286.14 1.39157 -3.92141 0
M  V30 33516 H 3285.02 2.24823 -5.00745 0
M  V30 33517 H 3285.28 2.85147 -3.37851 0
M  V30 33518 N 3284.34 1.57005 0.136853 0
M  V30 33519 C 3285.57 1.8807 0.862403 0
M  V30 33520 C 3285.98 0.726258 1.74273 0
M  V30 33521 O 3285.34 -0.303629 1.79957 0
M  V30 33522 C 3285.39 3.18461 1.7107 0
M  V30 33523 O 3285.11 4.29459 0.865842 0
M  V30 33524 C 3286.61 3.6311 2.54296 0
M  V30 33525 H 3283.83 0.623148 0.248854 0
M  V30 33526 H 3286.38 2.04108 0.126597 0
M  V30 33527 H 3284.53 3.04146 2.39946 0
M  V30 33528 H 3284.94 5.04081 1.44921 0
M  V30 33529 H 3286.42 4.57155 3.09376 0
M  V30 33530 H 3286.9 2.88891 3.30815 0
M  V30 33531 H 3287.5 3.80153 1.90693 0
M  V30 33532 N 3285.82 -0.406513 1.52267 0
M  V30 33533 C 3287.09 -1.16637 1.5702 0
M  V30 33534 C 3287.47 -2.08131 0.352789 0
M  V30 33535 O 3286.82 -2.18756 -0.66017 0
M  V30 33536 C 3287.03 -1.94138 2.9002 0
M  V30 33537 C 3288.38 -2.50113 3.43116 0
M  V30 33538 O 3289.4 -2.04315 2.91777 0
M  V30 33539 O 3288.26 -3.33724 4.32771 0
M  V30 33540 H 3285.36 -0.532698 0.632584 0
M  V30 33541 H 3287.9 -0.413082 1.64596 0
M  V30 33542 H 3286.67 -1.27127 3.70073 0
M  V30 33543 H 3286.3 -2.76466 2.85749 0
M  V30 33544 N 3287.29 -1.42934 -0.663904 0
M  V30 33545 C 3288.52 -1.47614 -1.45688 0
M  V30 33546 C 3288.94 -0.0920636 -1.87875 0
M  V30 33547 O 3288.3 0.911892 -1.56698 0
M  V30 33548 C 3288.35 -2.41804 -2.67513 0
M  V30 33549 O 3287.45 -1.89692 -3.66184 0
M  V30 33550 H 3286.8 -0.49971 -0.437248 0
M  V30 33551 H 3289.33 -1.87738 -0.813364 0
M  V30 33552 H 3289.34 -2.5875 -3.15456 0
M  V30 33553 H 3288.01 -3.42354 -2.36149 0
M  V30 33554 H 3286.59 -1.82355 -3.25271 0
M  V30 33555 N 3288.77 0.901258 -1.29287 0
M  V30 33556 C 3290.18 1.46684 -1.15501 0
M  V30 33557 C 3290.53 1.94595 0.250412 0
M  V30 33558 O 3289.66 1.83578 1.14578 0
M  V30 33559 C 3290.25 2.66603 -2.09065 0
M  V30 33560 C 3288.81 3.19302 -1.99307 0
M  V30 33561 C 3287.96 1.91996 -2.00082 0
M  V30 33562 H 3290.91 0.712748 -1.41794 0
M  V30 33563 H 3290.93 3.42285 -1.66196 0
M  V30 33564 H 3290.44 2.31702 -3.11345 0
M  V30 33565 H 3288.55 3.589 -1.00109 0
M  V30 33566 H 3288.66 3.83705 -2.86892 0
M  V30 33567 H 3287.02 2.09633 -1.44658 0
M  V30 33568 H 3287.81 1.59374 -3.04064 0
M  V30 33569 N 3290.25 1.11738 1.11141 0
M  V30 33570 C 3291.5 0.862907 1.8231 0
M  V30 33571 C 3291.81 -0.613294 1.85737 0
M  V30 33572 O 3293.02 -0.984124 2.53036 0
M  V30 33573 C 3291.47 1.49402 3.27425 0
M  V30 33574 C 3291.08 3.00448 3.32317 0
M  V30 33575 C 3292.83 1.31951 4.03471 0
M  V30 33576 C 3290.73 3.56529 4.71848 0
M  V30 33577 H 3289.66 0.319162 0.683119 0
M  V30 33578 H 3292.31 1.343 1.25043 0
M  V30 33579 H 3290.7 0.941595 3.84643 0
M  V30 33580 H 3291.87 3.62122 2.84964 0
M  V30 33581 H 3290.19 3.17211 2.69753 0
M  V30 33582 H 3292.78 1.7128 5.06525 0
M  V30 33583 H 3293.13 0.262412 4.15472 0
M  V30 33584 H 3293.66 1.84075 3.52649 0
M  V30 33585 H 3290.4 4.61966 4.65046 0
M  V30 33586 H 3289.92 2.99628 5.19599 0
M  V30 33587 H 3291.6 3.55154 5.40809 0
M  V30 33588 N 3291.73 -1.28802 0.90817 0
M  V30 33589 C 3292.68 -2.27468 0.390774 0
M  V30 33590 C 3293.65 -1.57359 -0.531737 0
M  V30 33591 O 3294.83 -1.85292 -0.455144 0
M  V30 33592 C 3291.97 -3.43131 -0.368098 0
M  V30 33593 C 3291.08 -4.28003 0.586278 0
M  V30 33594 C 3290.22 -5.30858 -0.190487 0
M  V30 33595 C 3289.26 -6.0739 0.757865 0
M  V30 33596 N 3288.39 -7.02098 0.0149722 0
M  V30 33597 H 3293.23 -2.71103 1.23721 0
M  V30 33598 H 3290.77 -1.3333 0.621405 0
M  V30 33599 H 3292.73 -4.08977 -0.824217 0
M  V30 33600 H 3291.36 -3.00502 -1.17893 0
M  V30 33601 H 3290.41 -3.62252 1.16092 0
M  V30 33602 H 3291.72 -4.8124 1.31185 0
M  V30 33603 H 3290.88 -6.02562 -0.707422 0
M  V30 33604 H 3289.62 -4.78375 -0.94915 0
M  V30 33605 H 3288.62 -5.34543 1.28623 0
M  V30 33606 H 3289.85 -6.61963 1.51599 0
M  V30 33607 H 3287.79 -6.51972 -0.725802 0
M  V30 33608 H 3287.71 -7.52931 0.680479 0
M  V30 33609 H 3288.98 -7.78009 -0.48195 0
M  V30 33610 N 3293.21 -0.67155 -1.42576 0
M  V30 33611 C 3294.15 0.00879619 -2.30798 0
M  V30 33612 C 3295.12 0.796051 -1.45781 0
M  V30 33613 O 3296.31 0.768957 -1.74619 0
M  V30 33614 C 3293.45 0.956393 -3.31583 0
M  V30 33615 C 3292.56 0.163305 -4.31691 0
M  V30 33616 C 3291.7 1.10636 -5.19551 0
M  V30 33617 C 3290.74 0.304768 -6.11341 0
M  V30 33618 N 3289.87 1.20036 -6.91763 0
M  V30 33619 H 3294.71 -0.749352 -2.88425 0
M  V30 33620 H 3292.25 -0.381276 -1.42073 0
M  V30 33621 H 3294.21 1.51959 -3.88541 0
M  V30 33622 H 3292.84 1.68121 -2.75564 0
M  V30 33623 H 3291.89 -0.516462 -3.76878 0
M  V30 33624 H 3293.2 -0.459187 -4.96682 0
M  V30 33625 H 3292.36 1.73959 -5.81226 0
M  V30 33626 H 3291.09 1.76274 -4.54729 0
M  V30 33627 H 3290.1 -0.341694 -5.48737 0
M  V30 33628 H 3291.32 -0.347471 -6.7821 0
M  V30 33629 H 3289.27 1.8432 -6.29573 0
M  V30 33630 H 3289.19 0.632871 -7.53346 0
M  V30 33631 H 3290.46 1.82116 -7.57927 0
M  V30 33632 N 3294.68 1.52047 -0.414663 0
M  V30 33633 C 3295.59 2.30903 0.41482 0
M  V30 33634 C 3296.61 1.3886 1.04852 0
M  V30 33635 O 3297.79 1.71934 1.04883 0
M  V30 33636 C 3294.85 3.1192 1.5135 0
M  V30 33637 C 3293.91 4.19711 0.902285 0
M  V30 33638 C 3293.15 4.96855 1.94861 0
M  V30 33639 O 3293.37 4.74363 3.16758 0
M  V30 33640 O 3292.3 5.81553 1.55176 0
M  V30 33641 H 3296.13 3.02841 -0.228304 0
M  V30 33642 H 3293.71 1.48339 -0.17773 0
M  V30 33643 H 3295.6 3.62355 2.15121 0
M  V30 33644 H 3294.27 2.42771 2.14112 0
M  V30 33645 H 3293.18 3.7341 0.227144 0
M  V30 33646 H 3294.51 4.91168 0.318501 0
M  V30 33647 N 3296.16 0.145261 1.56929 0
M  V30 33648 C 3297.07 -0.80818 2.2024 0
M  V30 33649 C 3298.09 -1.27302 1.18618 0
M  V30 33650 O 3299.26 -1.33057 1.51188 0
M  V30 33651 C 3296.33 -2.0305 2.81019 0
M  V30 33652 C 3295.39 -1.61505 3.97762 0
M  V30 33653 C 3294.62 -2.7791 4.55633 0
M  V30 33654 O 3294.85 -3.94075 4.12385 0
M  V30 33655 O 3293.78 -2.53482 5.45922 0
M  V30 33656 H 3297.61 -0.299261 3.02222 0
M  V30 33657 H 3295.19 -0.0816789 1.49177 0
M  V30 33658 H 3297.07 -2.74586 3.19656 0
M  V30 33659 H 3295.75 -2.52897 2.02051 0
M  V30 33660 H 3294.66 -0.869969 3.63844 0
M  V30 33661 H 3295.99 -1.16375 4.78244 0
M  V30 33662 N 3297.64 -1.57075 -0.128525 0
M  V30 33663 C 3298.87 -1.88894 -0.856367 0
M  V30 33664 C 3299.29 -0.736226 -1.73093 0
M  V30 33665 O 3298.65 0.313597 -1.78567 0
M  V30 33666 C 3298.7 -3.19409 -1.67362 0
M  V30 33667 O 3297.8 -3.04644 -2.77967 0
M  V30 33668 H 3297.14 -0.620106 -0.237413 0
M  V30 33669 H 3299.67 -2.04283 -0.113785 0
M  V30 33670 H 3299.68 -3.51893 -2.06484 0
M  V30 33671 H 3298.36 -4.02905 -1.03154 0
M  V30 33672 H 3296.93 -2.83608 -2.42118 0
M  V30 33673 N 3299.12 0.398432 -1.5248 0
M  V30 33674 C 3300.35 1.16583 -1.70927 0
M  V30 33675 C 3300.76 1.8399 -0.423452 0
M  V30 33676 O 3300.12 1.72307 0.601364 0
M  V30 33677 C 3300.17 2.22094 -2.8523 0
M  V30 33678 O 3299.89 1.57437 -4.08834 0
M  V30 33679 C 3301.39 3.11633 -3.15277 0
M  V30 33680 H 3298.61 0.349914 -0.572539 0
M  V30 33681 H 3301.16 0.467381 -1.99087 0
M  V30 33682 H 3299.31 2.8759 -2.59558 0
M  V30 33683 H 3299.73 2.27471 -4.72607 0
M  V30 33684 H 3301.2 3.81717 -3.98743 0
M  V30 33685 H 3301.68 3.7461 -2.29269 0
M  V30 33686 H 3302.28 2.51794 -3.42753 0
M  V30 33687 N 3300.6 1.43284 0.656314 0
M  V30 33688 C 3301.54 1.48202 1.76931 0
M  V30 33689 C 3302.51 0.332052 1.62747 0
M  V30 33690 O 3303.7 0.538768 1.83035 0
M  V30 33691 C 3300.84 1.40802 3.15069 0
M  V30 33692 C 3299.95 2.6598 3.4041 0
M  V30 33693 C 3299.09 2.5059 4.68378 0
M  V30 33694 C 3298.13 3.71052 4.86813 0
M  V30 33695 N 3297.26 3.54491 6.06037 0
M  V30 33696 H 3302.1 2.43307 1.72063 0
M  V30 33697 H 3299.64 1.20778 0.839707 0
M  V30 33698 H 3301.6 1.34506 3.94923 0
M  V30 33699 H 3300.23 0.49281 3.19016 0
M  V30 33700 H 3299.28 2.82567 2.54676 0
M  V30 33701 H 3300.59 3.55469 3.49919 0
M  V30 33702 H 3299.75 2.41985 5.56353 0
M  V30 33703 H 3298.49 1.5862 4.61184 0
M  V30 33704 H 3297.49 3.80069 3.97275 0
M  V30 33705 H 3298.72 4.64026 4.95839 0
M  V30 33706 H 3296.66 2.65253 5.99981 0
M  V30 33707 H 3296.58 4.37579 6.1649 0
M  V30 33708 H 3297.85 3.49731 6.96641 0
M  V30 33709 N 3302.08 -0.894389 1.29763 0
M  V30 33710 C 3303.03 -1.98615 1.11965 0
M  V30 33711 C 3304.01 -1.60856 0.0375235 0
M  V30 33712 O 3305.2 -1.75083 0.25982 0
M  V30 33713 C 3302.33 -3.33758 0.803767 0
M  V30 33714 C 3301.42 -3.7786 1.92569 0
M  V30 33715 N 3301.81 -3.94146 3.1699 0
M  V30 33716 C 3300.11 -4.07179 1.81993 0
M  V30 33717 C 3300.81 -4.31397 3.9022 0
M  V30 33718 N 3299.78 -4.40737 3.18201 0
M  V30 33719 H 3303.58 -2.09284 2.06343 0
M  V30 33720 H 3301.1 -1.08357 1.20965 0
M  V30 33721 H 3303.1 -4.11686 0.657295 0
M  V30 33722 H 3301.76 -3.24431 -0.132041 0
M  V30 33723 H 3302.77 -3.79533 3.52385 0
M  V30 33724 H 3299.44 -4.06379 0.957184 0
M  V30 33725 H 3300.83 -4.51799 4.9732 0
M  V30 33726 N 3303.55 -1.12326 -1.10547 0
M  V30 33727 C 3304.8 -0.877849 -1.82483 0
M  V30 33728 C 3305.13 0.59634 -1.85132 0
M  V30 33729 O 3304.38 1.45677 -1.30678 0
M  V30 33730 C 3304.68 -1.39632 -3.28995 0
M  V30 33731 C 3304.35 -2.88535 -3.46495 0
M  V30 33732 C 3303.01 -3.29193 -3.50978 0
M  V30 33733 C 3305.36 -3.84391 -3.51984 0
M  V30 33734 C 3302.69 -4.64416 -3.58517 0
M  V30 33735 C 3305.04 -5.19444 -3.61055 0
M  V30 33736 C 3303.71 -5.59646 -3.63803 0
M  V30 33737 H 3302.98 -0.321228 -0.667753 0
M  V30 33738 H 3305.62 -1.40325 -1.30312 0
M  V30 33739 H 3303.93 -0.791359 -3.83725 0
M  V30 33740 H 3305.63 -1.18266 -3.83163 0
M  V30 33741 H 3302.22 -2.56088 -3.43681 0
M  V30 33742 H 3306.4 -3.54075 -3.47771 0
M  V30 33743 H 3301.66 -4.94957 -3.58926 0
M  V30 33744 H 3305.83 -5.93546 -3.64247 0
M  V30 33745 H 3303.46 -6.64417 -3.69397 0
M  V30 33746 N 3305.03 1.28319 -0.914988 0
M  V30 33747 C 3306.44 1.7696 -0.595151 0
M  V30 33748 C 3306.79 1.74876 0.88955 0
M  V30 33749 O 3305.92 1.34421 1.69588 0
M  V30 33750 C 3306.51 3.2134 -1.07358 0
M  V30 33751 C 3305.07 3.67699 -0.804642 0
M  V30 33752 C 3304.22 2.48051 -1.2396 0
M  V30 33753 H 3307.17 1.14765 -1.09612 0
M  V30 33754 H 3307.19 3.78224 -0.415572 0
M  V30 33755 H 3306.7 3.22825 -2.15419 0
M  V30 33756 H 3304.8 3.71673 0.262704 0
M  V30 33757 H 3304.92 4.57782 -1.41325 0
M  V30 33758 H 3303.28 2.46045 -0.658317 0
M  V30 33759 H 3304.06 2.52254 -2.32858 0
M  V30 33760 N 3306.51 0.679102 1.42218 0
M  V30 33761 C 3307.46 0.00344373 2.308 0
M  V30 33762 C 3308.43 -0.788308 1.46202 0
M  V30 33763 O 3309.61 -0.759685 1.75024 0
M  V30 33764 C 3306.75 -0.938795 3.32085 0
M  V30 33765 C 3305.86 -0.140409 4.31772 0
M  V30 33766 C 3305 -1.07879 5.2013 0
M  V30 33767 C 3304.04 -0.272343 6.11494 0
M  V30 33768 N 3303.18 -1.16366 6.9239 0
M  V30 33769 H 3308.02 0.764637 2.88023 0
M  V30 33770 H 3305.55 0.388805 1.41869 0
M  V30 33771 H 3307.51 -1.49896 3.89342 0
M  V30 33772 H 3306.14 -1.66657 2.76451 0
M  V30 33773 H 3305.19 0.536442 3.76599 0
M  V30 33774 H 3306.5 0.485521 4.96431 0
M  V30 33775 H 3305.66 -1.70874 5.8214 0
M  V30 33776 H 3304.4 -1.7386 4.55658 0
M  V30 33777 H 3303.4 0.37079 5.48548 0
M  V30 33778 H 3304.63 0.383434 6.78017 0
M  V30 33779 H 3302.57 -1.80979 6.30542 0
M  V30 33780 H 3302.49 -0.59291 7.53671 0
M  V30 33781 H 3303.76 -1.78094 7.58883 0
M  V30 33782 N 3307.99 -1.51825 0.42272 0
M  V30 33783 C 3309.24 -2.01555 -0.148312 0
M  V30 33784 C 3309.56 -1.30959 -1.44481 0
M  V30 33785 O 3308.83 -0.439633 -1.90903 0
M  V30 33786 H 3307.41 -0.744761 -0.0577985 0
M  V30 33787 H 3310.07 -1.86619 0.562079 0
M  V30 33788 H 3309.16 -3.103 -0.334711 0
M  V30 33789 N 3309.47 -0.153581 -1.5685 0
M  V30 33790 C 3310.4 0.821791 -2.12889 0
M  V30 33791 C 3311.38 1.23796 -1.0542 0
M  V30 33792 O 3312.56 1.33289 -1.3329 0
M  V30 33793 C 3309.69 2.10433 -2.65397 0
M  V30 33794 C 3308.73 1.83357 -3.85074 0
M  V30 33795 S 3309.57 1.01868 -5.25722 0
M  V30 33796 C 3310.72 2.31226 -5.81623 0
M  V30 33797 H 3310.96 0.345262 -2.95288 0
M  V30 33798 H 3308.49 0.0608106 -1.5428 0
M  V30 33799 H 3310.45 2.84107 -2.96299 0
M  V30 33800 H 3309.11 2.552 -1.83116 0
M  V30 33801 H 3308.3 2.78475 -4.20081 0
M  V30 33802 H 3307.9 1.17788 -3.54968 0
M  V30 33803 H 3310.19 3.26828 -5.93456 0
M  V30 33804 H 3311.14 2.00715 -6.79058 0
M  V30 33805 H 3311.55 2.42176 -5.09913 0
M  V30 33806 N 3310.94 1.57141 0.120193 0
M  V30 33807 C 3312.36 1.52408 0.473691 0
M  V30 33808 C 3312.56 0.866386 1.81923 0
M  V30 33809 O 3311.62 0.448217 2.4849 0
M  V30 33810 C 3312.93 2.97172 0.459285 0
M  V30 33811 C 3314.48 3.08255 0.542921 0
M  V30 33812 C 3314.95 4.54577 0.558916 0
M  V30 33813 N 3316.44 4.59027 0.620388 0
M  V30 33814 C 3317.18 5.69656 0.654192 0
M  V30 33815 N 3316.67 6.89784 0.645714 0
M  V30 33816 N 3318.47 5.57761 0.69711 0
M  V30 33817 H 3310.62 1.98282 -0.761455 0
M  V30 33818 H 3312.88 0.905474 -0.280752 0
M  V30 33819 H 3312.59 3.48656 -0.461715 0
M  V30 33820 H 3312.46 3.54546 1.28752 0
M  V30 33821 H 3314.85 2.56774 1.45434 0
M  V30 33822 H 3314.93 2.53878 -0.312981 0
M  V30 33823 H 3314.57 5.06703 -0.348456 0
M  V30 33824 H 3314.5 5.06765 1.43168 0
M  V30 33825 H 3316.99 3.72558 0.633153 0
M  V30 33826 H 3317.31 7.69854 0.674098 0
M  V30 33827 H 3315.65 6.9229 0.613157 0
M  V30 33828 H 3318.84 4.6282 0.701089 0
M  V30 33829 H 3319.02 6.43988 0.719987 0
M  V30 33830 N 3312.42 -0.39034 1.5269 0
M  V30 33831 C 3313.83 -0.968338 1.59625 0
M  V30 33832 C 3314.18 -1.9101 0.448273 0
M  V30 33833 O 3313.31 -2.12108 -0.428831 0
M  V30 33834 C 3313.9 -1.76301 2.89315 0
M  V30 33835 C 3312.46 -2.29073 2.98668 0
M  V30 33836 C 3311.61 -1.09588 2.54727 0
M  V30 33837 H 3314.56 -0.169931 1.57788 0
M  V30 33838 H 3314.58 -2.62213 2.75726 0
M  V30 33839 H 3314.09 -1.07732 3.72848 0
M  V30 33840 H 3312.2 -3.00958 2.1967 0
M  V30 33841 H 3312.31 -2.58652 4.03282 0
M  V30 33842 H 3310.67 -1.45551 2.09015 0
M  V30 33843 H 3311.46 -0.425565 3.40652 0
M  V30 33844 N 3313.9 -1.4363 -0.648706 0
M  V30 33845 C 3315.13 -1.48935 -1.43618 0
M  V30 33846 C 3315.54 -0.108632 -1.88487 0
M  V30 33847 O 3314.9 0.882038 -1.5977 0
M  V30 33848 C 3314.95 -2.43907 -2.66817 0
M  V30 33849 O 3314.67 -3.76609 -2.23823 0
M  V30 33850 C 3316.17 -2.58499 -3.60129 0
M  V30 33851 H 3313.39 -0.505687 -0.441046 0
M  V30 33852 H 3315.94 -1.88419 -0.794903 0
M  V30 33853 H 3314.09 -2.07607 -3.27075 0
M  V30 33854 H 3314.51 -4.27723 -3.03568 0
M  V30 33855 H 3315.98 -3.29018 -4.43228 0
M  V30 33856 H 3316.46 -1.63141 -4.07777 0
M  V30 33857 H 3317.06 -2.95629 -3.0575 0
M  V30 33858 N 3315.38 0.887495 -1.30236 0
M  V30 33859 C 3316.63 1.63379 -1.1828 0
M  V30 33860 C 3316.94 1.93837 0.262045 0
M  V30 33861 O 3318.15 2.66798 0.50308 0
M  V30 33862 C 3316.6 2.94449 -2.06949 0
M  V30 33863 C 3316.21 2.71541 -3.56328 0
M  V30 33864 C 3317.95 3.72406 -2.03749 0
M  V30 33865 C 3315.86 3.98411 -4.37061 0
M  V30 33866 H 3314.79 0.612951 -0.439098 0
M  V30 33867 H 3317.44 0.982751 -1.54965 0
M  V30 33868 H 3315.82 3.60832 -1.63144 0
M  V30 33869 H 3317 2.13674 -4.08265 0
M  V30 33870 H 3315.31 2.06962 -3.61325 0
M  V30 33871 H 3317.91 4.66493 -2.61321 0
M  V30 33872 H 3318.25 4.03602 -1.02037 0
M  V30 33873 H 3318.79 3.12882 -2.45662 0
M  V30 33874 H 3315.53 3.72376 -5.39459 0
M  V30 33875 H 3315.05 4.55792 -3.89889 0
M  V30 33876 H 3316.72 4.66454 -4.48364 0
M  V30 33877 N 3316.86 1.12911 1.0995 0
M  V30 33878 C 3317.79 0.759343 2.16256 0
M  V30 33879 C 3318.8 -0.216398 1.61355 0
M  V30 33880 O 3319.99 0.00300362 1.785 0
M  V30 33881 C 3317.09 0.103967 3.3874 0
M  V30 33882 C 3316.26 1.11044 4.2307 0
M  V30 33883 C 3315.32 0.481759 5.2399 0
M  V30 33884 O 3314.35 1.14021 5.57663 0
M  V30 33885 N 3315.55 -0.748596 5.75653 0
M  V30 33886 H 3318.32 1.67409 2.48585 0
M  V30 33887 H 3315.88 1.02139 1.25615 0
M  V30 33888 H 3317.87 -0.328729 4.03363 0
M  V30 33889 H 3316.44 -0.713623 3.04345 0
M  V30 33890 H 3315.66 1.7206 3.54667 0
M  V30 33891 H 3316.95 1.79086 4.76241 0
M  V30 33892 H 3316.34 -1.30243 5.50503 0
M  V30 33893 H 3314.9 -1.12403 6.42035 0
M  V30 33894 N 3318.33 -1.27832 0.92178 0
M  V30 33895 C 3319.24 -2.30779 0.421709 0
M  V30 33896 C 3320.26 -1.66821 -0.494657 0
M  V30 33897 O 3321.44 -1.97804 -0.3789 0
M  V30 33898 C 3318.5 -3.45193 -0.322867 0
M  V30 33899 C 3317.56 -4.24686 0.627692 0
M  V30 33900 C 3316.8 -5.33638 -0.0814447 0
M  V30 33901 O 3317.02 -5.55345 -1.30183 0
M  V30 33902 O 3315.95 -5.99027 0.587355 0
M  V30 33903 H 3319.78 -2.75578 1.27635 0
M  V30 33904 H 3317.36 -1.32673 0.6869 0
M  V30 33905 H 3319.25 -4.14797 -0.743072 0
M  V30 33906 H 3317.92 -3.02461 -1.15321 0
M  V30 33907 H 3316.83 -3.5764 1.09746 0
M  V30 33908 H 3318.16 -4.71118 1.42508 0
M  V30 33909 N 3319.81 -0.686634 -1.41856 0
M  V30 33910 C 3321.04 -0.221073 -2.06218 0
M  V30 33911 C 3321.46 1.11759 -1.51299 0
M  V30 33912 O 3320.82 1.69768 -0.636283 0
M  V30 33913 C 3320.87 -0.179488 -3.60153 0
M  V30 33914 O 3319.97 0.848411 -4.03579 0
M  V30 33915 H 3319.31 -0.110239 -0.654785 0
M  V30 33916 H 3321.84 -0.93898 -1.81781 0
M  V30 33917 H 3321.85 -0.00732504 -4.07999 0
M  V30 33918 H 3320.53 -1.15654 -3.99496 0
M  V30 33919 H 3319.11 0.646328 -3.67256 0
M  V30 33920 N 3321.29 1.51599 -0.430766 0
M  V30 33921 C 3322.57 1.946 0.197509 0
M  V30 33922 C 3322.95 1.36904 1.60688 0
M  V30 33923 O 3322.3 0.553461 2.21696 0
M  V30 33924 C 3322.51 3.48526 0.181915 0
M  V30 33925 C 3323.85 4.22799 0.390708 0
M  V30 33926 O 3324.88 3.55247 0.260322 0
M  V30 33927 O 3323.74 5.42625 0.649606 0
M  V30 33928 H 3320.83 0.816152 0.13351 0
M  V30 33929 H 3323.38 1.62524 -0.488271 0
M  V30 33930 H 3322.15 3.82958 -0.803651 0
M  V30 33931 H 3321.77 3.87025 0.910884 0
M  V30 33932 N 3322.77 0.161897 1.56766 0
M  V30 33933 C 3324 -0.491992 2.00965 0
M  V30 33934 C 3324.41 -1.57436 1.04209 0
M  V30 33935 O 3323.77 -1.82453 0.0414318 0
M  V30 33936 C 3323.82 -1.07898 3.45022 0
M  V30 33937 O 3323.54 -0.0398315 4.38082 0
M  V30 33938 C 3325.04 -1.81202 4.04575 0
M  V30 33939 H 3322.26 -0.126785 0.658913 0
M  V30 33940 H 3324.81 0.260859 2.02829 0
M  V30 33941 H 3322.96 -1.78237 3.43963 0
M  V30 33942 H 3323.37 -0.471894 5.22373 0
M  V30 33943 H 3324.85 -2.17545 5.07325 0
M  V30 33944 H 3325.33 -2.70352 3.4613 0
M  V30 33945 H 3325.93 -1.15527 4.09309 0
M  V30 33946 N 3324.25 -1.57203 -0.111858 0
M  V30 33947 C 3325.16 -2.04167 -1.15556 0
M  V30 33948 C 3326.17 -0.96338 -1.44897 0
M  V30 33949 O 3327.35 -1.27539 -1.55871 0
M  V30 33950 C 3324.41 -2.44261 -2.46044 0
M  V30 33951 C 3323.47 -3.66205 -2.24037 0
M  V30 33952 C 3322.71 -4.04377 -3.48303 0
M  V30 33953 O 3322.93 -3.42814 -4.55889 0
M  V30 33954 O 3321.86 -4.97436 -3.38882 0
M  V30 33955 H 3325.69 -2.93333 -0.786727 0
M  V30 33956 H 3323.28 -1.45863 -0.32317 0
M  V30 33957 H 3325.16 -2.70751 -3.22912 0
M  V30 33958 H 3323.83 -1.58238 -2.82387 0
M  V30 33959 H 3322.74 -3.44854 -1.45004 0
M  V30 33960 H 3324.07 -4.52955 -1.92594 0
M  V30 33961 N 3325.72 0.382237 -1.52894 0
M  V30 33962 C 3326.65 1.47363 -1.81125 0
M  V30 33963 C 3327.64 1.56618 -0.66368 0
M  V30 33964 O 3328.82 1.71457 -0.911928 0
M  V30 33965 C 3325.95 2.84899 -1.9862 0
M  V30 33966 C 3324.9 2.9048 -3.14333 0
M  V30 33967 C 3324.23 4.3053 -3.17093 0
M  V30 33968 C 3325.53 2.59511 -4.53267 0
M  V30 33969 H 3327.22 1.23988 -2.7252 0
M  V30 33970 H 3324.77 0.595026 -1.31131 0
M  V30 33971 H 3326.72 3.61261 -2.16952 0
M  V30 33972 H 3325.45 3.09626 -1.0392 0
M  V30 33973 H 3324.11 2.16566 -2.95795 0
M  V30 33974 H 3323.75 4.52307 -2.20063 0
M  V30 33975 H 3323.45 4.35183 -3.94828 0
M  V30 33976 H 3324.98 5.08789 -3.37589 0
M  V30 33977 H 3326.39 3.2559 -4.71873 0
M  V30 33978 H 3324.79 2.75505 -5.3312 0
M  V30 33979 H 3325.86 1.54823 -4.59519 0
M  V30 33980 N 3327.2 1.43972 0.64108 0
M  V30 33981 C 3328.13 1.52888 1.76487 0
M  V30 33982 C 3329.11 0.382609 1.65741 0
M  V30 33983 O 3330.3 0.60143 1.84652 0
M  V30 33984 C 3327.43 1.46316 3.14975 0
M  V30 33985 C 3326.38 2.59317 3.40498 0
M  V30 33986 C 3325.71 2.37797 4.78912 0
M  V30 33987 C 3327.01 4.01514 3.34041 0
M  V30 33988 H 3328.7 2.46949 1.69282 0
M  V30 33989 H 3326.25 1.18855 0.812994 0
M  V30 33990 H 3328.2 1.51156 3.93357 0
M  V30 33991 H 3326.93 0.487656 3.22939 0
M  V30 33992 H 3325.59 2.53851 2.64491 0
M  V30 33993 H 3325.23 1.38462 4.83567 0
M  V30 33994 H 3324.93 3.13554 4.96948 0
M  V30 33995 H 3326.46 2.44439 5.59537 0
M  V30 33996 H 3327.87 4.08403 4.02343 0
M  V30 33997 H 3326.27 4.77394 3.63613 0
M  V30 33998 H 3327.34 4.2579 2.32015 0
M  V30 33999 N 3328.68 -0.880575 1.30704 0
M  V30 34000 C 3329.93 -1.63275 1.19781 0
M  V30 34001 C 3330.26 -1.92932 -0.246487 0
M  V30 34002 O 3329.51 -1.55191 -1.19223 0
M  V30 34003 C 3329.81 -2.97785 1.97633 0
M  V30 34004 C 3329.48 -2.87663 3.47218 0
M  V30 34005 C 3328.14 -2.8461 3.88009 0
M  V30 34006 C 3330.49 -2.75469 4.42455 0
M  V30 34007 C 3327.82 -2.67207 5.22319 0
M  V30 34008 C 3330.17 -2.59604 5.76878 0
M  V30 34009 C 3328.83 -2.54928 6.16902 0
M  V30 34010 H 3328.1 -0.597467 0.438309 0
M  V30 34011 H 3330.75 -1.02349 1.61855 0
M  V30 34012 H 3329.06 -3.62687 1.48207 0
M  V30 34013 H 3330.75 -3.54955 1.8657 0
M  V30 34014 H 3327.34 -2.90852 3.14807 0
M  V30 34015 H 3331.53 -2.76891 4.1188 0
M  V30 34016 H 3326.78 -2.62004 5.52416 0
M  V30 34017 H 3330.96 -2.49143 6.50308 0
M  V30 34018 H 3328.58 -2.41201 7.2092 0
M  V30 34019 N 3330.16 -1.13492 -1.09349 0
M  V30 34020 C 3331.38 -0.920722 -1.85843 0
M  V30 34021 C 3331.81 0.525271 -1.80617 0
M  V30 34022 O 3331.17 1.3728 -1.18422 0
M  V30 34023 C 3331.22 -1.41415 -3.31714 0
M  V30 34024 O 3330.32 -0.59991 -4.08013 0
M  V30 34025 H 3329.66 -0.32992 -0.576237 0
M  V30 34026 H 3332.19 -1.50979 -1.38082 0
M  V30 34027 H 3332.2 -1.41812 -3.82562 0
M  V30 34028 H 3330.88 -2.46698 -3.34833 0
M  V30 34029 H 3329.45 -0.663881 -3.66943 0
M  V30 34030 N 3331.64 1.27341 -0.928546 0
M  V30 34031 C 3332.89 1.93945 -0.568301 0
M  V30 34032 C 3333.21 1.73327 0.89347 0
M  V30 34033 O 3332.48 1.0815 1.63342 0
M  V30 34034 H 3331.06 0.717693 -0.207186 0
M  V30 34035 H 3333.72 1.55034 -1.18112 0
M  V30 34036 H 3332.81 3.02317 -0.775299 0
M  V30 34037 N 3333.12 0.694147 1.4149 0
M  V30 34038 C 3334.05 0.042258 2.33462 0
M  V30 34039 C 3335.03 -0.768693 1.5174 0
M  V30 34040 O 3336.21 -0.721953 1.80282 0
M  V30 34041 C 3333.34 -0.895866 3.35547 0
M  V30 34042 C 3332.3 -0.192113 4.27569 0
M  V30 34043 C 3331.62 -1.2445 5.20016 0
M  V30 34044 C 3332.92 0.940716 5.13759 0
M  V30 34045 H 3334.62 0.810414 2.88223 0
M  V30 34046 H 3332.16 0.391164 1.38585 0
M  V30 34047 H 3334.11 -1.36114 3.98812 0
M  V30 34048 H 3332.84 -1.69567 2.79132 0
M  V30 34049 H 3331.5 0.253114 3.65725 0
M  V30 34050 H 3331.15 -2.03679 4.59917 0
M  V30 34051 H 3330.85 -0.778632 5.82418 0
M  V30 34052 H 3332.37 -1.71031 5.86158 0
M  V30 34053 H 3333.78 0.555792 5.706 0
M  V30 34054 H 3332.18 1.33359 5.85094 0
M  V30 34055 H 3333.25 1.78101 4.51008 0
M  V30 34056 N 3334.59 -1.51368 0.438799 0
M  V30 34057 C 3335.84 -2.01701 -0.126926 0
M  V30 34058 C 3336.16 -1.32484 -1.43084 0
M  V30 34059 O 3335.43 -0.459856 -1.90426 0
M  V30 34060 H 3334.01 -0.745332 -0.0498961 0
M  V30 34061 H 3336.67 -1.86012 0.58184 0
M  V30 34062 H 3335.77 -3.10638 -0.301781 0
M  V30 34063 N 3336.07 -0.170208 -1.56678 0
M  V30 34064 C 3337.3 0.484507 -2.01661 0
M  V30 34065 C 3337.72 1.5609 -1.04965 0
M  V30 34066 O 3337.08 1.81277 -0.0290205 0
M  V30 34067 C 3337.13 1.04078 -3.45254 0
M  V30 34068 O 3336.23 2.15482 -3.51627 0
M  V30 34069 H 3335.57 0.116123 -0.653767 0
M  V30 34070 H 3338.1 -0.273773 -2.0276 0
M  V30 34071 H 3338.11 1.36366 -3.84536 0
M  V30 34072 H 3336.79 0.252665 -4.15132 0
M  V30 34073 H 3335.36 1.84246 -3.24203 0
M  V30 34074 N 3337.55 1.5726 0.10352 0
M  V30 34075 C 3338.8 1.85291 0.806947 0
M  V30 34076 C 3339.12 0.757684 1.79678 0
M  V30 34077 O 3338.39 -0.216878 1.94696 0
M  V30 34078 H 3336.97 0.683672 0.301 0
M  V30 34079 H 3339.63 1.94705 0.0871544 0
M  V30 34080 H 3338.73 2.81741 1.34271 0
M  V30 34081 N 3339.03 -0.374123 1.53095 0
M  V30 34082 C 3339.94 -1.48184 1.81875 0
M  V30 34083 C 3340.95 -1.59011 0.706515 0
M  V30 34084 O 3342.13 -1.75066 0.995679 0
M  V30 34085 C 3339.19 -2.83551 1.99499 0
M  V30 34086 C 3338.26 -2.82323 3.23407 0
M  V30 34087 C 3337.49 -4.11233 3.40181 0
M  V30 34088 O 3337.71 -5.0696 2.61434 0
M  V30 34089 O 3336.65 -4.17565 4.33501 0
M  V30 34090 H 3340.47 -1.2679 2.75967 0
M  V30 34091 H 3338.06 -0.563405 1.38369 0
M  V30 34092 H 3339.94 -3.63774 2.12712 0
M  V30 34093 H 3338.61 -3.0494 1.08597 0
M  V30 34094 H 3337.52 -2.00828 3.15624 0
M  V30 34095 H 3338.85 -2.65887 4.14204 0
M  V30 34096 N 3340.51 -1.4431 -0.633436 0
M  V30 34097 C 3341.42 -1.53485 -1.77425 0
M  V30 34098 C 3342.43 -0.420658 -1.68839 0
M  V30 34099 O 3343.61 -0.677671 -1.89656 0
M  V30 34100 C 3340.67 -1.47415 -3.13799 0
M  V30 34101 C 3339.73 -2.69666 -3.34034 0
M  V30 34102 C 3338.97 -2.63876 -4.63902 0
M  V30 34103 O 3339.19 -1.6975 -5.44556 0
M  V30 34104 O 3338.12 -3.54692 -4.86289 0
M  V30 34105 H 3341.95 -2.4986 -1.72638 0
M  V30 34106 H 3339.53 -1.26531 -0.794376 0
M  V30 34107 H 3341.42 -1.46544 -3.95098 0
M  V30 34108 H 3340.09 -0.541825 -3.19133 0
M  V30 34109 H 3339 -2.76105 -2.52422 0
M  V30 34110 H 3340.33 -3.61937 -3.3356 0
M  V30 34111 N 3341.98 0.873632 -1.3117 0
M  V30 34112 C 3343.23 1.62879 -1.20824 0
M  V30 34113 C 3343.56 1.92786 0.23396 0
M  V30 34114 O 3342.84 1.55686 1.16586 0
M  V30 34115 C 3343.12 2.96135 -2.0488 0
M  V30 34116 C 3342.97 2.7313 -3.5738 0
M  V30 34117 C 3344.29 3.97195 -1.89537 0
M  V30 34118 H 3341.41 0.591042 -0.440271 0
M  V30 34119 H 3344.05 1.01016 -1.60922 0
M  V30 34120 H 3342.2 3.48935 -1.70812 0
M  V30 34121 H 3343.88 2.27031 -4.01565 0
M  V30 34122 H 3342.12 2.07428 -3.80994 0
M  V30 34123 H 3342.79 3.67932 -4.11497 0
M  V30 34124 H 3345.27 3.53592 -2.19343 0
M  V30 34125 H 3344.14 4.88325 -2.50659 0
M  V30 34126 H 3344.4 4.33701 -0.857652 0
M  V30 34127 N 3343.46 1.1407 1.08746 0
M  V30 34128 C 3344.39 0.847178 2.17589 0
M  V30 34129 C 3345.37 -0.196385 1.68963 0
M  V30 34130 O 3346.56 -0.0538074 1.94125 0
M  V30 34131 C 3343.69 0.320066 3.45822 0
M  V30 34132 C 3342.64 1.29868 4.07822 0
M  V30 34133 C 3341.97 0.631019 5.30964 0
M  V30 34134 C 3343.27 2.65971 4.49507 0
M  V30 34135 H 3344.96 1.75733 2.42401 0
M  V30 34136 H 3342.51 0.846377 1.16501 0
M  V30 34137 H 3344.46 0.102345 4.21276 0
M  V30 34138 H 3343.19 -0.625505 3.20554 0
M  V30 34139 H 3341.84 1.50251 3.34395 0
M  V30 34140 H 3341.49 -0.320248 5.01979 0
M  V30 34141 H 3341.19 1.28398 5.734 0
M  V30 34142 H 3342.72 0.422742 6.09135 0
M  V30 34143 H 3344.13 2.49515 5.16154 0
M  V30 34144 H 3342.53 3.27507 5.02851 0
M  V30 34145 H 3343.6 3.23108 3.61565 0
M  V30 34146 N 3344.94 -1.26847 0.935286 0
M  V30 34147 C 3346.35 -1.75991 0.623229 0
M  V30 34148 C 3346.7 -1.76269 -0.861616 0
M  V30 34149 O 3345.83 -1.37102 -1.67428 0
M  V30 34150 C 3346.42 -3.19592 1.12457 0
M  V30 34151 C 3344.98 -3.66372 0.863038 0
M  V30 34152 C 3344.13 -2.46047 1.2789 0
M  V30 34153 H 3347.08 -1.13006 1.11424 0
M  V30 34154 H 3347.1 -3.77515 0.475692 0
M  V30 34155 H 3346.61 -3.19357 2.20528 0
M  V30 34156 H 3344.71 -3.72044 -0.203541 0
M  V30 34157 H 3344.83 -4.55475 1.4859 0
M  V30 34158 H 3343.19 -2.44967 0.697378 0
M  V30 34159 H 3343.97 -2.48518 2.36841 0
M  V30 34160 N 3346.42 -0.701641 -1.4112 0
M  V30 34161 C 3347.65 -0.244402 -2.05451 0
M  V30 34162 C 3348.06 1.10864 -1.52822 0
M  V30 34163 O 3347.42 1.694 -0.67896 0
M  V30 34164 C 3347.47 -0.200175 -3.60945 0
M  V30 34165 O 3347.19 -1.49977 -4.11629 0
M  V30 34166 C 3348.69 0.277316 -4.42432 0
M  V30 34167 H 3345.91 -0.112464 -0.661508 0
M  V30 34168 H 3348.46 -0.955931 -1.80782 0
M  V30 34169 H 3346.61 0.462219 -3.84633 0
M  V30 34170 H 3347.02 -1.39093 -5.05721 0
M  V30 34171 H 3348.5 0.257128 -5.51401 0
M  V30 34172 H 3348.98 1.3172 -4.18983 0
M  V30 34173 H 3349.58 -0.354297 -4.23822 0
M  V30 34174 N 3347.9 1.51133 -0.446821 0
M  V30 34175 C 3348.83 2.30859 0.350189 0
M  V30 34176 C 3349.81 1.36686 1.01247 0
M  V30 34177 O 3350.99 1.65607 1.0143 0
M  V30 34178 C 3348.12 3.1575 1.44635 0
M  V30 34179 C 3347.08 4.18279 0.907029 0
M  V30 34180 C 3346.4 4.91751 2.09965 0
M  V30 34181 C 3347.7 5.22259 -0.0650676 0
M  V30 34182 H 3349.4 2.97737 -0.315157 0
M  V30 34183 H 3346.94 1.43185 -0.15301 0
M  V30 34184 H 3348.9 3.70309 2.0112 0
M  V30 34185 H 3347.62 2.46712 2.14012 0
M  V30 34186 H 3346.28 3.64785 0.364318 0
M  V30 34187 H 3345.93 4.19207 2.77983 0
M  V30 34188 H 3345.63 5.61087 1.74513 0
M  V30 34189 H 3347.15 5.49136 2.66987 0
M  V30 34190 H 3348.56 5.71833 0.409799 0
M  V30 34191 H 3346.96 5.99177 -0.332634 0
M  V30 34192 H 3348.03 4.74503 -0.998764 0
M  V30 34193 N 3349.37 0.178515 1.56586 0
M  V30 34194 C 3350.79 -0.336976 1.83634 0
M  V30 34195 C 3351.14 -1.62558 1.0986 0
M  V30 34196 O 3350.26 -2.13485 0.353971 0
M  V30 34197 C 3350.86 -0.618166 3.33113 0
M  V30 34198 C 3349.42 -1.07808 3.60631 0
M  V30 34199 C 3348.56 -0.117777 2.7705 0
M  V30 34200 H 3351.51 0.402639 1.53507 0
M  V30 34201 H 3351.53 -1.46941 3.50982 0
M  V30 34202 H 3351.05 0.319876 3.8678 0
M  V30 34203 H 3349.15 -2.03097 3.12382 0
M  V30 34204 H 3349.26 -0.982257 4.68923 0
M  V30 34205 H 3347.62 -0.616519 2.47126 0
M  V30 34206 H 3348.41 0.814414 3.335 0
M  V30 34207 N 3350.85 -1.57312 -0.0951784 0
M  V30 34208 C 3352.08 -1.9029 -0.812237 0
M  V30 34209 C 3352.5 -0.772208 -1.72286 0
M  V30 34210 O 3351.85 0.25581 -1.80698 0
M  V30 34211 C 3351.9 -3.22884 -1.62566 0
M  V30 34212 O 3351.62 -4.31603 -0.751674 0
M  V30 34213 C 3353.13 -3.69724 -2.44579 0
M  V30 34214 H 3350.35 -0.629526 -0.232245 0
M  V30 34215 H 3352.89 -2.04372 -0.0724374 0
M  V30 34216 H 3351.04 -3.10401 -2.31797 0
M  V30 34217 H 3351.46 -5.07747 -1.31505 0
M  V30 34218 H 3352.93 -4.65197 -2.97146 0
M  V30 34219 H 3353.41 -2.97561 -3.23039 0
M  V30 34220 H 3354.02 -3.85075 -1.80547 0
M  V30 34221 N 3352.33 0.365999 -1.53291 0
M  V30 34222 C 3353.24 1.47218 -1.82658 0
M  V30 34223 C 3354.26 1.58634 -0.714938 0
M  V30 34224 O 3355.43 1.74536 -1.00495 0
M  V30 34225 C 3352.5 2.82489 -2.01 0
M  V30 34226 C 3351.56 2.80604 -3.249 0
M  V30 34227 C 3350.79 4.09423 -3.42357 0
M  V30 34228 O 3351.01 5.05566 -2.64119 0
M  V30 34229 O 3349.95 4.1526 -4.35709 0
M  V30 34230 H 3353.77 1.25325 -2.76636 0
M  V30 34231 H 3351.36 0.556059 -1.38666 0
M  V30 34232 H 3353.24 3.62641 -2.14638 0
M  V30 34233 H 3351.92 3.0436 -1.10212 0
M  V30 34234 H 3350.82 1.99152 -3.16685 0
M  V30 34235 H 3352.16 2.63687 -4.15608 0
M  V30 34236 N 3353.81 1.44644 0.625774 0
M  V30 34237 C 3355.03 1.51424 1.41723 0
M  V30 34238 C 3355.46 0.141843 1.87564 0
M  V30 34239 O 3354.82 -0.870026 1.5906 0
M  V30 34240 C 3354.86 2.48812 2.61008 0
M  V30 34241 O 3353.97 1.99334 3.61026 0
M  V30 34242 H 3353.31 0.511127 0.423846 0
M  V30 34243 H 3355.84 1.89828 0.763303 0
M  V30 34244 H 3355.85 2.67023 3.08484 0
M  V30 34245 H 3354.52 3.48495 2.26989 0
M  V30 34246 H 3353.1 1.90915 3.20322 0
M  V30 34247 N 3355.29 -0.866663 1.31631 0
M  V30 34248 C 3356.53 -1.62236 1.21686 0
M  V30 34249 C 3356.87 -1.92907 -0.223733 0
M  V30 34250 O 3356.14 -1.56302 -1.15758 0
M  V30 34251 C 3356.42 -2.95045 2.06448 0
M  V30 34252 C 3356.28 -2.71231 3.58823 0
M  V30 34253 C 3357.6 -3.96184 1.91641 0
M  V30 34254 H 3354.71 -0.588699 0.443399 0
M  V30 34255 H 3357.36 -1.00161 1.61455 0
M  V30 34256 H 3355.51 -3.48024 1.7266 0
M  V30 34257 H 3357.18 -2.24898 4.02764 0
M  V30 34258 H 3355.42 -2.05404 3.82088 0
M  V30 34259 H 3356.09 -3.65745 4.13442 0
M  V30 34260 H 3358.57 -3.52424 2.21216 0
M  V30 34261 H 3357.44 -4.86989 2.53245 0
M  V30 34262 H 3357.71 -4.3324 0.88064 0
M  V30 34263 N 3356.77 -1.14645 -1.0814 0
M  V30 34264 C 3357.71 -0.831551 -2.17228 0
M  V30 34265 C 3358.71 0.191701 -1.68312 0
M  V30 34266 O 3359.91 0.047528 -1.79937 0
M  V30 34267 H 3356.29 -0.251202 -0.708803 0
M  V30 34268 H 3358.26 -1.75944 -2.41011 0
M  V30 34269 C 3357.01 -0.328408 -3.46146 0
M  V30 34270 H 3356.33 -1.10715 -3.84164 0
M  V30 34271 H 3357.77 -0.146643 -4.23746 0
M  V30 34272 C 3356.23 0.948537 -3.23271 0
M  V30 34273 O 3356.76 2.02174 -3.47115 0
M  V30 34274 N 3354.97 0.88486 -2.76801 0
M  V30 34275 H 3354.51 0.0113537 -2.57597 0
M  V30 34276 H 3354.47 1.7398 -2.61874 0
M  V30 34277 N 3358.24 1.26349 -0.942 0
M  V30 34278 C 3359.49 1.93714 -0.590005 0
M  V30 34279 C 3359.82 1.73905 0.871054 0
M  V30 34280 O 3359.07 1.06994 1.63862 0
M  V30 34281 C 3359.37 3.46408 -0.879542 0
M  V30 34282 C 3359.04 3.86358 -2.32461 0
M  V30 34283 C 3357.7 3.96975 -2.71964 0
M  V30 34284 C 3360.05 4.06367 -3.26367 0
M  V30 34285 C 3357.38 4.24999 -4.04466 0
M  V30 34286 C 3359.73 4.35879 -4.58467 0
M  V30 34287 C 3358.4 4.44711 -4.97783 0
M  V30 34288 H 3357.67 0.70885 -0.215898 0
M  V30 34289 H 3360.31 1.50144 -1.18866 0
M  V30 34290 H 3358.62 3.91298 -0.198357 0
M  V30 34291 H 3360.32 3.96696 -0.585956 0
M  V30 34292 H 3356.91 3.78641 -2.00821 0
M  V30 34293 H 3361.09 3.97591 -2.97044 0
M  V30 34294 H 3356.35 4.30049 -4.34589 0
M  V30 34295 H 3360.52 4.50307 -5.31221 0
M  V30 34296 H 3358.15 4.6618 -6.00483 0
M  V30 34297 N 3359.72 0.709115 1.40746 0
M  V30 34298 C 3360.95 0.255294 2.05319 0
M  V30 34299 C 3361.36 -1.10052 1.53408 0
M  V30 34300 O 3360.72 -1.69038 0.687934 0
M  V30 34301 C 3360.77 0.219314 3.60834 0
M  V30 34302 O 3360.49 1.52158 4.10828 0
M  V30 34303 C 3361.99 -0.253849 4.42573 0
M  V30 34304 H 3359.21 0.115971 0.660902 0
M  V30 34305 H 3361.76 0.965505 1.80273 0
M  V30 34306 H 3359.91 -0.441815 3.84872 0
M  V30 34307 H 3360.33 1.41773 5.04976 0
M  V30 34308 H 3361.8 -0.227883 5.51529 0
M  V30 34309 H 3362.28 -1.29497 4.19675 0
M  V30 34310 H 3362.88 0.376768 4.23628 0
M  V30 34311 N 3361.2 -1.50894 0.454829 0
M  V30 34312 C 3362.11 -2.31922 -0.353455 0
M  V30 34313 C 3363.13 -1.41591 -1.01134 0
M  V30 34314 O 3364.3 -1.74655 -1.00288 0
M  V30 34315 C 3361.37 -3.15823 -1.43027 0
M  V30 34316 C 3360.43 -4.21956 -0.790689 0
M  V30 34317 C 3359.66 -5.01847 -1.81619 0
M  V30 34318 O 3359.88 -4.82595 -3.0407 0
M  V30 34319 O 3358.82 -5.85463 -1.39702 0
M  V30 34320 H 3362.64 -3.02129 0.308517 0
M  V30 34321 H 3360.23 -1.47816 0.216997 0
M  V30 34322 H 3362.11 -3.67931 -2.05438 0
M  V30 34323 H 3360.79 -2.48362 -2.07601 0
M  V30 34324 H 3359.69 -3.73881 -0.128061 0
M  V30 34325 H 3361.03 -4.9184 -0.188164 0
M  V30 34326 N 3362.68 -0.186817 -1.56489 0
M  V30 34327 C 3363.92 0.454796 -1.97635 0
M  V30 34328 C 3364.26 1.61841 -1.07337 0
M  V30 34329 O 3363.53 1.94107 -0.123646 0
M  V30 34330 C 3363.81 0.922901 -3.48073 0
M  V30 34331 C 3363.67 -0.241956 -4.49149 0
M  V30 34332 C 3364.99 1.79127 -4.01997 0
M  V30 34333 H 3362.11 0.163842 -0.718557 0
M  V30 34334 H 3364.75 -0.276073 -1.87984 0
M  V30 34335 H 3362.9 1.54568 -3.56428 0
M  V30 34336 H 3364.57 -0.879439 -4.52839 0
M  V30 34337 H 3362.81 -0.895039 -4.24466 0
M  V30 34338 H 3363.48 0.127954 -5.51852 0
M  V30 34339 H 3365.96 1.26611 -3.9637 0
M  V30 34340 H 3364.84 2.08778 -5.07645 0
M  V30 34341 H 3365.1 2.74254 -3.46752 0
M  V30 34342 N 3364.16 1.57361 0.0868344 0
M  V30 34343 C 3365.07 2.05979 1.12293 0
M  V30 34344 C 3366.08 0.986309 1.43346 0
M  V30 34345 O 3367.26 1.30003 1.53822 0
M  V30 34346 C 3364.32 2.48144 2.42127 0
M  V30 34347 C 3363.38 3.69723 2.18182 0
M  V30 34348 C 3362.62 4.09867 3.41825 0
M  V30 34349 O 3362.84 3.50024 4.50377 0
M  V30 34350 O 3361.77 5.02765 3.30925 0
M  V30 34351 H 3365.6 2.94548 0.73996 0
M  V30 34352 H 3363.18 1.46359 0.299924 0
M  V30 34353 H 3365.07 2.75854 3.18563 0
M  V30 34354 H 3363.74 1.6271 2.79834 0
M  V30 34355 H 3362.65 3.47118 1.395 0
M  V30 34356 H 3363.98 4.55962 1.85364 0
M  V30 34357 N 3365.63 -0.357865 1.53483 0
M  V30 34358 C 3366.57 -1.45907 1.76759 0
M  V30 34359 C 3367.58 -1.49325 0.648528 0
M  V30 34360 O 3368.77 -1.52665 0.924959 0
M  V30 34361 C 3365.87 -2.84637 1.83943 0
M  V30 34362 C 3365.04 -3.04825 3.13688 0
M  V30 34363 C 3364.1 -4.23714 3.12014 0
M  V30 34364 O 3363.13 -4.18517 3.85787 0
M  V30 34365 N 3364.33 -5.31523 2.33375 0
M  V30 34366 H 3367.09 -1.26316 2.7178 0
M  V30 34367 H 3364.65 -0.547646 1.52356 0
M  V30 34368 H 3366.65 -3.62322 1.80292 0
M  V30 34369 H 3365.22 -2.97438 0.961727 0
M  V30 34370 H 3364.44 -2.14733 3.3058 0
M  V30 34371 H 3365.72 -3.15187 3.99418 0
M  V30 34372 H 3365.12 -5.3861 1.72963 0
M  V30 34373 H 3363.68 -6.07755 2.35535 0
M  V30 34374 N 3367.11 -1.44974 -0.618094 0
M  V30 34375 C 3368.36 -1.47717 -1.37341 0
M  V30 34376 C 3368.67 -0.118819 -1.95239 0
M  V30 34377 O 3369.88 -0.0238459 -2.7149 0
M  V30 34378 C 3368.34 -2.6012 -2.48728 0
M  V30 34379 C 3367.94 -4.02221 -1.97287 0
M  V30 34380 C 3369.69 -2.72099 -3.25826 0
M  V30 34381 C 3367.59 -5.06025 -3.06093 0
M  V30 34382 H 3366.52 -0.549626 -0.516166 0
M  V30 34383 H 3369.18 -1.71081 -0.663587 0
M  V30 34384 H 3367.56 -2.3002 -3.22346 0
M  V30 34385 H 3368.73 -4.4195 -1.30447 0
M  V30 34386 H 3367.05 -3.946 -1.32965 0
M  V30 34387 H 3369.64 -3.46822 -4.06962 0
M  V30 34388 H 3369.99 -1.78366 -3.76153 0
M  V30 34389 H 3370.52 -3.01673 -2.59303 0
M  V30 34390 H 3367.26 -6.0143 -2.60695 0
M  V30 34391 H 3366.78 -4.70875 -3.71533 0
M  V30 34392 H 3368.46 -5.30307 -3.70652 0
M  V30 34393 N 3368.59 0.85967 -1.32089 0
M  V30 34394 C 3369.54 1.98922 -1.20552 0
M  V30 34395 C 3370.53 1.69033 -0.111451 0
M  V30 34396 O 3371.74 1.77902 -0.274041 0
M  V30 34397 H 3368.11 0.65266 -0.373549 0
M  V30 34398 H 3370.08 2.05781 -2.16094 0
M  V30 34399 C 3368.83 3.34745 -0.940284 0
M  V30 34400 H 3368.16 3.5827 -1.77433 0
M  V30 34401 H 3369.6 4.14343 -0.899785 0
M  V30 34402 C 3368.05 3.35003 0.356983 0
M  V30 34403 O 3368.58 3.77599 1.37048 0
M  V30 34404 N 3366.79 2.88142 0.377179 0
M  V30 34405 H 3366.34 2.53673 -0.448095 0
M  V30 34406 H 3366.3 2.88697 1.24504 0
M  V30 34407 N 3370.07 1.15217 1.0753 0
M  V30 34408 C 3371.02 0.84306 2.16784 0
M  V30 34409 C 3372.01 -0.182772 1.68411 0
M  V30 34410 O 3373.22 -0.0379848 1.7996 0
M  V30 34411 H 3369.59 0.254958 0.707461 0
M  V30 34412 H 3371.56 1.77219 2.40075 0
M  V30 34413 C 3370.31 0.34676 3.45967 0
M  V30 34414 H 3369.63 1.1275 3.83572 0
M  V30 34415 H 3371.07 0.169113 4.23663 0
M  V30 34416 C 3369.53 -0.93138 3.2377 0
M  V30 34417 O 3370.06 -2.0033 3.48182 0
M  V30 34418 N 3368.27 -0.870169 2.77266 0
M  V30 34419 H 3367.82 0.00230751 2.576 0
M  V30 34420 H 3367.77 -1.72589 2.62793 0
M  V30 34421 N 3371.55 -1.25848 0.948687 0
M  V30 34422 C 3372.77 -1.97478 0.617264 0
M  V30 34423 C 3373.19 -1.70571 -0.809376 0
M  V30 34424 O 3372.55 -0.978287 -1.54064 0
M  V30 34425 C 3372.6 -3.51143 0.859127 0
M  V30 34426 O 3372.32 -3.77118 2.22966 0
M  V30 34427 C 3373.82 -4.40008 0.539275 0
M  V30 34428 H 3371.04 -0.629637 0.231944 0
M  V30 34429 H 3373.58 -1.60171 1.27144 0
M  V30 34430 H 3371.74 -3.86583 0.251448 0
M  V30 34431 H 3372.15 -4.71609 2.29533 0
M  V30 34432 H 3373.63 -5.46756 0.759083 0
M  V30 34433 H 3374.1 -4.36039 -0.525985 0
M  V30 34434 H 3374.71 -4.10123 1.12601 0
M  V30 34435 N 3373.02 -0.716569 -1.40368 0
M  V30 34436 C 3373.95 -0.0793944 -2.33365 0
M  V30 34437 C 3374.94 0.744455 -1.52944 0
M  V30 34438 O 3376.12 0.69318 -1.81407 0
M  V30 34439 C 3373.25 0.84237 -3.36929 0
M  V30 34440 C 3372.2 0.124067 -4.2782 0
M  V30 34441 C 3371.53 1.16161 -5.2193 0
M  V30 34442 C 3372.83 -1.02233 -5.12197 0
M  V30 34443 H 3374.52 -0.856165 -2.86897 0
M  V30 34444 H 3372.07 -0.413162 -1.37946 0
M  V30 34445 H 3374.02 1.29752 -4.00927 0
M  V30 34446 H 3372.75 1.65105 -2.81794 0
M  V30 34447 H 3371.41 -0.311266 -3.65276 0
M  V30 34448 H 3371.05 1.96337 -4.63099 0
M  V30 34449 H 3370.75 0.685875 -5.83583 0
M  V30 34450 H 3372.28 1.61684 -5.88804 0
M  V30 34451 H 3373.69 -0.646499 -5.69643 0
M  V30 34452 H 3372.09 -1.4265 -5.82899 0
M  V30 34453 H 3373.16 -1.85254 -4.48117 0
M  V30 34454 N 3374.5 1.50651 -0.462825 0
M  V30 34455 C 3375.73 2.06391 0.092805 0
M  V30 34456 C 3376.14 1.32772 1.34789 0
M  V30 34457 O 3375.48 0.38808 1.79554 0
M  V30 34458 C 3375.55 3.56608 0.455108 0
M  V30 34459 C 3375.21 4.51657 -0.696778 0
M  V30 34460 C 3376.21 4.95424 -1.57642 0
M  V30 34461 C 3373.89 4.94447 -0.884756 0
M  V30 34462 C 3375.89 5.80679 -2.62851 0
M  V30 34463 C 3373.57 5.79486 -1.94009 0
M  V30 34464 C 3374.57 6.22503 -2.81033 0
M  V30 34465 O 3374.26 7.05849 -3.8475 0
M  V30 34466 H 3373.99 0.676 -4.37722e-05 0
M  V30 34467 H 3376.54 1.94904 -0.648195 0
M  V30 34468 H 3374.77 3.65968 1.24918 0
M  V30 34469 H 3376.46 3.9475 0.944854 0
M  V30 34470 H 3377.23 4.63041 -1.44284 0
M  V30 34471 H 3373.11 4.6049 -0.216888 0
M  V30 34472 H 3376.65 6.14176 -3.30808 0
M  V30 34473 H 3372.55 6.11282 -2.07376 0
M  V30 34474 H 3373.32 7.24082 -3.81638 0
M  V30 34475 N 3375.98 0.195113 1.56388 0
M  V30 34476 C 3377.39 -0.317481 1.83981 0
M  V30 34477 C 3377.74 -1.61384 1.11578 0
M  V30 34478 O 3376.87 -2.13098 0.376594 0
M  V30 34479 C 3377.46 -0.582801 3.3375 0
M  V30 34480 C 3376.02 -1.03976 3.61754 0
M  V30 34481 C 3375.17 -0.0883853 2.77159 0
M  V30 34482 H 3378.12 0.418898 1.53072 0
M  V30 34483 H 3378.14 -1.4321 3.52521 0
M  V30 34484 H 3377.65 0.360881 3.86419 0
M  V30 34485 H 3375.75 -1.99772 3.14518 0
M  V30 34486 H 3375.87 -0.932466 4.69938 0
M  V30 34487 H 3374.23 -0.590274 2.47766 0
M  V30 34488 H 3375.01 0.849741 3.32617 0
M  V30 34489 N 3377.46 -1.57404 -0.0784879 0
M  V30 34490 C 3378.41 -1.9967 -1.10073 0
M  V30 34491 C 3379.39 -0.877694 -1.34853 0
M  V30 34492 O 3380.58 -1.14158 -1.35266 0
M  V30 34493 C 3377.71 -2.43858 -2.41637 0
M  V30 34494 C 3376.8 -3.62479 -2.20159 0
M  V30 34495 N 3377.19 -4.76875 -1.68593 0
M  V30 34496 C 3375.49 -3.68898 -2.5066 0
M  V30 34497 C 3376.19 -5.58752 -1.61775 0
M  V30 34498 N 3375.17 -5.02403 -2.07586 0
M  V30 34499 H 3378.97 -2.85558 -0.695246 0
M  V30 34500 H 3376.48 -1.59868 -0.285666 0
M  V30 34501 H 3378.48 -2.72373 -3.15624 0
M  V30 34502 H 3377.14 -1.59353 -2.82908 0
M  V30 34503 H 3378.15 -4.99299 -1.37552 0
M  V30 34504 H 3374.83 -2.95092 -2.95342 0
M  V30 34505 H 3376.22 -6.6058 -1.22816 0
M  V30 34506 N 3378.94 0.34972 -1.53671 0
M  V30 34507 C 3380.16 1.11086 -1.74549 0
M  V30 34508 C 3380.58 1.8255 -0.481773 0
M  V30 34509 O 3379.94 1.74133 0.546242 0
M  V30 34510 C 3379.99 2.12908 -2.92152 0
M  V30 34511 O 3379.71 1.44351 -4.13636 0
M  V30 34512 C 3381.21 3.01445 -3.25032 0
M  V30 34513 H 3378.43 0.331522 -0.583382 0
M  V30 34514 H 3380.97 0.403806 -2.00474 0
M  V30 34515 H 3379.13 2.79187 -2.68577 0
M  V30 34516 H 3379.54 2.12321 -4.79604 0
M  V30 34517 H 3381.02 3.68838 -4.10685 0
M  V30 34518 H 3381.49 3.67126 -2.4107 0
M  V30 34519 H 3382.1 2.40762 -3.50591 0
M  V30 34520 N 3380.41 1.45299 0.610397 0
M  V30 34521 C 3381.64 1.52919 1.40109 0
M  V30 34522 C 3382.06 0.161729 1.87403 0
M  V30 34523 O 3381.42 -0.853107 1.59974 0
M  V30 34524 C 3381.47 2.51566 2.58354 0
M  V30 34525 O 3380.57 2.03152 3.58891 0
M  V30 34526 H 3379.92 0.515594 0.418401 0
M  V30 34527 H 3382.45 1.90627 0.743126 0
M  V30 34528 H 3382.46 2.7028 3.05635 0
M  V30 34529 H 3381.13 3.50883 2.2328 0
M  V30 34530 H 3379.71 1.94301 3.18279 0
M  V30 34531 N 3381.89 -0.852653 1.32543 0
M  V30 34532 C 3382.82 -1.96805 1.17475 0
M  V30 34533 C 3383.84 -1.62433 0.109226 0
M  V30 34534 O 3385.03 -1.74865 0.358372 0
M  V30 34535 C 3382.13 -3.29887 0.776386 0
M  V30 34536 C 3381.3 -3.92487 1.93062 0
M  V30 34537 C 3380.36 -5.03904 1.51548 0
M  V30 34538 O 3379.38 -5.23792 2.2278 0
M  V30 34539 N 3380.59 -5.79032 0.412635 0
M  V30 34540 H 3383.35 -2.10272 2.13555 0
M  V30 34541 H 3380.91 -1.02762 1.25106 0
M  V30 34542 H 3382.9 -4.01831 0.481031 0
M  V30 34543 H 3381.47 -3.12461 -0.09332 0
M  V30 34544 H 3380.69 -3.13304 2.39236 0
M  V30 34545 H 3381.98 -4.31045 2.70329 0
M  V30 34546 H 3381.38 -5.65413 -0.180186 0
M  V30 34547 H 3379.94 -6.5156 0.176894 0
M  V30 34548 N 3383.37 -1.15786 -1.06918 0
M  V30 34549 C 3384.62 -0.936846 -1.79864 0
M  V30 34550 C 3384.95 0.534444 -1.86701 0
M  V30 34551 O 3384.22 1.39634 -1.35398 0
M  V30 34552 C 3384.51 -1.55722 -3.24688 0
M  V30 34553 C 3384.36 -3.09942 -3.2597 0
M  V30 34554 C 3385.68 -1.24666 -4.22074 0
M  V30 34555 H 3382.8 -0.341768 -0.652965 0
M  V30 34556 H 3385.44 -1.43019 -1.25083 0
M  V30 34557 H 3383.59 -1.1377 -3.71468 0
M  V30 34558 H 3385.26 -3.60832 -2.87399 0
M  V30 34559 H 3383.51 -3.43602 -2.64802 0
M  V30 34560 H 3384.18 -3.48465 -4.28108 0
M  V30 34561 H 3386.65 -1.60963 -3.83706 0
M  V30 34562 H 3385.53 -1.70684 -5.21688 0
M  V30 34563 H 3385.79 -0.164419 -4.41794 0
M  V30 34564 N 3384.85 1.25343 -0.955348 0
M  V30 34565 C 3385.76 2.29579 -0.482748 0
M  V30 34566 C 3386.77 1.68074 0.450253 0
M  V30 34567 O 3387.95 1.98739 0.326323 0
M  V30 34568 C 3385.02 3.45928 0.231232 0
M  V30 34569 C 3384.08 4.22873 -0.74007 0
M  V30 34570 C 3383.31 5.33666 -0.0600686 0
M  V30 34571 O 3383.53 5.58602 1.15414 0
M  V30 34572 O 3382.47 5.97259 -0.74597 0
M  V30 34573 H 3386.29 2.72097 -1.34897 0
M  V30 34574 H 3383.88 1.30805 -0.721834 0
M  V30 34575 H 3385.76 4.16621 0.632835 0
M  V30 34576 H 3384.43 3.05412 1.07261 0
M  V30 34577 H 3383.34 3.54605 -1.19189 0
M  V30 34578 H 3384.67 4.67174 -1.54949 0
M  V30 34579 N 3386.33 0.724003 1.39986 0
M  V30 34580 C 3387.55 0.27567 2.0556 0
M  V30 34581 C 3387.98 -1.07708 1.54209 0
M  V30 34582 O 3387.34 -1.68021 0.68107 0
M  V30 34583 C 3387.38 0.274913 3.59551 0
M  V30 34584 O 3386.49 -0.741111 4.05686 0
M  V30 34585 H 3385.83 0.127561 0.651632 0
M  V30 34586 H 3388.36 0.986846 1.79228 0
M  V30 34587 H 3388.37 0.115496 4.07836 0
M  V30 34588 H 3387.04 1.26205 3.96289 0
M  V30 34589 H 3385.62 -0.54873 3.68841 0
M  V30 34590 N 3387.81 -1.50403 0.470808 0
M  V30 34591 C 3389.03 -2.06738 -0.0819771 0
M  V30 34592 C 3389.45 -1.33471 -1.33533 0
M  V30 34593 O 3388.81 -0.403903 -1.77974 0
M  V30 34594 C 3388.86 -3.59598 -0.370364 0
M  V30 34595 O 3388.58 -4.30102 0.833275 0
M  V30 34596 C 3390.08 -4.32554 -0.970146 0
M  V30 34597 H 3387.3 -0.670964 0.00695682 0
M  V30 34598 H 3389.84 -1.93574 0.65951 0
M  V30 34599 H 3388 -3.72565 -1.06178 0
M  V30 34600 H 3388.41 -5.21309 0.577706 0
M  V30 34601 H 3389.89 -5.40483 -1.1217 0
M  V30 34602 H 3390.36 -3.93032 -1.96017 0
M  V30 34603 H 3390.97 -4.24116 -0.317115 0
M  V30 34604 N 3389.28 -0.203404 -1.56282 0
M  V30 34605 C 3390.51 0.441623 -2.02644 0
M  V30 34606 C 3390.93 1.53828 -1.08252 0
M  V30 34607 O 3390.29 1.81174 -0.0674655 0
M  V30 34608 C 3390.34 0.967308 -3.47384 0
M  V30 34609 O 3389.44 2.07975 -3.56118 0
M  V30 34610 H 3388.78 0.10223 -0.656083 0
M  V30 34611 H 3391.31 -0.316719 -2.02134 0
M  V30 34612 H 3391.32 1.28179 -3.87342 0
M  V30 34613 H 3390 0.164552 -4.15574 0
M  V30 34614 H 3388.58 1.77328 -3.28038 0
M  V30 34615 N 3390.76 1.57444 0.0701393 0
M  V30 34616 C 3391.99 1.91943 0.78567 0
M  V30 34617 C 3392.41 0.799961 1.70242 0
M  V30 34618 O 3391.77 -0.247107 1.79608 0
M  V30 34619 C 3391.82 3.25401 1.55392 0
M  V30 34620 O 3390.92 3.14751 2.66469 0
M  V30 34621 H 3390.26 0.62849 0.214234 0
M  V30 34622 H 3392.79 2.04565 0.0378884 0
M  V30 34623 H 3392.8 3.59314 1.93281 0
M  V30 34624 H 3391.48 4.06455 0.881295 0
M  V30 34625 H 3390.05 2.92398 2.31425 0
M  V30 34626 N 3392.24 -0.341566 1.53854 0
M  V30 34627 C 3393.52 -1.09872 1.61825 0
M  V30 34628 C 3393.9 -2.06448 0.440747 0
M  V30 34629 O 3393.24 -2.21359 -0.566794 0
M  V30 34630 C 3393.45 -1.81662 2.97993 0
M  V30 34631 C 3394.8 -2.35335 3.53416 0
M  V30 34632 O 3395.83 -1.91756 3.0018 0
M  V30 34633 O 3394.69 -3.15068 4.46536 0
M  V30 34634 H 3391.78 -0.505389 0.654608 0
M  V30 34635 H 3394.33 -0.342899 1.662 0
M  V30 34636 H 3393.1 -1.11317 3.75132 0
M  V30 34637 H 3392.72 -2.64098 2.97217 0
M  V30 34638 N 3393.72 -1.45621 -0.602683 0
M  V30 34639 C 3394.66 -1.54667 -1.71309 0
M  V30 34640 C 3395.63 -0.392225 -1.61403 0
M  V30 34641 O 3396.82 -0.606329 -1.8091 0
M  V30 34642 C 3393.96 -1.52399 -3.09627 0
M  V30 34643 C 3393.07 -2.78431 -3.30303 0
M  V30 34644 C 3392.21 -2.67801 -4.58755 0
M  V30 34645 C 3391.25 -3.88864 -4.72707 0
M  V30 34646 N 3390.38 -3.76739 -5.92463 0
M  V30 34647 H 3395.22 -2.49526 -1.62914 0
M  V30 34648 H 3392.76 -1.23811 -0.794302 0
M  V30 34649 H 3394.72 -1.49071 -3.89658 0
M  V30 34650 H 3393.35 -0.610872 -3.16967 0
M  V30 34651 H 3392.4 -2.91825 -2.44013 0
M  V30 34652 H 3393.71 -3.68211 -3.36485 0
M  V30 34653 H 3392.87 -2.62467 -5.46988 0
M  V30 34654 H 3391.61 -1.75627 -4.54979 0
M  V30 34655 H 3390.61 -3.94552 -3.82896 0
M  V30 34656 H 3391.84 -4.82109 -4.78276 0
M  V30 34657 H 3389.78 -2.87338 -5.89723 0
M  V30 34658 H 3389.7 -4.60158 -5.99825 0
M  V30 34659 H 3390.97 -3.75346 -6.83181 0
M  V30 34660 N 3395.2 0.845612 -1.32993 0
M  V30 34661 C 3396.44 1.59533 -1.23418 0
M  V30 34662 C 3396.76 1.94572 0.200244 0
M  V30 34663 O 3397.96 2.68264 0.417946 0
M  V30 34664 C 3396.42 2.87716 -2.16212 0
M  V30 34665 C 3396.03 2.60067 -3.64787 0
M  V30 34666 C 3397.77 3.65736 -2.15494 0
M  V30 34667 C 3395.68 3.84305 -4.49515 0
M  V30 34668 H 3394.61 0.598671 -0.458376 0
M  V30 34669 H 3397.26 0.932953 -1.58013 0
M  V30 34670 H 3395.64 3.55459 -1.74541 0
M  V30 34671 H 3396.82 2.00577 -4.14856 0
M  V30 34672 H 3395.13 1.95362 -3.67726 0
M  V30 34673 H 3397.73 4.57943 -2.76029 0
M  V30 34674 H 3398.07 4.00151 -1.14825 0
M  V30 34675 H 3398.6 3.04908 -2.55492 0
M  V30 34676 H 3395.34 3.55025 -5.51033 0
M  V30 34677 H 3394.86 4.43157 -4.04192 0
M  V30 34678 H 3396.54 4.51953 -4.62977 0
M  V30 34679 N 3396.67 1.16351 1.06302 0
M  V30 34680 C 3397.58 0.884327 2.17294 0
M  V30 34681 C 3398.6 -0.143383 1.73408 0
M  V30 34682 O 3399.78 0.0332341 2.01373 0
M  V30 34683 C 3396.84 0.389223 3.44508 0
M  V30 34684 C 3395.9 1.48215 4.02903 0
M  V30 34685 C 3395.13 1.01057 5.24045 0
M  V30 34686 O 3395.36 -0.139721 5.70229 0
M  V30 34687 O 3394.29 1.79886 5.74391 0
M  V30 34688 H 3398.12 1.81247 2.43687 0
M  V30 34689 H 3395.7 0.94348 1.1584 0
M  V30 34690 H 3397.58 0.120092 4.21229 0
M  V30 34691 H 3396.26 -0.510912 3.19643 0
M  V30 34692 H 3395.17 1.80502 3.27673 0
M  V30 34693 H 3396.5 2.35758 4.32064 0
M  V30 34694 N 3398.15 -1.24835 0.961982 0
M  V30 34695 C 3399.43 -1.8806 0.537842 0
M  V30 34696 C 3399.81 -1.86711 -0.98499 0
M  V30 34697 O 3399.16 -1.33575 -1.85391 0
M  V30 34698 C 3399.37 -3.30444 1.12285 0
M  V30 34699 C 3400.71 -4.07166 1.20422 0
M  V30 34700 O 3401.74 -3.39593 1.07494 0
M  V30 34701 O 3400.6 -5.28054 1.4079 0
M  V30 34702 H 3397.69 -0.807505 0.178505 0
M  V30 34703 H 3400.24 -1.3285 1.05589 0
M  V30 34704 H 3399.01 -3.25894 2.16584 0
M  V30 34705 H 3398.63 -3.93221 0.588499 0
M  V30 34706 N 3399.63 -0.731417 -1.396 0
M  V30 34707 C 3400.88 -0.277792 -2.00586 0
M  V30 34708 C 3401.2 1.13389 -1.58029 0
M  V30 34709 O 3400.46 1.78659 -0.798722 0
M  V30 34710 C 3400.76 -0.323415 -3.55934 0
M  V30 34711 C 3400.42 -1.68761 -4.18128 0
M  V30 34712 C 3399.09 -2.061 -4.34829 0
M  V30 34713 C 3401.44 -2.58347 -4.52666 0
M  V30 34714 C 3398.77 -3.32541 -4.83356 0
M  V30 34715 C 3401.12 -3.84157 -5.026 0
M  V30 34716 C 3399.78 -4.21593 -5.17509 0
M  V30 34717 H 3399.05 -0.101651 -0.733995 0
M  V30 34718 H 3401.7 -0.937557 -1.66979 0
M  V30 34719 H 3400 0.419926 -3.89543 0
M  V30 34720 H 3401.7 0.045653 -4.00974 0
M  V30 34721 H 3398.29 -1.38729 -4.05527 0
M  V30 34722 H 3402.48 -2.30771 -4.39384 0
M  V30 34723 H 3397.73 -3.61494 -4.93084 0
M  V30 34724 H 3401.91 -4.53734 -5.28298 0
M  V30 34725 H 3399.53 -5.19635 -5.54873 0
M  V30 34726 N 3401.11 1.50152 -0.478778 0
M  V30 34727 C 3402.06 2.30314 0.325334 0
M  V30 34728 C 3403.05 1.37937 0.983348 0
M  V30 34729 O 3404.26 1.55093 0.913574 0
M  V30 34730 H 3400.63 0.741746 0.123762 0
M  V30 34731 H 3402.6 2.96084 -0.371056 0
M  V30 34732 C 3401.35 3.18698 1.3902 0
M  V30 34733 H 3400.67 3.89693 0.89326 0
M  V30 34734 H 3402.11 3.77769 1.92526 0
M  V30 34735 C 3400.57 2.36807 2.39633 0
M  V30 34736 O 3401.1 2.05655 3.45063 0
M  V30 34737 N 3399.31 1.99244 2.11543 0
M  V30 34738 H 3398.86 2.24778 1.25828 0
M  V30 34739 H 3398.81 1.44756 2.79093 0
M  V30 34740 N 3402.59 0.211689 1.56172 0
M  V30 34741 C 3404 -0.143879 1.5895 0
M  V30 34742 C 3404.2 -1.59735 1.22829 0
M  V30 34743 O 3403.26 -2.33585 0.958864 0
M  V30 34744 C 3404.57 0.173491 3.00199 0
M  V30 34745 C 3406.12 0.114932 3.12789 0
M  V30 34746 C 3406.59 0.405839 4.56198 0
M  V30 34747 N 3408.09 0.355054 4.61837 0
M  V30 34748 C 3408.82 0.553772 5.7072 0
M  V30 34749 N 3408.32 0.813734 6.88005 0
M  V30 34750 N 3410.11 0.486885 5.59987 0
M  V30 34751 H 3402.26 1.15996 1.77929 0
M  V30 34752 H 3404.52 0.464221 0.826561 0
M  V30 34753 H 3404.23 1.18191 3.31246 0
M  V30 34754 H 3404.1 -0.516167 3.73652 0
M  V30 34755 H 3406.49 -0.884117 2.81545 0
M  V30 34756 H 3406.57 0.837917 2.41687 0
M  V30 34757 H 3406.22 1.40228 4.88158 0
M  V30 34758 H 3406.15 -0.338225 5.25513 0
M  V30 34759 H 3408.64 0.161419 3.77555 0
M  V30 34760 H 3408.95 0.953729 7.66892 0
M  V30 34761 H 3407.29 0.850817 6.89772 0
M  V30 34762 H 3410.49 0.284091 4.67237 0
M  V30 34763 H 3410.66 0.645164 6.4478 0
M  V30 34764 N 3404.06 -1.57479 -0.0617887 0
M  V30 34765 C 3405 -1.99691 -1.10448 0
M  V30 34766 C 3405.98 -0.875497 -1.37018 0
M  V30 34767 O 3407.16 -1.13864 -1.50224 0
M  V30 34768 C 3404.29 -2.34215 -2.44665 0
M  V30 34769 C 3403.33 -3.56467 -2.34166 0
M  V30 34770 S 3404.17 -5.06914 -1.72621 0
M  V30 34771 C 3405.32 -5.4465 -3.08395 0
M  V30 34772 H 3405.55 -2.8782 -0.744792 0
M  V30 34773 H 3403.09 -1.52009 -0.270672 0
M  V30 34774 H 3405.05 -2.5478 -3.21866 0
M  V30 34775 H 3403.71 -1.46597 -2.77791 0
M  V30 34776 H 3402.9 -3.78173 -3.33169 0
M  V30 34777 H 3402.5 -3.35585 -1.65103 0
M  V30 34778 H 3404.79 -5.43332 -4.04717 0
M  V30 34779 H 3405.74 -6.45335 -2.91459 0
M  V30 34780 H 3406.14 -4.72116 -3.09462 0
M  V30 34781 N 3405.54 0.333401 -1.54033 0
M  V30 34782 C 3406.45 1.4331 -1.8574 0
M  V30 34783 C 3407.47 1.57081 -0.748426 0
M  V30 34784 O 3408.64 1.72365 -1.04174 0
M  V30 34785 C 3405.71 2.78162 -2.06947 0
M  V30 34786 C 3404.77 2.73649 -3.30779 0
M  V30 34787 C 3404 4.02069 -3.50964 0
M  V30 34788 O 3404.23 4.9985 -2.74783 0
M  V30 34789 O 3403.16 4.05925 -4.44419 0
M  V30 34790 H 3406.99 1.19429 -2.79232 0
M  V30 34791 H 3404.57 0.526521 -1.39815 0
M  V30 34792 H 3406.45 3.58007 -2.22282 0
M  V30 34793 H 3405.13 3.01954 -1.16643 0
M  V30 34794 H 3404.04 1.9239 -3.20838 0
M  V30 34795 H 3405.37 2.54812 -4.21108 0
M  V30 34796 N 3407.02 1.45939 0.594952 0
M  V30 34797 C 3407.97 1.55926 1.72598 0
M  V30 34798 C 3408.96 0.428439 1.63893 0
M  V30 34799 O 3410.17 0.604844 1.69534 0
M  V30 34800 H 3406.54 0.490004 0.570439 0
M  V30 34801 H 3408.51 2.51045 1.61303 0
M  V30 34802 C 3407.26 1.5551 3.10985 0
M  V30 34803 H 3406.59 2.41856 3.18349 0
M  V30 34804 H 3408.03 1.66554 3.89917 0
M  V30 34805 C 3406.49 0.281632 3.35721 0
M  V30 34806 O 3407.02 -0.633267 3.96677 0
M  V30 34807 N 3405.22 0.173365 2.90082 0
M  V30 34808 H 3404.77 0.918762 2.40659 0
M  V30 34809 H 3404.73 -0.677849 3.07006 0
M  V30 34810 N 3408.5 -0.838547 1.3344 0
M  V30 34811 C 3409.74 -1.59618 1.251 0
M  V30 34812 C 3410.08 -1.93338 -0.182764 0
M  V30 34813 O 3409.35 -1.58722 -1.12417 0
M  V30 34814 C 3409.64 -2.90599 2.1266 0
M  V30 34815 C 3409.49 -2.63559 3.64495 0
M  V30 34816 C 3410.81 -3.9203 2.00001 0
M  V30 34817 H 3407.93 -0.579161 0.455786 0
M  V30 34818 H 3410.57 -0.96714 1.63543 0
M  V30 34819 H 3408.72 -3.44283 1.80004 0
M  V30 34820 H 3410.39 -2.16304 4.07443 0
M  V30 34821 H 3408.63 -1.97253 3.86359 0
M  V30 34822 H 3409.3 -3.56893 4.21107 0
M  V30 34823 H 3411.78 -3.47653 2.28641 0
M  V30 34824 H 3410.66 -4.81508 2.63518 0
M  V30 34825 H 3410.92 -4.31275 0.972339 0
M  V30 34826 N 3409.98 -1.16914 -1.05683 0
M  V30 34827 C 3410.94 -0.883684 -2.1148 0
M  V30 34828 C 3411.94 0.124005 -1.60321 0
M  V30 34829 O 3413.13 -0.107597 -1.73867 0
M  V30 34830 C 3410.26 -0.322708 -3.39369 0
M  V30 34831 H 3411.45 -1.82165 -2.38235 0
M  V30 34832 H 3409.01 -0.978916 -1.21848 0
M  V30 34833 H 3409.74 0.622639 -3.18267 0
M  V30 34834 H 3409.53 -1.0489 -3.7781 0
M  V30 34835 H 3411.02 -0.141145 -4.17361 0
M  V30 34836 N 3411.45 1.24323 -0.968589 0
M  V30 34837 C 3412.4 2.25344 -0.498857 0
M  V30 34838 C 3413.37 1.59716 0.456054 0
M  V30 34839 O 3414.56 1.87252 0.366221 0
M  V30 34840 C 3411.7 3.44497 0.203967 0
M  V30 34841 C 3410.81 4.24719 -0.789816 0
M  V30 34842 C 3409.94 5.31163 -0.0630089 0
M  V30 34843 C 3408.98 6.03083 -1.0468 0
M  V30 34844 N 3408.12 7.01227 -0.349935 0
M  V30 34845 H 3412.96 2.64892 -1.36515 0
M  V30 34846 H 3410.5 1.30214 -0.684311 0
M  V30 34847 H 3412.46 4.12444 0.62815 0
M  V30 34848 H 3411.09 3.05784 1.03421 0
M  V30 34849 H 3410.14 3.56301 -1.33244 0
M  V30 34850 H 3411.45 4.74433 -1.53997 0
M  V30 34851 H 3410.6 6.05251 0.419127 0
M  V30 34852 H 3409.34 4.82359 0.71983 0
M  V30 34853 H 3408.35 5.27798 -1.5398 0
M  V30 34854 H 3409.57 6.53976 -1.8301 0
M  V30 34855 H 3407.52 6.54693 0.413911 0
M  V30 34856 H 3407.44 7.48827 -1.03894 0
M  V30 34857 H 3408.7 7.79422 0.110203 0
M  V30 34858 N 3412.93 0.73881 1.3921 0
M  V30 34859 C 3413.84 0.102999 2.34374 0
M  V30 34860 C 3414.86 -0.717568 1.58515 0
M  V30 34861 O 3416.03 -0.645152 1.90787 0
M  V30 34862 C 3413.1 -0.790674 3.37564 0
M  V30 34863 C 3412.16 0.0425783 4.29279 0
M  V30 34864 C 3411.39 -0.808535 5.2754 0
M  V30 34865 O 3411.62 -2.04713 5.32399 0
M  V30 34866 O 3410.55 -0.235173 6.0144 0
M  V30 34867 H 3414.38 0.888549 2.90411 0
M  V30 34868 H 3411.96 0.499523 1.40802 0
M  V30 34869 H 3413.84 -1.30189 4.00785 0
M  V30 34870 H 3412.52 -1.55497 2.83905 0
M  V30 34871 H 3411.43 0.5994 3.69267 0
M  V30 34872 H 3412.76 0.769186 4.86153 0
M  V30 34873 N 3414.41 -1.49895 0.486734 0
M  V30 34874 C 3415.66 -2.02702 -0.0629095 0
M  V30 34875 C 3415.99 -1.36683 -1.37954 0
M  V30 34876 O 3415.26 -0.497711 -1.88024 0
M  V30 34877 C 3415.55 -3.59362 -0.230398 0
M  V30 34878 C 3415.4 -4.35931 1.10835 0
M  V30 34879 C 3416.72 -4.29102 -0.97771 0
M  V30 34880 H 3413.84 -0.73669 -0.0213887 0
M  V30 34881 H 3416.48 -1.79062 0.635371 0
M  V30 34882 H 3414.63 -3.79636 -0.825155 0
M  V30 34883 H 3416.3 -4.27189 1.74089 0
M  V30 34884 H 3414.55 -3.99052 1.70117 0
M  V30 34885 H 3415.22 -5.43857 0.944627 0
M  V30 34886 H 3417.69 -4.13398 -0.473432 0
M  V30 34887 H 3416.57 -5.38494 -1.06372 0
M  V30 34888 H 3416.83 -3.93353 -2.01806 0
M  V30 34889 N 3415.89 -0.219968 -1.56057 0
M  V30 34890 C 3417.14 0.411348 -1.97869 0
M  V30 34891 C 3417.46 1.60407 -1.10881 0
M  V30 34892 O 3416.73 1.9502 -0.185488 0
M  V30 34893 H 3415.31 0.154966 -0.730749 0
M  V30 34894 H 3417.97 -0.312495 -1.92378 0
M  V30 34895 H 3417.07 0.738744 -3.03231 0
M  V30 34896 N 3417.37 1.57509 0.0534363 0
M  V30 34897 C 3418.78 1.76692 0.603068 0
M  V30 34898 C 3419.13 0.847892 1.76933 0
M  V30 34899 O 3418.25 0.0365342 2.16369 0
M  V30 34900 C 3418.85 3.20419 1.10078 0
M  V30 34901 C 3417.41 3.40882 1.59612 0
M  V30 34902 C 3416.56 2.72314 0.523468 0
M  V30 34903 H 3419.51 1.57757 -0.172778 0
M  V30 34904 H 3419.53 3.2559 1.96904 0
M  V30 34905 H 3419.04 3.87283 0.25175 0
M  V30 34906 H 3417.14 2.79159 2.46781 0
M  V30 34907 H 3417.25 4.49407 1.66042 0
M  V30 34908 H 3415.62 2.35389 0.972844 0
M  V30 34909 H 3416.4 3.41845 -0.315689 0
M  V30 34910 N 3418.85 -0.325228 1.54208 0
M  V30 34911 C 3419.78 -1.4054 1.86469 0
M  V30 34912 C 3420.76 -1.54047 0.721351 0
M  V30 34913 O 3421.94 -1.67954 0.974935 0
M  V30 34914 C 3419.07 -2.77331 2.09057 0
M  V30 34915 C 3418.03 -2.78614 3.24898 0
M  V30 34916 C 3417.35 -4.18465 3.32854 0
M  V30 34917 C 3418.65 -2.4251 4.62587 0
M  V30 34918 H 3420.35 -1.13789 2.76934 0
M  V30 34919 H 3417.89 -0.545948 1.33249 0
M  V30 34920 H 3419.84 -3.5296 2.30211 0
M  V30 34921 H 3418.57 -3.05556 1.1534 0
M  V30 34922 H 3417.23 -2.05439 3.03629 0
M  V30 34923 H 3416.88 -4.43828 2.36698 0
M  V30 34924 H 3416.58 -4.20229 4.10708 0
M  V30 34925 H 3418.1 -4.95909 3.5624 0
M  V30 34926 H 3419.51 -3.07852 4.83632 0
M  V30 34927 H 3417.91 -2.55528 5.42978 0
M  V30 34928 H 3418.98 -1.37662 4.64949 0
M  V30 34929 N 3420.32 -1.46252 -0.587204 0
M  V30 34930 C 3421.57 -1.51553 -1.34757 0
M  V30 34931 C 3421.9 -0.164864 -1.93499 0
M  V30 34932 O 3421.18 0.823176 -1.76222 0
M  V30 34933 C 3421.46 -2.61063 -2.48028 0
M  V30 34934 C 3421.31 -4.05645 -1.9435 0
M  V30 34935 C 3422.63 -2.66691 -3.50091 0
M  V30 34936 H 3419.75 -0.551742 -0.488621 0
M  V30 34937 H 3422.39 -1.78166 -0.660066 0
M  V30 34938 H 3420.54 -2.38502 -3.06675 0
M  V30 34939 H 3422.22 -4.3948 -1.40196 0
M  V30 34940 H 3420.46 -4.15337 -1.2521 0
M  V30 34941 H 3421.13 -4.7799 -2.76096 0
M  V30 34942 H 3423.61 -2.86961 -3.01319 0
M  V30 34943 H 3422.48 -3.45143 -4.26811 0
M  V30 34944 H 3422.74 -1.72567 -4.07029 0
M  V30 34945 N 3421.8 0.831459 -1.33883 0
M  V30 34946 C 3423.03 1.62429 -1.28964 0
M  V30 34947 C 3423.45 1.87613 0.135216 0
M  V30 34948 O 3422.81 1.44555 1.09424 0
M  V30 34949 C 3422.86 2.94725 -2.07772 0
M  V30 34950 O 3421.96 3.8639 -1.4414 0
M  V30 34951 H 3421.3 0.494329 -0.443322 0
M  V30 34952 H 3423.83 1.03387 -1.76557 0
M  V30 34953 H 3423.84 3.44362 -2.18812 0
M  V30 34954 H 3422.52 2.75718 -3.11372 0
M  V30 34955 H 3421.09 3.44891 -1.4179 0
M  V30 34956 N 3423.28 1.17472 1.05062 0
M  V30 34957 C 3424.21 0.850381 2.12841 0
M  V30 34958 C 3425.22 -0.147767 1.62128 0
M  V30 34959 O 3426.41 0.0787088 1.78326 0
M  V30 34960 C 3423.51 0.247545 3.37995 0
M  V30 34961 C 3422.69 1.28888 4.17979 0
M  V30 34962 C 3421.75 0.703567 5.21475 0
M  V30 34963 O 3420.77 1.37571 5.52325 0
M  V30 34964 N 3421.97 -0.503769 5.7831 0
M  V30 34965 H 3424.74 1.77802 2.41261 0
M  V30 34966 H 3422.3 1.07375 1.2117 0
M  V30 34967 H 3424.29 -0.157353 4.04394 0
M  V30 34968 H 3422.86 -0.583898 3.07098 0
M  V30 34969 H 3422.08 1.86948 3.4705 0
M  V30 34970 H 3423.37 1.99124 4.68217 0
M  V30 34971 H 3422.77 -1.06777 5.55531 0
M  V30 34972 H 3421.32 -0.850715 6.46224 0
M  V30 34973 N 3424.76 -1.23807 0.975168 0
M  V30 34974 C 3425.99 -1.96124 0.659013 0
M  V30 34975 C 3426.4 -1.7225 -0.773014 0
M  V30 34976 O 3425.76 -1.01075 -1.51954 0
M  V30 34977 C 3425.81 -3.49241 0.933416 0
M  V30 34978 O 3425.53 -3.72303 2.30915 0
M  V30 34979 C 3427.03 -4.38765 0.632485 0
M  V30 34980 H 3424.25 -0.624576 0.245248 0
M  V30 34981 H 3426.79 -1.57438 1.30513 0
M  V30 34982 H 3424.95 -3.85963 0.333391 0
M  V30 34983 H 3425.36 -4.66634 2.39485 0
M  V30 34984 H 3426.84 -5.45023 0.874887 0
M  V30 34985 H 3427.31 -4.37057 -0.433376 0
M  V30 34986 H 3427.92 -4.07643 1.21275 0
M  V30 34987 N 3426.24 -0.746182 -1.38816 0
M  V30 34988 C 3427.51 -0.224875 -1.94303 0
M  V30 34989 C 3427.89 1.27549 -1.68209 0
M  V30 34990 O 3427.24 2.04645 -1.0165 0
M  V30 34991 C 3427.45 -0.57056 -3.44305 0
M  V30 34992 C 3428.8 -0.526089 -4.21328 0
M  V30 34993 O 3429.82 -0.508413 -3.52553 0
M  V30 34994 O 3428.68 -0.530479 -5.43919 0
M  V30 34995 H 3425.78 -0.0448192 -0.825785 0
M  V30 34996 H 3428.32 -0.825801 -1.48252 0
M  V30 34997 H 3427.09 -1.60707 -3.56776 0
M  V30 34998 H 3426.72 0.0587572 -3.97557 0
M  V30 34999 N 3427.71 1.49635 -0.494676 0
M  V30 35000 C 3428.96 2.01628 0.0538922 0
M  V30 35001 C 3429.28 1.37988 1.38631 0
M  V30 35002 O 3430.48 1.81272 2.0212 0
M  V30 35003 C 3428.94 3.59602 0.146519 0
M  V30 35004 C 3428.55 4.32211 -1.17888 0
M  V30 35005 C 3430.29 4.19559 0.645788 0
M  V30 35006 C 3428.2 5.82027 -1.04876 0
M  V30 35007 H 3427.13 0.753621 0.0239145 0
M  V30 35008 H 3429.78 1.72231 -0.633142 0
M  V30 35009 H 3428.16 3.85687 0.897863 0
M  V30 35010 H 3429.33 4.17832 -1.94302 0
M  V30 35011 H 3427.65 3.8397 -1.61109 0
M  V30 35012 H 3430.25 5.29263 0.760547 0
M  V30 35013 H 3430.59 3.82504 1.64306 0
M  V30 35014 H 3431.12 3.9777 -0.04884 0
M  V30 35015 H 3427.86 6.23596 -2.02011 0
M  V30 35016 H 3427.38 5.98917 -0.325399 0
M  V30 35017 H 3429.06 6.42926 -0.724912 0
M  V30 35018 N 3429.19 0.228241 1.55939 0
M  V30 35019 C 3430.44 -0.401642 1.98477 0
M  V30 35020 C 3430.77 -1.59295 1.11603 0
M  V30 35021 O 3430.02 -1.95024 0.162499 0
M  V30 35022 C 3430.32 -0.872671 3.46582 0
M  V30 35023 C 3429.99 0.208846 4.50416 0
M  V30 35024 C 3428.65 0.505931 4.78533 0
M  V30 35025 C 3431 0.939943 5.12654 0
M  V30 35026 C 3428.33 1.53851 5.66168 0
M  V30 35027 C 3430.68 1.96191 6.01408 0
M  V30 35028 C 3429.34 2.26584 6.27866 0
M  V30 35029 H 3428.61 -0.146971 0.726278 0
M  V30 35030 H 3431.26 0.332161 1.88597 0
M  V30 35031 H 3429.57 -1.68535 3.53699 0
M  V30 35032 H 3431.26 -1.36999 3.76872 0
M  V30 35033 H 3427.85 -0.0328555 4.28587 0
M  V30 35034 H 3432.04 0.723667 4.90996 0
M  V30 35035 H 3427.29 1.77954 5.84929 0
M  V30 35036 H 3431.47 2.53344 6.48683 0
M  V30 35037 H 3429.09 3.06737 6.95569 0
M  V30 35038 N 3430.67 -1.57536 -0.0450825 0
M  V30 35039 C 3431.58 -2.08884 -1.06793 0
M  V30 35040 C 3432.6 -1.02397 -1.4068 0
M  V30 35041 O 3433.77 -1.34035 -1.50321 0
M  V30 35042 C 3430.84 -2.54476 -2.35463 0
M  V30 35043 C 3429.9 -3.75378 -2.08303 0
M  V30 35044 C 3429.13 -4.18786 -3.30838 0
M  V30 35045 O 3429.35 -3.61842 -4.40938 0
M  V30 35046 O 3428.29 -5.11362 -3.17479 0
M  V30 35047 H 3432.11 -2.96406 -0.661606 0
M  V30 35048 H 3429.7 -1.47102 -0.261014 0
M  V30 35049 H 3431.58 -2.84203 -3.11138 0
M  V30 35050 H 3430.26 -1.70072 -2.75422 0
M  V30 35051 H 3429.16 -3.50694 -1.30247 0
M  V30 35052 H 3430.5 -4.60716 -1.73209 0
M  V30 35053 N 3432.15 0.317045 -1.54378 0
M  V30 35054 C 3433.4 1.05213 -1.72553 0
M  V30 35055 C 3433.72 1.88333 -0.505533 0
M  V30 35056 O 3432.99 1.89918 0.480405 0
M  V30 35057 H 3431.57 0.391436 -0.636229 0
M  V30 35058 H 3434.23 0.351906 -1.91697 0
M  V30 35059 H 3433.33 1.71444 -2.60794 0
M  V30 35060 N 3433.63 1.46561 0.57944 0
M  V30 35061 C 3434.85 1.55857 1.36834 0
M  V30 35062 C 3435.28 0.201443 1.87018 0
M  V30 35063 O 3434.63 -0.818982 1.61748 0
M  V30 35064 C 3434.68 2.56989 2.5296 0
M  V30 35065 O 3433.79 2.10719 3.54501 0
M  V30 35066 H 3433.13 0.524352 0.40737 0
M  V30 35067 H 3435.66 1.92161 0.702524 0
M  V30 35068 H 3435.67 2.76702 2.99833 0
M  V30 35069 H 3434.34 3.5554 2.15787 0
M  V30 35070 H 3432.92 2.01009 3.14086 0
M  V30 35071 N 3435.1 -0.824347 1.34322 0
M  V30 35072 C 3436.35 -1.57736 1.26348 0
M  V30 35073 C 3436.67 -1.94285 -0.166802 0
M  V30 35074 O 3435.94 -1.62164 -1.09908 0
M  V30 35075 H 3434.52 -0.584885 0.46467 0
M  V30 35076 H 3437.19 -0.984344 1.68216 0
M  V30 35077 H 3436.28 -2.50081 1.86724 0
M  V30 35078 N 3436.58 -1.18028 -1.04437 0
M  V30 35079 C 3437.81 -0.998716 -1.8177 0
M  V30 35080 C 3438.23 0.448193 -1.82682 0
M  V30 35081 O 3437.59 1.32134 -1.24138 0
M  V30 35082 C 3437.64 -1.55357 -3.25417 0
M  V30 35083 O 3436.74 -0.772422 -4.05102 0
M  V30 35084 H 3436.08 -0.354064 -0.561725 0
M  V30 35085 H 3438.61 -1.56699 -1.31554 0
M  V30 35086 H 3438.62 -1.5791 -3.76203 0
M  V30 35087 H 3437.3 -2.60677 -3.24068 0
M  V30 35088 H 3435.88 -0.818916 -3.63797 0
M  V30 35089 N 3438.06 1.23288 -0.98172 0
M  V30 35090 C 3439.31 1.92023 -0.6523 0
M  V30 35091 C 3439.64 1.76397 0.812266 0
M  V30 35092 O 3438.91 1.12578 1.58608 0
M  V30 35093 C 3439.2 3.446 -1.04512 0
M  V30 35094 C 3439.05 3.69329 -2.56742 0
M  V30 35095 C 3440.37 4.36127 -0.590014 0
M  V30 35096 H 3437.49 0.69736 -0.238449 0
M  V30 35097 H 3440.13 1.45385 -1.22324 0
M  V30 35098 H 3438.28 3.84453 -0.55931 0
M  V30 35099 H 3439.95 3.3895 -3.12907 0
M  V30 35100 H 3438.2 3.13995 -2.99316 0
M  V30 35101 H 3438.87 4.76139 -2.79277 0
M  V30 35102 H 3441.34 4.03728 -1.00713 0
M  V30 35103 H 3440.22 5.41582 -0.893287 0
M  V30 35104 H 3440.48 4.39153 0.50963 0
M  V30 35105 N 3439.54 0.753533 1.38418 0
M  V30 35106 C 3440.77 0.320485 2.04403 0
M  V30 35107 C 3441.18 -1.05116 1.56832 0
M  V30 35108 O 3440.54 -1.66763 0.741364 0
M  V30 35109 C 3440.59 0.334 3.59954 0
M  V30 35110 O 3440.31 1.65151 4.05779 0
M  V30 35111 C 3441.81 -0.11292 4.43156 0
M  V30 35112 H 3439.03 0.136938 0.656878 0
M  V30 35113 H 3441.58 1.02237 1.7711 0
M  V30 35114 H 3439.73 -0.319147 3.86083 0
M  V30 35115 H 3440.14 1.57766 5.0021 0
M  V30 35116 H 3441.62 -0.0523025 5.51975 0
M  V30 35117 H 3442.1 -1.16079 4.23583 0
M  V30 35118 H 3442.7 0.511352 4.22215 0
M  V30 35119 N 3441.02 -1.49371 0.502605 0
M  V30 35120 C 3442.24 -2.07361 -0.0402723 0
M  V30 35121 C 3442.67 -1.36028 -1.29916 0
M  V30 35122 O 3442.02 -0.417519 -1.76427 0
M  V30 35123 C 3442.07 -3.59548 -0.275298 0
M  V30 35124 O 3441.18 -3.89689 -1.34968 0
M  V30 35125 H 3440.52 -0.663453 0.0269384 0
M  V30 35126 H 3443.05 -1.92155 0.702686 0
M  V30 35127 H 3443.06 -4.04846 -0.50632 0
M  V30 35128 H 3441.73 -4.10877 0.644455 0
M  V30 35129 H 3440.31 -3.56199 -1.10349 0
M  V30 35130 N 3442.49 -0.236508 -1.55815 0
M  V30 35131 C 3443.72 0.395548 -2.03084 0
M  V30 35132 C 3444.14 1.52284 -1.11601 0
M  V30 35133 O 3443.49 1.82048 -0.128435 0
M  V30 35134 C 3443.55 0.913135 -3.49777 0
M  V30 35135 O 3443.27 -0.169228 -4.37773 0
M  V30 35136 C 3444.77 1.61693 -4.12759 0
M  V30 35137 H 3441.99 0.0952029 -0.664212 0
M  V30 35138 H 3444.53 -0.357335 -2.01354 0
M  V30 35139 H 3442.69 1.61623 -3.52075 0
M  V30 35140 H 3443.1 0.222125 -5.24029 0
M  V30 35141 H 3444.57 1.93092 -5.17126 0
M  V30 35142 H 3445.05 2.5353 -3.58635 0
M  V30 35143 H 3445.66 0.958663 -4.14355 0
M  V30 35144 N 3443.97 1.57557 0.0367273 0
M  V30 35145 C 3445.2 1.93174 0.741052 0
M  V30 35146 C 3445.62 0.835619 1.69301 0
M  V30 35147 O 3444.97 -0.188568 1.81523 0
M  V30 35148 C 3445.02 3.28696 1.50471 0
M  V30 35149 O 3444.74 4.34096 0.59097 0
M  V30 35150 C 3446.25 3.78547 2.30688 0
M  V30 35151 H 3443.47 0.637712 0.20872 0
M  V30 35152 H 3446.01 2.045 -0.00346371 0
M  V30 35153 H 3444.16 3.1879 2.20117 0
M  V30 35154 H 3444.58 5.12278 1.1257 0
M  V30 35155 H 3446.05 4.75905 2.79676 0
M  V30 35156 H 3446.53 3.09345 3.11773 0
M  V30 35157 H 3447.14 3.91511 1.66131 0
M  V30 35158 N 3445.45 -0.308854 1.54544 0
M  V30 35159 C 3446.38 -1.38554 1.8795 0
M  V30 35160 C 3447.36 -1.53273 0.737649 0
M  V30 35161 O 3448.55 -1.66911 0.992694 0
M  V30 35162 C 3445.68 -2.75098 2.11987 0
M  V30 35163 C 3444.63 -2.75152 3.27834 0
M  V30 35164 C 3443.96 -4.14911 3.37273 0
M  V30 35165 C 3445.26 -2.3759 4.65133 0
M  V30 35166 H 3446.95 -1.10845 2.78125 0
M  V30 35167 H 3444.5 -0.531784 1.33821 0
M  V30 35168 H 3446.45 -3.50499 2.33941 0
M  V30 35169 H 3445.17 -3.04315 1.18574 0
M  V30 35170 H 3443.83 -2.02207 3.05791 0
M  V30 35171 H 3443.48 -4.41292 2.41392 0
M  V30 35172 H 3443.18 -4.1585 4.15142 0
M  V30 35173 H 3444.71 -4.92103 3.61479 0
M  V30 35174 H 3446.12 -3.02705 4.8687 0
M  V30 35175 H 3444.52 -2.49755 5.45658 0
M  V30 35176 H 3445.59 -1.32723 4.66383 0
M  V30 35177 N 3446.93 -1.46867 -0.571659 0
M  V30 35178 C 3448.18 -1.52012 -1.32572 0
M  V30 35179 C 3448.49 -0.180872 -1.94762 0
M  V30 35180 O 3449.7 -0.110206 -2.71276 0
M  V30 35181 C 3448.15 -2.67902 -2.40326 0
M  V30 35182 C 3447.76 -4.08294 -1.84391 0
M  V30 35183 C 3449.51 -2.82327 -3.17004 0
M  V30 35184 C 3447.41 -5.15507 -2.8984 0
M  V30 35185 H 3446.34 -0.56577 -0.498418 0
M  V30 35186 H 3448.99 -1.73106 -0.608823 0
M  V30 35187 H 3447.38 -2.40159 -3.14865 0
M  V30 35188 H 3448.55 -4.45877 -1.16321 0
M  V30 35189 H 3446.86 -3.9863 -1.20344 0
M  V30 35190 H 3449.46 -3.59594 -3.95722 0
M  V30 35191 H 3449.8 -1.90243 -3.70288 0
M  V30 35192 H 3450.34 -3.0977 -2.49575 0
M  V30 35193 H 3447.08 -6.0942 -2.41429 0
M  V30 35194 H 3446.6 -4.82457 -3.56364 0
M  V30 35195 H 3448.28 -5.41831 -3.53593 0
M  V30 35196 N 3448.41 0.817212 -1.34757 0
M  V30 35197 C 3449.32 1.96021 -1.28892 0
M  V30 35198 C 3450.33 1.72897 -0.195612 0
M  V30 35199 O 3451.51 1.96906 -0.423106 0
M  V30 35200 C 3448.57 3.30421 -1.04991 0
M  V30 35201 C 3447.64 3.66513 -2.23532 0
M  V30 35202 C 3446.87 4.945 -2.00762 0
M  V30 35203 O 3447.09 5.62114 -0.968721 0
M  V30 35204 O 3446.03 5.28603 -2.87858 0
M  V30 35205 H 3449.85 2.03913 -2.25062 0
M  V30 35206 H 3447.44 0.953447 -1.15021 0
M  V30 35207 H 3449.32 4.10904 -0.934661 0
M  V30 35208 H 3447.99 3.23483 -0.118639 0
M  V30 35209 H 3446.9 2.8645 -2.40618 0
M  V30 35210 H 3448.23 3.78143 -3.15069 0
M  V30 35211 N 3449.89 1.1858 1.0381 0
M  V30 35212 C 3451.13 0.977102 1.76453 0
M  V30 35213 C 3451.45 -0.493931 1.89261 0
M  V30 35214 O 3452.65 -0.82121 2.58783 0
M  V30 35215 C 3451.11 1.69923 3.17261 0
M  V30 35216 C 3450.72 3.20974 3.12537 0
M  V30 35217 C 3452.46 1.57344 3.94263 0
M  V30 35218 C 3450.37 3.85815 4.48219 0
M  V30 35219 H 3449.3 0.36196 0.661438 0
M  V30 35220 H 3451.95 1.4198 1.16249 0
M  V30 35221 H 3450.33 1.18431 3.77876 0
M  V30 35222 H 3451.51 3.79511 2.61358 0
M  V30 35223 H 3449.82 3.33724 2.49033 0
M  V30 35224 H 3452.42 2.03146 4.94607 0
M  V30 35225 H 3452.76 0.526106 4.12962 0
M  V30 35226 H 3453.29 2.0613 3.40228 0
M  V30 35227 H 3450.03 4.90606 4.34725 0
M  V30 35228 H 3449.55 3.32066 4.99492 0
M  V30 35229 H 3451.23 3.88828 5.17128 0
M  V30 35230 N 3451.36 -1.22766 0.988245 0
M  V30 35231 C 3452.29 -2.2682 0.554518 0
M  V30 35232 C 3453.27 -1.64928 -0.416264 0
M  V30 35233 O 3454.46 -1.91743 -0.307916 0
M  V30 35234 C 3451.59 -3.47033 -0.136205 0
M  V30 35235 C 3450.54 -4.2133 0.752649 0
M  V30 35236 C 3449.87 -5.34653 -0.0707296 0
M  V30 35237 C 3451.17 -4.80505 2.04726 0
M  V30 35238 H 3452.86 -2.63353 1.42428 0
M  V30 35239 H 3450.41 -1.26594 0.68629 0
M  V30 35240 H 3452.36 -4.1898 -0.450995 0
M  V30 35241 H 3451.09 -3.09583 -1.04047 0
M  V30 35242 H 3449.75 -3.51211 1.05101 0
M  V30 35243 H 3449.39 -4.93445 -0.975772 0
M  V30 35244 H 3449.09 -5.85286 0.520938 0
M  V30 35245 H 3450.62 -6.09418 -0.379721 0
M  V30 35246 H 3452.03 -5.44418 1.79672 0
M  V30 35247 H 3450.43 -5.41457 2.58736 0
M  V30 35248 H 3451.5 -4.00814 2.72903 0
M  V30 35249 N 3452.84 -0.760864 -1.38017 0
M  V30 35250 C 3454.07 -0.330074 -2.04757 0
M  V30 35251 C 3454.49 1.03582 -1.57011 0
M  V30 35252 O 3453.85 1.66156 -0.725379 0
M  V30 35253 C 3453.9 -0.370145 -3.58695 0
M  V30 35254 O 3453 0.633289 -4.07509 0
M  V30 35255 H 3452.34 -0.144793 -0.648021 0
M  V30 35256 H 3454.87 -1.03402 -1.76548 0
M  V30 35257 H 3454.88 -0.223586 -4.07387 0
M  V30 35258 H 3453.56 -1.36668 -3.92804 0
M  V30 35259 H 3452.13 0.450745 -3.70166 0
M  V30 35260 N 3454.32 1.49102 -0.510519 0
M  V30 35261 C 3455.6 1.95374 0.0940779 0
M  V30 35262 C 3455.98 1.45229 1.53205 0
M  V30 35263 O 3455.32 0.670199 2.1845 0
M  V30 35264 C 3455.53 3.49 -0.00308641 0
M  V30 35265 C 3456.88 4.24275 0.166043 0
M  V30 35266 O 3457.91 3.56128 0.0716471 0
M  V30 35267 O 3456.77 5.45306 0.361059 0
M  V30 35268 H 3453.86 0.822082 0.0900597 0
M  V30 35269 H 3456.41 1.59707 -0.573735 0
M  V30 35270 H 3455.18 3.7816 -1.00552 0
M  V30 35271 H 3454.8 3.9131 0.704449 0
M  V30 35272 N 3455.8 0.244768 1.55688 0
M  V30 35273 C 3457.03 -0.384773 2.03291 0
M  V30 35274 C 3457.44 -1.5169 1.12408 0
M  V30 35275 O 3456.8 -1.81977 0.138088 0
M  V30 35276 C 3456.85 -0.894573 3.50257 0
M  V30 35277 O 3456.57 0.192442 4.37677 0
M  V30 35278 C 3458.07 -1.59502 4.13611 0
M  V30 35279 H 3455.29 -0.0916791 0.664707 0
M  V30 35280 H 3457.83 0.368008 2.01162 0
M  V30 35281 H 3455.99 -1.59754 3.52927 0
M  V30 35282 H 3456.4 -0.194332 5.2414 0
M  V30 35283 H 3457.88 -1.90347 5.18143 0
M  V30 35284 H 3458.35 -2.51625 3.59974 0
M  V30 35285 H 3458.96 -0.936676 4.14857 0
M  V30 35286 N 3457.28 -1.57574 -0.0283712 0
M  V30 35287 C 3458.52 -1.8893 -0.717623 0
M  V30 35288 C 3458.84 -0.842548 -1.75858 0
M  V30 35289 O 3458.11 0.123739 -1.95509 0
M  V30 35290 H 3456.69 -0.697255 -0.268038 0
M  V30 35291 H 3459.36 -1.94899 0.00584117 0
M  V30 35292 H 3458.45 -2.87826 -1.20675 0
M  V30 35293 N 3458.75 0.300654 -1.54706 0
M  V30 35294 C 3459.72 1.35392 -1.84937 0
M  V30 35295 C 3460.72 1.43665 -0.722285 0
M  V30 35296 O 3461.91 1.43295 -0.990568 0
M  V30 35297 C 3459.04 2.73872 -2.02995 0
M  V30 35298 H 3460.23 1.0983 -2.79065 0
M  V30 35299 H 3457.78 0.537339 -1.46773 0
M  V30 35300 H 3458.52 3.04655 -1.11156 0
M  V30 35301 H 3458.3 2.69257 -2.85032 0
M  V30 35302 H 3459.79 3.50026 -2.27753 0
M  V30 35303 N 3460.23 1.47168 0.563863 0
M  V30 35304 C 3461.14 1.61775 1.699 0
M  V30 35305 C 3462.16 0.500734 1.66639 0
M  V30 35306 O 3463.33 0.767387 1.86207 0
M  V30 35307 C 3460.4 1.62219 3.06408 0
M  V30 35308 C 3459.46 2.85296 3.20788 0
M  V30 35309 C 3458.69 2.85709 4.50784 0
M  V30 35310 O 3458.92 1.95539 5.35837 0
M  V30 35311 O 3457.85 3.7749 4.68813 0
M  V30 35312 H 3461.68 2.57812 1.6052 0
M  V30 35313 H 3459.26 1.30177 0.733102 0
M  V30 35314 H 3461.14 1.65228 3.87657 0
M  V30 35315 H 3459.82 0.693471 3.16185 0
M  V30 35316 H 3458.73 2.87834 2.38961 0
M  V30 35317 H 3460.06 3.7744 3.15912 0
M  V30 35318 N 3461.71 -0.810054 1.35188 0
M  V30 35319 C 3462.96 -1.56387 1.28014 0
M  V30 35320 C 3463.28 -1.94451 -0.146186 0
M  V30 35321 O 3462.55 -1.6332 -1.08182 0
M  V30 35322 H 3461.13 -0.579924 0.470847 0
M  V30 35323 H 3463.79 -0.966447 1.69251 0
M  V30 35324 H 3462.89 -2.48087 1.89366 0
M  V30 35325 N 3463.19 -1.19129 -1.0318 0
M  V30 35326 C 3464.6 -0.994916 -1.57982 0
M  V30 35327 C 3464.95 0.452985 -1.90899 0
M  V30 35328 O 3464.08 1.33188 -1.70558 0
M  V30 35329 C 3464.67 -1.79971 -2.87047 0
M  V30 35330 C 3463.23 -1.64743 -3.38433 0
M  V30 35331 C 3462.38 -1.78858 -2.11909 0
M  V30 35332 H 3465.33 -1.33543 -0.857435 0
M  V30 35333 H 3465.35 -1.29406 -3.57819 0
M  V30 35334 H 3464.86 -2.85346 -2.63057 0
M  V30 35335 H 3462.96 -0.619422 -3.67415 0
M  V30 35336 H 3463.07 -2.45096 -4.11661 0
M  V30 35337 H 3461.44 -1.2189 -2.2364 0
M  V30 35338 H 3462.22 -2.85686 -1.90364 0
M  V30 35339 N 3464.67 1.2224 -0.994741 0
M  V30 35340 C 3465.89 1.95051 -0.690131 0
M  V30 35341 C 3466.31 1.73458 0.745512 0
M  V30 35342 O 3465.67 1.03479 1.50327 0
M  V30 35343 C 3465.72 3.47712 -0.988859 0
M  V30 35344 O 3465.44 3.68582 -2.36809 0
M  V30 35345 C 3466.94 4.37703 -0.702209 0
M  V30 35346 H 3464.16 0.620595 -0.255153 0
M  V30 35347 H 3466.7 1.55341 -1.33001 0
M  V30 35348 H 3464.86 3.85384 -0.394752 0
M  V30 35349 H 3465.27 4.62765 -2.46878 0
M  V30 35350 H 3466.75 5.43562 -0.961484 0
M  V30 35351 H 3467.22 4.37691 0.363789 0
M  V30 35352 H 3467.83 4.05662 -1.27745 0
M  V30 35353 N 3466.14 0.768172 1.37611 0
M  V30 35354 C 3467.39 0.331366 2.00075 0
M  V30 35355 C 3467.72 -1.0883 1.60841 0
M  V30 35356 O 3467 -1.74803 0.85288 0
M  V30 35357 C 3467.28 0.470852 3.57008 0
M  V30 35358 C 3467.13 1.93267 4.06162 0
M  V30 35359 C 3468.45 -0.127033 4.39917 0
M  V30 35360 H 3465.57 0.121876 0.726853 0
M  V30 35361 H 3468.21 0.970546 1.63341 0
M  V30 35362 H 3466.36 -0.0733005 3.88431 0
M  V30 35363 H 3468.04 2.53625 3.85321 0
M  V30 35364 H 3466.28 2.44272 3.58488 0
M  V30 35365 H 3466.95 1.98135 5.15215 0
M  V30 35366 H 3469.43 0.337217 4.14731 0
M  V30 35367 H 3468.3 0.000720709 5.489 0
M  V30 35368 H 3468.56 -1.21696 4.25021 0
M  V30 35369 N 3467.62 -1.48829 0.518419 0
M  V30 35370 C 3468.59 -2.27942 -0.23979 0
M  V30 35371 C 3469.59 -1.34696 -0.878278 0
M  V30 35372 O 3470.78 -1.57696 -0.740114 0
M  V30 35373 C 3467.91 -3.13213 -1.34575 0
M  V30 35374 H 3469.1 -2.96434 0.454651 0
M  V30 35375 H 3466.65 -1.5388 0.273959 0
M  V30 35376 H 3467.39 -2.49326 -2.07381 0
M  V30 35377 H 3467.17 -3.81791 -0.893184 0
M  V30 35378 H 3468.66 -3.7292 -1.87938 0
M  V30 35379 N 3469.1 -0.253021 -1.55556 0
M  V30 35380 C 3470.51 0.248979 -1.85032 0
M  V30 35381 C 3470.86 1.57132 -1.17491 0
M  V30 35382 O 3469.99 2.11553 -0.455424 0
M  V30 35383 C 3470.58 0.45853 -3.35683 0
M  V30 35384 C 3469.14 0.904786 -3.65364 0
M  V30 35385 C 3468.29 -0.0145414 -2.77296 0
M  V30 35386 H 3471.24 -0.475421 -1.51411 0
M  V30 35387 H 3471.26 1.30028 -3.57593 0
M  V30 35388 H 3470.77 -0.504049 -3.84813 0
M  V30 35389 H 3468.87 1.87962 -3.21716 0
M  V30 35390 H 3468.99 0.757409 -4.73075 0
M  V30 35391 H 3467.35 0.49791 -2.49786 0
M  V30 35392 H 3468.13 -0.972604 -3.29234 0
M  V30 35393 N 3470.58 1.57587 0.0200142 0
M  V30 35394 C 3471.51 2.10183 1.01712 0
M  V30 35395 C 3472.49 1.00639 1.37134 0
M  V30 35396 O 3473.67 1.28213 1.4586 0
M  V30 35397 C 3470.8 2.58869 2.31526 0
M  V30 35398 C 3469.76 3.72759 2.1032 0
M  V30 35399 C 3469.08 4.07684 3.45974 0
M  V30 35400 C 3470.38 5.00833 1.48201 0
M  V30 35401 H 3472.08 2.93743 0.579255 0
M  V30 35402 H 3469.62 1.41307 0.277187 0
M  V30 35403 H 3471.58 2.94287 3.01618 0
M  V30 35404 H 3470.3 1.72404 2.77389 0
M  V30 35405 H 3468.96 3.37704 1.42659 0
M  V30 35406 H 3468.61 3.18272 3.89502 0
M  V30 35407 H 3468.31 4.84403 3.32608 0
M  V30 35408 H 3469.83 4.45644 4.17413 0
M  V30 35409 H 3471.25 5.3415 2.08222 0
M  V30 35410 H 3469.64 5.82223 1.45383 0
M  V30 35411 H 3470.71 4.82818 0.448857 0
M  V30 35412 N 3472.06 -0.292445 1.54863 0
M  V30 35413 C 3473.47 -0.864862 1.6546 0
M  V30 35414 C 3473.82 -1.87773 0.568841 0
M  V30 35415 O 3472.94 -2.14406 -0.29307 0
M  V30 35416 C 3473.54 -1.57545 2.99942 0
M  V30 35417 C 3472.1 -2.09615 3.12631 0
M  V30 35418 C 3471.24 -0.931667 2.61181 0
M  V30 35419 H 3474.2 -0.0692401 1.58549 0
M  V30 35420 H 3474.22 -2.44147 2.91844 0
M  V30 35421 H 3473.73 -0.838021 3.78944 0
M  V30 35422 H 3471.83 -2.86379 2.38365 0
M  V30 35423 H 3471.94 -2.32481 4.18915 0
M  V30 35424 H 3470.31 -1.31963 2.17848 0
M  V30 35425 H 3471.09 -0.208061 3.42669 0
M  V30 35426 N 3473.53 -1.47465 -0.55605 0
M  V30 35427 C 3474.78 -1.54149 -1.31317 0
M  V30 35428 C 3475.11 -0.204255 -1.93425 0
M  V30 35429 O 3474.36 0.802971 -1.78468 0
M  V30 35430 C 3474.66 -2.60874 -2.44293 0
M  V30 35431 C 3474.33 -4.04113 -2.00009 0
M  V30 35432 C 3472.99 -4.43104 -1.87648 0
M  V30 35433 C 3475.34 -4.93984 -1.6622 0
M  V30 35434 C 3472.67 -5.69802 -1.39795 0
M  V30 35435 C 3475.02 -6.21146 -1.19837 0
M  V30 35436 C 3473.69 -6.59018 -1.06073 0
M  V30 35437 H 3472.96 -0.564072 -0.480524 0
M  V30 35438 H 3475.6 -1.81068 -0.623417 0
M  V30 35439 H 3473.91 -2.27716 -3.1883 0
M  V30 35440 H 3475.61 -2.63269 -3.02474 0
M  V30 35441 H 3472.2 -3.73305 -2.10573 0
M  V30 35442 H 3476.38 -4.64558 -1.74642 0
M  V30 35443 H 3471.64 -5.97893 -1.27803 0
M  V30 35444 H 3475.81 -6.90195 -0.927536 0
M  V30 35445 H 3473.44 -7.57083 -0.687701 0
M  V30 35446 N 3475.01 0.802873 -1.35616 0
M  V30 35447 C 3476.24 1.59657 -1.3238 0
M  V30 35448 C 3476.66 1.87858 0.0953905 0
M  V30 35449 O 3476.02 1.46843 1.06333 0
M  V30 35450 C 3476.07 2.90252 -2.13977 0
M  V30 35451 O 3475.17 3.83246 -1.52303 0
M  V30 35452 H 3474.51 0.484815 -0.453708 0
M  V30 35453 H 3477.04 0.996186 -1.7871 0
M  V30 35454 H 3477.05 3.39643 -2.26067 0
M  V30 35455 H 3475.73 2.69052 -3.1715 0
M  V30 35456 H 3474.31 3.41806 -1.49074 0
M  V30 35457 N 3476.49 1.19674 1.02547 0
M  V30 35458 C 3477.72 1.02683 1.79621 0
M  V30 35459 C 3478.13 -0.424313 1.8397 0
M  V30 35460 O 3477.49 -1.2947 1.28623 0
M  V30 35461 C 3477.54 1.59295 3.24511 0
M  V30 35462 O 3477.26 2.98729 3.20457 0
M  V30 35463 C 3478.76 1.47133 4.18171 0
M  V30 35464 H 3475.98 0.36171 0.565161 0
M  V30 35465 H 3478.53 1.58566 1.2914 0
M  V30 35466 H 3476.68 1.07552 3.72171 0
M  V30 35467 H 3477.1 3.25428 4.11335 0
M  V30 35468 H 3478.57 1.91519 5.17711 0
M  V30 35469 H 3479.05 0.422392 4.37164 0
M  V30 35470 H 3479.65 1.98023 3.76387 0
M  V30 35471 N 3477.97 -1.21711 1.00121 0
M  V30 35472 C 3479.25 -1.86254 0.597399 0
M  V30 35473 C 3479.63 -1.89751 -0.925091 0
M  V30 35474 O 3478.97 -1.39406 -1.81048 0
M  V30 35475 C 3479.18 -3.26704 1.22741 0
M  V30 35476 C 3480.53 -4.03128 1.33314 0
M  V30 35477 O 3481.56 -3.36001 1.18243 0
M  V30 35478 O 3480.42 -5.23307 1.57518 0
M  V30 35479 H 3477.51 -0.801418 0.204105 0
M  V30 35480 H 3480.06 -1.29424 1.09762 0
M  V30 35481 H 3478.83 -3.18839 2.26842 0
M  V30 35482 H 3478.45 -3.91149 0.713301 0
M  V30 35483 N 3479.45 -0.775459 -1.37202 0
M  V30 35484 C 3480.7 -0.338128 -1.98846 0
M  V30 35485 C 3481.01 1.09241 -1.62252 0
M  V30 35486 O 3482.22 1.63131 -2.17026 0
M  V30 35487 C 3480.67 -0.553603 -3.55617 0
M  V30 35488 C 3480.28 -1.99464 -4.01146 0
M  V30 35489 C 3482.02 -0.180081 -4.24118 0
M  V30 35490 C 3479.93 -2.15752 -5.50641 0
M  V30 35491 H 3478.86 -0.122682 -0.743952 0
M  V30 35492 H 3481.51 -0.955115 -1.56684 0
M  V30 35493 H 3479.89 0.132894 -3.95777 0
M  V30 35494 H 3481.07 -2.7164 -3.72221 0
M  V30 35495 H 3479.38 -2.3251 -3.45439 0
M  V30 35496 H 3481.98 -0.280239 -5.33965 0
M  V30 35497 H 3482.32 0.870121 -4.07105 0
M  V30 35498 H 3482.86 -0.81927 -3.89272 0
M  V30 35499 H 3479.59 -3.19104 -5.72584 0
M  V30 35500 H 3479.11 -1.48064 -5.81237 0
M  V30 35501 H 3480.79 -1.95792 -6.16664 0
M  V30 35502 N 3480.93 1.48552 -0.526305 0
M  V30 35503 C 3482.17 2.02098 0.00911287 0
M  V30 35504 C 3482.49 1.40601 1.35116 0
M  V30 35505 O 3481.76 0.570098 1.87421 0
M  V30 35506 H 3480.34 0.746973 0.00635622 0
M  V30 35507 H 3483.01 1.82304 -0.689301 0
M  V30 35508 H 3482.1 3.11869 0.120157 0
M  V30 35509 N 3482.4 0.261267 1.55419 0
M  V30 35510 C 3483.35 -0.646404 2.18645 0
M  V30 35511 C 3484.34 -1.12866 1.14674 0
M  V30 35512 O 3485.53 -1.07604 1.40536 0
M  V30 35513 C 3482.66 -1.8365 2.90048 0
M  V30 35514 C 3481.74 -1.37207 4.01292 0
M  V30 35515 N 3482.14 -0.622839 5.01951 0
M  V30 35516 C 3480.43 -1.65618 4.14109 0
M  V30 35517 C 3481.13 -0.380467 5.80454 0
M  V30 35518 N 3480.11 -0.948875 5.35254 0
M  V30 35519 H 3483.91 -0.0659832 2.93826 0
M  V30 35520 H 3481.43 0.0642079 1.62273 0
M  V30 35521 H 3483.42 -2.4979 3.33782 0
M  V30 35522 H 3482.08 -2.421 2.16374 0
M  V30 35523 H 3483.09 -0.271528 5.17188 0
M  V30 35524 H 3479.77 -2.25104 3.51617 0
M  V30 35525 H 3481.16 0.218646 6.71544 0
M  V30 35526 N 3483.88 -1.57596 -0.0116567 0
M  V30 35527 C 3485.29 -1.78229 -0.556009 0
M  V30 35528 C 3485.64 -0.894505 -1.74623 0
M  V30 35529 O 3484.77 -0.0938879 -2.16196 0
M  V30 35530 C 3485.36 -3.23225 -1.01544 0
M  V30 35531 C 3483.92 -3.44994 -1.50518 0
M  V30 35532 C 3483.07 -2.73606 -0.451085 0
M  V30 35533 H 3486.02 -1.57243 0.214544 0
M  V30 35534 H 3486.04 -3.30696 -1.88203 0
M  V30 35535 H 3485.55 -3.87814 -0.14898 0
M  V30 35536 H 3483.65 -2.85604 -2.39293 0
M  V30 35537 H 3483.77 -4.53652 -1.54068 0
M  V30 35538 H 3482.13 -2.37885 -0.910093 0
M  V30 35539 H 3482.91 -3.40888 0.406212 0
M  V30 35540 N 3485.36 0.284228 -1.55016 0
M  V30 35541 C 3486.29 1.37307 -1.8352 0
M  V30 35542 C 3487.3 1.46061 -0.719034 0
M  V30 35543 O 3488.49 1.48079 -0.996745 0
M  V30 35544 C 3485.59 2.75536 -1.97314 0
M  V30 35545 C 3484.77 2.89512 -3.27875 0
M  V30 35546 C 3483.83 4.08345 -3.31875 0
M  V30 35547 O 3482.85 3.99634 -4.05316 0
M  V30 35548 N 3484.05 5.19783 -2.58469 0
M  V30 35549 H 3486.82 1.13205 -2.77497 0
M  V30 35550 H 3484.38 0.474332 -1.54796 0
M  V30 35551 H 3486.37 3.53307 -1.97373 0
M  V30 35552 H 3484.94 2.92511 -1.10254 0
M  V30 35553 H 3484.16 1.98716 -3.40449 0
M  V30 35554 H 3485.45 2.95772 -4.14001 0
M  V30 35555 H 3484.85 5.29744 -1.98464 0
M  V30 35556 H 3483.4 5.95826 -2.64263 0
M  V30 35557 N 3486.84 1.47758 0.548222 0
M  V30 35558 C 3487.79 1.61338 1.6755 0
M  V30 35559 C 3488.78 0.480364 1.62447 0
M  V30 35560 O 3489.99 0.658474 1.67523 0
M  V30 35561 H 3486.36 0.507904 0.554561 0
M  V30 35562 H 3488.33 2.5605 1.53235 0
M  V30 35563 C 3487.08 1.65325 3.0588 0
M  V30 35564 H 3486.4 2.51861 3.10493 0
M  V30 35565 H 3487.84 1.78875 3.84421 0
M  V30 35566 C 3486.3 0.388297 3.34655 0
M  V30 35567 O 3486.83 -0.506746 3.98491 0
M  V30 35568 N 3485.04 0.265564 2.89384 0
M  V30 35569 H 3484.59 0.994861 2.37614 0
M  V30 35570 H 3484.54 -0.579834 3.09007 0
M  V30 35571 N 3488.32 -0.79567 1.3604 0
M  V30 35572 C 3489.25 -1.91646 1.25716 0
M  V30 35573 C 3490.26 -1.61824 0.178021 0
M  V30 35574 O 3491.45 -1.73188 0.432216 0
M  V30 35575 C 3488.55 -3.26297 0.915604 0
M  V30 35576 C 3487.72 -3.83945 2.09535 0
M  V30 35577 C 3486.78 -4.97023 1.72784 0
M  V30 35578 O 3485.81 -5.13872 2.44795 0
M  V30 35579 N 3487.01 -5.7676 0.657851 0
M  V30 35580 H 3489.77 -2.01026 2.22281 0
M  V30 35581 H 3487.34 -0.973635 1.29352 0
M  V30 35582 H 3489.33 -3.99429 0.651028 0
M  V30 35583 H 3487.9 -3.12575 0.0392892 0
M  V30 35584 H 3487.12 -3.02876 2.52309 0
M  V30 35585 H 3488.41 -4.19191 2.88368 0
M  V30 35586 H 3487.8 -5.65668 0.0597869 0
M  V30 35587 H 3486.36 -6.50223 0.453084 0
M  V30 35588 N 3489.79 -1.20217 -1.0191 0
M  V30 35589 C 3491.02 -1.03634 -1.79074 0
M  V30 35590 C 3491.44 0.41455 -1.84193 0
M  V30 35591 O 3490.79 1.28786 -1.29308 0
M  V30 35592 C 3490.85 -1.61013 -3.23662 0
M  V30 35593 O 3490.57 -3.00424 -3.18868 0
M  V30 35594 C 3492.07 -1.49349 -4.17384 0
M  V30 35595 H 3489.29 -0.364702 -0.563235 0
M  V30 35596 H 3491.83 -1.59249 -1.28297 0
M  V30 35597 H 3489.99 -1.09524 -3.71595 0
M  V30 35598 H 3490.4 -3.27605 -4.09604 0
M  V30 35599 H 3491.87 -1.94262 -5.16688 0
M  V30 35600 H 3492.35 -0.44557 -4.36934 0
M  V30 35601 H 3492.96 -2.00017 -3.75331 0
M  V30 35602 N 3491.27 1.21178 -1.00765 0
M  V30 35603 C 3492.52 1.90596 -0.692884 0
M  V30 35604 C 3492.85 1.7808 0.774667 0
M  V30 35605 O 3492.13 1.15917 1.56184 0
M  V30 35606 C 3492.41 3.42306 -1.11798 0
M  V30 35607 C 3492.26 3.638 -2.64518 0
M  V30 35608 C 3493.58 4.34777 -0.68239 0
M  V30 35609 H 3490.7 0.692145 -0.253187 0
M  V30 35610 H 3493.34 1.42758 -1.2538 0
M  V30 35611 H 3491.49 3.8318 -0.640732 0
M  V30 35612 H 3493.16 3.32236 -3.20026 0
M  V30 35613 H 3491.41 3.07575 -3.05908 0
M  V30 35614 H 3492.08 4.70108 -2.89314 0
M  V30 35615 H 3494.55 4.01501 -1.09254 0
M  V30 35616 H 3493.43 5.39566 -1.00796 0
M  V30 35617 H 3493.69 4.40135 0.416364 0
M  V30 35618 N 3492.75 0.782725 1.36789 0
M  V30 35619 C 3494.17 0.46362 1.52718 0
M  V30 35620 C 3494.37 -1.01911 1.73829 0
M  V30 35621 O 3493.42 -1.80474 1.76594 0
M  V30 35622 C 3494.74 1.28824 2.71707 0
M  V30 35623 C 3496.28 1.28125 2.85575 0
M  V30 35624 C 3496.76 2.08947 4.0756 0
M  V30 35625 N 3498.25 2.06358 4.14694 0
M  V30 35626 C 3498.98 2.65668 5.08142 0
M  V30 35627 N 3498.48 3.33809 6.07078 0
M  V30 35628 N 3500.27 2.55438 5.00707 0
M  V30 35629 H 3492.42 1.74329 1.21339 0
M  V30 35630 H 3494.69 0.740668 0.591706 0
M  V30 35631 H 3494.39 2.33945 2.62608 0
M  V30 35632 H 3494.27 0.924938 3.65684 0
M  V30 35633 H 3496.65 0.237999 2.94139 0
M  V30 35634 H 3496.74 1.68428 1.92525 0
M  V30 35635 H 3496.38 3.133 3.99757 0
M  V30 35636 H 3496.31 1.6602 4.99745 0
M  V30 35637 H 3498.8 1.56758 3.43854 0
M  V30 35638 H 3499.11 3.76412 6.74933 0
M  V30 35639 H 3497.46 3.3791 6.07323 0
M  V30 35640 H 3500.65 2.01809 4.22363 0
M  V30 35641 H 3500.82 3.01953 5.73349 0
M  V30 35642 N 3494.23 -1.48271 0.534176 0
M  V30 35643 C 3495.47 -2.03398 0.00975129 0
M  V30 35644 C 3495.83 -1.40356 -1.31598 0
M  V30 35645 O 3495.12 -0.541621 -1.83785 0
M  V30 35646 C 3495.32 -3.57019 -0.165081 0
M  V30 35647 C 3495.15 -4.34954 1.14215 0
M  V30 35648 C 3493.92 -4.75731 1.70317 0
M  V30 35649 C 3496.11 -4.71512 2.05379 0
M  V30 35650 N 3494.1 -5.38219 2.95285 0
M  V30 35651 C 3495.47 -5.34063 3.14924 0
M  V30 35652 C 3497.52 -4.53443 2.05655 0
M  V30 35653 C 3496.22 -5.80453 4.24814 0
M  V30 35654 C 3498.25 -5.00817 3.14541 0
M  V30 35655 C 3497.61 -5.63396 4.22805 0
M  V30 35656 H 3493.71 -0.780694 0.0451699 0
M  V30 35657 H 3496.3 -1.81042 0.716382 0
M  V30 35658 H 3494.47 -3.7919 -0.840802 0
M  V30 35659 H 3496.2 -3.98783 -0.68949 0
M  V30 35660 H 3492.95 -4.56969 1.24403 0
M  V30 35661 H 3493.38 -5.74025 3.58921 0
M  V30 35662 H 3498.02 -4.04438 1.23246 0
M  V30 35663 H 3495.74 -6.28461 5.07998 0
M  V30 35664 H 3499.32 -4.88623 3.15814 0
M  V30 35665 H 3498.2 -5.99388 5.05672 0
M  V30 35666 N 3495.71 -0.269505 -1.55279 0
M  V30 35667 C 3496.67 0.60726 -2.21009 0
M  V30 35668 C 3497.67 1.08562 -1.18621 0
M  V30 35669 O 3498.86 0.986695 -1.43562 0
M  V30 35670 C 3495.99 1.83716 -2.8716 0
M  V30 35671 H 3497.18 0.0334367 -2.99881 0
M  V30 35672 H 3494.74 -0.0200848 -1.56287 0
M  V30 35673 H 3495.47 2.45164 -2.12285 0
M  V30 35674 H 3495.26 1.50213 -3.62186 0
M  V30 35675 H 3496.75 2.46077 -3.37396 0
M  V30 35676 N 3497.18 1.576 0.00329885 0
M  V30 35677 C 3498.09 2.11642 1.01217 0
M  V30 35678 C 3499.11 1.06091 1.37916 0
M  V30 35679 O 3500.29 1.37974 1.46715 0
M  V30 35680 C 3497.35 2.6063 2.28633 0
M  V30 35681 C 3496.41 3.80768 1.98277 0
M  V30 35682 C 3495.65 4.2741 3.19619 0
M  V30 35683 O 3495.87 3.73405 4.3119 0
M  V30 35684 O 3494.8 5.19599 3.03809 0
M  V30 35685 H 3498.63 2.98056 0.582787 0
M  V30 35686 H 3496.21 1.47743 0.221921 0
M  V30 35687 H 3498.1 2.92352 3.03493 0
M  V30 35688 H 3496.77 1.77315 2.70816 0
M  V30 35689 H 3495.68 3.54024 1.20904 0
M  V30 35690 H 3497.01 4.65146 1.60934 0
M  V30 35691 N 3498.66 -0.276003 1.55164 0
M  V30 35692 C 3499.57 -1.36318 1.90931 0
M  V30 35693 C 3500.59 -1.54196 0.80621 0
M  V30 35694 O 3501.76 -1.6838 1.105 0
M  V30 35695 C 3498.83 -2.70289 2.17128 0
M  V30 35696 C 3497.89 -2.61184 3.40707 0
M  V30 35697 C 3497.12 -3.88766 3.65645 0
M  V30 35698 O 3497.35 -4.89308 2.93145 0
M  V30 35699 O 3496.28 -3.89151 4.59179 0
M  V30 35700 H 3500.11 -1.08983 2.83472 0
M  V30 35701 H 3497.69 -0.474267 1.41672 0
M  V30 35702 H 3499.57 -3.4951 2.35416 0
M  V30 35703 H 3498.25 -2.97416 1.2777 0
M  V30 35704 H 3497.16 -1.80349 3.27757 0
M  V30 35705 H 3498.49 -2.39007 4.30275 0
M  V30 35706 N 3500.14 -1.48046 -0.540378 0
M  V30 35707 C 3501.39 -1.5479 -1.29318 0
M  V30 35708 C 3501.7 -0.222143 -1.94334 0
M  V30 35709 O 3502.91 -0.167723 -2.70981 0
M  V30 35710 C 3501.36 -2.72939 -2.3459 0
M  V30 35711 C 3500.97 -4.12114 -1.75689 0
M  V30 35712 C 3502.72 -2.88988 -3.10944 0
M  V30 35713 C 3500.62 -5.21538 -2.7884 0
M  V30 35714 H 3499.55 -0.576214 -0.486305 0
M  V30 35715 H 3502.2 -1.74358 -0.571968 0
M  V30 35716 H 3500.59 -2.46783 -3.097 0
M  V30 35717 H 3501.76 -4.48244 -1.06837 0
M  V30 35718 H 3500.08 -4.01093 -1.11862 0
M  V30 35719 H 3502.67 -3.67907 -3.88006 0
M  V30 35720 H 3503.02 -1.98054 -3.6617 0
M  V30 35721 H 3503.55 -3.14994 -2.42948 0
M  V30 35722 H 3500.29 -6.14404 -2.28448 0
M  V30 35723 H 3499.81 -4.89907 -3.4605 0
M  V30 35724 H 3501.49 -5.49209 -3.42021 0
M  V30 35725 N 3501.62 0.788444 -1.3646 0
M  V30 35726 C 3502.55 1.90976 -1.26731 0
M  V30 35727 C 3503.56 1.61727 -0.186601 0
M  V30 35728 O 3504.75 1.72957 -0.441395 0
M  V30 35729 C 3501.85 3.25807 -0.932895 0
M  V30 35730 C 3501.03 3.82828 -2.11568 0
M  V30 35731 C 3500.08 4.961 -1.75417 0
M  V30 35732 O 3499.11 5.12566 -2.47517 0
M  V30 35733 N 3500.31 5.76403 -0.688429 0
M  V30 35734 H 3503.08 1.99844 -2.23344 0
M  V30 35735 H 3500.64 0.966761 -1.29867 0
M  V30 35736 H 3502.63 3.99078 -0.672202 0
M  V30 35737 H 3501.2 3.1255 -0.0558653 0
M  V30 35738 H 3500.42 3.01533 -2.53912 0
M  V30 35739 H 3501.71 4.17656 -2.90587 0
M  V30 35740 H 3501.11 5.65629 -0.0897848 0
M  V30 35741 H 3499.66 6.49974 -0.487561 0
M  V30 35742 N 3503.1 1.20755 1.01271 0
M  V30 35743 C 3504.32 1.04582 1.78522 0
M  V30 35744 C 3504.74 -0.404776 1.8441 0
M  V30 35745 O 3504.1 -1.28098 1.29989 0
M  V30 35746 C 3504.15 1.62728 3.22803 0
M  V30 35747 O 3503.87 3.02111 3.1727 0
M  V30 35748 C 3505.37 1.5156 4.16587 0
M  V30 35749 H 3502.59 0.367684 0.561293 0
M  V30 35750 H 3505.13 1.59927 1.27451 0
M  V30 35751 H 3503.29 1.11494 3.71009 0
M  V30 35752 H 3503.7 3.29773 4.0786 0
M  V30 35753 H 3505.18 1.96999 5.1565 0
M  V30 35754 H 3505.65 0.468735 4.36692 0
M  V30 35755 H 3506.26 2.02004 3.74265 0
M  V30 35756 N 3504.58 -1.20642 1.01406 0
M  V30 35757 C 3505.8 -1.94469 0.720873 0
M  V30 35758 C 3506.23 -1.74117 -0.71168 0
M  V30 35759 O 3505.58 -1.03382 -1.48936 0
M  V30 35760 C 3505.63 -3.44708 1.0587 0
M  V30 35761 O 3504.74 -4.12054 0.168974 0
M  V30 35762 H 3504.08 -0.607641 0.267709 0
M  V30 35763 H 3506.61 -1.53145 1.35675 0
M  V30 35764 H 3506.62 -3.95318 1.00935 0
M  V30 35765 H 3505.29 -3.58845 2.10246 0
M  V30 35766 H 3503.87 -3.7188 0.275638 0
M  V30 35767 N 3506.05 -0.789968 -1.36372 0
M  V30 35768 C 3507.47 -0.471713 -1.5247 0
M  V30 35769 C 3507.67 1.00987 -1.74367 0
M  V30 35770 O 3506.73 1.79535 -1.77549 0
M  V30 35771 C 3508.04 -1.30263 -2.7102 0
M  V30 35772 C 3509.59 -1.29638 -2.84891 0
M  V30 35773 C 3510.06 -2.11105 -4.06446 0
M  V30 35774 N 3511.55 -2.08554 -4.13593 0
M  V30 35775 C 3512.29 -2.68359 -5.06726 0
M  V30 35776 N 3511.78 -3.37024 -6.05299 0
M  V30 35777 N 3513.58 -2.5809 -4.99346 0
M  V30 35778 H 3505.73 -1.7497 -1.20413 0
M  V30 35779 H 3507.99 -0.743795 -0.587769 0
M  V30 35780 H 3507.7 -2.35334 -2.61363 0
M  V30 35781 H 3507.57 -0.944318 -3.65188 0
M  V30 35782 H 3509.96 -0.253594 -2.94008 0
M  V30 35783 H 3510.04 -1.69446 -1.91629 0
M  V30 35784 H 3509.68 -3.15415 -3.9809 0
M  V30 35785 H 3509.61 -1.68667 -4.98858 0
M  V30 35786 H 3512.1 -1.58579 -3.43017 0
M  V30 35787 H 3512.42 -3.79986 -6.72927 0
M  V30 35788 H 3510.76 -3.41126 -6.05523 0
M  V30 35789 H 3513.95 -2.04046 -4.21287 0
M  V30 35790 H 3514.13 -3.04989 -5.71739 0
M  V30 35791 N 3507.53 1.47986 -0.542031 0
M  V30 35792 C 3508.94 1.86406 -0.104679 0
M  V30 35793 C 3509.29 1.45033 1.32136 0
M  V30 35794 O 3508.42 0.846474 1.99158 0
M  V30 35795 C 3509.01 3.38304 -0.183193 0
M  V30 35796 C 3507.57 3.75873 0.199032 0
M  V30 35797 C 3506.72 2.72039 -0.53758 0
M  V30 35798 H 3509.67 1.39719 -0.752614 0
M  V30 35799 H 3509.69 3.75706 0.602083 0
M  V30 35800 H 3509.2 3.68386 -1.22119 0
M  V30 35801 H 3507.3 3.51407 1.23872 0
M  V30 35802 H 3507.42 4.78868 -0.148964 0
M  V30 35803 H 3505.78 2.54694 0.0175807 0
M  V30 35804 H 3506.56 3.04964 -1.57644 0
M  V30 35805 N 3509.01 0.277736 1.55133 0
M  V30 35806 C 3509.94 -0.641875 2.20029 0
M  V30 35807 C 3510.95 -1.11547 1.1858 0
M  V30 35808 O 3512.14 -1.03692 1.45293 0
M  V30 35809 C 3509.24 -1.88789 2.81446 0
M  V30 35810 C 3508.42 -1.56067 4.0861 0
M  V30 35811 C 3507.48 -2.65942 4.5405 0
M  V30 35812 O 3506.5 -2.32017 5.19766 0
M  V30 35813 N 3507.7 -3.96051 4.2441 0
M  V30 35814 H 3510.47 -0.0864402 2.99575 0
M  V30 35815 H 3508.03 0.0989462 1.61597 0
M  V30 35816 H 3510.02 -2.61595 3.08788 0
M  V30 35817 H 3508.59 -2.35231 2.05877 0
M  V30 35818 H 3507.81 -0.666319 3.88528 0
M  V30 35819 H 3509.1 -1.3171 4.91457 0
M  V30 35820 H 3508.5 -4.26432 3.71715 0
M  V30 35821 H 3507.05 -4.65226 4.56517 0
M  V30 35822 N 3510.49 -1.57599 0.00505908 0
M  V30 35823 C 3511.72 -1.9507 -0.689575 0
M  V30 35824 C 3512.13 -0.880212 -1.67026 0
M  V30 35825 O 3511.49 0.140375 -1.81959 0
M  V30 35826 C 3511.54 -3.3257 -1.41703 0
M  V30 35827 O 3511.26 -4.3551 -0.475669 0
M  V30 35828 C 3512.76 -3.8453 -2.20571 0
M  V30 35829 H 3509.98 -0.643022 -0.191739 0
M  V30 35830 H 3512.52 -2.04419 0.057682 0
M  V30 35831 H 3510.68 -3.24514 -2.11588 0
M  V30 35832 H 3511.09 -5.15082 -0.989483 0
M  V30 35833 H 3512.57 -4.83152 -2.6696 0
M  V30 35834 H 3513.04 -3.17503 -3.03461 0
M  V30 35835 H 3513.65 -3.95778 -1.55693 0
M  V30 35836 N 3511.97 0.267771 -1.55309 0
M  V30 35837 C 3513.21 0.996484 -1.75366 0
M  V30 35838 C 3513.53 1.8726 -0.56506 0
M  V30 35839 O 3514.73 2.6365 -0.648165 0
M  V30 35840 C 3513.19 1.82169 -3.10391 0
M  V30 35841 C 3512.8 0.993985 -4.36834 0
M  V30 35842 C 3514.54 2.54439 -3.39795 0
M  V30 35843 C 3512.45 1.81388 -5.62896 0
M  V30 35844 H 3511.38 0.375781 -0.653685 0
M  V30 35845 H 3514.03 0.251943 -1.81762 0
M  V30 35846 H 3512.41 2.60739 -2.98046 0
M  V30 35847 H 3513.59 0.252086 -4.6011 0
M  V30 35848 H 3511.9 0.385589 -4.14611 0
M  V30 35849 H 3514.5 3.16196 -4.3119 0
M  V30 35850 H 3514.84 3.24992 -2.60165 0
M  V30 35851 H 3515.37 1.82896 -3.53262 0
M  V30 35852 H 3512.11 1.15247 -6.45289 0
M  V30 35853 H 3511.63 2.53161 -5.43755 0
M  V30 35854 H 3513.31 2.38623 -6.01388 0
M  V30 35855 N 3513.44 1.48331 0.532519 0
M  V30 35856 C 3514.67 1.59876 1.31329 0
M  V30 35857 C 3515.09 0.25807 1.87028 0
M  V30 35858 O 3514.44 -0.752287 1.66274 0
M  V30 35859 C 3514.49 2.64339 2.46591 0
M  V30 35860 O 3514.22 3.93205 1.93188 0
M  V30 35861 C 3515.72 2.863 3.38449 0
M  V30 35862 H 3512.94 0.539136 0.399467 0
M  V30 35863 H 3515.48 1.94139 0.642662 0
M  V30 35864 H 3513.64 2.32941 3.09544 0
M  V30 35865 H 3514.05 4.50493 2.68619 0
M  V30 35866 H 3515.52 3.63199 4.15681 0
M  V30 35867 H 3516 1.95029 3.93523 0
M  V30 35868 H 3516.61 3.18991 2.81291 0
M  V30 35869 N 3514.92 -0.781196 1.36876 0
M  V30 35870 C 3515.83 -1.92534 1.34044 0
M  V30 35871 C 3516.85 -1.72318 0.241384 0
M  V30 35872 O 3518.02 -1.95714 0.475163 0
M  V30 35873 C 3515.09 -3.27521 1.13714 0
M  V30 35874 C 3514.15 -3.60458 2.33171 0
M  V30 35875 C 3513.38 -4.89003 2.13802 0
M  V30 35876 O 3513.61 -5.59348 1.11741 0
M  V30 35877 O 3512.54 -5.20786 3.01771 0
M  V30 35878 H 3516.37 -1.97875 2.3039 0
M  V30 35879 H 3513.95 -0.922616 1.17508 0
M  V30 35880 H 3515.83 -4.08281 1.04328 0
M  V30 35881 H 3514.51 -3.23054 0.204363 0
M  V30 35882 H 3513.41 -2.7997 2.48128 0
M  V30 35883 H 3514.75 -3.69657 3.24984 0
M  V30 35884 N 3516.4 -1.21291 -1.0063 0
M  V30 35885 C 3517.33 -0.92879 -2.09538 0
M  V30 35886 C 3518.34 0.0874926 -1.62565 0
M  V30 35887 O 3519.53 -0.144839 -1.77911 0
M  V30 35888 C 3516.63 -0.372819 -3.36843 0
M  V30 35889 C 3515.81 -1.44312 -4.12908 0
M  V30 35890 C 3514.87 -0.896625 -5.18505 0
M  V30 35891 O 3513.89 -1.57975 -5.46839 0
M  V30 35892 N 3515.09 0.288786 -5.79781 0
M  V30 35893 H 3517.86 -1.86633 -2.34495 0
M  V30 35894 H 3515.42 -1.11798 -1.17102 0
M  V30 35895 H 3517.41 0.00715623 -4.04699 0
M  V30 35896 H 3515.98 0.469518 -3.09054 0
M  V30 35897 H 3515.2 -1.997 -3.39873 0
M  V30 35898 H 3516.49 -2.16364 -4.60504 0
M  V30 35899 H 3515.89 0.860853 -5.59112 0
M  V30 35900 H 3514.44 0.610286 -6.48937 0
M  V30 35901 N 3517.88 1.20103 -1.02045 0
M  V30 35902 C 3519.15 1.8528 -0.626955 0
M  V30 35903 C 3519.53 1.91198 0.894786 0
M  V30 35904 O 3518.88 1.42268 1.78807 0
M  V30 35905 C 3519.09 3.2471 -1.27923 0
M  V30 35906 C 3520.44 4.00956 -1.39711 0
M  V30 35907 O 3521.46 3.34078 -1.23574 0
M  V30 35908 O 3520.32 5.20735 -1.65823 0
M  V30 35909 H 3517.42 0.798069 -0.216829 0
M  V30 35910 H 3519.96 1.27661 -1.11807 0
M  V30 35911 H 3518.74 3.1519 -2.31886 0
M  V30 35912 H 3518.36 3.89965 -0.775439 0
M  V30 35913 N 3519.36 0.797189 1.35951 0
M  V30 35914 C 3520.58 0.384245 2.0381 0
M  V30 35915 C 3521.01 -0.993826 1.59702 0
M  V30 35916 O 3520.36 -1.64175 0.769177 0
M  V30 35917 C 3520.41 0.465116 3.57588 0
M  V30 35918 O 3519.52 -0.525023 4.09044 0
M  V30 35919 H 3518.86 0.161923 0.643954 0
M  V30 35920 H 3521.39 1.08046 1.73745 0
M  V30 35921 H 3521.4 0.331519 4.06651 0
M  V30 35922 H 3520.07 1.47034 3.89042 0
M  V30 35923 H 3518.65 -0.352444 3.71231 0
M  V30 35924 N 3520.83 -1.47696 0.549872 0
M  V30 35925 C 3521.78 -2.31603 -0.215078 0
M  V30 35926 C 3522.78 -1.42472 -0.916416 0
M  V30 35927 O 3523.98 -1.59275 -0.838537 0
M  V30 35928 H 3520.36 -0.746806 -0.088231 0
M  V30 35929 H 3522.33 -2.93976 0.511899 0
M  V30 35930 C 3521.08 -3.24968 -1.23656 0
M  V30 35931 H 3520.4 -3.93511 -0.706315 0
M  V30 35932 H 3521.84 -3.86525 -1.74283 0
M  V30 35933 C 3520.3 -2.47971 -2.28062 0
M  V30 35934 O 3520.83 -2.21884 -3.34858 0
M  V30 35935 N 3519.04 -2.0911 -2.01795 0
M  V30 35936 H 3518.58 -2.30525 -1.14961 0
M  V30 35937 H 3518.54 -1.57907 -2.71869 0
M  V30 35938 N 3522.31 -0.285959 -1.54984 0
M  V30 35939 C 3523.26 0.596783 -2.22951 0
M  V30 35940 C 3524.23 1.14134 -1.20676 0
M  V30 35941 O 3525.41 1.18864 -1.49251 0
M  V30 35942 C 3522.55 1.76997 -2.96253 0
M  V30 35943 C 3521.67 1.25824 -4.1327 0
M  V30 35944 C 3520.8 2.39409 -4.74191 0
M  V30 35945 C 3519.84 1.85294 -5.8338 0
M  V30 35946 N 3518.98 2.92393 -6.38319 0
M  V30 35947 H 3523.82 0.010558 -2.97998 0
M  V30 35948 H 3521.36 -0.00655626 -1.47099 0
M  V30 35949 H 3523.31 2.45974 -3.36976 0
M  V30 35950 H 3521.94 2.32806 -2.2361 0
M  V30 35951 H 3521 0.461212 -3.77594 0
M  V30 35952 H 3522.31 0.821962 -4.91981 0
M  V30 35953 H 3521.46 3.1636 -5.17688 0
M  V30 35954 H 3520.2 2.86357 -3.9478 0
M  V30 35955 H 3519.21 1.06826 -5.39322 0
M  V30 35956 H 3520.43 1.39268 -6.64666 0
M  V30 35957 H 3518.38 3.38703 -5.61797 0
M  V30 35958 H 3518.29 2.53216 -7.12333 0
M  V30 35959 H 3519.56 3.69287 -6.86474 0
M  V30 35960 N 3523.79 1.57594 -0.0134169 0
M  V30 35961 C 3524.74 2.10397 0.991759 0
M  V30 35962 C 3525.73 1.02695 1.34722 0
M  V30 35963 O 3526.94 1.21147 1.33129 0
M  V30 35964 H 3523.31 0.67199 0.337541 0
M  V30 35965 H 3525.28 2.93817 0.520969 0
M  V30 35966 C 3524.03 2.63345 2.27034 0
M  V30 35967 H 3523.36 3.45859 2.00553 0
M  V30 35968 H 3524.8 3.03955 2.95614 0
M  V30 35969 C 3523.26 1.55367 2.98936 0
M  V30 35970 O 3523.79 0.944351 3.90442 0
M  V30 35971 N 3521.99 1.27789 2.60995 0
M  V30 35972 H 3521.54 1.77524 1.86663 0
M  V30 35973 H 3521.5 0.55764 3.09415 0
M  V30 35974 N 3525.27 -0.259531 1.55448 0
M  V30 35975 C 3526.49 -1.01145 1.81065 0
M  V30 35976 C 3526.92 -1.78648 0.588781 0
M  V30 35977 O 3526.28 -1.75316 -0.46194 0
M  V30 35978 C 3526.32 -1.93506 3.04282 0
M  V30 35979 O 3525.43 -3.02488 2.80312 0
M  V30 35980 H 3524.77 -0.288476 0.598061 0
M  V30 35981 H 3527.3 -0.284351 2.02614 0
M  V30 35982 H 3527.31 -2.35209 3.33378 0
M  V30 35983 H 3525.98 -1.36511 3.92858 0
M  V30 35984 H 3524.56 -2.65004 2.6235 0
M  V30 35985 N 3526.75 -1.48611 -0.524645 0
M  V30 35986 C 3527.97 -1.60828 -1.30955 0
M  V30 35987 C 3528.4 -0.270715 -1.86142 0
M  V30 35988 O 3527.75 0.758386 -1.64676 0
M  V30 35989 C 3527.8 -2.66201 -2.43248 0
M  V30 35990 O 3526.91 -2.23731 -3.46436 0
M  V30 35991 H 3526.25 -0.539111 -0.387629 0
M  V30 35992 H 3528.78 -1.94636 -0.630721 0
M  V30 35993 H 3528.79 -2.8764 -2.89357 0
M  V30 35994 H 3527.46 -3.63304 -2.02442 0
M  V30 35995 H 3526.04 -2.12527 -3.06409 0
M  V30 35996 N 3528.22 0.773926 -1.37289 0
M  V30 35997 C 3529.45 1.56299 -1.35566 0
M  V30 35998 C 3529.87 1.88706 0.0595024 0
M  V30 35999 O 3529.22 1.51288 1.02069 0
M  V30 36000 C 3529.28 2.8746 -2.192 0
M  V30 36001 O 3529 2.56444 -3.55201 0
M  V30 36002 C 3530.5 3.817 -2.25432 0
M  V30 36003 H 3527.72 0.48429 -0.46444 0
M  V30 36004 H 3530.26 0.959393 -1.80599 0
M  V30 36005 H 3528.42 3.4425 -1.77682 0
M  V30 36006 H 3528.83 3.4042 -3.99017 0
M  V30 36007 H 3530.3 4.70744 -2.88278 0
M  V30 36008 H 3530.78 4.20675 -1.26212 0
M  V30 36009 H 3531.39 3.30841 -2.67253 0
M  V30 36010 N 3529.7 1.21823 0.99985 0
M  V30 36011 C 3530.67 0.983578 2.07023 0
M  V30 36012 C 3531.67 -0.0473729 1.6073 0
M  V30 36013 O 3532.86 0.190429 1.73156 0
M  V30 36014 C 3529.99 0.484258 3.37443 0
M  V30 36015 H 3531.18 1.93324 2.29273 0
M  V30 36016 H 3528.73 1.03594 1.17039 0
M  V30 36017 H 3529.47 -0.470081 3.20875 0
M  V30 36018 H 3529.25 1.22796 3.72376 0
M  V30 36019 H 3530.74 0.340113 4.16213 0
M  V30 36020 N 3531.18 -1.1956 1.0268 0
M  V30 36021 C 3532.09 -2.26374 0.615778 0
M  V30 36022 C 3533.11 -1.70413 -0.351496 0
M  V30 36023 O 3534.28 -2.00303 -0.209897 0
M  V30 36024 C 3531.35 -3.46688 -0.0291526 0
M  V30 36025 C 3530.41 -4.17839 0.985358 0
M  V30 36026 C 3529.64 -5.32408 0.371109 0
M  V30 36027 O 3529.86 -5.6438 -0.826491 0
M  V30 36028 O 3528.8 -5.91894 1.09292 0
M  V30 36029 H 3532.62 -2.63769 1.50531 0
M  V30 36030 H 3530.21 -1.26374 0.79687 0
M  V30 36031 H 3532.09 -4.19602 -0.388856 0
M  V30 36032 H 3530.77 -3.11146 -0.892724 0
M  V30 36033 H 3529.67 -3.47053 1.39661 0
M  V30 36034 H 3531.01 -4.57345 1.81923 0
M  V30 36035 N 3532.66 -0.804387 -1.35526 0
M  V30 36036 C 3533.91 -0.38023 -1.98084 0
M  V30 36037 C 3534.22 1.05775 -1.64533 0
M  V30 36038 O 3535.43 1.58491 -2.20438 0
M  V30 36039 C 3533.88 -0.62891 -3.54362 0
M  V30 36040 C 3533.49 -2.07928 -3.96825 0
M  V30 36041 C 3535.23 -0.270002 -4.2364 0
M  V30 36042 C 3533.14 -2.27383 -5.4594 0
M  V30 36043 H 3532.07 -0.138435 -0.741183 0
M  V30 36044 H 3534.72 -0.988135 -1.54623 0
M  V30 36045 H 3533.1 0.0489141 -3.9597 0
M  V30 36046 H 3534.28 -2.79474 -3.66375 0
M  V30 36047 H 3532.59 -2.39785 -3.40429 0
M  V30 36048 H 3535.19 -0.393438 -5.33251 0
M  V30 36049 H 3535.53 0.783572 -4.08859 0
M  V30 36050 H 3536.07 -0.901656 -3.87447 0
M  V30 36051 H 3532.81 -3.31178 -5.65687 0
M  V30 36052 H 3532.33 -1.6036 -5.77966 0
M  V30 36053 H 3534 -2.08828 -6.12372 0
M  V30 36054 N 3534.14 1.47403 -0.557697 0
M  V30 36055 C 3535.09 2.31714 0.202793 0
M  V30 36056 C 3536.08 1.42956 0.908848 0
M  V30 36057 O 3537.29 1.59718 0.830078 0
M  V30 36058 H 3533.66 0.747263 0.0842692 0
M  V30 36059 H 3535.63 2.93701 -0.527482 0
M  V30 36060 C 3534.38 3.2562 1.21931 0
M  V30 36061 H 3533.7 3.9388 0.685436 0
M  V30 36062 H 3535.14 3.87444 1.7223 0
M  V30 36063 C 3533.6 2.49177 2.26743 0
M  V30 36064 O 3534.13 2.23657 3.33677 0
M  V30 36065 N 3532.34 2.10177 2.00684 0
M  V30 36066 H 3531.89 2.31132 1.13736 0
M  V30 36067 H 3531.84 1.59346 2.71028 0
M  V30 36068 N 3535.62 0.294175 1.5483 0
M  V30 36069 C 3536.53 -0.594582 2.2694 0
M  V30 36070 C 3537.54 -1.15417 1.30211 0
M  V30 36071 O 3538.72 -1.18041 1.63182 0
M  V30 36072 C 3535.78 -1.7534 2.99093 0
M  V30 36073 C 3534.84 -1.22858 4.11345 0
M  V30 36074 C 3534.08 -2.33217 4.80047 0
M  V30 36075 O 3534.3 -3.52975 4.48068 0
M  V30 36076 O 3533.23 -2.00294 5.67596 0
M  V30 36077 H 3537.06 -0.00983897 3.03698 0
M  V30 36078 H 3534.64 0.060879 1.49276 0
M  V30 36079 H 3536.53 -2.42869 3.44373 0
M  V30 36080 H 3535.2 -2.32488 2.25236 0
M  V30 36081 H 3534.11 -0.519214 3.70479 0
M  V30 36082 H 3535.44 -0.702617 4.87159 0
M  V30 36083 N 3537.09 -1.57585 0.0217743 0
M  V30 36084 C 3538.32 -1.95791 -0.668846 0
M  V30 36085 C 3538.74 -0.897878 -1.66083 0
M  V30 36086 O 3538.09 0.121067 -1.82098 0
M  V30 36087 C 3538.14 -3.34054 -1.38168 0
M  V30 36088 O 3537.87 -4.3599 -0.429451 0
M  V30 36089 C 3539.37 -3.86848 -2.1648 0
M  V30 36090 H 3536.59 -0.645019 -0.184908 0
M  V30 36091 H 3539.13 -2.04346 0.0793601 0
M  V30 36092 H 3537.29 -3.2674 -2.08134 0
M  V30 36093 H 3537.7 -5.16103 -0.934796 0
M  V30 36094 H 3539.17 -4.85957 -2.61821 0
M  V30 36095 H 3539.65 -3.20703 -3.00077 0
M  V30 36096 H 3540.26 -3.97407 -1.51486 0
M  V30 36097 N 3538.57 0.251283 -1.55584 0
M  V30 36098 C 3539.8 0.997604 -1.81261 0
M  V30 36099 C 3540.21 1.79116 -0.596892 0
M  V30 36100 O 3539.57 1.77255 0.434394 0
M  V30 36101 C 3539.62 1.93897 -3.051 0
M  V30 36102 O 3539.34 1.17753 -4.21979 0
M  V30 36103 C 3540.84 2.80164 -3.43545 0
M  V30 36104 H 3538.06 0.29375 -0.603284 0
M  V30 36105 H 3540.61 0.275495 -2.02636 0
M  V30 36106 H 3538.76 2.61541 -2.85788 0
M  V30 36107 H 3539.18 1.8139 -4.92136 0
M  V30 36108 H 3540.65 3.41973 -4.33311 0
M  V30 36109 H 3541.13 3.51052 -2.6393 0
M  V30 36110 H 3541.73 2.17978 -3.65192 0
M  V30 36111 N 3540.05 1.48887 0.516757 0
M  V30 36112 C 3541.28 1.6126 1.29625 0
M  V30 36113 C 3541.69 0.277893 1.86744 0
M  V30 36114 O 3541.05 -0.73461 1.67062 0
M  V30 36115 C 3541.1 2.66939 2.43774 0
M  V30 36116 O 3540.82 3.95232 1.89007 0
M  V30 36117 C 3542.32 2.89873 3.35393 0
M  V30 36118 H 3539.54 0.543342 0.393726 0
M  V30 36119 H 3542.09 1.9481 0.622035 0
M  V30 36120 H 3540.24 2.36211 3.07055 0
M  V30 36121 H 3540.66 4.53317 2.63825 0
M  V30 36122 H 3542.13 3.67588 4.11805 0
M  V30 36123 H 3542.61 1.99192 3.91432 0
M  V30 36124 H 3543.21 3.21957 2.77892 0
M  V30 36125 N 3541.53 -0.766635 1.37697 0
M  V30 36126 C 3542.75 -1.56091 1.36566 0
M  V30 36127 C 3543.18 -1.88045 -0.0455497 0
M  V30 36128 O 3542.54 -1.49611 -1.02402 0
M  V30 36129 C 3542.58 -2.84477 2.21597 0
M  V30 36130 O 3541.69 -3.79073 1.62411 0
M  V30 36131 H 3541.03 -0.472615 0.466402 0
M  V30 36132 H 3543.56 -0.948454 1.81288 0
M  V30 36133 H 3543.57 -3.3353 2.34993 0
M  V30 36134 H 3542.24 -2.60548 3.24172 0
M  V30 36135 H 3540.82 -3.37733 1.58084 0
M  V30 36136 N 3543.01 -1.22351 -0.993375 0
M  V30 36137 C 3544.23 -1.07491 -1.77371 0
M  V30 36138 C 3544.66 0.370308 -1.84419 0
M  V30 36139 O 3544.01 1.2675 -1.29631 0
M  V30 36140 C 3544.06 -1.69019 -3.18535 0
M  V30 36141 O 3543.17 -0.943545 -4.01461 0
M  V30 36142 H 3542.51 -0.37757 -0.546202 0
M  V30 36143 H 3545.04 -1.62138 -1.24789 0
M  V30 36144 H 3545.05 -1.73724 -3.69167 0
M  V30 36145 H 3543.72 -2.74188 -3.1272 0
M  V30 36146 H 3542.3 -0.972478 -3.59996 0
M  V30 36147 N 3544.48 1.19014 -1.03313 0
M  V30 36148 C 3545.71 1.92756 -0.751836 0
M  V30 36149 C 3546.13 1.75742 0.689951 0
M  V30 36150 O 3545.48 1.08209 1.46959 0
M  V30 36151 C 3545.53 3.4439 -1.09898 0
M  V30 36152 O 3545.26 3.60862 -2.48415 0
M  V30 36153 C 3546.76 4.35247 -0.841105 0
M  V30 36154 H 3543.98 0.612163 -0.274768 0
M  V30 36155 H 3546.52 1.51031 -1.37876 0
M  V30 36156 H 3544.68 3.83933 -0.517159 0
M  V30 36157 H 3545.09 4.54677 -2.61476 0
M  V30 36158 H 3546.56 5.40228 -1.13393 0
M  V30 36159 H 3547.04 4.38627 0.224357 0
M  V30 36160 H 3547.65 4.01392 -1.40586 0
M  V30 36161 N 3545.96 0.811563 1.35098 0
M  V30 36162 C 3547.24 0.317323 1.93009 0
M  V30 36163 C 3547.62 -1.19379 1.74103 0
M  V30 36164 O 3546.97 -1.99562 1.11299 0
M  V30 36165 C 3547.18 0.734183 3.4119 0
M  V30 36166 C 3548.52 0.726511 4.18338 0
M  V30 36167 O 3549.55 0.676041 3.49726 0
M  V30 36168 O 3548.41 0.789386 5.40769 0
M  V30 36169 H 3545.5 0.0841674 0.822706 0
M  V30 36170 H 3548.05 0.895594 1.44143 0
M  V30 36171 H 3546.82 1.77546 3.48702 0
M  V30 36172 H 3546.44 0.130989 3.97384 0
M  V30 36173 N 3547.44 -1.47105 0.565506 0
M  V30 36174 C 3548.69 -2.02451 0.0445611 0
M  V30 36175 C 3549.01 -1.43895 -1.3086 0
M  V30 36176 O 3548.27 -0.587307 -1.86679 0
M  V30 36177 C 3548.57 -3.57288 -0.0893148 0
M  V30 36178 C 3548.23 -4.34803 1.19403 0
M  V30 36179 C 3546.9 -4.557 1.54566 0
M  V30 36180 C 3549.25 -4.79444 2.04408 0
M  V30 36181 C 3546.58 -5.18489 2.74566 0
M  V30 36182 C 3548.93 -5.43557 3.23617 0
M  V30 36183 C 3547.59 -5.62686 3.59084 0
M  V30 36184 H 3546.86 -0.740821 0.016306 0
M  V30 36185 H 3549.51 -1.7668 0.738688 0
M  V30 36186 H 3547.81 -3.82099 -0.866463 0
M  V30 36187 H 3549.51 -3.97771 -0.507873 0
M  V30 36188 H 3546.1 -4.18823 0.91025 0
M  V30 36189 H 3550.29 -4.63071 1.78547 0
M  V30 36190 H 3545.54 -5.31491 3.02203 0
M  V30 36191 H 3549.72 -5.7711 3.89766 0
M  V30 36192 H 3547.34 -6.11109 4.52161 0
M  V30 36193 N 3548.92 -0.302382 -1.54672 0
M  V30 36194 C 3549.85 0.566225 -2.26531 0
M  V30 36195 C 3550.83 1.1368 -1.26534 0
M  V30 36196 O 3552.01 1.16588 -1.55309 0
M  V30 36197 C 3549.14 1.73752 -3.00712 0
M  V30 36198 C 3548.1 1.29724 -4.07867 0
M  V30 36199 C 3547.42 2.5538 -4.69771 0
M  V30 36200 C 3548.72 0.427475 -5.20548 0
M  V30 36201 H 3550.42 -0.0331236 -2.99382 0
M  V30 36202 H 3547.96 -0.0173711 -1.4399 0
M  V30 36203 H 3549.92 2.35128 -3.49704 0
M  V30 36204 H 3548.64 2.36313 -2.25442 0
M  V30 36205 H 3547.3 0.706523 -3.59727 0
M  V30 36206 H 3546.95 3.16258 -3.91139 0
M  V30 36207 H 3546.65 2.26621 -5.42141 0
M  V30 36208 H 3548.17 3.17557 -5.21527 0
M  V30 36209 H 3549.59 0.946954 -5.65425 0
M  V30 36210 H 3547.98 0.233599 -5.99645 0
M  V30 36211 H 3549.05 -0.547078 -4.81804 0
M  V30 36212 N 3550.4 1.57571 -0.0301311 0
M  V30 36213 C 3551.36 2.09198 0.936428 0
M  V30 36214 C 3552.36 1.00724 1.25345 0
M  V30 36215 O 3553.55 1.26879 1.19362 0
M  V30 36216 C 3550.68 2.55868 2.25266 0
M  V30 36217 H 3551.87 2.95882 0.48928 0
M  V30 36218 H 3549.43 1.54773 0.21792 0
M  V30 36219 H 3550.16 1.72515 2.74607 0
M  V30 36220 H 3549.95 3.35116 2.03567 0
M  V30 36221 H 3551.44 2.9603 2.94543 0
M  V30 36222 N 3551.87 -0.243029 1.55715 0
M  V30 36223 C 3553.29 -0.591728 1.48225 0
M  V30 36224 C 3553.49 -1.88156 0.721083 0
M  V30 36225 O 3552.55 -2.51239 0.25201 0
M  V30 36226 C 3553.86 -0.690867 2.92656 0
M  V30 36227 C 3555.41 -0.782935 3.0305 0
M  V30 36228 C 3555.88 -0.913603 4.48795 0
M  V30 36229 N 3557.37 -0.978375 4.52749 0
M  V30 36230 C 3558.11 -1.09881 5.62773 0
M  V30 36231 N 3557.6 -1.18455 6.82598 0
M  V30 36232 N 3559.4 -1.13227 5.50578 0
M  V30 36233 H 3551.55 0.60365 2.03641 0
M  V30 36234 H 3553.81 0.208895 0.924698 0
M  V30 36235 H 3553.52 0.186933 3.51203 0
M  V30 36236 H 3553.39 -1.56154 3.4336 0
M  V30 36237 H 3555.78 -1.65119 2.44581 0
M  V30 36238 H 3555.86 0.112966 2.5555 0
M  V30 36239 H 3555.5 -0.0498942 5.07875 0
M  V30 36240 H 3555.43 -1.8246 4.9398 0
M  V30 36241 H 3557.92 -0.923305 3.66447 0
M  V30 36242 H 3558.24 -1.27562 7.62199 0
M  V30 36243 H 3556.58 -1.15405 6.85351 0
M  V30 36244 H 3559.77 -1.0618 4.55898 0
M  V30 36245 H 3559.95 -1.22268 6.3636 0
M  V30 36246 N 3553.35 -1.49159 -0.508854 0
M  V30 36247 C 3554.32 -1.64742 -1.59351 0
M  V30 36248 C 3555.32 -0.519584 -1.52174 0
M  V30 36249 O 3556.51 -0.785865 -1.55466 0
M  V30 36250 C 3553.64 -1.63744 -2.99 0
M  V30 36251 H 3554.83 -2.61477 -1.46867 0
M  V30 36252 H 3552.38 -1.38073 -0.732508 0
M  V30 36253 H 3553.12 -0.685639 -3.16969 0
M  V30 36254 H 3552.9 -2.45643 -3.05617 0
M  V30 36255 H 3554.39 -1.77883 -3.77819 0
M  V30 36256 N 3554.83 0.759322 -1.38102 0
M  V30 36257 C 3556.06 1.54628 -1.37017 0
M  V30 36258 C 3556.47 1.8915 0.043351 0
M  V30 36259 O 3555.81 1.52857 1.01885 0
M  V30 36260 C 3555.87 2.8769 -2.1558 0
M  V30 36261 C 3555.54 2.75737 -3.64442 0
M  V30 36262 C 3556.53 2.45921 -4.5806 0
M  V30 36263 C 3554.22 2.93369 -4.07725 0
M  V30 36264 C 3556.21 2.33884 -5.92939 0
M  V30 36265 C 3553.9 2.80952 -5.42687 0
M  V30 36266 C 3554.9 2.51251 -6.35108 0
M  V30 36267 O 3554.59 2.38882 -7.67587 0
M  V30 36268 H 3554.32 0.485268 -0.470629 0
M  V30 36269 H 3556.87 0.947968 -1.82216 0
M  V30 36270 H 3555.1 3.49689 -1.6509 0
M  V30 36271 H 3556.79 3.49165 -2.06974 0
M  V30 36272 H 3557.56 2.31973 -4.25927 0
M  V30 36273 H 3553.44 3.15485 -3.3614 0
M  V30 36274 H 3556.98 2.10623 -6.65044 0
M  V30 36275 H 3552.88 2.94472 -5.74418 0
M  V30 36276 H 3553.65 2.54138 -7.78046 0
M  V30 36277 N 3556.31 1.22876 0.986873 0
M  V30 36278 C 3557.56 1.05487 1.72386 0
M  V30 36279 C 3557.88 -0.410041 1.9064 0
M  V30 36280 O 3557.15 -1.29447 1.47038 0
M  V30 36281 H 3555.73 0.387349 0.638725 0
M  V30 36282 H 3558.39 1.54487 1.18826 0
M  V30 36283 H 3557.49 1.53759 2.71597 0
M  V30 36284 N 3557.79 -1.18464 1.03942 0
M  V30 36285 C 3559.03 -1.88413 0.742075 0
M  V30 36286 C 3559.36 -1.80277 -0.730106 0
M  V30 36287 O 3558.62 -1.19677 -1.54842 0
M  V30 36288 C 3558.92 -3.38324 1.15203 0
M  V30 36289 C 3558.58 -3.66664 2.62428 0
M  V30 36290 C 3557.24 -3.74108 3.02649 0
M  V30 36291 C 3559.6 -3.79147 3.57627 0
M  V30 36292 C 3556.92 -3.91514 4.3696 0
M  V30 36293 C 3559.28 -3.98069 4.91654 0
M  V30 36294 C 3557.94 -4.03749 5.31548 0
M  V30 36295 H 3557.21 -0.689452 0.271544 0
M  V30 36296 H 3559.86 -1.40223 1.30421 0
M  V30 36297 H 3558.16 -3.88484 0.508675 0
M  V30 36298 H 3559.86 -3.90785 0.899338 0
M  V30 36299 H 3556.45 -3.61485 2.30274 0
M  V30 36300 H 3560.63 -3.72729 3.27699 0
M  V30 36301 H 3555.89 -3.94154 4.67389 0
M  V30 36302 H 3560.06 -4.0667 5.65325 0
M  V30 36303 H 3557.69 -4.16988 6.35629 0
M  V30 36304 N 3559.26 -0.818716 -1.34665 0
M  V30 36305 C 3560.17 -0.23947 -2.33375 0
M  V30 36306 C 3561.19 0.623928 -1.62429 0
M  V30 36307 O 3562.37 0.53282 -1.94224 0
M  V30 36308 C 3559.43 0.59252 -3.41599 0
M  V30 36309 C 3558.49 -0.292788 -4.283 0
M  V30 36310 C 3557.73 0.499589 -5.31357 0
M  V30 36311 O 3557.95 1.73324 -5.43429 0
M  V30 36312 O 3556.88 -0.115884 -6.01788 0
M  V30 36313 H 3560.71 -1.05636 -2.84736 0
M  V30 36314 H 3558.29 -0.580765 -1.3765 0
M  V30 36315 H 3560.18 1.066 -4.07694 0
M  V30 36316 H 3558.85 1.3868 -2.92488 0
M  V30 36317 H 3557.76 -0.813674 -3.65144 0
M  V30 36318 H 3559.09 -1.05132 -4.80841 0
M  V30 36319 N 3560.74 1.46803 -0.573299 0
M  V30 36320 C 3561.68 2.27199 0.213487 0
M  V30 36321 C 3562.65 1.35049 0.905574 0
M  V30 36322 O 3563.84 1.64449 0.921348 0
M  V30 36323 C 3560.96 3.12529 1.3055 0
M  V30 36324 C 3560.01 4.20374 0.720257 0
M  V30 36325 S 3560.84 5.33643 -0.445612 0
M  V30 36326 C 3562 6.22538 0.64783 0
M  V30 36327 H 3562.23 2.93582 -0.468694 0
M  V30 36328 H 3559.77 1.50145 -0.359976 0
M  V30 36329 H 3561.72 3.62258 1.93079 0
M  V30 36330 H 3560.38 2.45477 1.95959 0
M  V30 36331 H 3559.58 4.7987 1.5408 0
M  V30 36332 H 3559.18 3.7361 0.170819 0
M  V30 36333 H 3561.47 6.59861 1.5359 0
M  V30 36334 H 3562.41 7.08043 0.0898519 0
M  V30 36335 H 3562.82 5.56487 0.947742 0
M  V30 36336 N 3562.22 0.31058 1.54509 0
M  V30 36337 C 3563.18 -0.54845 2.22541 0
M  V30 36338 C 3564.18 -1.05379 1.21458 0
M  V30 36339 O 3565.37 -0.948286 1.46127 0
M  V30 36340 C 3562.51 -1.76038 2.9193 0
M  V30 36341 H 3563.7 0.0460833 2.99865 0
M  V30 36342 H 3561.25 0.0615145 1.56179 0
M  V30 36343 H 3561.99 -2.3945 2.18711 0
M  V30 36344 H 3561.77 -1.40558 3.66041 0
M  V30 36345 H 3563.26 -2.37045 3.43801 0
M  V30 36346 N 3563.7 -1.57553 0.0384871 0
M  V30 36347 C 3564.65 -2.10781 -0.940219 0
M  V30 36348 C 3565.62 -1.0121 -1.31703 0
M  V30 36349 O 3566.8 -1.28685 -1.40872 0
M  V30 36350 C 3563.94 -2.64707 -2.21415 0
M  V30 36351 C 3563.05 -3.88319 -1.89295 0
M  V30 36352 C 3562.19 -4.30604 -3.11052 0
M  V30 36353 C 3561.23 -5.4695 -2.74795 0
M  V30 36354 N 3560.37 -5.84348 -3.89206 0
M  V30 36355 H 3565.21 -2.94119 -0.479407 0
M  V30 36356 H 3562.74 -1.45369 -0.225025 0
M  V30 36357 H 3564.7 -2.94066 -2.95941 0
M  V30 36358 H 3563.33 -1.84185 -2.65096 0
M  V30 36359 H 3562.38 -3.6563 -1.04971 0
M  V30 36360 H 3563.69 -4.72914 -1.58598 0
M  V30 36361 H 3562.85 -4.61449 -3.9389 0
M  V30 36362 H 3561.59 -3.44794 -3.44918 0
M  V30 36363 H 3560.59 -5.15789 -1.90371 0
M  V30 36364 H 3561.82 -6.34466 -2.42136 0
M  V30 36365 H 3559.76 -5.01493 -4.22896 0
M  V30 36366 H 3559.68 -6.63606 -3.62165 0
M  V30 36367 H 3560.95 -6.19803 -4.72721 0
M  V30 36368 N 3565.18 0.234767 -1.55842 0
M  V30 36369 C 3566.09 1.31208 -1.94478 0
M  V30 36370 C 3567.1 1.52004 -0.846809 0
M  V30 36371 O 3568.28 1.65391 -1.14925 0
M  V30 36372 C 3565.34 2.64438 -2.24218 0
M  V30 36373 C 3564.41 2.52059 -3.47512 0
M  V30 36374 C 3563.64 3.78935 -3.75824 0
M  V30 36375 O 3563.86 4.81363 -3.06016 0
M  V30 36376 O 3562.8 3.7684 -4.69335 0
M  V30 36377 H 3566.62 1.01429 -2.86262 0
M  V30 36378 H 3564.21 0.436538 -1.4288 0
M  V30 36379 H 3566.09 3.43146 -2.446 0
M  V30 36380 H 3564.76 2.93924 -1.3561 0
M  V30 36381 H 3563.67 1.71596 -3.32424 0
M  V30 36382 H 3565 2.27515 -4.36461 0
M  V30 36383 N 3566.66 1.49427 0.500936 0
M  V30 36384 C 3567.9 1.58917 1.25506 0
M  V30 36385 C 3568.23 0.275902 1.92533 0
M  V30 36386 O 3567.49 -0.73618 1.81325 0
M  V30 36387 C 3567.78 2.69762 2.34443 0
M  V30 36388 C 3567.45 4.11257 1.84873 0
M  V30 36389 C 3566.11 4.49764 1.71073 0
M  V30 36390 C 3568.46 4.99813 1.47771 0
M  V30 36391 C 3565.79 5.74598 1.18551 0
M  V30 36392 C 3568.14 6.25165 0.967008 0
M  V30 36393 C 3566.81 6.62501 0.815407 0
M  V30 36394 H 3566.08 0.581518 0.459258 0
M  V30 36395 H 3568.73 1.83257 0.555785 0
M  V30 36396 H 3567.03 2.39393 3.10159 0
M  V30 36397 H 3568.73 2.74313 2.92495 0
M  V30 36398 H 3565.32 3.80863 1.96573 0
M  V30 36399 H 3569.5 4.70719 1.5728 0
M  V30 36400 H 3564.76 6.02225 1.05525 0
M  V30 36401 H 3568.93 6.93162 0.670735 0
M  V30 36402 H 3566.56 7.59114 0.406241 0
M  V30 36403 N 3568.13 -0.751987 1.38502 0
M  V30 36404 C 3569.38 -1.51339 1.34997 0
M  V30 36405 C 3569.71 -1.94109 -0.0594383 0
M  V30 36406 O 3568.99 -1.6555 -1.02095 0
M  V30 36407 C 3569.27 -2.76487 2.3071 0
M  V30 36408 C 3569.12 -2.39844 3.80519 0
M  V30 36409 C 3570.44 -3.78517 2.24528 0
M  V30 36410 H 3567.56 -0.549003 0.491696 0
M  V30 36411 H 3570.2 -0.861175 1.69363 0
M  V30 36412 H 3568.35 -3.32139 2.01534 0
M  V30 36413 H 3570.03 -1.89955 4.20375 0
M  V30 36414 H 3568.27 -1.72283 3.98122 0
M  V30 36415 H 3568.94 -3.2939 4.42952 0
M  V30 36416 H 3571.42 -3.32408 2.50288 0
M  V30 36417 H 3570.29 -4.63774 2.93606 0
M  V30 36418 H 3570.55 -4.24218 1.24465 0
M  V30 36419 N 3569.61 -1.23398 -0.980343 0
M  V30 36420 C 3570.84 -1.09279 -1.75687 0
M  V30 36421 C 3571.25 0.355741 -1.85418 0
M  V30 36422 O 3570.61 1.24607 -1.3334 0
M  V30 36423 C 3570.66 -1.71229 -3.18375 0
M  V30 36424 O 3570.38 -3.10417 -3.09149 0
M  V30 36425 C 3571.88 -1.62552 -4.12422 0
M  V30 36426 H 3569.1 -0.382436 -0.551347 0
M  V30 36427 H 3571.65 -1.6325 -1.23166 0
M  V30 36428 H 3569.8 -1.21291 -3.67923 0
M  V30 36429 H 3570.22 -3.40471 -3.98974 0
M  V30 36430 H 3571.69 -2.10601 -5.10246 0
M  V30 36431 H 3572.17 -0.584352 -4.35295 0
M  V30 36432 H 3572.77 -2.11856 -3.68778 0
M  V30 36433 N 3571.09 1.17911 -1.04569 0
M  V30 36434 C 3572.31 1.92489 -0.772179 0
M  V30 36435 C 3572.74 1.75943 0.665266 0
M  V30 36436 O 3572.1 1.07294 1.46142 0
M  V30 36437 C 3572.15 3.4178 -1.14972 0
M  V30 36438 O 3571.25 4.11461 -0.278163 0
M  V30 36439 H 3570.59 0.60033 -0.283725 0
M  V30 36440 H 3573.12 1.49494 -1.39688 0
M  V30 36441 H 3573.13 3.92503 -1.1138 0
M  V30 36442 H 3571.81 3.53144 -2.19686 0
M  V30 36443 H 3570.38 3.71018 -0.374138 0
M  V30 36444 N 3572.57 0.825847 1.34229 0
M  V30 36445 C 3573.53 0.25516 2.27775 0
M  V30 36446 C 3574.53 -0.568627 1.5041 0
M  V30 36447 O 3575.72 -0.384307 1.69908 0
M  V30 36448 C 3572.85 -0.641954 3.34801 0
M  V30 36449 H 3574.05 1.08045 2.79761 0
M  V30 36450 H 3571.6 0.59793 1.44411 0
M  V30 36451 H 3572.33 -1.49019 2.88035 0
M  V30 36452 H 3572.12 -0.0527067 3.92065 0
M  V30 36453 H 3573.61 -1.03495 4.04572 0
M  V30 36454 N 3574.05 -1.46497 0.581077 0
M  V30 36455 C 3575.46 -1.86063 0.154065 0
M  V30 36456 C 3575.81 -1.48485 -1.28244 0
M  V30 36457 O 3574.93 -0.89898 -1.96843 0
M  V30 36458 C 3575.53 -3.377 0.272824 0
M  V30 36459 C 3574.09 -3.76269 -0.0993062 0
M  V30 36460 C 3573.23 -2.70518 0.609517 0
M  V30 36461 H 3576.18 -1.37674 0.789394 0
M  V30 36462 H 3576.21 -3.77171 -0.502259 0
M  V30 36463 H 3575.72 -3.65019 1.31843 0
M  V30 36464 H 3573.82 -3.54567 -1.14511 0
M  V30 36465 H 3573.93 -4.78305 0.275875 0
M  V30 36466 H 3572.3 -2.54651 0.0499531 0
M  V30 36467 H 3573.08 -3.00677 1.65674 0
M  V30 36468 N 3575.52 -0.31877 -1.54343 0
M  V30 36469 C 3576.47 0.549357 -2.24167 0
M  V30 36470 C 3577.44 1.11548 -1.2307 0
M  V30 36471 O 3578.63 1.15671 -1.51739 0
M  V30 36472 C 3575.77 1.70673 -2.99941 0
M  V30 36473 C 3574.88 1.1703 -4.15846 0
M  V30 36474 C 3574.01 2.29297 -4.79162 0
M  V30 36475 C 3573.05 1.72878 -5.8718 0
M  V30 36476 N 3572.19 2.78788 -6.44377 0
M  V30 36477 H 3577.03 -0.0526542 -2.97953 0
M  V30 36478 H 3574.57 -0.0377566 -1.47052 0
M  V30 36479 H 3576.52 2.38771 -3.42117 0
M  V30 36480 H 3575.15 2.2801 -2.28498 0
M  V30 36481 H 3574.21 0.381015 -3.78487 0
M  V30 36482 H 3575.52 0.717421 -4.93614 0
M  V30 36483 H 3574.67 3.05308 -5.24282 0
M  V30 36484 H 3573.41 2.77918 -4.00765 0
M  V30 36485 H 3572.42 0.953618 -5.41467 0
M  V30 36486 H 3573.64 1.25138 -6.67471 0
M  V30 36487 H 3571.59 3.2671 -5.68855 0
M  V30 36488 H 3571.5 2.38049 -7.17543 0
M  V30 36489 H 3572.77 3.54643 -6.94153 0
M  V30 36490 N 3577 1.5753 -0.0468419 0
M  V30 36491 C 3578.41 1.80169 0.489478 0
M  V30 36492 C 3578.76 0.958699 1.71182 0
M  V30 36493 O 3577.89 0.174063 2.15699 0
M  V30 36494 C 3578.48 3.26771 0.89478 0
M  V30 36495 C 3577.04 3.50343 1.37611 0
M  V30 36496 C 3576.19 2.75092 0.349227 0
M  V30 36497 H 3579.14 1.56339 -0.272756 0
M  V30 36498 H 3579.16 3.37453 1.75799 0
M  V30 36499 H 3578.67 3.881 0.00494275 0
M  V30 36500 H 3576.77 2.94289 2.28528 0
M  V30 36501 H 3576.89 4.59057 1.37125 0
M  V30 36502 H 3575.25 2.41099 0.821176 0
M  V30 36503 H 3576.03 3.39146 -0.532451 0
M  V30 36504 N 3578.48 -0.226499 1.55964 0
M  V30 36505 C 3579.71 -0.972814 1.8317 0
M  V30 36506 C 3580.13 -1.77359 0.626543 0
M  V30 36507 O 3579.49 -1.76257 -0.424649 0
M  V30 36508 C 3579.54 -1.87009 3.08318 0
M  V30 36509 O 3578.64 -2.96474 2.86665 0
M  V30 36510 H 3577.98 -0.275726 0.604046 0
M  V30 36511 H 3580.51 -0.24131 2.03172 0
M  V30 36512 H 3580.52 -2.28085 3.38292 0
M  V30 36513 H 3579.2 -1.28148 3.95665 0
M  V30 36514 H 3577.77 -2.59379 2.67912 0
M  V30 36515 N 3579.96 -1.4969 -0.493005 0
M  V30 36516 C 3581.24 -1.50086 -1.25434 0
M  V30 36517 C 3581.62 -0.233075 -2.09809 0
M  V30 36518 O 3580.96 0.784304 -2.14618 0
M  V30 36519 C 3581.17 -2.78432 -2.1042 0
M  V30 36520 C 3582.52 -3.28237 -2.69343 0
M  V30 36521 O 3583.55 -2.79604 -2.20681 0
M  V30 36522 O 3582.4 -4.12959 -3.57949 0
M  V30 36523 H 3579.5 -0.601054 -0.568034 0
M  V30 36524 H 3582.04 -1.61961 -0.50662 0
M  V30 36525 H 3580.82 -3.6219 -1.48102 0
M  V30 36526 H 3580.44 -2.69455 -2.92369 0
M  V30 36527 N 3581.44 0.744631 -1.38899 0
M  V30 36528 C 3582.37 1.87193 -1.39575 0
M  V30 36529 C 3583.35 1.68095 -0.260402 0
M  V30 36530 O 3584.53 1.88555 -0.464809 0
M  V30 36531 C 3581.66 3.2483 -1.22895 0
M  V30 36532 C 3580.62 3.58546 -2.33727 0
M  V30 36533 C 3579.94 4.95017 -2.02145 0
M  V30 36534 C 3581.24 3.62504 -3.76016 0
M  V30 36535 H 3582.94 1.86885 -2.33911 0
M  V30 36536 H 3580.48 0.89772 -1.12592 0
M  V30 36537 H 3582.44 4.03356 -1.2199 0
M  V30 36538 H 3581.16 3.2564 -0.25023 0
M  V30 36539 H 3579.82 2.82344 -2.33833 0
M  V30 36540 H 3579.47 4.92397 -1.02735 0
M  V30 36541 H 3579.17 5.18544 -2.7638 0
M  V30 36542 H 3580.69 5.75912 -2.02874 0
M  V30 36543 H 3582.1 4.31127 -3.77892 0
M  V30 36544 H 3580.5 3.97545 -4.49531 0
M  V30 36545 H 3581.57 2.62526 -4.07686 0
M  V30 36546 N 3582.91 1.23916 0.973785 0
M  V30 36547 C 3584.14 1.10049 1.74851 0
M  V30 36548 C 3584.55 -0.350355 1.85928 0
M  V30 36549 O 3583.9 -1.25385 1.34254 0
M  V30 36550 C 3583.96 1.65929 3.18916 0
M  V30 36551 C 3583.62 3.14754 3.31329 0
M  V30 36552 C 3584.62 4.11973 3.17134 0
M  V30 36553 C 3582.3 3.54593 3.55765 0
M  V30 36554 C 3584.3 5.47015 3.2719 0
M  V30 36555 C 3581.98 4.89778 3.6546 0
M  V30 36556 C 3582.98 5.85798 3.51183 0
M  V30 36557 O 3582.67 7.18526 3.60522 0
M  V30 36558 H 3582.4 0.385455 0.555338 0
M  V30 36559 H 3584.96 1.64376 1.23166 0
M  V30 36560 H 3583.19 1.0603 3.7188 0
M  V30 36561 H 3584.88 1.47441 3.78175 0
M  V30 36562 H 3585.64 3.82536 2.98146 0
M  V30 36563 H 3581.52 2.80364 3.65946 0
M  V30 36564 H 3585.06 6.21943 3.15963 0
M  V30 36565 H 3580.96 5.18888 3.8396 0
M  V30 36566 H 3581.73 7.26365 3.77275 0
M  V30 36567 N 3584.39 -1.17355 1.05193 0
M  V30 36568 C 3585.62 -1.91258 0.781272 0
M  V30 36569 C 3586.03 -1.77059 -0.666849 0
M  V30 36570 O 3585.37 -1.10528 -1.46728 0
M  V30 36571 C 3585.44 -3.42821 1.08231 0
M  V30 36572 C 3585.1 -3.80803 2.52662 0
M  V30 36573 C 3586.1 -3.83648 3.50871 0
M  V30 36574 C 3583.78 -4.11765 2.87671 0
M  V30 36575 C 3585.78 -4.16923 4.82135 0
M  V30 36576 C 3583.46 -4.4471 4.19138 0
M  V30 36577 C 3584.46 -4.47267 5.1618 0
M  V30 36578 O 3584.15 -4.79435 6.45288 0
M  V30 36579 H 3583.88 -0.613668 0.283527 0
M  V30 36580 H 3586.43 -1.49755 1.40579 0
M  V30 36581 H 3584.66 -3.84618 0.400691 0
M  V30 36582 H 3586.35 -3.97985 0.797663 0
M  V30 36583 H 3587.12 -3.59852 3.25164 0
M  V30 36584 H 3583 -4.08946 2.128 0
M  V30 36585 H 3586.54 -4.18834 5.57874 0
M  V30 36586 H 3582.44 -4.67969 4.44607 0
M  V30 36587 H 3583.21 -4.97292 6.5011 0
M  V30 36588 N 3585.87 -0.832954 -1.3379 0
M  V30 36589 C 3586.78 -0.264209 -2.33107 0
M  V30 36590 C 3587.8 0.606666 -1.63081 0
M  V30 36591 O 3588.97 0.51219 -1.94778 0
M  V30 36592 C 3586.04 0.556255 -3.42209 0
M  V30 36593 C 3585.1 -0.338198 -4.27966 0
M  V30 36594 C 3584.33 0.443203 -5.31857 0
M  V30 36595 O 3584.55 1.6755 -5.45237 0
M  V30 36596 O 3583.49 -0.179705 -6.01632 0
M  V30 36597 H 3587.31 -1.0865 -2.836 0
M  V30 36598 H 3584.9 -0.595331 -1.37026 0
M  V30 36599 H 3586.78 1.0227 -4.08802 0
M  V30 36600 H 3585.46 1.3557 -2.93943 0
M  V30 36601 H 3584.36 -0.852357 -3.6426 0
M  V30 36602 H 3585.7 -1.10226 -4.79699 0
M  V30 36603 N 3587.35 1.46186 -0.588837 0
M  V30 36604 C 3588.76 1.85979 -0.16393 0
M  V30 36605 C 3589.11 1.49163 1.27455 0
M  V30 36606 O 3588.24 0.909406 1.96364 0
M  V30 36607 C 3588.83 3.3755 -0.290729 0
M  V30 36608 C 3587.39 3.76316 0.0793504 0
M  V30 36609 C 3586.54 2.70191 -0.623855 0
M  V30 36610 H 3589.49 1.37254 -0.796684 0
M  V30 36611 H 3589.51 3.77432 0.48225 0
M  V30 36612 H 3589.02 3.64315 -1.33777 0
M  V30 36613 H 3587.12 3.5517 1.12629 0
M  V30 36614 H 3587.23 4.78152 -0.301237 0
M  V30 36615 H 3585.6 2.54621 -0.0634571 0
M  V30 36616 H 3586.38 2.99795 -1.67267 0
M  V30 36617 N 3588.83 0.32695 1.54171 0
M  V30 36618 C 3590.05 -0.279195 2.05512 0
M  V30 36619 C 3590.48 -1.44739 1.20134 0
M  V30 36620 O 3589.83 -1.80065 0.211223 0
M  V30 36621 C 3589.88 -0.6882 3.53972 0
M  V30 36622 O 3588.99 -1.79018 3.71519 0
M  V30 36623 H 3588.33 -0.049771 0.662132 0
M  V30 36624 H 3590.86 0.476344 1.98978 0
M  V30 36625 H 3590.87 -0.969932 3.96303 0
M  V30 36626 H 3589.54 0.166205 4.15568 0
M  V30 36627 H 3588.12 -1.507 3.41092 0
M  V30 36628 N 3590.3 -1.57503 0.0551955 0
M  V30 36629 C 3591.55 -1.92468 -0.616466 0
M  V30 36630 C 3591.87 -0.934582 -1.71145 0
M  V30 36631 O 3591.14 0.0199305 -1.9589 0
M  V30 36632 H 3589.72 -0.710483 -0.230701 0
M  V30 36633 H 3592.39 -1.94594 0.109145 0
M  V30 36634 H 3591.48 -2.93818 -1.05249 0
M  V30 36635 N 3591.78 0.218225 -1.56082 0
M  V30 36636 C 3592.69 1.29138 -1.95859 0
M  V30 36637 C 3593.71 1.51097 -0.862883 0
M  V30 36638 O 3594.88 1.64163 -1.16673 0
M  V30 36639 C 3591.95 2.62045 -2.2701 0
M  V30 36640 C 3591.01 2.48359 -3.50166 0
M  V30 36641 C 3590.24 3.74928 -3.79822 0
M  V30 36642 O 3590.47 4.78091 -3.11104 0
M  V30 36643 O 3589.4 3.71841 -4.73306 0
M  V30 36644 H 3593.23 0.983872 -2.87322 0
M  V30 36645 H 3590.81 0.421359 -1.43335 0
M  V30 36646 H 3592.69 3.40532 -2.48226 0
M  V30 36647 H 3591.37 2.92469 -1.3872 0
M  V30 36648 H 3590.28 1.68061 -3.34225 0
M  V30 36649 H 3591.61 2.22873 -4.38849 0
M  V30 36650 N 3593.26 1.4995 0.485059 0
M  V30 36651 C 3594.51 1.59923 1.23569 0
M  V30 36652 C 3594.83 0.295142 1.92754 0
M  V30 36653 O 3594.1 -0.68655 1.83476 0
M  V30 36654 H 3592.68 0.589272 0.459094 0
M  V30 36655 H 3595.34 1.86658 0.560789 0
M  V30 36656 H 3594.44 2.40336 1.9911 0
M  V30 36657 N 3594.74 -0.737255 1.39292 0
M  V30 36658 C 3595.96 -1.53159 1.39847 0
M  V30 36659 C 3596.39 -1.88099 -0.0056524 0
M  V30 36660 O 3595.75 -1.51749 -0.992058 0
M  V30 36661 C 3595.8 -2.79712 2.27582 0
M  V30 36662 O 3594.9 -3.75543 1.70415 0
M  V30 36663 H 3594.24 -0.462616 0.476322 0
M  V30 36664 H 3596.77 -0.909787 1.83259 0
M  V30 36665 H 3596.78 -3.2847 2.42015 0
M  V30 36666 H 3595.46 -2.53614 3.29626 0
M  V30 36667 H 3594.03 -3.34304 1.65212 0
M  V30 36668 N 3596.22 -1.24431 -0.967199 0
M  V30 36669 C 3597.47 -1.08216 -1.70686 0
M  V30 36670 C 3597.79 0.379659 -1.91268 0
M  V30 36671 O 3597.06 1.27091 -1.49079 0
M  V30 36672 H 3595.64 -0.397461 -0.632482 0
M  V30 36673 H 3598.3 -1.56358 -1.16354 0
M  V30 36674 H 3597.39 -1.5806 -2.69116 0
M  V30 36675 N 3597.7 1.16795 -1.05814 0
M  V30 36676 C 3598.61 2.24662 -0.675581 0
M  V30 36677 C 3599.62 1.71285 0.30619 0
M  V30 36678 O 3600.8 2.00789 0.156717 0
M  V30 36679 C 3597.86 3.46643 -0.0627758 0
M  V30 36680 C 3596.92 4.15079 -1.09579 0
M  V30 36681 C 3596.16 5.31237 -0.512137 0
M  V30 36682 O 3596.38 5.66373 0.676565 0
M  V30 36683 O 3595.31 5.88789 -1.24947 0
M  V30 36684 H 3599.14 2.59685 -1.57472 0
M  V30 36685 H 3596.72 1.24217 -0.830095 0
M  V30 36686 H 3598.61 4.20486 0.277469 0
M  V30 36687 H 3597.28 3.13404 0.809915 0
M  V30 36688 H 3596.19 3.43228 -1.48814 0
M  V30 36689 H 3597.52 4.52361 -1.93985 0
M  V30 36690 N 3599.17 0.840037 1.33346 0
M  V30 36691 C 3600.42 0.436955 1.98037 0
M  V30 36692 C 3600.75 -1.00151 1.66383 0
M  V30 36693 O 3600.03 -1.70037 0.944341 0
M  V30 36694 C 3600.31 0.659432 3.54011 0
M  V30 36695 C 3600.16 2.14525 3.95347 0
M  V30 36696 C 3601.48 0.106335 4.39972 0
M  V30 36697 H 3598.6 0.160234 0.719371 0
M  V30 36698 H 3601.24 1.05577 1.57967 0
M  V30 36699 H 3599.39 0.132701 3.88273 0
M  V30 36700 H 3601.07 2.73694 3.71335 0
M  V30 36701 H 3599.31 2.62932 3.45035 0
M  V30 36702 H 3599.98 2.25166 5.03988 0
M  V30 36703 H 3602.46 0.556583 4.12361 0
M  V30 36704 H 3601.33 0.29168 5.48124 0
M  V30 36705 H 3601.59 -0.989956 4.30874 0
M  V30 36706 N 3600.65 -1.45872 0.596582 0
M  V30 36707 C 3601.93 -1.9559 0.0199906 0
M  V30 36708 C 3602.31 -1.53915 -1.44477 0
M  V30 36709 O 3601.66 -0.796422 -2.14171 0
M  V30 36710 C 3601.87 -3.48388 0.206558 0
M  V30 36711 C 3603.21 -4.24522 0.0816044 0
M  V30 36712 O 3604.24 -3.5594 0.136108 0
M  V30 36713 O 3603.1 -5.46483 -0.0425156 0
M  V30 36714 H 3600.19 -0.825934 -0.0419768 0
M  V30 36715 H 3602.74 -1.5609 0.665873 0
M  V30 36716 H 3601.51 -3.71654 1.22429 0
M  V30 36717 H 3601.13 -3.94751 -0.475106 0
M  V30 36718 N 3602.13 -0.335122 -1.53996 0
M  V30 36719 C 3603.38 0.264918 -1.99953 0
M  V30 36720 C 3603.69 1.5233 -1.22699 0
M  V30 36721 O 3604.9 2.20006 -1.5909 0
M  V30 36722 C 3603.35 0.522604 -3.56085 0
M  V30 36723 C 3602.96 -0.719391 -4.42186 0
M  V30 36724 C 3604.71 1.08196 -4.1048 0
M  V30 36725 C 3602.61 -0.43297 -5.89813 0
M  V30 36726 H 3601.54 0.102769 -0.746964 0
M  V30 36727 H 3604.19 -0.449143 -1.77918 0
M  V30 36728 H 3602.58 1.29715 -3.74152 0
M  V30 36729 H 3603.75 -1.4944 -4.35895 0
M  V30 36730 H 3602.06 -1.19979 -3.98741 0
M  V30 36731 H 3604.66 1.31107 -5.18377 0
M  V30 36732 H 3605 2.03491 -3.63176 0
M  V30 36733 H 3605.54 0.368325 -3.96091 0
M  V30 36734 H 3602.28 -1.3554 -6.41334 0
M  V30 36735 H 3601.8 0.304108 -5.99029 0
M  V30 36736 H 3603.48 -0.0470794 -6.46983 0
M  V30 36737 N 3603.61 1.57472 -0.0635475 0
M  V30 36738 C 3604.85 1.9346 0.60835 0
M  V30 36739 C 3605.19 0.943171 1.69758 0
M  V30 36740 O 3604.46 -0.0289225 1.94478 0
M  V30 36741 C 3604.74 3.39765 1.19296 0
M  V30 36742 C 3604.6 4.49663 0.110941 0
M  V30 36743 C 3605.92 3.86715 2.10094 0
M  V30 36744 H 3603.04 0.7035 0.219675 0
M  V30 36745 H 3605.68 1.89569 -0.127836 0
M  V30 36746 H 3603.83 3.43212 1.82038 0
M  V30 36747 H 3605.5 4.58341 -0.521686 0
M  V30 36748 H 3603.74 4.30177 -0.559484 0
M  V30 36749 H 3604.41 5.4915 0.560236 0
M  V30 36750 H 3606.89 3.85223 1.57298 0
M  V30 36751 H 3605.77 4.89713 2.47937 0
M  V30 36752 H 3606.03 3.24182 3.00597 0
M  V30 36753 N 3605.09 -0.209945 1.56195 0
M  V30 36754 C 3606.36 -0.957623 1.70555 0
M  V30 36755 C 3606.74 -2.0197 0.614127 0
M  V30 36756 O 3606.09 -2.25366 -0.377152 0
M  V30 36757 C 3606.3 -1.55754 3.12317 0
M  V30 36758 C 3607.65 -2.04536 3.72089 0
M  V30 36759 O 3608.67 -1.65625 3.15352 0
M  V30 36760 O 3607.53 -2.7609 4.71632 0
M  V30 36761 H 3604.63 -0.448092 0.695085 0
M  V30 36762 H 3607.17 -0.200811 1.68508 0
M  V30 36763 H 3605.94 -0.791235 3.83217 0
M  V30 36764 H 3605.57 -2.37958 3.1853 0
M  V30 36765 N 3606.56 -1.50205 -0.4771 0
M  V30 36766 C 3607.79 -1.64912 -1.25772 0
M  V30 36767 C 3608.21 -0.329798 -1.85186 0
M  V30 36768 O 3607.57 0.705611 -1.67005 0
M  V30 36769 C 3607.62 -2.73805 -2.34656 0
M  V30 36770 O 3606.72 -2.3464 -3.39143 0
M  V30 36771 H 3606.06 -0.55117 -0.370281 0
M  V30 36772 H 3608.59 -1.96544 -0.568479 0
M  V30 36773 H 3608.6 -2.967 -2.80059 0
M  V30 36774 H 3607.28 -3.69561 -1.90782 0
M  V30 36775 H 3605.86 -2.22168 -2.99493 0
M  V30 36776 N 3608.04 0.729857 -1.39681 0
M  V30 36777 C 3609.29 1.48952 -1.37185 0
M  V30 36778 C 3609.62 1.94476 0.0305386 0
M  V30 36779 O 3608.87 1.6748 1.01237 0
M  V30 36780 C 3609.17 2.73976 -2.29504 0
M  V30 36781 C 3608.84 2.47292 -3.77038 0
M  V30 36782 C 3607.5 2.39724 -4.17236 0
M  V30 36783 C 3609.85 2.24589 -4.70329 0
M  V30 36784 C 3607.18 2.07502 -5.4878 0
M  V30 36785 C 3609.53 1.93882 -6.02156 0
M  V30 36786 C 3608.2 1.84787 -6.41413 0
M  V30 36787 H 3607.47 0.545053 -0.501995 0
M  V30 36788 H 3610.11 0.837264 -1.72227 0
M  V30 36789 H 3608.42 3.43969 -1.87598 0
M  V30 36790 H 3610.11 3.3202 -2.24863 0
M  V30 36791 H 3606.7 2.54063 -3.45181 0
M  V30 36792 H 3610.89 2.294 -4.40101 0
M  V30 36793 H 3606.14 1.98986 -5.78113 0
M  V30 36794 H 3610.32 1.75325 -6.73969 0
M  V30 36795 H 3607.95 1.59585 -7.43261 0
M  V30 36796 N 3609.52 1.24942 0.960587 0
M  V30 36797 C 3610.47 1.01497 2.04163 0
M  V30 36798 C 3611.45 -0.0460842 1.60834 0
M  V30 36799 O 3612.65 0.168522 1.76196 0
M  V30 36800 C 3609.78 0.62931 3.37483 0
M  V30 36801 C 3608.86 1.72681 3.87353 0
M  V30 36802 N 3609.25 2.96088 4.1008 0
M  V30 36803 C 3607.55 1.60596 4.16083 0
M  V30 36804 C 3608.25 3.67284 4.51085 0
M  V30 36805 N 3607.23 2.94878 4.56671 0
M  V30 36806 H 3611.03 1.95193 2.1972 0
M  V30 36807 H 3608.54 1.15173 1.14494 0
M  V30 36808 H 3610.54 0.442557 4.14544 0
M  V30 36809 H 3609.2 -0.300389 3.23308 0
M  V30 36810 H 3610.21 3.32194 3.97325 0
M  V30 36811 H 3606.89 0.744797 4.10803 0
M  V30 36812 H 3608.28 4.7318 4.77022 0
M  V30 36813 N 3611 -1.16233 1.06432 0
M  V30 36814 C 3612.23 -1.90695 0.802677 0
M  V30 36815 C 3612.64 -1.77509 -0.643113 0
M  V30 36816 O 3612 -1.12068 -1.44038 0
M  V30 36817 C 3612.05 -3.41355 1.1899 0
M  V30 36818 O 3611.77 -3.54149 2.57896 0
M  V30 36819 C 3613.27 -4.32864 0.956208 0
M  V30 36820 H 3610.49 -0.604663 0.290901 0
M  V30 36821 H 3613.04 -1.47323 1.41832 0
M  V30 36822 H 3611.19 -3.82426 0.61877 0
M  V30 36823 H 3611.6 -4.47584 2.73439 0
M  V30 36824 H 3613.08 -5.37031 1.27676 0
M  V30 36825 H 3613.56 -4.39067 -0.107984 0
M  V30 36826 H 3614.16 -3.97524 1.51179 0
M  V30 36827 N 3612.48 -0.847097 -1.32899 0
M  V30 36828 C 3613.7 -0.459623 -2.02243 0
M  V30 36829 C 3614.13 0.933869 -1.6328 0
M  V30 36830 O 3613.48 1.61207 -0.82958 0
M  V30 36831 C 3613.53 -0.597512 -3.55615 0
M  V30 36832 O 3612.64 0.372847 -4.10711 0
M  V30 36833 H 3611.98 -0.185712 -0.637501 0
M  V30 36834 H 3614.51 -1.1442 -1.69615 0
M  V30 36835 H 3614.52 -0.482217 -4.0514 0
M  V30 36836 H 3613.19 -1.61372 -3.83317 0
M  V30 36837 H 3611.77 0.214421 -3.72283 0
M  V30 36838 N 3613.95 1.45554 -0.604309 0
M  V30 36839 C 3614.92 2.28953 0.106486 0
M  V30 36840 C 3615.92 1.39587 0.798253 0
M  V30 36841 O 3617.11 1.61743 0.646914 0
M  V30 36842 C 3614.24 3.20526 1.16085 0
M  V30 36843 H 3615.43 2.93279 -0.626707 0
M  V30 36844 H 3612.99 1.52021 -0.363209 0
M  V30 36845 H 3613.72 2.60993 1.92492 0
M  V30 36846 H 3613.51 3.86349 0.669069 0
M  V30 36847 H 3615 3.83243 1.65876 0
M  V30 36848 N 3615.43 0.343284 1.53816 0
M  V30 36849 C 3616.66 -0.254708 2.05326 0
M  V30 36850 C 3617.08 -1.44235 1.21827 0
M  V30 36851 O 3616.43 -1.8073 0.253539 0
M  V30 36852 C 3616.48 -0.670012 3.55237 0
M  V30 36853 O 3616.2 0.470399 4.35567 0
M  V30 36854 C 3617.71 -1.32875 4.22917 0
M  V30 36855 H 3614.93 -0.0492206 0.669192 0
M  V30 36856 H 3617.47 0.495194 1.98414 0
M  V30 36857 H 3615.62 -1.36986 3.62372 0
M  V30 36858 H 3616.04 0.139395 5.24315 0
M  V30 36859 H 3617.51 -1.5701 5.29199 0
M  V30 36860 H 3617.99 -2.28222 3.75248 0
M  V30 36861 H 3618.6 -0.670946 4.19974 0
M  V30 36862 N 3616.91 -1.57436 0.0718977 0
M  V30 36863 C 3618.14 -1.9782 -0.606218 0
M  V30 36864 C 3618.55 -0.950261 -1.63142 0
M  V30 36865 O 3617.91 0.063073 -1.82391 0
M  V30 36866 C 3617.96 -3.3828 -1.2747 0
M  V30 36867 O 3617.68 -4.37136 -0.290526 0
M  V30 36868 C 3619.18 -3.93539 -2.04063 0
M  V30 36869 H 3616.4 -0.650576 -0.164294 0
M  V30 36870 H 3618.95 -2.0399 0.144331 0
M  V30 36871 H 3617.1 -3.33196 -1.97634 0
M  V30 36872 H 3617.52 -5.18815 -0.770129 0
M  V30 36873 H 3618.99 -4.9404 -2.46228 0
M  V30 36874 H 3619.47 -3.30088 -2.89722 0
M  V30 36875 H 3620.07 -4.02025 -1.38766 0
M  V30 36876 N 3618.39 0.201658 -1.56305 0
M  V30 36877 C 3619.32 1.27386 -1.9054 0
M  V30 36878 C 3620.33 1.42044 -0.795447 0
M  V30 36879 O 3621.52 1.42587 -1.07384 0
M  V30 36880 C 3618.62 2.6469 -2.11642 0
M  V30 36881 C 3617.8 2.71725 -3.4276 0
M  V30 36882 C 3616.85 3.90179 -3.53054 0
M  V30 36883 O 3615.88 3.77588 -4.2593 0
M  V30 36884 N 3617.08 5.05351 -2.85658 0
M  V30 36885 H 3619.85 0.983361 -2.83108 0
M  V30 36886 H 3617.41 0.391611 -1.57092 0
M  V30 36887 H 3619.4 3.42348 -2.15824 0
M  V30 36888 H 3617.97 2.86255 -1.25605 0
M  V30 36889 H 3617.19 1.80391 -3.50504 0
M  V30 36890 H 3618.48 2.7341 -4.29097 0
M  V30 36891 H 3617.88 5.18479 -2.26266 0
M  V30 36892 H 3616.43 5.8098 -2.95475 0
M  V30 36893 N 3619.87 1.50456 0.469128 0
M  V30 36894 C 3620.83 1.68909 1.54927 0
M  V30 36895 C 3621.83 0.559747 1.50743 0
M  V30 36896 O 3623.02 0.826808 1.53328 0
M  V30 36897 C 3620.15 1.71614 2.94553 0
M  V30 36898 H 3621.34 2.65279 1.39883 0
M  V30 36899 H 3618.9 1.39966 0.695643 0
M  V30 36900 H 3619.63 0.769437 3.1504 0
M  V30 36901 H 3619.42 2.53659 2.98997 0
M  V30 36902 H 3620.91 1.87838 3.7297 0
M  V30 36903 N 3621.34 -0.722439 1.40066 0
M  V30 36904 C 3622.57 -1.5116 1.41273 0
M  V30 36905 C 3622.99 -1.88797 0.0105756 0
M  V30 36906 O 3622.34 -1.54972 -0.96384 0
M  V30 36907 C 3622.4 -2.79127 2.29718 0
M  V30 36908 O 3622.12 -2.43084 3.64475 0
M  V30 36909 C 3623.62 -3.73071 2.39443 0
M  V30 36910 H 3620.84 -0.466719 0.482094 0
M  V30 36911 H 3623.38 -0.891704 1.84035 0
M  V30 36912 H 3621.54 -3.37418 1.90336 0
M  V30 36913 H 3621.95 -3.25376 4.11377 0
M  V30 36914 H 3623.42 -4.5972 3.05551 0
M  V30 36915 H 3623.9 -4.157 1.41738 0
M  V30 36916 H 3624.51 -3.20694 2.79348 0
M  V30 36917 N 3622.82 -1.2545 -0.953947 0
M  V30 36918 C 3624.24 -1.02286 -1.22514 0
M  V30 36919 C 3624.44 0.259898 -1.99817 0
M  V30 36920 O 3623.5 0.972438 -2.33023 0
M  V30 36921 C 3624.81 -2.24647 -1.99886 0
M  V30 36922 C 3626.36 -2.29415 -2.12926 0
M  V30 36923 C 3626.83 -3.51434 -2.93697 0
M  V30 36924 N 3628.32 -3.51835 -3.01275 0
M  V30 36925 C 3629.06 -4.42911 -3.64167 0
M  V30 36926 N 3628.55 -5.44261 -4.28663 0
M  V30 36927 N 3630.35 -4.30591 -3.61314 0
M  V30 36928 H 3622.5 -2.0786 -0.436823 0
M  V30 36929 H 3624.76 -0.912857 -0.255728 0
M  V30 36930 H 3624.47 -3.1788 -1.50483 0
M  V30 36931 H 3624.34 -2.27873 -3.00589 0
M  V30 36932 H 3626.73 -1.36705 -2.61526 0
M  V30 36933 H 3626.81 -2.30208 -1.11526 0
M  V30 36934 H 3626.45 -4.44467 -2.45787 0
M  V30 36935 H 3626.38 -3.47888 -3.95325 0
M  V30 36936 H 3628.87 -2.78522 -2.5541 0
M  V30 36937 H 3629.19 -6.09966 -4.74511 0
M  V30 36938 H 3627.53 -5.48132 -4.27289 0
M  V30 36939 H 3630.72 -3.5064 -3.10112 0
M  V30 36940 H 3630.9 -5.01767 -4.10042 0
M  V30 36941 N 3624.3 1.15667 -1.07047 0
M  V30 36942 C 3625.23 2.19908 -0.645984 0
M  V30 36943 C 3626.25 1.60013 0.299922 0
M  V30 36944 O 3627.44 1.78274 0.0897223 0
M  V30 36945 C 3624.54 3.38823 0.0721322 0
M  V30 36946 C 3623.71 4.28267 -0.889179 0
M  V30 36947 C 3622.77 5.25785 -0.208921 0
M  V30 36948 O 3621.79 5.62833 -0.848993 0
M  V30 36949 N 3623 5.70987 1.04661 0
M  V30 36950 H 3625.76 2.56945 -1.5427 0
M  V30 36951 H 3623.32 1.30751 -0.954759 0
M  V30 36952 H 3625.31 4.01111 0.537812 0
M  V30 36953 H 3623.88 3.00228 0.870753 0
M  V30 36954 H 3623.1 3.63126 -1.53405 0
M  V30 36955 H 3624.39 4.84901 -1.54106 0
M  V30 36956 H 3623.79 5.42994 1.58663 0
M  V30 36957 H 3622.35 6.35329 1.45602 0
M  V30 36958 N 3625.78 0.854133 1.32447 0
M  V30 36959 C 3626.69 0.301261 2.32658 0
M  V30 36960 C 3627.71 -0.580644 1.64026 0
M  V30 36961 O 3628.88 -0.481138 1.95568 0
M  V30 36962 C 3625.95 -0.501743 3.4305 0
M  V30 36963 C 3625.01 0.406241 4.27374 0
M  V30 36964 C 3624.24 -0.358534 5.32494 0
M  V30 36965 O 3624.46 -1.58855 5.47833 0
M  V30 36966 O 3623.4 0.275397 6.0127 0
M  V30 36967 H 3627.22 1.13148 2.81836 0
M  V30 36968 H 3624.81 0.617056 1.36062 0
M  V30 36969 H 3626.69 -0.957536 4.10377 0
M  V30 36970 H 3625.37 -1.30877 2.96062 0
M  V30 36971 H 3624.27 0.910199 3.62858 0
M  V30 36972 H 3625.61 1.17844 4.77885 0
M  V30 36973 N 3627.26 -1.45231 0.61202 0
M  V30 36974 C 3628.48 -2.07088 0.113654 0
M  V30 36975 C 3628.91 -1.4529 -1.19467 0
M  V30 36976 O 3628.27 -0.547238 -1.72844 0
M  V30 36977 C 3628.31 -3.60599 -0.0078364 0
M  V30 36978 O 3627.42 -3.98627 -1.0569 0
M  V30 36979 H 3626.76 -0.659627 0.0760776 0
M  V30 36980 H 3629.29 -1.86413 0.843286 0
M  V30 36981 H 3629.3 -4.07487 -0.204621 0
M  V30 36982 H 3627.97 -4.04964 0.947457 0
M  V30 36983 H 3626.55 -3.63403 -0.836227 0
M  V30 36984 N 3628.74 -0.351436 -1.53632 0
M  V30 36985 C 3629.96 0.246465 -2.0593 0
M  V30 36986 C 3630.39 1.4281 -1.22421 0
M  V30 36987 O 3629.74 1.79707 -0.239843 0
M  V30 36988 C 3629.79 0.631799 -3.55022 0
M  V30 36989 O 3628.9 1.73085 -3.7432 0
M  V30 36990 H 3628.24 0.0392307 -0.66284 0
M  V30 36991 H 3630.77 -0.507939 -1.98195 0
M  V30 36992 H 3630.78 0.906761 -3.97796 0
M  V30 36993 H 3629.45 -0.232297 -4.15251 0
M  V30 36994 H 3628.03 1.45254 -3.43447 0
M  V30 36995 N 3630.21 1.57396 -0.0802459 0
M  V30 36996 C 3631.44 1.98138 0.595719 0
M  V30 36997 C 3631.86 0.9589 1.62636 0
M  V30 36998 O 3631.21 -0.0533995 1.82422 0
M  V30 36999 C 3631.26 3.38952 1.25674 0
M  V30 37000 O 3630.99 4.37284 0.26734 0
M  V30 37001 C 3632.49 3.94616 2.01973 0
M  V30 37002 H 3629.71 0.651438 0.160841 0
M  V30 37003 H 3632.25 2.03911 -0.155147 0
M  V30 37004 H 3630.41 3.3424 1.95864 0
M  V30 37005 H 3630.82 5.19216 0.742604 0
M  V30 37006 H 3632.29 4.95339 2.43604 0
M  V30 37007 H 3632.77 3.3162 2.87967 0
M  V30 37008 H 3633.38 4.02755 1.36632 0
M  V30 37009 N 3631.69 -0.193366 1.56409 0
M  V30 37010 C 3632.92 -0.929643 1.84838 0
M  V30 37011 C 3633.33 -1.76778 0.662959 0
M  V30 37012 O 3632.69 -1.78745 -0.368307 0
M  V30 37013 C 3632.74 -1.8244 3.12087 0
M  V30 37014 O 3632.46 -1.0201 4.26058 0
M  V30 37015 C 3633.96 -2.67221 3.53706 0
M  V30 37016 H 3631.18 -0.271157 0.613771 0
M  V30 37017 H 3633.73 -0.200098 2.03519 0
M  V30 37018 H 3631.88 -2.50754 2.95298 0
M  V30 37019 H 3632.3 -1.62999 4.98529 0
M  V30 37020 H 3633.77 -3.25656 4.45704 0
M  V30 37021 H 3634.25 -3.41014 2.76777 0
M  V30 37022 H 3634.85 -2.04274 3.73031 0
M  V30 37023 N 3633.17 -1.50702 -0.461142 0
M  V30 37024 C 3634.42 -1.62189 -1.21248 0
M  V30 37025 C 3634.74 -0.326852 -1.91734 0
M  V30 37026 O 3634 0.687846 -1.83213 0
M  V30 37027 C 3634.3 -2.75883 -2.27208 0
M  V30 37028 C 3633.96 -4.16015 -1.73904 0
M  V30 37029 C 3632.63 -4.54141 -1.59089 0
M  V30 37030 C 3634.98 -5.03555 -1.34468 0
M  V30 37031 C 3632.31 -5.77539 -1.03274 0
M  V30 37032 C 3634.66 -6.27509 -0.800917 0
M  V30 37033 C 3633.32 -6.6443 -0.63947 0
M  V30 37034 H 3632.59 -0.59349 -0.443679 0
M  V30 37035 H 3635.24 -1.84667 -0.507002 0
M  V30 37036 H 3633.54 -2.47532 -3.03703 0
M  V30 37037 H 3635.24 -2.81972 -2.85119 0
M  V30 37038 H 3631.83 -3.85941 -1.86406 0
M  V30 37039 H 3636.02 -4.74724 -1.44744 0
M  V30 37040 H 3631.27 -6.04811 -0.895209 0
M  V30 37041 H 3635.45 -6.94697 -0.48672 0
M  V30 37042 H 3633.07 -7.59924 -0.204833 0
M  V30 37043 N 3634.65 0.715001 -1.40447 0
M  V30 37044 C 3635.89 1.47707 -1.38962 0
M  V30 37045 C 3636.23 1.94198 0.00795285 0
M  V30 37046 O 3635.5 1.68199 0.976702 0
M  V30 37047 C 3635.78 2.70272 -2.3796 0
M  V30 37048 C 3635.64 2.29671 -3.86744 0
M  V30 37049 C 3636.96 3.72431 -2.34485 0
M  V30 37050 H 3634.08 0.535773 -0.506079 0
M  V30 37051 H 3636.72 0.815968 -1.71587 0
M  V30 37052 H 3634.87 3.26679 -2.1027 0
M  V30 37053 H 3636.54 1.78742 -4.25263 0
M  V30 37054 H 3634.78 1.61667 -4.0255 0
M  V30 37055 H 3635.45 3.1753 -4.51529 0
M  V30 37056 H 3637.93 3.25655 -2.59013 0
M  V30 37057 H 3636.81 4.55827 -3.05799 0
M  V30 37058 H 3637.07 4.20769 -1.35668 0
M  V30 37059 N 3636.13 1.25954 0.947281 0
M  V30 37060 C 3637.35 1.14 1.73259 0
M  V30 37061 C 3637.78 -0.301607 1.85666 0
M  V30 37062 O 3637.13 -1.21851 1.34246 0
M  V30 37063 C 3637.18 1.80725 3.12043 0
M  V30 37064 O 3636.29 1.09189 3.97683 0
M  V30 37065 H 3635.63 0.397581 0.531813 0
M  V30 37066 H 3638.16 1.66658 1.18686 0
M  V30 37067 H 3638.17 1.87305 3.62465 0
M  V30 37068 H 3636.84 2.85605 3.02329 0
M  V30 37069 H 3635.42 1.10542 3.56139 0
M  V30 37070 N 3637.6 -1.15097 1.07659 0
M  V30 37071 C 3638.88 -1.82078 0.71464 0
M  V30 37072 C 3639.26 -1.9525 -0.802544 0
M  V30 37073 O 3638.61 -1.50637 -1.71816 0
M  V30 37074 C 3638.82 -3.18237 1.43269 0
M  V30 37075 C 3640.17 -3.93834 1.58682 0
M  V30 37076 O 3641.19 -3.27801 1.39372 0
M  V30 37077 O 3640.05 -5.1223 1.90479 0
M  V30 37078 H 3637.14 -0.786815 0.254659 0
M  V30 37079 H 3639.69 -1.22181 1.1777 0
M  V30 37080 H 3638.46 -3.03767 2.4666 0
M  V30 37081 H 3638.09 -3.85821 0.960614 0
M  V30 37082 N 3639.08 -0.861145 -1.31993 0
M  V30 37083 C 3640.33 -0.466789 -1.96635 0
M  V30 37084 C 3640.65 0.982299 -1.68451 0
M  V30 37085 O 3639.92 1.68739 -0.995187 0
M  V30 37086 H 3638.5 -0.169625 -0.727486 0
M  V30 37087 H 3641.16 -1.099 -1.6096 0
M  V30 37088 H 3640.26 -0.617214 -3.05936 0
M  V30 37089 N 3640.56 1.44905 -0.619713 0
M  V30 37090 C 3641.79 2.07025 -0.124635 0
M  V30 37091 C 3642.21 1.45921 1.18695 0
M  V30 37092 O 3641.57 0.556396 1.72551 0
M  V30 37093 C 3641.62 3.60598 -0.0112872 0
M  V30 37094 O 3640.72 3.99182 1.03575 0
M  V30 37095 H 3640.06 0.659215 -0.0795747 0
M  V30 37096 H 3642.59 1.85963 -0.85316 0
M  V30 37097 H 3642.6 4.07589 0.183008 0
M  V30 37098 H 3641.28 4.04456 -0.96892 0
M  V30 37099 H 3639.85 3.63841 0.816944 0
M  V30 37100 N 3642.04 0.359579 1.53443 0
M  V30 37101 C 3642.97 -0.48176 2.28476 0
M  V30 37102 C 3643.95 -1.08905 1.30666 0
M  V30 37103 O 3645.13 -1.10743 1.59529 0
M  V30 37104 C 3642.26 -1.62471 3.06953 0
M  V30 37105 C 3641.22 -1.14497 4.12401 0
M  V30 37106 C 3640.54 -2.37769 4.78926 0
M  V30 37107 C 3641.84 -0.233983 5.21776 0
M  V30 37108 H 3643.54 0.144214 2.99052 0
M  V30 37109 H 3641.08 0.0707999 1.43826 0
M  V30 37110 H 3643.04 -2.21987 3.58189 0
M  V30 37111 H 3641.76 -2.27783 2.34057 0
M  V30 37112 H 3640.42 -0.572525 3.62102 0
M  V30 37113 H 3640.07 -3.01523 4.02607 0
M  V30 37114 H 3639.77 -2.06344 5.50178 0
M  V30 37115 H 3641.29 -2.97982 5.32953 0
M  V30 37116 H 3642.71 -0.736448 5.6855 0
M  V30 37117 H 3641.1 -0.0108832 6.00099 0
M  V30 37118 H 3642.17 0.725519 4.79442 0
M  V30 37119 N 3643.52 -1.57351 0.0885919 0
M  V30 37120 C 3644.43 -2.17183 -0.887053 0
M  V30 37121 C 3645.44 -1.13951 -1.31496 0
M  V30 37122 O 3646.62 -1.46293 -1.38421 0
M  V30 37123 C 3643.68 -2.73516 -2.13049 0
M  V30 37124 C 3642.74 -3.91681 -1.7574 0
M  V30 37125 C 3641.98 -4.45318 -2.94156 0
M  V30 37126 O 3642.2 -3.9791 -4.08686 0
M  V30 37127 O 3641.13 -5.36428 -2.72999 0
M  V30 37128 H 3644.96 -3.00947 -0.40802 0
M  V30 37129 H 3642.55 -1.48785 -0.135405 0
M  V30 37130 H 3644.43 -3.0955 -2.85932 0
M  V30 37131 H 3643.1 -1.92803 -2.60017 0
M  V30 37132 H 3642.01 -3.60471 -1.00057 0
M  V30 37133 H 3643.34 -4.73738 -1.3354 0
M  V30 37134 N 3644.99 0.185069 -1.5651 0
M  V30 37135 C 3645.94 1.2293 -1.95338 0
M  V30 37136 C 3646.91 1.44711 -0.815346 0
M  V30 37137 O 3648.1 1.57679 -1.07434 0
M  V30 37138 C 3645.24 2.56677 -2.30675 0
M  V30 37139 C 3644.35 2.4239 -3.5759 0
M  V30 37140 C 3643.48 3.68909 -3.82203 0
M  V30 37141 C 3642.52 3.49498 -5.02511 0
M  V30 37142 N 3641.66 4.68053 -5.23327 0
M  V30 37143 H 3646.5 0.89118 -2.84362 0
M  V30 37144 H 3644.04 0.428665 -1.40716 0
M  V30 37145 H 3646 3.34611 -2.49182 0
M  V30 37146 H 3644.63 2.88512 -1.44778 0
M  V30 37147 H 3643.68 1.55703 -3.47075 0
M  V30 37148 H 3644.99 2.23986 -4.45681 0
M  V30 37149 H 3644.14 4.55281 -4.01004 0
M  V30 37150 H 3642.88 3.90279 -2.92462 0
M  V30 37151 H 3641.89 2.61511 -4.83624 0
M  V30 37152 H 3643.11 3.29564 -5.93771 0
M  V30 37153 H 3641.06 4.89667 -4.36535 0
M  V30 37154 H 3640.98 4.52511 -6.05616 0
M  V30 37155 H 3642.24 5.55747 -5.46594 0
M  V30 37156 N 3646.47 1.50945 0.453144 0
M  V30 37157 C 3647.42 1.675 1.54686 0
M  V30 37158 C 3648.41 0.52922 1.51948 0
M  V30 37159 O 3649.6 0.784443 1.58668 0
M  V30 37160 C 3646.73 1.78897 2.93003 0
M  V30 37161 C 3645.81 2.9921 3.00557 0
M  V30 37162 N 3646.2 4.22626 2.77886 0
M  V30 37163 C 3644.5 2.98138 3.31707 0
M  V30 37164 C 3645.2 5.03754 2.90873 0
M  V30 37165 N 3644.18 4.38074 3.21858 0
M  V30 37166 H 3647.98 2.606 1.35885 0
M  V30 37167 H 3645.5 1.48375 0.660192 0
M  V30 37168 H 3647.49 1.88865 3.71666 0
M  V30 37169 H 3646.15 0.869681 3.12836 0
M  V30 37170 H 3647.16 4.51831 2.53118 0
M  V30 37171 H 3643.84 2.15779 3.57415 0
M  V30 37172 H 3645.23 6.11948 2.77433 0
M  V30 37173 N 3647.95 -0.707543 1.40825 0
M  V30 37174 C 3649.36 -1.28701 1.35251 0
M  V30 37175 C 3649.71 -1.96177 0.0298371 0
M  V30 37176 O 3648.84 -1.98049 -0.872091 0
M  V30 37177 C 3649.43 -2.34041 2.4497 0
M  V30 37178 C 3647.99 -2.87593 2.42831 0
M  V30 37179 C 3647.14 -1.61479 2.25432 0
M  V30 37180 H 3650.09 -0.503114 1.50514 0
M  V30 37181 H 3650.11 -3.15066 2.13339 0
M  V30 37182 H 3649.62 -1.84902 3.41223 0
M  V30 37183 H 3647.72 -3.40941 1.503 0
M  V30 37184 H 3647.84 -3.38839 3.3871 0
M  V30 37185 H 3646.2 -1.86845 1.73092 0
M  V30 37186 H 3646.98 -1.14353 3.23695 0
M  V30 37187 N 3649.43 -1.26454 -0.940588 0
M  V30 37188 C 3650.34 -1.09842 -2.07297 0
M  V30 37189 C 3651.35 -0.0317783 -1.73971 0
M  V30 37190 O 3652.53 -0.23563 -2.00017 0
M  V30 37191 C 3649.6 -0.733796 -3.38846 0
M  V30 37192 C 3648.66 -1.87992 -3.8595 0
M  V30 37193 C 3647.89 -1.53259 -5.11221 0
M  V30 37194 O 3648.11 -0.434591 -5.68742 0
M  V30 37195 O 3647.05 -2.36753 -5.53382 0
M  V30 37196 H 3650.87 -2.04841 -2.24219 0
M  V30 37197 H 3648.46 -1.05522 -1.05761 0
M  V30 37198 H 3650.34 -0.543204 -4.17884 0
M  V30 37199 H 3649.01 0.186786 -3.23161 0
M  V30 37200 H 3647.92 -2.12547 -3.07854 0
M  V30 37201 H 3649.25 -2.78024 -4.06157 0
M  V30 37202 N 3650.91 1.14525 -1.08268 0
M  V30 37203 C 3652.15 1.85804 -0.812694 0
M  V30 37204 C 3652.49 1.82646 0.659846 0
M  V30 37205 O 3651.76 1.25615 1.48496 0
M  V30 37206 C 3652.04 3.34503 -1.33341 0
M  V30 37207 C 3651.9 3.46241 -2.87119 0
M  V30 37208 C 3653.22 4.29558 -0.957511 0
M  V30 37209 H 3650.33 0.674642 -0.296693 0
M  V30 37210 H 3652.98 1.34495 -1.34205 0
M  V30 37211 H 3651.13 3.78329 -0.883123 0
M  V30 37212 H 3652.8 3.11211 -3.40508 0
M  V30 37213 H 3651.04 2.87498 -3.2485 0
M  V30 37214 H 3651.71 4.50757 -3.18626 0
M  V30 37215 H 3654.19 3.9374 -1.34567 0
M  V30 37216 H 3653.06 5.32063 -1.34907 0
M  V30 37217 H 3653.33 4.41892 0.135612 0
M  V30 37218 N 3652.39 0.868133 1.31534 0
M  V30 37219 C 3653.8 0.530969 1.78991 0
M  V30 37220 C 3654.15 -0.952016 1.71555 0
M  V30 37221 O 3653.27 -1.74324 1.2822 0
M  V30 37222 C 3653.87 0.957038 3.25002 0
M  V30 37223 C 3652.43 0.67156 3.70361 0
M  V30 37224 C 3651.57 1.14937 2.52359 0
M  V30 37225 H 3654.52 1.05403 1.18642 0
M  V30 37226 H 3654.55 0.278949 3.79476 0
M  V30 37227 H 3654.06 2.03641 3.30382 0
M  V30 37228 H 3652.16 -0.396525 3.70484 0
M  V30 37229 H 3652.27 1.2473 4.62579 0
M  V30 37230 H 3650.64 0.569188 2.48259 0
M  V30 37231 H 3651.42 2.23612 2.60485 0
M  V30 37232 N 3653.86 -1.44574 0.627389 0
M  V30 37233 C 3655.09 -2.06956 0.135612 0
M  V30 37234 C 3655.51 -1.46549 -1.1792 0
M  V30 37235 O 3654.87 -0.565539 -1.72254 0
M  V30 37236 C 3654.92 -3.60587 0.0304104 0
M  V30 37237 O 3654.02 -3.99725 -1.01457 0
M  V30 37238 H 3653.36 -0.658783 0.0830695 0
M  V30 37239 H 3655.89 -1.85508 0.86301 0
M  V30 37240 H 3655.9 -4.07681 -0.16139 0
M  V30 37241 H 3654.58 -4.03937 0.990356 0
M  V30 37242 H 3653.16 -3.64269 -0.797637 0
M  V30 37243 N 3655.34 -0.367711 -1.5325 0
M  V30 37244 C 3656.3 0.465477 -2.24424 0
M  V30 37245 C 3657.3 1.00798 -1.25285 0
M  V30 37246 O 3658.49 0.893398 -1.49546 0
M  V30 37247 C 3655.63 1.65082 -2.98263 0
M  V30 37248 H 3656.82 -0.157344 -2.99487 0
M  V30 37249 H 3654.37 -0.119437 -1.55843 0
M  V30 37250 H 3655.11 2.31167 -2.27447 0
M  V30 37251 H 3654.89 1.26876 -3.71005 0
M  V30 37252 H 3656.38 2.24122 -3.52362 0
M  V30 37253 N 3656.82 1.57302 -0.0969353 0
M  V30 37254 C 3657.77 2.14125 0.861342 0
M  V30 37255 C 3658.74 1.06029 1.27856 0
M  V30 37256 O 3659.92 1.33825 1.35998 0
M  V30 37257 C 3657.06 2.72742 2.11438 0
M  V30 37258 C 3656.17 3.95077 1.74753 0
M  V30 37259 C 3655.31 4.41852 2.94856 0
M  V30 37260 C 3654.35 5.56772 2.54306 0
M  V30 37261 N 3653.49 5.98391 3.6725 0
M  V30 37262 H 3658.33 2.95695 0.369916 0
M  V30 37263 H 3655.86 1.46104 0.170917 0
M  V30 37264 H 3657.82 3.04847 2.84823 0
M  V30 37265 H 3656.45 1.93897 2.58077 0
M  V30 37266 H 3655.5 3.69274 0.913285 0
M  V30 37267 H 3656.81 4.78475 1.40937 0
M  V30 37268 H 3655.97 4.7575 3.76492 0
M  V30 37269 H 3654.71 3.57358 3.31883 0
M  V30 37270 H 3653.71 5.225 1.71097 0
M  V30 37271 H 3654.94 6.43016 2.18421 0
M  V30 37272 H 3652.88 5.16843 4.03992 0
M  V30 37273 H 3652.8 6.7659 3.37286 0
M  V30 37274 H 3654.07 6.3692 4.49391 0
M  V30 37275 N 3658.3 -0.176766 1.56606 0
M  V30 37276 C 3659.26 -1.20268 1.95111 0
M  V30 37277 C 3660.26 -1.37471 0.834164 0
M  V30 37278 O 3661.45 -1.3497 1.1013 0
M  V30 37279 C 3658.58 -2.56874 2.24117 0
M  V30 37280 H 3659.78 -0.87307 2.8691 0
M  V30 37281 H 3657.33 -0.419006 1.50579 0
M  V30 37282 H 3658.06 -2.94859 1.35014 0
M  V30 37283 H 3657.85 -2.45755 3.05527 0
M  V30 37284 H 3659.34 -3.30821 2.54848 0
M  V30 37285 N 3659.78 -1.51183 -0.445132 0
M  V30 37286 C 3661.02 -1.63708 -1.19698 0
M  V30 37287 C 3661.35 -0.348545 -1.91047 0
M  V30 37288 O 3660.63 0.651465 -1.83265 0
M  V30 37289 C 3660.91 -2.83515 -2.22016 0
M  V30 37290 C 3660.77 -4.22323 -1.54802 0
M  V30 37291 C 3662.08 -2.98846 -3.23078 0
M  V30 37292 H 3659.2 -0.595802 -0.433807 0
M  V30 37293 H 3661.85 -1.83646 -0.487244 0
M  V30 37294 H 3660 -2.66646 -2.82546 0
M  V30 37295 H 3661.67 -4.50842 -0.976695 0
M  V30 37296 H 3659.91 -4.25381 -0.850521 0
M  V30 37297 H 3660.58 -5.0213 -2.2928 0
M  V30 37298 H 3663.06 -3.14374 -2.72595 0
M  V30 37299 H 3661.93 -3.84253 -3.91971 0
M  V30 37300 H 3662.19 -2.10577 -3.88728 0
M  V30 37301 N 3661.25 0.700065 -1.41198 0
M  V30 37302 C 3662.48 1.48894 -1.4366 0
M  V30 37303 C 3662.9 1.88756 -0.0406103 0
M  V30 37304 O 3662.25 1.56486 0.939063 0
M  V30 37305 C 3662.3 2.75437 -2.3413 0
M  V30 37306 O 3662.03 2.37255 -3.68296 0
M  V30 37307 C 3663.53 3.69214 -2.45348 0
M  V30 37308 H 3660.75 0.45899 -0.489458 0
M  V30 37309 H 3663.29 0.862313 -1.8543 0
M  V30 37310 H 3661.45 3.34347 -1.9568 0
M  V30 37311 H 3661.86 3.1879 -4.16501 0
M  V30 37312 H 3663.33 4.54801 -3.12826 0
M  V30 37313 H 3663.81 4.13393 -1.48334 0
M  V30 37314 H 3664.42 3.16209 -2.84415 0
M  V30 37315 N 3662.73 1.26951 0.933869 0
M  V30 37316 C 3663.69 1.09193 2.01518 0
M  V30 37317 C 3664.69 0.0378933 1.60755 0
M  V30 37318 O 3665.88 0.281947 1.71903 0
M  V30 37319 C 3663.02 0.662449 3.34402 0
M  V30 37320 H 3664.21 2.05205 2.18703 0
M  V30 37321 H 3661.76 1.09652 1.11383 0
M  V30 37322 H 3662.5 -0.299331 3.22916 0
M  V30 37323 H 3662.28 1.42362 3.65343 0
M  V30 37324 H 3663.77 0.56026 4.13825 0
M  V30 37325 N 3664.21 -1.13949 1.08873 0
M  V30 37326 C 3665.49 -1.81309 0.733912 0
M  V30 37327 C 3665.87 -1.9609 -0.78179 0
M  V30 37328 O 3665.21 -1.52451 -1.70208 0
M  V30 37329 C 3665.42 -3.167 1.46637 0
M  V30 37330 C 3666.77 -3.92129 1.6285 0
M  V30 37331 O 3667.8 -3.26305 1.42841 0
M  V30 37332 O 3666.66 -5.10181 1.95902 0
M  V30 37333 H 3663.75 -0.78407 0.26299 0
M  V30 37334 H 3666.3 -1.20925 1.1906 0
M  V30 37335 H 3665.07 -3.01134 2.49868 0
M  V30 37336 H 3664.69 -3.84781 1.00148 0
M  V30 37337 N 3665.69 -0.875096 -1.31072 0
M  V30 37338 C 3666.94 -0.487618 -1.96129 0
M  V30 37339 C 3667.26 0.964377 -1.69484 0
M  V30 37340 O 3666.53 1.67674 -1.01303 0
M  V30 37341 H 3665.11 -0.177332 -0.725646 0
M  V30 37342 H 3667.77 -1.11601 -1.59785 0
M  V30 37343 H 3666.86 -0.649628 -3.05264 0
M  V30 37344 N 3667.17 1.44239 -0.635047 0
M  V30 37345 C 3668.41 2.02008 -0.141102 0
M  V30 37346 C 3668.74 1.49975 1.23846 0
M  V30 37347 O 3668 0.675705 1.83665 0
M  V30 37348 C 3668.3 3.57308 -0.0812538 0
M  V30 37349 C 3667.96 4.28611 -1.40012 0
M  V30 37350 C 3666.62 4.47807 -1.76132 0
M  V30 37351 C 3668.98 4.69146 -2.2705 0
M  V30 37352 C 3666.3 5.04798 -2.98991 0
M  V30 37353 C 3668.66 5.27498 -3.49182 0
M  V30 37354 C 3667.32 5.44912 -3.85521 0
M  V30 37355 H 3666.59 0.739199 -0.051633 0
M  V30 37356 H 3669.24 1.72954 -0.822142 0
M  V30 37357 H 3667.54 3.85798 0.683172 0
M  V30 37358 H 3669.24 3.99741 0.317513 0
M  V30 37359 H 3665.83 4.14003 -1.10904 0
M  V30 37360 H 3670.01 4.54025 -2.00438 0
M  V30 37361 H 3665.27 5.16468 -3.27217 0
M  V30 37362 H 3669.44 5.57856 -4.16856 0
M  V30 37363 H 3667.07 5.8884 -4.80803 0
M  V30 37364 N 3668.64 0.375833 1.53053 0
M  V30 37365 C 3670.06 -0.101155 1.86426 0
M  V30 37366 C 3670.41 -1.47298 1.29606 0
M  V30 37367 O 3669.53 -2.07265 0.622095 0
M  V30 37368 C 3670.13 -0.190329 3.38265 0
M  V30 37369 C 3668.69 -0.611588 3.71398 0
M  V30 37370 C 3667.83 0.234849 2.76304 0
M  V30 37371 H 3670.78 0.594237 1.47155 0
M  V30 37372 H 3670.8 -1.012 3.66795 0
M  V30 37373 H 3670.32 0.808247 3.79591 0
M  V30 37374 H 3668.42 -1.61802 3.35635 0
M  V30 37375 H 3668.53 -0.379084 4.77598 0
M  V30 37376 H 3666.89 -0.297843 2.52953 0
M  V30 37377 H 3667.68 1.23115 3.20464 0
M  V30 37378 N 3670.12 -1.57248 0.105276 0
M  V30 37379 C 3671.35 -1.99061 -0.564122 0
M  V30 37380 C 3671.77 -0.984653 -1.6109 0
M  V30 37381 O 3671.12 0.024371 -1.82484 0
M  V30 37382 C 3671.17 -3.40908 -1.20266 0
M  V30 37383 O 3670.89 -4.37654 -0.197738 0
M  V30 37384 C 3672.4 -3.97779 -1.9567 0
M  V30 37385 H 3669.62 -0.653914 -0.150457 0
M  V30 37386 H 3672.16 -2.03638 0.187568 0
M  V30 37387 H 3670.31 -3.37313 -1.90522 0
M  V30 37388 H 3670.73 -5.20332 -0.659907 0
M  V30 37389 H 3672.2 -4.99152 -2.35693 0
M  V30 37390 H 3672.68 -3.36159 -2.82655 0
M  V30 37391 H 3673.29 -4.04878 -1.30207 0
M  V30 37392 N 3671.6 0.168458 -1.56697 0
M  V30 37393 C 3672.85 0.885933 -1.82426 0
M  V30 37394 C 3673.18 1.81772 -0.683575 0
M  V30 37395 O 3672.45 1.91944 0.314286 0
M  V30 37396 C 3672.74 1.67912 -3.18556 0
M  V30 37397 C 3672.59 0.770265 -4.43156 0
M  V30 37398 C 3673.91 2.64621 -3.51659 0
M  V30 37399 H 3671.03 0.320632 -0.663599 0
M  V30 37400 H 3673.67 0.152017 -1.89391 0
M  V30 37401 H 3671.82 2.30479 -3.12749 0
M  V30 37402 H 3673.49 0.157247 -4.61032 0
M  V30 37403 H 3671.74 0.0784891 -4.33729 0
M  V30 37404 H 3672.41 1.36083 -5.34963 0
M  V30 37405 H 3674.88 2.12179 -3.57938 0
M  V30 37406 H 3673.76 3.17183 -4.4798 0
M  V30 37407 H 3674.02 3.44957 -2.76509 0
M  V30 37408 N 3673.08 1.51417 0.437109 0
M  V30 37409 C 3674.3 1.68189 1.21356 0
M  V30 37410 C 3674.73 0.37878 1.84247 0
M  V30 37411 O 3674.09 -0.661085 1.68818 0
M  V30 37412 C 3674.13 2.7993 2.27314 0
M  V30 37413 O 3673.24 2.43549 3.32803 0
M  V30 37414 H 3672.58 0.560793 0.355537 0
M  V30 37415 H 3675.11 1.97982 0.516169 0
M  V30 37416 H 3675.12 3.04021 2.72094 0
M  V30 37417 H 3673.79 3.74489 1.80916 0
M  V30 37418 H 3672.37 2.3003 2.93497 0
M  V30 37419 N 3674.56 -0.692567 1.41567 0
M  V30 37420 C 3675.8 -1.45477 1.41295 0
M  V30 37421 C 3676.14 -1.94186 0.0229434 0
M  V30 37422 O 3675.41 -1.69731 -0.949819 0
M  V30 37423 C 3675.69 -2.66453 2.42229 0
M  V30 37424 C 3675.55 -2.2349 3.90349 0
M  V30 37425 C 3676.87 -3.68653 2.4038 0
M  V30 37426 H 3673.98 -0.527654 0.514539 0
M  V30 37427 H 3676.63 -0.788567 1.72863 0
M  V30 37428 H 3674.78 -3.23292 2.1544 0
M  V30 37429 H 3676.45 -1.71954 4.28053 0
M  V30 37430 H 3674.69 -1.55242 4.05071 0
M  V30 37431 H 3675.36 -3.10306 4.56524 0
M  V30 37432 H 3677.84 -3.21494 2.64161 0
M  V30 37433 H 3676.71 -4.50904 3.13012 0
M  V30 37434 H 3676.98 -4.18557 1.42345 0
M  V30 37435 N 3676.03 -1.27445 -0.927123 0
M  V30 37436 C 3676.97 -1.04541 -2.02846 0
M  V30 37437 C 3677.95 0.0343533 -1.62564 0
M  V30 37438 O 3679.13 -0.110908 -1.88173 0
M  V30 37439 C 3676.26 -0.585938 -3.33593 0
M  V30 37440 C 3675.3 -1.66036 -3.92854 0
M  V30 37441 S 3676.14 -3.253 -4.25371 0
M  V30 37442 C 3677.29 -2.81155 -5.59198 0
M  V30 37443 H 3677.52 -1.97788 -2.21962 0
M  V30 37444 H 3675.06 -1.11282 -1.07031 0
M  V30 37445 H 3677.02 -0.327522 -4.09191 0
M  V30 37446 H 3675.68 0.326479 -3.12399 0
M  V30 37447 H 3674.87 -1.29019 -4.87207 0
M  V30 37448 H 3674.47 -1.87088 -3.23843 0
M  V30 37449 H 3676.76 -2.26494 -6.38519 0
M  V30 37450 H 3677.71 -3.74254 -6.01115 0
M  V30 37451 H 3678.11 -2.20279 -5.19747 0
M  V30 37452 N 3677.51 1.1337 -1.09476 0
M  V30 37453 C 3678.44 2.20906 -0.75648 0
M  V30 37454 C 3679.42 1.68006 0.266083 0
M  V30 37455 O 3680.61 1.93737 0.134033 0
M  V30 37456 C 3677.74 3.4685 -0.176794 0
M  V30 37457 C 3676.69 4.12843 -1.12893 0
M  V30 37458 C 3676.02 5.33119 -0.410924 0
M  V30 37459 C 3677.32 4.60121 -2.47156 0
M  V30 37460 H 3679.01 2.4946 -1.6556 0
M  V30 37461 H 3676.56 1.19901 -0.797479 0
M  V30 37462 H 3678.51 4.21339 0.071941 0
M  V30 37463 H 3677.24 3.17694 0.75752 0
M  V30 37464 H 3675.89 3.40322 -1.36295 0
M  V30 37465 H 3675.54 5.00226 0.527544 0
M  V30 37466 H 3675.24 5.78219 -1.04578 0
M  V30 37467 H 3676.77 6.10362 -0.170502 0
M  V30 37468 H 3678.18 5.2603 -2.27959 0
M  V30 37469 H 3676.58 5.15963 -3.06434 0
M  V30 37470 H 3677.65 3.74616 -3.07881 0
M  V30 37471 N 3678.99 0.882035 1.30606 0
M  V30 37472 C 3680.4 0.549923 1.78417 0
M  V30 37473 C 3680.75 -0.933766 1.72555 0
M  V30 37474 O 3679.88 -1.72954 1.30061 0
M  V30 37475 C 3680.47 0.991455 3.23969 0
M  V30 37476 C 3679.03 0.710804 3.69628 0
M  V30 37477 C 3678.18 1.17607 2.51125 0
M  V30 37478 H 3681.13 1.06655 1.17517 0
M  V30 37479 H 3681.15 0.319182 3.79159 0
M  V30 37480 H 3680.66 2.07134 3.28203 0
M  V30 37481 H 3678.76 -0.357208 3.70884 0
M  V30 37482 H 3678.88 1.29629 4.6123 0
M  V30 37483 H 3677.24 0.595487 2.47641 0
M  V30 37484 H 3678.02 2.26363 2.58099 0
M  V30 37485 N 3680.47 -1.439 0.642688 0
M  V30 37486 C 3681.4 -2.33462 -0.0419345 0
M  V30 37487 C 3682.38 -1.4887 -0.822897 0
M  V30 37488 O 3683.56 -1.77562 -0.786477 0
M  V30 37489 C 3680.69 -3.32099 -1.01625 0
M  V30 37490 C 3679.65 -4.26598 -0.346131 0
M  V30 37491 C 3678.97 -5.15191 -1.43116 0
M  V30 37492 C 3680.27 -5.16816 0.75489 0
M  V30 37493 H 3681.97 -2.90958 0.70598 0
M  V30 37494 H 3679.51 -1.39905 0.340949 0
M  V30 37495 H 3681.47 -3.93646 -1.50403 0
M  V30 37496 H 3680.19 -2.72837 -1.7952 0
M  V30 37497 H 3678.85 -3.664 0.121102 0
M  V30 37498 H 3678.5 -4.52275 -2.20127 0
M  V30 37499 H 3678.2 -5.79233 -0.988092 0
M  V30 37500 H 3679.72 -5.79611 -1.92051 0
M  V30 37501 H 3681.14 -5.72232 0.349725 0
M  V30 37502 H 3679.53 -5.89522 1.12179 0
M  V30 37503 H 3680.6 -4.57135 1.61726 0
M  V30 37504 N 3681.95 -0.383945 -1.52852 0
M  V30 37505 C 3682.9 0.470613 -2.2309 0
M  V30 37506 C 3683.88 1.03396 -1.2328 0
M  V30 37507 O 3685.07 0.960959 -1.48642 0
M  V30 37508 C 3682.2 1.6002 -3.03724 0
M  V30 37509 C 3681.29 1.04884 -4.10926 0
M  V30 37510 N 3681.68 0.221994 -5.05313 0
M  V30 37511 C 3679.98 1.32187 -4.25961 0
M  V30 37512 C 3680.68 -0.0819951 -5.81642 0
M  V30 37513 N 3679.65 0.520534 -5.41102 0
M  V30 37514 H 3683.46 -0.167715 -2.93421 0
M  V30 37515 H 3680.97 -0.192955 -1.6125 0
M  V30 37516 H 3682.97 2.22476 -3.52576 0
M  V30 37517 H 3681.63 2.2414 -2.34928 0
M  V30 37518 H 3682.64 -0.140314 -5.1771 0
M  V30 37519 H 3679.32 1.96451 -3.68393 0
M  V30 37520 H 3680.71 -0.751598 -6.67683 0
M  V30 37521 N 3683.43 1.5719 -0.113614 0
M  V30 37522 C 3684.65 1.99784 0.556893 0
M  V30 37523 C 3685.08 0.992697 1.59772 0
M  V30 37524 O 3684.43 -0.0363502 1.81264 0
M  V30 37525 C 3684.48 3.41277 1.16457 0
M  V30 37526 O 3683.59 3.4363 2.28018 0
M  V30 37527 H 3682.93 0.649156 0.139617 0
M  V30 37528 H 3685.46 2.03615 -0.200498 0
M  V30 37529 H 3685.47 3.7937 1.5014 0
M  V30 37530 H 3684.14 4.13951 0.402159 0
M  V30 37531 H 3682.72 3.1735 1.95814 0
M  V30 37532 N 3684.9 -0.160146 1.56784 0
M  V30 37533 C 3685.81 -1.2178 2.00517 0
M  V30 37534 C 3686.83 -1.4779 0.918367 0
M  V30 37535 O 3688.01 -1.59719 1.22686 0
M  V30 37536 C 3685.07 -2.53439 2.36579 0
M  V30 37537 C 3684.13 -2.35192 3.59143 0
M  V30 37538 C 3683.36 -3.60573 3.93475 0
M  V30 37539 O 3683.59 -4.66215 3.28634 0
M  V30 37540 O 3682.52 -3.54018 4.8678 0
M  V30 37541 H 3686.35 -0.876556 2.90775 0
M  V30 37542 H 3683.93 -0.367871 1.448 0
M  V30 37543 H 3685.81 -3.31085 2.60693 0
M  V30 37544 H 3684.49 -2.87119 1.49479 0
M  V30 37545 H 3683.4 -1.5554 3.40232 0
M  V30 37546 H 3684.73 -2.06432 4.46819 0
M  V30 37547 N 3686.38 -1.51647 -0.429072 0
M  V30 37548 C 3687.31 -1.69761 -1.53993 0
M  V30 37549 C 3688.33 -0.578164 -1.52188 0
M  V30 37550 O 3689.52 -0.852736 -1.56814 0
M  V30 37551 C 3686.62 -1.70465 -2.92907 0
M  V30 37552 C 3685.79 -2.99127 -3.19126 0
M  V30 37553 C 3684.85 -2.91909 -4.37808 0
M  V30 37554 O 3683.87 -3.65844 -4.36058 0
M  V30 37555 N 3685.08 -2.08327 -5.41831 0
M  V30 37556 H 3687.84 -2.65592 -1.38856 0
M  V30 37557 H 3685.4 -1.49636 -0.618122 0
M  V30 37558 H 3687.39 -1.63194 -3.70338 0
M  V30 37559 H 3685.96 -0.82193 -3.01601 0
M  V30 37560 H 3685.18 -3.20203 -2.29921 0
M  V30 37561 H 3686.47 -3.8428 -3.33476 0
M  V30 37562 H 3685.87 -1.4765 -5.46092 0
M  V30 37563 H 3684.43 -2.06928 -6.18081 0
M  V30 37564 N 3687.86 0.685049 -1.41932 0
M  V30 37565 C 3688.81 1.82011 -1.44827 0
M  V30 37566 C 3689.8 1.66251 -0.325112 0
M  V30 37567 O 3691.01 1.72984 -0.497644 0
M  V30 37568 H 3687.38 0.599964 -0.453373 0
M  V30 37569 H 3689.35 1.76687 -2.40467 0
M  V30 37570 C 3688.1 3.20101 -1.35759 0
M  V30 37571 H 3687.43 3.3285 -2.21475 0
M  V30 37572 H 3688.87 3.9957 -1.41845 0
M  V30 37573 C 3687.32 3.36825 -0.0711408 0
M  V30 37574 O 3687.85 3.91941 0.880086 0
M  V30 37575 N 3686.06 2.90599 0.00837544 0
M  V30 37576 H 3685.61 2.45933 -0.76647 0
M  V30 37577 H 3685.57 3.02166 0.868506 0
M  V30 37578 N 3689.34 1.27935 0.920351 0
M  V30 37579 C 3690.28 1.11294 2.02194 0
M  V30 37580 C 3691.25 0.0119162 1.66096 0
M  V30 37581 O 3692.44 0.175619 1.8999 0
M  V30 37582 C 3689.58 0.77389 3.36311 0
M  V30 37583 C 3688.69 1.95329 3.85319 0
M  V30 37584 C 3687.83 1.55546 5.07916 0
M  V30 37585 C 3686.87 2.7019 5.49239 0
M  V30 37586 N 3686 2.30944 6.6303 0
M  V30 37587 H 3690.84 2.05552 2.1576 0
M  V30 37588 H 3688.38 1.02314 1.05689 0
M  V30 37589 H 3690.34 0.558097 4.1345 0
M  V30 37590 H 3688.97 -0.131749 3.22531 0
M  V30 37591 H 3688.02 2.28141 3.04395 0
M  V30 37592 H 3689.33 2.81304 4.1191 0
M  V30 37593 H 3688.49 1.30134 5.92579 0
M  V30 37594 H 3687.23 0.666902 4.83119 0
M  V30 37595 H 3686.23 2.96307 4.63122 0
M  V30 37596 H 3687.46 3.59677 5.76029 0
M  V30 37597 H 3685.4 1.4455 6.39876 0
M  V30 37598 H 3685.32 3.10456 6.89313 0
M  V30 37599 H 3686.59 2.08799 7.51015 0
M  V30 37600 N 3690.82 -1.12788 1.10076 0
M  V30 37601 C 3692.04 -1.88586 0.863139 0
M  V30 37602 C 3692.47 -1.78916 -0.580564 0
M  V30 37603 O 3691.82 -1.14145 -1.40857 0
M  V30 37604 C 3691.87 -3.35906 1.31148 0
M  V30 37605 O 3690.98 -4.09665 0.47416 0
M  V30 37606 H 3690.32 -0.586109 0.312045 0
M  V30 37607 H 3692.85 -1.42659 1.46661 0
M  V30 37608 H 3692.86 -3.86742 1.2998 0
M  V30 37609 H 3691.53 -3.42261 2.36285 0
M  V30 37610 H 3690.11 -3.68811 0.55073 0
M  V30 37611 N 3692.29 -0.888949 -1.30136 0
M  V30 37612 C 3693.52 -0.523733 -2.00678 0
M  V30 37613 C 3693.94 0.88145 -1.66169 0
M  V30 37614 O 3693.3 1.58486 -0.880446 0
M  V30 37615 C 3693.35 -0.710346 -3.53534 0
M  V30 37616 O 3692.45 0.241994 -4.11689 0
M  V30 37617 H 3691.79 -0.205899 -0.63127 0
M  V30 37618 H 3694.32 -1.19758 -1.65889 0
M  V30 37619 H 3694.33 -0.610865 -4.03401 0
M  V30 37620 H 3693.01 -1.73485 -3.77989 0
M  V30 37621 H 3691.59 0.0958737 -3.72777 0
M  V30 37622 N 3693.77 1.43557 -0.65031 0
M  V30 37623 C 3695.18 1.85116 -0.242662 0
M  V30 37624 C 3695.53 1.54435 1.21014 0
M  V30 37625 O 3694.66 0.991873 1.9233 0
M  V30 37626 C 3695.25 3.36013 -0.433634 0
M  V30 37627 C 3693.81 3.76314 -0.0803296 0
M  V30 37628 C 3692.96 2.67302 -0.737891 0
M  V30 37629 H 3695.91 1.33751 -0.854181 0
M  V30 37630 H 3695.93 3.79137 0.321735 0
M  V30 37631 H 3695.44 3.58313 -1.49109 0
M  V30 37632 H 3693.54 3.59627 0.97464 0
M  V30 37633 H 3693.66 4.76444 -0.503766 0
M  V30 37634 H 3692.02 2.54123 -0.171393 0
M  V30 37635 H 3692.8 2.9243 -1.79831 0
M  V30 37636 N 3695.25 0.392045 1.52646 0
M  V30 37637 C 3696.53 -0.24697 1.94035 0
M  V30 37638 C 3696.91 -1.6412 1.3277 0
M  V30 37639 O 3696.25 -2.23033 0.496861 0
M  V30 37640 C 3696.46 -0.270554 3.4795 0
M  V30 37641 C 3697.81 -0.498182 4.21667 0
M  V30 37642 O 3698.84 -0.350646 3.5447 0
M  V30 37643 O 3697.7 -0.787491 5.40796 0
M  V30 37644 H 3694.79 -0.154237 0.81249 0
M  V30 37645 H 3697.34 0.446752 1.63714 0
M  V30 37646 H 3696.11 0.70593 3.8488 0
M  V30 37647 H 3695.73 -1.00908 3.84582 0
M  V30 37648 N 3696.73 -1.57127 0.121948 0
M  V30 37649 C 3698.14 -1.823 -0.402959 0
M  V30 37650 C 3698.49 -1.03928 -1.66413 0
M  V30 37651 O 3697.62 -0.276777 -2.14623 0
M  V30 37652 C 3698.21 -3.30668 -0.737855 0
M  V30 37653 C 3696.77 -3.5651 -1.20738 0
M  V30 37654 C 3695.92 -2.76445 -0.217579 0
M  V30 37655 H 3698.87 -1.54859 0.347036 0
M  V30 37656 H 3698.89 -3.45457 -1.59499 0
M  V30 37657 H 3698.4 -3.87681 0.18023 0
M  V30 37658 H 3696.5 -3.04857 -2.14227 0
M  V30 37659 H 3696.61 -4.65077 -1.15067 0
M  V30 37660 H 3694.98 -2.44742 -0.70521 0
M  V30 37661 H 3695.76 -3.36219 0.693655 0
M  V30 37662 N 3698.21 0.151829 -1.56867 0
M  V30 37663 C 3699.43 0.88031 -1.87238 0
M  V30 37664 C 3699.85 1.74958 -0.709595 0
M  V30 37665 O 3699.21 1.79659 0.320787 0
M  V30 37666 C 3699.26 1.74101 -3.16814 0
M  V30 37667 O 3698.98 0.906783 -4.28613 0
M  V30 37668 C 3700.48 2.57749 -3.60667 0
M  V30 37669 H 3697.7 0.254789 -0.620745 0
M  V30 37670 H 3700.24 0.146068 -2.03978 0
M  V30 37671 H 3698.4 2.42837 -3.01843 0
M  V30 37672 H 3698.81 1.49725 -5.02676 0
M  V30 37673 H 3700.29 3.13724 -4.54182 0
M  V30 37674 H 3700.76 3.33556 -2.85722 0
M  V30 37675 H 3701.37 1.94312 -3.78316 0
M  V30 37676 N 3699.68 1.51872 0.421024 0
M  V30 37677 C 3700.91 1.69467 1.19565 0
M  V30 37678 C 3701.33 0.398301 1.83835 0
M  V30 37679 O 3700.69 -0.643142 1.69509 0
M  V30 37680 C 3700.74 2.82325 2.24332 0
M  V30 37681 O 3699.84 2.47065 3.30201 0
M  V30 37682 H 3699.19 0.564533 0.349569 0
M  V30 37683 H 3701.72 1.98518 0.495142 0
M  V30 37684 H 3701.73 3.0689 2.68855 0
M  V30 37685 H 3700.4 3.76387 1.76934 0
M  V30 37686 H 3698.98 2.3313 2.91041 0
M  V30 37687 N 3701.16 -0.677513 1.42294 0
M  V30 37688 C 3702.39 -1.46589 1.46011 0
M  V30 37689 C 3702.81 -1.88668 0.0706346 0
M  V30 37690 O 3702.16 -1.5796 -0.914049 0
M  V30 37691 C 3702.21 -2.71677 2.38482 0
M  V30 37692 O 3701.93 -2.31366 3.72024 0
M  V30 37693 C 3703.44 -3.65264 2.51191 0
M  V30 37694 H 3700.66 -0.451145 0.496698 0
M  V30 37695 H 3703.2 -0.832703 1.86779 0
M  V30 37696 H 3701.35 -3.31192 2.00975 0
M  V30 37697 H 3701.77 -3.12124 4.2152 0
M  V30 37698 H 3703.24 -4.49767 3.20022 0
M  V30 37699 H 3703.72 -4.10981 1.54892 0
M  V30 37700 H 3704.33 -3.11645 2.89409 0
M  V30 37701 N 3702.64 -1.28421 -0.913554 0
M  V30 37702 C 3703.57 -1.14901 -2.03273 0
M  V30 37703 C 3704.55 -0.0467333 -1.70036 0
M  V30 37704 O 3705.74 -0.223759 -1.92907 0
M  V30 37705 C 3702.87 -0.810276 -3.37716 0
M  V30 37706 C 3701.82 -1.86734 -3.85116 0
M  V30 37707 C 3701.15 -1.38224 -5.16525 0
M  V30 37708 C 3702.45 -3.27393 -4.06953 0
M  V30 37709 H 3704.14 -2.08525 -2.14843 0
M  V30 37710 H 3701.69 -1.00396 -1.03231 0
M  V30 37711 H 3703.64 -0.702455 -4.15504 0
M  V30 37712 H 3702.36 0.161674 -3.262 0
M  V30 37713 H 3701.02 -1.96431 -3.09532 0
M  V30 37714 H 3700.67 -0.399351 -5.01412 0
M  V30 37715 H 3700.37 -2.08907 -5.4921 0
M  V30 37716 H 3701.89 -1.28765 -5.96868 0
M  V30 37717 H 3703.31 -3.20616 -4.75266 0
M  V30 37718 H 3701.71 -3.95912 -4.5097 0
M  V30 37719 H 3702.78 -3.71397 -3.11757 0
M  V30 37720 N 3704.12 1.12202 -1.10672 0
M  V30 37721 C 3705.34 1.88126 -0.873128 0
M  V30 37722 C 3705.77 1.79222 0.571067 0
M  V30 37723 O 3705.13 1.1489 1.40249 0
M  V30 37724 C 3705.17 3.35205 -1.32928 0
M  V30 37725 O 3704.28 4.09408 -0.495879 0
M  V30 37726 H 3703.62 0.584446 -0.315149 0
M  V30 37727 H 3706.15 1.41879 -1.47416 0
M  V30 37728 H 3706.16 3.86047 -1.3203 0
M  V30 37729 H 3704.83 3.41003 -2.38097 0
M  V30 37730 H 3703.41 3.68514 -0.570281 0
M  V30 37731 N 3705.6 0.895838 1.29663 0
M  V30 37732 C 3706.54 0.360444 2.2979 0
M  V30 37733 C 3707.54 -0.538356 1.60618 0
M  V30 37734 O 3708.74 -0.421585 1.74993 0
M  V30 37735 H 3705.12 0.0979249 0.745597 0
M  V30 37736 H 3707.09 1.21836 2.72394 0
M  V30 37737 C 3705.84 -0.40039 3.45387 0
M  V30 37738 H 3705.16 0.281985 3.98804 0
M  V30 37739 H 3706.6 -0.73993 4.17494 0
M  V30 37740 C 3705.06 -1.6016 2.96396 0
M  V30 37741 O 3705.59 -2.70092 2.97343 0
M  V30 37742 N 3703.8 -1.44245 2.52273 0
M  V30 37743 H 3703.34 -0.548098 2.51702 0
M  V30 37744 H 3703.3 -2.24749 2.19853 0
M  V30 37745 N 3707.07 -1.43211 0.657914 0
M  V30 37746 C 3708.3 -2.06106 0.181108 0
M  V30 37747 C 3708.72 -1.49341 -1.15511 0
M  V30 37748 O 3708.07 -0.626548 -1.71408 0
M  V30 37749 C 3708.13 -3.6139 0.0890879 0
M  V30 37750 O 3707.85 -4.16046 1.37249 0
M  V30 37751 C 3709.35 -4.4137 -0.413235 0
M  V30 37752 H 3706.57 -0.664653 0.0920694 0
M  V30 37753 H 3709.11 -1.83636 0.899888 0
M  V30 37754 H 3707.27 -3.83029 -0.580278 0
M  V30 37755 H 3707.68 -5.09759 1.23476 0
M  V30 37756 H 3709.15 -5.50349 -0.426566 0
M  V30 37757 H 3709.63 -4.14734 -1.44542 0
M  V30 37758 H 3710.24 -4.24711 0.223802 0
M  V30 37759 N 3708.55 -0.400135 -1.52436 0
M  V30 37760 C 3709.8 0.178834 -2.0201 0
M  V30 37761 C 3710.13 1.45552 -1.28563 0
M  V30 37762 O 3709.41 1.90565 -0.389269 0
M  V30 37763 C 3709.69 0.435721 -3.57454 0
M  V30 37764 C 3709.54 -0.857007 -4.4156 0
M  V30 37765 C 3710.86 1.22173 -4.22802 0
M  V30 37766 H 3707.98 0.0635221 -0.734257 0
M  V30 37767 H 3710.62 -0.531833 -1.82405 0
M  V30 37768 H 3708.77 1.04111 -3.7429 0
M  V30 37769 H 3710.44 -1.49351 -4.36454 0
M  V30 37770 H 3708.69 -1.46997 -4.08135 0
M  V30 37771 H 3709.36 -0.631772 -5.48373 0
M  V30 37772 H 3711.83 0.709287 -4.1001 0
M  V30 37773 H 3710.71 1.37021 -5.31523 0
M  V30 37774 H 3710.97 2.23991 -3.81157 0
M  V30 37775 N 3710.03 1.57061 -0.13028 0
M  V30 37776 C 3711.26 2.00363 0.535672 0
M  V30 37777 C 3711.68 1.00959 1.5871 0
M  V30 37778 O 3711.04 -0.0171227 1.81292 0
M  V30 37779 C 3711.09 3.42493 1.1283 0
M  V30 37780 O 3710.19 3.46029 2.24361 0
M  V30 37781 H 3709.53 0.6506 0.132724 0
M  V30 37782 H 3712.06 2.03391 -0.222083 0
M  V30 37783 H 3712.07 3.80941 1.46108 0
M  V30 37784 H 3710.75 4.14354 0.358231 0
M  V30 37785 H 3709.32 3.19409 1.92438 0
M  V30 37786 N 3711.51 -0.143508 1.56945 0
M  V30 37787 C 3712.74 -0.869106 1.8743 0
M  V30 37788 C 3713.15 -1.75092 0.716886 0
M  V30 37789 O 3712.49 -1.8085 -0.322348 0
M  V30 37790 C 3712.55 -1.77437 3.1266 0
M  V30 37791 C 3712.22 -1.06936 4.44313 0
M  V30 37792 C 3713.21 -0.421615 5.18188 0
M  V30 37793 C 3710.9 -1.05782 4.91035 0
M  V30 37794 C 3712.89 0.228239 6.36991 0
M  V30 37795 C 3710.58 -0.404159 6.09762 0
M  V30 37796 C 3711.58 0.237741 6.82586 0
M  V30 37797 O 3711.27 0.881033 7.99058 0
M  V30 37798 H 3711 -0.256497 0.625448 0
M  V30 37799 H 3713.55 -0.139943 2.04923 0
M  V30 37800 H 3711.78 -2.54456 2.91186 0
M  V30 37801 H 3713.47 -2.37222 3.29363 0
M  V30 37802 H 3714.24 -0.42231 4.83158 0
M  V30 37803 H 3710.12 -1.54687 4.34273 0
M  V30 37804 H 3713.66 0.729854 6.93771 0
M  V30 37805 H 3709.56 -0.401143 6.44252 0
M  V30 37806 H 3710.32 0.78305 8.14746 0
M  V30 37807 N 3712.99 -1.52093 -0.412964 0
M  V30 37808 C 3713.9 -1.78045 -1.52765 0
M  V30 37809 C 3714.91 -0.665819 -1.60757 0
M  V30 37810 O 3716.09 -0.950803 -1.77543 0
M  V30 37811 C 3713.15 -1.92218 -2.88536 0
M  V30 37812 C 3712.22 -3.16117 -2.90462 0
M  V30 37813 C 3711.45 -3.29605 -4.19757 0
M  V30 37814 O 3711.67 -2.48447 -5.13449 0
M  V30 37815 O 3710.61 -4.22734 -4.28462 0
M  V30 37816 H 3714.43 -2.72651 -1.33772 0
M  V30 37817 H 3712.02 -1.36891 -0.598437 0
M  V30 37818 H 3713.9 -2.03385 -3.6907 0
M  V30 37819 H 3712.57 -1.00801 -3.07605 0
M  V30 37820 H 3711.48 -3.10411 -2.08796 0
M  V30 37821 H 3712.81 -4.07303 -2.76342 0
M  V30 37822 N 3714.47 0.669957 -1.42651 0
M  V30 37823 C 3715.88 0.98366 -1.25683 0
M  V30 37824 C 3716.08 2.00827 -0.164491 0
M  V30 37825 O 3715.14 2.48225 0.462667 0
M  V30 37826 C 3716.45 1.48386 -2.61538 0
M  V30 37827 C 3718 1.60138 -2.68933 0
M  V30 37828 C 3718.47 2.13553 -4.05166 0
M  V30 37829 N 3719.96 2.20879 -4.07145 0
M  V30 37830 C 3720.7 2.63294 -5.09376 0
M  V30 37831 N 3720.2 3.05126 -6.21989 0
M  V30 37832 N 3721.99 2.63085 -4.96732 0
M  V30 37833 H 3714.14 -0.00834323 -2.12398 0
M  V30 37834 H 3716.4 0.0588064 -0.946174 0
M  V30 37835 H 3716.11 0.805467 -3.42352 0
M  V30 37836 H 3715.98 2.46178 -2.8579 0
M  V30 37837 H 3718.37 2.27082 -1.88461 0
M  V30 37838 H 3718.45 0.608222 -2.48464 0
M  V30 37839 H 3718.09 1.47216 -4.86097 0
M  V30 37840 H 3718.02 3.13668 -4.22989 0
M  V30 37841 H 3720.52 1.9139 -3.2585 0
M  V30 37842 H 3720.83 3.36191 -6.95841 0
M  V30 37843 H 3719.17 3.02972 -6.25486 0
M  V30 37844 H 3722.36 2.2977 -4.07828 0
M  V30 37845 H 3722.54 2.9582 -5.76536 0
M  V30 37846 N 3715.94 1.28904 0.90673 0
M  V30 37847 C 3717.17 1.19455 1.69545 0
M  V30 37848 C 3717.59 -0.242386 1.86532 0
M  V30 37849 O 3716.95 -1.17519 1.38054 0
M  V30 37850 C 3717 1.90561 3.06135 0
M  V30 37851 O 3716.1 1.21786 3.94007 0
M  V30 37852 H 3715.44 0.414299 0.518895 0
M  V30 37853 H 3717.97 1.70349 1.13324 0
M  V30 37854 H 3717.98 1.98742 3.56322 0
M  V30 37855 H 3716.66 2.95079 2.93089 0
M  V30 37856 H 3715.24 1.21816 3.52442 0
M  V30 37857 N 3717.42 -1.11614 1.11266 0
M  V30 37858 C 3718.65 -1.87119 0.882835 0
M  V30 37859 C 3719.06 -1.80077 -0.567247 0
M  V30 37860 O 3718.42 -1.18076 -1.39156 0
M  V30 37861 C 3718.47 -3.36002 1.33361 0
M  V30 37862 O 3718.19 -3.42892 2.72684 0
M  V30 37863 C 3719.69 -4.28419 1.13894 0
M  V30 37864 H 3716.91 -0.591781 0.316285 0
M  V30 37865 H 3719.46 -1.41175 1.47953 0
M  V30 37866 H 3717.61 -3.79458 0.780414 0
M  V30 37867 H 3718.03 -4.35584 2.92176 0
M  V30 37868 H 3719.5 -5.31133 1.50339 0
M  V30 37869 H 3719.98 -4.3913 0.0783362 0
M  V30 37870 H 3720.58 -3.90754 1.67903 0
M  V30 37871 N 3718.9 -0.902701 -1.29186 0
M  V30 37872 C 3720.18 -0.449529 -1.90364 0
M  V30 37873 C 3720.56 1.07102 -1.81913 0
M  V30 37874 O 3719.9 1.91421 -1.24782 0
M  V30 37875 C 3720.11 -0.967477 -3.35322 0
M  V30 37876 C 3721.46 -1.01297 -4.1234 0
M  V30 37877 O 3722.49 -0.915354 -3.44238 0
M  V30 37878 O 3721.35 -1.16003 -5.34046 0
M  V30 37879 H 3718.44 -0.140642 -0.814953 0
M  V30 37880 H 3720.99 -0.992763 -1.37631 0
M  V30 37881 H 3719.76 -2.01146 -3.35643 0
M  V30 37882 H 3719.38 -0.404427 -3.95538 0
M  V30 37883 N 3720.38 1.4286 -0.6655 0
M  V30 37884 C 3721.63 2.01265 -0.183556 0
M  V30 37885 C 3721.95 1.52839 1.211 0
M  V30 37886 O 3721.22 0.746141 1.81134 0
M  V30 37887 H 3719.8 0.744178 -0.0648696 0
M  V30 37888 H 3722.46 1.74904 -0.859924 0
M  V30 37889 H 3721.55 3.11594 -0.177644 0
M  V30 37890 N 3721.86 0.408213 1.52221 0
M  V30 37891 C 3723.08 -0.169865 2.06703 0
M  V30 37892 C 3723.51 -1.38168 1.27637 0
M  V30 37893 O 3722.86 -1.78693 0.306374 0
M  V30 37894 C 3722.91 -0.4996 3.57122 0
M  V30 37895 O 3722.02 -1.59073 3.80486 0
M  V30 37896 H 3721.36 -0.0146028 0.663839 0
M  V30 37897 H 3723.89 0.581148 1.96173 0
M  V30 37898 H 3723.9 -0.758497 4.00888 0
M  V30 37899 H 3722.57 0.386255 4.14103 0
M  V30 37900 H 3721.15 -1.32407 3.48601 0
M  V30 37901 N 3723.33 -1.56989 0.138607 0
M  V30 37902 C 3724.58 -1.95852 -0.514593 0
M  V30 37903 C 3724.91 -1.02302 -1.65423 0
M  V30 37904 O 3724.16 -0.0505998 -1.95635 0
M  V30 37905 C 3724.46 -3.41019 -1.06963 0
M  V30 37906 C 3724.13 -4.50873 -0.0493168 0
M  V30 37907 C 3722.79 -4.80644 0.231187 0
M  V30 37908 C 3725.14 -5.17194 0.644956 0
M  V30 37909 C 3722.47 -5.74047 1.21191 0
M  V30 37910 C 3724.82 -6.11652 1.61444 0
M  V30 37911 C 3723.49 -6.39806 1.90273 0
M  V30 37912 H 3722.76 -0.716675 -0.188303 0
M  V30 37913 H 3725.4 -1.90189 0.223663 0
M  V30 37914 H 3723.71 -3.43472 -1.88505 0
M  V30 37915 H 3725.41 -3.68412 -1.58347 0
M  V30 37916 H 3722 -4.27697 -0.278127 0
M  V30 37917 H 3726.18 -4.94333 0.441432 0
M  V30 37918 H 3721.44 -5.94157 1.4418 0
M  V30 37919 H 3725.61 -6.62121 2.15797 0
M  V30 37920 H 3723.24 -7.11986 2.6642 0
M  V30 37921 N 3724.81 0.135183 -1.57019 0
M  V30 37922 C 3725.74 1.1919 -1.95771 0
M  V30 37923 C 3726.76 1.38542 -0.854977 0
M  V30 37924 O 3727.95 1.37904 -1.13335 0
M  V30 37925 C 3725.05 2.55475 -2.22678 0
M  V30 37926 C 3724.22 2.56943 -3.53976 0
M  V30 37927 C 3723.28 3.74853 -3.69285 0
M  V30 37928 O 3722.3 3.59183 -4.41561 0
M  V30 37929 N 3723.51 4.92781 -3.06835 0
M  V30 37930 H 3726.27 0.8624 -2.87024 0
M  V30 37931 H 3723.83 0.32463 -1.58612 0
M  V30 37932 H 3725.82 3.32886 -2.3015 0
M  V30 37933 H 3724.39 2.80671 -1.37633 0
M  V30 37934 H 3723.61 1.65362 -3.57839 0
M  V30 37935 H 3724.9 2.54965 -4.40307 0
M  V30 37936 H 3724.3 5.08416 -2.48052 0
M  V30 37937 H 3722.86 5.67925 -3.19851 0
M  V30 37938 N 3726.29 1.5231 0.404892 0
M  V30 37939 C 3727.57 1.57144 1.1647 0
M  V30 37940 C 3727.95 0.355004 2.08094 0
M  V30 37941 O 3727.3 -0.657841 2.18826 0
M  V30 37942 C 3727.51 2.90226 1.93829 0
M  V30 37943 C 3728.85 3.43382 2.49748 0
M  V30 37944 O 3729.88 2.91994 2.04004 0
M  V30 37945 O 3728.74 4.33126 3.33263 0
M  V30 37946 H 3725.83 0.63315 0.532024 0
M  V30 37947 H 3728.38 1.6464 0.41133 0
M  V30 37948 H 3727.15 3.70209 1.26733 0
M  V30 37949 H 3726.77 2.86043 2.76162 0
M  V30 37950 N 3727.77 -0.662382 1.43004 0
M  V30 37951 C 3729.18 -0.976981 1.26203 0
M  V30 37952 C 3729.38 -2.00737 0.175139 0
M  V30 37953 O 3728.44 -2.48467 -0.449496 0
M  V30 37954 C 3729.75 -1.46997 2.62321 0
M  V30 37955 C 3731.3 -1.58709 2.69778 0
M  V30 37956 C 3731.78 -2.11401 4.06293 0
M  V30 37957 N 3733.27 -2.18716 4.0831 0
M  V30 37958 C 3734 -2.60589 5.10765 0
M  V30 37959 N 3733.5 -3.01824 6.23598 0
M  V30 37960 N 3735.29 -2.60447 4.9812 0
M  V30 37961 H 3727.44 0.0196071 2.12391 0
M  V30 37962 H 3729.71 -0.0537878 0.946473 0
M  V30 37963 H 3729.41 -0.7873 3.42775 0
M  V30 37964 H 3729.29 -2.44659 2.87092 0
M  V30 37965 H 3731.67 -2.26079 1.89663 0
M  V30 37966 H 3731.75 -0.595037 2.48783 0
M  V30 37967 H 3731.4 -1.44636 4.86871 0
M  V30 37968 H 3731.33 -3.11421 4.24647 0
M  V30 37969 H 3733.82 -1.8966 3.2686 0
M  V30 37970 H 3734.13 -3.32496 6.97614 0
M  V30 37971 H 3732.48 -2.9965 6.27084 0
M  V30 37972 H 3735.67 -2.27604 4.09041 0
M  V30 37973 H 3735.84 -2.92759 5.78097 0
M  V30 37974 N 3729.25 -1.29383 -0.899882 0
M  V30 37975 C 3730.49 -1.17344 -1.65036 0
M  V30 37976 C 3730.82 0.275101 -1.92545 0
M  V30 37977 O 3730.08 1.21514 -1.53404 0
M  V30 37978 C 3730.38 -1.93191 -3.00686 0
M  V30 37979 C 3730.04 -3.4291 -2.92786 0
M  V30 37980 C 3728.7 -3.83741 -2.90339 0
M  V30 37981 C 3731.06 -4.38317 -2.82007 0
M  V30 37982 C 3728.38 -5.18295 -2.74931 0
M  V30 37983 C 3730.74 -5.72961 -2.68139 0
M  V30 37984 C 3729.4 -6.1305 -2.64058 0
M  V30 37985 H 3728.67 -0.429391 -0.603908 0
M  V30 37986 H 3731.32 -1.60318 -1.0474 0
M  V30 37987 H 3729.62 -1.42807 -3.64847 0
M  V30 37988 H 3731.32 -1.8128 -3.57685 0
M  V30 37989 H 3727.91 -3.10454 -2.95493 0
M  V30 37990 H 3732.09 -4.07724 -2.82975 0
M  V30 37991 H 3727.35 -5.48466 -2.70176 0
M  V30 37992 H 3731.52 -6.46538 -2.5877 0
M  V30 37993 H 3729.15 -7.1726 -2.51877 0
M  V30 37994 N 3730.72 1.11022 -1.11856 0
M  V30 37995 C 3732.14 1.3487 -0.853365 0
M  V30 37996 C 3732.34 1.94683 0.519691 0
M  V30 37997 O 3731.4 2.18259 1.26962 0
M  V30 37998 C 3732.71 2.27619 -1.96494 0
M  V30 37999 C 3734.26 2.41173 -1.99511 0
M  V30 38000 C 3734.73 3.37247 -3.09884 0
M  V30 38001 N 3736.22 3.44812 -3.09287 0
M  V30 38002 C 3736.96 4.19104 -3.9133 0
M  V30 38003 N 3736.45 4.96335 -4.83346 0
M  V30 38004 N 3738.25 4.14661 -3.7949 0
M  V30 38005 H 3730.4 0.705635 -2.00336 0
M  V30 38006 H 3732.66 0.37323 -0.871438 0
M  V30 38007 H 3732.37 1.9087 -2.95401 0
M  V30 38008 H 3732.24 3.27876 -1.86486 0
M  V30 38009 H 3734.63 2.77195 -1.01228 0
M  V30 38010 H 3734.71 1.40752 -2.13594 0
M  V30 38011 H 3734.35 3.01952 -4.08396 0
M  V30 38012 H 3734.28 4.37532 -2.93041 0
M  V30 38013 H 3736.77 2.89729 -2.42622 0
M  V30 38014 H 3737.09 5.50404 -5.42472 0
M  V30 38015 H 3735.43 4.95481 -4.87364 0
M  V30 38016 H 3738.62 3.53416 -3.06944 0
M  V30 38017 H 3738.8 4.72302 -4.43661 0
M  V30 38018 N 3732.2 0.90954 1.28706 0
M  V30 38019 C 3733.11 0.399668 2.31171 0
M  V30 38020 C 3734.13 -0.510552 1.66341 0
M  V30 38021 O 3735.3 -0.397758 1.97433 0
M  V30 38022 C 3732.37 -0.355792 3.4487 0
M  V30 38023 C 3731.43 0.587139 4.25266 0
M  V30 38024 C 3730.66 -0.132362 5.33536 0
M  V30 38025 O 3730.89 -1.35477 5.54078 0
M  V30 38026 O 3729.82 0.530168 5.99561 0
M  V30 38027 H 3733.65 1.25 2.76783 0
M  V30 38028 H 3731.23 0.674209 1.33322 0
M  V30 38029 H 3733.11 -0.782619 4.14069 0
M  V30 38030 H 3731.79 -1.18202 3.01347 0
M  V30 38031 H 3730.7 1.06328 3.58671 0
M  V30 38032 H 3732.03 1.38006 4.72456 0
M  V30 38033 N 3733.68 -1.42505 0.673067 0
M  V30 38034 C 3734.93 -2.01563 0.194611 0
M  V30 38035 C 3735.26 -1.53206 -1.19826 0
M  V30 38036 O 3734.51 -0.724163 -1.81809 0
M  V30 38037 C 3734.81 -3.56967 0.175959 0
M  V30 38038 C 3734.48 -4.24748 1.51327 0
M  V30 38039 C 3733.14 -4.42979 1.87943 0
M  V30 38040 C 3735.49 -4.62961 2.39408 0
M  V30 38041 C 3732.82 -4.96694 3.1227 0
M  V30 38042 C 3735.17 -5.18055 3.63045 0
M  V30 38043 C 3733.83 -5.34499 3.99833 0
M  V30 38044 H 3733.1 -0.73757 0.0712134 0
M  V30 38045 H 3735.75 -1.70713 0.867709 0
M  V30 38046 H 3734.06 -3.87474 -0.580644 0
M  V30 38047 H 3735.75 -4.00442 -0.211417 0
M  V30 38048 H 3732.34 -4.10917 1.21841 0
M  V30 38049 H 3736.53 -4.48551 2.12405 0
M  V30 38050 H 3731.78 -5.07611 3.40795 0
M  V30 38051 H 3735.96 -5.46608 4.315 0
M  V30 38052 H 3733.58 -5.75885 4.96246 0
M  V30 38053 N 3735.16 -0.41628 -1.52003 0
M  V30 38054 C 3736.07 0.412363 -2.30947 0
M  V30 38055 C 3737.08 1.04705 -1.38971 0
M  V30 38056 O 3738.26 1.047 -1.72046 0
M  V30 38057 C 3735.33 1.51018 -3.12081 0
M  V30 38058 C 3734.39 0.897818 -4.19807 0
M  V30 38059 C 3733.62 1.94332 -4.97062 0
M  V30 38060 O 3733.84 3.16253 -4.747 0
M  V30 38061 O 3732.78 1.54557 -5.81718 0
M  V30 38062 H 3736.6 -0.231527 -3.02816 0
M  V30 38063 H 3734.19 -0.179309 -1.4832 0
M  V30 38064 H 3736.07 2.14735 -3.62584 0
M  V30 38065 H 3734.74 2.13854 -2.42998 0
M  V30 38066 H 3733.65 0.22317 -3.73434 0
M  V30 38067 H 3734.98 0.313274 -4.91202 0
M  V30 38068 N 3736.64 1.56914 -0.146931 0
M  V30 38069 C 3737.91 1.8773 0.549258 0
M  V30 38070 C 3738.29 1.05287 1.82969 0
M  V30 38071 O 3737.64 0.139668 2.28073 0
M  V30 38072 C 3737.85 3.39356 0.814775 0
M  V30 38073 C 3739.2 4.08573 1.15558 0
M  V30 38074 O 3740.22 3.44534 0.90413 0
M  V30 38075 O 3739.08 5.21664 1.62877 0
M  V30 38076 H 3736.18 0.778092 0.280182 0
M  V30 38077 H 3738.72 1.68705 -0.183537 0
M  V30 38078 H 3737.49 3.91193 -0.0914214 0
M  V30 38079 H 3737.12 3.63909 1.60175 0
M  V30 38080 N 3738.11 -0.126854 1.57089 0
M  V30 38081 C 3739.34 -0.854356 1.88986 0
M  V30 38082 C 3739.76 -1.73015 0.738068 0
M  V30 38083 O 3739.12 -1.78601 -0.311697 0
M  V30 38084 C 3739.17 -1.67022 3.19587 0
M  V30 38085 O 3738.27 -2.77643 3.0494 0
M  V30 38086 H 3737.62 -0.236753 0.620358 0
M  V30 38087 H 3740.15 -0.111611 2.04295 0
M  V30 38088 H 3740.16 -2.06109 3.52112 0
M  V30 38089 H 3738.83 -1.02725 4.03014 0
M  V30 38090 H 3737.41 -2.41816 2.83865 0
M  V30 38091 N 3739.59 -1.52523 -0.396809 0
M  V30 38092 C 3740.82 -1.71051 -1.16401 0
M  V30 38093 C 3741.24 -0.42541 -1.83945 0
M  V30 38094 O 3740.59 0.59953 -1.72371 0
M  V30 38095 C 3740.64 -2.85467 -2.21791 0
M  V30 38096 O 3740.36 -4.09001 -1.57002 0
M  V30 38097 C 3741.87 -3.15609 -3.11298 0
M  V30 38098 H 3739.09 -0.572911 -0.349304 0
M  V30 38099 H 3741.63 -1.99137 -0.465262 0
M  V30 38100 H 3739.78 -2.59864 -2.87314 0
M  V30 38101 H 3740.2 -4.72848 -2.26968 0
M  V30 38102 H 3741.67 -3.99149 -3.81292 0
M  V30 38103 H 3742.15 -2.29667 -3.74366 0
M  V30 38104 H 3742.76 -3.43021 -2.51429 0
M  V30 38105 N 3741.07 0.654789 -1.43354 0
M  V30 38106 C 3742 1.77937 -1.51197 0
M  V30 38107 C 3742.98 1.66099 -0.366777 0
M  V30 38108 O 3744.17 1.85218 -0.583782 0
M  V30 38109 C 3741.3 3.16356 -1.43304 0
M  V30 38110 C 3740.25 3.42956 -2.56056 0
M  V30 38111 C 3739.58 4.81159 -2.33217 0
M  V30 38112 C 3740.88 3.37857 -3.98309 0
M  V30 38113 H 3742.57 1.71631 -2.45323 0
M  V30 38114 H 3740.12 0.824298 -1.18073 0
M  V30 38115 H 3742.07 3.94782 -1.47395 0
M  V30 38116 H 3740.79 3.23389 -0.456818 0
M  V30 38117 H 3739.45 2.66901 -2.51315 0
M  V30 38118 H 3739.1 4.84866 -1.33842 0
M  V30 38119 H 3738.8 4.99918 -3.08798 0
M  V30 38120 H 3740.33 5.61844 -2.39089 0
M  V30 38121 H 3741.74 4.06221 -4.04545 0
M  V30 38122 H 3740.14 3.68152 -4.73903 0
M  V30 38123 H 3741.21 2.36067 -4.23557 0
M  V30 38124 N 3742.55 1.29858 0.893007 0
M  V30 38125 C 3743.5 1.15558 1.99788 0
M  V30 38126 C 3744.47 0.0471449 1.66033 0
M  V30 38127 O 3745.65 0.21588 1.89575 0
M  V30 38128 C 3742.79 0.845052 3.34594 0
M  V30 38129 C 3741.9 2.03458 3.81089 0
M  V30 38130 C 3741.04 1.66284 5.04503 0
M  V30 38131 C 3740.08 2.81779 5.43385 0
M  V30 38132 N 3739.22 2.44956 6.57982 0
M  V30 38133 H 3744.06 2.10082 2.11351 0
M  V30 38134 H 3741.59 1.04533 1.03495 0
M  V30 38135 H 3743.55 0.64567 4.12173 0
M  V30 38136 H 3742.18 -0.0633058 3.22738 0
M  V30 38137 H 3741.23 2.34546 2.99487 0
M  V30 38138 H 3742.54 2.89978 4.0585 0
M  V30 38139 H 3741.7 1.42674 5.89686 0
M  V30 38140 H 3740.44 0.769229 4.81595 0
M  V30 38141 H 3739.44 3.06064 4.56733 0
M  V30 38142 H 3740.67 3.71815 5.6827 0
M  V30 38143 H 3738.61 1.5809 6.36666 0
M  V30 38144 H 3738.53 3.25008 6.82573 0
M  V30 38145 H 3739.8 2.24682 7.46417 0
M  V30 38146 N 3744.03 -1.10427 1.12443 0
M  V30 38147 C 3745.44 -1.63894 0.894176 0
M  V30 38148 C 3745.79 -1.87693 -0.571476 0
M  V30 38149 O 3744.91 -1.61895 -1.43593 0
M  V30 38150 C 3745.51 -2.97739 1.61669 0
M  V30 38151 C 3744.07 -3.48072 1.43257 0
M  V30 38152 C 3743.22 -2.22679 1.65256 0
M  V30 38153 H 3746.17 -0.939267 1.2792 0
M  V30 38154 H 3746.19 -3.65211 1.06777 0
M  V30 38155 H 3745.7 -2.80386 2.68338 0
M  V30 38156 H 3743.8 -3.7057 0.38845 0
M  V30 38157 H 3743.91 -4.26182 2.18874 0
M  V30 38158 H 3742.28 -2.30825 1.07667 0
M  V30 38159 H 3743.06 -2.07857 2.73222 0
M  V30 38160 N 3745.51 -0.916353 -1.28221 0
M  V30 38161 C 3746.45 -0.396956 -2.29188 0
M  V30 38162 C 3747.45 0.512735 -1.61454 0
M  V30 38163 O 3748.65 0.393692 -1.75642 0
M  V30 38164 H 3745.03 -0.109774 -0.743945 0
M  V30 38165 H 3747 -1.26155 -2.70421 0
M  V30 38166 C 3745.75 0.345391 -3.4598 0
M  V30 38167 H 3745.07 -0.345396 -3.98305 0
M  V30 38168 H 3746.51 0.673416 -4.18618 0
M  V30 38169 C 3744.97 1.55424 -2.98906 0
M  V30 38170 O 3745.5 2.65328 -3.01603 0
M  V30 38171 N 3743.71 1.40213 -2.54536 0
M  V30 38172 H 3743.25 0.507985 -2.52542 0
M  V30 38173 H 3743.21 2.21223 -2.23401 0
M  V30 38174 N 3746.98 1.42146 -0.680615 0
M  V30 38175 C 3748.4 1.55699 -0.350718 0
M  V30 38176 C 3748.6 1.65912 1.14347 0
M  V30 38177 O 3747.66 1.62926 1.92902 0
M  V30 38178 C 3748.97 2.80399 -1.08613 0
M  V30 38179 C 3750.52 2.94178 -1.06902 0
M  V30 38180 C 3750.99 4.21747 -1.78588 0
M  V30 38181 N 3752.48 4.28672 -1.75485 0
M  V30 38182 C 3753.22 5.26207 -2.27803 0
M  V30 38183 N 3752.71 6.2986 -2.88529 0
M  V30 38184 N 3754.51 5.18044 -2.18144 0
M  V30 38185 H 3746.66 1.3376 -1.64991 0
M  V30 38186 H 3748.92 0.644277 -0.695422 0
M  V30 38187 H 3748.63 2.7901 -2.14118 0
M  V30 38188 H 3748.5 3.71468 -0.655088 0
M  V30 38189 H 3750.89 2.95092 -0.0222983 0
M  V30 38190 H 3750.97 2.04324 -1.539 0
M  V30 38191 H 3750.61 4.21595 -2.83232 0
M  V30 38192 H 3750.54 5.10546 -1.29036 0
M  V30 38193 H 3753.03 3.54395 -1.31197 0
M  V30 38194 H 3753.35 7.00648 -3.26056 0
M  V30 38195 H 3751.69 6.30405 -2.92601 0
M  V30 38196 H 3754.88 4.35988 -1.70387 0
M  V30 38197 H 3755.06 5.93892 -2.59223 0
M  V30 38198 N 3748.46 0.424336 1.5178 0
M  V30 38199 C 3749.41 -0.393628 2.27419 0
M  V30 38200 C 3750.38 -1.02805 1.30462 0
M  V30 38201 O 3751.56 -1.04944 1.59347 0
M  V30 38202 C 3748.7 -1.49605 3.10986 0
M  V30 38203 C 3747.82 -0.881049 4.2292 0
M  V30 38204 C 3746.95 -1.95743 4.9382 0
M  V30 38205 C 3745.99 -1.32017 5.97694 0
M  V30 38206 N 3745.13 -2.33736 6.62051 0
M  V30 38207 H 3749.97 0.257783 2.96883 0
M  V30 38208 H 3747.5 0.138968 1.46442 0
M  V30 38209 H 3749.46 -2.14636 3.57753 0
M  V30 38210 H 3748.09 -2.11728 2.43662 0
M  V30 38211 H 3747.14 -0.119378 3.80213 0
M  V30 38212 H 3748.46 -0.375676 4.97383 0
M  V30 38213 H 3747.61 -2.68466 5.44069 0
M  V30 38214 H 3746.35 -2.4965 4.18958 0
M  V30 38215 H 3745.35 -0.578348 5.4675 0
M  V30 38216 H 3746.58 -0.788604 6.74506 0
M  V30 38217 H 3744.53 -2.86747 5.9001 0
M  V30 38218 H 3744.44 -1.88053 7.32238 0
M  V30 38219 H 3745.71 -3.05982 7.16935 0
M  V30 38220 N 3749.94 -1.56833 0.15525 0
M  V30 38221 C 3750.89 -2.17174 -0.781277 0
M  V30 38222 C 3751.86 -1.10701 -1.23833 0
M  V30 38223 O 3753.04 -1.3878 -1.30938 0
M  V30 38224 C 3750.18 -2.80401 -2.01169 0
M  V30 38225 C 3749.29 -4.0129 -1.59969 0
M  V30 38226 C 3748.43 -4.52491 -2.78254 0
M  V30 38227 C 3747.47 -5.65827 -2.33467 0
M  V30 38228 N 3746.61 -6.11609 -3.44788 0
M  V30 38229 H 3751.45 -2.96864 -0.259916 0
M  V30 38230 H 3748.98 -1.46637 -0.116574 0
M  V30 38231 H 3750.94 -3.15208 -2.73313 0
M  V30 38232 H 3749.57 -2.03342 -2.50703 0
M  V30 38233 H 3748.62 -3.72409 -0.775603 0
M  V30 38234 H 3749.93 -4.83376 -1.23082 0
M  V30 38235 H 3749.09 -4.89396 -3.58576 0
M  V30 38236 H 3747.83 -3.6943 -3.18391 0
M  V30 38237 H 3746.83 -5.2849 -1.51587 0
M  V30 38238 H 3748.06 -6.50679 -1.94406 0
M  V30 38239 H 3746 -5.3148 -3.84532 0
M  V30 38240 H 3745.92 -6.88642 -3.11943 0
M  V30 38241 H 3747.19 -6.5316 -4.25443 0
M  V30 38242 N 3751.42 0.118521 -1.57154 0
M  V30 38243 C 3752.83 0.675614 -1.74047 0
M  V30 38244 C 3753.18 1.80288 -0.774005 0
M  V30 38245 O 3752.3 2.16335 0.0529661 0
M  V30 38246 C 3752.9 1.23234 -3.15593 0
M  V30 38247 C 3751.46 1.73572 -3.33991 0
M  V30 38248 C 3750.61 0.635623 -2.69917 0
M  V30 38249 H 3753.56 -0.107398 -1.58336 0
M  V30 38250 H 3753.58 2.10199 -3.1717 0
M  V30 38251 H 3753.09 0.411676 -3.8591 0
M  V30 38252 H 3751.19 2.58113 -2.68716 0
M  V30 38253 H 3751.3 1.84483 -4.42157 0
M  V30 38254 H 3749.67 1.06935 -2.31165 0
M  V30 38255 H 3750.45 -0.174065 -3.42858 0
M  V30 38256 N 3752.9 1.52731 0.388715 0
M  V30 38257 C 3754.12 1.71666 1.15492 0
M  V30 38258 C 3754.54 0.435159 1.83717 0
M  V30 38259 O 3753.9 -0.590381 1.72687 0
M  V30 38260 C 3753.95 2.86639 2.20274 0
M  V30 38261 O 3753.67 4.09828 1.54831 0
M  V30 38262 C 3755.17 3.17255 3.09619 0
M  V30 38263 H 3752.39 0.574756 0.346261 0
M  V30 38264 H 3754.93 1.99381 0.454694 0
M  V30 38265 H 3753.09 2.61384 2.85932 0
M  V30 38266 H 3753.5 4.74045 2.24457 0
M  V30 38267 H 3754.98 4.01166 3.7917 0
M  V30 38268 H 3755.45 2.31649 3.73142 0
M  V30 38269 H 3756.06 3.4435 2.49606 0
M  V30 38270 N 3754.37 -0.647178 1.43699 0
M  V30 38271 C 3755.28 -1.78882 1.51785 0
M  V30 38272 C 3756.3 -1.69232 0.404528 0
M  V30 38273 O 3757.48 -1.90294 0.659543 0
M  V30 38274 C 3754.54 -3.15191 1.44414 0
M  V30 38275 C 3753.6 -3.36592 2.66466 0
M  V30 38276 C 3752.83 -4.66399 2.59438 0
M  V30 38277 O 3753.06 -5.46151 1.64546 0
M  V30 38278 O 3751.99 -4.89652 3.50036 0
M  V30 38279 H 3755.82 -1.75014 2.48201 0
M  V30 38280 H 3753.4 -0.806414 1.25767 0
M  V30 38281 H 3755.28 -3.96479 1.42768 0
M  V30 38282 H 3753.96 -3.19636 0.511348 0
M  V30 38283 H 3752.87 -2.55045 2.73683 0
M  V30 38284 H 3754.2 -3.36999 3.58738 0
M  V30 38285 N 3755.85 -1.3033 -0.886108 0
M  V30 38286 C 3756.8 -1.1652 -2.0131 0
M  V30 38287 C 3757.79 -0.0773729 -1.69223 0
M  V30 38288 O 3759 -0.238143 -1.78418 0
M  V30 38289 H 3755.38 -0.360324 -0.660054 0
M  V30 38290 H 3757.35 -2.11904 -2.10093 0
M  V30 38291 C 3756.1 -0.872651 -3.36571 0
M  V30 38292 H 3755.42 -1.70179 -3.61772 0
M  V30 38293 H 3756.86 -0.816123 -4.16071 0
M  V30 38294 C 3755.32 0.424406 -3.34216 0
M  V30 38295 O 3755.85 1.44628 -3.74761 0
M  V30 38296 N 3754.05 0.435156 -2.87323 0
M  V30 38297 H 3753.6 -0.396896 -2.54524 0
M  V30 38298 H 3753.56 1.30295 -2.8613 0
M  V30 38299 N 3757.33 1.0983 -1.13028 0
M  V30 38300 C 3758.58 1.8129 -0.884124 0
M  V30 38301 C 3758.89 1.8644 0.591576 0
M  V30 38302 O 3760.1 2.54167 0.954527 0
M  V30 38303 C 3758.55 3.25659 -1.53213 0
M  V30 38304 C 3758.16 3.28788 -3.04306 0
M  V30 38305 C 3759.91 4.01904 -1.36651 0
M  V30 38306 C 3757.81 4.67655 -3.62012 0
M  V30 38307 H 3756.74 0.679348 -0.327113 0
M  V30 38308 H 3759.39 1.23467 -1.3575 0
M  V30 38309 H 3757.78 3.83518 -0.986421 0
M  V30 38310 H 3758.95 2.80719 -3.65423 0
M  V30 38311 H 3757.27 2.66032 -3.20337 0
M  V30 38312 H 3759.86 5.04491 -1.77179 0
M  V30 38313 H 3760.21 4.15138 -0.310882 0
M  V30 38314 H 3760.74 3.50476 -1.88178 0
M  V30 38315 H 3757.48 4.59623 -4.67362 0
M  V30 38316 H 3757 5.16067 -3.05672 0
M  V30 38317 H 3758.68 5.36628 -3.61441 0
M  V30 38318 N 3758.81 0.92314 1.27734 0
M  V30 38319 C 3760.06 0.557028 1.93856 0
M  V30 38320 C 3760.37 -0.905316 1.73388 0
M  V30 38321 O 3761.58 -1.38 2.33812 0
M  V30 38322 C 3760.03 0.945401 3.47261 0
M  V30 38323 C 3759.64 2.42811 3.76492 0
M  V30 38324 C 3761.38 0.650324 4.19489 0
M  V30 38325 C 3759.29 2.75613 5.23251 0
M  V30 38326 H 3758.22 0.204604 0.725709 0
M  V30 38327 H 3760.87 1.12333 1.45098 0
M  V30 38328 H 3759.25 0.30779 3.94802 0
M  V30 38329 H 3760.43 3.11325 3.39725 0
M  V30 38330 H 3758.74 2.69462 3.17458 0
M  V30 38331 H 3761.34 0.871944 5.27543 0
M  V30 38332 H 3761.68 -0.412279 4.14253 0
M  V30 38333 H 3762.22 1.24683 3.77755 0
M  V30 38334 H 3758.96 3.80764 5.33572 0
M  V30 38335 H 3758.48 2.11745 5.61181 0
M  V30 38336 H 3760.15 2.63114 5.91084 0
M  V30 38337 N 3760.29 -1.41783 0.688143 0
M  V30 38338 C 3761.54 -2.00571 0.21312 0
M  V30 38339 C 3761.85 -1.55103 -1.19173 0
M  V30 38340 O 3763.05 -2.064 -1.76383 0
M  V30 38341 C 3761.51 -3.58383 0.330138 0
M  V30 38342 C 3761.12 -4.12834 1.73989 0
M  V30 38343 C 3762.86 -4.24414 -0.0854905 0
M  V30 38344 C 3760.77 -5.63055 1.80896 0
M  V30 38345 H 3759.7 -0.750168 0.0759192 0
M  V30 38346 H 3762.35 -1.6235 0.855264 0
M  V30 38347 H 3760.73 -3.94171 -0.38013 0
M  V30 38348 H 3761.91 -3.88479 2.47831 0
M  V30 38349 H 3760.22 -3.59302 2.10454 0
M  V30 38350 H 3762.82 -5.34673 -0.0542202 0
M  V30 38351 H 3763.16 -4.00867 -1.123 0
M  V30 38352 H 3763.69 -3.93634 0.574238 0
M  V30 38353 H 3760.43 -5.91419 2.82674 0
M  V30 38354 H 3759.95 -5.89359 1.11427 0
M  V30 38355 H 3761.63 -6.27701 1.56846 0
M  V30 38356 N 3761.76 -0.432379 -1.51553 0
M  V30 38357 C 3763.04 0.195438 -1.94621 0
M  V30 38358 C 3763.42 1.60542 -1.37075 0
M  V30 38359 O 3762.77 2.21637 -0.55582 0
M  V30 38360 C 3762.98 0.178206 -3.48545 0
M  V30 38361 C 3764.33 0.386209 -4.2284 0
M  V30 38362 O 3765.35 0.256541 -3.55275 0
M  V30 38363 O 3764.21 0.643831 -5.42694 0
M  V30 38364 H 3761.3 0.132641 -0.816294 0
M  V30 38365 H 3763.85 -0.49 -1.62472 0
M  V30 38366 H 3762.62 -0.807726 -3.82873 0
M  V30 38367 H 3762.25 0.906764 -3.87122 0
M  V30 38368 N 3763.24 1.56749 -0.163565 0
M  V30 38369 C 3764.17 2.20594 0.765532 0
M  V30 38370 C 3765.15 1.15918 1.24487 0
M  V30 38371 O 3766.34 1.4432 1.29944 0
M  V30 38372 C 3763.47 2.8406 1.99818 0
M  V30 38373 C 3762.42 3.94708 1.65499 0
M  V30 38374 C 3761.75 4.45186 2.96164 0
M  V30 38375 C 3763.05 5.1468 0.88893 0
M  V30 38376 H 3764.74 2.98489 0.233378 0
M  V30 38377 H 3762.29 1.43573 0.11081 0
M  V30 38378 H 3764.24 3.27397 2.6531 0
M  V30 38379 H 3762.97 2.03522 2.55434 0
M  V30 38380 H 3761.62 3.52015 1.02378 0
M  V30 38381 H 3761.27 3.61449 3.49805 0
M  V30 38382 H 3760.97 5.19827 2.73958 0
M  V30 38383 H 3762.5 4.91204 3.62699 0
M  V30 38384 H 3763.91 5.54757 1.44628 0
M  V30 38385 H 3762.31 5.95189 0.766198 0
M  V30 38386 H 3763.38 4.84761 -0.11623 0
M  V30 38387 N 3764.72 -0.110185 1.57214 0
M  V30 38388 C 3766 -0.847218 1.763 0
M  V30 38389 C 3766.38 -1.97655 0.741329 0
M  V30 38390 O 3765.73 -2.27308 -0.233064 0
M  V30 38391 C 3765.94 -1.35576 3.2159 0
M  V30 38392 C 3767.28 -1.80459 3.84343 0
M  V30 38393 O 3768.31 -1.45235 3.25246 0
M  V30 38394 O 3767.17 -2.45537 4.88235 0
M  V30 38395 H 3764.26 -0.40298 0.722175 0
M  V30 38396 H 3766.81 -0.0932397 1.69444 0
M  V30 38397 H 3765.58 -0.545922 3.87473 0
M  V30 38398 H 3765.2 -2.17219 3.33019 0
M  V30 38399 N 3766.2 -1.52935 -0.38061 0
M  V30 38400 C 3767.15 -1.78309 -1.46541 0
M  V30 38401 C 3768.12 -0.626698 -1.53824 0
M  V30 38402 O 3769.3 -0.867306 -1.69948 0
M  V30 38403 C 3766.44 -1.9653 -2.83672 0
M  V30 38404 C 3765.55 -3.24234 -2.85476 0
M  V30 38405 C 3764.69 -3.32725 -4.14086 0
M  V30 38406 C 3763.73 -4.5452 -4.09974 0
M  V30 38407 N 3762.86 -4.60246 -5.30206 0
M  V30 38408 H 3767.7 -2.70882 -1.24205 0
M  V30 38409 H 3765.24 -1.342 -0.602387 0
M  V30 38410 H 3767.2 -2.05079 -3.63316 0
M  V30 38411 H 3765.83 -1.07309 -3.04441 0
M  V30 38412 H 3764.88 -3.24714 -1.98154 0
M  V30 38413 H 3766.19 -4.13941 -2.78306 0
M  V30 38414 H 3765.35 -3.40503 -5.02138 0
M  V30 38415 H 3764.09 -2.41007 -4.23989 0
M  V30 38416 H 3763.09 -4.46858 -3.2031 0
M  V30 38417 H 3764.32 -5.47563 -4.01686 0
M  V30 38418 H 3762.26 -3.71423 -5.40722 0
M  V30 38419 H 3762.18 -5.43836 -5.25146 0
M  V30 38420 H 3763.45 -4.72289 -6.20131 0
M  V30 38421 N 3767.68 0.639548 -1.4404 0
M  V30 38422 C 3768.59 1.78074 -1.52731 0
M  V30 38423 C 3769.6 1.69015 -0.413497 0
M  V30 38424 O 3770.78 1.89942 -0.669625 0
M  V30 38425 C 3767.84 3.14421 -1.46083 0
M  V30 38426 C 3766.9 3.35174 -2.68247 0
M  V30 38427 C 3766.14 4.65016 -2.61907 0
M  V30 38428 O 3766.36 5.4527 -1.6744 0
M  V30 38429 O 3765.29 4.87788 -3.52627 0
M  V30 38430 H 3769.12 1.73696 -2.49125 0
M  V30 38431 H 3766.71 0.799733 -1.26193 0
M  V30 38432 H 3768.59 3.95716 -1.44868 0
M  V30 38433 H 3767.26 3.1936 -0.528292 0
M  V30 38434 H 3766.17 2.5359 -2.75032 0
M  V30 38435 H 3767.5 3.35091 -3.6052 0
M  V30 38436 N 3769.15 1.30798 0.879184 0
M  V30 38437 C 3770.43 1.10604 1.61326 0
M  V30 38438 C 3770.81 -0.342584 2.08302 0
M  V30 38439 O 3770.16 -1.33511 1.85438 0
M  V30 38440 C 3770.37 2.11208 2.77835 0
M  V30 38441 C 3771.72 2.43237 3.48024 0
M  V30 38442 O 3772.74 2.09564 2.8803 0
M  V30 38443 O 3771.6 3.00862 4.56228 0
M  V30 38444 H 3768.69 0.425186 0.709328 0
M  V30 38445 H 3771.24 1.42244 0.925453 0
M  V30 38446 H 3770.01 3.08691 2.40469 0
M  V30 38447 H 3769.64 1.8042 3.54308 0
M  V30 38448 N 3770.63 -1.09229 1.13608 0
M  V30 38449 C 3771.58 -2.15919 0.815317 0
M  V30 38450 C 3772.55 -1.6459 -0.223472 0
M  V30 38451 O 3773.74 -1.90562 -0.0952647 0
M  V30 38452 C 3770.88 -3.43882 0.289716 0
M  V30 38453 C 3769.99 -4.09101 1.3878 0
M  V30 38454 C 3769.12 -5.24828 0.82033 0
M  V30 38455 C 3768.16 -5.81973 1.89668 0
M  V30 38456 N 3767.3 -6.89058 1.347 0
M  V30 38457 H 3772.14 -2.427 1.72918 0
M  V30 38458 H 3769.68 -1.19116 0.863122 0
M  V30 38459 H 3771.63 -4.17187 -0.0331665 0
M  V30 38460 H 3770.26 -3.17413 -0.587273 0
M  V30 38461 H 3769.32 -3.33641 1.82724 0
M  V30 38462 H 3770.63 -4.47602 2.20122 0
M  V30 38463 H 3769.78 -6.05037 0.448852 0
M  V30 38464 H 3768.52 -4.87694 -0.0241404 0
M  V30 38465 H 3767.53 -5.00423 2.2772 0
M  V30 38466 H 3768.75 -6.21168 2.74459 0
M  V30 38467 H 3766.7 -6.53899 0.524568 0
M  V30 38468 H 3766.61 -7.26338 2.09688 0
M  V30 38469 H 3767.88 -7.73018 1.00316 0
M  V30 38470 N 3772.11 -0.929901 -1.27242 0
M  V30 38471 C 3773.39 -0.489807 -1.89368 0
M  V30 38472 C 3773.77 1.03219 -1.84144 0
M  V30 38473 O 3773.12 1.88731 -1.28814 0
M  V30 38474 C 3773.33 -1.03839 -3.33194 0
M  V30 38475 C 3774.67 -1.10021 -4.10098 0
M  V30 38476 O 3775.7 -0.988166 -3.42219 0
M  V30 38477 O 3774.56 -1.27305 -5.31466 0
M  V30 38478 H 3771.65 -0.157897 -0.811787 0
M  V30 38479 H 3774.2 -1.02173 -1.35494 0
M  V30 38480 H 3772.97 -2.0822 -3.31301 0
M  V30 38481 H 3772.59 -0.488236 -3.94591 0
M  V30 38482 N 3773.59 1.41416 -0.695653 0
M  V30 38483 C 3774.52 2.33457 -0.0447424 0
M  V30 38484 C 3775.5 1.51822 0.767078 0
M  V30 38485 O 3776.69 1.80358 0.720034 0
M  V30 38486 C 3773.82 3.35642 0.892294 0
M  V30 38487 C 3772.77 4.27589 0.187563 0
M  V30 38488 C 3772.1 5.20148 1.23896 0
M  V30 38489 C 3773.4 5.13658 -0.946183 0
M  V30 38490 H 3775.09 2.88137 -0.813481 0
M  V30 38491 H 3772.64 1.38544 -0.392639 0
M  V30 38492 H 3774.59 3.98957 1.35689 0
M  V30 38493 H 3773.31 2.79312 1.6927 0
M  V30 38494 H 3771.97 3.65698 -0.257006 0
M  V30 38495 H 3771.62 4.60134 2.0319 0
M  V30 38496 H 3771.32 5.82501 0.772433 0
M  V30 38497 H 3772.84 5.86339 1.70407 0
M  V30 38498 H 3774.26 5.7054 -0.561864 0
M  V30 38499 H 3772.65 5.84952 -1.33981 0
M  V30 38500 H 3773.72 4.50818 -1.78581 0
M  V30 38501 N 3775.07 0.44041 1.51321 0
M  V30 38502 C 3776.32 -0.126546 2.01303 0
M  V30 38503 C 3776.63 -1.43516 1.32901 0
M  V30 38504 O 3777.84 -2.08524 1.73868 0
M  V30 38505 C 3776.29 -0.276063 3.5884 0
M  V30 38506 C 3775.9 1.0223 4.3618 0
M  V30 38507 C 3777.64 -0.796623 4.16958 0
M  V30 38508 C 3775.55 0.838251 5.85429 0
M  V30 38509 H 3774.48 -0.0510677 0.752269 0
M  V30 38510 H 3777.13 0.57064 1.74402 0
M  V30 38511 H 3775.51 -1.03632 3.82199 0
M  V30 38512 H 3776.69 1.79112 4.24565 0
M  V30 38513 H 3775 1.47162 3.89528 0
M  V30 38514 H 3777.6 -0.950857 5.26178 0
M  V30 38515 H 3777.94 -1.77989 3.76332 0
M  V30 38516 H 3778.48 -0.0945914 3.97688 0
M  V30 38517 H 3775.21 1.79399 6.30473 0
M  V30 38518 H 3774.73 0.109272 5.997 0
M  V30 38519 H 3776.41 0.49266 6.45122 0
M  V30 38520 N 3776.55 -1.5666 0.171876 0
M  V30 38521 C 3777.48 -2.20997 -0.753822 0
M  V30 38522 C 3778.46 -1.16576 -1.23871 0
M  V30 38523 O 3779.64 -1.45007 -1.29176 0
M  V30 38524 C 3776.77 -2.85116 -1.98309 0
M  V30 38525 C 3775.73 -3.9558 -1.63403 0
M  V30 38526 C 3775.05 -4.46751 -2.93799 0
M  V30 38527 C 3776.35 -5.15144 -0.861623 0
M  V30 38528 H 3778.05 -2.98609 -0.217545 0
M  V30 38529 H 3775.59 -1.4363 -0.103195 0
M  V30 38530 H 3777.54 -3.28799 -2.6357 0
M  V30 38531 H 3776.27 -2.04874 -2.54351 0
M  V30 38532 H 3774.93 -3.52553 -1.0051 0
M  V30 38533 H 3774.58 -3.63299 -3.47883 0
M  V30 38534 H 3774.28 -5.21273 -2.71198 0
M  V30 38535 H 3775.8 -4.93121 -3.60089 0
M  V30 38536 H 3777.21 -5.55517 -1.41684 0
M  V30 38537 H 3775.61 -5.95587 -0.734623 0
M  V30 38538 H 3776.68 -4.84692 0.141936 0
M  V30 38539 N 3778.02 0.101846 -1.57271 0
M  V30 38540 C 3779.25 0.820296 -1.89944 0
M  V30 38541 C 3779.67 1.72612 -0.764898 0
M  V30 38542 O 3779.02 1.80588 0.263467 0
M  V30 38543 C 3779.07 1.63934 -3.22192 0
M  V30 38544 O 3778.8 0.769964 -4.31281 0
M  V30 38545 C 3780.3 2.46144 -3.68684 0
M  V30 38546 H 3777.52 0.234911 -0.628536 0
M  V30 38547 H 3780.06 0.0811003 -2.04339 0
M  V30 38548 H 3778.22 2.33111 -3.09416 0
M  V30 38549 H 3778.63 1.33656 -5.07185 0
M  V30 38550 H 3780.1 2.99116 -4.63933 0
M  V30 38551 H 3780.58 3.24297 -2.96189 0
M  V30 38552 H 3781.19 1.82178 -3.84306 0
M  V30 38553 N 3779.5 1.53135 0.372494 0
M  V30 38554 C 3780.75 1.68203 1.11313 0
M  V30 38555 C 3781.06 0.436748 1.90662 0
M  V30 38556 O 3782.27 0.467849 2.67439 0
M  V30 38557 C 3780.73 2.9732 2.02802 0
M  V30 38558 C 3780.33 4.29086 1.28798 0
M  V30 38559 C 3782.08 3.21755 2.769 0
M  V30 38560 C 3779.98 5.49297 2.19149 0
M  V30 38561 H 3778.91 0.626692 0.419253 0
M  V30 38562 H 3781.57 1.79635 0.374645 0
M  V30 38563 H 3779.95 2.79674 2.80354 0
M  V30 38564 H 3781.12 4.57341 0.563581 0
M  V30 38565 H 3779.44 4.11041 0.665916 0
M  V30 38566 H 3782.03 4.0875 3.44713 0
M  V30 38567 H 3782.38 2.37523 3.4189 0
M  V30 38568 H 3782.91 3.40043 2.06435 0
M  V30 38569 H 3779.65 6.35987 1.58749 0
M  V30 38570 H 3779.17 5.25332 2.89459 0
M  V30 38571 H 3780.85 5.83819 2.78864 0
M  V30 38572 N 3780.98 -0.6319 1.44377 0
M  V30 38573 C 3782.21 -1.4187 1.50601 0
M  V30 38574 C 3782.62 -1.88348 0.130622 0
M  V30 38575 O 3781.98 -1.60788 -0.863332 0
M  V30 38576 C 3782.03 -2.63953 2.47004 0
M  V30 38577 O 3781.75 -2.19413 3.79196 0
M  V30 38578 C 3783.25 -3.57088 2.62685 0
M  V30 38579 H 3780.47 -0.435115 0.5108 0
M  V30 38580 H 3783.02 -0.77286 1.89333 0
M  V30 38581 H 3781.17 -3.2463 2.1141 0
M  V30 38582 H 3781.59 -2.98555 4.31237 0
M  V30 38583 H 3783.06 -4.39358 3.34169 0
M  V30 38584 H 3783.54 -4.05845 1.67889 0
M  V30 38585 H 3784.14 -3.0228 2.99178 0
M  V30 38586 N 3782.46 -1.31262 -0.872235 0
M  V30 38587 C 3783.37 -1.20676 -2.01183 0
M  V30 38588 C 3784.38 -0.123952 -1.73558 0
M  V30 38589 O 3785.56 -0.341323 -1.98487 0
M  V30 38590 C 3782.62 -0.912379 -3.3448 0
M  V30 38591 C 3781.69 -2.08186 -3.75443 0
M  V30 38592 C 3780.92 -1.80142 -5.02379 0
M  V30 38593 O 3781.14 -0.735457 -5.65639 0
M  V30 38594 O 3780.08 -2.65754 -5.40054 0
M  V30 38595 H 3783.9 -2.16438 -2.13045 0
M  V30 38596 H 3781.49 -1.1098 -1.00019 0
M  V30 38597 H 3783.37 -0.763952 -4.14417 0
M  V30 38598 H 3782.04 0.0152233 -3.23696 0
M  V30 38599 H 3780.95 -2.28567 -2.96155 0
M  V30 38600 H 3782.28 -2.99163 -3.90848 0
M  V30 38601 N 3783.94 1.08625 -1.14186 0
M  V30 38602 C 3785.16 1.85253 -0.932537 0
M  V30 38603 C 3785.59 1.80948 0.51376 0
M  V30 38604 O 3784.94 1.19294 1.36523 0
M  V30 38605 C 3784.99 3.30807 -1.43525 0
M  V30 38606 O 3784.1 4.07623 -0.625878 0
M  V30 38607 H 3783.44 0.574124 -0.333583 0
M  V30 38608 H 3785.97 1.37118 -1.51855 0
M  V30 38609 H 3785.98 3.81651 -1.44245 0
M  V30 38610 H 3784.65 3.33255 -2.48825 0
M  V30 38611 H 3783.23 3.66513 -0.687232 0
M  V30 38612 N 3785.41 0.936635 1.26747 0
M  V30 38613 C 3786.64 0.598392 1.98058 0
M  V30 38614 C 3787.06 -0.825616 1.69791 0
M  V30 38615 O 3786.41 -1.54991 0.963542 0
M  V30 38616 C 3786.47 0.825581 3.51947 0
M  V30 38617 O 3786.19 2.19358 3.79228 0
M  V30 38618 C 3787.69 0.497264 4.40502 0
M  V30 38619 H 3784.91 0.225925 0.631822 0
M  V30 38620 H 3787.45 1.2561 1.61376 0
M  V30 38621 H 3785.61 0.214547 3.86805 0
M  V30 38622 H 3786.02 2.25022 4.73778 0
M  V30 38623 H 3787.49 0.706875 5.47455 0
M  V30 38624 H 3787.97 -0.567569 4.35517 0
M  V30 38625 H 3788.58 1.08683 4.11179 0
M  V30 38626 N 3786.89 -1.41045 0.703143 0
M  V30 38627 C 3788.14 -2.00334 0.234381 0
M  V30 38628 C 3788.45 -1.56359 -1.17522 0
M  V30 38629 O 3789.66 -2.0826 -1.74184 0
M  V30 38630 C 3788.12 -3.58012 0.36813 0
M  V30 38631 C 3787.72 -4.10965 1.78358 0
M  V30 38632 C 3789.47 -4.24481 -0.040471 0
M  V30 38633 C 3787.38 -5.61104 1.86857 0
M  V30 38634 H 3786.31 -0.749321 0.0838715 0
M  V30 38635 H 3788.96 -1.61434 0.872436 0
M  V30 38636 H 3787.34 -3.94552 -0.338302 0
M  V30 38637 H 3788.51 -3.85829 2.51938 0
M  V30 38638 H 3786.83 -3.5705 2.14253 0
M  V30 38639 H 3789.42 -5.347 0.00249201 0
M  V30 38640 H 3789.77 -4.02036 -1.08042 0
M  V30 38641 H 3790.3 -3.93002 0.615956 0
M  V30 38642 H 3787.04 -5.88387 2.8893 0
M  V30 38643 H 3786.56 -5.88144 1.17672 0
M  V30 38644 H 3788.24 -6.26002 1.63495 0
M  V30 38645 N 3788.37 -0.448429 -1.51086 0
M  V30 38646 C 3789.3 0.347732 -2.30896 0
M  V30 38647 C 3790.28 1.01102 -1.36793 0
M  V30 38648 O 3791.47 1.01254 -1.65715 0
M  V30 38649 C 3788.6 1.44298 -3.15904 0
M  V30 38650 C 3787.55 0.902577 -4.18375 0
M  V30 38651 C 3786.88 2.09442 -4.91974 0
M  V30 38652 C 3788.18 -0.0706253 -5.22252 0
M  V30 38653 H 3789.87 -0.318325 -2.97703 0
M  V30 38654 H 3787.42 -0.154534 -1.43168 0
M  V30 38655 H 3789.37 2.00726 -3.70523 0
M  V30 38656 H 3788.09 2.13749 -2.46939 0
M  V30 38657 H 3786.75 0.360436 -3.64824 0
M  V30 38658 H 3786.4 2.77537 -4.19502 0
M  V30 38659 H 3786.1 1.73916 -5.61273 0
M  V30 38660 H 3787.62 2.66402 -5.4942 0
M  V30 38661 H 3789.04 0.403714 -5.71877 0
M  V30 38662 H 3787.44 -0.33901 -5.99142 0
M  V30 38663 H 3788.51 -1.00381 -4.74396 0
M  V30 38664 N 3789.85 1.56567 -0.180181 0
M  V30 38665 C 3790.76 2.21985 0.75892 0
M  V30 38666 C 3791.77 1.21424 1.24628 0
M  V30 38667 O 3792.95 1.54114 1.29656 0
M  V30 38668 C 3790.02 2.85472 1.96739 0
M  V30 38669 C 3789.08 4.01261 1.52605 0
M  V30 38670 C 3788.31 4.61711 2.67692 0
M  V30 38671 O 3788.53 4.2106 3.84791 0
M  V30 38672 O 3787.47 5.51432 2.41259 0
M  V30 38673 H 3791.29 3.02814 0.231866 0
M  V30 38674 H 3788.88 1.49321 0.0484289 0
M  V30 38675 H 3790.76 3.25694 2.67398 0
M  V30 38676 H 3789.43 2.07634 2.48334 0
M  V30 38677 H 3788.34 3.65691 0.788705 0
M  V30 38678 H 3789.67 4.80718 1.05693 0
M  V30 38679 N 3791.33 -0.0935042 1.57322 0
M  V30 38680 C 3792.58 -0.795412 1.85354 0
M  V30 38681 C 3792.89 -1.7982 0.769678 0
M  V30 38682 O 3794.09 -2.54813 0.937166 0
M  V30 38683 C 3792.55 -1.46544 3.28714 0
M  V30 38684 C 3792.16 -0.502336 4.45175 0
M  V30 38685 C 3793.9 -2.15099 3.65968 0
M  V30 38686 C 3791.81 -1.17705 5.79568 0
M  V30 38687 H 3790.74 -0.300804 0.691399 0
M  V30 38688 H 3793.39 -0.0483741 1.83436 0
M  V30 38689 H 3791.77 -2.25999 3.25177 0
M  V30 38690 H 3792.95 0.260835 4.60061 0
M  V30 38691 H 3791.26 0.0775918 4.16328 0
M  V30 38692 H 3793.86 -2.66315 4.6366 0
M  V30 38693 H 3794.2 -2.94064 2.94673 0
M  V30 38694 H 3794.73 -1.42502 3.714 0
M  V30 38695 H 3791.47 -0.428162 6.541 0
M  V30 38696 H 3790.99 -1.9116 5.68522 0
M  V30 38697 H 3792.67 -1.70307 6.24183 0
M  V30 38698 N 3792.8 -1.5333 -0.364368 0
M  V30 38699 C 3793.73 -1.82832 -1.4524 0
M  V30 38700 C 3794.72 -0.681913 -1.55833 0
M  V30 38701 O 3795.9 -0.931875 -1.70381 0
M  V30 38702 C 3793.03 -2.01931 -2.82562 0
M  V30 38703 C 3791.98 -3.17702 -2.86792 0
M  V30 38704 C 3791.31 -3.22096 -4.268 0
M  V30 38705 C 3792.61 -4.56265 -2.54204 0
M  V30 38706 H 3794.3 -2.73949 -1.208 0
M  V30 38707 H 3791.85 -1.31817 -0.579682 0
M  V30 38708 H 3793.8 -2.21153 -3.58705 0
M  V30 38709 H 3792.53 -1.07526 -3.08392 0
M  V30 38710 H 3791.19 -2.98302 -2.131 0
M  V30 38711 H 3790.83 -2.25326 -4.49708 0
M  V30 38712 H 3790.53 -3.9988 -4.30546 0
M  V30 38713 H 3792.06 -3.43504 -5.04815 0
M  V30 38714 H 3793.47 -4.75641 -3.20061 0
M  V30 38715 H 3791.87 -5.36299 -2.69264 0
M  V30 38716 H 3792.94 -4.61295 -1.4945 0
M  V30 38717 N 3794.28 0.624234 -1.4471 0
M  V30 38718 C 3795.69 1.20597 -1.42525 0
M  V30 38719 C 3796.04 1.9567 -0.144163 0
M  V30 38720 O 3795.17 2.02797 0.755139 0
M  V30 38721 C 3795.76 2.19361 -2.58198 0
M  V30 38722 C 3794.32 2.72946 -2.59186 0
M  V30 38723 C 3793.47 1.48061 -2.34464 0
M  V30 38724 H 3796.42 0.414505 -1.53191 0
M  V30 38725 H 3796.44 3.02092 -2.31345 0
M  V30 38726 H 3795.95 1.64693 -3.51422 0
M  V30 38727 H 3794.06 3.31598 -1.69922 0
M  V30 38728 H 3794.17 3.18515 -3.5789 0
M  V30 38729 H 3792.53 1.76436 -1.83692 0
M  V30 38730 H 3793.32 0.95286 -3.29811 0
M  V30 38731 N 3795.76 1.31723 0.865262 0
M  V30 38732 C 3796.67 1.21741 2.0054 0
M  V30 38733 C 3797.69 0.133154 1.7349 0
M  V30 38734 O 3798.86 0.351844 1.98303 0
M  V30 38735 C 3795.93 0.930104 3.33991 0
M  V30 38736 C 3794.99 2.10174 3.74333 0
M  V30 38737 C 3794.22 1.82804 5.01416 0
M  V30 38738 O 3794.44 0.765444 5.65241 0
M  V30 38739 O 3793.38 2.68614 5.38637 0
M  V30 38740 H 3797.2 2.17565 2.11895 0
M  V30 38741 H 3794.79 1.11509 0.994293 0
M  V30 38742 H 3796.67 0.785919 4.14006 0
M  V30 38743 H 3795.35 0.00194332 3.237 0
M  V30 38744 H 3794.25 2.30135 2.94939 0
M  V30 38745 H 3795.59 3.01232 3.89256 0
M  V30 38746 N 3797.24 -1.08018 1.14761 0
M  V30 38747 C 3798.17 -2.17046 0.861016 0
M  V30 38748 C 3799.15 -1.69084 -0.185623 0
M  V30 38749 O 3800.33 -1.94156 -0.0414456 0
M  V30 38750 C 3797.46 -3.45611 0.342079 0
M  V30 38751 C 3796.42 -4.06986 1.32462 0
M  V30 38752 C 3795.74 -5.30551 0.664814 0
M  V30 38753 C 3797.04 -4.47805 2.68827 0
M  V30 38754 H 3798.74 -2.41277 1.77273 0
M  V30 38755 H 3796.28 -1.1596 0.853778 0
M  V30 38756 H 3798.24 -4.21202 0.129167 0
M  V30 38757 H 3796.96 -3.20946 -0.605081 0
M  V30 38758 H 3795.62 -3.33432 1.52377 0
M  V30 38759 H 3795.27 -5.02173 -0.288279 0
M  V30 38760 H 3794.97 -5.72571 1.32046 0
M  V30 38761 H 3796.49 -6.08853 0.461519 0
M  V30 38762 H 3797.91 -5.14555 2.52797 0
M  V30 38763 H 3796.3 -5.00755 3.30702 0
M  V30 38764 H 3797.37 -3.595 3.25404 0
M  V30 38765 N 3798.72 -0.943344 -1.26249 0
M  V30 38766 C 3799.94 -0.608887 -1.97738 0
M  V30 38767 C 3800.36 0.8166 -1.70227 0
M  V30 38768 O 3799.72 1.54478 -0.971747 0
M  V30 38769 C 3799.77 -0.844234 -3.51504 0
M  V30 38770 O 3799.49 -2.21366 -3.78059 0
M  V30 38771 C 3800.99 -0.520617 -4.40232 0
M  V30 38772 H 3798.21 -0.229273 -0.630615 0
M  V30 38773 H 3800.75 -1.26464 -1.60708 0
M  V30 38774 H 3798.91 -0.235058 -3.86686 0
M  V30 38775 H 3799.32 -2.27531 -4.72578 0
M  V30 38776 H 3800.8 -0.735898 -5.47073 0
M  V30 38777 H 3801.27 0.544464 -4.35812 0
M  V30 38778 H 3801.88 -1.10862 -4.10597 0
M  V30 38779 N 3800.2 1.4067 -0.710613 0
M  V30 38780 C 3801.42 2.05813 -0.256043 0
M  V30 38781 C 3801.85 1.53175 1.09175 0
M  V30 38782 O 3801.2 0.665006 1.68663 0
M  V30 38783 C 3801.25 3.59796 -0.240591 0
M  V30 38784 O 3800.36 4.04961 0.779788 0
M  V30 38785 H 3799.7 0.652819 -0.121337 0
M  V30 38786 H 3802.23 1.80161 -0.969698 0
M  V30 38787 H 3802.24 4.07928 -0.0765744 0
M  V30 38788 H 3800.91 3.97475 -1.22418 0
M  V30 38789 H 3799.49 3.683 0.5839 0
M  V30 38790 N 3801.67 0.456435 1.50846 0
M  V30 38791 C 3802.95 -0.164451 1.94907 0
M  V30 38792 C 3803.33 -1.58341 1.39612 0
M  V30 38793 O 3802.68 -2.20725 0.59101 0
M  V30 38794 C 3802.89 -0.122733 3.48784 0
M  V30 38795 C 3804.24 -0.31889 4.23401 0
M  V30 38796 O 3805.26 -0.199988 3.55638 0
M  V30 38797 O 3804.12 -0.557412 5.4365 0
M  V30 38798 H 3801.21 -0.119638 0.818301 0
M  V30 38799 H 3803.76 0.515786 1.61672 0
M  V30 38800 H 3802.53 0.868535 3.81539 0
M  V30 38801 H 3802.15 -0.845062 3.88516 0
M  V30 38802 N 3803.15 -1.56469 0.188482 0
M  V30 38803 C 3804.1 -2.18783 -0.735035 0
M  V30 38804 C 3805.07 -1.13303 -1.21457 0
M  V30 38805 O 3806.25 -1.41526 -1.27965 0
M  V30 38806 C 3803.39 -2.84605 -1.95176 0
M  V30 38807 C 3802.51 -4.04593 -1.51421 0
M  V30 38808 C 3801.64 -4.58291 -2.68593 0
M  V30 38809 C 3800.68 -5.70651 -2.21412 0
M  V30 38810 N 3799.82 -6.18785 -3.31738 0
M  V30 38811 H 3804.66 -2.97349 -0.196888 0
M  V30 38812 H 3802.19 -1.46852 -0.0854435 0
M  V30 38813 H 3804.15 -3.20934 -2.66565 0
M  V30 38814 H 3802.78 -2.08614 -2.46333 0
M  V30 38815 H 3801.83 -3.73971 -0.696435 0
M  V30 38816 H 3803.15 -4.85878 -1.12801 0
M  V30 38817 H 3802.3 -4.96892 -3.48114 0
M  V30 38818 H 3801.04 -3.761 -3.10484 0
M  V30 38819 H 3800.04 -5.31586 -1.40343 0
M  V30 38820 H 3801.27 -6.54656 -1.8056 0
M  V30 38821 H 3799.22 -5.39517 -3.73172 0
M  V30 38822 H 3799.13 -6.95104 -2.97265 0
M  V30 38823 H 3800.4 -6.62038 -4.11493 0
M  V30 38824 N 3804.63 0.0851597 -1.5737 0
M  V30 38825 C 3805.58 1.12139 -2.03783 0
M  V30 38826 C 3806.57 1.4088 -0.940694 0
M  V30 38827 O 3807.78 1.40445 -1.12585 0
M  V30 38828 H 3804.15 0.378903 -0.649567 0
M  V30 38829 H 3806.12 0.703685 -2.89984 0
M  V30 38830 C 3804.87 2.43058 -2.48632 0
M  V30 38831 H 3804.2 2.21789 -3.32641 0
M  V30 38832 H 3805.64 3.14043 -2.84874 0
M  V30 38833 C 3804.09 3.08067 -1.36369 0
M  V30 38834 O 3804.62 3.95583 -0.698343 0
M  V30 38835 N 3802.83 2.68475 -1.11217 0
M  V30 38836 H 3802.38 1.97399 -1.65504 0
M  V30 38837 H 3802.34 3.12297 -0.363058 0
M  V30 38838 N 3806.11 1.53521 0.356231 0
M  V30 38839 C 3807.34 1.74077 1.11825 0
M  V30 38840 C 3807.75 0.47403 1.82752 0
M  V30 38841 O 3807.11 -0.553618 1.739 0
M  V30 38842 C 3807.16 2.91247 2.14144 0
M  V30 38843 O 3806.88 4.1302 1.46103 0
M  V30 38844 C 3808.38 3.23751 3.0282 0
M  V30 38845 H 3805.6 0.581971 0.333992 0
M  V30 38846 H 3808.14 2.00301 0.4123 0
M  V30 38847 H 3806.3 2.67391 2.80323 0
M  V30 38848 H 3806.71 4.787 2.14352 0
M  V30 38849 H 3808.19 4.09118 3.70576 0
M  V30 38850 H 3808.66 2.39512 3.68145 0
M  V30 38851 H 3809.27 3.49567 2.42246 0
M  V30 38852 N 3807.59 -0.616551 1.45039 0
M  V30 38853 C 3808.83 -1.37184 1.47863 0
M  V30 38854 C 3809.15 -1.95226 0.120896 0
M  V30 38855 O 3810.35 -2.71487 0.026735 0
M  V30 38856 C 3808.81 -2.48451 2.60385 0
M  V30 38857 C 3808.42 -1.96859 4.02431 0
M  V30 38858 C 3810.16 -3.25536 2.72445 0
M  V30 38859 C 3808.07 -3.05555 5.0635 0
M  V30 38860 H 3807 -0.51558 0.550175 0
M  V30 38861 H 3809.65 -0.661766 1.71152 0
M  V30 38862 H 3808.03 -3.22101 2.30363 0
M  V30 38863 H 3809.21 -1.29977 4.42089 0
M  V30 38864 H 3807.52 -1.32545 3.94741 0
M  V30 38865 H 3810.12 -4.06593 3.47255 0
M  V30 38866 H 3810.46 -3.75963 1.78766 0
M  V30 38867 H 3810.99 -2.58982 3.01949 0
M  V30 38868 H 3807.73 -2.60055 6.01707 0
M  V30 38869 H 3807.25 -3.71031 4.7127 0
M  V30 38870 H 3808.93 -3.70088 5.30702 0
M  V30 38871 N 3809.06 -1.3218 -0.858264 0
M  V30 38872 C 3810.31 -1.2189 -1.60704 0
M  V30 38873 C 3810.63 0.218802 -1.94372 0
M  V30 38874 O 3811.83 0.443525 -2.67853 0
M  V30 38875 C 3810.29 -2.13457 -2.89766 0
M  V30 38876 C 3809.9 -3.62288 -2.63536 0
M  V30 38877 C 3811.64 -2.11994 -3.67775 0
M  V30 38878 C 3809.55 -4.45827 -3.88577 0
M  V30 38879 H 3808.48 -0.452643 -0.603018 0
M  V30 38880 H 3811.13 -1.57116 -0.947988 0
M  V30 38881 H 3809.51 -1.71141 -3.57109 0
M  V30 38882 H 3810.68 -4.12923 -2.04527 0
M  V30 38883 H 3809 -3.65845 -1.98862 0
M  V30 38884 H 3811.6 -2.71647 -4.60556 0
M  V30 38885 H 3811.94 -1.11002 -4.01229 0
M  V30 38886 H 3812.47 -2.52571 -3.07332 0
M  V30 38887 H 3809.21 -5.4762 -3.60267 0
M  V30 38888 H 3808.73 -3.99945 -4.46994 0
M  V30 38889 H 3810.41 -4.58643 -4.5635 0
M  V30 38890 N 3810.54 1.07407 -1.15332 0
M  V30 38891 C 3811.82 1.76722 -0.838372 0
M  V30 38892 C 3812.2 2.00314 0.666134 0
M  V30 38893 O 3811.55 1.62116 1.6103 0
M  V30 38894 C 3811.76 3.07612 -1.64852 0
M  V30 38895 C 3813.1 3.81967 -1.85435 0
M  V30 38896 O 3814.13 3.17422 -1.61623 0
M  V30 38897 O 3812.99 4.97892 -2.25313 0
M  V30 38898 H 3810.08 0.767403 -0.308256 0
M  V30 38899 H 3812.63 1.13778 -1.25907 0
M  V30 38900 H 3811.4 2.86054 -2.67 0
M  V30 38901 H 3811.02 3.78287 -1.22412 0
M  V30 38902 N 3812.02 0.950026 1.25747 0
M  V30 38903 C 3813.27 0.598022 1.92631 0
M  V30 38904 C 3813.58 -0.868334 1.75269 0
M  V30 38905 O 3814.79 -1.3301 2.36687 0
M  V30 38906 C 3813.24 1.01885 3.45178 0
M  V30 38907 C 3812.85 2.50743 3.71257 0
M  V30 38908 C 3814.6 0.739157 4.18015 0
M  V30 38909 C 3812.5 2.8665 5.17287 0
M  V30 38910 H 3811.43 0.219951 0.721206 0
M  V30 38911 H 3814.08 1.15386 1.42683 0
M  V30 38912 H 3812.47 0.391464 3.9406 0
M  V30 38913 H 3813.64 3.18461 3.33045 0
M  V30 38914 H 3811.95 2.76135 3.11671 0
M  V30 38915 H 3814.55 0.983648 5.25574 0
M  V30 38916 H 3814.89 -0.324317 4.15035 0
M  V30 38917 H 3815.43 1.32667 3.75026 0
M  V30 38918 H 3812.17 3.91996 5.25376 0
M  V30 38919 H 3811.69 2.23601 5.56563 0
M  V30 38920 H 3813.37 2.75592 5.8537 0
M  V30 38921 N 3813.5 -1.40291 0.718063 0
M  V30 38922 C 3814.77 -1.94717 0.185682 0
M  V30 38923 C 3815.15 -1.65605 -1.30913 0
M  V30 38924 O 3814.5 -0.975068 -2.06651 0
M  V30 38925 C 3814.71 -3.45384 0.501076 0
M  V30 38926 C 3816.06 -4.22303 0.441095 0
M  V30 38927 O 3817.08 -3.53506 0.437279 0
M  V30 38928 O 3815.94 -5.44878 0.420785 0
M  V30 38929 H 3813.04 -0.82652 0.0281726 0
M  V30 38930 H 3815.58 -1.49886 0.795765 0
M  V30 38931 H 3814.36 -3.59941 1.53486 0
M  V30 38932 H 3813.98 -3.97358 -0.138843 0
M  V30 38933 N 3814.98 -0.464428 -1.50602 0
M  V30 38934 C 3815.93 0.351696 -2.25271 0
M  V30 38935 C 3816.91 0.967163 -1.28588 0
M  V30 38936 O 3818.1 0.880816 -1.53527 0
M  V30 38937 C 3815.23 1.43695 -3.1178 0
M  V30 38938 C 3814.32 0.829547 -4.15908 0
M  V30 38939 N 3814.71 -0.0461734 -5.05779 0
M  V30 38940 C 3813.01 1.09422 -4.32369 0
M  V30 38941 C 3813.71 -0.390196 -5.8039 0
M  V30 38942 N 3812.68 0.232976 -5.43101 0
M  V30 38943 H 3816.49 -0.323015 -2.9212 0
M  V30 38944 H 3814 -0.278159 -1.6 0
M  V30 38945 H 3816 2.03474 -3.63873 0
M  V30 38946 H 3814.66 2.11372 -2.46479 0
M  V30 38947 H 3815.67 -0.414544 -5.16238 0
M  V30 38948 H 3812.34 1.76647 -3.78288 0
M  V30 38949 H 3813.73 -1.10447 -6.6276 0
M  V30 38950 N 3816.45 1.56367 -0.196777 0
M  V30 38951 C 3817.68 2.02011 0.447104 0
M  V30 38952 C 3818.1 1.0769 1.55075 0
M  V30 38953 O 3817.45 0.0820637 1.82315 0
M  V30 38954 C 3817.51 3.4734 1.00186 0
M  V30 38955 O 3817.23 4.38062 -0.0577629 0
M  V30 38956 C 3818.73 4.08511 1.72145 0
M  V30 38957 H 3815.95 0.661574 0.112076 0
M  V30 38958 H 3818.49 2.02198 -0.305976 0
M  V30 38959 H 3816.65 3.47847 1.70531 0
M  V30 38960 H 3817.06 5.23294 0.355416 0
M  V30 38961 H 3818.53 5.12045 2.0619 0
M  V30 38962 H 3819.01 3.52067 2.62575 0
M  V30 38963 H 3819.62 4.11781 1.0638 0
M  V30 38964 N 3817.93 -0.0768128 1.57413 0
M  V30 38965 C 3818.88 -1.09182 2.03342 0
M  V30 38966 C 3819.85 -1.38751 0.913097 0
M  V30 38967 O 3821.03 -1.49903 1.18041 0
M  V30 38968 C 3818.17 -2.40176 2.47809 0
M  V30 38969 C 3817.29 -2.17181 3.73439 0
M  V30 38970 C 3816.42 -3.41704 4.06709 0
M  V30 38971 C 3815.46 -3.14051 5.25394 0
M  V30 38972 N 3814.6 -4.3089 5.54327 0
M  V30 38973 H 3819.44 -0.693172 2.89826 0
M  V30 38974 H 3816.98 -0.33071 1.43334 0
M  V30 38975 H 3818.93 -3.1665 2.71641 0
M  V30 38976 H 3817.56 -2.77853 1.64309 0
M  V30 38977 H 3816.62 -1.31424 3.56976 0
M  V30 38978 H 3817.93 -1.92752 4.60052 0
M  V30 38979 H 3817.08 -4.26575 4.31414 0
M  V30 38980 H 3815.82 -3.69204 3.18652 0
M  V30 38981 H 3814.83 -2.27574 5.0049 0
M  V30 38982 H 3816.05 -2.87878 6.15064 0
M  V30 38983 H 3814 -4.58432 4.6923 0
M  V30 38984 H 3813.91 -4.09716 6.35349 0
M  V30 38985 H 3815.18 -5.16773 5.8358 0
M  V30 38986 N 3819.41 -1.53708 -0.348084 0
M  V30 38987 C 3820.82 -1.62235 -0.92395 0
M  V30 38988 C 3821.17 -0.500778 -1.89701 0
M  V30 38989 O 3820.3 0.370175 -2.1321 0
M  V30 38990 C 3820.89 -2.94067 -1.68255 0
M  V30 38991 C 3819.45 -3.04871 -2.2075 0
M  V30 38992 C 3818.6 -2.57652 -1.02522 0
M  V30 38993 H 3821.55 -1.58196 -0.126353 0
M  V30 38994 H 3821.57 -2.82852 -2.54509 0
M  V30 38995 H 3821.08 -3.75677 -0.974089 0
M  V30 38996 H 3819.18 -2.27886 -2.94786 0
M  V30 38997 H 3819.3 -4.10261 -2.47432 0
M  V30 38998 H 3817.66 -2.12949 -1.39731 0
M  V30 38999 H 3818.44 -3.41696 -0.331461 0
M  V30 39000 N 3820.89 0.608851 -1.45364 0
M  V30 39001 C 3822.13 1.36992 -1.49536 0
M  V30 39002 C 3822.47 1.93722 -0.136121 0
M  V30 39003 O 3821.74 1.7498 0.849246 0
M  V30 39004 C 3822.03 2.51877 -2.57352 0
M  V30 39005 C 3821.88 2.00351 -4.02715 0
M  V30 39006 C 3823.2 3.54011 -2.61465 0
M  V30 39007 H 3820.32 0.496757 -0.544427 0
M  V30 39008 H 3822.96 0.686442 -1.77167 0
M  V30 39009 H 3821.11 3.10181 -2.33923 0
M  V30 39010 H 3822.78 1.46705 -4.3735 0
M  V30 39011 H 3821.02 1.31361 -4.13433 0
M  V30 39012 H 3821.69 2.83162 -4.73839 0
M  V30 39013 H 3824.17 3.05545 -2.82456 0
M  V30 39014 H 3823.05 4.31888 -3.38769 0
M  V30 39015 H 3823.31 4.09546 -1.66506 0
M  V30 39016 N 3822.37 1.32633 0.851242 0
M  V30 39017 C 3823.6 1.26214 1.63566 0
M  V30 39018 C 3824 -0.171545 1.88421 0
M  V30 39019 O 3823.35 -1.12018 1.45594 0
M  V30 39020 C 3823.41 1.95571 3.01649 0
M  V30 39021 C 3823.07 3.44901 2.99821 0
M  V30 39022 C 3824.07 4.40325 2.76423 0
M  V30 39023 C 3821.76 3.86888 3.20348 0
M  V30 39024 C 3823.75 5.7571 2.73562 0
M  V30 39025 C 3821.44 5.22381 3.17113 0
M  V30 39026 C 3822.43 6.16604 2.9375 0
M  V30 39027 O 3822.12 7.49617 2.90395 0
M  V30 39028 H 3821.85 0.436631 0.516071 0
M  V30 39029 H 3824.41 1.75367 1.06938 0
M  V30 39030 H 3822.64 1.40992 3.60081 0
M  V30 39031 H 3824.33 1.82815 3.624 0
M  V30 39032 H 3825.09 4.09212 2.60327 0
M  V30 39033 H 3820.97 3.13968 3.37558 0
M  V30 39034 H 3824.52 6.49227 2.55245 0
M  V30 39035 H 3820.41 5.53123 3.32754 0
M  V30 39036 H 3821.18 7.59017 3.06325 0
M  V30 39037 N 3823.84 -1.06794 1.159 0
M  V30 39038 C 3824.75 -2.17667 0.875108 0
M  V30 39039 C 3825.77 -1.73346 -0.150733 0
M  V30 39040 O 3826.95 -2.01385 0.0246975 0
M  V30 39041 C 3824.01 -3.4467 0.374616 0
M  V30 39042 C 3823.07 -4.03528 1.46505 0
M  V30 39043 C 3822.31 -5.24469 0.988349 0
M  V30 39044 O 3822.53 -5.70164 -0.163892 0
M  V30 39045 O 3821.46 -5.75148 1.7745 0
M  V30 39046 H 3825.29 -2.44453 1.80212 0
M  V30 39047 H 3822.87 -1.16239 0.938561 0
M  V30 39048 H 3824.76 -4.21276 0.102235 0
M  V30 39049 H 3823.43 -3.19423 -0.524457 0
M  V30 39050 H 3822.34 -3.28436 1.79111 0
M  V30 39051 H 3823.67 -4.33059 2.33925 0
M  V30 39052 N 3825.32 -0.956681 -1.25241 0
M  V30 39053 C 3826.6 -0.529865 -1.88286 0
M  V30 39054 C 3826.98 0.992896 -1.86292 0
M  V30 39055 O 3826.33 1.85956 -1.32788 0
M  V30 39056 C 3826.54 -1.10883 -3.30917 0
M  V30 39057 C 3827.89 -1.18695 -4.07672 0
M  V30 39058 O 3828.91 -1.06053 -3.40046 0
M  V30 39059 O 3827.77 -1.3855 -5.28646 0
M  V30 39060 H 3824.86 -0.17508 -0.808255 0
M  V30 39061 H 3827.41 -1.05024 -1.33297 0
M  V30 39062 H 3826.18 -2.152 -3.2681 0
M  V30 39063 H 3825.8 -0.571825 -3.93467 0
M  V30 39064 N 3826.8 1.39908 -0.725493 0
M  V30 39065 C 3828.05 1.99935 -0.266223 0
M  V30 39066 C 3828.36 1.58209 1.15019 0
M  V30 39067 O 3829.57 2.11004 1.70849 0
M  V30 39068 C 3828.02 3.57381 -0.42504 0
M  V30 39069 C 3827.63 4.08076 -1.84873 0
M  V30 39070 C 3829.38 4.24491 -0.0270654 0
M  V30 39071 C 3827.28 5.58061 -1.95761 0
M  V30 39072 H 3826.21 0.747892 -0.0957819 0
M  V30 39073 H 3828.86 1.60025 -0.898008 0
M  V30 39074 H 3827.25 3.95041 0.275489 0
M  V30 39075 H 3828.42 3.81772 -2.58044 0
M  V30 39076 H 3826.74 3.53596 -2.19906 0
M  V30 39077 H 3829.33 5.34628 -0.0875578 0
M  V30 39078 H 3829.68 4.03704 1.01632 0
M  V30 39079 H 3830.21 3.91973 -0.678401 0
M  V30 39080 H 3826.95 5.83716 -2.98255 0
M  V30 39081 H 3826.47 5.86198 -1.27014 0
M  V30 39082 H 3828.15 6.23322 -1.73433 0
M  V30 39083 N 3828.28 0.472408 1.50353 0
M  V30 39084 C 3829.21 -0.310954 2.3142 0
M  V30 39085 C 3830.19 -0.989127 1.38385 0
M  V30 39086 O 3831.37 -0.986045 1.67304 0
M  V30 39087 C 3828.5 -1.39254 3.1816 0
M  V30 39088 C 3827.46 -0.835903 4.19758 0
M  V30 39089 C 3826.78 -2.01588 4.95244 0
M  V30 39090 C 3828.08 0.153702 5.22074 0
M  V30 39091 H 3829.78 0.365647 2.97159 0
M  V30 39092 H 3827.32 0.177291 1.42904 0
M  V30 39093 H 3829.28 -1.94806 3.73669 0
M  V30 39094 H 3828 -2.09793 2.50308 0
M  V30 39095 H 3826.66 -0.30235 3.65351 0
M  V30 39096 H 3826.31 -2.70828 4.23865 0
M  V30 39097 H 3826.01 -1.64964 5.63969 0
M  V30 39098 H 3827.53 -2.57628 5.53589 0
M  V30 39099 H 3828.95 -0.312682 5.72447 0
M  V30 39100 H 3827.34 0.434286 5.98526 0
M  V30 39101 H 3828.41 1.07916 4.72739 0
M  V30 39102 N 3829.76 -1.5626 0.205067 0
M  V30 39103 C 3831.01 -1.97468 -0.430211 0
M  V30 39104 C 3831.33 -1.09345 -1.61458 0
M  V30 39105 O 3830.6 -0.166871 -1.95188 0
M  V30 39106 H 3829.18 -0.729237 -0.161932 0
M  V30 39107 H 3831.84 -1.92668 0.294123 0
M  V30 39108 H 3830.93 -3.02512 -0.767646 0
M  V30 39109 N 3831.24 0.0684638 -1.57451 0
M  V30 39110 C 3832.17 1.11294 -1.99221 0
M  V30 39111 C 3833.15 1.37387 -0.869681 0
M  V30 39112 O 3834.33 1.50705 -1.13227 0
M  V30 39113 C 3831.46 2.45656 -2.33176 0
M  V30 39114 C 3830.5 2.35675 -3.55471 0
M  V30 39115 S 3831.34 1.74768 -5.06178 0
M  V30 39116 C 3832.49 3.10701 -5.43337 0
M  V30 39117 H 3832.73 0.756986 -2.87501 0
M  V30 39118 H 3830.26 0.277113 -1.51893 0
M  V30 39119 H 3832.22 3.22943 -2.53413 0
M  V30 39120 H 3830.88 2.7841 -1.45418 0
M  V30 39121 H 3830.07 3.34769 -3.76757 0
M  V30 39122 H 3829.67 1.66524 -3.34882 0
M  V30 39123 H 3831.96 4.07017 -5.41612 0
M  V30 39124 H 3832.91 2.94192 -6.44094 0
M  V30 39125 H 3833.32 3.1146 -4.708 0
M  V30 39126 N 3832.71 1.5389 0.339928 0
M  V30 39127 C 3833.65 1.7845 1.43834 0
M  V30 39128 C 3834.66 0.665911 1.48558 0
M  V30 39129 O 3835.85 0.942713 1.51576 0
M  V30 39130 C 3832.95 1.87253 2.82471 0
M  V30 39131 C 3832.12 3.17224 3.01144 0
M  V30 39132 C 3831.18 3.16938 4.20044 0
M  V30 39133 O 3830.21 3.90645 4.13987 0
M  V30 39134 N 3831.41 2.39562 5.28763 0
M  V30 39135 H 3834.17 2.73236 1.23135 0
M  V30 39136 H 3831.73 1.52985 0.529828 0
M  V30 39137 H 3833.73 1.84508 3.60193 0
M  V30 39138 H 3832.3 0.996374 2.96296 0
M  V30 39139 H 3831.52 3.33064 2.10861 0
M  V30 39140 H 3832.8 4.03069 3.10504 0
M  V30 39141 H 3832.2 1.79237 5.36554 0
M  V30 39142 H 3830.76 2.42612 6.04965 0
M  V30 39143 N 3834.19 -0.601133 1.45685 0
M  V30 39144 C 3835.42 -1.38644 1.53576 0
M  V30 39145 C 3835.83 -1.88028 0.170544 0
M  V30 39146 O 3835.19 -1.62583 -0.829032 0
M  V30 39147 C 3835.24 -2.58654 2.52548 0
M  V30 39148 O 3834.96 -2.1132 3.83765 0
M  V30 39149 C 3836.46 -3.51436 2.702 0
M  V30 39150 H 3833.68 -0.424182 0.519914 0
M  V30 39151 H 3836.23 -0.732525 1.9093 0
M  V30 39152 H 3834.38 -3.20073 2.18248 0
M  V30 39153 H 3834.8 -2.89341 4.37472 0
M  V30 39154 H 3836.27 -4.32171 3.43413 0
M  V30 39155 H 3836.75 -4.02192 1.76459 0
M  V30 39156 H 3837.35 -2.95866 3.05522 0
M  V30 39157 N 3835.67 -1.33083 -0.844196 0
M  V30 39158 C 3836.95 -1.14843 -1.58337 0
M  V30 39159 C 3837.33 0.287236 -2.09137 0
M  V30 39160 O 3836.67 1.28547 -1.88912 0
M  V30 39161 C 3836.88 -2.185 -2.72137 0
M  V30 39162 C 3838.23 -2.52379 -3.41453 0
M  V30 39163 O 3839.26 -2.17127 -2.82373 0
M  V30 39164 O 3838.12 -3.12853 -4.48091 0
M  V30 39165 H 3835.21 -0.443843 -0.697805 0
M  V30 39166 H 3837.76 -1.44648 -0.887414 0
M  V30 39167 H 3836.53 -3.14958 -2.32201 0
M  V30 39168 H 3836.15 -1.8975 -3.494 0
M  V30 39169 N 3837.15 1.06178 -1.16464 0
M  V30 39170 C 3838.4 1.78386 -0.941353 0
M  V30 39171 C 3838.71 1.88227 0.531962 0
M  V30 39172 O 3839.92 2.57075 0.873182 0
M  V30 39173 C 3838.37 3.2062 -1.63496 0
M  V30 39174 C 3837.98 3.18941 -3.14612 0
M  V30 39175 C 3839.72 3.97353 -1.49368 0
M  V30 39176 C 3837.63 4.55902 -3.76706 0
M  V30 39177 H 3836.56 0.668597 -0.34856 0
M  V30 39178 H 3839.21 1.19086 -1.39609 0
M  V30 39179 H 3837.59 3.80185 -1.10793 0
M  V30 39180 H 3838.77 2.68951 -3.74168 0
M  V30 39181 H 3837.08 2.55706 -3.28639 0
M  V30 39182 H 3839.68 4.98599 -1.9314 0
M  V30 39183 H 3840.02 4.13938 -0.442797 0
M  V30 39184 H 3840.56 3.44312 -1.99233 0
M  V30 39185 H 3837.29 4.44521 -4.81748 0
M  V30 39186 H 3836.81 5.06081 -3.21936 0
M  V30 39187 H 3838.49 5.24857 -3.7833 0
M  V30 39188 N 3838.63 0.96331 1.24732 0
M  V30 39189 C 3839.9 0.539843 1.88003 0
M  V30 39190 C 3840.28 -0.983003 1.86816 0
M  V30 39191 O 3839.63 -1.85249 1.33772 0
M  V30 39192 C 3839.84 1.12636 3.30324 0
M  V30 39193 C 3841.19 1.20855 4.07037 0
M  V30 39194 O 3842.21 1.07855 3.39479 0
M  V30 39195 O 3841.07 1.41351 5.27903 0
M  V30 39196 H 3838.17 0.179364 0.807315 0
M  V30 39197 H 3840.71 1.0573 1.32738 0
M  V30 39198 H 3839.48 2.16931 3.25664 0
M  V30 39199 H 3839.11 0.592683 3.93158 0
M  V30 39200 N 3840.1 -1.39522 0.732902 0
M  V30 39201 C 3841.33 -2.04856 0.290106 0
M  V30 39202 C 3841.75 -1.55254 -1.07432 0
M  V30 39203 O 3841.1 -0.716526 -1.67846 0
M  V30 39204 C 3841.15 -3.6041 0.280528 0
M  V30 39205 O 3840.88 -4.08186 1.59109 0
M  V30 39206 C 3842.38 -4.4294 -0.178694 0
M  V30 39207 H 3839.6 -0.658839 0.127172 0
M  V30 39208 H 3842.14 -1.78608 0.995964 0
M  V30 39209 H 3840.3 -3.85567 -0.376426 0
M  V30 39210 H 3840.71 -5.02497 1.50323 0
M  V30 39211 H 3842.18 -5.51837 -0.134238 0
M  V30 39212 H 3842.66 -4.21813 -1.22355 0
M  V30 39213 H 3843.27 -4.22927 0.448617 0
M  V30 39214 N 3841.58 -0.480375 -1.501 0
M  V30 39215 C 3842.49 0.314039 -2.32489 0
M  V30 39216 C 3843.51 0.987161 -1.43287 0
M  V30 39217 O 3844.68 0.973092 -1.76332 0
M  V30 39218 C 3841.75 1.37646 -3.18205 0
M  V30 39219 C 3840.81 0.718956 -4.23237 0
M  V30 39220 C 3840.04 1.73075 -5.04857 0
M  V30 39221 O 3840.27 2.95835 -4.87686 0
M  V30 39222 O 3839.2 1.29745 -5.8775 0
M  V30 39223 H 3843.03 -0.359753 -3.01562 0
M  V30 39224 H 3840.61 -0.242055 -1.47426 0
M  V30 39225 H 3842.49 1.99163 -3.71365 0
M  V30 39226 H 3841.17 2.03355 -2.5185 0
M  V30 39227 H 3840.07 0.0645834 -3.74044 0
M  V30 39228 H 3841.41 0.104656 -4.92089 0
M  V30 39229 N 3843.06 1.56149 -0.213351 0
M  V30 39230 C 3844.31 1.98378 0.421186 0
M  V30 39231 C 3844.64 1.10068 1.59996 0
M  V30 39232 O 3843.91 0.156574 1.93869 0
M  V30 39233 C 3844.2 3.49589 0.863689 0
M  V30 39234 C 3844.05 4.48673 -0.318156 0
M  V30 39235 C 3845.37 4.0498 1.72278 0
M  V30 39236 H 3842.49 0.721235 0.151622 0
M  V30 39237 H 3845.13 1.87488 -0.30794 0
M  V30 39238 H 3843.28 3.59 1.48496 0
M  V30 39239 H 3844.95 4.51282 -0.956174 0
M  V30 39240 H 3843.19 4.22886 -0.966955 0
M  V30 39241 H 3843.87 5.51989 0.0342691 0
M  V30 39242 H 3846.34 3.98462 1.19865 0
M  V30 39243 H 3845.22 5.11115 2.00132 0
M  V30 39244 H 3845.48 3.51357 2.68329 0
M  V30 39245 N 3844.54 -0.0601128 1.57485 0
M  V30 39246 C 3845.95 -0.610552 1.76435 0
M  V30 39247 C 3846.3 -1.77291 0.840385 0
M  V30 39248 O 3845.43 -2.16383 0.0273618 0
M  V30 39249 C 3846.02 -1.11436 3.19949 0
M  V30 39250 C 3844.58 -1.61056 3.40203 0
M  V30 39251 C 3843.73 -0.535007 2.7209 0
M  V30 39252 H 3846.68 0.166089 1.57828 0
M  V30 39253 H 3846.7 -1.98283 3.24753 0
M  V30 39254 H 3846.21 -0.268165 3.87172 0
M  V30 39255 H 3844.31 -2.47962 2.78111 0
M  V30 39256 H 3844.42 -1.67946 4.48699 0
M  V30 39257 H 3842.79 -0.982814 2.34974 0
M  V30 39258 H 3843.57 0.301195 3.41976 0
M  V30 39259 N 3846.02 -1.54068 -0.331762 0
M  V30 39260 C 3847.24 -1.7615 -1.09481 0
M  V30 39261 C 3847.67 -0.504804 -1.812 0
M  V30 39262 O 3847.02 0.54322 -1.72971 0
M  V30 39263 C 3847.07 -2.94924 -2.0749 0
M  V30 39264 O 3846.18 -2.65896 -3.15235 0
M  V30 39265 H 3845.52 -0.583953 -0.316061 0
M  V30 39266 H 3848.05 -2.01067 -0.378558 0
M  V30 39267 H 3848.06 -3.22043 -2.50505 0
M  V30 39268 H 3846.73 -3.86062 -1.54689 0
M  V30 39269 H 3845.31 -2.49702 -2.76953 0
M  V30 39270 N 3847.49 0.593399 -1.46002 0
M  V30 39271 C 3848.4 1.73125 -1.58319 0
M  V30 39272 C 3849.42 1.67614 -0.467059 0
M  V30 39273 O 3850.6 1.87716 -0.729715 0
M  V30 39274 C 3847.66 3.09614 -1.56012 0
M  V30 39275 C 3846.72 3.26471 -2.78775 0
M  V30 39276 C 3845.96 4.56449 -2.76569 0
M  V30 39277 O 3846.18 5.39667 -1.84703 0
M  V30 39278 O 3845.11 4.76323 -3.67968 0
M  V30 39279 H 3848.94 1.65682 -2.54525 0
M  V30 39280 H 3846.52 0.759181 -1.28673 0
M  V30 39281 H 3848.41 3.90907 -1.57384 0
M  V30 39282 H 3847.08 3.17518 -0.629626 0
M  V30 39283 H 3845.99 2.44712 -2.82961 0
M  V30 39284 H 3847.32 3.23452 -3.70998 0
M  V30 39285 N 3848.97 1.33529 0.837127 0
M  V30 39286 C 3850.38 1.22518 1.40876 0
M  V30 39287 C 3850.73 -0.155202 1.95585 0
M  V30 39288 O 3849.86 -1.05488 1.88948 0
M  V30 39289 C 3850.45 2.21819 2.56089 0
M  V30 39290 C 3849.01 2.14643 3.09201 0
M  V30 39291 C 3848.16 2.09209 1.82008 0
M  V30 39292 H 3851.11 1.45102 0.642741 0
M  V30 39293 H 3851.13 1.82693 3.33772 0
M  V30 39294 H 3850.64 3.22276 2.16241 0
M  V30 39295 H 3848.75 1.17495 3.5359 0
M  V30 39296 H 3848.86 3.05265 3.69256 0
M  V30 39297 H 3847.22 1.54711 2.02328 0
M  V30 39298 H 3848.01 3.11475 1.44353 0
M  V30 39299 N 3850.45 -1.05559 1.17026 0
M  V30 39300 C 3851.4 -2.11492 0.851771 0
M  V30 39301 C 3852.38 -1.59978 -0.172043 0
M  V30 39302 O 3853.58 -1.76975 0.029858 0
M  V30 39303 C 3850.71 -3.41378 0.362772 0
M  V30 39304 C 3849.79 -3.99699 1.4178 0
M  V30 39305 N 3850.18 -4.32032 2.63024 0
M  V30 39306 C 3848.48 -4.27393 1.27479 0
M  V30 39307 C 3849.18 -4.78493 3.30787 0
M  V30 39308 N 3848.16 -4.78385 2.58165 0
M  V30 39309 H 3851.96 -2.34347 1.77365 0
M  V30 39310 H 3849.47 -1.23172 1.05842 0
M  V30 39311 H 3851.47 -4.16738 0.116174 0
M  V30 39312 H 3850.13 -3.19957 -0.552952 0
M  V30 39313 H 3851.14 -4.22148 3.0002 0
M  V30 39314 H 3847.82 -4.15378 0.420417 0
M  V30 39315 H 3849.21 -5.12653 4.34323 0
M  V30 39316 N 3851.93 -0.969911 -1.2422 0
M  V30 39317 C 3853.21 -0.549805 -1.87714 0
M  V30 39318 C 3853.59 0.973081 -1.87335 0
M  V30 39319 O 3852.93 1.84537 -1.34753 0
M  V30 39320 C 3853.14 -1.14386 -3.29722 0
M  V30 39321 C 3854.49 -1.23012 -4.06391 0
M  V30 39322 O 3855.52 -1.09654 -3.38902 0
M  V30 39323 O 3854.37 -1.44149 -5.27146 0
M  V30 39324 H 3851.47 -0.183643 -0.806352 0
M  V30 39325 H 3854.01 -1.06432 -1.32175 0
M  V30 39326 H 3852.79 -2.18655 -3.24509 0
M  V30 39327 H 3852.41 -0.613525 -3.92838 0
M  V30 39328 N 3853.41 1.39131 -0.740291 0
M  V30 39329 C 3854.63 2.05224 -0.299641 0
M  V30 39330 C 3855.06 1.55456 1.05901 0
M  V30 39331 O 3854.41 0.700633 1.67215 0
M  V30 39332 C 3854.46 3.59205 -0.316855 0
M  V30 39333 O 3853.57 4.06524 0.693715 0
M  V30 39334 H 3852.91 0.650099 -0.135157 0
M  V30 39335 H 3855.44 1.78064 -1.00769 0
M  V30 39336 H 3855.45 4.07674 -0.163085 0
M  V30 39337 H 3854.12 3.94789 -1.30821 0
M  V30 39338 H 3852.7 3.69456 0.505647 0
M  V30 39339 N 3854.88 0.488329 1.49844 0
M  V30 39340 C 3855.83 -0.310663 2.30516 0
M  V30 39341 C 3856.83 -0.974545 1.3856 0
M  V30 39342 O 3858.03 -0.90368 1.55672 0
M  V30 39343 H 3854.41 -0.119036 0.742519 0
M  V30 39344 H 3856.38 0.389901 2.95842 0
M  V30 39345 C 3855.13 -1.36988 3.19577 0
M  V30 39346 H 3854.45 -0.868429 3.90254 0
M  V30 39347 H 3855.89 -1.90117 3.78988 0
M  V30 39348 C 3854.35 -2.3812 2.38328 0
M  V30 39349 O 3854.88 -3.43747 2.07848 0
M  V30 39350 N 3853.09 -2.1027 2.00587 0
M  V30 39351 H 3852.63 -1.24395 2.25574 0
M  V30 39352 H 3852.59 -2.78166 1.4653 0
M  V30 39353 N 3856.36 -1.56034 0.221629 0
M  V30 39354 C 3857.64 -1.90137 -0.459064 0
M  V30 39355 C 3858.02 -1.13897 -1.77738 0
M  V30 39356 O 3857.37 -0.248325 -2.27147 0
M  V30 39357 C 3857.58 -3.42857 -0.651936 0
M  V30 39358 C 3858.93 -4.13621 -0.959329 0
M  V30 39359 O 3859.95 -3.48456 -0.738719 0
M  V30 39360 O 3858.81 -5.28841 -1.37802 0
M  V30 39361 H 3855.9 -0.790574 -0.242739 0
M  V30 39362 H 3858.45 -1.67637 0.263819 0
M  V30 39363 H 3857.22 -3.90312 0.277961 0
M  V30 39364 H 3856.84 -3.71137 -1.4263 0
M  V30 39365 N 3857.84 0.0517601 -1.57515 0
M  V30 39366 C 3858.75 1.07677 -2.08429 0
M  V30 39367 C 3859.77 1.41113 -1.018 0
M  V30 39368 O 3860.94 1.50888 -1.33397 0
M  V30 39369 C 3858.01 2.36539 -2.53476 0
M  V30 39370 C 3857.07 2.09892 -3.74491 0
M  V30 39371 C 3856.3 3.32611 -4.1738 0
M  V30 39372 O 3856.52 4.42468 -3.59969 0
M  V30 39373 O 3855.46 3.19644 -5.10011 0
M  V30 39374 H 3859.28 0.674165 -2.96123 0
M  V30 39375 H 3856.87 0.267248 -1.4699 0
M  V30 39376 H 3858.75 3.1234 -2.82882 0
M  V30 39377 H 3857.43 2.7614 -1.68903 0
M  V30 39378 H 3856.33 1.31733 -3.50139 0
M  V30 39379 H 3857.67 1.75161 -4.59978 0
M  V30 39380 N 3859.32 1.54242 0.323587 0
M  V30 39381 C 3860.54 1.76728 1.08545 0
M  V30 39382 C 3860.97 0.514407 1.80929 0
M  V30 39383 O 3860.33 -0.534039 1.73256 0
M  V30 39384 C 3860.38 2.9602 2.05923 0
M  V30 39385 O 3859.48 2.67564 3.1382 0
M  V30 39386 H 3858.82 0.585621 0.31296 0
M  V30 39387 H 3861.35 2.01265 0.367889 0
M  V30 39388 H 3861.36 3.23367 2.48793 0
M  V30 39389 H 3860.04 3.86877 1.52639 0
M  V30 39390 H 3858.61 2.51168 2.75625 0
M  V30 39391 N 3860.8 -0.585648 1.46314 0
M  V30 39392 C 3861.75 -1.71601 1.57021 0
M  V30 39393 C 3862.74 -1.63616 0.438866 0
M  V30 39394 O 3863.95 -1.69145 0.615627 0
M  V30 39395 H 3860.32 -0.567307 0.493626 0
M  V30 39396 H 3862.29 -1.59702 2.52067 0
M  V30 39397 C 3861.04 -3.09989 1.57487 0
M  V30 39398 H 3860.36 -3.16802 2.43878 0
M  V30 39399 H 3861.8 -3.88849 1.69034 0
M  V30 39400 C 3860.26 -3.35535 0.303003 0
M  V30 39401 O 3860.79 -3.97072 -0.607996 0
M  V30 39402 N 3859 -2.89966 0.191832 0
M  V30 39403 H 3858.55 -2.40069 0.934067 0
M  V30 39404 H 3858.5 -3.07431 -0.658287 0
M  V30 39405 N 3862.28 -1.33971 -0.830033 0
M  V30 39406 C 3863.55 -1.16516 -1.5711 0
M  V30 39407 C 3863.93 0.265038 -2.0943 0
M  V30 39408 O 3863.28 1.26536 -1.90265 0
M  V30 39409 C 3863.49 -2.21374 -2.69804 0
M  V30 39410 C 3864.84 -2.55986 -3.38757 0
M  V30 39411 O 3865.86 -2.20109 -2.80054 0
M  V30 39412 O 3864.72 -3.17588 -4.44748 0
M  V30 39413 H 3861.82 -0.451219 -0.693058 0
M  V30 39414 H 3864.36 -1.45581 -0.872022 0
M  V30 39415 H 3863.13 -3.17403 -2.28847 0
M  V30 39416 H 3862.76 -1.93445 -3.47368 0
M  V30 39417 N 3863.75 1.04937 -1.17584 0
M  V30 39418 C 3865.03 1.74904 -0.875669 0
M  V30 39419 C 3865.41 2.01682 0.623494 0
M  V30 39420 O 3864.76 1.65495 1.57555 0
M  V30 39421 C 3864.97 3.04046 -1.71339 0
M  V30 39422 C 3866.32 3.77948 -1.93496 0
M  V30 39423 O 3867.34 3.13922 -1.68319 0
M  V30 39424 O 3866.2 4.93 -2.35824 0
M  V30 39425 H 3863.29 0.760692 -0.324464 0
M  V30 39426 H 3865.84 1.11082 -1.28292 0
M  V30 39427 H 3864.61 2.80326 -2.73008 0
M  V30 39428 H 3864.23 3.75606 -1.30408 0
M  V30 39429 N 3865.23 0.976485 1.23703 0
M  V30 39430 C 3866.46 0.660732 1.96594 0
M  V30 39431 C 3866.88 -0.764885 1.71846 0
M  V30 39432 O 3866.24 -1.52044 0.987532 0
M  V30 39433 C 3866.29 0.952201 3.47801 0
M  V30 39434 O 3865.39 0.0421851 4.12378 0
M  V30 39435 H 3864.73 0.248897 0.615586 0
M  V30 39436 H 3867.26 1.30902 1.57245 0
M  V30 39437 H 3867.27 0.887308 3.98235 0
M  V30 39438 H 3865.95 1.99112 3.6514 0
M  V30 39439 H 3864.52 0.161152 3.72552 0
M  V30 39440 N 3866.71 -1.38737 0.747659 0
M  V30 39441 C 3867.94 -2.04537 0.311817 0
M  V30 39442 C 3868.35 -1.56385 -1.05779 0
M  V30 39443 O 3867.71 -0.734288 -1.67076 0
M  V30 39444 C 3867.76 -3.60092 0.318738 0
M  V30 39445 O 3867.48 -4.06475 1.6343 0
M  V30 39446 C 3868.98 -4.43104 -0.131704 0
M  V30 39447 H 3866.2 -0.657453 0.134152 0
M  V30 39448 H 3868.75 -1.77542 1.01485 0
M  V30 39449 H 3866.9 -3.85944 -0.33551 0
M  V30 39450 H 3867.32 -5.00874 1.55644 0
M  V30 39451 H 3868.79 -5.51948 -0.0757008 0
M  V30 39452 H 3869.27 -4.23087 -1.17874 0
M  V30 39453 H 3869.87 -4.22428 0.493449 0
M  V30 39454 N 3868.19 -0.496268 -1.49583 0
M  V30 39455 C 3869.12 0.321326 -2.26936 0
M  V30 39456 C 3870.13 0.934839 -1.33284 0
M  V30 39457 O 3871.32 0.81898 -1.58603 0
M  V30 39458 C 3868.42 1.46695 -3.05506 0
M  V30 39459 C 3867.59 0.961612 -4.26699 0
M  V30 39460 C 3866.65 1.98428 -4.87353 0
M  V30 39461 O 3865.68 1.55473 -5.47555 0
M  V30 39462 N 3866.88 3.31434 -4.76583 0
M  V30 39463 H 3869.65 -0.341937 -2.97743 0
M  V30 39464 H 3867.21 -0.328532 -1.58532 0
M  V30 39465 H 3869.2 2.14854 -3.42958 0
M  V30 39466 H 3867.77 2.03445 -2.37337 0
M  V30 39467 H 3866.99 0.105073 -3.9406 0
M  V30 39468 H 3868.28 0.602316 -5.05222 0
M  V30 39469 H 3867.68 3.69025 -4.28763 0
M  V30 39470 H 3866.23 3.9532 -5.18233 0
M  V30 39471 N 3869.67 1.55914 -0.2299 0
M  V30 39472 C 3870.91 1.98814 0.400122 0
M  V30 39473 C 3871.24 1.11759 1.58819 0
M  V30 39474 O 3870.52 0.177128 1.93692 0
M  V30 39475 C 3870.8 3.50485 0.826562 0
M  V30 39476 C 3870.66 4.48311 -0.365725 0
M  V30 39477 C 3871.97 4.06784 1.67973 0
M  V30 39478 H 3869.09 0.722802 0.143964 0
M  V30 39479 H 3871.74 1.87151 -0.327808 0
M  V30 39480 H 3869.89 3.60555 1.4468 0
M  V30 39481 H 3871.56 4.50242 -1.00398 0
M  V30 39482 H 3869.8 4.21836 -1.01175 0
M  V30 39483 H 3870.47 5.51995 -0.0242786 0
M  V30 39484 H 3872.95 3.9971 1.15632 0
M  V30 39485 H 3871.82 5.13209 1.94699 0
M  V30 39486 H 3872.08 3.54183 2.64588 0
M  V30 39487 N 3871.14 -0.043406 1.5754 0
M  V30 39488 C 3872.08 -1.07573 2.02387 0
M  V30 39489 C 3873.09 -1.33322 0.934297 0
M  V30 39490 O 3874.28 -1.31062 1.21182 0
M  V30 39491 C 3871.38 -2.42058 2.37195 0
M  V30 39492 C 3870.55 -2.35868 3.68355 0
M  V30 39493 C 3869.61 -3.52685 3.90512 0
M  V30 39494 O 3868.64 -3.32827 4.61752 0
M  V30 39495 N 3869.84 -4.74053 3.35043 0
M  V30 39496 H 3872.6 -0.69359 2.91564 0
M  V30 39497 H 3870.16 -0.231603 1.60235 0
M  V30 39498 H 3872.16 -3.18902 2.49166 0
M  V30 39499 H 3870.73 -2.72169 1.53763 0
M  V30 39500 H 3869.95 -1.44218 3.66872 0
M  V30 39501 H 3871.23 -2.2886 4.54423 0
M  V30 39502 H 3870.63 -4.93089 2.77272 0
M  V30 39503 H 3869.19 -5.48311 3.52418 0
M  V30 39504 N 3872.62 -1.54412 -0.315402 0
M  V30 39505 C 3873.53 -1.874 -1.41133 0
M  V30 39506 C 3874.55 -0.766707 -1.56197 0
M  V30 39507 O 3875.72 -1.06179 -1.71137 0
M  V30 39508 C 3872.79 -2.10179 -2.75728 0
M  V30 39509 C 3871.85 -3.3395 -2.6977 0
M  V30 39510 C 3871.08 -3.55633 -3.97946 0
M  V30 39511 O 3871.31 -2.80598 -4.96609 0
M  V30 39512 O 3870.24 -4.49126 -4.00711 0
M  V30 39513 H 3874.07 -2.80607 -1.16162 0
M  V30 39514 H 3871.65 -1.4042 -0.510168 0
M  V30 39515 H 3873.53 -2.26445 -3.55388 0
M  V30 39516 H 3872.21 -1.20159 -3.00572 0
M  V30 39517 H 3871.11 -3.23062 -1.88632 0
M  V30 39518 H 3872.45 -4.24053 -2.4988 0
M  V30 39519 N 3874.1 0.57788 -1.46623 0
M  V30 39520 C 3875.35 1.33215 -1.51449 0
M  V30 39521 C 3875.66 1.94837 -0.172614 0
M  V30 39522 O 3876.87 2.71321 -0.0987055 0
M  V30 39523 C 3875.32 2.4146 -2.6688 0
M  V30 39524 C 3874.93 1.8612 -4.07509 0
M  V30 39525 C 3876.68 3.18198 -2.80981 0
M  V30 39526 C 3874.58 2.92022 -5.14273 0
M  V30 39527 H 3873.51 0.500812 -0.563652 0
M  V30 39528 H 3876.16 0.616155 -1.72846 0
M  V30 39529 H 3874.55 3.1588 -2.38822 0
M  V30 39530 H 3875.72 1.1821 -4.4538 0
M  V30 39531 H 3874.04 1.22033 -3.98117 0
M  V30 39532 H 3876.63 3.97243 -3.57913 0
M  V30 39533 H 3876.98 3.71091 -1.88672 0
M  V30 39534 H 3877.51 2.50886 -3.08709 0
M  V30 39535 H 3874.25 2.4401 -6.08391 0
M  V30 39536 H 3873.77 3.58406 -4.80942 0
M  V30 39537 H 3875.45 3.55887 -5.40327 0
M  V30 39538 N 3875.58 1.34409 0.822917 0
M  V30 39539 C 3876.81 1.29655 1.60852 0
M  V30 39540 C 3877.22 -0.131539 1.88742 0
M  V30 39541 O 3876.56 -1.08905 1.47937 0
M  V30 39542 C 3876.62 2.01925 2.97433 0
M  V30 39543 C 3876.29 3.51183 2.92437 0
M  V30 39544 C 3877.28 4.46089 2.67021 0
M  V30 39545 C 3874.97 3.93596 3.12069 0
M  V30 39546 C 3876.96 5.81384 2.61289 0
M  V30 39547 C 3874.65 5.2899 3.05961 0
M  V30 39548 C 3875.65 6.22696 2.80604 0
M  V30 39549 O 3875.33 7.55608 2.74429 0
M  V30 39550 H 3875.07 0.44748 0.506693 0
M  V30 39551 H 3877.62 1.77596 1.03194 0
M  V30 39552 H 3875.85 1.48598 3.57009 0
M  V30 39553 H 3877.54 1.90461 3.5844 0
M  V30 39554 H 3878.31 4.14642 2.51589 0
M  V30 39555 H 3874.18 3.21057 3.30822 0
M  V30 39556 H 3877.73 6.54495 2.41417 0
M  V30 39557 H 3873.63 5.60057 3.20947 0
M  V30 39558 H 3874.39 7.65344 2.90156 0
M  V30 39559 N 3877.06 -1.04312 1.18139 0
M  V30 39560 C 3877.97 -2.15762 0.921081 0
M  V30 39561 C 3878.98 -1.73627 -0.11393 0
M  V30 39562 O 3880.16 -2.01287 0.0674086 0
M  V30 39563 C 3877.22 -3.43798 0.447641 0
M  V30 39564 C 3876.28 -4.00329 1.55032 0
M  V30 39565 C 3875.52 -5.22254 1.09937 0
M  V30 39566 O 3875.74 -5.70384 -0.0429149 0
M  V30 39567 O 3874.67 -5.71255 1.8961 0
M  V30 39568 H 3878.5 -2.40575 1.85357 0
M  V30 39569 H 3876.09 -1.14222 0.963005 0
M  V30 39570 H 3877.97 -4.20964 0.191571 0
M  V30 39571 H 3876.64 -3.20464 -0.456585 0
M  V30 39572 H 3875.55 -3.24563 1.86037 0
M  V30 39573 H 3876.88 -4.28 2.43058 0
M  V30 39574 N 3878.53 -0.983032 -1.23184 0
M  V30 39575 C 3879.5 -0.530405 -2.22978 0
M  V30 39576 C 3880.5 0.381394 -1.56211 0
M  V30 39577 O 3881.69 0.17472 -1.73322 0
M  V30 39578 C 3878.82 0.229822 -3.40124 0
M  V30 39579 H 3880.01 -1.41282 -2.64536 0
M  V30 39580 H 3877.57 -0.769196 -1.36063 0
M  V30 39581 H 3878.3 1.12866 -3.04026 0
M  V30 39582 H 3878.09 -0.424721 -3.89793 0
M  V30 39583 H 3879.58 0.535005 -4.14159 0
M  V30 39584 N 3880.01 1.38338 -0.755006 0
M  V30 39585 C 3880.98 2.28793 -0.136497 0
M  V30 39586 C 3881.98 1.47254 0.64599 0
M  V30 39587 O 3883.17 1.67682 0.472047 0
M  V30 39588 C 3880.3 3.31014 0.815 0
M  V30 39589 H 3881.49 2.84996 -0.933669 0
M  V30 39590 H 3879.04 1.47322 -0.522108 0
M  V30 39591 H 3879.78 2.79905 1.6378 0
M  V30 39592 H 3879.56 3.91261 0.256294 0
M  V30 39593 H 3881.05 3.9865 1.24371 0
M  V30 39594 N 3881.49 0.504194 1.49317 0
M  V30 39595 C 3882.74 -0.039249 2.02762 0
M  V30 39596 C 3883.07 -1.3635 1.38284 0
M  V30 39597 O 3882.34 -1.87431 0.51962 0
M  V30 39598 C 3882.63 -0.188443 3.59607 0
M  V30 39599 C 3882.48 1.15915 4.34608 0
M  V30 39600 C 3883.8 -0.927565 4.30214 0
M  V30 39601 H 3880.92 -0.0127898 0.736889 0
M  V30 39602 H 3883.56 0.656225 1.78308 0
M  V30 39603 H 3881.71 -0.780794 3.80573 0
M  V30 39604 H 3883.38 1.79063 4.25128 0
M  V30 39605 H 3881.63 1.74763 3.97039 0
M  V30 39606 H 3882.3 1.00803 5.42718 0
M  V30 39607 H 3884.77 -0.425155 4.13922 0
M  V30 39608 H 3883.65 -1.0008 5.39699 0
M  V30 39609 H 3883.91 -1.97202 3.95682 0
M  V30 39610 N 3882.97 -1.5579 0.238166 0
M  V30 39611 C 3883.92 -2.22396 -0.681374 0
M  V30 39612 C 3884.91 -1.20869 -1.18689 0
M  V30 39613 O 3886.12 -1.38905 -1.14479 0
M  V30 39614 H 3882.49 -0.713279 -0.238194 0
M  V30 39615 H 3884.46 -2.98244 -0.0963617 0
M  V30 39616 C 3883.21 -2.93048 -1.87132 0
M  V30 39617 H 3882.53 -3.70938 -1.49147 0
M  V30 39618 H 3883.97 -3.43028 -2.49214 0
M  V30 39619 C 3882.43 -1.96435 -2.73706 0
M  V30 39620 O 3882.96 -1.49184 -3.7297 0
M  V30 39621 N 3881.17 -1.63725 -2.40089 0
M  V30 39622 H 3880.72 -2.02344 -1.5942 0
M  V30 39623 H 3880.67 -0.993467 -2.98291 0
M  V30 39624 N 3884.45 0.0350506 -1.57561 0
M  V30 39625 C 3885.38 1.03713 -2.09203 0
M  V30 39626 C 3886.36 1.38089 -0.993255 0
M  V30 39627 O 3887.54 1.47077 -1.26815 0
M  V30 39628 C 3884.67 2.33986 -2.56648 0
M  V30 39629 C 3883.63 2.13868 -3.70735 0
M  V30 39630 C 3882.95 3.49848 -4.04364 0
M  V30 39631 C 3884.25 1.52973 -4.99396 0
M  V30 39632 H 3885.95 0.607258 -2.93177 0
M  V30 39633 H 3883.49 0.290658 -1.41036 0
M  V30 39634 H 3885.45 3.04412 -2.91395 0
M  V30 39635 H 3884.17 2.79021 -1.69749 0
M  V30 39636 H 3882.83 1.45875 -3.36327 0
M  V30 39637 H 3882.48 3.92521 -3.14541 0
M  V30 39638 H 3882.18 3.37215 -4.81207 0
M  V30 39639 H 3883.7 4.21647 -4.41641 0
M  V30 39640 H 3885.11 2.1331 -5.32139 0
M  V30 39641 H 3883.51 1.50932 -5.80809 0
M  V30 39642 H 3884.58 0.494909 -4.82368 0
M  V30 39643 N 3885.92 1.54577 0.307209 0
M  V30 39644 C 3887.15 1.77869 1.06665 0
M  V30 39645 C 3887.57 0.533568 1.80374 0
M  V30 39646 O 3886.93 -0.515633 1.73813 0
M  V30 39647 C 3886.98 2.98188 2.02772 0
M  V30 39648 O 3886.08 2.70878 3.10965 0
M  V30 39649 H 3885.43 0.588908 0.306731 0
M  V30 39650 H 3887.96 2.01644 0.346522 0
M  V30 39651 H 3887.97 3.25987 2.4535 0
M  V30 39652 H 3886.64 3.88474 1.48527 0
M  V30 39653 H 3885.22 2.54077 2.72946 0
M  V30 39654 N 3887.4 -0.570096 1.46927 0
M  V30 39655 C 3888.33 -1.6882 1.61314 0
M  V30 39656 C 3889.31 -1.63678 0.462993 0
M  V30 39657 O 3890.5 -1.81499 0.690777 0
M  V30 39658 C 3887.63 -3.07463 1.61504 0
M  V30 39659 C 3886.58 -3.27444 2.75616 0
M  V30 39660 C 3885.91 -4.66743 2.60873 0
M  V30 39661 C 3887.21 -3.1406 4.17329 0
M  V30 39662 H 3888.9 -1.57036 2.54912 0
M  V30 39663 H 3886.45 -0.754056 1.22678 0
M  V30 39664 H 3888.4 -3.85517 1.70161 0
M  V30 39665 H 3887.13 -3.20176 0.644586 0
M  V30 39666 H 3885.78 -2.51795 2.66449 0
M  V30 39667 H 3885.43 -4.76238 1.61883 0
M  V30 39668 H 3885.13 -4.81063 3.37419 0
M  V30 39669 H 3886.66 -5.46949 2.7144 0
M  V30 39670 H 3888.07 -3.81944 4.27541 0
M  V30 39671 H 3886.47 -3.39896 4.94561 0
M  V30 39672 H 3887.54 -2.10971 4.36599 0
M  V30 39673 N 3888.88 -1.34844 -0.815777 0
M  V30 39674 C 3890.11 -1.30695 -1.60394 0
M  V30 39675 C 3890.52 0.117503 -1.88434 0
M  V30 39676 O 3889.88 1.06673 -1.48078 0
M  V30 39677 C 3889.93 -2.10257 -2.94065 0
M  V30 39678 O 3889.65 -3.47148 -2.67245 0
M  V30 39679 C 3891.15 -2.13588 -3.88452 0
M  V30 39680 H 3888.37 -0.449328 -0.498343 0
M  V30 39681 H 3890.92 -1.77563 -1.01447 0
M  V30 39682 H 3889.07 -1.67012 -3.49551 0
M  V30 39683 H 3889.49 -3.8836 -3.52529 0
M  V30 39684 H 3890.96 -2.73666 -4.79386 0
M  V30 39685 H 3891.44 -1.13217 -4.24357 0
M  V30 39686 H 3892.04 -2.56953 -3.38903 0
M  V30 39687 N 3890.36 1.03684 -1.1869 0
M  V30 39688 C 3891.27 2.15271 -0.932511 0
M  V30 39689 C 3892.29 1.73685 0.10472 0
M  V30 39690 O 3893.46 2.01249 -0.0780824 0
M  V30 39691 C 3890.53 3.43556 -0.465867 0
M  V30 39692 C 3889.59 3.99502 -1.57153 0
M  V30 39693 C 3888.82 5.21664 -1.12705 0
M  V30 39694 O 3889.04 5.70399 0.0126654 0
M  V30 39695 O 3887.98 5.70241 -1.92637 0
M  V30 39696 H 3891.8 2.39589 -1.8663 0
M  V30 39697 H 3889.39 1.13709 -0.969049 0
M  V30 39698 H 3891.27 4.20857 -0.213893 0
M  V30 39699 H 3889.95 3.20701 0.439583 0
M  V30 39700 H 3888.85 3.23571 -1.87756 0
M  V30 39701 H 3890.19 4.26705 -2.45324 0
M  V30 39702 N 3891.84 0.989551 1.22661 0
M  V30 39703 C 3892.75 0.545875 2.28161 0
M  V30 39704 C 3893.76 -0.403732 1.69251 0
M  V30 39705 O 3894.94 -0.271392 1.99563 0
M  V30 39706 C 3892 -0.135747 3.46434 0
M  V30 39707 C 3891.07 0.856404 4.20671 0
M  V30 39708 C 3890.3 0.207215 5.33298 0
M  V30 39709 O 3890.52 -0.999651 5.61572 0
M  V30 39710 O 3889.46 0.910393 5.94975 0
M  V30 39711 H 3893.28 1.42349 2.68273 0
M  V30 39712 H 3890.87 0.757632 1.28765 0
M  V30 39713 H 3892.75 -0.517702 4.18208 0
M  V30 39714 H 3891.42 -0.987981 3.08254 0
M  V30 39715 H 3890.33 1.28923 3.51183 0
M  V30 39716 H 3891.66 1.67773 4.62723 0
M  V30 39717 N 3893.32 -1.37936 0.762332 0
M  V30 39718 C 3894.54 -2.04195 0.333494 0
M  V30 39719 C 3894.96 -1.57498 -1.04115 0
M  V30 39720 O 3894.32 -0.751968 -1.66288 0
M  V30 39721 C 3894.37 -3.59734 0.356913 0
M  V30 39722 O 3894.09 -4.04719 1.67732 0
M  V30 39723 C 3895.59 -4.43219 -0.0846997 0
M  V30 39724 H 3892.81 -0.655993 0.141118 0
M  V30 39725 H 3895.35 -1.76455 1.03363 0
M  V30 39726 H 3893.51 -3.86279 -0.294557 0
M  V30 39727 H 3893.92 -4.99195 1.60948 0
M  V30 39728 H 3895.4 -5.51997 -0.017155 0
M  V30 39729 H 3895.87 -4.24313 -1.1338 0
M  V30 39730 H 3896.48 -4.21881 0.538225 0
M  V30 39731 N 3894.79 -0.512106 -1.49048 0
M  V30 39732 C 3896.04 0.0284533 -2.0248 0
M  V30 39733 C 3896.37 1.35963 -1.39084 0
M  V30 39734 O 3895.62 1.88675 -0.519626 0
M  V30 39735 C 3895.92 0.218062 -3.56734 0
M  V30 39736 C 3895.59 -1.0365 -4.38825 0
M  V30 39737 C 3894.25 -1.38038 -4.60976 0
M  V30 39738 C 3896.6 -1.8699 -4.86502 0
M  V30 39739 C 3893.93 -2.55695 -5.2805 0
M  V30 39740 C 3896.28 -3.03811 -5.54871 0
M  V30 39741 C 3894.95 -3.38565 -5.75265 0
M  V30 39742 H 3894.22 0.0104118 -0.740927 0
M  V30 39743 H 3896.86 -0.674513 -1.79228 0
M  V30 39744 H 3895.17 1.00365 -3.78727 0
M  V30 39745 H 3896.87 0.650943 -3.95681 0
M  V30 39746 H 3893.46 -0.758669 -4.21832 0
M  V30 39747 H 3897.64 -1.61737 -4.69207 0
M  V30 39748 H 3892.9 -2.82846 -5.42041 0
M  V30 39749 H 3897.07 -3.68707 -5.90786 0
M  V30 39750 H 3894.7 -4.29836 -6.27013 0
M  V30 39751 N 3896.27 1.55662 -0.246424 0
M  V30 39752 C 3897.18 2.25005 0.664086 0
M  V30 39753 C 3898.2 1.26601 1.19366 0
M  V30 39754 O 3899.37 1.59475 1.23003 0
M  V30 39755 C 3896.44 2.9356 1.84454 0
M  V30 39756 C 3895.5 4.07372 1.35449 0
M  V30 39757 C 3894.73 4.72649 2.47868 0
M  V30 39758 O 3894.96 4.37002 3.66586 0
M  V30 39759 O 3893.89 5.61169 2.17654 0
M  V30 39760 H 3897.72 3.03525 0.103223 0
M  V30 39761 H 3895.3 1.49393 -0.014947 0
M  V30 39762 H 3897.18 3.36742 2.53343 0
M  V30 39763 H 3895.86 2.1798 2.39304 0
M  V30 39764 H 3894.76 3.68708 0.632893 0
M  V30 39765 H 3896.1 4.84768 0.852089 0
M  V30 39766 N 3897.75 -0.0266943 1.57577 0
M  V30 39767 C 3899 -0.715612 1.89006 0
M  V30 39768 C 3899.32 -1.75769 0.844419 0
M  V30 39769 O 3898.59 -1.95522 -0.121659 0
M  V30 39770 H 3897.17 -0.267296 0.69754 0
M  V30 39771 H 3899.83 0.00791522 1.94898 0
M  V30 39772 H 3898.93 -1.20369 2.87954 0
M  V30 39773 N 3899.23 -1.54738 -0.299007 0
M  V30 39774 C 3900.45 -1.78432 -1.0572 0
M  V30 39775 C 3900.88 -0.543126 -1.80088 0
M  V30 39776 O 3900.24 0.506408 -1.74084 0
M  V30 39777 C 3900.28 -2.99259 -2.01187 0
M  V30 39778 O 3899.39 -2.72523 -3.09524 0
M  V30 39779 H 3898.73 -0.590526 -0.303603 0
M  V30 39780 H 3901.26 -2.01825 -0.335823 0
M  V30 39781 H 3901.27 -3.27284 -2.43617 0
M  V30 39782 H 3899.94 -3.89257 -1.46465 0
M  V30 39783 H 3898.52 -2.55521 -2.71594 0
M  V30 39784 N 3900.71 0.562296 -1.47228 0
M  V30 39785 C 3901.67 1.65187 -1.5889 0
M  V30 39786 C 3902.67 1.53948 -0.464386 0
M  V30 39787 O 3903.86 1.58198 -0.729307 0
M  V30 39788 C 3900.99 3.04708 -1.52858 0
M  V30 39789 H 3902.18 1.56198 -2.56012 0
M  V30 39790 H 3899.74 0.781808 -1.35342 0
M  V30 39791 H 3900.47 3.19235 -0.570923 0
M  V30 39792 H 3900.26 3.14274 -2.34465 0
M  V30 39793 H 3901.75 3.83986 -1.64147 0
M  V30 39794 N 3902.18 1.35274 0.808615 0
M  V30 39795 C 3903.46 1.19 1.55236 0
M  V30 39796 C 3903.84 -0.231686 2.09825 0
M  V30 39797 O 3903.19 -1.23493 1.92254 0
M  V30 39798 C 3903.4 2.25639 2.66248 0
M  V30 39799 C 3904.75 2.61343 3.34641 0
M  V30 39800 O 3905.77 2.24537 2.76517 0
M  V30 39801 O 3904.63 3.24623 4.39639 0
M  V30 39802 H 3901.72 0.462188 0.685792 0
M  V30 39803 H 3904.27 1.4695 0.848751 0
M  V30 39804 H 3903.04 3.21004 2.23768 0
M  V30 39805 H 3902.66 1.98947 3.44247 0
M  V30 39806 N 3903.66 -1.03053 1.19239 0
M  V30 39807 C 3904.91 -1.76687 0.995475 0
M  V30 39808 C 3905.24 -1.88357 -0.472772 0
M  V30 39809 O 3904.52 -1.39915 -1.35107 0
M  V30 39810 C 3904.8 -3.19393 1.66313 0
M  V30 39811 C 3904.65 -3.15603 3.20491 0
M  V30 39812 C 3905.97 -4.17747 1.38475 0
M  V30 39813 H 3903.09 -0.641376 0.363051 0
M  V30 39814 H 3905.73 -1.20313 1.47054 0
M  V30 39815 H 3903.88 -3.67527 1.25921 0
M  V30 39816 H 3905.55 -2.7538 3.70086 0
M  V30 39817 H 3903.8 -2.53362 3.52122 0
M  V30 39818 H 3904.47 -4.16419 3.62352 0
M  V30 39819 H 3906.94 -3.78206 1.73491 0
M  V30 39820 H 3905.82 -5.15794 1.87744 0
M  V30 39821 H 3906.08 -4.41015 0.309583 0
M  V30 39822 N 3905.14 -0.996042 -1.22134 0
M  V30 39823 C 3906.07 -0.568949 -2.26462 0
M  V30 39824 C 3907.05 0.405754 -1.6519 0
M  V30 39825 O 3908.24 0.295701 -1.91936 0
M  V30 39826 C 3905.37 0.114105 -3.47113 0
M  V30 39827 C 3904.32 -0.779461 -4.20842 0
M  V30 39828 C 3903.65 0.0366847 -5.34687 0
M  V30 39829 C 3904.95 -2.07781 -4.79191 0
M  V30 39830 H 3906.64 -1.44102 -2.62441 0
M  V30 39831 H 3904.19 -0.694336 -1.26155 0
M  V30 39832 H 3906.14 0.424307 -4.19258 0
M  V30 39833 H 3904.86 1.02074 -3.10239 0
M  V30 39834 H 3903.52 -1.07335 -3.50535 0
M  V30 39835 H 3903.17 0.944333 -4.94056 0
M  V30 39836 H 3902.87 -0.558195 -5.84943 0
M  V30 39837 H 3904.39 0.340909 -6.09648 0
M  V30 39838 H 3905.81 -1.83135 -5.43263 0
M  V30 39839 H 3904.21 -2.62178 -5.39799 0
M  V30 39840 H 3905.28 -2.75449 -3.99069 0
M  V30 39841 N 3906.62 1.37529 -0.769636 0
M  V30 39842 C 3907.58 2.28636 -0.160756 0
M  V30 39843 C 3908.58 1.4793 0.630336 0
M  V30 39844 O 3909.77 1.68174 0.454236 0
M  V30 39845 C 3906.9 3.3186 0.779846 0
M  V30 39846 H 3908.1 2.8399 -0.963844 0
M  V30 39847 H 3905.65 1.4676 -0.537704 0
M  V30 39848 H 3906.38 2.81626 1.60802 0
M  V30 39849 H 3906.17 3.91511 0.214781 0
M  V30 39850 H 3907.66 3.99947 1.20136 0
M  V30 39851 N 3908.1 0.520003 1.48774 0
M  V30 39852 C 3909.32 -0.0160696 2.07394 0
M  V30 39853 C 3909.75 -1.28319 1.37535 0
M  V30 39854 O 3909.1 -1.75928 0.43808 0
M  V30 39855 C 3909.15 -0.233319 3.59844 0
M  V30 39856 O 3908.26 -1.30411 3.91237 0
M  V30 39857 H 3907.6 0.0346794 0.663094 0
M  V30 39858 H 3910.13 0.725063 1.91322 0
M  V30 39859 H 3910.14 -0.459039 4.05409 0
M  V30 39860 H 3908.81 0.692362 4.10097 0
M  V30 39861 H 3907.39 -1.06184 3.57462 0
M  V30 39862 N 3909.57 -1.55529 0.254676 0
M  V30 39863 C 3910.8 -2.03236 -0.371281 0
M  V30 39864 C 3911.21 -1.13308 -1.51518 0
M  V30 39865 O 3910.56 -0.141501 -1.83154 0
M  V30 39866 C 3910.62 -3.47167 -0.933553 0
M  V30 39867 C 3910.28 -4.56932 0.0790942 0
M  V30 39868 C 3911.28 -5.12201 0.891404 0
M  V30 39869 C 3908.96 -5.01872 0.207432 0
M  V30 39870 C 3910.96 -6.10911 1.81843 0
M  V30 39871 C 3908.64 -6.00411 1.13796 0
M  V30 39872 C 3909.64 -6.5481 1.94198 0
M  V30 39873 O 3909.33 -7.51427 2.85681 0
M  V30 39874 H 3909.06 -0.669786 -0.0914465 0
M  V30 39875 H 3911.62 -2.01883 0.378448 0
M  V30 39876 H 3909.85 -3.45694 -1.73299 0
M  V30 39877 H 3911.54 -3.7833 -1.47041 0
M  V30 39878 H 3912.3 -4.78308 0.802881 0
M  V30 39879 H 3908.18 -4.59188 -0.408334 0
M  V30 39880 H 3911.72 -6.53296 2.44642 0
M  V30 39881 H 3907.62 -6.33724 1.22738 0
M  V30 39882 H 3908.39 -7.69071 2.8013 0
M  V30 39883 N 3911.05 0.0183372 -1.57589 0
M  V30 39884 C 3912.28 0.718457 -1.94025 0
M  V30 39885 C 3912.7 1.68314 -0.85532 0
M  V30 39886 O 3912.05 1.81731 0.167371 0
M  V30 39887 C 3912.1 1.46625 -3.30429 0
M  V30 39888 O 3911.82 0.540268 -4.34756 0
M  V30 39889 C 3913.33 2.26255 -3.81213 0
M  V30 39890 H 3910.55 0.201263 -0.640105 0
M  V30 39891 H 3913.09 -0.0273295 -2.04482 0
M  V30 39892 H 3911.24 2.16382 -3.21337 0
M  V30 39893 H 3911.66 1.06584 -5.13556 0
M  V30 39894 H 3913.13 2.74103 -4.79136 0
M  V30 39895 H 3913.61 3.08141 -3.12963 0
M  V30 39896 H 3914.22 1.61551 -3.93423 0
M  V30 39897 N 3912.53 1.54894 0.290797 0
M  V30 39898 C 3913.46 1.82936 1.38084 0
M  V30 39899 C 3914.48 0.712836 1.46364 0
M  V30 39900 O 3915.66 0.990458 1.485 0
M  V30 39901 C 3912.76 1.96144 2.7637 0
M  V30 39902 C 3911.94 3.26644 2.90899 0
M  V30 39903 C 3911 3.30141 4.09748 0
M  V30 39904 O 3910.02 4.03618 4.01349 0
M  V30 39905 N 3911.22 2.56263 5.20874 0
M  V30 39906 H 3913.99 2.77015 1.1438 0
M  V30 39907 H 3911.55 1.54593 0.480889 0
M  V30 39908 H 3913.54 1.95874 3.54141 0
M  V30 39909 H 3912.11 1.09013 2.92976 0
M  V30 39910 H 3911.33 3.39603 2.00158 0
M  V30 39911 H 3912.62 4.12743 2.97524 0
M  V30 39912 H 3912.02 1.96217 5.3058 0
M  V30 39913 H 3910.58 2.61735 5.9694 0
M  V30 39914 N 3914.01 -0.55448 1.47524 0
M  V30 39915 C 3914.97 -1.64342 1.59764 0
M  V30 39916 C 3915.97 -1.537 0.472543 0
M  V30 39917 O 3917.16 -1.57809 0.737687 0
M  V30 39918 C 3914.29 -3.03893 1.54472 0
M  V30 39919 H 3915.49 -1.54838 2.56837 0
M  V30 39920 H 3913.04 -0.774619 1.35755 0
M  V30 39921 H 3913.77 -3.18928 0.587845 0
M  V30 39922 H 3913.56 -3.13027 2.36129 0
M  V30 39923 H 3915.05 -3.8311 1.66181 0
M  V30 39924 N 3915.49 -1.35701 -0.80143 0
M  V30 39925 C 3916.71 -1.32389 -1.58999 0
M  V30 39926 C 3917.13 0.09751 -1.88548 0
M  V30 39927 O 3916.49 1.05097 -1.49201 0
M  V30 39928 C 3916.54 -2.13364 -2.91818 0
M  V30 39929 O 3916.26 -3.49963 -2.63548 0
M  V30 39930 C 3917.76 -2.17696 -3.86165 0
M  V30 39931 H 3914.98 -0.454588 -0.493549 0
M  V30 39932 H 3917.52 -1.78629 -0.995584 0
M  V30 39933 H 3915.68 -1.7071 -3.4776 0
M  V30 39934 H 3916.09 -3.92077 -3.4839 0
M  V30 39935 H 3917.57 -2.78735 -4.76456 0
M  V30 39936 H 3918.04 -1.17711 -4.23132 0
M  V30 39937 H 3918.65 -2.60533 -3.36158 0
M  V30 39938 N 3916.96 1.02419 -1.19783 0
M  V30 39939 C 3917.91 2.09159 -0.907545 0
M  V30 39940 C 3918.9 1.60377 0.129567 0
M  V30 39941 O 3920.09 1.76833 -0.0767693 0
M  V30 39942 C 3917.22 3.40296 -0.453155 0
M  V30 39943 C 3916.31 3.958 -1.52327 0
M  V30 39944 N 3916.7 4.24907 -2.74386 0
M  V30 39945 C 3914.99 4.23863 -1.38766 0
M  V30 39946 C 3915.7 4.69554 -3.43357 0
M  V30 39947 N 3914.67 4.71372 -2.70758 0
M  V30 39948 H 3918.47 2.29562 -1.83516 0
M  V30 39949 H 3915.99 1.20322 -1.0907 0
M  V30 39950 H 3917.98 4.16284 -0.226624 0
M  V30 39951 H 3916.64 3.21311 0.467926 0
M  V30 39952 H 3917.66 4.14045 -3.11107 0
M  V30 39953 H 3914.33 4.14117 -0.5304 0
M  V30 39954 H 3915.72 5.00958 -4.47762 0
M  V30 39955 N 3918.44 1.0025 1.21604 0
M  V30 39956 C 3919.72 0.599381 1.8619 0
M  V30 39957 C 3920.1 -0.923071 1.89849 0
M  V30 39958 O 3919.45 -1.80899 1.39598 0
M  V30 39959 C 3919.66 1.23088 3.26574 0
M  V30 39960 C 3921.01 1.33743 4.02986 0
M  V30 39961 O 3922.03 1.18601 3.35875 0
M  V30 39962 O 3920.89 1.58075 5.23139 0
M  V30 39963 H 3917.98 0.204958 0.8012 0
M  V30 39964 H 3920.53 1.09899 1.29307 0
M  V30 39965 H 3919.3 2.27181 3.18597 0
M  V30 39966 H 3918.92 0.717463 3.91073 0
M  V30 39967 N 3919.92 -1.37119 0.776919 0
M  V30 39968 C 3920.83 -2.34001 0.167593 0
M  V30 39969 C 3921.85 -1.60433 -0.673581 0
M  V30 39970 O 3923.02 -1.92494 -0.592293 0
M  V30 39971 C 3920.09 -3.39616 -0.697283 0
M  V30 39972 C 3919.15 -4.28998 0.160944 0
M  V30 39973 C 3918.38 -5.29569 -0.662748 0
M  V30 39974 O 3918.61 -5.37842 -1.89953 0
M  V30 39975 O 3917.54 -6.0186 -0.0692246 0
M  V30 39976 H 3921.37 -2.8785 0.968298 0
M  V30 39977 H 3918.95 -1.39371 0.538162 0
M  V30 39978 H 3920.83 -4.04223 -1.19087 0
M  V30 39979 H 3919.51 -2.88086 -1.47609 0
M  V30 39980 H 3918.41 -3.67473 0.701005 0
M  V30 39981 H 3919.75 -4.83847 0.90296 0
M  V30 39982 N 3921.4 -0.527886 -1.48496 0
M  V30 39983 C 3922.62 0.00507079 -2.07399 0
M  V30 39984 C 3923.05 1.27588 -1.38213 0
M  V30 39985 O 3922.41 1.75693 -0.447404 0
M  V30 39986 C 3922.46 0.214232 -3.59963 0
M  V30 39987 O 3921.56 1.28335 -3.91923 0
M  V30 39988 H 3920.9 -0.0381955 -0.662901 0
M  V30 39989 H 3923.43 -0.735199 -1.90934 0
M  V30 39990 H 3923.44 0.437532 -4.05647 0
M  V30 39991 H 3922.12 -0.7141 -4.09724 0
M  V30 39992 H 3920.69 1.04287 -3.5802 0
M  V30 39993 N 3922.88 1.55391 -0.26292 0
M  V30 39994 C 3923.81 2.18116 0.670863 0
M  V30 39995 C 3924.79 1.13821 1.16118 0
M  V30 39996 O 3925.97 1.42287 1.23639 0
M  V30 39997 C 3923.1 2.79467 1.91353 0
M  V30 39998 C 3922.15 3.96957 1.55973 0
M  V30 39999 S 3922.98 5.31559 0.648441 0
M  V30 40000 C 3924.13 5.96372 1.89975 0
M  V30 40001 H 3924.37 2.9698 0.137864 0
M  V30 40002 H 3921.9 1.54328 -0.0472566 0
M  V30 40003 H 3923.86 3.15447 2.62685 0
M  V30 40004 H 3922.52 2.00519 2.41766 0
M  V30 40005 H 3921.71 4.38531 2.48408 0
M  V30 40006 H 3921.31 3.62337 0.926699 0
M  V30 40007 H 3923.61 6.14864 2.84515 0
M  V30 40008 H 3924.55 6.91434 1.52723 0
M  V30 40009 H 3924.96 5.25604 2.05914 0
M  V30 40010 N 3924.36 -0.00997961 1.57597 0
M  V30 40011 C 3925.58 -0.708158 1.94404 0
M  V30 40012 C 3926 -1.67858 0.864234 0
M  V30 40013 O 3925.36 -1.81817 -0.157731 0
M  V30 40014 C 3925.41 -1.4487 3.31202 0
M  V30 40015 O 3925.13 -0.517205 4.35036 0
M  V30 40016 C 3926.63 -2.2423 3.82408 0
M  V30 40017 H 3923.85 -0.197866 0.641163 0
M  V30 40018 H 3926.39 0.0381733 2.04464 0
M  V30 40019 H 3924.55 -2.14675 3.2248 0
M  V30 40020 H 3924.96 -1.03859 5.14114 0
M  V30 40021 H 3926.44 -2.71558 4.80583 0
M  V30 40022 H 3926.91 -3.06477 3.14592 0
M  V30 40023 H 3927.52 -1.59462 3.94274 0
M  V30 40024 N 3925.83 -1.55046 -0.282578 0
M  V30 40025 C 3927.06 -1.78954 -1.03242 0
M  V30 40026 C 3927.47 -0.558257 -1.80776 0
M  V30 40027 O 3926.81 0.481978 -1.77264 0
M  V30 40028 C 3926.88 -2.95633 -2.04552 0
M  V30 40029 C 3926.54 -4.33036 -1.46044 0
M  V30 40030 C 3927.54 -5.12381 -0.880993 0
M  V30 40031 C 3925.22 -4.79676 -1.49052 0
M  V30 40032 C 3927.22 -6.36496 -0.33942 0
M  V30 40033 C 3924.9 -6.03748 -0.945083 0
M  V30 40034 C 3925.9 -6.81994 -0.370523 0
M  V30 40035 O 3925.59 -8.03727 0.166589 0
M  V30 40036 H 3925.32 -0.600146 -0.311129 0
M  V30 40037 H 3927.88 -2.02865 -0.321715 0
M  V30 40038 H 3926.11 -2.67391 -2.79355 0
M  V30 40039 H 3927.79 -3.06951 -2.65586 0
M  V30 40040 H 3928.56 -4.77484 -0.850518 0
M  V30 40041 H 3924.44 -4.18788 -1.92712 0
M  V30 40042 H 3927.98 -6.97514 0.109686 0
M  V30 40043 H 3923.88 -6.38128 -0.972766 0
M  V30 40044 H 3924.65 -8.18481 0.0550359 0
M  V30 40045 N 3927.31 0.546649 -1.47816 0
M  V30 40046 C 3928.22 1.68 -1.63747 0
M  V30 40047 C 3929.24 1.66044 -0.520147 0
M  V30 40048 O 3930.41 1.85299 -0.789066 0
M  V30 40049 C 3927.48 3.04494 -1.65784 0
M  V30 40050 C 3926.54 3.17436 -2.8902 0
M  V30 40051 C 3925.77 4.47419 -2.9095 0
M  V30 40052 O 3926 5.33518 -2.01779 0
M  V30 40053 O 3924.93 4.64375 -3.82935 0
M  V30 40054 H 3928.76 1.57501 -2.59668 0
M  V30 40055 H 3926.34 0.71786 -1.31023 0
M  V30 40056 H 3928.22 3.85702 -1.69741 0
M  V30 40057 H 3926.9 3.15354 -0.730323 0
M  V30 40058 H 3925.8 2.35586 -2.90603 0
M  V30 40059 H 3927.14 3.11485 -3.81101 0
M  V30 40060 N 3928.79 1.36124 0.794222 0
M  V30 40061 C 3930.07 1.2064 1.53965 0
M  V30 40062 C 3930.45 -0.209419 2.10059 0
M  V30 40063 O 3929.79 -1.21447 1.93553 0
M  V30 40064 C 3930 2.2845 2.6384 0
M  V30 40065 C 3931.35 2.64878 3.31851 0
M  V30 40066 O 3932.38 2.27457 2.7412 0
M  V30 40067 O 3931.24 3.29268 4.36171 0
M  V30 40068 H 3928.33 0.469436 0.680852 0
M  V30 40069 H 3930.88 1.47842 0.833118 0
M  V30 40070 H 3929.65 3.23359 2.20351 0
M  V30 40071 H 3929.27 2.02587 3.42117 0
M  V30 40072 N 3930.27 -1.01782 1.20325 0
M  V30 40073 C 3931.68 -1.27662 0.95784 0
M  V30 40074 C 3931.88 -1.98197 -0.363343 0
M  V30 40075 O 3930.94 -2.27657 -1.09217 0
M  V30 40076 C 3932.25 -2.11285 2.1396 0
M  V30 40077 C 3933.8 -2.24556 2.18045 0
M  V30 40078 C 3934.28 -3.11556 3.35704 0
M  V30 40079 N 3935.77 -3.19144 3.3571 0
M  V30 40080 C 3936.5 -3.86682 4.23397 0
M  V30 40081 N 3936 -4.56356 5.21259 0
M  V30 40082 N 3937.79 -3.83193 4.11241 0
M  V30 40083 H 3929.94 -0.544206 2.0531 0
M  V30 40084 H 3932.2 -0.302801 0.898341 0
M  V30 40085 H 3931.91 -1.66792 3.09634 0
M  V30 40086 H 3931.78 -3.1202 2.11951 0
M  V30 40087 H 3934.17 -2.68274 1.22935 0
M  V30 40088 H 3934.25 -1.23334 2.24104 0
M  V30 40089 H 3933.9 -2.68543 4.311 0
M  V30 40090 H 3933.83 -4.12862 3.26883 0
M  V30 40091 H 3936.32 -2.69533 2.64878 0
M  V30 40092 H 3936.63 -5.05556 5.84494 0
M  V30 40093 H 3934.98 -4.55185 5.25197 0
M  V30 40094 H 3938.17 -3.27907 3.34058 0
M  V30 40095 H 3938.34 -4.35552 4.7979 0
M  V30 40096 N 3931.75 -1.00894 -1.21071 0
M  V30 40097 C 3932.97 -0.712623 -1.94773 0
M  V30 40098 C 3933.4 0.719055 -1.73814 0
M  V30 40099 O 3932.75 1.49373 -1.0275 0
M  V30 40100 C 3932.8 -1.04408 -3.45154 0
M  V30 40101 O 3931.91 -0.151505 -4.12122 0
M  V30 40102 H 3931.25 -0.265131 -0.608771 0
M  V30 40103 H 3933.78 -1.35025 -1.53719 0
M  V30 40104 H 3933.79 -0.992581 -3.95742 0
M  V30 40105 H 3932.46 -2.08723 -3.59733 0
M  V30 40106 H 3931.04 -0.259871 -3.71993 0
M  V30 40107 N 3933.22 1.36705 -0.78418 0
M  V30 40108 C 3934.16 2.2879 -0.136985 0
M  V30 40109 C 3935.17 1.49229 0.650724 0
M  V30 40110 O 3936.36 1.71735 0.486769 0
M  V30 40111 C 3933.46 3.28598 0.829248 0
M  V30 40112 C 3932.63 4.37302 0.0927131 0
M  V30 40113 C 3931.69 5.17105 0.974122 0
M  V30 40114 O 3930.72 5.67548 0.433299 0
M  V30 40115 N 3931.92 5.33035 2.299 0
M  V30 40116 H 3934.68 2.84972 -0.927956 0
M  V30 40117 H 3932.24 1.48815 -0.637622 0
M  V30 40118 H 3934.24 3.78872 1.42262 0
M  V30 40119 H 3932.81 2.73094 1.52112 0
M  V30 40120 H 3932.03 3.88261 -0.681683 0
M  V30 40121 H 3933.31 5.07099 -0.415745 0
M  V30 40122 H 3932.71 4.93657 2.7626 0
M  V30 40123 H 3931.27 5.86571 2.84213 0
M  V30 40124 N 3934.7 0.535753 1.48214 0
M  V30 40125 C 3935.63 -0.212521 2.32531 0
M  V30 40126 C 3936.61 -0.929543 1.42455 0
M  V30 40127 O 3937.8 -0.914198 1.71336 0
M  V30 40128 C 3934.93 -1.25635 3.23779 0
M  V30 40129 C 3933.88 -0.657117 4.22925 0
M  V30 40130 C 3933.21 -1.80402 5.03348 0
M  V30 40131 C 3934.51 0.374993 5.20952 0
M  V30 40132 H 3936.2 0.491353 2.95341 0
M  V30 40133 H 3933.75 0.237742 1.42024 0
M  V30 40134 H 3935.7 -1.78782 3.81595 0
M  V30 40135 H 3934.43 -1.98988 2.58981 0
M  V30 40136 H 3933.08 -0.14712 3.66305 0
M  V30 40137 H 3932.73 -2.52607 4.3497 0
M  V30 40138 H 3932.43 -1.40896 5.70458 0
M  V30 40139 H 3933.96 -2.33916 5.64017 0
M  V30 40140 H 3935.37 -0.0696065 5.73258 0
M  V30 40141 H 3933.77 0.68775 5.96146 0
M  V30 40142 H 3934.84 1.27869 4.67737 0
M  V30 40143 N 3936.18 -1.5525 0.271158 0
M  V30 40144 C 3937.46 -1.91501 -0.398341 0
M  V30 40145 C 3937.84 -1.19494 -1.74024 0
M  V30 40146 O 3937.19 -0.320465 -2.26242 0
M  V30 40147 C 3937.4 -3.44757 -0.542529 0
M  V30 40148 C 3938.74 -4.16463 -0.827253 0
M  V30 40149 O 3939.77 -3.5063 -0.627486 0
M  V30 40150 O 3938.63 -5.32957 -1.20907 0
M  V30 40151 H 3935.72 -0.797896 -0.217465 0
M  V30 40152 H 3938.27 -1.66713 0.317018 0
M  V30 40153 H 3937.04 -3.8923 0.401995 0
M  V30 40154 H 3936.66 -3.75486 -1.30751 0
M  V30 40155 N 3937.66 0.00162173 -1.576 0
M  V30 40156 C 3938.61 1.00203 -2.04801 0
M  V30 40157 C 3939.59 1.30412 -0.942422 0
M  V30 40158 O 3940.78 1.29537 -1.2062 0
M  V30 40159 C 3937.91 2.29455 -2.55353 0
M  V30 40160 C 3937 2.02218 -3.72785 0
M  V30 40161 N 3937.39 1.45133 -4.84531 0
M  V30 40162 C 3935.69 2.32369 -3.80685 0
M  V30 40163 C 3936.39 1.34329 -5.65977 0
M  V30 40164 N 3935.37 1.82835 -5.1193 0
M  V30 40165 H 3939.17 0.55514 -2.88609 0
M  V30 40166 H 3936.68 0.207352 -1.61071 0
M  V30 40167 H 3938.68 3.01964 -2.87443 0
M  V30 40168 H 3937.34 2.74798 -1.72962 0
M  V30 40169 H 3938.35 1.13036 -5.05414 0
M  V30 40170 H 3935.03 2.80598 -3.09146 0
M  V30 40171 H 3936.42 0.904505 -6.65784 0
M  V30 40172 N 3939.14 1.55194 0.274352 0
M  V30 40173 C 3940.07 1.82906 1.36458 0
M  V30 40174 C 3941.05 0.682002 1.47606 0
M  V30 40175 O 3942.23 0.924856 1.64252 0
M  V30 40176 C 3939.36 1.98947 2.74113 0
M  V30 40177 C 3938.4 3.21495 2.80256 0
M  V30 40178 S 3939.24 4.78888 2.39639 0
M  V30 40179 C 3940.39 4.979 3.79271 0
M  V30 40180 H 3940.63 2.75091 1.12747 0
M  V30 40181 H 3938.16 1.46947 0.47391 0
M  V30 40182 H 3940.12 2.08874 3.53386 0
M  V30 40183 H 3938.78 1.07652 2.95076 0
M  V30 40184 H 3937.97 3.29602 3.81285 0
M  V30 40185 H 3937.57 3.10152 2.09002 0
M  V30 40186 H 3939.87 4.83559 4.74528 0
M  V30 40187 H 3940.81 5.99952 3.76117 0
M  V30 40188 H 3941.22 4.2589 3.7051 0
M  V30 40189 N 3940.61 -0.538802 1.48104 0
M  V30 40190 C 3941.86 -1.29254 1.55364 0
M  V30 40191 C 3942.18 -1.93692 0.225461 0
M  V30 40192 O 3941.45 -1.80881 -0.752248 0
M  V30 40193 H 3940.03 -0.480039 0.572339 0
M  V30 40194 H 3942.7 -0.627717 1.84515 0
M  V30 40195 H 3941.79 -2.07645 2.33002 0
M  V30 40196 N 3942.09 -1.36544 -0.786992 0
M  V30 40197 C 3943.34 -1.30908 -1.54497 0
M  V30 40198 C 3943.67 0.110929 -1.94183 0
M  V30 40199 O 3942.92 1.08076 -1.63151 0
M  V30 40200 C 3943.22 -2.17979 -2.83231 0
M  V30 40201 C 3942.89 -3.6649 -2.62671 0
M  V30 40202 C 3941.55 -4.06966 -2.56772 0
M  V30 40203 C 3943.9 -4.6064 -2.43845 0
M  V30 40204 C 3941.23 -5.39731 -2.30016 0
M  V30 40205 C 3943.58 -5.93624 -2.18616 0
M  V30 40206 C 3942.25 -6.33223 -2.11151 0
M  V30 40207 H 3941.52 -0.479027 -0.565344 0
M  V30 40208 H 3944.16 -1.68618 -0.907764 0
M  V30 40209 H 3942.47 -1.73214 -3.51432 0
M  V30 40210 H 3944.16 -2.10942 -3.41035 0
M  V30 40211 H 3940.75 -3.34381 -2.68119 0
M  V30 40212 H 3944.94 -4.30239 -2.47402 0
M  V30 40213 H 3940.19 -5.6939 -2.22721 0
M  V30 40214 H 3944.37 -6.66143 -2.03044 0
M  V30 40215 H 3942 -7.36026 -1.90182 0
M  V30 40216 N 3943.57 1.01143 -1.20863 0
M  V30 40217 C 3944.52 2.08185 -0.929678 0
M  V30 40218 C 3945.5 1.60506 0.11255 0
M  V30 40219 O 3946.7 1.76742 -0.0955205 0
M  V30 40220 C 3943.83 3.39796 -0.489222 0
M  V30 40221 C 3942.91 3.94162 -1.56516 0
M  V30 40222 N 3943.3 4.21973 -2.78878 0
M  V30 40223 C 3941.6 4.22368 -1.43254 0
M  V30 40224 C 3942.3 4.65886 -3.48318 0
M  V30 40225 N 3941.28 4.68473 -2.75742 0
M  V30 40226 H 3945.08 2.27603 -1.85941 0
M  V30 40227 H 3942.59 1.19159 -1.1034 0
M  V30 40228 H 3944.59 4.1602 -0.270764 0
M  V30 40229 H 3943.25 3.21789 0.433821 0
M  V30 40230 H 3944.26 4.10722 -3.15481 0
M  V30 40231 H 3940.94 4.13531 -0.574293 0
M  V30 40232 H 3942.33 4.9618 -4.5305 0
M  V30 40233 N 3945.05 1.01535 1.20534 0
M  V30 40234 C 3946.3 0.703963 1.8987 0
M  V30 40235 C 3946.62 -0.766279 1.78769 0
M  V30 40236 O 3945.88 -1.57222 1.16533 0
M  V30 40237 C 3946.18 1.08364 3.40576 0
M  V30 40238 C 3945.84 2.54988 3.71877 0
M  V30 40239 C 3944.51 2.9505 3.8013 0
M  V30 40240 C 3946.86 3.49915 3.86275 0
M  V30 40241 C 3944.19 4.28983 4.00238 0
M  V30 40242 C 3946.54 4.83534 4.07894 0
M  V30 40243 C 3945.2 5.23306 4.14376 0
M  V30 40244 H 3944.47 0.257598 0.694783 0
M  V30 40245 H 3947.12 1.2757 1.42822 0
M  V30 40246 H 3945.42 0.430302 3.8943 0
M  V30 40247 H 3947.12 0.820422 3.92518 0
M  V30 40248 H 3943.71 2.22944 3.66052 0
M  V30 40249 H 3947.89 3.20123 3.79256 0
M  V30 40250 H 3943.15 4.59353 4.03491 0
M  V30 40251 H 3947.32 5.57017 4.17977 0
M  V30 40252 H 3944.95 6.27099 4.2971 0
M  V30 40253 N 3946.53 -1.36288 0.791419 0
M  V30 40254 C 3947.75 -2.03441 0.376731 0
M  V30 40255 C 3948.17 -1.59671 -1.00751 0
M  V30 40256 O 3947.53 -0.78707 -1.64656 0
M  V30 40257 C 3947.58 -3.58896 0.433137 0
M  V30 40258 O 3947.3 -4.0107 1.76279 0
M  V30 40259 C 3948.8 -4.43299 0.00933267 0
M  V30 40260 H 3946.02 -0.652852 0.155001 0
M  V30 40261 H 3948.56 -1.74223 1.07082 0
M  V30 40262 H 3946.72 -3.86816 -0.212555 0
M  V30 40263 H 3947.13 -4.95669 1.71501 0
M  V30 40264 H 3948.61 -5.5191 0.0999356 0
M  V30 40265 H 3949.08 -4.26623 -1.04354 0
M  V30 40266 H 3949.69 -4.20644 0.627591 0
M  V30 40267 N 3948.01 -0.543606 -1.47928 0
M  V30 40268 C 3949.23 -0.0189551 -2.06891 0
M  V30 40269 C 3949.65 1.26864 -1.39825 0
M  V30 40270 O 3949.01 1.75793 -0.490228 0
M  V30 40271 C 3949.06 0.194532 -3.60976 0
M  V30 40272 O 3948.78 -1.04206 -4.25526 0
M  V30 40273 C 3950.28 0.758016 -4.36771 0
M  V30 40274 H 3947.5 -0.0396743 -0.669826 0
M  V30 40275 H 3950.04 -0.753139 -1.90126 0
M  V30 40276 H 3948.2 0.878803 -3.77301 0
M  V30 40277 H 3948.61 -0.831282 -5.17871 0
M  V30 40278 H 3950.09 0.85675 -5.45311 0
M  V30 40279 H 3950.56 1.76614 -4.02125 0
M  V30 40280 H 3951.17 0.109878 -4.25158 0
M  V30 40281 N 3949.48 1.55104 -0.279387 0
M  V30 40282 C 3950.73 1.99296 0.335506 0
M  V30 40283 C 3951.05 1.16924 1.56057 0
M  V30 40284 O 3950.32 0.259807 1.9417 0
M  V30 40285 H 3948.9 0.736133 0.126955 0
M  V30 40286 H 3951.56 1.91045 -0.385713 0
M  V30 40287 H 3950.66 3.0583 0.622439 0
M  V30 40288 N 3950.96 0.0067362 1.57599 0
M  V30 40289 C 3952.21 -0.675924 1.90037 0
M  V30 40290 C 3952.52 -1.74561 0.882479 0
M  V30 40291 O 3953.73 -2.48337 1.09732 0
M  V30 40292 C 3952.19 -1.25343 3.37368 0
M  V30 40293 C 3951.79 -0.218205 4.47468 0
M  V30 40294 C 3953.54 -1.91389 3.78907 0
M  V30 40295 C 3951.44 -0.806079 5.85881 0
M  V30 40296 H 3950.37 -0.256224 0.70913 0
M  V30 40297 H 3953.03 0.0683824 1.83373 0
M  V30 40298 H 3951.41 -2.04862 3.38892 0
M  V30 40299 H 3952.58 0.552889 4.57471 0
M  V30 40300 H 3950.9 0.342204 4.14991 0
M  V30 40301 H 3953.49 -2.36289 4.79658 0
M  V30 40302 H 3953.84 -2.74729 3.12777 0
M  V30 40303 H 3954.37 -1.18593 3.79711 0
M  V30 40304 H 3951.11 -0.0113123 6.55499 0
M  V30 40305 H 3950.63 -1.54618 5.79529 0
M  V30 40306 H 3952.31 -1.30267 6.3375 0
M  V30 40307 N 3952.44 -1.55337 -0.266118 0
M  V30 40308 C 3953.85 -1.66904 -0.836654 0
M  V30 40309 C 3954.2 -0.60063 -1.8678 0
M  V30 40310 O 3953.33 0.256636 -2.14873 0
M  V30 40311 C 3953.92 -3.02573 -1.52431 0
M  V30 40312 C 3952.48 -3.16144 -2.04279 0
M  V30 40313 C 3951.63 -2.62724 -0.887202 0
M  V30 40314 H 3954.58 -1.58644 -0.0423194 0
M  V30 40315 H 3954.6 -2.95945 -2.39158 0
M  V30 40316 H 3954.11 -3.80312 -0.773582 0
M  V30 40317 H 3952.21 -2.43192 -2.82292 0
M  V30 40318 H 3952.33 -4.228 -2.25337 0
M  V30 40319 H 3950.69 -2.20056 -1.28247 0
M  V30 40320 H 3951.47 -3.42973 -0.149869 0
M  V30 40321 N 3953.92 0.53094 -1.48387 0
M  V30 40322 C 3954.88 1.61779 -1.62358 0
M  V30 40323 C 3955.88 1.52929 -0.496936 0
M  V30 40324 O 3957.07 1.56616 -0.762699 0
M  V30 40325 C 3954.2 3.01397 -1.59287 0
M  V30 40326 H 3955.4 1.50732 -2.59268 0
M  V30 40327 H 3952.95 0.752924 -1.3697 0
M  V30 40328 H 3953.68 3.17952 -0.638509 0
M  V30 40329 H 3953.47 3.0923 -2.41079 0
M  V30 40330 H 3954.96 3.80418 -1.72255 0
M  V30 40331 N 3955.4 1.36959 0.779739 0
M  V30 40332 C 3956.81 1.28383 1.35553 0
M  V30 40333 C 3957.16 -0.0721077 1.96067 0
M  V30 40334 O 3956.28 -0.973791 1.93252 0
M  V30 40335 C 3956.88 2.32481 2.4645 0
M  V30 40336 C 3955.44 2.27564 2.99819 0
M  V30 40337 C 3954.58 2.1674 1.72971 0
M  V30 40338 H 3957.53 1.47697 0.58062 0
M  V30 40339 H 3957.56 1.96685 3.25723 0
M  V30 40340 H 3957.07 3.31157 2.02377 0
M  V30 40341 H 3955.17 1.32386 3.48288 0
M  V30 40342 H 3955.28 3.20652 3.55976 0
M  V30 40343 H 3953.65 1.63153 1.95584 0
M  V30 40344 H 3954.43 3.17318 1.31013 0
M  V30 40345 N 3956.87 -1.00501 1.21398 0
M  V30 40346 C 3958.1 -1.78388 1.05794 0
M  V30 40347 C 3958.52 -1.84057 -0.387888 0
M  V30 40348 O 3957.88 -1.28415 -1.27981 0
M  V30 40349 C 3957.93 -3.20134 1.65972 0
M  V30 40350 O 3957.03 -4.02343 0.905194 0
M  V30 40351 H 3956.37 -0.54978 0.372341 0
M  V30 40352 H 3958.9 -1.26331 1.6094 0
M  V30 40353 H 3958.91 -3.70808 1.70193 0
M  V30 40354 H 3957.59 -3.15322 2.71191 0
M  V30 40355 H 3956.17 -3.60908 0.938082 0
M  V30 40356 N 3958.35 -1.02172 -1.19994 0
M  V30 40357 C 3959.58 -0.733408 -1.93465 0
M  V30 40358 C 3959.99 0.706689 -1.75075 0
M  V30 40359 O 3959.35 1.47985 -1.06802 0
M  V30 40360 C 3959.4 -1.06607 -3.45423 0
M  V30 40361 O 3959.12 -2.44961 -3.63216 0
M  V30 40362 C 3960.62 -0.799535 -4.3603 0
M  V30 40363 H 3957.84 -0.268914 -0.614757 0
M  V30 40364 H 3960.39 -1.36429 -1.5234 0
M  V30 40365 H 3958.54 -0.4805 -3.84409 0
M  V30 40366 H 3958.96 -2.57125 -4.57151 0
M  V30 40367 H 3960.43 -1.08233 -5.41285 0
M  V30 40368 H 3960.91 0.266202 -4.38393 0
M  V30 40369 H 3961.51 -1.3675 -4.02715 0
M  V30 40370 N 3959.83 1.35866 -0.798635 0
M  V30 40371 C 3960.74 2.33704 -0.204799 0
M  V30 40372 C 3961.76 1.61485 0.647972 0
M  V30 40373 O 3962.93 1.93412 0.561594 0
M  V30 40374 C 3960 3.40682 0.643165 0
M  V30 40375 C 3959.06 4.28688 -0.229174 0
M  V30 40376 C 3958.29 5.30556 0.578414 0
M  V30 40377 O 3958.51 5.40796 1.81372 0
M  V30 40378 O 3957.45 6.01894 -0.0265349 0
M  V30 40379 H 3961.27 2.86273 -1.01397 0
M  V30 40380 H 3958.86 1.38497 -0.560266 0
M  V30 40381 H 3960.74 4.06067 1.12641 0
M  V30 40382 H 3959.42 2.90397 1.43007 0
M  V30 40383 H 3958.32 3.66312 -0.759378 0
M  V30 40384 H 3959.66 4.82349 -0.979821 0
M  V30 40385 N 3961.31 0.551443 1.47638 0
M  V30 40386 C 3962.54 0.0299268 2.06878 0
M  V30 40387 C 3962.95 -1.26121 1.40495 0
M  V30 40388 O 3962.31 -1.7553 0.499544 0
M  V30 40389 C 3962.36 -0.175386 3.61074 0
M  V30 40390 O 3962.08 1.06461 4.24968 0
M  V30 40391 C 3963.58 -0.734843 4.37167 0
M  V30 40392 H 3960.8 0.043226 0.669606 0
M  V30 40393 H 3963.34 0.763211 1.89724 0
M  V30 40394 H 3961.5 -0.858781 3.77761 0
M  V30 40395 H 3961.91 0.858735 5.17422 0
M  V30 40396 H 3963.39 -0.827819 5.45757 0
M  V30 40397 H 3963.86 -1.74479 4.03055 0
M  V30 40398 H 3964.47 -0.0873298 4.2521 0
M  V30 40399 N 3962.79 -1.54953 0.287609 0
M  V30 40400 C 3963.7 -2.26686 -0.604196 0
M  V30 40401 C 3964.71 -1.29721 -1.15968 0
M  V30 40402 O 3965.89 -1.6268 -1.18732 0
M  V30 40403 C 3962.95 -2.98347 -1.76606 0
M  V30 40404 C 3962.01 -4.1082 -1.24601 0
M  V30 40405 C 3961.25 -4.79055 -2.3525 0
M  V30 40406 O 3961.47 -4.46568 -3.54871 0
M  V30 40407 O 3960.4 -5.66742 -2.02699 0
M  V30 40408 H 3964.23 -3.03692 -0.0227129 0
M  V30 40409 H 3961.82 -1.493 0.0545505 0
M  V30 40410 H 3963.7 -3.4334 -2.44326 0
M  V30 40411 H 3962.37 -2.24248 -2.3344 0
M  V30 40412 H 3961.28 -3.70256 -0.534914 0
M  V30 40413 H 3962.61 -4.86857 -0.723262 0
M  V30 40414 N 3964.26 -0.0150939 -1.57593 0
M  V30 40415 C 3965.19 0.970044 -2.12397 0
M  V30 40416 C 3966.18 1.34859 -1.03668 0
M  V30 40417 O 3967.36 1.42968 -1.3143 0
M  V30 40418 C 3964.49 2.25702 -2.63962 0
M  V30 40419 C 3963.44 2.01965 -3.77352 0
M  V30 40420 C 3962.77 3.36807 -4.15289 0
M  V30 40421 C 3964.07 1.37008 -5.0401 0
M  V30 40422 H 3965.76 0.513679 -2.94961 0
M  V30 40423 H 3963.31 0.245641 -1.41889 0
M  V30 40424 H 3965.26 2.94988 -3.00932 0
M  V30 40425 H 3963.99 2.73479 -1.7854 0
M  V30 40426 H 3962.65 1.35101 -3.40798 0
M  V30 40427 H 3962.29 3.82316 -3.26869 0
M  V30 40428 H 3961.99 3.21735 -4.91691 0
M  V30 40429 H 3963.52 4.07383 -4.54831 0
M  V30 40430 H 3964.93 1.96272 -5.38656 0
M  V30 40431 H 3963.33 1.32378 -5.85317 0
M  V30 40432 H 3964.4 0.341196 -4.83698 0
M  V30 40433 N 3965.74 1.55476 0.257876 0
M  V30 40434 C 3967.02 1.67529 1.00962 0
M  V30 40435 C 3967.4 0.551729 2.03762 0
M  V30 40436 O 3966.75 -0.446275 2.241 0
M  V30 40437 C 3966.96 3.0738 1.65284 0
M  V30 40438 C 3968.31 3.65623 2.15881 0
M  V30 40439 O 3969.33 3.10109 1.75244 0
M  V30 40440 O 3968.19 4.62919 2.90463 0
M  V30 40441 H 3965.28 0.680977 0.469254 0
M  V30 40442 H 3967.83 1.6781 0.252533 0
M  V30 40443 H 3966.6 3.80603 0.908702 0
M  V30 40444 H 3966.22 3.11062 2.47641 0
M  V30 40445 N 3967.22 -0.523064 1.48667 0
M  V30 40446 C 3968.47 -1.2804 1.57269 0
M  V30 40447 C 3968.8 -1.92599 0.248835 0
M  V30 40448 O 3968.07 -1.79634 -0.745782 0
M  V30 40449 C 3968.36 -2.36444 2.716 0
M  V30 40450 C 3968.21 -1.76531 4.13711 0
M  V30 40451 C 3969.53 -3.38165 2.8166 0
M  V30 40452 H 3966.65 -0.464171 0.572464 0
M  V30 40453 H 3969.29 -0.581981 1.80867 0
M  V30 40454 H 3967.44 -2.96015 2.51609 0
M  V30 40455 H 3969.11 -1.20957 4.4516 0
M  V30 40456 H 3967.36 -1.07034 4.20388 0
M  V30 40457 H 3968.03 -2.55054 4.89542 0
M  V30 40458 H 3970.5 -2.88558 2.99789 0
M  V30 40459 H 3969.38 -4.11402 3.63373 0
M  V30 40460 H 3969.64 -3.99142 1.901 0
M  V30 40461 N 3968.7 -1.37371 -0.772465 0
M  V30 40462 C 3969.63 -1.35775 -1.89967 0
M  V30 40463 C 3970.61 -0.226482 -1.68585 0
M  V30 40464 O 3971.79 -0.426725 -1.89454 0
M  V30 40465 C 3968.92 -1.16325 -3.2724 0
M  V30 40466 C 3967.88 -2.26456 -3.63183 0
M  V30 40467 C 3967.2 -1.9213 -4.98989 0
M  V30 40468 C 3968.5 -3.68636 -3.70006 0
M  V30 40469 H 3970.2 -2.30098 -1.9156 0
M  V30 40470 H 3967.74 -1.10761 -0.920222 0
M  V30 40471 H 3969.7 -1.13839 -4.05732 0
M  V30 40472 H 3968.42 -0.18457 -3.26078 0
M  V30 40473 H 3967.08 -2.28097 -2.86997 0
M  V30 40474 H 3966.73 -0.927935 -4.94367 0
M  V30 40475 H 3966.43 -2.65876 -5.24007 0
M  V30 40476 H 3967.95 -1.9123 -5.79882 0
M  V30 40477 H 3969.37 -3.69129 -4.38653 0
M  V30 40478 H 3967.76 -4.4143 -4.06521 0
M  V30 40479 H 3968.83 -4.02314 -2.70687 0
M  V30 40480 N 3970.18 0.998553 -1.21929 0
M  V30 40481 C 3971.11 2.10599 -1.00849 0
M  V30 40482 C 3972.09 1.69961 0.0687031 0
M  V30 40483 O 3973.27 1.9398 -0.0924027 0
M  V30 40484 C 3970.4 3.42434 -0.579351 0
M  V30 40485 C 3969.36 3.96895 -1.60183 0
M  V30 40486 C 3968.68 5.24711 -1.02872 0
M  V30 40487 C 3969.98 4.28222 -2.99037 0
M  V30 40488 H 3971.68 2.28492 -1.93473 0
M  V30 40489 H 3969.22 1.09803 -0.931631 0
M  V30 40490 H 3971.18 4.19312 -0.419017 0
M  V30 40491 H 3969.9 3.24352 0.382551 0
M  V30 40492 H 3968.56 3.22143 -1.74984 0
M  V30 40493 H 3968.21 5.02966 -0.0583424 0
M  V30 40494 H 3967.91 5.62114 -1.71176 0
M  V30 40495 H 3969.43 6.04228 -0.879849 0
M  V30 40496 H 3970.84 4.95918 -2.87643 0
M  V30 40497 H 3969.24 4.76784 -3.64413 0
M  V30 40498 H 3970.31 3.3623 -3.49396 0
M  V30 40499 N 3971.65 1.02807 1.1945 0
M  V30 40500 C 3973.07 0.753875 1.70803 0
M  V30 40501 C 3973.42 -0.726551 1.82252 0
M  V30 40502 O 3972.54 -1.56638 1.4931 0
M  V30 40503 C 3973.14 1.36184 3.10225 0
M  V30 40504 C 3971.7 1.13625 3.5884 0
M  V30 40505 C 3970.84 1.4604 2.35728 0
M  V30 40506 H 3973.79 1.1961 1.04303 0
M  V30 40507 H 3973.81 0.758381 3.72866 0
M  V30 40508 H 3973.33 2.43931 3.0186 0
M  V30 40509 H 3971.43 0.0769569 3.72521 0
M  V30 40510 H 3971.54 1.82439 4.43004 0
M  V30 40511 H 3969.9 0.879711 2.39025 0
M  V30 40512 H 3970.69 2.54868 2.29994 0
M  V30 40513 N 3973.13 -1.35441 0.805829 0
M  V30 40514 C 3974.36 -2.0303 0.398288 0
M  V30 40515 C 3974.78 -1.6073 -0.990514 0
M  V30 40516 O 3974.13 -0.80449 -1.63811 0
M  V30 40517 C 3974.18 -3.58416 0.471179 0
M  V30 40518 O 3973.9 -3.99178 1.80523 0
M  V30 40519 C 3975.41 -4.43264 0.0563499 0
M  V30 40520 H 3972.63 -0.651171 0.161917 0
M  V30 40521 H 3975.17 -1.73077 1.08924 0
M  V30 40522 H 3973.32 -3.8702 -0.171516 0
M  V30 40523 H 3973.74 -4.93822 1.76748 0
M  V30 40524 H 3975.21 -5.51772 0.158467 0
M  V30 40525 H 3975.69 -4.27705 -0.998233 0
M  V30 40526 H 3976.3 -4.19955 0.672171 0
M  V30 40527 N 3974.61 -0.559265 -1.47343 0
M  V30 40528 C 3975.57 0.17684 -2.28517 0
M  V30 40529 C 3976.57 0.840799 -1.37066 0
M  V30 40530 O 3977.76 0.696345 -1.59677 0
M  V30 40531 C 3974.9 1.25887 -3.16805 0
M  V30 40532 H 3976.09 -0.536226 -2.95067 0
M  V30 40533 H 3973.64 -0.31629 -1.53066 0
M  V30 40534 H 3974.38 2.00426 -2.5495 0
M  V30 40535 H 3974.16 0.787557 -3.84109 0
M  V30 40536 H 3975.65 1.77582 -3.77961 0
M  V30 40537 N 3976.09 1.54799 -0.295822 0
M  V30 40538 C 3977.32 2.04446 0.317727 0
M  V30 40539 C 3977.73 1.17334 1.47913 0
M  V30 40540 O 3977.09 0.197843 1.81424 0
M  V30 40541 C 3977.14 3.53008 0.778933 0
M  V30 40542 O 3976.86 4.36808 -0.336237 0
M  V30 40543 C 3978.36 4.18632 1.45817 0
M  V30 40544 H 3975.58 0.667362 0.0697754 0
M  V30 40545 H 3978.13 1.99843 -0.433947 0
M  V30 40546 H 3976.28 3.57988 1.48064 0
M  V30 40547 H 3976.69 5.24495 0.0219006 0
M  V30 40548 H 3978.17 5.24121 1.73209 0
M  V30 40549 H 3978.65 3.68053 2.39654 0
M  V30 40550 H 3979.25 4.17712 0.799773 0
M  V30 40551 N 3977.57 0.0234513 1.57583 0
M  V30 40552 C 3978.79 -0.670337 1.96268 0
M  V30 40553 C 3979.22 -1.65192 0.899615 0
M  V30 40554 O 3978.58 -1.80758 -0.140047 0
M  V30 40555 C 3978.62 -1.35801 3.34052 0
M  V30 40556 O 3977.73 -2.47314 3.30014 0
M  V30 40557 H 3977.07 -0.176546 0.6401 0
M  V30 40558 H 3979.6 0.0836188 2.04429 0
M  V30 40559 H 3979.61 -1.71609 3.70154 0
M  V30 40560 H 3978.28 -0.638447 4.1097 0
M  V30 40561 H 3976.86 -2.13659 3.05621 0
M  V30 40562 N 3979.05 -1.5561 -0.249627 0
M  V30 40563 C 3979.98 -1.93102 -1.31277 0
M  V30 40564 C 3980.96 -0.795628 -1.50346 0
M  V30 40565 O 3982.14 -1.05569 -1.62999 0
M  V30 40566 C 3979.27 -2.22335 -2.66804 0
M  V30 40567 C 3978.23 -3.381 -2.62435 0
M  V30 40568 C 3977.55 -3.52868 -4.01732 0
M  V30 40569 C 3978.85 -4.73864 -2.19659 0
M  V30 40570 H 3980.55 -2.82154 -1.00146 0
M  V30 40571 H 3978.09 -1.35754 -0.480307 0
M  V30 40572 H 3980.04 -2.47152 -3.41312 0
M  V30 40573 H 3978.77 -1.30106 -2.99566 0
M  V30 40574 H 3977.43 -3.13287 -1.90385 0
M  V30 40575 H 3977.08 -2.58064 -4.31755 0
M  V30 40576 H 3976.78 -4.30715 -3.99697 0
M  V30 40577 H 3978.3 -3.80003 -4.77944 0
M  V30 40578 H 3979.71 -4.98072 -2.83897 0
M  V30 40579 H 3978.11 -5.54795 -2.28741 0
M  V30 40580 H 3979.18 -4.7111 -1.14821 0
M  V30 40581 N 3980.52 0.515172 -1.48942 0
M  V30 40582 C 3981.93 1.09692 -1.51078 0
M  V30 40583 C 3982.29 1.94061 -0.288909 0
M  V30 40584 O 3981.41 2.0784 0.602629 0
M  V30 40585 C 3982.01 1.99604 -2.73758 0
M  V30 40586 C 3980.56 2.52969 -2.78718 0
M  V30 40587 C 3979.71 1.30261 -2.448 0
M  V30 40588 H 3982.66 0.299729 -1.55844 0
M  V30 40589 H 3982.68 2.84099 -2.53117 0
M  V30 40590 H 3982.2 1.38172 -3.62671 0
M  V30 40591 H 3980.3 3.1808 -1.94051 0
M  V30 40592 H 3980.41 2.9109 -3.8053 0
M  V30 40593 H 3978.77 1.62324 -1.96273 0
M  V30 40594 H 3979.56 0.705589 -3.35971 0
M  V30 40595 N 3982 1.37779 0.765169 0
M  V30 40596 C 3983.25 1.32671 1.51925 0
M  V30 40597 C 3983.56 -0.0843828 1.95418 0
M  V30 40598 O 3984.77 -0.257953 2.70272 0
M  V30 40599 C 3983.23 2.32911 2.74373 0
M  V30 40600 C 3982.83 3.79582 2.37953 0
M  V30 40601 C 3984.58 2.36826 3.52298 0
M  V30 40602 C 3982.48 4.71537 3.56941 0
M  V30 40603 H 3981.41 0.493108 0.570404 0
M  V30 40604 H 3984.07 1.63273 0.837503 0
M  V30 40605 H 3982.45 1.95335 3.44471 0
M  V30 40606 H 3983.62 4.26031 1.75596 0
M  V30 40607 H 3981.94 3.78675 1.73188 0
M  V30 40608 H 3984.53 3.02729 4.40749 0
M  V30 40609 H 3984.88 1.38378 3.92629 0
M  V30 40610 H 3985.41 2.73142 2.89203 0
M  V30 40611 H 3982.15 5.71137 3.21687 0
M  V30 40612 H 3981.67 4.29788 4.18381 0
M  V30 40613 H 3983.35 4.8899 4.23671 0
M  V30 40614 N 3983.48 -0.992073 1.22457 0
M  V30 40615 C 3984.89 -1.54626 1.04632 0
M  V30 40616 C 3985.24 -1.92285 -0.389977 0
M  V30 40617 O 3984.37 -1.74845 -1.27508 0
M  V30 40618 C 3984.96 -2.80974 1.89311 0
M  V30 40619 C 3983.52 -3.32833 1.75781 0
M  V30 40620 C 3982.67 -2.05914 1.85728 0
M  V30 40621 H 3985.62 -0.813065 1.3629 0
M  V30 40622 H 3985.64 -3.53371 1.41101 0
M  V30 40623 H 3985.15 -2.53534 2.93841 0
M  V30 40624 H 3983.25 -3.6518 0.739886 0
M  V30 40625 H 3983.37 -4.0338 2.58498 0
M  V30 40626 H 3981.73 -2.19512 1.29177 0
M  V30 40627 H 3982.51 -1.80869 2.9179 0
M  V30 40628 N 3984.96 -1.03439 -1.18904 0
M  V30 40629 C 3986.37 -0.752469 -1.40748 0
M  V30 40630 C 3986.57 0.660645 -1.90362 0
M  V30 40631 O 3985.63 1.42581 -2.08391 0
M  V30 40632 C 3986.94 -1.79325 -2.41377 0
M  V30 40633 C 3988.49 -1.81344 -2.55115 0
M  V30 40634 C 3988.97 -2.84397 -3.59002 0
M  V30 40635 N 3990.46 -2.83248 -3.66503 0
M  V30 40636 C 3991.19 -3.59639 -4.46595 0
M  V30 40637 N 3990.69 -4.45762 -5.30347 0
M  V30 40638 N 3992.48 -3.48156 -4.41298 0
M  V30 40639 H 3984.63 -1.94641 -0.850224 0
M  V30 40640 H 3986.89 -0.841816 -0.435947 0
M  V30 40641 H 3986.6 -2.80654 -2.11958 0
M  V30 40642 H 3986.47 -1.62014 -3.40634 0
M  V30 40643 H 3988.86 -0.806897 -2.83854 0
M  V30 40644 H 3988.94 -2.02731 -1.55993 0
M  V30 40645 H 3988.59 -3.85226 -3.31004 0
M  V30 40646 H 3988.52 -2.60266 -4.57787 0
M  V30 40647 H 3991.01 -2.20789 -3.06693 0
M  V30 40648 H 3991.32 -5.00776 -5.88594 0
M  V30 40649 H 3989.67 -4.49832 -5.29789 0
M  V30 40650 H 3992.86 -2.80282 -3.74913 0
M  V30 40651 H 3993.03 -4.07941 -5.03476 0
M  V30 40652 N 3986.44 1.35011 -0.813001 0
M  V30 40653 C 3987.38 2.29692 -0.225857 0
M  V30 40654 C 3988.35 1.53118 0.64374 0
M  V30 40655 O 3989.54 1.81531 0.587473 0
M  V30 40656 C 3986.68 3.39587 0.614384 0
M  V30 40657 C 3985.79 4.31115 -0.276356 0
M  V30 40658 C 3984.93 5.28106 0.572502 0
M  V30 40659 C 3983.96 6.11272 -0.318241 0
M  V30 40660 N 3983.1 7.00381 0.490963 0
M  V30 40661 H 3987.94 2.79313 -1.03866 0
M  V30 40662 H 3985.48 1.37461 -0.523719 0
M  V30 40663 H 3987.44 4.01975 1.11676 0
M  V30 40664 H 3986.07 2.91226 1.39239 0
M  V30 40665 H 3985.12 3.69676 -0.896885 0
M  V30 40666 H 3986.43 4.89442 -0.961687 0
M  V30 40667 H 3985.58 5.95898 1.13976 0
M  V30 40668 H 3984.32 4.70292 1.29138 0
M  V30 40669 H 3983.33 5.42421 -0.897717 0
M  V30 40670 H 3984.55 6.71165 -1.03508 0
M  V30 40671 H 3982.5 6.45048 1.19369 0
M  V30 40672 H 3982.42 7.55877 -0.136187 0
M  V30 40673 H 3983.68 7.72514 1.04129 0
M  V30 40674 N 3987.91 0.567071 1.47044 0
M  V30 40675 C 3989.14 0.0499193 2.0734 0
M  V30 40676 C 3989.56 -1.23879 1.41547 0
M  V30 40677 O 3988.92 -1.74445 0.493828 0
M  V30 40678 C 3988.97 -0.118719 3.60405 0
M  V30 40679 O 3988.07 -1.17898 3.95188 0
M  V30 40680 H 3987.41 0.0557577 0.661655 0
M  V30 40681 H 3989.94 0.785564 1.88918 0
M  V30 40682 H 3989.95 -0.329828 4.06665 0
M  V30 40683 H 3988.63 0.82248 4.07686 0
M  V30 40684 H 3987.21 -0.947581 3.6066 0
M  V30 40685 N 3989.39 -1.5464 0.304027 0
M  V30 40686 C 3990.35 -2.22307 -0.557878 0
M  V30 40687 C 3991.35 -1.2101 -1.05893 0
M  V30 40688 O 3992.54 -1.45724 -0.954472 0
M  V30 40689 C 3989.68 -2.91181 -1.77274 0
M  V30 40690 H 3990.87 -2.99881 0.0333714 0
M  V30 40691 H 3988.42 -1.56204 0.0548934 0
M  V30 40692 H 3989.16 -2.17694 -2.40375 0
M  V30 40693 H 3988.94 -3.65442 -1.42108 0
M  V30 40694 H 3990.43 -3.42793 -2.38501 0
M  V30 40695 N 3990.87 -0.0318079 -1.57568 0
M  V30 40696 C 3992.1 0.656366 -1.96213 0
M  V30 40697 C 3992.51 1.65508 -0.908435 0
M  V30 40698 O 3991.87 1.82171 0.10947 0
M  V30 40699 C 3991.92 1.36038 -3.34927 0
M  V30 40700 O 3991.64 0.401681 -4.36255 0
M  V30 40701 C 3993.14 2.14012 -3.88219 0
M  V30 40702 H 3990.36 0.180797 -0.646184 0
M  V30 40703 H 3992.91 -0.09237 -2.04291 0
M  V30 40704 H 3991.06 2.06049 -3.28059 0
M  V30 40705 H 3991.48 0.901915 -5.16687 0
M  V30 40706 H 3992.95 2.58721 -4.87614 0
M  V30 40707 H 3993.43 2.98029 -3.22608 0
M  V30 40708 H 3994.03 1.48953 -3.98363 0
M  V30 40709 N 3992.35 1.55741 0.241371 0
M  V30 40710 C 3993.59 1.78094 0.970067 0
M  V30 40711 C 3993.93 0.598037 1.84762 0
M  V30 40712 O 3993.2 -0.403482 1.90269 0
M  V30 40713 C 3993.49 3.10376 1.82589 0
M  V30 40714 C 3993.34 4.3908 0.976151 0
M  V30 40715 C 3994.66 3.38932 2.80737 0
M  V30 40716 H 3991.78 0.64792 0.351239 0
M  V30 40717 H 3994.42 1.88476 0.240199 0
M  V30 40718 H 3992.57 3.01657 2.44817 0
M  V30 40719 H 3994.24 4.59796 0.372139 0
M  V30 40720 H 3992.48 4.32891 0.280731 0
M  V30 40721 H 3993.15 5.28033 1.6089 0
M  V30 40722 H 3995.63 3.4765 2.28645 0
M  V30 40723 H 3994.51 4.32696 3.37735 0
M  V30 40724 H 3994.77 2.60117 3.5748 0
M  V30 40725 N 3993.83 -0.507266 1.49213 0
M  V30 40726 C 3995.08 -1.25837 1.57632 0
M  V30 40727 C 3995.39 -1.93791 0.265377 0
M  V30 40728 O 3996.59 -2.70541 0.228044 0
M  V30 40729 C 3995.05 -2.28452 2.78097 0
M  V30 40730 C 3994.66 -1.66465 4.15925 0
M  V30 40731 C 3996.4 -3.0443 2.95842 0
M  V30 40732 C 3994.31 -2.67153 5.2762 0
M  V30 40733 H 3993.24 -0.473349 0.586904 0
M  V30 40734 H 3995.89 -0.532987 1.75589 0
M  V30 40735 H 3994.27 -3.04126 2.53621 0
M  V30 40736 H 3995.45 -0.968258 4.50512 0
M  V30 40737 H 3993.76 -1.02899 4.03486 0
M  V30 40738 H 3996.36 -3.79714 3.76459 0
M  V30 40739 H 3996.7 -3.61667 2.06162 0
M  V30 40740 H 3997.23 -2.35871 3.20328 0
M  V30 40741 H 3993.97 -2.14705 6.1934 0
M  V30 40742 H 3993.49 -3.35051 4.97494 0
M  V30 40743 H 3995.17 -3.29702 5.56692 0
M  V30 40744 N 3995.3 -1.38182 -0.757851 0
M  V30 40745 C 3996.72 -1.30523 -1.33493 0
M  V30 40746 C 3997.07 0.040906 -1.96157 0
M  V30 40747 O 3996.19 0.942923 -1.94777 0
M  V30 40748 C 3996.79 -2.36373 -2.42721 0
M  V30 40749 C 3995.35 -2.32305 -2.96161 0
M  V30 40750 C 3994.49 -2.19464 -1.69501 0
M  V30 40751 H 3997.44 -1.48602 -0.557049 0
M  V30 40752 H 3997.46 -2.01842 -3.22552 0
M  V30 40753 H 3996.98 -3.34335 -1.97083 0
M  V30 40754 H 3995.08 -1.37911 -3.46138 0
M  V30 40755 H 3995.19 -3.26275 -3.5083 0
M  V30 40756 H 3993.55 -1.66244 -1.92964 0
M  V30 40757 H 3994.34 -3.19362 -1.25948 0
M  V30 40758 N 3996.78 0.985565 -1.22981 0
M  V30 40759 C 3997.69 2.11122 -1.02298 0
M  V30 40760 C 3998.71 1.73972 0.0309605 0
M  V30 40761 O 3999.88 2.00736 -0.163369 0
M  V30 40762 C 3996.95 3.41271 -0.611162 0
M  V30 40763 C 3996.01 3.92477 -1.73956 0
M  V30 40764 C 3995.24 5.16414 -1.3473 0
M  V30 40765 O 3995.47 5.69939 -0.229271 0
M  V30 40766 O 3994.4 5.61557 -2.16649 0
M  V30 40767 H 3998.23 2.31458 -1.96624 0
M  V30 40768 H 3995.81 1.09497 -1.01641 0
M  V30 40769 H 3997.69 4.19571 -0.3922 0
M  V30 40770 H 3996.37 3.22277 0.303167 0
M  V30 40771 H 3995.28 3.15317 -2.01311 0
M  V30 40772 H 3996.61 4.15916 -2.63201 0
M  V30 40773 N 3998.26 1.04068 1.18353 0
M  V30 40774 C 3999.51 0.739263 1.87664 0
M  V30 40775 C 3999.82 -0.735931 1.81228 0
M  V30 40776 O 4001.03 -1.15087 2.45901 0
M  V30 40777 C 3999.48 1.27208 3.36669 0
M  V30 40778 C 3999.09 2.77591 3.51635 0
M  V30 40779 C 4000.84 1.04719 4.11381 0
M  V30 40780 C 3998.74 3.24231 4.94599 0
M  V30 40781 H 3997.67 0.272842 0.702903 0
M  V30 40782 H 4000.32 1.25652 1.33731 0
M  V30 40783 H 3998.71 0.68269 3.90071 0
M  V30 40784 H 3999.88 3.42288 3.08505 0
M  V30 40785 H 3998.2 2.98493 2.90329 0
M  V30 40786 H 4000.79 1.3708 5.1683 0
M  V30 40787 H 4001.14 -0.0155612 4.16297 0
M  V30 40788 H 4001.67 1.6012 3.64152 0
M  V30 40789 H 3998.41 4.29887 4.94851 0
M  V30 40790 H 3997.93 2.64269 5.38444 0
M  V30 40791 H 3999.61 3.18254 5.63314 0
M  V30 40792 N 3999.74 -1.34578 0.820149 0
M  V30 40793 C 4000.65 -2.33349 0.241954 0
M  V30 40794 C 4001.66 -1.62495 -0.6222 0
M  V30 40795 O 4002.84 -1.94281 -0.530753 0
M  V30 40796 C 3999.91 -3.41662 -0.588884 0
M  V30 40797 C 3998.97 -4.28269 0.297345 0
M  V30 40798 C 3998.2 -5.31409 -0.493934 0
M  V30 40799 O 3998.42 -5.43613 -1.72746 0
M  V30 40800 O 3997.36 -6.01776 0.122288 0
M  V30 40801 H 4001.18 -2.84624 1.05939 0
M  V30 40802 H 3998.77 -1.37588 0.582229 0
M  V30 40803 H 4000.65 -4.07807 -1.06166 0
M  V30 40804 H 3999.32 -2.92636 -1.38369 0
M  V30 40805 H 3998.23 -3.65057 0.817559 0
M  V30 40806 H 3999.56 -4.80729 1.05643 0
M  V30 40807 N 4001.22 -0.574861 -1.46742 0
M  V30 40808 C 4002.46 -0.0573375 -2.02019 0
M  V30 40809 C 4002.79 1.30421 -1.44967 0
M  V30 40810 O 4002.06 1.85445 -0.63141 0
M  V30 40811 H 4000.64 -0.0182061 -0.746778 0
M  V30 40812 H 4003.3 -0.748866 -1.79939 0
M  V30 40813 H 4002.39 0.0175566 -3.12095 0
M  V30 40814 N 4002.69 1.54476 -0.312224 0
M  V30 40815 C 4003.94 1.99537 0.294572 0
M  V30 40816 C 4004.26 1.20424 1.54135 0
M  V30 40817 O 4005.46 1.55807 2.22343 0
M  V30 40818 C 4003.92 3.5527 0.575408 0
M  V30 40819 C 4003.53 4.43206 -0.653669 0
M  V30 40820 C 4005.27 4.08829 1.14278 0
M  V30 40821 C 4003.18 5.90391 -0.345364 0
M  V30 40822 H 4002.11 0.745356 0.113846 0
M  V30 40823 H 4004.76 1.78566 -0.422681 0
M  V30 40824 H 4003.14 3.72186 1.35255 0
M  V30 40825 H 4004.31 4.38065 -1.42952 0
M  V30 40826 H 4002.63 4.00478 -1.14046 0
M  V30 40827 H 4005.23 5.16374 1.38788 0
M  V30 40828 H 4005.57 3.60116 2.0886 0
M  V30 40829 H 4006.1 3.95501 0.427085 0
M  V30 40830 H 4002.84 6.43275 -1.26005 0
M  V30 40831 H 4002.36 5.98511 0.393001 0
M  V30 40832 H 4004.04 6.46981 0.048971 0
M  V30 40833 N 4004.17 0.0401637 1.57549 0
M  V30 40834 C 4005.12 -0.937976 2.10881 0
M  V30 40835 C 4006.09 -1.31595 1.0135 0
M  V30 40836 O 4007.27 -1.40735 1.28835 0
M  V30 40837 C 4004.41 -2.21133 2.64942 0
M  V30 40838 C 4003.53 -1.88882 3.8852 0
M  V30 40839 C 4002.66 -3.10594 4.30935 0
M  V30 40840 C 4001.7 -2.74213 5.47242 0
M  V30 40841 N 4000.84 -3.88584 5.84762 0
M  V30 40842 H 4005.68 -0.476276 2.94169 0
M  V30 40843 H 4003.22 -0.223477 1.45393 0
M  V30 40844 H 4005.17 -2.95628 2.9438 0
M  V30 40845 H 4003.8 -2.64899 1.84467 0
M  V30 40846 H 4002.86 -1.04582 3.65741 0
M  V30 40847 H 4004.17 -1.58095 4.73083 0
M  V30 40848 H 4003.32 -3.93399 4.61868 0
M  V30 40849 H 4002.06 -3.4455 3.45161 0
M  V30 40850 H 4001.07 -1.89822 5.15992 0
M  V30 40851 H 4002.29 -2.4146 6.34723 0
M  V30 40852 H 4000.24 -4.22362 5.01942 0
M  V30 40853 H 4000.15 -3.61459 6.63991 0
M  V30 40854 H 4001.42 -4.72061 6.20305 0
M  V30 40855 N 4005.65 -1.55866 -0.233109 0
M  V30 40856 C 4006.61 -1.90648 -1.27224 0
M  V30 40857 C 4007.61 -0.784063 -1.40389 0
M  V30 40858 O 4008.8 -1.05193 -1.38853 0
M  V30 40859 C 4005.94 -2.14711 -2.64787 0
M  V30 40860 H 4007.13 -2.83576 -0.975936 0
M  V30 40861 H 4004.68 -1.48971 -0.473019 0
M  V30 40862 H 4005.42 -1.24296 -2.99535 0
M  V30 40863 H 4005.2 -2.96469 -2.5661 0
M  V30 40864 H 4006.69 -2.42756 -3.39793 0
M  V30 40865 N 4007.13 0.499346 -1.4948 0
M  V30 40866 C 4008.04 1.62706 -1.69009 0
M  V30 40867 C 4009.06 1.64305 -0.57271 0
M  V30 40868 O 4010.23 1.82695 -0.847618 0
M  V30 40869 C 4007.3 2.99066 -1.75387 0
M  V30 40870 C 4006.36 3.08081 -2.98973 0
M  V30 40871 C 4005.59 4.37936 -3.05037 0
M  V30 40872 O 4005.81 5.26829 -2.1865 0
M  V30 40873 O 4004.75 4.51957 -3.97515 0
M  V30 40874 H 4008.57 1.4916 -2.64547 0
M  V30 40875 H 4006.16 0.675813 -1.33241 0
M  V30 40876 H 4008.04 3.80106 -1.81926 0
M  V30 40877 H 4006.72 3.12871 -0.830281 0
M  V30 40878 H 4005.62 2.26222 -2.97951 0
M  V30 40879 H 4006.96 2.99203 -3.90817 0
M  V30 40880 N 4008.61 1.38582 0.750513 0
M  V30 40881 C 4009.57 1.35855 1.84597 0
M  V30 40882 C 4010.57 0.258489 1.58709 0
M  V30 40883 O 4011.76 0.515549 1.66396 0
M  V30 40884 C 4008.89 1.11579 3.22123 0
M  V30 40885 H 4010.09 2.33318 1.88422 0
M  V30 40886 H 4007.64 1.23921 0.952542 0
M  V30 40887 H 4008.37 0.147352 3.23965 0
M  V30 40888 H 4008.16 1.91227 3.42308 0
M  V30 40889 H 4009.65 1.12374 4.02196 0
M  V30 40890 N 4010.09 -0.979029 1.23502 0
M  V30 40891 C 4011.03 -2.07165 1.01741 0
M  V30 40892 C 4012 -1.6597 -0.0655776 0
M  V30 40893 O 4013.19 -1.90602 0.0868011 0
M  V30 40894 C 4010.33 -3.39555 0.616164 0
M  V30 40895 C 4009.44 -3.94011 1.77142 0
M  V30 40896 C 4008.58 -5.14619 1.31683 0
M  V30 40897 C 4007.61 -5.61245 2.44274 0
M  V30 40898 N 4006.75 -6.73082 1.99764 0
M  V30 40899 H 4011.59 -2.25114 1.95263 0
M  V30 40900 H 4009.13 -1.10347 0.972726 0
M  V30 40901 H 4011.09 -4.15604 0.364622 0
M  V30 40902 H 4009.72 -3.21565 -0.282061 0
M  V30 40903 H 4008.77 -3.14706 2.13693 0
M  V30 40904 H 4010.08 -4.24584 2.61782 0
M  V30 40905 H 4009.23 -5.98005 1.02349 0
M  V30 40906 H 4007.97 -4.85704 0.44081 0
M  V30 40907 H 4006.98 -4.7644 2.74381 0
M  V30 40908 H 4008.2 -5.9218 3.32415 0
M  V30 40909 H 4006.15 -6.45922 1.14544 0
M  V30 40910 H 4006.07 -7.03045 2.77963 0
M  V30 40911 H 4007.33 -7.59937 1.73538 0
M  V30 40912 N 4011.56 -1.04695 -1.178 0
M  V30 40913 C 4012.53 -0.647855 -2.19853 0
M  V30 40914 C 4013.53 0.298053 -1.58014 0
M  V30 40915 O 4014.72 0.0826003 -1.74004 0
M  V30 40916 C 4011.85 0.0492062 -3.40864 0
M  V30 40917 H 4013.04 -1.55105 -2.56675 0
M  V30 40918 H 4010.59 -0.840239 -1.31794 0
M  V30 40919 H 4011.33 0.965912 -3.09581 0
M  V30 40920 H 4011.11 -0.630745 -3.86994 0
M  V30 40921 H 4012.6 0.314717 -4.16412 0
M  V30 40922 N 4013.04 1.34141 -0.827275 0
M  V30 40923 C 4013.97 2.31968 -0.267056 0
M  V30 40924 C 4014.95 1.58442 0.618878 0
M  V30 40925 O 4016.14 1.864 0.544849 0
M  V30 40926 C 4013.27 3.42618 0.568319 0
M  V30 40927 C 4012.22 4.2743 -0.220842 0
M  V30 40928 C 4011.55 5.29589 0.73755 0
M  V30 40929 C 4012.85 5.02301 -1.43146 0
M  V30 40930 H 4014.54 2.79071 -1.08441 0
M  V30 40931 H 4012.09 1.34171 -0.522903 0
M  V30 40932 H 4014.04 4.10073 0.970453 0
M  V30 40933 H 4012.76 2.94174 1.41877 0
M  V30 40934 H 4011.42 3.61583 -0.604397 0
M  V30 40935 H 4011.07 4.77406 1.58408 0
M  V30 40936 H 4010.77 5.87211 0.213712 0
M  V30 40937 H 4012.3 5.99912 1.13745 0
M  V30 40938 H 4013.71 5.62587 -1.10311 0
M  V30 40939 H 4012.11 5.69519 -1.89125 0
M  V30 40940 H 4013.18 4.31744 -2.20737 0
M  V30 40941 N 4014.52 0.582635 1.46435 0
M  V30 40942 C 4015.8 0.00132605 1.956 0
M  V30 40943 C 4016.18 -1.45939 1.52529 0
M  V30 40944 O 4015.52 -2.14922 0.775949 0
M  V30 40945 C 4015.73 0.173305 3.48569 0
M  V30 40946 C 4017.08 0.0410919 4.2458 0
M  V30 40947 O 4018.11 0.102137 3.56054 0
M  V30 40948 O 4016.97 -0.0946603 5.46418 0
M  V30 40949 H 4014.06 -0.0498561 0.825496 0
M  V30 40950 H 4016.61 0.650948 1.56719 0
M  V30 40951 H 4015.38 1.18877 3.72806 0
M  V30 40952 H 4015 -0.512752 3.9428 0
M  V30 40953 N 4016 -1.54309 0.320412 0
M  V30 40954 C 4017.27 -1.92671 -0.337215 0
M  V30 40955 C 4017.65 -1.2497 -1.70134 0
M  V30 40956 O 4017 -0.392279 -2.25108 0
M  V30 40957 C 4017.21 -3.46309 -0.432572 0
M  V30 40958 C 4018.56 -4.18884 -0.69434 0
M  V30 40959 O 4019.58 -3.52448 -0.515619 0
M  V30 40960 O 4018.44 -5.36534 -1.03891 0
M  V30 40961 H 4015.54 -0.804411 -0.191971 0
M  V30 40962 H 4018.08 -1.6562 0.369896 0
M  V30 40963 H 4016.86 -3.87754 0.525622 0
M  V30 40964 H 4016.48 -3.79456 -1.18739 0
M  V30 40965 N 4017.48 -0.0485183 -1.57525 0
M  V30 40966 C 4018.41 0.962092 -2.06928 0
M  V30 40967 C 4019.39 1.30558 -0.969196 0
M  V30 40968 O 4020.57 1.41891 -1.24094 0
M  V30 40969 C 4017.7 2.27682 -2.50756 0
M  V30 40970 C 4016.74 2.08658 -3.71973 0
M  V30 40971 S 4017.58 1.3674 -5.17748 0
M  V30 40972 C 4018.73 2.69542 -5.64888 0
M  V30 40973 H 4018.97 0.54164 -2.92324 0
M  V30 40974 H 4016.5 0.163679 -1.5353 0
M  V30 40975 H 4018.46 3.03256 -2.7667 0
M  V30 40976 H 4017.12 2.66857 -1.6567 0
M  V30 40977 H 4016.31 3.059 -4.00551 0
M  V30 40978 H 4015.91 1.41225 -3.46311 0
M  V30 40979 H 4018.2 3.6572 -5.70311 0
M  V30 40980 H 4019.15 2.45604 -6.64142 0
M  V30 40981 H 4019.56 2.75679 -4.92607 0
M  V30 40982 N 4018.95 1.55988 0.224839 0
M  V30 40983 C 4020.2 1.78848 0.949716 0
M  V30 40984 C 4020.53 0.61671 1.84464 0
M  V30 40985 O 4019.78 -0.399064 1.91588 0
M  V30 40986 C 4020.08 3.07432 1.82264 0
M  V30 40987 C 4019.75 4.37745 1.08123 0
M  V30 40988 C 4018.41 4.73152 0.876413 0
M  V30 40989 C 4020.76 5.18211 0.557414 0
M  V30 40990 C 4018.09 5.86543 0.135827 0
M  V30 40991 C 4020.44 6.32372 -0.169813 0
M  V30 40992 C 4019.11 6.66383 -0.385913 0
M  V30 40993 H 4018.38 0.654452 0.347526 0
M  V30 40994 H 4021.02 1.90254 0.218129 0
M  V30 40995 H 4019.33 2.91134 2.62199 0
M  V30 40996 H 4021.03 3.22321 2.38559 0
M  V30 40997 H 4017.62 4.09941 1.25084 0
M  V30 40998 H 4021.8 4.91294 0.703132 0
M  V30 40999 H 4017.06 6.11386 -0.0418617 0
M  V30 41000 H 4021.23 6.93953 -0.583226 0
M  V30 41001 H 4018.86 7.54092 -0.961706 0
M  V30 41002 N 4020.43 -0.491412 1.49743 0
M  V30 41003 C 4021.34 -1.61807 1.69869 0
M  V30 41004 C 4022.36 -1.63999 0.581415 0
M  V30 41005 O 4023.53 -1.82243 0.857295 0
M  V30 41006 C 4020.6 -2.98131 1.7697 0
M  V30 41007 C 4019.66 -3.06491 3.00603 0
M  V30 41008 C 4018.89 -4.36312 3.07356 0
M  V30 41009 O 4019.12 -5.25662 2.21441 0
M  V30 41010 O 4018.05 -4.49843 3.99906 0
M  V30 41011 H 4021.88 -1.47755 2.65334 0
M  V30 41012 H 4019.46 -0.668737 1.33597 0
M  V30 41013 H 4021.34 -3.79136 1.83939 0
M  V30 41014 H 4020.02 -3.12426 0.846862 0
M  V30 41015 H 4018.92 -2.24638 2.99146 0
M  V30 41016 H 4020.26 -2.97126 3.92399 0
M  V30 41017 N 4021.91 -1.38978 -0.743153 0
M  V30 41018 C 4023.14 -1.39196 -1.53751 0
M  V30 41019 C 4023.56 0.013626 -1.88095 0
M  V30 41020 O 4022.92 0.998482 -1.51328 0
M  V30 41021 C 4022.97 -2.26394 -2.80675 0
M  V30 41022 O 4022.07 -1.68821 -3.76262 0
M  V30 41023 H 4021.41 -0.474357 -0.464631 0
M  V30 41024 H 4023.94 -1.82872 -0.917547 0
M  V30 41025 H 4023.95 -2.4062 -3.29493 0
M  V30 41026 H 4022.63 -3.28547 -2.55009 0
M  V30 41027 H 4021.2 -1.63794 -3.35002 0
M  V30 41028 N 4023.39 0.972465 -1.2402 0
M  V30 41029 C 4024.61 1.75521 -1.10486 0
M  V30 41030 C 4025.04 1.85021 0.338952 0
M  V30 41031 O 4024.4 1.31763 1.24531 0
M  V30 41032 C 4024.44 3.15621 -1.74402 0
M  V30 41033 O 4023.55 3.99802 -1.01155 0
M  V30 41034 H 4022.89 0.539715 -0.386786 0
M  V30 41035 H 4025.42 1.22019 -1.64233 0
M  V30 41036 H 4025.43 3.66165 -1.79964 0
M  V30 41037 H 4024.1 3.08021 -2.79456 0
M  V30 41038 H 4022.68 3.58294 -1.03344 0
M  V30 41039 N 4024.87 1.05318 1.17243 0
M  V30 41040 C 4026.09 0.784444 1.91453 0
M  V30 41041 C 4026.51 -0.660022 1.76887 0
M  V30 41042 O 4025.87 -1.45101 1.10688 0
M  V30 41043 C 4025.92 1.15728 3.42475 0
M  V30 41044 O 4025.64 2.54505 3.56594 0
M  V30 41045 C 4027.14 0.91486 4.33757 0
M  V30 41046 H 4024.36 0.285118 0.607411 0
M  V30 41047 H 4026.9 1.4042 1.48669 0
M  V30 41048 H 4025.06 0.58225 3.82999 0
M  V30 41049 H 4025.47 2.69155 4.50173 0
M  V30 41050 H 4026.95 1.22546 5.38225 0
M  V30 41051 H 4027.42 -0.149876 4.38944 0
M  V30 41052 H 4028.03 1.47379 3.98948 0
M  V30 41053 N 4026.34 -1.33701 0.834377 0
M  V30 41054 C 4027.27 -2.31823 0.279354 0
M  V30 41055 C 4028.26 -1.58768 -0.610467 0
M  V30 41056 O 4029.44 -1.86687 -0.534956 0
M  V30 41057 C 4026.57 -3.42915 -0.550141 0
M  V30 41058 C 4025.52 -4.27307 0.243507 0
M  V30 41059 C 4024.85 -5.29972 -0.709454 0
M  V30 41060 C 4026.15 -5.01535 1.45808 0
M  V30 41061 H 4027.84 -2.78492 1.0992 0
M  V30 41062 H 4025.39 -1.33891 0.530011 0
M  V30 41063 H 4027.34 -4.10582 -0.948692 0
M  V30 41064 H 4026.07 -2.94923 -1.40315 0
M  V30 41065 H 4024.73 -3.61258 0.623564 0
M  V30 41066 H 4024.37 -4.78239 -1.55874 0
M  V30 41067 H 4024.07 -5.87316 -0.182568 0
M  V30 41068 H 4025.6 -6.00507 -1.10562 0
M  V30 41069 H 4027.01 -5.61994 1.13293 0
M  V30 41070 H 4025.41 -5.68508 1.92143 0
M  V30 41071 H 4026.48 -4.30568 2.23024 0
M  V30 41072 N 4027.82 -0.590393 -1.46124 0
M  V30 41073 C 4029.05 -0.0828989 -2.07234 0
M  V30 41074 C 4029.47 1.21611 -1.435 0
M  V30 41075 O 4028.83 1.73637 -0.521519 0
M  V30 41076 C 4028.88 0.0613668 -3.60548 0
M  V30 41077 O 4027.98 1.11596 -3.97014 0
M  V30 41078 H 4027.32 -0.066277 -0.660684 0
M  V30 41079 H 4029.85 -0.815519 -1.87644 0
M  V30 41080 H 4029.86 0.26509 -4.07138 0
M  V30 41081 H 4028.54 -0.887236 -4.06326 0
M  V30 41082 H 4027.12 0.890083 -3.62121 0
M  V30 41083 N 4029.3 1.54136 -0.328591 0
M  V30 41084 C 4030.58 1.92847 0.326992 0
M  V30 41085 C 4030.96 1.2587 1.69469 0
M  V30 41086 O 4030.31 0.404212 2.24896 0
M  V30 41087 C 4030.52 3.46533 0.4142 0
M  V30 41088 C 4031.86 4.19247 0.672116 0
M  V30 41089 O 4032.89 3.52717 0.49692 0
M  V30 41090 O 4031.75 5.37078 1.01044 0
M  V30 41091 H 4028.84 0.805417 0.187702 0
M  V30 41092 H 4031.39 1.65421 -0.378674 0
M  V30 41093 H 4030.16 3.87469 -0.546178 0
M  V30 41094 H 4029.78 3.8008 1.16725 0
M  V30 41095 N 4030.78 0.0568716 1.57497 0
M  V30 41096 C 4032.03 -0.614418 1.92534 0
M  V30 41097 C 4032.35 -1.71045 0.936403 0
M  V30 41098 O 4031.62 -1.95892 -0.0178459 0
M  V30 41099 H 4030.2 -0.229945 0.710728 0
M  V30 41100 H 4032.86 0.111215 1.94582 0
M  V30 41101 H 4031.96 -1.04936 2.9393 0
M  V30 41102 N 4032.26 -1.56105 -0.216564 0
M  V30 41103 C 4033.19 -1.89316 -1.29198 0
M  V30 41104 C 4034.2 -0.781857 -1.42797 0
M  V30 41105 O 4035.39 -1.06018 -1.43605 0
M  V30 41106 C 4032.49 -2.09107 -2.66697 0
M  V30 41107 C 4031.66 -3.40152 -2.74983 0
M  V30 41108 C 4030.72 -3.49315 -3.9353 0
M  V30 41109 O 4029.75 -4.22307 -3.81635 0
M  V30 41110 N 4030.95 -2.80823 -5.08054 0
M  V30 41111 H 4033.72 -2.82157 -1.01033 0
M  V30 41112 H 4031.28 -1.56712 -0.406583 0
M  V30 41113 H 4033.27 -2.12547 -3.44392 0
M  V30 41114 H 4031.84 -1.22868 -2.87441 0
M  V30 41115 H 4031.06 -3.48766 -1.83727 0
M  V30 41116 H 4032.35 -4.26468 -2.77493 0
M  V30 41117 H 4031.74 -2.21308 -5.20614 0
M  V30 41118 H 4030.3 -2.89918 -5.83773 0
M  V30 41119 N 4033.73 0.483463 -1.50001 0
M  V30 41120 C 4034.7 1.56532 -1.67423 0
M  V30 41121 C 4035.7 1.5127 -0.545338 0
M  V30 41122 O 4036.89 1.5411 -0.812139 0
M  V30 41123 C 4034.02 2.96177 -1.68795 0
M  V30 41124 H 4035.21 1.42407 -2.63932 0
M  V30 41125 H 4032.77 0.708967 -1.39296 0
M  V30 41126 H 4033.5 3.1576 -0.73934 0
M  V30 41127 H 4033.29 3.01404 -2.50795 0
M  V30 41128 H 4034.78 3.74745 -1.8427 0
M  V30 41129 N 4035.21 1.39371 0.735772 0
M  V30 41130 C 4036.46 1.35864 1.49077 0
M  V30 41131 C 4036.77 -0.0429128 1.95553 0
M  V30 41132 O 4037.98 -0.200566 2.70758 0
M  V30 41133 C 4036.44 2.38678 2.69371 0
M  V30 41134 C 4036.04 3.84544 2.29847 0
M  V30 41135 C 4037.79 2.44246 3.47195 0
M  V30 41136 C 4035.7 4.79002 3.46859 0
M  V30 41137 H 4034.63 0.505096 0.559816 0
M  V30 41138 H 4037.28 1.65013 0.802681 0
M  V30 41139 H 4035.66 2.02598 3.4025 0
M  V30 41140 H 4036.83 4.2966 1.66519 0
M  V30 41141 H 4035.15 3.82264 1.65116 0
M  V30 41142 H 4037.74 3.12009 4.34228 0
M  V30 41143 H 4038.09 1.46675 3.89605 0
M  V30 41144 H 4038.62 2.79215 2.83344 0
M  V30 41145 H 4035.36 5.77832 3.095 0
M  V30 41146 H 4034.88 4.38565 4.0917 0
M  V30 41147 H 4036.56 4.97867 4.13204 0
M  V30 41148 N 4036.69 -0.965875 1.24534 0
M  V30 41149 C 4037.65 -2.04232 1.04029 0
M  V30 41150 C 4038.65 -1.608 -0.00303028 0
M  V30 41151 O 4039.84 -1.72565 0.238107 0
M  V30 41152 C 4036.98 -3.35979 0.577131 0
M  V30 41153 H 4038.17 -2.23854 1.99573 0
M  V30 41154 H 4035.72 -1.14137 1.06782 0
M  V30 41155 H 4036.46 -3.22049 -0.381415 0
M  V30 41156 H 4036.24 -3.68848 1.33018 0
M  V30 41157 H 4037.73 -4.15116 0.454763 0
M  V30 41158 N 4038.17 -1.05938 -1.16683 0
M  V30 41159 C 4039.45 -0.687532 -1.83118 0
M  V30 41160 C 4039.83 0.83144 -1.94037 0
M  V30 41161 O 4039.17 1.74033 -1.4807 0
M  V30 41162 C 4039.38 -1.38529 -3.20329 0
M  V30 41163 C 4040.73 -1.52818 -3.96146 0
M  V30 41164 O 4041.76 -1.34491 -3.29834 0
M  V30 41165 O 4040.62 -1.82854 -5.15002 0
M  V30 41166 H 4037.71 -0.24295 -0.790509 0
M  V30 41167 H 4040.26 -1.15943 -1.23916 0
M  V30 41168 H 4039.03 -2.42123 -3.07395 0
M  V30 41169 H 4038.65 -0.903232 -3.87205 0
M  V30 41170 N 4039.65 1.33256 -0.841456 0
M  V30 41171 C 4040.58 2.28003 -0.233899 0
M  V30 41172 C 4041.59 1.51855 0.586845 0
M  V30 41173 O 4042.78 1.73645 0.413492 0
M  V30 41174 C 4039.88 3.31819 0.689132 0
M  V30 41175 C 4039.05 4.37301 -0.092845 0
M  V30 41176 C 4038.11 5.20771 0.753924 0
M  V30 41177 O 4037.14 5.68875 0.192193 0
M  V30 41178 N 4038.34 5.42306 2.07085 0
M  V30 41179 H 4041.11 2.8078 -1.04799 0
M  V30 41180 H 4038.67 1.45977 -0.700166 0
M  V30 41181 H 4040.66 3.84565 1.26064 0
M  V30 41182 H 4039.23 2.793 1.40393 0
M  V30 41183 H 4038.45 3.85021 -0.845745 0
M  V30 41184 H 4039.74 5.04879 -0.630448 0
M  V30 41185 H 4039.14 5.0493 2.55073 0
M  V30 41186 H 4037.69 5.98098 2.59079 0
M  V30 41187 N 4041.13 0.598134 1.45809 0
M  V30 41188 C 4042.35 0.0938879 2.07187 0
M  V30 41189 C 4042.78 -1.20848 1.44143 0
M  V30 41190 O 4042.13 -1.73358 0.53072 0
M  V30 41191 C 4042.18 -0.0422452 3.60575 0
M  V30 41192 O 4041.29 -1.09489 3.976 0
M  V30 41193 H 4040.63 0.0697798 0.660323 0
M  V30 41194 H 4043.16 0.825459 1.87209 0
M  V30 41195 H 4043.17 -0.243495 4.07273 0
M  V30 41196 H 4041.84 0.908772 4.0585 0
M  V30 41197 H 4040.42 -0.870866 3.62588 0
M  V30 41198 N 4042.6 -1.5396 0.33676 0
M  V30 41199 C 4043.51 -2.28494 -0.531772 0
M  V30 41200 C 4044.53 -1.33345 -1.11782 0
M  V30 41201 O 4045.71 -1.66375 -1.13496 0
M  V30 41202 C 4042.77 -3.03815 -1.67025 0
M  V30 41203 C 4041.83 -4.14576 -1.11468 0
M  V30 41204 C 4041.06 -4.86296 -2.1989 0
M  V30 41205 O 4041.29 -4.57631 -3.40484 0
M  V30 41206 O 4040.22 -5.72904 -1.84566 0
M  V30 41207 H 4044.05 -3.0361 0.0739157 0
M  V30 41208 H 4041.63 -1.49051 0.102022 0
M  V30 41209 H 4043.51 -3.5094 -2.33279 0
M  V30 41210 H 4042.19 -2.31562 -2.26188 0
M  V30 41211 H 4041.1 -3.7177 -0.41685 0
M  V30 41212 H 4042.43 -4.88912 -0.568006 0
M  V30 41213 N 4044.08 -0.0652232 -1.57465 0
M  V30 41214 C 4045.33 0.604927 -1.92415 0
M  V30 41215 C 4045.64 1.71166 -0.946659 0
M  V30 41216 O 4046.85 2.44093 -1.18873 0
M  V30 41217 C 4045.31 1.12735 -3.41788 0
M  V30 41218 C 4044.91 0.0519797 -4.4797 0
M  V30 41219 C 4046.66 1.77194 -3.85749 0
M  V30 41220 C 4044.56 0.588078 -5.88469 0
M  V30 41221 H 4043.49 0.229729 -0.718151 0
M  V30 41222 H 4046.15 -0.136393 -1.82992 0
M  V30 41223 H 4044.53 1.92143 -3.46262 0
M  V30 41224 H 4045.7 -0.722295 -4.55104 0
M  V30 41225 H 4044.02 -0.495989 -4.13435 0
M  V30 41226 H 4046.61 2.18324 -4.88097 0
M  V30 41227 H 4046.96 2.62931 -3.22758 0
M  V30 41228 H 4047.49 1.04419 -3.83851 0
M  V30 41229 H 4044.23 -0.23198 -6.55089 0
M  V30 41230 H 4043.75 1.33002 -5.84868 0
M  V30 41231 H 4045.43 1.06656 -6.38148 0
M  V30 41232 N 4045.56 1.56218 0.208282 0
M  V30 41233 C 4046.81 1.79042 0.928807 0
M  V30 41234 C 4047.12 0.63614 1.84967 0
M  V30 41235 O 4048.33 0.748348 2.60983 0
M  V30 41236 C 4046.78 3.17119 1.70186 0
M  V30 41237 C 4046.39 4.4031 0.826487 0
M  V30 41238 C 4048.14 3.49262 2.41281 0
M  V30 41239 C 4046.04 5.69411 1.59765 0
M  V30 41240 H 4044.97 0.667555 0.350551 0
M  V30 41241 H 4047.62 1.82592 0.182366 0
M  V30 41242 H 4046.01 3.07783 2.4917 0
M  V30 41243 H 4047.18 4.60737 0.076243 0
M  V30 41244 H 4045.49 4.15781 0.227019 0
M  V30 41245 H 4048.09 4.42947 2.99503 0
M  V30 41246 H 4048.43 2.72383 3.14823 0
M  V30 41247 H 4048.97 3.59987 1.69275 0
M  V30 41248 H 4045.71 6.49219 0.90527 0
M  V30 41249 H 4045.23 5.53024 2.32217 0
M  V30 41250 H 4046.91 6.1006 2.1549 0
M  V30 41251 N 4047.04 -0.475502 1.50256 0
M  V30 41252 C 4048.45 -1.05648 1.53933 0
M  V30 41253 C 4048.8 -1.93227 0.340259 0
M  V30 41254 O 4047.92 -2.09364 -0.547312 0
M  V30 41255 C 4048.52 -1.92276 2.78954 0
M  V30 41256 C 4047.08 -2.4549 2.85327 0
M  V30 41257 C 4046.23 -1.23725 2.48168 0
M  V30 41258 H 4049.18 -0.258305 1.56584 0
M  V30 41259 H 4049.2 -2.77288 2.6056 0
M  V30 41260 H 4048.71 -1.28508 3.66207 0
M  V30 41261 H 4046.81 -3.12824 2.02416 0
M  V30 41262 H 4046.92 -2.80899 3.88114 0
M  V30 41263 H 4045.29 -1.57063 2.00508 0
M  V30 41264 H 4046.07 -0.616264 3.37723 0
M  V30 41265 N 4048.52 -1.39759 -0.72837 0
M  V30 41266 C 4049.74 -1.40631 -1.51758 0
M  V30 41267 C 4050.16 -0.00257228 -1.888 0
M  V30 41268 O 4049.52 0.9704 -1.54562 0
M  V30 41269 C 4049.57 -2.28533 -2.80098 0
M  V30 41270 O 4049.29 -3.63441 -2.44627 0
M  V30 41271 C 4050.79 -2.3786 -3.74082 0
M  V30 41272 H 4048.01 -0.480111 -0.468758 0
M  V30 41273 H 4050.55 -1.83655 -0.899497 0
M  V30 41274 H 4048.71 -1.88904 -3.38222 0
M  V30 41275 H 4049.12 -4.09994 -3.27117 0
M  V30 41276 H 4050.6 -3.03599 -4.61011 0
M  V30 41277 H 4051.07 -1.39975 -4.16298 0
M  V30 41278 H 4051.68 -2.77986 -3.21875 0
M  V30 41279 N 4049.99 0.959257 -1.25044 0
M  V30 41280 C 4050.92 2.07284 -1.07498 0
M  V30 41281 C 4051.9 1.70094 0.0145965 0
M  V30 41282 O 4053.09 1.93588 -0.154069 0
M  V30 41283 C 4050.22 3.40417 -0.688 0
M  V30 41284 C 4049.17 3.91597 -1.72729 0
M  V30 41285 C 4048.5 5.21172 -1.19513 0
M  V30 41286 C 4049.8 4.18492 -3.12509 0
M  V30 41287 H 4051.49 2.22221 -2.00645 0
M  V30 41288 H 4049.04 1.06783 -0.966093 0
M  V30 41289 H 4050.99 4.17766 -0.552206 0
M  V30 41290 H 4049.72 3.25405 0.279167 0
M  V30 41291 H 4048.38 3.16413 -1.85145 0
M  V30 41292 H 4048.02 5.02526 -0.218328 0
M  V30 41293 H 4047.72 5.56384 -1.88972 0
M  V30 41294 H 4049.25 6.01123 -1.07163 0
M  V30 41295 H 4050.66 4.86516 -3.03274 0
M  V30 41296 H 4049.06 4.64949 -3.79397 0
M  V30 41297 H 4050.13 3.24944 -3.59916 0
M  V30 41298 N 4051.47 1.06556 1.16119 0
M  V30 41299 C 4052.72 0.782312 1.86345 0
M  V30 41300 C 4053.04 -0.693363 1.82257 0
M  V30 41301 O 4052.31 -1.50176 1.25793 0
M  V30 41302 H 4050.89 0.2864 0.689916 0
M  V30 41303 H 4053.55 1.34761 1.40803 0
M  V30 41304 H 4052.65 1.10959 2.9171 0
M  V30 41305 N 4052.95 -1.32808 0.848511 0
M  V30 41306 C 4053.88 -2.27876 0.245987 0
M  V30 41307 C 4054.9 -1.52164 -0.578784 0
M  V30 41308 O 4056.08 -1.73862 -0.404278 0
M  V30 41309 C 4053.18 -3.3218 -0.671525 0
M  V30 41310 C 4052.36 -4.37246 0.116035 0
M  V30 41311 C 4051.42 -5.21163 -0.726296 0
M  V30 41312 O 4050.44 -5.68969 -0.162021 0
M  V30 41313 N 4051.64 -5.43397 -2.04206 0
M  V30 41314 H 4054.41 -2.8022 1.06286 0
M  V30 41315 H 4051.97 -1.45604 0.707897 0
M  V30 41316 H 4053.96 -3.85228 -1.24023 0
M  V30 41317 H 4052.53 -2.80041 -1.38909 0
M  V30 41318 H 4051.75 -3.84567 0.866152 0
M  V30 41319 H 4053.04 -5.04538 0.657214 0
M  V30 41320 H 4052.44 -5.06275 -2.52392 0
M  V30 41321 H 4051 -5.99464 -2.55904 0
M  V30 41322 N 4054.43 -0.605858 -1.45489 0
M  V30 41323 C 4055.68 -0.100374 -2.02251 0
M  V30 41324 C 4056 1.26842 -1.47449 0
M  V30 41325 O 4055.26 1.84989 -0.638564 0
M  V30 41326 C 4055.56 -0.00924859 -3.57399 0
M  V30 41327 C 4055.22 -1.31348 -4.31345 0
M  V30 41328 C 4053.89 -1.67074 -4.51264 0
M  V30 41329 C 4056.24 -2.17551 -4.73625 0
M  V30 41330 C 4053.57 -2.8876 -5.1072 0
M  V30 41331 C 4055.92 -3.38484 -5.34426 0
M  V30 41332 C 4054.58 -3.74464 -5.52569 0
M  V30 41333 H 4053.85 -0.0367295 -0.740089 0
M  V30 41334 H 4056.5 -0.78713 -1.74575 0
M  V30 41335 H 4054.8 0.760762 -3.84343 0
M  V30 41336 H 4056.5 0.397987 -3.9902 0
M  V30 41337 H 4053.09 -1.0254 -4.16153 0
M  V30 41338 H 4057.27 -1.9125 -4.57971 0
M  V30 41339 H 4052.53 -3.16745 -5.22955 0
M  V30 41340 H 4056.7 -4.05532 -5.66142 0
M  V30 41341 H 4054.33 -4.68842 -5.98407 0
M  V30 41342 N 4055.91 1.53779 -0.34492 0
M  V30 41343 C 4056.82 2.28772 0.519647 0
M  V30 41344 C 4057.83 1.33935 1.11073 0
M  V30 41345 O 4059.01 1.66974 1.12612 0
M  V30 41346 C 4056.07 3.04696 1.65412 0
M  V30 41347 C 4055.13 4.15162 1.09267 0
M  V30 41348 C 4054.37 4.87456 2.17308 0
M  V30 41349 O 4054.59 4.59431 3.38053 0
M  V30 41350 O 4053.52 5.73875 1.81525 0
M  V30 41351 H 4057.35 3.03567 -0.0900159 0
M  V30 41352 H 4054.94 1.48995 -0.109925 0
M  V30 41353 H 4056.82 3.52172 2.31415 0
M  V30 41354 H 4055.49 2.32758 2.24957 0
M  V30 41355 H 4054.4 3.71986 0.397128 0
M  V30 41356 H 4055.73 4.89206 0.54207 0
M  V30 41357 N 4057.38 0.0735731 1.57428 0
M  V30 41358 C 4058.8 -0.283061 1.5707 0
M  V30 41359 C 4059 -1.69915 1.08311 0
M  V30 41360 O 4058.06 -2.41111 0.749798 0
M  V30 41361 C 4059.37 -0.091097 3.00562 0
M  V30 41362 C 4060.92 -0.160497 3.12588 0
M  V30 41363 C 4061.39 0.00320782 4.58 0
M  V30 41364 N 4062.88 -0.0523386 4.6317 0
M  V30 41365 C 4063.62 0.0498874 5.73378 0
M  V30 41366 N 4063.11 0.205734 6.92494 0
M  V30 41367 N 4064.91 -0.00730506 5.621 0
M  V30 41368 H 4057.06 0.999048 1.87437 0
M  V30 41369 H 4059.32 0.389757 0.864172 0
M  V30 41370 H 4059.03 0.886127 3.40354 0
M  V30 41371 H 4058.9 -0.842659 3.67667 0
M  V30 41372 H 4061.29 -1.12821 2.72682 0
M  V30 41373 H 4061.37 0.622197 2.48118 0
M  V30 41374 H 4061.01 0.967694 4.98596 0
M  V30 41375 H 4060.94 -0.798913 5.20505 0
M  V30 41376 H 4063.43 -0.171129 3.77512 0
M  V30 41377 H 4063.75 0.275834 7.72308 0
M  V30 41378 H 4062.09 0.241119 6.94582 0
M  V30 41379 H 4065.28 -0.127774 4.67926 0
M  V30 41380 H 4065.46 0.0758168 6.47956 0
M  V30 41381 N 4058.86 -1.56326 -0.199995 0
M  V30 41382 C 4060.09 -1.84443 -0.93747 0
M  V30 41383 C 4060.51 -0.655459 -1.77057 0
M  V30 41384 O 4059.86 0.375881 -1.78587 0
M  V30 41385 C 4059.91 -3.1131 -1.83761 0
M  V30 41386 O 4059.63 -4.25622 -1.03815 0
M  V30 41387 C 4061.14 -3.5257 -2.68718 0
M  V30 41388 H 4058.36 -0.612616 -0.273756 0
M  V30 41389 H 4060.9 -2.03432 -0.208723 0
M  V30 41390 H 4059.05 -2.94233 -2.52004 0
M  V30 41391 H 4059.47 -4.97834 -1.65111 0
M  V30 41392 H 4060.94 -4.4432 -3.27542 0
M  V30 41393 H 4061.42 -2.75329 -3.42185 0
M  V30 41394 H 4062.03 -3.72162 -2.05854 0
M  V30 41395 N 4060.34 0.467527 -1.50506 0
M  V30 41396 C 4061.27 1.58264 -1.65787 0
M  V30 41397 C 4062.29 1.5361 -0.539246 0
M  V30 41398 O 4063.47 1.58933 -0.812552 0
M  V30 41399 C 4060.57 2.97151 -1.62956 0
M  V30 41400 C 4059.75 3.26636 -2.90909 0
M  V30 41401 C 4058.81 4.45095 -2.80673 0
M  V30 41402 O 4057.83 4.45227 -3.54628 0
M  V30 41403 N 4059.03 5.46957 -1.9447 0
M  V30 41404 H 4061.8 1.4557 -2.61972 0
M  V30 41405 H 4059.36 0.656003 -1.48014 0
M  V30 41406 H 4061.35 3.74371 -1.53716 0
M  V30 41407 H 4059.92 3.03595 -0.744909 0
M  V30 41408 H 4059.14 2.37995 -3.14248 0
M  V30 41409 H 4060.43 3.43148 -3.75669 0
M  V30 41410 H 4059.83 5.49672 -1.33704 0
M  V30 41411 H 4058.39 6.23147 -1.91131 0
M  V30 41412 N 4061.82 1.40143 0.720948 0
M  V30 41413 C 4062.73 1.42288 1.86525 0
M  V30 41414 C 4063.74 0.316074 1.71105 0
M  V30 41415 O 4064.92 0.559804 1.93464 0
M  V30 41416 C 4061.99 1.27846 3.22267 0
M  V30 41417 C 4061.05 2.48622 3.49979 0
M  V30 41418 C 4060.28 2.3486 4.79246 0
M  V30 41419 O 4060.5 1.35954 5.53961 0
M  V30 41420 O 4059.44 3.24128 5.07173 0
M  V30 41421 H 4063.26 2.38775 1.87671 0
M  V30 41422 H 4060.85 1.21408 0.870655 0
M  V30 41423 H 4062.73 1.2198 4.0336 0
M  V30 41424 H 4061.4 0.344623 3.2186 0
M  V30 41425 H 4060.31 2.60066 2.68918 0
M  V30 41426 H 4061.64 3.40748 3.55178 0
M  V30 41427 N 4063.3 -0.952612 1.25551 0
M  V30 41428 C 4064.21 -2.08335 1.07859 0
M  V30 41429 C 4065.22 -1.73993 0.0151761 0
M  V30 41430 O 4066.4 -2.00233 0.216533 0
M  V30 41431 C 4063.46 -3.3953 0.701429 0
M  V30 41432 C 4062.52 -3.87727 1.843 0
M  V30 41433 C 4061.76 -5.12661 1.48374 0
M  V30 41434 O 4061.98 -5.69131 0.3803 0
M  V30 41435 O 4060.91 -5.55616 2.31462 0
M  V30 41436 H 4064.74 -2.26163 2.02692 0
M  V30 41437 H 4062.33 -1.06764 1.04508 0
M  V30 41438 H 4064.21 -4.18384 0.503304 0
M  V30 41439 H 4062.88 -3.22968 -0.217615 0
M  V30 41440 H 4061.79 -3.09869 2.096 0
M  V30 41441 H 4063.12 -4.08791 2.74136 0
M  V30 41442 N 4064.77 -1.0717 -1.15553 0
M  V30 41443 C 4066 -0.813622 -1.89905 0
M  V30 41444 C 4066.41 0.636701 -1.78165 0
M  V30 41445 O 4065.76 1.44831 -1.13003 0
M  V30 41446 C 4065.82 -1.14034 -3.40935 0
M  V30 41447 C 4065.48 -2.59089 -3.7646 0
M  V30 41448 C 4066.48 -3.57332 -3.77637 0
M  V30 41449 C 4064.16 -2.94618 -4.06823 0
M  V30 41450 C 4066.16 -4.89142 -4.0868 0
M  V30 41451 C 4063.84 -4.26626 -4.37532 0
M  V30 41452 C 4064.84 -5.23697 -4.38441 0
M  V30 41453 O 4064.53 -6.53333 -4.68414 0
M  V30 41454 H 4064.26 -0.293902 -0.608767 0
M  V30 41455 H 4066.82 -1.43101 -1.47348 0
M  V30 41456 H 4065.05 -0.465915 -3.83883 0
M  V30 41457 H 4066.74 -0.865098 -3.96574 0
M  V30 41458 H 4067.5 -3.31225 -3.54281 0
M  V30 41459 H 4063.38 -2.19711 -4.05275 0
M  V30 41460 H 4066.92 -5.64903 -4.09305 0
M  V30 41461 H 4062.82 -4.52486 -4.60355 0
M  V30 41462 H 4063.59 -6.58457 -4.86186 0
M  V30 41463 N 4066.25 1.32356 -0.855542 0
M  V30 41464 C 4067.16 2.32625 -0.303737 0
M  V30 41465 C 4068.18 1.64088 0.578898 0
M  V30 41466 O 4069.36 1.9562 0.479056 0
M  V30 41467 C 4066.42 3.43103 0.498092 0
M  V30 41468 C 4065.48 4.2733 -0.410789 0
M  V30 41469 C 4064.71 5.32532 0.352867 0
M  V30 41470 O 4064.94 5.48002 1.58272 0
M  V30 41471 O 4063.87 6.0124 -0.281795 0
M  V30 41472 H 4067.7 2.81715 -1.13448 0
M  V30 41473 H 4065.28 1.35996 -0.618503 0
M  V30 41474 H 4067.16 4.10479 0.953168 0
M  V30 41475 H 4065.84 2.96202 1.30562 0
M  V30 41476 H 4064.75 3.62761 -0.91406 0
M  V30 41477 H 4066.08 4.77759 -1.18352 0
M  V30 41478 N 4067.73 0.613565 1.45166 0
M  V30 41479 C 4069.01 0.0428154 1.95553 0
M  V30 41480 C 4069.39 -1.42671 1.5559 0
M  V30 41481 O 4068.74 -2.13227 0.821362 0
M  V30 41482 C 4068.95 0.247202 3.48123 0
M  V30 41483 C 4070.29 0.131142 4.24397 0
M  V30 41484 O 4071.32 0.177638 3.55757 0
M  V30 41485 O 4070.18 0.0212643 5.46496 0
M  V30 41486 H 4067.27 -0.0323349 0.826368 0
M  V30 41487 H 4069.82 0.684044 1.55303 0
M  V30 41488 H 4068.59 1.26758 3.702 0
M  V30 41489 H 4068.21 -0.429005 3.95279 0
M  V30 41490 N 4069.21 -1.53594 0.353071 0
M  V30 41491 C 4070.16 -2.25335 -0.499287 0
M  V30 41492 C 4071.13 -1.25524 -1.08779 0
M  V30 41493 O 4072.31 -1.54278 -1.12263 0
M  V30 41494 C 4069.45 -3.03669 -1.63949 0
M  V30 41495 C 4068.56 -4.1835 -1.07737 0
M  V30 41496 C 4067.7 -4.84151 -2.18566 0
M  V30 41497 C 4066.74 -5.90885 -1.59755 0
M  V30 41498 N 4065.88 -6.50427 -2.64365 0
M  V30 41499 H 4070.72 -2.97762 0.119011 0
M  V30 41500 H 4068.25 -1.46931 0.0705035 0
M  V30 41501 H 4070.21 -3.47351 -2.31091 0
M  V30 41502 H 4068.84 -2.3352 -2.22864 0
M  V30 41503 H 4067.89 -3.79242 -0.296611 0
M  V30 41504 H 4069.2 -4.95089 -0.607288 0
M  V30 41505 H 4068.36 -5.30953 -2.93554 0
M  V30 41506 H 4067.1 -4.06856 -2.68922 0
M  V30 41507 H 4066.1 -5.43457 -0.832768 0
M  V30 41508 H 4067.33 -6.70093 -1.10239 0
M  V30 41509 H 4065.27 -5.75992 -3.13958 0
M  V30 41510 H 4065.19 -7.22668 -2.22006 0
M  V30 41511 H 4066.46 -7.01881 -3.39093 0
M  V30 41512 N 4070.69 -0.0819208 -1.57387 0
M  V30 41513 C 4071.63 0.881735 -2.13293 0
M  V30 41514 C 4072.6 1.28862 -1.04804 0
M  V30 41515 O 4073.79 1.37269 -1.32521 0
M  V30 41516 C 4070.93 2.14031 -2.70712 0
M  V30 41517 C 4070.04 1.78515 -3.93391 0
M  V30 41518 C 4069.18 2.99059 -4.39018 0
M  V30 41519 C 4068.22 2.59607 -5.5432 0
M  V30 41520 N 4067.35 3.72944 -5.94859 0
M  V30 41521 H 4072.19 0.398115 -2.95329 0
M  V30 41522 H 4069.73 0.184851 -1.45934 0
M  V30 41523 H 4071.69 2.87719 -3.02115 0
M  V30 41524 H 4070.32 2.59915 -1.91426 0
M  V30 41525 H 4069.37 0.948481 -3.68386 0
M  V30 41526 H 4070.68 1.45496 -4.77108 0
M  V30 41527 H 4069.84 3.81015 -4.72136 0
M  V30 41528 H 4068.58 3.35278 -3.54175 0
M  V30 41529 H 4067.58 1.76075 -5.20843 0
M  V30 41530 H 4068.81 2.24547 -6.40902 0
M  V30 41531 H 4066.75 4.08906 -5.12964 0
M  V30 41532 H 4066.67 3.43727 -6.73341 0
M  V30 41533 H 4067.94 4.55449 -6.32603 0
M  V30 41534 N 4072.17 1.5643 0.191702 0
M  V30 41535 C 4073.12 1.91219 1.24174 0
M  V30 41536 C 4074.1 0.778244 1.40827 0
M  V30 41537 O 4075.29 1.04115 1.4314 0
M  V30 41538 C 4072.42 2.25813 2.5858 0
M  V30 41539 C 4071.51 3.45673 2.45705 0
M  V30 41540 N 4071.9 4.63488 2.02516 0
M  V30 41541 C 4070.2 3.49878 2.76589 0
M  V30 41542 C 4070.9 5.45643 2.01615 0
M  V30 41543 N 4069.87 4.8614 2.43247 0
M  V30 41544 H 4073.67 2.79806 0.899198 0
M  V30 41545 H 4071.19 1.57394 0.400116 0
M  V30 41546 H 4073.19 2.48923 3.34429 0
M  V30 41547 H 4071.85 1.38554 2.93654 0
M  V30 41548 H 4072.86 4.8809 1.73172 0
M  V30 41549 H 4069.53 2.73044 3.15837 0
M  V30 41550 H 4070.92 6.50013 1.70095 0
M  V30 41551 N 4073.64 -0.459538 1.50751 0
M  V30 41552 C 4074.61 -1.53849 1.69892 0
M  V30 41553 C 4075.61 -1.50384 0.569334 0
M  V30 41554 O 4076.8 -1.52799 0.836554 0
M  V30 41555 C 4073.93 -2.93454 1.73486 0
M  V30 41556 H 4075.12 -1.38191 2.66164 0
M  V30 41557 H 4072.67 -0.686716 1.40406 0
M  V30 41558 H 4073.41 -3.14544 0.789481 0
M  V30 41559 H 4073.19 -2.97376 2.55558 0
M  V30 41560 H 4074.68 -3.71766 1.90209 0
M  V30 41561 N 4075.12 -1.40523 -0.713506 0
M  V30 41562 C 4076.37 -1.38639 -1.47049 0
M  V30 41563 C 4076.69 0.00981046 -1.94998 0
M  V30 41564 O 4075.96 0.964929 -1.70487 0
M  V30 41565 H 4074.54 -0.510259 -0.545568 0
M  V30 41566 H 4077.2 -1.75596 -0.845689 0
M  V30 41567 H 4076.3 -2.06256 -2.34233 0
M  V30 41568 N 4076.6 0.94594 -1.26054 0
M  V30 41569 C 4078.01 1.50636 -1.10299 0
M  V30 41570 C 4078.36 1.936 0.318343 0
M  V30 41571 O 4077.49 1.79457 1.20931 0
M  V30 41572 C 4078.08 2.73755 -1.99609 0
M  V30 41573 C 4076.64 3.2608 -1.88013 0
M  V30 41574 C 4075.79 1.98879 -1.93242 0
M  V30 41575 H 4078.74 0.761922 -1.39214 0
M  V30 41576 H 4078.76 3.4789 -1.54119 0
M  V30 41577 H 4078.27 2.42453 -3.03048 0
M  V30 41578 H 4076.37 3.62182 -0.87491 0
M  V30 41579 H 4076.49 3.93508 -2.73291 0
M  V30 41580 H 4074.85 2.14566 -1.37235 0
M  V30 41581 H 4075.63 1.69914 -2.98302 0
M  V30 41582 N 4078.08 1.07781 1.14983 0
M  V30 41583 C 4079.3 0.824969 1.90287 0
M  V30 41584 C 4079.73 -0.616493 1.7771 0
M  V30 41585 O 4079.09 -1.43128 1.11284 0
M  V30 41586 C 4079.13 1.24354 3.3848 0
M  V30 41587 O 4078.24 0.391526 4.10537 0
M  V30 41588 H 4077.58 0.300173 0.592277 0
M  V30 41589 H 4080.11 1.43757 1.45585 0
M  V30 41590 H 4080.12 1.22162 3.89282 0
M  V30 41591 H 4078.79 2.29341 3.46952 0
M  V30 41592 H 4077.37 0.476312 3.69845 0
M  V30 41593 N 4079.56 -1.31901 0.862549 0
M  V30 41594 C 4080.8 -1.96975 0.469809 0
M  V30 41595 C 4081.13 -1.68221 -0.97631 0
M  V30 41596 O 4080.39 -0.967183 -1.7013 0
M  V30 41597 C 4080.68 -3.5116 0.664934 0
M  V30 41598 C 4080.35 -3.99917 2.08271 0
M  V30 41599 C 4079.01 -4.12943 2.47046 0
M  V30 41600 C 4081.36 -4.25661 3.0077 0
M  V30 41601 C 4078.69 -4.49059 3.77576 0
M  V30 41602 C 4081.04 -4.63238 4.30806 0
M  V30 41603 C 4079.71 -4.7447 4.69504 0
M  V30 41604 H 4078.98 -0.720782 0.171915 0
M  V30 41605 H 4081.63 -1.57167 1.09412 0
M  V30 41606 H 4079.93 -3.91777 -0.0425567 0
M  V30 41607 H 4081.63 -3.99548 0.340991 0
M  V30 41608 H 4078.22 -3.9027 1.77165 0
M  V30 41609 H 4082.4 -4.15099 2.72042 0
M  V30 41610 H 4077.66 -4.55951 4.07331 0
M  V30 41611 H 4081.83 -4.82111 5.02535 0
M  V30 41612 H 4079.46 -5.02211 5.70691 0
M  V30 41613 N 4081.03 -0.621255 -1.44838 0
M  V30 41614 C 4081.97 0.12784 -2.28843 0
M  V30 41615 C 4082.98 0.818517 -1.40727 0
M  V30 41616 O 4084.17 0.681616 -1.64973 0
M  V30 41617 C 4081.27 1.20275 -3.16839 0
M  V30 41618 C 4080.44 0.596523 -4.33313 0
M  V30 41619 C 4079.5 1.5641 -5.02416 0
M  V30 41620 O 4078.53 1.08508 -5.58762 0
M  V30 41621 N 4079.73 2.89851 -5.02958 0
M  V30 41622 H 4082.49 -0.593045 -2.93774 0
M  V30 41623 H 4080.05 -0.461707 -1.55177 0
M  V30 41624 H 4082.05 1.85015 -3.59933 0
M  V30 41625 H 4080.62 1.82599 -2.53725 0
M  V30 41626 H 4079.84 -0.229272 -3.93533 0
M  V30 41627 H 4081.12 0.171971 -5.08509 0
M  V30 41628 H 4080.52 3.31359 -4.58495 0
M  V30 41629 H 4079.08 3.49978 -5.49872 0
M  V30 41630 N 4082.51 1.53405 -0.361211 0
M  V30 41631 C 4083.92 1.86321 0.11894 0
M  V30 41632 C 4084.27 1.28194 1.48529 0
M  V30 41633 O 4083.4 0.602289 2.0785 0
M  V30 41634 C 4083.99 3.38068 0.222598 0
M  V30 41635 C 4082.55 3.70798 0.646999 0
M  V30 41636 C 4081.7 2.76515 -0.208473 0
M  V30 41637 H 4084.65 1.47715 -0.580168 0
M  V30 41638 H 4084.67 3.65813 1.04696 0
M  V30 41639 H 4084.18 3.80345 -0.771989 0
M  V30 41640 H 4082.29 3.34076 1.64997 0
M  V30 41641 H 4082.4 4.77214 0.42464 0
M  V30 41642 H 4080.76 2.52657 0.321967 0
M  V30 41643 H 4081.55 3.21625 -1.20052 0
M  V30 41644 N 4083.99 0.0902663 1.57341 0
M  V30 41645 C 4084.9 -0.884742 2.17277 0
M  V30 41646 C 4085.92 -1.31374 1.14091 0
M  V30 41647 O 4087.09 -1.38265 1.4644 0
M  V30 41648 C 4084.16 -2.12757 2.73743 0
M  V30 41649 C 4083.22 -1.75323 3.91868 0
M  V30 41650 C 4082.45 -2.93682 4.45631 0
M  V30 41651 O 4082.67 -4.08262 3.98344 0
M  V30 41652 O 4081.61 -2.72428 5.36719 0
M  V30 41653 H 4085.43 -0.404817 3.0099 0
M  V30 41654 H 4083.02 -0.133822 1.48799 0
M  V30 41655 H 4084.9 -2.85602 3.09854 0
M  V30 41656 H 4083.58 -2.59812 1.93079 0
M  V30 41657 H 4082.48 -0.996736 3.60577 0
M  V30 41658 H 4083.82 -1.33036 4.7388 0
M  V30 41659 N 4085.47 -1.56529 -0.183403 0
M  V30 41660 C 4086.72 -1.81303 -0.901964 0
M  V30 41661 C 4087.04 -0.6654 -1.82764 0
M  V30 41662 O 4086.3 0.348128 -1.92579 0
M  V30 41663 C 4086.6 -3.12156 -1.74049 0
M  V30 41664 C 4086.26 -4.40457 -0.964788 0
M  V30 41665 C 4084.93 -4.75309 -0.750658 0
M  V30 41666 C 4087.28 -5.19506 -0.419823 0
M  V30 41667 C 4084.61 -5.86697 0.0197322 0
M  V30 41668 C 4086.96 -6.317 0.337416 0
M  V30 41669 C 4085.62 -6.65126 0.562457 0
M  V30 41670 H 4084.89 -0.663436 -0.330052 0
M  V30 41671 H 4087.54 -1.90765 -0.16761 0
M  V30 41672 H 4085.84 -2.97983 -2.54388 0
M  V30 41673 H 4087.54 -3.28533 -2.29929 0
M  V30 41674 H 4084.13 -4.13114 -1.14171 0
M  V30 41675 H 4088.31 -4.92985 -0.572627 0
M  V30 41676 H 4083.57 -6.1106 0.203945 0
M  V30 41677 H 4087.74 -6.92163 0.76701 0
M  V30 41678 H 4085.37 -7.51277 1.1613 0
M  V30 41679 N 4086.95 0.451537 -1.50993 0
M  V30 41680 C 4088.17 1.22955 -1.67023 0
M  V30 41681 C 4088.6 1.846 -0.361182 0
M  V30 41682 O 4087.95 1.68179 0.677164 0
M  V30 41683 C 4088 2.29975 -2.77748 0
M  V30 41684 O 4087.11 3.35112 -2.40362 0
M  V30 41685 H 4086.45 0.360872 -0.557375 0
M  V30 41686 H 4088.98 0.535038 -1.9748 0
M  V30 41687 H 4088.99 2.74983 -3.01411 0
M  V30 41688 H 4087.66 1.84482 -3.72746 0
M  V30 41689 H 4086.24 2.95679 -2.27219 0
M  V30 41690 N 4088.42 1.409 0.706044 0
M  V30 41691 C 4089.65 1.43224 1.50006 0
M  V30 41692 C 4090.07 0.0362488 1.88065 0
M  V30 41693 O 4089.43 -0.958009 1.53922 0
M  V30 41694 C 4089.48 2.33756 2.74573 0
M  V30 41695 O 4088.58 1.78738 3.71654 0
M  V30 41696 H 4087.93 0.486509 0.451891 0
M  V30 41697 H 4090.46 1.85241 0.868739 0
M  V30 41698 H 4090.47 2.49272 3.22998 0
M  V30 41699 H 4089.14 3.35193 2.46208 0
M  V30 41700 H 4087.72 1.72618 3.30541 0
M  V30 41701 N 4089.9 -0.939242 1.26554 0
M  V30 41702 C 4091.15 -1.68233 1.11992 0
M  V30 41703 C 4091.47 -1.92067 -0.336959 0
M  V30 41704 O 4090.74 -1.51873 -1.23739 0
M  V30 41705 H 4089.32 -0.623472 0.411451 0
M  V30 41706 H 4091.98 -1.12842 1.58911 0
M  V30 41707 H 4091.08 -2.65528 1.64015 0
M  V30 41708 N 4091.38 -1.08389 -1.14409 0
M  V30 41709 C 4092.34 -0.717472 -2.17681 0
M  V30 41710 C 4093.34 0.247632 -1.58882 0
M  V30 41711 O 4094.53 0.0272004 -1.74179 0
M  V30 41712 C 4091.67 -0.0592621 -3.40848 0
M  V30 41713 H 4092.86 -1.63193 -2.51611 0
M  V30 41714 H 4090.41 -0.881743 -1.29054 0
M  V30 41715 H 4091.15 0.866932 -3.12498 0
M  V30 41716 H 4090.93 -0.753545 -3.84791 0
M  V30 41717 H 4092.42 0.182079 -4.17203 0
M  V30 41718 N 4092.86 1.31442 -0.869532 0
M  V30 41719 C 4093.77 2.3229 -0.328393 0
M  V30 41720 C 4094.78 1.64692 0.561462 0
M  V30 41721 O 4095.96 1.96117 0.458281 0
M  V30 41722 C 4093.03 3.43612 0.461673 0
M  V30 41723 C 4092.09 4.2687 -0.45609 0
M  V30 41724 C 4091.32 5.32877 0.296365 0
M  V30 41725 O 4091.54 5.4965 1.52451 0
M  V30 41726 O 4090.48 6.00907 -0.345549 0
M  V30 41727 H 4094.3 2.80496 -1.16429 0
M  V30 41728 H 4091.89 1.35332 -0.632893 0
M  V30 41729 H 4093.77 4.11466 0.909578 0
M  V30 41730 H 4092.44 2.9757 1.27413 0
M  V30 41731 H 4091.35 3.61771 -0.952485 0
M  V30 41732 H 4092.68 4.76477 -1.23413 0
M  V30 41733 N 4094.34 0.628927 1.44507 0
M  V30 41734 C 4095.25 -0.0785821 2.34468 0
M  V30 41735 C 4096.26 -0.838019 1.5249 0
M  V30 41736 O 4097.44 -0.790781 1.85226 0
M  V30 41737 C 4094.5 -1.04939 3.30437 0
M  V30 41738 C 4093.56 -0.289568 4.28322 0
M  V30 41739 C 4092.8 -1.21413 5.19706 0
M  V30 41740 O 4093.02 -2.45277 5.14971 0
M  V30 41741 O 4091.95 -0.699643 5.9782 0
M  V30 41742 H 4095.78 0.661274 2.96413 0
M  V30 41743 H 4093.37 0.389126 1.44243 0
M  V30 41744 H 4095.25 -1.60797 3.89516 0
M  V30 41745 H 4093.92 -1.7699 2.71028 0
M  V30 41746 H 4092.83 0.312001 3.72797 0
M  V30 41747 H 4094.16 0.390875 4.90646 0
M  V30 41748 N 4095.82 -1.53211 0.369342 0
M  V30 41749 C 4096.78 -2.24473 -0.463088 0
M  V30 41750 C 4097.78 -1.25392 -1.00665 0
M  V30 41751 O 4098.97 -1.49641 -0.891806 0
M  V30 41752 C 4096.1 -2.98438 -1.64765 0
M  V30 41753 H 4097.29 -2.9947 0.160531 0
M  V30 41754 H 4094.85 -1.5583 0.121095 0
M  V30 41755 H 4095.58 -2.27693 -2.30925 0
M  V30 41756 H 4095.37 -3.7114 -1.26481 0
M  V30 41757 H 4096.86 -3.526 -2.23747 0
M  V30 41758 N 4097.29 -0.0986092 -1.57291 0
M  V30 41759 C 4098.22 0.856093 -2.1724 0
M  V30 41760 C 4099.2 1.29174 -1.10671 0
M  V30 41761 O 4100.39 1.358 -1.38823 0
M  V30 41762 C 4097.52 2.11393 -2.75555 0
M  V30 41763 C 4096.47 1.81678 -3.87527 0
M  V30 41764 C 4095.8 3.1432 -4.32559 0
M  V30 41765 C 4097.1 1.10099 -5.10564 0
M  V30 41766 H 4098.79 0.356604 -2.97269 0
M  V30 41767 H 4096.34 0.170083 -1.42992 0
M  V30 41768 H 4098.29 2.78621 -3.16146 0
M  V30 41769 H 4097.02 2.63631 -1.92786 0
M  V30 41770 H 4095.68 1.16847 -3.4748 0
M  V30 41771 H 4095.32 3.64452 -3.46676 0
M  V30 41772 H 4095.02 2.95219 -5.08055 0
M  V30 41773 H 4096.55 3.827 -4.75786 0
M  V30 41774 H 4097.96 1.67443 -5.48302 0
M  V30 41775 H 4096.36 1.01165 -5.91511 0
M  V30 41776 H 4097.43 0.0843189 -4.84827 0
M  V30 41777 N 4098.77 1.56624 0.175099 0
M  V30 41778 C 4100.02 1.82048 0.893658 0
M  V30 41779 C 4100.35 0.675863 1.8206 0
M  V30 41780 O 4099.63 -0.32242 1.91809 0
M  V30 41781 C 4099.91 3.17841 1.69261 0
M  V30 41782 C 4099.76 4.42825 0.789044 0
M  V30 41783 C 4101.08 3.50534 2.66109 0
M  V30 41784 H 4098.2 0.662234 0.323442 0
M  V30 41785 H 4100.84 1.89325 0.160044 0
M  V30 41786 H 4098.99 3.11769 2.31803 0
M  V30 41787 H 4100.66 4.60961 0.176789 0
M  V30 41788 H 4098.91 4.33692 0.0968745 0
M  V30 41789 H 4099.58 5.34381 1.38349 0
M  V30 41790 H 4102.05 3.57035 2.13694 0
M  V30 41791 H 4100.93 4.46632 3.19079 0
M  V30 41792 H 4101.19 2.75045 3.46126 0
M  V30 41793 N 4100.25 -0.443523 1.5123 0
M  V30 41794 C 4101.53 -1.20431 1.54129 0
M  V30 41795 C 4101.91 -2.0893 0.30193 0
M  V30 41796 O 4101.25 -2.17081 -0.713318 0
M  V30 41797 C 4101.46 -2.01152 2.85199 0
M  V30 41798 C 4102.81 -2.58406 3.36915 0
M  V30 41799 O 4103.84 -2.11369 2.86708 0
M  V30 41800 O 4102.7 -3.44178 4.24504 0
M  V30 41801 H 4099.79 -0.547965 0.619405 0
M  V30 41802 H 4102.34 -0.453097 1.63539 0
M  V30 41803 H 4101.11 -1.36114 3.66863 0
M  V30 41804 H 4100.73 -2.83352 2.78922 0
M  V30 41805 N 4101.73 -1.41272 -0.698562 0
M  V30 41806 C 4102.68 -1.39354 -1.80457 0
M  V30 41807 C 4103.66 -0.268369 -1.58646 0
M  V30 41808 O 4104.85 -0.508807 -1.69529 0
M  V30 41809 C 4101.98 -1.2752 -3.18737 0
M  V30 41810 C 4101.07 -2.44887 -3.46253 0
M  V30 41811 N 4101.46 -3.70357 -3.44484 0
M  V30 41812 C 4099.76 -2.38636 -3.76788 0
M  V30 41813 C 4100.46 -4.48181 -3.70821 0
M  V30 41814 N 4099.43 -3.78253 -3.90417 0
M  V30 41815 H 4103.24 -2.34285 -1.77448 0
M  V30 41816 H 4100.75 -1.35285 -0.898424 0
M  V30 41817 H 4102.75 -1.24228 -3.97961 0
M  V30 41818 H 4101.41 -0.335709 -3.2296 0
M  V30 41819 H 4102.42 -4.03284 -3.24935 0
M  V30 41820 H 4099.1 -1.53142 -3.88399 0
M  V30 41821 H 4100.49 -5.57102 -3.75615 0
M  V30 41822 N 4103.21 0.932517 -1.27051 0
M  V30 41823 C 4104.43 1.71387 -1.15906 0
M  V30 41824 C 4104.85 1.86641 0.284693 0
M  V30 41825 O 4104.21 1.38 1.19425 0
M  V30 41826 C 4104.26 3.11606 -1.83259 0
M  V30 41827 O 4103.98 2.97072 -3.21993 0
M  V30 41828 C 4105.48 4.05915 -1.78179 0
M  V30 41829 H 4102.7 0.536344 -0.403207 0
M  V30 41830 H 4105.24 1.16844 -1.67833 0
M  V30 41831 H 4103.4 3.63024 -1.35249 0
M  V30 41832 H 4103.81 3.85684 -3.55454 0
M  V30 41833 H 4105.29 5.01834 -2.29928 0
M  V30 41834 H 4105.76 4.32747 -0.750112 0
M  V30 41835 H 4106.37 3.60421 -2.25781 0
M  V30 41836 N 4104.68 1.08995 1.13833 0
M  V30 41837 C 4106.09 0.843354 1.66567 0
M  V30 41838 C 4106.45 -0.628922 1.85847 0
M  V30 41839 O 4105.57 -1.48503 1.57403 0
M  V30 41840 C 4106.17 1.52437 3.0257 0
M  V30 41841 C 4104.72 1.32486 3.52313 0
M  V30 41842 C 4103.87 1.5833 2.27655 0
M  V30 41843 H 4106.82 1.24971 0.978159 0
M  V30 41844 H 4106.84 0.954963 3.68321 0
M  V30 41845 H 4106.36 2.59589 2.88505 0
M  V30 41846 H 4104.46 0.274314 3.71589 0
M  V30 41847 H 4104.57 2.05665 4.32711 0
M  V30 41848 H 4102.93 1.00518 2.34026 0
M  V30 41849 H 4103.72 2.66701 2.1616 0
M  V30 41850 N 4106.16 -1.30979 0.87649 0
M  V30 41851 C 4107.39 -2.00343 0.504617 0
M  V30 41852 C 4107.8 -1.65925 -0.909157 0
M  V30 41853 O 4107.14 -0.888016 -1.6081 0
M  V30 41854 C 4107.2 -3.54632 0.589581 0
M  V30 41855 C 4106.87 -4.12543 1.96614 0
M  V30 41856 C 4107.87 -4.29167 2.93448 0
M  V30 41857 C 4105.55 -4.4812 2.26922 0
M  V30 41858 C 4107.54 -4.80567 4.1873 0
M  V30 41859 C 4105.23 -4.9922 3.52452 0
M  V30 41860 C 4106.23 -5.15395 4.48171 0
M  V30 41861 O 4105.92 -5.65396 5.71474 0
M  V30 41862 H 4105.65 -0.647435 0.194433 0
M  V30 41863 H 4108.2 -1.68032 1.18129 0
M  V30 41864 H 4106.43 -3.86432 -0.144034 0
M  V30 41865 H 4108.12 -4.05247 0.230202 0
M  V30 41866 H 4108.89 -4.01993 2.71342 0
M  V30 41867 H 4104.77 -4.34803 1.53192 0
M  V30 41868 H 4108.31 -4.93107 4.93448 0
M  V30 41869 H 4104.21 -5.25829 3.74398 0
M  V30 41870 H 4104.98 -5.83754 5.73737 0
M  V30 41871 N 4107.64 -0.636582 -1.44171 0
M  V30 41872 C 4108.57 0.0518308 -2.33442 0
M  V30 41873 C 4109.55 0.8292 -1.4852 0
M  V30 41874 O 4110.74 0.793997 -1.77227 0
M  V30 41875 C 4107.87 1.03032 -3.31665 0
M  V30 41876 C 4106.82 0.364212 -4.26448 0
M  V30 41877 C 4106.15 1.45299 -5.1458 0
M  V30 41878 C 4107.45 -0.732975 -5.17131 0
M  V30 41879 H 4109.14 -0.69364 -2.91254 0
M  V30 41880 H 4106.69 -0.335015 -1.40049 0
M  V30 41881 H 4108.64 1.5207 -3.93005 0
M  V30 41882 H 4107.36 1.80675 -2.72074 0
M  V30 41883 H 4106.02 -0.105569 -3.66448 0
M  V30 41884 H 4105.67 2.22043 -4.51338 0
M  V30 41885 H 4105.37 1.01264 -5.78809 0
M  V30 41886 H 4106.89 1.94507 -5.78791 0
M  V30 41887 H 4108.31 -0.325464 -5.72375 0
M  V30 41888 H 4106.7 -1.09679 -5.89992 0
M  V30 41889 H 4107.77 -1.59787 -4.57817 0
M  V30 41890 N 4109.12 1.53013 -0.377462 0
M  V30 41891 C 4110.34 2.06319 0.211476 0
M  V30 41892 C 4110.77 1.24828 1.40711 0
M  V30 41893 O 4110.13 0.27031 1.79274 0
M  V30 41894 C 4110.17 3.56043 0.57145 0
M  V30 41895 O 4109.28 3.77204 1.66707 0
M  V30 41896 H 4108.62 0.66341 0.0279746 0
M  V30 41897 H 4111.15 1.97304 -0.541506 0
M  V30 41898 H 4111.16 3.99278 0.839112 0
M  V30 41899 H 4109.83 4.14797 -0.302745 0
M  V30 41900 H 4108.41 3.45863 1.39404 0
M  V30 41901 N 4110.6 0.106949 1.57237 0
M  V30 41902 C 4111.85 -0.553699 1.93951 0
M  V30 41903 C 4112.16 -1.68596 0.991707 0
M  V30 41904 O 4113.36 -2.40855 1.25303 0
M  V30 41905 C 4111.82 -1.03634 3.44656 0
M  V30 41906 C 4111.43 0.0668099 4.4795 0
M  V30 41907 C 4113.17 -1.66904 3.90312 0
M  V30 41908 C 4111.08 -0.431849 5.89821 0
M  V30 41909 H 4110.01 -0.210608 0.723989 0
M  V30 41910 H 4112.66 0.184862 1.82566 0
M  V30 41911 H 4111.04 -1.82895 3.51234 0
M  V30 41912 H 4112.22 0.842704 4.53029 0
M  V30 41913 H 4110.53 0.60543 4.11975 0
M  V30 41914 H 4113.13 -2.05306 4.93714 0
M  V30 41915 H 4113.47 -2.54281 3.29616 0
M  V30 41916 H 4114 -0.942051 3.86484 0
M  V30 41917 H 4110.74 0.405584 6.54244 0
M  V30 41918 H 4110.26 -1.17449 5.88189 0
M  V30 41919 H 4111.94 -0.896991 6.40752 0
M  V30 41920 N 4112.07 -1.56715 -0.166791 0
M  V30 41921 C 4113.04 -1.95873 -1.19023 0
M  V30 41922 C 4114.04 -0.842901 -1.36937 0
M  V30 41923 O 4115.23 -1.10988 -1.34266 0
M  V30 41924 C 4112.36 -2.25748 -2.55442 0
M  V30 41925 H 4113.55 -2.8746 -0.854783 0
M  V30 41926 H 4111.11 -1.50843 -0.40941 0
M  V30 41927 H 4111.84 -1.36889 -2.93993 0
M  V30 41928 H 4111.63 -3.07085 -2.43805 0
M  V30 41929 H 4113.12 -2.56949 -3.29191 0
M  V30 41930 N 4113.55 0.435497 -1.51463 0
M  V30 41931 C 4114.78 1.20716 -1.68033 0
M  V30 41932 C 4115.2 1.84968 -0.378459 0
M  V30 41933 O 4114.55 1.7079 0.643204 0
M  V30 41934 C 4114.6 2.28984 -2.7973 0
M  V30 41935 O 4114.32 1.6736 -4.04873 0
M  V30 41936 C 4115.83 3.19229 -3.07584 0
M  V30 41937 H 4113.05 0.363771 -0.563836 0
M  V30 41938 H 4115.59 0.51579 -1.97888 0
M  V30 41939 H 4113.74 2.93834 -2.52468 0
M  V30 41940 H 4114.16 2.38928 -4.66919 0
M  V30 41941 H 4115.63 3.91327 -3.89316 0
M  V30 41942 H 4116.11 3.80089 -2.20065 0
M  V30 41943 H 4116.72 2.60077 -3.36511 0
M  V30 41944 N 4115.03 1.41641 0.69106 0
M  V30 41945 C 4116.26 1.44605 1.47976 0
M  V30 41946 C 4116.67 0.0526283 1.88727 0
M  V30 41947 O 4116.03 -0.92908 1.57081 0
M  V30 41948 C 4116.08 2.35879 2.73941 0
M  V30 41949 O 4115.8 3.69799 2.34905 0
M  V30 41950 C 4117.3 2.47694 3.67644 0
M  V30 41951 H 4114.52 0.492371 0.455864 0
M  V30 41952 H 4117.07 1.85976 0.850488 0
M  V30 41953 H 4115.22 1.97805 3.33094 0
M  V30 41954 H 4115.64 4.18522 3.16132 0
M  V30 41955 H 4117.11 3.15715 4.528 0
M  V30 41956 H 4117.59 1.50963 4.1244 0
M  V30 41957 H 4118.19 2.86422 3.14392 0
M  V30 41958 N 4116.51 -0.925766 1.27543 0
M  V30 41959 C 4117.46 -2.01286 1.07088 0
M  V30 41960 C 4118.44 -1.609 -0.00171342 0
M  V30 41961 O 4119.63 -1.75664 0.217047 0
M  V30 41962 C 4116.76 -3.35619 0.722139 0
M  V30 41963 C 4115.85 -3.82443 1.83298 0
M  V30 41964 N 4116.24 -4.01759 3.07284 0
M  V30 41965 C 4114.54 -4.11496 1.72009 0
M  V30 41966 C 4115.24 -4.40784 3.79584 0
M  V30 41967 N 4114.22 -4.48365 3.07359 0
M  V30 41968 H 4118.02 -2.14253 2.01178 0
M  V30 41969 H 4115.53 -1.11274 1.18287 0
M  V30 41970 H 4117.53 -4.13166 0.556708 0
M  V30 41971 H 4116.19 -3.24013 -0.211117 0
M  V30 41972 H 4117.2 -3.88013 3.43025 0
M  V30 41973 H 4113.88 -4.08593 0.857801 0
M  V30 41974 H 4115.27 -4.63792 4.86155 0
M  V30 41975 N 4117.99 -1.09597 -1.13253 0
M  V30 41976 C 4118.92 -0.75883 -2.20826 0
M  V30 41977 C 4119.9 0.264295 -1.68034 0
M  V30 41978 O 4121.08 0.131971 -1.93751 0
M  V30 41979 C 4118.21 -0.180485 -3.46831 0
M  V30 41980 C 4117.17 -1.13332 -4.12722 0
M  V30 41981 C 4116.49 -0.416598 -5.33075 0
M  V30 41982 C 4117.79 -2.47645 -4.59858 0
M  V30 41983 H 4119.49 -1.65825 -2.49284 0
M  V30 41984 H 4117.03 -0.798755 -1.19816 0
M  V30 41985 H 4118.99 0.0674572 -4.21346 0
M  V30 41986 H 4117.71 0.754138 -3.17774 0
M  V30 41987 H 4116.37 -1.36657 -3.40177 0
M  V30 41988 H 4116.02 0.52222 -5.00282 0
M  V30 41989 H 4115.72 -1.05193 -5.78107 0
M  V30 41990 H 4117.24 -0.176997 -6.10343 0
M  V30 41991 H 4118.65 -2.28518 -5.25787 0
M  V30 41992 H 4117.05 -3.06983 -5.15637 0
M  V30 41993 H 4118.12 -3.0828 -3.74288 0
M  V30 41994 N 4119.46 1.30512 -0.883424 0
M  V30 41995 C 4120.4 2.26302 -0.29367 0
M  V30 41996 C 4121.38 1.51717 0.584881 0
M  V30 41997 O 4122.56 1.80739 0.53532 0
M  V30 41998 C 4119.69 3.33647 0.582873 0
M  V30 41999 C 4118.73 4.259 -0.226143 0
M  V30 42000 S 4119.57 5.10616 -1.61342 0
M  V30 42001 C 4120.72 6.2147 -0.743361 0
M  V30 42002 H 4120.95 2.75976 -1.10564 0
M  V30 42003 H 4118.49 1.38484 -0.682754 0
M  V30 42004 H 4120.45 3.9596 1.08287 0
M  V30 42005 H 4119.11 2.827 1.36892 0
M  V30 42006 H 4118.3 5.02052 0.442708 0
M  V30 42007 H 4117.9 3.68154 -0.658705 0
M  V30 42008 H 4120.19 6.77488 0.0403262 0
M  V30 42009 H 4121.14 6.92537 -1.47644 0
M  V30 42010 H 4121.54 5.63676 -0.304951 0
M  V30 42011 N 4120.94 0.644219 1.43832 0
M  V30 42012 C 4122.22 0.0842855 1.95418 0
M  V30 42013 C 4122.6 -1.39338 1.58581 0
M  V30 42014 O 4121.95 -2.11437 0.866406 0
M  V30 42015 C 4122.16 0.320989 3.47521 0
M  V30 42016 C 4123.51 0.221134 4.24024 0
M  V30 42017 O 4124.53 0.253059 3.553 0
M  V30 42018 O 4123.39 0.137179 5.46328 0
M  V30 42019 H 4120.48 -0.0147991 0.826868 0
M  V30 42020 H 4123.03 0.716832 1.53817 0
M  V30 42021 H 4121.8 1.34582 3.67428 0
M  V30 42022 H 4121.42 -0.345064 3.961 0
M  V30 42023 N 4122.42 -1.52811 0.385571 0
M  V30 42024 C 4123.35 -2.2398 -0.486394 0
M  V30 42025 C 4124.37 -1.26092 -1.02979 0
M  V30 42026 O 4125.55 -1.52191 -0.932753 0
M  V30 42027 C 4122.65 -2.93962 -1.6864 0
M  V30 42028 C 4121.83 -4.18526 -1.27102 0
M  V30 42029 C 4120.89 -4.7154 -2.3353 0
M  V30 42030 O 4119.91 -5.34722 -1.95092 0
M  V30 42031 N 4121.11 -4.51074 -3.65393 0
M  V30 42032 H 4123.88 -2.99446 0.123323 0
M  V30 42033 H 4121.44 -1.60509 0.21174 0
M  V30 42034 H 4123.43 -3.2633 -2.39354 0
M  V30 42035 H 4122 -2.21827 -2.20254 0
M  V30 42036 H 4121.22 -3.92237 -0.392914 0
M  V30 42037 H 4122.51 -4.99466 -0.970104 0
M  V30 42038 H 4121.91 -4.00633 -3.99386 0
M  V30 42039 H 4120.47 -4.87941 -4.32153 0
M  V30 42040 N 4123.9 -0.115287 -1.57178 0
M  V30 42041 C 4125.12 0.554766 -1.99843 0
M  V30 42042 C 4125.55 1.59666 -0.994397 0
M  V30 42043 O 4124.91 1.81267 0.0344212 0
M  V30 42044 C 4124.95 1.16093 -3.41401 0
M  V30 42045 O 4124.06 2.27653 -3.43872 0
M  V30 42046 H 4123.4 0.138926 -0.649304 0
M  V30 42047 H 4125.93 -0.202665 -2.03594 0
M  V30 42048 H 4125.94 1.49737 -3.7953 0
M  V30 42049 H 4124.61 0.397754 -4.13994 0
M  V30 42050 H 4123.19 1.95477 -3.17558 0
M  V30 42051 N 4125.38 1.56801 0.158477 0
M  V30 42052 C 4126.62 1.82986 0.874299 0
M  V30 42053 C 4126.96 0.695135 1.81333 0
M  V30 42054 O 4126.23 -0.302057 1.9214 0
M  V30 42055 C 4126.51 3.19618 1.6588 0
M  V30 42056 C 4126.37 4.43637 0.742032 0
M  V30 42057 C 4127.69 3.53337 2.62376 0
M  V30 42058 H 4124.81 0.665627 0.3164 0
M  V30 42059 H 4127.45 1.89484 0.139954 0
M  V30 42060 H 4125.6 3.1421 2.28483 0
M  V30 42061 H 4127.27 4.61123 0.127888 0
M  V30 42062 H 4125.51 4.3377 0.0508703 0
M  V30 42063 H 4126.18 5.35819 1.32673 0
M  V30 42064 H 4128.66 3.59282 2.09895 0
M  V30 42065 H 4127.54 4.49991 3.14324 0
M  V30 42066 H 4127.8 2.787 3.43189 0
M  V30 42067 N 4126.86 -0.427458 1.51692 0
M  V30 42068 C 4128.08 -1.19824 1.68671 0
M  V30 42069 C 4128.5 -1.84765 0.388263 0
M  V30 42070 O 4127.86 -1.71128 -0.634137 0
M  V30 42071 C 4127.91 -2.27497 2.8094 0
M  V30 42072 O 4127.63 -1.65211 4.05755 0
M  V30 42073 C 4129.13 -3.17593 3.09273 0
M  V30 42074 H 4126.35 -0.360776 0.565757 0
M  V30 42075 H 4128.89 -0.505288 1.98159 0
M  V30 42076 H 4127.05 -2.92491 2.54023 0
M  V30 42077 H 4127.46 -2.36449 4.6818 0
M  V30 42078 H 4128.94 -3.89257 3.91386 0
M  V30 42079 H 4129.41 -3.78917 2.22078 0
M  V30 42080 H 4130.02 -2.58289 3.37886 0
M  V30 42081 N 4128.33 -1.42005 -0.683539 0
M  V30 42082 C 4129.24 -1.47183 -1.82686 0
M  V30 42083 C 4130.26 -0.361328 -1.70207 0
M  V30 42084 O 4131.44 -0.6109 -1.91911 0
M  V30 42085 C 4128.5 -1.36346 -3.18764 0
M  V30 42086 C 4127.56 -2.57814 -3.43265 0
M  V30 42087 C 4126.79 -2.47484 -4.7285 0
M  V30 42088 O 4127.02 -1.50594 -5.50161 0
M  V30 42089 O 4125.95 -3.37461 -4.98401 0
M  V30 42090 H 4129.78 -2.43666 -1.81274 0
M  V30 42091 H 4127.36 -1.23674 -0.83816 0
M  V30 42092 H 4129.24 -1.32631 -3.99984 0
M  V30 42093 H 4127.92 -0.429837 -3.20833 0
M  V30 42094 H 4126.83 -2.67104 -2.61928 0
M  V30 42095 H 4128.16 -3.50045 -3.46019 0
M  V30 42096 N 4129.81 0.918989 -1.28033 0
M  V30 42097 C 4131.06 1.67006 -1.15051 0
M  V30 42098 C 4131.39 1.91849 0.301267 0
M  V30 42099 O 4130.67 1.51511 1.21961 0
M  V30 42100 C 4130.95 3.03122 -1.94394 0
M  V30 42101 C 4130.8 2.85466 -3.47605 0
M  V30 42102 C 4132.12 4.03583 -1.75524 0
M  V30 42103 H 4129.24 0.606084 -0.419322 0
M  V30 42104 H 4131.88 1.06584 -1.57289 0
M  V30 42105 H 4130.03 3.54697 -1.58499 0
M  V30 42106 H 4131.7 2.40942 -3.93376 0
M  V30 42107 H 4129.95 2.20631 -3.73503 0
M  V30 42108 H 4130.62 3.82104 -3.98372 0
M  V30 42109 H 4133.09 3.6105 -2.06838 0
M  V30 42110 H 4131.97 4.96796 -2.3342 0
M  V30 42111 H 4132.23 4.36436 -0.705386 0
M  V30 42112 N 4131.29 1.10196 1.12671 0
M  V30 42113 C 4132.7 0.860974 1.65663 0
M  V30 42114 C 4133.05 -0.609175 1.86503 0
M  V30 42115 O 4132.18 -1.46825 1.5897 0
M  V30 42116 C 4132.77 1.55637 3.00936 0
M  V30 42117 C 4131.33 1.36215 3.50888 0
M  V30 42118 C 4130.48 1.60736 2.25963 0
M  V30 42119 H 4133.43 1.26001 0.964849 0
M  V30 42120 H 4133.45 0.993975 3.67288 0
M  V30 42121 H 4132.96 2.62634 2.85736 0
M  V30 42122 H 4131.06 0.31371 3.71277 0
M  V30 42123 H 4131.18 2.10243 4.30505 0
M  V30 42124 H 4129.54 1.02994 2.32947 0
M  V30 42125 H 4130.32 2.68979 2.13319 0
M  V30 42126 N 4132.77 -1.30042 0.890333 0
M  V30 42127 C 4134.04 -1.90785 0.431344 0
M  V30 42128 C 4134.42 -1.80883 -1.08833 0
M  V30 42129 O 4133.77 -1.22949 -1.92602 0
M  V30 42130 C 4133.98 -3.3623 0.935436 0
M  V30 42131 C 4135.33 -4.13288 0.973577 0
M  V30 42132 O 4136.35 -3.45096 0.882464 0
M  V30 42133 O 4135.21 -5.35129 1.10902 0
M  V30 42134 H 4132.31 -0.816258 0.132859 0
M  V30 42135 H 4134.85 -1.38572 0.979585 0
M  V30 42136 H 4133.63 -3.37547 1.97934 0
M  V30 42137 H 4133.25 -3.95906 0.366666 0
M  V30 42138 N 4134.25 -0.651838 -1.43488 0
M  V30 42139 C 4135.49 -0.164912 -2.02128 0
M  V30 42140 C 4135.82 1.21748 -1.51298 0
M  V30 42141 O 4135.1 1.81253 -0.705524 0
M  V30 42142 C 4135.38 -0.174247 -3.59678 0
M  V30 42143 C 4135.24 -1.59045 -4.20743 0
M  V30 42144 C 4136.55 0.490101 -4.37363 0
M  V30 42145 H 4133.67 -0.0614 -0.734438 0
M  V30 42146 H 4136.32 -0.832259 -1.70802 0
M  V30 42147 H 4134.47 0.394009 -3.86497 0
M  V30 42148 H 4136.14 -2.20919 -4.0496 0
M  V30 42149 H 4134.38 -2.13815 -3.77446 0
M  V30 42150 H 4135.05 -1.54885 -5.29825 0
M  V30 42151 H 4137.53 0.00662701 -4.16099 0
M  V30 42152 H 4136.4 0.452836 -5.47029 0
M  V30 42153 H 4136.66 1.56399 -4.13511 0
M  V30 42154 N 4135.72 1.52604 -0.39367 0
M  V30 42155 C 4136.66 2.23017 0.483595 0
M  V30 42156 C 4137.63 1.23253 1.06054 0
M  V30 42157 O 4138.82 1.52254 1.11135 0
M  V30 42158 C 4135.95 2.94679 1.6698 0
M  V30 42159 C 4134.99 4.08748 1.21769 0
M  V30 42160 S 4135.82 5.35143 0.195608 0
M  V30 42161 C 4136.98 6.10327 1.38749 0
M  V30 42162 H 4137.21 2.9708 -0.114324 0
M  V30 42163 H 4134.75 1.53372 -0.17788 0
M  V30 42164 H 4136.7 3.36575 2.35006 0
M  V30 42165 H 4135.37 2.20287 2.23902 0
M  V30 42166 H 4134.56 4.58006 2.10349 0
M  V30 42167 H 4134.16 3.68887 0.616282 0
M  V30 42168 H 4136.45 6.36764 2.31381 0
M  V30 42169 H 4137.4 7.0189 0.935745 0
M  V30 42170 H 4137.8 5.41164 1.60628 0
M  V30 42171 N 4137.2 0.12362 1.57114 0
M  V30 42172 C 4138.11 -0.838455 2.19105 0
M  V30 42173 C 4139.13 -1.28925 1.16852 0
M  V30 42174 O 4140.3 -1.35128 1.4934 0
M  V30 42175 C 4137.37 -2.06903 2.78194 0
M  V30 42176 C 4136.43 -1.66972 3.95498 0
M  V30 42177 C 4135.66 -2.84163 4.5176 0
M  V30 42178 O 4135.89 -3.99721 4.06915 0
M  V30 42179 O 4134.82 -2.60982 5.42376 0
M  V30 42180 H 4138.65 -0.340882 3.01781 0
M  V30 42181 H 4136.23 -0.102229 1.4905 0
M  V30 42182 H 4138.11 -2.78966 3.15842 0
M  V30 42183 H 4136.79 -2.55658 1.98547 0
M  V30 42184 H 4135.69 -0.920028 3.6261 0
M  V30 42185 H 4137.03 -1.22955 4.76595 0
M  V30 42186 N 4138.68 -1.56883 -0.15016 0
M  V30 42187 C 4139.93 -1.82814 -0.861598 0
M  V30 42188 C 4140.25 -0.704009 -1.81848 0
M  V30 42189 O 4139.52 0.274582 -1.93966 0
M  V30 42190 H 4138.1 -0.674435 -0.321163 0
M  V30 42191 H 4140.76 -1.9436 -0.144918 0
M  V30 42192 H 4139.86 -2.7763 -1.42575 0
M  V30 42193 N 4140.16 0.419408 -1.51917 0
M  V30 42194 C 4141.38 1.19384 -1.69594 0
M  V30 42195 C 4141.81 1.83792 -0.400257 0
M  V30 42196 O 4141.17 1.69578 0.641338 0
M  V30 42197 C 4141.21 2.24031 -2.82564 0
M  V30 42198 O 4140.32 3.29938 -2.47416 0
M  V30 42199 H 4139.66 0.348969 -0.564904 0
M  V30 42200 H 4142.19 0.493029 -1.98571 0
M  V30 42201 H 4142.2 2.68528 -3.07176 0
M  V30 42202 H 4140.87 1.76534 -3.76575 0
M  V30 42203 H 4139.45 2.90792 -2.3344 0
M  V30 42204 N 4141.64 1.42366 0.675998 0
M  V30 42205 C 4142.58 1.45983 1.81085 0
M  V30 42206 C 4143.58 0.335691 1.66041 0
M  V30 42207 O 4144.78 0.508649 1.72664 0
M  V30 42208 H 4141.16 0.457184 0.597065 0
M  V30 42209 H 4143.13 2.41587 1.75152 0
M  V30 42210 C 4141.88 1.37794 3.1923 0
M  V30 42211 H 4141.2 2.2359 3.31433 0
M  V30 42212 H 4142.64 1.44387 3.98658 0
M  V30 42213 C 4141.1 0.0925864 3.36773 0
M  V30 42214 O 4141.63 -0.855112 3.92493 0
M  V30 42215 N 4139.84 0.0101283 2.90598 0
M  V30 42216 H 4139.38 0.782114 2.4544 0
M  V30 42217 H 4139.34 -0.849248 3.02713 0
M  V30 42218 N 4143.11 -0.912187 1.28518 0
M  V30 42219 C 4144.53 -1.47658 1.14254 0
M  V30 42220 C 4144.88 -1.94376 -0.266901 0
M  V30 42221 O 4144 -1.826 -1.1613 0
M  V30 42222 C 4144.6 -2.68366 2.06797 0
M  V30 42223 C 4143.16 -3.2098 1.96592 0
M  V30 42224 C 4142.3 -1.93685 1.98447 0
M  V30 42225 H 4145.25 -0.724744 1.41185 0
M  V30 42226 H 4145.27 -3.43682 1.63288 0
M  V30 42227 H 4144.79 -2.34333 3.0937 0
M  V30 42228 H 4142.89 -3.59735 0.970629 0
M  V30 42229 H 4143 -3.86124 2.83629 0
M  V30 42230 H 4141.36 -2.10852 1.42876 0
M  V30 42231 H 4142.15 -1.61946 3.02702 0
M  V30 42232 N 4144.59 -1.10792 -1.12085 0
M  V30 42233 C 4146 -0.869747 -1.65204 0
M  V30 42234 C 4146.35 0.599276 -1.86824 0
M  V30 42235 O 4145.48 1.4598 -1.59746 0
M  V30 42236 C 4146.07 -1.57231 -3.00106 0
M  V30 42237 C 4144.63 -1.38074 -3.50161 0
M  V30 42238 C 4143.78 -1.61932 -2.25107 0
M  V30 42239 H 4146.73 -1.26511 -0.958153 0
M  V30 42240 H 4146.75 -1.01344 -3.66756 0
M  V30 42241 H 4146.26 -2.64146 -2.84339 0
M  V30 42242 H 4144.37 -0.333396 -3.71105 0
M  V30 42243 H 4144.48 -2.12523 -4.29384 0
M  V30 42244 H 4142.84 -1.04228 -2.32397 0
M  V30 42245 H 4143.63 -2.70107 -2.1189 0
M  V30 42246 N 4146.07 1.29568 -0.897217 0
M  V30 42247 C 4147.3 1.99514 -0.536426 0
M  V30 42248 C 4147.71 1.6735 0.882645 0
M  V30 42249 O 4147.05 0.913487 1.59377 0
M  V30 42250 C 4147.11 3.5365 -0.645925 0
M  V30 42251 C 4146.78 4.09363 -2.03152 0
M  V30 42252 C 4147.77 4.24444 -3.00239 0
M  V30 42253 C 4145.46 4.44453 -2.34023 0
M  V30 42254 C 4147.45 4.73844 -4.26322 0
M  V30 42255 C 4145.14 4.9355 -3.60349 0
M  V30 42256 C 4146.14 5.082 -4.56313 0
M  V30 42257 O 4145.83 5.56233 -5.80397 0
M  V30 42258 H 4145.56 0.644259 -0.204709 0
M  V30 42259 H 4148.11 1.66132 -1.20787 0
M  V30 42260 H 4146.34 3.86612 0.0825376 0
M  V30 42261 H 4148.03 4.04829 -0.294644 0
M  V30 42262 H 4148.8 3.97625 -2.77703 0
M  V30 42263 H 4144.68 4.3231 -1.6009 0
M  V30 42264 H 4148.22 4.85194 -5.01231 0
M  V30 42265 H 4144.12 5.19806 -3.82716 0
M  V30 42266 H 4144.89 5.74552 -5.82951 0
M  V30 42267 N 4147.55 0.659438 1.4314 0
M  V30 42268 C 4148.78 0.183036 2.05788 0
M  V30 42269 C 4149.19 -1.15895 1.49549 0
M  V30 42270 O 4148.53 -1.72782 0.623872 0
M  V30 42271 C 4148.59 0.0241245 3.59492 0
M  V30 42272 C 4148.26 1.29239 4.38345 0
M  V30 42273 C 4149.25 2.2225 4.70001 0
M  V30 42274 C 4146.94 1.53571 4.78248 0
M  V30 42275 C 4148.93 3.37881 5.40477 0
M  V30 42276 C 4146.62 2.69494 5.48467 0
M  V30 42277 C 4147.62 3.61474 5.79504 0
M  V30 42278 O 4147.3 4.75372 6.48287 0
M  V30 42279 H 4147.04 0.0901193 0.669966 0
M  V30 42280 H 4149.59 0.902122 1.84529 0
M  V30 42281 H 4147.82 -0.750393 3.79349 0
M  V30 42282 H 4149.51 -0.410431 4.0382 0
M  V30 42283 H 4150.28 2.04697 4.39687 0
M  V30 42284 H 4146.15 0.828549 4.53493 0
M  V30 42285 H 4149.7 4.09696 5.64619 0
M  V30 42286 H 4145.6 2.86979 5.78198 0
M  V30 42287 H 4146.36 4.74718 6.66772 0
M  V30 42288 N 4149.03 -1.52393 0.401757 0
M  V30 42289 C 4150.25 -2.06149 -0.176134 0
M  V30 42290 C 4150.67 -1.27245 -1.39478 0
M  V30 42291 O 4150.03 -0.322353 -1.79631 0
M  V30 42292 C 4150.08 -3.57536 -0.533902 0
M  V30 42293 O 4149.8 -4.33454 0.636346 0
M  V30 42294 C 4151.3 -4.27682 -1.16632 0
M  V30 42295 H 4148.52 -0.670584 -0.0236365 0
M  V30 42296 H 4151.06 -1.96379 0.570583 0
M  V30 42297 H 4149.22 -3.67338 -1.23051 0
M  V30 42298 H 4149.63 -5.234 0.339465 0
M  V30 42299 H 4151.11 -5.34808 -1.36692 0
M  V30 42300 H 4151.58 -3.83688 -2.1373 0
M  V30 42301 H 4152.19 -4.2223 -0.51012 0
M  V30 42302 N 4150.5 -0.131951 -1.57047 0
M  V30 42303 C 4151.78 0.567146 -1.87197 0
M  V30 42304 C 4152.16 1.83966 -1.03536 0
M  V30 42305 O 4151.51 2.28196 -0.117898 0
M  V30 42306 C 4151.72 0.84712 -3.38563 0
M  V30 42307 C 4153.07 1.19451 -4.07451 0
M  V30 42308 O 4154.09 0.936965 -3.43656 0
M  V30 42309 O 4152.95 1.67847 -5.20086 0
M  V30 42310 H 4150.04 0.287594 -0.775383 0
M  V30 42311 H 4152.59 -0.16743 -1.68872 0
M  V30 42312 H 4151.36 -0.0540887 -3.91263 0
M  V30 42313 H 4150.99 1.6364 -3.62364 0
M  V30 42314 N 4151.98 1.5696 0.141838 0
M  V30 42315 C 4153.21 1.87795 0.86837 0
M  V30 42316 C 4153.63 0.720721 1.74502 0
M  V30 42317 O 4152.98 -0.309341 1.79859 0
M  V30 42318 C 4153.03 3.17916 1.7208 0
M  V30 42319 O 4152.75 4.29182 0.879473 0
M  V30 42320 C 4154.26 3.62301 2.55447 0
M  V30 42321 H 4151.48 0.622354 0.250831 0
M  V30 42322 H 4154.02 2.04067 0.133077 0
M  V30 42323 H 4152.17 3.03383 2.4091 0
M  V30 42324 H 4152.59 5.03619 1.46521 0
M  V30 42325 H 4154.06 4.5617 3.10826 0
M  V30 42326 H 4154.54 2.8784 3.3173 0
M  V30 42327 H 4155.15 3.79545 1.91899 0
M  V30 42328 N 4153.46 -0.411345 1.52137 0
M  V30 42329 C 4154.69 -1.18028 1.69932 0
M  V30 42330 C 4155.1 -1.84342 0.407838 0
M  V30 42331 O 4154.46 -1.71791 -0.615951 0
M  V30 42332 C 4154.51 -2.24505 2.83337 0
M  V30 42333 O 4154.23 -1.60898 4.07484 0
M  V30 42334 C 4155.73 -3.14295 3.12624 0
M  V30 42335 H 4152.95 -0.354755 0.569552 0
M  V30 42336 H 4155.5 -0.484243 1.98684 0
M  V30 42337 H 4153.65 -2.8978 2.57111 0
M  V30 42338 H 4154.07 -2.3147 4.70661 0
M  V30 42339 H 4155.54 -3.85084 3.95493 0
M  V30 42340 H 4156.02 -3.7654 2.26084 0
M  V30 42341 H 4156.62 -2.54691 3.40606 0
M  V30 42342 N 4154.94 -1.42722 -0.668439 0
M  V30 42343 C 4155.87 -1.49492 -1.79372 0
M  V30 42344 C 4156.85 -0.35091 -1.66441 0
M  V30 42345 O 4158.04 -0.566082 -1.85766 0
M  V30 42346 C 4155.17 -1.40278 -3.17709 0
M  V30 42347 C 4154.12 -2.52772 -3.45384 0
M  V30 42348 C 4153.45 -2.28615 -4.83363 0
M  V30 42349 C 4154.75 -3.95067 -3.41643 0
M  V30 42350 H 4156.44 -2.43674 -1.73964 0
M  V30 42351 H 4153.99 -1.17281 -0.835527 0
M  V30 42352 H 4155.94 -1.43621 -3.9617 0
M  V30 42353 H 4154.66 -0.425939 -3.23811 0
M  V30 42354 H 4153.32 -2.48757 -2.69287 0
M  V30 42355 H 4152.97 -1.29209 -4.86121 0
M  V30 42356 H 4152.67 -3.04014 -5.02841 0
M  V30 42357 H 4154.19 -2.33717 -5.641 0
M  V30 42358 H 4155.61 -4.00651 -4.10063 0
M  V30 42359 H 4154 -4.70368 -3.72657 0
M  V30 42360 H 4155.07 -4.21285 -2.40098 0
M  V30 42361 N 4156.42 0.905358 -1.29 0
M  V30 42362 C 4157.38 1.99036 -1.13655 0
M  V30 42363 C 4158.38 1.60631 -0.0736928 0
M  V30 42364 O 4159.57 1.71232 -0.320169 0
M  V30 42365 C 4156.7 3.32843 -0.736773 0
M  V30 42366 H 4157.9 2.14077 -2.10026 0
M  V30 42367 H 4155.45 1.08913 -1.12106 0
M  V30 42368 H 4156.18 3.23502 0.227326 0
M  V30 42369 H 4155.97 3.62081 -1.50465 0
M  V30 42370 H 4157.46 4.12474 -0.652302 0
M  V30 42371 N 4157.9 1.11385 1.11495 0
M  V30 42372 C 4159.14 0.863624 1.83492 0
M  V30 42373 C 4159.47 -0.609227 1.84396 0
M  V30 42374 O 4158.75 -1.44976 1.29662 0
M  V30 42375 C 4159.03 1.42515 3.30698 0
M  V30 42376 C 4158.89 2.96558 3.38192 0
M  V30 42377 C 4160.2 1.07561 4.26754 0
M  V30 42378 H 4157.32 0.315185 0.666204 0
M  V30 42379 H 4159.97 1.37863 1.30743 0
M  V30 42380 H 4158.12 0.987119 3.7575 0
M  V30 42381 H 4159.79 3.4896 3.01702 0
M  V30 42382 H 4158.03 3.32655 2.7843 0
M  V30 42383 H 4158.7 3.30935 4.41799 0
M  V30 42384 H 4161.18 1.45374 3.89879 0
M  V30 42385 H 4160.05 1.49528 5.28141 0
M  V30 42386 H 4160.31 -0.0136996 4.42098 0
M  V30 42387 N 4159.37 -1.2909 0.904076 0
M  V30 42388 C 4160.6 -2.00053 0.547117 0
M  V30 42389 C 4161.02 -1.67186 -0.861997 0
M  V30 42390 O 4160.38 -0.898882 -1.57448 0
M  V30 42391 C 4160.43 -3.52681 0.751557 0
M  V30 42392 O 4159.53 -4.11944 -0.193931 0
M  V30 42393 H 4158.87 -0.628824 0.213252 0
M  V30 42394 H 4161.4 -1.6448 1.21686 0
M  V30 42395 H 4161.41 -4.02661 0.657902 0
M  V30 42396 H 4160.09 -3.75939 1.77884 0
M  V30 42397 H 4158.67 -3.72863 -0.0523625 0
M  V30 42398 N 4160.85 -0.66702 -1.42789 0
M  V30 42399 C 4162.08 -0.194228 -2.05986 0
M  V30 42400 C 4162.49 1.14557 -1.50073 0
M  V30 42401 O 4161.85 1.71005 -0.637449 0
M  V30 42402 C 4161.9 -0.112097 -3.61326 0
M  V30 42403 O 4161.62 -1.39895 -4.15164 0
M  V30 42404 C 4163.12 0.385123 -4.41624 0
M  V30 42405 H 4160.34 -0.0962996 -0.664054 0
M  V30 42406 H 4162.89 -0.911562 -1.8306 0
M  V30 42407 H 4161.04 0.555877 -3.83391 0
M  V30 42408 H 4161.46 -1.26719 -5.08962 0
M  V30 42409 H 4162.93 0.391514 -5.5061 0
M  V30 42410 H 4163.41 1.41898 -4.15646 0
M  V30 42411 H 4164.01 -0.25084 -4.2456 0
M  V30 42412 N 4162.33 1.52178 -0.409833 0
M  V30 42413 C 4163.58 2.01821 0.165722 0
M  V30 42414 C 4163.9 1.29542 1.45083 0
M  V30 42415 O 4163.16 0.390458 1.91765 0
M  V30 42416 C 4163.46 3.54434 0.459519 0
M  V30 42417 C 4163.12 4.44845 -0.736478 0
M  V30 42418 C 4161.79 4.69277 -1.06453 0
M  V30 42419 C 4164.14 4.98064 -1.53562 0
M  V30 42420 C 4161.47 5.44177 -2.19291 0
M  V30 42421 C 4163.82 5.74199 -2.65477 0
M  V30 42422 C 4162.48 5.96904 -2.98767 0
M  V30 42423 H 4161.75 0.738514 0.0606421 0
M  V30 42424 H 4164.4 1.8339 -0.551396 0
M  V30 42425 H 4162.7 3.71047 1.25821 0
M  V30 42426 H 4164.4 3.90355 0.91782 0
M  V30 42427 H 4160.99 4.26006 -0.470809 0
M  V30 42428 H 4165.18 4.79096 -1.2954 0
M  V30 42429 H 4160.43 5.59977 -2.4543 0
M  V30 42430 H 4164.61 6.14434 -3.27787 0
M  V30 42431 H 4162.23 6.54723 -3.86318 0
M  V30 42432 N 4163.81 0.140278 1.56974 0
M  V30 42433 C 4164.77 -0.787802 2.15235 0
M  V30 42434 C 4165.77 -1.17992 1.09245 0
M  V30 42435 O 4166.96 -1.10195 1.34918 0
M  V30 42436 C 4164.09 -2.06816 2.70998 0
M  V30 42437 H 4165.29 -0.281113 2.9858 0
M  V30 42438 H 4162.84 -0.109123 1.55919 0
M  V30 42439 H 4163.57 -2.61867 1.91301 0
M  V30 42440 H 4163.36 -1.79627 3.48535 0
M  V30 42441 H 4164.85 -2.73115 3.15908 0
M  V30 42442 N 4165.29 -1.57033 -0.133512 0
M  V30 42443 C 4166.23 -1.99274 -1.16441 0
M  V30 42444 C 4167.2 -0.862483 -1.41952 0
M  V30 42445 O 4168.39 -1.1256 -1.54062 0
M  V30 42446 C 4165.53 -2.38989 -2.48954 0
M  V30 42447 C 4164.64 -3.65366 -2.30503 0
M  V30 42448 C 4163.78 -3.94126 -3.56144 0
M  V30 42449 C 4162.81 -5.1373 -3.32787 0
M  V30 42450 N 4161.95 -5.38433 -4.50594 0
M  V30 42451 H 4166.79 -2.87139 -0.797206 0
M  V30 42452 H 4164.33 -1.42049 -0.382169 0
M  V30 42453 H 4166.29 -2.60048 -3.26237 0
M  V30 42454 H 4164.92 -1.54186 -2.83596 0
M  V30 42455 H 4163.97 -3.52006 -1.44207 0
M  V30 42456 H 4165.28 -4.52805 -2.09212 0
M  V30 42457 H 4164.43 -4.15755 -4.41851 0
M  V30 42458 H 4163.17 -3.05135 -3.80452 0
M  V30 42459 H 4162.18 -4.9196 -2.4547 0
M  V30 42460 H 4163.4 -6.04286 -3.09864 0
M  V30 42461 H 4161.35 -4.52398 -4.7505 0
M  V30 42462 H 4161.27 -6.20166 -4.32355 0
M  V30 42463 H 4162.53 -5.64571 -5.37476 0
M  V30 42464 N 4166.76 0.403271 -1.52353 0
M  V30 42465 C 4167.69 1.49846 -1.79077 0
M  V30 42466 C 4168.67 1.57518 -0.642034 0
M  V30 42467 O 4169.86 1.72697 -0.888213 0
M  V30 42468 C 4166.99 2.87609 -1.94675 0
M  V30 42469 C 4165.94 2.94784 -3.103 0
M  V30 42470 C 4165.27 4.34859 -3.1113 0
M  V30 42471 C 4166.57 2.65733 -4.49648 0
M  V30 42472 H 4168.26 1.27732 -2.70786 0
M  V30 42473 H 4165.81 0.613041 -1.30299 0
M  V30 42474 H 4167.76 3.64217 -2.11953 0
M  V30 42475 H 4166.49 3.11029 -0.996432 0
M  V30 42476 H 4165.15 2.20622 -2.92782 0
M  V30 42477 H 4164.79 4.55297 -2.13809 0
M  V30 42478 H 4164.49 4.40583 -3.88794 0
M  V30 42479 H 4166.02 5.13393 -3.30545 0
M  V30 42480 H 4167.43 3.32062 -4.67341 0
M  V30 42481 H 4165.83 2.82825 -5.29273 0
M  V30 42482 H 4166.9 1.61141 -4.57342 0
M  V30 42483 N 4168.24 1.43075 0.66086 0
M  V30 42484 C 4169.47 1.47923 1.45373 0
M  V30 42485 C 4169.89 0.096062 1.87855 0
M  V30 42486 O 4169.25 -0.908555 1.56892 0
M  V30 42487 C 4169.3 2.42373 2.66998 0
M  V30 42488 O 4168.4 1.90471 3.65779 0
M  V30 42489 H 4167.74 0.500639 0.436184 0
M  V30 42490 H 4170.27 1.87911 0.809366 0
M  V30 42491 H 4170.28 2.59421 3.14904 0
M  V30 42492 H 4168.96 3.42856 2.3542 0
M  V30 42493 H 4167.53 1.83047 3.24882 0
M  V30 42494 N 4169.72 -0.898504 1.29478 0
M  V30 42495 C 4170.95 -1.68781 1.20532 0
M  V30 42496 C 4171.37 -1.86682 -0.230503 0
M  V30 42497 O 4170.73 -1.388 -1.16637 0
M  V30 42498 C 4170.78 -3.04916 1.92507 0
M  V30 42499 O 4169.88 -3.93224 1.24292 0
M  V30 42500 H 4169.22 -0.516246 0.417595 0
M  V30 42501 H 4171.75 -1.12237 1.71068 0
M  V30 42502 H 4171.76 -3.5505 2.01007 0
M  V30 42503 H 4170.44 -2.91204 2.96939 0
M  V30 42504 H 4169.01 -3.51659 1.24058 0
M  V30 42505 N 4171.2 -1.11974 -1.10903 0
M  V30 42506 C 4172.13 -0.740981 -2.16892 0
M  V30 42507 C 4173.14 0.23007 -1.61166 0
M  V30 42508 O 4174.33 0.0121299 -1.78496 0
M  V30 42509 C 4171.43 -0.0752449 -3.38816 0
M  V30 42510 C 4170.61 -1.07453 -4.23996 0
M  V30 42511 C 4169.66 -0.437317 -5.2438 0
M  V30 42512 O 4168.69 -1.09289 -5.58609 0
M  V30 42513 N 4169.89 0.797374 -5.74998 0
M  V30 42514 H 4172.66 -1.65295 -2.49995 0
M  V30 42515 H 4170.22 -1.0107 -1.26477 0
M  V30 42516 H 4172.21 0.362914 -4.0307 0
M  V30 42517 H 4170.78 0.739401 -3.0373 0
M  V30 42518 H 4170 -1.69047 -3.56113 0
M  V30 42519 H 4171.29 -1.75042 -4.77742 0
M  V30 42520 H 4170.69 1.34905 -5.49379 0
M  V30 42521 H 4169.24 1.17843 -6.41059 0
M  V30 42522 N 4172.68 1.28609 -0.910909 0
M  V30 42523 C 4173.9 1.99223 -0.558367 0
M  V30 42524 C 4174.32 1.68093 0.859657 0
M  V30 42525 O 4173.68 0.932119 1.56901 0
M  V30 42526 C 4173.73 3.53539 -0.754505 0
M  V30 42527 O 4173.45 3.83571 -2.11673 0
M  V30 42528 C 4174.95 4.41415 -0.408412 0
M  V30 42529 H 4172.17 0.636245 -0.21315 0
M  V30 42530 H 4174.71 1.63874 -1.22333 0
M  V30 42531 H 4172.87 3.87159 -0.136572 0
M  V30 42532 H 4173.28 4.78215 -2.15431 0
M  V30 42533 H 4174.76 5.48768 -0.596433 0
M  V30 42534 H 4175.23 4.34285 0.6552 0
M  V30 42535 H 4175.84 4.13285 -1.00376 0
M  V30 42536 N 4174.15 0.674583 1.42433 0
M  V30 42537 C 4175.57 0.274047 1.84678 0
M  V30 42538 C 4175.92 -1.18375 1.56466 0
M  V30 42539 O 4175.04 -1.90619 1.02437 0
M  V30 42540 C 4175.64 0.490604 3.35229 0
M  V30 42541 C 4174.2 0.14419 3.76124 0
M  V30 42542 C 4173.34 0.783154 2.66011 0
M  V30 42543 H 4176.29 0.87676 1.32282 0
M  V30 42544 H 4176.31 -0.257337 3.79629 0
M  V30 42545 H 4175.83 1.55169 3.55731 0
M  V30 42546 H 4173.93 -0.913459 3.61229 0
M  V30 42547 H 4174.04 0.584561 4.7552 0
M  V30 42548 H 4172.4 0.214501 2.53795 0
M  V30 42549 H 4173.19 1.84769 2.89336 0
M  V30 42550 N 4175.63 -1.51958 0.417898 0
M  V30 42551 C 4176.86 -2.06807 -0.1567 0
M  V30 42552 C 4177.28 -1.28515 -1.37352 0
M  V30 42553 O 4176.64 -0.317746 -1.78494 0
M  V30 42554 C 4176.69 -3.57433 -0.47685 0
M  V30 42555 O 4175.79 -3.81491 -1.56647 0
M  V30 42556 H 4175.13 -0.663919 -0.0103756 0
M  V30 42557 H 4177.66 -1.95799 0.593627 0
M  V30 42558 H 4177.67 -4.01362 -0.732955 0
M  V30 42559 H 4176.35 -4.13848 0.412614 0
M  V30 42560 H 4174.93 -3.49437 -1.30185 0
M  V30 42561 N 4177.11 -0.1486 -1.56898 0
M  V30 42562 C 4178.34 0.512252 -2.00974 0
M  V30 42563 C 4178.76 1.57521 -1.02804 0
M  V30 42564 O 4178.12 1.813 -0.00403598 0
M  V30 42565 C 4178.17 1.08826 -3.43787 0
M  V30 42566 O 4177.27 2.20307 -3.48624 0
M  V30 42567 H 4176.61 0.125122 -0.652105 0
M  V30 42568 H 4179.14 -0.245804 -2.03118 0
M  V30 42569 H 4179.15 1.41652 -3.82621 0
M  V30 42570 H 4177.83 0.30985 -4.14744 0
M  V30 42571 H 4176.4 1.88697 -3.21633 0
M  V30 42572 N 4178.59 1.57102 0.125182 0
M  V30 42573 C 4180 1.73759 0.682986 0
M  V30 42574 C 4180.35 0.766356 1.80614 0
M  V30 42575 O 4179.48 -0.0621362 2.16311 0
M  V30 42576 C 4180.07 3.15068 1.2457 0
M  V30 42577 C 4178.63 3.33252 1.74986 0
M  V30 42578 C 4177.78 2.69645 0.647059 0
M  V30 42579 H 4180.73 1.5838 -0.100685 0
M  V30 42580 H 4180.75 3.16276 2.11542 0
M  V30 42581 H 4180.26 3.85732 0.428032 0
M  V30 42582 H 4178.36 2.6762 2.5925 0
M  V30 42583 H 4178.47 4.41371 1.86356 0
M  V30 42584 H 4176.84 2.30709 1.07914 0
M  V30 42585 H 4177.62 3.42929 -0.159529 0
M  V30 42586 N 4180.07 -0.395186 1.52565 0
M  V30 42587 C 4181 -1.48894 1.79869 0
M  V30 42588 C 4181.98 -1.57175 0.650378 0
M  V30 42589 O 4183.16 -1.72224 0.897359 0
M  V30 42590 C 4180.29 -2.86573 1.96197 0
M  V30 42591 C 4179.25 -2.93134 3.11859 0
M  V30 42592 C 4178.57 -4.33203 3.13432 0
M  V30 42593 C 4179.87 -2.63345 4.51051 0
M  V30 42594 H 4181.57 -1.26294 2.71459 0
M  V30 42595 H 4179.11 -0.606122 1.30622 0
M  V30 42596 H 4181.07 -3.63088 2.13882 0
M  V30 42597 H 4179.79 -3.10496 1.01291 0
M  V30 42598 H 4178.45 -2.19066 2.93948 0
M  V30 42599 H 4178.1 -4.54156 2.1622 0
M  V30 42600 H 4177.8 -4.38515 3.91125 0
M  V30 42601 H 4179.32 -5.11633 3.33263 0
M  V30 42602 H 4180.73 -3.29579 4.69096 0
M  V30 42603 H 4179.13 -2.80015 5.30765 0
M  V30 42604 H 4180.2 -1.58714 4.5819 0
M  V30 42605 N 4181.54 -1.43423 -0.653263 0
M  V30 42606 C 4182.77 -1.48478 -1.4409 0
M  V30 42607 C 4183.19 -0.102647 -1.88521 0
M  V30 42608 O 4182.54 0.887106 -1.59489 0
M  V30 42609 C 4182.6 -2.43059 -2.6759 0
M  V30 42610 O 4182.32 -3.75897 -2.25018 0
M  V30 42611 C 4183.82 -2.57355 -3.60948 0
M  V30 42612 H 4181.04 -0.504284 -0.442649 0
M  V30 42613 H 4183.58 -1.88165 -0.800881 0
M  V30 42614 H 4181.74 -2.06567 -3.27733 0
M  V30 42615 H 4182.15 -4.26757 -3.04924 0
M  V30 42616 H 4183.62 -3.2761 -4.4427 0
M  V30 42617 H 4184.1 -1.61845 -4.08292 0
M  V30 42618 H 4184.71 -2.94657 -3.06688 0
M  V30 42619 N 4183.02 0.891625 -1.29953 0
M  V30 42620 C 4184.27 1.63754 -1.17761 0
M  V30 42621 C 4184.58 1.93753 0.268197 0
M  V30 42622 O 4185.79 2.66637 0.511548 0
M  V30 42623 C 4184.25 2.95104 -2.06013 0
M  V30 42624 C 4183.85 2.72671 -3.55464 0
M  V30 42625 C 4185.6 3.73051 -2.02566 0
M  V30 42626 C 4183.51 3.99797 -4.35794 0
M  V30 42627 H 4182.44 0.614342 -0.43715 0
M  V30 42628 H 4185.09 0.987666 -1.54653 0
M  V30 42629 H 4183.47 3.61348 -1.61998 0
M  V30 42630 H 4184.64 2.14969 -4.07584 0
M  V30 42631 H 4182.96 2.08108 -3.60666 0
M  V30 42632 H 4185.55 4.6732 -2.59838 0
M  V30 42633 H 4185.9 4.03923 -1.00755 0
M  V30 42634 H 4186.43 3.1366 -2.44668 0
M  V30 42635 H 4183.17 3.74087 -5.38274 0
M  V30 42636 H 4182.69 4.57028 -3.8844 0
M  V30 42637 H 4184.37 4.67875 -4.4688 0
M  V30 42638 N 4184.5 1.12561 1.10308 0
M  V30 42639 C 4185.73 0.903301 1.85806 0
M  V30 42640 C 4186.14 -0.550971 1.81 0
M  V30 42641 O 4185.48 -1.39275 1.19784 0
M  V30 42642 C 4185.54 1.30171 3.35106 0
M  V30 42643 C 4185.21 2.76755 3.6367 0
M  V30 42644 C 4186.21 3.74943 3.60158 0
M  V30 42645 C 4183.89 3.13693 3.92304 0
M  V30 42646 C 4185.88 5.08083 3.84877 0
M  V30 42647 C 4183.57 4.47015 4.16678 0
M  V30 42648 C 4184.57 5.44019 4.12955 0
M  V30 42649 O 4184.26 6.74938 4.36709 0
M  V30 42650 H 4183.99 0.322612 0.594052 0
M  V30 42651 H 4186.54 1.49968 1.40352 0
M  V30 42652 H 4184.77 0.64854 3.81223 0
M  V30 42653 H 4186.46 1.05332 3.91995 0
M  V30 42654 H 4187.23 3.47751 3.38074 0
M  V30 42655 H 4183.11 2.38797 3.94331 0
M  V30 42656 H 4186.65 5.83788 3.81886 0
M  V30 42657 H 4182.55 4.73935 4.38242 0
M  V30 42658 H 4183.32 6.80903 4.54217 0
M  V30 42659 N 4185.98 -1.28124 0.917717 0
M  V30 42660 C 4187.2 -1.99462 0.568305 0
M  V30 42661 C 4187.63 -1.68091 -0.844216 0
M  V30 42662 O 4186.99 -0.915531 -1.56486 0
M  V30 42663 C 4187.04 -3.51864 0.788921 0
M  V30 42664 O 4186.14 -4.12126 -0.150228 0
M  V30 42665 H 4185.48 -0.626527 0.21991 0
M  V30 42666 H 4188.01 -1.6318 1.23424 0
M  V30 42667 H 4188.02 -4.0194 0.700572 0
M  V30 42668 H 4186.7 -3.74031 1.81862 0
M  V30 42669 H 4185.27 -3.72898 -0.0128125 0
M  V30 42670 N 4187.46 -0.682127 -1.42073 0
M  V30 42671 C 4188.71 -0.207032 -2.01037 0
M  V30 42672 C 4189.03 1.19308 -1.54242 0
M  V30 42673 O 4188.3 1.80251 -0.767229 0
M  V30 42674 H 4186.88 -0.0735501 -0.74337 0
M  V30 42675 H 4189.54 -0.880277 -1.73888 0
M  V30 42676 H 4188.63 -0.213996 -3.11365 0
M  V30 42677 N 4188.94 1.51735 -0.425951 0
M  V30 42678 C 4190.16 2.06887 0.14573 0
M  V30 42679 C 4190.59 1.29241 1.36669 0
M  V30 42680 O 4189.94 0.327208 1.78323 0
M  V30 42681 C 4189.99 3.57681 0.457888 0
M  V30 42682 O 4189.1 3.82316 1.54622 0
M  V30 42683 H 4188.44 0.663965 0.00685452 0
M  V30 42684 H 4190.97 1.95481 -0.604002 0
M  V30 42685 H 4190.98 4.01745 0.71166 0
M  V30 42686 H 4189.65 4.13624 -0.434556 0
M  V30 42687 H 4188.23 3.50123 1.2833 0
M  V30 42688 N 4190.41 0.156919 1.56817 0
M  V30 42689 C 4191.32 -0.791791 2.20834 0
M  V30 42690 C 4192.34 -1.26417 1.1956 0
M  V30 42691 O 4193.52 -1.3193 1.52173 0
M  V30 42692 C 4190.58 -2.00956 2.8252 0
M  V30 42693 C 4189.64 -1.58545 3.98951 0
M  V30 42694 C 4188.87 -2.74517 4.57686 0
M  V30 42695 O 4189.1 -3.91 4.15302 0
M  V30 42696 O 4188.03 -2.49418 5.4779 0
M  V30 42697 H 4191.86 -0.276793 3.02436 0
M  V30 42698 H 4189.44 -0.0705905 1.49233 0
M  V30 42699 H 4191.32 -2.72203 3.21688 0
M  V30 42700 H 4190 -2.51389 2.03925 0
M  V30 42701 H 4188.91 -0.842906 3.6448 0
M  V30 42702 H 4190.24 -1.12818 4.79096 0
M  V30 42703 N 4191.89 -1.57166 -0.116849 0
M  V30 42704 C 4192.85 -1.9956 -1.12731 0
M  V30 42705 C 4193.85 -0.88604 -1.34186 0
M  V30 42706 O 4195.04 -1.15203 -1.30667 0
M  V30 42707 C 4192.18 -2.3376 -2.48131 0
M  V30 42708 H 4193.37 -2.90034 -0.762897 0
M  V30 42709 H 4190.92 -1.52069 -0.361213 0
M  V30 42710 H 4191.66 -1.46173 -2.89489 0
M  V30 42711 H 4191.44 -3.14686 -2.33912 0
M  V30 42712 H 4192.93 -2.67292 -3.2085 0
M  V30 42713 N 4193.37 0.38709 -1.52772 0
M  V30 42714 C 4194.59 1.1576 -1.72088 0
M  V30 42715 C 4195.02 1.82902 -0.439152 0
M  V30 42716 O 4194.38 1.709 0.605224 0
M  V30 42717 C 4194.43 2.17987 -2.87252 0
M  V30 42718 O 4193.53 3.24616 -2.54359 0
M  V30 42719 H 4192.87 0.336908 -0.572179 0
M  V30 42720 H 4195.4 0.450798 -1.99572 0
M  V30 42721 H 4195.41 2.61952 -3.12802 0
M  V30 42722 H 4194.09 1.68506 -3.80235 0
M  V30 42723 H 4192.66 2.85775 -2.39556 0
M  V30 42724 N 4194.85 1.43768 0.645648 0
M  V30 42725 C 4196.1 1.45497 1.40267 0
M  V30 42726 C 4196.42 0.0832366 1.94822 0
M  V30 42727 O 4195.69 -0.882488 1.74897 0
M  V30 42728 H 4194.27 0.535708 0.520602 0
M  V30 42729 H 4196.93 1.79431 0.760947 0
M  V30 42730 H 4196.02 2.17196 2.24125 0
M  V30 42731 N 4196.33 -0.884721 1.30424 0
M  V30 42732 C 4197.28 -1.97777 1.13438 0
M  V30 42733 C 4198.26 -1.60824 0.0494765 0
M  V30 42734 O 4199.45 -1.74885 0.272824 0
M  V30 42735 C 4196.58 -3.33152 0.828548 0
M  V30 42736 C 4195.67 -3.76418 1.95372 0
M  V30 42737 N 4196.06 -3.9178 3.1991 0
M  V30 42738 C 4194.36 -4.05815 1.85014 0
M  V30 42739 C 4195.06 -4.28485 3.93415 0
M  V30 42740 N 4194.03 -4.3836 3.21468 0
M  V30 42741 H 4197.83 -2.07745 2.07893 0
M  V30 42742 H 4195.35 -1.07455 1.21767 0
M  V30 42743 H 4197.35 -4.11186 0.687871 0
M  V30 42744 H 4196.01 -3.24521 -0.107928 0
M  V30 42745 H 4197.02 -3.76904 3.55196 0
M  V30 42746 H 4193.69 -4.05657 0.987358 0
M  V30 42747 H 4195.08 -4.48091 5.00664 0
M  V30 42748 N 4197.8 -1.13144 -1.09709 0
M  V30 42749 C 4199.03 -0.914468 -1.85594 0
M  V30 42750 C 4199.45 0.5366 -1.81014 0
M  V30 42751 O 4198.8 1.37131 -1.20421 0
M  V30 42752 C 4198.85 -1.39045 -3.3369 0
M  V30 42753 O 4198.58 -2.78465 -3.38214 0
M  V30 42754 C 4200.08 -1.21149 -4.26424 0
M  V30 42755 H 4197.3 -0.326284 -0.586327 0
M  V30 42756 H 4199.84 -1.50328 -1.38643 0
M  V30 42757 H 4198 -0.844707 -3.78079 0
M  V30 42758 H 4198.41 -2.99527 -4.30562 0
M  V30 42759 H 4199.88 -1.59332 -5.28505 0
M  V30 42760 H 4200.36 -0.152859 -4.38934 0
M  V30 42761 H 4200.97 -1.74511 -3.87848 0
M  V30 42762 N 4199.28 1.27635 -0.924498 0
M  V30 42763 C 4200.19 2.30688 -0.42662 0
M  V30 42764 C 4201.21 1.66926 0.491105 0
M  V30 42765 O 4202.38 1.97884 0.374689 0
M  V30 42766 C 4199.45 3.45261 0.31552 0
M  V30 42767 C 4198.51 4.24552 -0.63673 0
M  V30 42768 C 4197.74 5.33654 0.0700869 0
M  V30 42769 O 4197.97 5.55621 1.29001 0
M  V30 42770 O 4196.9 5.98901 -0.600103 0
M  V30 42771 H 4200.73 2.75305 -1.28221 0
M  V30 42772 H 4198.31 1.32526 -0.689722 0
M  V30 42773 H 4200.19 4.14954 0.734242 0
M  V30 42774 H 4198.87 3.02706 1.14677 0
M  V30 42775 H 4197.78 3.57406 -1.10507 0
M  V30 42776 H 4199.11 4.70814 -1.43511 0
M  V30 42777 N 4200.76 0.689652 1.41709 0
M  V30 42778 C 4202.01 0.215254 2.00548 0
M  V30 42779 C 4202.32 -1.19008 1.5523 0
M  V30 42780 O 4203.53 -1.76164 2.06588 0
M  V30 42781 C 4201.98 0.333951 3.58347 0
M  V30 42782 C 4201.59 1.74428 4.12649 0
M  V30 42783 C 4203.34 -0.080974 4.24423 0
M  V30 42784 C 4201.24 1.81495 5.62862 0
M  V30 42785 H 4200.17 0.0767175 0.750087 0
M  V30 42786 H 4202.82 0.856991 1.62259 0
M  V30 42787 H 4201.21 -0.375935 3.94212 0
M  V30 42788 H 4202.38 2.48245 3.88215 0
M  V30 42789 H 4200.7 2.10836 3.59078 0
M  V30 42790 H 4203.29 -0.0485304 5.34678 0
M  V30 42791 H 4203.64 -1.11873 4.00986 0
M  V30 42792 H 4204.17 0.578427 3.93572 0
M  V30 42793 H 4200.91 2.83303 5.91117 0
M  V30 42794 H 4200.43 1.12054 5.8924 0
M  V30 42795 H 4202.11 1.57514 6.27534 0
M  V30 42796 N 4202.24 -1.51507 0.433991 0
M  V30 42797 C 4203.65 -1.86676 -0.029908 0
M  V30 42798 C 4204 -1.35135 -1.42243 0
M  V30 42799 O 4203.13 -0.700771 -2.04739 0
M  V30 42800 C 4203.72 -3.38745 -0.0610484 0
M  V30 42801 C 4202.28 -3.73462 -0.46935 0
M  V30 42802 C 4201.43 -2.75206 0.340165 0
M  V30 42803 H 4204.38 -1.44779 0.649984 0
M  V30 42804 H 4204.4 -3.70391 -0.871233 0
M  V30 42805 H 4203.91 -3.76228 0.952577 0
M  V30 42806 H 4202.01 -3.41568 -1.4887 0
M  V30 42807 H 4202.12 -4.78697 -0.196472 0
M  V30 42808 H 4200.49 -2.53905 -0.201055 0
M  V30 42809 H 4201.27 -3.15531 1.3526 0
M  V30 42810 N 4203.72 -0.165233 -1.56731 0
M  V30 42811 C 4204.65 0.798748 -2.14832 0
M  V30 42812 C 4205.66 1.19801 -1.10234 0
M  V30 42813 O 4206.85 1.13892 -1.37444 0
M  V30 42814 C 4203.95 2.08578 -2.67111 0
M  V30 42815 C 4203.12 1.85103 -3.96302 0
M  V30 42816 C 4202.18 2.97967 -4.33707 0
M  V30 42817 O 4201.21 2.68866 -5.01697 0
M  V30 42818 N 4202.41 4.25602 -3.9477 0
M  V30 42819 H 4205.18 0.302074 -2.98174 0
M  V30 42820 H 4202.74 0.0177498 -1.6189 0
M  V30 42821 H 4204.73 2.83165 -2.89136 0
M  V30 42822 H 4203.3 2.49454 -1.88392 0
M  V30 42823 H 4202.52 0.944541 -3.82717 0
M  V30 42824 H 4203.81 1.6678 -4.80689 0
M  V30 42825 H 4203.2 4.52108 -3.40022 0
M  V30 42826 H 4201.76 4.96911 -4.21809 0
M  V30 42827 N 4205.19 1.57226 0.108512 0
M  V30 42828 C 4206.61 1.74474 0.664518 0
M  V30 42829 C 4206.96 0.785469 1.79791 0
M  V30 42830 O 4206.08 -0.0391901 2.16365 0
M  V30 42831 C 4206.68 3.16371 1.21222 0
M  V30 42832 C 4205.24 3.35089 1.71441 0
M  V30 42833 C 4204.38 2.70316 0.618423 0
M  V30 42834 H 4207.33 1.58265 -0.117478 0
M  V30 42835 H 4207.35 3.18502 2.08175 0
M  V30 42836 H 4206.87 3.86165 0.387096 0
M  V30 42837 H 4204.97 2.70354 2.56397 0
M  V30 42838 H 4205.08 4.43323 1.81664 0
M  V30 42839 H 4203.44 2.31841 1.0546 0
M  V30 42840 H 4204.23 3.42741 -0.195893 0
M  V30 42841 N 4206.67 -0.378982 1.52975 0
M  V30 42842 C 4207.9 -1.14846 1.727 0
M  V30 42843 C 4208.32 -1.82666 0.448846 0
M  V30 42844 O 4207.68 -1.71218 -0.596152 0
M  V30 42845 C 4207.73 -2.16461 2.88404 0
M  V30 42846 O 4206.83 -3.23262 2.56077 0
M  V30 42847 H 4206.17 -0.333868 0.573958 0
M  V30 42848 H 4208.7 -0.440208 1.99808 0
M  V30 42849 H 4208.71 -2.60289 3.14187 0
M  V30 42850 H 4207.39 -1.66487 3.81123 0
M  V30 42851 H 4205.97 -2.84501 2.41068 0
M  V30 42852 N 4208.15 -1.44108 -0.638015 0
M  V30 42853 C 4209.11 -1.50095 -1.73217 0
M  V30 42854 C 4210.11 -0.38379 -1.56153 0
M  V30 42855 O 4211.3 -0.646146 -1.61773 0
M  V30 42856 C 4208.44 -1.36824 -3.12237 0
M  V30 42857 H 4209.63 -2.47553 -1.69285 0
M  V30 42858 H 4207.18 -1.31098 -0.851056 0
M  V30 42859 H 4207.92 -0.404325 -3.2177 0
M  V30 42860 H 4207.7 -2.17824 -3.26029 0
M  V30 42861 H 4209.19 -1.43979 -3.91995 0
M  V30 42862 N 4209.63 0.877792 -1.30891 0
M  V30 42863 C 4210.56 2.00027 -1.20463 0
M  V30 42864 C 4211.54 1.69842 -0.0936063 0
M  V30 42865 O 4212.72 1.92216 -0.276872 0
M  V30 42866 C 4209.85 3.35353 -0.9031 0
M  V30 42867 C 4208.81 3.7982 -1.97284 0
M  V30 42868 C 4208.13 5.12517 -1.52416 0
M  V30 42869 C 4209.43 3.9777 -3.38491 0
M  V30 42870 H 4211.13 2.09011 -2.14371 0
M  V30 42871 H 4208.67 1.00423 -1.03205 0
M  V30 42872 H 4210.63 4.13409 -0.816772 0
M  V30 42873 H 4209.35 3.26521 0.0716569 0
M  V30 42874 H 4208.01 3.03998 -2.04893 0
M  V30 42875 H 4207.66 5.0012 -0.537474 0
M  V30 42876 H 4207.36 5.4324 -2.23974 0
M  V30 42877 H 4208.88 5.93091 -1.45176 0
M  V30 42878 H 4210.3 4.66244 -3.33601 0
M  V30 42879 H 4208.69 4.3988 -4.08198 0
M  V30 42880 H 4209.76 3.01397 -3.79853 0
M  V30 42881 N 4211.11 1.13725 1.09108 0
M  V30 42882 C 4212.52 0.913242 1.6284 0
M  V30 42883 C 4212.87 -0.549533 1.88347 0
M  V30 42884 O 4211.99 -1.41693 1.6356 0
M  V30 42885 C 4212.59 1.65132 2.95832 0
M  V30 42886 C 4211.15 1.4731 3.46377 0
M  V30 42887 C 4210.29 1.67843 2.20735 0
M  V30 42888 H 4213.25 1.29007 0.924274 0
M  V30 42889 H 4213.27 1.11032 3.6394 0
M  V30 42890 H 4212.78 2.71592 2.77236 0
M  V30 42891 H 4210.88 0.43167 3.70091 0
M  V30 42892 H 4210.99 2.23833 4.23599 0
M  V30 42893 H 4209.36 1.10353 2.29552 0
M  V30 42894 H 4210.14 2.75629 2.04654 0
M  V30 42895 N 4212.58 -1.27143 0.931254 0
M  V30 42896 C 4213.83 -1.93824 0.572428 0
M  V30 42897 C 4214.15 -1.73516 -0.889779 0
M  V30 42898 O 4213.42 -1.08497 -1.63111 0
M  V30 42899 H 4212 -0.71725 0.208713 0
M  V30 42900 H 4214.67 -1.54782 1.18442 0
M  V30 42901 H 4213.76 -3.02151 0.781732 0
M  V30 42902 N 4214.06 -0.697157 -1.41342 0
M  V30 42903 C 4215.31 -0.225887 -2.00431 0
M  V30 42904 C 4215.63 1.18183 -1.55859 0
M  V30 42905 O 4216.83 1.75066 -2.07519 0
M  V30 42906 C 4215.29 -0.352951 -3.58165 0
M  V30 42907 C 4214.9 -1.76614 -4.11718 0
M  V30 42908 C 4216.64 0.0584647 -4.2446 0
M  V30 42909 C 4214.55 -1.84477 -5.61892 0
M  V30 42910 H 4213.48 -0.0806943 -0.74967 0
M  V30 42911 H 4216.13 -0.865584 -1.61802 0
M  V30 42912 H 4214.51 0.355024 -3.94405 0
M  V30 42913 H 4215.68 -2.503 -3.86893 0
M  V30 42914 H 4214 -2.12737 -3.57955 0
M  V30 42915 H 4216.6 0.0201744 -5.34696 0
M  V30 42916 H 4216.94 1.09745 -4.01574 0
M  V30 42917 H 4217.47 -0.59929 -3.9326 0
M  V30 42918 H 4214.21 -2.86434 -5.89607 0
M  V30 42919 H 4213.73 -1.15178 -5.88638 0
M  V30 42920 H 4215.41 -1.60839 -6.26689 0
M  V30 42921 N 4215.54 1.51274 -0.44202 0
M  V30 42922 C 4216.82 1.94742 0.183042 0
M  V30 42923 C 4217.2 1.38094 1.59666 0
M  V30 42924 O 4216.55 0.569921 2.21278 0
M  V30 42925 C 4216.76 3.48651 0.156009 0
M  V30 42926 C 4218.1 4.23077 0.359277 0
M  V30 42927 O 4219.13 3.55431 0.233914 0
M  V30 42928 O 4217.99 5.43093 0.609263 0
M  V30 42929 H 4215.08 0.817122 0.127441 0
M  V30 42930 H 4217.63 1.62157 -0.500336 0
M  V30 42931 H 4216.4 3.82351 -0.832088 0
M  V30 42932 H 4216.02 3.87692 0.882096 0
M  V30 42933 N 4217.02 0.173543 1.56642 0
M  V30 42934 C 4218.27 -0.471536 1.97242 0
M  V30 42935 C 4218.6 -1.62745 1.05961 0
M  V30 42936 O 4217.87 -1.94204 0.107185 0
M  V30 42937 C 4218.16 -0.952378 3.47278 0
M  V30 42938 C 4218.01 0.203868 4.49338 0
M  V30 42939 C 4219.33 -1.82528 4.00464 0
M  V30 42940 H 4216.45 -0.169928 0.717143 0
M  V30 42941 H 4219.09 0.260126 1.88211 0
M  V30 42942 H 4217.24 -1.57585 3.55105 0
M  V30 42943 H 4218.91 0.841016 4.53569 0
M  V30 42944 H 4217.15 0.85902 4.2521 0
M  V30 42945 H 4217.83 -0.174736 5.51723 0
M  V30 42946 H 4220.3 -1.29967 3.95282 0
M  V30 42947 H 4219.18 -2.13074 5.05856 0
M  V30 42948 H 4219.44 -2.77184 3.44414 0
M  V30 42949 N 4218.5 -1.57281 -0.100172 0
M  V30 42950 C 4219.75 -1.85462 -0.803001 0
M  V30 42951 C 4220.07 -0.761507 -1.79516 0
M  V30 42952 O 4219.34 0.212734 -1.94742 0
M  V30 42953 H 4217.92 -0.684312 -0.299544 0
M  V30 42954 H 4220.58 -1.94723 -0.0830102 0
M  V30 42955 H 4219.67 -2.82026 -1.33671 0
M  V30 42956 N 4219.98 0.370864 -1.53174 0
M  V30 42957 C 4221.2 1.13929 -1.73306 0
M  V30 42958 C 4221.63 1.82426 -0.458527 0
M  V30 42959 O 4220.98 1.71532 0.587064 0
M  V30 42960 C 4221.03 2.14928 -2.89548 0
M  V30 42961 O 4220.14 3.21899 -2.57788 0
M  V30 42962 H 4219.48 0.33082 -0.575721 0
M  V30 42963 H 4222.01 0.429606 -2.00039 0
M  V30 42964 H 4222.02 2.58619 -3.15563 0
M  V30 42965 H 4220.69 1.64464 -3.82001 0
M  V30 42966 H 4219.27 2.83218 -2.42573 0
M  V30 42967 N 4221.45 1.44444 0.630363 0
M  V30 42968 C 4222.68 1.50974 1.42203 0
M  V30 42969 C 4223.1 0.135887 1.87609 0
M  V30 42970 O 4222.46 -0.875072 1.58783 0
M  V30 42971 C 4222.51 2.47982 2.61797 0
M  V30 42972 O 4221.61 1.98187 3.61657 0
M  V30 42973 H 4220.95 0.509779 0.425466 0
M  V30 42974 H 4223.48 1.89585 0.769326 0
M  V30 42975 H 4223.49 2.66043 3.09331 0
M  V30 42976 H 4222.17 3.47773 2.28094 0
M  V30 42977 H 4220.75 1.89897 3.20926 0
M  V30 42978 N 4222.93 -0.870838 1.31355 0
M  V30 42979 C 4224.18 -1.62621 1.2117 0
M  V30 42980 C 4224.51 -1.92835 -0.229856 0
M  V30 42981 O 4223.79 -1.55933 -1.16254 0
M  V30 42982 C 4224.07 -2.95699 2.0551 0
M  V30 42983 C 4223.92 -2.72369 3.5796 0
M  V30 42984 C 4225.24 -3.96791 1.90382 0
M  V30 42985 H 4222.36 -0.590104 0.441528 0
M  V30 42986 H 4225 -1.00673 1.61136 0
M  V30 42987 H 4223.15 -3.4857 1.71555 0
M  V30 42988 H 4224.82 -2.26176 4.02047 0
M  V30 42989 H 4223.07 -2.06616 3.81434 0
M  V30 42990 H 4223.74 -3.67056 4.12279 0
M  V30 42991 H 4226.21 -3.53125 2.20096 0
M  V30 42992 H 4225.09 -4.87791 2.51697 0
M  V30 42993 H 4225.35 -4.33518 0.866881 0
M  V30 42994 N 4224.41 -1.14302 -1.08503 0
M  V30 42995 C 4225.34 -0.772662 -2.14721 0
M  V30 42996 C 4226.32 0.24553 -1.60736 0
M  V30 42997 O 4227.5 0.134818 -1.88017 0
M  V30 42998 C 4224.63 -0.147009 -3.38381 0
M  V30 42999 C 4223.68 -1.13522 -4.11114 0
M  V30 43000 S 4224.51 -2.67202 -4.64073 0
M  V30 43001 C 4225.67 -2.06023 -5.9102 0
M  V30 43002 H 4225.9 -1.67234 -2.45805 0
M  V30 43003 H 4223.43 -0.964139 -1.20597 0
M  V30 43004 H 4225.39 0.207552 -4.09975 0
M  V30 43005 H 4224.05 0.730084 -3.05497 0
M  V30 43006 H 4223.24 -0.645447 -4.9985 0
M  V30 43007 H 4222.85 -1.43372 -3.45428 0
M  V30 43008 H 4225.14 -1.41508 -6.62557 0
M  V30 43009 H 4226.08 -2.92879 -6.44692 0
M  V30 43010 H 4226.49 -1.50797 -5.43986 0
M  V30 43011 N 4225.89 1.26648 -0.937984 0
M  V30 43012 C 4227.11 1.98533 -0.599965 0
M  V30 43013 C 4227.54 1.69413 0.817367 0
M  V30 43014 O 4226.9 0.940311 1.55009 0
M  V30 43015 C 4226.94 3.50565 -0.8448 0
M  V30 43016 O 4226.05 4.12313 0.0846437 0
M  V30 43017 H 4225.39 0.622949 -0.22985 0
M  V30 43018 H 4227.92 1.61196 -1.26004 0
M  V30 43019 H 4227.93 4.00775 -0.764429 0
M  V30 43020 H 4226.6 3.7109 -1.87789 0
M  V30 43021 H 4225.18 3.72871 -0.046514 0
M  V30 43022 N 4227.37 0.704643 1.4097 0
M  V30 43023 C 4228.78 0.313159 1.84055 0
M  V30 43024 C 4229.13 -1.1503 1.58942 0
M  V30 43025 O 4228.25 -1.88403 1.06458 0
M  V30 43026 C 4228.85 0.5616 3.34113 0
M  V30 43027 C 4227.41 0.223939 3.75733 0
M  V30 43028 C 4226.55 0.839403 2.6429 0
M  V30 43029 H 4229.5 0.904622 1.30393 0
M  V30 43030 H 4229.53 -0.176754 3.80089 0
M  V30 43031 H 4229.04 1.6268 3.52359 0
M  V30 43032 H 4227.14 -0.836632 3.63086 0
M  V30 43033 H 4227.25 0.685295 4.74174 0
M  V30 43034 H 4225.62 0.268287 2.53283 0
M  V30 43035 H 4226.4 1.90865 2.85352 0
M  V30 43036 N 4228.84 -1.51038 0.450036 0
M  V30 43037 C 4229.78 -2.25841 -0.390958 0
M  V30 43038 C 4230.79 -1.30346 -0.975383 0
M  V30 43039 O 4231.98 -1.5601 -0.867364 0
M  V30 43040 C 4229.08 -3.0085 -1.5602 0
M  V30 43041 C 4228.25 -4.2354 -1.09237 0
M  V30 43042 C 4227.31 -4.81021 -2.1332 0
M  V30 43043 O 4226.34 -5.42516 -1.72237 0
M  V30 43044 N 4227.54 -4.66166 -3.45933 0
M  V30 43045 H 4230.3 -2.98654 0.250217 0
M  V30 43046 H 4227.86 -1.59467 0.279627 0
M  V30 43047 H 4229.86 -3.36189 -2.25298 0
M  V30 43048 H 4228.43 -2.30969 -2.10647 0
M  V30 43049 H 4227.65 -3.9355 -0.226199 0
M  V30 43050 H 4228.93 -5.03131 -0.75739 0
M  V30 43051 H 4228.33 -4.17212 -3.82035 0
M  V30 43052 H 4226.89 -5.05831 -4.11069 0
M  V30 43053 N 4230.32 -0.181847 -1.56547 0
M  V30 43054 C 4231.6 0.507304 -1.88907 0
M  V30 43055 C 4231.98 1.80579 -1.09337 0
M  V30 43056 O 4231.33 2.27705 -0.190437 0
M  V30 43057 C 4231.54 0.73898 -3.41087 0
M  V30 43058 C 4232.89 1.06428 -4.11045 0
M  V30 43059 O 4233.91 0.82716 -3.46463 0
M  V30 43060 O 4232.77 1.51216 -5.25163 0
M  V30 43061 H 4229.86 0.26278 -0.78414 0
M  V30 43062 H 4232.41 -0.221071 -1.68254 0
M  V30 43063 H 4231.18 -0.178539 -3.90892 0
M  V30 43064 H 4230.8 1.52029 -3.67387 0
M  V30 43065 N 4231.8 1.57332 0.09183 0
M  V30 43066 C 4233.03 1.90842 0.812047 0
M  V30 43067 C 4233.45 0.776424 1.71328 0
M  V30 43068 O 4232.81 -0.271836 1.79251 0
M  V30 43069 C 4232.86 3.23228 1.59862 0
M  V30 43070 O 4231.96 3.11048 2.70781 0
M  V30 43071 H 4231.3 0.625478 0.222875 0
M  V30 43072 H 4233.83 2.04493 0.0660759 0
M  V30 43073 H 4233.84 3.56616 1.98214 0
M  V30 43074 H 4232.52 4.05202 0.937225 0
M  V30 43075 H 4231.09 2.89181 2.35433 0
M  V30 43076 N 4233.28 -0.362736 1.53369 0
M  V30 43077 C 4234.53 -1.10508 1.69689 0
M  V30 43078 C 4234.85 -1.89219 0.45014 0
M  V30 43079 O 4234.11 -1.87278 -0.567944 0
M  V30 43080 C 4234.41 -2.08895 2.89996 0
M  V30 43081 C 4234.07 -1.46642 4.26388 0
M  V30 43082 C 4232.74 -1.29392 4.63477 0
M  V30 43083 C 4235.09 -1.01627 5.11196 0
M  V30 43084 C 4232.42 -0.657156 5.83008 0
M  V30 43085 C 4234.77 -0.393504 6.31375 0
M  V30 43086 C 4233.43 -0.208523 6.67174 0
M  V30 43087 H 4232.7 -0.404376 0.620935 0
M  V30 43088 H 4235.35 -0.386539 1.87558 0
M  V30 43089 H 4233.65 -2.87062 2.66651 0
M  V30 43090 H 4235.35 -2.66291 2.99817 0
M  V30 43091 H 4231.94 -1.61062 3.97186 0
M  V30 43092 H 4236.12 -1.13747 4.83089 0
M  V30 43093 H 4231.38 -0.502276 6.09333 0
M  V30 43094 H 4235.55 -0.0365223 6.9639 0
M  V30 43095 H 4233.18 0.286949 7.59658 0
M  V30 43096 N 4234.76 -1.44777 -0.622694 0
M  V30 43097 C 4235.7 -1.52291 -1.73424 0
M  V30 43098 C 4236.67 -0.369945 -1.61928 0
M  V30 43099 O 4237.86 -0.58134 -1.81728 0
M  V30 43100 C 4235 -1.48117 -3.11697 0
M  V30 43101 C 4234.11 -2.73852 -3.34109 0
M  V30 43102 C 4233.25 -2.61453 -4.62402 0
M  V30 43103 C 4232.29 -3.82312 -4.78021 0
M  V30 43104 N 4231.42 -3.68539 -5.97598 0
M  V30 43105 H 4236.26 -2.47257 -1.66337 0
M  V30 43106 H 4233.8 -1.22705 -0.811289 0
M  V30 43107 H 4235.76 -1.43687 -3.91676 0
M  V30 43108 H 4234.39 -0.567132 -3.17779 0
M  V30 43109 H 4233.44 -2.88434 -2.48012 0
M  V30 43110 H 4234.75 -3.63539 -3.41527 0
M  V30 43111 H 4233.91 -2.54904 -5.50553 0
M  V30 43112 H 4232.64 -1.69341 -4.57357 0
M  V30 43113 H 4231.65 -3.89237 -3.88297 0
M  V30 43114 H 4232.87 -4.75472 -4.84874 0
M  V30 43115 H 4230.82 -2.79184 -5.93627 0
M  V30 43116 H 4230.74 -4.51848 -6.0611 0
M  V30 43117 H 4232.01 -3.65895 -6.88288 0
M  V30 43118 N 4236.23 0.863859 -1.31815 0
M  V30 43119 C 4237.14 2.0041 -1.21955 0
M  V30 43120 C 4238.16 1.73475 -0.135 0
M  V30 43121 O 4239.34 1.98265 -0.353954 0
M  V30 43122 C 4236.4 3.33892 -0.933658 0
M  V30 43123 C 4235.46 3.74109 -2.10572 0
M  V30 43124 C 4234.7 5.01221 -1.83338 0
M  V30 43125 O 4234.92 5.65159 -0.771459 0
M  V30 43126 O 4233.85 5.38351 -2.69187 0
M  V30 43127 H 4237.68 2.11663 -2.1779 0
M  V30 43128 H 4235.26 0.993106 -1.11614 0
M  V30 43129 H 4237.15 4.13923 -0.790324 0
M  V30 43130 H 4235.82 3.237 -0.00538803 0
M  V30 43131 H 4234.73 2.94694 -2.30448 0
M  V30 43132 H 4236.06 3.88935 -3.01646 0
M  V30 43133 N 4237.71 1.14875 1.07895 0
M  V30 43134 C 4238.96 0.914768 1.79763 0
M  V30 43135 C 4239.27 -0.559846 1.87417 0
M  V30 43136 O 4240.48 -0.911249 2.55751 0
M  V30 43137 C 4238.94 1.58719 3.23011 0
M  V30 43138 C 4238.54 3.09843 3.23576 0
M  V30 43139 C 4240.29 1.43453 3.99527 0
M  V30 43140 C 4238.2 3.69897 4.61444 0
M  V30 43141 H 4237.13 0.338597 0.673698 0
M  V30 43142 H 4239.78 1.37826 1.21145 0
M  V30 43143 H 4238.16 1.05137 3.81788 0
M  V30 43144 H 4239.33 3.70135 2.74476 0
M  V30 43145 H 4237.65 3.24806 2.60557 0
M  V30 43146 H 4240.24 1.85717 5.01411 0
M  V30 43147 H 4240.59 0.381299 4.1455 0
M  V30 43148 H 4241.12 1.941 3.47232 0
M  V30 43149 H 4237.86 4.75096 4.51624 0
M  V30 43150 H 4237.38 3.14387 5.10804 0
M  V30 43151 H 4239.06 3.70497 5.30416 0
M  V30 43152 N 4239.19 -1.26148 0.944687 0
M  V30 43153 C 4240.14 -2.23949 0.42786 0
M  V30 43154 C 4241.12 -1.53655 -0.477371 0
M  V30 43155 O 4242.32 -1.74228 -0.312045 0
M  V30 43156 C 4239.45 -3.41965 -0.302476 0
M  V30 43157 C 4238.53 -4.1954 0.620249 0
M  V30 43158 N 4238.92 -4.74651 1.74757 0
M  V30 43159 C 4237.22 -4.43956 0.426513 0
M  V30 43160 C 4237.92 -5.33309 2.32286 0
M  V30 43161 N 4236.9 -5.19196 1.61048 0
M  V30 43162 H 4240.7 -2.64157 1.28835 0
M  V30 43163 H 4238.21 -1.41273 0.800975 0
M  V30 43164 H 4240.21 -4.11154 -0.689796 0
M  V30 43165 H 4238.87 -3.03284 -1.15969 0
M  V30 43166 H 4239.88 -4.72088 2.12964 0
M  V30 43167 H 4236.56 -4.15687 -0.388642 0
M  V30 43168 H 4237.95 -5.86798 3.27289 0
M  V30 43169 N 4240.67 -0.712109 -1.40594 0
M  V30 43170 C 4241.91 -0.250493 -2.01247 0
M  V30 43171 C 4242.25 1.15221 -1.56326 0
M  V30 43172 O 4241.52 1.78097 -0.781765 0
M  V30 43173 C 4241.81 -0.326642 -3.58615 0
M  V30 43174 C 4241.66 -1.76747 -4.13619 0
M  V30 43175 C 4242.98 0.304159 -4.39048 0
M  V30 43176 H 4240.1 -0.0924947 -0.731173 0
M  V30 43177 H 4242.74 -0.903953 -1.67119 0
M  V30 43178 H 4240.89 0.229728 -3.8782 0
M  V30 43179 H 4242.56 -2.37896 -3.95225 0
M  V30 43180 H 4240.8 -2.29632 -3.68038 0
M  V30 43181 H 4241.47 -1.77217 -5.22779 0
M  V30 43182 H 4243.95 -0.169861 -4.15753 0
M  V30 43183 H 4242.83 0.220415 -5.48457 0
M  V30 43184 H 4243.09 1.3872 -4.19773 0
M  V30 43185 N 4242.15 1.50797 -0.45804 0
M  V30 43186 C 4243.09 2.29843 0.357043 0
M  V30 43187 C 4244.09 1.36569 1.00226 0
M  V30 43188 O 4245.29 1.53819 0.934861 0
M  V30 43189 H 4241.67 0.73997 0.133972 0
M  V30 43190 H 4243.64 2.96567 -0.330218 0
M  V30 43191 C 4242.39 3.16752 1.43399 0
M  V30 43192 H 4241.71 3.88425 0.946879 0
M  V30 43193 H 4243.15 3.7508 1.97714 0
M  V30 43194 C 4241.61 2.33482 2.42874 0
M  V30 43195 O 4242.14 2.0088 3.47865 0
M  V30 43196 N 4240.35 1.9631 2.14268 0
M  V30 43197 H 4239.89 2.23022 1.28914 0
M  V30 43198 H 4239.85 1.40896 2.81062 0
M  V30 43199 N 4243.63 0.190147 1.56449 0
M  V30 43200 C 4244.87 -0.450111 1.96614 0
M  V30 43201 C 4245.19 -1.63102 1.07968 0
M  V30 43202 O 4246.39 -2.33875 1.37894 0
M  V30 43203 C 4244.85 -0.852184 3.49665 0
M  V30 43204 C 4244.46 0.304165 4.46966 0
M  V30 43205 C 4246.2 -1.4598 3.9861 0
M  V30 43206 C 4244.11 -0.118591 5.91281 0
M  V30 43207 H 4243.04 -0.171935 0.734135 0
M  V30 43208 H 4245.69 0.281377 1.8133 0
M  V30 43209 H 4244.07 -1.6402 3.60435 0
M  V30 43210 H 4245.25 1.08166 4.47925 0
M  V30 43211 H 4243.56 0.822958 4.08187 0
M  V30 43212 H 4246.16 -1.78847 5.03903 0
M  V30 43213 H 4246.5 -2.36452 3.42631 0
M  V30 43214 H 4247.03 -0.73586 3.90935 0
M  V30 43215 H 4243.77 0.751814 6.51174 0
M  V30 43216 H 4243.29 -0.86105 5.93587 0
M  V30 43217 H 4244.97 -0.556082 6.44606 0
M  V30 43218 N 4245.1 -1.57379 -0.083485 0
M  V30 43219 C 4246.01 -2.06218 -1.11855 0
M  V30 43220 C 4247.03 -0.989358 -1.43135 0
M  V30 43221 O 4248.21 -1.3033 -1.53545 0
M  V30 43222 C 4245.27 -2.48659 -2.41598 0
M  V30 43223 C 4244.33 -3.70186 -2.17395 0
M  V30 43224 C 4243.56 -4.10594 -3.40952 0
M  V30 43225 O 4243.79 -3.50982 -4.49631 0
M  V30 43226 O 4242.72 -5.03468 -3.29854 0
M  V30 43227 H 4246.55 -2.94704 -0.73369 0
M  V30 43228 H 4244.13 -1.46422 -0.296808 0
M  V30 43229 H 4246.01 -2.76531 -3.17975 0
M  V30 43230 H 4244.69 -1.63306 -2.79487 0
M  V30 43231 H 4243.6 -3.47414 -1.3876 0
M  V30 43232 H 4244.93 -4.56355 -1.84393 0
M  V30 43233 N 4246.58 0.354597 -1.53559 0
M  V30 43234 C 4247.54 1.4178 -1.80086 0
M  V30 43235 C 4248.54 1.46104 -0.671578 0
M  V30 43236 O 4249.73 1.46673 -0.939827 0
M  V30 43237 C 4246.87 2.80806 -1.93289 0
M  V30 43238 H 4248.06 1.19527 -2.75052 0
M  V30 43239 H 4245.61 0.588362 -1.44803 0
M  V30 43240 H 4246.35 3.08358 -1.00429 0
M  V30 43241 H 4246.13 2.79065 -2.75437 0
M  V30 43242 H 4247.62 3.5778 -2.15367 0
M  V30 43243 N 4248.06 1.45105 0.615008 0
M  V30 43244 C 4249.29 1.52246 1.40103 0
M  V30 43245 C 4249.7 0.152594 1.88182 0
M  V30 43246 O 4249.06 -0.844509 1.61785 0
M  V30 43247 C 4249.11 2.50068 2.61052 0
M  V30 43248 O 4248.83 3.81731 2.14973 0
M  V30 43249 C 4250.33 2.66834 3.53998 0
M  V30 43250 H 4247.55 0.515843 0.429124 0
M  V30 43251 H 4250.1 1.90222 0.750711 0
M  V30 43252 H 4248.25 2.15184 3.22141 0
M  V30 43253 H 4248.67 4.34691 2.93502 0
M  V30 43254 H 4250.14 3.39273 4.35428 0
M  V30 43255 H 4250.62 1.72614 4.03858 0
M  V30 43256 H 4251.22 3.02685 2.98767 0
M  V30 43257 N 4249.54 -0.856857 1.32271 0
M  V30 43258 C 4250.78 -1.61088 1.22706 0
M  V30 43259 C 4251.11 -1.93345 -0.211648 0
M  V30 43260 O 4250.37 -1.57316 -1.16405 0
M  V30 43261 C 4250.67 -2.94172 2.02972 0
M  V30 43262 C 4250.33 -2.81354 3.52351 0
M  V30 43263 C 4248.99 -2.77565 3.93079 0
M  V30 43264 C 4251.35 -2.67444 4.47351 0
M  V30 43265 C 4248.67 -2.57742 5.27054 0
M  V30 43266 C 4251.03 -2.49157 5.81467 0
M  V30 43267 C 4249.69 -2.43759 6.214 0
M  V30 43268 H 4248.96 -0.589464 0.449014 0
M  V30 43269 H 4251.61 -0.994127 1.63675 0
M  V30 43270 H 4249.91 -3.59955 1.54725 0
M  V30 43271 H 4251.61 -3.51532 1.92942 0
M  V30 43272 H 4248.2 -2.85126 3.20002 0
M  V30 43273 H 4252.38 -2.69417 4.16807 0
M  V30 43274 H 4247.64 -2.51997 5.57052 0
M  V30 43275 H 4251.81 -2.37373 6.54696 0
M  V30 43276 H 4249.44 -2.28159 7.25154 0
M  V30 43277 N 4251.02 -1.15446 -1.07285 0
M  V30 43278 C 4251.96 -0.851848 -2.14505 0
M  V30 43279 C 4252.93 0.195504 -1.64945 0
M  V30 43280 O 4254.12 0.0629066 -1.90696 0
M  V30 43281 C 4251.26 -0.348041 -3.4334 0
M  V30 43282 C 4250.37 -1.45704 -4.06687 0
M  V30 43283 C 4249.51 -0.909292 -5.2336 0
M  V30 43284 C 4248.54 -1.99518 -5.7867 0
M  V30 43285 N 4247.68 -1.46376 -6.86672 0
M  V30 43286 H 4252.52 -1.77013 -2.3973 0
M  V30 43287 H 4250.06 -0.883215 -1.17634 0
M  V30 43288 H 4252.02 -0.0376481 -4.17183 0
M  V30 43289 H 4250.65 0.533314 -3.18364 0
M  V30 43290 H 4249.7 -1.88361 -3.30491 0
M  V30 43291 H 4251.01 -2.27687 -4.43802 0
M  V30 43292 H 4250.16 -0.551481 -6.04188 0
M  V30 43293 H 4248.9 -0.0586402 -4.87665 0
M  V30 43294 H 4247.91 -2.36181 -4.96486 0
M  V30 43295 H 4249.13 -2.84962 -6.1642 0
M  V30 43296 H 4247.08 -0.63548 -6.52915 0
M  V30 43297 H 4247 -2.21986 -7.22674 0
M  V30 43298 H 4248.26 -1.13422 -7.71204 0
M  V30 43299 N 4252.49 1.25646 -0.951364 0
M  V30 43300 C 4253.9 1.75183 -0.64559 0
M  V30 43301 C 4254.26 1.77352 0.839099 0
M  V30 43302 O 4253.38 1.39223 1.65668 0
M  V30 43303 C 4253.98 3.18134 -1.16518 0
M  V30 43304 C 4252.53 3.65243 -0.909624 0
M  V30 43305 C 4251.68 2.44399 -1.31013 0
M  V30 43306 H 4254.63 1.11578 -1.12854 0
M  V30 43307 H 4254.65 3.76878 -0.523728 0
M  V30 43308 H 4254.17 3.16523 -2.24577 0
M  V30 43309 H 4252.27 3.72273 0.156147 0
M  V30 43310 H 4252.38 4.53546 -1.54379 0
M  V30 43311 H 4250.74 2.44059 -0.728517 0
M  V30 43312 H 4251.53 2.45482 -2.39987 0
M  V30 43313 N 4253.97 0.719555 1.40215 0
M  V30 43314 C 4255.2 0.269142 2.05646 0
M  V30 43315 C 4255.62 -1.08197 1.53867 0
M  V30 43316 O 4254.98 -1.68237 0.675732 0
M  V30 43317 C 4255.03 0.263496 3.59636 0
M  V30 43318 O 4254.13 -0.753987 4.05449 0
M  V30 43319 H 4253.47 0.125491 0.652034 0
M  V30 43320 H 4256 0.98115 1.7954 0
M  V30 43321 H 4256.01 0.102547 4.07871 0
M  V30 43322 H 4254.69 1.24946 3.96688 0
M  V30 43323 H 4253.26 -0.560437 3.68664 0
M  V30 43324 N 4255.45 -1.50552 0.466031 0
M  V30 43325 C 4256.67 -2.07201 -0.0908265 0
M  V30 43326 C 4257.1 -1.32819 -1.33194 0
M  V30 43327 O 4256.46 -0.374372 -1.77393 0
M  V30 43328 C 4256.51 -3.58769 -0.362894 0
M  V30 43329 O 4255.61 -3.86282 -1.44431 0
M  V30 43330 H 4254.95 -0.663913 0.0107517 0
M  V30 43331 H 4257.48 -1.93811 0.655619 0
M  V30 43332 H 4257.49 -4.03491 -0.604894 0
M  V30 43333 H 4256.17 -4.12326 0.544068 0
M  V30 43334 H 4254.74 -3.53402 -1.19002 0
M  V30 43335 N 4256.93 -0.198441 -1.56346 0
M  V30 43336 C 4257.84 0.732962 -2.22856 0
M  V30 43337 C 4258.85 1.23203 -1.2287 0
M  V30 43338 O 4260.03 1.27849 -1.55617 0
M  V30 43339 C 4257.09 1.93394 -2.87749 0
M  V30 43340 C 4256.16 1.47912 -4.03014 0
M  V30 43341 C 4255.39 2.62285 -4.64803 0
M  V30 43342 O 4255.61 3.79851 -4.25522 0
M  V30 43343 O 4254.55 2.34807 -5.54211 0
M  V30 43344 H 4258.37 0.19651 -3.03064 0
M  V30 43345 H 4255.96 0.0309991 -1.49368 0
M  V30 43346 H 4257.84 2.63579 -3.28792 0
M  V30 43347 H 4256.51 2.45894 -2.10518 0
M  V30 43348 H 4255.42 0.745974 -3.66587 0
M  V30 43349 H 4256.75 1.00076 -4.81919 0
M  V30 43350 N 4258.41 1.57421 0.0751377 0
M  V30 43351 C 4259.32 2.06808 1.10759 0
M  V30 43352 C 4260.33 0.996935 1.42609 0
M  V30 43353 O 4261.51 1.31142 1.52852 0
M  V30 43354 C 4258.57 2.49937 2.40276 0
M  V30 43355 C 4257.63 3.71334 2.15429 0
M  V30 43356 C 4256.87 4.12396 3.3877 0
M  V30 43357 O 4257.09 3.53361 4.47763 0
M  V30 43358 O 4256.02 5.0521 3.2718 0
M  V30 43359 H 4259.85 2.95089 0.71805 0
M  V30 43360 H 4257.44 1.46577 0.289039 0
M  V30 43361 H 4259.32 2.78214 3.16505 0
M  V30 43362 H 4257.99 1.64785 2.78617 0
M  V30 43363 H 4256.9 3.48145 1.36916 0
M  V30 43364 H 4258.23 4.57327 1.8197 0
M  V30 43365 N 4259.88 -0.346449 1.53745 0
M  V30 43366 C 4261.11 -1.10554 1.74532 0
M  V30 43367 C 4261.52 -1.8293 0.483028 0
M  V30 43368 O 4260.87 -1.7512 -0.554865 0
M  V30 43369 C 4260.93 -2.16601 2.86922 0
M  V30 43370 C 4260.59 -1.63825 4.26627 0
M  V30 43371 C 4261.59 -1.09211 5.083 0
M  V30 43372 C 4259.27 -1.68759 4.73102 0
M  V30 43373 C 4261.27 -0.602322 6.34548 0
M  V30 43374 C 4258.95 -1.19393 5.99323 0
M  V30 43375 C 4259.95 -0.652212 6.79879 0
M  V30 43376 O 4259.64 -0.165897 8.03729 0
M  V30 43377 H 4259.37 -0.335679 0.586767 0
M  V30 43378 H 4261.93 -0.405325 2.01361 0
M  V30 43379 H 4260.16 -2.90172 2.55611 0
M  V30 43380 H 4261.85 -2.78052 2.95706 0
M  V30 43381 H 4262.61 -1.04723 4.73559 0
M  V30 43382 H 4258.49 -2.09864 4.10461 0
M  V30 43383 H 4262.03 -0.178831 6.97371 0
M  V30 43384 H 4257.93 -1.2358 6.3356 0
M  V30 43385 H 4258.7 -0.283455 8.18009 0
M  V30 43386 N 4261.36 -1.45429 -0.607304 0
M  V30 43387 C 4262.29 -1.56965 -1.7287 0
M  V30 43388 C 4263.27 -0.421188 -1.64803 0
M  V30 43389 O 4264.46 -0.644362 -1.83198 0
M  V30 43390 C 4261.59 -1.53627 -3.11474 0
M  V30 43391 C 4260.54 -2.67194 -3.34352 0
M  V30 43392 C 4259.87 -2.4891 -4.73231 0
M  V30 43393 C 4261.17 -4.09201 -3.24579 0
M  V30 43394 H 4262.86 -2.50833 -1.63472 0
M  V30 43395 H 4260.41 -1.2072 -0.785032 0
M  V30 43396 H 4262.36 -1.60295 -3.89722 0
M  V30 43397 H 4261.09 -0.562895 -3.21713 0
M  V30 43398 H 4259.74 -2.59954 -2.58494 0
M  V30 43399 H 4259.39 -1.49711 -4.80204 0
M  V30 43400 H 4259.09 -3.25067 -4.89495 0
M  V30 43401 H 4260.62 -2.57432 -5.5368 0
M  V30 43402 H 4262.03 -4.17682 -3.92701 0
M  V30 43403 H 4260.43 -4.85751 -3.52372 0
M  V30 43404 H 4261.5 -4.31089 -2.22014 0
M  V30 43405 N 4262.84 0.84983 -1.32724 0
M  V30 43406 C 4263.79 1.947 -1.18642 0
M  V30 43407 C 4264.77 1.60636 -0.0920988 0
M  V30 43408 O 4265.97 1.741 -0.319096 0
M  V30 43409 C 4263.1 3.30838 -0.916586 0
M  V30 43410 C 4262.18 3.71106 -2.05283 0
M  V30 43411 N 4262.57 3.8316 -3.30185 0
M  V30 43412 C 4260.87 4.00767 -1.95708 0
M  V30 43413 C 4261.57 4.17904 -4.04637 0
M  V30 43414 N 4260.55 4.29683 -3.32977 0
M  V30 43415 H 4264.35 2.0216 -2.13328 0
M  V30 43416 H 4261.86 1.04189 -1.24573 0
M  V30 43417 H 4263.86 4.09218 -0.796648 0
M  V30 43418 H 4262.52 3.24693 0.0218487 0
M  V30 43419 H 4263.53 3.67354 -3.65064 0
M  V30 43420 H 4260.21 4.02896 -1.09456 0
M  V30 43421 H 4261.6 4.34659 -5.12368 0
M  V30 43422 N 4264.32 1.16013 1.06671 0
M  V30 43423 C 4265.57 0.933783 1.78783 0
M  V30 43424 C 4265.88 -0.539936 1.88 0
M  V30 43425 O 4267.09 -0.884072 2.56703 0
M  V30 43426 C 4265.54 1.62136 3.2131 0
M  V30 43427 C 4265.15 3.13257 3.20271 0
M  V30 43428 C 4266.89 1.47682 3.97983 0
M  V30 43429 C 4264.8 3.7477 4.57494 0
M  V30 43430 H 4263.73 0.345723 0.670068 0
M  V30 43431 H 4266.38 1.39103 1.19677 0
M  V30 43432 H 4264.76 1.09181 3.80651 0
M  V30 43433 H 4265.94 3.73025 2.70535 0
M  V30 43434 H 4264.25 3.27552 2.57097 0
M  V30 43435 H 4266.85 1.91024 4.99413 0
M  V30 43436 H 4267.19 0.425246 4.14122 0
M  V30 43437 H 4267.73 1.97772 3.45154 0
M  V30 43438 H 4264.47 4.79859 4.46559 0
M  V30 43439 H 4263.99 3.19787 5.07441 0
M  V30 43440 H 4265.66 3.76102 5.26456 0
M  V30 43441 N 4265.8 -1.25139 0.958014 0
M  V30 43442 C 4267.02 -1.97014 0.631922 0
M  V30 43443 C 4267.44 -1.71168 -0.796678 0
M  V30 43444 O 4266.8 -0.98971 -1.53333 0
M  V30 43445 C 4266.85 -3.50495 0.885198 0
M  V30 43446 O 4266.57 -3.7545 2.25763 0
M  V30 43447 C 4268.07 -4.39595 0.571959 0
M  V30 43448 H 4265.29 -0.627896 0.236617 0
M  V30 43449 H 4267.83 -1.59221 1.28331 0
M  V30 43450 H 4265.99 -3.86386 0.28017 0
M  V30 43451 H 4266.4 -4.6989 2.33031 0
M  V30 43452 H 4267.88 -5.46177 0.799694 0
M  V30 43453 H 4268.35 -4.36418 -0.493566 0
M  V30 43454 H 4268.96 -4.09275 1.15646 0
M  V30 43455 N 4267.27 -0.726981 -1.39831 0
M  V30 43456 C 4268.18 -0.0831249 -2.34453 0
M  V30 43457 C 4269.2 0.730981 -1.57901 0
M  V30 43458 O 4270.38 0.661304 -1.90233 0
M  V30 43459 C 4267.44 0.819265 -3.36881 0
M  V30 43460 C 4266.5 -0.00618205 -4.293 0
M  V30 43461 C 4265.74 0.853232 -5.26836 0
M  V30 43462 O 4265.96 2.09219 -5.30644 0
M  V30 43463 O 4264.89 0.286156 -6.01219 0
M  V30 43464 H 4268.72 -0.863896 -2.91154 0
M  V30 43465 H 4266.3 -0.487568 -1.4122 0
M  V30 43466 H 4268.19 1.33582 -3.99667 0
M  V30 43467 H 4266.86 1.57899 -2.82577 0
M  V30 43468 H 4265.77 -0.568072 -3.69762 0
M  V30 43469 H 4267.1 -0.727942 -4.86787 0
M  V30 43470 N 4268.75 1.50303 -0.474008 0
M  V30 43471 C 4270.16 1.8669 -0.0195963 0
M  V30 43472 C 4270.51 1.38858 1.3861 0
M  V30 43473 O 4269.64 0.754808 2.02809 0
M  V30 43474 C 4270.23 3.38788 -0.0287853 0
M  V30 43475 C 4268.79 3.74575 0.370168 0
M  V30 43476 C 4267.94 2.74207 -0.413011 0
M  V30 43477 H 4270.89 1.43005 -0.688141 0
M  V30 43478 H 4270.91 3.72571 0.772724 0
M  V30 43479 H 4270.42 3.7357 -1.05199 0
M  V30 43480 H 4268.53 3.45395 1.39762 0
M  V30 43481 H 4268.64 4.7905 0.0694845 0
M  V30 43482 H 4267 2.54349 0.133665 0
M  V30 43483 H 4267.79 3.11833 -1.43579 0
M  V30 43484 N 4270.23 0.20673 1.56238 0
M  V30 43485 C 4271.64 -0.303799 1.84212 0
M  V30 43486 C 4271.99 -1.6055 1.12774 0
M  V30 43487 O 4271.12 -2.12812 0.39242 0
M  V30 43488 C 4271.71 -0.557982 3.34174 0
M  V30 43489 C 4270.27 -1.01285 3.62517 0
M  V30 43490 C 4269.42 -0.0677857 2.77217 0
M  V30 43491 H 4272.37 0.430262 1.52756 0
M  V30 43492 H 4272.39 -1.40586 3.53576 0
M  V30 43493 H 4271.9 0.389588 3.8614 0
M  V30 43494 H 4270 -1.9743 3.15994 0
M  V30 43495 H 4270.12 -0.897517 4.70618 0
M  V30 43496 H 4268.48 -0.571845 2.48198 0
M  V30 43497 H 4269.26 0.874436 3.31977 0
M  V30 43498 N 4271.71 -1.57458 -0.0667882 0
M  V30 43499 C 4272.93 -1.92109 -0.781583 0
M  V30 43500 C 4273.36 -0.803583 -1.70071 0
M  V30 43501 O 4272.72 0.243284 -1.7966 0
M  V30 43502 C 4272.76 -3.25731 -1.54699 0
M  V30 43503 O 4271.87 -3.15317 -2.65799 0
M  V30 43504 H 4271.21 -0.628945 -0.212896 0
M  V30 43505 H 4273.74 -2.04573 -0.0335345 0
M  V30 43506 H 4273.75 -3.59724 -1.92516 0
M  V30 43507 H 4272.42 -4.06642 -0.872642 0
M  V30 43508 H 4271 -2.9289 -2.30802 0
M  V30 43509 N 4273.19 0.33829 -1.53926 0
M  V30 43510 C 4274.12 1.42115 -1.85271 0
M  V30 43511 C 4275.1 1.54653 -0.708265 0
M  V30 43512 O 4276.28 1.68775 -0.96066 0
M  V30 43513 C 4273.41 2.79093 -2.06698 0
M  V30 43514 C 4272.37 2.81358 -3.22524 0
M  V30 43515 C 4271.69 4.21271 -3.29294 0
M  V30 43516 C 4272.99 2.46423 -4.60514 0
M  V30 43517 H 4274.69 1.16132 -2.75959 0
M  V30 43518 H 4272.23 0.557225 -1.32782 0
M  V30 43519 H 4274.19 3.54899 -2.2721 0
M  V30 43520 H 4272.91 3.06523 -1.12745 0
M  V30 43521 H 4271.57 2.08006 -3.01876 0
M  V30 43522 H 4271.22 4.45818 -2.32927 0
M  V30 43523 H 4270.92 4.23696 -4.0713 0
M  V30 43524 H 4272.44 4.98911 -3.52022 0
M  V30 43525 H 4273.86 3.11941 -4.81005 0
M  V30 43526 H 4272.25 2.60123 -5.40792 0
M  V30 43527 H 4273.32 1.41599 -4.63765 0
M  V30 43528 N 4274.67 1.45749 0.599583 0
M  V30 43529 C 4275.89 1.53956 1.38969 0
M  V30 43530 C 4276.32 0.175651 1.87278 0
M  V30 43531 O 4275.67 -0.841194 1.60604 0
M  V30 43532 C 4275.72 2.53479 2.56478 0
M  V30 43533 O 4274.83 2.05814 3.57372 0
M  V30 43534 H 4274.17 0.518689 0.414558 0
M  V30 43535 H 4276.7 1.91174 0.728939 0
M  V30 43536 H 4276.71 2.72544 3.03618 0
M  V30 43537 H 4275.38 3.52533 2.20666 0
M  V30 43538 H 4273.96 1.96661 3.16826 0
M  V30 43539 N 4276.14 -0.84278 1.33173 0
M  V30 43540 C 4277.55 -1.41394 1.2192 0
M  V30 43541 C 4277.91 -1.95518 -0.163491 0
M  V30 43542 O 4277.03 -1.88499 -1.06288 0
M  V30 43543 C 4277.63 -2.57027 2.20732 0
M  V30 43544 C 4276.18 -3.10108 2.1333 0
M  V30 43545 C 4275.33 -1.82894 2.08435 0
M  V30 43546 H 4278.28 -0.648886 1.44828 0
M  V30 43547 H 4278.3 -3.34543 1.81276 0
M  V30 43548 H 4277.82 -2.17605 3.21356 0
M  V30 43549 H 4275.92 -3.54085 1.15995 0
M  V30 43550 H 4276.03 -3.70547 3.03697 0
M  V30 43551 H 4274.39 -2.02982 1.53852 0
M  V30 43552 H 4275.18 -1.45673 3.10861 0
M  V30 43553 N 4277.62 -1.16577 -1.06054 0
M  V30 43554 C 4278.9 -0.858939 -1.75732 0
M  V30 43555 C 4279.28 0.642711 -2.01078 0
M  V30 43556 O 4278.63 1.59127 -1.63984 0
M  V30 43557 C 4278.84 -1.6843 -3.05667 0
M  V30 43558 C 4280.18 -1.8988 -3.79777 0
M  V30 43559 O 4281.21 -1.65316 -3.15514 0
M  V30 43560 O 4280.07 -2.31109 -4.95228 0
M  V30 43561 H 4277.16 -0.317191 -0.763753 0
M  V30 43562 H 4279.71 -1.27227 -1.12301 0
M  V30 43563 H 4278.48 -2.7032 -2.82918 0
M  V30 43564 H 4278.1 -1.26818 -3.76833 0
M  V30 43565 N 4279.1 1.2463 -0.964637 0
M  V30 43566 C 4280.33 1.96676 -0.642362 0
M  V30 43567 C 4280.74 1.71588 0.787589 0
M  V30 43568 O 4280.1 0.997827 1.52806 0
M  V30 43569 C 4280.15 3.5002 -0.903774 0
M  V30 43570 O 4279.87 3.74248 -2.27751 0
M  V30 43571 C 4281.37 4.39285 -0.595264 0
M  V30 43572 H 4278.59 0.626632 -0.239944 0
M  V30 43573 H 4281.14 1.58538 -1.29174 0
M  V30 43574 H 4279.29 3.86232 -0.300657 0
M  V30 43575 H 4279.71 4.68648 -2.3552 0
M  V30 43576 H 4281.18 5.45745 -0.828648 0
M  V30 43577 H 4281.66 4.36673 0.470415 0
M  V30 43578 H 4282.26 4.08656 -1.17815 0
M  V30 43579 N 4280.58 0.734386 1.39444 0
M  V30 43580 C 4281.52 0.0940095 2.30608 0
M  V30 43581 C 4282.49 -0.73033 1.49182 0
M  V30 43582 O 4283.68 -0.690419 1.7787 0
M  V30 43583 C 4280.82 -0.807758 3.35513 0
M  V30 43584 C 4279.93 0.0291308 4.3199 0
M  V30 43585 C 4279.07 -0.873853 5.23963 0
M  V30 43586 C 4278.11 -0.0321761 6.12092 0
M  V30 43587 N 4277.24 -0.89106 6.96423 0
M  V30 43588 H 4282.08 0.877072 2.84801 0
M  V30 43589 H 4279.62 0.444177 1.40234 0
M  V30 43590 H 4281.58 -1.34502 3.94924 0
M  V30 43591 H 4280.21 -1.5568 2.82778 0
M  V30 43592 H 4279.26 0.68381 3.74203 0
M  V30 43593 H 4280.57 0.679952 4.94144 0
M  V30 43594 H 4279.73 -1.47898 5.88397 0
M  V30 43595 H 4278.47 -1.55846 4.62129 0
M  V30 43596 H 4277.47 0.585761 5.46671 0
M  V30 43597 H 4278.7 0.6492 6.7599 0
M  V30 43598 H 4276.64 -1.56096 6.37158 0
M  V30 43599 H 4276.56 -0.296704 7.55418 0
M  V30 43600 H 4277.83 -1.48177 7.65287 0
M  V30 43601 N 4282.06 -1.50049 0.481972 0
M  V30 43602 C 4282.99 -2.31614 -0.296213 0
M  V30 43603 C 4283.97 -1.39012 -0.980295 0
M  V30 43604 O 4285.15 -1.67929 -0.975372 0
M  V30 43605 C 4282.28 -3.1904 -1.37226 0
M  V30 43606 C 4281.24 -4.20282 -0.809158 0
M  V30 43607 C 4280.56 -4.96517 -1.98431 0
M  V30 43608 C 4281.86 -5.21965 0.186942 0
M  V30 43609 H 4283.56 -2.9692 0.384561 0
M  V30 43610 H 4281.1 -1.42789 0.186387 0
M  V30 43611 H 4283.05 -3.74902 -1.92423 0
M  V30 43612 H 4281.78 -2.51639 -2.08195 0
M  V30 43613 H 4280.44 -3.65536 -0.27908 0
M  V30 43614 H 4280.09 -4.2558 -2.68124 0
M  V30 43615 H 4279.79 -5.65007 -1.6137 0
M  V30 43616 H 4281.31 -5.55218 -2.54097 0
M  V30 43617 H 4282.72 -5.72634 -0.276226 0
M  V30 43618 H 4281.12 -5.98238 0.472387 0
M  V30 43619 H 4282.19 -4.72042 1.10924 0
M  V30 43620 N 4283.53 -0.215012 -1.56126 0
M  V30 43621 C 4284.44 0.709284 -2.23621 0
M  V30 43622 C 4285.46 1.21893 -1.2417 0
M  V30 43623 O 4286.64 1.26191 -1.56964 0
M  V30 43624 C 4283.7 1.90332 -2.89784 0
M  V30 43625 C 4282.76 1.43629 -4.04561 0
M  V30 43626 C 4281.99 2.57341 -4.67559 0
M  V30 43627 O 4282.22 3.75316 -4.29527 0
M  V30 43628 O 4281.15 2.28916 -5.5667 0
M  V30 43629 H 4284.98 0.164355 -3.03255 0
M  V30 43630 H 4282.56 0.0151549 -1.49392 0
M  V30 43631 H 4284.44 2.60076 -3.31569 0
M  V30 43632 H 4283.12 2.43647 -2.13115 0
M  V30 43633 H 4282.03 0.70705 -3.67358 0
M  V30 43634 H 4283.36 0.949585 -4.82953 0
M  V30 43635 N 4285.01 1.57492 0.0584368 0
M  V30 43636 C 4286.42 1.76499 0.608674 0
M  V30 43637 C 4286.77 0.842271 1.77201 0
M  V30 43638 O 4285.9 0.0296645 2.1638 0
M  V30 43639 C 4286.49 3.20068 1.11095 0
M  V30 43640 C 4285.05 3.40374 1.60694 0
M  V30 43641 C 4284.2 2.72147 0.532111 0
M  V30 43642 H 4287.15 1.57811 -0.167769 0
M  V30 43643 H 4287.17 3.24963 1.97937 0
M  V30 43644 H 4286.68 3.87201 0.264044 0
M  V30 43645 H 4284.78 2.78374 2.47666 0
M  V30 43646 H 4284.9 4.48878 1.67468 0
M  V30 43647 H 4283.26 2.35079 0.980313 0
M  V30 43648 H 4284.04 3.41944 -0.304834 0
M  V30 43649 N 4286.49 -0.330122 1.54104 0
M  V30 43650 C 4287.71 -1.09294 1.76266 0
M  V30 43651 C 4288.14 -1.81146 0.506732 0
M  V30 43652 O 4287.5 -1.73028 -0.541379 0
M  V30 43653 C 4287.55 -2.07176 2.95145 0
M  V30 43654 O 4286.65 -3.14952 2.66232 0
M  V30 43655 H 4285.99 -0.315439 0.584289 0
M  V30 43656 H 4288.52 -0.376418 2.01108 0
M  V30 43657 H 4288.53 -2.50162 3.22309 0
M  V30 43658 H 4287.21 -1.54278 3.86227 0
M  V30 43659 H 4285.78 -2.76687 2.49997 0
M  V30 43660 N 4287.97 -1.46065 -0.591845 0
M  V30 43661 C 4288.88 -1.58503 -1.72956 0
M  V30 43662 C 4289.89 -0.468842 -1.67565 0
M  V30 43663 O 4291.07 -0.731712 -1.87638 0
M  V30 43664 C 4288.14 -1.56342 -3.09448 0
M  V30 43665 C 4287.2 -2.79122 -3.26174 0
M  V30 43666 C 4286.43 -2.77054 -4.56154 0
M  V30 43667 O 4286.65 -1.85277 -5.39471 0
M  V30 43668 O 4285.59 -3.68474 -4.75931 0
M  V30 43669 H 4289.41 -2.54702 -1.65411 0
M  V30 43670 H 4287 -1.28754 -0.757811 0
M  V30 43671 H 4288.88 -1.578 -3.90739 0
M  V30 43672 H 4287.55 -0.633005 -3.1745 0
M  V30 43673 H 4286.46 -2.83221 -2.44411 0
M  V30 43674 H 4287.79 -3.71342 -3.23057 0
M  V30 43675 N 4289.45 0.835705 -1.33618 0
M  V30 43676 C 4290.72 1.57602 -1.15849 0
M  V30 43677 C 4291.1 2.09315 0.273914 0
M  V30 43678 O 4290.45 1.89727 1.27342 0
M  V30 43679 C 4290.66 2.7074 -2.20229 0
M  V30 43680 C 4292.01 3.39839 -2.54548 0
M  V30 43681 O 4293.03 2.80985 -2.1892 0
M  V30 43682 O 4291.89 4.4609 -3.15699 0
M  V30 43683 H 4288.99 0.694965 -0.448277 0
M  V30 43684 H 4291.53 0.878186 -1.4521 0
M  V30 43685 H 4290.3 2.3019 -3.1643 0
M  V30 43686 H 4289.93 3.48185 -1.91971 0
M  V30 43687 N 4290.92 1.17138 1.05434 0
M  V30 43688 C 4292.2 0.868247 1.75274 0
M  V30 43689 C 4292.58 -0.632038 2.01416 0
M  V30 43690 O 4291.93 -1.58256 1.64825 0
M  V30 43691 C 4292.14 1.70049 3.04769 0
M  V30 43692 C 4293.49 1.91892 3.78765 0
M  V30 43693 O 4294.51 1.66987 3.14633 0
M  V30 43694 O 4293.37 2.33732 4.93996 0
M  V30 43695 H 4290.46 0.321237 0.76206 0
M  V30 43696 H 4293.01 1.2782 1.11625 0
M  V30 43697 H 4291.78 2.71817 2.81481 0
M  V30 43698 H 4291.41 1.28815 3.76155 0
M  V30 43699 N 4292.4 -1.24116 0.971232 0
M  V30 43700 C 4293.65 -1.91905 0.633802 0
M  V30 43701 C 4293.97 -1.76259 -0.834126 0
M  V30 43702 O 4293.24 -1.13631 -1.59577 0
M  V30 43703 H 4291.82 -0.710247 0.231426 0
M  V30 43704 H 4294.48 -1.50935 1.23306 0
M  V30 43705 H 4293.58 -2.99511 0.877463 0
M  V30 43706 N 4293.88 -0.741771 -1.39052 0
M  V30 43707 C 4294.83 -0.106238 -2.30555 0
M  V30 43708 C 4295.8 0.722408 -1.49568 0
M  V30 43709 O 4296.98 0.680976 -1.78234 0
M  V30 43710 C 4294.12 0.789954 -3.35937 0
M  V30 43711 C 4293.24 -0.0520399 -4.31969 0
M  V30 43712 C 4292.37 0.846054 -5.24419 0
M  V30 43713 C 4291.41 -0.000285036 -6.121 0
M  V30 43714 N 4290.55 0.854114 -6.96885 0
M  V30 43715 H 4295.39 -0.892163 -2.84332 0
M  V30 43716 H 4292.92 -0.451607 -1.39996 0
M  V30 43717 H 4294.88 1.32406 -3.95632 0
M  V30 43718 H 4293.51 1.54178 -2.836 0
M  V30 43719 H 4292.56 -0.703645 -3.73836 0
M  V30 43720 H 4293.88 -0.706148 -4.93776 0
M  V30 43721 H 4293.03 1.44776 -5.89173 0
M  V30 43722 H 4291.77 1.53393 -4.62949 0
M  V30 43723 H 4290.77 -0.614744 -5.46352 0
M  V30 43724 H 4292 -0.68504 -6.75636 0
M  V30 43725 H 4289.94 1.52715 -6.37977 0
M  V30 43726 H 4289.86 0.256639 -7.55564 0
M  V30 43727 H 4291.13 1.44117 -7.66062 0
M  V30 43728 N 4295.36 1.49792 -0.489923 0
M  V30 43729 C 4296.77 1.86658 -0.0393962 0
M  V30 43730 C 4297.12 1.40321 1.3713 0
M  V30 43731 O 4296.25 0.776276 2.01997 0
M  V30 43732 C 4296.84 3.38738 -0.0647167 0
M  V30 43733 C 4295.4 3.74947 0.330419 0
M  V30 43734 C 4294.55 2.73754 -0.442071 0
M  V30 43735 H 4297.5 1.42267 -0.70327 0
M  V30 43736 H 4297.52 3.7337 0.733164 0
M  V30 43737 H 4297.03 3.72433 -1.09156 0
M  V30 43738 H 4295.13 3.46857 1.36091 0
M  V30 43739 H 4295.24 4.79096 0.018671 0
M  V30 43740 H 4293.61 2.54476 0.106681 0
M  V30 43741 H 4294.39 3.10293 -1.46878 0
M  V30 43742 N 4296.84 0.223289 1.5601 0
M  V30 43743 C 4297.75 -0.697415 2.23994 0
M  V30 43744 C 4298.76 -1.21233 1.24815 0
M  V30 43745 O 4299.94 -1.25357 1.57631 0
M  V30 43746 C 4297 -1.88792 2.90789 0
M  V30 43747 C 4296.06 -1.41481 4.05317 0
M  V30 43748 C 4295.3 -2.54858 4.68917 0
M  V30 43749 O 4295.52 -3.73033 4.31512 0
M  V30 43750 O 4294.45 -2.2596 5.57876 0
M  V30 43751 H 4298.28 -0.14827 3.03338 0
M  V30 43752 H 4295.87 -0.0072321 1.49398 0
M  V30 43753 H 4297.75 -2.58314 3.32944 0
M  V30 43754 H 4296.42 -2.42513 2.14404 0
M  V30 43755 H 4295.33 -0.687558 3.67727 0
M  V30 43756 H 4296.66 -0.92396 4.8345 0
M  V30 43757 N 4298.31 -1.5752 -0.0500839 0
M  V30 43758 C 4299.24 -2.08204 -1.05704 0
M  V30 43759 C 4300.23 -0.980033 -1.3903 0
M  V30 43760 O 4301.41 -1.25406 -1.4828 0
M  V30 43761 C 4298.54 -2.54403 -2.36424 0
M  V30 43762 C 4297.49 -3.68678 -2.17396 0
M  V30 43763 C 4296.82 -4.01007 -3.53691 0
M  V30 43764 C 4298.12 -4.97914 -1.57732 0
M  V30 43765 H 4299.81 -2.92584 -0.635206 0
M  V30 43766 H 4297.36 -1.40752 -0.304103 0
M  V30 43767 H 4299.31 -2.88477 -3.07179 0
M  V30 43768 H 4298.04 -1.67079 -2.80628 0
M  V30 43769 H 4296.7 -3.3492 -1.49078 0
M  V30 43770 H 4296.34 -3.10781 -3.95505 0
M  V30 43771 H 4296.04 -4.77967 -3.41791 0
M  V30 43772 H 4297.57 -4.37597 -4.25842 0
M  V30 43773 H 4298.98 -5.30079 -2.18378 0
M  V30 43774 H 4297.38 -5.79343 -1.56468 0
M  V30 43775 H 4298.45 -4.81874 -0.540915 0
M  V30 43776 N 4299.79 0.321945 -1.54277 0
M  V30 43777 C 4300.72 1.40142 -1.86768 0
M  V30 43778 C 4301.7 1.53893 -0.724628 0
M  V30 43779 O 4302.89 1.67746 -0.978507 0
M  V30 43780 C 4300.02 2.76885 -2.09647 0
M  V30 43781 C 4298.97 2.77921 -3.2549 0
M  V30 43782 C 4298.3 4.17755 -3.33743 0
M  V30 43783 C 4299.6 2.41525 -4.63102 0
M  V30 43784 H 4301.29 1.13199 -2.77176 0
M  V30 43785 H 4298.84 0.543111 -1.33365 0
M  V30 43786 H 4300.79 3.5247 -2.30961 0
M  V30 43787 H 4299.52 3.05309 -1.1599 0
M  V30 43788 H 4298.17 2.04792 -3.04065 0
M  V30 43789 H 4297.82 4.43323 -2.37642 0
M  V30 43790 H 4297.52 4.19354 -4.11601 0
M  V30 43791 H 4299.05 4.9515 -3.57294 0
M  V30 43792 H 4300.46 3.06822 -4.84286 0
M  V30 43793 H 4298.86 2.54372 -5.43521 0
M  V30 43794 H 4299.93 1.36672 -4.65241 0
M  V30 43795 N 4301.27 1.46377 0.58409 0
M  V30 43796 C 4302.18 1.59418 1.72113 0
M  V30 43797 C 4303.2 0.477722 1.67314 0
M  V30 43798 O 4304.37 0.741653 1.87247 0
M  V30 43799 C 4301.44 1.57981 3.08615 0
M  V30 43800 C 4300.5 2.80848 3.24689 0
M  V30 43801 C 4299.73 2.7947 4.54678 0
M  V30 43802 O 4299.95 1.88136 5.3848 0
M  V30 43803 O 4298.89 3.70993 4.7397 0
M  V30 43804 H 4302.71 2.55575 1.64058 0
M  V30 43805 H 4300.3 1.29154 0.750972 0
M  V30 43806 H 4302.18 1.5987 3.89897 0
M  V30 43807 H 4300.86 0.649831 3.1711 0
M  V30 43808 H 4299.76 2.84513 2.42905 0
M  V30 43809 H 4301.1 3.7305 3.21083 0
M  V30 43810 N 4302.75 -0.828607 1.34059 0
M  V30 43811 C 4303.66 -1.97106 1.27225 0
M  V30 43812 C 4304.68 -1.73057 0.180947 0
M  V30 43813 O 4305.85 -1.97257 0.406397 0
M  V30 43814 C 4302.92 -3.31299 1.02186 0
M  V30 43815 C 4301.98 -3.68395 2.20417 0
M  V30 43816 C 4301.21 -4.96184 1.96562 0
M  V30 43817 O 4301.43 -5.62915 0.92103 0
M  V30 43818 O 4300.37 -5.31025 2.83366 0
M  V30 43819 H 4304.19 -2.05814 2.23325 0
M  V30 43820 H 4301.78 -0.963164 1.14208 0
M  V30 43821 H 4303.66 -4.11682 0.899791 0
M  V30 43822 H 4302.34 -3.23571 0.0912094 0
M  V30 43823 H 4301.24 -2.8848 2.38181 0
M  V30 43824 H 4302.58 -3.80801 3.11852 0
M  V30 43825 N 4304.23 -1.17696 -1.04812 0
M  V30 43826 C 4305.16 -0.840582 -2.12154 0
M  V30 43827 C 4306.14 0.194269 -1.61435 0
M  V30 43828 O 4307.32 0.0749332 -1.88351 0
M  V30 43829 C 4304.45 -0.254588 -3.37742 0
M  V30 43830 C 4303.5 -1.26543 -4.07295 0
M  V30 43831 S 4304.33 -2.81831 -4.55337 0
M  V30 43832 C 4305.48 -2.24722 -5.84167 0
M  V30 43833 H 4305.72 -1.74969 -2.4036 0
M  V30 43834 H 4303.25 -1.00202 -1.17469 0
M  V30 43835 H 4305.21 0.0770169 -4.10428 0
M  V30 43836 H 4303.87 0.632523 -3.07665 0
M  V30 43837 H 4303.06 -0.804144 -4.97543 0
M  V30 43838 H 4302.66 -1.54289 -3.40692 0
M  V30 43839 H 4304.96 -1.62515 -6.5772 0
M  V30 43840 H 4305.9 -3.13241 -6.35048 0
M  V30 43841 H 4306.31 -1.68027 -5.38913 0
M  V30 43842 N 4305.71 1.23599 -0.977801 0
M  V30 43843 C 4306.62 2.28671 -0.524079 0
M  V30 43844 C 4307.63 1.68858 0.419864 0
M  V30 43845 O 4308.81 1.99295 0.290423 0
M  V30 43846 C 4305.87 3.46289 0.168799 0
M  V30 43847 C 4304.93 4.21469 -0.816224 0
M  V30 43848 C 4304.17 5.33471 -0.156317 0
M  V30 43849 O 4304.39 5.60593 1.05319 0
M  V30 43850 O 4303.32 5.95817 -0.853577 0
M  V30 43851 H 4307.15 2.69619 -1.39782 0
M  V30 43852 H 4304.73 1.29482 -0.745311 0
M  V30 43853 H 4306.62 4.17695 0.557585 0
M  V30 43854 H 4305.29 3.07297 1.01735 0
M  V30 43855 H 4304.2 3.52397 -1.25566 0
M  V30 43856 H 4305.53 4.64303 -1.6335 0
M  V30 43857 N 4307.18 0.749135 1.38657 0
M  V30 43858 C 4308.15 0.126797 2.28849 0
M  V30 43859 C 4309.15 -0.652227 1.46978 0
M  V30 43860 O 4310.34 -0.479151 1.67481 0
M  V30 43861 C 4307.47 -0.829025 3.30666 0
M  V30 43862 H 4308.66 0.92158 2.85389 0
M  V30 43863 H 4306.21 0.515858 1.47542 0
M  V30 43864 H 4306.95 -1.64965 2.79208 0
M  V30 43865 H 4306.73 -0.272878 3.91149 0
M  V30 43866 H 4308.22 -1.2606 3.98119 0
M  V30 43867 N 4308.66 -1.4953 0.49786 0
M  V30 43868 C 4309.89 -2.07347 -0.0468556 0
M  V30 43869 C 4310.31 -1.35615 -1.30347 0
M  V30 43870 O 4309.67 -0.411915 -1.76559 0
M  V30 43871 C 4309.72 -3.59458 -0.286712 0
M  V30 43872 O 4308.82 -3.89258 -1.36205 0
M  V30 43873 H 4308.16 -0.663536 0.0248319 0
M  V30 43874 H 4310.69 -1.92377 0.696581 0
M  V30 43875 H 4310.7 -4.04683 -0.519171 0
M  V30 43876 H 4309.38 -4.11079 0.631406 0
M  V30 43877 H 4307.95 -3.55847 -1.11479 0
M  V30 43878 N 4310.14 -0.23156 -1.5589 0
M  V30 43879 C 4311.55 0.274454 -1.84672 0
M  V30 43880 C 4311.9 1.58736 -1.15314 0
M  V30 43881 O 4311.03 2.12161 -0.426227 0
M  V30 43882 C 4311.62 0.504747 -3.35019 0
M  V30 43883 C 4310.18 0.955051 -3.64082 0
M  V30 43884 C 4309.33 0.0236742 -2.7729 0
M  V30 43885 H 4312.28 -0.454509 -1.52052 0
M  V30 43886 H 4312.3 1.34944 -3.55767 0
M  V30 43887 H 4311.81 -0.45097 -3.85471 0
M  V30 43888 H 4309.91 1.92377 -3.19095 0
M  V30 43889 H 4310.03 0.822532 -4.71986 0
M  V30 43890 H 4308.39 0.532286 -2.49076 0
M  V30 43891 H 4309.17 -0.92714 -3.30544 0
M  V30 43892 N 4311.62 1.57545 0.0417295 0
M  V30 43893 C 4312.85 1.92937 0.747181 0
M  V30 43894 C 4313.26 0.830239 1.69566 0
M  V30 43895 O 4312.62 -0.194331 1.81462 0
M  V30 43896 C 4312.67 3.28216 1.51514 0
M  V30 43897 O 4312.39 4.33906 0.604749 0
M  V30 43898 C 4313.89 3.77813 2.31889 0
M  V30 43899 H 4311.11 0.637046 0.210744 0
M  V30 43900 H 4313.65 2.045 0.00302902 0
M  V30 43901 H 4311.81 3.1809 2.21128 0
M  V30 43902 H 4312.22 5.11918 1.14196 0
M  V30 43903 H 4313.7 4.75014 2.81186 0
M  V30 43904 H 4314.17 3.08354 3.12753 0
M  V30 43905 H 4314.78 3.90981 1.67373 0
M  V30 43906 N 4313.1 -0.313759 1.54445 0
M  V30 43907 C 4314.01 -1.40933 1.8755 0
M  V30 43908 C 4315.02 -1.56116 0.768369 0
M  V30 43909 O 4316.2 -1.71024 1.06361 0
M  V30 43910 C 4313.26 -2.75504 2.10472 0
M  V30 43911 C 4312.32 -2.69415 3.34237 0
M  V30 43912 C 4311.56 -3.97567 3.56056 0
M  V30 43913 O 4311.78 -4.96311 2.81126 0
M  V30 43914 O 4310.71 -4.00232 4.49553 0
M  V30 43915 H 4314.54 -1.15863 2.8073 0
M  V30 43916 H 4312.12 -0.508674 1.40474 0
M  V30 43917 H 4314.01 -3.55147 2.26823 0
M  V30 43918 H 4312.68 -3.00444 1.20479 0
M  V30 43919 H 4311.59 -1.88288 3.23262 0
M  V30 43920 H 4312.92 -2.49428 4.24319 0
M  V30 43921 N 4314.57 -1.46684 -0.576319 0
M  V30 43922 C 4315.5 -1.60597 -1.69502 0
M  V30 43923 C 4316.48 -0.45605 -1.63872 0
M  V30 43924 O 4317.67 -0.683076 -1.8179 0
M  V30 43925 C 4314.8 -1.602 -3.08145 0
M  V30 43926 C 4313.75 -2.74226 -3.2861 0
M  V30 43927 C 4313.08 -2.58892 -4.67845 0
M  V30 43928 C 4314.38 -4.15994 -3.15826 0
M  V30 43929 H 4316.07 -2.54244 -1.58115 0
M  V30 43930 H 4313.62 -1.22358 -0.759249 0
M  V30 43931 H 4315.57 -1.68526 -3.86234 0
M  V30 43932 H 4314.3 -0.631008 -3.20446 0
M  V30 43933 H 4312.96 -2.65379 -2.52922 0
M  V30 43934 H 4312.6 -1.59863 -4.7692 0
M  V30 43935 H 4312.3 -3.35377 -4.82489 0
M  V30 43936 H 4313.83 -2.69119 -5.48094 0
M  V30 43937 H 4315.24 -4.25918 -3.83753 0
M  V30 43938 H 4313.64 -4.93116 -3.41989 0
M  V30 43939 H 4314.71 -4.35701 -2.1282 0
M  V30 43940 N 4316.05 0.821486 -1.34497 0
M  V30 43941 C 4317.3 1.57281 -1.26275 0
M  V30 43942 C 4317.61 1.94902 0.165116 0
M  V30 43943 O 4318.82 2.68974 0.36949 0
M  V30 43944 C 4317.28 2.83769 -2.21366 0
M  V30 43945 C 4316.88 2.53445 -3.69418 0
M  V30 43946 C 4318.63 3.61789 -2.22056 0
M  V30 43947 C 4316.53 3.76134 -4.56374 0
M  V30 43948 H 4315.46 0.590306 -0.4691 0
M  V30 43949 H 4318.12 0.9043 -1.5967 0
M  V30 43950 H 4316.5 3.52253 -1.80924 0
M  V30 43951 H 4317.67 1.93062 -4.18406 0
M  V30 43952 H 4315.99 1.88698 -3.7119 0
M  V30 43953 H 4318.58 4.5289 -2.84245 0
M  V30 43954 H 4318.93 3.98015 -1.22024 0
M  V30 43955 H 4319.46 3.0025 -2.6095 0
M  V30 43956 H 4316.2 3.45028 -5.57347 0
M  V30 43957 H 4315.72 4.35795 -4.1212 0
M  V30 43958 H 4317.4 4.43529 -4.71053 0
M  V30 43959 N 4317.53 1.1825 1.04186 0
M  V30 43960 C 4318.49 0.910544 2.10337 0
M  V30 43961 C 4319.49 -0.103579 1.60466 0
M  V30 43962 O 4320.68 0.129729 1.73716 0
M  V30 43963 C 4317.82 0.365899 3.38931 0
M  V30 43964 H 4319.01 1.85184 2.35896 0
M  V30 43965 H 4316.56 0.994354 1.20591 0
M  V30 43966 H 4317.3 -0.582059 3.19034 0
M  V30 43967 H 4317.08 1.09693 3.76444 0
M  V30 43968 H 4318.57 0.194283 4.17148 0
M  V30 43969 N 4319.01 -1.23079 0.984342 0
M  V30 43970 C 4320.25 -1.91884 0.656386 0
M  V30 43971 C 4320.59 -1.76569 -0.80851 0
M  V30 43972 O 4319.86 -1.12915 -1.58368 0
M  V30 43973 C 4320.15 -3.44377 1.05245 0
M  V30 43974 C 4320 -3.68782 2.57527 0
M  V30 43975 C 4321.32 -4.36001 0.599295 0
M  V30 43976 H 4318.44 -0.696851 0.239933 0
M  V30 43977 H 4321.08 -1.45124 1.22633 0
M  V30 43978 H 4319.23 -3.84333 0.567491 0
M  V30 43979 H 4320.9 -3.38283 3.13628 0
M  V30 43980 H 4319.14 -3.13357 2.99983 0
M  V30 43981 H 4319.81 -4.75543 2.8029 0
M  V30 43982 H 4322.29 -4.03512 1.01572 0
M  V30 43983 H 4321.17 -5.41391 0.904812 0
M  V30 43984 H 4321.43 -4.3926 -0.500282 0
M  V30 43985 N 4320.49 -0.756478 -1.38258 0
M  V30 43986 C 4321.4 -0.132837 -2.34224 0
M  V30 43987 C 4322.41 0.697323 -1.59416 0
M  V30 43988 O 4323.59 0.620804 -1.91593 0
M  V30 43989 C 4320.65 0.747623 -3.38543 0
M  V30 43990 C 4319.71 -0.0972415 -4.2919 0
M  V30 43991 C 4318.95 0.74129 -5.28527 0
M  V30 43992 O 4319.17 1.97916 -5.34963 0
M  V30 43993 O 4318.1 0.158564 -6.01691 0
M  V30 43994 H 4321.93 -0.92546 -2.89256 0
M  V30 43995 H 4319.52 -0.517413 -1.40154 0
M  V30 43996 H 4321.4 1.25074 -4.02411 0
M  V30 43997 H 4320.07 1.51869 -2.85863 0
M  V30 43998 H 4318.98 -0.646376 -3.68474 0
M  V30 43999 H 4320.31 -0.831033 -4.85134 0
M  V30 44000 N 4321.96 1.49264 -0.505783 0
M  V30 44001 C 4323.21 2.02066 0.0369632 0
M  V30 44002 C 4323.53 1.38725 1.37041 0
M  V30 44003 O 4322.8 0.544215 1.88189 0
M  V30 44004 H 4321.38 0.746814 0.0166497 0
M  V30 44005 H 4324.05 1.83236 -0.664112 0
M  V30 44006 H 4323.14 3.11673 0.163125 0
M  V30 44007 N 4323.44 0.239823 1.55765 0
M  V30 44008 C 4324.67 -0.391225 2.03168 0
M  V30 44009 C 4325.09 -1.52047 1.11925 0
M  V30 44010 O 4324.44 -1.8202 0.13231 0
M  V30 44011 C 4324.49 -0.905689 3.49971 0
M  V30 44012 O 4324.21 0.178545 4.37736 0
M  V30 44013 C 4325.72 -1.60814 4.13103 0
M  V30 44014 H 4322.94 -0.0937891 0.664413 0
M  V30 44015 H 4325.48 0.361619 2.01277 0
M  V30 44016 H 4323.63 -1.60874 3.52418 0
M  V30 44017 H 4324.05 -0.210972 5.24076 0
M  V30 44018 H 4325.52 -1.91991 5.17536 0
M  V30 44019 H 4326 -2.52766 3.59174 0
M  V30 44020 H 4326.61 -0.949842 4.14558 0
M  V30 44021 N 4324.92 -1.57565 -0.0333739 0
M  V30 44022 C 4325.83 -2.09672 -1.05237 0
M  V30 44023 C 4326.85 -1.03439 -1.39915 0
M  V30 44024 O 4328.02 -1.35149 -1.49321 0
M  V30 44025 C 4325.09 -2.56219 -2.33565 0
M  V30 44026 C 4324.15 -3.76915 -2.05508 0
M  V30 44027 C 4323.38 -4.21233 -3.27717 0
M  V30 44028 O 4323.6 -3.65109 -4.38237 0
M  V30 44029 O 4322.54 -5.13707 -3.1367 0
M  V30 44030 H 4326.36 -2.96889 -0.63956 0
M  V30 44031 H 4323.95 -1.47292 -0.250075 0
M  V30 44032 H 4325.83 -2.86507 -3.09017 0
M  V30 44033 H 4324.51 -1.72115 -2.7415 0
M  V30 44034 H 4323.41 -3.51652 -1.27638 0
M  V30 44035 H 4324.75 -4.61991 -1.69781 0
M  V30 44036 N 4326.4 0.305564 -1.54609 0
M  V30 44037 C 4327.65 1.03895 -1.72883 0
M  V30 44038 C 4327.96 1.88583 -0.519228 0
M  V30 44039 O 4329.17 2.65152 -0.58368 0
M  V30 44040 C 4327.62 1.89684 -3.05856 0
M  V30 44041 C 4327.23 1.10021 -4.3428 0
M  V30 44042 C 4328.97 2.6265 -3.3349 0
M  V30 44043 C 4326.88 1.9506 -5.58306 0
M  V30 44044 H 4325.81 0.39161 -0.644327 0
M  V30 44045 H 4328.46 0.296192 -1.81094 0
M  V30 44046 H 4326.84 2.6793 -2.91599 0
M  V30 44047 H 4328.02 0.364212 -4.59358 0
M  V30 44048 H 4326.33 0.48658 -4.13547 0
M  V30 44049 H 4328.93 3.26616 -4.23351 0
M  V30 44050 H 4329.27 3.3124 -2.52163 0
M  V30 44051 H 4329.81 1.91456 -3.48697 0
M  V30 44052 H 4326.55 1.30948 -6.42287 0
M  V30 44053 H 4326.07 2.66345 -5.3742 0
M  V30 44054 H 4327.74 2.53217 -5.95391 0
M  V30 44055 N 4327.88 1.46988 0.568532 0
M  V30 44056 C 4328.81 1.61494 1.68648 0
M  V30 44057 C 4329.79 0.464735 1.63628 0
M  V30 44058 O 4330.97 0.692708 1.81425 0
M  V30 44059 C 4328.1 1.61832 3.07291 0
M  V30 44060 C 4327.06 2.75964 3.27151 0
M  V30 44061 C 4326.38 2.61369 4.66466 0
M  V30 44062 C 4327.68 4.17663 3.13616 0
M  V30 44063 H 4329.38 2.55079 1.56764 0
M  V30 44064 H 4326.92 1.22759 0.75275 0
M  V30 44065 H 4328.88 1.70572 3.85335 0
M  V30 44066 H 4327.6 0.647993 3.20107 0
M  V30 44067 H 4326.26 2.66717 2.51511 0
M  V30 44068 H 4325.91 1.6239 4.76066 0
M  V30 44069 H 4325.61 3.37931 4.80704 0
M  V30 44070 H 4327.13 2.72021 5.4666 0
M  V30 44071 H 4328.54 4.27947 3.81489 0
M  V30 44072 H 4326.94 4.94923 3.39369 0
M  V30 44073 H 4328.01 4.36824 2.10507 0
M  V30 44074 N 4329.35 -0.814342 1.3493 0
M  V30 44075 C 4330.29 -1.9336 1.23063 0
M  V30 44076 C 4331.3 -1.62054 0.155704 0
M  V30 44077 O 4332.49 -1.73767 0.408308 0
M  V30 44078 C 4329.59 -3.27528 0.87055 0
M  V30 44079 C 4328.76 -3.86796 2.04224 0
M  V30 44080 C 4327.82 -4.99357 1.65918 0
M  V30 44081 O 4326.85 -5.17196 2.3769 0
M  V30 44082 N 4328.05 -5.77612 0.578305 0
M  V30 44083 H 4330.81 -2.0407 2.1949 0
M  V30 44084 H 4328.37 -0.991368 1.27998 0
M  V30 44085 H 4330.37 -4.00288 0.595921 0
M  V30 44086 H 4328.94 -3.126 -0.00379062 0
M  V30 44087 H 4328.16 -3.06324 2.48111 0
M  V30 44088 H 4329.44 -4.23126 2.82564 0
M  V30 44089 H 4328.84 -5.65697 -0.0181737 0
M  V30 44090 H 4327.4 -6.50786 0.363434 0
M  V30 44091 N 4330.83 -1.18801 -1.03557 0
M  V30 44092 C 4332.11 -0.896021 -1.7387 0
M  V30 44093 C 4332.49 0.599915 -2.02396 0
M  V30 44094 O 4331.84 1.55613 -1.67322 0
M  V30 44095 C 4332.05 -1.74876 -3.02025 0
M  V30 44096 C 4333.4 -1.97893 -3.75664 0
M  V30 44097 O 4334.42 -1.71972 -3.11936 0
M  V30 44098 O 4333.28 -2.41561 -4.90215 0
M  V30 44099 H 4330.37 -0.33332 -0.756853 0
M  V30 44100 H 4332.92 -1.2958 -1.09577 0
M  V30 44101 H 4331.69 -2.7626 -2.77121 0
M  V30 44102 H 4331.31 -1.34783 -3.74058 0
M  V30 44103 N 4332.31 1.22555 -0.990855 0
M  V30 44104 C 4333.56 1.9125 -0.665566 0
M  V30 44105 C 4333.89 1.77189 0.802141 0
M  V30 44106 O 4333.14 1.13341 1.59538 0
M  V30 44107 C 4333.44 3.4269 -1.0148 0
M  V30 44108 C 4333.11 3.76938 -2.47443 0
M  V30 44109 C 4331.77 3.85997 -2.87332 0
M  V30 44110 C 4334.12 3.93247 -3.42062 0
M  V30 44111 C 4331.45 4.088 -4.20832 0
M  V30 44112 C 4333.8 4.17553 -4.75218 0
M  V30 44113 C 4332.46 4.24835 -5.14851 0
M  V30 44114 H 4331.73 0.699832 -0.243548 0
M  V30 44115 H 4334.38 1.45364 -1.24666 0
M  V30 44116 H 4332.69 3.90218 -0.351754 0
M  V30 44117 H 4334.38 3.94091 -0.741173 0
M  V30 44118 H 4330.97 3.70469 -2.15524 0
M  V30 44119 H 4335.16 3.85628 -3.12417 0
M  V30 44120 H 4330.41 4.12664 -4.5113 0
M  V30 44121 H 4334.59 4.29115 -5.48483 0
M  V30 44122 H 4332.21 4.42257 -6.18314 0
M  V30 44123 N 4333.79 0.763799 1.37855 0
M  V30 44124 C 4334.72 0.103005 2.28968 0
M  V30 44125 C 4335.73 -0.672806 1.48247 0
M  V30 44126 O 4336.92 -0.51221 1.70993 0
M  V30 44127 C 4334.02 -0.877937 3.27331 0
M  V30 44128 C 4333.2 -0.157621 4.37116 0
M  V30 44129 C 4332.26 -1.05078 5.15602 0
M  V30 44130 O 4331.28 -0.517505 5.66843 0
M  V30 44131 N 4332.48 -2.37788 5.29563 0
M  V30 44132 H 4335.25 0.885549 2.86318 0
M  V30 44133 H 4332.81 0.61546 1.49745 0
M  V30 44134 H 4334.8 -1.4787 3.76718 0
M  V30 44135 H 4333.37 -1.5615 2.70806 0
M  V30 44136 H 4332.59 0.623971 3.8923 0
M  V30 44137 H 4333.88 0.34042 5.0766 0
M  V30 44138 H 4333.28 -2.83558 4.89501 0
M  V30 44139 H 4331.83 -2.9289 5.82288 0
M  V30 44140 N 4335.27 -1.48993 0.513692 0
M  V30 44141 C 4336.22 -2.3101 -0.271492 0
M  V30 44142 C 4337.21 -1.40195 -0.950886 0
M  V30 44143 O 4338.42 -1.57183 -0.877128 0
M  V30 44144 H 4334.79 -0.744432 -0.106416 0
M  V30 44145 H 4336.76 -2.95137 0.440059 0
M  V30 44146 C 4335.51 -3.21856 -1.31544 0
M  V30 44147 H 4334.83 -3.91672 -0.802065 0
M  V30 44148 H 4336.27 -3.8216 -1.83657 0
M  V30 44149 C 4334.73 -2.42336 -2.34041 0
M  V30 44150 O 4335.26 -2.13653 -3.4017 0
M  V30 44151 N 4333.47 -2.04127 -2.06835 0
M  V30 44152 H 4333.02 -2.27653 -1.20548 0
M  V30 44153 H 4332.97 -1.5123 -2.75639 0
M  V30 44154 N 4336.75 -0.248081 -1.55635 0
M  V30 44155 C 4337.69 0.650973 -2.21429 0
M  V30 44156 C 4338.66 1.17043 -1.17857 0
M  V30 44157 O 4339.85 1.22468 -1.46308 0
M  V30 44158 C 4336.99 1.84169 -2.91849 0
M  V30 44159 C 4336.1 1.35864 -4.10079 0
M  V30 44160 C 4335.24 2.50901 -4.68212 0
M  V30 44161 C 4334.27 1.99465 -5.78688 0
M  V30 44162 N 4333.41 3.07872 -6.30999 0
M  V30 44163 H 4338.25 0.0832235 -2.97884 0
M  V30 44164 H 4335.79 0.0293165 -1.47071 0
M  V30 44165 H 4337.75 2.54118 -3.30877 0
M  V30 44166 H 4336.38 2.38189 -2.17866 0
M  V30 44167 H 4335.43 0.553153 -3.76357 0
M  V30 44168 H 4336.74 0.94169 -4.8983 0
M  V30 44169 H 4335.89 3.2889 -5.0982 0
M  V30 44170 H 4334.63 2.95899 -3.87679 0
M  V30 44171 H 4333.64 1.19946 -5.36557 0
M  V30 44172 H 4334.86 1.55435 -6.61072 0
M  V30 44173 H 4332.81 3.52302 -5.53371 0
M  V30 44174 H 4332.73 2.70511 -7.05946 0
M  V30 44175 H 4333.99 3.85918 -6.77265 0
M  V30 44176 N 4338.22 1.5758 0.0250174 0
M  V30 44177 C 4339.45 1.93719 0.726676 0
M  V30 44178 C 4339.87 0.848177 1.68675 0
M  V30 44179 O 4339.22 -0.175073 1.81658 0
M  V30 44180 C 4339.27 3.29805 1.48024 0
M  V30 44181 O 4339 4.34523 0.558693 0
M  V30 44182 C 4340.5 3.80251 2.27869 0
M  V30 44183 H 4337.72 0.639246 0.203975 0
M  V30 44184 H 4340.26 2.04491 -0.0186611 0
M  V30 44185 H 4338.42 3.20417 2.17742 0
M  V30 44186 H 4338.83 5.131 1.0876 0
M  V30 44187 H 4340.3 4.7797 2.76132 0
M  V30 44188 H 4340.78 3.11654 3.09465 0
M  V30 44189 H 4341.39 3.92734 1.63217 0
M  V30 44190 N 4339.7 -0.29736 1.54769 0
M  V30 44191 C 4340.98 -1.05193 1.64906 0
M  V30 44192 C 4341.36 -2.05101 0.499694 0
M  V30 44193 O 4340.71 -2.22891 -0.503163 0
M  V30 44194 C 4340.92 -1.73053 3.03074 0
M  V30 44195 C 4342.26 -2.25116 3.60011 0
M  V30 44196 O 4343.29 -1.8308 3.05549 0
M  V30 44197 O 4342.15 -3.0215 4.55377 0
M  V30 44198 H 4339.24 -0.486433 0.668814 0
M  V30 44199 H 4341.79 -0.295158 1.67113 0
M  V30 44200 H 4340.56 -1.00527 3.78167 0
M  V30 44201 H 4340.18 -2.55477 3.04659 0
M  V30 44202 N 4341.18 -1.47287 -0.560729 0
M  V30 44203 C 4342.43 -1.53428 -1.31546 0
M  V30 44204 C 4342.75 -0.196682 -1.94006 0
M  V30 44205 O 4342.02 0.779017 -1.79745 0
M  V30 44206 H 4340.6 -0.565149 -0.488483 0
M  V30 44207 H 4343.26 -1.83563 -0.655039 0
M  V30 44208 H 4342.36 -2.29894 -2.11081 0
M  V30 44209 N 4342.66 0.807175 -1.3536 0
M  V30 44210 C 4343.59 1.92705 -1.24087 0
M  V30 44211 C 4344.6 1.61969 -0.164295 0
M  V30 44212 O 4345.79 1.73548 -0.417518 0
M  V30 44213 C 4342.89 3.27062 -0.887907 0
M  V30 44214 C 4342.06 3.85708 -2.06273 0
M  V30 44215 C 4341.12 4.9847 -1.68564 0
M  V30 44216 O 4340.15 5.15929 -2.4043 0
M  V30 44217 N 4341.35 5.77297 -0.608929 0
M  V30 44218 H 4344.12 2.02903 -2.20569 0
M  V30 44219 H 4341.68 0.984566 -1.28522 0
M  V30 44220 H 4343.67 3.99967 -0.617141 0
M  V30 44221 H 4342.24 3.12597 -0.0127874 0
M  V30 44222 H 4341.46 3.05004 -2.49733 0
M  V30 44223 H 4342.75 4.21621 -2.84804 0
M  V30 44224 H 4342.15 5.65699 -0.0118268 0
M  V30 44225 H 4340.7 6.50584 -0.397941 0
M  V30 44226 N 4344.14 1.19348 1.02926 0
M  V30 44227 C 4345.38 0.997355 1.76581 0
M  V30 44228 C 4345.71 -0.470767 1.88408 0
M  V30 44229 O 4344.99 -1.34958 1.40059 0
M  V30 44230 C 4345.27 1.66653 3.19216 0
M  V30 44231 C 4345.13 3.20827 3.15262 0
M  V30 44232 C 4346.44 1.3892 4.17599 0
M  V30 44233 H 4343.56 0.363734 0.640989 0
M  V30 44234 H 4346.21 1.47182 1.20156 0
M  V30 44235 H 4344.36 1.26312 3.67393 0
M  V30 44236 H 4346.03 3.70379 2.74986 0
M  V30 44237 H 4344.27 3.52391 2.52988 0
M  V30 44238 H 4344.94 3.62795 4.16034 0
M  V30 44239 H 4347.42 1.73894 3.78021 0
M  V30 44240 H 4346.29 1.88292 5.15594 0
M  V30 44241 H 4346.55 0.314276 4.40982 0
M  V30 44242 N 4345.61 -1.22028 0.997341 0
M  V30 44243 C 4346.84 -1.95444 0.694005 0
M  V30 44244 C 4347.26 -1.7312 -0.735608 0
M  V30 44245 O 4346.62 -1.0132 -1.50346 0
M  V30 44246 C 4346.67 -3.46135 1.0111 0
M  V30 44247 O 4345.77 -4.12247 0.112173 0
M  V30 44248 H 4345.11 -0.611273 0.25931 0
M  V30 44249 H 4347.64 -1.55 1.33552 0
M  V30 44250 H 4347.65 -3.96671 0.954773 0
M  V30 44251 H 4346.33 -3.61708 2.05281 0
M  V30 44252 H 4344.91 -3.72224 0.224363 0
M  V30 44253 N 4347.09 -0.771099 -1.37448 0
M  V30 44254 C 4348.34 -0.334465 -1.99313 0
M  V30 44255 C 4348.66 1.09257 -1.61517 0
M  V30 44256 O 4347.93 1.75007 -0.880309 0
M  V30 44257 H 4346.51 -0.120677 -0.737188 0
M  V30 44258 H 4349.17 -0.989082 -1.67938 0
M  V30 44259 H 4348.27 -0.41158 -3.09374 0
M  V30 44260 N 4348.57 1.48719 -0.521586 0
M  V30 44261 C 4349.48 2.33266 0.249806 0
M  V30 44262 C 4350.5 1.45955 0.947271 0
M  V30 44263 O 4351.67 1.78948 0.924094 0
M  V30 44264 C 4348.74 3.2188 1.28818 0
M  V30 44265 C 4347.8 4.25059 0.601966 0
M  V30 44266 C 4347.03 5.09438 1.59087 0
M  V30 44267 O 4347.25 4.95659 2.82273 0
M  V30 44268 O 4346.19 5.91104 1.13487 0
M  V30 44269 H 4350.01 3.00455 -0.442778 0
M  V30 44270 H 4347.6 1.46703 -0.282619 0
M  V30 44271 H 4349.48 3.76716 1.88846 0
M  V30 44272 H 4348.16 2.57362 1.96333 0
M  V30 44273 H 4347.06 3.7408 -0.0385913 0
M  V30 44274 H 4348.4 4.9219 -0.031087 0
M  V30 44275 N 4350.05 0.256331 1.55501 0
M  V30 44276 C 4351.01 -0.625975 2.20486 0
M  V30 44277 C 4352.01 -1.09564 1.17696 0
M  V30 44278 O 4353.2 -0.998831 1.4272 0
M  V30 44279 C 4350.33 -1.86144 2.85593 0
M  V30 44280 H 4351.53 -0.0588597 2.99842 0
M  V30 44281 H 4349.08 0.00683387 1.56299 0
M  V30 44282 H 4349.81 -2.46955 2.10199 0
M  V30 44283 H 4349.6 -1.53279 3.60899 0
M  V30 44284 H 4351.09 -2.48929 3.35297 0
M  V30 44285 N 4351.53 -1.57591 -0.0166602 0
M  V30 44286 C 4352.78 -1.89013 -0.704061 0
M  V30 44287 C 4353.09 -0.856468 -1.75852 0
M  V30 44288 O 4354.29 -1.06033 -2.49938 0
M  V30 44289 C 4352.75 -3.3547 -1.30337 0
M  V30 44290 C 4352.36 -4.47095 -0.284608 0
M  V30 44291 C 4354.1 -3.76024 -1.96993 0
M  V30 44292 C 4352.01 -5.8462 -0.892965 0
M  V30 44293 H 4350.94 -0.705248 -0.266723 0
M  V30 44294 H 4353.59 -1.83454 0.0411531 0
M  V30 44295 H 4351.97 -3.35813 -2.0987 0
M  V30 44296 H 4353.15 -4.58241 0.484916 0
M  V30 44297 H 4351.46 -4.15454 0.28056 0
M  V30 44298 H 4354.06 -4.76097 -2.43383 0
M  V30 44299 H 4354.4 -3.08665 -2.79342 0
M  V30 44300 H 4354.93 -3.77909 -1.24217 0
M  V30 44301 H 4351.67 -6.5541 -0.10862 0
M  V30 44302 H 4351.19 -5.77169 -1.63204 0
M  V30 44303 H 4352.87 -6.31747 -1.39661 0
M  V30 44304 N 4353 0.289148 -1.54925 0
M  V30 44305 C 4353.95 1.35698 -1.86694 0
M  V30 44306 C 4354.92 1.49832 -0.716911 0
M  V30 44307 O 4356.11 1.645 -0.966666 0
M  V30 44308 C 4353.25 2.71505 -2.13023 0
M  V30 44309 C 4352.36 2.65724 -3.40609 0
M  V30 44310 C 4351.49 3.93604 -3.56721 0
M  V30 44311 C 4350.53 3.82268 -4.78056 0
M  V30 44312 N 4349.67 5.01948 -4.9091 0
M  V30 44313 H 4354.51 1.07904 -2.77778 0
M  V30 44314 H 4352.05 0.521656 -1.3754 0
M  V30 44315 H 4354.01 3.505 -2.26286 0
M  V30 44316 H 4352.64 2.97534 -1.25193 0
M  V30 44317 H 4351.69 1.78527 -3.35905 0
M  V30 44318 H 4353 2.53242 -4.29733 0
M  V30 44319 H 4352.15 4.81038 -3.69712 0
M  V30 44320 H 4350.89 4.08934 -2.65752 0
M  V30 44321 H 4349.9 2.93217 -4.65085 0
M  V30 44322 H 4351.12 3.68472 -5.70443 0
M  V30 44323 H 4349.07 5.17719 -4.02868 0
M  V30 44324 H 4348.99 4.91934 -5.74053 0
M  V30 44325 H 4350.25 5.91 -5.08271 0
M  V30 44326 N 4354.48 1.47583 0.55291 0
M  V30 44327 C 4355.42 1.54937 1.6754 0
M  V30 44328 C 4356.39 0.401235 1.57572 0
M  V30 44329 O 4357.58 0.60964 1.78369 0
M  V30 44330 C 4354.7 1.45594 3.05811 0
M  V30 44331 C 4353.75 2.64963 3.34211 0
M  V30 44332 S 4354.58 4.27125 3.22993 0
M  V30 44333 C 4355.74 4.20341 4.6375 0
M  V30 44334 H 4355.97 2.49902 1.61048 0
M  V30 44335 H 4353.51 1.35834 0.734072 0
M  V30 44336 H 4355.46 1.4089 3.85565 0
M  V30 44337 H 4354.12 0.52006 3.09765 0
M  V30 44338 H 4353.32 2.54501 4.35023 0
M  V30 44339 H 4352.92 2.66811 2.62083 0
M  V30 44340 H 4355.21 3.8886 5.54792 0
M  V30 44341 H 4356.15 5.21255 4.79269 0
M  V30 44342 H 4356.56 3.51138 4.41998 0
M  V30 44343 N 4355.96 -0.799985 1.35787 0
M  V30 44344 C 4357.21 -1.55739 1.29428 0
M  V30 44345 C 4357.54 -1.94069 -0.129453 0
M  V30 44346 O 4356.79 -1.62112 -1.09628 0
M  V30 44347 C 4357.09 -2.85298 2.15266 0
M  V30 44348 C 4356.76 -2.66156 3.63967 0
M  V30 44349 C 4355.42 -2.60643 4.04498 0
M  V30 44350 C 4357.77 -2.48229 4.58292 0
M  V30 44351 C 4355.1 -2.35156 5.37511 0
M  V30 44352 C 4357.45 -2.2427 5.91511 0
M  V30 44353 C 4356.11 -2.17184 6.31179 0
M  V30 44354 H 4355.38 -0.569889 0.473611 0
M  V30 44355 H 4358.03 -0.923813 1.67744 0
M  V30 44356 H 4356.34 -3.53068 1.69853 0
M  V30 44357 H 4358.03 -3.43032 2.07678 0
M  V30 44358 H 4354.62 -2.71297 3.31807 0
M  V30 44359 H 4358.81 -2.51496 4.27859 0
M  V30 44360 H 4354.06 -2.28144 5.67239 0
M  V30 44361 H 4358.24 -2.09391 6.64175 0
M  V30 44362 H 4355.86 -1.97197 7.34178 0
M  V30 44363 N 4357.44 -1.19892 -1.02292 0
M  V30 44364 C 4358.85 -1.00663 -1.57238 0
M  V30 44365 C 4359.2 0.438786 -1.91231 0
M  V30 44366 O 4358.33 1.31916 -1.71543 0
M  V30 44367 C 4358.92 -1.82099 -2.85701 0
M  V30 44368 C 4357.48 -1.67254 -3.37199 0
M  V30 44369 C 4356.63 -1.80427 -2.10574 0
M  V30 44370 H 4359.58 -1.34177 -0.847487 0
M  V30 44371 H 4359.6 -1.32062 -3.56847 0
M  V30 44372 H 4359.11 -2.87293 -2.6093 0
M  V30 44373 H 4357.21 -0.64671 -3.66945 0
M  V30 44374 H 4357.32 -2.48149 -4.09828 0
M  V30 44375 H 4355.69 -1.23549 -2.22728 0
M  V30 44376 H 4356.47 -2.87093 -1.88236 0
M  V30 44377 N 4358.92 1.21498 -1.0038 0
M  V30 44378 C 4360.14 1.94533 -0.704607 0
M  V30 44379 C 4360.56 1.74007 0.732601 0
M  V30 44380 O 4359.92 1.04594 1.49554 0
M  V30 44381 C 4359.97 3.46968 -1.01467 0
M  V30 44382 O 4359.69 3.66812 -2.39542 0
M  V30 44383 C 4361.19 4.37169 -0.734718 0
M  V30 44384 H 4358.41 0.618682 -0.259758 0
M  V30 44385 H 4360.95 1.54349 -1.34152 0
M  V30 44386 H 4359.11 3.8508 -0.423381 0
M  V30 44387 H 4359.52 4.60918 -2.5031 0
M  V30 44388 H 4361 5.42832 -1.00185 0
M  V30 44389 H 4361.47 4.37949 0.331252 0
M  V30 44390 H 4362.08 4.04701 -1.30756 0
M  V30 44391 N 4360.39 0.778378 1.37037 0
M  V30 44392 C 4361.64 0.34236 1.98773 0
M  V30 44393 C 4361.96 -1.08895 1.62484 0
M  V30 44394 O 4363.16 -1.62669 2.17373 0
M  V30 44395 C 4361.62 0.561171 3.55498 0
M  V30 44396 C 4361.23 2.00318 4.0072 0
M  V30 44397 C 4362.97 0.189107 4.24079 0
M  V30 44398 C 4360.88 2.16923 5.5018 0
M  V30 44399 H 4359.81 0.124265 0.74369 0
M  V30 44400 H 4362.46 0.958447 1.5648 0
M  V30 44401 H 4360.84 -0.12447 3.95804 0
M  V30 44402 H 4362.01 2.72431 3.71642 0
M  V30 44403 H 4360.33 2.33245 3.44943 0
M  V30 44404 H 4362.93 0.291603 5.33904 0
M  V30 44405 H 4363.27 -0.861454 4.07289 0
M  V30 44406 H 4363.8 0.827553 3.89097 0
M  V30 44407 H 4360.54 3.20322 5.71904 0
M  V30 44408 H 4360.06 1.49301 5.80921 0
M  V30 44409 H 4361.74 1.97104 6.16246 0
M  V30 44410 N 4361.87 -1.4844 0.529465 0
M  V30 44411 C 4362.82 -2.29615 -0.233586 0
M  V30 44412 C 4363.79 -1.37333 -0.934277 0
M  V30 44413 O 4364.98 -1.66297 -0.935404 0
M  V30 44414 C 4362.12 -3.20689 -1.27486 0
M  V30 44415 C 4361.23 -4.28047 -0.58306 0
M  V30 44416 C 4360.36 -5.06302 -1.60722 0
M  V30 44417 C 4359.4 -6.05464 -0.898855 0
M  V30 44418 N 4358.54 -6.76779 -1.86853 0
M  V30 44419 H 4363.38 -2.94353 0.46482 0
M  V30 44420 H 4360.92 -1.45111 0.241063 0
M  V30 44421 H 4362.87 -3.7189 -1.89086 0
M  V30 44422 H 4361.5 -2.57875 -1.94165 0
M  V30 44423 H 4360.56 -3.80116 0.146871 0
M  V30 44424 H 4361.87 -4.98793 -0.0268391 0
M  V30 44425 H 4361.02 -5.61515 -2.29751 0
M  V30 44426 H 4359.76 -4.35395 -2.19733 0
M  V30 44427 H 4358.77 -5.49456 -0.194483 0
M  V30 44428 H 4359.99 -6.7837 -0.314859 0
M  V30 44429 H 4357.94 -6.08623 -2.44774 0
M  V30 44430 H 4357.85 -7.43598 -1.36373 0
M  V30 44431 H 4359.12 -7.36582 -2.55083 0
M  V30 44432 N 4363.35 -0.264574 -1.55363 0
M  V30 44433 C 4364.58 0.358853 -2.03764 0
M  V30 44434 C 4364.99 1.50247 -1.1433 0
M  V30 44435 O 4364.35 1.81786 -0.161251 0
M  V30 44436 C 4364.4 0.849897 -3.51367 0
M  V30 44437 O 4364.12 -0.248163 -4.37397 0
M  V30 44438 C 4365.62 1.54222 -4.15609 0
M  V30 44439 H 4362.84 0.083207 -0.665821 0
M  V30 44440 H 4365.39 -0.393595 -2.00677 0
M  V30 44441 H 4363.54 1.55247 -3.54933 0
M  V30 44442 H 4363.96 0.127569 -5.24345 0
M  V30 44443 H 4365.43 1.83733 -5.20525 0
M  V30 44444 H 4365.91 2.4702 -3.6315 0
M  V30 44445 H 4366.51 0.88377 -4.16016 0
M  V30 44446 N 4364.83 1.57598 0.00830251 0
M  V30 44447 C 4366.24 1.78347 0.552214 0
M  V30 44448 C 4366.59 0.89822 1.74432 0
M  V30 44449 O 4365.72 0.098489 2.16176 0
M  V30 44450 C 4366.31 3.2344 1.00856 0
M  V30 44451 C 4364.87 3.45314 1.49784 0
M  V30 44452 C 4364.02 2.73702 0.445261 0
M  V30 44453 H 4366.97 1.57197 -0.21789 0
M  V30 44454 H 4366.99 3.31096 1.87498 0
M  V30 44455 H 4366.5 3.87845 0.140726 0
M  V30 44456 H 4364.6 2.86113 2.38684 0
M  V30 44457 H 4364.72 4.53978 1.53103 0
M  V30 44458 H 4363.08 2.38078 0.905028 0
M  V30 44459 H 4363.86 3.40801 -0.413466 0
M  V30 44460 N 4366.31 -0.280928 1.55076 0
M  V30 44461 C 4367.22 -1.36923 1.90497 0
M  V30 44462 C 4368.23 -1.54451 0.80131 0
M  V30 44463 O 4369.41 -1.6873 1.09965 0
M  V30 44464 C 4366.47 -2.70977 2.16269 0
M  V30 44465 C 4365.54 -2.62264 3.39876 0
M  V30 44466 C 4364.77 -3.89925 3.64409 0
M  V30 44467 O 4364.99 -4.90236 2.9159 0
M  V30 44468 O 4363.93 -3.90607 4.57941 0
M  V30 44469 H 4367.75 -1.09883 2.83125 0
M  V30 44470 H 4365.34 -0.478763 1.41521 0
M  V30 44471 H 4367.22 -3.50256 2.34305 0
M  V30 44472 H 4365.89 -2.97821 1.26825 0
M  V30 44473 H 4364.8 -1.81389 3.27183 0
M  V30 44474 H 4366.13 -2.40372 4.29514 0
M  V30 44475 N 4367.79 -1.47874 -0.545076 0
M  V30 44476 C 4368.75 -1.60807 -1.63321 0
M  V30 44477 C 4369.75 -0.482321 -1.53396 0
M  V30 44478 O 4370.94 -0.74772 -1.57337 0
M  V30 44479 C 4368.07 -1.56404 -3.02904 0
M  V30 44480 H 4369.26 -2.57818 -1.53199 0
M  V30 44481 H 4366.82 -1.36245 -0.76596 0
M  V30 44482 H 4367.55 -0.60814 -3.18547 0
M  V30 44483 H 4367.34 -2.38117 -3.11517 0
M  V30 44484 H 4368.83 -1.68617 -3.82045 0
M  V30 44485 N 4369.26 0.792773 -1.36209 0
M  V30 44486 C 4370.51 1.54744 -1.29995 0
M  V30 44487 C 4370.83 1.94622 0.121412 0
M  V30 44488 O 4370.1 1.64685 1.06093 0
M  V30 44489 H 4368.68 0.573881 -0.478194 0
M  V30 44490 H 4371.34 0.944815 -1.70468 0
M  V30 44491 H 4370.44 2.45655 -1.9251 0
M  V30 44492 N 4370.74 1.20433 1.01654 0
M  V30 44493 C 4371.97 1.04015 1.78853 0
M  V30 44494 C 4372.38 -0.410629 1.8428 0
M  V30 44495 O 4371.74 -1.2851 1.29582 0
M  V30 44496 C 4371.79 1.61702 3.23318 0
M  V30 44497 O 4371.51 3.01102 3.18228 0
M  V30 44498 C 4373.01 1.50237 4.17066 0
M  V30 44499 H 4370.23 0.3659 0.562457 0
M  V30 44500 H 4372.78 1.59521 1.27958 0
M  V30 44501 H 4370.93 1.10315 3.71361 0
M  V30 44502 H 4371.35 3.28476 4.08905 0
M  V30 44503 H 4372.82 1.95361 5.16273 0
M  V30 44504 H 4373.3 0.454868 4.36838 0
M  V30 44505 H 4373.9 2.00815 3.74905 0
M  V30 44506 N 4372.22 -1.20963 1.01023 0
M  V30 44507 C 4373.47 -1.90448 0.696939 0
M  V30 44508 C 4373.8 -1.78245 -0.770875 0
M  V30 44509 O 4373.07 -1.16249 -1.55937 0
M  V30 44510 C 4373.36 -3.42067 1.12527 0
M  V30 44511 C 4373.21 -3.63236 2.65292 0
M  V30 44512 C 4374.53 -4.34631 0.691642 0
M  V30 44513 H 4371.65 -0.691605 0.25466 0
M  V30 44514 H 4374.29 -1.4249 1.25684 0
M  V30 44515 H 4372.44 -3.83043 0.648886 0
M  V30 44516 H 4374.11 -3.31554 3.20733 0
M  V30 44517 H 4372.35 -3.06923 3.06562 0
M  V30 44518 H 4373.03 -4.69491 2.90314 0
M  V30 44519 H 4375.5 -4.01267 1.10108 0
M  V30 44520 H 4374.38 -5.3935 1.01945 0
M  V30 44521 H 4374.64 -4.40223 -0.406996 0
M  V30 44522 N 4373.7 -0.785634 -1.36622 0
M  V30 44523 C 4374.95 -0.352896 -1.98589 0
M  V30 44524 C 4375.26 1.08032 -1.6306 0
M  V30 44525 O 4376.47 1.61514 -2.18233 0
M  V30 44526 C 4374.92 -0.580016 -3.55195 0
M  V30 44527 C 4374.53 -2.0244 -3.99652 0
M  V30 44528 C 4376.27 -0.211594 -4.23972 0
M  V30 44529 C 4374.18 -2.19838 -5.49022 0
M  V30 44530 H 4373.11 -0.128207 -0.74302 0
M  V30 44531 H 4375.76 -0.966732 -1.5597 0
M  V30 44532 H 4374.14 0.103478 -3.95865 0
M  V30 44533 H 4375.32 -2.74398 -3.70192 0
M  V30 44534 H 4373.63 -2.35071 -3.43701 0
M  V30 44535 H 4376.23 -0.319913 -5.33742 0
M  V30 44536 H 4376.57 0.839842 -4.07741 0
M  V30 44537 H 4377.11 -0.848176 -3.88653 0
M  V30 44538 H 4373.84 -3.23351 -5.70197 0
M  V30 44539 H 4373.36 -1.5238 -5.80121 0
M  V30 44540 H 4375.04 -2.00369 -6.15192 0
M  V30 44541 N 4375.18 1.48157 -0.53733 0
M  V30 44542 C 4376.4 2.06897 -0.0101846 0
M  V30 44543 C 4376.82 1.39286 1.27456 0
M  V30 44544 O 4376.18 0.482771 1.75999 0
M  V30 44545 C 4376.23 3.60891 0.209832 0
M  V30 44546 O 4375.95 4.25964 -1.02402 0
M  V30 44547 C 4377.45 4.36446 0.776525 0
M  V30 44548 H 4374.67 0.669988 -0.0368345 0
M  V30 44549 H 4377.21 1.90444 -0.745072 0
M  V30 44550 H 4375.37 3.76925 0.894789 0
M  V30 44551 H 4375.78 5.18218 -0.809322 0
M  V30 44552 H 4377.26 5.44943 0.879859 0
M  V30 44553 H 4377.73 4.01372 1.78317 0
M  V30 44554 H 4378.34 4.25108 0.1279 0
M  V30 44555 N 4376.65 0.272809 1.55221 0
M  V30 44556 C 4377.88 -0.348042 2.03952 0
M  V30 44557 C 4378.3 -1.49638 1.15125 0
M  V30 44558 O 4377.65 -1.81698 0.170889 0
M  V30 44559 C 4377.71 -0.831251 3.51813 0
M  V30 44560 O 4377.43 0.271355 4.37259 0
M  V30 44561 C 4378.93 -1.52015 4.16421 0
M  V30 44562 H 4376.15 -0.0796748 0.666253 0
M  V30 44563 H 4378.69 0.404232 2.00465 0
M  V30 44564 H 4376.85 -1.53362 3.55751 0
M  V30 44565 H 4377.26 -0.09976 5.24405 0
M  V30 44566 H 4378.73 -1.8097 5.21492 0
M  V30 44567 H 4379.21 -2.45091 3.64455 0
M  V30 44568 H 4379.82 -0.861695 4.16479 0
M  V30 44569 N 4378.13 -1.576 5.54043e-05 0
M  V30 44570 C 4379.1 -2.07373 -0.97618 0
M  V30 44571 C 4380.1 -0.983135 -1.27244 0
M  V30 44572 O 4381.29 -1.24578 -1.21762 0
M  V30 44573 C 4378.42 -2.51522 -2.30108 0
M  V30 44574 H 4379.61 -2.94894 -0.545655 0
M  V30 44575 H 4377.16 -1.54329 -0.247417 0
M  V30 44576 H 4377.9 -1.67243 -2.77849 0
M  V30 44577 H 4377.68 -3.31171 -2.09925 0
M  V30 44578 H 4379.17 -2.90356 -3.00139 0
M  V30 44579 N 4379.61 0.2727 -1.55223 0
M  V30 44580 C 4380.89 1.02556 -1.66558 0
M  V30 44581 C 4381.27 2.0428 -0.532261 0
M  V30 44582 O 4380.62 2.23664 0.467639 0
M  V30 44583 C 4380.83 1.6821 -3.05788 0
M  V30 44584 C 4382.17 2.1936 -3.63547 0
M  V30 44585 O 4383.2 1.78196 -3.08423 0
M  V30 44586 O 4382.06 2.94867 -4.60126 0
M  V30 44587 H 4379.15 0.475731 -0.676468 0
M  V30 44588 H 4381.7 0.268534 -1.67562 0
M  V30 44589 H 4380.47 0.944979 -3.79718 0
M  V30 44590 H 4380.09 2.50598 -3.08685 0
M  V30 44591 N 4381.09 1.48161 0.537226 0
M  V30 44592 C 4382 1.64813 1.66954 0
M  V30 44593 C 4383.01 0.530709 1.65709 0
M  V30 44594 O 4384.19 0.800848 1.84793 0
M  V30 44595 C 4381.26 1.67719 3.03432 0
M  V30 44596 C 4380.32 2.91036 3.15589 0
M  V30 44597 C 4379.55 2.93793 4.45557 0
M  V30 44598 O 4379.77 2.05172 5.32222 0
M  V30 44599 O 4378.71 3.85884 4.61927 0
M  V30 44600 H 4382.53 2.60665 1.55844 0
M  V30 44601 H 4380.12 1.31478 0.709503 0
M  V30 44602 H 4382 1.72193 3.84613 0
M  V30 44603 H 4380.67 0.750388 3.14882 0
M  V30 44604 H 4379.58 2.92097 2.33731 0
M  V30 44605 H 4380.91 3.83076 3.09052 0
M  V30 44606 N 4382.57 -0.785538 1.36627 0
M  V30 44607 C 4383.82 -1.53878 1.30401 0
M  V30 44608 C 4384.13 -1.95271 -0.113384 0
M  V30 44609 O 4385.33 -2.69859 -0.298047 0
M  V30 44610 C 4383.79 -2.778 2.28812 0
M  V30 44611 C 4383.4 -2.43561 3.76008 0
M  V30 44612 C 4385.14 -3.55775 2.3157 0
M  V30 44613 C 4383.05 -3.63902 4.66186 0
M  V30 44614 H 4381.98 -0.577661 0.484586 0
M  V30 44615 H 4384.63 -0.861648 1.62012 0
M  V30 44616 H 4383.01 -3.47333 1.902 0
M  V30 44617 H 4384.19 -1.81901 4.23378 0
M  V30 44618 H 4382.5 -1.7879 3.76063 0
M  V30 44619 H 4385.1 -4.45194 2.96152 0
M  V30 44620 H 4385.44 -3.9464 1.32534 0
M  V30 44621 H 4385.97 -2.93226 2.68819 0
M  V30 44622 H 4382.71 -3.3013 5.66299 0
M  V30 44623 H 4382.23 -4.24715 4.23529 0
M  V30 44624 H 4383.91 -4.30884 4.82647 0
M  V30 44625 N 4384.04 -1.20971 -1.01014 0
M  V30 44626 C 4384.95 -0.980232 -2.1314 0
M  V30 44627 C 4385.97 0.0660053 -1.73875 0
M  V30 44628 O 4387.15 -0.122892 -2.01025 0
M  V30 44629 C 4384.21 -0.54228 -3.42433 0
M  V30 44630 C 4383.27 -1.66013 -3.95902 0
M  V30 44631 C 4382.51 -1.24298 -5.19024 0
M  V30 44632 O 4382.73 -0.114396 -5.70285 0
M  V30 44633 O 4381.66 -2.05291 -5.65808 0
M  V30 44634 H 4385.49 -1.91921 -2.35372 0
M  V30 44635 H 4383.07 -0.994138 -1.11522 0
M  V30 44636 H 4384.96 -0.307588 -4.20276 0
M  V30 44637 H 4383.63 0.368037 -3.21601 0
M  V30 44638 H 4382.54 -1.94917 -3.19309 0
M  V30 44639 H 4383.87 -2.54768 -4.21134 0
M  V30 44640 N 4385.52 1.20426 -1.01663 0
M  V30 44641 C 4386.45 2.25464 -0.607305 0
M  V30 44642 C 4387.43 1.65855 0.377658 0
M  V30 44643 O 4388.62 1.9241 0.263081 0
M  V30 44644 C 4385.75 3.47256 0.0551728 0
M  V30 44645 C 4384.7 4.19459 -0.850779 0
M  V30 44646 C 4384.03 5.34673 -0.0540739 0
M  V30 44647 C 4385.33 4.75596 -2.15885 0
M  V30 44648 H 4387.02 2.59957 -1.48535 0
M  V30 44649 H 4384.57 1.24958 -0.715649 0
M  V30 44650 H 4386.52 4.19918 0.353085 0
M  V30 44651 H 4385.25 3.11927 0.967936 0
M  V30 44652 H 4383.9 3.48663 -1.1327 0
M  V30 44653 H 4383.55 4.95588 0.86034 0
M  V30 44654 H 4383.25 5.83911 -0.657397 0
M  V30 44655 H 4384.78 6.10138 0.237383 0
M  V30 44656 H 4386.19 5.40076 -1.9233 0
M  V30 44657 H 4384.59 5.35271 -2.71302 0
M  V30 44658 H 4385.66 3.94336 -2.82183 0
M  V30 44659 N 4387 0.792868 1.36203 0
M  V30 44660 C 4387.91 0.194891 2.33789 0
M  V30 44661 C 4388.93 -0.654812 1.61209 0
M  V30 44662 O 4390.1 -0.569788 1.93172 0
M  V30 44663 C 4387.17 -0.657601 3.40406 0
M  V30 44664 C 4386.23 0.210999 4.28781 0
M  V30 44665 C 4385.46 -0.6009 5.30306 0
M  V30 44666 O 4385.68 -1.83663 5.40022 0
M  V30 44667 O 4384.62 0.00101987 6.019 0
M  V30 44668 H 4388.44 1.00183 2.867 0
M  V30 44669 H 4386.03 0.55439 1.38733 0
M  V30 44670 H 4387.91 -1.14361 4.05585 0
M  V30 44671 H 4386.59 -1.44237 2.89789 0
M  V30 44672 H 4385.49 0.743843 3.6663 0
M  V30 44673 H 4386.83 0.959365 4.8276 0
M  V30 44674 N 4388.48 -1.4787 0.54518 0
M  V30 44675 C 4389.73 -2.02093 0.0166241 0
M  V30 44676 C 4390.05 -1.4231 -1.33315 0
M  V30 44677 O 4389.32 -0.593919 -1.8668 0
M  V30 44678 H 4387.9 -0.746993 0.00315664 0
M  V30 44679 H 4390.56 -1.81411 0.712461 0
M  V30 44680 H 4389.66 -3.11996 -0.0804325 0
M  V30 44681 N 4389.96 -0.281037 -1.55074 0
M  V30 44682 C 4390.92 0.590819 -2.21454 0
M  V30 44683 C 4391.92 1.07677 -1.19425 0
M  V30 44684 O 4393.11 0.975999 -1.44291 0
M  V30 44685 C 4390.24 1.81577 -2.88518 0
M  V30 44686 H 4391.43 0.01115 -2.99898 0
M  V30 44687 H 4388.99 -0.0316987 -1.56268 0
M  V30 44688 H 4389.72 2.4358 -2.14101 0
M  V30 44689 H 4389.51 1.47518 -3.63292 0
M  V30 44690 H 4391 2.43563 -3.39215 0
M  V30 44691 N 4391.44 1.57598 -0.00841331 0
M  V30 44692 C 4392.66 1.95217 0.685422 0
M  V30 44693 C 4393.08 0.883765 1.66838 0
M  V30 44694 O 4392.44 -0.136501 1.81989 0
M  V30 44695 C 4392.49 3.3287 1.40995 0
M  V30 44696 O 4392.21 4.3561 0.466399 0
M  V30 44697 C 4393.71 3.84999 2.19752 0
M  V30 44698 H 4390.93 0.643429 0.19037 0
M  V30 44699 H 4393.47 2.04406 -0.0620326 0
M  V30 44700 H 4391.63 3.24964 2.10897 0
M  V30 44701 H 4392.04 5.15291 0.978518 0
M  V30 44702 H 4393.52 4.83719 2.65931 0
M  V30 44703 H 4393.99 3.18148 3.02785 0
M  V30 44704 H 4394.6 3.96108 1.5485 0
M  V30 44705 N 4392.91 -0.264465 1.55365 0
M  V30 44706 C 4393.85 -1.34959 1.85253 0
M  V30 44707 C 4394.86 -1.45133 0.737576 0
M  V30 44708 O 4396.05 -1.46797 1.01552 0
M  V30 44709 C 4393.15 -2.73001 2.00807 0
M  V30 44710 C 4392.32 -2.85313 3.31535 0
M  V30 44711 C 4391.38 -4.04085 3.37048 0
M  V30 44712 O 4390.41 -3.94441 4.10372 0
M  V30 44713 N 4391.61 -5.16449 2.65067 0
M  V30 44714 H 4394.37 -1.09662 2.78916 0
M  V30 44715 H 4391.93 -0.454581 1.55387 0
M  V30 44716 H 4393.93 -3.50765 2.01856 0
M  V30 44717 H 4392.5 -2.91083 1.1397 0
M  V30 44718 H 4391.72 -1.94365 3.42952 0
M  V30 44719 H 4393 -2.90475 4.17734 0
M  V30 44720 H 4392.4 -5.27174 2.05194 0
M  V30 44721 H 4390.96 -5.92412 2.7183 0
M  V30 44722 N 4394.39 -1.48444 -0.529361 0
M  V30 44723 C 4395.64 -1.57703 -1.28457 0
M  V30 44724 C 4395.99 -0.24798 -1.90795 0
M  V30 44725 O 4395.29 0.749217 -1.76344 0
M  V30 44726 C 4395.48 -2.65238 -2.39548 0
M  V30 44727 C 4395.31 -4.08471 -1.881 0
M  V30 44728 C 4394.08 -4.75602 -1.70676 0
M  V30 44729 C 4396.28 -4.94618 -1.40918 0
M  V30 44730 N 4394.26 -6.03249 -1.13859 0
M  V30 44731 C 4395.63 -6.12515 -0.960519 0
M  V30 44732 C 4397.68 -4.80838 -1.29226 0
M  V30 44733 C 4396.39 -7.1815 -0.40654 0
M  V30 44734 C 4398.41 -5.86596 -0.752281 0
M  V30 44735 C 4397.78 -7.03701 -0.313699 0
M  V30 44736 H 4393.87 -0.631625 -0.461058 0
M  V30 44737 H 4396.46 -1.85327 -0.59682 0
M  V30 44738 H 4394.63 -2.39436 -3.05819 0
M  V30 44739 H 4396.36 -2.6418 -3.0658 0
M  V30 44740 H 4393.12 -4.31945 -1.94217 0
M  V30 44741 H 4393.54 -6.71327 -0.874595 0
M  V30 44742 H 4398.18 -3.90641 -1.6174 0
M  V30 44743 H 4395.9 -8.0807 -0.069083 0
M  V30 44744 H 4399.49 -5.77987 -0.664989 0
M  V30 44745 H 4398.37 -7.84139 0.0976388 0
M  V30 44746 N 4395.87 0.778281 -1.37042 0
M  V30 44747 C 4397.28 1.35416 -1.28527 0
M  V30 44748 C 4397.63 1.96075 0.0700212 0
M  V30 44749 O 4396.76 1.93355 0.971733 0
M  V30 44750 C 4397.35 2.46203 -2.32744 0
M  V30 44751 C 4395.91 2.99577 -2.27883 0
M  V30 44752 C 4395.06 1.72741 -2.16924 0
M  V30 44753 H 4398.01 0.579048 -1.47759 0
M  V30 44754 H 4398.03 3.25513 -1.97031 0
M  V30 44755 H 4397.54 2.02025 -3.31372 0
M  V30 44756 H 4395.64 3.48147 -1.32757 0
M  V30 44757 H 4395.76 3.55635 -3.21031 0
M  V30 44758 H 4394.12 1.9541 -1.63361 0
M  V30 44759 H 4394.9 1.30675 -3.17457 0
M  V30 44760 N 4397.35 1.21505 1.00371 0
M  V30 44761 C 4398.3 0.942916 2.07589 0
M  V30 44762 C 4399.28 -0.102328 1.60574 0
M  V30 44763 O 4400.47 0.106772 1.76678 0
M  V30 44764 C 4397.6 0.510849 3.39478 0
M  V30 44765 C 4396.69 1.59023 3.93157 0
M  V30 44766 N 4397.08 2.81559 4.20188 0
M  V30 44767 C 4395.38 1.4594 4.21447 0
M  V30 44768 C 4396.08 3.51277 4.63659 0
M  V30 44769 N 4395.05 2.78719 4.66708 0
M  V30 44770 H 4398.86 1.87386 2.26415 0
M  V30 44771 H 4396.37 1.11097 1.18454 0
M  V30 44772 H 4398.37 0.297248 4.15839 0
M  V30 44773 H 4397.03 -0.413322 3.22059 0
M  V30 44774 H 4398.04 3.18089 4.08705 0
M  V30 44775 H 4394.72 0.600612 4.13157 0
M  V30 44776 H 4396.11 4.56201 4.93286 0
M  V30 44777 N 4398.83 -1.19885 1.023 0
M  V30 44778 C 4400.05 -1.93928 0.735305 0
M  V30 44779 C 4400.48 -1.74641 -0.698721 0
M  V30 44780 O 4399.83 -1.04486 -1.48163 0
M  V30 44781 C 4399.88 -3.43912 1.08429 0
M  V30 44782 O 4398.99 -4.11917 0.199591 0
M  V30 44783 H 4398.33 -0.605635 0.272217 0
M  V30 44784 H 4400.86 -1.52133 1.3681 0
M  V30 44785 H 4400.87 -3.94557 1.0387 0
M  V30 44786 H 4399.54 -3.57272 2.12907 0
M  V30 44787 H 4398.12 -3.71665 0.303266 0
M  V30 44788 N 4400.3 -0.80008 -1.35781 0
M  V30 44789 C 4401.53 -0.389678 -2.03197 0
M  V30 44790 C 4401.95 0.997318 -1.60309 0
M  V30 44791 O 4401.3 1.64151 -0.797539 0
M  V30 44792 C 4401.35 -0.455981 -3.58613 0
M  V30 44793 O 4401.08 -1.78829 -3.9994 0
M  V30 44794 C 4402.58 -0.0375591 -4.43284 0
M  V30 44795 H 4399.8 -0.159155 -0.651852 0
M  V30 44796 H 4402.34 -1.08189 -1.73538 0
M  V30 44797 H 4400.5 0.187921 -3.86944 0
M  V30 44798 H 4400.91 -1.74653 -4.94567 0
M  V30 44799 H 4402.38 -0.135076 -5.51835 0
M  V30 44800 H 4402.86 1.01635 -4.27278 0
M  V30 44801 H 4403.47 -0.654363 -4.20236 0
M  V30 44802 N 4401.78 1.47579 -0.553014 0
M  V30 44803 C 4403.01 2.07378 -0.0301322 0
M  V30 44804 C 4403.43 1.40359 1.25224 0
M  V30 44805 O 4402.79 0.47716 1.74908 0
M  V30 44806 C 4402.84 3.60275 0.153104 0
M  V30 44807 O 4401.94 3.94045 1.21664 0
M  V30 44808 H 4401.28 0.662157 -0.0494415 0
M  V30 44809 H 4403.81 1.89659 -0.767501 0
M  V30 44810 H 4403.82 4.06331 0.368618 0
M  V30 44811 H 4402.5 4.08453 -0.783541 0
M  V30 44812 H 4401.07 3.59739 0.981952 0
M  V30 44813 N 4403.26 0.289257 1.54923 0
M  V30 44814 C 4404.22 -0.579066 2.21764 0
M  V30 44815 C 4405.22 -1.07043 1.19994 0
M  V30 44816 O 4406.41 -0.968333 1.44807 0
M  V30 44817 C 4403.54 -1.80045 2.89477 0
M  V30 44818 H 4404.74 0.0047545 2.999 0
M  V30 44819 H 4402.29 0.0399856 1.56249 0
M  V30 44820 H 4403.03 -2.42441 2.1539 0
M  V30 44821 H 4402.81 -1.45589 3.64069 0
M  V30 44822 H 4404.3 -2.41761 3.40502 0
M  V30 44823 N 4404.74 -1.57591 0.016771 0
M  V30 44824 C 4405.96 -1.95982 -0.678651 0
M  V30 44825 C 4406.39 -0.892604 -1.65572 0
M  V30 44826 O 4405.75 0.147708 -1.80697 0
M  V30 44827 C 4405.79 -3.33473 -1.37215 0
M  V30 44828 O 4404.9 -3.28963 -2.48711 0
M  V30 44829 H 4404.24 -0.639345 -0.179258 0
M  V30 44830 H 4406.77 -2.04463 0.0749521 0
M  V30 44831 H 4406.78 -3.69423 -1.73177 0
M  V30 44832 H 4405.45 -4.10696 -0.655863 0
M  V30 44833 H 4404.03 -3.04713 -2.14952 0
M  V30 44834 N 4406.22 0.256222 -1.55503 0
M  V30 44835 C 4407.18 1.3004 -1.88739 0
M  V30 44836 C 4408.18 1.41538 -0.763135 0
M  V30 44837 O 4409.37 1.40399 -1.0312 0
M  V30 44838 C 4406.5 2.67945 -2.10756 0
M  V30 44839 H 4407.69 1.01793 -2.82096 0
M  V30 44840 H 4405.25 0.495082 -1.48252 0
M  V30 44841 H 4405.98 3.01347 -1.19836 0
M  V30 44842 H 4405.77 2.60983 -2.92626 0
M  V30 44843 H 4407.26 3.43359 -2.37685 0
M  V30 44844 N 4407.69 1.48722 0.521481 0
M  V30 44845 C 4408.92 1.60848 1.30137 0
M  V30 44846 C 4409.34 0.271962 1.86831 0
M  V30 44847 O 4408.69 -0.73991 1.66828 0
M  V30 44848 C 4408.75 2.66164 2.4462 0
M  V30 44849 O 4408.47 3.9463 1.90261 0
M  V30 44850 C 4409.97 2.88807 3.36312 0
M  V30 44851 H 4407.19 0.542089 0.395449 0
M  V30 44852 H 4409.73 1.94612 0.628217 0
M  V30 44853 H 4407.89 2.35235 3.07804 0
M  V30 44854 H 4408.3 4.52477 2.65263 0
M  V30 44855 H 4409.77 3.66278 4.1297 0
M  V30 44856 H 4410.25 1.97948 3.92063 0
M  V30 44857 H 4410.86 3.21073 2.78913 0
M  V30 44858 N 4409.17 -0.771003 1.37453 0
M  V30 44859 C 4410.4 -1.55784 1.35701 0
M  V30 44860 C 4410.81 -1.89107 -0.0593858 0
M  V30 44861 O 4410.15 -1.51987 -1.03177 0
M  V30 44862 C 4410.22 -2.89507 2.13134 0
M  V30 44863 C 4409.88 -2.78817 3.62092 0
M  V30 44864 C 4410.88 -2.49796 4.55958 0
M  V30 44865 C 4408.56 -2.96815 4.05223 0
M  V30 44866 C 4410.56 -2.38902 5.90935 0
M  V30 44867 C 4408.24 -2.85543 5.40286 0
M  V30 44868 C 4409.24 -2.56627 6.32955 0
M  V30 44869 O 4408.93 -2.45382 7.65535 0
M  V30 44870 H 4408.66 -0.48924 0.466498 0
M  V30 44871 H 4411.21 -0.963382 1.81406 0
M  V30 44872 H 4409.44 -3.51076 1.6212 0
M  V30 44873 H 4411.13 -3.50908 2.04007 0
M  V30 44874 H 4411.9 -2.35575 4.23945 0
M  V30 44875 H 4407.78 -3.18324 3.33453 0
M  V30 44876 H 4411.32 -2.16254 6.63235 0
M  V30 44877 H 4407.22 -2.99331 5.71901 0
M  V30 44878 H 4407.99 -2.60725 7.75864 0
M  V30 44879 N 4410.65 -1.22035 -0.997255 0
M  V30 44880 C 4411.9 -1.04022 -1.73274 0
M  V30 44881 C 4412.22 0.426188 -1.90286 0
M  V30 44882 O 4411.49 1.30689 -1.45936 0
M  V30 44883 H 4410.07 -0.38192 -0.641986 0
M  V30 44884 H 4412.73 -1.53474 -1.20132 0
M  V30 44885 H 4411.83 -1.5145 -2.7289 0
M  V30 44886 N 4412.13 1.19341 -1.02934 0
M  V30 44887 C 4413.37 1.89316 -0.72715 0
M  V30 44888 C 4413.71 1.79449 0.74242 0
M  V30 44889 O 4412.98 1.18715 1.54068 0
M  V30 44890 C 4413.27 3.40233 -1.17954 0
M  V30 44891 C 4413.12 3.5897 -2.71037 0
M  V30 44892 C 4414.44 4.33476 -0.760701 0
M  V30 44893 H 4411.56 0.687466 -0.265631 0
M  V30 44894 H 4414.2 1.40473 -1.27935 0
M  V30 44895 H 4412.35 3.81962 -0.709742 0
M  V30 44896 H 4414.02 3.2641 -3.25967 0
M  V30 44897 H 4412.26 3.02007 -3.11406 0
M  V30 44898 H 4412.93 4.64813 -2.97747 0
M  V30 44899 H 4415.41 3.99465 -1.16478 0
M  V30 44900 H 4414.29 5.3766 -1.10512 0
M  V30 44901 H 4414.55 4.40814 0.336908 0
M  V30 44902 N 4413.61 0.80727 1.35355 0
M  V30 44903 C 4414.52 0.219676 2.33569 0
M  V30 44904 C 4415.53 -0.637677 1.61894 0
M  V30 44905 O 4416.71 -0.549268 1.93765 0
M  V30 44906 C 4413.77 -0.62146 3.41085 0
M  V30 44907 C 4412.83 0.256465 4.28533 0
M  V30 44908 C 4412.07 -0.54462 5.30914 0
M  V30 44909 O 4412.29 -1.77925 5.4194 0
M  V30 44910 O 4411.22 0.0648594 6.01865 0
M  V30 44911 H 4415.05 1.03218 2.85622 0
M  V30 44912 H 4412.64 0.569074 1.38137 0
M  V30 44913 H 4414.52 -1.10053 4.06776 0
M  V30 44914 H 4413.19 -1.41155 2.91302 0
M  V30 44915 H 4412.1 0.782687 3.65821 0
M  V30 44916 H 4413.43 1.01051 4.81715 0
M  V30 44917 N 4415.08 -1.47283 0.560833 0
M  V30 44918 C 4416.05 -2.28535 -0.174408 0
M  V30 44919 C 4417.05 -1.37156 -0.83934 0
M  V30 44920 O 4418.24 -1.59751 -0.694645 0
M  V30 44921 C 4415.37 -3.16939 -1.2555 0
M  V30 44922 H 4416.56 -2.9501 0.539365 0
M  V30 44923 H 4414.12 -1.53033 0.317919 0
M  V30 44924 H 4414.85 -2.55164 -2.00155 0
M  V30 44925 H 4414.64 -3.84193 -0.783469 0
M  V30 44926 H 4416.13 -3.7815 -1.7718 0
M  V30 44927 N 4416.56 -0.297469 -1.54767 0
M  V30 44928 C 4417.81 0.312225 -1.99674 0
M  V30 44929 C 4418.13 1.54682 -1.18737 0
M  V30 44930 O 4417.4 1.93853 -0.28245 0
M  V30 44931 H 4415.98 0.118355 -0.737564 0
M  V30 44932 H 4418.64 -0.407982 -1.90582 0
M  V30 44933 H 4417.74 0.586705 -3.06536 0
M  V30 44934 N 4418.04 1.5758 -0.0251282 0
M  V30 44935 C 4419.29 1.91919 0.655346 0
M  V30 44936 C 4419.62 0.901494 1.72008 0
M  V30 44937 O 4418.89 -0.0763386 1.9435 0
M  V30 44938 C 4419.18 3.36755 1.27546 0
M  V30 44939 C 4419.03 4.49259 0.220561 0
M  V30 44940 C 4420.35 3.81477 2.19461 0
M  V30 44941 H 4417.47 0.697933 0.236765 0
M  V30 44942 H 4420.11 1.89825 -0.0815703 0
M  V30 44943 H 4418.26 3.38671 1.90353 0
M  V30 44944 H 4419.93 4.59476 -0.409762 0
M  V30 44945 H 4418.18 4.31413 -0.454416 0
M  V30 44946 H 4418.85 5.4762 0.693983 0
M  V30 44947 H 4421.32 3.81272 1.66645 0
M  V30 44948 H 4420.2 4.83521 2.59805 0
M  V30 44949 H 4420.46 3.16755 3.08413 0
M  V30 44950 N 4419.52 -0.247971 1.55637 0
M  V30 44951 C 4420.76 -0.977608 1.77681 0
M  V30 44952 C 4421.1 -1.85014 0.5902 0
M  V30 44953 O 4420.37 -1.90096 -0.411544 0
M  V30 44954 C 4420.66 -1.83903 3.09599 0
M  V30 44955 C 4420.51 -0.994756 4.38662 0
M  V30 44956 C 4421.83 -2.82171 3.37739 0
M  V30 44957 H 4418.95 -0.353982 0.646425 0
M  V30 44958 H 4421.59 -0.248186 1.88372 0
M  V30 44959 H 4419.74 -2.46094 3.00616 0
M  V30 44960 H 4421.41 -0.391627 4.59635 0
M  V30 44961 H 4419.65 -0.299079 4.32768 0
M  V30 44962 H 4420.32 -1.63126 5.27346 0
M  V30 44963 H 4422.8 -2.30117 3.46678 0
M  V30 44964 H 4421.68 -3.39566 4.31261 0
M  V30 44965 H 4421.94 -3.58579 2.58599 0
M  V30 44966 N 4421 -1.48997 -0.513587 0
M  V30 44967 C 4422.41 -1.51194 -1.09532 0
M  V30 44968 C 4422.76 -0.290974 -1.9403 0
M  V30 44969 O 4421.88 0.600417 -2.07904 0
M  V30 44970 C 4422.48 -2.73971 -1.99313 0
M  V30 44971 C 4421.04 -2.78987 -2.52672 0
M  V30 44972 C 4420.19 -2.44939 -1.30001 0
M  V30 44973 H 4423.14 -1.55876 -0.298071 0
M  V30 44974 H 4423.16 -2.53419 -2.83829 0
M  V30 44975 H 4422.67 -3.62818 -1.37786 0
M  V30 44976 H 4420.77 -1.94389 -3.17874 0
M  V30 44977 H 4420.88 -3.8084 -2.90685 0
M  V30 44978 H 4419.25 -1.96446 -1.62115 0
M  V30 44979 H 4420.03 -3.36046 -0.702013 0
M  V30 44980 N 4422.48 0.763702 -1.3786 0
M  V30 44981 C 4423.72 1.52392 -1.34716 0
M  V30 44982 C 4424.08 1.92288 0.0655759 0
M  V30 44983 O 4423.37 1.61814 1.026 0
M  V30 44984 C 4423.56 2.79491 -2.22755 0
M  V30 44985 C 4423.39 2.52018 -3.72447 0
M  V30 44986 C 4422.16 2.45743 -4.41518 0
M  V30 44987 C 4424.36 2.19473 -4.65119 0
M  V30 44988 N 4422.34 2.10439 -5.76705 0
M  V30 44989 C 4423.71 1.94376 -5.88743 0
M  V30 44990 C 4425.77 2.05696 -4.53424 0
M  V30 44991 C 4424.47 1.56893 -7.01981 0
M  V30 44992 C 4426.5 1.69614 -5.66555 0
M  V30 44993 C 4425.86 1.45382 -6.89234 0
M  V30 44994 H 4421.96 0.557631 -0.548244 0
M  V30 44995 H 4424.54 0.890241 -1.73155 0
M  V30 44996 H 4422.71 3.40683 -1.86519 0
M  V30 44997 H 4424.45 3.45458 -2.1081 0
M  V30 44998 H 4421.2 2.61871 -3.94614 0
M  V30 44999 H 4421.62 1.95461 -6.4817 0
M  V30 45000 H 4426.27 2.2311 -3.5914 0
M  V30 45001 H 4423.98 1.38218 -7.96192 0
M  V30 45002 H 4427.57 1.59601 -5.59481 0
M  V30 45003 H 4426.45 1.17876 -7.7529 0
M  V30 45004 N 4423.95 1.22562 0.990769 0
M  V30 45005 C 4424.88 1.02188 2.09952 0
M  V30 45006 C 4425.86 -0.0578797 1.70001 0
M  V30 45007 O 4427.05 0.104752 1.93917 0
M  V30 45008 C 4424.18 0.601143 3.42058 0
M  V30 45009 C 4423.13 1.62707 3.95867 0
M  V30 45010 C 4422.46 1.06211 5.24045 0
M  V30 45011 C 4423.76 3.01758 4.26309 0
M  V30 45012 H 4425.45 1.94924 2.27255 0
M  V30 45013 H 4423 0.938604 1.09207 0
M  V30 45014 H 4424.95 0.445708 4.19036 0
M  V30 45015 H 4423.68 -0.36189 3.24589 0
M  V30 45016 H 4422.34 1.77032 3.21022 0
M  V30 45017 H 4421.98 0.0903671 5.02919 0
M  V30 45018 H 4421.68 1.74751 5.61013 0
M  V30 45019 H 4423.21 0.918305 6.03655 0
M  V30 45020 H 4424.62 2.90794 4.94076 0
M  V30 45021 H 4423.02 3.67441 4.74454 0
M  V30 45022 H 4424.09 3.5153 3.33998 0
M  V30 45023 N 4425.43 -1.18793 1.03566 0
M  V30 45024 C 4426.66 -1.93137 0.755832 0
M  V30 45025 C 4427.08 -1.75372 -0.680158 0
M  V30 45026 O 4426.44 -1.06052 -1.47047 0
M  V30 45027 C 4426.49 -3.42743 1.1207 0
M  V30 45028 O 4425.59 -4.11682 0.243269 0
M  V30 45029 H 4424.93 -0.602714 0.278625 0
M  V30 45030 H 4427.46 -1.50673 1.38415 0
M  V30 45031 H 4427.47 -3.93433 1.08049 0
M  V30 45032 H 4426.15 -3.54994 2.16684 0
M  V30 45033 H 4424.72 -3.71322 0.342669 0
M  V30 45034 N 4426.91 -0.814437 -1.34925 0
M  V30 45035 C 4428.32 -0.458428 -1.80984 0
M  V30 45036 C 4428.67 1.02036 -1.6758 0
M  V30 45037 O 4427.8 1.79348 -1.21093 0
M  V30 45038 C 4428.39 -0.825328 -3.28594 0
M  V30 45039 C 4426.95 -0.521808 -3.72766 0
M  V30 45040 C 4426.1 -1.04677 -2.56784 0
M  V30 45041 H 4429.05 -1.00538 -1.22792 0
M  V30 45042 H 4429.07 -0.125844 -3.80292 0
M  V30 45043 H 4428.58 -1.90165 -3.38317 0
M  V30 45044 H 4426.68 0.545459 -3.68586 0
M  V30 45045 H 4426.8 -1.05993 -4.67228 0
M  V30 45046 H 4425.16 -0.46871 -2.5035 0
M  V30 45047 H 4425.94 -2.12937 -2.69282 0
M  V30 45048 N 4428.39 1.46984 -0.568636 0
M  V30 45049 C 4429.32 2.28234 0.210257 0
M  V30 45050 C 4430.33 1.37685 0.868719 0
M  V30 45051 O 4431.52 1.62409 0.740648 0
M  V30 45052 C 4428.62 3.12297 1.31619 0
M  V30 45053 C 4427.79 4.30881 0.752349 0
M  V30 45054 C 4426.85 4.96451 1.74421 0
M  V30 45055 O 4425.88 5.54487 1.28581 0
M  V30 45056 N 4427.08 4.92181 3.07795 0
M  V30 45057 H 4429.85 2.95721 -0.486752 0
M  V30 45058 H 4427.41 1.56741 -0.405464 0
M  V30 45059 H 4429.4 3.53029 1.97871 0
M  V30 45060 H 4427.97 2.46978 1.91627 0
M  V30 45061 H 4427.19 3.94103 -0.0872513 0
M  V30 45062 H 4428.48 5.07559 0.355181 0
M  V30 45063 H 4427.88 4.46251 3.47673 0
M  V30 45064 H 4426.43 5.36897 3.69573 0
M  V30 45065 N 4429.87 0.305673 1.54607 0
M  V30 45066 C 4431.09 -0.304703 2.04644 0
M  V30 45067 C 4431.51 -1.47163 1.18273 0
M  V30 45068 O 4430.87 -1.81295 0.209391 0
M  V30 45069 C 4430.92 -0.756439 3.53497 0
M  V30 45070 O 4430.64 0.364043 4.36585 0
M  V30 45071 C 4432.14 -1.43148 4.19551 0
M  V30 45072 H 4429.36 -0.0655246 0.667793 0
M  V30 45073 H 4431.9 0.446663 1.99562 0
M  V30 45074 H 4430.06 -1.45782 3.58924 0
M  V30 45075 H 4430.47 0.0114965 5.24499 0
M  V30 45076 H 4431.95 -1.69868 5.25213 0
M  V30 45077 H 4432.42 -2.37305 3.69571 0
M  V30 45078 H 4433.03 -0.77316 4.18213 0
M  V30 45079 N 4431.34 -1.57564 0.0334847 0
M  V30 45080 C 4432.57 -1.96691 -0.657826 0
M  V30 45081 C 4432.99 -0.910115 -1.64616 0
M  V30 45082 O 4432.35 0.128534 -1.80844 0
M  V30 45083 C 4432.4 -3.3491 -1.33671 0
M  V30 45084 O 4431.5 -3.31583 -2.45208 0
M  V30 45085 H 4430.84 -0.641211 -0.172467 0
M  V30 45086 H 4433.37 -2.04372 0.0966339 0
M  V30 45087 H 4433.38 -3.71239 -1.69249 0
M  V30 45088 H 4432.06 -4.11369 -0.612266 0
M  V30 45089 H 4430.64 -3.06976 -2.11708 0
M  V30 45090 N 4432.82 0.239714 -1.55766 0
M  V30 45091 C 4433.73 1.31825 -1.9406 0
M  V30 45092 C 4434.75 1.52272 -0.841979 0
M  V30 45093 O 4435.92 1.65755 -1.144 0
M  V30 45094 C 4432.99 2.65148 -2.23377 0
M  V30 45095 C 4432.05 2.53161 -3.4671 0
M  V30 45096 C 4431.28 3.80127 -3.74619 0
M  V30 45097 O 4431.51 4.82332 -3.04486 0
M  V30 45098 O 4430.44 3.78328 -4.68136 0
M  V30 45099 H 4434.27 1.02337 -2.85938 0
M  V30 45100 H 4431.85 0.441072 -1.42741 0
M  V30 45101 H 4433.73 3.4392 -2.43509 0
M  V30 45102 H 4432.41 2.94353 -1.34676 0
M  V30 45103 H 4431.31 1.72651 -3.31877 0
M  V30 45104 H 4432.65 2.289 -4.35736 0
M  V30 45105 N 4434.3 1.49267 0.505678 0
M  V30 45106 C 4435.72 1.35926 0.836438 0
M  V30 45107 C 4435.92 0.388773 1.97714 0
M  V30 45108 O 4434.97 -0.181247 2.51849 0
M  V30 45109 C 4436.28 2.76535 1.18105 0
M  V30 45110 C 4437.83 2.85202 1.28953 0
M  V30 45111 C 4438.31 4.26567 1.66746 0
M  V30 45112 N 4439.8 4.29356 1.73804 0
M  V30 45113 C 4440.53 5.357 2.04481 0
M  V30 45114 N 4440.03 6.52295 2.33415 0
M  V30 45115 N 4441.82 5.23113 2.05693 0
M  V30 45116 H 4433.97 2.10964 -0.246593 0
M  V30 45117 H 4436.24 0.946798 -0.0477219 0
M  V30 45118 H 4435.94 3.49228 0.416276 0
M  V30 45119 H 4435.82 3.11606 2.12559 0
M  V30 45120 H 4438.2 2.12749 2.04504 0
M  V30 45121 H 4438.28 2.53719 0.325615 0
M  V30 45122 H 4437.93 4.99544 0.917481 0
M  V30 45123 H 4437.86 4.55511 2.6423 0
M  V30 45124 H 4440.35 3.45266 1.53623 0
M  V30 45125 H 4440.66 7.29167 2.55998 0
M  V30 45126 H 4439.01 6.55529 2.30882 0
M  V30 45127 H 4442.2 4.31032 1.82562 0
M  V30 45128 H 4442.37 6.06086 2.29267 0
M  V30 45129 N 4435.78 -0.756381 1.38263 0
M  V30 45130 C 4437.19 -1.33355 1.30665 0
M  V30 45131 C 4437.54 -1.96162 -0.0388185 0
M  V30 45132 O 4436.67 -1.94877 -0.940849 0
M  V30 45133 C 4437.26 -2.42469 2.36631 0
M  V30 45134 C 4435.82 -2.95913 2.3262 0
M  V30 45135 C 4434.97 -1.69268 2.19645 0
M  V30 45136 H 4437.92 -0.555467 1.48662 0
M  V30 45137 H 4437.94 -3.22337 2.02185 0
M  V30 45138 H 4437.45 -1.96727 3.34544 0
M  V30 45139 H 4435.55 -3.45991 1.38279 0
M  V30 45140 H 4435.66 -3.50482 3.26648 0
M  V30 45141 H 4434.03 -1.92787 1.66449 0
M  V30 45142 H 4434.81 -1.25608 3.19496 0
M  V30 45143 N 4437.26 -1.23086 -0.984255 0
M  V30 45144 C 4438.48 -1.0872 -1.76033 0
M  V30 45145 C 4438.9 0.361626 -1.85304 0
M  V30 45146 O 4438.26 1.25029 -1.32943 0
M  V30 45147 C 4438.31 -1.70217 -3.18917 0
M  V30 45148 O 4438.03 -3.09434 -3.10133 0
M  V30 45149 C 4439.53 -1.61242 -4.12936 0
M  V30 45150 H 4436.75 -0.380684 -0.552558 0
M  V30 45151 H 4439.29 -1.62858 -1.23684 0
M  V30 45152 H 4437.45 -1.20122 -3.68306 0
M  V30 45153 H 4437.86 -3.39202 -4.00053 0
M  V30 45154 H 4439.34 -2.0898 -5.10912 0
M  V30 45155 H 4439.81 -0.570528 -4.35479 0
M  V30 45156 H 4440.42 -2.10684 -3.69449 0
M  V30 45157 N 4438.73 1.18243 -1.04194 0
M  V30 45158 C 4439.66 2.24125 -0.654993 0
M  V30 45159 C 4440.65 1.66618 0.342393 0
M  V30 45160 O 4441.83 1.92925 0.222209 0
M  V30 45161 C 4438.96 3.47295 -0.0184978 0
M  V30 45162 C 4437.91 4.1756 -0.939561 0
M  V30 45163 C 4437.24 5.34438 -0.167474 0
M  V30 45164 C 4438.54 4.70909 -2.25924 0
M  V30 45165 H 4440.23 2.56748 -1.54016 0
M  V30 45166 H 4437.78 1.23412 -0.741993 0
M  V30 45167 H 4439.73 4.20573 0.263935 0
M  V30 45168 H 4438.46 3.1391 0.901554 0
M  V30 45169 H 4437.12 3.46181 -1.2064 0
M  V30 45170 H 4436.76 4.97301 0.755025 0
M  V30 45171 H 4436.46 5.82385 -0.781106 0
M  V30 45172 H 4437.99 6.10505 0.107911 0
M  V30 45173 H 4439.4 5.35875 -2.03742 0
M  V30 45174 H 4437.8 5.29396 -2.82595 0
M  V30 45175 H 4438.87 3.88262 -2.90484 0
M  V30 45176 N 4440.21 0.821581 1.34491 0
M  V30 45177 C 4441.44 0.420944 2.03083 0
M  V30 45178 C 4441.86 -0.964858 1.61469 0
M  V30 45179 O 4441.22 -1.62761 0.798664 0
M  V30 45180 C 4441.27 0.529539 3.56691 0
M  V30 45181 O 4440.37 -0.451158 4.09925 0
M  V30 45182 H 4439.71 0.173512 0.640929 0
M  V30 45183 H 4442.24 1.11163 1.71767 0
M  V30 45184 H 4442.25 0.404814 4.05987 0
M  V30 45185 H 4440.93 1.54027 3.86327 0
M  V30 45186 H 4439.51 -0.285427 3.71806 0
M  V30 45187 N 4441.69 -1.4668 0.576422 0
M  V30 45188 C 4442.92 -2.07304 0.0631204 0
M  V30 45189 C 4443.34 -1.42333 -1.22975 0
M  V30 45190 O 4442.7 -0.504926 -1.74127 0
M  V30 45191 C 4442.75 -3.60473 -0.0957683 0
M  V30 45192 O 4441.85 -3.95931 -1.1538 0
M  V30 45193 H 4441.19 -0.661286 0.0599696 0
M  V30 45194 H 4443.72 -1.88414 0.797577 0
M  V30 45195 H 4443.73 -4.06866 -0.303928 0
M  V30 45196 H 4442.41 -4.07154 0.848423 0
M  V30 45197 H 4440.98 -3.61256 -0.924597 0
M  V30 45198 N 4443.17 -0.313868 -1.54443 0
M  V30 45199 C 4444.39 0.296609 -2.05268 0
M  V30 45200 C 4444.82 1.45753 -1.18903 0
M  V30 45201 O 4444.18 1.80238 -0.195949 0
M  V30 45202 C 4444.22 0.718186 -3.53376 0
M  V30 45203 O 4443.33 1.82162 -3.69988 0
M  V30 45204 H 4442.67 0.0553828 -0.661686 0
M  V30 45205 H 4445.2 -0.459457 -1.99374 0
M  V30 45206 H 4445.21 1.0035 -3.95467 0
M  V30 45207 H 4443.88 -0.130967 -4.15694 0
M  V30 45208 H 4442.46 1.53586 -3.39802 0
M  V30 45209 N 4444.65 1.57544 -0.0418402 0
M  V30 45210 C 4446.06 1.80013 0.495195 0
M  V30 45211 C 4446.41 0.953259 1.71486 0
M  V30 45212 O 4445.53 0.167214 2.15753 0
M  V30 45213 C 4446.13 3.26485 0.905151 0
M  V30 45214 C 4444.69 3.49904 1.38722 0
M  V30 45215 C 4443.83 2.7498 0.357959 0
M  V30 45216 H 4446.79 1.56424 -0.267791 0
M  V30 45217 H 4446.81 3.36894 1.7687 0
M  V30 45218 H 4446.32 3.88096 0.0172646 0
M  V30 45219 H 4444.42 2.93562 2.29461 0
M  V30 45220 H 4444.53 4.58619 1.38582 0
M  V30 45221 H 4442.9 2.40837 0.828827 0
M  V30 45222 H 4443.68 3.39313 -0.52168 0
M  V30 45223 N 4446.12 -0.23145 1.55891 0
M  V30 45224 C 4447.03 -1.30794 1.94757 0
M  V30 45225 C 4448.05 -1.51823 0.850042 0
M  V30 45226 O 4449.23 -1.65146 1.15277 0
M  V30 45227 C 4446.29 -2.6396 2.2478 0
M  V30 45228 C 4445.35 -2.51319 3.48048 0
M  V30 45229 C 4444.59 -3.78135 3.7663 0
M  V30 45230 O 4444.81 -4.80711 3.07039 0
M  V30 45231 O 4443.74 -3.7584 4.70136 0
M  V30 45232 H 4447.57 -1.0082 2.86477 0
M  V30 45233 H 4445.15 -0.433496 1.42973 0
M  V30 45234 H 4447.04 -3.42624 2.4533 0
M  V30 45235 H 4445.71 -2.93635 1.36236 0
M  V30 45236 H 4444.62 -1.70888 3.32788 0
M  V30 45237 H 4445.95 -2.26585 4.36944 0
M  V30 45238 N 4447.6 -1.49533 -0.497755 0
M  V30 45239 C 4448.85 -1.5843 -1.24831 0
M  V30 45240 C 4449.16 -0.277711 -1.93619 0
M  V30 45241 O 4450.37 -0.245265 -2.7039 0
M  V30 45242 C 4448.83 -2.79546 -2.26676 0
M  V30 45243 C 4448.43 -4.16976 -1.63813 0
M  V30 45244 C 4450.18 -2.97775 -3.0254 0
M  V30 45245 C 4448.09 -5.29311 -2.63788 0
M  V30 45246 H 4447.02 -0.589906 -0.469603 0
M  V30 45247 H 4449.67 -1.75925 -0.521795 0
M  V30 45248 H 4448.05 -2.55552 -3.02505 0
M  V30 45249 H 4449.22 -4.5112 -0.939553 0
M  V30 45250 H 4447.54 -4.04133 -1.00328 0
M  V30 45251 H 4450.13 -3.78869 -3.77309 0
M  V30 45252 H 4450.48 -2.08461 -3.60347 0
M  V30 45253 H 4451.01 -3.21823 -2.33827 0
M  V30 45254 H 4447.75 -6.20694 -2.10757 0
M  V30 45255 H 4447.27 -4.99618 -3.31877 0
M  V30 45256 H 4448.95 -5.5878 -3.26151 0
M  V30 45257 N 4449.08 0.749038 -1.38662 0
M  V30 45258 C 4450.03 1.88423 -1.3638 0
M  V30 45259 C 4451.02 1.6756 -0.248988 0
M  V30 45260 O 4452.23 1.75073 -0.418271 0
M  V30 45261 H 4448.6 0.620008 -0.425552 0
M  V30 45262 H 4450.57 1.87465 -2.32163 0
M  V30 45263 C 4449.32 3.25957 -1.21026 0
M  V30 45264 H 4448.65 3.426 -2.06071 0
M  V30 45265 H 4450.09 4.0562 -1.23483 0
M  V30 45266 C 4448.55 3.36799 0.0824757 0
M  V30 45267 O 4449.08 3.87521 1.05784 0
M  V30 45268 N 4447.28 2.90259 0.140837 0
M  V30 45269 H 4446.83 2.49171 -0.653564 0
M  V30 45270 H 4446.79 2.97893 1.00535 0
M  V30 45271 N 4450.56 1.23606 0.977714 0
M  V30 45272 C 4451.97 1.06429 1.53394 0
M  V30 45273 C 4452.32 -0.36751 1.92727 0
M  V30 45274 O 4451.45 -1.25459 1.76321 0
M  V30 45275 C 4452.04 1.92578 2.78746 0
M  V30 45276 C 4450.6 1.79654 3.30759 0
M  V30 45277 C 4449.75 1.88118 2.03732 0
M  V30 45278 H 4452.7 1.3723 0.797104 0
M  V30 45279 H 4452.72 1.45215 3.517 0
M  V30 45280 H 4452.23 2.96779 2.50087 0
M  V30 45281 H 4450.33 0.782453 3.64292 0
M  V30 45282 H 4450.45 2.63188 4.00336 0
M  V30 45283 H 4448.81 1.3173 2.17989 0
M  V30 45284 H 4449.59 2.93881 1.77451 0
M  V30 45285 N 4452.04 -1.17688 1.0482 0
M  V30 45286 C 4452.95 -2.25227 0.656509 0
M  V30 45287 C 4453.96 -1.71019 -0.320701 0
M  V30 45288 O 4455.14 -2.00649 -0.173734 0
M  V30 45289 C 4452.2 -3.46684 0.0333848 0
M  V30 45290 C 4451.27 -4.15993 1.06056 0
M  V30 45291 C 4450.5 -5.31652 0.46708 0
M  V30 45292 O 4450.72 -5.65779 -0.724559 0
M  V30 45293 O 4449.66 -5.89827 1.1995 0
M  V30 45294 H 4453.48 -2.61011 1.55264 0
M  V30 45295 H 4451.07 -1.24916 0.819534 0
M  V30 45296 H 4452.95 -4.20235 -0.313109 0
M  V30 45297 H 4451.62 -3.12706 -0.836456 0
M  V30 45298 H 4450.53 -3.44477 1.45898 0
M  V30 45299 H 4451.86 -4.5399 1.90143 0
M  V30 45300 N 4453.52 -0.828702 -1.34053 0
M  V30 45301 C 4454.74 -0.432691 -2.02325 0
M  V30 45302 C 4455.16 0.96309 -1.62388 0
M  V30 45303 O 4454.52 1.62422 -0.832178 0
M  V30 45304 C 4454.57 -0.531945 -3.57565 0
M  V30 45305 O 4454.29 -1.87272 -3.96057 0
M  V30 45306 C 4455.79 -0.131578 -4.43105 0
M  V30 45307 H 4453.01 -0.172946 -0.648329 0
M  V30 45308 H 4455.55 -1.11846 -1.71204 0
M  V30 45309 H 4453.71 0.105802 -3.87255 0
M  V30 45310 H 4454.12 -1.85104 -4.90751 0
M  V30 45311 H 4455.6 -0.252098 -5.51424 0
M  V30 45312 H 4456.07 0.925494 -4.29338 0
M  V30 45313 H 4456.68 -0.743354 -4.18753 0
M  V30 45314 N 4454.99 1.46373 -0.584193 0
M  V30 45315 C 4455.93 2.28444 0.186038 0
M  V30 45316 C 4456.94 1.38599 0.854066 0
M  V30 45317 O 4458.13 1.63185 0.72338 0
M  V30 45318 C 4455.23 3.13676 1.283 0
M  V30 45319 C 4454.4 4.31655 0.706606 0
M  V30 45320 C 4453.46 4.98273 1.69146 0
M  V30 45321 O 4452.49 5.55819 1.22693 0
M  V30 45322 N 4453.69 4.95418 3.02557 0
M  V30 45323 H 4456.45 2.95188 -0.518089 0
M  V30 45324 H 4454.01 1.56302 -0.422065 0
M  V30 45325 H 4456.01 3.55108 1.94115 0
M  V30 45326 H 4454.58 2.48996 1.88997 0
M  V30 45327 H 4453.8 3.93989 -0.129046 0
M  V30 45328 H 4455.08 5.07907 0.301328 0
M  V30 45329 H 4454.48 4.49914 3.4292 0
M  V30 45330 H 4453.04 5.40787 3.63858 0
M  V30 45331 N 4456.47 0.322054 1.54274 0
M  V30 45332 C 4457.43 -0.531896 2.22943 0
M  V30 45333 C 4458.43 -1.04473 1.22237 0
M  V30 45334 O 4459.62 -0.9374 1.46828 0
M  V30 45335 C 4456.76 -1.73864 2.93231 0
M  V30 45336 H 4457.95 0.0683666 2.99822 0
M  V30 45337 H 4455.5 0.0731193 1.56129 0
M  V30 45338 H 4456.24 -2.37818 2.20484 0
M  V30 45339 H 4456.02 -1.37834 3.67075 0
M  V30 45340 H 4457.51 -2.34484 3.45553 0
M  V30 45341 N 4457.95 -1.5752 0.0501946 0
M  V30 45342 C 4458.91 -2.10373 -0.909712 0
M  V30 45343 C 4459.91 -1.02312 -1.24052 0
M  V30 45344 O 4461.1 -1.28389 -1.17737 0
M  V30 45345 C 4458.23 -2.58715 -2.21989 0
M  V30 45346 H 4459.43 -2.96481 -0.451561 0
M  V30 45347 H 4456.98 -1.55038 -0.198193 0
M  V30 45348 H 4457.72 -1.75998 -2.72388 0
M  V30 45349 H 4457.5 -3.37682 -1.99283 0
M  V30 45350 H 4458.99 -2.99757 -2.9075 0
M  V30 45351 N 4459.43 0.223179 -1.56012 0
M  V30 45352 C 4460.36 1.27981 -1.95303 0
M  V30 45353 C 4461.34 1.48973 -0.821032 0
M  V30 45354 O 4462.52 1.61184 -1.08321 0
M  V30 45355 C 4459.65 2.62992 -2.26831 0
M  V30 45356 C 4458.61 2.56659 -3.42506 0
M  V30 45357 C 4457.93 3.95685 -3.59636 0
M  V30 45358 C 4459.23 2.11584 -4.77524 0
M  V30 45359 H 4460.93 0.953425 -2.83814 0
M  V30 45360 H 4458.47 0.457196 -1.36549 0
M  V30 45361 H 4460.43 3.37068 -2.5291 0
M  V30 45362 H 4459.15 2.97315 -1.35172 0
M  V30 45363 H 4457.81 1.8504 -3.16474 0
M  V30 45364 H 4457.46 4.27312 -2.65355 0
M  V30 45365 H 4457.16 3.92329 -4.37438 0
M  V30 45366 H 4458.68 4.71425 -3.88061 0
M  V30 45367 H 4460.1 2.75402 -5.02818 0
M  V30 45368 H 4458.49 2.19291 -5.58598 0
M  V30 45369 H 4459.56 1.06808 -4.72991 0
M  V30 45370 N 4460.91 1.49795 0.489818 0
M  V30 45371 C 4462.15 1.5909 1.23989 0
M  V30 45372 C 4462.47 0.287975 1.93469 0
M  V30 45373 O 4463.67 0.259601 2.70256 0
M  V30 45374 C 4462.13 2.80744 2.25191 0
M  V30 45375 C 4461.74 4.17839 1.616 0
M  V30 45376 C 4463.48 2.99375 3.00957 0
M  V30 45377 C 4461.39 5.30702 2.60977 0
M  V30 45378 H 4460.32 0.592388 0.466468 0
M  V30 45379 H 4462.97 1.76199 0.512458 0
M  V30 45380 H 4461.35 2.57153 3.01145 0
M  V30 45381 H 4462.53 4.51612 0.915615 0
M  V30 45382 H 4460.84 4.04659 0.981834 0
M  V30 45383 H 4463.44 3.80865 3.75295 0
M  V30 45384 H 4463.78 2.10369 3.59236 0
M  V30 45385 H 4464.31 3.23058 2.32117 0
M  V30 45386 H 4461.05 6.21803 2.07463 0
M  V30 45387 H 4460.57 5.01371 3.29223 0
M  V30 45388 H 4462.25 5.60502 3.23183 0
M  V30 45389 N 4462.38 -0.741673 1.39057 0
M  V30 45390 C 4463.8 -1.04634 1.20515 0
M  V30 45391 C 4464 -2.01404 0.0620926 0
M  V30 45392 O 4463.06 -2.45549 -0.58837 0
M  V30 45393 C 4464.37 -1.61501 2.53649 0
M  V30 45394 C 4465.92 -1.73614 2.60436 0
M  V30 45395 C 4466.39 -2.33892 3.93775 0
M  V30 45396 N 4467.88 -2.41309 3.95379 0
M  V30 45397 C 4468.62 -2.88871 4.95319 0
M  V30 45398 N 4468.11 -3.36379 6.05657 0
M  V30 45399 N 4469.91 -2.8802 4.82702 0
M  V30 45400 H 4462.06 -0.0997409 2.12166 0
M  V30 45401 H 4464.32 -0.106874 0.941956 0
M  V30 45402 H 4464.03 -0.978621 3.3781 0
M  V30 45403 H 4463.9 -2.60401 2.72894 0
M  V30 45404 H 4466.29 -2.36377 1.76663 0
M  V30 45405 H 4466.37 -0.733858 2.45047 0
M  V30 45406 H 4466.01 -1.71759 4.77976 0
M  V30 45407 H 4465.94 -3.34785 4.06481 0
M  V30 45408 H 4468.43 -2.07723 3.15689 0
M  V30 45409 H 4468.75 -3.71162 6.77834 0
M  V30 45410 H 4467.09 -3.34405 6.0926 0
M  V30 45411 H 4470.28 -2.50223 3.95608 0
M  V30 45412 H 4470.46 -3.24773 5.60738 0
M  V30 45413 N 4463.86 -1.24123 -0.971145 0
M  V30 45414 C 4465.11 -1.07674 -1.71029 0
M  V30 45415 C 4465.43 0.38573 -1.91147 0
M  V30 45416 O 4464.7 1.27564 -1.48675 0
M  V30 45417 H 4463.28 -0.395451 -0.633741 0
M  V30 45418 H 4465.94 -1.55988 -1.16849 0
M  V30 45419 H 4465.04 -1.57205 -2.69617 0
M  V30 45420 N 4465.34 1.17131 -1.05443 0
M  V30 45421 C 4466.27 2.20778 -0.615617 0
M  V30 45422 C 4467.29 1.59585 0.321945 0
M  V30 45423 O 4468.47 1.78134 0.114282 0
M  V30 45424 C 4465.57 3.38692 0.118819 0
M  V30 45425 C 4464.75 4.29451 -0.830075 0
M  V30 45426 C 4463.81 5.26023 -0.136443 0
M  V30 45427 O 4462.83 5.63949 -0.771348 0
M  V30 45428 N 4464.03 5.69491 1.1252 0
M  V30 45429 H 4466.8 2.59047 -1.50714 0
M  V30 45430 H 4464.36 1.32055 -0.93665 0
M  V30 45431 H 4466.35 4.00331 0.593038 0
M  V30 45432 H 4464.92 2.98999 0.912044 0
M  V30 45433 H 4464.14 3.65206 -1.48386 0
M  V30 45434 H 4465.43 4.86979 -1.47409 0
M  V30 45435 H 4464.83 5.40756 1.66131 0
M  V30 45436 H 4463.39 6.33262 1.54344 0
M  V30 45437 N 4466.82 0.835799 1.33612 0
M  V30 45438 C 4468.1 0.352085 1.92405 0
M  V30 45439 C 4468.48 -1.16219 1.76228 0
M  V30 45440 O 4467.82 -1.97522 1.1488 0
M  V30 45441 C 4468.03 0.795604 3.3981 0
M  V30 45442 C 4469.38 0.801849 4.1696 0
M  V30 45443 O 4470.41 0.739012 3.4845 0
M  V30 45444 O 4469.26 0.886797 5.39257 0
M  V30 45445 H 4466.36 0.098993 0.821054 0
M  V30 45446 H 4468.9 0.921447 1.42504 0
M  V30 45447 H 4467.68 1.83807 3.45443 0
M  V30 45448 H 4467.3 0.202645 3.97083 0
M  V30 45449 N 4468.3 -1.46061 0.591947 0
M  V30 45450 C 4469.52 -2.07225 0.0851042 0
M  V30 45451 C 4469.95 -1.4363 -1.21458 0
M  V30 45452 O 4469.3 -0.523366 -1.73582 0
M  V30 45453 C 4469.35 -3.60554 -0.0575299 0
M  V30 45454 O 4468.46 -3.97132 -1.11174 0
M  V30 45455 H 4467.8 -0.660613 0.06698 0
M  V30 45456 H 4470.33 -1.87558 0.817516 0
M  V30 45457 H 4470.34 -4.07166 -0.260757 0
M  V30 45458 H 4469.01 -4.06232 0.891559 0
M  V30 45459 H 4467.59 -3.62216 -0.886229 0
M  V30 45460 N 4469.77 -0.330231 -1.54101 0
M  V30 45461 C 4471 0.272107 -2.05103 0
M  V30 45462 C 4471.42 1.45262 -1.206 0
M  V30 45463 O 4470.77 1.80939 -0.238207 0
M  V30 45464 C 4470.83 0.700105 -3.54656 0
M  V30 45465 O 4470.55 -0.433454 -4.3595 0
M  V30 45466 C 4472.05 1.36455 -4.21776 0
M  V30 45467 H 4469.27 0.0548923 -0.668751 0
M  V30 45468 H 4471.81 -0.478355 -1.98827 0
M  V30 45469 H 4469.97 1.40053 -3.61198 0
M  V30 45470 H 4470.38 -0.0949383 -5.24414 0
M  V30 45471 H 4471.85 1.61491 -5.27849 0
M  V30 45472 H 4472.33 2.31396 -3.733 0
M  V30 45473 H 4472.94 0.706528 -4.1939 0
M  V30 45474 N 4471.25 1.57491 -0.0585476 0
M  V30 45475 C 4472.5 1.92157 0.613078 0
M  V30 45476 C 4472.81 0.939394 1.71566 0
M  V30 45477 O 4474.02 1.17837 2.44595 0
M  V30 45478 C 4472.48 3.41307 1.14183 0
M  V30 45479 C 4472.08 4.47944 0.0709691 0
M  V30 45480 C 4473.83 3.84995 1.78828 0
M  V30 45481 C 4471.74 5.88214 0.613018 0
M  V30 45482 H 4470.67 0.717171 0.232771 0
M  V30 45483 H 4473.32 1.83049 -0.128634 0
M  V30 45484 H 4471.7 3.45444 1.93609 0
M  V30 45485 H 4472.87 4.55406 -0.702996 0
M  V30 45486 H 4471.19 4.13642 -0.478459 0
M  V30 45487 H 4473.78 4.87167 2.20391 0
M  V30 45488 H 4474.13 3.21641 2.64297 0
M  V30 45489 H 4474.66 3.83405 1.06045 0
M  V30 45490 H 4471.4 6.55182 -0.204208 0
M  V30 45491 H 4470.92 5.84299 1.3548 0
M  V30 45492 H 4472.6 6.37691 1.0936 0
M  V30 45493 N 4472.73 -0.214903 1.56128 0
M  V30 45494 C 4473.69 -1.2499 1.9212 0
M  V30 45495 C 4474.69 -1.39465 0.800393 0
M  V30 45496 O 4475.88 -1.37616 1.06806 0
M  V30 45497 C 4473.02 -2.62263 2.17786 0
M  V30 45498 H 4474.21 -0.942775 2.84696 0
M  V30 45499 H 4471.76 -0.455601 1.49512 0
M  V30 45500 H 4472.5 -2.98064 1.27783 0
M  V30 45501 H 4472.28 -2.53133 2.99443 0
M  V30 45502 H 4473.77 -3.36937 2.46705 0
M  V30 45503 N 4474.21 -1.50053 -0.481867 0
M  V30 45504 C 4475.17 -1.67589 -1.56354 0
M  V30 45505 C 4476.17 -0.546947 -1.51212 0
M  V30 45506 O 4477.36 -0.813779 -1.54024 0
M  V30 45507 C 4474.49 -1.6911 -2.95997 0
M  V30 45508 H 4475.69 -2.64083 -1.42127 0
M  V30 45509 H 4473.24 -1.39371 -0.707484 0
M  V30 45510 H 4473.97 -0.7427 -3.15681 0
M  V30 45511 H 4473.76 -2.51115 -3.01137 0
M  V30 45512 H 4475.25 -1.84669 -3.74549 0
M  V30 45513 N 4475.69 0.734288 -1.39449 0
M  V30 45514 C 4476.91 1.52861 -1.40172 0
M  V30 45515 C 4477.34 1.881 0.001649 0
M  V30 45516 O 4476.69 1.5196 0.988826 0
M  V30 45517 C 4476.74 2.79227 -2.28176 0
M  V30 45518 O 4475.85 3.75179 -1.71214 0
M  V30 45519 H 4475.19 0.461601 -0.477306 0
M  V30 45520 H 4477.72 0.905884 -1.83453 0
M  V30 45521 H 4477.73 3.27955 -2.42713 0
M  V30 45522 H 4476.4 2.52911 -3.30165 0
M  V30 45523 H 4474.98 3.33952 -1.65923 0
M  V30 45524 N 4477.16 1.24636 0.964549 0
M  V30 45525 C 4478.07 1.05866 2.09355 0
M  V30 45526 C 4479.09 -0.00142738 1.74 0
M  V30 45527 O 4480.27 0.197416 2.0043 0
M  V30 45528 C 4477.33 0.668998 3.40184 0
M  V30 45529 C 4476.39 1.80592 3.89468 0
M  V30 45530 C 4475.63 1.43475 5.14053 0
M  V30 45531 O 4475.85 0.325975 5.69468 0
M  V30 45532 O 4474.78 2.26149 5.57799 0
M  V30 45533 H 4478.61 2.00524 2.28087 0
M  V30 45534 H 4476.19 1.03484 1.07756 0
M  V30 45535 H 4478.08 0.463358 4.18845 0
M  V30 45536 H 4476.75 -0.248423 3.22745 0
M  V30 45537 H 4475.66 2.06634 3.11855 0
M  V30 45538 H 4476.99 2.70223 4.11388 0
M  V30 45539 N 4478.64 -1.1657 1.06062 0
M  V30 45540 C 4479.57 -2.20448 0.627316 0
M  V30 45541 C 4480.59 -1.59753 -0.313478 0
M  V30 45542 O 4481.78 -1.78192 -0.104833 0
M  V30 45543 C 4478.88 -3.3875 -0.100855 0
M  V30 45544 C 4478.05 -4.29005 0.852838 0
M  V30 45545 C 4477.11 -5.25943 0.164337 0
M  V30 45546 O 4476.13 -5.63532 0.801245 0
M  V30 45547 N 4477.34 -5.70079 -1.09498 0
M  V30 45548 H 4480.1 -2.58244 1.52086 0
M  V30 45549 H 4477.66 -1.31556 0.94364 0
M  V30 45550 H 4479.65 -4.0064 -0.571799 0
M  V30 45551 H 4478.22 -2.99479 -0.896175 0
M  V30 45552 H 4477.44 -3.64414 1.50321 0
M  V30 45553 H 4478.73 -4.8619 1.49989 0
M  V30 45554 H 4478.13 -5.41629 -1.63261 0
M  V30 45555 H 4476.69 -6.34072 -1.50983 0
M  V30 45556 N 4480.12 -0.842873 -1.33167 0
M  V30 45557 C 4481.05 -0.236325 -2.27978 0
M  V30 45558 C 4482.07 0.585229 -1.51917 0
M  V30 45559 O 4483.26 0.411644 -1.73689 0
M  V30 45560 C 4480.36 0.685601 -3.31893 0
M  V30 45561 C 4479.53 -0.0974985 -4.37291 0
M  V30 45562 C 4478.59 0.748382 -5.20851 0
M  V30 45563 O 4477.61 0.186139 -5.68896 0
M  V30 45564 N 4478.82 2.06508 -5.42526 0
M  V30 45565 H 4481.58 -1.05097 -2.80668 0
M  V30 45566 H 4479.14 -0.701719 -1.45902 0
M  V30 45567 H 4481.13 1.25655 -3.84698 0
M  V30 45568 H 4479.7 1.40095 -2.7945 0
M  V30 45569 H 4478.92 -0.849842 -3.8493 0
M  V30 45570 H 4480.21 -0.635821 -5.04812 0
M  V30 45571 H 4479.61 2.54536 -5.05201 0
M  V30 45572 H 4478.17 2.58443 -5.98373 0
M  V30 45573 N 4481.6 1.45745 -0.599685 0
M  V30 45574 C 4482.85 2.02592 -0.0919355 0
M  V30 45575 C 4483.18 1.46811 1.27123 0
M  V30 45576 O 4482.45 0.639722 1.83679 0
M  V30 45577 C 4482.74 3.60073 -0.0444663 0
M  V30 45578 C 4482.59 4.26203 -1.43774 0
M  V30 45579 C 4483.91 4.35311 0.647455 0
M  V30 45580 H 4481.03 0.736174 -0.0348829 0
M  V30 45581 H 4483.67 1.73692 -0.770142 0
M  V30 45582 H 4481.82 3.84825 0.533088 0
M  V30 45583 H 4483.49 4.12661 -2.06176 0
M  V30 45584 H 4481.73 3.84909 -2.00069 0
M  V30 45585 H 4482.41 5.35064 -1.35684 0
M  V30 45586 H 4484.88 4.15805 0.15663 0
M  V30 45587 H 4483.76 5.45041 0.64975 0
M  V30 45588 H 4484.02 4.07604 1.71205 0
M  V30 45589 N 4483.08 0.338398 1.53924 0
M  V30 45590 C 4484.04 -0.50822 2.23494 0
M  V30 45591 C 4485.04 -1.03171 1.23339 0
M  V30 45592 O 4486.23 -0.921774 1.47814 0
M  V30 45593 C 4483.36 -1.70744 2.95058 0
M  V30 45594 H 4484.56 0.100163 2.99733 0
M  V30 45595 H 4482.11 0.0896747 1.56043 0
M  V30 45596 H 4482.84 -2.35466 2.22994 0
M  V30 45597 H 4482.63 -1.33933 3.68517 0
M  V30 45598 H 4484.12 -2.30806 3.48021 0
M  V30 45599 N 4484.56 -1.57458 0.0668989 0
M  V30 45600 C 4485.52 -2.11326 -0.887348 0
M  V30 45601 C 4486.52 -1.03622 -1.2296 0
M  V30 45602 O 4487.71 -1.2963 -1.16368 0
M  V30 45603 C 4484.84 -2.61055 -2.19233 0
M  V30 45604 H 4486.03 -2.96943 -0.420089 0
M  V30 45605 H 4483.59 -1.5524 -0.181738 0
M  V30 45606 H 4484.32 -1.78877 -2.70506 0
M  V30 45607 H 4484.11 -3.39776 -1.9569 0
M  V30 45608 H 4485.6 -3.02824 -2.87554 0
M  V30 45609 N 4486.03 0.20662 -1.5624 0
M  V30 45610 C 4487.45 0.556972 -1.49566 0
M  V30 45611 C 4487.65 1.86422 -0.764801 0
M  V30 45612 O 4486.71 2.50583 -0.310579 0
M  V30 45613 C 4488.02 0.622375 -2.94189 0
M  V30 45614 C 4489.57 0.711992 -3.04794 0
M  V30 45615 C 4490.04 0.808608 -4.50805 0
M  V30 45616 N 4491.53 0.87244 -4.5491 0
M  V30 45617 C 4492.27 0.967166 -5.65184 0
M  V30 45618 N 4491.76 1.02491 -6.85177 0
M  V30 45619 N 4493.56 1.00346 -5.53071 0
M  V30 45620 H 4485.71 -0.651014 -2.02177 0
M  V30 45621 H 4487.97 -0.230419 -0.919571 0
M  V30 45622 H 4487.68 -0.26885 -3.50671 0
M  V30 45623 H 4487.55 1.48098 -3.46911 0
M  V30 45624 H 4489.94 1.59365 -2.48368 0
M  V30 45625 H 4490.02 -0.172579 -2.55217 0
M  V30 45626 H 4489.66 -0.0686539 -5.07854 0
M  V30 45627 H 4489.59 1.70881 -4.98104 0
M  V30 45628 H 4492.08 0.837527 -3.68502 0
M  V30 45629 H 4492.4 1.09738 -7.64969 0
M  V30 45630 H 4490.74 0.993784 -6.87858 0
M  V30 45631 H 4493.93 0.955108 -4.58252 0
M  V30 45632 H 4494.11 1.07383 -6.39041 0
M  V30 45633 N 4487.51 1.50306 0.473902 0
M  V30 45634 C 4488.76 1.60396 1.22295 0
M  V30 45635 C 4489.07 0.308479 1.93152 0
M  V30 45636 O 4490.28 0.288251 2.69965 0
M  V30 45637 C 4488.74 2.83117 2.222 0
M  V30 45638 C 4488.34 4.1953 1.57159 0
M  V30 45639 C 4490.09 3.0255 2.97764 0
M  V30 45640 C 4487.99 5.3344 2.55334 0
M  V30 45641 H 4486.92 0.597303 0.460158 0
M  V30 45642 H 4489.58 1.76733 0.493741 0
M  V30 45643 H 4487.96 2.60333 2.98401 0
M  V30 45644 H 4489.13 4.52557 0.867664 0
M  V30 45645 H 4487.45 4.05678 0.93886 0
M  V30 45646 H 4490.04 3.84824 3.71234 0
M  V30 45647 H 4490.39 2.14167 3.56985 0
M  V30 45648 H 4490.92 3.25502 2.28677 0
M  V30 45649 H 4487.66 6.23969 2.00856 0
M  V30 45650 H 4487.18 5.04834 3.23886 0
M  V30 45651 H 4488.86 5.63898 3.1722 0
M  V30 45652 N 4488.99 -0.726883 1.39836 0
M  V30 45653 C 4489.92 -1.854 1.41947 0
M  V30 45654 C 4490.9 -1.6775 0.281787 0
M  V30 45655 O 4492.09 -1.87948 0.488783 0
M  V30 45656 C 4489.22 -3.23238 1.27021 0
M  V30 45657 C 4488.17 -3.55541 2.38274 0
M  V30 45658 C 4487.5 -4.92402 2.08432 0
M  V30 45659 C 4488.8 -3.57686 3.80602 0
M  V30 45660 H 4490.49 -1.83891 2.36272 0
M  V30 45661 H 4488.04 -0.883309 1.13726 0
M  V30 45662 H 4489.99 -4.0177 1.27117 0
M  V30 45663 H 4488.71 -3.25295 0.291678 0
M  V30 45664 H 4487.37 -2.79343 2.37409 0
M  V30 45665 H 4487.02 -4.91049 1.08997 0
M  V30 45666 H 4486.72 -5.14982 2.82961 0
M  V30 45667 H 4488.24 -5.73282 2.10191 0
M  V30 45668 H 4489.66 -4.26279 3.83352 0
M  V30 45669 H 4488.05 -3.91788 4.54557 0
M  V30 45670 H 4489.12 -2.57313 4.10996 0
M  V30 45671 N 4490.47 -1.25146 -0.957926 0
M  V30 45672 C 4491.74 -1.00478 -1.6782 0
M  V30 45673 C 4492.12 0.469984 -2.05802 0
M  V30 45674 O 4491.47 1.44657 -1.7688 0
M  V30 45675 C 4491.68 -1.9373 -2.90293 0
M  V30 45676 C 4493.03 -2.21384 -3.62318 0
M  V30 45677 O 4494.05 -1.91461 -3.00368 0
M  V30 45678 O 4492.91 -2.72248 -4.7386 0
M  V30 45679 H 4490.01 -0.380778 -0.734123 0
M  V30 45680 H 4492.55 -1.36286 -1.01114 0
M  V30 45681 H 4491.33 -2.93325 -2.58991 0
M  V30 45682 H 4490.95 -1.58299 -3.64729 0
M  V30 45683 N 4491.95 1.16006 -1.06679 0
M  V30 45684 C 4493.17 1.91065 -0.806773 0
M  V30 45685 C 4493.6 1.77114 0.633422 0
M  V30 45686 O 4492.95 1.09913 1.44183 0
M  V30 45687 C 4493 3.39651 -1.21118 0
M  V30 45688 O 4492.11 4.10892 -0.352334 0
M  V30 45689 H 4491.45 0.595115 -0.294507 0
M  V30 45690 H 4493.98 1.4695 -1.42362 0
M  V30 45691 H 4493.99 3.9043 -1.18442 0
M  V30 45692 H 4492.66 3.49124 -2.2602 0
M  V30 45693 H 4491.24 3.70283 -0.440998 0
M  V30 45694 N 4493.42 0.849923 1.32718 0
M  V30 45695 C 4494.37 0.279826 2.30911 0
M  V30 45696 C 4495.37 -0.594222 1.58636 0
M  V30 45697 O 4496.57 -0.482552 1.73411 0
M  V30 45698 H 4492.95 0.0717784 0.748567 0
M  V30 45699 H 4494.92 1.12232 2.7649 0
M  V30 45700 C 4493.67 -0.520987 3.43775 0
M  V30 45701 H 4492.99 0.142281 3.99547 0
M  V30 45702 H 4494.43 -0.885547 4.14649 0
M  V30 45703 C 4492.89 -1.70432 2.90611 0
M  V30 45704 O 4493.42 -2.8033 2.87712 0
M  V30 45705 N 4491.62 -1.52983 2.47072 0
M  V30 45706 H 4491.17 -0.635826 2.4963 0
M  V30 45707 H 4491.13 -2.32303 2.11855 0
M  V30 45708 N 4494.9 -1.45425 0.607406 0
M  V30 45709 C 4496.18 -1.9557 0.0345253 0
M  V30 45710 C 4496.56 -1.54984 -1.43329 0
M  V30 45711 O 4495.91 -0.812316 -2.13574 0
M  V30 45712 C 4496.12 -3.48225 0.232443 0
M  V30 45713 C 4497.47 -4.24449 0.113151 0
M  V30 45714 O 4498.49 -3.55829 0.162556 0
M  V30 45715 O 4497.35 -5.465 -0.0019023 0
M  V30 45716 H 4494.44 -0.826223 -0.0358376 0
M  V30 45717 H 4496.99 -1.55591 0.677454 0
M  V30 45718 H 4495.76 -3.70734 1.25187 0
M  V30 45719 H 4495.38 -3.95093 -0.445757 0
M  V30 45720 N 4496.38 -0.346557 -1.53742 0
M  V30 45721 C 4497.31 0.543238 -2.22669 0
M  V30 45722 C 4498.33 1.06155 -1.2343 0
M  V30 45723 O 4499.51 0.971182 -1.49767 0
M  V30 45724 C 4496.61 1.76066 -2.89575 0
M  V30 45725 C 4495.79 1.37713 -4.15155 0
M  V30 45726 C 4494.85 2.45455 -4.65444 0
M  V30 45727 O 4493.87 2.08637 -5.29584 0
M  V30 45728 N 4495.07 3.76754 -4.41629 0
M  V30 45729 H 4497.84 -0.0470757 -2.99663 0
M  V30 45730 H 4495.4 -0.170823 -1.60996 0
M  V30 45731 H 4497.39 2.47582 -3.20133 0
M  V30 45732 H 4495.96 2.25828 -2.1615 0
M  V30 45733 H 4495.18 0.492609 -3.9111 0
M  V30 45734 H 4496.47 1.0969 -4.96836 0
M  V30 45735 H 4495.87 4.09453 -3.90339 0
M  V30 45736 H 4494.43 4.44431 -4.76785 0
M  V30 45737 N 4497.86 1.5742 -0.0752483 0
M  V30 45738 C 4498.82 2.11794 0.876129 0
M  V30 45739 C 4499.82 1.04273 1.22409 0
M  V30 45740 O 4501.01 1.30246 1.15679 0
M  V30 45741 C 4498.14 2.62214 2.17845 0
M  V30 45742 H 4499.34 2.97162 0.404336 0
M  V30 45743 H 4496.89 1.55334 0.173503 0
M  V30 45744 H 4497.62 1.8031 2.69553 0
M  V30 45745 H 4497.41 3.40809 1.93885 0
M  V30 45746 H 4498.9 3.04345 2.85944 0
M  V30 45747 N 4499.34 -0.198331 1.56347 0
M  V30 45748 C 4500.56 -0.935507 1.84542 0
M  V30 45749 C 4500.98 -1.76987 0.657343 0
M  V30 45750 O 4500.34 -1.78627 -0.37398 0
M  V30 45751 C 4500.39 -1.8343 3.11506 0
M  V30 45752 O 4500.11 -1.03362 4.25732 0
M  V30 45753 C 4501.61 -2.68342 3.52856 0
M  V30 45754 H 4498.83 -0.273104 0.612907 0
M  V30 45755 H 4501.37 -0.206558 2.03454 0
M  V30 45756 H 4499.53 -2.51691 2.94501 0
M  V30 45757 H 4499.94 -1.64581 4.98009 0
M  V30 45758 H 4501.42 -3.27069 4.44668 0
M  V30 45759 H 4501.89 -3.41891 2.75693 0
M  V30 45760 H 4502.5 -2.05458 3.7238 0
M  V30 45761 N 4500.81 -1.50555 -0.465925 0
M  V30 45762 C 4502.06 -1.62042 -1.21943 0
M  V30 45763 C 4502.39 -0.322183 -1.91509 0
M  V30 45764 O 4501.67 0.676659 -1.8235 0
M  V30 45765 C 4501.95 -2.80428 -2.25902 0
M  V30 45766 C 4501.8 -4.20149 -1.60607 0
M  V30 45767 C 4503.12 -2.94365 -3.27165 0
M  V30 45768 H 4500.24 -0.589767 -0.441977 0
M  V30 45769 H 4502.88 -1.82957 -0.512506 0
M  V30 45770 H 4501.03 -2.62727 -2.86194 0
M  V30 45771 H 4502.71 -4.49453 -1.03873 0
M  V30 45772 H 4500.95 -4.24168 -0.909062 0
M  V30 45773 H 4501.62 -4.98923 -2.36178 0
M  V30 45774 H 4504.1 -3.10587 -2.76902 0
M  V30 45775 H 4502.97 -3.78814 -3.97229 0
M  V30 45776 H 4503.23 -2.052 -3.91593 0
M  V30 45777 N 4502.29 0.719457 -1.4022 0
M  V30 45778 C 4503.24 1.85488 -1.40346 0
M  V30 45779 C 4504.23 1.66994 -0.284474 0
M  V30 45780 O 4505.44 1.74146 -0.455313 0
M  V30 45781 H 4501.82 0.610842 -0.438608 0
M  V30 45782 H 4503.79 1.82498 -2.36087 0
M  V30 45783 C 4502.54 3.23317 -1.27912 0
M  V30 45784 H 4501.86 3.38152 -2.13292 0
M  V30 45785 H 4503.3 4.0291 -1.32059 0
M  V30 45786 C 4501.76 3.36898 0.011017 0
M  V30 45787 O 4502.29 3.89678 0.975401 0
M  V30 45788 N 4500.49 2.90492 0.0792372 0
M  V30 45789 H 4500.04 2.47729 -0.70627 0
M  V30 45790 H 4500 2.99958 0.941933 0
M  V30 45791 N 4503.77 1.25652 0.951275 0
M  V30 45792 C 4505.18 1.09659 1.51102 0
M  V30 45793 C 4505.53 -0.326547 1.93463 0
M  V30 45794 O 4504.66 -1.21691 1.78942 0
M  V30 45795 C 4505.25 1.98447 2.74598 0
M  V30 45796 C 4503.81 1.86629 3.26874 0
M  V30 45797 C 4502.96 1.92398 1.99696 0
M  V30 45798 H 4505.91 1.38889 0.767816 0
M  V30 45799 H 4505.93 1.52643 3.48541 0
M  V30 45800 H 4505.44 3.02017 2.43736 0
M  V30 45801 H 4503.54 0.859549 3.6255 0
M  V30 45802 H 4503.66 2.71621 3.94663 0
M  V30 45803 H 4502.02 1.36324 2.15146 0
M  V30 45804 H 4502.8 2.97579 1.71177 0
M  V30 45805 N 4505.25 -1.15438 1.07293 0
M  V30 45806 C 4506.49 -1.86486 0.796912 0
M  V30 45807 C 4506.83 -1.8208 -0.675307 0
M  V30 45808 O 4506.1 -1.24352 -1.49556 0
M  V30 45809 C 4506.39 -3.35621 1.30501 0
M  V30 45810 C 4506.24 -3.48663 2.84173 0
M  V30 45811 C 4507.56 -4.30354 0.921058 0
M  V30 45812 H 4504.68 -0.677134 0.290962 0
M  V30 45813 H 4507.32 -1.35628 1.3306 0
M  V30 45814 H 4505.47 -3.79065 0.851016 0
M  V30 45815 H 4507.14 -3.14087 3.37857 0
M  V30 45816 H 4505.38 -2.90242 3.22401 0
M  V30 45817 H 4506.05 -4.53442 3.14793 0
M  V30 45818 H 4508.53 -3.94866 1.31224 0
M  V30 45819 H 4507.41 -5.33188 1.30391 0
M  V30 45820 H 4507.67 -4.41761 -0.173071 0
M  V30 45821 N 4506.73 -0.85695 -1.32265 0
M  V30 45822 C 4507.64 -0.306212 -2.32593 0
M  V30 45823 C 4508.65 0.577152 -1.64149 0
M  V30 45824 O 4509.83 0.476974 -1.9567 0
M  V30 45825 C 4506.89 0.49444 -3.43156 0
M  V30 45826 C 4505.95 -0.415336 -4.27286 0
M  V30 45827 C 4505.19 0.347199 -5.32569 0
M  V30 45828 O 4505.41 1.57689 -5.4817 0
M  V30 45829 O 4504.34 -0.288193 -6.0121 0
M  V30 45830 H 4508.17 -1.13747 -2.81594 0
M  V30 45831 H 4505.76 -0.61995 -1.3593 0
M  V30 45832 H 4507.64 0.948799 -4.1058 0
M  V30 45833 H 4506.31 1.30246 -2.9634 0
M  V30 45834 H 4505.22 -0.91792 -3.62664 0
M  V30 45835 H 4506.55 -1.1886 -4.77633 0
M  V30 45836 N 4508.2 1.45101 -0.61511 0
M  V30 45837 C 4509.45 2.02183 -0.11325 0
M  V30 45838 C 4509.78 1.48254 1.25901 0
M  V30 45839 O 4509.03 0.65033 1.84578 0
M  V30 45840 C 4509.33 3.57386 -0.0320054 0
M  V30 45841 C 4509 4.305 -1.34092 0
M  V30 45842 C 4507.66 4.50191 -1.69944 0
M  V30 45843 C 4510.01 4.7223 -2.20563 0
M  V30 45844 C 4507.34 5.08871 -2.92006 0
M  V30 45845 C 4509.69 5.3226 -3.4188 0
M  V30 45846 C 4508.36 5.50174 -3.77975 0
M  V30 45847 H 4507.63 0.73984 -0.0414412 0
M  V30 45848 H 4510.27 1.74071 -0.79823 0
M  V30 45849 H 4508.58 3.8482 0.736274 0
M  V30 45850 H 4510.28 3.99265 0.372572 0
M  V30 45851 H 4506.87 4.15492 -1.05188 0
M  V30 45852 H 4511.05 4.56744 -1.94162 0
M  V30 45853 H 4506.31 5.20928 -3.20069 0
M  V30 45854 H 4510.48 5.63548 -4.09129 0
M  V30 45855 H 4508.11 5.9541 -4.72642 0
M  V30 45856 N 4509.68 0.354705 1.53557 0
M  V30 45857 C 4510.63 -0.512115 2.26892 0
M  V30 45858 C 4511.63 -1.09258 1.29456 0
M  V30 45859 O 4512.83 -1.03704 1.47124 0
M  V30 45860 H 4509.21 -0.183853 0.729179 0
M  V30 45861 H 4511.18 0.128307 2.98124 0
M  V30 45862 C 4509.93 -1.64553 3.06297 0
M  V30 45863 H 4509.25 -1.20815 3.81109 0
M  V30 45864 H 4510.69 -2.22699 3.60806 0
M  V30 45865 C 4509.15 -2.5815 2.16472 0
M  V30 45866 O 4509.68 -3.60689 1.76823 0
M  V30 45867 N 4507.88 -2.2709 1.81325 0
M  V30 45868 H 4507.43 -1.43744 2.13765 0
M  V30 45869 H 4507.39 -2.89971 1.21508 0
M  V30 45870 N 4511.16 -1.57378 0.0835957 0
M  V30 45871 C 4512.39 -1.98265 -0.591501 0
M  V30 45872 C 4512.8 -0.962359 -1.62432 0
M  V30 45873 O 4512.16 0.0495168 -1.82433 0
M  V30 45874 C 4512.21 -3.39218 -1.24953 0
M  V30 45875 O 4511.93 -4.37339 -0.258032 0
M  V30 45876 C 4513.43 -3.95045 -2.01133 0
M  V30 45877 H 4510.65 -0.651779 -0.159454 0
M  V30 45878 H 4513.2 -2.03877 0.159487 0
M  V30 45879 H 4511.35 -3.34656 -1.95152 0
M  V30 45880 H 4511.77 -5.19373 -0.731551 0
M  V30 45881 H 4513.24 -4.95857 -2.4255 0
M  V30 45882 H 4513.72 -3.32232 -2.87261 0
M  V30 45883 H 4514.32 -4.03045 -1.35775 0
M  V30 45884 N 4512.64 0.190037 -1.5645 0
M  V30 45885 C 4513.55 1.25584 -1.98156 0
M  V30 45886 C 4514.57 1.49516 -0.889996 0
M  V30 45887 O 4515.74 1.62031 -1.19615 0
M  V30 45888 C 4512.81 2.57907 -2.31699 0
M  V30 45889 C 4511.87 2.42003 -3.54589 0
M  V30 45890 C 4511.1 3.68016 -3.86523 0
M  V30 45891 O 4511.32 4.72401 -3.19677 0
M  V30 45892 O 4510.26 3.63243 -4.79936 0
M  V30 45893 H 4514.08 0.931887 -2.89049 0
M  V30 45894 H 4511.67 0.395437 -1.44072 0
M  V30 45895 H 4513.55 3.35999 -2.54327 0
M  V30 45896 H 4512.23 2.8992 -1.43973 0
M  V30 45897 H 4511.13 1.62005 -3.37202 0
M  V30 45898 H 4512.47 2.14921 -4.42798 0
M  V30 45899 N 4514.12 1.508 0.457934 0
M  V30 45900 C 4515.36 1.62687 1.21082 0
M  V30 45901 C 4515.7 0.332335 1.91335 0
M  V30 45902 O 4514.97 -0.666979 1.82706 0
M  V30 45903 C 4515.25 2.81623 2.24412 0
M  V30 45904 C 4515.11 4.20995 1.58377 0
M  V30 45905 C 4516.43 2.96096 3.256 0
M  V30 45906 H 4513.55 0.592103 0.438843 0
M  V30 45907 H 4516.19 1.83227 0.502796 0
M  V30 45908 H 4514.34 2.64241 2.84796 0
M  V30 45909 H 4516.01 4.49998 1.01488 0
M  V30 45910 H 4514.25 4.24644 0.886555 0
M  V30 45911 H 4514.92 5.00168 2.33529 0
M  V30 45912 H 4517.4 3.12052 2.75251 0
M  V30 45913 H 4516.28 3.80916 3.95215 0
M  V30 45914 H 4516.54 2.07274 3.905 0
M  V30 45915 N 4515.6 -0.71201 1.40599 0
M  V30 45916 C 4516.56 -1.8078 1.40894 0
M  V30 45917 C 4517.56 -1.57936 0.302158 0
M  V30 45918 O 4518.75 -1.64911 0.56124 0
M  V30 45919 C 4515.88 -3.18923 1.2042 0
M  V30 45920 H 4517.07 -1.81916 2.38425 0
M  V30 45921 H 4514.63 -0.918006 1.265 0
M  V30 45922 H 4515.36 -3.23436 0.236636 0
M  V30 45923 H 4515.15 -3.36904 2.00594 0
M  V30 45924 H 4516.64 -3.98944 1.23422 0
M  V30 45925 N 4517.07 -1.26155 -0.944598 0
M  V30 45926 C 4518.3 -1.14265 -1.72485 0
M  V30 45927 C 4518.72 0.30249 -1.86361 0
M  V30 45928 O 4518.07 1.20737 -1.36854 0
M  V30 45929 C 4518.12 -1.80277 -3.13341 0
M  V30 45930 O 4517.85 -3.19144 -3.00131 0
M  V30 45931 C 4519.35 -1.74297 -4.07597 0
M  V30 45932 H 4516.57 -0.39807 -0.540167 0
M  V30 45933 H 4519.11 -1.6671 -1.1844 0
M  V30 45934 H 4517.27 -1.31779 -3.64298 0
M  V30 45935 H 4517.68 -3.51758 -3.89059 0
M  V30 45936 H 4519.15 -2.25129 -5.04005 0
M  V30 45937 H 4519.63 -0.708784 -4.33443 0
M  V30 45938 H 4520.24 -2.22331 -3.62559 0
M  V30 45939 N 4518.55 1.14868 -1.07903 0
M  V30 45940 C 4519.96 1.67364 -0.827422 0
M  V30 45941 C 4520.31 1.85238 0.646628 0
M  V30 45942 O 4519.44 1.55979 1.49998 0
M  V30 45943 C 4520.03 3.04011 -1.49543 0
M  V30 45944 C 4518.59 3.53561 -1.29118 0
M  V30 45945 C 4517.74 2.29155 -1.56151 0
M  V30 45946 H 4520.69 0.990039 -1.24032 0
M  V30 45947 H 4520.71 3.69216 -0.919773 0
M  V30 45948 H 4520.22 2.90969 -2.56824 0
M  V30 45949 H 4518.32 3.71834 -0.238843 0
M  V30 45950 H 4518.44 4.34654 -2.01527 0
M  V30 45951 H 4516.8 2.34975 -0.982799 0
M  V30 45952 H 4517.58 2.18695 -2.64627 0
M  V30 45953 N 4520.03 0.863952 1.31809 0
M  V30 45954 C 4521.44 0.525283 1.79158 0
M  V30 45955 C 4521.79 -0.957458 1.71252 0
M  V30 45956 O 4520.92 -1.7473 1.27665 0
M  V30 45957 C 4521.51 0.946714 3.25304 0
M  V30 45958 C 4520.07 0.659798 3.70572 0
M  V30 45959 C 4519.22 1.14135 2.52722 0
M  V30 45960 H 4522.17 1.05026 1.18976 0
M  V30 45961 H 4522.19 0.2669 3.79563 0
M  V30 45962 H 4521.7 2.02591 3.31027 0
M  V30 45963 H 4519.8 -0.408285 3.70356 0
M  V30 45964 H 4519.92 1.23261 4.62973 0
M  V30 45965 H 4518.28 0.561303 2.48438 0
M  V30 45966 H 4519.06 2.22784 2.61194 0
M  V30 45967 N 4521.51 -1.44772 0.622796 0
M  V30 45968 C 4522.75 -2.0212 0.123971 0
M  V30 45969 C 4523.08 -1.48919 -1.25113 0
M  V30 45970 O 4522.34 -0.66011 -1.84231 0
M  V30 45971 C 4522.64 -3.57364 0.050958 0
M  V30 45972 C 4522.3 -4.29783 1.36373 0
M  V30 45973 C 4520.96 -4.49284 1.7233 0
M  V30 45974 C 4523.32 -4.71054 2.23064 0
M  V30 45975 C 4520.64 -5.07315 2.947 0
M  V30 45976 C 4523 -5.3044 3.44698 0
M  V30 45977 C 4521.66 -5.48161 3.80888 0
M  V30 45978 H 4520.93 -0.73961 0.0453641 0
M  V30 45979 H 4523.58 -1.73645 0.80745 0
M  V30 45980 H 4521.88 -3.85205 -0.715855 0
M  V30 45981 H 4523.58 -3.99457 -0.351392 0
M  V30 45982 H 4520.17 -4.14928 1.0739 0
M  V30 45983 H 4524.35 -4.55708 1.96581 0
M  V30 45984 H 4519.61 -5.19223 3.22827 0
M  V30 45985 H 4523.78 -5.6137 4.12112 0
M  V30 45986 H 4521.41 -5.92895 4.75793 0
M  V30 45987 N 4522.99 -0.362844 -1.53366 0
M  V30 45988 C 4524.21 0.231154 -2.06108 0
M  V30 45989 C 4524.64 1.41896 -1.23479 0
M  V30 45990 O 4523.99 1.79523 -0.253191 0
M  V30 45991 C 4524.04 0.605398 -3.55482 0
M  V30 45992 O 4523.15 1.70298 -3.75596 0
M  V30 45993 H 4522.49 0.0343037 -0.663113 0
M  V30 45994 H 4525.02 -0.522654 -1.97812 0
M  V30 45995 H 4525.03 0.877174 -3.98459 0
M  V30 45996 H 4523.7 -0.26315 -4.15067 0
M  V30 45997 H 4522.28 1.42698 -3.44517 0
M  V30 45998 N 4524.46 1.57332 -0.0919406 0
M  V30 45999 C 4525.39 2.16875 0.865295 0
M  V30 46000 C 4526.38 1.10123 1.29642 0
M  V30 46001 O 4527.56 1.38247 1.36387 0
M  V30 46002 C 4524.69 2.74656 2.12559 0
M  V30 46003 C 4523.64 3.86753 1.83319 0
M  V30 46004 C 4522.97 4.31223 3.1615 0
M  V30 46005 C 4524.27 5.10093 1.12262 0
M  V30 46006 H 4525.96 2.97115 0.369203 0
M  V30 46007 H 4523.51 1.42919 0.176143 0
M  V30 46008 H 4525.46 3.14962 2.79959 0
M  V30 46009 H 4524.19 1.91666 2.64446 0
M  V30 46010 H 4522.85 3.46982 1.18319 0
M  V30 46011 H 4522.49 3.45128 3.65918 0
M  V30 46012 H 4522.19 5.06799 2.9737 0
M  V30 46013 H 4523.72 4.7416 3.84714 0
M  V30 46014 H 4525.13 5.47588 1.69766 0
M  V30 46015 H 4523.53 5.91077 1.03672 0
M  V30 46016 H 4524.6 4.84787 0.10487 0
M  V30 46017 N 4525.94 -0.181737 1.56549 0
M  V30 46018 C 4526.87 -1.22758 1.98627 0
M  V30 46019 C 4527.85 -1.46744 0.860241 0
M  V30 46020 O 4529.04 -1.58255 1.12556 0
M  V30 46021 C 4526.17 -2.56886 2.33724 0
M  V30 46022 C 4525.12 -2.47488 3.4919 0
M  V30 46023 C 4524.45 -3.8601 3.7 0
M  V30 46024 C 4525.75 -1.98849 4.82966 0
M  V30 46025 H 4527.44 -0.877842 2.86242 0
M  V30 46026 H 4524.99 -0.420832 1.37714 0
M  V30 46027 H 4526.94 -3.30244 2.61757 0
M  V30 46028 H 4525.67 -2.93627 1.43007 0
M  V30 46029 H 4524.32 -1.76584 3.21269 0
M  V30 46030 H 4523.97 -4.20127 2.76591 0
M  V30 46031 H 4523.67 -3.80593 4.47686 0
M  V30 46032 H 4525.2 -4.6097 4.00423 0
M  V30 46033 H 4526.61 -2.61974 5.09944 0
M  V30 46034 H 4525.01 -2.04404 5.64215 0
M  V30 46035 H 4526.08 -0.942298 4.75656 0
M  V30 46036 N 4527.42 -1.51041 -0.44993 0
M  V30 46037 C 4528.33 -1.74267 -1.57061 0
M  V30 46038 C 4529.35 -0.62642 -1.62333 0
M  V30 46039 O 4530.52 -0.907226 -1.79809 0
M  V30 46040 C 4527.59 -1.85125 -2.93138 0
M  V30 46041 C 4526.65 -3.0894 -2.98084 0
M  V30 46042 C 4525.88 -3.19271 -4.2767 0
M  V30 46043 O 4526.1 -2.35853 -5.19355 0
M  V30 46044 O 4525.04 -4.1216 -4.38643 0
M  V30 46045 H 4528.86 -2.69308 -1.40381 0
M  V30 46046 H 4526.45 -1.35391 -0.631641 0
M  V30 46047 H 4528.33 -1.94325 -3.7392 0
M  V30 46048 H 4527.01 -0.932697 -3.09972 0
M  V30 46049 H 4525.91 -3.05227 -2.16303 0
M  V30 46050 H 4527.25 -4.00443 -2.86192 0
M  V30 46051 N 4528.9 0.704544 -1.40975 0
M  V30 46052 C 4530.13 1.49349 -1.43187 0
M  V30 46053 C 4530.54 1.88768 -0.0346172 0
M  V30 46054 O 4529.9 1.56187 0.944027 0
M  V30 46055 C 4529.95 2.76179 -2.33254 0
M  V30 46056 O 4529.67 2.38423 -3.67541 0
M  V30 46057 C 4531.17 3.69991 -2.44175 0
M  V30 46058 H 4528.39 0.460542 -0.487998 0
M  V30 46059 H 4530.94 0.868196 -1.85156 0
M  V30 46060 H 4529.09 3.34967 -1.94618 0
M  V30 46061 H 4529.5 3.20111 -4.15487 0
M  V30 46062 H 4530.98 4.55792 -3.1138 0
M  V30 46063 H 4531.46 4.13862 -1.47021 0
M  V30 46064 H 4532.06 3.17111 -2.83409 0
M  V30 46065 N 4530.38 1.26654 0.937895 0
M  V30 46066 C 4531.6 1.15285 1.72407 0
M  V30 46067 C 4532.03 -0.2878 1.85885 0
M  V30 46068 O 4531.38 -1.2085 1.35148 0
M  V30 46069 C 4531.43 1.83039 3.10691 0
M  V30 46070 O 4530.54 1.12142 3.9686 0
M  V30 46071 H 4529.88 0.401523 0.528844 0
M  V30 46072 H 4532.41 1.67535 1.17444 0
M  V30 46073 H 4532.42 1.89994 3.61063 0
M  V30 46074 H 4531.09 2.87844 3.00198 0
M  V30 46075 H 4529.67 1.13185 3.55308 0
M  V30 46076 N 4531.85 -1.14294 1.08511 0
M  V30 46077 C 4532.8 -2.21481 0.710561 0
M  V30 46078 C 4533.8 -1.66999 -0.284175 0
M  V30 46079 O 4535 -1.79402 -0.146629 0
M  V30 46080 H 4531.38 -0.721571 0.211754 0
M  V30 46081 H 4533.35 -2.50342 1.62393 0
M  V30 46082 C 4532.1 -3.47429 0.137129 0
M  V30 46083 H 4531.42 -3.89683 0.893729 0
M  V30 46084 H 4532.86 -4.2391 -0.0871298 0
M  V30 46085 C 4531.32 -3.17552 -1.12527 0
M  V30 46086 O 4531.85 -3.35444 -2.20998 0
M  V30 46087 N 4530.06 -2.71503 -1.03608 0
M  V30 46088 H 4529.6 -2.57143 -0.153313 0
M  V30 46089 H 4529.56 -2.51887 -1.88149 0
M  V30 46090 N 4533.33 -0.87093 -1.31349 0
M  V30 46091 C 4534.24 -0.330865 -2.32255 0
M  V30 46092 C 4535.26 0.559709 -1.64752 0
M  V30 46093 O 4536.43 0.456194 -1.96165 0
M  V30 46094 C 4533.5 0.458016 -3.43661 0
M  V30 46095 C 4532.56 -0.460632 -4.26822 0
M  V30 46096 C 4531.79 0.290694 -5.32908 0
M  V30 46097 O 4532.02 1.51866 -5.49812 0
M  V30 46098 O 4530.95 -0.351943 -6.0087 0
M  V30 46099 H 4534.78 -1.16728 -2.80372 0
M  V30 46100 H 4532.36 -0.634333 -1.35265 0
M  V30 46101 H 4534.24 0.905198 -4.11563 0
M  V30 46102 H 4532.92 1.27096 -2.97705 0
M  V30 46103 H 4531.83 -0.956334 -3.6167 0
M  V30 46104 H 4533.16 -1.2392 -4.76345 0
M  V30 46105 N 4534.81 1.4444 -0.630465 0
M  V30 46106 C 4536.04 2.06414 -0.141743 0
M  V30 46107 C 4536.45 1.47109 1.1834 0
M  V30 46108 O 4535.81 0.593723 1.72572 0
M  V30 46109 C 4535.86 3.61494 -0.0201055 0
M  V30 46110 O 4535.58 4.1859 -1.29284 0
M  V30 46111 C 4537.08 4.40501 0.497389 0
M  V30 46112 H 4534.3 0.666289 -0.0793687 0
M  V30 46113 H 4536.85 1.8532 -0.864679 0
M  V30 46114 H 4535 3.81852 0.653268 0
M  V30 46115 H 4535.42 5.12022 -1.13725 0
M  V30 46116 H 4536.89 5.49435 0.531515 0
M  V30 46117 H 4537.37 4.119 1.5243 0
M  V30 46118 H 4537.97 4.2506 -0.142711 0
M  V30 46119 N 4536.29 0.370972 1.53172 0
M  V30 46120 C 4537.57 -0.273686 1.93676 0
M  V30 46121 C 4537.95 -1.65934 1.30496 0
M  V30 46122 O 4537.29 -2.23696 0.466078 0
M  V30 46123 C 4537.5 -0.318479 3.47544 0
M  V30 46124 C 4538.85 -0.556244 4.20941 0
M  V30 46125 O 4539.88 -0.399462 3.53953 0
M  V30 46126 O 4538.73 -0.861943 5.3966 0
M  V30 46127 H 4535.83 -0.165419 0.810287 0
M  V30 46128 H 4538.37 0.424148 1.64314 0
M  V30 46129 H 4537.15 0.652822 3.85816 0
M  V30 46130 H 4536.77 -1.06199 3.83155 0
M  V30 46131 N 4537.77 -1.57281 0.100283 0
M  V30 46132 C 4539.01 -1.94539 -0.5622 0
M  V30 46133 C 4539.34 -0.982374 -1.67868 0
M  V30 46134 O 4538.6 -0.00287815 -1.957 0
M  V30 46135 C 4538.9 -3.38309 -1.15247 0
M  V30 46136 C 4538.56 -4.50619 -0.15925 0
M  V30 46137 C 4537.22 -4.81065 0.11391 0
M  V30 46138 C 4539.58 -5.18613 0.518643 0
M  V30 46139 C 4536.9 -5.76831 1.07157 0
M  V30 46140 C 4539.26 -6.15407 1.46481 0
M  V30 46141 C 4537.92 -6.44256 1.74615 0
M  V30 46142 H 4537.19 -0.71187 -0.205723 0
M  V30 46143 H 4539.84 -1.90678 0.177217 0
M  V30 46144 H 4538.14 -3.38773 -1.96825 0
M  V30 46145 H 4539.84 -3.64441 -1.67284 0
M  V30 46146 H 4536.43 -4.26891 -0.382341 0
M  V30 46147 H 4540.61 -4.95262 0.320755 0
M  V30 46148 H 4535.87 -5.97496 1.29649 0
M  V30 46149 H 4540.04 -6.67187 1.99587 0
M  V30 46150 H 4537.67 -7.18271 2.48978 0
M  V30 46151 N 4539.25 0.173432 -1.56643 0
M  V30 46152 C 4540.18 1.21703 -1.99275 0
M  V30 46153 C 4541.16 1.46286 -0.868011 0
M  V30 46154 O 4542.34 1.57656 -1.13394 0
M  V30 46155 C 4539.47 2.55643 -2.35083 0
M  V30 46156 C 4538.43 2.45632 -3.50498 0
M  V30 46157 C 4537.75 3.84043 -3.72042 0
M  V30 46158 C 4539.05 1.96285 -4.84014 0
M  V30 46159 H 4540.75 0.862649 -2.86703 0
M  V30 46160 H 4538.29 0.413522 -1.37935 0
M  V30 46161 H 4540.24 3.28851 -2.63505 0
M  V30 46162 H 4538.97 2.92864 -1.44562 0
M  V30 46163 H 4537.63 1.74878 -3.22201 0
M  V30 46164 H 4537.28 4.18654 -2.78815 0
M  V30 46165 H 4536.98 3.78214 -4.49698 0
M  V30 46166 H 4538.5 4.5884 -4.02862 0
M  V30 46167 H 4539.91 2.59266 -5.11326 0
M  V30 46168 H 4538.31 2.01409 -5.65291 0
M  V30 46169 H 4539.38 0.917059 -4.76149 0
M  V30 46170 N 4540.72 1.51278 0.441914 0
M  V30 46171 C 4541.97 1.62954 1.18865 0
M  V30 46172 C 4542.29 0.34938 1.92454 0
M  V30 46173 O 4543.49 0.34545 2.69293 0
M  V30 46174 C 4541.95 2.87766 2.16145 0
M  V30 46175 C 4541.56 4.22769 1.48225 0
M  V30 46176 C 4543.3 3.08798 2.9128 0
M  V30 46177 C 4541.21 5.38736 2.43961 0
M  V30 46178 H 4540.14 0.606929 0.447385 0
M  V30 46179 H 4542.79 1.7774 0.456143 0
M  V30 46180 H 4541.17 2.66603 2.92812 0
M  V30 46181 H 4542.34 4.54296 0.771475 0
M  V30 46182 H 4540.66 4.07578 0.852598 0
M  V30 46183 H 4543.26 3.92611 3.62988 0
M  V30 46184 H 4543.6 2.21691 3.52362 0
M  V30 46185 H 4544.13 3.3028 2.21721 0
M  V30 46186 H 4540.87 6.28089 1.87575 0
M  V30 46187 H 4540.39 5.11591 3.13105 0
M  V30 46188 H 4542.07 5.705 3.05187 0
M  V30 46189 N 4542.2 -0.697058 1.41347 0
M  V30 46190 C 4543.45 -1.45421 1.40346 0
M  V30 46191 C 4543.77 -1.94996 0.0129473 0
M  V30 46192 O 4543.04 -1.71602 -0.944966 0
M  V30 46193 H 4541.62 -0.539576 0.516592 0
M  V30 46194 H 4544.28 -0.825139 1.76571 0
M  V30 46195 H 4543.38 -2.3181 2.08975 0
M  V30 46196 N 4543.68 -1.2715 -0.931165 0
M  V30 46197 C 4544.93 -1.12669 -1.67298 0
M  V30 46198 C 4545.24 0.327651 -1.92836 0
M  V30 46199 O 4546.45 0.593299 -2.64938 0
M  V30 46200 C 4544.9 -1.96841 -3.013 0
M  V30 46201 C 4544.51 -3.46911 -2.83472 0
M  V30 46202 C 4546.26 -1.90999 -3.79104 0
M  V30 46203 C 4544.16 -4.23294 -4.13009 0
M  V30 46204 H 4543.09 -0.418052 -0.627494 0
M  V30 46205 H 4545.74 -1.51542 -1.03476 0
M  V30 46206 H 4544.13 -1.50809 -3.66159 0
M  V30 46207 H 4545.3 -4.00781 -2.27401 0
M  V30 46208 H 4543.61 -3.54096 -2.19101 0
M  V30 46209 H 4546.21 -2.45345 -4.75089 0
M  V30 46210 H 4546.55 -0.882861 -4.06831 0
M  V30 46211 H 4547.09 -2.34907 -3.21035 0
M  V30 46212 H 4543.83 -5.26516 -3.90462 0
M  V30 46213 H 4543.35 -3.74202 -4.68756 0
M  V30 46214 H 4545.03 -4.32282 -4.81395 0
M  V30 46215 N 4545.16 1.13717 -1.09116 0
M  V30 46216 C 4546.11 2.21101 -0.722297 0
M  V30 46217 C 4547.1 1.67148 0.275315 0
M  V30 46218 O 4548.31 1.79477 0.137113 0
M  V30 46219 H 4544.68 0.720437 -0.215578 0
M  V30 46220 H 4546.65 2.49477 -1.63718 0
M  V30 46221 C 4545.4 3.47352 -0.155552 0
M  V30 46222 H 4544.72 3.89203 -0.914382 0
M  V30 46223 H 4546.16 4.23951 0.0646476 0
M  V30 46224 C 4544.62 3.18144 1.10841 0
M  V30 46225 O 4545.15 3.36612 2.19216 0
M  V30 46226 N 4543.36 2.72049 1.02166 0
M  V30 46227 H 4542.91 2.57221 0.139673 0
M  V30 46228 H 4542.86 2.52882 1.86811 0
M  V30 46229 N 4546.64 0.877884 1.30885 0
M  V30 46230 C 4547.55 0.343177 2.32076 0
M  V30 46231 C 4548.56 -0.550964 1.65047 0
M  V30 46232 O 4549.74 -0.445785 1.96404 0
M  V30 46233 C 4546.8 -0.439784 3.43899 0
M  V30 46234 C 4545.86 0.483261 4.26571 0
M  V30 46235 C 4545.1 -0.262428 5.33054 0
M  V30 46236 O 4545.32 -1.48948 5.50609 0
M  V30 46237 O 4544.25 0.383804 6.00675 0
M  V30 46238 H 4548.08 1.18213 2.79749 0
M  V30 46239 H 4545.66 0.641497 1.34927 0
M  V30 46240 H 4547.55 -0.883359 4.12037 0
M  V30 46241 H 4546.22 -1.25515 2.98375 0
M  V30 46242 H 4545.13 0.975501 3.61158 0
M  V30 46243 H 4546.46 1.26444 4.75681 0
M  V30 46244 N 4548.11 -1.44104 0.638116 0
M  V30 46245 C 4549.02 -2.34514 -0.0636509 0
M  V30 46246 C 4550.04 -1.53021 -0.828292 0
M  V30 46247 O 4551.22 -1.85726 -0.778971 0
M  V30 46248 C 4548.28 -3.31099 -1.02833 0
M  V30 46249 C 4547.34 -4.28498 -0.262289 0
M  V30 46250 C 4546.57 -5.20469 -1.18101 0
M  V30 46251 O 4546.8 -5.16523 -2.41993 0
M  V30 46252 O 4545.73 -5.98253 -0.661563 0
M  V30 46253 H 4549.56 -2.95986 0.680135 0
M  V30 46254 H 4547.14 -1.43993 0.398302 0
M  V30 46255 H 4549.02 -3.90531 -1.58313 0
M  V30 46256 H 4547.7 -2.7215 -1.7526 0
M  V30 46257 H 4546.61 -3.7259 0.335733 0
M  V30 46258 H 4547.94 -4.90387 0.422108 0
M  V30 46259 N 4549.59 -0.37909 -1.52973 0
M  V30 46260 C 4550.82 0.20928 -2.06341 0
M  V30 46261 C 4551.24 1.40578 -1.24977 0
M  V30 46262 O 4550.6 1.79245 -0.272218 0
M  V30 46263 C 4550.65 0.567661 -3.56104 0
M  V30 46264 O 4549.75 1.66305 -3.77381 0
M  V30 46265 H 4549.09 0.0272686 -0.66344 0
M  V30 46266 H 4551.62 -0.543605 -1.97246 0
M  V30 46267 H 4551.63 0.834862 -3.99367 0
M  V30 46268 H 4550.31 -0.307159 -4.14764 0
M  V30 46269 H 4548.88 1.39036 -3.46011 0
M  V30 46270 N 4551.07 1.57225 -0.108623 0
M  V30 46271 C 4552.32 1.95123 0.552692 0
M  V30 46272 C 4552.65 0.991404 1.66987 0
M  V30 46273 O 4551.92 0.0267895 1.94482 0
M  V30 46274 C 4552.21 3.43043 1.09516 0
M  V30 46275 C 4552.06 4.49796 -0.0178914 0
M  V30 46276 C 4553.38 3.92574 1.98932 0
M  V30 46277 H 4550.5 0.709503 0.199437 0
M  V30 46278 H 4553.14 1.89126 -0.182078 0
M  V30 46279 H 4551.29 3.48285 1.72133 0
M  V30 46280 H 4552.96 4.56658 -0.652745 0
M  V30 46281 H 4551.2 4.28398 -0.68246 0
M  V30 46282 H 4551.88 5.50529 0.402725 0
M  V30 46283 H 4554.35 3.8957 1.46201 0
M  V30 46284 H 4553.23 4.96613 2.33809 0
M  V30 46285 H 4553.49 3.32658 2.91189 0
M  V30 46286 N 4552.55 -0.165123 1.56733 0
M  V30 46287 C 4553.46 -1.22416 2.00129 0
M  V30 46288 C 4554.47 -1.48081 0.913671 0
M  V30 46289 O 4555.65 -1.60108 1.22178 0
M  V30 46290 C 4552.71 -2.54189 2.35773 0
M  V30 46291 C 4551.78 -2.36331 3.58394 0
M  V30 46292 C 4551.01 -3.6182 3.92329 0
M  V30 46293 O 4551.23 -4.67256 3.27152 0
M  V30 46294 O 4550.17 -3.55562 4.85654 0
M  V30 46295 H 4553.99 -0.885784 2.90495 0
M  V30 46296 H 4551.58 -0.372467 1.44683 0
M  V30 46297 H 4553.46 -3.31911 2.59641 0
M  V30 46298 H 4552.13 -2.87593 1.48567 0
M  V30 46299 H 4551.04 -1.5662 3.39737 0
M  V30 46300 H 4552.37 -2.07849 4.46161 0
M  V30 46301 N 4554.03 -1.5151 -0.433885 0
M  V30 46302 C 4555.27 -1.64024 -1.18069 0
M  V30 46303 C 4555.6 -0.360395 -1.91641 0
M  V30 46304 O 4554.87 0.62388 -1.857 0
M  V30 46305 H 4553.45 -0.604515 -0.438828 0
M  V30 46306 H 4556.11 -1.88454 -0.497112 0
M  V30 46307 H 4555.2 -2.46956 -1.90838 0
M  V30 46308 N 4555.5 0.689552 -1.41714 0
M  V30 46309 C 4556.73 1.47822 -1.44763 0
M  V30 46310 C 4557.15 1.88721 -0.0546367 0
M  V30 46311 O 4556.5 1.5718 0.927408 0
M  V30 46312 C 4556.56 2.73689 -2.3617 0
M  V30 46313 O 4556.28 2.34511 -3.70049 0
M  V30 46314 C 4557.78 3.67381 -2.48085 0
M  V30 46315 H 4555 0.45534 -0.492856 0
M  V30 46316 H 4557.54 0.848509 -1.86066 0
M  V30 46317 H 4555.7 3.32884 -1.9816 0
M  V30 46318 H 4556.11 3.15686 -4.18859 0
M  V30 46319 H 4557.58 4.52464 -3.16197 0
M  V30 46320 H 4558.06 4.12279 -1.51402 0
M  V30 46321 H 4558.67 3.14087 -2.86757 0
M  V30 46322 N 4556.98 1.27642 0.924409 0
M  V30 46323 C 4557.95 1.10688 2.00701 0
M  V30 46324 C 4558.95 0.0498388 1.60723 0
M  V30 46325 O 4560.14 0.294714 1.71689 0
M  V30 46326 C 4557.27 0.687281 3.339 0
M  V30 46327 H 4558.46 2.06825 2.17172 0
M  V30 46328 H 4556.01 1.10477 1.10565 0
M  V30 46329 H 4556.75 -0.275326 3.23129 0
M  V30 46330 H 4556.53 1.45073 3.64275 0
M  V30 46331 H 4558.02 0.590998 4.13397 0
M  V30 46332 N 4558.46 -1.13137 1.09717 0
M  V30 46333 C 4559.71 -1.83835 0.829915 0
M  V30 46334 C 4560.02 -1.84601 -0.646663 0
M  V30 46335 O 4561.23 -2.51222 -1.02956 0
M  V30 46336 C 4559.68 -3.30064 1.43478 0
M  V30 46337 C 4559.29 -3.37677 2.94411 0
M  V30 46338 C 4561.04 -4.05783 1.2466 0
M  V30 46339 C 4558.94 -4.78196 3.47969 0
M  V30 46340 H 4557.87 -0.688759 0.306801 0
M  V30 46341 H 4560.52 -1.27443 1.32025 0
M  V30 46342 H 4558.91 -3.86277 0.872131 0
M  V30 46343 H 4560.08 -2.91443 3.56928 0
M  V30 46344 H 4558.4 -2.75425 3.12298 0
M  V30 46345 H 4560.99 -5.09529 1.62124 0
M  V30 46346 H 4561.34 -4.15878 0.187503 0
M  V30 46347 H 4561.87 -3.55908 1.77691 0
M  V30 46348 H 4558.61 -4.73295 4.53511 0
M  V30 46349 H 4558.13 -5.24914 2.90217 0
M  V30 46350 H 4559.81 -5.47121 3.45351 0
M  V30 46351 N 4559.94 -0.884812 -1.30418 0
M  V30 46352 C 4561.17 -0.517363 -2.00017 0
M  V30 46353 C 4561.58 0.898574 -1.665 0
M  V30 46354 O 4560.92 1.60242 -0.898237 0
M  V30 46355 C 4560.98 -0.61215 -3.5425 0
M  V30 46356 C 4560.65 -1.99237 -4.11283 0
M  V30 46357 C 4561.64 -2.96175 -4.2729 0
M  V30 46358 C 4559.33 -2.29771 -4.46666 0
M  V30 46359 C 4561.32 -4.21781 -4.77891 0
M  V30 46360 C 4559.01 -3.55623 -4.96966 0
M  V30 46361 C 4560.01 -4.51443 -5.12531 0
M  V30 46362 O 4559.69 -5.75063 -5.61746 0
M  V30 46363 H 4559.43 -0.198552 -0.646183 0
M  V30 46364 H 4561.98 -1.19196 -1.67277 0
M  V30 46365 H 4560.21 0.119425 -3.86516 0
M  V30 46366 H 4561.9 -0.256001 -4.05092 0
M  V30 46367 H 4562.67 -2.73896 -4.00257 0
M  V30 46368 H 4558.54 -1.55957 -4.33818 0
M  V30 46369 H 4562.09 -4.96578 -4.89955 0
M  V30 46370 H 4557.99 -3.77739 -5.23434 0
M  V30 46371 H 4558.75 -5.77442 -5.80089 0
M  V30 46372 N 4561.42 1.43763 -0.645749 0
M  V30 46373 C 4562.35 2.33471 0.0369656 0
M  V30 46374 C 4563.33 1.49045 0.819727 0
M  V30 46375 O 4564.51 1.77729 0.782696 0
M  V30 46376 C 4561.64 3.32314 1.00918 0
M  V30 46377 C 4560.6 4.26671 0.337051 0
M  V30 46378 C 4559.92 5.15495 1.42019 0
M  V30 46379 C 4561.22 5.16654 -0.765888 0
M  V30 46380 H 4562.92 2.90807 -0.712171 0
M  V30 46381 H 4560.46 1.39833 -0.343926 0
M  V30 46382 H 4562.42 3.93965 1.49565 0
M  V30 46383 H 4561.14 2.73219 1.78939 0
M  V30 46384 H 4559.8 3.66373 -0.1289 0
M  V30 46385 H 4559.45 4.52743 2.19164 0
M  V30 46386 H 4559.15 5.79442 0.975762 0
M  V30 46387 H 4560.67 5.80018 1.90817 0
M  V30 46388 H 4562.08 5.72157 -0.361903 0
M  V30 46389 H 4560.48 5.89282 -1.13433 0
M  V30 46390 H 4561.55 4.5679 -1.62699 0
M  V30 46391 N 4562.89 0.387197 1.5277 0
M  V30 46392 C 4564.31 -0.0872979 1.86496 0
M  V30 46393 C 4564.66 -1.46331 1.30697 0
M  V30 46394 O 4563.78 -2.06797 0.637481 0
M  V30 46395 C 4564.38 -0.165186 3.38397 0
M  V30 46396 C 4562.94 -0.58397 3.71842 0
M  V30 46397 C 4562.08 0.255376 2.76122 0
M  V30 46398 H 4565.03 0.605156 1.46709 0
M  V30 46399 H 4565.05 -0.984718 3.67537 0
M  V30 46400 H 4564.57 0.836434 3.78979 0
M  V30 46401 H 4562.67 -1.59303 3.36828 0
M  V30 46402 H 4562.78 -0.343581 4.77866 0
M  V30 46403 H 4561.14 -0.279037 2.53167 0
M  V30 46404 H 4561.93 1.25494 3.19541 0
M  V30 46405 N 4564.37 -1.57165 0.116959 0
M  V30 46406 C 4565.62 -1.94739 -0.540465 0
M  V30 46407 C 4565.94 -1.00102 -1.67346 0
M  V30 46408 O 4565.21 -0.0569543 -1.95817 0
M  V30 46409 H 4563.79 -0.718989 -0.202644 0
M  V30 46410 H 4566.45 -1.94016 0.185422 0
M  V30 46411 H 4565.55 -2.97722 -0.936379 0
M  V30 46412 N 4565.85 0.156809 -1.56818 0
M  V30 46413 C 4567.26 0.717856 -1.72348 0
M  V30 46414 C 4567.61 1.82121 -0.729811 0
M  V30 46415 O 4566.74 2.16142 0.105705 0
M  V30 46416 C 4567.33 1.30893 -3.12494 0
M  V30 46417 C 4565.89 1.81664 -3.29659 0
M  V30 46418 C 4565.04 0.701255 -2.68287 0
M  V30 46419 H 4567.99 -0.0687547 -1.58551 0
M  V30 46420 H 4568.01 2.17871 -3.1195 0
M  V30 46421 H 4567.52 0.50566 -3.84792 0
M  V30 46422 H 4565.62 2.64589 -2.62342 0
M  V30 46423 H 4565.74 1.9521 -4.37527 0
M  V30 46424 H 4564.1 1.1254 -2.28488 0
M  V30 46425 H 4564.88 -0.0904053 -3.43181 0
M  V30 46426 N 4567.33 1.51738 0.425844 0
M  V30 46427 C 4568.61 1.55524 1.18624 0
M  V30 46428 C 4568.99 0.326292 2.08563 0
M  V30 46429 O 4568.33 -0.687935 2.17898 0
M  V30 46430 C 4568.54 2.87528 1.9781 0
M  V30 46431 C 4569.89 3.39908 2.54456 0
M  V30 46432 O 4570.92 2.89155 2.08009 0
M  V30 46433 O 4569.77 4.28492 3.392 0
M  V30 46434 H 4566.87 0.625758 0.540699 0
M  V30 46435 H 4569.41 1.64057 0.43398 0
M  V30 46436 H 4568.19 3.68427 1.31823 0
M  V30 46437 H 4567.81 2.8221 2.80078 0
M  V30 46438 N 4568.81 -0.682027 1.42078 0
M  V30 46439 C 4570.22 -0.994281 1.24845 0
M  V30 46440 C 4570.42 -2.0096 0.147459 0
M  V30 46441 O 4569.48 -2.47824 -0.483695 0
M  V30 46442 C 4570.79 -1.50598 2.60271 0
M  V30 46443 C 4572.34 -1.62412 2.67566 0
M  V30 46444 C 4572.82 -2.1698 4.03341 0
M  V30 46445 N 4574.31 -2.24323 4.05257 0
M  V30 46446 C 4575.04 -2.67603 5.07125 0
M  V30 46447 N 4574.54 -3.10389 6.19379 0
M  V30 46448 N 4576.33 -2.67287 4.94483 0
M  V30 46449 H 4568.48 -0.00966441 2.12398 0
M  V30 46450 H 4570.74 -0.066826 0.945642 0
M  V30 46451 H 4570.45 -0.834463 3.41657 0
M  V30 46452 H 4570.32 -2.48592 2.83693 0
M  V30 46453 H 4572.71 -2.28672 1.86529 0
M  V30 46454 H 4572.79 -0.629265 2.47939 0
M  V30 46455 H 4572.44 -1.51332 4.84831 0
M  V30 46456 H 4572.37 -3.17243 4.20315 0
M  V30 46457 H 4574.86 -1.94146 3.24215 0
M  V30 46458 H 4575.17 -3.42079 6.92966 0
M  V30 46459 H 4573.52 -3.08264 6.22895 0
M  V30 46460 H 4576.71 -2.33219 4.05865 0
M  V30 46461 H 4576.88 -3.00698 5.74008 0
M  V30 46462 N 4570.29 -1.2813 -0.917626 0
M  V30 46463 C 4571.53 -1.16306 -1.68084 0
M  V30 46464 C 4571.89 0.284448 -1.89881 0
M  V30 46465 O 4573.09 0.52532 -2.63617 0
M  V30 46466 C 4571.36 -1.93557 -3.00451 0
M  V30 46467 S 4572.92 -1.98062 -3.91557 0
M  V30 46468 H 4569.74 -0.415025 -0.5773 0
M  V30 46469 H 4572.34 -1.62177 -1.09173 0
M  V30 46470 H 4571.04 -2.97898 -2.82285 0
M  V30 46471 H 4570.58 -1.4822 -3.6441 0
M  V30 46472 H 4572.59 -1.08432 -4.84208 0
M  V30 46473 N 4571.76 1.12553 -1.10316 0
M  V30 46474 C 4572.71 2.18245 -0.750858 0
M  V30 46475 C 4573.68 1.63854 0.272235 0
M  V30 46476 O 4574.87 1.90195 0.151795 0
M  V30 46477 C 4572.01 3.4459 -0.1875 0
M  V30 46478 C 4571.12 4.13041 -1.26574 0
M  V30 46479 C 4570.25 5.27032 -0.664164 0
M  V30 46480 C 4569.29 5.87347 -1.72307 0
M  V30 46481 N 4568.43 6.92753 -1.14185 0
M  V30 46482 H 4573.27 2.47727 -1.65637 0
M  V30 46483 H 4570.81 1.21626 -0.82738 0
M  V30 46484 H 4572.76 4.16904 0.157002 0
M  V30 46485 H 4571.39 3.1553 0.681244 0
M  V30 46486 H 4570.45 3.38918 -1.72739 0
M  V30 46487 H 4571.76 4.5394 -2.06737 0
M  V30 46488 H 4570.91 6.06103 -0.269037 0
M  V30 46489 H 4569.65 4.87407 0.168911 0
M  V30 46490 H 4568.66 5.06963 -2.12764 0
M  V30 46491 H 4569.88 6.29042 -2.55897 0
M  V30 46492 H 4567.83 6.55168 -0.330215 0
M  V30 46493 H 4567.74 7.32243 -1.88033 0
M  V30 46494 H 4569.01 7.75655 -0.773229 0
M  V30 46495 N 4573.24 0.891716 1.29947 0
M  V30 46496 C 4574.17 0.308074 2.26111 0
M  V30 46497 C 4575.15 -0.575209 1.52086 0
M  V30 46498 O 4576.34 -0.523801 1.81076 0
M  V30 46499 C 4573.46 -0.561617 3.34011 0
M  V30 46500 C 4572.51 0.253257 4.25747 0
M  V30 46501 S 4573.34 1.6459 5.09579 0
M  V30 46502 C 4574.5 0.782918 6.20984 0
M  V30 46503 H 4574.73 1.12319 2.75267 0
M  V30 46504 H 4572.26 0.691558 1.38047 0
M  V30 46505 H 4574.22 -1.05764 3.96641 0
M  V30 46506 H 4572.88 -1.35089 2.83566 0
M  V30 46507 H 4572.08 -0.410731 5.02324 0
M  V30 46508 H 4571.68 0.682133 3.67727 0
M  V30 46509 H 4573.97 0.00281294 6.775 0
M  V30 46510 H 4574.91 1.5205 6.91582 0
M  V30 46511 H 4575.32 0.340836 5.6347 0
M  V30 46512 N 4574.72 -1.43419 0.653364 0
M  V30 46513 C 4575.67 -2.32546 -0.0500714 0
M  V30 46514 C 4576.66 -1.4862 -0.812932 0
M  V30 46515 O 4577.87 -1.64828 -0.723317 0
M  V30 46516 H 4574.24 -0.751186 -0.0349768 0
M  V30 46517 H 4576.21 -2.89599 0.719362 0
M  V30 46518 C 4574.96 -3.32929 -1.00268 0
M  V30 46519 H 4574.29 -3.97534 -0.425096 0
M  V30 46520 H 4575.73 -3.97925 -1.46395 0
M  V30 46521 C 4574.18 -2.6354 -2.09877 0
M  V30 46522 O 4574.71 -2.45103 -3.18257 0
M  V30 46523 N 4572.92 -2.22912 -1.86437 0
M  V30 46524 H 4572.47 -2.38107 -0.983006 0
M  V30 46525 H 4572.43 -1.76814 -2.5997 0
M  V30 46526 N 4576.2 -0.395293 -1.52562 0
M  V30 46527 C 4577.61 0.0774063 -1.86539 0
M  V30 46528 C 4577.96 1.45636 -1.31471 0
M  V30 46529 O 4577.08 2.06456 -0.648439 0
M  V30 46530 C 4577.68 0.147237 -3.3848 0
M  V30 46531 C 4576.24 0.564242 -3.72147 0
M  V30 46532 C 4575.39 -0.270016 -2.75982 0
M  V30 46533 H 4578.34 -0.612928 -1.46386 0
M  V30 46534 H 4578.36 0.965213 -3.68054 0
M  V30 46535 H 4577.87 -0.856521 -3.7853 0
M  V30 46536 H 4575.97 1.57515 -3.37668 0
M  V30 46537 H 4576.08 0.318234 -4.78042 0
M  V30 46538 H 4574.45 0.265607 -2.53311 0
M  V30 46539 H 4575.23 -1.27186 -3.18871 0
M  V30 46540 N 4577.68 1.57101 -0.125292 0
M  V30 46541 C 4578.92 1.97296 0.53419 0
M  V30 46542 C 4579.28 1.00745 1.63445 0
M  V30 46543 O 4580.48 1.29902 2.35327 0
M  V30 46544 C 4578.75 3.41709 1.04736 0
M  V30 46545 S 4580.31 4.03919 1.71449 0
M  V30 46546 H 4577.13 0.689523 0.173434 0
M  V30 46547 H 4579.73 1.94349 -0.211865 0
M  V30 46548 H 4578.43 4.09724 0.235505 0
M  V30 46549 H 4577.97 3.48321 1.82855 0
M  V30 46550 H 4579.98 3.95192 3.00063 0
M  V30 46551 N 4579.15 -0.14849 1.56899 0
M  V30 46552 C 4580.08 -1.18517 2.01186 0
M  V30 46553 C 4581.06 -1.44887 0.891174 0
M  V30 46554 O 4582.25 -1.55832 1.15888 0
M  V30 46555 C 4579.38 -2.5187 2.39121 0
M  V30 46556 C 4578.33 -2.40025 3.54361 0
M  V30 46557 C 4577.66 -3.78075 3.78105 0
M  V30 46558 C 4578.96 -1.8856 4.87075 0
M  V30 46559 H 4580.65 -0.816928 2.88039 0
M  V30 46560 H 4578.2 -0.391526 1.38575 0
M  V30 46561 H 4580.15 -3.24617 2.68703 0
M  V30 46562 H 4578.88 -2.90527 1.49203 0
M  V30 46563 H 4577.54 -1.6973 3.24942 0
M  V30 46564 H 4577.18 -4.14165 2.8544 0
M  V30 46565 H 4576.88 -3.71012 4.55658 0
M  V30 46566 H 4578.41 -4.52373 4.10111 0
M  V30 46567 H 4579.82 -2.51099 5.15386 0
M  V30 46568 H 4578.22 -1.9239 5.68424 0
M  V30 46569 H 4579.29 -0.841192 4.77548 0
M  V30 46570 N 4580.63 -1.51961 -0.417791 0
M  V30 46571 C 4581.58 -1.75283 -1.52901 0
M  V30 46572 C 4582.57 -0.619667 -1.57659 0
M  V30 46573 O 4583.78 -0.801514 -1.6117 0
M  V30 46574 H 4580.15 -0.554159 -0.508342 0
M  V30 46575 H 4582.13 -2.68394 -1.30412 0
M  V30 46576 C 4580.87 -1.91272 -2.90362 0
M  V30 46577 H 4580.2 -2.77882 -2.8744 0
M  V30 46578 H 4581.64 -2.11594 -3.67429 0
M  V30 46579 C 4580.1 -0.677547 -3.30017 0
M  V30 46580 O 4580.63 0.158658 -4.01387 0
M  V30 46581 N 4578.83 -0.515951 -2.85983 0
M  V30 46582 H 4578.38 -1.19752 -2.28073 0
M  V30 46583 H 4578.34 0.309205 -3.12876 0
M  V30 46584 N 4582.11 0.674483 -1.42438 0
M  V30 46585 C 4583.36 1.4317 -1.42642 0
M  V30 46586 C 4583.68 1.9495 -0.0439678 0
M  V30 46587 O 4582.95 1.73083 0.917546 0
M  V30 46588 H 4581.53 0.531289 -0.52511 0
M  V30 46589 H 4584.19 0.796943 -1.77862 0
M  V30 46590 H 4583.29 2.28456 -2.12637 0
M  V30 46591 N 4583.59 1.28615 0.910818 0
M  V30 46592 C 4584.84 1.15711 1.65696 0
M  V30 46593 C 4585.16 -0.294092 1.9277 0
M  V30 46594 O 4584.43 -1.20325 1.54592 0
M  V30 46595 H 4583.01 0.425237 0.614152 0
M  V30 46596 H 4585.67 1.61385 1.09274 0
M  V30 46597 H 4584.77 1.69889 2.61809 0
M  V30 46598 N 4585.07 -1.11967 1.10911 0
M  V30 46599 C 4586.29 -1.87399 0.87689 0
M  V30 46600 C 4586.71 -1.79896 -0.572961 0
M  V30 46601 O 4586.07 -1.17634 -1.3953 0
M  V30 46602 C 4586.12 -3.36423 1.32294 0
M  V30 46603 O 4585.84 -3.43756 2.71594 0
M  V30 46604 C 4587.34 -4.28779 1.12533 0
M  V30 46605 H 4584.56 -0.592782 0.314405 0
M  V30 46606 H 4587.1 -1.41644 1.47504 0
M  V30 46607 H 4585.26 -3.79704 0.768362 0
M  V30 46608 H 4585.67 -4.36509 2.90792 0
M  V30 46609 H 4587.15 -5.31608 1.48651 0
M  V30 46610 H 4587.62 -4.39153 0.0643938 0
M  V30 46611 H 4588.23 -3.91285 1.66662 0
M  V30 46612 N 4586.54 -0.898595 -1.29472 0
M  V30 46613 C 4587.78 -0.53084 -1.97387 0
M  V30 46614 C 4588.15 0.905772 -1.69292 0
M  V30 46615 O 4589.35 1.38034 -2.30651 0
M  V30 46616 C 4587.62 -0.813812 -3.48011 0
M  V30 46617 S 4589.18 -0.550201 -4.35337 0
M  V30 46618 H 4586 -0.19698 -0.683169 0
M  V30 46619 H 4588.6 -1.16079 -1.57308 0
M  V30 46620 H 4587.3 -1.85762 -3.65952 0
M  V30 46621 H 4586.83 -0.171934 -3.93024 0
M  V30 46622 H 4588.85 0.60525 -4.92495 0
M  V30 46623 N 4588.02 1.4307 -0.660961 0
M  V30 46624 C 4589.25 2.05768 -0.185226 0
M  V30 46625 C 4589.66 1.49672 1.15736 0
M  V30 46626 O 4589 0.62571 1.72715 0
M  V30 46627 C 4589.07 3.59489 -0.0279501 0
M  V30 46628 C 4588.73 4.38207 -1.29705 0
M  V30 46629 C 4589.73 4.69764 -2.2275 0
M  V30 46630 C 4587.41 4.78084 -1.5408 0
M  V30 46631 C 4589.41 5.40117 -3.38456 0
M  V30 46632 C 4587.09 5.4818 -2.70078 0
M  V30 46633 C 4588.09 5.79119 -3.62091 0
M  V30 46634 O 4587.78 6.47781 -4.76062 0
M  V30 46635 H 4587.51 0.66987 -0.0908322 0
M  V30 46636 H 4590.06 1.84433 -0.904085 0
M  V30 46637 H 4588.29 3.79429 0.746356 0
M  V30 46638 H 4589.98 4.03863 0.406133 0
M  V30 46639 H 4590.75 4.39469 -2.05164 0
M  V30 46640 H 4586.63 4.53405 -0.833375 0
M  V30 46641 H 4590.17 5.64183 -4.10296 0
M  V30 46642 H 4586.07 5.77892 -2.87595 0
M  V30 46643 H 4586.84 6.66267 -4.75427 0
M  V30 46644 N 4589.5 0.403378 1.5235 0
M  V30 46645 C 4590.91 -0.0675126 1.86578 0
M  V30 46646 C 4591.26 -1.44937 1.32241 0
M  V30 46647 O 4590.39 -2.0611 0.659379 0
M  V30 46648 C 4590.98 -0.129285 3.38553 0
M  V30 46649 C 4589.54 -0.544499 3.72441 0
M  V30 46650 C 4588.69 0.284648 2.75835 0
M  V30 46651 H 4591.64 0.620682 1.46059 0
M  V30 46652 H 4591.66 -0.945681 3.68561 0
M  V30 46653 H 4591.17 0.876583 3.78071 0
M  V30 46654 H 4589.27 -1.55722 3.38499 0
M  V30 46655 H 4589.39 -0.292877 4.78204 0
M  V30 46656 H 4587.75 -0.252169 2.53449 0
M  V30 46657 H 4588.53 1.28876 3.18192 0
M  V30 46658 N 4590.98 -1.57033 0.133622 0
M  V30 46659 C 4592.21 -2.00046 -0.528125 0
M  V30 46660 C 4592.62 -1.01355 -1.59288 0
M  V30 46661 O 4591.98 -0.00854785 -1.82498 0
M  V30 46662 C 4592.03 -3.43022 -1.14098 0
M  V30 46663 O 4591.75 -4.37939 -0.118766 0
M  V30 46664 C 4593.25 -4.01244 -1.88463 0
M  V30 46665 H 4590.47 -0.656522 -0.138638 0
M  V30 46666 H 4593.02 -2.03267 0.224268 0
M  V30 46667 H 4591.17 -3.40695 -1.84406 0
M  V30 46668 H 4591.58 -5.21438 -0.565946 0
M  V30 46669 H 4593.06 -5.03322 -2.26651 0
M  V30 46670 H 4593.54 -3.41202 -2.76546 0
M  V30 46671 H 4594.14 -4.07161 -1.22883 0
M  V30 46672 N 4592.46 0.140167 -1.56975 0
M  V30 46673 C 4593.37 1.19216 -2.02051 0
M  V30 46674 C 4594.38 1.46609 -0.937113 0
M  V30 46675 O 4595.56 1.58144 -1.2471 0
M  V30 46676 C 4592.62 2.50406 -2.39787 0
M  V30 46677 C 4591.68 2.30599 -3.62108 0
M  V30 46678 C 4590.92 3.55533 -3.98035 0
M  V30 46679 O 4591.14 4.61992 -3.34544 0
M  V30 46680 O 4590.07 3.4779 -4.91249 0
M  V30 46681 H 4593.9 0.839456 -2.91868 0
M  V30 46682 H 4591.49 0.349402 -1.45257 0
M  V30 46683 H 4593.37 3.27738 -2.64888 0
M  V30 46684 H 4592.04 2.85193 -1.53124 0
M  V30 46685 H 4590.95 1.51195 -3.42186 0
M  V30 46686 H 4592.28 2.00725 -4.49411 0
M  V30 46687 N 4593.93 1.52181 0.409726 0
M  V30 46688 C 4595.16 1.70058 1.17847 0
M  V30 46689 C 4595.58 0.4098 1.84299 0
M  V30 46690 O 4594.93 -0.614123 1.71857 0
M  V30 46691 C 4594.99 2.83576 2.24203 0
M  V30 46692 O 4594.71 4.07655 1.60464 0
M  V30 46693 C 4596.21 3.12958 3.13962 0
M  V30 46694 H 4593.43 0.569929 0.354149 0
M  V30 46695 H 4595.97 1.98735 0.482128 0
M  V30 46696 H 4594.13 2.57419 2.89507 0
M  V30 46697 H 4594.54 4.70907 2.30969 0
M  V30 46698 H 4596.01 3.95902 3.84663 0
M  V30 46699 H 4596.49 2.26485 3.76299 0
M  V30 46700 H 4597.1 3.40877 2.54328 0
M  V30 46701 N 4595.41 -0.666919 1.42793 0
M  V30 46702 C 4596.64 -1.45999 1.47306 0
M  V30 46703 C 4597.06 -1.87894 0.0880978 0
M  V30 46704 O 4596.42 -1.56505 -0.915198 0
M  V30 46705 C 4596.47 -2.68023 2.41239 0
M  V30 46706 O 4595.57 -3.66583 1.88919 0
M  V30 46707 H 4594.91 -0.438302 0.498786 0
M  V30 46708 H 4597.44 -0.817325 1.87566 0
M  V30 46709 H 4597.45 -3.16001 2.58084 0
M  V30 46710 H 4596.13 -2.36871 3.41855 0
M  V30 46711 H 4594.71 -3.25655 1.81668 0
M  V30 46712 N 4596.89 -1.29096 -0.903985 0
M  V30 46713 C 4598.12 -1.19522 -1.68518 0
M  V30 46714 C 4598.53 0.247314 -1.87577 0
M  V30 46715 O 4597.87 1.17793 -1.40963 0
M  V30 46716 C 4597.93 -1.8326 -3.09283 0
M  V30 46717 C 4597.6 -3.32542 -3.13472 0
M  V30 46718 C 4598.59 -4.28831 -2.93938 0
M  V30 46719 C 4596.28 -3.73668 -3.35674 0
M  V30 46720 C 4598.27 -5.64222 -2.96534 0
M  V30 46721 C 4595.96 -5.09182 -3.37901 0
M  V30 46722 C 4596.96 -6.04269 -3.18352 0
M  V30 46723 O 4596.65 -7.3731 -3.20359 0
M  V30 46724 H 4596.38 -0.415486 -0.533243 0
M  V30 46725 H 4598.93 -1.70916 -1.13916 0
M  V30 46726 H 4597.16 -1.26371 -3.65468 0
M  V30 46727 H 4598.85 -1.68067 -3.6947 0
M  V30 46728 H 4599.62 -3.98392 -2.76602 0
M  V30 46729 H 4595.5 -3.00114 -3.49932 0
M  V30 46730 H 4599.04 -6.38417 -2.81193 0
M  V30 46731 H 4594.94 -5.39268 -3.54768 0
M  V30 46732 H 4595.71 -7.4606 -3.36655 0
M  V30 46733 N 4598.37 1.11377 -1.11503 0
M  V30 46734 C 4599.62 1.834 -0.865576 0
M  V30 46735 C 4599.95 1.84461 0.607264 0
M  V30 46736 O 4599.22 1.29817 1.44838 0
M  V30 46737 C 4599.51 3.30547 -1.42867 0
M  V30 46738 C 4599.36 3.37876 -2.96918 0
M  V30 46739 C 4600.68 4.26639 -1.08015 0
M  V30 46740 H 4597.8 0.665868 -0.315893 0
M  V30 46741 H 4600.44 1.30596 -1.38002 0
M  V30 46742 H 4598.59 3.75645 -0.991117 0
M  V30 46743 H 4600.26 3.01331 -3.49281 0
M  V30 46744 H 4598.5 2.78076 -3.32951 0
M  V30 46745 H 4599.18 4.41446 -3.31405 0
M  V30 46746 H 4601.65 3.89724 -1.45789 0
M  V30 46747 H 4600.53 5.27981 -1.5009 0
M  V30 46748 H 4600.79 4.42099 0.00899495 0
M  V30 46749 N 4599.85 0.905449 1.28994 0
M  V30 46750 C 4601.09 0.541301 1.97102 0
M  V30 46751 C 4601.45 -0.896781 1.6977 0
M  V30 46752 O 4602.65 -1.36809 2.3138 0
M  V30 46753 C 4600.92 0.832256 3.47575 0
M  V30 46754 S 4602.48 0.57328 4.35039 0
M  V30 46755 H 4599.3 0.2006 0.682115 0
M  V30 46756 H 4601.9 1.16912 1.5669 0
M  V30 46757 H 4600.61 1.877 3.64962 0
M  V30 46758 H 4600.14 0.192774 3.92927 0
M  V30 46759 H 4602.15 -0.579123 4.92809 0
M  V30 46760 N 4601.33 -1.42718 0.668539 0
M  V30 46761 C 4602.55 -2.05966 0.19642 0
M  V30 46762 C 4602.97 -1.50195 -1.14398 0
M  V30 46763 O 4602.33 -0.639268 -1.70937 0
M  V30 46764 C 4602.38 -3.61314 0.115942 0
M  V30 46765 O 4602.1 -4.15015 1.40337 0
M  V30 46766 C 4603.6 -4.41665 -0.380423 0
M  V30 46767 H 4600.82 -0.663951 0.0970062 0
M  V30 46768 H 4603.36 -1.82962 0.91351 0
M  V30 46769 H 4601.52 -3.8345 -0.551797 0
M  V30 46770 H 4601.93 -5.08827 1.27261 0
M  V30 46771 H 4603.41 -5.50651 -0.385655 0
M  V30 46772 H 4603.88 -4.15797 -1.41456 0
M  V30 46773 H 4604.49 -4.24533 0.255358 0
M  V30 46774 N 4602.8 -0.411452 -1.52134 0
M  V30 46775 C 4604.04 0.163072 -2.03748 0
M  V30 46776 C 4604.41 1.42183 -1.29027 0
M  V30 46777 O 4605.61 2.07494 -1.70879 0
M  V30 46778 C 4603.88 0.402526 -3.55126 0
M  V30 46779 S 4605.44 0.944165 -4.28522 0
M  V30 46780 H 4602.26 0.0439584 -0.70964 0
M  V30 46781 H 4604.86 -0.564906 -1.87161 0
M  V30 46782 H 4603.56 -0.520355 -4.07088 0
M  V30 46783 H 4603.09 1.15831 -3.75961 0
M  V30 46784 H 4605.11 2.22448 -4.43544 0
M  V30 46785 N 4604.28 1.56959 -0.141948 0
M  V30 46786 C 4605.53 1.96252 0.511179 0
M  V30 46787 C 4605.86 1.0266 1.64847 0
M  V30 46788 O 4605.14 0.0680359 1.94381 0
M  V30 46789 C 4605.42 3.45288 1.02215 0
M  V30 46790 C 4605.27 4.49657 -0.113296 0
M  V30 46791 C 4606.59 3.96705 1.9056 0
M  V30 46792 H 4603.71 0.713573 0.184342 0
M  V30 46793 H 4606.35 1.88697 -0.222153 0
M  V30 46794 H 4604.5 3.51858 1.64707 0
M  V30 46795 H 4606.17 4.55171 -0.749462 0
M  V30 46796 H 4604.42 4.26854 -0.773176 0
M  V30 46797 H 4605.09 5.51259 0.285859 0
M  V30 46798 H 4607.56 3.92583 1.37904 0
M  V30 46799 H 4606.44 5.01461 2.23223 0
M  V30 46800 H 4606.7 3.3876 2.84067 0
M  V30 46801 N 4605.76 -0.13184 1.57048 0
M  V30 46802 C 4607.17 -0.690346 1.73468 0
M  V30 46803 C 4607.52 -1.80937 0.758692 0
M  V30 46804 O 4606.65 -2.16282 -0.0713053 0
M  V30 46805 C 4607.24 -1.25905 3.14537 0
M  V30 46806 C 4605.8 -1.76397 3.32507 0
M  V30 46807 C 4604.95 -0.658484 2.69368 0
M  V30 46808 H 4607.9 0.09397 1.58422 0
M  V30 46809 H 4607.92 -2.1288 3.15376 0
M  V30 46810 H 4607.43 -0.444379 3.85548 0
M  V30 46811 H 4605.53 -2.60382 2.66518 0
M  V30 46812 H 4605.65 -1.88225 4.40577 0
M  V30 46813 H 4604.01 -1.08891 2.3025 0
M  V30 46814 H 4604.79 0.144991 3.42994 0
M  V30 46815 N 4607.24 -1.52396 -0.40165 0
M  V30 46816 C 4608.49 -1.66492 -1.14564 0
M  V30 46817 C 4608.81 -0.400964 -1.90833 0
M  V30 46818 O 4608.08 0.58435 -1.86982 0
M  V30 46819 H 4606.66 -0.613687 -0.425907 0
M  V30 46820 H 4609.32 -1.89466 -0.457026 0
M  V30 46821 H 4608.41 -2.50948 -1.85557 0
M  V30 46822 N 4608.72 0.659337 -1.43145 0
M  V30 46823 C 4609.95 1.44508 -1.47651 0
M  V30 46824 C 4610.35 1.88981 -0.091076 0
M  V30 46825 O 4609.7 1.59706 0.907733 0
M  V30 46826 C 4609.76 2.71655 -2.35465 0
M  V30 46827 C 4609.42 2.49161 -3.83103 0
M  V30 46828 C 4610.42 2.12773 -4.74367 0
M  V30 46829 C 4608.1 2.63676 -4.27528 0
M  V30 46830 C 4610.1 1.91188 -6.08051 0
M  V30 46831 C 4607.79 2.41706 -5.61268 0
M  V30 46832 C 4608.78 2.05517 -6.51346 0
M  V30 46833 O 4608.47 1.83772 -7.82613 0
M  V30 46834 H 4608.2 0.450623 -0.5039 0
M  V30 46835 H 4610.76 0.816181 -1.88488 0
M  V30 46836 H 4608.99 3.37083 -1.89505 0
M  V30 46837 H 4610.68 3.33586 -2.31246 0
M  V30 46838 H 4611.44 2.01142 -4.41324 0
M  V30 46839 H 4607.32 2.90819 -3.57694 0
M  V30 46840 H 4610.87 1.62866 -6.78322 0
M  V30 46841 H 4606.76 2.52938 -5.93879 0
M  V30 46842 H 4607.53 1.98247 -7.94129 0
M  V30 46843 N 4610.19 1.29574 0.897126 0
M  V30 46844 C 4611.42 1.20711 1.68652 0
M  V30 46845 C 4611.84 -0.228517 1.86707 0
M  V30 46846 O 4611.2 -1.1649 1.38924 0
M  V30 46847 C 4611.25 1.92831 3.04711 0
M  V30 46848 O 4610.35 1.24711 3.93092 0
M  V30 46849 H 4609.69 0.418144 0.515802 0
M  V30 46850 H 4612.22 1.71187 1.12054 0
M  V30 46851 H 4612.23 2.01385 3.54836 0
M  V30 46852 H 4610.91 2.97249 2.90888 0
M  V30 46853 H 4609.49 1.24432 3.51527 0
M  V30 46854 N 4611.67 -1.10784 1.12092 0
M  V30 46855 C 4612.92 -1.82307 0.872269 0
M  V30 46856 C 4613.24 -1.85422 -0.603644 0
M  V30 46857 O 4612.51 -1.32968 -1.43862 0
M  V30 46858 H 4611.09 -0.675126 0.319709 0
M  V30 46859 H 4613.75 -1.34063 1.41468 0
M  V30 46860 H 4612.85 -2.8595 1.25055 0
M  V30 46861 N 4613.15 -0.912277 -1.28512 0
M  V30 46862 C 4614.43 -0.463664 -1.90025 0
M  V30 46863 C 4614.81 1.05747 -1.82704 0
M  V30 46864 O 4614.16 1.90488 -1.26201 0
M  V30 46865 C 4614.37 -0.99237 -3.34594 0
M  V30 46866 C 4615.71 -1.04358 -4.11576 0
M  V30 46867 O 4616.74 -0.940911 -3.43548 0
M  V30 46868 O 4615.6 -1.19969 -5.33169 0
M  V30 46869 H 4612.69 -0.146694 -0.813886 0
M  V30 46870 H 4615.24 -1.00296 -1.36889 0
M  V30 46871 H 4614.01 -2.03634 -3.34139 0
M  V30 46872 H 4613.63 -0.433811 -3.95226 0
M  V30 46873 N 4614.63 1.42361 -0.676098 0
M  V30 46874 C 4615.56 2.29164 0.0403799 0
M  V30 46875 C 4616.57 1.43749 0.764194 0
M  V30 46876 O 4617.76 1.67455 0.618136 0
M  V30 46877 C 4614.86 3.212 1.08091 0
M  V30 46878 C 4614.04 4.35275 0.430659 0
M  V30 46879 C 4613.09 5.08022 1.37115 0
M  V30 46880 O 4612.12 5.62497 0.870962 0
M  V30 46881 N 4613.32 5.13657 2.70438 0
M  V30 46882 H 4616.09 2.91296 -0.704769 0
M  V30 46883 H 4613.65 1.53301 -0.520613 0
M  V30 46884 H 4615.64 3.66734 1.71139 0
M  V30 46885 H 4614.21 2.60512 1.72779 0
M  V30 46886 H 4613.43 3.9237 -0.379347 0
M  V30 46887 H 4614.72 5.08795 -0.0222921 0
M  V30 46888 H 4614.12 4.70811 3.13613 0
M  V30 46889 H 4612.67 5.62832 3.28729 0
M  V30 46890 N 4616.11 0.419515 1.51914 0
M  V30 46891 C 4617.35 -0.152264 2.03832 0
M  V30 46892 C 4617.71 -1.41496 1.2978 0
M  V30 46893 O 4618.91 -2.06585 1.71977 0
M  V30 46894 C 4617.18 -0.383687 3.55334 0
M  V30 46895 S 4618.74 -0.921426 4.29017 0
M  V30 46896 H 4615.56 -0.0401944 0.709863 0
M  V30 46897 H 4618.16 0.574823 1.86858 0
M  V30 46898 H 4616.87 0.541937 4.06806 0
M  V30 46899 H 4616.4 -1.13836 3.7657 0
M  V30 46900 H 4618.41 -2.20092 4.44718 0
M  V30 46901 N 4617.58 -1.56882 0.15027 0
M  V30 46902 C 4618.49 -2.20497 -0.801145 0
M  V30 46903 C 4619.51 -1.19023 -1.26923 0
M  V30 46904 O 4620.69 -1.51612 -1.32574 0
M  V30 46905 C 4617.75 -2.81666 -2.02151 0
M  V30 46906 C 4616.81 -3.98275 -1.60235 0
M  V30 46907 C 4616.05 -4.56518 -2.76454 0
M  V30 46908 O 4616.27 -4.13641 -3.92757 0
M  V30 46909 O 4615.2 -5.46728 -2.51738 0
M  V30 46910 H 4619.03 -3.02316 -0.289611 0
M  V30 46911 H 4616.61 -1.49202 -0.076916 0
M  V30 46912 H 4618.5 -3.20531 -2.73564 0
M  V30 46913 H 4617.17 -2.02858 -2.52251 0
M  V30 46914 H 4616.08 -3.6412 -0.858349 0
M  V30 46915 H 4617.41 -4.78614 -1.14848 0
M  V30 46916 N 4619.06 0.12351 -1.57115 0
M  V30 46917 C 4619.99 1.15301 -2.03046 0
M  V30 46918 C 4620.97 1.4345 -0.914111 0
M  V30 46919 O 4622.16 1.53969 -1.18352 0
M  V30 46920 C 4619.29 2.48034 -2.43097 0
M  V30 46921 C 4618.24 2.34357 -3.58135 0
M  V30 46922 C 4617.57 3.72012 -3.84072 0
M  V30 46923 C 4618.87 1.80787 -4.90014 0
M  V30 46924 H 4620.56 0.771 -2.89303 0
M  V30 46925 H 4618.11 0.36943 -1.39181 0
M  V30 46926 H 4620.06 3.20301 -2.73834 0
M  V30 46927 H 4618.79 2.88117 -1.53806 0
M  V30 46928 H 4617.44 1.64539 -3.27601 0
M  V30 46929 H 4617.09 4.09572 -2.91993 0
M  V30 46930 H 4616.79 3.63716 -4.61503 0
M  V30 46931 H 4618.32 4.45791 -4.17256 0
M  V30 46932 H 4619.73 2.42867 -5.19315 0
M  V30 46933 H 4618.13 1.83323 -5.71413 0
M  V30 46934 H 4619.2 0.765112 -4.78826 0
M  V30 46935 N 4620.54 1.52607 0.393562 0
M  V30 46936 C 4621.82 1.58005 1.15299 0
M  V30 46937 C 4622.2 0.370458 2.07824 0
M  V30 46938 O 4621.55 -0.641561 2.19309 0
M  V30 46939 C 4621.76 2.91659 1.91667 0
M  V30 46940 C 4623.1 3.45229 2.47189 0
M  V30 46941 O 4624.13 2.93502 2.01829 0
M  V30 46942 O 4622.99 4.35591 3.30035 0
M  V30 46943 H 4620.08 0.637086 0.527304 0
M  V30 46944 H 4622.63 1.64941 0.399083 0
M  V30 46945 H 4621.4 3.7114 1.23979 0
M  V30 46946 H 4621.02 2.88087 2.74029 0
M  V30 46947 N 4622.02 -0.651737 1.43493 0
M  V30 46948 C 4623.27 -1.41162 1.45188 0
M  V30 46949 C 4623.59 -1.94349 0.0767284 0
M  V30 46950 O 4622.85 -1.72807 -0.918494 0
M  V30 46951 C 4623.15 -2.60906 2.4426 0
M  V30 46952 C 4622.81 -2.26128 3.90098 0
M  V30 46953 C 4621.48 -2.16356 4.29818 0
M  V30 46954 C 4623.83 -1.98317 4.81996 0
M  V30 46955 C 4621.16 -1.7693 5.59386 0
M  V30 46956 C 4623.51 -1.60389 6.1193 0
M  V30 46957 C 4622.17 -1.49143 6.50625 0
M  V30 46958 H 4621.44 -0.516547 0.531282 0
M  V30 46959 H 4624.09 -0.741036 1.76581 0
M  V30 46960 H 4622.39 -3.33103 2.06276 0
M  V30 46961 H 4624.09 -3.19118 2.42826 0
M  V30 46962 H 4620.68 -2.34645 3.58664 0
M  V30 46963 H 4624.86 -2.04787 4.5208 0
M  V30 46964 H 4620.12 -1.6681 5.88204 0
M  V30 46965 H 4624.29 -1.37901 6.8261 0
M  V30 46966 H 4621.92 -1.18364 7.50929 0
M  V30 46967 N 4623.5 -1.30048 -0.890242 0
M  V30 46968 C 4624.77 -1.09233 -1.62258 0
M  V30 46969 C 4625.15 0.360232 -2.08004 0
M  V30 46970 O 4624.5 1.35078 -1.84299 0
M  V30 46971 C 4624.71 -2.08845 -2.79615 0
M  V30 46972 C 4626.06 -2.40278 -3.50074 0
M  V30 46973 O 4627.08 -2.07114 -2.89797 0
M  V30 46974 O 4625.94 -2.96984 -4.58763 0
M  V30 46975 H 4623.04 -0.419157 -0.712907 0
M  V30 46976 H 4625.58 -1.41455 -0.937479 0
M  V30 46977 H 4624.35 -3.06641 -2.43078 0
M  V30 46978 H 4623.98 -1.77409 -3.55825 0
M  V30 46979 N 4624.97 1.10188 -1.12678 0
M  V30 46980 C 4625.88 2.20169 -0.810104 0
M  V30 46981 C 4626.9 1.72822 0.202127 0
M  V30 46982 O 4628.08 2.01369 0.0350983 0
M  V30 46983 C 4625.14 3.4563 -0.272129 0
M  V30 46984 C 4624.2 4.07699 -1.34461 0
M  V30 46985 C 4623.44 5.27172 -0.832214 0
M  V30 46986 O 4623.66 5.69427 0.333084 0
M  V30 46987 O 4622.59 5.80162 -1.60297 0
M  V30 46988 H 4626.42 2.49695 -1.72876 0
M  V30 46989 H 4624 1.18974 -0.903639 0
M  V30 46990 H 4625.89 4.21394 0.0228737 0
M  V30 46991 H 4624.56 3.17725 0.619053 0
M  V30 46992 H 4623.47 3.33608 -1.69282 0
M  V30 46993 H 4624.8 4.39813 -2.20965 0
M  V30 46994 N 4626.45 0.919079 1.28026 0
M  V30 46995 C 4627.69 0.562176 1.96517 0
M  V30 46996 C 4628.06 -0.878724 1.70712 0
M  V30 46997 O 4629.26 -1.34347 2.32818 0
M  V30 46998 C 4627.53 0.869075 3.46673 0
M  V30 46999 S 4629.09 0.619389 4.34407 0
M  V30 47000 H 4625.91 0.207823 0.679949 0
M  V30 47001 H 4628.51 1.18567 1.55442 0
M  V30 47002 H 4627.21 1.9156 3.6295 0
M  V30 47003 H 4626.74 0.234439 3.92701 0
M  V30 47004 H 4628.76 -0.526822 4.93395 0
M  V30 47005 N 4627.93 -1.42001 0.683638 0
M  V30 47006 C 4628.88 -2.27997 -0.0121191 0
M  V30 47007 C 4629.87 -1.41563 -0.764772 0
M  V30 47008 O 4631.06 -1.64938 -0.642229 0
M  V30 47009 C 4628.19 -3.2971 -0.956366 0
M  V30 47010 C 4627.27 -4.23625 -0.20059 0
M  V30 47011 N 4627.66 -4.99445 0.799262 0
M  V30 47012 C 4625.96 -4.43846 -0.437781 0
M  V30 47013 C 4626.66 -5.68097 1.25061 0
M  V30 47014 N 4625.64 -5.40509 0.578838 0
M  V30 47015 H 4629.44 -2.84046 0.754664 0
M  V30 47016 H 4626.95 -1.5407 0.513452 0
M  V30 47017 H 4628.95 -3.90129 -1.46986 0
M  V30 47018 H 4627.61 -2.75222 -1.72288 0
M  V30 47019 H 4628.62 -5.04299 1.17911 0
M  V30 47020 H 4625.3 -4.00386 -1.18311 0
M  V30 47021 H 4626.69 -6.38906 2.07964 0
M  V30 47022 N 4629.41 -0.427565 -1.51689 0
M  V30 47023 C 4630.63 0.143529 -2.06903 0
M  V30 47024 C 4631.06 1.36531 -1.29387 0
M  V30 47025 O 4630.42 1.78288 -0.329105 0
M  V30 47026 C 4630.47 0.454082 -3.5773 0
M  V30 47027 O 4629.57 1.54215 -3.82481 0
M  V30 47028 H 4628.91 0.00614794 -0.663972 0
M  V30 47029 H 4631.44 -0.606082 -1.95417 0
M  V30 47030 H 4631.45 0.707384 -4.01821 0
M  V30 47031 H 4630.13 -0.438957 -4.13577 0
M  V30 47032 H 4628.7 1.27957 -3.50259 0
M  V30 47033 N 4630.89 1.568 -0.158588 0
M  V30 47034 C 4631.84 2.18641 0.793652 0
M  V30 47035 C 4632.83 1.14673 1.24685 0
M  V30 47036 O 4634.04 1.329 1.21399 0
M  V30 47037 H 4630.41 0.700236 0.274179 0
M  V30 47038 H 4632.38 2.97368 0.247991 0
M  V30 47039 C 4631.13 2.83147 2.018 0
M  V30 47040 H 4630.45 3.62869 1.67828 0
M  V30 47041 H 4631.89 3.29903 2.66345 0
M  V30 47042 C 4630.35 1.82254 2.83346 0
M  V30 47043 O 4630.88 1.30014 3.80078 0
M  V30 47044 N 4629.09 1.51296 2.48108 0
M  V30 47045 H 4628.64 1.9397 1.69509 0
M  V30 47046 H 4628.59 0.840402 3.0296 0
M  V30 47047 N 4632.37 -0.115176 1.57179 0
M  V30 47048 C 4633.78 -0.671908 1.7419 0
M  V30 47049 C 4634.13 -1.80122 0.777841 0
M  V30 47050 O 4633.25 -2.16346 -0.0483616 0
M  V30 47051 C 4633.85 -1.22562 3.15855 0
M  V30 47052 C 4632.41 -1.7286 3.3436 0
M  V30 47053 C 4631.55 -0.629877 2.70052 0
M  V30 47054 H 4634.5 0.110767 1.58313 0
M  V30 47055 H 4634.53 -2.09524 3.17616 0
M  V30 47056 H 4634.04 -0.403462 3.85997 0
M  V30 47057 H 4632.14 -2.57541 2.69265 0
M  V30 47058 H 4632.25 -1.83542 4.42549 0
M  V30 47059 H 4630.62 -1.06442 2.31392 0
M  V30 47060 H 4631.4 0.181362 3.42821 0
M  V30 47061 N 4633.84 -1.52813 -0.385464 0
M  V30 47062 C 4635.08 -1.6972 -1.13905 0
M  V30 47063 C 4635.45 -0.429686 -1.8713 0
M  V30 47064 O 4636.65 -0.475164 -2.64567 0
M  V30 47065 C 4634.92 -2.90028 -2.0885 0
M  V30 47066 S 4636.48 -3.27541 -2.91997 0
M  V30 47067 H 4633.3 -0.597403 -0.385526 0
M  V30 47068 H 4635.9 -1.90869 -0.422994 0
M  V30 47069 H 4634.6 -3.80498 -1.53783 0
M  V30 47070 H 4634.13 -2.71223 -2.84959 0
M  V30 47071 H 4636.15 -2.78004 -4.11009 0
M  V30 47072 N 4635.32 0.644118 -1.43836 0
M  V30 47073 C 4636.74 0.960831 -1.27437 0
M  V30 47074 C 4636.94 2.00498 -0.200688 0
M  V30 47075 O 4635.99 2.49019 0.417819 0
M  V30 47076 C 4637.31 1.43644 -2.64172 0
M  V30 47077 C 4638.85 1.55261 -2.71778 0
M  V30 47078 C 4639.33 2.0621 -4.08952 0
M  V30 47079 N 4640.82 2.13499 -4.11063 0
M  V30 47080 C 4641.56 2.54063 -5.14042 0
M  V30 47081 N 4641.05 2.93858 -6.27391 0
M  V30 47082 N 4642.84 2.54083 -5.01396 0
M  V30 47083 H 4635 -0.0466525 -2.12349 0
M  V30 47084 H 4637.26 0.0417305 -0.947081 0
M  V30 47085 H 4636.96 0.743585 -3.43749 0
M  V30 47086 H 4636.84 2.40983 -2.90184 0
M  V30 47087 H 4639.23 2.23646 -1.92527 0
M  V30 47088 H 4639.31 0.563307 -2.49521 0
M  V30 47089 H 4638.95 1.38424 -4.88673 0
M  V30 47090 H 4638.88 3.05988 -4.28578 0
M  V30 47091 H 4641.37 1.85482 -3.29249 0
M  V30 47092 H 4641.68 3.23586 -7.01792 0
M  V30 47093 H 4640.03 2.9164 -6.30849 0
M  V30 47094 H 4643.22 2.22376 -4.11906 0
M  V30 47095 H 4643.39 2.85373 -5.81778 0
M  V30 47096 N 4636.8 1.30518 0.883332 0
M  V30 47097 C 4637.75 1.16948 2.01062 0
M  V30 47098 C 4638.74 0.0809743 1.69206 0
M  V30 47099 O 4639.95 0.24194 1.78367 0
M  V30 47100 H 4636.32 0.361728 0.659285 0
M  V30 47101 H 4638.29 2.12351 2.09642 0
M  V30 47102 C 4637.04 0.879812 3.36385 0
M  V30 47103 H 4636.37 1.70948 3.61409 0
M  V30 47104 H 4637.81 0.824976 4.15897 0
M  V30 47105 C 4636.26 -0.417292 3.34306 0
M  V30 47106 O 4636.79 -1.4383 3.75068 0
M  V30 47107 N 4635 -0.42904 2.87415 0
M  V30 47108 H 4634.55 0.402312 2.54439 0
M  V30 47109 H 4634.51 -1.29686 2.86407 0
M  V30 47110 N 4638.28 -1.09589 1.13261 0
M  V30 47111 C 4639.53 -1.81372 0.891556 0
M  V30 47112 C 4639.85 -1.86051 -0.583944 0
M  V30 47113 O 4639.12 -1.34486 -1.42444 0
M  V30 47114 H 4637.7 -0.671697 0.326852 0
M  V30 47115 H 4640.36 -1.32555 1.42882 0
M  V30 47116 H 4639.45 -2.84608 1.28081 0
M  V30 47117 N 4639.76 -0.925856 -1.27537 0
M  V30 47118 C 4640.72 -0.428208 -2.25164 0
M  V30 47119 C 4641.72 0.452207 -1.5431 0
M  V30 47120 O 4642.91 0.253547 -1.72345 0
M  V30 47121 C 4640.04 0.38463 -3.38723 0
M  V30 47122 H 4641.23 -1.29076 -2.70702 0
M  V30 47123 H 4638.79 -0.706372 -1.39428 0
M  V30 47124 H 4639.52 1.26607 -2.98565 0
M  V30 47125 H 4639.31 -0.246592 -3.91324 0
M  V30 47126 H 4640.8 0.723245 -4.11289 0
M  V30 47127 N 4641.23 1.41636 -0.691159 0
M  V30 47128 C 4642.46 2.05627 -0.229163 0
M  V30 47129 C 4642.88 1.51996 1.11994 0
M  V30 47130 O 4642.23 0.666382 1.69899 0
M  V30 47131 C 4642.28 3.61084 -0.17341 0
M  V30 47132 O 4642.01 4.1273 -1.46921 0
M  V30 47133 C 4643.51 4.42214 0.31011 0
M  V30 47134 H 4640.73 0.662324 -0.107557 0
M  V30 47135 H 4643.27 1.81486 -0.942502 0
M  V30 47136 H 4641.43 3.84279 0.490723 0
M  V30 47137 H 4641.84 5.06738 -1.35339 0
M  V30 47138 H 4643.31 5.51195 0.298002 0
M  V30 47139 H 4643.79 4.17994 1.34823 0
M  V30 47140 H 4644.4 4.24073 -0.322865 0
M  V30 47141 N 4642.71 0.435603 1.5146 0
M  V30 47142 C 4643.95 -0.130637 2.03982 0
M  V30 47143 C 4644.32 -1.40112 1.31273 0
M  V30 47144 O 4645.52 -2.04749 1.74159 0
M  V30 47145 C 4643.79 -0.345977 3.55721 0
M  V30 47146 S 4645.35 -0.875871 4.2997 0
M  V30 47147 H 4642.17 -0.0326631 0.710249 0
M  V30 47148 H 4644.77 0.59461 1.86238 0
M  V30 47149 H 4643.47 0.585053 4.06208 0
M  V30 47150 H 4643 -1.09835 3.77756 0
M  V30 47151 H 4645.02 -2.15363 4.47027 0
M  V30 47152 N 4644.19 -1.56714 0.166901 0
M  V30 47153 C 4645.44 -1.9704 -0.479893 0
M  V30 47154 C 4645.77 -1.0527 -1.63193 0
M  V30 47155 O 4645.04 -0.0989516 -1.94248 0
M  V30 47156 C 4645.33 -3.46871 -0.96709 0
M  V30 47157 C 4645.18 -4.4942 0.184818 0
M  V30 47158 C 4646.5 -3.99687 -1.84224 0
M  V30 47159 H 4643.62 -0.716416 -0.172966 0
M  V30 47160 H 4646.26 -1.88319 0.252145 0
M  V30 47161 H 4644.41 -3.54434 -1.59088 0
M  V30 47162 H 4646.08 -4.53921 0.821781 0
M  V30 47163 H 4644.33 -4.2557 0.840987 0
M  V30 47164 H 4645 -5.51644 -0.198123 0
M  V30 47165 H 4647.47 -3.94728 -1.31641 0
M  V30 47166 H 4646.35 -5.04948 -2.15217 0
M  V30 47167 H 4646.61 -3.43236 -2.78642 0
M  V30 47168 N 4645.67 0.106839 -1.57237 0
M  V30 47169 C 4646.95 0.843464 -1.7648 0
M  V30 47170 C 4647.33 1.97497 -0.745534 0
M  V30 47171 O 4646.67 2.27357 0.228226 0
M  V30 47172 C 4646.88 1.34892 -3.21878 0
M  V30 47173 C 4648.23 1.7964 -3.84727 0
M  V30 47174 O 4649.26 1.44542 -3.25555 0
M  V30 47175 O 4648.11 2.44498 -4.88757 0
M  V30 47176 H 4645.21 0.401442 -0.723031 0
M  V30 47177 H 4647.75 0.0896331 -1.69463 0
M  V30 47178 H 4646.53 0.537674 -3.87588 0
M  V30 47179 H 4646.15 2.1651 -3.3348 0
M  V30 47180 N 4647.15 1.53016 0.377354 0
M  V30 47181 C 4648.39 1.68294 1.119 0
M  V30 47182 C 4648.72 0.431273 1.90171 0
M  V30 47183 O 4647.99 -0.554528 1.87888 0
M  V30 47184 H 4646.57 0.620385 0.41609 0
M  V30 47185 H 4649.23 1.90169 0.426826 0
M  V30 47186 H 4648.32 2.53869 1.81541 0
M  V30 47187 N 4648.62 -0.636481 1.44176 0
M  V30 47188 C 4649.87 -1.39614 1.46677 0
M  V30 47189 C 4650.2 -1.94256 0.0973373 0
M  V30 47190 O 4649.45 -1.73771 -0.900114 0
M  V30 47191 C 4649.75 -2.583 2.47014 0
M  V30 47192 C 4649.42 -2.21978 3.92475 0
M  V30 47193 C 4648.08 -2.11785 4.32089 0
M  V30 47194 C 4650.43 -1.93193 4.84072 0
M  V30 47195 C 4647.76 -1.70987 5.61231 0
M  V30 47196 C 4650.11 -1.53889 6.13597 0
M  V30 47197 C 4648.78 -1.42234 6.5217 0
M  V30 47198 H 4648.05 -0.510883 0.53673 0
M  V30 47199 H 4650.69 -0.722266 1.77357 0
M  V30 47200 H 4649 -3.30896 2.09798 0
M  V30 47201 H 4650.7 -3.16525 2.46197 0
M  V30 47202 H 4647.29 -2.30828 3.61132 0
M  V30 47203 H 4651.47 -1.99981 4.54226 0
M  V30 47204 H 4646.73 -1.60562 5.8994 0
M  V30 47205 H 4650.9 -1.30653 6.84034 0
M  V30 47206 H 4648.53 -1.10393 7.52142 0
M  V30 47207 N 4650.1 -1.30985 -0.876398 0
M  V30 47208 C 4651.05 -1.18013 -2.00439 0
M  V30 47209 C 4652.04 -0.0899466 -1.69161 0
M  V30 47210 O 4653.25 -0.251395 -1.78236 0
M  V30 47211 H 4649.63 -0.365219 -0.657358 0
M  V30 47212 H 4651.6 -2.1346 -2.08512 0
M  V30 47213 C 4650.35 -0.897639 -3.35913 0
M  V30 47214 H 4649.67 -1.72862 -3.60498 0
M  V30 47215 H 4651.11 -0.84702 -4.15453 0
M  V30 47216 C 4649.57 0.399557 -3.34522 0
M  V30 47217 O 4650.1 1.41839 -3.75825 0
M  V30 47218 N 4648.3 0.413792 -2.87639 0
M  V30 47219 H 4647.85 -0.4158 -2.54222 0
M  V30 47220 H 4647.81 1.28165 -2.87091 0
M  V30 47221 N 4651.58 1.08987 -1.13841 0
M  V30 47222 C 4652.81 1.85008 -0.926267 0
M  V30 47223 C 4653.22 1.81352 0.525064 0
M  V30 47224 O 4652.58 1.21292 1.36362 0
M  V30 47225 C 4652.63 3.32797 -1.41167 0
M  V30 47226 O 4652.35 3.36434 -2.80613 0
M  V30 47227 C 4653.85 4.25644 -1.23862 0
M  V30 47228 H 4651.07 0.584238 -0.330011 0
M  V30 47229 H 4653.62 1.37683 -1.51207 0
M  V30 47230 H 4651.77 3.77533 -0.868764 0
M  V30 47231 H 4652.19 4.28646 -3.02263 0
M  V30 47232 H 4653.66 5.2748 -1.62694 0
M  V30 47233 H 4654.14 4.38828 -0.180805 0
M  V30 47234 H 4654.74 3.86729 -1.76978 0
M  V30 47235 N 4653.06 0.932607 1.27044 0
M  V30 47236 C 4654.31 0.575627 1.94146 0
M  V30 47237 C 4654.63 -0.883923 1.73254 0
M  V30 47238 O 4653.89 -1.64651 1.05776 0
M  V30 47239 C 4654.19 0.853835 3.47051 0
M  V30 47240 C 4653.85 2.2959 3.88071 0
M  V30 47241 C 4652.52 2.69013 3.98981 0
M  V30 47242 C 4654.87 3.23345 4.08775 0
M  V30 47243 C 4652.2 4.01304 4.27986 0
M  V30 47244 C 4654.55 4.55223 4.39266 0
M  V30 47245 C 4653.21 4.94472 4.4839 0
M  V30 47246 H 4652.48 0.210637 0.710432 0
M  V30 47247 H 4655.13 1.1775 1.51021 0
M  V30 47248 H 4653.43 0.169341 3.91434 0
M  V30 47249 H 4655.13 0.556529 3.97119 0
M  V30 47250 H 4651.72 1.98008 3.8012 0
M  V30 47251 H 4655.9 2.94088 3.99782 0
M  V30 47252 H 4651.16 4.31389 4.33259 0
M  V30 47253 H 4655.33 5.27868 4.54234 0
M  V30 47254 H 4652.96 5.97011 4.70619 0
M  V30 47255 N 4654.54 -1.41267 0.698661 0
M  V30 47256 C 4655.95 -1.5524 0.370517 0
M  V30 47257 C 4656.15 -1.67355 -1.12225 0
M  V30 47258 O 4655.21 -1.65369 -1.90812 0
M  V30 47259 C 4656.52 -2.78993 1.12175 0
M  V30 47260 C 4658.07 -2.92793 1.1064 0
M  V30 47261 C 4658.54 -4.19438 1.83944 0
M  V30 47262 N 4660.04 -4.26402 1.80929 0
M  V30 47263 C 4660.77 -5.23263 2.34486 0
M  V30 47264 N 4660.27 -6.26134 2.96526 0
M  V30 47265 N 4662.06 -5.15224 2.24724 0
M  V30 47266 H 4654.21 -1.31648 1.66681 0
M  V30 47267 H 4656.47 -0.635369 0.70357 0
M  V30 47268 H 4656.18 -2.76261 2.17653 0
M  V30 47269 H 4656.05 -3.70604 0.702339 0
M  V30 47270 H 4658.44 -2.95039 0.059875 0
M  V30 47271 H 4658.52 -2.02348 1.5649 0
M  V30 47272 H 4658.17 -4.17953 2.88578 0
M  V30 47273 H 4658.1 -5.08862 1.35527 0
M  V30 47274 H 4660.59 -3.52695 1.357 0
M  V30 47275 H 4660.9 -6.96439 3.34952 0
M  V30 47276 H 4659.24 -6.26627 3.00605 0
M  V30 47277 H 4662.44 -4.33783 1.75926 0
M  V30 47278 H 4662.61 -5.90542 2.66765 0
M  V30 47279 N 4656.01 -0.44363 -1.51227 0
M  V30 47280 C 4657.25 0.119817 -2.04049 0
M  V30 47281 C 4657.62 1.39414 -1.32014 0
M  V30 47282 O 4658.82 2.03822 -1.75242 0
M  V30 47283 C 4657.09 0.327108 -3.559 0
M  V30 47284 S 4658.65 0.853056 -4.30428 0
M  V30 47285 H 4655.47 0.028896 -0.710413 0
M  V30 47286 H 4658.07 -0.604478 -1.8592 0
M  V30 47287 H 4656.77 -0.606587 -4.05892 0
M  V30 47288 H 4656.3 1.0783 -3.78333 0
M  V30 47289 H 4658.32 2.1299 -4.48163 0
M  V30 47290 N 4657.49 1.56623 -0.175209 0
M  V30 47291 C 4658.42 2.21157 0.749117 0
M  V30 47292 C 4659.4 1.1684 1.23622 0
M  V30 47293 O 4660.59 1.45282 1.28868 0
M  V30 47294 C 4657.72 2.85537 1.97701 0
M  V30 47295 C 4656.67 3.95927 1.62561 0
M  V30 47296 C 4656 4.47375 2.92848 0
M  V30 47297 C 4657.3 5.15326 0.850657 0
M  V30 47298 H 4658.99 2.98654 0.21119 0
M  V30 47299 H 4656.54 1.43651 0.100138 0
M  V30 47300 H 4658.49 3.29359 2.6287 0
M  V30 47301 H 4657.22 2.05415 2.53914 0
M  V30 47302 H 4655.88 3.52766 0.997595 0
M  V30 47303 H 4655.52 3.64039 3.47109 0
M  V30 47304 H 4655.22 5.21849 2.70088 0
M  V30 47305 H 4656.75 4.93886 3.59039 0
M  V30 47306 H 4658.16 5.55817 1.40501 0
M  V30 47307 H 4656.56 5.95742 0.721945 0
M  V30 47308 H 4657.63 4.84661 -0.152252 0
M  V30 47309 N 4658.97 -0.0984986 1.57292 0
M  V30 47310 C 4660.21 -0.808266 1.8774 0
M  V30 47311 C 4660.58 -1.76068 0.765781 0
M  V30 47312 O 4661.78 -2.51355 0.952587 0
M  V30 47313 C 4660.05 -1.52082 3.23428 0
M  V30 47314 S 4661.61 -2.26934 3.75562 0
M  V30 47315 H 4658.42 -0.269353 0.658004 0
M  V30 47316 H 4661.03 -0.0655582 1.9539 0
M  V30 47317 H 4659.73 -0.813488 4.02257 0
M  V30 47318 H 4659.26 -2.30349 3.18909 0
M  V30 47319 H 4661.28 -3.53015 3.48705 0
M  V30 47320 N 4660.45 -1.53214 -0.369234 0
M  V30 47321 C 4661.38 -1.8237 -1.45819 0
M  V30 47322 C 4662.36 -0.676962 -1.56049 0
M  V30 47323 O 4663.55 -0.926461 -1.70676 0
M  V30 47324 C 4660.68 -2.01033 -2.83201 0
M  V30 47325 C 4659.63 -3.1679 -2.87799 0
M  V30 47326 C 4658.96 -3.20739 -4.2782 0
M  V30 47327 C 4660.26 -4.55456 -2.55651 0
M  V30 47328 H 4661.95 -2.73564 -1.21669 0
M  V30 47329 H 4659.5 -1.31632 -0.583864 0
M  V30 47330 H 4661.45 -2.20013 -3.59405 0
M  V30 47331 H 4660.17 -1.06547 -3.08732 0
M  V30 47332 H 4658.83 -2.97624 -2.14046 0
M  V30 47333 H 4658.48 -2.23897 -4.50421 0
M  V30 47334 H 4658.18 -3.98511 -4.31813 0
M  V30 47335 H 4659.7 -3.41899 -5.05903 0
M  V30 47336 H 4661.12 -4.74622 -3.21569 0
M  V30 47337 H 4659.51 -5.35442 -2.70965 0
M  V30 47338 H 4660.58 -4.60818 -1.50914 0
M  V30 47339 N 4661.93 0.628826 -1.44511 0
M  V30 47340 C 4663.34 1.21049 -1.42141 0
M  V30 47341 C 4663.69 1.95714 -0.13795 0
M  V30 47342 O 4662.81 2.02556 0.761574 0
M  V30 47343 C 4663.41 2.2018 -2.575 0
M  V30 47344 C 4661.97 2.73768 -2.58318 0
M  V30 47345 C 4661.12 1.48805 -2.33992 0
M  V30 47346 H 4664.07 0.419366 -1.53059 0
M  V30 47347 H 4664.09 3.02825 -2.30385 0
M  V30 47348 H 4663.6 1.65808 -3.50898 0
M  V30 47349 H 4661.7 3.32136 -1.68868 0
M  V30 47350 H 4661.81 3.1965 -3.56877 0
M  V30 47351 H 4660.18 1.77018 -1.8313 0
M  V30 47352 H 4660.96 0.963326 -3.29507 0
M  V30 47353 N 4663.41 1.31448 0.869439 0
M  V30 47354 C 4664.63 1.24261 1.66054 0
M  V30 47355 C 4665.06 -0.188862 1.87149 0
M  V30 47356 O 4664.41 -1.13517 1.41364 0
M  V30 47357 C 4664.46 1.99251 3.00552 0
M  V30 47358 O 4663.57 1.33021 3.90358 0
M  V30 47359 H 4662.91 0.428991 0.506816 0
M  V30 47360 H 4665.44 1.73525 1.08398 0
M  V30 47361 H 4665.45 2.08866 3.50484 0
M  V30 47362 H 4664.12 3.03352 2.84518 0
M  V30 47363 H 4662.7 1.3186 3.48808 0
M  V30 47364 N 4664.88 -1.08381 1.14417 0
M  V30 47365 C 4666.11 -1.84246 0.934708 0
M  V30 47366 C 4666.52 -1.81909 -0.52017 0
M  V30 47367 O 4665.86 -1.22131 -1.37221 0
M  V30 47368 C 4665.93 -3.32848 1.3584 0
M  V30 47369 C 4665.59 -3.5892 2.82888 0
M  V30 47370 C 4666.59 -3.53742 3.81002 0
M  V30 47371 C 4664.27 -3.86923 3.20306 0
M  V30 47372 C 4666.27 -3.76198 5.14543 0
M  V30 47373 C 4663.95 -4.09031 4.54023 0
M  V30 47374 C 4664.95 -4.03662 5.5095 0
M  V30 47375 O 4664.64 -4.2519 6.82253 0
M  V30 47376 H 4664.37 -0.58849 0.332649 0
M  V30 47377 H 4666.93 -1.37787 1.52329 0
M  V30 47378 H 4665.16 -3.80067 0.713152 0
M  V30 47379 H 4666.84 -3.9015 1.11971 0
M  V30 47380 H 4667.61 -3.32123 3.53439 0
M  V30 47381 H 4663.49 -3.90221 2.45455 0
M  V30 47382 H 4667.03 -3.71923 5.90186 0
M  V30 47383 H 4662.93 -4.30135 4.81305 0
M  V30 47384 H 4663.7 -4.42594 6.88515 0
M  V30 47385 N 4666.36 -0.939331 -1.26548 0
M  V30 47386 C 4667.61 -0.586783 -1.94125 0
M  V30 47387 C 4667.94 0.871639 -1.7354 0
M  V30 47388 O 4667.22 1.62336 -1.07133 0
M  V30 47389 C 4667.5 -0.927619 -3.47947 0
M  V30 47390 C 4667.35 -2.44065 -3.77826 0
M  V30 47391 C 4668.67 -0.441723 -4.37878 0
M  V30 47392 H 4665.79 -0.214655 -0.705048 0
M  V30 47393 H 4668.43 -1.17322 -1.49451 0
M  V30 47394 H 4666.58 -0.428566 -3.86129 0
M  V30 47395 H 4668.25 -3.01229 -3.49369 0
M  V30 47396 H 4666.5 -2.88491 -3.23968 0
M  V30 47397 H 4667.17 -2.62964 -4.85339 0
M  V30 47398 H 4669.64 -0.869591 -4.06912 0
M  V30 47399 H 4668.52 -0.709048 -5.44301 0
M  V30 47400 H 4668.78 0.658314 -4.37171 0
M  V30 47401 N 4667.84 1.40895 -0.706143 0
M  V30 47402 C 4669.09 2.00656 -0.241125 0
M  V30 47403 C 4669.41 1.56245 1.16673 0
M  V30 47404 O 4668.68 0.797713 1.78923 0
M  V30 47405 H 4667.26 0.742015 -0.0861568 0
M  V30 47406 H 4669.92 1.72369 -0.909665 0
M  V30 47407 H 4669.02 3.10957 -0.266814 0
M  V30 47408 N 4669.32 0.451643 1.5099 0
M  V30 47409 C 4670.28 -0.341037 2.26649 0
M  V30 47410 C 4671.28 -0.937376 1.30652 0
M  V30 47411 O 4672.47 -0.80959 1.54244 0
M  V30 47412 C 4669.6 -1.48387 3.06911 0
M  V30 47413 H 4670.8 0.322221 2.98164 0
M  V30 47414 H 4668.35 0.205176 1.54947 0
M  V30 47415 H 4669.08 -2.18276 2.39846 0
M  V30 47416 H 4668.87 -1.06228 3.77436 0
M  V30 47417 H 4670.36 -2.04354 3.64183 0
M  V30 47418 N 4670.8 -1.56528 0.183513 0
M  V30 47419 C 4671.73 -2.21551 -0.737378 0
M  V30 47420 C 4672.71 -1.17494 -1.23001 0
M  V30 47421 O 4673.89 -1.45963 -1.28095 0
M  V30 47422 C 4671.02 -2.86582 -1.96184 0
M  V30 47423 C 4669.98 -3.96783 -1.60459 0
M  V30 47424 C 4669.3 -4.48922 -2.90471 0
M  V30 47425 C 4670.6 -5.1577 -0.823316 0
M  V30 47426 H 4672.3 -2.98762 -0.195348 0
M  V30 47427 H 4669.84 -1.43702 -0.0925181 0
M  V30 47428 H 4671.79 -3.30749 -2.61119 0
M  V30 47429 H 4670.52 -2.06758 -2.52821 0
M  V30 47430 H 4669.18 -3.5329 -0.978872 0
M  V30 47431 H 4668.83 -3.65875 -3.45174 0
M  V30 47432 H 4668.53 -5.23274 -2.67317 0
M  V30 47433 H 4670.05 -4.95783 -3.56415 0
M  V30 47434 H 4671.46 -5.56554 -1.37551 0
M  V30 47435 H 4669.86 -5.96116 -0.690341 0
M  V30 47436 H 4670.93 -4.84573 0.177953 0
M  V30 47437 N 4672.27 0.0901557 -1.57342 0
M  V30 47438 C 4673.51 0.798299 -1.88166 0
M  V30 47439 C 4673.88 1.75659 -0.775108 0
M  V30 47440 O 4675.08 2.50846 -0.965904 0
M  V30 47441 C 4673.35 1.50365 -3.2423 0
M  V30 47442 S 4674.91 2.24939 -3.7676 0
M  V30 47443 H 4671.73 0.26586 -0.659424 0
M  V30 47444 H 4674.33 0.0551953 -1.95422 0
M  V30 47445 H 4673.03 0.792144 -4.02683 0
M  V30 47446 H 4672.56 2.28655 -3.20126 0
M  V30 47447 H 4674.58 3.5116 -3.50572 0
M  V30 47448 N 4673.75 1.53407 0.361103 0
M  V30 47449 C 4674.66 1.83127 1.46634 0
M  V30 47450 C 4675.68 0.719999 1.58405 0
M  V30 47451 O 4676.85 1.01052 1.74214 0
M  V30 47452 C 4673.92 2.01901 2.81846 0
M  V30 47453 C 4672.98 3.25794 2.79565 0
M  V30 47454 C 4672.21 3.43662 4.08328 0
M  V30 47455 O 4672.44 2.65731 5.04721 0
M  V30 47456 O 4671.37 4.37033 4.13867 0
M  V30 47457 H 4675.2 2.77034 1.24441 0
M  V30 47458 H 4672.78 1.38843 0.55163 0
M  V30 47459 H 4674.66 2.15795 3.61954 0
M  V30 47460 H 4673.34 1.11183 3.04007 0
M  V30 47461 H 4672.25 3.17319 1.9814 0
M  V30 47462 H 4673.58 4.16448 2.62358 0
M  V30 47463 N 4675.23 -0.621153 1.44843 0
M  V30 47464 C 4676.16 -1.7461 1.48472 0
M  V30 47465 C 4677.18 -1.58376 0.376966 0
M  V30 47466 O 4678.36 -1.66506 0.643274 0
M  V30 47467 C 4675.46 -3.12454 1.31247 0
M  V30 47468 C 4674.64 -3.55055 2.5545 0
M  V30 47469 C 4673.7 -4.71813 2.32979 0
M  V30 47470 O 4672.72 -4.79617 3.06522 0
M  V30 47471 N 4673.92 -5.64181 1.36674 0
M  V30 47472 H 4676.69 -1.71964 2.45455 0
M  V30 47473 H 4674.25 -0.806028 1.40409 0
M  V30 47474 H 4676.24 -3.88298 1.14046 0
M  V30 47475 H 4674.81 -3.09685 0.425909 0
M  V30 47476 H 4674.03 -2.69314 2.8786 0
M  V30 47477 H 4675.32 -3.80272 3.3804 0
M  V30 47478 H 4674.72 -5.60578 0.759541 0
M  V30 47479 H 4673.28 -6.39614 1.25448 0
M  V30 47480 N 4676.71 -1.31907 -0.862456 0
M  V30 47481 C 4677.99 -1.1265 -1.59904 0
M  V30 47482 C 4678.37 0.31603 -2.08721 0
M  V30 47483 O 4677.71 1.31138 -1.87123 0
M  V30 47484 C 4677.92 -2.14729 -2.75122 0
M  V30 47485 C 4679.27 -2.4765 -3.44898 0
M  V30 47486 O 4680.3 -2.13215 -2.85338 0
M  V30 47487 O 4679.15 -3.06648 -4.5236 0
M  V30 47488 H 4676.25 -0.434185 -0.703856 0
M  V30 47489 H 4678.79 -1.43411 -0.907264 0
M  V30 47490 H 4677.57 -3.11728 -2.36519 0
M  V30 47491 H 4677.19 -1.84917 -3.51982 0
M  V30 47492 N 4678.19 1.07773 -1.1499 0
M  V30 47493 C 4679.41 1.84015 -0.945838 0
M  V30 47494 C 4679.83 1.81899 0.505799 0
M  V30 47495 O 4679.19 1.22731 1.35068 0
M  V30 47496 C 4679.24 3.31281 -1.44689 0
M  V30 47497 O 4678.96 3.33439 -2.84165 0
M  V30 47498 C 4680.46 4.24307 -1.2837 0
M  V30 47499 H 4677.68 0.580705 -0.336189 0
M  V30 47500 H 4680.22 1.36072 -1.52659 0
M  V30 47501 H 4678.38 3.7659 -0.908757 0
M  V30 47502 H 4678.79 4.25416 -3.06792 0
M  V30 47503 H 4680.27 5.25724 -1.68279 0
M  V30 47504 H 4680.74 4.38611 -0.227338 0
M  V30 47505 H 4681.35 3.8483 -1.81069 0
M  V30 47506 N 4679.66 0.946029 1.26048 0
M  V30 47507 C 4680.57 0.465713 2.29931 0
M  V30 47508 C 4681.59 -0.462702 1.67735 0
M  V30 47509 O 4682.77 -0.341048 1.98491 0
M  V30 47510 C 4679.83 -0.256872 3.45747 0
M  V30 47511 C 4678.89 0.708698 4.2341 0
M  V30 47512 C 4678.13 0.0205012 5.33696 0
M  V30 47513 O 4678.35 -1.19552 5.57731 0
M  V30 47514 O 4677.28 0.701669 5.97796 0
M  V30 47515 H 4681.11 1.32876 2.73089 0
M  V30 47516 H 4678.69 0.712117 1.31336 0
M  V30 47517 H 4680.58 -0.663706 4.1614 0
M  V30 47518 H 4679.25 -1.09523 3.04609 0
M  V30 47519 H 4678.16 1.16557 3.55479 0
M  V30 47520 H 4679.49 1.51481 4.6831 0
M  V30 47521 N 4681.14 -1.40518 0.713605 0
M  V30 47522 C 4682.37 -2.05236 0.261847 0
M  V30 47523 C 4682.79 -1.53759 -1.09561 0
M  V30 47524 O 4682.14 -0.693327 -1.68817 0
M  V30 47525 C 4682.19 -3.60762 0.230833 0
M  V30 47526 O 4681.91 -4.1034 1.53469 0
M  V30 47527 C 4683.42 -4.42651 -0.239719 0
M  V30 47528 H 4680.64 -0.660529 0.11808 0
M  V30 47529 H 4683.18 -1.79964 0.971256 0
M  V30 47530 H 4681.33 -3.85011 -0.429526 0
M  V30 47531 H 4681.75 -5.04521 1.43384 0
M  V30 47532 H 4683.22 -5.51599 -0.210274 0
M  V30 47533 H 4683.7 -4.20086 -1.28156 0
M  V30 47534 H 4684.31 -4.23505 0.390291 0
M  V30 47535 N 4682.62 -0.459644 -1.50748 0
M  V30 47536 C 4683.86 0.0981683 -2.04164 0
M  V30 47537 C 4684.22 1.38006 -1.33486 0
M  V30 47538 O 4685.43 2.01952 -1.77394 0
M  V30 47539 C 4683.7 0.289341 -3.56227 0
M  V30 47540 S 4685.26 0.807356 -4.31309 0
M  V30 47541 H 4682.07 0.0213595 -0.710679 0
M  V30 47542 H 4684.68 -0.624163 -1.85269 0
M  V30 47543 H 4683.38 -0.649604 -4.05226 0
M  V30 47544 H 4682.91 1.03812 -3.79456 0
M  V30 47545 H 4684.93 2.08224 -4.50397 0
M  V30 47546 N 4684.1 1.56428 -0.191812 0
M  V30 47547 C 4685.38 1.89226 0.495265 0
M  V30 47548 C 4685.76 1.10484 1.79879 0
M  V30 47549 O 4685.1 0.204932 2.27579 0
M  V30 47550 C 4685.31 3.4155 0.717247 0
M  V30 47551 C 4686.66 4.11715 1.03809 0
M  V30 47552 O 4687.69 3.46983 0.805082 0
M  V30 47553 O 4686.54 5.26115 1.47869 0
M  V30 47554 H 4683.64 0.785797 0.257782 0
M  V30 47555 H 4686.18 1.6811 -0.23178 0
M  V30 47556 H 4684.96 3.90771 -0.203425 0
M  V30 47557 H 4684.58 3.68347 1.49687 0
M  V30 47558 N 4685.58 -0.0818102 1.57388 0
M  V30 47559 C 4686.81 -0.794887 1.90696 0
M  V30 47560 C 4687.21 -1.72144 0.785043 0
M  V30 47561 O 4686.56 -1.81975 -0.251132 0
M  V30 47562 C 4686.62 -1.65031 3.19382 0
M  V30 47563 C 4686.28 -0.894179 4.48167 0
M  V30 47564 C 4687.28 -0.217948 5.19443 0
M  V30 47565 C 4684.97 -0.864321 4.94808 0
M  V30 47566 C 4686.96 0.478026 6.35605 0
M  V30 47567 C 4684.65 -0.16457 6.10878 0
M  V30 47568 C 4685.64 0.505413 6.81127 0
M  V30 47569 O 4685.33 1.19391 7.94985 0
M  V30 47570 H 4685.06 -0.231757 0.635031 0
M  V30 47571 H 4687.62 -0.0594208 2.05314 0
M  V30 47572 H 4685.85 -2.42833 3.00947 0
M  V30 47573 H 4687.54 -2.24115 3.38419 0
M  V30 47574 H 4688.3 -0.232388 4.84443 0
M  V30 47575 H 4684.18 -1.37526 4.40009 0
M  V30 47576 H 4687.73 1.00154 6.90373 0
M  V30 47577 H 4683.62 -0.148022 6.4533 0
M  V30 47578 H 4684.39 1.10216 8.11045 0
M  V30 47579 N 4687.06 -1.53597 -0.352963 0
M  V30 47580 C 4688.3 -1.70052 -1.09209 0
M  V30 47581 C 4688.62 -0.461473 -1.89461 0
M  V30 47582 O 4687.89 0.524567 -1.88746 0
M  V30 47583 H 4686.47 -0.626927 -0.406167 0
M  V30 47584 H 4689.14 -1.90824 -0.396518 0
M  V30 47585 H 4688.23 -2.56725 -1.77479 0
M  V30 47586 N 4688.53 0.613463 -1.4517 0
M  V30 47587 C 4689.78 1.37273 -1.50092 0
M  V30 47588 C 4690.13 1.91902 -0.138362 0
M  V30 47589 O 4689.43 1.71767 0.848929 0
M  V30 47590 C 4689.62 2.54338 -2.51092 0
M  V30 47591 C 4689.45 2.11172 -3.97034 0
M  V30 47592 C 4688.22 1.9762 -4.65053 0
M  V30 47593 C 4690.42 1.68999 -4.85741 0
M  V30 47594 N 4688.4 1.48203 -5.95742 0
M  V30 47595 C 4689.77 1.30955 -6.06012 0
M  V30 47596 C 4691.83 1.56538 -4.72652 0
M  V30 47597 C 4690.53 0.816946 -7.14646 0
M  V30 47598 C 4692.56 1.08682 -5.81328 0
M  V30 47599 C 4691.92 0.715986 -7.00752 0
M  V30 47600 H 4688.02 0.496457 -0.604198 0
M  V30 47601 H 4690.6 0.701924 -1.81607 0
M  V30 47602 H 4688.77 3.19023 -2.21538 0
M  V30 47603 H 4690.5 3.21199 -2.46198 0
M  V30 47604 H 4687.26 2.18623 -4.2012 0
M  V30 47605 H 4687.68 1.25743 -6.6522 0
M  V30 47606 H 4692.32 1.83835 -3.80742 0
M  V30 47607 H 4690.04 0.531513 -8.0635 0
M  V30 47608 H 4693.63 0.994741 -5.73233 0
M  V30 47609 H 4692.51 0.351366 -7.83412 0
M  V30 47610 N 4690.01 1.32363 0.855449 0
M  V30 47611 C 4690.96 1.17815 1.95201 0
M  V30 47612 C 4691.95 0.0852884 1.60674 0
M  V30 47613 O 4693.14 0.311712 1.74234 0
M  V30 47614 C 4690.27 0.902553 3.31223 0
M  V30 47615 C 4689.35 2.03708 3.71973 0
M  V30 47616 N 4689.74 3.28558 3.84556 0
M  V30 47617 C 4688.04 1.94007 4.01593 0
M  V30 47618 C 4688.74 4.02862 4.19615 0
M  V30 47619 N 4687.72 3.31153 4.3109 0
M  V30 47620 H 4691.52 2.12469 2.03062 0
M  V30 47621 H 4689.03 1.2413 1.04716 0
M  V30 47622 H 4691.03 0.779294 4.09552 0
M  V30 47623 H 4689.69 -0.0356125 3.2468 0
M  V30 47624 H 4690.7 3.63503 3.68898 0
M  V30 47625 H 4687.38 1.07747 4.03357 0
M  V30 47626 H 4688.77 5.10521 4.36827 0
M  V30 47627 N 4691.49 -1.07162 1.1556 0
M  V30 47628 C 4692.44 -2.14414 0.85413 0
M  V30 47629 C 4693.41 -1.64966 -0.193748 0
M  V30 47630 O 4694.59 -1.90703 -0.0608772 0
M  V30 47631 C 4691.73 -3.43303 0.351695 0
M  V30 47632 C 4690.84 -4.06532 1.46137 0
M  V30 47633 C 4689.98 -5.23263 0.914861 0
M  V30 47634 C 4689.02 -5.78457 2.00134 0
M  V30 47635 N 4688.16 -6.86516 1.47107 0
M  V30 47636 H 4693 -2.39542 1.77268 0
M  V30 47637 H 4690.53 -1.1754 0.884467 0
M  V30 47638 H 4692.49 -4.17179 0.0420876 0
M  V30 47639 H 4691.12 -3.18421 -0.529925 0
M  V30 47640 H 4690.17 -3.30291 1.88712 0
M  V30 47641 H 4691.48 -4.43559 2.2816 0
M  V30 47642 H 4690.64 -6.04129 0.55791 0
M  V30 47643 H 4689.38 -4.87658 0.0638297 0
M  V30 47644 H 4688.38 -4.96234 2.3671 0
M  V30 47645 H 4689.61 -6.16116 2.85618 0
M  V30 47646 H 4687.55 -6.52847 0.642428 0
M  V30 47647 H 4687.47 -7.22438 2.22755 0
M  V30 47648 H 4688.74 -7.71083 1.14242 0
M  V30 47649 N 4692.97 -0.9527 -1.25544 0
M  V30 47650 C 4694.21 -0.606441 -1.93206 0
M  V30 47651 C 4694.54 0.856248 -1.74639 0
M  V30 47652 O 4693.8 1.62947 -1.08382 0
M  V30 47653 C 4694.1 -0.90894 -3.45649 0
M  V30 47654 C 4693.76 -2.35735 -3.84369 0
M  V30 47655 C 4692.42 -2.75326 -3.9465 0
M  V30 47656 C 4694.78 -3.29808 -4.0358 0
M  V30 47657 C 4692.1 -4.08062 -4.21547 0
M  V30 47658 C 4694.46 -4.62154 -4.31969 0
M  V30 47659 C 4693.12 -5.01543 -4.40466 0
M  V30 47660 H 4692.39 -0.221913 -0.706991 0
M  V30 47661 H 4695.04 -1.20137 -1.49128 0
M  V30 47662 H 4693.34 -0.231593 -3.91115 0
M  V30 47663 H 4695.04 -0.619637 -3.96184 0
M  V30 47664 H 4691.63 -2.0403 -3.76921 0
M  V30 47665 H 4695.81 -3.00411 -3.95053 0
M  V30 47666 H 4691.07 -4.38227 -4.26341 0
M  V30 47667 H 4695.24 -5.35028 -4.45778 0
M  V30 47668 H 4692.87 -6.04422 -4.61062 0
M  V30 47669 N 4694.45 1.40138 -0.721047 0
M  V30 47670 C 4695.38 2.29177 -0.0325474 0
M  V30 47671 C 4696.39 1.46108 0.718074 0
M  V30 47672 O 4697.58 1.69337 0.564549 0
M  V30 47673 C 4694.68 3.24476 0.978178 0
M  V30 47674 C 4693.85 4.36424 0.291962 0
M  V30 47675 C 4692.91 5.12127 1.20883 0
M  V30 47676 O 4691.94 5.64983 0.691567 0
M  V30 47677 N 4693.14 5.22001 2.5396 0
M  V30 47678 H 4695.9 2.88906 -0.797086 0
M  V30 47679 H 4693.47 1.51567 -0.569121 0
M  V30 47680 H 4695.46 3.71993 1.59385 0
M  V30 47681 H 4694.03 2.65877 1.64403 0
M  V30 47682 H 4693.25 3.90965 -0.503985 0
M  V30 47683 H 4694.54 5.08467 -0.18415 0
M  V30 47684 H 4693.93 4.8055 2.98476 0
M  V30 47685 H 4692.49 5.73006 3.10657 0
M  V30 47686 N 4695.92 0.467632 1.50502 0
M  V30 47687 C 4697.17 -0.0883759 2.01907 0
M  V30 47688 C 4697.49 -1.40527 1.35193 0
M  V30 47689 O 4696.76 -1.89513 0.496146 0
M  V30 47690 H 4695.34 -0.0356503 0.746149 0
M  V30 47691 H 4698 0.617265 1.84867 0
M  V30 47692 H 4697.1 -0.242391 3.11157 0
M  V30 47693 N 4697.4 -1.56324 0.200105 0
M  V30 47694 C 4698.33 -2.16558 -0.750695 0
M  V30 47695 C 4699.35 -1.12875 -1.17316 0
M  V30 47696 O 4700.54 -1.39947 -1.10802 0
M  V30 47697 C 4697.64 -2.71691 -2.02576 0
M  V30 47698 C 4696.81 -4.00327 -1.7623 0
M  V30 47699 C 4695.87 -4.40237 -2.88232 0
M  V30 47700 O 4694.89 -5.07561 -2.57624 0
M  V30 47701 N 4696.1 -4.04152 -4.16703 0
M  V30 47702 H 4698.86 -2.98773 -0.23558 0
M  V30 47703 H 4696.42 -1.6189 0.0183163 0
M  V30 47704 H 4698.41 -2.95372 -2.76654 0
M  V30 47705 H 4696.98 -1.93902 -2.45195 0
M  V30 47706 H 4696.2 -3.84726 -0.859055 0
M  V30 47707 H 4697.49 -4.84285 -1.56031 0
M  V30 47708 H 4696.89 -3.50009 -4.44421 0
M  V30 47709 H 4695.45 -4.32773 -4.87392 0
M  V30 47710 N 4698.88 0.0734624 -1.57429 0
M  V30 47711 C 4700.12 0.778296 -1.89002 0
M  V30 47712 C 4700.48 1.74827 -0.793695 0
M  V30 47713 O 4701.68 2.49807 -0.992455 0
M  V30 47714 C 4699.96 1.46917 -3.25807 0
M  V30 47715 S 4701.51 2.2093 -3.79124 0
M  V30 47716 H 4698.33 0.258851 -0.662206 0
M  V30 47717 H 4700.93 0.034465 -1.9547 0
M  V30 47718 H 4699.64 0.74939 -4.035 0
M  V30 47719 H 4699.17 2.25247 -3.22533 0
M  V30 47720 H 4701.18 3.47422 -3.54277 0
M  V30 47721 N 4700.36 1.53782 0.344812 0
M  V30 47722 C 4701.59 1.7465 1.10368 0
M  V30 47723 C 4702 0.484975 1.82879 0
M  V30 47724 O 4701.34 -0.553001 1.75179 0
M  V30 47725 C 4701.4 2.87152 2.16296 0
M  V30 47726 C 4701.06 4.26801 1.63371 0
M  V30 47727 C 4702.06 5.08416 1.0867 0
M  V30 47728 C 4699.75 4.73281 1.68256 0
M  V30 47729 C 4701.74 6.34611 0.595569 0
M  V30 47730 C 4699.43 5.9945 1.18755 0
M  V30 47731 C 4700.43 6.79948 0.644976 0
M  V30 47732 O 4700.11 8.03746 0.157343 0
M  V30 47733 H 4699.85 0.587124 0.335054 0
M  V30 47734 H 4702.4 2.01404 0.403181 0
M  V30 47735 H 4700.63 2.5592 2.899 0
M  V30 47736 H 4702.32 2.96002 2.77737 0
M  V30 47737 H 4703.08 4.7367 1.04219 0
M  V30 47738 H 4698.96 4.10684 2.09427 0
M  V30 47739 H 4702.51 6.97389 0.171409 0
M  V30 47740 H 4698.4 6.33691 1.22906 0
M  V30 47741 H 4699.17 8.18039 0.27475 0
M  V30 47742 N 4701.84 -0.605756 1.45494 0
M  V30 47743 C 4702.78 -1.71635 1.54305 0
M  V30 47744 C 4703.75 -1.61485 0.388818 0
M  V30 47745 O 4704.94 -1.81037 0.602509 0
M  V30 47746 C 4702.08 -3.09948 1.51745 0
M  V30 47747 C 4701.19 -3.3089 2.77733 0
M  V30 47748 C 4700.33 -4.59319 2.66832 0
M  V30 47749 C 4699.37 -4.73526 3.87865 0
M  V30 47750 N 4698.5 -5.93257 3.75488 0
M  V30 47751 H 4703.34 -1.6344 2.49181 0
M  V30 47752 H 4700.88 -0.796914 1.23643 0
M  V30 47753 H 4702.84 -3.89972 1.48248 0
M  V30 47754 H 4701.47 -3.17095 0.60418 0
M  V30 47755 H 4700.52 -2.44629 2.91309 0
M  V30 47756 H 4701.83 -3.37261 3.675 0
M  V30 47757 H 4700.99 -5.47541 2.61312 0
M  V30 47758 H 4699.72 -4.55349 1.74667 0
M  V30 47759 H 4698.73 -3.83728 3.93743 0
M  V30 47760 H 4699.95 -4.79292 4.81098 0
M  V30 47761 H 4697.9 -5.90328 2.86093 0
M  V30 47762 H 4697.82 -6.00795 4.58891 0
M  V30 47763 H 4699.09 -6.83971 3.73903 0
M  V30 47764 N 4703.31 -1.32814 -0.848417 0
M  V30 47765 C 4704.54 -1.26561 -1.63297 0
M  V30 47766 C 4704.95 0.167534 -1.88457 0
M  V30 47767 O 4704.3 1.11708 -1.45832 0
M  V30 47768 C 4704.36 -1.96213 -3.01232 0
M  V30 47769 C 4704.02 -3.45538 -2.99086 0
M  V30 47770 C 4705.02 -4.40912 -2.75486 0
M  V30 47771 C 4702.7 -3.87569 -3.19524 0
M  V30 47772 C 4704.7 -5.76291 -2.72336 0
M  V30 47773 C 4702.38 -5.23055 -3.16001 0
M  V30 47774 C 4703.38 -6.17228 -2.92437 0
M  V30 47775 O 4703.07 -7.50234 -2.88799 0
M  V30 47776 H 4702.8 -0.437729 -0.515141 0
M  V30 47777 H 4705.36 -1.75594 -1.06564 0
M  V30 47778 H 4703.59 -1.41758 -3.5978 0
M  V30 47779 H 4705.28 -1.83586 -3.6201 0
M  V30 47780 H 4706.04 -4.09765 -2.59456 0
M  V30 47781 H 4701.92 -3.14686 -3.36889 0
M  V30 47782 H 4705.46 -6.49769 -2.53863 0
M  V30 47783 H 4701.36 -5.5383 -3.31576 0
M  V30 47784 H 4702.13 -7.59668 -3.04709 0
M  V30 47785 N 4704.79 1.06547 -1.16127 0
M  V30 47786 C 4706.04 1.79298 -0.941189 0
M  V30 47787 C 4706.37 1.87107 0.531169 0
M  V30 47788 O 4705.62 1.35697 1.41013 0
M  V30 47789 C 4705.92 3.23905 -1.51063 0
M  V30 47790 C 4705.59 3.36182 -3.00487 0
M  V30 47791 C 4704.25 3.3924 -3.41277 0
M  V30 47792 C 4706.6 3.38313 -3.96477 0
M  V30 47793 C 4703.93 3.42041 -4.76681 0
M  V30 47794 C 4706.28 3.42651 -5.31764 0
M  V30 47795 C 4704.95 3.4399 -5.72038 0
M  V30 47796 H 4704.22 0.656099 -0.344406 0
M  V30 47797 H 4706.86 1.2532 -1.448 0
M  V30 47798 H 4705.17 3.8072 -0.925196 0
M  V30 47799 H 4706.86 3.78789 -1.31606 0
M  V30 47800 H 4703.45 3.34506 -2.67962 0
M  V30 47801 H 4707.64 3.35164 -3.66031 0
M  V30 47802 H 4702.89 3.4138 -5.07218 0
M  V30 47803 H 4707.07 3.43247 -6.05933 0
M  V30 47804 H 4704.7 3.45913 -6.7694 0
M  V30 47805 N 4706.27 0.959345 1.25037 0
M  V30 47806 C 4707.23 0.487756 2.2395 0
M  V30 47807 C 4708.23 -0.411135 1.55455 0
M  V30 47808 O 4709.42 -0.207764 1.72957 0
M  V30 47809 C 4706.56 -0.294688 3.39624 0
M  V30 47810 H 4707.75 1.36208 2.67184 0
M  V30 47811 H 4705.3 0.74309 1.37506 0
M  V30 47812 H 4706.04 -1.18647 3.01817 0
M  V30 47813 H 4705.82 0.350258 3.90532 0
M  V30 47814 H 4707.31 -0.613944 4.13062 0
M  V30 47815 N 4707.75 -1.39754 0.728469 0
M  V30 47816 C 4708.7 -2.2792 0.0604225 0
M  V30 47817 C 4709.68 -1.43924 -0.719348 0
M  V30 47818 O 4710.87 -1.66897 -0.589431 0
M  V30 47819 C 4708 -3.32585 -0.850987 0
M  V30 47820 C 4707.09 -4.24049 -0.0657151 0
M  V30 47821 N 4707.48 -4.9665 0.957753 0
M  V30 47822 C 4705.78 -4.45014 -0.296353 0
M  V30 47823 C 4706.48 -5.63831 1.43072 0
M  V30 47824 N 4705.46 -5.38394 0.750504 0
M  V30 47825 H 4709.26 -2.81501 0.844649 0
M  V30 47826 H 4706.77 -1.52358 0.562208 0
M  V30 47827 H 4708.77 -3.94608 -1.345 0
M  V30 47828 H 4707.43 -2.80564 -1.63445 0
M  V30 47829 H 4708.44 -5.00293 1.33895 0
M  V30 47830 H 4705.12 -4.03947 -1.05513 0
M  V30 47831 H 4706.51 -6.31966 2.28185 0
M  V30 47832 N 4709.23 -0.475607 -1.50252 0
M  V30 47833 C 4710.64 -0.130026 -1.59069 0
M  V30 47834 C 4710.84 1.3638 -1.48333 0
M  V30 47835 O 4709.9 2.1375 -1.34415 0
M  V30 47836 C 4711.21 -0.684242 -2.92812 0
M  V30 47837 C 4712.76 -0.648072 -3.06217 0
M  V30 47838 C 4713.23 -1.17991 -4.42541 0
M  V30 47839 N 4714.73 -1.13951 -4.48965 0
M  V30 47840 C 4715.46 -1.52148 -5.52846 0
M  V30 47841 N 4714.96 -1.97816 -6.63958 0
M  V30 47842 N 4716.75 -1.43723 -5.43415 0
M  V30 47843 H 4708.9 -1.44712 -1.55474 0
M  V30 47844 H 4711.16 -0.598717 -0.735012 0
M  V30 47845 H 4710.87 -1.7309 -3.06158 0
M  V30 47846 H 4710.74 -0.130336 -3.76975 0
M  V30 47847 H 4713.13 0.389687 -2.92516 0
M  V30 47848 H 4713.21 -1.23883 -2.238 0
M  V30 47849 H 4712.86 -2.21632 -4.56992 0
M  V30 47850 H 4712.79 -0.565322 -5.23557 0
M  V30 47851 H 4715.28 -0.804617 -3.69235 0
M  V30 47852 H 4715.59 -2.25098 -7.39291 0
M  V30 47853 H 4713.93 -2.01772 -6.65066 0
M  V30 47854 H 4717.13 -1.07883 -4.55498 0
M  V30 47855 H 4717.3 -1.73816 -6.24253 0
M  V30 47856 N 4710.7 1.56216 -0.208392 0
M  V30 47857 C 4712.12 1.58919 0.147234 0
M  V30 47858 C 4712.32 1.22492 1.59994 0
M  V30 47859 O 4711.38 0.953931 2.33787 0
M  V30 47860 C 4712.69 3.00235 -0.167154 0
M  V30 47861 C 4714.24 3.12812 -0.108329 0
M  V30 47862 C 4714.71 4.56283 -0.396209 0
M  V30 47863 N 4716.2 4.61911 -0.345305 0
M  V30 47864 C 4716.94 5.70835 -0.541724 0
M  V30 47865 N 4716.43 6.88175 -0.79921 0
M  V30 47866 N 4718.23 5.60089 -0.475064 0
M  V30 47867 H 4710.38 1.78173 -1.1562 0
M  V30 47868 H 4712.64 0.827539 -0.462475 0
M  V30 47869 H 4712.35 3.31494 -1.17492 0
M  V30 47870 H 4712.22 3.73542 0.524053 0
M  V30 47871 H 4714.61 2.81357 0.890058 0
M  V30 47872 H 4714.69 2.41863 -0.832814 0
M  V30 47873 H 4714.33 4.88453 -1.39197 0
M  V30 47874 H 4714.26 5.2544 0.349317 0
M  V30 47875 H 4716.75 3.77588 -0.153449 0
M  V30 47876 H 4717.07 7.67092 -0.93754 0
M  V30 47877 H 4715.41 6.89951 -0.836256 0
M  V30 47878 H 4718.6 4.67296 -0.274228 0
M  V30 47879 H 4718.78 6.44915 -0.631553 0
M  V30 47880 N 4712.18 -0.0651125 1.57465 0
M  V30 47881 C 4713.41 -0.775741 1.91807 0
M  V30 47882 C 4713.83 -1.70779 0.804976 0
M  V30 47883 O 4713.18 -1.81154 -0.221248 0
M  V30 47884 C 4713.23 -1.56369 3.25931 0
M  V30 47885 O 4712.95 -0.669096 4.3296 0
M  V30 47886 C 4714.46 -2.37472 3.74329 0
M  V30 47887 H 4711.68 -0.220177 0.633848 0
M  V30 47888 H 4714.22 -0.0333869 2.04473 0
M  V30 47889 H 4712.37 -2.25826 3.14772 0
M  V30 47890 H 4712.79 -1.21783 5.10166 0
M  V30 47891 H 4714.26 -2.88206 4.70788 0
M  V30 47892 H 4714.74 -3.17296 3.03677 0
M  V30 47893 H 4715.35 -1.73159 3.88453 0
M  V30 47894 N 4713.66 -1.53962 -0.336652 0
M  V30 47895 C 4714.91 -1.72733 -1.074 0
M  V30 47896 C 4715.26 -0.48816 -1.86104 0
M  V30 47897 O 4714.55 0.519314 -1.84428 0
M  V30 47898 C 4714.75 -2.935 -2.03942 0
M  V30 47899 C 4714.58 -4.29043 -1.34729 0
M  V30 47900 C 4713.35 -4.9342 -1.08925 0
M  V30 47901 C 4715.55 -5.08504 -0.769936 0
M  V30 47902 N 4713.53 -6.12822 -0.363649 0
M  V30 47903 C 4714.9 -6.19752 -0.175254 0
M  V30 47904 C 4716.95 -4.93352 -0.67146 0
M  V30 47905 C 4715.66 -7.17502 0.508333 0
M  V30 47906 C 4717.68 -5.914 -0.00159969 0
M  V30 47907 C 4717.04 -7.01991 0.582082 0
M  V30 47908 H 4713.14 -0.68504 -0.377153 0
M  V30 47909 H 4715.73 -1.91404 -0.356748 0
M  V30 47910 H 4713.9 -2.76318 -2.72952 0
M  V30 47911 H 4715.63 -3.00959 -2.70566 0
M  V30 47912 H 4712.39 -4.53104 -1.37817 0
M  V30 47913 H 4712.81 -6.76998 -0.0153712 0
M  V30 47914 H 4717.45 -4.08011 -1.10846 0
M  V30 47915 H 4715.17 -8.02411 0.957201 0
M  V30 47916 H 4718.76 -5.81753 0.0740583 0
M  V30 47917 H 4717.64 -7.76557 1.0922 0
M  V30 47918 N 4715.14 0.598031 -1.45813 0
M  V30 47919 C 4716.42 1.35772 -1.40802 0
M  V30 47920 C 4716.8 2.10935 -0.0835361 0
M  V30 47921 O 4716.14 2.08509 0.93469 0
M  V30 47922 C 4716.35 2.29656 -2.62791 0
M  V30 47923 C 4717.7 2.91966 -3.08287 0
M  V30 47924 O 4718.73 2.39975 -2.63231 0
M  V30 47925 O 4717.58 3.86363 -3.86505 0
M  V30 47926 H 4714.68 0.609272 -0.559211 0
M  V30 47927 H 4717.22 0.620323 -1.57956 0
M  V30 47928 H 4716 1.73441 -3.50762 0
M  V30 47929 H 4715.62 3.10761 -2.48019 0
M  V30 47930 N 4716.62 1.33262 0.841362 0
M  V30 47931 C 4717.58 1.23228 1.93255 0
M  V30 47932 C 4718.58 0.151952 1.6008 0
M  V30 47933 O 4719.77 0.403306 1.69467 0
M  V30 47934 C 4716.9 0.898238 3.28853 0
M  V30 47935 H 4718.1 2.20217 2.03579 0
M  V30 47936 H 4715.65 1.17285 1.03315 0
M  V30 47937 H 4716.38 -0.0692701 3.24226 0
M  V30 47938 H 4716.17 1.67946 3.54311 0
M  V30 47939 H 4717.66 0.852707 4.08802 0
M  V30 47940 N 4718.1 -1.0593 1.1669 0
M  V30 47941 C 4719.06 -2.11666 0.879218 0
M  V30 47942 C 4720.06 -1.60295 -0.127389 0
M  V30 47943 O 4721.25 -1.7389 0.103927 0
M  V30 47944 C 4718.38 -3.39436 0.315544 0
M  V30 47945 H 4719.57 -2.38619 1.81661 0
M  V30 47946 H 4717.13 -1.22054 0.976342 0
M  V30 47947 H 4717.86 -3.18135 -0.629356 0
M  V30 47948 H 4717.65 -3.78031 1.04092 0
M  V30 47949 H 4719.14 -4.1739 0.132335 0
M  V30 47950 N 4719.57 -0.965962 -1.24527 0
M  V30 47951 C 4720.48 -0.502235 -2.29161 0
M  V30 47952 C 4721.5 0.435958 -1.6845 0
M  V30 47953 O 4722.68 0.309427 -1.99009 0
M  V30 47954 C 4719.74 0.201835 -3.46112 0
M  V30 47955 C 4718.8 -0.775969 -4.22229 0
M  V30 47956 C 4718.03 -0.105405 -5.33596 0
M  V30 47957 O 4718.26 1.10664 -5.59562 0
M  V30 47958 O 4717.19 -0.796684 -5.96604 0
M  V30 47959 H 4721.02 -1.37203 -2.70941 0
M  V30 47960 H 4718.6 -0.732921 -1.30187 0
M  V30 47961 H 4720.48 0.597417 -4.17144 0
M  V30 47962 H 4719.16 1.04663 -3.06313 0
M  V30 47963 H 4718.07 -1.22198 -3.5358 0
M  V30 47964 H 4719.4 -1.58912 -4.65841 0
M  V30 47965 N 4721.05 1.39365 -0.73587 0
M  V30 47966 C 4722.47 1.54203 -0.411546 0
M  V30 47967 C 4722.67 1.70272 1.07749 0
M  V30 47968 O 4721.72 1.7037 1.8636 0
M  V30 47969 C 4723.04 2.75921 -1.19533 0
M  V30 47970 C 4724.58 2.89757 -1.18364 0
M  V30 47971 C 4725.06 4.14414 -1.95 0
M  V30 47972 N 4726.55 4.21455 -1.92171 0
M  V30 47973 C 4727.29 5.16862 -2.48277 0
M  V30 47974 N 4726.78 6.18052 -3.13023 0
M  V30 47975 N 4728.57 5.09085 -2.38305 0
M  V30 47976 H 4720.73 1.27183 -1.70113 0
M  V30 47977 H 4722.99 0.616491 -0.720168 0
M  V30 47978 H 4722.69 2.70393 -2.24901 0
M  V30 47979 H 4722.57 3.68611 -0.800351 0
M  V30 47980 H 4724.96 2.94777 -0.138078 0
M  V30 47981 H 4725.04 1.98128 -1.618 0
M  V30 47982 H 4724.68 4.10155 -2.99558 0
M  V30 47983 H 4724.61 5.05089 -1.48971 0
M  V30 47984 H 4727.1 3.48974 -1.45003 0
M  V30 47985 H 4727.41 6.87313 -3.53299 0
M  V30 47986 H 4725.76 6.18437 -3.17113 0
M  V30 47987 H 4728.95 4.28966 -1.87365 0
M  V30 47988 H 4729.12 5.83262 -2.82329 0
M  V30 47989 N 4722.53 0.483569 1.49998 0
M  V30 47990 C 4723.44 -0.30909 2.32555 0
M  V30 47991 C 4724.46 -0.984109 1.43497 0
M  V30 47992 O 4725.63 -0.969336 1.76538 0
M  V30 47993 C 4722.7 -1.36968 3.18497 0
M  V30 47994 C 4721.76 -0.709946 4.23389 0
M  V30 47995 C 4720.99 -1.72 5.05224 0
M  V30 47996 O 4721.21 -2.94796 4.88315 0
M  V30 47997 O 4720.15 -1.28494 5.88025 0
M  V30 47998 H 4723.97 0.36617 3.01484 0
M  V30 47999 H 4721.56 0.245192 1.47374 0
M  V30 48000 H 4723.44 -1.98372 3.71788 0
M  V30 48001 H 4722.12 -2.02819 2.52282 0
M  V30 48002 H 4721.02 -0.0566224 3.74057 0
M  V30 48003 H 4722.36 -0.0941827 4.9211 0
M  V30 48004 N 4724.01 -1.56103 0.216674 0
M  V30 48005 C 4725.25 -2.00075 -0.418252 0
M  V30 48006 C 4725.61 -1.10103 -1.57294 0
M  V30 48007 O 4726.81 -1.43401 -2.27353 0
M  V30 48008 C 4725.08 -3.47234 -0.846355 0
M  V30 48009 S 4726.64 -4.13228 -1.47608 0
M  V30 48010 H 4723.46 -0.698462 -0.132938 0
M  V30 48011 H 4726.06 -1.92783 0.324816 0
M  V30 48012 H 4724.77 -4.104 0.00377618 0
M  V30 48013 H 4724.3 -3.5839 -1.62236 0
M  V30 48014 H 4726.31 -4.12014 -2.76511 0
M  V30 48015 N 4725.49 0.0567608 -1.57498 0
M  V30 48016 C 4726.9 0.411879 -1.54194 0
M  V30 48017 C 4727.1 1.78283 -0.939005 0
M  V30 48018 O 4726.16 2.46482 -0.548005 0
M  V30 48019 C 4727.47 0.339139 -2.98781 0
M  V30 48020 C 4729.02 0.418239 -3.10193 0
M  V30 48021 C 4729.49 0.375247 -4.5646 0
M  V30 48022 N 4730.98 0.434876 -4.61154 0
M  V30 48023 C 4731.72 0.424064 -5.7183 0
M  V30 48024 N 4731.22 0.367175 -6.91826 0
M  V30 48025 N 4733.01 0.471741 -5.60117 0
M  V30 48026 H 4725.16 -0.840753 -1.95052 0
M  V30 48027 H 4727.42 -0.317018 -0.893422 0
M  V30 48028 H 4727.13 -0.601864 -3.46512 0
M  V30 48029 H 4727 1.14358 -3.59447 0
M  V30 48030 H 4729.39 1.34967 -2.62427 0
M  V30 48031 H 4729.47 -0.415051 -2.5241 0
M  V30 48032 H 4729.11 -0.552397 -5.04887 0
M  V30 48033 H 4729.04 1.22627 -5.12123 0
M  V30 48034 H 4731.54 0.48248 -3.74807 0
M  V30 48035 H 4731.85 0.363264 -7.71946 0
M  V30 48036 H 4730.19 0.333635 -6.94199 0
M  V30 48037 H 4733.38 0.513982 -4.6527 0
M  V30 48038 H 4733.56 0.459846 -6.46366 0
M  V30 48039 N 4726.96 1.54139 0.328482 0
M  V30 48040 C 4727.89 1.86172 1.40933 0
M  V30 48041 C 4728.87 0.718098 1.54199 0
M  V30 48042 O 4730.06 0.971387 1.6816 0
M  V30 48043 C 4727.19 2.08471 2.77772 0
M  V30 48044 C 4726.14 3.24309 2.79299 0
M  V30 48045 C 4725.47 3.3197 4.19166 0
M  V30 48046 C 4726.77 4.62074 2.43485 0
M  V30 48047 H 4728.46 2.76693 1.14373 0
M  V30 48048 H 4726.01 1.33134 0.548759 0
M  V30 48049 H 4727.96 2.29465 3.53446 0
M  V30 48050 H 4726.69 1.14695 3.05798 0
M  V30 48051 H 4725.35 3.03194 2.06079 0
M  V30 48052 H 4724.99 2.35761 4.44326 0
M  V30 48053 H 4724.69 4.0982 4.21095 0
M  V30 48054 H 4726.22 3.55192 4.9666 0
M  V30 48055 H 4727.63 4.82981 3.08872 0
M  V30 48056 H 4726.03 5.42438 2.56674 0
M  V30 48057 H 4727.1 4.64657 1.38643 0
M  V30 48058 N 4728.44 -0.59029 1.46128 0
M  V30 48059 C 4729.37 -1.71421 1.52142 0
M  V30 48060 C 4730.39 -1.5754 0.410475 0
M  V30 48061 O 4731.58 -1.65104 0.678447 0
M  V30 48062 C 4728.68 -3.096 1.37845 0
M  V30 48063 C 4727.85 -3.49556 2.62924 0
M  V30 48064 C 4726.91 -4.66765 2.42935 0
M  V30 48065 O 4725.93 -4.73008 3.16627 0
M  V30 48066 N 4727.14 -5.61155 1.4861 0
M  V30 48067 H 4729.9 -1.66719 2.49048 0
M  V30 48068 H 4727.46 -0.776063 1.42088 0
M  V30 48069 H 4729.45 -3.85792 1.22256 0
M  V30 48070 H 4728.02 -3.08712 0.491502 0
M  V30 48071 H 4727.24 -2.63147 2.93508 0
M  V30 48072 H 4728.53 -3.73016 3.4603 0
M  V30 48073 H 4727.93 -5.58841 0.878277 0
M  V30 48074 H 4726.49 -6.36809 1.38987 0
M  V30 48075 N 4729.92 -1.33707 -0.834283 0
M  V30 48076 C 4731.17 -1.25175 -1.58668 0
M  V30 48077 C 4731.49 0.181202 -1.94156 0
M  V30 48078 O 4730.76 1.11107 -1.61344 0
M  V30 48079 H 4729.34 -0.460321 -0.588314 0
M  V30 48080 H 4732 -1.67482 -0.996788 0
M  V30 48081 H 4731.1 -1.84865 -2.51459 0
M  V30 48082 N 4731.4 1.0531 -1.1725 0
M  V30 48083 C 4732.36 2.11196 -0.890431 0
M  V30 48084 C 4733.36 1.6036 0.118887 0
M  V30 48085 O 4734.55 1.73832 -0.113147 0
M  V30 48086 C 4731.68 3.39264 -0.333541 0
M  V30 48087 H 4732.88 2.37653 -1.82924 0
M  V30 48088 H 4730.43 1.21535 -0.982801 0
M  V30 48089 H 4731.16 3.18464 0.612476 0
M  V30 48090 H 4730.95 3.77473 -1.06095 0
M  V30 48091 H 4732.44 4.17314 -0.154469 0
M  V30 48092 N 4732.88 0.972553 1.24013 0
M  V30 48093 C 4733.83 0.47764 2.22941 0
M  V30 48094 C 4734.81 -0.443026 1.54681 0
M  V30 48095 O 4736 -0.273158 1.7488 0
M  V30 48096 C 4733.13 -0.226227 3.42554 0
M  V30 48097 C 4732.22 0.71355 4.18054 0
M  V30 48098 N 4732.61 1.85286 4.70641 0
M  V30 48099 C 4730.91 0.525301 4.42896 0
M  V30 48100 C 4731.61 2.44108 5.28002 0
M  V30 48101 N 4730.58 1.72574 5.1548 0
M  V30 48102 H 4734.39 1.34687 2.61221 0
M  V30 48103 H 4731.9 0.832245 1.39454 0
M  V30 48104 H 4733.9 -0.598039 4.12588 0
M  V30 48105 H 4732.56 -1.09184 3.05792 0
M  V30 48106 H 4733.57 2.23427 4.67227 0
M  V30 48107 H 4730.24 -0.295949 4.1645 0
M  V30 48108 H 4731.63 3.40279 5.79362 0
M  V30 48109 N 4734.35 -1.38973 0.74325 0
M  V30 48110 C 4735.28 -2.33171 0.123955 0
M  V30 48111 C 4736.27 -1.54338 -0.715105 0
M  V30 48112 O 4737.45 -1.82698 -0.658403 0
M  V30 48113 C 4734.58 -3.38477 -0.777859 0
M  V30 48114 C 4733.53 -4.27979 -0.0423254 0
M  V30 48115 C 4732.86 -5.24053 -1.0617 0
M  V30 48116 C 4734.16 -5.10151 1.11998 0
M  V30 48117 H 4735.85 -2.8521 0.91081 0
M  V30 48118 H 4733.4 -1.37131 0.439436 0
M  V30 48119 H 4735.35 -4.03332 -1.2207 0
M  V30 48120 H 4734.08 -2.84896 -1.59692 0
M  V30 48121 H 4732.74 -3.64615 0.380981 0
M  V30 48122 H 4732.38 -4.66765 -1.87455 0
M  V30 48123 H 4732.08 -5.84787 -0.574279 0
M  V30 48124 H 4733.61 -5.91785 -1.50408 0
M  V30 48125 H 4735.02 -5.68304 0.75519 0
M  V30 48126 H 4733.42 -5.80068 1.53758 0
M  V30 48127 H 4734.49 -4.44497 1.9378 0
M  V30 48128 N 4735.83 -0.491517 -1.49739 0
M  V30 48129 C 4737.06 0.0534424 -2.06831 0
M  V30 48130 C 4737.48 1.31679 -1.353 0
M  V30 48131 O 4736.83 1.774 -0.428422 0
M  V30 48132 C 4736.88 0.320709 -3.60075 0
M  V30 48133 O 4736.6 -0.892544 -4.28912 0
M  V30 48134 C 4738.11 0.910367 -4.33852 0
M  V30 48135 H 4735.33 -0.0162145 -0.670804 0
M  V30 48136 H 4737.87 -0.686157 -1.92645 0
M  V30 48137 H 4736.02 1.01027 -3.73995 0
M  V30 48138 H 4736.44 -0.649584 -5.20462 0
M  V30 48139 H 4737.91 1.04702 -5.41979 0
M  V30 48140 H 4738.39 1.90575 -3.95699 0
M  V30 48141 H 4739 0.258563 -4.24513 0
M  V30 48142 N 4737.31 1.55986 -0.224949 0
M  V30 48143 C 4738.54 2.03234 0.413619 0
M  V30 48144 C 4738.96 1.10365 1.5232 0
M  V30 48145 O 4738.32 0.0924586 1.81064 0
M  V30 48146 C 4738.37 3.48685 0.919282 0
M  V30 48147 O 4737.47 3.58954 2.03041 0
M  V30 48148 H 4736.81 0.657431 0.0931672 0
M  V30 48149 H 4739.34 2.01677 -0.344581 0
M  V30 48150 H 4739.35 3.89074 1.22822 0
M  V30 48151 H 4738.03 4.15762 0.107193 0
M  V30 48152 H 4736.6 3.30454 1.72785 0
M  V30 48153 N 4738.79 -0.0484076 1.57526 0
M  V30 48154 C 4740.04 -0.741999 1.87556 0
M  V30 48155 C 4740.35 -1.77542 0.820864 0
M  V30 48156 O 4741.56 -2.52024 1.00976 0
M  V30 48157 C 4740.01 -1.3707 3.32776 0
M  V30 48158 C 4739.62 -0.374629 4.46431 0
M  V30 48159 C 4741.36 -2.04529 3.71979 0
M  V30 48160 C 4739.27 -1.01057 5.82702 0
M  V30 48161 H 4738.2 -0.280878 0.699731 0
M  V30 48162 H 4740.85 0.00418328 1.835 0
M  V30 48163 H 4739.23 -2.16593 3.31517 0
M  V30 48164 H 4740.41 0.392493 4.59125 0
M  V30 48165 H 4738.72 0.196799 4.15935 0
M  V30 48166 H 4741.32 -2.52926 4.71097 0
M  V30 48167 H 4741.66 -2.85504 3.02974 0
M  V30 48168 H 4742.2 -1.31806 3.75329 0
M  V30 48169 H 4738.94 -0.240647 6.55058 0
M  V30 48170 H 4738.46 -1.74799 5.73764 0
M  V30 48171 H 4740.13 -1.52361 6.28805 0
M  V30 48172 N 4740.27 -1.54311 -0.320303 0
M  V30 48173 C 4741.2 -1.86917 -1.39944 0
M  V30 48174 C 4742.18 -0.726265 -1.53816 0
M  V30 48175 O 4743.36 -0.980292 -1.67642 0
M  V30 48176 C 4740.49 -2.09941 -2.76662 0
M  V30 48177 C 4739.45 -3.25786 -2.77575 0
M  V30 48178 C 4738.77 -3.34188 -4.174 0
M  V30 48179 C 4740.07 -4.63358 -2.41032 0
M  V30 48180 H 4741.77 -2.77296 -1.12904 0
M  V30 48181 H 4739.31 -1.33423 -0.541691 0
M  V30 48182 H 4741.27 -2.31336 -3.52224 0
M  V30 48183 H 4739.99 -1.16315 -3.05186 0
M  V30 48184 H 4738.65 -3.04283 -2.04469 0
M  V30 48185 H 4738.3 -2.38114 -4.4307 0
M  V30 48186 H 4738 -4.12047 -4.18916 0
M  V30 48187 H 4739.52 -3.57821 -4.94769 0
M  V30 48188 H 4740.93 -4.84612 -3.06307 0
M  V30 48189 H 4739.33 -5.43791 -2.53794 0
M  V30 48190 H 4740.4 -4.65386 -1.36177 0
M  V30 48191 N 4741.74 0.582532 -1.46439 0
M  V30 48192 C 4742.97 1.37163 -1.55567 0
M  V30 48193 C 4743.39 1.8706 -0.197495 0
M  V30 48194 O 4742.75 1.61575 0.822394 0
M  V30 48195 C 4742.8 2.53502 -2.56455 0
M  V30 48196 O 4741.9 3.54945 -2.09971 0
M  V30 48197 H 4741.25 0.408476 -0.523491 0
M  V30 48198 H 4743.78 0.706578 -1.92012 0
M  V30 48199 H 4743.79 3.00416 -2.76069 0
M  V30 48200 H 4742.46 2.16537 -3.55084 0
M  V30 48201 H 4741.04 3.14509 -2.00345 0
M  V30 48202 N 4743.22 1.34147 0.82718 0
M  V30 48203 C 4744.17 1.21929 1.92658 0
M  V30 48204 C 4745.16 0.119351 1.60457 0
M  V30 48205 O 4746.35 0.3486 1.73533 0
M  V30 48206 C 4743.48 0.972607 3.29234 0
M  V30 48207 C 4742.56 2.11553 3.67568 0
M  V30 48208 N 4742.95 3.36641 3.77501 0
M  V30 48209 C 4741.25 2.02482 3.97388 0
M  V30 48210 C 4741.95 4.11672 4.10976 0
M  V30 48211 N 4740.93 3.40222 4.23969 0
M  V30 48212 H 4744.73 2.16728 1.9851 0
M  V30 48213 H 4742.25 1.26324 1.02059 0
M  V30 48214 H 4744.24 0.865991 4.07807 0
M  V30 48215 H 4742.9 0.033265 3.24683 0
M  V30 48216 H 4743.91 3.71246 3.61105 0
M  V30 48217 H 4740.59 1.16279 4.00981 0
M  V30 48218 H 4741.98 5.19672 4.259 0
M  V30 48219 N 4744.7 -1.04686 1.17807 0
M  V30 48220 C 4745.61 -2.16053 0.914227 0
M  V30 48221 C 4746.63 -1.7359 -0.119442 0
M  V30 48222 O 4747.8 -2.01308 0.0610176 0
M  V30 48223 C 4744.87 -3.43938 0.436724 0
M  V30 48224 C 4743.93 -4.0082 1.5376 0
M  V30 48225 C 4743.16 -5.22601 1.08279 0
M  V30 48226 O 4743.38 -5.70367 -0.0610239 0
M  V30 48227 O 4742.32 -5.71854 1.87795 0
M  V30 48228 H 4746.14 -2.41163 1.84592 0
M  V30 48229 H 4743.73 -1.14527 0.959374 0
M  V30 48230 H 4745.61 -4.21023 0.178205 0
M  V30 48231 H 4744.29 -3.20317 -0.466757 0
M  V30 48232 H 4743.19 -3.25152 1.85006 0
M  V30 48233 H 4744.53 -4.28769 2.41698 0
M  V30 48234 N 4746.18 -0.979116 -1.23495 0
M  V30 48235 C 4747.09 -0.526512 -2.28615 0
M  V30 48236 C 4748.11 0.418067 -1.68903 0
M  V30 48237 O 4749.28 0.288302 -1.99326 0
M  V30 48238 C 4746.35 0.165113 -3.46307 0
M  V30 48239 C 4745.41 -0.820708 -4.21382 0
M  V30 48240 C 4744.64 -0.161994 -5.33454 0
M  V30 48241 O 4744.86 1.04723 -5.60704 0
M  V30 48242 O 4743.8 -0.859917 -5.95726 0
M  V30 48243 H 4747.62 -1.40069 -2.6947 0
M  V30 48244 H 4745.21 -0.746688 -1.29402 0
M  V30 48245 H 4747.09 0.55314 -4.17754 0
M  V30 48246 H 4745.77 1.01408 -3.07405 0
M  V30 48247 H 4744.67 -1.25941 -3.52264 0
M  V30 48248 H 4746.01 -1.63844 -4.64129 0
M  V30 48249 N 4747.66 1.38577 -0.75061 0
M  V30 48250 C 4748.59 2.29056 -0.0811519 0
M  V30 48251 C 4749.6 1.47598 0.686921 0
M  V30 48252 O 4750.79 1.70497 0.528503 0
M  V30 48253 C 4747.89 3.26478 0.909132 0
M  V30 48254 C 4747.06 4.36946 0.199324 0
M  V30 48255 C 4746.12 5.14576 1.09993 0
M  V30 48256 O 4745.15 5.66323 0.571571 0
M  V30 48257 N 4746.35 5.2727 2.4283 0
M  V30 48258 H 4749.12 2.8715 -0.858188 0
M  V30 48259 H 4746.68 1.50326 -0.601143 0
M  V30 48260 H 4748.67 3.7529 1.51458 0
M  V30 48261 H 4747.24 2.69304 1.58727 0
M  V30 48262 H 4746.46 3.89808 -0.586801 0
M  V30 48263 H 4747.75 5.07962 -0.291962 0
M  V30 48264 H 4747.15 4.86773 2.88216 0
M  V30 48265 H 4745.7 5.79466 2.98433 0
M  V30 48266 N 4749.14 0.499451 1.49477 0
M  V30 48267 C 4750.07 -0.326411 2.25853 0
M  V30 48268 C 4751.05 -0.97173 1.30369 0
M  V30 48269 O 4752.23 -1.00213 1.59655 0
M  V30 48270 C 4749.36 -1.45958 3.05637 0
M  V30 48271 C 4748.4 -0.928792 4.16264 0
M  V30 48272 S 4749.24 0.1792 5.352 0
M  V30 48273 C 4750.39 -0.957172 6.18538 0
M  V30 48274 H 4750.63 0.32185 2.95553 0
M  V30 48275 H 4748.16 0.284727 1.51752 0
M  V30 48276 H 4750.12 -2.10887 3.52189 0
M  V30 48277 H 4748.78 -2.07945 2.3541 0
M  V30 48278 H 4747.97 -1.77796 4.71598 0
M  V30 48279 H 4747.57 -0.356738 3.72295 0
M  V30 48280 H 4749.86 -1.86273 6.5139 0
M  V30 48281 H 4750.81 -0.442484 7.06716 0
M  V30 48282 H 4751.22 -1.2238 5.51075 0
M  V30 48283 N 4750.61 -1.55865 0.233218 0
M  V30 48284 C 4751.86 -1.98604 -0.395304 0
M  V30 48285 C 4752.19 -1.12111 -1.58938 0
M  V30 48286 O 4751.44 -0.168724 -1.94971 0
M  V30 48287 C 4751.74 -3.46859 -0.861602 0
M  V30 48288 C 4751.41 -4.50347 0.223224 0
M  V30 48289 C 4750.07 -4.78369 0.521206 0
M  V30 48290 C 4752.42 -5.12352 0.956304 0
M  V30 48291 C 4749.75 -5.65674 1.55658 0
M  V30 48292 C 4752.1 -6.00779 1.9811 0
M  V30 48293 C 4750.77 -6.2714 2.28587 0
M  V30 48294 H 4750.04 -0.726744 -0.144652 0
M  V30 48295 H 4752.68 -1.8849 0.338181 0
M  V30 48296 H 4750.99 -3.54235 -1.67405 0
M  V30 48297 H 4752.69 -3.77307 -1.35795 0
M  V30 48298 H 4749.28 -4.28596 -0.0191727 0
M  V30 48299 H 4753.46 -4.90762 0.739339 0
M  V30 48300 H 4748.72 -5.84358 1.7982 0
M  V30 48301 H 4752.89 -6.47871 2.55413 0
M  V30 48302 H 4750.52 -6.94586 3.08956 0
M  V30 48303 N 4752.09 0.0400529 -1.57549 0
M  V30 48304 C 4753.34 0.734145 -1.89045 0
M  V30 48305 C 4753.67 1.75589 -0.829597 0
M  V30 48306 O 4752.95 1.93868 0.156637 0
M  V30 48307 C 4753.23 1.41362 -3.31193 0
M  V30 48308 C 4753.08 0.406142 -4.47963 0
M  V30 48309 C 4754.4 2.35048 -3.72076 0
M  V30 48310 H 4751.52 0.265423 -0.687546 0
M  V30 48311 H 4754.16 -0.00300767 -1.9 0
M  V30 48312 H 4752.31 2.04195 -3.3051 0
M  V30 48313 H 4753.98 -0.219417 -4.60778 0
M  V30 48314 H 4752.23 -0.275637 -4.32923 0
M  V30 48315 H 4752.9 0.919831 -5.44282 0
M  V30 48316 H 4755.37 1.82268 -3.74055 0
M  V30 48317 H 4754.25 2.79576 -4.72365 0
M  V30 48318 H 4754.51 3.21247 -3.03731 0
M  V30 48319 N 4753.57 1.54478 0.312115 0
M  V30 48320 C 4754.52 1.854 1.40463 0
M  V30 48321 C 4755.51 0.726803 1.53016 0
M  V30 48322 O 4756.72 0.910636 1.55266 0
M  V30 48323 H 4753.09 0.587861 0.46896 0
M  V30 48324 H 4755.06 2.7674 1.11613 0
M  V30 48325 C 4753.81 2.1082 2.76496 0
M  V30 48326 H 4753.14 2.97023 2.67614 0
M  V30 48327 H 4754.58 2.36403 3.5198 0
M  V30 48328 C 4753.03 0.903279 3.24565 0
M  V30 48329 O 4753.56 0.118226 4.01526 0
M  V30 48330 N 4751.77 0.711733 2.81749 0
M  V30 48331 H 4751.32 1.35179 2.19282 0
M  V30 48332 H 4751.28 -0.0929368 3.14263 0
M  V30 48333 N 4755.05 -0.574758 1.46746 0
M  V30 48334 C 4756.46 -0.898935 1.31876 0
M  V30 48335 C 4756.66 -1.99312 0.29612 0
M  V30 48336 O 4755.72 -2.50729 -0.298533 0
M  V30 48337 C 4757.03 -1.30877 2.70725 0
M  V30 48338 C 4758.58 -1.42117 2.78876 0
M  V30 48339 C 4759.06 -1.86463 4.18325 0
M  V30 48340 N 4760.55 -1.93644 4.20781 0
M  V30 48341 C 4761.28 -2.29248 5.25579 0
M  V30 48342 N 4760.78 -2.6359 6.40697 0
M  V30 48343 N 4762.57 -2.29871 5.12948 0
M  V30 48344 H 4754.72 0.147914 2.11884 0
M  V30 48345 H 4756.98 0.00350346 0.947994 0
M  V30 48346 H 4756.69 -0.578731 3.46906 0
M  V30 48347 H 4756.56 -2.26864 3.01351 0
M  V30 48348 H 4758.95 -2.14205 2.02978 0
M  V30 48349 H 4759.03 -0.443616 2.51924 0
M  V30 48350 H 4758.68 -1.14951 4.94721 0
M  V30 48351 H 4758.61 -2.85191 4.42689 0
M  V30 48352 H 4761.1 -1.69562 3.37724 0
M  V30 48353 H 4761.41 -2.89734 7.16432 0
M  V30 48354 H 4759.76 -2.6121 6.44045 0
M  V30 48355 H 4762.95 -2.0247 4.22047 0
M  V30 48356 H 4763.12 -2.57291 5.94731 0
M  V30 48357 N 4756.53 -1.34584 -0.820054 0
M  V30 48358 C 4757.77 -1.2729 -1.57877 0
M  V30 48359 C 4758.1 0.156069 -1.93572 0
M  V30 48360 O 4757.38 1.10216 -1.60258 0
M  V30 48361 C 4757.66 -2.16649 -2.87637 0
M  V30 48362 C 4757.52 -3.68097 -2.58504 0
M  V30 48363 C 4758.83 -2.05392 -3.89233 0
M  V30 48364 H 4755.95 -0.463735 -0.572817 0
M  V30 48365 H 4758.6 -1.64862 -0.944481 0
M  V30 48366 H 4756.75 -1.84737 -3.41767 0
M  V30 48367 H 4758.42 -4.10389 -2.10662 0
M  V30 48368 H 4756.66 -3.89044 -1.91903 0
M  V30 48369 H 4757.33 -4.25992 -3.51048 0
M  V30 48370 H 4759.81 -2.33417 -3.44465 0
M  V30 48371 H 4758.68 -2.70137 -4.77826 0
M  V30 48372 H 4758.94 -1.03176 -4.29892 0
M  V30 48373 N 4758 1.0406 -1.18361 0
M  V30 48374 C 4759.25 1.76911 -0.977075 0
M  V30 48375 C 4759.57 1.88626 0.494511 0
M  V30 48376 O 4758.84 1.41129 1.35865 0
M  V30 48377 H 4757.42 0.655338 -0.358527 0
M  V30 48378 H 4760.08 1.25587 -1.49044 0
M  V30 48379 H 4759.18 2.78173 -1.41514 0
M  V30 48380 N 4759.48 0.985651 1.22974 0
M  V30 48381 C 4760.43 0.501259 2.22422 0
M  V30 48382 C 4761.42 -0.426595 1.55142 0
M  V30 48383 O 4762.61 -0.254594 1.75159 0
M  V30 48384 C 4759.74 -0.189882 3.42774 0
M  V30 48385 C 4758.82 0.75785 4.17274 0
M  V30 48386 N 4759.21 1.90268 4.68649 0
M  V30 48387 C 4757.51 0.572246 4.42314 0
M  V30 48388 C 4758.21 2.49694 5.25383 0
M  V30 48389 N 4757.19 1.78031 5.1362 0
M  V30 48390 H 4760.99 1.3745 2.59778 0
M  V30 48391 H 4758.5 0.846989 1.38564 0
M  V30 48392 H 4760.5 -0.554245 4.13199 0
M  V30 48393 H 4759.16 -1.05935 3.06933 0
M  V30 48394 H 4760.17 2.2837 4.64831 0
M  V30 48395 H 4756.85 -0.251763 4.1674 0
M  V30 48396 H 4758.24 3.46405 5.7572 0
M  V30 48397 N 4760.96 -1.38177 0.757949 0
M  V30 48398 C 4762.24 -1.94105 0.241374 0
M  V30 48399 C 4762.62 -1.69287 -1.26116 0
M  V30 48400 O 4761.97 -1.03385 -2.03774 0
M  V30 48401 C 4762.18 -3.43807 0.599791 0
M  V30 48402 C 4763.52 -4.20866 0.561865 0
M  V30 48403 O 4764.55 -3.52108 0.538346 0
M  V30 48404 O 4763.41 -5.43449 0.576669 0
M  V30 48405 H 4760.5 -0.825374 0.0518332 0
M  V30 48406 H 4763.05 -1.47545 0.838367 0
M  V30 48407 H 4761.82 -3.55398 1.63732 0
M  V30 48408 H 4761.44 -3.97592 -0.02498 0
M  V30 48409 N 4762.44 -0.507371 -1.4921 0
M  V30 48410 C 4763.67 0.0314565 -2.06576 0
M  V30 48411 C 4764.08 1.30786 -1.36718 0
M  V30 48412 O 4763.42 1.78322 -0.441244 0
M  V30 48413 C 4763.48 0.348978 -3.57802 0
M  V30 48414 C 4763.15 -0.830633 -4.49388 0
M  V30 48415 C 4764.14 -1.72288 -4.90523 0
M  V30 48416 C 4761.83 -1.03124 -4.916 0
M  V30 48417 C 4763.82 -2.79984 -5.72615 0
M  V30 48418 C 4761.51 -2.11136 -5.73467 0
M  V30 48419 C 4762.51 -2.994 -6.1388 0
M  V30 48420 O 4762.19 -4.05547 -6.94108 0
M  V30 48421 H 4761.93 -0.020124 -0.6757 0
M  V30 48422 H 4764.48 -0.705805 -1.92893 0
M  V30 48423 H 4762.71 1.13992 -3.69517 0
M  V30 48424 H 4764.4 0.827179 -3.97382 0
M  V30 48425 H 4765.17 -1.57974 -4.58551 0
M  V30 48426 H 4761.04 -0.353579 -4.59642 0
M  V30 48427 H 4764.59 -3.48906 -6.04078 0
M  V30 48428 H 4760.49 -2.25443 -6.04852 0
M  V30 48429 H 4761.25 -4.02978 -7.12426 0
M  V30 48430 N 4763.92 1.55739 -0.241481 0
M  V30 48431 C 4764.85 2.18472 0.693015 0
M  V30 48432 C 4765.86 1.15946 1.14282 0
M  V30 48433 O 4767.05 1.42835 1.07053 0
M  V30 48434 C 4764.15 2.76967 1.95301 0
M  V30 48435 C 4763.32 4.04859 1.65554 0
M  V30 48436 C 4762.38 4.47724 2.76459 0
M  V30 48437 O 4761.41 5.14213 2.44076 0
M  V30 48438 N 4762.61 4.15058 4.05841 0
M  V30 48439 H 4765.38 2.99292 0.156283 0
M  V30 48440 H 4762.94 1.61784 -0.061232 0
M  V30 48441 H 4764.93 3.02603 2.68725 0
M  V30 48442 H 4763.5 2.00335 2.39968 0
M  V30 48443 H 4762.72 3.86868 0.75675 0
M  V30 48444 H 4764.01 4.88252 1.43136 0
M  V30 48445 H 4763.4 3.61669 4.34985 0
M  V30 48446 H 4761.96 4.45543 4.75746 0
M  V30 48447 N 4765.39 -0.0316971 1.57568 0
M  V30 48448 C 4766.64 -0.718645 1.90281 0
M  V30 48449 C 4767 -1.73105 0.839788 0
M  V30 48450 O 4766.29 -1.90998 -0.151813 0
M  V30 48451 C 4766.48 -1.43155 3.27477 0
M  V30 48452 C 4766.31 -0.489711 4.47026 0
M  V30 48453 C 4765.08 -0.111732 5.05176 0
M  V30 48454 C 4767.28 0.230772 5.13782 0
M  V30 48455 N 4765.26 0.831641 6.08241 0
M  V30 48456 C 4766.63 1.0299 6.11386 0
M  V30 48457 C 4768.69 0.297995 4.97007 0
M  V30 48458 C 4767.39 1.89006 6.94024 0
M  V30 48459 C 4769.42 1.14528 5.80205 0
M  V30 48460 C 4768.78 1.93234 6.77377 0
M  V30 48461 H 4764.88 -0.237151 0.745174 0
M  V30 48462 H 4767.46 0.0211951 1.94688 0
M  V30 48463 H 4765.63 -2.14187 3.24004 0
M  V30 48464 H 4767.36 -2.07068 3.47714 0
M  V30 48465 H 4764.12 -0.473347 4.71229 0
M  V30 48466 H 4764.54 1.29776 6.64445 0
M  V30 48467 H 4769.19 -0.296198 4.21761 0
M  V30 48468 H 4766.9 2.49507 7.68617 0
M  V30 48469 H 4770.49 1.20079 5.69273 0
M  V30 48470 H 4769.37 2.57737 7.40636 0
M  V30 48471 N 4766.87 -1.54642 -0.303919 0
M  V30 48472 C 4768.12 -1.72994 -1.03711 0
M  V30 48473 C 4768.43 -0.521234 -1.88527 0
M  V30 48474 O 4769.64 -0.586501 -2.65089 0
M  V30 48475 C 4768.1 -3.06058 -1.89358 0
M  V30 48476 C 4767.7 -4.34397 -1.09559 0
M  V30 48477 C 4769.45 -3.33769 -2.62295 0
M  V30 48478 C 4767.36 -5.58513 -1.94466 0
M  V30 48479 H 4766.29 -0.644744 -0.390924 0
M  V30 48480 H 4768.94 -1.81125 -0.294264 0
M  V30 48481 H 4767.32 -2.91884 -2.67619 0
M  V30 48482 H 4768.49 -4.59397 -0.359323 0
M  V30 48483 H 4766.81 -4.13599 -0.482179 0
M  V30 48484 H 4769.4 -4.23698 -3.26166 0
M  V30 48485 H 4769.75 -2.52515 -3.30971 0
M  V30 48486 H 4770.28 -3.489 -1.91085 0
M  V30 48487 H 4767.02 -6.42426 -1.30265 0
M  V30 48488 H 4766.54 -5.37703 -2.65773 0
M  V30 48489 H 4768.22 -5.9566 -2.52584 0
M  V30 48490 N 4768.35 0.566968 -1.47048 0
M  V30 48491 C 4769.6 1.32195 -1.52869 0
M  V30 48492 C 4769.92 1.94087 -0.188456 0
M  V30 48493 O 4769.19 1.79413 0.786629 0
M  V30 48494 H 4767.77 0.490874 -0.563073 0
M  V30 48495 H 4770.43 0.662814 -1.83283 0
M  V30 48496 H 4769.53 2.12054 -2.28997 0
M  V30 48497 N 4769.83 1.35017 0.812906 0
M  V30 48498 C 4770.76 1.30075 1.93914 0
M  V30 48499 C 4771.74 0.176334 1.69184 0
M  V30 48500 O 4772.92 0.370294 1.90637 0
M  V30 48501 C 4770.05 1.06559 3.30549 0
M  V30 48502 C 4769.01 2.15574 3.69745 0
M  V30 48503 C 4768.33 1.77232 5.04473 0
M  V30 48504 C 4769.63 3.57489 3.80787 0
M  V30 48505 H 4771.33 2.2431 1.98306 0
M  V30 48506 H 4768.87 1.0798 0.952698 0
M  V30 48507 H 4770.83 1.01744 4.08933 0
M  V30 48508 H 4769.55 0.0876867 3.26482 0
M  V30 48509 H 4768.21 2.19476 2.93642 0
M  V30 48510 H 4767.86 0.780764 4.96903 0
M  V30 48511 H 4767.56 2.50203 5.31669 0
M  V30 48512 H 4769.08 1.7393 5.85304 0
M  V30 48513 H 4770.5 3.55945 4.49418 0
M  V30 48514 H 4768.89 4.29167 4.19447 0
M  V30 48515 H 4769.96 3.94101 2.82511 0
M  V30 48516 N 4771.31 -1.03431 1.18911 0
M  V30 48517 C 4772.25 -2.137 0.918428 0
M  V30 48518 C 4773.25 -1.68948 -0.123708 0
M  V30 48519 O 4774.45 -1.79983 0.0250334 0
M  V30 48520 H 4770.83 -0.698102 0.279566 0
M  V30 48521 H 4772.8 -2.33724 1.85514 0
M  V30 48522 C 4771.55 -3.44541 0.467653 0
M  V30 48523 H 4770.87 -3.7939 1.26108 0
M  V30 48524 H 4772.31 -4.22811 0.317312 0
M  V30 48525 C 4770.77 -3.26832 -0.817473 0
M  V30 48526 O 4771.3 -3.54981 -1.88019 0
M  V30 48527 N 4769.51 -2.80142 -0.772579 0
M  V30 48528 H 4769.05 -2.57434 0.0924788 0
M  V30 48529 H 4769.01 -2.68674 -1.63284 0
M  V30 48530 N 4772.78 -0.992159 -1.2245 0
M  V30 48531 C 4774.06 -0.583574 -1.86692 0
M  V30 48532 C 4774.44 0.939133 -1.8906 0
M  V30 48533 O 4773.79 1.82076 -1.3806 0
M  V30 48534 C 4774 -1.20315 -3.27605 0
M  V30 48535 C 4775.35 -1.30322 -4.04106 0
M  V30 48536 O 4776.37 -1.15749 -3.36869 0
M  V30 48537 O 4775.23 -1.53634 -5.24461 0
M  V30 48538 H 4772.32 -0.198158 -0.802909 0
M  V30 48539 H 4774.87 -1.08799 -1.30234 0
M  V30 48540 H 4773.64 -2.24472 -3.20512 0
M  V30 48541 H 4773.27 -0.684282 -3.91667 0
M  V30 48542 N 4774.26 1.37773 -0.765266 0
M  V30 48543 C 4775.21 2.30342 -0.145355 0
M  V30 48544 C 4776.18 1.50772 0.696918 0
M  V30 48545 O 4777.36 1.79364 0.650626 0
M  V30 48546 C 4774.5 3.3723 0.732821 0
M  V30 48547 C 4773.62 4.31818 -0.125351 0
M  V30 48548 C 4772.75 5.2578 0.756922 0
M  V30 48549 C 4771.79 6.12011 -0.104178 0
M  V30 48550 N 4770.93 6.98235 0.735708 0
M  V30 48551 H 4775.77 2.82776 -0.940295 0
M  V30 48552 H 4773.31 1.39209 -0.475304 0
M  V30 48553 H 4775.26 3.97822 1.25672 0
M  V30 48554 H 4773.89 2.86176 1.49343 0
M  V30 48555 H 4772.95 3.72587 -0.766996 0
M  V30 48556 H 4774.26 4.92507 -0.789856 0
M  V30 48557 H 4773.41 5.91545 1.34755 0
M  V30 48558 H 4772.15 4.65486 1.45513 0
M  V30 48559 H 4771.16 5.4523 -0.707389 0
M  V30 48560 H 4772.38 6.74376 -0.799618 0
M  V30 48561 H 4770.33 6.40477 1.41865 0
M  V30 48562 H 4770.24 7.55891 0.128359 0
M  V30 48563 H 4771.51 7.68398 1.31094 0
M  V30 48564 N 4775.74 0.515277 1.48938 0
M  V30 48565 C 4776.67 -0.302438 2.26187 0
M  V30 48566 C 4777.65 -0.957848 1.31393 0
M  V30 48567 O 4778.84 -0.985142 1.60708 0
M  V30 48568 C 4775.96 -1.42708 3.07168 0
M  V30 48569 C 4775.01 -0.884589 4.17226 0
M  V30 48570 S 4775.84 0.235955 5.3498 0
M  V30 48571 C 4777 -0.891513 6.19518 0
M  V30 48572 H 4777.23 0.35318 2.95195 0
M  V30 48573 H 4774.76 0.300807 1.51441 0
M  V30 48574 H 4776.72 -2.0714 3.54406 0
M  V30 48575 H 4775.38 -2.05436 2.37602 0
M  V30 48576 H 4774.58 -1.72784 4.73457 0
M  V30 48577 H 4774.18 -0.317231 3.72652 0
M  V30 48578 H 4776.47 -1.79354 6.53329 0
M  V30 48579 H 4777.41 -0.367503 7.07146 0
M  V30 48580 H 4777.82 -1.16529 5.52342 0
M  V30 48581 N 4777.22 -1.55609 0.249737 0
M  V30 48582 C 4778.47 -1.99012 -0.374217 0
M  V30 48583 C 4778.79 -1.1379 -1.5774 0
M  V30 48584 O 4778.05 -0.189394 -1.94781 0
M  V30 48585 C 4778.35 -3.47753 -0.824764 0
M  V30 48586 C 4778.01 -4.50085 0.270977 0
M  V30 48587 C 4776.68 -4.77789 0.571914 0
M  V30 48588 C 4779.03 -5.11309 1.01059 0
M  V30 48589 C 4776.36 -5.63992 1.61649 0
M  V30 48590 C 4778.71 -5.98644 2.04471 0
M  V30 48591 C 4777.37 -6.2468 2.35226 0
M  V30 48592 H 4776.64 -0.728237 -0.136936 0
M  V30 48593 H 4779.29 -1.88121 0.358154 0
M  V30 48594 H 4777.59 -3.55991 -1.63639 0
M  V30 48595 H 4779.29 -3.78726 -1.31786 0
M  V30 48596 H 4775.88 -4.28592 0.0262867 0
M  V30 48597 H 4780.07 -4.8995 0.791349 0
M  V30 48598 H 4775.32 -5.82418 1.86008 0
M  V30 48599 H 4779.5 -6.45126 2.62271 0
M  V30 48600 H 4777.12 -6.9127 3.16306 0
M  V30 48601 N 4778.7 0.0233405 -1.57583 0
M  V30 48602 C 4779.61 1.039 -2.10338 0
M  V30 48603 C 4780.62 1.39254 -1.04328 0
M  V30 48604 O 4781.8 1.48458 -1.36097 0
M  V30 48605 C 4778.86 2.31929 -2.57701 0
M  V30 48606 C 4777.93 2.03103 -3.78216 0
M  V30 48607 C 4777.16 3.25028 -4.23311 0
M  V30 48608 O 4777.38 4.35904 -3.67892 0
M  V30 48609 O 4776.32 3.10393 -5.15694 0
M  V30 48610 H 4780.14 0.620643 -2.97291 0
M  V30 48611 H 4777.73 0.240691 -1.47448 0
M  V30 48612 H 4779.61 3.07186 -2.88469 0
M  V30 48613 H 4778.28 2.73049 -1.73857 0
M  V30 48614 H 4777.19 1.25396 -3.52458 0
M  V30 48615 H 4778.52 1.66836 -4.63062 0
M  V30 48616 N 4780.18 1.54801 0.295713 0
M  V30 48617 C 4781.13 1.82502 1.36664 0
M  V30 48618 C 4782.11 0.682485 1.45708 0
M  V30 48619 O 4783.3 0.94326 1.49772 0
M  V30 48620 C 4780.43 2.08045 2.73079 0
M  V30 48621 C 4779.52 3.28497 2.68236 0
M  V30 48622 N 4779.91 4.48933 2.33009 0
M  V30 48623 C 4778.21 3.30631 2.99331 0
M  V30 48624 C 4778.91 5.30965 2.37595 0
M  V30 48625 N 4777.88 4.68815 2.75162 0
M  V30 48626 H 4781.68 2.73179 1.084 0
M  V30 48627 H 4779.2 1.54371 0.504306 0
M  V30 48628 H 4781.2 2.26039 3.50302 0
M  V30 48629 H 4779.86 1.18639 3.0225 0
M  V30 48630 H 4780.87 4.75439 2.05373 0
M  V30 48631 H 4777.54 2.51348 3.33362 0
M  V30 48632 H 4778.93 6.37207 2.13113 0
M  V30 48633 N 4781.65 -0.559161 1.47347 0
M  V30 48634 C 4782.93 -1.31991 1.44352 0
M  V30 48635 C 4783.31 -2.10639 0.139432 0
M  V30 48636 O 4782.66 -2.10913 -0.879079 0
M  V30 48637 C 4782.87 -2.22608 2.68787 0
M  V30 48638 C 4784.22 -2.8369 3.1592 0
M  V30 48639 O 4785.24 -2.32911 2.69501 0
M  V30 48640 O 4784.1 -3.75979 3.96613 0
M  V30 48641 H 4781.19 -0.594231 0.575168 0
M  V30 48642 H 4783.74 -0.578226 1.59545 0
M  V30 48643 H 4782.51 -1.64081 3.55237 0
M  V30 48644 H 4782.13 -3.04076 2.56171 0
M  V30 48645 N 4783.13 -1.35446 -0.805734 0
M  V30 48646 C 4784.38 -1.28767 -1.56286 0
M  V30 48647 C 4784.71 0.137679 -1.94012 0
M  V30 48648 O 4783.96 1.10314 -1.61646 0
M  V30 48649 C 4784.26 -2.14055 -2.86208 0
M  V30 48650 C 4783.93 -3.62835 -2.67697 0
M  V30 48651 C 4782.59 -4.03389 -2.62356 0
M  V30 48652 C 4784.94 -4.57236 -2.5017 0
M  V30 48653 C 4782.27 -5.3651 -2.37433 0
M  V30 48654 C 4784.62 -5.90555 -2.26776 0
M  V30 48655 C 4783.28 -6.30253 -2.19858 0
M  V30 48656 H 4782.55 -0.471191 -0.571892 0
M  V30 48657 H 4785.2 -1.67351 -0.930915 0
M  V30 48658 H 4783.51 -1.68354 -3.53785 0
M  V30 48659 H 4785.2 -2.06222 -3.43909 0
M  V30 48660 H 4781.79 -3.30654 -2.72701 0
M  V30 48661 H 4785.98 -4.26789 -2.53308 0
M  V30 48662 H 4781.23 -5.66267 -2.30547 0
M  V30 48663 H 4785.41 -6.63281 -2.12205 0
M  V30 48664 H 4783.03 -7.33336 -2.00307 0
M  V30 48665 N 4784.61 1.02799 -1.19458 0
M  V30 48666 C 4786.03 1.28469 -0.946983 0
M  V30 48667 C 4786.23 1.97882 0.380133 0
M  V30 48668 O 4785.28 2.26723 1.11143 0
M  V30 48669 C 4786.59 2.13092 -2.12161 0
M  V30 48670 C 4788.14 2.26396 -2.16134 0
M  V30 48671 C 4788.62 3.14391 -3.3305 0
M  V30 48672 N 4790.11 3.21979 -3.32992 0
M  V30 48673 C 4790.84 3.90258 -4.20103 0
M  V30 48674 N 4790.34 4.60759 -5.17371 0
M  V30 48675 N 4792.13 3.86666 -4.07978 0
M  V30 48676 H 4784.28 0.561593 -2.04841 0
M  V30 48677 H 4786.55 0.310406 -0.895741 0
M  V30 48678 H 4786.25 1.69411 -3.08209 0
M  V30 48679 H 4786.13 3.13806 -2.09298 0
M  V30 48680 H 4788.51 2.69307 -1.20656 0
M  V30 48681 H 4788.59 1.25229 -2.2305 0
M  V30 48682 H 4788.24 2.72189 -4.28807 0
M  V30 48683 H 4788.17 4.15619 -3.23371 0
M  V30 48684 H 4790.66 2.71769 -2.62584 0
M  V30 48685 H 4790.97 5.10493 -5.80187 0
M  V30 48686 H 4789.32 4.59622 -5.21319 0
M  V30 48687 H 4792.51 3.30727 -3.31266 0
M  V30 48688 H 4792.68 4.39604 -4.7608 0
M  V30 48689 N 4786.09 0.998639 1.21922 0
M  V30 48690 C 4787.33 0.688404 1.91396 0
M  V30 48691 C 4787.69 -0.771743 1.76244 0
M  V30 48692 O 4786.98 -1.55149 1.12425 0
M  V30 48693 C 4787.18 1.0366 3.42037 0
M  V30 48694 C 4787 2.52905 3.71846 0
M  V30 48695 C 4785.77 3.19403 3.91548 0
M  V30 48696 C 4787.97 3.51043 3.75863 0
M  V30 48697 N 4785.95 4.58064 4.08718 0
M  V30 48698 C 4787.33 4.75188 3.98242 0
M  V30 48699 C 4789.38 3.45269 3.58739 0
M  V30 48700 C 4788.08 5.94261 4.05274 0
M  V30 48701 C 4790.11 4.63725 3.67033 0
M  V30 48702 C 4789.47 5.86671 3.89867 0
M  V30 48703 H 4785.57 0.303277 0.720796 0
M  V30 48704 H 4788.15 1.27982 1.46727 0
M  V30 48705 H 4786.33 0.473705 3.855 0
M  V30 48706 H 4788.06 0.681759 3.98916 0
M  V30 48707 H 4784.81 2.69859 3.89195 0
M  V30 48708 H 4785.24 5.30004 4.21218 0
M  V30 48709 H 4789.88 2.51227 3.40066 0
M  V30 48710 H 4787.6 6.88702 4.22748 0
M  V30 48711 H 4791.18 4.60853 3.55114 0
M  V30 48712 H 4790.06 6.768 3.9612 0
M  V30 48713 N 4787.57 -1.37365 0.772562 0
M  V30 48714 C 4788.79 -2.03941 0.348659 0
M  V30 48715 C 4789.21 -1.58267 -1.02941 0
M  V30 48716 O 4788.57 -0.764305 -1.65725 0
M  V30 48717 C 4788.62 -3.59459 0.383637 0
M  V30 48718 O 4788.34 -4.03462 1.70735 0
M  V30 48719 C 4789.84 -4.4327 -0.0517594 0
M  V30 48720 H 4787.06 -0.654926 0.145989 0
M  V30 48721 H 4789.6 -1.75682 1.04671 0
M  V30 48722 H 4787.76 -3.86487 -0.265842 0
M  V30 48723 H 4788.17 -4.97985 1.64653 0
M  V30 48724 H 4789.65 -5.51995 0.0238673 0
M  V30 48725 H 4790.12 -4.25144 -1.10223 0
M  V30 48726 H 4790.73 -4.21469 0.569563 0
M  V30 48727 N 4789.04 -0.523168 -1.48663 0
M  V30 48728 C 4790.32 0.0774762 -1.95447 0
M  V30 48729 C 4790.7 1.51965 -1.46526 0
M  V30 48730 O 4790.05 2.17873 -0.688734 0
M  V30 48731 C 4790.26 -0.0327362 -3.48985 0
M  V30 48732 C 4791.61 0.129992 -4.24401 0
M  V30 48733 O 4792.63 0.041389 -3.56176 0
M  V30 48734 O 4791.49 0.314718 -5.45593 0
M  V30 48735 H 4788.58 0.0830723 -0.822817 0
M  V30 48736 H 4791.13 -0.587283 -1.59214 0
M  V30 48737 H 4789.9 -1.03761 -3.77292 0
M  V30 48738 H 4789.52 0.671179 -3.91894 0
M  V30 48739 N 4790.52 1.55474 -0.257986 0
M  V30 48740 C 4791.77 1.98814 0.362939 0
M  V30 48741 C 4792.09 1.14762 1.57653 0
M  V30 48742 O 4791.36 0.233024 1.94509 0
M  V30 48743 H 4789.94 0.734313 0.137088 0
M  V30 48744 H 4792.6 1.91559 -0.359348 0
M  V30 48745 H 4791.7 3.04943 0.664526 0
M  V30 48746 N 4792 -0.0149831 1.57593 0
M  V30 48747 C 4793.23 -0.717999 1.94575 0
M  V30 48748 C 4793.65 -1.67337 0.859064 0
M  V30 48749 O 4793.01 -1.80363 -0.184084 0
M  V30 48750 C 4793.06 -1.43906 3.30641 0
M  V30 48751 O 4792.16 -2.55288 3.23885 0
M  V30 48752 H 4791.5 -0.192103 0.635604 0
M  V30 48753 H 4794.03 0.0337427 2.04572 0
M  V30 48754 H 4794.04 -1.80585 3.65859 0
M  V30 48755 H 4792.72 -0.738475 4.09291 0
M  V30 48756 H 4791.29 -2.21048 3.0032 0
M  V30 48757 N 4793.48 -1.54955 -0.2875 0
M  V30 48758 C 4794.71 -1.78885 -1.03961 0
M  V30 48759 C 4795.12 -0.554957 -1.8046 0
M  V30 48760 O 4794.48 0.475614 -1.76194 0
M  V30 48761 C 4794.53 -3.00495 -2.0096 0
M  V30 48762 O 4794.25 -4.19118 -1.27562 0
M  V30 48763 C 4795.75 -3.36917 -2.881 0
M  V30 48764 H 4792.97 -0.59627 -0.30774 0
M  V30 48765 H 4795.52 -2.01938 -0.322678 0
M  V30 48766 H 4793.67 -2.79611 -2.68135 0
M  V30 48767 H 4794.08 -4.87772 -1.92818 0
M  V30 48768 H 4795.56 -4.25218 -3.51986 0
M  V30 48769 H 4796.04 -2.55671 -3.57112 0
M  V30 48770 H 4796.64 -3.60009 -2.26436 0
M  V30 48771 N 4794.96 0.551339 -1.47641 0
M  V30 48772 C 4795.89 1.66752 -1.63451 0
M  V30 48773 C 4796.87 1.63075 -0.483799 0
M  V30 48774 O 4798.05 1.80605 -0.713834 0
M  V30 48775 C 4795.18 3.05382 -1.65407 0
M  V30 48776 C 4794.14 3.23908 -2.79764 0
M  V30 48777 C 4793.46 4.63383 -2.66796 0
M  V30 48778 C 4794.76 3.0872 -4.21295 0
M  V30 48779 H 4796.46 1.53777 -2.56891 0
M  V30 48780 H 4794 0.738372 -1.23629 0
M  V30 48781 H 4795.96 3.83318 -1.75057 0
M  V30 48782 H 4794.68 3.19329 -0.685307 0
M  V30 48783 H 4793.34 2.48381 -2.69634 0
M  V30 48784 H 4792.99 4.74138 -1.67935 0
M  V30 48785 H 4792.69 4.76728 -3.43518 0
M  V30 48786 H 4794.21 5.43448 -2.78383 0
M  V30 48787 H 4795.62 3.76469 -4.3237 0
M  V30 48788 H 4794.02 3.3357 -4.9885 0
M  V30 48789 H 4795.09 2.05394 -4.39251 0
M  V30 48790 N 4796.43 1.35872 0.79854 0
M  V30 48791 C 4797.37 1.25311 1.91911 0
M  V30 48792 C 4798.38 0.174605 1.61861 0
M  V30 48793 O 4799.57 0.42856 1.73279 0
M  V30 48794 C 4796.67 0.908714 3.2649 0
M  V30 48795 C 4795.84 2.08724 3.84386 0
M  V30 48796 C 4794.9 1.71735 4.97387 0
M  V30 48797 O 4793.93 2.4371 5.14387 0
M  V30 48798 N 4795.13 0.645675 5.76898 0
M  V30 48799 H 4797.89 2.21856 2.01494 0
M  V30 48800 H 4795.45 1.29146 0.976363 0
M  V30 48801 H 4797.45 0.642596 3.99566 0
M  V30 48802 H 4796.02 0.0326914 3.12583 0
M  V30 48803 H 4795.24 2.5167 3.03407 0
M  V30 48804 H 4796.52 2.87482 4.19799 0
M  V30 48805 H 4795.92 0.0478469 5.6568 0
M  V30 48806 H 4794.48 0.439358 6.50318 0
M  V30 48807 N 4797.91 -1.02164 1.20001 0
M  V30 48808 C 4799.14 -1.79033 1.03106 0
M  V30 48809 C 4799.55 -1.84411 -0.423013 0
M  V30 48810 O 4798.89 -1.29233 -1.30555 0
M  V30 48811 C 4798.96 -3.25179 1.53293 0
M  V30 48812 C 4798.62 -3.4342 3.01515 0
M  V30 48813 C 4799.62 -3.33049 3.99217 0
M  V30 48814 C 4797.3 -3.694 3.40366 0
M  V30 48815 C 4799.3 -3.48394 5.33761 0
M  V30 48816 C 4796.98 -3.84389 4.75066 0
M  V30 48817 C 4797.98 -3.7389 5.71573 0
M  V30 48818 O 4797.67 -3.88427 7.03832 0
M  V30 48819 H 4797.4 -0.57003 0.363376 0
M  V30 48820 H 4799.95 -1.29518 1.59418 0
M  V30 48821 H 4798.18 -3.75753 0.913615 0
M  V30 48822 H 4799.87 -3.83667 1.32494 0
M  V30 48823 H 4800.64 -3.12921 3.70548 0
M  V30 48824 H 4796.52 -3.76662 2.65795 0
M  V30 48825 H 4800.06 -3.40115 6.09071 0
M  V30 48826 H 4795.96 -4.04017 5.03429 0
M  V30 48827 H 4796.73 -4.05475 7.11008 0
M  V30 48828 N 4799.39 -1.00509 -1.21391 0
M  V30 48829 C 4800.3 -0.574886 -2.27447 0
M  V30 48830 C 4801.32 0.382146 -1.69752 0
M  V30 48831 O 4802.49 0.245957 -1.99892 0
M  V30 48832 C 4799.56 0.0916195 -3.46579 0
M  V30 48833 C 4798.62 -0.909905 -4.19546 0
M  V30 48834 C 4797.85 -0.275111 -5.3299 0
M  V30 48835 O 4798.07 0.928056 -5.62799 0
M  V30 48836 O 4797.01 -0.986086 -5.93768 0
M  V30 48837 H 4800.83 -1.45754 -2.66439 0
M  V30 48838 H 4798.42 -0.773968 -1.27789 0
M  V30 48839 H 4800.3 0.464404 -4.18833 0
M  V30 48840 H 4798.98 0.948646 -3.09487 0
M  V30 48841 H 4797.88 -1.33385 -3.49513 0
M  V30 48842 H 4799.22 -1.73652 -4.60549 0
M  V30 48843 N 4800.87 1.36954 -0.779835 0
M  V30 48844 C 4801.82 2.32052 -0.159501 0
M  V30 48845 C 4802.81 1.55335 0.675824 0
M  V30 48846 O 4804.02 1.7067 0.57198 0
M  V30 48847 H 4800.39 0.751284 -0.0327972 0
M  V30 48848 H 4802.36 2.81946 -0.977177 0
M  V30 48849 C 4801.11 3.40604 0.698858 0
M  V30 48850 H 4800.43 3.99746 0.065456 0
M  V30 48851 H 4801.87 4.0949 1.09974 0
M  V30 48852 C 4800.33 2.81365 1.85297 0
M  V30 48853 O 4800.86 2.72761 2.94897 0
M  V30 48854 N 4799.07 2.38792 1.6561 0
M  V30 48855 H 4798.62 2.4599 0.764638 0
M  V30 48856 H 4798.57 1.99502 2.42995 0
M  V30 48857 N 4802.35 0.531045 1.48384 0
M  V30 48858 C 4803.59 0.00545803 2.03399 0
M  V30 48859 C 4803.95 -1.31894 1.40078 0
M  V30 48860 O 4803.24 -1.83899 0.537741 0
M  V30 48861 C 4803.43 -0.172616 3.56983 0
M  V30 48862 C 4803.26 1.13297 4.35194 0
M  V30 48863 C 4802.03 1.69313 4.7609 0
M  V30 48864 C 4804.23 2.04384 4.71945 0
M  V30 48865 N 4802.21 2.94149 5.38841 0
M  V30 48866 C 4803.58 3.13796 5.34726 0
M  V30 48867 C 4805.64 2.04697 4.53876 0
M  V30 48868 C 4804.34 4.23588 5.81348 0
M  V30 48869 C 4806.37 3.13484 5.0148 0
M  V30 48870 C 4805.73 4.21615 5.64287 0
M  V30 48871 H 4801.83 0.0435219 0.780788 0
M  V30 48872 H 4804.41 0.712559 1.81192 0
M  V30 48873 H 4802.58 -0.848804 3.79012 0
M  V30 48874 H 4804.32 -0.697906 3.98637 0
M  V30 48875 H 4801.07 1.23438 4.57231 0
M  V30 48876 H 4801.5 3.57709 5.74781 0
M  V30 48877 H 4806.14 1.22392 4.04697 0
M  V30 48878 H 4803.86 5.06671 6.29532 0
M  V30 48879 H 4807.44 3.14782 4.89289 0
M  V30 48880 H 4806.32 5.04405 6.00454 0
M  V30 48881 N 4803.82 -1.55335 0.266227 0
M  V30 48882 C 4805.24 -1.59356 -0.0881505 0
M  V30 48883 C 4805.44 -1.28346 -1.55337 0
M  V30 48884 O 4804.5 -1.04004 -2.30086 0
M  V30 48885 C 4805.81 -2.99408 0.278469 0
M  V30 48886 C 4807.36 -3.12195 0.224353 0
M  V30 48887 C 4807.83 -4.54498 0.565283 0
M  V30 48888 N 4809.32 -4.60311 0.516502 0
M  V30 48889 C 4810.06 -5.68431 0.753212 0
M  V30 48890 N 4809.55 -6.84734 1.05407 0
M  V30 48891 N 4811.35 -5.5794 0.68261 0
M  V30 48892 H 4803.5 -1.73759 1.22154 0
M  V30 48893 H 4805.76 -0.809804 0.49287 0
M  V30 48894 H 4805.47 -3.26905 1.29714 0
M  V30 48895 H 4805.34 -3.75229 -0.385054 0
M  V30 48896 H 4807.73 -2.84467 -0.78502 0
M  V30 48897 H 4807.81 -2.38606 0.922006 0
M  V30 48898 H 4807.45 -4.8295 1.5723 0
M  V30 48899 H 4807.38 -5.26375 -0.154063 0
M  V30 48900 H 4809.87 -3.76759 0.293483 0
M  V30 48901 H 4810.19 -7.63084 1.2216 0
M  V30 48902 H 4808.53 -6.86371 1.09175 0
M  V30 48903 H 4811.72 -4.65956 0.447473 0
M  V30 48904 H 4811.9 -6.42127 0.870474 0
M  V30 48905 N 4805.3 0.0066254 -1.57599 0
M  V30 48906 C 4806.71 0.550316 -1.78405 0
M  V30 48907 C 4807.07 1.74336 -0.900075 0
M  V30 48908 O 4806.19 2.16165 -0.100789 0
M  V30 48909 C 4806.79 1.00512 -3.23547 0
M  V30 48910 C 4805.34 1.49416 -3.45473 0
M  V30 48911 C 4804.49 0.442348 -2.73749 0
M  V30 48912 H 4807.44 -0.219563 -1.57174 0
M  V30 48913 H 4807.46 1.87146 -3.31295 0
M  V30 48914 H 4806.98 0.136598 -3.8786 0
M  V30 48915 H 4805.08 2.3838 -2.86367 0
M  V30 48916 H 4805.19 1.52619 -4.54141 0
M  V30 48917 H 4803.55 0.902494 -2.38175 0
M  V30 48918 H 4804.34 -0.417093 -3.40757 0
M  V30 48919 N 4806.78 1.55106 0.279278 0
M  V30 48920 C 4807.73 1.88337 1.36498 0
M  V30 48921 C 4808.72 0.759096 1.5144 0
M  V30 48922 O 4809.93 0.943366 1.53299 0
M  V30 48923 H 4806.3 0.597676 0.456385 0
M  V30 48924 H 4808.28 2.79045 1.05718 0
M  V30 48925 C 4807.02 2.16638 2.71962 0
M  V30 48926 H 4806.35 3.02633 2.61254 0
M  V30 48927 H 4807.79 2.43815 3.46886 0
M  V30 48928 C 4806.25 0.971921 3.22576 0
M  V30 48929 O 4806.78 0.203369 4.01185 0
M  V30 48930 N 4804.98 0.771336 2.80176 0
M  V30 48931 H 4804.53 1.398 2.16365 0
M  V30 48932 H 4804.49 -0.0262562 3.14389 0
M  V30 48933 N 4808.26 -0.543502 1.47932 0
M  V30 48934 C 4809.19 -1.66494 1.57519 0
M  V30 48935 C 4810.2 -1.56155 0.460387 0
M  V30 48936 O 4811.39 -1.62862 0.73063 0
M  V30 48937 C 4808.49 -3.05058 1.47625 0
M  V30 48938 C 4807.67 -3.41015 2.73912 0
M  V30 48939 C 4806.73 -4.588 2.57662 0
M  V30 48940 O 4805.75 -4.62695 3.31515 0
M  V30 48941 N 4806.95 -5.56143 1.66387 0
M  V30 48942 H 4809.72 -1.58712 2.54226 0
M  V30 48943 H 4807.28 -0.730466 1.44485 0
M  V30 48944 H 4809.27 -3.81707 1.34468 0
M  V30 48945 H 4807.84 -3.06992 0.589467 0
M  V30 48946 H 4807.06 -2.53677 3.01731 0
M  V30 48947 H 4808.35 -3.61818 3.57722 0
M  V30 48948 H 4807.75 -5.55764 1.05562 0
M  V30 48949 H 4806.3 -6.32065 1.59176 0
M  V30 48950 N 4809.74 -1.36293 -0.791323 0
M  V30 48951 C 4811.15 -1.27229 -1.36637 0
M  V30 48952 C 4811.5 0.0887279 -1.95999 0
M  V30 48953 O 4810.62 0.99014 -1.92419 0
M  V30 48954 C 4811.22 -2.30384 -2.48413 0
M  V30 48955 C 4809.78 -2.25014 -3.01738 0
M  V30 48956 C 4808.93 -2.15266 -1.74803 0
M  V30 48957 H 4811.88 -1.472 -0.593121 0
M  V30 48958 H 4811.9 -1.93916 -3.27378 0
M  V30 48959 H 4811.41 -3.2943 -2.05177 0
M  V30 48960 H 4809.51 -1.29429 -3.49398 0
M  V30 48961 H 4809.62 -3.17623 -3.58682 0
M  V30 48962 H 4807.99 -1.61489 -1.9696 0
M  V30 48963 H 4808.77 -3.16196 -1.33698 0
M  V30 48964 N 4811.22 1.01526 -1.20541 0
M  V30 48965 C 4812.49 1.72324 -0.925403 0
M  V30 48966 C 4812.87 2.03385 0.565475 0
M  V30 48967 O 4812.22 1.69939 1.52751 0
M  V30 48968 C 4812.43 2.99014 -1.79977 0
M  V30 48969 C 4813.78 3.72251 -2.04241 0
M  V30 48970 O 4814.8 3.08972 -1.77241 0
M  V30 48971 O 4813.66 4.86044 -2.49847 0
M  V30 48972 H 4810.76 0.751087 -0.346118 0
M  V30 48973 H 4813.3 1.07362 -1.31421 0
M  V30 48974 H 4812.07 2.72392 -2.80924 0
M  V30 48975 H 4811.7 3.71716 -1.41112 0
M  V30 48976 N 4812.69 1.01151 1.20856 0
M  V30 48977 C 4813.92 0.716766 1.94621 0
M  V30 48978 C 4814.34 -0.715354 1.73966 0
M  V30 48979 O 4813.7 -1.49154 1.03067 0
M  V30 48980 C 4813.75 1.05142 3.44931 0
M  V30 48981 O 4812.85 0.160276 4.12088 0
M  V30 48982 H 4812.19 0.266426 0.608205 0
M  V30 48983 H 4814.72 1.35352 1.53431 0
M  V30 48984 H 4814.73 1.001 3.9553 0
M  V30 48985 H 4813.41 2.09488 3.59288 0
M  V30 48986 H 4811.99 0.267788 3.71937 0
M  V30 48987 N 4814.17 -1.36538 0.787088 0
M  V30 48988 C 4815.42 -1.99303 0.358411 0
M  V30 48989 C 4815.75 -1.62471 -1.06927 0
M  V30 48990 O 4815 -0.87008 -1.75294 0
M  V30 48991 C 4815.3 -3.54341 0.466609 0
M  V30 48992 C 4814.97 -4.10986 1.85476 0
M  V30 48993 C 4813.63 -4.26169 2.23458 0
M  V30 48994 C 4815.98 -4.41885 2.76382 0
M  V30 48995 C 4813.31 -4.69561 3.51752 0
M  V30 48996 C 4815.66 -4.86708 4.04101 0
M  V30 48997 C 4814.32 -5.00097 4.42108 0
M  V30 48998 H 4813.59 -0.729301 0.131152 0
M  V30 48999 H 4816.24 -1.63065 1.0041 0
M  V30 49000 H 4814.55 -3.90919 -0.262582 0
M  V30 49001 H 4816.24 -4.00832 0.115994 0
M  V30 49002 H 4812.83 -3.99606 1.54961 0
M  V30 49003 H 4817.02 -4.29726 2.48292 0
M  V30 49004 H 4812.27 -4.78114 3.81074 0
M  V30 49005 H 4816.45 -5.09581 4.74658 0
M  V30 49006 H 4814.07 -5.33478 5.41576 0
M  V30 49007 N 4815.65 -0.538906 -1.481 0
M  V30 49008 C 4816.9 -0.00807299 -2.02498 0
M  V30 49009 C 4817.22 1.33432 -1.41514 0
M  V30 49010 O 4816.48 1.87707 -0.553573 0
M  V30 49011 C 4816.78 0.153682 -3.57069 0
M  V30 49012 C 4816.44 -1.11549 -4.36884 0
M  V30 49013 C 4815.11 -1.4633 -4.58411 0
M  V30 49014 C 4817.46 -1.95735 -4.8305 0
M  V30 49015 C 4814.79 -2.65178 -5.23352 0
M  V30 49016 C 4817.14 -3.1377 -5.49301 0
M  V30 49017 C 4815.8 -3.48886 -5.69065 0
M  V30 49018 H 4815.07 -0.00295412 -0.740994 0
M  V30 49019 H 4817.72 -0.706731 -1.77982 0
M  V30 49020 H 4816.02 0.935175 -3.80476 0
M  V30 49021 H 4817.72 0.579468 -3.96791 0
M  V30 49022 H 4814.31 -0.834632 -4.20395 0
M  V30 49023 H 4818.5 -1.70174 -4.66213 0
M  V30 49024 H 4813.75 -2.92577 -5.36851 0
M  V30 49025 H 4817.93 -3.79303 -5.8404 0
M  V30 49026 H 4815.55 -4.41076 -6.19158 0
M  V30 49027 N 4817.13 1.55192 -0.274461 0
M  V30 49028 C 4818.35 2.04447 0.348752 0
M  V30 49029 C 4818.78 1.15155 1.48731 0
M  V30 49030 O 4818.14 0.150016 1.80678 0
M  V30 49031 C 4818.18 3.51434 0.807885 0
M  V30 49032 O 4817.29 3.65232 1.91519 0
M  V30 49033 H 4816.63 0.660063 0.0722044 0
M  V30 49034 H 4819.16 2.00479 -0.408569 0
M  V30 49035 H 4819.17 3.92785 1.10382 0
M  V30 49036 H 4817.84 4.15892 -0.0251327 0
M  V30 49037 H 4816.42 3.35784 1.62184 0
M  V30 49038 N 4818.61 0.00173253 1.576 0
M  V30 49039 C 4819.57 -0.973973 2.07476 0
M  V30 49040 C 4820.57 -1.2714 0.984488 0
M  V30 49041 O 4821.76 -1.21629 1.24708 0
M  V30 49042 C 4818.89 -2.2984 2.51767 0
M  V30 49043 H 4820.08 -0.542517 2.94952 0
M  V30 49044 H 4817.64 -0.245774 1.54356 0
M  V30 49045 H 4818.37 -2.77671 1.67539 0
M  V30 49046 H 4818.16 -2.09572 3.31394 0
M  V30 49047 H 4819.65 -2.9983 2.90675 0
M  V30 49048 N 4820.08 -1.55252 -0.271048 0
M  V30 49049 C 4821.33 -1.75602 -1.00041 0
M  V30 49050 C 4821.65 -0.561253 -1.86748 0
M  V30 49051 O 4820.92 0.423779 -1.91261 0
M  V30 49052 H 4819.5 -0.647575 -0.372364 0
M  V30 49053 H 4822.17 -1.92657 -0.294809 0
M  V30 49054 H 4821.26 -2.65772 -1.63621 0
M  V30 49055 N 4821.56 0.535649 -1.48218 0
M  V30 49056 C 4822.47 1.66779 -1.64991 0
M  V30 49057 C 4823.49 1.65652 -0.532473 0
M  V30 49058 O 4824.66 1.84707 -0.802815 0
M  V30 49059 C 4821.73 3.03254 -1.68042 0
M  V30 49060 C 4820.79 3.1528 -2.91371 0
M  V30 49061 C 4820.02 4.45244 -2.94267 0
M  V30 49062 O 4820.25 5.32004 -2.05738 0
M  V30 49063 O 4819.18 4.61516 -3.86376 0
M  V30 49064 H 4823.01 1.55567 -2.60831 0
M  V30 49065 H 4820.59 0.708103 -1.31553 0
M  V30 49066 H 4822.47 3.8443 -1.72603 0
M  V30 49067 H 4821.15 3.14802 -0.753739 0
M  V30 49068 H 4820.06 2.3342 -2.92346 0
M  V30 49069 H 4821.39 3.08645 -3.83405 0
M  V30 49070 N 4823.04 1.36711 0.784084 0
M  V30 49071 C 4824.32 1.21781 1.53064 0
M  V30 49072 C 4824.7 -0.193802 2.10209 0
M  V30 49073 O 4824.05 -1.20005 1.9445 0
M  V30 49074 C 4824.26 2.30404 2.62135 0
M  V30 49075 C 4825.6 2.67337 3.29873 0
M  V30 49076 O 4826.63 2.29488 2.72422 0
M  V30 49077 O 4825.49 3.325 4.33712 0
M  V30 49078 H 4822.58 0.474483 0.677344 0
M  V30 49079 H 4825.13 1.48457 0.822108 0
M  V30 49080 H 4823.9 3.24988 2.17942 0
M  V30 49081 H 4823.52 2.05124 3.40602 0
M  V30 49082 N 4824.52 -1.00885 1.21078 0
M  V30 49083 C 4825.76 -1.76138 1.03705 0
M  V30 49084 C 4826.12 -1.87293 -0.422521 0
M  V30 49085 O 4827.32 -2.5907 -0.716661 0
M  V30 49086 C 4825.59 -3.13799 1.71071 0
M  V30 49087 S 4827.15 -4.0499 1.68903 0
M  V30 49088 H 4823.97 -0.6061 0.371704 0
M  V30 49089 H 4826.57 -1.20739 1.53761 0
M  V30 49090 H 4825.28 -3.03311 2.76461 0
M  V30 49091 H 4824.81 -3.74272 1.21179 0
M  V30 49092 H 4826.82 -4.9084 0.727384 0
M  V30 49093 N 4826 -1.01791 -1.20318 0
M  V30 49094 C 4827.24 -0.709052 -1.90001 0
M  V30 49095 C 4827.58 0.759509 -1.78732 0
M  V30 49096 O 4826.85 1.55194 -1.1724 0
M  V30 49097 C 4827.13 -1.14702 -3.41344 0
M  V30 49098 C 4826.99 -2.67599 -3.61539 0
M  V30 49099 C 4828.31 -0.719303 -4.34182 0
M  V30 49100 H 4825.42 -0.259059 -0.689969 0
M  V30 49101 H 4828.07 -1.26589 -1.41687 0
M  V30 49102 H 4826.22 -0.673262 -3.82622 0
M  V30 49103 H 4827.89 -3.22837 -3.29505 0
M  V30 49104 H 4826.13 -3.0851 -3.04965 0
M  V30 49105 H 4826.8 -2.93298 -4.67633 0
M  V30 49106 H 4829.28 -1.12661 -4.00558 0
M  V30 49107 H 4828.15 -1.05377 -5.3869 0
M  V30 49108 H 4828.42 0.378957 -4.40473 0
M  V30 49109 N 4827.47 1.36119 -0.794317 0
M  V30 49110 C 4828.72 1.99405 -0.369522 0
M  V30 49111 C 4829.05 1.6289 1.05738 0
M  V30 49112 O 4828.33 0.886114 1.73142 0
M  V30 49113 C 4828.61 3.56044 -0.538958 0
M  V30 49114 C 4828.46 4.02397 -2.0099 0
M  V30 49115 C 4829.78 4.40079 0.0429812 0
M  V30 49116 H 4826.9 0.724392 -0.135738 0
M  V30 49117 H 4829.54 1.61458 -1.00157 0
M  V30 49118 H 4827.69 3.885 -0.000907581 0
M  V30 49119 H 4829.37 3.80406 -2.60939 0
M  V30 49120 H 4827.61 3.53756 -2.51075 0
M  V30 49121 H 4828.28 5.11337 -2.0794 0
M  V30 49122 H 4830.76 4.14012 -0.416374 0
M  V30 49123 H 4829.63 5.48798 -0.105567 0
M  V30 49124 H 4829.89 4.27268 1.13556 0
M  V30 49125 N 4828.95 0.546753 1.47812 0
M  V30 49126 C 4830.2 0.0167206 2.01693 0
M  V30 49127 C 4830.51 -1.33716 1.42756 0
M  V30 49128 O 4831.72 -1.95651 1.88236 0
M  V30 49129 C 4830.18 -0.0205504 3.59894 0
M  V30 49130 C 4829.78 1.32945 4.2782 0
M  V30 49131 C 4831.53 -0.498526 4.21563 0
M  V30 49132 C 4829.44 1.25185 5.77999 0
M  V30 49133 H 4828.37 0.00248061 0.753996 0
M  V30 49134 H 4831.02 0.693044 1.69909 0
M  V30 49135 H 4829.4 -0.762303 3.88594 0
M  V30 49136 H 4830.57 2.08809 4.10774 0
M  V30 49137 H 4828.89 1.74451 3.78095 0
M  V30 49138 H 4831.48 -0.574813 5.31601 0
M  V30 49139 H 4831.83 -1.50816 3.88021 0
M  V30 49140 H 4832.36 0.188049 3.97355 0
M  V30 49141 H 4829.1 2.23716 6.16142 0
M  V30 49142 H 4828.62 0.53485 5.97411 0
M  V30 49143 H 4830.3 0.949524 6.39995 0
M  V30 49144 N 4830.43 -1.55044 0.282687 0
M  V30 49145 C 4831.68 -1.98939 -0.332598 0
M  V30 49146 C 4831.99 -1.1746 -1.56405 0
M  V30 49147 O 4833.2 -1.51535 -2.25276 0
M  V30 49148 C 4831.65 -3.54108 -0.643101 0
M  V30 49149 C 4831.26 -4.44372 0.568971 0
M  V30 49150 C 4833.01 -4.06573 -1.22059 0
M  V30 49151 C 4830.91 -5.90942 0.232634 0
M  V30 49152 H 4829.84 -0.743047 -0.128049 0
M  V30 49153 H 4832.49 -1.7934 0.388527 0
M  V30 49154 H 4830.88 -3.69537 -1.42333 0
M  V30 49155 H 4832.05 -4.40714 1.34566 0
M  V30 49156 H 4830.37 -4.02581 1.06383 0
M  V30 49157 H 4832.96 -5.13631 -1.48617 0
M  V30 49158 H 4833.31 -3.56064 -2.15694 0
M  V30 49159 H 4833.84 -3.94614 -0.502483 0
M  V30 49160 H 4830.58 -6.45563 1.13706 0
M  V30 49161 H 4830.1 -5.97652 -0.507147 0
M  V30 49162 H 4831.78 -6.4677 -0.172429 0
M  V30 49163 N 4831.91 -0.0100904 -1.57597 0
M  V30 49164 C 4833.15 0.667943 -1.9212 0
M  V30 49165 C 4833.51 1.70818 -0.885388 0
M  V30 49166 O 4832.8 1.91333 0.10112 0
M  V30 49167 C 4833 1.34423 -3.31158 0
M  V30 49168 C 4832.83 0.371018 -4.48167 0
M  V30 49169 C 4831.6 -0.0222462 -5.05295 0
M  V30 49170 C 4833.79 -0.366912 -5.1299 0
M  V30 49171 N 4831.78 -0.992613 -6.05822 0
M  V30 49172 C 4833.15 -1.19163 -6.08441 0
M  V30 49173 C 4835.2 -0.429663 -4.96043 0
M  V30 49174 C 4833.9 -2.07341 -6.88769 0
M  V30 49175 C 4835.93 -1.2987 -5.76964 0
M  V30 49176 C 4835.29 -2.11125 -6.72016 0
M  V30 49177 H 4831.39 0.21731 -0.751199 0
M  V30 49178 H 4833.98 -0.0728059 -1.94564 0
M  V30 49179 H 4832.15 2.05521 -3.29569 0
M  V30 49180 H 4833.88 1.97776 -3.53082 0
M  V30 49181 H 4830.63 0.348243 -4.72318 0
M  V30 49182 H 4831.06 -1.47347 -6.60771 0
M  V30 49183 H 4835.7 0.184271 -4.22398 0
M  V30 49184 H 4833.42 -2.69798 -7.61731 0
M  V30 49185 H 4837 -1.3513 -5.6589 0
M  V30 49186 H 4835.88 -2.77283 -7.33542 0
M  V30 49187 N 4833.39 1.55393 0.262811 0
M  V30 49188 C 4834.34 1.8536 1.32762 0
M  V30 49189 C 4835.32 0.713239 1.44228 0
M  V30 49190 O 4836.51 0.974817 1.47737 0
M  V30 49191 C 4833.64 2.13791 2.68605 0
M  V30 49192 C 4832.73 3.34113 2.61208 0
M  V30 49193 N 4833.12 4.53774 2.23434 0
M  V30 49194 C 4831.42 3.36906 2.92251 0
M  V30 49195 C 4832.12 5.35885 2.26279 0
M  V30 49196 N 4831.09 4.74546 2.65155 0
M  V30 49197 H 4834.9 2.75417 1.02581 0
M  V30 49198 H 4832.41 1.55406 0.471448 0
M  V30 49199 H 4834.41 2.33419 3.45429 0
M  V30 49200 H 4833.07 1.25024 2.99665 0
M  V30 49201 H 4834.08 4.79689 1.95242 0
M  V30 49202 H 4830.75 2.58362 3.27956 0
M  V30 49203 H 4832.14 6.41584 1.99549 0
M  V30 49204 N 4834.87 -0.527781 1.485 0
M  V30 49205 C 4835.78 -1.65902 1.65873 0
M  V30 49206 C 4836.79 -1.65368 0.54125 0
M  V30 49207 O 4837.97 -1.84279 0.812599 0
M  V30 49208 C 4835.03 -3.02358 1.69648 0
M  V30 49209 C 4834.09 -3.1373 2.93039 0
M  V30 49210 C 4833.33 -4.43677 2.96625 0
M  V30 49211 O 4833.55 -5.30905 2.08556 0
M  V30 49212 O 4832.48 -4.59461 3.88818 0
M  V30 49213 H 4836.31 -1.54181 2.61652 0
M  V30 49214 H 4833.89 -0.701117 1.31927 0
M  V30 49215 H 4835.78 -3.83509 1.74639 0
M  V30 49216 H 4834.45 -3.14398 0.770423 0
M  V30 49217 H 4833.36 -2.31866 2.93579 0
M  V30 49218 H 4834.69 -3.06607 3.85036 0
M  V30 49219 N 4836.34 -1.37125 -0.776822 0
M  V30 49220 C 4837.29 -1.32556 -1.91133 0
M  V30 49221 C 4838.29 -0.215178 -1.68028 0
M  V30 49222 O 4839.49 -0.382914 -1.7588 0
M  V30 49223 H 4835.87 -0.412974 -0.628456 0
M  V30 49224 H 4837.84 -2.28339 -1.92104 0
M  V30 49225 C 4836.59 -1.14434 -3.28329 0
M  V30 49226 H 4835.91 -1.99127 -3.46682 0
M  V30 49227 H 4837.35 -1.15286 -4.08026 0
M  V30 49228 C 4835.81 0.150316 -3.36564 0
M  V30 49229 O 4836.34 1.1357 -3.85311 0
M  V30 49230 N 4834.54 0.199288 -2.89916 0
M  V30 49231 H 4834.09 -0.60323 -2.50437 0
M  V30 49232 H 4834.05 1.06516 -2.95807 0
M  V30 49233 N 4837.82 1.00242 -1.21611 0
M  V30 49234 C 4839.07 1.73713 -1.03286 0
M  V30 49235 C 4839.39 1.90103 0.434251 0
M  V30 49236 O 4838.66 1.4538 1.31306 0
M  V30 49237 H 4837.24 0.6436 -0.379195 0
M  V30 49238 H 4839.9 1.20781 -1.52964 0
M  V30 49239 H 4839 2.7353 -1.50292 0
M  V30 49240 N 4839.3 1.02428 1.19776 0
M  V30 49241 C 4840.23 0.559231 2.22273 0
M  V30 49242 C 4841.24 -0.362454 1.58714 0
M  V30 49243 O 4842.43 -0.159579 1.77785 0
M  V30 49244 C 4839.53 -0.204975 3.3828 0
M  V30 49245 C 4838.71 0.720513 4.31425 0
M  V30 49246 C 4837.77 0.00252867 5.262 0
M  V30 49247 O 4836.79 0.627577 5.6573 0
M  V30 49248 N 4837.99 -1.26977 5.66443 0
M  V30 49249 H 4840.76 1.44073 2.62798 0
M  V30 49250 H 4838.32 0.902739 1.34396 0
M  V30 49251 H 4840.31 -0.694728 3.98692 0
M  V30 49252 H 4838.88 -0.987843 2.96581 0
M  V30 49253 H 4838.1 1.39044 3.68864 0
M  V30 49254 H 4839.39 1.34968 4.90572 0
M  V30 49255 H 4838.79 -1.79839 5.36353 0
M  V30 49256 H 4837.34 -1.7041 6.29129 0
M  V30 49257 N 4840.78 -1.35696 0.801525 0
M  V30 49258 C 4842.02 -1.99642 0.389205 0
M  V30 49259 C 4842.38 -1.62451 -1.03089 0
M  V30 49260 O 4841.67 -0.875124 -1.70447 0
M  V30 49261 C 4841.87 -3.53826 0.504166 0
M  V30 49262 C 4841.69 -4.05994 1.93389 0
M  V30 49263 C 4840.46 -4.35583 2.56116 0
M  V30 49264 C 4842.66 -4.24895 2.89774 0
M  V30 49265 N 4840.64 -4.73649 3.90551 0
M  V30 49266 C 4842.02 -4.659 4.09069 0
M  V30 49267 C 4844.07 -4.07091 2.86672 0
M  V30 49268 C 4842.77 -4.90965 5.25686 0
M  V30 49269 C 4844.8 -4.3331 4.02488 0
M  V30 49270 C 4844.16 -4.74583 5.20529 0
M  V30 49271 H 4840.26 -0.758545 0.190086 0
M  V30 49272 H 4842.84 -1.6449 1.04169 0
M  V30 49273 H 4841.02 -3.8822 -0.1183 0
M  V30 49274 H 4842.75 -4.04645 0.0669217 0
M  V30 49275 H 4839.5 -4.2572 2.07507 0
M  V30 49276 H 4839.93 -4.96949 4.59751 0
M  V30 49277 H 4844.57 -3.74329 1.96565 0
M  V30 49278 H 4842.29 -5.22604 6.16369 0
M  V30 49279 H 4845.87 -4.21093 4.01462 0
M  V30 49280 H 4844.75 -4.94476 6.08657 0
M  V30 49281 N 4842.26 -0.554584 -1.4752 0
M  V30 49282 C 4843.2 0.207683 -2.31671 0
M  V30 49283 C 4844.2 0.911863 -1.42763 0
M  V30 49284 O 4845.4 0.833448 -1.59542 0
M  V30 49285 H 4841.78 0.0858463 -0.747084 0
M  V30 49286 H 4843.75 -0.521282 -2.93812 0
M  V30 49287 C 4842.5 1.22618 -3.25361 0
M  V30 49288 H 4841.82 0.693749 -3.93735 0
M  V30 49289 H 4843.26 1.73048 -3.87079 0
M  V30 49290 C 4841.72 2.27269 -2.48698 0
M  V30 49291 O 4842.25 3.34148 -2.22952 0
M  V30 49292 N 4840.46 2.01127 -2.09753 0
M  V30 49293 H 4840 1.14224 -2.30891 0
M  V30 49294 H 4839.96 2.71364 -1.58774 0
M  V30 49295 N 4843.73 1.54892 -0.290906 0
M  V30 49296 C 4845.01 1.91993 0.373922 0
M  V30 49297 C 4845.39 1.217 1.72488 0
M  V30 49298 O 4844.74 0.349249 2.25815 0
M  V30 49299 C 4844.95 3.4542 0.498581 0
M  V30 49300 C 4846.3 4.17483 0.774152 0
M  V30 49301 O 4847.32 3.514 0.582784 0
M  V30 49302 O 4846.18 5.34454 1.14111 0
M  V30 49303 H 4843.27 0.800601 0.207287 0
M  V30 49304 H 4845.82 1.66295 -0.338222 0
M  V30 49305 H 4844.59 3.88686 -0.451529 0
M  V30 49306 H 4844.21 3.77121 1.25958 0
M  V30 49307 N 4845.21 0.018448 1.57589 0
M  V30 49308 C 4846.46 -0.663476 1.9164 0
M  V30 49309 C 4846.79 -1.72389 0.894194 0
M  V30 49310 O 4846.07 -1.94316 -0.0845766 0
M  V30 49311 C 4846.35 -1.28973 3.36211 0
M  V30 49312 C 4846.2 -0.239604 4.49161 0
M  V30 49313 C 4847.52 -2.21077 3.80543 0
M  V30 49314 H 4844.64 -0.239722 0.696924 0
M  V30 49315 H 4847.28 0.0735228 1.89858 0
M  V30 49316 H 4845.43 -1.91787 3.37861 0
M  V30 49317 H 4847.1 0.390281 4.59646 0
M  V30 49318 H 4845.35 0.436124 4.31602 0
M  V30 49319 H 4846.02 -0.71719 5.47321 0
M  V30 49320 H 4848.49 -1.6826 3.80562 0
M  V30 49321 H 4847.37 -2.61852 4.82415 0
M  V30 49322 H 4847.63 -3.09753 3.15445 0
M  V30 49323 N 4846.69 -1.5553 -0.254567 0
M  V30 49324 C 4848.1 -1.67521 -0.824227 0
M  V30 49325 C 4848.45 -0.614494 -1.86329 0
M  V30 49326 O 4847.58 0.240661 -2.15058 0
M  V30 49327 C 4848.17 -3.03697 -1.50178 0
M  V30 49328 C 4846.73 -3.17653 -2.01924 0
M  V30 49329 C 4845.88 -2.63376 -0.867653 0
M  V30 49330 H 4848.83 -1.58671 -0.0305285 0
M  V30 49331 H 4848.85 -2.97715 -2.36952 0
M  V30 49332 H 4848.36 -3.80877 -0.745297 0
M  V30 49333 H 4846.46 -2.45283 -2.80477 0
M  V30 49334 H 4846.58 -4.24463 -2.22189 0
M  V30 49335 H 4844.94 -2.21003 -1.26608 0
M  V30 49336 H 4845.72 -3.43075 -0.124377 0
M  V30 49337 N 4848.17 0.519898 -1.48778 0
M  V30 49338 C 4849.41 1.28554 -1.58913 0
M  V30 49339 C 4849.77 1.90211 -0.261485 0
M  V30 49340 O 4850.97 2.67745 -0.237885 0
M  V30 49341 C 4849.24 2.33827 -2.70296 0
M  V30 49342 S 4850.8 3.19982 -3.00262 0
M  V30 49343 H 4847.62 0.43715 -0.560732 0
M  V30 49344 H 4850.22 0.59114 -1.86349 0
M  V30 49345 H 4848.93 1.87028 -3.65306 0
M  V30 49346 H 4848.46 3.07961 -2.44794 0
M  V30 49347 H 4850.47 4.34114 -2.40332 0
M  V30 49348 N 4849.65 1.37535 0.769539 0
M  V30 49349 C 4850.59 1.33567 1.90427 0
M  V30 49350 C 4851.59 0.224086 1.67911 0
M  V30 49351 O 4852.79 0.392236 1.75674 0
M  V30 49352 H 4849.17 0.416301 0.626257 0
M  V30 49353 H 4851.14 2.29354 1.9089 0
M  V30 49354 C 4849.89 1.16173 3.27718 0
M  V30 49355 H 4849.21 2.00963 3.45621 0
M  V30 49356 H 4850.65 1.17448 4.07409 0
M  V30 49357 C 4849.11 -0.132465 3.36639 0
M  V30 49358 O 4849.64 -1.11525 3.85908 0
M  V30 49359 N 4847.85 -0.183911 2.90017 0
M  V30 49360 H 4847.39 0.616503 2.50114 0
M  V30 49361 H 4847.35 -1.04946 2.96368 0
M  V30 49362 N 4851.12 -0.995956 1.22141 0
M  V30 49363 C 4852.35 -1.76805 1.0688 0
M  V30 49364 C 4852.76 -1.85266 -0.383801 0
M  V30 49365 O 4852.11 -1.31973 -1.27784 0
M  V30 49366 C 4852.17 -3.21855 1.60156 0
M  V30 49367 C 4851.83 -3.36947 3.08732 0
M  V30 49368 C 4852.83 -3.24506 4.06192 0
M  V30 49369 C 4850.51 -3.62097 3.48125 0
M  V30 49370 C 4852.51 -3.36994 5.41031 0
M  V30 49371 C 4850.19 -3.74226 4.83113 0
M  V30 49372 C 4851.19 -3.61682 5.79375 0
M  V30 49373 O 4850.88 -3.73411 7.11913 0
M  V30 49374 H 4850.61 -0.562194 0.375385 0
M  V30 49375 H 4853.17 -1.26108 1.6213 0
M  V30 49376 H 4851.4 -3.7373 0.993112 0
M  V30 49377 H 4853.09 -3.8077 1.40603 0
M  V30 49378 H 4853.85 -3.04991 3.77102 0
M  V30 49379 H 4849.73 -3.70939 2.73725 0
M  V30 49380 H 4853.27 -3.27119 6.16148 0
M  V30 49381 H 4849.17 -3.93248 5.11885 0
M  V30 49382 H 4849.94 -3.90303 7.19448 0
M  V30 49383 N 4852.6 -1.03061 -1.19231 0
M  V30 49384 C 4853.55 -0.583464 -2.20408 0
M  V30 49385 C 4854.54 0.368721 -1.56618 0
M  V30 49386 O 4855.73 0.189409 -1.75984 0
M  V30 49387 C 4852.86 0.0625327 -3.43243 0
M  V30 49388 C 4851.94 -0.912196 -4.14174 0
M  V30 49389 N 4852.33 -2.0753 -4.61264 0
M  V30 49390 C 4850.63 -0.736014 -4.39885 0
M  V30 49391 C 4851.33 -2.69021 -5.15754 0
M  V30 49392 N 4850.31 -1.96971 -5.06659 0
M  V30 49393 H 4854.11 -1.46997 -2.54498 0
M  V30 49394 H 4851.63 -0.897833 -1.35325 0
M  V30 49395 H 4853.62 0.400507 -4.14972 0
M  V30 49396 H 4852.28 0.944704 -3.10653 0
M  V30 49397 H 4853.29 -2.45464 -4.56035 0
M  V30 49398 H 4849.97 0.0969188 -4.17387 0
M  V30 49399 H 4851.36 -3.67533 -5.62467 0
M  V30 49400 N 4854.08 1.35269 -0.80871 0
M  V30 49401 C 4855.01 2.32314 -0.235063 0
M  V30 49402 C 4855.99 1.57574 0.640654 0
M  V30 49403 O 4857.18 1.85632 0.570485 0
M  V30 49404 C 4854.31 3.41803 0.615481 0
M  V30 49405 C 4853.26 4.27694 -0.161917 0
M  V30 49406 C 4852.59 5.28522 0.810463 0
M  V30 49407 C 4853.89 5.04226 -1.3621 0
M  V30 49408 H 4855.58 2.80539 -1.04585 0
M  V30 49409 H 4853.13 1.34878 -0.504363 0
M  V30 49410 H 4855.08 4.08697 1.02687 0
M  V30 49411 H 4853.8 2.92191 1.45917 0
M  V30 49412 H 4852.46 3.62382 -0.554509 0
M  V30 49413 H 4852.11 4.75177 1.64972 0
M  V30 49414 H 4851.81 5.86861 0.294616 0
M  V30 49415 H 4853.33 5.98288 1.22002 0
M  V30 49416 H 4854.75 5.64054 -1.02547 0
M  V30 49417 H 4853.15 5.72071 -1.81259 0
M  V30 49418 H 4854.22 4.34745 -2.14766 0
M  V30 49419 N 4855.56 0.5624 1.47224 0
M  V30 49420 C 4856.79 0.0453002 2.0685 0
M  V30 49421 C 4857.2 -1.25073 1.41429 0
M  V30 49422 O 4856.56 -1.75154 0.512574 0
M  V30 49423 C 4856.61 -0.148547 3.61195 0
M  V30 49424 O 4856.33 1.09617 4.24165 0
M  V30 49425 C 4857.83 -0.702334 4.37701 0
M  V30 49426 H 4855.05 0.048201 0.669267 0
M  V30 49427 H 4857.6 0.777289 1.89152 0
M  V30 49428 H 4855.75 -0.830684 3.78389 0
M  V30 49429 H 4856.16 0.897163 5.1677 0
M  V30 49430 H 4857.64 -0.787238 5.46358 0
M  V30 49431 H 4858.12 -1.71479 4.04341 0
M  V30 49432 H 4858.72 -0.0557277 4.25263 0
M  V30 49433 N 4857.04 -1.54735 0.299116 0
M  V30 49434 C 4858.27 -2.04216 -0.312921 0
M  V30 49435 C 4858.67 -1.17602 -1.48211 0
M  V30 49436 O 4858.02 -0.193899 -1.82674 0
M  V30 49437 C 4858.08 -3.49699 -0.833739 0
M  V30 49438 C 4857.74 -4.56518 0.20993 0
M  V30 49439 C 4858.74 -5.09438 1.03774 0
M  V30 49440 C 4856.43 -5.01072 0.351086 0
M  V30 49441 C 4858.42 -6.05452 1.99266 0
M  V30 49442 C 4856.11 -5.96906 1.30945 0
M  V30 49443 C 4857.1 -6.48979 2.12872 0
M  V30 49444 O 4856.79 -7.42936 3.07085 0
M  V30 49445 H 4856.52 -0.672131 -0.0722258 0
M  V30 49446 H 4859.08 -2.00717 0.436114 0
M  V30 49447 H 4857.31 -3.50516 -1.63327 0
M  V30 49448 H 4859 -3.82386 -1.36146 0
M  V30 49449 H 4859.76 -4.75813 0.939543 0
M  V30 49450 H 4855.64 -4.60169 -0.276651 0
M  V30 49451 H 4859.19 -6.46022 2.63252 0
M  V30 49452 H 4855.08 -6.29948 1.40837 0
M  V30 49453 H 4855.85 -7.60732 3.02042 0
M  V30 49454 N 4858.51 -0.0268051 -1.57577 0
M  V30 49455 C 4859.74 0.662592 -1.96003 0
M  V30 49456 C 4860.16 1.65796 -0.903176 0
M  V30 49457 O 4859.51 1.82136 0.115253 0
M  V30 49458 C 4859.57 1.37101 -3.34493 0
M  V30 49459 O 4859.29 0.415529 -4.36125 0
M  V30 49460 C 4860.79 2.15244 -3.87537 0
M  V30 49461 H 4858.01 0.182848 -0.645606 0
M  V30 49462 H 4860.55 -0.0858834 -2.0432 0
M  V30 49463 H 4858.71 2.0709 -3.27403 0
M  V30 49464 H 4859.12 0.918314 -5.16398 0
M  V30 49465 H 4860.59 2.60268 -4.8679 0
M  V30 49466 H 4861.07 2.99051 -3.2166 0
M  V30 49467 H 4861.68 1.50217 -3.97888 0
M  V30 49468 N 4859.99 1.55663 0.246315 0
M  V30 49469 C 4861.23 1.79286 0.981622 0
M  V30 49470 C 4861.6 0.596421 1.82502 0
M  V30 49471 O 4862.8 0.711433 2.59214 0
M  V30 49472 C 4861.07 3.07654 1.81889 0
M  V30 49473 S 4862.63 3.525 2.61322 0
M  V30 49474 H 4859.45 0.629687 0.330174 0
M  V30 49475 H 4862.05 1.93902 0.24943 0
M  V30 49476 H 4860.75 3.92799 1.18901 0
M  V30 49477 H 4860.28 2.95777 2.59383 0
M  V30 49478 H 4862.3 3.13879 3.8431 0
M  V30 49479 N 4861.47 -0.512001 1.49051 0
M  V30 49480 C 4862.42 -1.61474 1.64908 0
M  V30 49481 C 4863.39 -1.58685 0.490729 0
M  V30 49482 O 4864.57 -1.76839 0.716422 0
M  V30 49483 C 4861.71 -2.9967 1.71149 0
M  V30 49484 C 4860.83 -3.12558 2.98214 0
M  V30 49485 C 4859.96 -4.4142 2.95503 0
M  V30 49486 C 4859 -4.47901 4.17194 0
M  V30 49487 N 4858.14 -5.68176 4.12457 0
M  V30 49488 H 4862.98 -1.47262 2.59071 0
M  V30 49489 H 4860.51 -0.716668 1.28461 0
M  V30 49490 H 4862.47 -3.79755 1.72749 0
M  V30 49491 H 4861.1 -3.12611 0.804618 0
M  V30 49492 H 4860.15 -2.25607 3.06277 0
M  V30 49493 H 4861.47 -3.13207 3.88205 0
M  V30 49494 H 4860.62 -5.29814 2.95604 0
M  V30 49495 H 4859.36 -4.43319 2.03272 0
M  V30 49496 H 4858.36 -3.5791 4.17349 0
M  V30 49497 H 4859.59 -4.47726 5.10606 0
M  V30 49498 H 4857.53 -5.70938 3.23056 0
M  V30 49499 H 4857.45 -5.70395 4.96171 0
M  V30 49500 H 4858.72 -6.58808 4.16644 0
M  V30 49501 N 4862.95 -1.37941 -0.762235 0
M  V30 49502 C 4863.9 -1.34474 -1.87578 0
M  V30 49503 C 4864.87 -0.208691 -1.64784 0
M  V30 49504 O 4866.05 -0.39956 -1.86569 0
M  V30 49505 C 4863.19 -1.16703 -3.24768 0
M  V30 49506 C 4862.3 -2.3962 -3.59452 0
M  V30 49507 C 4861.44 -2.14648 -4.85901 0
M  V30 49508 C 4860.48 -3.33382 -5.13345 0
M  V30 49509 N 4859.61 -3.079 -6.30985 0
M  V30 49510 H 4864.45 -2.29675 -1.89877 0
M  V30 49511 H 4861.99 -1.14119 -0.928179 0
M  V30 49512 H 4863.95 -1.04419 -4.03921 0
M  V30 49513 H 4862.58 -0.251446 -3.21819 0
M  V30 49514 H 4861.63 -2.6261 -2.7521 0
M  V30 49515 H 4862.94 -3.28141 -3.75666 0
M  V30 49516 H 4862.1 -1.9945 -5.72979 0
M  V30 49517 H 4860.84 -1.2348 -4.71809 0
M  V30 49518 H 4859.84 -3.49109 -4.24739 0
M  V30 49519 H 4861.07 -4.25414 -5.29339 0
M  V30 49520 H 4859.01 -2.1937 -6.18234 0
M  V30 49521 H 4858.93 -3.89966 -6.47659 0
M  V30 49522 H 4860.2 -2.96338 -7.20974 0
M  V30 49523 N 4864.43 0.989464 -1.22668 0
M  V30 49524 C 4865.68 1.72608 -1.05123 0
M  V30 49525 C 4866 1.90553 0.414064 0
M  V30 49526 O 4865.27 1.46765 1.29757 0
M  V30 49527 H 4863.85 0.639541 -0.386 0
M  V30 49528 H 4866.51 1.19152 -1.54236 0
M  V30 49529 H 4865.6 2.71921 -1.53185 0
M  V30 49530 N 4865.91 1.03692 1.18683 0
M  V30 49531 C 4867.13 0.757986 1.92515 0
M  V30 49532 C 4867.55 -0.684337 1.75961 0
M  V30 49533 O 4866.91 -1.46613 1.08678 0
M  V30 49534 C 4866.96 1.10997 3.44038 0
M  V30 49535 O 4866.68 2.49566 3.60067 0
M  V30 49536 C 4868.18 0.854996 4.34977 0
M  V30 49537 H 4865.4 0.27672 0.611283 0
M  V30 49538 H 4867.94 1.38357 1.5059 0
M  V30 49539 H 4866.1 0.529414 3.83766 0
M  V30 49540 H 4866.51 2.62926 4.5384 0
M  V30 49541 H 4867.99 1.15117 5.39863 0
M  V30 49542 H 4868.46 -0.210353 4.38696 0
M  V30 49543 H 4869.07 1.41867 4.00941 0
M  V30 49544 N 4867.38 -1.34838 0.815872 0
M  V30 49545 C 4868.63 -1.98792 0.401199 0
M  V30 49546 C 4868.96 -1.64552 -1.03133 0
M  V30 49547 O 4868.24 -0.913547 -1.71711 0
M  V30 49548 C 4868.52 -3.55141 0.595534 0
M  V30 49549 C 4868.37 -3.99148 2.07366 0
M  V30 49550 C 4869.69 -4.40092 0.027037 0
M  V30 49551 H 4866.81 -0.722141 0.147245 0
M  V30 49552 H 4869.45 -1.59844 1.02713 0
M  V30 49553 H 4867.6 -3.88449 0.0627144 0
M  V30 49554 H 4869.28 -3.76206 2.66958 0
M  V30 49555 H 4867.52 -3.49717 2.56672 0
M  V30 49556 H 4868.19 -5.07964 2.16048 0
M  V30 49557 H 4870.67 -4.13297 0.482187 0
M  V30 49558 H 4869.54 -5.48561 0.192863 0
M  V30 49559 H 4869.8 -4.2902 -1.06744 0
M  V30 49560 N 4868.86 -0.570199 -1.46923 0
M  V30 49561 C 4869.82 0.159852 -2.28642 0
M  V30 49562 C 4870.82 0.83059 -1.37688 0
M  V30 49563 O 4872.01 0.684459 -1.6019 0
M  V30 49564 C 4869.15 1.23529 -3.17732 0
M  V30 49565 H 4870.34 -0.558139 -2.94661 0
M  V30 49566 H 4867.89 -0.327657 -1.52827 0
M  V30 49567 H 4868.63 1.98526 -2.56433 0
M  V30 49568 H 4868.41 0.75899 -3.84684 0
M  V30 49569 H 4869.9 1.74768 -3.7927 0
M  V30 49570 N 4870.34 1.54575 -0.307318 0
M  V30 49571 C 4871.58 2.02173 0.300891 0
M  V30 49572 C 4871.94 1.19087 1.50607 0
M  V30 49573 O 4873.14 1.56412 2.18606 0
M  V30 49574 C 4871.42 3.51578 0.642467 0
M  V30 49575 S 4872.97 4.21131 1.23264 0
M  V30 49576 H 4869.79 0.705024 0.0919893 0
M  V30 49577 H 4872.39 1.90561 -0.436661 0
M  V30 49578 H 4871.1 4.0968 -0.243045 0
M  V30 49579 H 4870.63 3.67239 1.41065 0
M  V30 49580 H 4872.64 4.27435 2.52019 0
M  V30 49581 N 4871.82 0.0351614 1.57561 0
M  V30 49582 C 4873.07 -0.640893 1.91669 0
M  V30 49583 C 4873.39 -1.7232 0.912742 0
M  V30 49584 O 4872.66 -1.95849 -0.0448401 0
M  V30 49585 H 4871.24 -0.239718 0.707492 0
M  V30 49586 H 4873.9 0.0843895 1.94717 0
M  V30 49587 H 4872.99 -1.08977 2.92456 0
M  V30 49588 N 4873.3 -1.55792 -0.238056 0
M  V30 49589 C 4874.23 -1.87517 -1.31795 0
M  V30 49590 C 4875.24 -0.762104 -1.4386 0
M  V30 49591 O 4876.43 -1.04029 -1.45052 0
M  V30 49592 C 4873.53 -2.05412 -2.69554 0
M  V30 49593 C 4872.7 -3.3633 -2.79645 0
M  V30 49594 C 4871.76 -3.43858 -3.98306 0
M  V30 49595 O 4870.79 -4.17008 -3.87418 0
M  V30 49596 N 4871.99 -2.73795 -5.11876 0
M  V30 49597 H 4874.75 -2.80738 -1.04912 0
M  V30 49598 H 4872.32 -1.56136 -0.428141 0
M  V30 49599 H 4874.31 -2.07781 -3.47288 0
M  V30 49600 H 4872.88 -1.18895 -2.89107 0
M  V30 49601 H 4872.1 -3.46201 -1.88516 0
M  V30 49602 H 4873.39 -4.22604 -2.83343 0
M  V30 49603 H 4872.78 -2.14112 -5.23615 0
M  V30 49604 H 4871.34 -2.81846 -5.87713 0
M  V30 49605 N 4874.77 0.504089 -1.49321 0
M  V30 49606 C 4876.18 1.08567 -1.51889 0
M  V30 49607 C 4876.54 1.93841 -0.303323 0
M  V30 49608 O 4875.66 2.08282 0.587166 0
M  V30 49609 C 4876.26 1.97564 -2.75234 0
M  V30 49610 C 4874.81 2.5089 -2.8059 0
M  V30 49611 C 4873.96 1.28439 -2.45762 0
M  V30 49612 H 4876.91 0.288139 -1.56062 0
M  V30 49613 H 4876.93 2.8221 -2.55221 0
M  V30 49614 H 4876.45 1.35473 -3.63688 0
M  V30 49615 H 4874.55 3.16629 -1.96409 0
M  V30 49616 H 4874.66 2.88254 -3.82683 0
M  V30 49617 H 4873.02 1.60861 -1.97474 0
M  V30 49618 H 4873.81 0.680602 -3.36486 0
M  V30 49619 N 4876.25 1.38343 0.754909 0
M  V30 49620 C 4877.66 1.30807 1.33215 0
M  V30 49621 C 4878.01 -0.036731 1.96166 0
M  V30 49622 O 4877.14 -0.938775 1.94977 0
M  V30 49623 C 4877.73 2.36889 2.42217 0
M  V30 49624 C 4876.29 2.32935 2.95666 0
M  V30 49625 C 4875.44 2.19825 1.69034 0
M  V30 49626 H 4878.39 1.48721 0.553885 0
M  V30 49627 H 4878.41 2.02528 3.22122 0
M  V30 49628 H 4877.92 3.34754 1.96371 0
M  V30 49629 H 4876.02 1.38647 3.45844 0
M  V30 49630 H 4876.14 3.27021 3.50135 0
M  V30 49631 H 4874.5 1.66654 1.9261 0
M  V30 49632 H 4875.28 3.19629 1.25268 0
M  V30 49633 N 4877.73 -0.982945 1.23191 0
M  V30 49634 C 4878.98 -1.72644 1.06404 0
M  V30 49635 C 4879.31 -1.90068 -0.398494 0
M  V30 49636 O 4878.58 -1.45109 -1.29513 0
M  V30 49637 C 4878.87 -3.12621 1.78718 0
M  V30 49638 C 4878.72 -3.02784 3.32629 0
M  V30 49639 C 4880.04 -4.11991 1.54762 0
M  V30 49640 H 4877.16 -0.626635 0.38794 0
M  V30 49641 H 4879.8 -1.1445 1.51662 0
M  V30 49642 H 4877.95 -3.62303 1.40246 0
M  V30 49643 H 4879.62 -2.60646 3.80607 0
M  V30 49644 H 4877.86 -2.3935 3.61793 0
M  V30 49645 H 4878.54 -4.0188 3.78414 0
M  V30 49646 H 4881.01 -3.71107 1.88199 0
M  V30 49647 H 4879.89 -5.0803 2.07839 0
M  V30 49648 H 4880.15 -4.3946 0.482403 0
M  V30 49649 N 4879.21 -1.0432 -1.18132 0
M  V30 49650 C 4880.45 -0.749194 -1.88454 0
M  V30 49651 C 4880.79 0.721427 -1.80303 0
M  V30 49652 O 4880.06 1.52672 -1.20505 0
M  V30 49653 C 4880.35 -1.21917 -3.38834 0
M  V30 49654 C 4880.2 -2.75208 -3.55782 0
M  V30 49655 C 4881.52 -0.811237 -4.32559 0
M  V30 49656 H 4878.64 -0.273636 -0.684319 0
M  V30 49657 H 4881.28 -1.29566 -1.3897 0
M  V30 49658 H 4879.43 -0.754271 -3.81108 0
M  V30 49659 H 4881.1 -3.29754 -3.22583 0
M  V30 49660 H 4879.34 -3.1491 -2.98353 0
M  V30 49661 H 4880.01 -3.03151 -4.61306 0
M  V30 49662 H 4882.49 -1.21132 -3.98078 0
M  V30 49663 H 4881.37 -1.16779 -5.36334 0
M  V30 49664 H 4881.63 0.285441 -4.41178 0
M  V30 49665 N 4880.69 1.34403 -0.823012 0
M  V30 49666 C 4881.6 2.33297 -0.24692 0
M  V30 49667 C 4882.61 1.62627 0.61874 0
M  V30 49668 O 4883.79 1.94393 0.526617 0
M  V30 49669 C 4880.85 3.41787 0.581611 0
M  V30 49670 C 4879.91 4.28205 -0.30646 0
M  V30 49671 C 4879.15 5.31513 0.482623 0
M  V30 49672 O 4879.37 5.43979 1.71588 0
M  V30 49673 O 4878.3 6.01748 -0.135095 0
M  V30 49674 H 4882.13 2.84398 -1.06544 0
M  V30 49675 H 4879.72 1.37464 -0.585156 0
M  V30 49676 H 4881.6 4.08032 1.05298 0
M  V30 49677 H 4880.27 2.9293 1.37746 0
M  V30 49678 H 4879.18 3.64882 -0.825327 0
M  V30 49679 H 4880.51 4.80503 -1.06666 0
M  V30 49680 N 4882.16 0.577983 1.46619 0
M  V30 49681 C 4883.11 -0.1708 2.31972 0
M  V30 49682 C 4884.11 -0.889035 1.44196 0
M  V30 49683 O 4885.31 -0.807961 1.60848 0
M  V30 49684 H 4881.69 -0.07395 0.748355 0
M  V30 49685 H 4883.66 0.567959 2.92945 0
M  V30 49686 C 4882.41 -1.17426 3.27271 0
M  V30 49687 H 4881.73 -0.631021 3.94789 0
M  V30 49688 H 4883.17 -1.66868 3.89783 0
M  V30 49689 C 4881.63 -2.23283 2.52282 0
M  V30 49690 O 4882.16 -3.30559 2.2824 0
M  V30 49691 N 4880.37 -1.97764 2.12926 0
M  V30 49692 H 4879.91 -1.10536 2.32679 0
M  V30 49693 H 4879.87 -2.68803 1.63071 0
M  V30 49694 N 4883.64 -1.54409 0.315511 0
M  V30 49695 C 4884.61 -2.22715 -0.541342 0
M  V30 49696 C 4885.61 -1.21793 -1.0499 0
M  V30 49697 O 4886.8 -1.46429 -0.943616 0
M  V30 49698 C 4883.93 -2.92491 -1.75105 0
M  V30 49699 H 4885.12 -2.99848 0.0556563 0
M  V30 49700 H 4882.67 -1.56158 0.0665002 0
M  V30 49701 H 4883.41 -2.19474 -2.3875 0
M  V30 49702 H 4883.19 -3.66488 -1.39389 0
M  V30 49703 H 4884.68 -3.44556 -2.35947 0
M  V30 49704 N 4885.12 -0.0435168 -1.5754 0
M  V30 49705 C 4886.07 0.933485 -2.1108 0
M  V30 49706 C 4887.04 1.31379 -1.0163 0
M  V30 49707 O 4888.22 1.4046 -1.29134 0
M  V30 49708 C 4885.36 2.20568 -2.65412 0
M  V30 49709 C 4884.48 1.88055 -3.88921 0
M  V30 49710 C 4883.61 3.09676 -4.31595 0
M  V30 49711 C 4882.65 2.73048 -5.47824 0
M  V30 49712 N 4881.79 3.87339 -5.85588 0
M  V30 49713 H 4886.63 0.470014 -2.9427 0
M  V30 49714 H 4884.16 0.220382 -1.4544 0
M  V30 49715 H 4886.12 2.95001 -2.95009 0
M  V30 49716 H 4884.75 2.64506 -1.85031 0
M  V30 49717 H 4883.8 1.03803 -3.65963 0
M  V30 49718 H 4885.12 1.57088 -4.73418 0
M  V30 49719 H 4884.27 3.92415 -4.62704 0
M  V30 49720 H 4883.01 3.43815 -3.45894 0
M  V30 49721 H 4882.01 1.88724 -5.16395 0
M  V30 49722 H 4883.24 2.40109 -6.35236 0
M  V30 49723 H 4881.18 4.21293 -5.0284 0
M  V30 49724 H 4881.1 3.60045 -6.64759 0
M  V30 49725 H 4882.37 4.7074 -6.21309 0
M  V30 49726 N 4886.6 1.55916 0.229791 0
M  V30 49727 C 4887.83 1.8262 0.972498 0
M  V30 49728 C 4888.24 0.621551 1.78276 0
M  V30 49729 O 4887.6 -0.409893 1.77837 0
M  V30 49730 C 4887.65 3.07747 1.89668 0
M  V30 49731 O 4887.37 4.23563 1.11919 0
M  V30 49732 C 4888.87 3.47378 2.75397 0
M  V30 49733 H 4886.09 0.60728 0.285397 0
M  V30 49734 H 4888.64 2.02997 0.247507 0
M  V30 49735 H 4886.79 2.8937 2.57573 0
M  V30 49736 H 4887.2 4.94592 1.74582 0
M  V30 49737 H 4888.68 4.37988 3.35962 0
M  V30 49738 H 4889.16 2.68749 3.47377 0
M  V30 49739 H 4889.76 3.68165 2.12919 0
M  V30 49740 N 4888.08 -0.496163 1.49586 0
M  V30 49741 C 4889.32 -1.24998 1.59317 0
M  V30 49742 C 4889.65 -1.92444 0.282047 0
M  V30 49743 O 4888.91 -1.81559 -0.730388 0
M  V30 49744 C 4889.21 -2.33581 2.70509 0
M  V30 49745 C 4888.87 -1.83559 4.11846 0
M  V30 49746 C 4887.53 -1.69637 4.50307 0
M  V30 49747 C 4889.89 -1.46175 5.00282 0
M  V30 49748 C 4887.21 -1.16716 5.74973 0
M  V30 49749 C 4889.57 -0.947045 6.25471 0
M  V30 49750 C 4888.23 -0.794252 6.62758 0
M  V30 49751 H 4887.5 -0.457399 0.582981 0
M  V30 49752 H 4890.15 -0.549932 1.83434 0
M  V30 49753 H 4888.45 -3.09393 2.40382 0
M  V30 49754 H 4890.15 -2.91618 2.75246 0
M  V30 49755 H 4886.74 -1.95356 3.81489 0
M  V30 49756 H 4890.92 -1.55776 4.71219 0
M  V30 49757 H 4886.18 -1.03602 6.02558 0
M  V30 49758 H 4890.35 -0.648603 6.93373 0
M  V30 49759 H 4887.98 -0.382004 7.5924 0
M  V30 49760 N 4889.55 -1.38742 -0.747561 0
M  V30 49761 C 4890.8 -1.35012 -1.50386 0
M  V30 49762 C 4891.12 0.0573588 -1.94916 0
M  V30 49763 O 4890.39 1.00622 -1.68084 0
M  V30 49764 H 4888.97 -0.496804 -0.557849 0
M  V30 49765 H 4891.64 -1.73482 -0.888258 0
M  V30 49766 H 4890.73 -2.00482 -2.39193 0
M  V30 49767 N 4891.03 0.976398 -1.2371 0
M  V30 49768 C 4891.98 2.06948 -1.02181 0
M  V30 49769 C 4892.95 1.65984 0.062045 0
M  V30 49770 O 4894.13 1.90584 -0.0908576 0
M  V30 49771 C 4891.27 3.39423 -0.623389 0
M  V30 49772 C 4890.39 3.93633 -1.7798 0
M  V30 49773 C 4889.52 5.14338 -1.32778 0
M  V30 49774 C 4888.56 5.60724 -2.45468 0
M  V30 49775 N 4887.7 6.72655 -2.01196 0
M  V30 49776 H 4892.54 2.24698 -1.95742 0
M  V30 49777 H 4890.08 1.1014 -0.975073 0
M  V30 49778 H 4892.03 4.15525 -0.373466 0
M  V30 49779 H 4890.66 3.21625 0.275216 0
M  V30 49780 H 4889.72 3.1425 -2.14362 0
M  V30 49781 H 4891.03 4.24026 -2.62686 0
M  V30 49782 H 4890.18 5.97785 -1.03622 0
M  V30 49783 H 4888.92 4.85609 -0.451146 0
M  V30 49784 H 4887.93 4.75855 -2.75394 0
M  V30 49785 H 4889.15 5.91471 -3.33675 0
M  V30 49786 H 4887.1 6.45677 -1.15918 0
M  V30 49787 H 4887.01 7.02452 -2.79459 0
M  V30 49788 H 4888.28 7.59566 -1.75155 0
M  V30 49789 N 4892.51 1.04945 1.17577 0
M  V30 49790 C 4893.44 0.592596 2.20371 0
M  V30 49791 C 4894.42 -0.377506 1.58157 0
M  V30 49792 O 4895.61 -0.289715 1.8626 0
M  V30 49793 C 4892.73 -0.133096 3.38438 0
M  V30 49794 C 4891.78 0.791631 4.19089 0
M  V30 49795 S 4892.61 2.27942 4.84564 0
M  V30 49796 C 4893.77 1.56483 6.06023 0
M  V30 49797 H 4894 1.46351 2.58783 0
M  V30 49798 H 4891.53 0.861193 1.28152 0
M  V30 49799 H 4893.49 -0.545603 4.06858 0
M  V30 49800 H 4892.15 -0.980019 2.9842 0
M  V30 49801 H 4891.35 0.230216 5.03474 0
M  V30 49802 H 4890.95 1.14339 3.56094 0
M  V30 49803 H 4893.24 0.862775 6.71984 0
M  V30 49804 H 4894.18 2.38606 6.66688 0
M  V30 49805 H 4894.59 1.05332 5.54586 0
M  V30 49806 N 4893.99 -1.33965 0.830128 0
M  V30 49807 C 4894.94 -2.29386 0.255089 0
M  V30 49808 C 4895.91 -1.53926 -0.624189 0
M  V30 49809 O 4897.09 -1.82264 -0.564308 0
M  V30 49810 C 4894.23 -3.40342 -0.57109 0
M  V30 49811 C 4893.34 -4.30728 0.331234 0
M  V30 49812 C 4892.48 -5.28792 -0.505204 0
M  V30 49813 C 4891.52 -6.10817 0.396058 0
M  V30 49814 N 4890.66 -7.0095 -0.401733 0
M  V30 49815 H 4895.5 -2.77968 1.07414 0
M  V30 49816 H 4893.03 -1.36783 0.541181 0
M  V30 49817 H 4894.99 -4.03365 -1.06548 0
M  V30 49818 H 4893.62 -2.92975 -1.35519 0
M  V30 49819 H 4892.67 -3.68504 0.943889 0
M  V30 49820 H 4893.98 -4.88177 1.02394 0
M  V30 49821 H 4893.14 -5.97301 -1.06378 0
M  V30 49822 H 4891.88 -4.71899 -1.23138 0
M  V30 49823 H 4890.88 -5.41234 0.966719 0
M  V30 49824 H 4892.11 -6.69793 1.12046 0
M  V30 49825 H 4890.05 -6.46516 -1.11145 0
M  V30 49826 H 4889.97 -7.55643 0.232433 0
M  V30 49827 H 4891.24 -7.73777 -0.94283 0
M  V30 49828 N 4895.47 -0.585751 -1.4631 0
M  V30 49829 C 4896.88 -0.160004 -1.86013 0
M  V30 49830 C 4897.23 1.2777 -1.48894 0
M  V30 49831 O 4896.35 1.96555 -0.90526 0
M  V30 49832 C 4896.95 -0.283603 -3.37611 0
M  V30 49833 C 4895.51 0.0872933 -3.76299 0
M  V30 49834 C 4894.66 -0.61815 -2.70322 0
M  V30 49835 H 4897.61 -0.793785 -1.37422 0
M  V30 49836 H 4897.63 0.490216 -3.77329 0
M  V30 49837 H 4897.14 -1.33008 -3.64596 0
M  V30 49838 H 4895.24 1.13379 -3.54931 0
M  V30 49839 H 4895.35 -0.291143 -4.78215 0
M  V30 49840 H 4893.72 -0.0580826 -2.54634 0
M  V30 49841 H 4894.5 -1.66634 -3.00147 0
M  V30 49842 N 4896.95 1.5424 -0.323695 0
M  V30 49843 C 4898.36 1.59574 0.0289457 0
M  V30 49844 C 4898.56 1.34022 1.50467 0
M  V30 49845 O 4897.62 1.12472 2.26067 0
M  V30 49846 C 4898.93 2.98168 -0.3894 0
M  V30 49847 C 4900.48 3.11147 -0.340067 0
M  V30 49848 C 4900.95 4.52087 -0.733577 0
M  V30 49849 N 4902.44 4.58077 -0.686988 0
M  V30 49850 C 4903.18 5.65244 -0.963663 0
M  V30 49851 N 4902.68 6.80351 -1.30748 0
M  V30 49852 N 4904.47 5.55022 -0.889215 0
M  V30 49853 H 4896.62 1.69106 -1.28518 0
M  V30 49854 H 4898.88 0.790954 -0.522586 0
M  V30 49855 H 4898.59 3.21866 -1.41758 0
M  V30 49856 H 4898.46 3.764 0.245525 0
M  V30 49857 H 4900.85 2.87185 0.678901 0
M  V30 49858 H 4900.93 2.35019 -1.00993 0
M  V30 49859 H 4900.57 4.76782 -1.75046 0
M  V30 49860 H 4900.5 5.26584 -0.0414041 0
M  V30 49861 H 4903 3.7541 -0.433112 0
M  V30 49862 H 4903.31 7.58024 -1.50397 0
M  V30 49863 H 4901.65 6.81847 -1.34574 0
M  V30 49864 H 4904.84 4.63975 -0.620102 0
M  V30 49865 H 4905.02 6.38454 -1.1082 0
M  V30 49866 N 4898.42 0.0518709 1.57515 0
M  V30 49867 C 4899.65 -0.630411 1.96747 0
M  V30 49868 C 4900.06 -1.64872 0.928111 0
M  V30 49869 O 4899.4 -1.83449 -0.0960033 0
M  V30 49870 C 4899.47 -1.37369 3.3222 0
M  V30 49871 C 4899.13 -0.511139 4.54133 0
M  V30 49872 C 4900.13 0.223067 5.19421 0
M  V30 49873 C 4897.81 -0.441859 5.00353 0
M  V30 49874 C 4899.81 1.01498 6.29267 0
M  V30 49875 C 4897.49 0.353745 6.10075 0
M  V30 49876 C 4898.49 1.08085 6.74393 0
M  V30 49877 O 4898.18 1.86337 7.82006 0
M  V30 49878 H 4897.91 -0.177104 0.652388 0
M  V30 49879 H 4900.47 0.114798 2.05079 0
M  V30 49880 H 4898.7 -2.16454 3.20444 0
M  V30 49881 H 4900.38 -1.94628 3.56195 0
M  V30 49882 H 4901.15 0.179016 4.8467 0
M  V30 49883 H 4897.03 -0.997404 4.50081 0
M  V30 49884 H 4900.57 1.58303 6.79401 0
M  V30 49885 H 4896.47 0.399431 6.44263 0
M  V30 49886 H 4897.24 1.78556 7.98787 0
M  V30 49887 N 4899.9 -1.56035 -0.221519 0
M  V30 49888 C 4900.81 -1.95586 -1.29551 0
M  V30 49889 C 4901.83 -0.859692 -1.51279 0
M  V30 49890 O 4903 -1.16326 -1.64408 0
M  V30 49891 C 4900.07 -2.26456 -2.62523 0
M  V30 49892 C 4899.13 -3.49641 -2.49098 0
M  V30 49893 C 4898.36 -3.7903 -3.75729 0
M  V30 49894 O 4898.59 -3.10094 -4.78746 0
M  V30 49895 O 4897.52 -4.7252 -3.72839 0
M  V30 49896 H 4901.35 -2.87113 -0.989934 0
M  V30 49897 H 4898.93 -1.43246 -0.424384 0
M  V30 49898 H 4900.81 -2.47506 -3.41055 0
M  V30 49899 H 4899.49 -1.38103 -2.92762 0
M  V30 49900 H 4898.39 -3.3387 -1.68766 0
M  V30 49901 H 4899.73 -4.38378 -2.23799 0
M  V30 49902 N 4901.38 0.488223 -1.49847 0
M  V30 49903 C 4902.63 1.2382 -1.59222 0
M  V30 49904 C 4902.94 1.93438 -0.290034 0
M  V30 49905 O 4904.15 2.70228 -0.262477 0
M  V30 49906 C 4902.6 2.24892 -2.80984 0
M  V30 49907 C 4902.21 1.61155 -4.18011 0
M  V30 49908 C 4903.96 3.00638 -2.99695 0
M  V30 49909 C 4901.86 2.60412 -5.3098 0
M  V30 49910 H 4900.79 0.465837 -0.592884 0
M  V30 49911 H 4903.44 0.510583 -1.76254 0
M  V30 49912 H 4901.83 3.00871 -2.57473 0
M  V30 49913 H 4903 0.910809 -4.51709 0
M  V30 49914 H 4901.31 0.977528 -4.04763 0
M  V30 49915 H 4903.91 3.74889 -3.81264 0
M  V30 49916 H 4904.25 3.59012 -2.10751 0
M  V30 49917 H 4904.79 2.31773 -3.23305 0
M  V30 49918 H 4901.53 2.06801 -6.22024 0
M  V30 49919 H 4901.05 3.28689 -5.01721 0
M  V30 49920 H 4902.73 3.22586 -5.60845 0
M  V30 49921 N 4902.86 1.39136 0.740193 0
M  V30 49922 C 4903.81 1.37577 1.87551 0
M  V30 49923 C 4904.8 0.259652 1.67398 0
M  V30 49924 O 4906.01 0.429411 1.74803 0
M  V30 49925 H 4902.38 0.429491 0.617285 0
M  V30 49926 H 4904.35 2.33352 1.85983 0
M  V30 49927 C 4903.1 1.23099 3.2518 0
M  V30 49928 H 4902.42 2.08249 3.41281 0
M  V30 49929 H 4903.86 1.26064 4.04826 0
M  V30 49930 C 4902.32 -0.0610287 3.36845 0
M  V30 49931 O 4902.85 -1.03314 3.88187 0
M  V30 49932 N 4901.06 -0.122352 2.90342 0
M  V30 49933 H 4900.61 0.669417 2.4875 0
M  V30 49934 H 4900.56 -0.986358 2.98527 0
M  V30 49935 N 4904.34 -0.969824 1.24226 0
M  V30 49936 C 4905.56 -1.75285 1.1086 0
M  V30 49937 C 4905.99 -1.85093 -0.335014 0
M  V30 49938 O 4905.34 -1.32028 -1.24251 0
M  V30 49939 C 4905.39 -3.15249 1.75073 0
M  V30 49940 O 4904.5 -3.99586 1.02006 0
M  V30 49941 H 4903.84 -0.538891 0.387934 0
M  V30 49942 H 4906.37 -1.2167 1.64492 0
M  V30 49943 H 4906.38 -3.65781 1.80743 0
M  V30 49944 H 4905.05 -3.07426 2.80111 0
M  V30 49945 H 4903.63 -3.58073 1.04106 0
M  V30 49946 N 4905.81 -1.05567 -1.17018 0
M  V30 49947 C 4906.74 -0.681104 -2.23346 0
M  V30 49948 C 4907.72 0.322924 -1.67007 0
M  V30 49949 O 4908.91 0.199679 -1.93171 0
M  V30 49950 C 4906.04 -0.0590274 -3.4725 0
M  V30 49951 C 4904.99 -0.988228 -4.16435 0
M  V30 49952 C 4904.32 -0.229834 -5.34206 0
M  V30 49953 C 4905.62 -2.31405 -4.68241 0
M  V30 49954 H 4907.31 -1.57002 -2.54933 0
M  V30 49955 H 4904.86 -0.756345 -1.22537 0
M  V30 49956 H 4906.81 0.214834 -4.20852 0
M  V30 49957 H 4905.54 0.864858 -3.14941 0
M  V30 49958 H 4904.2 -1.24672 -3.4475 0
M  V30 49959 H 4903.84 0.696936 -4.98148 0
M  V30 49960 H 4903.54 -0.849019 -5.81434 0
M  V30 49961 H 4905.07 0.0366548 -6.10589 0
M  V30 49962 H 4906.48 -2.09982 -5.33461 0
M  V30 49963 H 4904.88 -2.88754 -5.26062 0
M  V30 49964 H 4905.95 -2.94995 -3.84845 0
M  V30 49965 N 4907.29 1.33523 -0.837221 0
M  V30 49966 C 4908.54 1.97097 -0.428456 0
M  V30 49967 C 4908.85 1.67065 1.01728 0
M  V30 49968 O 4910.06 2.2424 1.53064 0
M  V30 49969 C 4908.52 3.52722 -0.715199 0
M  V30 49970 C 4908.12 3.91632 -2.1755 0
M  V30 49971 C 4909.87 4.22855 -0.373303 0
M  V30 49972 C 4907.77 5.40229 -2.40638 0
M  V30 49973 H 4906.7 0.737584 -0.156481 0
M  V30 49974 H 4909.36 1.52165 -1.02557 0
M  V30 49975 H 4907.74 3.95971 -0.0477296 0
M  V30 49976 H 4908.91 3.59446 -2.88331 0
M  V30 49977 H 4907.23 3.34476 -2.48022 0
M  V30 49978 H 4909.82 5.32132 -0.523451 0
M  V30 49979 H 4910.17 4.1065 0.683564 0
M  V30 49980 H 4910.7 3.85131 -0.995936 0
M  V30 49981 H 4907.44 5.57437 -3.44884 0
M  V30 49982 H 4906.96 5.73881 -1.74416 0
M  V30 49983 H 4908.64 6.07094 -2.2371 0
M  V30 49984 N 4908.77 0.593501 1.45998 0
M  V30 49985 C 4910.19 0.25602 1.57533 0
M  V30 49986 C 4910.39 -1.24161 1.58702 0
M  V30 49987 O 4909.44 -2.02392 1.50975 0
M  V30 49988 C 4910.76 0.914761 2.86448 0
M  V30 49989 C 4912.3 0.889359 3.00099 0
M  V30 49990 C 4912.78 1.52784 4.31765 0
M  V30 49991 N 4914.27 1.49268 4.3849 0
M  V30 49992 C 4915 1.95599 5.39007 0
M  V30 49993 N 4914.5 2.49952 6.46139 0
M  V30 49994 N 4916.29 1.86451 5.30276 0
M  V30 49995 H 4908.44 1.56609 1.43483 0
M  V30 49996 H 4910.71 0.655231 0.68511 0
M  V30 49997 H 4910.41 1.96871 2.91435 0
M  V30 49998 H 4910.29 0.429488 3.74747 0
M  V30 49999 H 4912.67 -0.156007 2.94687 0
M  V30 50000 H 4912.76 1.41276 2.13248 0
M  V30 50001 H 4912.4 2.57246 4.37935 0
M  V30 50002 H 4912.33 0.97958 5.17409 0
M  V30 50003 H 4914.82 1.09549 3.61673 0
M  V30 50004 H 4915.13 2.83134 7.19065 0
M  V30 50005 H 4913.48 2.53983 6.46929 0
M  V30 50006 H 4916.67 1.43738 4.45485 0
M  V30 50007 H 4916.84 2.22873 6.08467 0
M  V30 50008 N 4910.25 -1.54066 0.33187 0
M  V30 50009 C 4911.48 -2.04834 -0.269533 0
M  V30 50010 C 4911.89 -1.20719 -1.45683 0
M  V30 50011 O 4911.23 -0.232603 -1.82221 0
M  V30 50012 C 4911.29 -3.51388 -0.759375 0
M  V30 50013 C 4910.96 -4.5597 0.306717 0
M  V30 50014 C 4911.95 -5.07122 1.14556 0
M  V30 50015 C 4909.64 -5.00214 0.457292 0
M  V30 50016 C 4911.63 -6.01089 2.12063 0
M  V30 50017 C 4909.32 -5.93994 1.43577 0
M  V30 50018 C 4910.32 -6.44318 2.2659 0
M  V30 50019 O 4910 -7.36255 3.22775 0
M  V30 50020 H 4909.74 -0.673511 -0.0579526 0
M  V30 50021 H 4912.29 -1.99747 0.478591 0
M  V30 50022 H 4910.52 -3.53901 -1.55855 0
M  V30 50023 H 4912.21 -3.85188 -1.28004 0
M  V30 50024 H 4912.98 -4.73713 1.04026 0
M  V30 50025 H 4908.85 -4.60652 -0.17898 0
M  V30 50026 H 4912.4 -6.40292 2.76896 0
M  V30 50027 H 4908.3 -6.26819 1.54168 0
M  V30 50028 H 4909.06 -7.54154 3.1811 0
M  V30 50029 N 4911.73 -0.0602235 -1.57485 0
M  V30 50030 C 4912.68 0.920896 -2.08575 0
M  V30 50031 C 4913.66 1.26613 -0.992872 0
M  V30 50032 O 4914.85 1.24704 -1.2561 0
M  V30 50033 C 4911.98 2.19258 -2.64161 0
M  V30 50034 C 4911.07 1.87433 -3.80433 0
M  V30 50035 N 4911.46 1.26008 -4.89853 0
M  V30 50036 C 4909.76 2.17251 -3.8951 0
M  V30 50037 C 4910.46 1.12016 -5.70813 0
M  V30 50038 N 4909.43 1.62606 -5.1871 0
M  V30 50039 H 4913.24 0.441459 -2.90566 0
M  V30 50040 H 4910.75 0.143986 -1.6176 0
M  V30 50041 H 4912.75 2.90451 -2.99071 0
M  V30 50042 H 4911.41 2.678 -1.83612 0
M  V30 50043 H 4912.42 0.931157 -5.0946 0
M  V30 50044 H 4909.09 2.68251 -3.19919 0
M  V30 50045 H 4910.48 0.642548 -6.68821 0
M  V30 50046 N 4913.2 1.56151 0.213241 0
M  V30 50047 C 4914.44 1.81328 0.943372 0
M  V30 50048 C 4914.81 0.634998 1.81195 0
M  V30 50049 O 4916.01 0.766256 2.57647 0
M  V30 50050 C 4914.28 3.11443 1.75323 0
M  V30 50051 S 4915.84 3.57964 2.53786 0
M  V30 50052 H 4912.66 0.636549 0.316743 0
M  V30 50053 H 4915.26 1.94388 0.208245 0
M  V30 50054 H 4913.96 3.95232 1.10543 0
M  V30 50055 H 4913.49 3.01213 2.5305 0
M  V30 50056 H 4915.51 3.2196 3.77566 0
M  V30 50057 N 4914.68 -0.48027 1.50104 0
M  V30 50058 C 4915.63 -1.5794 1.68296 0
M  V30 50059 C 4916.6 -1.57609 0.524278 0
M  V30 50060 O 4917.78 -1.7528 0.753771 0
M  V30 50061 C 4914.92 -2.95972 1.77467 0
M  V30 50062 C 4914.04 -3.06162 3.04777 0
M  V30 50063 C 4913.17 -4.35053 3.048 0
M  V30 50064 C 4912.21 -4.38951 4.26601 0
M  V30 50065 N 4911.35 -5.59299 4.24416 0
M  V30 50066 H 4916.19 -1.41734 2.62136 0
M  V30 50067 H 4913.73 -0.689258 1.29952 0
M  V30 50068 H 4915.68 -3.76005 1.80765 0
M  V30 50069 H 4914.31 -3.10834 0.870746 0
M  V30 50070 H 4913.37 -2.1906 3.10993 0
M  V30 50071 H 4914.68 -3.04902 3.94761 0
M  V30 50072 H 4913.83 -5.23425 3.06776 0
M  V30 50073 H 4912.57 -4.38908 2.12629 0
M  V30 50074 H 4911.58 -3.48977 4.24847 0
M  V30 50075 H 4912.8 -4.36795 5.19988 0
M  V30 50076 H 4910.75 -5.63958 3.35094 0
M  V30 50077 H 4910.66 -5.59742 5.08158 0
M  V30 50078 H 4911.93 -6.49822 4.30525 0
M  V30 50079 N 4916.16 -1.39527 -0.732804 0
M  V30 50080 C 4917.44 -1.27378 -1.48439 0
M  V30 50081 C 4917.82 0.115651 -2.10783 0
M  V30 50082 O 4917.17 1.12706 -1.9877 0
M  V30 50083 C 4917.38 -2.39975 -2.53403 0
M  V30 50084 C 4918.72 -2.79396 -3.19724 0
M  V30 50085 O 4919.75 -2.39441 -2.63717 0
M  V30 50086 O 4918.61 -3.48368 -4.21073 0
M  V30 50087 H 4915.7 -0.499295 -0.659267 0
M  V30 50088 H 4918.25 -1.51406 -0.766442 0
M  V30 50089 H 4917.02 -3.32853 -2.0573 0
M  V30 50090 H 4916.64 -2.17624 -3.32754 0
M  V30 50091 N 4917.64 0.963222 -1.24739 0
M  V30 50092 C 4918.89 1.70339 -1.08761 0
M  V30 50093 C 4919.21 1.91389 0.373551 0
M  V30 50094 O 4918.48 1.49484 1.26615 0
M  V30 50095 H 4917.06 0.63121 -0.399478 0
M  V30 50096 H 4919.72 1.15854 -1.56729 0
M  V30 50097 H 4918.82 2.6861 -1.58918 0
M  V30 50098 N 4919.12 1.06186 1.16457 0
M  V30 50099 C 4920.36 0.777928 1.86961 0
M  V30 50100 C 4920.69 -0.695538 1.81638 0
M  V30 50101 O 4919.95 -1.52528 1.22612 0
M  V30 50102 C 4920.25 1.21645 3.36061 0
M  V30 50103 C 4919.91 2.69384 3.61584 0
M  V30 50104 C 4918.57 3.0974 3.68259 0
M  V30 50105 C 4920.93 3.64804 3.72247 0
M  V30 50106 C 4918.25 4.44358 3.83096 0
M  V30 50107 C 4920.61 4.99168 3.88605 0
M  V30 50108 C 4919.27 5.39163 3.93522 0
M  V30 50109 H 4918.54 0.284664 0.68414 0
M  V30 50110 H 4921.19 1.33076 1.37706 0
M  V30 50111 H 4919.49 0.582787 3.87441 0
M  V30 50112 H 4921.19 0.973819 3.88996 0
M  V30 50113 H 4917.78 2.37137 3.57021 0
M  V30 50114 H 4921.96 3.34759 3.66401 0
M  V30 50115 H 4917.22 4.74832 3.85155 0
M  V30 50116 H 4921.39 5.7299 3.95797 0
M  V30 50117 H 4919.02 6.43478 4.04771 0
M  V30 50118 N 4920.59 -1.33077 0.84429 0
M  V30 50119 C 4921.84 -1.96867 0.438902 0
M  V30 50120 C 4922.16 -1.67602 -1.00841 0
M  V30 50121 O 4923.36 -2.25049 -1.51873 0
M  V30 50122 C 4921.82 -3.52338 0.733894 0
M  V30 50123 C 4921.43 -3.90473 2.19624 0
M  V30 50124 C 4923.17 -4.22651 0.395723 0
M  V30 50125 C 4921.08 -5.38945 2.435 0
M  V30 50126 H 4920.01 -0.736744 0.16039 0
M  V30 50127 H 4922.66 -1.51619 1.03363 0
M  V30 50128 H 4921.04 -3.9594 0.0687282 0
M  V30 50129 H 4922.21 -3.57912 2.90234 0
M  V30 50130 H 4920.53 -3.33156 2.49792 0
M  V30 50131 H 4923.13 -5.31847 0.551664 0
M  V30 50132 H 4923.47 -4.11006 -0.661777 0
M  V30 50133 H 4924 -3.84597 1.01635 0
M  V30 50134 H 4920.74 -5.556 3.47835 0
M  V30 50135 H 4920.26 -5.72948 1.77457 0
M  V30 50136 H 4921.94 -6.05899 2.26926 0
M  V30 50137 N 4922.07 -0.601236 -1.45681 0
M  V30 50138 C 4923 0.159365 -2.28645 0
M  V30 50139 C 4924.02 0.837833 -1.39586 0
M  V30 50140 O 4925.21 0.704287 -1.64018 0
M  V30 50141 C 4922.31 1.2463 -3.15152 0
M  V30 50142 C 4921.48 0.656182 -4.3245 0
M  V30 50143 C 4920.54 1.63319 -5.00213 0
M  V30 50144 O 4919.56 1.16198 -5.57213 0
M  V30 50145 N 4920.77 2.96755 -4.98916 0
M  V30 50146 H 4923.53 -0.552504 -2.94563 0
M  V30 50147 H 4921.09 -0.440278 -1.55798 0
M  V30 50148 H 4923.08 1.89958 -3.57349 0
M  V30 50149 H 4921.65 1.86078 -2.51185 0
M  V30 50150 H 4920.87 -0.175018 -3.93811 0
M  V30 50151 H 4922.16 0.242032 -5.08224 0
M  V30 50152 H 4921.56 3.37646 -4.53885 0
M  V30 50153 H 4920.12 3.57522 -5.44997 0
M  V30 50154 N 4923.55 1.53888 -0.340036 0
M  V30 50155 C 4924.97 1.59595 0.0120191 0
M  V30 50156 C 4925.17 1.35611 1.49037 0
M  V30 50157 O 4924.22 1.14863 2.24861 0
M  V30 50158 C 4925.54 2.97738 -0.421003 0
M  V30 50159 C 4927.08 3.10769 -0.37305 0
M  V30 50160 C 4927.56 4.51283 -0.781486 0
M  V30 50161 N 4929.05 4.57323 -0.735534 0
M  V30 50162 C 4929.79 5.6419 -1.02356 0
M  V30 50163 N 4929.28 6.78925 -1.37957 0
M  V30 50164 N 4931.07 5.54048 -0.948033 0
M  V30 50165 H 4923.23 1.67733 -1.30305 0
M  V30 50166 H 4925.49 0.785367 -0.530945 0
M  V30 50167 H 4925.19 3.20344 -1.45164 0
M  V30 50168 H 4925.07 3.76639 0.205588 0
M  V30 50169 H 4927.46 2.87888 0.648404 0
M  V30 50170 H 4927.54 2.33935 -1.0348 0
M  V30 50171 H 4927.18 4.74899 -1.80093 0
M  V30 50172 H 4927.11 5.2651 -0.097253 0
M  V30 50173 H 4929.6 3.74929 -0.472905 0
M  V30 50174 H 4929.91 7.56386 -1.58428 0
M  V30 50175 H 4928.26 6.80381 -1.41798 0
M  V30 50176 H 4931.45 4.63291 -0.669278 0
M  V30 50177 H 4931.62 6.37242 -1.17585 0
M  V30 50178 N 4925.03 0.0685745 1.57451 0
M  V30 50179 C 4925.98 -0.909821 2.0906 0
M  V30 50180 C 4926.96 -1.26085 0.999572 0
M  V30 50181 O 4928.16 -1.24036 1.2627 0
M  V30 50182 C 4925.28 -2.17854 2.6532 0
M  V30 50183 C 4924.37 -1.85413 3.81422 0
M  V30 50184 N 4924.76 -1.23408 4.90514 0
M  V30 50185 C 4923.06 -2.15182 3.90657 0
M  V30 50186 C 4923.76 -1.08988 5.71399 0
M  V30 50187 N 4922.74 -1.59852 5.19565 0
M  V30 50188 H 4926.54 -0.426043 2.90796 0
M  V30 50189 H 4924.05 -0.135405 1.61835 0
M  V30 50190 H 4926.05 -2.88861 3.00607 0
M  V30 50191 H 4924.71 -2.66822 1.8503 0
M  V30 50192 H 4925.72 -0.904126 5.09947 0
M  V30 50193 H 4922.4 -2.6655 3.21337 0
M  V30 50194 H 4923.79 -0.607069 6.69152 0
M  V30 50195 N 4926.51 -1.56262 -0.204957 0
M  V30 50196 C 4927.44 -1.96783 -1.25693 0
M  V30 50197 C 4928.42 -0.838361 -1.48005 0
M  V30 50198 O 4929.6 -1.10194 -1.59909 0
M  V30 50199 C 4926.73 -2.29885 -2.60327 0
M  V30 50200 C 4925.69 -3.45478 -2.52644 0
M  V30 50201 C 4925.01 -3.64229 -3.91461 0
M  V30 50202 C 4926.31 -4.79961 -2.05997 0
M  V30 50203 H 4928.01 -2.84907 -0.920238 0
M  V30 50204 H 4925.55 -1.37074 -0.441229 0
M  V30 50205 H 4927.51 -2.56826 -3.34093 0
M  V30 50206 H 4926.23 -1.38632 -2.95717 0
M  V30 50207 H 4924.89 -3.18612 -1.81334 0
M  V30 50208 H 4924.54 -2.70324 -4.24186 0
M  V30 50209 H 4924.24 -4.41986 -3.87197 0
M  V30 50210 H 4925.76 -3.93536 -4.66864 0
M  V30 50211 H 4927.18 -5.05998 -2.69515 0
M  V30 50212 H 4925.57 -5.61119 -2.12757 0
M  V30 50213 H 4926.64 -4.74205 -1.01281 0
M  V30 50214 N 4927.99 0.472303 -1.50356 0
M  V30 50215 C 4929.4 1.0532 -1.54157 0
M  V30 50216 C 4929.75 1.93154 -0.344371 0
M  V30 50217 O 4928.87 2.0948 0.542855 0
M  V30 50218 C 4929.47 1.91682 -2.79363 0
M  V30 50219 C 4928.03 2.44882 -2.85849 0
M  V30 50220 C 4927.17 1.23197 -2.48431 0
M  V30 50221 H 4930.12 0.254971 -1.56638 0
M  V30 50222 H 4930.15 2.76733 -2.6115 0
M  V30 50223 H 4929.66 1.27728 -3.66479 0
M  V30 50224 H 4927.76 3.12392 -2.03081 0
M  V30 50225 H 4927.87 2.80072 -3.88711 0
M  V30 50226 H 4926.24 1.56636 -2.00842 0
M  V30 50227 H 4927.02 0.609075 -3.37854 0
M  V30 50228 N 4929.46 1.39914 0.725394 0
M  V30 50229 C 4930.69 1.40954 1.51458 0
M  V30 50230 C 4931.11 0.00659057 1.88799 0
M  V30 50231 O 4930.46 -0.967109 1.54768 0
M  V30 50232 C 4930.51 2.29128 2.79611 0
M  V30 50233 O 4930.24 3.63961 2.43853 0
M  V30 50234 C 4931.74 2.38655 3.73575 0
M  V30 50235 H 4928.96 0.481108 0.467735 0
M  V30 50236 H 4931.5 1.83846 0.895587 0
M  V30 50237 H 4929.66 1.89624 3.37819 0
M  V30 50238 H 4930.07 4.10689 3.26244 0
M  V30 50239 H 4931.54 3.0458 4.60364 0
M  V30 50240 H 4932.02 1.40861 4.15999 0
M  V30 50241 H 4932.63 2.78671 3.21283 0
M  V30 50242 N 4930.94 -0.956593 1.25248 0
M  V30 50243 C 4932.19 -1.69534 1.09276 0
M  V30 50244 C 4932.5 -1.92137 -0.366436 0
M  V30 50245 O 4933.71 -2.63689 -0.646557 0
M  V30 50246 C 4932.17 -3.05205 1.90731 0
M  V30 50247 C 4931.77 -2.90404 3.4113 0
M  V30 50248 C 4933.52 -3.82875 1.83322 0
M  V30 50249 C 4931.42 -4.21453 4.14887 0
M  V30 50250 H 4930.35 -0.635789 0.405324 0
M  V30 50251 H 4933.01 -1.06508 1.49427 0
M  V30 50252 H 4931.39 -3.69123 1.43402 0
M  V30 50253 H 4932.56 -2.3543 3.96118 0
M  V30 50254 H 4930.88 -2.2619 3.4961 0
M  V30 50255 H 4933.47 -4.79936 2.35723 0
M  V30 50256 H 4933.82 -4.08527 0.800715 0
M  V30 50257 H 4934.35 -3.25703 2.28391 0
M  V30 50258 H 4931.09 -4.00991 5.18543 0
M  V30 50259 H 4930.61 -4.762 3.64682 0
M  V30 50260 H 4932.29 -4.90007 4.22495 0
M  V30 50261 N 4932.42 -1.06802 -1.15892 0
M  V30 50262 C 4933.84 -0.792471 -1.38535 0
M  V30 50263 C 4934.04 0.605853 -1.92176 0
M  V30 50264 O 4933.09 1.36554 -2.12389 0
M  V30 50265 C 4934.4 -1.86165 -2.36142 0
M  V30 50266 C 4935.95 -1.88576 -2.49816 0
M  V30 50267 C 4936.43 -2.94562 -3.50709 0
M  V30 50268 N 4937.92 -2.93629 -3.58241 0
M  V30 50269 C 4938.65 -3.72282 -4.36112 0
M  V30 50270 N 4938.15 -4.60769 -5.17363 0
M  V30 50271 N 4939.94 -3.60652 -4.31145 0
M  V30 50272 H 4932.09 -1.96996 -0.794129 0
M  V30 50273 H 4934.36 -0.853956 -0.411658 0
M  V30 50274 H 4934.06 -2.8661 -2.03832 0
M  V30 50275 H 4933.94 -1.71704 -3.35854 0
M  V30 50276 H 4936.32 -0.887864 -2.81427 0
M  V30 50277 H 4936.4 -2.07116 -1.50122 0
M  V30 50278 H 4936.05 -3.94548 -3.19835 0
M  V30 50279 H 4935.98 -2.73271 -4.50145 0
M  V30 50280 H 4938.47 -2.29482 -3.00244 0
M  V30 50281 H 4938.78 -5.17429 -5.7401 0
M  V30 50282 H 4937.13 -4.64821 -5.16688 0
M  V30 50283 H 4940.32 -2.90905 -3.66731 0
M  V30 50284 H 4940.49 -4.22193 -4.91586 0
M  V30 50285 N 4933.9 1.32627 -0.851335 0
M  V30 50286 C 4935.14 1.99172 -0.459336 0
M  V30 50287 C 4935.5 1.65917 0.966214 0
M  V30 50288 O 4936.7 2.25525 1.4626 0
M  V30 50289 C 4934.97 3.50719 -0.687822 0
M  V30 50290 S 4936.53 4.37037 -0.3929 0
M  V30 50291 H 4933.35 0.689826 -0.172223 0
M  V30 50292 H 4935.95 1.61391 -1.10333 0
M  V30 50293 H 4934.66 3.72411 -1.72448 0
M  V30 50294 H 4934.19 3.93388 -0.0301332 0
M  V30 50295 H 4936.2 4.89993 0.782405 0
M  V30 50296 N 4935.38 0.608953 1.4536 0
M  V30 50297 C 4936.31 -0.0963706 2.33301 0
M  V30 50298 C 4937.29 -0.857392 1.46911 0
M  V30 50299 O 4938.47 -0.827673 1.75679 0
M  V30 50300 C 4935.6 -1.09343 3.29638 0
M  V30 50301 C 4934.56 -0.445527 4.25675 0
M  V30 50302 C 4933.88 -1.55092 5.11713 0
M  V30 50303 C 4935.18 0.634155 5.18436 0
M  V30 50304 H 4936.88 0.637932 2.92525 0
M  V30 50305 H 4934.42 0.308228 1.40663 0
M  V30 50306 H 4936.37 -1.59542 3.90031 0
M  V30 50307 H 4935.1 -1.85834 2.68576 0
M  V30 50308 H 4933.76 0.0356186 3.66583 0
M  V30 50309 H 4933.41 -2.30615 4.47019 0
M  V30 50310 H 4933.11 -1.12291 5.76771 0
M  V30 50311 H 4934.63 -2.05516 5.74974 0
M  V30 50312 H 4936.04 0.216175 5.72892 0
M  V30 50313 H 4934.44 0.983998 5.91978 0
M  V30 50314 H 4935.51 1.51021 4.60783 0
M  V30 50315 N 4936.85 -1.53705 0.348193 0
M  V30 50316 C 4938.1 -2.00592 -0.246407 0
M  V30 50317 C 4938.42 -1.23759 -1.50694 0
M  V30 50318 O 4937.69 -0.346032 -1.9282 0
M  V30 50319 H 4936.27 -0.741057 -0.0940418 0
M  V30 50320 H 4938.93 -1.89138 0.470421 0
M  V30 50321 H 4938.03 -3.08299 -0.485605 0
M  V30 50322 N 4938.33 -0.0769235 -1.57412 0
M  V30 50323 C 4939.28 0.906154 -2.14223 0
M  V30 50324 C 4940.27 1.30474 -1.08042 0
M  V30 50325 O 4941.48 1.28138 -1.26414 0
M  V30 50326 H 4937.86 0.310183 -0.685048 0
M  V30 50327 H 4939.83 0.402124 -2.95678 0
M  V30 50328 C 4938.58 2.16236 -2.72282 0
M  V30 50329 H 4937.9 1.86451 -3.53661 0
M  V30 50330 H 4939.34 2.83123 -3.15623 0
M  V30 50331 C 4937.8 2.92431 -1.67289 0
M  V30 50332 O 4938.33 3.86319 -1.10095 0
M  V30 50333 N 4936.53 2.55633 -1.38204 0
M  V30 50334 H 4936.08 1.79356 -1.84903 0
M  V30 50335 H 4936.04 3.06916 -0.681895 0
M  V30 50336 N 4939.81 1.56368 0.196667 0
M  V30 50337 C 4941.06 1.80175 0.91549 0
M  V30 50338 C 4941.38 0.649714 1.83858 0
M  V30 50339 O 4940.65 -0.332043 1.93065 0
M  V30 50340 H 4939.23 0.664604 0.341044 0
M  V30 50341 H 4941.89 1.93845 0.202554 0
M  V30 50342 H 4940.99 2.73275 1.50754 0
M  V30 50343 N 4941.29 -0.464322 1.50605 0
M  V30 50344 C 4942.7 -0.798635 1.38181 0
M  V30 50345 C 4942.9 -1.96567 0.443149 0
M  V30 50346 O 4941.96 -2.52253 -0.111726 0
M  V30 50347 C 4943.27 -1.10434 2.79687 0
M  V30 50348 C 4944.82 -1.21039 2.88649 0
M  V30 50349 C 4945.3 -1.54919 4.31003 0
M  V30 50350 N 4946.79 -1.61898 4.33985 0
M  V30 50351 C 4947.52 -1.89631 5.41136 0
M  V30 50352 N 4947.02 -2.15338 6.58484 0
M  V30 50353 N 4948.81 -1.91189 5.28586 0
M  V30 50354 H 4940.96 0.304677 2.10203 0
M  V30 50355 H 4943.23 0.0738136 0.945122 0
M  V30 50356 H 4942.93 -0.319811 3.50243 0
M  V30 50357 H 4942.81 -2.03885 3.17349 0
M  V30 50358 H 4945.19 -1.98559 2.18308 0
M  V30 50359 H 4945.27 -0.255523 2.54521 0
M  V30 50360 H 4944.92 -0.779372 5.01885 0
M  V30 50361 H 4944.85 -2.51568 4.62624 0
M  V30 50362 H 4947.34 -1.44043 3.49371 0
M  V30 50363 H 4947.65 -2.35792 7.3595 0
M  V30 50364 H 4946 -2.12716 6.61647 0
M  V30 50365 H 4949.19 -1.70606 4.35903 0
M  V30 50366 H 4949.36 -2.12466 6.12178 0
M  V30 50367 N 4942.77 -1.40296 -0.717964 0
M  V30 50368 C 4944.01 -1.39653 -1.4788 0
M  V30 50369 C 4944.37 0.00232026 -1.924 0
M  V30 50370 O 4943.66 0.972246 -1.651 0
M  V30 50371 C 4943.85 -2.31823 -2.72016 0
M  V30 50372 C 4943.68 -3.80532 -2.39637 0
M  V30 50373 C 4942.45 -4.49359 -2.31094 0
M  V30 50374 C 4944.65 -4.72084 -2.04062 0
M  V30 50375 N 4942.63 -5.83312 -1.91365 0
M  V30 50376 C 4944 -5.94815 -1.74914 0
M  V30 50377 C 4946.06 -4.59942 -1.90678 0
M  V30 50378 C 4944.76 -7.0676 -1.33728 0
M  V30 50379 C 4946.79 -5.71826 -1.50895 0
M  V30 50380 C 4946.15 -6.93641 -1.22643 0
M  V30 50381 H 4942.25 -0.566282 -0.539304 0
M  V30 50382 H 4944.83 -1.75989 -0.83283 0
M  V30 50383 H 4943 -1.97619 -3.34367 0
M  V30 50384 H 4944.74 -2.22054 -3.3834 0
M  V30 50385 H 4941.49 -4.03011 -2.48756 0
M  V30 50386 H 4941.92 -6.54246 -1.74045 0
M  V30 50387 H 4946.56 -3.66282 -2.11182 0
M  V30 50388 H 4944.28 -8.00306 -1.11966 0
M  V30 50389 H 4947.86 -5.64426 -1.41121 0
M  V30 50390 H 4946.74 -7.78747 -0.923228 0
M  V30 50391 N 4944.24 0.949938 -1.25754 0
M  V30 50392 C 4945.21 2.0289 -1.06622 0
M  V30 50393 C 4946.21 1.60791 -0.0174471 0
M  V30 50394 O 4947.4 1.72248 -0.260063 0
M  V30 50395 C 4944.53 3.35217 -0.619869 0
M  V30 50396 H 4945.72 2.21295 -2.02407 0
M  V30 50397 H 4943.28 1.12768 -1.08227 0
M  V30 50398 H 4944.01 3.22509 0.340372 0
M  V30 50399 H 4943.8 3.67124 -1.37705 0
M  V30 50400 H 4945.29 4.14504 -0.507589 0
M  V30 50401 N 4945.72 1.07416 1.15324 0
M  V30 50402 C 4946.97 0.792709 1.8547 0
M  V30 50403 C 4947.28 -0.683724 1.83261 0
M  V30 50404 O 4948.49 -1.07997 2.49096 0
M  V30 50405 C 4946.95 1.36799 3.32888 0
M  V30 50406 C 4946.55 2.87548 3.4354 0
M  V30 50407 C 4948.3 1.16459 4.08213 0
M  V30 50408 C 4946.21 3.38264 4.8511 0
M  V30 50409 H 4945.14 0.292862 0.694801 0
M  V30 50410 H 4947.79 1.2943 1.30077 0
M  V30 50411 H 4946.17 0.794129 3.87956 0
M  V30 50412 H 4947.34 3.50984 2.98575 0
M  V30 50413 H 4945.66 3.06686 2.81661 0
M  V30 50414 H 4948.25 1.51826 5.12692 0
M  V30 50415 H 4948.6 0.103676 4.16171 0
M  V30 50416 H 4949.13 1.70484 3.59416 0
M  V30 50417 H 4945.87 4.43883 4.82336 0
M  V30 50418 H 4945.39 2.79582 5.30654 0
M  V30 50419 H 4947.07 3.34258 5.53968 0
M  V30 50420 N 4947.2 -1.32174 0.858357 0
M  V30 50421 C 4948.61 -1.79379 0.517684 0
M  V30 50422 C 4948.96 -1.70844 -0.964709 0
M  V30 50423 O 4948.09 -1.26924 -1.75269 0
M  V30 50424 C 4948.68 -3.25702 0.932916 0
M  V30 50425 C 4947.24 -3.70848 0.644083 0
M  V30 50426 C 4946.39 -2.53204 1.13063 0
M  V30 50427 H 4949.34 -1.1942 1.04521 0
M  V30 50428 H 4949.36 -3.79672 0.250807 0
M  V30 50429 H 4948.87 -3.31882 2.01186 0
M  V30 50430 H 4946.97 -3.7018 -0.423981 0
M  V30 50431 H 4947.09 -4.63491 1.21297 0
M  V30 50432 H 4945.45 -2.48674 0.550767 0
M  V30 50433 H 4946.23 -2.62136 2.21675 0
M  V30 50434 N 4948.68 -0.616653 -1.45035 0
M  V30 50435 C 4949.63 0.0968629 -2.30597 0
M  V30 50436 C 4950.6 0.851101 -1.42638 0
M  V30 50437 O 4951.78 0.835031 -1.71557 0
M  V30 50438 C 4948.92 1.08223 -3.27692 0
M  V30 50439 C 4948.03 0.327921 -4.30754 0
M  V30 50440 C 4947.17 1.30381 -5.14951 0
M  V30 50441 C 4946.21 0.537835 -6.09733 0
M  V30 50442 N 4945.34 1.46346 -6.86678 0
M  V30 50443 H 4950.18 -0.638743 -2.91074 0
M  V30 50444 H 4947.72 -0.326783 -1.43424 0
M  V30 50445 H 4949.68 1.66675 -3.8246 0
M  V30 50446 H 4948.31 1.78514 -2.68947 0
M  V30 50447 H 4947.36 -0.372269 -3.78574 0
M  V30 50448 H 4948.67 -0.269317 -4.98072 0
M  V30 50449 H 4947.83 1.96012 -5.74164 0
M  V30 50450 H 4946.57 1.93498 -4.47671 0
M  V30 50451 H 4945.57 -0.132046 -5.49641 0
M  V30 50452 H 4946.8 -0.0884119 -6.79042 0
M  V30 50453 H 4944.74 2.08211 -6.22081 0
M  V30 50454 H 4944.66 0.919889 -7.50383 0
M  V30 50455 H 4945.93 2.10906 -7.50426 0
M  V30 50456 N 4950.16 1.53519 -0.356339 0
M  V30 50457 C 4951.41 2.00299 0.237302 0
M  V30 50458 C 4951.72 1.24789 1.50622 0
M  V30 50459 O 4952.92 1.62111 2.1779 0
M  V30 50460 C 4951.38 3.56773 0.47342 0
M  V30 50461 C 4950.99 4.41152 -0.780338 0
M  V30 50462 C 4952.73 4.11934 1.02522 0
M  V30 50463 C 4950.64 5.89159 -0.514315 0
M  V30 50464 H 4949.57 0.748311 0.0924517 0
M  V30 50465 H 4952.22 1.77282 -0.47365 0
M  V30 50466 H 4950.6 3.75907 1.2454 0
M  V30 50467 H 4951.78 4.33791 -1.5544 0
M  V30 50468 H 4950.09 3.97047 -1.25469 0
M  V30 50469 H 4952.69 5.20137 1.23942 0
M  V30 50470 H 4953.03 3.6595 1.9846 0
M  V30 50471 H 4953.56 3.96562 0.313635 0
M  V30 50472 H 4950.3 6.39402 -1.44377 0
M  V30 50473 H 4949.82 5.99391 0.221422 0
M  V30 50474 H 4951.5 6.46856 -0.13635 0
M  V30 50475 N 4951.63 0.0852704 1.57369 0
M  V30 50476 C 4952.86 -0.58939 1.98328 0
M  V30 50477 C 4953.28 -1.62329 0.964087 0
M  V30 50478 O 4952.63 -1.82438 -0.0475754 0
M  V30 50479 C 4952.69 -1.24592 3.39351 0
M  V30 50480 O 4952.41 -0.253378 4.37367 0
M  V30 50481 C 4953.91 -2.00712 3.95259 0
M  V30 50482 H 4951.13 -0.158761 0.651948 0
M  V30 50483 H 4953.67 0.161656 2.0386 0
M  V30 50484 H 4951.83 -1.94796 3.34863 0
M  V30 50485 H 4952.24 -0.726024 5.19451 0
M  V30 50486 H 4953.71 -2.42022 4.96114 0
M  V30 50487 H 4954.19 -2.86907 3.32537 0
M  V30 50488 H 4954.8 -1.35346 4.03189 0
M  V30 50489 N 4953.11 -1.5647 -0.188372 0
M  V30 50490 C 4954.35 -1.82806 -0.914405 0
M  V30 50491 C 4954.72 -0.663744 -1.80162 0
M  V30 50492 O 4955.92 -0.807149 -2.56395 0
M  V30 50493 C 4954.19 -3.14193 -1.70346 0
M  V30 50494 S 4955.75 -3.61956 -2.48059 0
M  V30 50495 H 4952.57 -0.641508 -0.306576 0
M  V30 50496 H 4955.17 -1.94694 -0.177293 0
M  V30 50497 H 4953.87 -3.96941 -1.04241 0
M  V30 50498 H 4953.4 -3.052 -2.48226 0
M  V30 50499 H 4955.42 -3.27926 -3.72396 0
M  V30 50500 N 4954.59 0.456329 -1.50849 0
M  V30 50501 C 4955.52 1.57171 -1.65446 0
M  V30 50502 C 4956.5 1.54648 -0.502279 0
M  V30 50503 O 4957.69 1.74054 -0.723695 0
M  V30 50504 C 4954.81 2.95757 -1.65062 0
M  V30 50505 C 4953.86 3.16379 -2.86018 0
M  V30 50506 S 4954.69 2.947 -4.47115 0
M  V30 50507 C 4955.85 4.35601 -4.49447 0
M  V30 50508 H 4956.08 1.44552 -2.59792 0
M  V30 50509 H 4953.61 0.644708 -1.40296 0
M  V30 50510 H 4955.57 3.75648 -1.65525 0
M  V30 50511 H 4954.23 3.05754 -0.719261 0
M  V30 50512 H 4953.43 4.17658 -2.82096 0
M  V30 50513 H 4953.03 2.44283 -2.83199 0
M  V30 50514 H 4955.32 5.28488 -4.23918 0
M  V30 50515 H 4956.26 4.44563 -5.51153 0
M  V30 50516 H 4956.67 4.18369 -3.78982 0
M  V30 50517 N 4956.07 1.40675 0.710514 0
M  V30 50518 C 4957.02 1.41524 1.84591 0
M  V30 50519 C 4958.01 0.295102 1.6681 0
M  V30 50520 O 4959.22 0.466392 1.73853 0
M  V30 50521 H 4955.59 0.442488 0.608036 0
M  V30 50522 H 4957.56 2.37244 1.80991 0
M  V30 50523 C 4956.31 1.29969 3.22496 0
M  V30 50524 H 4955.64 2.15441 3.36787 0
M  V30 50525 H 4957.08 1.34622 4.02061 0
M  V30 50526 C 4955.53 0.0104348 3.36898 0
M  V30 50527 O 4956.06 -0.950569 3.90291 0
M  V30 50528 N 4954.27 -0.0607388 2.90537 0
M  V30 50529 H 4953.82 0.72203 2.47274 0
M  V30 50530 H 4953.78 -0.922814 3.00552 0
M  V30 50531 N 4957.55 -0.943255 1.26256 0
M  V30 50532 C 4958.96 -1.50401 1.10619 0
M  V30 50533 C 4959.31 -1.93667 -0.314222 0
M  V30 50534 O 4958.43 -1.79714 -1.20549 0
M  V30 50535 C 4959.03 -2.73329 2.00191 0
M  V30 50536 C 4957.59 -3.25679 1.88707 0
M  V30 50537 C 4956.74 -1.98467 1.93665 0
M  V30 50538 H 4959.69 -0.758957 1.39375 0
M  V30 50539 H 4959.71 -3.47562 1.54859 0
M  V30 50540 H 4959.22 -2.41808 3.03563 0
M  V30 50541 H 4957.32 -3.61995 0.882617 0
M  V30 50542 H 4957.43 -3.92926 2.74128 0
M  V30 50543 H 4955.8 -2.14273 1.37692 0
M  V30 50544 H 4956.58 -1.69279 2.98663 0
M  V30 50545 N 4959.03 -1.08026 -1.14753 0
M  V30 50546 C 4960.25 -0.829017 -1.90111 0
M  V30 50547 C 4960.68 0.612709 -1.77841 0
M  V30 50548 O 4960.03 1.42891 -1.11588 0
M  V30 50549 C 4960.08 -1.25074 -3.38214 0
M  V30 50550 O 4959.19 -0.400263 -4.10453 0
M  V30 50551 H 4958.53 -0.301433 -0.591637 0
M  V30 50552 H 4961.06 -1.44067 -1.45279 0
M  V30 50553 H 4961.07 -1.2299 -3.89021 0
M  V30 50554 H 4959.74 -2.30079 -3.46463 0
M  V30 50555 H 4958.32 -0.484182 -3.69743 0
M  V30 50556 N 4960.5 1.31717 -0.865354 0
M  V30 50557 C 4961.47 2.26917 -0.322707 0
M  V30 50558 C 4962.47 1.52033 0.523698 0
M  V30 50559 O 4963.66 1.70975 0.333667 0
M  V30 50560 C 4960.79 3.3656 0.54222 0
M  V30 50561 H 4961.98 2.76428 -1.16307 0
M  V30 50562 H 4959.53 1.42571 -0.640562 0
M  V30 50563 H 4960.27 2.92334 1.40397 0
M  V30 50564 H 4960.05 3.92048 -0.0637773 0
M  V30 50565 H 4961.54 4.07468 0.914317 0
M  V30 50566 N 4961.98 0.624336 1.44706 0
M  V30 50567 C 4963.21 0.132799 2.06173 0
M  V30 50568 C 4963.62 -1.19508 1.46678 0
M  V30 50569 O 4962.96 -1.74252 0.581552 0
M  V30 50570 C 4963.02 -0.0635469 3.59444 0
M  V30 50571 C 4962.69 1.18511 4.41366 0
M  V30 50572 C 4963.69 2.10723 4.75281 0
M  V30 50573 C 4961.37 1.41863 4.81851 0
M  V30 50574 C 4963.36 3.24601 5.48555 0
M  V30 50575 C 4961.05 2.56039 5.54876 0
M  V30 50576 C 4962.05 3.47235 5.88147 0
M  V30 50577 O 4961.74 4.59422 6.59687 0
M  V30 50578 H 4961.47 0.073755 0.671964 0
M  V30 50579 H 4964.02 0.856855 1.86674 0
M  V30 50580 H 4962.25 -0.842676 3.77407 0
M  V30 50581 H 4963.94 -0.508783 4.02699 0
M  V30 50582 H 4964.71 1.93914 4.44548 0
M  V30 50583 H 4960.59 0.717716 4.55379 0
M  V30 50584 H 4964.13 3.95805 5.74442 0
M  V30 50585 H 4960.03 2.72794 5.85024 0
M  V30 50586 H 4960.8 4.58317 6.7815 0
M  V30 50587 N 4963.46 -1.53328 0.364476 0
M  V30 50588 C 4964.39 -2.23288 -0.517214 0
M  V30 50589 C 4965.4 -1.24661 -1.04707 0
M  V30 50590 O 4966.59 -1.50891 -0.953637 0
M  V30 50591 C 4963.69 -2.9161 -1.72675 0
M  V30 50592 C 4962.87 -4.16734 -1.32858 0
M  V30 50593 C 4961.93 -4.68277 -2.40006 0
M  V30 50594 O 4960.95 -5.31983 -2.02442 0
M  V30 50595 N 4962.15 -4.45996 -3.71575 0
M  V30 50596 H 4964.92 -2.99588 0.0820444 0
M  V30 50597 H 4962.48 -1.60786 0.1896 0
M  V30 50598 H 4964.47 -3.23001 -2.43829 0
M  V30 50599 H 4963.04 -2.1877 -2.2329 0
M  V30 50600 H 4962.26 -3.91658 -0.446931 0
M  V30 50601 H 4963.55 -4.98082 -1.03884 0
M  V30 50602 H 4962.95 -3.95091 -4.0487 0
M  V30 50603 H 4961.5 -4.81939 -4.38837 0
M  V30 50604 N 4964.94 -0.0936148 -1.57322 0
M  V30 50605 C 4966.35 0.263036 -1.57418 0
M  V30 50606 C 4966.55 1.68522 -1.10466 0
M  V30 50607 O 4965.61 2.40136 -0.780442 0
M  V30 50608 C 4966.92 0.0528144 -3.00654 0
M  V30 50609 C 4968.47 0.120678 -3.12767 0
M  V30 50610 C 4968.95 -0.0615317 -4.57959 0
M  V30 50611 N 4970.44 -0.00664818 -4.632 0
M  V30 50612 C 4971.17 -0.1229 -5.73268 0
M  V30 50613 N 4970.67 -0.293903 -6.92176 0
M  V30 50614 N 4972.46 -0.0642763 -5.62063 0
M  V30 50615 H 4964.61 -1.02284 -1.8615 0
M  V30 50616 H 4966.87 -0.400731 -0.859139 0
M  V30 50617 H 4966.58 -0.929398 -3.39198 0
M  V30 50618 H 4966.45 0.79577 -3.6871 0
M  V30 50619 H 4968.84 1.09339 -2.74097 0
M  V30 50620 H 4968.92 -0.653743 -2.47305 0
M  V30 50621 H 4968.57 -1.03111 -4.97323 0
M  V30 50622 H 4968.5 0.732564 -5.2148 0
M  V30 50623 H 4970.99 0.12304 -3.777 0
M  V30 50624 H 4971.3 -0.374161 -7.71894 0
M  V30 50625 H 4969.65 -0.329552 -6.94218 0
M  V30 50626 H 4972.84 0.0681751 -4.6805 0
M  V30 50627 H 4973.01 -0.158325 -6.47807 0
M  V30 50628 N 4966.42 1.56568 0.180071 0
M  V30 50629 C 4967.64 1.85622 0.913907 0
M  V30 50630 C 4968.06 0.677954 1.76208 0
M  V30 50631 O 4967.42 -0.353108 1.79051 0
M  V30 50632 C 4967.47 3.13625 1.79782 0
M  V30 50633 O 4967.19 4.26909 0.98387 0
M  V30 50634 C 4968.69 3.55964 2.64206 0
M  V30 50635 H 4965.91 0.616053 0.265933 0
M  V30 50636 H 4968.45 2.03681 0.1828 0
M  V30 50637 H 4966.61 2.97418 2.48237 0
M  V30 50638 H 4967.02 4.99896 1.58758 0
M  V30 50639 H 4968.5 4.48455 3.21857 0
M  V30 50640 H 4968.97 2.79665 3.38651 0
M  V30 50641 H 4969.58 3.74753 2.01098 0
M  V30 50642 N 4967.89 -0.448323 1.51089 0
M  V30 50643 C 4969.12 -1.2196 1.66762 0
M  V30 50644 C 4969.53 -1.85747 0.359818 0
M  V30 50645 O 4968.88 -1.71025 -0.670544 0
M  V30 50646 C 4968.94 -2.35274 2.71821 0
M  V30 50647 C 4968.6 -1.91943 4.14737 0
M  V30 50648 C 4969.6 -1.42904 4.99875 0
M  V30 50649 C 4967.28 -1.99969 4.60779 0
M  V30 50650 C 4969.28 -1.02463 6.29111 0
M  V30 50651 C 4966.96 -1.5914 5.90015 0
M  V30 50652 C 4967.96 -1.10467 6.74007 0
M  V30 50653 O 4967.65 -0.702131 8.00828 0
M  V30 50654 H 4967.38 -0.374105 0.563047 0
M  V30 50655 H 4969.94 -0.538858 1.98206 0
M  V30 50656 H 4968.17 -3.06591 2.35667 0
M  V30 50657 H 4969.86 -2.97174 2.76482 0
M  V30 50658 H 4970.62 -1.36106 4.65511 0
M  V30 50659 H 4966.5 -2.368 3.95534 0
M  V30 50660 H 4970.04 -0.644027 6.94621 0
M  V30 50661 H 4965.94 -1.65604 6.23896 0
M  V30 50662 H 4966.71 -0.828962 8.14291 0
M  V30 50663 N 4969.37 -1.4105 -0.703043 0
M  V30 50664 C 4970.6 -1.43542 -1.49701 0
M  V30 50665 C 4971.02 -0.0402514 -1.88057 0
M  V30 50666 O 4970.38 0.954731 -1.54125 0
M  V30 50667 C 4970.43 -2.3434 -2.74075 0
M  V30 50668 O 4969.53 -1.79529 -3.71272 0
M  V30 50669 H 4968.87 -0.48747 -0.450854 0
M  V30 50670 H 4971.4 -1.85425 -0.864795 0
M  V30 50671 H 4971.41 -2.49958 -3.22467 0
M  V30 50672 H 4970.09 -3.35716 -2.45494 0
M  V30 50673 H 4968.67 -1.73321 -3.30173 0
M  V30 50674 N 4970.85 0.936546 -1.26754 0
M  V30 50675 C 4971.78 2.03615 -1.03035 0
M  V30 50676 C 4972.76 1.62534 0.0464048 0
M  V30 50677 O 4973.95 1.8825 -0.0969535 0
M  V30 50678 C 4971.07 3.34018 -0.56119 0
M  V30 50679 C 4970.12 3.94074 -1.63119 0
M  V30 50680 S 4970.95 4.27771 -3.22137 0
M  V30 50681 C 4972.11 5.61267 -2.77001 0
M  V30 50682 H 4972.34 2.23422 -1.96137 0
M  V30 50683 H 4969.87 1.07853 -1.10486 0
M  V30 50684 H 4971.83 4.09423 -0.297175 0
M  V30 50685 H 4970.49 3.12148 0.349631 0
M  V30 50686 H 4969.69 4.8815 -1.25403 0
M  V30 50687 H 4969.29 3.25221 -1.84682 0
M  V30 50688 H 4971.58 6.40181 -2.21754 0
M  V30 50689 H 4972.52 6.03874 -3.69787 0
M  V30 50690 H 4972.93 5.21366 -2.1642 0
M  V30 50691 N 4972.33 1.08633 1.14178 0
M  V30 50692 C 4973.28 0.718376 2.19335 0
M  V30 50693 C 4974.25 -0.296529 1.63432 0
M  V30 50694 O 4975.43 -0.180013 1.89949 0
M  V30 50695 C 4972.57 0.136325 3.44831 0
M  V30 50696 C 4971.68 1.20429 4.14875 0
M  V30 50697 C 4970.82 0.585852 5.27959 0
M  V30 50698 C 4969.86 1.63569 5.8984 0
M  V30 50699 N 4968.99 1.03888 6.94371 0
M  V30 50700 H 4973.83 1.61941 2.50158 0
M  V30 50701 H 4971.37 0.809233 1.22841 0
M  V30 50702 H 4973.33 -0.218874 4.16625 0
M  V30 50703 H 4971.96 -0.72801 3.14483 0
M  V30 50704 H 4971.01 1.67688 3.41445 0
M  V30 50705 H 4972.32 1.99975 4.56959 0
M  V30 50706 H 4971.48 0.179031 6.06436 0
M  V30 50707 H 4970.22 -0.241248 4.87103 0
M  V30 50708 H 4969.22 2.05215 5.10066 0
M  V30 50709 H 4970.45 2.46531 6.32771 0
M  V30 50710 H 4968.39 0.232918 6.55586 0
M  V30 50711 H 4968.31 1.77142 7.34954 0
M  V30 50712 H 4969.58 0.657997 7.76718 0
M  V30 50713 N 4973.81 -1.31256 0.872327 0
M  V30 50714 C 4975.04 -2.00502 0.498254 0
M  V30 50715 C 4975.44 -1.65635 -0.91442 0
M  V30 50716 O 4974.79 -0.882906 -1.61091 0
M  V30 50717 C 4974.85 -3.54818 0.578319 0
M  V30 50718 C 4974.51 -4.13165 1.95303 0
M  V30 50719 C 4975.51 -4.30096 2.92084 0
M  V30 50720 C 4973.2 -4.48838 2.25498 0
M  V30 50721 C 4975.19 -4.81894 4.17202 0
M  V30 50722 C 4972.88 -5.00337 3.50865 0
M  V30 50723 C 4973.87 -5.16815 4.46532 0
M  V30 50724 O 4973.56 -5.67207 5.69676 0
M  V30 50725 H 4973.29 -0.648049 0.192377 0
M  V30 50726 H 4975.85 -1.68406 1.17594 0
M  V30 50727 H 4974.08 -3.86384 -0.156302 0
M  V30 50728 H 4975.77 -4.05318 0.217335 0
M  V30 50729 H 4976.53 -4.02852 2.70065 0
M  V30 50730 H 4972.41 -4.35287 1.51811 0
M  V30 50731 H 4975.96 -4.94671 4.9188 0
M  V30 50732 H 4971.85 -5.27015 3.72727 0
M  V30 50733 H 4972.62 -5.85572 5.71881 0
M  V30 50734 N 4975.28 -0.632002 -1.44373 0
M  V30 50735 C 4976.53 -0.136838 -2.02037 0
M  V30 50736 C 4976.86 1.24162 -1.49713 0
M  V30 50737 O 4976.11 1.83807 -0.671827 0
M  V30 50738 C 4976.41 -0.0737117 -3.57324 0
M  V30 50739 C 4976.08 -1.39107 -4.28906 0
M  V30 50740 C 4974.74 -1.75187 -4.48177 0
M  V30 50741 C 4977.09 -2.26059 -4.69624 0
M  V30 50742 C 4974.42 -2.97925 -5.05428 0
M  V30 50743 C 4976.77 -3.48068 -5.28234 0
M  V30 50744 C 4975.44 -3.8437 -5.45725 0
M  V30 50745 H 4974.71 -0.0500726 -0.739306 0
M  V30 50746 H 4977.35 -0.81849 -1.73127 0
M  V30 50747 H 4975.66 0.691313 -3.85653 0
M  V30 50748 H 4977.36 0.32595 -3.99673 0
M  V30 50749 H 4973.95 -1.1003 -4.14236 0
M  V30 50750 H 4978.13 -1.99479 -4.54447 0
M  V30 50751 H 4973.39 -3.26126 -5.17157 0
M  V30 50752 H 4977.56 -4.15678 -5.58735 0
M  V30 50753 H 4975.19 -4.79559 -5.89854 0
M  V30 50754 N 4976.76 1.53132 -0.372602 0
M  V30 50755 C 4977.71 2.25952 0.470551 0
M  V30 50756 C 4978.68 1.26899 1.07172 0
M  V30 50757 O 4979.86 1.55695 1.10289 0
M  V30 50758 C 4977 3.05732 1.60069 0
M  V30 50759 C 4976.12 4.19688 1.02401 0
M  V30 50760 C 4975.25 4.86895 2.12383 0
M  V30 50761 C 4974.29 5.92871 1.52217 0
M  V30 50762 N 4973.43 6.53741 2.56061 0
M  V30 50763 H 4978.27 2.97587 -0.15692 0
M  V30 50764 H 4975.81 1.46829 -0.0892088 0
M  V30 50765 H 4977.76 3.50266 2.26649 0
M  V30 50766 H 4976.39 2.36339 2.19872 0
M  V30 50767 H 4975.45 3.79589 0.248292 0
M  V30 50768 H 4976.76 4.95823 0.544192 0
M  V30 50769 H 4975.91 5.34648 2.86769 0
M  V30 50770 H 4974.65 4.10248 2.63719 0
M  V30 50771 H 4973.66 5.44473 0.763494 0
M  V30 50772 H 4974.88 6.71442 1.01697 0
M  V30 50773 H 4972.83 5.79943 3.06597 0
M  V30 50774 H 4972.74 7.25437 2.12786 0
M  V30 50775 H 4974.01 7.06142 3.30127 0
M  V30 50776 N 4978.24 0.101957 1.5727 0
M  V30 50777 C 4979.19 -0.871958 2.15638 0
M  V30 50778 C 4980.18 -1.28738 1.10104 0
M  V30 50779 O 4981.39 -1.26111 1.28437 0
M  V30 50780 H 4977.76 -0.299245 0.689896 0
M  V30 50781 H 4979.73 -0.355033 2.9628 0
M  V30 50782 C 4978.48 -2.11877 2.75687 0
M  V30 50783 H 4977.81 -1.80801 3.56583 0
M  V30 50784 H 4979.25 -2.78065 3.20087 0
M  V30 50785 C 4977.71 -2.89733 1.7192 0
M  V30 50786 O 4978.24 -3.84518 1.16227 0
M  V30 50787 N 4976.44 -2.53402 1.42253 0
M  V30 50788 H 4975.99 -1.76392 1.87733 0
M  V30 50789 H 4975.95 -3.05793 0.730636 0
M  V30 50790 N 4979.72 -1.56661 -0.171765 0
M  V30 50791 C 4980.94 -1.86463 -0.9081 0
M  V30 50792 C 4981.37 -0.688243 -1.75057 0
M  V30 50793 O 4980.73 0.36269 -1.77635 0
M  V30 50794 C 4980.77 -3.14676 -1.76101 0
M  V30 50795 O 4979.88 -2.96868 -2.86258 0
M  V30 50796 H 4979.22 -0.613327 -0.254412 0
M  V30 50797 H 4981.75 -2.03892 -0.170041 0
M  V30 50798 H 4981.76 -3.46069 -2.16103 0
M  V30 50799 H 4980.43 -3.99909 -1.14219 0
M  V30 50800 H 4979.01 -2.76827 -2.49842 0
M  V30 50801 N 4981.2 0.440304 -1.51324 0
M  V30 50802 C 4982.42 1.2171 -1.67933 0
M  V30 50803 C 4982.85 1.84326 -0.374891 0
M  V30 50804 O 4982.2 1.68678 0.664647 0
M  V30 50805 C 4982.25 2.27904 -2.7945 0
M  V30 50806 O 4981.36 3.33316 -2.42846 0
M  V30 50807 H 4980.7 0.35672 -0.560042 0
M  V30 50808 H 4983.23 0.520347 -1.97873 0
M  V30 50809 H 4983.24 2.72735 -3.03446 0
M  V30 50810 H 4981.91 1.81706 -3.74106 0
M  V30 50811 H 4980.49 2.93982 -2.2941 0
M  V30 50812 N 4982.68 1.41421 0.695553 0
M  V30 50813 C 4983.9 1.44334 1.48937 0
M  V30 50814 C 4984.33 0.050224 1.88033 0
M  V30 50815 O 4983.68 -0.946544 1.54629 0
M  V30 50816 C 4983.73 2.3579 2.72829 0
M  V30 50817 O 4982.84 1.81495 3.70315 0
M  V30 50818 H 4982.18 0.489854 0.448263 0
M  V30 50819 H 4984.71 1.85881 0.854949 0
M  V30 50820 H 4984.72 2.51665 3.21137 0
M  V30 50821 H 4983.39 3.37014 2.4371 0
M  V30 50822 H 4981.97 1.7507 3.29249 0
M  V30 50823 N 4984.15 -0.929811 1.27249 0
M  V30 50824 C 4985.12 -2.01168 1.09836 0
M  V30 50825 C 4986.12 -1.60742 0.0430252 0
M  V30 50826 O 4987.31 -1.71812 0.287434 0
M  V30 50827 C 4984.44 -3.34188 0.673121 0
M  V30 50828 H 4985.63 -2.18047 2.05902 0
M  V30 50829 H 4983.18 -1.11032 1.10007 0
M  V30 50830 H 4983.92 -3.2301 -0.289021 0
M  V30 50831 H 4983.7 -3.64886 1.43528 0
M  V30 50832 H 4985.19 -4.13644 0.573469 0
M  V30 50833 N 4985.63 -1.09237 -1.13601 0
M  V30 50834 C 4986.58 -0.729998 -2.18951 0
M  V30 50835 C 4987.55 0.287858 -1.63587 0
M  V30 50836 O 4988.73 0.169937 -1.90042 0
M  V30 50837 C 4985.87 -0.15461 -3.44753 0
M  V30 50838 C 4984.99 -1.22627 -4.1423 0
M  V30 50839 C 4984.12 -0.613843 -5.27641 0
M  V30 50840 C 4983.16 -1.66695 -5.88965 0
M  V30 50841 N 4982.3 -1.07569 -6.93811 0
M  V30 50842 H 4987.14 -1.63265 -2.49296 0
M  V30 50843 H 4984.67 -0.815736 -1.2241 0
M  V30 50844 H 4986.63 0.196777 -4.16736 0
M  V30 50845 H 4985.26 0.711322 -3.14865 0
M  V30 50846 H 4984.31 -1.69497 -3.40551 0
M  V30 50847 H 4985.63 -2.02396 -4.55892 0
M  V30 50848 H 4984.78 -0.211189 -6.06332 0
M  V30 50849 H 4983.52 0.215413 -4.87224 0
M  V30 50850 H 4982.52 -2.07917 -5.0897 0
M  V30 50851 H 4983.75 -2.49883 -6.31455 0
M  V30 50852 H 4981.7 -0.267682 -6.55454 0
M  V30 50853 H 4981.61 -1.81037 -7.34004 0
M  V30 50854 H 4982.88 -0.699179 -7.76358 0
M  V30 50855 N 4987.11 1.30792 -0.879276 0
M  V30 50856 C 4988.39 1.91143 -0.415153 0
M  V30 50857 C 4988.77 1.79954 1.10362 0
M  V30 50858 O 4988.11 1.21312 1.93638 0
M  V30 50859 C 4988.32 3.37011 -0.906897 0
M  V30 50860 C 4989.67 4.14098 -0.938503 0
M  V30 50861 O 4990.7 3.45831 -0.853175 0
M  V30 50862 O 4989.56 5.3605 -1.06361 0
M  V30 50863 H 4986.65 0.817355 -0.125934 0
M  V30 50864 H 4989.2 1.39398 -0.967802 0
M  V30 50865 H 4987.97 3.39213 -1.95065 0
M  V30 50866 H 4987.59 3.96202 -0.333088 0
M  V30 50867 N 4988.59 0.639649 1.44036 0
M  V30 50868 C 4989.54 -0.0722592 2.32488 0
M  V30 50869 C 4990.53 -0.827077 1.47837 0
M  V30 50870 O 4991.74 -0.739012 1.6413 0
M  V30 50871 H 4988.11 -0.0421432 0.750818 0
M  V30 50872 H 4990.08 0.691695 2.90273 0
M  V30 50873 C 4988.83 -1.0344 3.31957 0
M  V30 50874 H 4988.15 -0.46301 3.9711 0
M  V30 50875 H 4989.59 -1.50186 3.9651 0
M  V30 50876 C 4988.05 -2.12382 2.61525 0
M  V30 50877 O 4988.58 -3.20581 2.42055 0
M  V30 50878 N 4986.79 -1.88556 2.21123 0
M  V30 50879 H 4986.34 -1.00568 2.37158 0
M  V30 50880 H 4986.29 -2.61645 1.74325 0
M  V30 50881 N 4990.07 -1.52932 0.380717 0
M  V30 50882 C 4991.29 -2.06364 -0.207084 0
M  V30 50883 C 4991.72 -1.25127 -1.40445 0
M  V30 50884 O 4991.07 -0.274125 -1.79216 0
M  V30 50885 C 4991.12 -3.56164 -0.563871 0
M  V30 50886 O 4990.23 -3.77558 -1.65904 0
M  V30 50887 H 4989.57 -0.663468 -0.0265626 0
M  V30 50888 H 4992.1 -1.97188 0.545704 0
M  V30 50889 H 4992.11 -3.99456 -0.830612 0
M  V30 50890 H 4990.78 -4.14731 0.311572 0
M  V30 50891 H 4989.36 -3.46159 -1.38667 0
M  V30 50892 N 4991.54 -0.110296 -1.57214 0
M  V30 50893 C 4992.79 0.54957 -1.94069 0
M  V30 50894 C 4993.11 1.68384 -0.995293 0
M  V30 50895 O 4994.31 2.40588 -1.25815 0
M  V30 50896 C 4992.77 1.029 -3.44876 0
M  V30 50897 C 4992.38 -0.0763436 -4.47935 0
M  V30 50898 C 4994.12 1.66073 -3.90666 0
M  V30 50899 C 4992.03 0.419295 -5.89912 0
M  V30 50900 H 4990.96 0.209066 -0.724436 0
M  V30 50901 H 4993.61 -0.188747 -1.82527 0
M  V30 50902 H 4991.99 1.82147 -3.51623 0
M  V30 50903 H 4993.16 -0.852344 -4.52848 0
M  V30 50904 H 4991.48 -0.614197 -4.11845 0
M  V30 50905 H 4994.08 2.04255 -4.9415 0
M  V30 50906 H 4994.42 2.53579 -3.30156 0
M  V30 50907 H 4994.95 0.933823 -3.86684 0
M  V30 50908 H 4991.69 -0.419507 -6.54156 0
M  V30 50909 H 4991.21 1.16197 -5.88437 0
M  V30 50910 H 4992.89 0.883352 -6.40941 0
M  V30 50911 N 4993.02 1.5675 0.163455 0
M  V30 50912 C 4993.97 1.97944 1.22152 0
M  V30 50913 C 4994.96 0.86934 1.45392 0
M  V30 50914 O 4996.17 1.05448 1.45879 0
M  V30 50915 H 4992.54 0.629883 0.410793 0
M  V30 50916 H 4994.52 2.86118 0.84728 0
M  V30 50917 C 4993.26 2.36215 2.55143 0
M  V30 50918 H 4992.59 3.21178 2.38085 0
M  V30 50919 H 4994.03 2.68875 3.27845 0
M  V30 50920 C 4992.49 1.20852 3.14478 0
M  V30 50921 O 4993.02 0.500398 3.98571 0
M  V30 50922 N 4991.22 0.977039 2.73683 0
M  V30 50923 H 4990.77 1.55464 2.05399 0
M  V30 50924 H 4990.73 0.207022 3.13718 0
M  V30 50925 N 4994.5 -0.432272 1.51556 0
M  V30 50926 C 4995.73 -1.20359 1.6829 0
M  V30 50927 C 4996.14 -1.84887 0.382395 0
M  V30 50928 O 4995.5 -1.70926 -0.639567 0
M  V30 50929 C 4995.55 -2.28388 2.80216 0
M  V30 50930 O 4995.27 -1.66498 4.05228 0
M  V30 50931 C 4996.77 -3.18573 3.08263 0
M  V30 50932 H 4993.99 -0.362571 0.564609 0
M  V30 50933 H 4996.54 -0.511577 1.97998 0
M  V30 50934 H 4994.69 -2.93296 2.53093 0
M  V30 50935 H 4995.11 -2.37934 4.67427 0
M  V30 50936 H 4996.58 -3.90498 3.90148 0
M  V30 50937 H 4997.06 -3.7962 2.20874 0
M  V30 50938 H 4997.66 -2.59361 3.37064 0
M  V30 50939 N 4995.98 -1.41788 -0.688044 0
M  V30 50940 C 4997.2 -1.45122 -1.4817 0
M  V30 50941 C 4997.63 -0.0601951 -1.88004 0
M  V30 50942 O 4996.99 0.93833 -1.55129 0
M  V30 50943 C 4997.03 -2.37233 -2.71574 0
M  V30 50944 O 4996.14 -1.83456 -3.69347 0
M  V30 50945 H 4995.48 -0.492224 -0.445658 0
M  V30 50946 H 4998.01 -1.86332 -0.845079 0
M  V30 50947 H 4998.02 -2.53365 -3.19797 0
M  V30 50948 H 4996.69 -3.38301 -2.4192 0
M  V30 50949 H 4995.27 -1.76813 -3.28316 0
M  V30 50950 N 4997.46 0.92305 -1.2774 0
M  V30 50951 C 4998.4 2.02428 -1.10867 0
M  V30 50952 C 4999.37 1.66098 -0.00841034 0
M  V30 50953 O 5000.56 1.90027 -0.171609 0
M  V30 50954 C 4997.7 3.36473 -0.766789 0
M  V30 50955 C 4996.81 3.8573 -1.94515 0
M  V30 50956 C 4995.95 5.08243 -1.54473 0
M  V30 50957 C 4994.99 5.49809 -2.6903 0
M  V30 50958 N 4994.12 6.63516 -2.29544 0
M  V30 50959 H 4998.96 2.16193 -2.05096 0
M  V30 50960 H 4996.5 1.05905 -1.02091 0
M  V30 50961 H 4998.46 4.13567 -0.549369 0
M  V30 50962 H 4997.09 3.22502 0.138557 0
M  V30 50963 H 4996.14 3.04875 -2.27497 0
M  V30 50964 H 4997.45 4.12503 -2.80434 0
M  V30 50965 H 4996.61 5.92853 -1.28883 0
M  V30 50966 H 4995.34 4.83258 -0.656704 0
M  V30 50967 H 4994.35 4.63746 -2.95329 0
M  V30 50968 H 4995.57 5.76787 -3.58461 0
M  V30 50969 H 4993.52 6.4018 -1.43199 0
M  V30 50970 H 4993.44 6.89967 -3.09001 0
M  V30 50971 H 4994.71 7.51454 -2.07213 0
M  V30 50972 N 4998.93 1.09838 1.1302 0
M  V30 50973 C 4999.88 0.710975 2.16631 0
M  V30 50974 C 5000.87 -0.276781 1.58502 0
M  V30 50975 O 5002.06 -0.0864836 1.76789 0
M  V30 50976 C 4999.19 0.137694 3.43024 0
M  V30 50977 C 4998.28 1.15212 4.08151 0
M  V30 50978 N 4998.67 2.3407 4.4838 0
M  V30 50979 C 4996.96 0.991227 4.34846 0
M  V30 50980 C 4997.67 2.98634 4.99192 0
M  V30 50981 N 4996.64 2.26176 4.94313 0
M  V30 50982 H 5000.44 1.61585 2.45494 0
M  V30 50983 H 4997.96 0.975204 1.2986 0
M  V30 50984 H 4999.95 -0.157885 4.16601 0
M  V30 50985 H 4998.61 -0.761977 3.15633 0
M  V30 50986 H 4999.63 2.71635 4.40948 0
M  V30 50987 H 4996.3 0.146595 4.17243 0
M  V30 50988 H 4997.69 3.99702 5.40082 0
M  V30 50989 N 5000.41 -1.30324 0.8862 0
M  V30 50990 C 5001.69 -1.90921 0.425284 0
M  V30 50991 C 5002.07 -1.80537 -1.09406 0
M  V30 50992 O 5001.42 -1.22337 -1.92992 0
M  V30 50993 C 5001.63 -3.36525 0.924756 0
M  V30 50994 C 5002.98 -4.13595 0.960451 0
M  V30 50995 O 5004 -3.45374 0.871503 0
M  V30 50996 O 5002.86 -5.35478 1.09203 0
M  V30 50997 H 4999.95 -0.816676 0.130267 0
M  V30 50998 H 5002.5 -1.38882 0.975181 0
M  V30 50999 H 5001.27 -3.38174 1.96861 0
M  V30 51000 H 5000.89 -3.9602 0.354094 0
M  V30 51001 N 5001.89 -0.647279 -1.43694 0
M  V30 51002 C 5002.84 0.070139 -2.27892 0
M  V30 51003 C 5003.82 0.800552 -1.39571 0
M  V30 51004 O 5005.02 0.683997 -1.6325 0
M  V30 51005 C 5002.15 1.03997 -3.27169 0
M  V30 51006 C 5001.23 0.308335 -4.22978 0
M  V30 51007 N 5001.62 -0.671898 -5.01317 0
M  V30 51008 C 4999.92 0.550595 -4.42588 0
M  V30 51009 C 5000.62 -1.10563 -5.71096 0
M  V30 51010 N 4999.6 -0.441094 -5.41807 0
M  V30 51011 H 5003.4 -0.682131 -2.85874 0
M  V30 51012 H 5000.91 -0.474076 -1.55326 0
M  V30 51013 H 5002.91 1.56867 -3.86262 0
M  V30 51014 H 5001.57 1.79236 -2.70748 0
M  V30 51015 H 5002.58 -1.05038 -5.07136 0
M  V30 51016 H 4999.26 1.28462 -3.97245 0
M  V30 51017 H 5000.65 -1.91637 -6.43991 0
M  V30 51018 N 5003.37 1.52728 -0.388822 0
M  V30 51019 C 5004.78 1.59553 -0.038761 0
M  V30 51020 C 5004.98 1.40284 1.44647 0
M  V30 51021 O 5004.04 1.21959 2.21093 0
M  V30 51022 C 5005.35 2.96248 -0.515513 0
M  V30 51023 C 5006.9 3.09425 -0.471729 0
M  V30 51024 C 5007.38 4.48569 -0.924663 0
M  V30 51025 N 5008.87 4.54751 -0.880656 0
M  V30 51026 C 5009.6 5.60648 -1.20254 0
M  V30 51027 N 5009.1 6.74193 -1.59486 0
M  V30 51028 N 5010.89 5.50751 -1.12382 0
M  V30 51029 H 5003.04 1.63503 -1.35575 0
M  V30 51030 H 5005.31 0.768078 -0.555663 0
M  V30 51031 H 5005.01 3.15564 -1.55282 0
M  V30 51032 H 5004.89 3.77103 0.0856595 0
M  V30 51033 H 5007.27 2.89806 0.556486 0
M  V30 51034 H 5007.35 2.30524 -1.1087 0
M  V30 51035 H 5007 4.68929 -1.95111 0
M  V30 51036 H 5006.93 5.25934 -0.264709 0
M  V30 51037 H 5009.42 3.73235 -0.591946 0
M  V30 51038 H 5009.73 7.50963 -1.82412 0
M  V30 51039 H 5008.08 6.75525 -1.63372 0
M  V30 51040 H 5011.27 4.60927 -0.816331 0
M  V30 51041 H 5011.44 6.33179 -1.37799 0
M  V30 51042 N 5004.85 0.118632 1.57153 0
M  V30 51043 C 5006.09 -0.534009 1.96265 0
M  V30 51044 C 5006.45 -1.64313 1.00096 0
M  V30 51045 O 5005.74 -1.91575 0.0309256 0
M  V30 51046 C 5005.93 -1.11291 3.39631 0
M  V30 51047 C 5005.76 -0.0614043 4.49658 0
M  V30 51048 C 5004.53 0.37028 5.03941 0
M  V30 51049 C 5006.73 0.719428 5.09243 0
M  V30 51050 N 5004.71 1.40759 5.97545 0
M  V30 51051 C 5006.08 1.60795 5.98786 0
M  V30 51052 C 5008.14 0.770356 4.91904 0
M  V30 51053 C 5006.84 2.54296 6.72849 0
M  V30 51054 C 5008.87 1.69308 5.66647 0
M  V30 51055 C 5008.23 2.56917 6.55876 0
M  V30 51056 H 5004.33 -0.165046 0.764385 0
M  V30 51057 H 5006.91 0.206664 1.936 0
M  V30 51058 H 5005.08 -1.8233 3.42944 0
M  V30 51059 H 5006.82 -1.72983 3.65867 0
M  V30 51060 H 5003.57 -0.0220456 4.73595 0
M  V30 51061 H 5004 1.92516 6.49051 0
M  V30 51062 H 5008.64 0.107148 4.22664 0
M  V30 51063 H 5006.36 3.21631 7.41336 0
M  V30 51064 H 5009.94 1.73792 5.55237 0
M  V30 51065 H 5008.82 3.27156 7.12698 0
M  V30 51066 N 5006.32 -1.56835 -0.15514 0
M  V30 51067 C 5007.55 -1.87415 -0.888272 0
M  V30 51068 C 5007.97 -0.706771 -1.74317 0
M  V30 51069 O 5007.33 0.343829 -1.7801 0
M  V30 51070 C 5007.38 -3.16526 -1.72754 0
M  V30 51071 O 5006.48 -2.99887 -2.83093 0
M  V30 51072 H 5005.83 -0.615991 -0.247893 0
M  V30 51073 H 5008.36 -2.04061 -0.148406 0
M  V30 51074 H 5008.37 -3.48341 -2.1242 0
M  V30 51075 H 5007.04 -4.01098 -1.09971 0
M  V30 51076 H 5005.62 -2.79462 -2.46892 0
M  V30 51077 N 5007.8 0.424229 -1.51783 0
M  V30 51078 C 5009.22 0.761719 -1.4025 0
M  V30 51079 C 5009.42 1.95323 -0.49511 0
M  V30 51080 O 5008.47 2.5246 0.0448062 0
M  V30 51081 C 5009.79 1.0298 -2.82517 0
M  V30 51082 C 5011.34 1.13344 -2.91757 0
M  V30 51083 C 5011.81 1.43438 -4.34959 0
M  V30 51084 N 5013.3 1.50334 -4.38125 0
M  V30 51085 C 5014.04 1.75217 -5.45973 0
M  V30 51086 N 5013.53 1.97804 -6.63962 0
M  V30 51087 N 5015.33 1.77107 -5.33469 0
M  V30 51088 H 5007.48 -0.360301 -2.09322 0
M  V30 51089 H 5009.74 -0.0988459 -0.942833 0
M  V30 51090 H 5009.45 0.226838 -3.50968 0
M  V30 51091 H 5009.32 1.954 -3.22643 0
M  V30 51092 H 5011.71 1.92701 -2.23496 0
M  V30 51093 H 5011.79 0.187952 -2.55109 0
M  V30 51094 H 5011.43 0.646032 -5.03775 0
M  V30 51095 H 5011.36 2.39214 -4.69131 0
M  V30 51096 H 5013.85 1.3473 -3.53067 0
M  V30 51097 H 5014.17 2.16197 -7.41942 0
M  V30 51098 H 5012.51 1.95099 -6.67054 0
M  V30 51099 H 5015.7 1.58989 -4.40273 0
M  V30 51100 H 5015.87 1.96161 -6.17596 0
M  V30 51101 N 5009.28 1.4215 0.680515 0
M  V30 51102 C 5010.7 1.24951 0.992951 0
M  V30 51103 C 5010.9 0.149598 2.00944 0
M  V30 51104 O 5009.95 -0.481058 2.47875 0
M  V30 51105 C 5011.27 2.60431 1.50321 0
M  V30 51106 C 5012.81 2.67738 1.62127 0
M  V30 51107 C 5013.29 4.03571 2.16551 0
M  V30 51108 N 5014.78 4.05496 2.23891 0
M  V30 51109 C 5015.51 5.0741 2.67063 0
M  V30 51110 N 5015.01 6.19709 3.09729 0
M  V30 51111 N 5016.8 4.94768 2.66761 0
M  V30 51112 H 5008.95 2.12399 0.00740413 0
M  V30 51113 H 5011.22 0.945712 0.0658197 0
M  V30 51114 H 5010.92 3.41746 0.830827 0
M  V30 51115 H 5010.8 2.83957 2.4829 0
M  V30 51116 H 5013.18 1.86773 2.28473 0
M  V30 51117 H 5013.27 2.48006 0.626626 0
M  V30 51118 H 5012.91 4.84992 1.50816 0
M  V30 51119 H 5012.84 4.20652 3.16796 0
M  V30 51120 H 5015.33 3.24422 1.93801 0
M  V30 51121 H 5015.64 6.9333 3.41341 0
M  V30 51122 H 5013.99 6.23223 3.07601 0
M  V30 51123 H 5017.18 4.06113 2.32787 0
M  V30 51124 H 5017.35 5.74327 3.00087 0
M  V30 51125 N 5010.76 -0.916262 1.28228 0
M  V30 51126 C 5012 -1.6679 1.16416 0
M  V30 51127 C 5012.36 -1.90279 -0.284919 0
M  V30 51128 O 5011.65 -1.49027 -1.20422 0
M  V30 51129 C 5011.85 -3.03119 1.89351 0
M  V30 51130 C 5011.68 -2.92935 3.41202 0
M  V30 51131 C 5010.45 -2.94595 4.10538 0
M  V30 51132 C 5012.64 -2.71195 4.36987 0
M  V30 51133 N 5010.63 -2.74974 5.48874 0
M  V30 51134 C 5012 -2.60391 5.62669 0
M  V30 51135 C 5014.05 -2.56172 4.26943 0
M  V30 51136 C 5012.75 -2.36096 6.79449 0
M  V30 51137 C 5014.78 -2.33256 5.43457 0
M  V30 51138 C 5014.14 -2.23205 6.68101 0
M  V30 51139 H 5010.24 -0.616637 0.480918 0
M  V30 51140 H 5012.83 -1.08231 1.61846 0
M  V30 51141 H 5011 -3.59769 1.46359 0
M  V30 51142 H 5012.73 -3.67288 1.69945 0
M  V30 51143 H 5009.48 -3.05257 3.62098 0
M  V30 51144 H 5009.91 -2.68262 6.21582 0
M  V30 51145 H 5014.55 -2.62695 3.31287 0
M  V30 51146 H 5012.27 -2.28312 7.75177 0
M  V30 51147 H 5015.85 -2.225 5.37573 0
M  V30 51148 H 5014.73 -2.05714 7.56737 0
M  V30 51149 N 5012.24 -1.10435 -1.12436 0
M  V30 51150 C 5013.17 -0.711021 -2.17892 0
M  V30 51151 C 5014.18 0.252259 -1.60834 0
M  V30 51152 O 5015.37 0.0367273 -1.78462 0
M  V30 51153 C 5012.47 -0.0285453 -3.38888 0
M  V30 51154 C 5011.64 -1.016 -4.25436 0
M  V30 51155 C 5010.7 -0.365011 -5.24932 0
M  V30 51156 O 5009.73 -1.01581 -5.60063 0
M  V30 51157 N 5010.93 0.876539 -5.73844 0
M  V30 51158 H 5013.7 -1.61834 -2.52249 0
M  V30 51159 H 5011.26 -0.993177 -1.27858 0
M  V30 51160 H 5013.25 0.418427 -4.02531 0
M  V30 51161 H 5011.82 0.781187 -3.02682 0
M  V30 51162 H 5011.04 -1.64124 -3.58409 0
M  V30 51163 H 5012.33 -1.68442 -4.80109 0
M  V30 51164 H 5011.73 1.42464 -5.47467 0
M  V30 51165 H 5010.28 1.26666 -6.39374 0
M  V30 51166 N 5013.72 1.29852 -0.893099 0
M  V30 51167 C 5014.63 2.3166 -0.370238 0
M  V30 51168 C 5015.64 1.65678 0.531665 0
M  V30 51169 O 5016.82 1.96911 0.422833 0
M  V30 51170 C 5013.88 3.44389 0.39962 0
M  V30 51171 C 5012.94 4.25978 -0.533011 0
M  V30 51172 C 5012.18 5.33324 0.200201 0
M  V30 51173 O 5012.4 5.5231 1.42512 0
M  V30 51174 O 5011.33 6.00186 -0.453879 0
M  V30 51175 H 5015.16 2.7835 -1.2147 0
M  V30 51176 H 5012.74 1.34169 -0.6572 0
M  V30 51177 H 5014.63 4.1304 0.835213 0
M  V30 51178 H 5013.3 2.99819 1.22025 0
M  V30 51179 H 5012.21 3.59995 -1.01758 0
M  V30 51180 H 5013.54 4.74173 -1.31987 0
M  V30 51181 N 5015.19 0.65489 1.43349 0
M  V30 51182 C 5016.42 0.175118 2.06659 0
M  V30 51183 C 5016.84 -1.15099 1.48774 0
M  V30 51184 O 5016.2 -1.71142 0.598339 0
M  V30 51185 C 5016.25 0.0992811 3.60463 0
M  V30 51186 O 5015.35 -0.938028 4.0159 0
M  V30 51187 H 5014.69 0.0956379 0.657076 0
M  V30 51188 H 5017.22 0.898286 1.83826 0
M  V30 51189 H 5017.23 -0.0834886 4.07915 0
M  V30 51190 H 5015.91 1.06733 4.01971 0
M  V30 51191 H 5014.49 -0.727912 3.65726 0
M  V30 51192 N 5016.67 -1.5252 0.396917 0
M  V30 51193 C 5018.09 -1.5953 0.047222 0
M  V30 51194 C 5018.29 -1.41049 -1.43901 0
M  V30 51195 O 5017.34 -1.2313 -2.20443 0
M  V30 51196 C 5018.66 -2.95971 0.531217 0
M  V30 51197 C 5020.2 -3.0917 0.488132 0
M  V30 51198 C 5020.68 -4.48072 0.948439 0
M  V30 51199 N 5022.17 -4.54278 0.90476 0
M  V30 51200 C 5022.91 -5.60003 1.23225 0
M  V30 51201 N 5022.4 -6.73338 1.63059 0
M  V30 51202 N 5024.19 -5.50147 1.15301 0
M  V30 51203 H 5016.35 -1.62781 1.3644 0
M  V30 51204 H 5018.61 -0.76512 0.559728 0
M  V30 51205 H 5018.31 -3.14736 1.56953 0
M  V30 51206 H 5018.19 -3.77143 -0.0656596 0
M  V30 51207 H 5020.58 -2.90097 -0.541109 0
M  V30 51208 H 5020.66 -2.29933 1.12091 0
M  V30 51209 H 5020.3 -4.67888 1.97595 0
M  V30 51210 H 5020.23 -5.25786 0.292597 0
M  V30 51211 H 5022.72 -3.72916 0.611732 0
M  V30 51212 H 5023.03 -7.49985 1.86392 0
M  V30 51213 H 5021.38 -6.74649 1.66953 0
M  V30 51214 H 5024.57 -4.60488 0.840764 0
M  V30 51215 H 5024.74 -6.32439 1.41155 0
M  V30 51216 N 5018.15 -0.126964 -1.57088 0
M  V30 51217 C 5019.57 0.229586 -1.5794 0
M  V30 51218 C 5019.77 1.66141 -1.14016 0
M  V30 51219 O 5018.82 2.38427 -0.831202 0
M  V30 51220 C 5020.13 -0.0109705 -3.00698 0
M  V30 51221 C 5021.68 0.054308 -3.12953 0
M  V30 51222 C 5022.16 -0.158658 -4.57725 0
M  V30 51223 N 5023.65 -0.104898 -4.63081 0
M  V30 51224 C 5024.38 -0.244471 -5.72879 0
M  V30 51225 N 5023.88 -0.440658 -6.91397 0
M  V30 51226 N 5025.67 -0.183484 -5.618 0
M  V30 51227 H 5017.82 -1.06209 -1.83939 0
M  V30 51228 H 5020.09 -0.418864 -0.850445 0
M  V30 51229 H 5019.79 -1.00114 -3.3715 0
M  V30 51230 H 5019.67 0.717382 -3.70315 0
M  V30 51231 H 5022.05 1.03501 -2.76354 0
M  V30 51232 H 5022.13 -0.706053 -2.45863 0
M  V30 51233 H 5021.78 -1.13637 -4.95024 0
M  V30 51234 H 5021.71 0.621786 -5.22916 0
M  V30 51235 H 5024.2 0.042897 -3.77876 0
M  V30 51236 H 5024.51 -0.537807 -7.70926 0
M  V30 51237 H 5022.86 -0.476731 -6.93363 0
M  V30 51238 H 5026.05 -0.0311207 -4.6809 0
M  V30 51239 H 5026.22 -0.295699 -6.47325 0
M  V30 51240 O 5019.67 1.61495 0.0122017 0
M  V30 51241 H 5020.36 1.83151 0.630521 0
M  V30 END ATOM
M  V30 BEGIN BOND
M  V30 END BOND
M  V30 END CTAB
M  END
$$$$
