drugbank_target|P13640 Metallothionein-1G (DB12965)
 OpenBabel12092121043D

803804  0  0  0  0  0  0  0  0999 V2000
   -0.9080    1.9825   -0.1171 H   0  0  0  0  0 15  0  0  0  0  0  0
    0.0000    1.5760    0.0000 N   0  0  0  0  0 15  0  0  0  0  0  0
    0.9330    2.0387    1.0253 C   0  0  0  0  0 15  0  0  0  0  0  0
    1.9110    0.9285    1.3348 C   0  0  0  0  0 15  0  0  0  0  0  0
    3.0950    1.1967    1.4564 O   0  0  0  0  0 15  0  0  0  0  0  0
    0.2220    2.4363    2.3529 C   0  0  0  0  0 15  0  0  0  0  0  0
   -0.7320    3.6537    2.2001 C   0  0  0  0  0 15  0  0  0  0  0  0
    0.1010    5.1329    1.5261 S   0  0  0  0  0 15  0  0  0  0  0  0
    1.2570    5.5632    2.8680 C   0  0  0  0  0 15  0  0  0  0  0  0
    1.4900    2.9052    0.6314 H   0  0  0  0  0 15  0  0  0  0  0  0
   -0.9770    1.5295    0.2109 H   0  0  0  0  0 15  0  0  0  0  0  0
    0.9810    2.6720    3.1163 H   0  0  0  0  0 15  0  0  0  0  0  0
   -0.3580    1.5738    2.7183 H   0  0  0  0  0 15  0  0  0  0  0  0
   -1.1650    3.9094    3.1809 H   0  0  0  0  0 15  0  0  0  0  0  0
   -1.5630    3.4180    1.5182 H   0  0  0  0  0 15  0  0  0  0  0  0
    0.7290    5.5878    3.8310 H   0  0  0  0  0 15  0  0  0  0  0  0
    1.6720    6.5627    2.6593 H   0  0  0  0  0 15  0  0  0  0  0  0
    2.0800    4.8389    2.9071 H   0  0  0  0  0 15  0  0  0  0  0  0
    1.4781   -0.2728    1.5522 N   0  0  0  0  0 15  0  0  0  0  0  0
    2.7551   -1.0256    1.6655 C   0  0  0  0  0 15  0  0  0  0  0  0
    3.1351   -2.0428    0.5322 C   0  0  0  0  0 15  0  0  0  0  0  0
    2.4831   -2.2366   -0.4677 O   0  0  0  0  0 15  0  0  0  0  0  0
    2.6931   -1.6822    3.0578 C   0  0  0  0  0 15  0  0  0  0  0  0
    4.0411   -2.1937    3.6354 C   0  0  0  0  0 15  0  0  0  0  0  0
    5.0651   -1.7821    3.0842 O   0  0  0  0  0 15  0  0  0  0  0  0
    3.9241   -2.9488    4.6012 O   0  0  0  0  0 15  0  0  0  0  0  0
    1.0181   -0.4758    0.6765 H   0  0  0  0  0 15  0  0  0  0  0  0
    3.5641   -0.2686    1.6756 H   0  0  0  0  0 15  0  0  0  0  0  0
    2.3361   -0.9451    3.7971 H   0  0  0  0  0 15  0  0  0  0  0  0
    1.9591   -2.5061    3.0868 H   0  0  0  0  0 15  0  0  0  0  0  0
    2.9562   -1.4816   -0.5373 N   0  0  0  0  0 15  0  0  0  0  0  0
    4.3672   -1.4943   -1.1193 C   0  0  0  0  0 15  0  0  0  0  0  0
    4.7182   -0.2600   -1.9447 C   0  0  0  0  0 15  0  0  0  0  0  0
    3.8432    0.6335   -2.0692 O   0  0  0  0  0 15  0  0  0  0  0  0
    4.4382   -2.7076   -2.0366 C   0  0  0  0  0 15  0  0  0  0  0  0
    2.9972   -2.7492   -2.5709 C   0  0  0  0  0 15  0  0  0  0  0  0
    2.1442   -2.4284   -1.3389 C   0  0  0  0  0 15  0  0  0  0  0  0
    5.0952   -1.5538   -0.3229 H   0  0  0  0  0 15  0  0  0  0  0  0
    5.1162   -2.4886   -2.8783 H   0  0  0  0  0 15  0  0  0  0  0  0
    4.6282   -3.6057   -1.4355 H   0  0  0  0  0 15  0  0  0  0  0  0
    2.7292   -1.8930   -3.2093 H   0  0  0  0  0 15  0  0  0  0  0  0
    2.8422   -3.7616   -2.9672 H   0  0  0  0  0 15  0  0  0  0  0  0
    1.2062   -1.9384   -1.6523 H   0  0  0  0  0 15  0  0  0  0  0  0
    1.9892   -3.3488   -0.7555 H   0  0  0  0  0 15  0  0  0  0  0  0
    4.4343    0.7856   -1.3662 N   0  0  0  0  0 15  0  0  0  0  0  0
    5.3823    1.9198   -1.3133 C   0  0  0  0  0 15  0  0  0  0  0  0
    6.3763    1.6816   -0.2044 C   0  0  0  0  0 15  0  0  0  0  0  0
    7.5823    1.7612   -0.3716 O   0  0  0  0  0 15  0  0  0  0  0  0
    3.9573    0.6311   -0.4089 H   0  0  0  0  0 15  0  0  0  0  0  0
    5.9283    1.9356   -2.2710 H   0  0  0  0  0 15  0  0  0  0  0  0
    4.6773    3.2906   -1.1233 C   0  0  0  0  0 15  0  0  0  0  0  0
    4.0003    3.4795   -1.9690 H   0  0  0  0  0 15  0  0  0  0  0  0
    5.4403    4.0876   -1.1267 H   0  0  0  0  0 15  0  0  0  0  0  0
    3.8993    3.3646    0.1719 C   0  0  0  0  0 15  0  0  0  0  0  0
    4.4293    3.8458    1.1603 O   0  0  0  0  0 15  0  0  0  0  0  0
    2.6353    2.8978    0.2178 N   0  0  0  0  0 15  0  0  0  0  0  0
    2.1823    2.5082   -0.5872 H   0  0  0  0  0 15  0  0  0  0  0  0
    2.1403    2.9512    1.0841 H   0  0  0  0  0 15  0  0  0  0  0  0
    5.9124    1.2097    1.0102 N   0  0  0  0  0 15  0  0  0  0  0  0
    7.1524    1.0351    1.7625 C   0  0  0  0  0 15  0  0  0  0  0  0
    7.5164   -0.4246    1.8725 C   0  0  0  0  0 15  0  0  0  0  0  0
    8.7174   -0.7195    2.5899 O   0  0  0  0  0 15  0  0  0  0  0  0
    6.9884    1.7073    3.1399 C   0  0  0  0  0 15  0  0  0  0  0  0
    8.5474    1.6846    4.0518 S   0  0  0  0  0 15  0  0  0  0  0  0
    5.3654    0.3710    0.6065 H   0  0  0  0  0 15  0  0  0  0  0  0
    7.9674    1.5363    1.2091 H   0  0  0  0  0 15  0  0  0  0  0  0
    6.6714    2.7613    3.0361 H   0  0  0  0  0 15  0  0  0  0  0  0
    6.2024    1.2077    3.7440 H   0  0  0  0  0 15  0  0  0  0  0  0
    8.2174    0.7220    4.9092 H   0  0  0  0  0 15  0  0  0  0  0  0
    7.3905   -1.2043    1.0166 N   0  0  0  0  0 15  0  0  0  0  0  0
    8.6155   -1.9432    0.7249 C   0  0  0  0  0 15  0  0  0  0  0  0
    9.0405   -1.7427   -0.7080 C   0  0  0  0  0 15  0  0  0  0  0  0
    8.3985   -1.0369   -1.4872 O   0  0  0  0  0 15  0  0  0  0  0  0
    8.4465   -3.4449    1.0659 C   0  0  0  0  0 15  0  0  0  0  0  0
    7.5505   -4.1202    0.1776 O   0  0  0  0  0 15  0  0  0  0  0  0
    6.8915   -0.6071    0.2690 H   0  0  0  0  0 15  0  0  0  0  0  0
    9.4215   -1.5286    1.3600 H   0  0  0  0  0 15  0  0  0  0  0  0
    9.4315   -3.9511    1.0176 H   0  0  0  0  0 15  0  0  0  0  0  0
    8.1065   -3.5840    2.1100 H   0  0  0  0  0 15  0  0  0  0  0  0
    6.6835   -3.7182    0.2834 H   0  0  0  0  0 15  0  0  0  0  0  0
    8.8686   -0.7928   -1.3621 N   0  0  0  0  0 15  0  0  0  0  0  0
   10.1086   -0.3722   -2.0098 C   0  0  0  0  0 15  0  0  0  0  0  0
   10.4726    1.0375   -1.6156 C   0  0  0  0  0 15  0  0  0  0  0  0
   11.6736    1.5593   -2.1895 O   0  0  0  0  0 15  0  0  0  0  0  0
    9.9446   -0.5346   -3.5338 C   0  0  0  0  0 15  0  0  0  0  0  0
   11.5036   -0.2024   -4.3833 S   0  0  0  0  0 15  0  0  0  0  0  0
    8.3216   -0.1420   -0.6967 H   0  0  0  0  0 15  0  0  0  0  0  0
   10.9236   -1.0321   -1.6604 H   0  0  0  0  0 15  0  0  0  0  0  0
    9.6276   -1.5608   -3.7956 H   0  0  0  0  0 15  0  0  0  0  0  0
    9.1586    0.1411   -3.9315 H   0  0  0  0  0 15  0  0  0  0  0  0
   11.1736    0.9949   -4.8612 H   0  0  0  0  0 15  0  0  0  0  0  0
   10.3467    1.4787   -0.5451 N   0  0  0  0  0 15  0  0  0  0  0  0
   11.3097    2.2834    0.1987 C   0  0  0  0  0 15  0  0  0  0  0  0
   12.3097    1.3625    0.8539 C   0  0  0  0  0 15  0  0  0  0  0  0
   13.4997    1.5900    0.7116 O   0  0  0  0  0 15  0  0  0  0  0  0
   10.6317    3.1558    1.2892 C   0  0  0  0  0 15  0  0  0  0  0  0
   11.8247    2.9557   -0.5079 H   0  0  0  0  0 15  0  0  0  0  0  0
    9.3777    1.5336   -0.3016 H   0  0  0  0  0 15  0  0  0  0  0  0
   10.1127    2.5302    2.0286 H   0  0  0  0  0 15  0  0  0  0  0  0
    9.8977    3.8334    0.8243 H   0  0  0  0  0 15  0  0  0  0  0  0
   11.3877    3.7624    1.8119 H   0  0  0  0  0 15  0  0  0  0  0  0
   11.8248    0.2810    1.5507 N   0  0  0  0  0 15  0  0  0  0  0  0
   12.7878   -0.5909    2.2145 C   0  0  0  0  0 15  0  0  0  0  0  0
   13.7878   -1.0768    1.1942 C   0  0  0  0  0 15  0  0  0  0  0  0
   14.9778   -0.9760    1.4429 O   0  0  0  0  0 15  0  0  0  0  0  0
   12.1098   -1.8159    2.8851 C   0  0  0  0  0 15  0  0  0  0  0  0
   13.3028   -0.0113    2.9990 H   0  0  0  0  0 15  0  0  0  0  0  0
   10.8558    0.0316    1.5627 H   0  0  0  0  0 15  0  0  0  0  0  0
   11.5908   -2.4359    2.1409 H   0  0  0  0  0 15  0  0  0  0  0  0
   11.3758   -1.4753    3.6329 H   0  0  0  0  0 15  0  0  0  0  0  0
   12.8658   -2.4358    3.3921 H   0  0  0  0  0 15  0  0  0  0  0  0
   13.3029   -1.5760    0.0084 N   0  0  0  0  0 15  0  0  0  0  0  0
   14.2659   -2.0788   -0.9652 C   0  0  0  0  0 15  0  0  0  0  0  0
   15.2659   -0.9898   -1.2672 C   0  0  0  0  0 15  0  0  0  0  0  0
   16.4559   -1.2522   -1.2110 O   0  0  0  0  0 15  0  0  0  0  0  0
   13.5879   -2.5273   -2.2878 C   0  0  0  0  0 15  0  0  0  0  0  0
   14.7809   -2.9518   -0.5301 H   0  0  0  0  0 15  0  0  0  0  0  0
   12.3339   -1.5446   -0.2393 H   0  0  0  0  0 15  0  0  0  0  0  0
   13.0689   -1.6870   -2.7696 H   0  0  0  0  0 15  0  0  0  0  0  0
   12.8539   -3.3227   -2.0818 H   0  0  0  0  0 15  0  0  0  0  0  0
   14.3439   -2.9193   -2.9861 H   0  0  0  0  0 15  0  0  0  0  0  0
   14.7810    0.2645   -1.5536 N   0  0  0  0  0 15  0  0  0  0  0  0
   16.0290    0.9930   -1.7602 C   0  0  0  0  0 15  0  0  0  0  0  0
   16.3500    1.8651   -0.5691 C   0  0  0  0  0 15  0  0  0  0  0  0
   15.6200    1.9144    0.4157 O   0  0  0  0  0 15  0  0  0  0  0  0
   14.2000    0.3696   -0.6491 H   0  0  0  0  0 15  0  0  0  0  0  0
   16.8620    0.2867   -1.9278 H   0  0  0  0  0 15  0  0  0  0  0  0
   15.9580    1.6250   -2.6646 H   0  0  0  0  0 15  0  0  0  0  0  0
   16.2591    1.4844    0.5294 N   0  0  0  0  0 15  0  0  0  0  0  0
   17.5051    1.5672    1.2871 C   0  0  0  0  0 15  0  0  0  0  0  0
   17.8381    0.2406    1.9270 C   0  0  0  0  0 15  0  0  0  0  0  0
   17.1131   -0.7535    1.7931 O   0  0  0  0  0 15  0  0  0  0  0  0
   17.3961    2.7059    2.3760 C   0  0  0  0  0 15  0  0  0  0  0  0
   17.2491    4.1295    1.7830 C   0  0  0  0  0 15  0  0  0  0  0  0
   18.5681    2.8021    3.3937 C   0  0  0  0  0 15  0  0  0  0  0  0
   15.6871    0.5705    0.4666 H   0  0  0  0  0 15  0  0  0  0  0  0
   18.3291    1.8062    0.5897 H   0  0  0  0  0 15  0  0  0  0  0  0
   16.4791    2.5034    2.9709 H   0  0  0  0  0 15  0  0  0  0  0  0
   18.1511    4.4464    1.2286 H   0  0  0  0  0 15  0  0  0  0  0  0
   16.3941    4.1993    1.0883 H   0  0  0  0  0 15  0  0  0  0  0  0
   17.0651    4.8845    2.5714 H   0  0  0  0  0 15  0  0  0  0  0  0
   19.5411    2.9855    2.8984 H   0  0  0  0  0 15  0  0  0  0  0  0
   18.4171    3.6161    4.1295 H   0  0  0  0  0 15  0  0  0  0  0  0
   18.6781    1.8839    3.9995 H   0  0  0  0  0 15  0  0  0  0  0  0
   17.7372   -0.7783    1.3704 N   0  0  0  0  0 15  0  0  0  0  0  0
   18.9622   -1.5725    1.3523 C   0  0  0  0  0 15  0  0  0  0  0  0
   19.3872   -1.8800   -0.0616 C   0  0  0  0  0 15  0  0  0  0  0  0
   18.7452   -1.4873   -1.0367 O   0  0  0  0  0 15  0  0  0  0  0  0
   18.7932   -2.8635    2.1917 C   0  0  0  0  0 15  0  0  0  0  0  0
   17.8972   -3.8044    1.5918 O   0  0  0  0  0 15  0  0  0  0  0  0
   17.2382   -0.4766    0.4624 H   0  0  0  0  0 15  0  0  0  0  0  0
   19.7682   -0.9639    1.8047 H   0  0  0  0  0 15  0  0  0  0  0  0
   19.7782   -3.3552    2.3215 H   0  0  0  0  0 15  0  0  0  0  0  0
   18.4532   -2.6330    3.2194 H   0  0  0  0  0 15  0  0  0  0  0  0
   17.0302   -3.3907    1.5520 H   0  0  0  0  0 15  0  0  0  0  0  0
   19.2153   -1.2150   -1.0038 N   0  0  0  0  0 15  0  0  0  0  0  0
   20.4553   -1.0444   -1.7570 C   0  0  0  0  0 15  0  0  0  0  0  0
   20.8193    0.4146   -1.8747 C   0  0  0  0  0 15  0  0  0  0  0  0
   22.0203    0.7058   -2.5937 O   0  0  0  0  0 15  0  0  0  0  0  0
   20.2913   -1.7239   -3.1308 C   0  0  0  0  0 15  0  0  0  0  0  0
   21.8503   -1.7060   -4.0428 S   0  0  0  0  0 15  0  0  0  0  0  0
   18.6683   -0.3742   -0.6045 H   0  0  0  0  0 15  0  0  0  0  0  0
   21.2703   -1.5427   -1.2009 H   0  0  0  0  0 15  0  0  0  0  0  0
   19.9743   -2.7773   -3.0215 H   0  0  0  0  0 15  0  0  0  0  0  0
   19.5053   -1.2275   -3.7376 H   0  0  0  0  0 15  0  0  0  0  0  0
   21.5203   -0.7480   -4.9053 H   0  0  0  0  0 15  0  0  0  0  0  0
   20.6934    1.1989   -1.0230 N   0  0  0  0  0 15  0  0  0  0  0  0
   21.9214    1.9339   -0.7354 C   0  0  0  0  0 15  0  0  0  0  0  0
   22.3364    1.7515    0.7049 C   0  0  0  0  0 15  0  0  0  0  0  0
   21.6934    1.0695    1.4787 O   0  0  0  0  0 15  0  0  0  0  0  0
   21.7444    3.4531   -1.0696 C   0  0  0  0  0 15  0  0  0  0  0  0
   21.4654    3.6296   -2.4533 O   0  0  0  0  0 15  0  0  0  0  0  0
   22.9664    4.3595   -0.8040 C   0  0  0  0  0 15  0  0  0  0  0  0
   20.1864    0.6145   -0.2695 H   0  0  0  0  0 15  0  0  0  0  0  0
   22.7304    1.5220   -1.3659 H   0  0  0  0  0 15  0  0  0  0  0  0
   20.8854    3.8436   -0.4845 H   0  0  0  0  0 15  0  0  0  0  0  0
   21.2994    4.5689   -2.5760 H   0  0  0  0  0 15  0  0  0  0  0  0
   22.7734    5.4117   -1.0879 H   0  0  0  0  0 15  0  0  0  0  0  0
   23.2504    4.3842    0.2617 H   0  0  0  0  0 15  0  0  0  0  0  0
   23.8564    4.0257   -1.3716 H   0  0  0  0  0 15  0  0  0  0  0  0
   22.1715    0.8000    1.3578 N   0  0  0  0  0 15  0  0  0  0  0  0
   23.4115    0.3829    2.0078 C   0  0  0  0  0 15  0  0  0  0  0  0
   23.7755   -1.0289    1.6210 C   0  0  0  0  0 15  0  0  0  0  0  0
   24.9765   -1.5477    2.1977 O   0  0  0  0  0 15  0  0  0  0  0  0
   23.2475    0.5533    3.5309 C   0  0  0  0  0 15  0  0  0  0  0  0
   24.8065    0.2256    4.3822 S   0  0  0  0  0 15  0  0  0  0  0  0
   21.6245    0.1457    0.6959 H   0  0  0  0  0 15  0  0  0  0  0  0
   24.2265    1.0408    1.6549 H   0  0  0  0  0 15  0  0  0  0  0  0
   22.9305    1.5809    3.7873 H   0  0  0  0  0 15  0  0  0  0  0  0
   22.4615   -0.1202    3.9322 H   0  0  0  0  0 15  0  0  0  0  0  0
   24.4765   -0.9691    4.8665 H   0  0  0  0  0 15  0  0  0  0  0  0
   23.6496   -1.4758    0.5530 N   0  0  0  0  0 15  0  0  0  0  0  0
   24.6126   -2.2844   -0.1866 C   0  0  0  0  0 15  0  0  0  0  0  0
   25.6126   -1.3671   -0.8466 C   0  0  0  0  0 15  0  0  0  0  0  0
   26.8026   -1.5938   -0.7032 O   0  0  0  0  0 15  0  0  0  0  0  0
   23.9346   -3.1626   -1.2724 C   0  0  0  0  0 15  0  0  0  0  0  0
   25.1276   -2.9529    0.5236 H   0  0  0  0  0 15  0  0  0  0  0  0
   22.6806   -1.5320    0.3097 H   0  0  0  0  0 15  0  0  0  0  0  0
   23.4156   -2.5409   -2.0151 H   0  0  0  0  0 15  0  0  0  0  0  0
   23.2006   -3.8377   -0.8040 H   0  0  0  0  0 15  0  0  0  0  0  0
   24.6906   -3.7720   -1.7920 H   0  0  0  0  0 15  0  0  0  0  0  0
   25.1277   -0.2892   -1.5492 N   0  0  0  0  0 15  0  0  0  0  0  0
   26.3527    0.3293   -2.0477 C   0  0  0  0  0 15  0  0  0  0  0  0
   26.7777    1.4763   -1.1656 C   0  0  0  0  0 15  0  0  0  0  0  0
   26.1357    1.8053   -0.1672 O   0  0  0  0  0 15  0  0  0  0  0  0
   26.1837    0.7744   -3.5219 C   0  0  0  0  0 15  0  0  0  0  0  0
   25.2877    1.8804   -3.6704 O   0  0  0  0  0 15  0  0  0  0  0  0
   24.6287    0.0659   -0.6607 H   0  0  0  0  0 15  0  0  0  0  0  0
   27.1587   -0.4276   -2.0008 H   0  0  0  0  0 15  0  0  0  0  0  0
   27.1687    1.0664   -3.9382 H   0  0  0  0  0 15  0  0  0  0  0  0
   25.8437   -0.0647   -4.1585 H   0  0  0  0  0 15  0  0  0  0  0  0
   24.4207    1.5898   -3.3731 H   0  0  0  0  0 15  0  0  0  0  0  0
   26.6058    1.5759   -0.0167 N   0  0  0  0  0 15  0  0  0  0  0  0
   27.8308    1.9598    0.6787 C   0  0  0  0  0 15  0  0  0  0  0  0
   28.2558    0.8925    1.6558 C   0  0  0  0  0 15  0  0  0  0  0  0
   27.6138   -0.1478    1.8070 O   0  0  0  0  0 15  0  0  0  0  0  0
   27.6618    3.3347    1.3723 C   0  0  0  0  0 15  0  0  0  0  0  0
   26.7658    3.2895    2.4872 O   0  0  0  0  0 15  0  0  0  0  0  0
   26.1068    0.6393    0.1793 H   0  0  0  0  0 15  0  0  0  0  0  0
   28.6368    2.0446   -0.0749 H   0  0  0  0  0 15  0  0  0  0  0  0
   28.6468    3.6942    1.7319 H   0  0  0  0  0 15  0  0  0  0  0  0
   27.3218    4.1069    0.6560 H   0  0  0  0  0 15  0  0  0  0  0  0
   25.8988    3.0471    2.1496 H   0  0  0  0  0 15  0  0  0  0  0  0
   28.0839   -0.2563    1.5550 N   0  0  0  0  0 15  0  0  0  0  0  0
   29.3239   -0.9931    1.7865 C   0  0  0  0  0 15  0  0  0  0  0  0
   29.6879   -1.8288    0.5847 C   0  0  0  0  0 15  0  0  0  0  0  0
   30.8889   -2.5966    0.6948 O   0  0  0  0  0 15  0  0  0  0  0  0
   29.1599   -1.8386    3.0648 C   0  0  0  0  0 15  0  0  0  0  0  0
   30.7189   -2.6357    3.5082 S   0  0  0  0  0 15  0  0  0  0  0  0
   27.5369   -0.3342    0.6276 H   0  0  0  0  0 15  0  0  0  0  0  0
   30.1389   -0.2618    1.9374 H   0  0  0  0  0 15  0  0  0  0  0  0
   28.8429   -1.2141    3.9203 H   0  0  0  0  0 15  0  0  0  0  0  0
   28.3739   -2.6127    2.9411 H   0  0  0  0  0 15  0  0  0  0  0  0
   30.3889   -3.8631    3.1141 H   0  0  0  0  0 15  0  0  0  0  0  0
   29.5620   -1.4872   -0.5215 N   0  0  0  0  0 15  0  0  0  0  0  0
   30.5090   -1.6387   -1.6253 C   0  0  0  0  0 15  0  0  0  0  0  0
   31.4790   -0.4806   -1.5900 C   0  0  0  0  0 15  0  0  0  0  0  0
   32.6640   -0.7051   -1.7729 O   0  0  0  0  0 15  0  0  0  0  0  0
   29.8040   -1.6923   -3.0076 C   0  0  0  0  0 15  0  0  0  0  0  0
   28.9170   -2.9621   -3.1446 C   0  0  0  0  0 15  0  0  0  0  0  0
   28.0520   -2.9267   -4.4330 C   0  0  0  0  0 15  0  0  0  0  0  0
   27.0910   -4.1432   -4.5056 C   0  0  0  0  0 15  0  0  0  0  0  0
   26.2280   -4.0881   -5.7081 N   0  0  0  0  0 15  0  0  0  0  0  0
   31.0680   -2.5812   -1.4892 H   0  0  0  0  0 15  0  0  0  0  0  0
   28.6050   -1.2800   -0.7249 H   0  0  0  0  0 15  0  0  0  0  0  0
   30.5630   -1.7031   -3.8085 H   0  0  0  0  0 15  0  0  0  0  0  0
   29.1930   -0.7846   -3.1312 H   0  0  0  0  0 15  0  0  0  0  0  0
   28.2450   -3.0483   -2.2756 H   0  0  0  0  0 15  0  0  0  0  0  0
   29.5570   -3.8619   -3.1569 H   0  0  0  0  0 15  0  0  0  0  0  0
   28.7110   -2.9221   -5.3170 H   0  0  0  0  0 15  0  0  0  0  0  0
   27.4500   -2.0043   -4.4461 H   0  0  0  0  0 15  0  0  0  0  0  0
   26.4550   -4.1505   -3.6058 H   0  0  0  0  0 15  0  0  0  0  0  0
   27.6800   -5.0773   -4.5099 H   0  0  0  0  0 15  0  0  0  0  0  0
   25.6260   -3.1939   -5.7300 H   0  0  0  0  0 15  0  0  0  0  0  0
   25.5430   -4.9251   -5.7356 H   0  0  0  0  0 15  0  0  0  0  0  0
   26.8110   -4.1242   -6.6146 H   0  0  0  0  0 15  0  0  0  0  0  0
   31.0401    0.7711   -1.3745 N   0  0  0  0  0 15  0  0  0  0  0  0
   32.2801    1.5426   -1.3410 C   0  0  0  0  0 15  0  0  0  0  0  0
   32.6441    1.9186    0.0738 C   0  0  0  0  0 15  0  0  0  0  0  0
   33.8451    2.6780    0.2320 O   0  0  0  0  0 15  0  0  0  0  0  0
   32.1161    2.7733   -2.2544 C   0  0  0  0  0 15  0  0  0  0  0  0
   33.6751    3.6738   -2.3995 S   0  0  0  0  0 15  0  0  0  0  0  0
   30.4931    0.5281   -0.4760 H   0  0  0  0  0 15  0  0  0  0  0  0
   33.0951    0.9066   -1.7321 H   0  0  0  0  0 15  0  0  0  0  0  0
   31.7991    2.4779   -3.2715 H   0  0  0  0  0 15  0  0  0  0  0  0
   31.3301    3.4589   -1.8742 H   0  0  0  0  0 15  0  0  0  0  0  0
   33.3451    4.6933   -1.6106 H   0  0  0  0  0 15  0  0  0  0  0  0
   32.5182    1.2203    0.9973 N   0  0  0  0  0 15  0  0  0  0  0  0
   33.4652    0.9865    2.0866 C   0  0  0  0  0 15  0  0  0  0  0  0
   34.4352   -0.0903    1.6585 C   0  0  0  0  0 15  0  0  0  0  0  0
   35.6202    0.0584    1.9071 O   0  0  0  0  0 15  0  0  0  0  0  0
   32.7602    0.5656    3.4043 C   0  0  0  0  0 15  0  0  0  0  0  0
   31.8732    1.7126    3.9660 C   0  0  0  0  0 15  0  0  0  0  0  0
   31.0082    1.2401    5.1652 C   0  0  0  0  0 15  0  0  0  0  0  0
   30.0472    2.3590    5.6482 C   0  0  0  0  0 15  0  0  0  0  0  0
   29.1842    1.8973    6.7598 N   0  0  0  0  0 15  0  0  0  0  0  0
   34.0242    1.9189    2.2799 H   0  0  0  0  0 15  0  0  0  0  0  0
   31.5612    0.9562    1.1178 H   0  0  0  0  0 15  0  0  0  0  0  0
   33.5192    0.3027    4.1610 H   0  0  0  0  0 15  0  0  0  0  0  0
   32.1492   -0.3299    3.2111 H   0  0  0  0  0 15  0  0  0  0  0  0
   31.2012    2.0899    3.1785 H   0  0  0  0  0 15  0  0  0  0  0  0
   32.5132    2.5544    4.2843 H   0  0  0  0  0 15  0  0  0  0  0  0
   31.6672    0.9344    5.9946 H   0  0  0  0  0 15  0  0  0  0  0  0
   30.4062    0.3685    4.8631 H   0  0  0  0  0 15  0  0  0  0  0  0
   29.4112    2.6726    4.8047 H   0  0  0  0  0 15  0  0  0  0  0  0
   30.6362    3.2357    5.9706 H   0  0  0  0  0 15  0  0  0  0  0  0
   28.5822    1.0492    6.4756 H   0  0  0  0  0 15  0  0  0  0  0  0
   28.4992    2.6747    7.0710 H   0  0  0  0  0 15  0  0  0  0  0  0
   29.7672    1.6221    7.6244 H   0  0  0  0  0 15  0  0  0  0  0  0
   33.9963   -1.1934    1.0293 N   0  0  0  0  0 15  0  0  0  0  0  0
   34.9063   -2.2624    0.6205 C   0  0  0  0  0 15  0  0  0  0  0  0
   35.9223   -1.7049   -0.3479 C   0  0  0  0  0 15  0  0  0  0  0  0
   37.0983   -2.0035   -0.2057 O   0  0  0  0  0 15  0  0  0  0  0  0
   34.1633   -3.4669   -0.0219 C   0  0  0  0  0 15  0  0  0  0  0  0
   33.2243   -4.1763    0.9941 C   0  0  0  0  0 15  0  0  0  0  0  0
   32.4573   -5.3233    0.3823 C   0  0  0  0  0 15  0  0  0  0  0  0
   32.6803   -5.6455   -0.8147 O   0  0  0  0  0 15  0  0  0  0  0  0
   31.6143   -5.9166    1.1053 O   0  0  0  0  0 15  0  0  0  0  0  0
   35.4403   -2.6345    1.5108 H   0  0  0  0  0 15  0  0  0  0  0  0
   33.0253   -1.2621    0.7995 H   0  0  0  0  0 15  0  0  0  0  0  0
   34.9073   -4.1968   -0.3801 H   0  0  0  0  0 15  0  0  0  0  0  0
   33.5823   -3.1133   -0.8862 H   0  0  0  0  0 15  0  0  0  0  0  0
   32.4893   -3.4676    1.4039 H   0  0  0  0  0 15  0  0  0  0  0  0
   33.8223   -4.5696    1.8288 H   0  0  0  0  0 15  0  0  0  0  0  0
   35.4744   -0.8072   -1.3536 N   0  0  0  0  0 15  0  0  0  0  0  0
   36.7144   -0.3935   -2.0058 C   0  0  0  0  0 15  0  0  0  0  0  0
   37.0784    1.0203   -1.6265 C   0  0  0  0  0 15  0  0  0  0  0  0
   38.2794    1.5360   -2.2059 O   0  0  0  0  0 15  0  0  0  0  0  0
   36.5504   -0.5720   -3.5279 C   0  0  0  0  0 15  0  0  0  0  0  0
   38.1094   -0.2488   -4.3809 S   0  0  0  0  0 15  0  0  0  0  0  0
   34.9274   -0.1494   -0.6951 H   0  0  0  0  0 15  0  0  0  0  0  0
   37.5294   -1.0496   -1.6493 H   0  0  0  0  0 15  0  0  0  0  0  0
   36.2334   -1.6010   -3.7788 H   0  0  0  0  0 15  0  0  0  0  0  0
   35.7644    0.0994   -3.9327 H   0  0  0  0  0 15  0  0  0  0  0  0
   37.7794    0.9433   -4.8715 H   0  0  0  0  0 15  0  0  0  0  0  0
   36.9525    1.4729   -0.5608 N   0  0  0  0  0 15  0  0  0  0  0  0
   37.8995    2.3006    0.1849 C   0  0  0  0  0 15  0  0  0  0  0  0
   38.8695    1.3928    0.9050 C   0  0  0  0  0 15  0  0  0  0  0  0
   40.0545    1.6824    0.9000 O   0  0  0  0  0 15  0  0  0  0  0  0
   37.1945    3.2332    1.2067 C   0  0  0  0  0 15  0  0  0  0  0  0
   36.3075    4.2919    0.4923 C   0  0  0  0  0 15  0  0  0  0  0  0
   35.4425    5.0959    1.4996 C   0  0  0  0  0 15  0  0  0  0  0  0
   34.4815    6.0723    0.7704 C   0  0  0  0  0 15  0  0  0  0  0  0
   33.6185    6.8058    1.7248 N   0  0  0  0  0 15  0  0  0  0  0  0
   38.4585    2.9330   -0.5270 H   0  0  0  0  0 15  0  0  0  0  0  0
   35.9955    1.4457   -0.2717 H   0  0  0  0  0 15  0  0  0  0  0  0
   37.9535    3.7581    1.8117 H   0  0  0  0  0 15  0  0  0  0  0  0
   36.5835    2.6193    1.8866 H   0  0  0  0  0 15  0  0  0  0  0  0
   35.6355    3.7972   -0.2273 H   0  0  0  0  0 15  0  0  0  0  0  0
   36.9475    4.9874   -0.0788 H   0  0  0  0  0 15  0  0  0  0  0  0
   36.1015    5.6625    2.1781 H   0  0  0  0  0 15  0  0  0  0  0  0
   34.8405    4.3995    2.1046 H   0  0  0  0  0 15  0  0  0  0  0  0
   33.8455    5.4974    0.0781 H   0  0  0  0  0 15  0  0  0  0  0  0
   35.0705    6.7888    0.1711 H   0  0  0  0  0 15  0  0  0  0  0  0
   33.0165    6.1367    2.3183 H   0  0  0  0  0 15  0  0  0  0  0  0
   32.9335    7.4632    1.2060 H   0  0  0  0  0 15  0  0  0  0  0  0
   34.2015    7.4182    2.3943 H   0  0  0  0  0 15  0  0  0  0  0  0
   38.4306    0.2974    1.5477 N   0  0  0  0  0 15  0  0  0  0  0  0
   39.6706   -0.3138    2.0198 C   0  0  0  0  0 15  0  0  0  0  0  0
   40.0346   -1.5137    1.1812 C   0  0  0  0  0 15  0  0  0  0  0  0
   41.2356   -2.1960    1.5501 O   0  0  0  0  0 15  0  0  0  0  0  0
   39.5066   -0.6650    3.5116 C   0  0  0  0  0 15  0  0  0  0  0  0
   41.0656   -1.2596    4.2033 S   0  0  0  0  0 15  0  0  0  0  0  0
   37.8836   -0.0965    0.7044 H   0  0  0  0  0 15  0  0  0  0  0  0
   40.4856    0.4245    1.9084 H   0  0  0  0  0 15  0  0  0  0  0  0
   39.1896    0.2168    4.0983 H   0  0  0  0  0 15  0  0  0  0  0  0
   38.7206   -1.4341    3.6633 H   0  0  0  0  0 15  0  0  0  0  0  0
   40.7356   -2.5475    4.2581 H   0  0  0  0  0 15  0  0  0  0  0  0
   39.9087   -1.5758    0.0251 N   0  0  0  0  0 15  0  0  0  0  0  0
   41.1367   -1.9593   -0.6647 C   0  0  0  0  0 15  0  0  0  0  0  0
   41.5517   -0.9014   -1.6589 C   0  0  0  0  0 15  0  0  0  0  0  0
   40.9087    0.1173   -1.8212 O   0  0  0  0  0 15  0  0  0  0  0  0
   40.9597   -3.3434   -1.3747 C   0  0  0  0  0 15  0  0  0  0  0  0
   40.6807   -4.3608   -0.4203 O   0  0  0  0  0 15  0  0  0  0  0  0
   42.1817   -3.8730   -2.1567 C   0  0  0  0  0 15  0  0  0  0  0  0
   39.4017   -0.6454   -0.1836 H   0  0  0  0  0 15  0  0  0  0  0  0
   41.9457   -2.0433    0.0836 H   0  0  0  0  0 15  0  0  0  0  0  0
   40.1007   -3.2717   -2.0745 H   0  0  0  0  0 15  0  0  0  0  0  0
   40.5147   -5.1630   -0.9240 H   0  0  0  0  0 15  0  0  0  0  0  0
   41.9887   -4.8650   -2.6080 H   0  0  0  0  0 15  0  0  0  0  0  0
   42.4657   -3.2133   -2.9940 H   0  0  0  0  0 15  0  0  0  0  0  0
   43.0717   -3.9772   -1.5065 H   0  0  0  0  0 15  0  0  0  0  0  0
   41.3868    0.2480   -1.5564 N   0  0  0  0  0 15  0  0  0  0  0  0
   42.6118    0.9980   -1.8181 C   0  0  0  0  0 15  0  0  0  0  0  0
   43.0368    1.7821   -0.6020 C   0  0  0  0  0 15  0  0  0  0  0  0
   42.3948    1.7565    0.4490 O   0  0  0  0  0 15  0  0  0  0  0  0
   42.4428    1.9125   -3.0571 C   0  0  0  0  0 15  0  0  0  0  0  0
   41.5468    3.0041   -2.8254 O   0  0  0  0  0 15  0  0  0  0  0  0
   40.8878    0.2840   -0.6002 H   0  0  0  0  0 15  0  0  0  0  0  0
   43.4178    0.2694   -2.0282 H   0  0  0  0  0 15  0  0  0  0  0  0
   43.4278    2.3274   -3.3511 H   0  0  0  0  0 15  0  0  0  0  0  0
   42.1028    1.3360   -3.9386 H   0  0  0  0  0 15  0  0  0  0  0  0
   40.6798    2.6306   -2.6430 H   0  0  0  0  0 15  0  0  0  0  0  0
   42.8649    1.4899    0.5136 N   0  0  0  0  0 15  0  0  0  0  0  0
   44.1049    1.5945    1.2788 C   0  0  0  0  0 15  0  0  0  0  0  0
   44.4689    0.2695    1.9010 C   0  0  0  0  0 15  0  0  0  0  0  0
   45.6699    0.2491    2.6764 O   0  0  0  0  0 15  0  0  0  0  0  0
   43.9409    2.7128    2.3269 C   0  0  0  0  0 15  0  0  0  0  0  0
   45.4999    3.0160    3.1872 S   0  0  0  0  0 15  0  0  0  0  0  0
   42.3179    0.5626    0.4348 H   0  0  0  0  0 15  0  0  0  0  0  0
   44.9199    1.8660    0.5833 H   0  0  0  0  0 15  0  0  0  0  0  0
   43.6239    3.6609    1.8549 H   0  0  0  0  0 15  0  0  0  0  0  0
   43.1549    2.4609    3.0693 H   0  0  0  0  0 15  0  0  0  0  0  0
   45.1699    2.4216    4.3310 H   0  0  0  0  0 15  0  0  0  0  0  0
   44.3430   -0.7638    1.3786 N   0  0  0  0  0 15  0  0  0  0  0  0
   45.2900   -1.8773    1.3427 C   0  0  0  0  0 15  0  0  0  0  0  0
   46.2600   -1.6481    0.2069 C   0  0  0  0  0 15  0  0  0  0  0  0
   47.4450   -1.8661    0.3975 O   0  0  0  0  0 15  0  0  0  0  0  0
   44.5850   -3.2490    1.1635 C   0  0  0  0  0 15  0  0  0  0  0  0
   43.6980   -3.5972    2.3923 C   0  0  0  0  0 15  0  0  0  0  0  0
   42.8330   -4.8614    2.1411 C   0  0  0  0  0 15  0  0  0  0  0  0
   41.8720   -5.1371    3.3282 C   0  0  0  0  0 15  0  0  0  0  0  0
   41.0090   -6.3132    3.0721 N   0  0  0  0  0 15  0  0  0  0  0  0
   45.8490   -1.9013    2.2947 H   0  0  0  0  0 15  0  0  0  0  0  0
   43.3860   -0.9294    1.1402 H   0  0  0  0  0 15  0  0  0  0  0  0
   45.3440   -4.0404    1.0397 H   0  0  0  0  0 15  0  0  0  0  0  0
   43.9740   -3.2185    0.2479 H   0  0  0  0  0 15  0  0  0  0  0  0
   43.0260   -2.7550    2.6231 H   0  0  0  0  0 15  0  0  0  0  0  0
   44.3380   -3.7603    3.2773 H   0  0  0  0  0 15  0  0  0  0  0  0
   43.4920   -5.7320    1.9882 H   0  0  0  0  0 15  0  0  0  0  0  0
   42.2310   -4.7194    1.2296 H   0  0  0  0  0 15  0  0  0  0  0  0
   41.2360   -4.2512    3.4864 H   0  0  0  0  0 15  0  0  0  0  0  0
   42.4610   -5.2981    4.2483 H   0  0  0  0  0 15  0  0  0  0  0  0
   40.4070   -6.1847    2.1869 H   0  0  0  0  0 15  0  0  0  0  0  0
   40.3240   -6.4809    3.8925 H   0  0  0  0  0 15  0  0  0  0  0  0
   41.5920   -7.2130    2.9555 H   0  0  0  0  0 15  0  0  0  0  0  0
   45.8211   -1.2256   -0.9908 N   0  0  0  0  0 15  0  0  0  0  0  0
   46.7681   -0.9975   -2.0813 C   0  0  0  0  0 15  0  0  0  0  0  0
   47.7381    0.0815   -1.6590 C   0  0  0  0  0 15  0  0  0  0  0  0
   48.9231   -0.0685   -1.9068 O   0  0  0  0  0 15  0  0  0  0  0  0
   46.0631   -0.5836   -3.4013 C   0  0  0  0  0 15  0  0  0  0  0  0
   45.1761   -1.7336   -3.9569 C   0  0  0  0  0 15  0  0  0  0  0  0
   44.3111   -1.2675   -5.1586 C   0  0  0  0  0 15  0  0  0  0  0  0
   43.3501   -2.3889   -5.6356 C   0  0  0  0  0 15  0  0  0  0  0  0
   42.4871   -1.9331   -6.7496 N   0  0  0  0  0 15  0  0  0  0  0  0
   47.3271   -1.9310   -2.2697 H   0  0  0  0  0 15  0  0  0  0  0  0
   44.8641   -0.9621   -1.1127 H   0  0  0  0  0 15  0  0  0  0  0  0
   46.8221   -0.3248   -4.1593 H   0  0  0  0  0 15  0  0  0  0  0  0
   45.4521    0.3128   -3.2128 H   0  0  0  0  0 15  0  0  0  0  0  0
   44.5041   -2.1067   -3.1674 H   0  0  0  0  0 15  0  0  0  0  0  0
   45.8161   -2.5770   -4.2707 H   0  0  0  0  0 15  0  0  0  0  0  0
   44.9701   -0.9662   -5.9896 H   0  0  0  0  0 15  0  0  0  0  0  0
   43.7091   -0.3943   -4.8610 H   0  0  0  0  0 15  0  0  0  0  0  0
   42.7141   -2.6981   -4.7905 H   0  0  0  0  0 15  0  0  0  0  0  0
   43.9391   -3.2673   -5.9534 H   0  0  0  0  0 15  0  0  0  0  0  0
   41.8851   -1.0835   -6.4699 H   0  0  0  0  0 15  0  0  0  0  0  0
   41.8021   -2.7122   -7.0568 H   0  0  0  0  0 15  0  0  0  0  0  0
   43.0701   -1.6625   -7.6156 H   0  0  0  0  0 15  0  0  0  0  0  0
   47.2992    1.1880   -1.0356 N   0  0  0  0  0 15  0  0  0  0  0  0
   48.5242    1.9314   -0.7558 C   0  0  0  0  0 15  0  0  0  0  0  0
   48.9492    1.7537    0.6802 C   0  0  0  0  0 15  0  0  0  0  0  0
   48.3072    1.0605    1.4705 O   0  0  0  0  0 15  0  0  0  0  0  0
   48.3552    3.4275   -1.1206 C   0  0  0  0  0 15  0  0  0  0  0  0
   47.4592    4.1168   -0.2431 O   0  0  0  0  0 15  0  0  0  0  0  0
   46.8002    0.6027   -0.2786 H   0  0  0  0  0 15  0  0  0  0  0  0
   49.3302    1.5068   -1.3841 H   0  0  0  0  0 15  0  0  0  0  0  0
   49.3402    3.9344   -1.0803 H   0  0  0  0  0 15  0  0  0  0  0  0
   48.0152    3.5500   -2.1667 H   0  0  0  0  0 15  0  0  0  0  0  0
   46.5922    3.7132   -0.3425 H   0  0  0  0  0 15  0  0  0  0  0  0
   48.7773    0.8144    1.3493 N   0  0  0  0  0 15  0  0  0  0  0  0
   50.0173    0.4042    2.0036 C   0  0  0  0  0 15  0  0  0  0  0  0
   50.3813   -1.0117    1.6319 C   0  0  0  0  0 15  0  0  0  0  0  0
   51.5823   -1.5243    2.2140 O   0  0  0  0  0 15  0  0  0  0  0  0
   49.8533    0.5907    3.5248 C   0  0  0  0  0 15  0  0  0  0  0  0
   51.4123    0.2721    4.3796 S   0  0  0  0  0 15  0  0  0  0  0  0
   48.2303    0.1531    0.6943 H   0  0  0  0  0 15  0  0  0  0  0  0
   50.8323    1.0583    1.6438 H   0  0  0  0  0 15  0  0  0  0  0  0
   49.5363    1.6210    3.7703 H   0  0  0  0  0 15  0  0  0  0  0  0
   49.0673   -0.0785    3.9332 H   0  0  0  0  0 15  0  0  0  0  0  0
   51.0823   -0.9174    4.8765 H   0  0  0  0  0 15  0  0  0  0  0  0
   50.2554   -1.4699    0.5686 N   0  0  0  0  0 15  0  0  0  0  0  0
   51.4954   -2.0434    0.0513 C   0  0  0  0  0 15  0  0  0  0  0  0
   51.8594   -1.4321   -1.2788 C   0  0  0  0  0 15  0  0  0  0  0  0
   53.0604   -1.9168   -1.8845 O   0  0  0  0  0 15  0  0  0  0  0  0
   51.3314   -3.5739   -0.0282 C   0  0  0  0  0 15  0  0  0  0  0  0
   52.8904   -4.3606   -0.4900 S   0  0  0  0  0 15  0  0  0  0  0  0
   49.7084   -0.7103    0.0306 H   0  0  0  0  0 15  0  0  0  0  0  0
   52.3104   -1.8021    0.7579 H   0  0  0  0  0 15  0  0  0  0  0  0
   51.0144   -3.9940    0.9440 H   0  0  0  0  0 15  0  0  0  0  0  0
   50.5454   -3.8603   -0.7580 H   0  0  0  0  0 15  0  0  0  0  0  0
   52.5604   -4.6441   -1.7475 H   0  0  0  0  0 15  0  0  0  0  0  0
   51.7335   -0.3056   -1.5461 N   0  0  0  0  0 15  0  0  0  0  0  0
   52.9585    0.3076   -2.0511 C   0  0  0  0  0 15  0  0  0  0  0  0
   53.3835    1.4639   -1.1812 C   0  0  0  0  0 15  0  0  0  0  0  0
   52.7415    1.8034   -0.1863 O   0  0  0  0  0 15  0  0  0  0  0  0
   52.7895    0.7370   -3.5299 C   0  0  0  0  0 15  0  0  0  0  0  0
   51.8935    1.8413   -3.6901 O   0  0  0  0  0 15  0  0  0  0  0  0
   51.2345    0.0589   -0.6614 H   0  0  0  0  0 15  0  0  0  0  0  0
   53.7645   -0.4488   -1.9962 H   0  0  0  0  0 15  0  0  0  0  0  0
   53.7745    1.0246   -3.9493 H   0  0  0  0  0 15  0  0  0  0  0  0
   52.4495   -0.1088   -4.1576 H   0  0  0  0  0 15  0  0  0  0  0  0
   51.0265    1.5540   -3.3898 H   0  0  0  0  0 15  0  0  0  0  0  0
   53.2116    1.5756   -0.0334 N   0  0  0  0  0 15  0  0  0  0  0  0
   54.4516    1.9384    0.6484 C   0  0  0  0  0 15  0  0  0  0  0  0
   54.8156    0.9104    1.6904 C   0  0  0  0  0 15  0  0  0  0  0  0
   56.0166    1.1595    2.4250 O   0  0  0  0  0 15  0  0  0  0  0  0
   54.2876    3.3502    1.2449 C   0  0  0  0  0 15  0  0  0  0  0  0
   55.8466    3.9323    1.9472 S   0  0  0  0  0 15  0  0  0  0  0  0
   52.6646    0.6782    0.2134 H   0  0  0  0  0 15  0  0  0  0  0  0
   55.2666    1.9525   -0.0981 H   0  0  0  0  0 15  0  0  0  0  0  0
   53.9706    4.0765    0.4741 H   0  0  0  0  0 15  0  0  0  0  0  0
   53.5016    3.3706    2.0286 H   0  0  0  0  0 15  0  0  0  0  0  0
   55.5166    3.7701    3.2261 H   0  0  0  0  0 15  0  0  0  0  0  0
   54.6897   -0.2398    1.5577 N   0  0  0  0  0 15  0  0  0  0  0  0
   55.9297   -0.9741    1.7970 C   0  0  0  0  0 15  0  0  0  0  0  0
   56.2937   -1.8225    0.6041 C   0  0  0  0  0 15  0  0  0  0  0  0
   57.4947   -2.5891    0.7223 O   0  0  0  0  0 15  0  0  0  0  0  0
   55.7657   -1.8059    3.0842 C   0  0  0  0  0 15  0  0  0  0  0  0
   57.3247   -2.5984    3.5360 S   0  0  0  0  0 15  0  0  0  0  0  0
   54.1427   -0.3275    0.6311 H   0  0  0  0  0 15  0  0  0  0  0  0
   56.7447   -0.2413    1.9401 H   0  0  0  0  0 15  0  0  0  0  0  0
   55.4487   -1.1725    3.9329 H   0  0  0  0  0 15  0  0  0  0  0  0
   54.9797   -2.5814    2.9687 H   0  0  0  0  0 15  0  0  0  0  0  0
   56.9947   -3.8299    3.1549 H   0  0  0  0  0 15  0  0  0  0  0  0
   56.1678   -1.4927   -0.5057 N   0  0  0  0  0 15  0  0  0  0  0  0
   57.5788   -1.5177   -1.0873 C   0  0  0  0  0 15  0  0  0  0  0  0
   57.9298   -0.3012   -1.9387 C   0  0  0  0  0 15  0  0  0  0  0  0
   57.0548    0.5895   -2.0822 O   0  0  0  0  0 15  0  0  0  0  0  0
   57.6498   -2.7502   -1.9787 C   0  0  0  0  0 15  0  0  0  0  0  0
   56.2088   -2.8031   -2.5120 C   0  0  0  0  0 15  0  0  0  0  0  0
   55.3558   -2.4562   -1.2871 C   0  0  0  0  0 15  0  0  0  0  0  0
   58.3068   -1.5603   -0.2899 H   0  0  0  0  0 15  0  0  0  0  0  0
   58.3278   -2.5491   -2.8249 H   0  0  0  0  0 15  0  0  0  0  0  0
   57.8398   -3.6354   -1.3587 H   0  0  0  0  0 15  0  0  0  0  0  0
   55.9408   -1.9606   -3.1685 H   0  0  0  0  0 15  0  0  0  0  0  0
   56.0538   -3.8237   -2.8867 H   0  0  0  0  0 15  0  0  0  0  0  0
   54.4178   -1.9730   -1.6108 H   0  0  0  0  0 15  0  0  0  0  0  0
   55.2008   -3.3641   -0.6843 H   0  0  0  0  0 15  0  0  0  0  0  0
   57.6459    0.7564   -1.3826 N   0  0  0  0  0 15  0  0  0  0  0  0
   58.8919    1.5177   -1.3451 C   0  0  0  0  0 15  0  0  0  0  0  0
   59.2249    1.9409    0.0657 C   0  0  0  0  0 15  0  0  0  0  0  0
   58.4999    1.6522    1.0263 O   0  0  0  0  0 15  0  0  0  0  0  0
   58.7829    2.7723   -2.2982 C   0  0  0  0  0 15  0  0  0  0  0  0
   58.6359    2.4106   -3.7975 C   0  0  0  0  0 15  0  0  0  0  0  0
   59.9549    3.7924   -2.2331 C   0  0  0  0  0 15  0  0  0  0  0  0
   57.0739    0.5506   -0.4899 H   0  0  0  0  0 15  0  0  0  0  0  0
   59.7159    0.8666   -1.6909 H   0  0  0  0  0 15  0  0  0  0  0  0
   57.8659    3.3278   -2.0047 H   0  0  0  0  0 15  0  0  0  0  0  0
   59.5379    1.9130   -4.1976 H   0  0  0  0  0 15  0  0  0  0  0  0
   57.7809    1.7356   -3.9757 H   0  0  0  0  0 15  0  0  0  0  0  0
   58.4519    3.3081   -4.4189 H   0  0  0  0  0 15  0  0  0  0  0  0
   60.9279    3.3321   -2.4922 H   0  0  0  0  0 15  0  0  0  0  0  0
   59.8039    4.6471   -2.9212 H   0  0  0  0  0 15  0  0  0  0  0  0
   60.0649    4.2462   -1.2310 H   0  0  0  0  0 15  0  0  0  0  0  0
   59.1240    1.2308    0.9843 N   0  0  0  0  0 15  0  0  0  0  0  0
   60.3720    1.0585    1.7216 C   0  0  0  0  0 15  0  0  0  0  0  0
   60.6930   -0.4060    1.9073 C   0  0  0  0  0 15  0  0  0  0  0  0
   59.9630   -1.2914    1.4731 O   0  0  0  0  0 15  0  0  0  0  0  0
   58.5430    0.3887    0.6379 H   0  0  0  0  0 15  0  0  0  0  0  0
   61.2050    1.5474    1.1850 H   0  0  0  0  0 15  0  0  0  0  0  0
   60.3010    1.5433    2.7127 H   0  0  0  0  0 15  0  0  0  0  0  0
   60.6021   -1.1825    1.0419 N   0  0  0  0  0 15  0  0  0  0  0  0
   61.8421   -1.8995    0.7549 C   0  0  0  0  0 15  0  0  0  0  0  0
   62.2061   -1.7861   -0.7045 C   0  0  0  0  0 15  0  0  0  0  0  0
   63.4071   -2.4503   -1.1052 O   0  0  0  0  0 15  0  0  0  0  0  0
   61.6781   -3.3631    1.2097 C   0  0  0  0  0 15  0  0  0  0  0  0
   63.2371   -4.2609    1.0485 S   0  0  0  0  0 15  0  0  0  0  0  0
   60.0551   -0.6559    0.2744 H   0  0  0  0  0 15  0  0  0  0  0  0
   62.6571   -1.4287    1.3344 H   0  0  0  0  0 15  0  0  0  0  0  0
   61.3611   -3.4209    2.2672 H   0  0  0  0  0 15  0  0  0  0  0  0
   60.8921   -3.8842    0.6240 H   0  0  0  0  0 15  0  0  0  0  0  0
   62.9071   -4.9619   -0.0333 H   0  0  0  0  0 15  0  0  0  0  0  0
   62.0802   -0.8215   -1.3449 N   0  0  0  0  0 15  0  0  0  0  0  0
   63.0432   -0.2478   -2.2786 C   0  0  0  0  0 15  0  0  0  0  0  0
   64.0432    0.5735   -1.5023 C   0  0  0  0  0 15  0  0  0  0  0  0
   65.2332    0.3898   -1.6978 O   0  0  0  0  0 15  0  0  0  0  0  0
   62.3652    0.6527   -3.3459 C   0  0  0  0  0 15  0  0  0  0  0  0
   63.5582   -1.0715   -2.8011 H   0  0  0  0  0 15  0  0  0  0  0  0
   61.1112   -0.5933   -1.4460 H   0  0  0  0  0 15  0  0  0  0  0  0
   61.8462    1.4994   -2.8755 H   0  0  0  0  0 15  0  0  0  0  0  0
   61.6312    0.0653   -3.9205 H   0  0  0  0  0 15  0  0  0  0  0  0
   63.1212    1.0479   -4.0424 H   0  0  0  0  0 15  0  0  0  0  0  0
   63.5583    1.4668   -0.5764 N   0  0  0  0  0 15  0  0  0  0  0  0
   64.5053    2.3024    0.1605 C   0  0  0  0  0 15  0  0  0  0  0  0
   65.4753    1.4023    0.8902 C   0  0  0  0  0 15  0  0  0  0  0  0
   66.6603    1.6919    0.8821 O   0  0  0  0  0 15  0  0  0  0  0  0
   63.8003    3.2458    1.1723 C   0  0  0  0  0 15  0  0  0  0  0  0
   62.9133    4.2968    0.4467 C   0  0  0  0  0 15  0  0  0  0  0  0
   62.0483    5.1115    1.4455 C   0  0  0  0  0 15  0  0  0  0  0  0
   61.0873    6.0801    0.7060 C   0  0  0  0  0 15  0  0  0  0  0  0
   60.2243    6.8238    1.6525 N   0  0  0  0  0 15  0  0  0  0  0  0
   65.0643    2.9273   -0.5581 H   0  0  0  0  0 15  0  0  0  0  0  0
   62.6013    1.4427   -0.2871 H   0  0  0  0  0 15  0  0  0  0  0  0
   64.5593    3.7771    1.7717 H   0  0  0  0  0 15  0  0  0  0  0  0
   63.1893    2.6392    1.8587 H   0  0  0  0  0 15  0  0  0  0  0  0
   62.2413    3.7946   -0.2676 H   0  0  0  0  0 15  0  0  0  0  0  0
   63.5533    4.9863   -0.1317 H   0  0  0  0  0 15  0  0  0  0  0  0
   62.7073    5.6853    2.1179 H   0  0  0  0  0 15  0  0  0  0  0  0
   61.4463    4.4216    2.0579 H   0  0  0  0  0 15  0  0  0  0  0  0
   60.4513    5.4980    0.0198 H   0  0  0  0  0 15  0  0  0  0  0  0
   61.6763    6.7903    0.0991 H   0  0  0  0  0 15  0  0  0  0  0  0
   59.6223    6.1609    2.2531 H   0  0  0  0  0 15  0  0  0  0  0  0
   59.5393    7.4756    1.1267 H   0  0  0  0  0 15  0  0  0  0  0  0
   60.8073    7.4432    2.3155 H   0  0  0  0  0 15  0  0  0  0  0  0
   65.0364    0.3138    1.5444 N   0  0  0  0  0 15  0  0  0  0  0  0
   66.2764   -0.2924    2.0230 C   0  0  0  0  0 15  0  0  0  0  0  0
   66.6404   -1.5010    1.1972 C   0  0  0  0  0 15  0  0  0  0  0  0
   67.8414   -2.1795    1.5733 O   0  0  0  0  0 15  0  0  0  0  0  0
   66.1124   -0.6277    3.5185 C   0  0  0  0  0 15  0  0  0  0  0  0
   67.6714   -1.2149    4.2165 S   0  0  0  0  0 15  0  0  0  0  0  0
   64.4894   -0.0890    0.7054 H   0  0  0  0  0 15  0  0  0  0  0  0
   67.0914    0.4447    1.9038 H   0  0  0  0  0 15  0  0  0  0  0  0
   65.7954    0.2603    4.0957 H   0  0  0  0  0 15  0  0  0  0  0  0
   65.3264   -1.3952    3.6783 H   0  0  0  0  0 15  0  0  0  0  0  0
   67.3414   -2.5022    4.2849 H   0  0  0  0  0 15  0  0  0  0  0  0
   66.5145   -1.5754    0.0418 N   0  0  0  0  0 15  0  0  0  0  0  0
   67.4775   -2.0988   -0.9209 C   0  0  0  0  0 15  0  0  0  0  0  0
   68.4775   -1.0165   -1.2460 C   0  0  0  0  0 15  0  0  0  0  0  0
   69.6675   -1.2776   -1.1842 O   0  0  0  0  0 15  0  0  0  0  0  0
   66.7995   -2.5753   -2.2337 C   0  0  0  0  0 15  0  0  0  0  0  0
   67.9925   -2.9624   -0.4674 H   0  0  0  0  0 15  0  0  0  0  0  0
   65.5455   -1.5493   -0.2065 H   0  0  0  0  0 15  0  0  0  0  0  0
   66.2805   -1.7454   -2.7332 H   0  0  0  0  0 15  0  0  0  0  0  0
   66.0655   -3.3661   -2.0108 H   0  0  0  0  0 15  0  0  0  0  0  0
   67.5555   -2.9820   -2.9235 H   0  0  0  0  0 15  0  0  0  0  0  0
   67.9926    0.2315   -1.5589 N   0  0  0  0  0 15  0  0  0  0  0  0
   68.9246    1.3101   -1.8807 C   0  0  0  0  0 15  0  0  0  0  0  0
   69.9376    1.4354   -0.7681 C   0  0  0  0  0 15  0  0  0  0  0  0
   71.1266    1.4461   -1.0464 O   0  0  0  0  0 15  0  0  0  0  0  0
   68.2266    2.6869   -2.0654 C   0  0  0  0  0 15  0  0  0  0  0  0
   67.3996    2.7823   -3.3750 C   0  0  0  0  0 15  0  0  0  0  0  0
   66.4586    3.9686   -3.4553 C   0  0  0  0  0 15  0  0  0  0  0  0
   65.4846    3.8566   -4.1863 O   0  0  0  0  0 15  0  0  0  0  0  0
   66.6866    5.1072   -2.7594 N   0  0  0  0  0 15  0  0  0  0  0  0
   69.4516    1.0373   -2.8118 H   0  0  0  0  0 15  0  0  0  0  0  0
   67.0126    0.4216   -1.5631 H   0  0  0  0  0 15  0  0  0  0  0  0
   69.0046    3.4641   -2.0924 H   0  0  0  0  0 15  0  0  0  0  0  0
   67.5746    2.8860   -1.2011 H   0  0  0  0  0 15  0  0  0  0  0  0
   66.7946    1.8706   -3.4699 H   0  0  0  0  0 15  0  0  0  0  0  0
   68.0826    2.8156   -4.2379 H   0  0  0  0  0 15  0  0  0  0  0  0
   67.4806    5.2271   -2.1631 H   0  0  0  0  0 15  0  0  0  0  0  0
   66.0376    5.8652   -2.8431 H   0  0  0  0  0 15  0  0  0  0  0  0
   69.4707    1.4953    0.4978 N   0  0  0  0  0 15  0  0  0  0  0  0
   70.7187    1.5886    1.2493 C   0  0  0  0  0 15  0  0  0  0  0  0
   71.0397    0.2787    1.9300 C   0  0  0  0  0 15  0  0  0  0  0  0
   70.3097   -0.7021    1.8288 O   0  0  0  0  0 15  0  0  0  0  0  0
   68.8897    0.5853    0.4641 H   0  0  0  0  0 15  0  0  0  0  0  0
   71.5517    1.8617    0.5767 H   0  0  0  0  0 15  0  0  0  0  0  0
   70.6477    2.3863    2.0115 H   0  0  0  0  0 15  0  0  0  0  0  0
   70.9488   -0.7491    1.3866 N   0  0  0  0  0 15  0  0  0  0  0  0
   72.1888   -1.5211    1.3653 C   0  0  0  0  0 15  0  0  0  0  0  0
   72.5528   -1.9195   -0.0432 C   0  0  0  0  0 15  0  0  0  0  0  0
   73.7538   -2.6813   -0.1894 O   0  0  0  0  0 15  0  0  0  0  0  0
   72.0248   -2.7370    2.2983 C   0  0  0  0  0 15  0  0  0  0  0  0
   73.5838   -3.6352    2.4576 S   0  0  0  0  0 15  0  0  0  0  0  0
   70.4018   -0.5205    0.4844 H   0  0  0  0  0 15  0  0  0  0  0  0
   73.0038   -0.8790    1.7463 H   0  0  0  0  0 15  0  0  0  0  0  0
   71.7078   -2.4255    3.3105 H   0  0  0  0  0 15  0  0  0  0  0  0
   71.2388   -3.4286    1.9290 H   0  0  0  0  0 15  0  0  0  0  0  0
   73.2538   -4.6671    1.6850 H   0  0  0  0  0 15  0  0  0  0  0  0
   72.4269   -1.2360   -0.9778 N   0  0  0  0  0 15  0  0  0  0  0  0
   73.6759   -1.0638   -1.7137 C   0  0  0  0  0 15  0  0  0  0  0  0
   73.9889    0.3991   -1.9149 C   0  0  0  0  0 15  0  0  0  0  0  0
   75.1949    0.6913   -2.6255 O   0  0  0  0  0 15  0  0  0  0  0  0
   73.6509   -1.8551   -3.0840 C   0  0  0  0  0 15  0  0  0  0  0  0
   73.2589   -3.3614   -2.9616 C   0  0  0  0  0 15  0  0  0  0  0  0
   75.0029   -1.7678   -3.8594 C   0  0  0  0  0 15  0  0  0  0  0  0
   72.9099   -4.0766   -4.2845 C   0  0  0  0  0 15  0  0  0  0  0  0
   71.8399   -0.3945   -0.6426 H   0  0  0  0  0 15  0  0  0  0  0  0
   74.4909   -1.4759   -1.0903 H   0  0  0  0  0 15  0  0  0  0  0  0
   72.8729   -1.3710   -3.7151 H   0  0  0  0  0 15  0  0  0  0  0  0
   74.0469   -3.9206   -2.4213 H   0  0  0  0  0 15  0  0  0  0  0  0
   72.3619   -3.4571   -2.3210 H   0  0  0  0  0 15  0  0  0  0  0  0
   74.9589   -2.2753   -4.8388 H   0  0  0  0  0 15  0  0  0  0  0  0
   75.3019   -0.7311   -4.0983 H   0  0  0  0  0 15  0  0  0  0  0  0
   75.8349   -2.2282   -3.2954 H   0  0  0  0  0 15  0  0  0  0  0  0
   72.5739   -5.1165   -4.0975 H   0  0  0  0  0 15  0  0  0  0  0  0
   72.0939   -3.5653   -4.8233 H   0  0  0  0  0 15  0  0  0  0  0  0
   73.7729   -4.1410   -4.9712 H   0  0  0  0  0 15  0  0  0  0  0  0
   73.9050    1.1769   -1.0482 N   0  0  0  0  0 15  0  0  0  0  0  0
   75.1450    1.8955   -0.7650 C   0  0  0  0  0 15  0  0  0  0  0  0
   75.5090    1.7898    0.6950 C   0  0  0  0  0 15  0  0  0  0  0  0
   76.7100    2.4561    1.0921 O   0  0  0  0  0 15  0  0  0  0  0  0
   74.9810    3.3566   -1.2275 C   0  0  0  0  0 15  0  0  0  0  0  0
   76.5400    4.2553   -1.0711 S   0  0  0  0  0 15  0  0  0  0  0  0
   73.3580    0.6544   -0.2779 H   0  0  0  0  0 15  0  0  0  0  0  0
   75.9600    1.4216   -1.3420 H   0  0  0  0  0 15  0  0  0  0  0  0
   74.6640    3.4088   -2.2853 H   0  0  0  0  0 15  0  0  0  0  0  0
   74.1950    3.8808   -0.6446 H   0  0  0  0  0 15  0  0  0  0  0  0
   76.2100    4.9620    0.0070 H   0  0  0  0  0 15  0  0  0  0  0  0
   75.3831    0.8287    1.3406 N   0  0  0  0  0 15  0  0  0  0  0  0
   76.3301    0.2526    2.2941 C   0  0  0  0  0 15  0  0  0  0  0  0
   77.3001   -0.6259    1.5386 C   0  0  0  0  0 15  0  0  0  0  0  0
   78.4851   -0.5663    1.8220 O   0  0  0  0  0 15  0  0  0  0  0  0
   75.6251   -0.5748    3.4028 C   0  0  0  0  0 15  0  0  0  0  0  0
   74.7381    0.3265    4.3076 C   0  0  0  0  0 15  0  0  0  0  0  0
   73.8731   -0.5110    5.2874 C   0  0  0  0  0 15  0  0  0  0  0  0
   72.9121    0.3893    6.1086 C   0  0  0  0  0 15  0  0  0  0  0  0
   72.0491   -0.4094    7.0091 N   0  0  0  0  0 15  0  0  0  0  0  0
   76.8891    1.0711    2.7809 H   0  0  0  0  0 15  0  0  0  0  0  0
   74.4261    0.5397    1.3684 H   0  0  0  0  0 15  0  0  0  0  0  0
   76.3841   -1.0699    4.0325 H   0  0  0  0  0 15  0  0  0  0  0  0
   75.0141   -1.3584    2.9283 H   0  0  0  0  0 15  0  0  0  0  0  0
   74.0661    0.9398    3.6861 H   0  0  0  0  0 15  0  0  0  0  0  0
   75.3781    1.0186    4.8829 H   0  0  0  0  0 15  0  0  0  0  0  0
   74.5321   -1.0703    5.9718 H   0  0  0  0  0 15  0  0  0  0  0  0
   73.2711   -1.2366    4.7176 H   0  0  0  0  0 15  0  0  0  0  0  0
   72.2761    0.9608    5.4134 H   0  0  0  0  0 15  0  0  0  0  0  0
   73.5011    1.1131    6.6992 H   0  0  0  0  0 15  0  0  0  0  0  0
   71.4471   -1.1186    6.4639 H   0  0  0  0  0 15  0  0  0  0  0  0
   71.3641    0.2241    7.5567 H   0  0  0  0  0 15  0  0  0  0  0  0
   72.6321   -0.9513    7.7367 H   0  0  0  0  0 15  0  0  0  0  0  0
   76.8612   -1.4637    0.5841 N   0  0  0  0  0 15  0  0  0  0  0  0
   78.1092   -2.0198    0.0701 C   0  0  0  0  0 15  0  0  0  0  0  0
   78.4302   -1.4579   -1.2950 C   0  0  0  0  0 15  0  0  0  0  0  0
   77.7002   -0.6431   -1.8504 O   0  0  0  0  0 15  0  0  0  0  0  0
   76.2802   -0.7466    0.0229 H   0  0  0  0  0 15  0  0  0  0  0  0
   78.9422   -1.7946    0.7602 H   0  0  0  0  0 15  0  0  0  0  0  0
   78.0382   -3.1210    0.0022 H   0  0  0  0  0 15  0  0  0  0  0  0
   78.3393   -0.3220   -1.5428 N   0  0  0  0  0 15  0  0  0  0  0  0
   79.3023    0.5320   -2.2294 C   0  0  0  0  0 15  0  0  0  0  0  0
   80.3023    1.0448   -1.2223 C   0  0  0  0  0 15  0  0  0  0  0  0
   81.4923    0.9375   -1.4682 O   0  0  0  0  0 15  0  0  0  0  0  0
   78.6243    1.7387   -2.9322 C   0  0  0  0  0 15  0  0  0  0  0  0
   79.8173   -0.0683   -2.9982 H   0  0  0  0  0 15  0  0  0  0  0  0
   77.3703   -0.0731   -1.5613 H   0  0  0  0  0 15  0  0  0  0  0  0
   78.1053    2.3783   -2.2048 H   0  0  0  0  0 15  0  0  0  0  0  0
   77.8903    1.3785   -3.6707 H   0  0  0  0  0 15  0  0  0  0  0  0
   79.3803    2.3450   -3.4555 H   0  0  0  0  0 15  0  0  0  0  0  0
   79.8174    1.5752   -0.0501 N   0  0  0  0  0 15  0  0  0  0  0  0
   81.0424    1.9738    0.6370 C   0  0  0  0  0 15  0  0  0  0  0  0
   81.4674    0.9275    1.6364 C   0  0  0  0  0 15  0  0  0  0  0  0
   80.8254   -0.1094    1.8097 O   0  0  0  0  0 15  0  0  0  0  0  0
   80.8734    3.3630    1.3012 C   0  0  0  0  0 15  0  0  0  0  0  0
   79.9774    3.3416    2.4169 O   0  0  0  0  0 15  0  0  0  0  0  0
   79.3184    0.6430    0.1657 H   0  0  0  0  0 15  0  0  0  0  0  0
   81.8484    2.0426   -0.1182 H   0  0  0  0  0 15  0  0  0  0  0  0
   81.8584    3.7301    1.6532 H   0  0  0  0  0 15  0  0  0  0  0  0
   80.5334    4.1199    0.5687 H   0  0  0  0  0 15  0  0  0  0  0  0
   79.1104    3.0920    2.0845 H   0  0  0  0  0 15  0  0  0  0  0  0
   81.2955   -0.2232    1.5601 N   0  0  0  0  0 15  0  0  0  0  0  0
   82.2055   -1.2977    1.9544 C   0  0  0  0  0 15  0  0  0  0  0  0
   83.2215   -1.5137    0.8580 C   0  0  0  0  0 15  0  0  0  0  0  0
   84.3975   -1.6454    1.1615 O   0  0  0  0  0 15  0  0  0  0  0  0
   81.4625   -2.6277    2.2617 C   0  0  0  0  0 15  0  0  0  0  0  0
   80.5235   -2.4948    3.4937 C   0  0  0  0  0 15  0  0  0  0  0  0
   79.7565   -3.7615    3.7862 C   0  0  0  0  0 15  0  0  0  0  0  0
   79.9795   -4.7909    3.0957 O   0  0  0  0  0 15  0  0  0  0  0  0
   78.9135   -3.7336    4.7211 O   0  0  0  0  0 15  0  0  0  0  0  0
   82.7395   -0.9931    2.8700 H   0  0  0  0  0 15  0  0  0  0  0  0
   80.3245   -0.4260    1.4320 H   0  0  0  0  0 15  0  0  0  0  0  0
   82.2065   -3.4133    2.4713 H   0  0  0  0  0 15  0  0  0  0  0  0
   80.8815   -2.9291    1.3778 H   0  0  0  0  0 15  0  0  0  0  0  0
   79.7885   -1.6913    3.3368 H   0  0  0  0  0 15  0  0  0  0  0  0
   81.1215   -2.2428    4.3813 H   0  0  0  0  0 15  0  0  0  0  0  0
   82.7736   -1.4979   -0.4899 N   0  0  0  0  0 15  0  0  0  0  0  0
   83.7206   -1.6728   -1.5901 C   0  0  0  0  0 15  0  0  0  0  0  0
   84.6906   -0.5142   -1.5794 C   0  0  0  0  0 15  0  0  0  0  0  0
   85.8756   -0.7425   -1.7576 O   0  0  0  0  0 15  0  0  0  0  0  0
   83.0156   -1.7557   -2.9710 C   0  0  0  0  0 15  0  0  0  0  0  0
   82.1286   -3.0281   -3.0811 C   0  0  0  0  0 15  0  0  0  0  0  0
   81.2636   -3.0201   -4.3700 C   0  0  0  0  0 15  0  0  0  0  0  0
   80.3026   -4.2378   -4.4167 C   0  0  0  0  0 15  0  0  0  0  0  0
   79.4396   -4.2083   -5.6201 N   0  0  0  0  0 15  0  0  0  0  0  0
   84.2796   -2.6122   -1.4341 H   0  0  0  0  0 15  0  0  0  0  0  0
   81.8166   -1.2951   -0.6976 H   0  0  0  0  0 15  0  0  0  0  0  0
   83.7746   -1.7835   -3.7715 H   0  0  0  0  0 15  0  0  0  0  0  0
   82.4046   -0.8508   -3.1139 H   0  0  0  0  0 15  0  0  0  0  0  0
   81.4566   -3.0958   -2.2105 H   0  0  0  0  0 15  0  0  0  0  0  0
   82.7686   -3.9280   -3.0742 H   0  0  0  0  0 15  0  0  0  0  0  0
   81.9226   -3.0342   -5.2538 H   0  0  0  0  0 15  0  0  0  0  0  0
   80.6616   -2.0981   -4.4026 H   0  0  0  0  0 15  0  0  0  0  0  0
   79.6666   -4.2260   -3.5169 H   0  0  0  0  0 15  0  0  0  0  0  0
   80.8916   -5.1718   -4.4011 H   0  0  0  0  0 15  0  0  0  0  0  0
   78.8376   -3.3148   -5.6609 H   0  0  0  0  0 15  0  0  0  0  0  0
   78.7546   -5.0456   -5.6298 H   0  0  0  0  0 15  0  0  0  0  0  0
   80.0226   -4.2636   -6.5257 H   0  0  0  0  0 15  0  0  0  0  0  0
   84.2517    0.7417   -1.3905 N   0  0  0  0  0 15  0  0  0  0  0  0
   85.4917    1.5139   -1.3734 C   0  0  0  0  0 15  0  0  0  0  0  0
   85.8557    1.9197    0.0331 C   0  0  0  0  0 15  0  0  0  0  0  0
   87.0567    2.6823    0.1752 O   0  0  0  0  0 15  0  0  0  0  0  0
   85.3277    2.7248   -2.3128 C   0  0  0  0  0 15  0  0  0  0  0  0
   86.8867    3.6221   -2.4769 S   0  0  0  0  0 15  0  0  0  0  0  0
   83.7047    0.5179   -0.4871 H   0  0  0  0  0 15  0  0  0  0  0  0
   86.3067    0.8697   -1.7509 H   0  0  0  0  0 15  0  0  0  0  0  0
   85.0107    2.4079   -3.3234 H   0  0  0  0  0 15  0  0  0  0  0  0
   84.5417    3.4183   -1.9472 H   0  0  0  0  0 15  0  0  0  0  0  0
   86.5567    4.6581   -1.7098 H   0  0  0  0  0 15  0  0  0  0  0  0
   85.7298    1.2412    0.9712 N   0  0  0  0  0 15  0  0  0  0  0  0
   86.9548    1.1067    1.7541 C   0  0  0  0  0 15  0  0  0  0  0  0
   87.3798   -0.3370    1.8506 C   0  0  0  0  0 15  0  0  0  0  0  0
   86.7378   -1.2440    1.3189 O   0  0  0  0  0 15  0  0  0  0  0  0
   86.7858    1.7473    3.1544 C   0  0  0  0  0 15  0  0  0  0  0  0
   85.8898    1.0157    3.9970 O   0  0  0  0  0 15  0  0  0  0  0  0
   85.2308    0.3873    0.5393 H   0  0  0  0  0 15  0  0  0  0  0  0
   87.7608    1.6436    1.2185 H   0  0  0  0  0 15  0  0  0  0  0  0
   87.7708    1.8034    3.6598 H   0  0  0  0  0 15  0  0  0  0  0  0
   86.4458    2.7977    3.0773 H   0  0  0  0  0 15  0  0  0  0  0  0
   85.0228    1.0371    3.5819 H   0  0  0  0  0 15  0  0  0  0  0  0
   87.2079   -1.1713    1.0544 N   0  0  0  0  0 15  0  0  0  0  0  0
   88.4479   -1.8914    0.7750 C   0  0  0  0  0 15  0  0  0  0  0  0
   88.8119   -1.7934   -0.6855 C   0  0  0  0  0 15  0  0  0  0  0  0
   90.0129   -2.4619   -1.0791 O   0  0  0  0  0 15  0  0  0  0  0  0
   88.2839   -3.3500    1.2453 C   0  0  0  0  0 15  0  0  0  0  0  0
   89.8429   -4.2495    1.0937 S   0  0  0  0  0 15  0  0  0  0  0  0
   86.6609   -0.6529    0.2814 H   0  0  0  0  0 15  0  0  0  0  0  0
   89.2629   -1.4145    1.3495 H   0  0  0  0  0 15  0  0  0  0  0  0
   87.9669   -3.3967    2.3034 H   0  0  0  0  0 15  0  0  0  0  0  0
   87.4979   -3.8774    0.6652 H   0  0  0  0  0 15  0  0  0  0  0  0
   89.5129   -4.9620    0.0193 H   0  0  0  0  0 15  0  0  0  0  0  0
   88.6860   -0.8358   -1.3361 N   0  0  0  0  0 15  0  0  0  0  0  0
   89.9260   -0.4360   -1.9970 C   0  0  0  0  0 15  0  0  0  0  0  0
   90.2900    0.9856   -1.6477 C   0  0  0  0  0 15  0  0  0  0  0  0
   91.4910    1.4889   -2.2380 O   0  0  0  0  0 15  0  0  0  0  0  0
   89.7620   -0.6467   -3.5150 C   0  0  0  0  0 15  0  0  0  0  0  0
   91.3210   -0.3417   -4.3747 S   0  0  0  0  0 15  0  0  0  0  0  0
   88.1390   -0.1641   -0.6918 H   0  0  0  0  0 15  0  0  0  0  0  0
   90.7410   -1.0844   -1.6267 H   0  0  0  0  0 15  0  0  0  0  0  0
   89.4450   -1.6808   -3.7440 H   0  0  0  0  0 15  0  0  0  0  0  0
   88.9760    0.0159   -3.9340 H   0  0  0  0  0 15  0  0  0  0  0  0
   90.9910    0.8397   -4.8904 H   0  0  0  0  0 15  0  0  0  0  0  0
   90.1641    1.4606   -0.5919 N   0  0  0  0  0 15  0  0  0  0  0  0
   91.1271    2.2885    0.1260 C   0  0  0  0  0 15  0  0  0  0  0  0
   92.1271    1.3890    0.8101 C   0  0  0  0  0 15  0  0  0  0  0  0
   93.3171    1.6119    0.6607 O   0  0  0  0  0 15  0  0  0  0  0  0
   90.4491    3.1953    1.1881 C   0  0  0  0  0 15  0  0  0  0  0  0
   91.6421    2.9380   -0.6017 H   0  0  0  0  0 15  0  0  0  0  0  0
   89.1951    1.5233   -0.3503 H   0  0  0  0  0 15  0  0  0  0  0  0
   89.9301    2.5934    1.9471 H   0  0  0  0  0 15  0  0  0  0  0  0
   89.7151    3.8577    0.7019 H   0  0  0  0  0 15  0  0  0  0  0  0
   91.2051    3.8182    1.6913 H   0  0  0  0  0 15  0  0  0  0  0  0
   91.6811    0.4723    1.5444 O   0  0  0  0  0 15  0  0  0  0  0  0
   92.3721   -0.0527    1.9363 H   0  0  0  0  0 15  0  0  0  0  0  0
M  END
$$$$
