drugbank_target|P13688 Carcinoembryonic antigen-related cell adhesion molecule 1 (DB00113)
 OpenBabel12092119243D

  0  0  0     0  0            999 V3000
M  V30 BEGIN CTAB
M  V30 COUNTS 8014 8110 0 0 0
M  V30 BEGIN ATOM
M  V30 1 H -0.908 1.98254 -0.117106 0
M  V30 2 N 0 1.576 0 0
M  V30 3 C 0.933 2.03868 1.02534 0
M  V30 4 C 1.911 0.928543 1.3348 0
M  V30 5 O 3.095 1.19667 1.45644 0
M  V30 6 C 0.222 2.43627 2.35294 0
M  V30 7 C -0.732 3.65373 2.2001 0
M  V30 8 S 0.101 5.13292 1.52614 0
M  V30 9 C 1.257 5.56322 2.86805 0
M  V30 10 H 1.49 2.90518 0.631377 0
M  V30 11 H -0.977 1.52953 0.210867 0
M  V30 12 H 0.981 2.67203 3.11629 0
M  V30 13 H -0.358 1.57376 2.7183 0
M  V30 14 H -1.165 3.90944 3.18086 0
M  V30 15 H -1.563 3.418 1.51819 0
M  V30 16 H 0.729 5.58782 3.83104 0
M  V30 17 H 1.672 6.56266 2.65933 0
M  V30 18 H 2.08 4.83886 2.90714 0
M  V30 19 N 1.4781 -0.272755 1.55222 0
M  V30 20 C 2.7261 -1.00234 1.75492 0
M  V30 21 C 3.0471 -1.8681 0.5592 0
M  V30 22 O 2.3171 -1.91215 -0.425882 0
M  V30 23 H 0.8971 -0.373076 0.647166 0
M  V30 24 H 3.5591 -0.296926 1.92625 0
M  V30 25 H 2.6551 -1.63913 2.65592 0
M  V30 26 N 2.9562 -1.48159 -0.537278 0
M  V30 27 C 3.9062 -1.5854 -1.63857 0
M  V30 28 C 4.8902 -0.442969 -1.54682 0
M  V30 29 O 6.0822 -0.69401 -1.62827 0
M  V30 30 C 3.2112 -1.62144 -3.02596 0
M  V30 31 C 2.2972 -2.81841 -3.16901 0
M  V30 32 N 2.6882 -4.06337 -3.01204 0
M  V30 33 C 0.9862 -2.79021 -3.47942 0
M  V30 34 C 1.6872 -4.86606 -3.18731 0
M  V30 35 N 0.6632 -4.19288 -3.45974 0
M  V30 36 H 4.4652 -2.5255 -1.50319 0
M  V30 37 H 1.9792 -1.4443 -0.742555 0
M  V30 38 H 3.9762 -1.67674 -3.81695 0
M  V30 39 H 2.6362 -0.69245 -3.17231 0
M  V30 40 H 3.6472 -4.36888 -2.78117 0
M  V30 41 H 0.3242 -1.95347 -3.6898 0
M  V30 42 H 1.7142 -5.95385 -3.11394 0
M  V30 43 N 4.4343 0.785586 -1.36625 0
M  V30 44 C 5.3643 1.91259 -1.33949 0
M  V30 45 C 6.3453 1.68795 -0.210325 0
M  V30 46 O 7.5303 1.89854 -0.408561 0
M  V30 47 C 4.6603 3.28339 -1.13186 0
M  V30 48 C 3.6143 3.65335 -2.22967 0
M  V30 49 C 2.9403 5.00806 -1.87342 0
M  V30 50 C 4.2403 3.7352 -3.65075 0
M  V30 51 H 5.9343 1.93755 -2.28253 0
M  V30 52 H 3.4803 0.930788 -1.09874 0
M  V30 53 H 5.4333 4.06804 -1.09948 0
M  V30 54 H 4.1573 3.2624 -0.153332 0
M  V30 55 H 2.8163 2.89169 -2.25337 0
M  V30 56 H 2.4643 4.95233 -0.880545 0
M  V30 57 H 2.1643 5.26529 -2.60846 0
M  V30 58 H 3.6883 5.81687 -1.85667 0
M  V30 59 H 5.1023 4.42168 -3.64911 0
M  V30 60 H 3.4993 4.10731 -4.37516 0
M  V30 61 H 4.5693 2.74527 -3.99703 0
M  V30 62 N 5.9124 1.20967 1.01018 0
M  V30 63 C 7.1374 1.0503 1.78839 0
M  V30 64 C 7.5624 -0.395752 1.8389 0
M  V30 65 O 6.9204 -1.28529 1.27867 0
M  V30 66 C 6.9684 1.64602 3.2084 0
M  V30 67 O 6.0724 0.887988 4.02726 0
M  V30 68 H 5.4134 0.369987 0.551367 0
M  V30 69 H 7.9434 1.60399 1.27018 0
M  V30 70 H 7.9534 1.68607 3.71532 0
M  V30 71 H 6.6284 2.69841 3.16479 0
M  V30 72 H 5.2054 0.922648 3.61305 0
M  V30 73 N 7.3905 -1.2043 1.01659 0
M  V30 74 C 8.3535 -2.21433 0.591616 0
M  V30 75 C 9.3535 -1.57203 -0.338226 0
M  V30 76 O 10.5435 -1.73737 -0.126918 0
M  V30 77 C 7.6755 -3.40628 -0.136058 0
M  V30 78 H 8.8685 -2.60545 1.48514 0
M  V30 79 H 6.4215 -1.33893 0.806379 0
M  V30 80 H 7.1565 -3.07019 -1.04449 0
M  V30 81 H 6.9415 -3.88475 0.531917 0
M  V30 82 H 8.4315 -4.15475 -0.420735 0
M  V30 83 N 8.8686 -0.792821 -1.36206 0
M  V30 84 C 10.2796 -0.429513 -1.81692 0
M  V30 85 C 10.6306 1.04695 -1.65932 0
M  V30 86 O 9.7556 1.81256 -1.18218 0
M  V30 87 C 10.3506 -0.772831 -3.29868 0
M  V30 88 C 8.9096 -0.462307 -3.7355 0
M  V30 89 C 8.0566 -1.00569 -2.5842 0
M  V30 90 H 11.0076 -0.985672 -1.24379 0
M  V30 91 H 11.0286 -0.0651928 -3.80444 0
M  V30 92 H 10.5406 -1.84747 -3.41307 0
M  V30 93 H 8.6416 0.604158 -3.67669 0
M  V30 94 H 8.7546 -0.985299 -4.68859 0
M  V30 95 H 7.1186 -0.428734 -2.51066 0
M  V30 96 H 7.9016 -2.08616 -2.72643 0
M  V30 97 N 10.3467 1.47872 -0.545128 0
M  V30 98 C 11.2767 2.32661 0.197793 0
M  V30 99 C 12.2577 1.43041 0.920504 0
M  V30 100 O 13.4427 1.71912 0.90333 0
M  V30 101 C 10.5727 3.24569 1.23582 0
M  V30 102 C 9.5267 4.23333 0.630323 0
M  V30 103 C 8.8527 5.0448 1.77211 0
M  V30 104 C 10.1527 5.20704 -0.407974 0
M  V30 105 H 11.8467 2.95024 -0.510045 0
M  V30 106 H 9.3927 1.4187 -0.246731 0
M  V30 107 H 11.3457 3.8272 1.76362 0
M  V30 108 H 10.0697 2.60236 1.97344 0
M  V30 109 H 8.7287 3.6639 0.123922 0
M  V30 110 H 8.3767 4.36561 2.49847 0
M  V30 111 H 8.0767 5.71339 1.37281 0
M  V30 112 H 9.6007 5.65487 2.3034 0
M  V30 113 H 11.0147 5.7329 0.033305 0
M  V30 114 H 9.4117 5.95699 -0.725486 0
M  V30 115 H 10.4817 4.66917 -1.30828 0
M  V30 116 N 11.8248 0.280983 1.55075 0
M  V30 117 C 12.7748 -0.618585 2.19448 0
M  V30 118 C 13.7588 -1.11401 1.16098 0
M  V30 119 O 14.9508 -1.0581 1.41891 0
M  V30 120 C 12.0798 -1.79951 2.92357 0
M  V30 121 C 11.1658 -1.321 4.03002 0
M  V30 122 N 11.5568 -0.559044 5.02701 0
M  V30 123 C 9.8548 -1.60346 4.16179 0
M  V30 124 C 10.5558 -0.306722 5.80891 0
M  V30 125 N 9.5318 -0.880825 5.36416 0
M  V30 126 H 13.3338 -0.0286638 2.93886 0
M  V30 127 H 10.8478 0.0848104 1.62178 0
M  V30 128 H 12.8448 -2.45531 3.36927 0
M  V30 129 H 11.5048 -2.39333 2.19431 0
M  V30 130 H 12.5158 -0.205827 5.17491 0
M  V30 131 H 9.1928 -2.20621 3.54447 0
M  V30 132 H 10.5828 0.30391 6.71212 0
M  V30 133 N 13.3029 -1.57598 0.00835791 0
M  V30 134 C 14.7189 -1.55764 -0.347822 0
M  V30 135 C 14.9189 -1.01186 -1.74252 0
M  V30 136 O 13.9749 -0.649371 -2.44007 0
M  V30 137 C 15.2879 -2.99927 -0.215407 0
M  V30 138 C 16.8359 -3.11656 -0.289725 0
M  V30 139 C 17.3109 -4.57621 -0.18634 0
M  V30 140 N 18.8019 -4.62557 -0.243978 0
M  V30 141 C 19.5369 -5.73094 -0.18745 0
M  V30 142 N 19.0329 -6.92753 -0.0810331 0
M  V30 143 N 20.8259 -5.61588 -0.239925 0
M  V30 144 H 12.9769 -1.91411 0.92062 0
M  V30 145 H 15.2399 -0.879562 0.353659 0
M  V30 146 H 14.9459 -3.43729 0.744512 0
M  V30 147 H 14.8199 -3.63865 -0.994097 0
M  V30 148 H 17.2069 -2.67779 -1.24009 0
M  V30 149 H 17.2879 -2.5048 0.51898 0
M  V30 150 H 16.9319 -5.02174 0.760519 0
M  V30 151 H 16.8619 -5.16752 -1.01364 0
M  V30 152 H 19.3529 -3.76481 -0.327217 0
M  V30 153 H 19.6659 -7.72787 -0.0440241 0
M  V30 154 H 18.0109 -6.94984 -0.0465419 0
M  V30 155 H 21.2019 -4.66996 -0.321317 0
M  V30 156 H 21.3749 -6.47714 -0.192407 0
M  V30 157 N 14.781 0.264519 -1.55364 0
M  V30 158 C 16.027 0.99646 -1.76631 0
M  V30 159 C 16.36 1.85632 -0.570478 0
M  V30 160 O 15.635 1.89647 0.43175 0
M  V30 161 C 15.918 1.87187 -3.07625 0
M  V30 162 C 15.771 1.04138 -4.37579 0
M  V30 163 C 17.09 2.85749 -3.34717 0
M  V30 164 H 14.209 0.360841 -0.642622 0
M  V30 165 H 16.851 0.268218 -1.88097 0
M  V30 166 H 15.001 2.49279 -2.9798 0
M  V30 167 H 16.673 0.440517 -4.59192 0
M  V30 168 H 14.916 0.345115 -4.32425 0
M  V30 169 H 15.587 1.68729 -5.2558 0
M  V30 170 H 18.063 2.33793 -3.4421 0
M  V30 171 H 16.939 3.44136 -4.27623 0
M  V30 172 H 17.2 3.61311 -2.54768 0
M  V30 173 N 16.2591 1.48442 0.529413 0
M  V30 174 C 17.6751 1.34575 0.858004 0
M  V30 175 C 17.8751 0.3572 1.98309 0
M  V30 176 O 16.9311 -0.221379 2.51528 0
M  V30 177 C 18.2441 2.74617 1.22499 0
M  V30 178 C 19.7921 2.83109 1.33484 0
M  V30 179 C 20.2671 4.23854 1.73526 0
M  V30 180 N 21.7581 4.2653 1.80628 0
M  V30 181 C 22.4931 5.32372 2.12997 0
M  V30 182 N 21.9891 6.48491 2.43786 0
M  V30 183 N 23.7821 5.19766 2.14008 0
M  V30 184 H 15.9331 2.1133 -0.212925 0
M  V30 185 H 18.1961 0.947439 -0.0326199 0
M  V30 186 H 17.9021 3.4852 0.471905 0
M  V30 187 H 17.7761 3.08177 2.17501 0
M  V30 188 H 20.1631 2.09462 2.0787 0
M  V30 189 H 20.2441 2.53168 0.366027 0
M  V30 190 H 19.8881 4.98018 0.997013 0
M  V30 191 H 19.8181 4.5124 2.71459 0
M  V30 192 H 22.3091 3.42772 1.59108 0
M  V30 193 H 22.6221 7.24993 2.67592 0
M  V30 194 H 20.9671 6.51765 2.41304 0
M  V30 195 H 24.1581 4.28066 1.89412 0
M  V30 196 H 24.3311 6.02354 2.38902 0
M  V30 197 N 17.7372 -0.778329 1.37039 0
M  V30 198 C 18.9832 -1.53892 1.32079 0
M  V30 199 C 19.3162 -1.9396 -0.0965386 0
M  V30 200 O 18.5912 -1.63568 -1.05242 0
M  V30 201 C 18.8742 -2.80847 2.25382 0
M  V30 202 C 18.7272 -2.47076 3.75864 0
M  V30 203 C 20.0462 -3.82741 2.1725 0
M  V30 204 H 17.1652 -0.558303 0.48111 0
M  V30 205 H 19.8072 -0.893397 1.67685 0
M  V30 206 H 17.9572 -3.35931 1.95148 0
M  V30 207 H 19.6292 -1.97957 4.16666 0
M  V30 208 H 17.8722 -1.79863 3.94755 0
M  V30 209 H 18.5432 -3.37798 4.36574 0
M  V30 210 H 21.0192 -3.37133 2.43887 0
M  V30 211 H 19.8952 -4.69303 2.84686 0
M  V30 212 H 20.1562 -4.2652 1.16331 0
M  V30 213 N 19.2153 -1.21501 -1.00376 0
M  V30 214 C 20.6263 -1.03146 -1.55621 0
M  V30 215 C 20.9773 0.408375 -1.91903 0
M  V30 216 O 20.1023 1.29177 -1.73616 0
M  V30 217 C 20.6973 -1.86612 -2.82775 0
M  V30 218 C 19.2563 -1.72586 -3.34501 0
M  V30 219 C 18.4033 -1.83747 -2.07683 0
M  V30 220 H 21.3543 -1.35505 -0.826081 0
M  V30 221 H 21.3753 -1.3771 -3.54706 0
M  V30 222 H 20.8873 -2.91399 -2.56336 0
M  V30 223 H 18.9883 -0.704877 -3.65872 0
M  V30 224 H 19.1013 -2.54623 -4.05837 0
M  V30 225 H 17.4653 -1.27069 -2.20739 0
M  V30 226 H 18.2483 -2.90044 -1.83655 0
M  V30 227 N 20.6934 1.19889 -1.02296 0
M  V30 228 C 21.9394 1.89973 -0.726759 0
M  V30 229 C 22.2944 1.7776 0.73614 0
M  V30 230 O 21.5874 1.15523 1.52856 0
M  V30 231 C 21.7814 3.39883 -1.10518 0
M  V30 232 C 21.6104 3.66684 -2.60332 0
M  V30 233 C 20.3804 3.85045 -3.27213 0
M  V30 234 C 22.5784 3.68727 -3.58532 0
M  V30 235 N 20.5604 3.99422 -4.66192 0
M  V30 236 C 21.9314 3.88604 -4.83101 0
M  V30 237 C 23.9864 3.51722 -3.52414 0
M  V30 238 C 22.6894 3.9324 -6.02292 0
M  V30 239 C 24.7154 3.57632 -4.71013 0
M  V30 240 C 24.0774 3.77988 -5.94394 0
M  V30 241 H 20.1764 0.714551 -0.317712 0
M  V30 242 H 22.7604 1.44123 -1.30907 0
M  V30 243 H 20.9314 3.8447 -0.551142 0
M  V30 244 H 22.6634 3.97464 -0.761853 0
M  V30 245 H 19.4184 3.83689 -2.77632 0
M  V30 246 H 19.8424 4.10473 -5.38368 0
M  V30 247 H 24.4844 3.34945 -2.58015 0
M  V30 248 H 22.2024 4.08811 -6.97065 0
M  V30 249 H 25.7884 3.45773 -4.67902 0
M  V30 250 H 24.6684 3.82428 -6.8463 0
M  V30 251 N 22.1715 0.800033 1.35784 0
M  V30 252 C 23.1035 0.163596 2.28615 0
M  V30 253 C 24.1165 -0.633317 1.49976 0
M  V30 254 O 25.3055 -0.466754 1.72289 0
M  V30 255 C 22.4055 -0.790958 3.29541 0
M  V30 256 C 21.5785 -0.0418255 4.3738 0
M  V30 257 C 20.6375 -0.91389 5.18203 0
M  V30 258 O 19.6635 -0.367234 5.68014 0
M  V30 259 N 20.8655 -2.23682 5.35674 0
M  V30 260 H 23.6305 0.96105 2.83873 0
M  V30 261 H 21.1915 0.654894 1.48063 0
M  V30 262 H 23.1835 -1.37844 3.80501 0
M  V30 263 H 21.7535 -1.48925 2.74846 0
M  V30 264 H 20.9735 0.726813 3.87442 0
M  V30 265 H 22.2615 0.474719 5.06581 0
M  V30 266 H 21.6595 -2.70497 4.96838 0
M  V30 267 H 20.2165 -2.77369 5.89839 0
M  V30 268 N 23.6496 -1.47581 0.552962 0
M  V30 269 C 24.8976 -2.02082 0.0272703 0
M  V30 270 C 25.2186 -1.4301 -1.32563 0
M  V30 271 O 24.4886 -0.603745 -1.86365 0
M  V30 272 H 23.0686 -0.746966 0.00709182 0
M  V30 273 H 25.7306 -1.81033 0.722008 0
M  V30 274 H 24.8266 -3.12034 -0.0639951 0
M  V30 275 N 25.1277 -0.289203 -1.54924 0
M  V30 276 C 26.0577 0.58549 -2.2604 0
M  V30 277 C 27.0387 1.14753 -1.25562 0
M  V30 278 O 28.2237 1.17906 -1.54311 0
M  V30 279 C 25.3537 1.76305 -2.99222 0
M  V30 280 C 24.3077 1.33191 -4.06748 0
M  V30 281 C 23.6337 2.5937 -4.6758 0
M  V30 282 C 24.9337 0.471775 -5.20165 0
M  V30 283 H 26.6277 -0.00763532 -2.99399 0
M  V30 284 H 24.1737 -0.00511229 -1.43999 0
M  V30 285 H 26.1267 2.38097 -3.47689 0
M  V30 286 H 24.8507 2.38223 -2.23422 0
M  V30 287 H 23.5097 0.737121 -3.59113 0
M  V30 288 H 23.1577 3.19576 -3.88433 0
M  V30 289 H 22.8577 2.31228 -5.40192 0
M  V30 290 H 24.3817 3.21985 -5.18804 0
M  V30 291 H 25.7957 0.995056 -5.64599 0
M  V30 292 H 24.1927 0.284639 -5.99425 0
M  V30 293 H 25.2627 -0.506041 -4.82252 0
M  V30 294 N 26.6058 1.57591 -0.0167156 0
M  V30 295 C 27.5358 2.12496 0.967858 0
M  V30 296 C 28.5168 1.03807 1.34752 0
M  V30 297 O 29.7018 1.31577 1.42833 0
M  V30 298 C 26.8318 2.64194 2.25431 0
M  V30 299 C 25.7858 3.77559 2.01576 0
M  V30 300 C 25.1118 4.15636 3.36379 0
M  V30 301 C 26.4118 5.04151 1.36489 0
M  V30 302 H 28.1058 2.95013 0.510643 0
M  V30 303 H 25.6518 1.41915 0.244181 0
M  V30 304 H 27.6048 3.01236 2.94678 0
M  V30 305 H 26.3288 1.78821 2.73296 0
M  V30 306 H 24.9878 3.40937 1.34751 0
M  V30 307 H 24.6358 3.27263 3.81979 0
M  V30 308 H 24.3358 4.92022 3.21229 0
M  V30 309 H 25.8598 4.5525 4.06915 0
M  V30 310 H 27.2738 5.38857 1.95718 0
M  V30 311 H 25.6708 5.85453 1.31776 0
M  V30 312 H 26.7408 4.83733 0.336219 0
M  V30 313 N 28.0839 -0.256276 1.55502 0
M  V30 314 C 29.0139 -1.32102 1.92539 0
M  V30 315 C 29.9949 -1.50684 0.789194 0
M  V30 316 O 31.1799 -1.63449 1.04872 0
M  V30 317 C 28.3099 -2.67752 2.21192 0
M  V30 318 C 27.2639 -2.63878 3.36975 0
M  V30 319 C 26.5899 -4.03236 3.51147 0
M  V30 320 C 27.8899 -2.21682 4.72921 0
M  V30 321 H 29.5839 -1.01351 2.81724 0
M  V30 322 H 27.1299 -0.486105 1.35547 0
M  V30 323 H 29.0829 -3.42365 2.45691 0
M  V30 324 H 27.8069 -3.0012 1.28824 0
M  V30 325 H 26.4659 -1.91722 3.12471 0
M  V30 326 H 26.1139 -4.32854 2.56216 0
M  V30 327 H 25.8139 -4.01535 4.29003 0
M  V30 328 H 27.3379 -4.79563 3.77957 0
M  V30 329 H 28.7519 -2.86023 4.96854 0
M  V30 330 H 27.1489 -2.3111 5.53812 0
M  V30 331 H 28.2189 -1.16833 4.70615 0
M  V30 332 N 29.562 -1.4872 -0.521534 0
M  V30 333 C 30.79 -1.60843 -1.30142 0
M  V30 334 C 31.205 -0.271897 -1.86832 0
M  V30 335 O 30.562 0.739969 -1.66825 0
M  V30 336 C 30.613 -2.66155 -2.4463 0
M  V30 337 O 30.334 -3.94623 -1.90275 0
M  V30 338 C 31.835 -2.88795 -3.36322 0
M  V30 339 H 29.055 -0.542075 -0.395468 0
M  V30 340 H 31.599 -1.94609 -0.628285 0
M  V30 341 H 29.754 -2.35224 -3.07812 0
M  V30 342 H 30.168 -4.52468 -2.65279 0
M  V30 343 H 31.642 -3.66264 -4.12983 0
M  V30 344 H 32.119 -1.97934 -3.9207 0
M  V30 345 H 32.725 -3.21063 -2.78924 0
M  V30 346 N 31.0401 0.771051 -1.3745 0
M  V30 347 C 32.0031 1.86598 -1.33093 0
M  V30 348 C 33.0031 1.59076 -0.234845 0
M  V30 349 O 34.1931 1.67145 -0.490732 0
M  V30 350 C 31.3251 3.23747 -1.06773 0
M  V30 351 H 32.5181 1.91873 -2.30488 0
M  V30 352 H 30.0711 0.970876 -1.2249 0
M  V30 353 H 30.8061 3.24148 -0.099129 0
M  V30 354 H 30.5911 3.45115 -1.86112 0
M  V30 355 H 32.0811 4.03824 -1.06377 0
M  V30 356 N 32.5182 1.22032 0.997298 0
M  V30 357 C 33.7432 1.06921 1.77715 0
M  V30 358 C 34.1682 -0.376226 1.84299 0
M  V30 359 O 33.5262 -1.27165 1.29223 0
M  V30 360 C 33.5742 1.67996 3.19076 0
M  V30 361 O 32.6782 0.930653 4.01762 0
M  V30 362 H 32.0192 0.375814 0.547412 0
M  V30 363 H 34.5492 1.61737 1.25309 0
M  V30 364 H 34.5592 1.72538 3.69723 0
M  V30 365 H 33.2342 2.73182 3.13599 0
M  V30 366 H 31.8112 0.960917 3.60307 0
M  V30 367 N 33.9963 -1.19345 1.0293 0
M  V30 368 C 34.9263 -2.2481 0.631105 0
M  V30 369 C 35.9073 -1.66245 -0.360104 0
M  V30 370 O 37.0923 -1.92677 -0.242726 0
M  V30 371 C 34.2223 -3.47295 -0.0184607 0
M  V30 372 C 33.1763 -4.18536 0.895073 0
M  V30 373 C 32.5023 -5.34586 0.110592 0
M  V30 374 C 33.8023 -4.73287 2.209 0
M  V30 375 H 35.4963 -2.58372 1.51275 0
M  V30 376 H 33.0423 -1.24194 0.728818 0
M  V30 377 H 34.9953 -4.20268 -0.308675 0
M  V30 378 H 33.7193 -3.12933 -0.934907 0
M  V30 379 H 32.3783 -3.47446 1.16949 0
M  V30 380 H 32.0263 -4.96469 -0.807902 0
M  V30 381 H 31.7263 -5.83183 0.719087 0
M  V30 382 H 33.2503 -6.10355 -0.172871 0
M  V30 383 H 34.6643 -5.38013 1.98028 0
M  V30 384 H 33.0613 -5.32373 2.76946 0
M  V30 385 H 34.1313 -3.91331 2.86336 0
M  V30 386 N 35.4744 -0.807222 -1.35358 0
M  V30 387 C 36.4044 -0.232509 -2.3234 0
M  V30 388 C 37.3854 0.642386 -1.57504 0
M  V30 389 O 38.5704 0.572526 -1.85569 0
M  V30 390 C 35.7004 0.619238 -3.41735 0
M  V30 391 C 34.6544 -0.157215 -4.27711 0
M  V30 392 C 33.9804 0.816273 -5.28433 0
M  V30 393 C 35.2804 -1.35656 -5.04376 0
M  V30 394 H 36.9744 -1.04276 -2.80654 0
M  V30 395 H 34.5204 -0.50288 -1.34934 0
M  V30 396 H 36.4734 1.03137 -4.08584 0
M  V30 397 H 35.1974 1.46239 -2.92031 0
M  V30 398 H 33.8564 -0.550525 -3.62443 0
M  V30 399 H 33.5044 1.65494 -4.74996 0
M  V30 400 H 33.2044 0.301067 -5.86828 0
M  V30 401 H 34.7284 1.22659 -5.98153 0
M  V30 402 H 36.1424 -1.01927 -5.64166 0
M  V30 403 H 34.5394 -1.8063 -5.7227 0
M  V30 404 H 35.6094 -2.14288 -4.34981 0
M  V30 405 N 36.9525 1.47285 -0.560781 0
M  V30 406 C 38.1805 2.06855 -0.0430262 0
M  V30 407 C 38.5955 1.41291 1.25229 0
M  V30 408 O 37.9525 0.510648 1.7521 0
M  V30 409 C 38.0035 3.61178 0.152518 0
M  V30 410 O 37.7245 4.24285 -1.0915 0
M  V30 411 C 39.2255 4.37624 0.707145 0
M  V30 412 H 36.4455 0.669319 -0.0474652 0
M  V30 413 H 38.9895 1.89237 -0.77521 0
M  V30 414 H 37.1445 3.78298 0.834843 0
M  V30 415 H 37.5585 5.16868 -0.891482 0
M  V30 416 H 39.0325 5.46271 0.793244 0
M  V30 417 H 39.5095 4.04152 1.71923 0
M  V30 418 H 40.1155 4.25257 0.0604027 0
M  V30 419 N 38.4306 0.297415 1.54768 0
M  V30 420 C 39.6776 -0.312913 2.00068 0
M  V30 421 C 40.0056 -1.54171 1.18582 0
M  V30 422 O 39.2606 -1.94108 0.249133 0
M  V30 423 C 39.5596 -0.717561 3.50123 0
M  V30 424 C 39.2256 0.409095 4.4904 0
M  V30 425 C 37.8876 0.718399 4.75807 0
M  V30 426 C 40.2396 1.16717 5.07963 0
M  V30 427 C 37.5676 1.78896 5.5876 0
M  V30 428 C 39.9196 2.22762 5.92081 0
M  V30 429 C 38.5836 2.54303 6.1716 0
M  V30 430 H 37.8536 -0.114503 0.7321 0
M  V30 431 H 40.5006 0.415767 1.86932 0
M  V30 432 H 38.8056 -1.52627 3.60849 0
M  V30 433 H 40.5026 -1.20091 3.82595 0
M  V30 434 H 37.0926 0.157918 4.28309 0
M  V30 435 H 41.2766 0.941466 4.87289 0
M  V30 436 H 36.5326 2.0381 5.7643 0
M  V30 437 H 40.7066 2.81962 6.36765 0
M  V30 438 H 38.3336 3.3739 6.81229 0
M  V30 439 N 39.9087 -1.5758 0.0250728 0
M  V30 440 C 41.1547 -1.92746 -0.649648 0
M  V30 441 C 41.5097 -0.901588 -1.69968 0
M  V30 442 O 40.8027 0.0829251 -1.9142 0
M  V30 443 C 40.9967 -3.32421 -1.31268 0
M  V30 444 C 40.8257 -4.48499 -0.328394 0
M  V30 445 C 39.5957 -5.05251 0.070284 0
M  V30 446 C 41.7937 -5.12618 0.415665 0
M  V30 447 N 39.7757 -6.04851 1.05016 0
M  V30 448 C 41.1467 -6.0728 1.24943 0
M  V30 449 C 43.2017 -4.95612 0.476803 0
M  V30 450 C 41.9047 -6.86766 2.1388 0
M  V30 451 C 43.9307 -5.75703 1.3535 0
M  V30 452 C 43.2927 -6.69978 2.17504 0
M  V30 453 H 39.3917 -0.753231 -0.210159 0
M  V30 454 H 41.9757 -1.94486 0.0912999 0
M  V30 455 H 40.1467 -3.31508 -2.02379 0
M  V30 456 H 41.8787 -3.54946 -1.94411 0
M  V30 457 H 38.6337 -4.72628 -0.303323 0
M  V30 458 H 39.0577 -6.5934 1.53622 0
M  V30 459 H 43.6997 -4.22554 -0.144105 0
M  V30 460 H 41.4177 -7.59132 2.77027 0
M  V30 461 H 45.0037 -5.64579 1.40504 0
M  V30 462 H 43.8837 -7.30873 2.84244 0
M  V30 463 N 41.3868 0.248026 -1.55636 0
M  V30 464 C 42.3348 1.32683 -1.91045 0
M  V30 465 C 43.3288 1.49883 -0.789401 0
M  V30 466 O 44.5348 1.51371 -0.974007 0
M  V30 467 H 40.9098 0.444272 -0.606734 0
M  V30 468 H 42.8808 1.00085 -2.81115 0
M  V30 469 C 41.6298 2.6755 -2.22064 0
M  V30 470 H 40.9528 2.55114 -3.07826 0
M  V30 471 H 42.3928 3.41912 -2.50743 0
M  V30 472 C 40.8518 3.20556 -1.0366 0
M  V30 473 O 41.3818 4.00695 -0.284016 0
M  V30 474 N 39.5878 2.78568 -0.82753 0
M  V30 475 H 39.1348 2.1351 -1.44123 0
M  V30 476 H 39.0928 3.14378 -0.0369803 0
M  V30 477 N 42.8649 1.48995 0.513639 0
M  V30 478 C 44.2759 1.5119 1.09537 0
M  V30 479 C 44.6269 0.290906 1.94031 0
M  V30 480 O 43.7519 -0.60049 2.07902 0
M  V30 481 C 44.3469 2.73964 1.99322 0
M  V30 482 C 42.9059 2.78978 2.52682 0
M  V30 483 C 42.0529 2.44934 1.30009 0
M  V30 484 H 45.0039 1.55875 0.298125 0
M  V30 485 H 45.0249 2.53409 2.83838 0
M  V30 486 H 44.5369 3.62813 1.37799 0
M  V30 487 H 42.6379 1.94378 3.1788 0
M  V30 488 H 42.7509 3.8083 2.90698 0
M  V30 489 H 41.1149 1.9644 1.62122 0
M  V30 490 H 41.8979 3.36043 0.702131 0
M  V30 491 N 44.343 -0.763751 1.37857 0
M  V30 492 C 45.754 -1.3405 1.29952 0
M  V30 493 C 46.105 -1.96138 -0.0492898 0
M  V30 494 O 45.23 -1.94372 -0.951239 0
M  V30 495 C 45.825 -2.43729 2.35333 0
M  V30 496 C 44.384 -2.97151 2.31037 0
M  V30 497 C 43.531 -1.70438 2.18738 0
M  V30 498 H 46.482 -0.563396 1.48363 0
M  V30 499 H 46.503 -3.23412 2.00462 0
M  V30 500 H 46.015 -1.9851 3.33489 0
M  V30 501 H 44.116 -3.46724 1.3643 0
M  V30 502 H 44.229 -3.52221 3.24772 0
M  V30 503 H 42.593 -1.93673 1.65418 0
M  V30 504 H 43.376 -1.27312 3.18821 0
M  V30 505 N 45.8211 -1.22559 -0.990812 0
M  V30 506 C 47.0491 -1.07779 -1.76611 0
M  V30 507 C 47.4641 0.371513 -1.85109 0
M  V30 508 O 46.8211 1.25737 -1.32274 0
M  V30 509 C 46.8721 -1.68512 -3.19822 0
M  V30 510 O 46.5931 -3.07774 -3.1178 0
M  V30 511 C 48.0941 -1.59035 -4.13791 0
M  V30 512 H 45.3141 -0.377729 -0.554583 0
M  V30 513 H 47.8581 -1.62195 -1.24551 0
M  V30 514 H 46.0131 -1.18154 -3.68942 0
M  V30 515 H 46.4271 -3.37062 -4.01858 0
M  V30 516 H 47.9011 -2.0625 -5.1202 0
M  V30 517 H 48.3781 -0.547273 -4.35777 0
M  V30 518 H 48.9841 -2.08709 -3.70568 0
M  V30 519 N 47.2992 1.18797 -1.03562 0
M  V30 520 C 48.5272 1.92599 -0.755869 0
M  V30 521 C 48.9422 1.75886 0.686271 0
M  V30 522 O 48.2992 1.08517 1.46732 0
M  V30 523 C 48.3502 3.44159 -1.10619 0
M  V30 524 O 48.0712 3.60341 -2.4917 0
M  V30 525 C 49.5722 4.3507 -0.850214 0
M  V30 526 H 46.7922 0.611587 -0.276048 0
M  V30 527 H 49.3362 1.50742 -1.38192 0
M  V30 528 H 47.4912 3.83823 -0.525194 0
M  V30 529 H 47.9052 4.54128 -2.62427 0
M  V30 530 H 49.3792 5.39989 -1.14523 0
M  V30 531 H 49.8562 4.38673 0.215176 0
M  V30 532 H 50.4622 4.01097 -1.41426 0
M  V30 533 N 48.7773 0.814389 1.34928 0
M  V30 534 C 49.7403 0.235759 2.27984 0
M  V30 535 C 50.7403 -0.581412 1.49921 0
M  V30 536 O 51.9303 -0.398758 1.69575 0
M  V30 537 C 49.0623 -0.670433 3.34242 0
M  V30 538 H 50.2553 1.05659 2.80671 0
M  V30 539 H 47.8083 0.585614 1.44915 0
M  V30 540 H 48.5433 -1.51466 2.86755 0
M  V30 541 H 48.3283 -0.0860822 3.92005 0
M  V30 542 H 49.8183 -1.06935 4.03676 0
M  V30 543 N 50.2554 -1.46986 0.568584 0
M  V30 544 C 51.1874 -2.28233 -0.210337 0
M  V30 545 C 52.2004 -1.37682 -0.868767 0
M  V30 546 O 53.3894 -1.62406 -0.740705 0
M  V30 547 C 50.4894 -3.12293 -1.3163 0
M  V30 548 C 49.6624 -4.30878 -0.7525 0
M  V30 549 C 48.7214 -4.96445 -1.74439 0
M  V30 550 O 47.7474 -5.54482 -1.286 0
M  V30 551 N 48.9494 -4.92171 -3.07812 0
M  V30 552 H 51.7144 -2.95723 0.486648 0
M  V30 553 H 49.2754 -1.56742 0.405409 0
M  V30 554 H 51.2674 -3.53022 -1.97883 0
M  V30 555 H 49.8374 -2.46971 -1.91636 0
M  V30 556 H 49.0574 -3.94104 0.0871128 0
M  V30 557 H 50.3454 -5.07558 -0.35536 0
M  V30 558 H 49.7434 -4.46239 -3.47688 0
M  V30 559 H 48.3004 -5.36884 -3.69592 0
M  V30 560 N 51.7335 -0.305618 -1.54608 0
M  V30 561 C 52.6635 0.561482 -2.26649 0
M  V30 562 C 53.6445 1.13415 -1.26772 0
M  V30 563 O 54.8295 1.16262 -1.55553 0
M  V30 564 C 51.9595 1.73122 -3.01075 0
M  V30 565 C 50.9135 1.2887 -4.08138 0
M  V30 566 C 50.2395 2.54396 -4.70305 0
M  V30 567 C 51.5395 0.416578 -5.20636 0
M  V30 568 H 53.2335 -0.0393902 -2.99374 0
M  V30 569 H 50.7795 -0.020385 -1.43986 0
M  V30 570 H 52.7325 2.34396 -3.50195 0
M  V30 571 H 51.4565 2.3584 -2.25936 0
M  V30 572 H 50.1155 0.698991 -3.59875 0
M  V30 573 H 49.7635 3.15439 -3.918 0
M  V30 574 H 49.4635 2.25486 -5.42614 0
M  V30 575 H 50.9875 3.16464 -5.2219 0
M  V30 576 H 52.4015 0.935116 -5.65622 0
M  V30 577 H 50.7985 0.221046 -5.99693 0
M  V30 578 H 51.8685 -0.557162 -4.81688 0
M  V30 579 N 53.2116 1.57565 -0.0334293 0
M  V30 580 C 54.4396 1.9628 0.654347 0
M  V30 581 C 54.8546 0.910138 1.65414 0
M  V30 582 O 54.2116 -0.107595 1.82183 0
M  V30 583 C 54.2626 3.35067 1.35693 0
M  V30 584 O 53.9836 4.36296 0.397191 0
M  V30 585 C 55.4846 3.88439 2.13613 0
M  V30 586 H 52.7046 0.646369 0.180132 0
M  V30 587 H 55.2486 2.04282 -0.0944721 0
M  V30 588 H 53.4036 3.2827 2.05712 0
M  V30 589 H 53.8176 5.1678 0.896597 0
M  V30 590 H 55.2916 4.8788 2.58219 0
M  V30 591 H 55.7686 3.22914 2.97696 0
M  V30 592 H 56.3746 3.98516 1.48543 0
M  V30 593 N 54.6897 -0.239769 1.55765 0
M  V30 594 C 55.9177 -0.98417 1.81994 0
M  V30 595 C 56.3327 -1.7867 0.610124 0
M  V30 596 O 55.6897 -1.77571 -0.421271 0
M  V30 597 C 55.7407 -1.91635 3.06526 0
M  V30 598 O 55.4617 -1.14629 4.22838 0
M  V30 599 C 56.9627 -2.77616 3.45607 0
M  V30 600 H 54.1827 -0.28928 0.605441 0
M  V30 601 H 56.7267 -0.260499 2.02834 0
M  V30 602 H 54.8817 -2.5942 2.87715 0
M  V30 603 H 55.2957 -1.77745 4.93464 0
M  V30 604 H 56.7697 -3.38759 4.35828 0
M  V30 605 H 57.2467 -3.4909 2.6652 0
M  V30 606 H 57.8527 -2.15271 3.66795 0
M  V30 607 N 56.1678 -1.49265 -0.50573 0
M  V30 608 C 57.0778 -1.68312 -1.63427 0
M  V30 609 C 58.0938 -0.565682 -1.64548 0
M  V30 610 O 59.2698 -0.839801 -1.83055 0
M  V30 611 C 56.3348 -1.74107 -2.99813 0
M  V30 612 C 55.3958 -2.97653 -3.09356 0
M  V30 613 C 54.6288 -3.03163 -4.39236 0
M  V30 614 O 54.8518 -2.16396 -5.27758 0
M  V30 615 O 53.7858 -3.9558 -4.53652 0
M  V30 616 H 57.6118 -2.63907 -1.50289 0
M  V30 617 H 55.1968 -1.32951 -0.681502 0
M  V30 618 H 57.0788 -1.803 -3.80881 0
M  V30 619 H 55.7538 -0.816901 -3.13223 0
M  V30 620 H 54.6608 -2.96981 -2.27493 0
M  V30 621 H 55.9938 -3.89535 -3.00871 0
M  V30 622 N 57.6459 0.756429 -1.3826 0
M  V30 623 C 58.8709 1.55077 -1.37717 0
M  V30 624 C 59.2959 1.88073 0.03164 0
M  V30 625 O 58.6539 1.50364 1.01293 0
M  V30 626 C 58.7019 2.8283 -2.23695 0
M  V30 627 O 57.8059 3.77862 -1.6521 0
M  V30 628 H 57.1469 0.469152 -0.469885 0
M  V30 629 H 59.6769 0.935019 -1.81985 0
M  V30 630 H 59.6869 3.31783 -2.37453 0
M  V30 631 H 58.3619 2.58144 -3.2609 0
M  V30 632 H 56.9389 3.36555 -1.60578 0
M  V30 633 N 59.124 1.23083 0.984299 0
M  V30 634 C 60.057 0.951786 2.07404 0
M  V30 635 C 61.035 -0.10848 1.62238 0
M  V30 636 O 62.219 0.0249467 1.88483 0
M  V30 637 C 59.346 0.433142 3.35919 0
M  V30 638 C 58.392 1.47941 4.0002 0
M  V30 639 S 59.225 3.05556 4.39768 0
M  V30 640 C 60.381 2.55351 5.71442 0
M  V30 641 H 60.614 1.87456 2.30754 0
M  V30 642 H 58.147 1.06284 1.11996 0
M  V30 643 H 60.105 0.140506 4.10259 0
M  V30 644 H 58.766 -0.468656 3.10584 0
M  V30 645 H 57.959 1.06658 4.92585 0
M  V30 646 H 57.561 1.7212 3.3204 0
M  V30 647 H 59.853 1.97128 6.48187 0
M  V30 648 H 60.796 3.46441 6.17563 0
M  V30 649 H 61.204 1.96339 5.29255 0
M  V30 650 N 60.6021 -1.18246 1.0419 0
M  V30 651 C 62.0131 -1.69914 0.773698 0
M  V30 652 C 62.3641 -1.83085 -0.705297 0
M  V30 653 O 61.4891 -1.51123 -1.5489 0
M  V30 654 C 62.0841 -3.08619 1.39784 0
M  V30 655 C 60.6431 -3.57494 1.17792 0
M  V30 656 C 59.7901 -2.34013 1.48773 0
M  V30 657 H 62.7411 -1.02904 1.20816 0
M  V30 658 H 62.7621 -3.71958 0.801714 0
M  V30 659 H 62.2741 -2.99001 2.47426 0
M  V30 660 H 60.3751 -3.72406 0.120295 0
M  V30 661 H 60.4881 -4.40852 1.87581 0
M  V30 662 H 58.8521 -2.37986 0.907463 0
M  V30 663 H 59.6351 -2.27013 2.57527 0
M  V30 664 N 62.0802 -0.821533 -1.34494 0
M  V30 665 C 63.3272 -0.408946 -1.98328 0
M  V30 666 C 63.6552 1.02764 -1.65136 0
M  V30 667 O 62.9102 1.73026 -0.914349 0
M  V30 668 C 63.2092 -0.556512 -3.53041 0
M  V30 669 C 62.8752 -1.95861 -4.0614 0
M  V30 670 C 61.5372 -2.34217 -4.20352 0
M  V30 671 C 63.8892 -2.87523 -4.34718 0
M  V30 672 C 61.2172 -3.63572 -4.6047 0
M  V30 673 C 63.5692 -4.1634 -4.76281 0
M  V30 674 C 62.2332 -4.54675 -4.88699 0
M  V30 675 H 61.5032 -0.149644 -0.725732 0
M  V30 676 H 64.1502 -1.04521 -1.6046 0
M  V30 677 H 62.4552 0.163148 -3.9146 0
M  V30 678 H 64.1522 -0.217826 -4.00408 0
M  V30 679 H 60.7422 -1.65066 -3.95539 0
M  V30 680 H 64.9262 -2.59133 -4.23277 0
M  V30 681 H 60.1822 -3.93101 -4.68275 0
M  V30 682 H 64.3562 -4.87455 -4.97354 0
M  V30 683 H 61.9832 -5.54959 -5.19542 0
M  V30 684 N 63.5583 1.46682 -0.576371 0
M  V30 685 C 64.5063 2.31953 0.17335 0
M  V30 686 C 65.5003 1.44098 0.89062 0
M  V30 687 O 66.7063 1.60759 0.809728 0
M  V30 688 H 63.0813 0.748273 0.0747727 0
M  V30 689 H 65.0523 2.93007 -0.564738 0
M  V30 690 C 63.8013 3.27142 1.17786 0
M  V30 691 H 63.1243 3.94719 0.635361 0
M  V30 692 H 64.5643 3.896 1.67296 0
M  V30 693 C 63.0233 2.52036 2.23561 0
M  V30 694 O 63.5533 2.27877 3.3081 0
M  V30 695 N 61.7593 2.12709 1.97998 0
M  V30 696 H 61.3063 2.32557 1.10792 0
M  V30 697 H 61.2643 1.62776 2.68982 0
M  V30 698 N 65.0364 0.313813 1.54444 0
M  V30 699 C 66.2824 -0.292108 2.00685 0
M  V30 700 C 66.6154 -1.52548 1.20177 0
M  V30 701 O 65.8904 -1.92452 0.281531 0
M  V30 702 C 66.1734 -0.635968 3.5444 0
M  V30 703 C 66.0264 0.607437 4.4568 0
M  V30 704 C 67.3454 -1.45747 4.15266 0
M  V30 705 H 64.4644 -0.104697 0.729526 0
M  V30 706 H 67.1064 0.428457 1.85106 0
M  V30 707 H 65.2564 -1.24986 3.67846 0
M  V30 708 H 66.9284 1.24581 4.44159 0
M  V30 709 H 65.1714 1.23822 4.15753 0
M  V30 710 H 65.8424 0.322515 5.51057 0
M  V30 711 H 68.3184 -0.938645 4.05375 0
M  V30 712 H 67.1944 -1.66683 5.2298 0
M  V30 713 H 67.4554 -2.45063 3.67963 0
M  V30 714 N 66.5145 -1.57545 0.0417849 0
M  V30 715 C 67.4775 -2.09885 -0.92093 0
M  V30 716 C 68.4775 -1.01648 -1.24596 0
M  V30 717 O 69.6675 -1.27759 -1.1842 0
M  V30 718 C 66.7995 -2.57527 -2.23367 0
M  V30 719 H 67.9925 -2.96236 -0.467382 0
M  V30 720 H 65.5455 -1.5493 -0.206467 0
M  V30 721 H 66.2805 -1.74542 -2.73323 0
M  V30 722 H 66.0655 -3.36613 -2.01083 0
M  V30 723 H 67.5555 -2.98201 -2.92346 0
M  V30 724 N 67.9926 0.231505 -1.5589 0
M  V30 725 C 68.9026 1.308 -1.94752 0
M  V30 726 C 69.9186 1.51826 -0.849989 0
M  V30 727 O 71.0946 1.6515 -1.15271 0
M  V30 728 C 68.1596 2.63968 -2.24771 0
M  V30 729 C 67.2206 2.51331 -3.48039 0
M  V30 730 C 66.4536 3.78148 -3.76616 0
M  V30 731 O 66.6766 4.80722 -3.07022 0
M  V30 732 O 65.6106 3.75857 -4.70123 0
M  V30 733 H 69.4366 1.0083 -2.86474 0
M  V30 734 H 67.0216 0.433547 -1.42971 0
M  V30 735 H 68.9036 3.42633 -2.45318 0
M  V30 736 H 67.5786 2.9364 -1.36225 0
M  V30 737 H 66.4856 1.709 -3.32782 0
M  V30 738 H 67.8186 2.26601 -4.36936 0
M  V30 739 N 69.4707 1.49531 0.497807 0
M  V30 740 C 70.7187 1.58865 1.24926 0
M  V30 741 C 71.0397 0.278721 1.92998 0
M  V30 742 O 70.3097 -0.702144 1.82885 0
M  V30 743 H 68.8897 0.585343 0.464094 0
M  V30 744 H 71.5517 1.86174 0.57666 0
M  V30 745 H 70.6477 2.38633 2.01149 0
M  V30 746 N 70.9488 -0.749086 1.3866 0
M  V30 747 C 71.8958 -1.86291 1.36251 0
M  V30 748 C 72.8658 -1.64578 0.224347 0
M  V30 749 O 74.0508 -1.86181 0.417279 0
M  V30 750 C 71.1908 -3.23644 1.19786 0
M  V30 751 C 70.3038 -3.57158 2.43027 0
M  V30 752 C 69.4388 -4.83838 2.19258 0
M  V30 753 C 68.4778 -5.10152 3.38247 0
M  V30 754 N 67.6148 -6.28029 3.13884 0
M  V30 755 H 72.4548 -1.87685 2.3147 0
M  V30 756 H 69.9918 -0.917287 1.14997 0
M  V30 757 H 71.9498 -4.0291 1.08254 0
M  V30 758 H 70.5798 -3.21566 0.282031 0
M  V30 759 H 69.6318 -2.72701 2.65214 0
M  V30 760 H 70.9438 -3.7253 3.31697 0
M  V30 761 H 70.0978 -5.71057 2.04888 0
M  V30 762 H 68.8368 -4.70614 1.2796 0
M  V30 763 H 67.8418 -4.21401 3.53131 0
M  V30 764 H 69.0668 -5.25271 4.30427 0
M  V30 765 H 67.0128 -6.1612 2.25238 0
M  V30 766 H 66.9298 -6.43922 3.96106 0
M  V30 767 H 68.1978 -7.18124 3.03179 0
M  V30 768 N 72.4269 -1.23603 -0.977757 0
M  V30 769 C 73.3369 -1.03632 -2.1047 0
M  V30 770 C 74.3529 0.0199435 -1.73989 0
M  V30 771 O 75.5289 -0.176076 -2.00629 0
M  V30 772 C 72.5939 -0.63276 -3.40877 0
M  V30 773 C 71.6549 -1.76437 -3.91367 0
M  V30 774 C 70.8879 -1.37997 -5.15551 0
M  V30 775 O 71.1109 -0.265357 -5.69782 0
M  V30 776 O 70.0449 -2.20201 -5.60174 0
M  V30 777 H 73.8709 -1.98086 -2.30208 0
M  V30 778 H 71.4559 -1.02332 -1.08851 0
M  V30 779 H 73.3379 -0.418761 -4.19314 0
M  V30 780 H 72.0129 0.282754 -3.22463 0
M  V30 781 H 70.9199 -2.03304 -3.14036 0
M  V30 782 H 72.2529 -2.6583 -4.14241 0
M  V30 783 N 73.905 1.17692 -1.04816 0
M  V30 784 C 75.151 1.88137 -0.75711 0
M  V30 785 C 75.484 1.80604 0.713841 0
M  V30 786 O 74.759 1.21146 1.52164 0
M  V30 787 C 75.042 3.38318 -1.2334 0
M  V30 788 C 74.895 3.54622 -2.76701 0
M  V30 789 C 76.214 4.32214 -0.829415 0
M  V30 790 H 73.333 0.683163 -0.27651 0
M  V30 791 H 75.975 1.38424 -1.30149 0
M  V30 792 H 74.125 3.80787 -0.770286 0
M  V30 793 H 75.797 3.21194 -3.31107 0
M  V30 794 H 74.04 2.97026 -3.16161 0
M  V30 795 H 74.711 4.60028 -3.05088 0
M  V30 796 H 77.187 3.97565 -1.22805 0
M  V30 797 H 76.063 5.35838 -1.19033 0
M  V30 798 H 76.324 4.41294 0.266891 0
M  V30 799 N 75.3831 0.828654 1.34056 0
M  V30 800 C 76.3131 0.269443 2.3194 0
M  V30 801 C 77.2941 -0.617247 1.58506 0
M  V30 802 O 78.4791 -0.542931 1.86456 0
M  V30 803 C 75.6091 -0.564793 3.42677 0
M  V30 804 C 74.5631 0.225241 4.27407 0
M  V30 805 C 73.8891 -0.7321 5.29664 0
M  V30 806 C 75.1891 1.43663 5.02154 0
M  V30 807 H 76.8831 1.08728 2.7896 0
M  V30 808 H 74.4291 0.524283 1.34117 0
M  V30 809 H 76.3821 -0.966233 4.10173 0
M  V30 810 H 75.1061 -1.41574 2.9432 0
M  V30 811 H 73.7651 0.608117 3.61521 0
M  V30 812 H 73.4131 -1.57916 4.77568 0
M  V30 813 H 73.1131 -0.20767 5.87233 0
M  V30 814 H 74.6371 -1.13128 6.00029 0
M  V30 815 H 76.0511 1.1089 5.62473 0
M  V30 816 H 74.4481 1.89711 5.69324 0
M  V30 817 H 75.5181 2.21181 4.31517 0
M  V30 818 N 76.8612 -1.46375 0.584142 0
M  V30 819 C 77.7912 -2.33103 -0.136037 0
M  V30 820 C 78.7722 -1.45431 -0.882255 0
M  V30 821 O 79.9572 -1.74246 -0.857434 0
M  V30 822 C 77.0872 -3.27731 -1.14933 0
M  V30 823 C 76.0412 -4.24855 -0.517862 0
M  V30 824 C 75.3672 -5.09001 -1.63773 0
M  V30 825 C 76.6672 -5.19439 0.545886 0
M  V30 826 H 78.3612 -2.93568 0.588086 0
M  V30 827 H 75.9072 -1.41166 0.284259 0
M  V30 828 H 77.8602 -3.87261 -1.66153 0
M  V30 829 H 76.5842 -2.65377 -1.90375 0
M  V30 830 H 75.2432 -3.6659 -0.0267361 0
M  V30 831 H 74.8912 -4.43031 -2.38185 0
M  V30 832 H 74.5912 -5.74777 -1.22085 0
M  V30 833 H 76.1152 -5.71396 -2.15266 0
M  V30 834 H 77.5292 -5.73177 0.118704 0
M  V30 835 H 75.9262 -5.93566 0.88317 0
M  V30 836 H 76.9962 -4.63285 1.43162 0
M  V30 837 N 78.3393 -0.321999 -1.54275 0
M  V30 838 C 79.2693 0.537411 -2.27231 0
M  V30 839 C 80.2503 1.12064 -1.27968 0
M  V30 840 O 81.4353 1.14606 -1.56777 0
M  V30 841 C 78.5653 1.69919 -3.02894 0
M  V30 842 C 77.5193 1.24534 -4.09482 0
M  V30 843 C 76.8453 2.49394 -4.72977 0
M  V30 844 C 78.1453 0.361335 -5.21049 0
M  V30 845 H 79.8393 -0.0711406 -2.99315 0
M  V30 846 H 77.3853 -0.0356555 -1.43956 0
M  V30 847 H 79.3383 2.30668 -3.52662 0
M  V30 848 H 78.0623 2.33431 -2.28424 0
M  V30 849 H 76.7213 0.660782 -3.60596 0
M  V30 850 H 76.3693 3.11265 -3.95124 0
M  V30 851 H 76.0693 2.19718 -5.44975 0
M  V30 852 H 77.5933 3.10908 -5.25517 0
M  V30 853 H 79.0073 0.875072 -5.66582 0
M  V30 854 H 77.4043 0.157428 -5.99893 0
M  V30 855 H 78.4743 -0.60822 -4.8107 0
M  V30 856 N 79.8174 1.5752 -0.0501392 0
M  V30 857 C 81.0634 1.92936 0.624798 0
M  V30 858 C 81.3964 0.928685 1.70555 0
M  V30 859 O 80.6714 -0.0454779 1.94447 0
M  V30 860 C 80.9544 3.38737 1.22185 0
M  V30 861 C 80.8074 4.49552 0.149218 0
M  V30 862 C 82.1264 3.84913 2.13378 0
M  V30 863 H 79.2454 0.701604 0.225657 0
M  V30 864 H 81.8874 1.89671 -0.111693 0
M  V30 865 H 80.0374 3.4165 1.84953 0
M  V30 866 H 81.7094 4.58768 -0.482648 0
M  V30 867 H 79.9524 4.30638 -0.522841 0
M  V30 868 H 80.6234 5.48653 0.606966 0
M  V30 869 H 83.0994 3.8387 1.60572 0
M  V30 870 H 81.9754 4.87584 2.52097 0
M  V30 871 H 82.2364 3.21611 3.03346 0
M  V30 872 N 81.2955 -0.223234 1.56011 0
M  V30 873 C 82.2455 -1.28008 1.88674 0
M  V30 874 C 83.2295 -1.42369 0.749663 0
M  V30 875 O 84.4215 -1.45212 1.01205 0
M  V30 876 C 81.5505 -2.63084 2.20548 0
M  V30 877 C 80.6365 -2.52632 3.40643 0
M  V30 878 N 81.0275 -2.11829 4.59306 0
M  V30 879 C 79.3255 -2.83594 3.44224 0
M  V30 880 C 80.0265 -2.12587 5.41463 0
M  V30 881 N 79.0025 -2.5301 4.81131 0
M  V30 882 H 82.8045 -0.955487 2.77935 0
M  V30 883 H 80.3185 -0.431801 1.56554 0
M  V30 884 H 82.3155 -3.39385 2.42122 0
M  V30 885 H 80.9755 -2.96391 1.32599 0
M  V30 886 H 81.9865 -1.82988 4.84496 0
M  V30 887 H 78.6635 -3.21284 2.66614 0
M  V30 888 H 80.0535 -1.83179 6.46448 0
M  V30 889 N 82.7736 -1.49793 -0.48987 0
M  V30 890 C 83.7216 -1.67783 -1.61095 0
M  V30 891 C 84.7156 -0.543683 -1.60438 0
M  V30 892 O 85.9216 -0.723647 -1.64813 0
M  V30 893 H 82.2966 -0.529255 -0.534222 0
M  V30 894 H 84.2676 -2.61861 -1.43078 0
M  V30 895 C 83.0166 -1.77191 -2.99164 0
M  V30 896 H 82.3396 -2.63841 -3.0038 0
M  V30 897 H 83.7796 -1.93809 -3.77113 0
M  V30 898 C 82.2386 -0.519203 -3.32875 0
M  V30 899 O 82.7686 0.350124 -4.00171 0
M  V30 900 N 80.9746 -0.378816 -2.8812 0
M  V30 901 H 80.5216 -1.08725 -2.33531 0
M  V30 902 H 80.4796 0.458239 -3.11043 0
M  V30 903 N 84.2517 0.741722 -1.39055 0
M  V30 904 C 85.1817 1.869 -1.39966 0
M  V30 905 C 86.1627 1.6804 -0.26392 0
M  V30 906 O 87.3477 1.88458 -0.468755 0
M  V30 907 C 84.4777 3.24572 -1.23574 0
M  V30 908 C 83.4317 3.58056 -2.34477 0
M  V30 909 C 82.7577 4.94593 -2.0318 0
M  V30 910 C 84.0577 3.61716 -3.76774 0
M  V30 911 H 85.7517 1.86395 -2.34302 0
M  V30 912 H 83.2977 0.895361 -1.1278 0
M  V30 913 H 85.2507 4.031 -1.22834 0
M  V30 914 H 83.9747 3.25587 -0.257045 0
M  V30 915 H 82.6337 2.81854 -2.34423 0
M  V30 916 H 82.2817 4.92181 -1.03765 0
M  V30 917 H 81.9817 5.17964 -2.77465 0
M  V30 918 H 83.5057 5.75486 -2.04079 0
M  V30 919 H 84.9197 4.30335 -3.78794 0
M  V30 920 H 83.3167 3.96603 -4.50362 0
M  V30 921 H 84.3867 2.61672 -4.08235 0
M  V30 922 N 85.7298 1.2412 0.971189 0
M  V30 923 C 87.1408 1.07236 1.52831 0
M  V30 924 C 87.4918 -0.357352 1.92918 0
M  V30 925 O 86.6168 -1.24528 1.76979 0
M  V30 926 C 87.2118 1.94043 2.77728 0
M  V30 927 C 85.7708 1.81394 3.29808 0
M  V30 928 C 84.9178 1.89189 2.02738 0
M  V30 929 H 87.8688 1.37648 0.789864 0
M  V30 930 H 87.8898 1.47066 3.5093 0
M  V30 931 H 87.4018 2.98093 2.4852 0
M  V30 932 H 85.5028 0.801634 3.63874 0
M  V30 933 H 85.6158 2.65294 3.98944 0
M  V30 934 H 83.9798 1.32877 2.17292 0
M  V30 935 H 84.7628 2.94812 1.759 0
M  V30 936 N 87.2079 -1.17134 1.05439 0
M  V30 937 C 88.1399 -2.2078 0.615539 0
M  V30 938 C 89.1529 -1.59584 -0.322001 0
M  V30 939 O 90.3419 -1.78133 -0.114344 0
M  V30 940 C 87.4419 -3.38691 -0.118938 0
M  V30 941 C 86.6149 -4.29454 0.829924 0
M  V30 942 C 85.6739 -5.26024 0.136258 0
M  V30 943 O 84.6999 -5.63952 0.77115 0
M  V30 944 N 85.9019 -5.69487 -1.1254 0
M  V30 945 H 88.6669 -2.59052 1.50705 0
M  V30 946 H 86.2279 -1.32058 0.936603 0
M  V30 947 H 88.2199 -4.00329 -0.593179 0
M  V30 948 H 86.7899 -2.98996 -0.91215 0
M  V30 949 H 86.0099 -3.65211 1.48373 0
M  V30 950 H 87.2979 -4.86984 1.47392 0
M  V30 951 H 86.6959 -5.4075 -1.6615 0
M  V30 952 H 85.2529 -6.33257 -1.54366 0
M  V30 953 N 88.686 -0.835752 -1.33615 0
M  V30 954 C 89.618 -0.224151 -2.28101 0
M  V30 955 C 90.631 0.593331 -1.51603 0
M  V30 956 O 91.82 0.420911 -1.73466 0
M  V30 957 C 88.92 0.703309 -3.31522 0
M  V30 958 C 88.093 -0.0741528 -4.37337 0
M  V30 959 C 87.152 0.776176 -5.20444 0
M  V30 960 O 86.178 0.216506 -5.68788 0
M  V30 961 N 87.38 2.09401 -5.41416 0
M  V30 962 H 90.145 -1.03598 -2.81225 0
M  V30 963 H 87.706 -0.69392 -1.46275 0
M  V30 964 H 89.698 1.27707 -3.84022 0
M  V30 965 H 88.268 1.41585 -2.78698 0
M  V30 966 H 87.488 -0.82928 -3.85378 0
M  V30 967 H 88.776 -0.608863 -5.05144 0
M  V30 968 H 88.174 2.57229 -5.03835 0
M  V30 969 H 86.731 2.61633 -5.96985 0
M  V30 970 N 90.1641 1.46063 -0.591896 0
M  V30 971 C 91.0941 2.33172 0.123673 0
M  V30 972 C 92.0751 1.45897 0.87453 0
M  V30 973 O 93.2601 1.74698 0.848181 0
M  V30 974 C 90.3901 3.28336 1.13194 0
M  V30 975 C 89.3441 4.25124 0.495324 0
M  V30 976 C 88.6701 5.09863 1.61071 0
M  V30 977 C 89.9701 5.19143 -0.573425 0
M  V30 978 H 91.6641 2.93252 -0.603646 0
M  V30 979 H 89.2101 1.41014 -0.291741 0
M  V30 980 H 91.1631 3.88137 1.64097 0
M  V30 981 H 89.8871 2.66383 1.88965 0
M  V30 982 H 88.5461 3.66599 0.00729452 0
M  V30 983 H 88.1941 4.44288 2.35832 0
M  V30 984 H 87.8941 5.75417 1.19035 0
M  V30 985 H 89.4181 5.72529 2.12233 0
M  V30 986 H 90.8321 5.73106 -0.1491 0
M  V30 987 H 89.2291 5.93089 -0.914636 0
M  V30 988 H 90.2991 4.62519 -1.45617 0
M  V30 989 N 91.6422 0.330177 1.54103 0
M  V30 990 C 92.8892 -0.270405 2.00686 0
M  V30 991 C 93.2172 -1.51621 1.21825 0
M  V30 992 O 92.4722 -1.93536 0.29025 0
M  V30 993 C 92.7712 -0.643134 3.51566 0
M  V30 994 C 92.4372 0.504251 4.48072 0
M  V30 995 C 91.0992 0.819163 4.74176 0
M  V30 996 C 93.4512 1.27465 5.05373 0
M  V30 997 C 90.7792 1.90708 5.5484 0
M  V30 998 C 93.1312 2.35271 5.87223 0
M  V30 999 C 91.7952 2.67336 6.11627 0
M  V30 1000 H 91.0652 -0.0989482 0.734364 0
M  V30 1001 H 93.7122 0.455324 1.86008 0
M  V30 1002 H 92.0172 -1.44938 3.64006 0
M  V30 1003 H 93.7142 -1.11949 3.85056 0
M  V30 1004 H 90.3042 0.248733 4.27878 0
M  V30 1005 H 94.4882 1.04462 4.85182 0
M  V30 1006 H 89.7442 2.15991 5.71977 0
M  V30 1007 H 93.9182 2.95405 6.30641 0
M  V30 1008 H 91.5452 3.51763 6.73919 0
M  V30 1009 N 93.1203 -1.57491 0.0584922 0
M  V30 1010 C 94.3683 -1.92597 -0.612436 0
M  V30 1011 C 94.6893 -0.938162 -1.70949 0
M  V30 1012 O 93.9593 0.0158301 -1.95894 0
M  V30 1013 H 92.5393 -0.710964 -0.229214 0
M  V30 1014 H 95.2013 -1.94571 0.113218 0
M  V30 1015 H 94.2973 -2.94038 -1.04633 0
M  V30 1016 N 94.5984 0.214957 -1.56127 0
M  V30 1017 C 95.8284 0.953707 -1.8327 0
M  V30 1018 C 96.2364 1.78181 -0.636262 0
M  V30 1019 O 95.5794 1.79191 0.404516 0
M  V30 1020 C 95.6414 1.91516 -3.0424 0
M  V30 1021 C 95.3054 1.27094 -4.38972 0
M  V30 1022 C 96.3024 0.657575 -5.15725 0
M  V30 1023 C 93.9874 1.28073 -4.85698 0
M  V30 1024 C 95.9814 0.0625968 -6.37369 0
M  V30 1025 C 93.6684 0.681914 -6.07283 0
M  V30 1026 C 94.6664 0.0739046 -6.8296 0
M  V30 1027 O 94.3544 -0.515582 -8.02245 0
M  V30 1028 H 94.0864 0.284764 -0.613095 0
M  V30 1029 H 96.6404 0.233283 -2.04071 0
M  V30 1030 H 94.8704 2.67475 -2.79274 0
M  V30 1031 H 96.5594 2.52001 -3.18198 0
M  V30 1032 H 97.3254 0.642288 -4.80728 0
M  V30 1033 H 93.2044 1.74337 -4.26764 0
M  V30 1034 H 96.7484 -0.412593 -6.96379 0
M  V30 1035 H 92.6454 0.694636 -6.41752 0
M  V30 1036 H 93.4134 -0.410544 -8.1747 0
M  V30 1037 N 96.0765 1.50051 0.48192 0
M  V30 1038 C 97.3015 1.64508 1.26301 0
M  V30 1039 C 97.7265 0.323851 1.85291 0
M  V30 1040 O 97.0845 -0.710969 1.66778 0
M  V30 1041 C 97.1325 2.7305 2.35533 0
M  V30 1042 O 96.2365 2.3355 3.39895 0
M  V30 1043 H 95.5775 0.549978 0.372048 0
M  V30 1044 H 98.1075 1.9636 0.574786 0
M  V30 1045 H 98.1175 2.95799 2.8101 0
M  V30 1046 H 96.7925 3.68946 1.91967 0
M  V30 1047 H 95.3695 2.21205 3.00204 0
M  V30 1048 N 97.5546 -0.734337 1.39446 0
M  V30 1049 C 98.8006 -1.49505 1.37913 0
M  V30 1050 C 99.1556 -1.92384 -0.0248416 0
M  V30 1051 O 98.4486 -1.6395 -0.991506 0
M  V30 1052 C 98.6426 -2.74711 2.28623 0
M  V30 1053 C 98.4716 -2.44075 3.777 0
M  V30 1054 C 97.2416 -2.36338 4.46623 0
M  V30 1055 C 99.4396 -2.09574 4.69663 0
M  V30 1056 N 97.4216 -1.9818 5.81032 0
M  V30 1057 C 98.7926 -1.81865 5.92727 0
M  V30 1058 C 100.848 -1.96048 4.57678 0
M  V30 1059 C 99.5506 -1.41992 7.05146 0
M  V30 1060 C 101.577 -1.57579 5.7002 0
M  V30 1061 C 100.939 -1.30754 6.92158 0
M  V30 1062 H 97.0376 -0.545896 0.55993 0
M  V30 1063 H 99.6216 -0.853373 1.75002 0
M  V30 1064 H 97.7926 -3.36657 1.93692 0
M  V30 1065 H 99.5246 -3.40916 2.18078 0
M  V30 1066 H 96.2796 -2.53456 4.00071 0
M  V30 1067 H 96.7036 -1.81691 6.52163 0
M  V30 1068 H 101.346 -2.15455 3.63784 0
M  V30 1069 H 99.0636 -1.21327 7.9894 0
M  V30 1070 H 102.65 -1.47718 5.62735 0
M  V30 1071 H 101.53 -1.01432 7.77612 0
M  V30 1072 N 99.0327 -1.24633 -0.964593 0
M  V30 1073 C 100.263 -1.11339 -1.74032 0
M  V30 1074 C 100.671 0.336593 -1.86182 0
M  V30 1075 O 100.014 1.24389 -1.35178 0
M  V30 1076 C 100.076 -1.68284 -3.1768 0
M  V30 1077 C 99.7397 -3.17196 -3.28992 0
M  V30 1078 C 100.737 -4.14308 -3.14078 0
M  V30 1079 C 98.4217 -3.57215 -3.53133 0
M  V30 1080 C 100.416 -5.4942 -3.23135 0
M  V30 1081 C 98.1027 -4.92468 -3.61827 0
M  V30 1082 C 99.1007 -5.8838 -3.46841 0
M  V30 1083 O 98.7887 -7.21173 -3.55197 0
M  V30 1084 H 98.5207 -0.389551 -0.552472 0
M  V30 1085 H 101.075 -1.65282 -1.21946 0
M  V30 1086 H 99.3047 -1.08777 -3.71085 0
M  V30 1087 H 100.994 -1.50234 -3.77074 0
M  V30 1088 H 101.76 -3.84731 -2.95308 0
M  V30 1089 H 97.6387 -2.83063 -3.63863 0
M  V30 1090 H 101.183 -6.24263 -3.11355 0
M  V30 1091 H 97.0797 -5.21714 -3.80111 0
M  V30 1092 H 97.8477 -7.29135 -3.71892 0
M  V30 1093 N 100.511 1.16574 -1.06058 0
M  V30 1094 C 101.458 2.20883 -0.669263 0
M  V30 1095 C 102.428 1.62729 0.332918 0
M  V30 1096 O 103.613 1.895 0.222346 0
M  V30 1097 C 100.753 3.45049 -0.0593572 0
M  V30 1098 C 99.8658 4.17458 -1.11143 0
M  V30 1099 C 99.0008 5.29135 -0.467916 0
M  V30 1100 C 98.0398 5.93343 -1.50369 0
M  V30 1101 N 97.1768 6.96516 -0.883706 0
M  V30 1102 H 102.017 2.53709 -1.5632 0
M  V30 1103 H 99.5538 1.24616 -0.781625 0
M  V30 1104 H 101.512 4.16033 0.311771 0
M  V30 1105 H 100.142 3.12781 0.797992 0
M  V30 1106 H 99.1938 3.45101 -1.60029 0
M  V30 1107 H 100.506 4.61307 -1.89731 0
M  V30 1108 H 99.6598 6.06684 -0.0436871 0
M  V30 1109 H 98.3988 4.86443 0.349864 0
M  V30 1110 H 97.4038 5.14517 -1.93784 0
M  V30 1111 H 98.6288 6.38114 -2.32352 0
M  V30 1112 H 96.5748 6.55943 -0.086595 0
M  V30 1113 H 96.4918 7.38723 -1.607 0
M  V30 1114 H 97.7598 7.77993 -0.484543 0
M  V30 1115 N 101.989 0.842826 1.3317 0
M  V30 1116 C 103.237 0.439577 1.97262 0
M  V30 1117 C 103.558 -1.00548 1.67078 0
M  V30 1118 O 102.828 -1.70098 0.971779 0
M  V30 1119 H 101.408 0.159558 0.72976 0
M  V30 1120 H 104.07 1.07665 1.62463 0
M  V30 1121 H 103.166 0.574886 3.0676 0
M  V30 1122 N 103.467 -1.45747 0.599634 0
M  V30 1123 C 104.377 -2.34262 -0.125888 0
M  V30 1124 C 105.393 -1.50768 -0.868625 0
M  V30 1125 O 106.569 -1.83592 -0.828003 0
M  V30 1126 C 103.634 -3.28252 -1.11587 0
M  V30 1127 C 102.695 -4.27651 -0.375956 0
M  V30 1128 C 101.928 -5.1715 -1.31877 0
M  V30 1129 O 102.151 -5.09916 -2.55621 0
M  V30 1130 O 101.085 -5.96286 -0.820157 0
M  V30 1131 H 104.911 -2.97688 0.601315 0
M  V30 1132 H 102.496 -1.44999 0.359934 0
M  V30 1133 H 104.378 -3.86191 -1.68626 0
M  V30 1134 H 103.053 -2.67401 -1.82424 0
M  V30 1135 H 101.96 -3.7335 0.236698 0
M  V30 1136 H 103.293 -4.91334 0.29177 0
M  V30 1137 N 104.945 -0.338344 -1.53925 0
M  V30 1138 C 106.361 0.0137736 -1.59594 0
M  V30 1139 C 106.561 1.49186 -1.35447 0
M  V30 1140 O 105.617 2.24987 -1.14616 0
M  V30 1141 C 106.93 -0.41773 -2.97784 0
M  V30 1142 C 108.478 -0.369633 -3.1081 0
M  V30 1143 C 108.953 -0.776524 -4.51369 0
M  V30 1144 N 110.444 -0.730506 -4.57403 0
M  V30 1145 C 111.179 -1.01736 -5.64303 0
M  V30 1146 N 110.675 -1.3721 -6.79077 0
M  V30 1147 N 112.468 -0.941942 -5.54151 0
M  V30 1148 H 104.619 -1.3012 -1.67876 0
M  V30 1149 H 106.882 -0.530082 -0.78595 0
M  V30 1150 H 106.588 -1.44811 -3.20504 0
M  V30 1151 H 106.462 0.209729 -3.76616 0
M  V30 1152 H 108.849 0.651568 -2.87817 0
M  V30 1153 H 108.93 -1.03223 -2.34049 0
M  V30 1154 H 108.574 -1.79571 -4.75096 0
M  V30 1155 H 108.504 -0.0914649 -5.26521 0
M  V30 1156 H 110.995 -0.468783 -3.74981 0
M  V30 1157 H 111.308 -1.57597 -7.5656 0
M  V30 1158 H 109.653 -1.4105 -6.80536 0
M  V30 1159 H 112.844 -0.664184 -4.63364 0
M  V30 1160 H 113.017 -1.16884 -6.37371 0
M  V30 1161 N 106.423 1.57458 -0.0668435 0
M  V30 1162 C 107.669 1.93587 0.6043 0
M  V30 1163 C 108.002 0.946722 1.69561 0
M  V30 1164 O 107.277 -0.0248516 1.94484 0
M  V30 1165 C 107.56 3.40014 1.18585 0
M  V30 1166 C 107.413 4.49685 0.101529 0
M  V30 1167 C 108.732 3.87154 2.09284 0
M  V30 1168 H 105.851 0.703958 0.218202 0
M  V30 1169 H 108.493 1.89542 -0.131804 0
M  V30 1170 H 106.643 3.43592 1.81319 0
M  V30 1171 H 108.315 4.5823 -0.531279 0
M  V30 1172 H 106.558 4.30059 -0.568487 0
M  V30 1173 H 107.229 5.49266 0.54874 0
M  V30 1174 H 109.705 3.85551 1.56491 0
M  V30 1175 H 108.581 4.90231 2.46911 0
M  V30 1176 H 108.842 3.2481 2.99918 0
M  V30 1177 N 107.901 -0.206675 1.56239 0
M  V30 1178 C 109.178 -0.954051 1.70755 0
M  V30 1179 C 109.558 -2.01841 0.618353 0
M  V30 1180 O 108.906 -2.25444 -0.372434 0
M  V30 1181 C 109.116 -1.551 3.12642 0
M  V30 1182 C 110.464 -2.03757 3.72516 0
M  V30 1183 O 111.488 -1.64965 3.15698 0
M  V30 1184 O 110.347 -2.75103 4.72208 0
M  V30 1185 H 107.441 -0.446636 0.696021 0
M  V30 1186 H 109.987 -0.197283 1.68549 0
M  V30 1187 H 108.759 -0.783212 3.83382 0
M  V30 1188 H 108.382 -2.37291 3.19028 0
M  V30 1189 N 109.379 -1.50304 -0.473955 0
M  V30 1190 C 110.627 -1.60832 -1.22382 0
M  V30 1191 C 110.948 -0.30939 -1.9253 0
M  V30 1192 O 110.218 0.67296 -1.83978 0
M  V30 1193 H 108.798 -0.592652 -0.454723 0
M  V30 1194 H 111.46 -1.87068 -0.546968 0
M  V30 1195 H 110.556 -2.41803 -1.97327 0
M  V30 1196 N 110.857 0.726932 -1.39834 0
M  V30 1197 C 111.805 1.86235 -1.39353 0
M  V30 1198 C 112.799 1.67144 -0.275555 0
M  V30 1199 O 114.005 1.74387 -0.44601 0
M  V30 1200 H 110.38 0.613174 -0.43534 0
M  V30 1201 H 112.351 1.83756 -2.35109 0
M  V30 1202 C 111.1 3.23995 -1.26185 0
M  V30 1203 H 110.423 3.39285 -2.11484 0
M  V30 1204 H 111.863 4.03609 -1.29907 0
M  V30 1205 C 110.322 3.36888 0.0290018 0
M  V30 1206 O 110.852 3.89152 0.99619 0
M  V30 1207 N 109.058 2.90446 0.0947437 0
M  V30 1208 H 108.605 2.48102 -0.693035 0
M  V30 1209 H 108.563 2.99451 0.957932 0
M  V30 1210 N 112.336 1.25143 0.95797 0
M  V30 1211 C 113.752 1.01892 1.22842 0
M  V30 1212 C 113.952 -0.266311 1.99732 0
M  V30 1213 O 113.008 -0.979913 2.3271 0
M  V30 1214 C 114.321 2.24004 2.00606 0
M  V30 1215 C 115.869 2.28731 2.13662 0
M  V30 1216 C 116.344 3.5049 2.94823 0
M  V30 1217 N 117.835 3.50866 3.02403 0
M  V30 1218 C 118.57 4.4174 3.65586 0
M  V30 1219 N 118.066 5.42882 4.30408 0
M  V30 1220 N 119.859 4.29429 3.62694 0
M  V30 1221 H 112.01 2.07718 0.443493 0
M  V30 1222 H 114.273 0.912031 0.258657 0
M  V30 1223 H 113.979 3.17395 1.51503 0
M  V30 1224 H 113.853 2.26907 3.01319 0
M  V30 1225 H 116.24 1.35865 2.61963 0
M  V30 1226 H 116.321 2.29848 1.12265 0
M  V30 1227 H 115.965 4.43676 2.47213 0
M  V30 1228 H 115.895 3.46617 3.96439 0
M  V30 1229 H 118.386 2.777 2.56302 0
M  V30 1230 H 118.699 6.0844 4.76467 0
M  V30 1231 H 117.044 5.46758 4.29047 0
M  V30 1232 H 120.235 3.49643 3.11236 0
M  V30 1233 H 120.408 5.00448 4.1165 0
M  V30 1234 N 113.814 -1.1601 1.06675 0
M  V30 1235 C 114.746 -2.20115 0.638921 0
M  V30 1236 C 115.759 -1.59916 -0.305057 0
M  V30 1237 O 116.948 -1.78245 -0.0954446 0
M  V30 1238 C 114.048 -3.38798 -0.0830083 0
M  V30 1239 C 113.221 -4.2855 0.875426 0
M  V30 1240 C 112.28 -5.25849 0.192042 0
M  V30 1241 O 111.306 -5.63102 0.830921 0
M  V30 1242 N 112.508 -5.70648 -1.06493 0
M  V30 1243 H 115.273 -2.57439 1.53444 0
M  V30 1244 H 112.834 -1.31057 0.950557 0
M  V30 1245 H 114.826 -4.00936 -0.550685 0
M  V30 1246 H 113.396 -2.99947 -0.880386 0
M  V30 1247 H 112.616 -3.63617 1.52238 0
M  V30 1248 H 113.904 -4.85393 1.52548 0
M  V30 1249 H 113.302 -5.42482 -1.60405 0
M  V30 1250 H 111.859 -6.34859 -1.47641 0
M  V30 1251 N 115.292 -0.849877 -1.32721 0
M  V30 1252 C 116.541 -0.447175 -1.96681 0
M  V30 1253 C 116.854 1.00135 -1.68025 0
M  V30 1254 O 118.06 1.50926 -2.25685 0
M  V30 1255 C 116.516 -0.7487 -3.52026 0
M  V30 1256 C 116.124 -2.21264 -3.89546 0
M  V30 1257 C 117.868 -0.413487 -4.22481 0
M  V30 1258 C 115.775 -2.45763 -5.37917 0
M  V30 1259 H 114.705 -0.163486 -0.736063 0
M  V30 1260 H 117.356 -1.03999 -1.51183 0
M  V30 1261 H 115.738 -0.0853727 -3.95908 0
M  V30 1262 H 116.912 -2.91736 -3.56689 0
M  V30 1263 H 115.227 -2.5119 -3.32103 0
M  V30 1264 H 117.824 -0.574017 -5.3161 0
M  V30 1265 H 118.167 0.644492 -4.11281 0
M  V30 1266 H 118.7 -1.03251 -3.84167 0
M  V30 1267 H 115.439 -3.50168 -5.54132 0
M  V30 1268 H 114.959 -1.79864 -5.72197 0
M  V30 1269 H 116.638 -2.29471 -6.0494 0
M  V30 1270 N 116.77 1.45427 -0.607355 0
M  V30 1271 C 118.016 2.0254 -0.102607 0
M  V30 1272 C 118.349 1.47478 1.26348 0
M  V30 1273 O 117.624 0.64939 1.83339 0
M  V30 1274 C 117.907 3.60044 -0.0634347 0
M  V30 1275 C 117.76 4.2544 -1.46017 0
M  V30 1276 C 119.079 4.35646 0.624514 0
M  V30 1277 H 116.198 0.73598 -0.0387607 0
M  V30 1278 H 118.84 1.73284 -0.779282 0
M  V30 1279 H 116.99 3.85101 0.512808 0
M  V30 1280 H 118.662 4.11569 -2.08347 0
M  V30 1281 H 116.905 3.83849 -2.02094 0
M  V30 1282 H 117.576 5.34342 -1.385 0
M  V30 1283 H 120.052 4.15882 0.134723 0
M  V30 1284 H 118.928 5.45376 0.621028 0
M  V30 1285 H 119.189 4.08501 1.69055 0
M  V30 1286 N 118.248 0.346503 1.53744 0
M  V30 1287 C 119.496 -0.248612 2.00565 0
M  V30 1288 C 119.817 -1.5083 1.23593 0
M  V30 1289 O 119.087 -1.92858 0.343912 0
M  V30 1290 H 117.667 -0.0948564 0.740953 0
M  V30 1291 H 120.329 0.468341 1.89189 0
M  V30 1292 H 119.425 -0.488994 3.08245 0
M  V30 1293 N 119.726 -1.57421 0.075193 0
M  V30 1294 C 120.956 -1.97659 -0.601203 0
M  V30 1295 C 121.364 -0.952427 -1.63479 0
M  V30 1296 O 120.707 0.0688241 -1.83571 0
M  V30 1297 C 120.769 -3.34218 -1.32434 0
M  V30 1298 C 120.433 -4.5484 -0.443826 0
M  V30 1299 C 121.43 -5.19034 0.299969 0
M  V30 1300 C 119.115 -5.00952 -0.367709 0
M  V30 1301 C 121.109 -6.27695 1.10807 0
M  V30 1302 C 118.796 -6.09484 0.444058 0
M  V30 1303 C 119.794 -6.72719 1.18061 0
M  V30 1304 O 119.482 -7.79161 1.97898 0
M  V30 1305 H 119.214 -0.65494 -0.167422 0
M  V30 1306 H 121.768 -2.04886 0.145157 0
M  V30 1307 H 119.998 -3.23615 -2.11685 0
M  V30 1308 H 121.687 -3.59038 -1.89331 0
M  V30 1309 H 122.453 -4.84351 0.250776 0
M  V30 1310 H 118.332 -4.51509 -0.930638 0
M  V30 1311 H 121.876 -6.76982 1.68347 0
M  V30 1312 H 117.773 -6.43601 0.494803 0
M  V30 1313 H 118.541 -7.96055 1.90367 0
M  V30 1314 N 121.204 0.198386 -1.56346 0
M  V30 1315 C 122.167 1.22952 -1.93431 0
M  V30 1316 C 123.167 1.38611 -0.815092 0
M  V30 1317 O 124.357 1.36479 -1.08255 0
M  V30 1318 C 121.489 2.59946 -2.20546 0
M  V30 1319 H 122.682 0.912626 -2.85677 0
M  V30 1320 H 120.235 0.43977 -1.49986 0
M  V30 1321 H 120.97 2.96696 -1.30927 0
M  V30 1322 H 120.755 2.49953 -3.02102 0
M  V30 1323 H 122.245 3.3431 -2.50253 0
M  V30 1324 N 122.682 1.50554 0.465978 0
M  V30 1325 C 123.931 1.61038 1.21448 0
M  V30 1326 C 124.244 0.31865 1.92987 0
M  V30 1327 O 125.45 0.302469 2.6981 0
M  V30 1328 C 123.906 2.84283 2.20706 0
M  V30 1329 C 123.514 4.20352 1.54946 0
M  V30 1330 C 125.258 3.04115 2.96166 0
M  V30 1331 C 123.165 5.34778 2.5252 0
M  V30 1332 H 122.095 0.599718 0.457005 0
M  V30 1333 H 124.746 1.7699 0.484424 0
M  V30 1334 H 123.128 2.61901 2.97025 0
M  V30 1335 H 124.302 4.53008 0.843811 0
M  V30 1336 H 122.617 4.06167 0.917475 0
M  V30 1337 H 125.214 3.86774 3.69202 0
M  V30 1338 H 125.557 2.16045 3.55852 0
M  V30 1339 H 126.09 3.26702 2.26959 0
M  V30 1340 H 122.829 6.25018 1.97566 0
M  V30 1341 H 122.349 5.06534 3.21222 0
M  V30 1342 H 124.028 5.65561 3.14245 0
M  V30 1343 N 124.16 -0.719506 1.40217 0
M  V30 1344 C 125.408 -1.47641 1.3801 0
M  V30 1345 C 125.729 -1.94992 -0.018145 0
M  V30 1346 O 124.999 -1.70073 -0.972207 0
M  V30 1347 H 123.579 -0.547744 0.507923 0
M  V30 1348 H 126.241 -0.853187 1.75233 0
M  V30 1349 H 125.337 -2.35112 2.05253 0
M  V30 1350 N 125.638 -1.25649 -0.95132 0
M  V30 1351 C 126.866 -1.13343 -1.73092 0
M  V30 1352 C 127.281 0.312434 -1.86197 0
M  V30 1353 O 126.638 1.21465 -1.36207 0
M  V30 1354 C 126.689 -1.78602 -3.14299 0
M  V30 1355 O 126.41 -3.17537 -3.01831 0
M  V30 1356 C 127.911 -1.72119 -4.08522 0
M  V30 1357 H 125.131 -0.395181 -0.542285 0
M  V30 1358 H 127.675 -1.66076 -1.19328 0
M  V30 1359 H 125.83 -1.29832 -3.64996 0
M  V30 1360 H 126.244 -3.49676 -3.90931 0
M  V30 1361 H 127.718 -2.22435 -5.052 0
M  V30 1362 H 128.195 -0.685635 -4.33815 0
M  V30 1363 H 128.801 -2.20393 -3.63741 0
M  V30 1364 N 127.117 1.15442 -1.07289 0
M  V30 1365 C 128.049 2.19773 -0.650585 0
M  V30 1366 C 129.062 1.60076 0.296572 0
M  V30 1367 O 130.251 1.78293 0.0859905 0
M  V30 1368 C 127.351 3.38838 0.0650398 0
M  V30 1369 C 126.524 4.2808 -0.898141 0
M  V30 1370 C 125.583 5.2574 -0.219926 0
M  V30 1371 O 124.609 5.62654 -0.860773 0
M  V30 1372 N 125.811 5.71205 1.03466 0
M  V30 1373 H 128.576 2.56622 -1.54808 0
M  V30 1374 H 126.137 1.30551 -0.957494 0
M  V30 1375 H 128.129 4.01222 0.529415 0
M  V30 1376 H 126.699 3.00409 0.864466 0
M  V30 1377 H 125.919 3.62804 -1.54165 0
M  V30 1378 H 127.207 4.84577 -1.5512 0
M  V30 1379 H 126.605 5.43325 1.57526 0
M  V30 1380 H 125.162 6.35633 1.44272 0
M  V30 1381 N 128.595 0.856903 1.32268 0
M  V30 1382 C 129.527 0.260412 2.27716 0
M  V30 1383 C 130.54 -0.569137 1.52528 0
M  V30 1384 O 131.729 -0.39326 1.74114 0
M  V30 1385 C 128.829 -0.650477 3.32599 0
M  V30 1386 C 128.002 0.14372 4.37164 0
M  V30 1387 C 127.061 -0.69328 5.21613 0
M  V30 1388 O 126.087 -0.12599 5.69061 0
M  V30 1389 N 127.289 -2.00761 5.44679 0
M  V30 1390 H 130.054 1.08059 2.79541 0
M  V30 1391 H 127.615 0.717103 1.45152 0
M  V30 1392 H 129.607 -1.21581 3.86005 0
M  V30 1393 H 128.177 -1.37133 2.80915 0
M  V30 1394 H 127.397 0.890486 3.8401 0
M  V30 1395 H 128.685 0.68915 5.04111 0
M  V30 1396 H 128.083 -2.49181 5.07863 0
M  V30 1397 H 126.64 -2.52103 6.01072 0
M  V30 1398 N 130.073 -1.45103 0.615059 0
M  V30 1399 C 131.036 -2.29025 -0.0895485 0
M  V30 1400 C 132.036 -1.40174 -0.787906 0
M  V30 1401 O 133.226 -1.62217 -0.634933 0
M  V30 1402 C 130.358 -3.21376 -1.13711 0
M  V30 1403 H 131.551 -2.92807 0.648382 0
M  V30 1404 H 129.104 -1.51749 0.374444 0
M  V30 1405 H 129.839 -2.6241 -1.90556 0
M  V30 1406 H 129.624 -3.86834 -0.640475 0
M  V30 1407 H 131.114 -3.84459 -1.63036 0
M  V30 1408 N 131.551 -0.354651 -1.53558 0
M  V30 1409 C 132.779 0.239515 -2.05509 0
M  V30 1410 C 133.194 1.4333 -1.2289 0
M  V30 1411 O 132.551 1.80538 -0.266899 0
M  V30 1412 C 132.602 0.643719 -3.55723 0
M  V30 1413 O 132.323 -0.502602 -4.35207 0
M  V30 1414 C 133.824 1.29743 -4.23889 0
M  V30 1415 H 131.044 0.0442697 -0.669538 0
M  V30 1416 H 133.588 -0.509856 -1.98042 0
M  V30 1417 H 131.743 1.34302 -3.63376 0
M  V30 1418 H 132.157 -0.178172 -5.24197 0
M  V30 1419 H 133.631 1.53091 -5.30346 0
M  V30 1420 H 134.108 2.25441 -3.76926 0
M  V30 1421 H 134.714 0.639865 -4.20459 0
M  V30 1422 N 133.029 1.57378 -0.0835403 0
M  V30 1423 C 134.44 1.81261 0.447358 0
M  V30 1424 C 134.791 0.998331 1.68902 0
M  V30 1425 O 133.916 0.224282 2.15235 0
M  V30 1426 C 134.511 3.28767 0.818386 0
M  V30 1427 C 133.07 3.53455 1.29409 0
M  V30 1428 C 132.217 2.75831 0.285024 0
M  V30 1429 H 135.168 1.5566 -0.309115 0
M  V30 1430 H 135.189 3.41459 1.67887 0
M  V30 1431 H 134.701 3.88006 -0.0855019 0
M  V30 1432 H 132.802 2.99534 2.21608 0
M  V30 1433 H 132.915 4.62128 1.2639 0
M  V30 1434 H 131.279 2.42947 0.764767 0
M  V30 1435 H 132.062 3.37813 -0.611341 0
M  V30 1436 N 134.507 -0.190092 1.56449 0
M  V30 1437 C 135.755 -0.907908 1.80559 0
M  V30 1438 C 136.076 -1.83583 0.657438 0
M  V30 1439 O 135.346 -1.93203 -0.323924 0
M  V30 1440 H 133.926 -0.338247 0.666032 0
M  V30 1441 H 136.588 -0.194403 1.93928 0
M  V30 1442 H 135.684 -1.49604 2.73907 0
M  V30 1443 N 135.985 -1.50799 -0.457987 0
M  V30 1444 C 137.396 -1.55152 -1.0385 0
M  V30 1445 C 137.747 -0.362719 -1.92818 0
M  V30 1446 O 136.872 0.522915 -2.09987 0
M  V30 1447 C 137.467 -2.81173 -1.89017 0
M  V30 1448 C 136.026 -2.88164 -2.42154 0
M  V30 1449 C 135.173 -2.49591 -1.20829 0
M  V30 1450 H 138.124 -1.56874 -0.240068 0
M  V30 1451 H 138.145 -2.63769 -2.74238 0
M  V30 1452 H 137.657 -3.67677 -1.24238 0
M  V30 1453 H 135.758 -2.06042 -3.10447 0
M  V30 1454 H 135.871 -3.91356 -2.76364 0
M  V30 1455 H 134.235 -2.02322 -1.54719 0
M  V30 1456 H 135.018 -3.38418 -0.576927 0
M  V30 1457 N 137.463 0.71206 -1.40597 0
M  V30 1458 C 138.426 1.80785 -1.40888 0
M  V30 1459 C 139.426 1.57937 -0.302103 0
M  V30 1460 O 140.616 1.64913 -0.561182 0
M  V30 1461 C 137.748 3.18927 -1.20409 0
M  V30 1462 H 138.941 1.81924 -2.38419 0
M  V30 1463 H 136.494 0.91805 -1.26497 0
M  V30 1464 H 137.229 3.23436 -0.236522 0
M  V30 1465 H 137.014 3.36911 -2.00582 0
M  V30 1466 H 138.504 3.98949 -1.23408 0
M  V30 1467 N 138.941 1.26152 0.944643 0
M  V30 1468 C 139.889 1.07215 2.06417 0
M  V30 1469 C 140.883 9.2007e-05 1.694 0
M  V30 1470 O 142.089 0.1565 1.79318 0
M  V30 1471 H 138.464 0.329837 0.675805 0
M  V30 1472 H 140.435 2.02099 2.19541 0
M  V30 1473 C 139.184 0.718197 3.40202 0
M  V30 1474 H 138.507 1.53497 3.69159 0
M  V30 1475 H 139.947 0.625459 4.19361 0
M  V30 1476 C 138.406 -0.576435 3.31932 0
M  V30 1477 O 138.936 -1.61574 3.67773 0
M  V30 1478 N 137.142 -0.565781 2.85039 0
M  V30 1479 H 136.689 0.280367 2.5607 0
M  V30 1480 H 136.647 -1.43213 2.79888 0
M  V30 1481 N 140.419 -1.14872 1.07899 0
M  V30 1482 C 141.644 -1.90202 0.826926 0
M  V30 1483 C 142.069 -1.77774 -0.614664 0
M  V30 1484 O 141.427 -1.11431 -1.43013 0
M  V30 1485 C 141.475 -3.38352 1.24702 0
M  V30 1486 O 140.579 -4.10497 0.39575 0
M  V30 1487 H 139.92 -0.591968 0.300782 0
M  V30 1488 H 142.45 -1.45437 1.43907 0
M  V30 1489 H 142.46 -3.89156 1.22563 0
M  V30 1490 H 141.135 -3.46715 2.29698 0
M  V30 1491 H 139.712 -3.69796 0.480117 0
M  V30 1492 N 141.898 -0.863906 -1.31812 0
M  V30 1493 C 143.146 -0.470904 -1.96537 0
M  V30 1494 C 143.467 0.978771 -1.68657 0
M  V30 1495 O 142.737 1.6853 -0.998717 0
M  V30 1496 H 141.317 -0.171148 -0.72713 0
M  V30 1497 H 143.979 -1.10236 -1.60729 0
M  V30 1498 H 143.075 -0.623616 -3.05806 0
M  V30 1499 N 143.376 1.44774 -0.622745 0
M  V30 1500 C 144.792 1.56986 -0.287652 0
M  V30 1501 C 144.992 1.61167 1.20944 0
M  V30 1502 O 144.048 1.55015 1.99315 0
M  V30 1503 C 145.361 2.84551 -0.972188 0
M  V30 1504 C 146.909 2.9825 -0.949536 0
M  V30 1505 C 147.384 4.28605 -1.61437 0
M  V30 1506 N 148.875 4.35399 -1.58057 0
M  V30 1507 C 149.61 5.34964 -2.064 0
M  V30 1508 N 149.106 6.40981 -2.62897 0
M  V30 1509 N 150.899 5.26419 -1.97078 0
M  V30 1510 H 143.05 1.40304 -1.59463 0
M  V30 1511 H 145.313 0.671794 -0.668878 0
M  V30 1512 H 145.019 2.87417 -2.02693 0
M  V30 1513 H 144.893 3.73807 -0.504771 0
M  V30 1514 H 147.28 2.94941 0.0967067 0
M  V30 1515 H 147.361 2.10364 -1.45536 0
M  V30 1516 H 147.005 4.32672 -2.66002 0
M  V30 1517 H 146.935 5.15334 -1.08344 0
M  V30 1518 H 149.426 3.59397 -1.16801 0
M  V30 1519 H 149.739 7.13225 -2.97539 0
M  V30 1520 H 148.084 6.4169 -2.66943 0
M  V30 1521 H 151.275 4.42504 -1.52669 0
M  V30 1522 H 151.448 6.03861 -2.35066 0
M  V30 1523 N 144.854 0.36279 1.53368 0
M  V30 1524 C 145.764 -0.492994 2.29362 0
M  V30 1525 C 146.78 -1.09507 1.35219 0
M  V30 1526 O 147.956 -1.10662 1.68273 0
M  V30 1527 C 145.021 -1.61855 3.066 0
M  V30 1528 C 144.082 -1.04429 4.16405 0
M  V30 1529 C 143.315 -2.11621 4.89951 0
M  V30 1530 O 143.538 -3.32684 4.63333 0
M  V30 1531 O 142.472 -1.74835 5.75948 0
M  V30 1532 H 146.298 0.125331 3.03441 0
M  V30 1533 H 143.883 0.127253 1.48857 0
M  V30 1534 H 145.765 -2.27302 3.54841 0
M  V30 1535 H 144.44 -2.22233 2.3536 0
M  V30 1536 H 143.347 -0.353819 3.72423 0
M  V30 1537 H 144.68 -0.485113 4.89804 0
M  V30 1538 N 146.332 -1.57332 0.0918853 0
M  V30 1539 C 147.56 -1.98574 -0.581048 0
M  V30 1540 C 147.975 -0.970903 -1.61923 0
M  V30 1541 O 147.332 0.0399054 -1.82456 0
M  V30 1542 C 147.383 -3.39872 -1.23164 0
M  V30 1543 O 147.104 -4.37469 -0.234989 0
M  V30 1544 C 148.605 -3.96099 -1.99049 0
M  V30 1545 H 145.825 -0.65261 -0.156018 0
M  V30 1546 H 148.369 -2.0379 0.170225 0
M  V30 1547 H 146.524 -3.35679 -1.93386 0
M  V30 1548 H 146.938 -5.19751 -0.70418 0
M  V30 1549 H 148.412 -4.97127 -2.39934 0
M  V30 1550 H 148.889 -3.3374 -2.85507 0
M  V30 1551 H 149.495 -4.03755 -1.3365 0
M  V30 1552 N 147.81 0.181792 -1.56548 0
M  V30 1553 C 149.059 0.898348 -1.8059 0
M  V30 1554 C 149.372 1.83862 -0.667379 0
M  V30 1555 O 150.578 2.59678 -0.792446 0
M  V30 1556 C 149.034 1.64791 -3.19956 0
M  V30 1557 C 148.642 0.751789 -4.41647 0
M  V30 1558 C 150.386 2.35331 -3.53298 0
M  V30 1559 C 148.293 1.50098 -5.72035 0
M  V30 1560 H 147.223 0.339194 -0.673397 0
M  V30 1561 H 149.874 0.151413 -1.82874 0
M  V30 1562 H 148.256 2.43921 -3.11959 0
M  V30 1563 H 149.43 -0.0018076 -4.608 0
M  V30 1564 H 147.745 0.156562 -4.16106 0
M  V30 1565 H 150.342 2.91958 -4.47956 0
M  V30 1566 H 150.685 3.10164 -2.77676 0
M  V30 1567 H 151.218 1.63154 -3.62803 0
M  V30 1568 H 147.957 0.795175 -6.50659 0
M  V30 1569 H 147.477 2.22817 -5.56878 0
M  V30 1570 H 149.156 2.05125 -6.13622 0
M  V30 1571 N 149.288 1.51039 0.449983 0
M  V30 1572 C 150.518 1.66627 1.22143 0
M  V30 1573 C 150.926 0.357776 1.85786 0
M  V30 1574 O 150.269 -0.672424 1.70951 0
M  V30 1575 C 150.331 2.71562 2.35573 0
M  V30 1576 C 149.995 4.14526 1.92399 0
M  V30 1577 C 150.992 4.99717 1.43453 0
M  V30 1578 C 148.677 4.60559 2.00475 0
M  V30 1579 C 150.671 6.28998 1.03155 0
M  V30 1580 C 148.358 5.8984 1.59788 0
M  V30 1581 C 149.356 6.73886 1.11208 0
M  V30 1582 O 149.044 8.0075 0.710935 0
M  V30 1583 H 148.776 0.562635 0.374724 0
M  V30 1584 H 151.33 1.98146 0.541036 0
M  V30 1585 H 149.56 2.3533 3.06849 0
M  V30 1586 H 151.249 2.76156 2.97478 0
M  V30 1587 H 152.015 4.65361 1.36618 0
M  V30 1588 H 147.894 3.95273 2.37235 0
M  V30 1589 H 151.438 6.9455 0.651663 0
M  V30 1590 H 147.335 6.23713 1.66289 0
M  V30 1591 H 148.103 8.142 0.837913 0
M  V30 1592 N 150.766 -0.704594 1.40972 0
M  V30 1593 C 152.177 -1.28418 1.3552 0
M  V30 1594 C 152.528 -1.96171 0.0339434 0
M  V30 1595 O 151.653 -1.98231 -0.867944 0
M  V30 1596 C 152.248 -2.33528 2.45459 0
M  V30 1597 C 150.807 -2.87085 2.43433 0
M  V30 1598 C 149.954 -1.61007 2.2577 0
M  V30 1599 H 152.905 -0.499963 1.50619 0
M  V30 1600 H 152.926 -3.14619 2.13998 0
M  V30 1601 H 152.438 -1.84187 3.41609 0
M  V30 1602 H 150.539 -3.40626 1.51013 0
M  V30 1603 H 150.652 -3.3813 3.39419 0
M  V30 1604 H 149.016 -1.86482 1.73483 0
M  V30 1605 H 149.799 -1.13675 3.23933 0
M  V30 1606 N 152.244 -1.26651 -0.937939 0
M  V30 1607 C 153.192 -1.08308 -2.05845 0
M  V30 1608 C 154.186 -0.0090757 -1.69398 0
M  V30 1609 O 155.392 -0.166007 -1.79233 0
M  V30 1610 H 151.767 -0.333416 -0.674046 0
M  V30 1611 H 153.738 -2.03261 -2.18467 0
M  V30 1612 C 152.487 -0.736229 -3.39816 0
M  V30 1613 H 151.81 -1.55453 -3.6834 0
M  V30 1614 H 153.25 -0.64769 -4.19024 0
M  V30 1615 C 151.709 0.558824 -3.32233 0
M  V30 1616 O 152.239 1.59621 -3.68624 0
M  V30 1617 N 150.445 0.550657 -2.85335 0
M  V30 1618 H 149.992 -0.293943 -2.55917 0
M  V30 1619 H 149.95 1.41726 -2.80644 0
M  V30 1620 N 153.722 1.14298 -1.08507 0
M  V30 1621 C 154.685 2.17607 -0.719711 0
M  V30 1622 C 155.685 1.58907 0.245997 0
M  V30 1623 O 156.875 1.74181 0.0254081 0
M  V30 1624 C 154.007 3.40842 -0.0627695 0
M  V30 1625 H 155.2 2.51443 -1.63452 0
M  V30 1626 H 152.753 1.28963 -0.88307 0
M  V30 1627 H 153.488 3.12587 0.863716 0
M  V30 1628 H 153.273 3.84713 -0.757504 0
M  V30 1629 H 154.763 4.17221 0.177786 0
M  V30 1630 N 155.201 0.870884 1.31352 0
M  V30 1631 C 156.426 0.495957 2.01383 0
M  V30 1632 C 156.851 -0.904324 1.64935 0
M  V30 1633 O 156.209 -1.59687 0.858466 0
M  V30 1634 C 156.257 0.661433 3.54482 0
M  V30 1635 O 155.361 -0.298851 4.11316 0
M  V30 1636 H 154.702 0.197158 0.634054 0
M  V30 1637 H 157.232 1.17455 1.67527 0
M  V30 1638 H 157.242 0.555072 4.04207 0
M  V30 1639 H 155.917 1.68246 3.8035 0
M  V30 1640 H 154.494 -0.147368 3.72609 0
M  V30 1641 N 156.679 -1.44442 0.630414 0
M  V30 1642 C 157.609 -2.33418 -0.0618083 0
M  V30 1643 C 158.59 -1.48165 -0.835541 0
M  V30 1644 O 159.775 -1.76886 -0.801564 0
M  V30 1645 C 156.905 -3.31222 -1.04449 0
M  V30 1646 C 155.859 -4.26288 -0.382436 0
M  V30 1647 C 155.185 -5.13954 -1.47497 0
M  V30 1648 C 156.485 -5.1744 0.710865 0
M  V30 1649 H 158.179 -2.91548 0.681184 0
M  V30 1650 H 155.725 -1.40191 0.329026 0
M  V30 1651 H 157.678 -3.92351 -1.53748 0
M  V30 1652 H 156.402 -2.71299 -1.81836 0
M  V30 1653 H 155.061 -3.6649 0.0899054 0
M  V30 1654 H 154.709 -4.50385 -2.2397 0
M  V30 1655 H 154.409 -5.7837 -1.03737 0
M  V30 1656 H 155.933 -5.77955 -1.96979 0
M  V30 1657 H 157.347 -5.72509 0.300996 0
M  V30 1658 H 155.744 -5.90455 1.07156 0
M  V30 1659 H 156.814 -4.58496 1.57829 0
M  V30 1660 N 158.157 -0.370918 -1.53173 0
M  V30 1661 C 159.087 0.464847 -2.28826 0
M  V30 1662 C 160.068 1.07936 -1.31468 0
M  V30 1663 O 161.253 1.0956 -1.60344 0
M  V30 1664 C 158.383 1.60196 -3.08147 0
M  V30 1665 C 157.337 1.11443 -4.13237 0
M  V30 1666 C 156.663 2.3422 -4.80672 0
M  V30 1667 C 157.963 0.195384 -5.21934 0
M  V30 1668 H 159.657 -0.166329 -2.98938 0
M  V30 1669 H 157.203 -0.0814359 -1.4377 0
M  V30 1670 H 159.156 2.19332 -3.59822 0
M  V30 1671 H 157.88 2.26045 -2.35735 0
M  V30 1672 H 156.539 0.545727 -3.62515 0
M  V30 1673 H 156.187 2.98537 -4.04827 0
M  V30 1674 H 155.887 2.02269 -5.51689 0
M  V30 1675 H 157.411 2.94032 -5.35143 0
M  V30 1676 H 158.825 0.694375 -5.69079 0
M  V30 1677 H 157.222 -0.0335027 -6.00091 0
M  V30 1678 H 158.292 -0.760961 -4.78892 0
M  V30 1679 N 159.635 1.57281 -0.100228 0
M  V30 1680 C 160.884 1.93713 0.561984 0
M  V30 1681 C 161.197 0.984492 1.69018 0
M  V30 1682 O 162.403 1.24273 2.41389 0
M  V30 1683 C 160.859 3.4421 1.05106 0
M  V30 1684 C 160.467 4.47975 -0.0476628 0
M  V30 1685 C 162.211 3.89595 1.68571 0
M  V30 1686 C 160.118 5.89631 0.457055 0
M  V30 1687 H 159.048 0.723082 0.2137 0
M  V30 1688 H 161.699 1.82644 -0.177057 0
M  V30 1689 H 160.081 3.50449 1.84395 0
M  V30 1690 H 161.255 4.53385 -0.823333 0
M  V30 1691 H 159.57 4.1223 -0.587816 0
M  V30 1692 H 162.167 4.92832 2.07414 0
M  V30 1693 H 162.51 3.28526 2.55688 0
M  V30 1694 H 163.043 3.86078 0.958562 0
M  V30 1695 H 159.782 6.54411 -0.377616 0
M  V30 1696 H 159.302 5.87681 1.19962 0
M  V30 1697 H 160.981 6.40363 0.92437 0
M  V30 1698 N 161.113 -0.173488 1.56642 0
M  V30 1699 C 162.045 -1.23935 1.92802 0
M  V30 1700 C 163.058 -1.40589 0.820889 0
M  V30 1701 O 164.247 -1.40631 1.09933 0
M  V30 1702 C 161.347 -2.60837 2.16373 0
M  V30 1703 C 160.52 -2.6551 3.47596 0
M  V30 1704 C 159.579 -3.8376 3.60021 0
M  V30 1705 O 158.605 -3.69859 4.32658 0
M  V30 1706 N 159.807 -5.00127 2.94709 0
M  V30 1707 H 162.572 -0.932236 2.84832 0
M  V30 1708 H 160.133 -0.363268 1.57772 0
M  V30 1709 H 162.125 -3.38407 2.21952 0
M  V30 1710 H 160.695 -2.83948 1.30738 0
M  V30 1711 H 159.915 -1.74052 3.53694 0
M  V30 1712 H 161.203 -2.65641 4.33949 0
M  V30 1713 H 160.601 -5.14322 2.35563 0
M  V30 1714 H 159.158 -5.75567 3.05886 0
M  V30 1715 N 162.591 -1.51276 -0.441967 0
M  V30 1716 C 163.539 -1.72823 -1.55676 0
M  V30 1717 C 164.533 -0.59445 -1.58627 0
M  V30 1718 O 165.739 -0.775715 -1.62427 0
M  V30 1719 H 162.114 -0.545983 -0.517113 0
M  V30 1720 H 164.085 -2.6628 -1.34675 0
M  V30 1721 C 162.834 -1.86619 -2.93375 0
M  V30 1722 H 162.157 -2.73264 -2.91834 0
M  V30 1723 H 163.597 -2.05709 -3.70756 0
M  V30 1724 C 162.056 -0.624842 -3.31055 0
M  V30 1725 O 162.586 0.222636 -4.01083 0
M  V30 1726 N 160.792 -0.470288 -2.86769 0
M  V30 1727 H 160.339 -1.161 -2.29953 0
M  V30 1728 H 160.297 0.359051 -3.12343 0
M  V30 1729 N 164.069 0.697108 -1.41344 0
M  V30 1730 C 165.315 1.4593 -1.40827 0
M  V30 1731 C 165.648 1.94193 -0.0167098 0
M  V30 1732 O 164.923 1.69425 0.955263 0
M  V30 1733 C 165.206 2.67229 -2.41373 0
M  V30 1734 C 165.059 2.24741 -3.8963 0
M  V30 1735 C 166.378 3.69423 -2.39196 0
M  V30 1736 H 163.497 0.529303 -0.512842 0
M  V30 1737 H 166.139 0.794112 -1.72609 0
M  V30 1738 H 164.289 3.23982 -2.14401 0
M  V30 1739 H 165.961 1.73327 -4.27499 0
M  V30 1740 H 164.204 1.56542 -4.0457 0
M  V30 1741 H 164.875 3.1177 -4.55525 0
M  V30 1742 H 167.351 3.2234 -2.63128 0
M  V30 1743 H 166.227 4.51907 -3.11563 0
M  V30 1744 H 166.488 4.19012 -1.41001 0
M  V30 1745 N 165.547 1.27147 0.931209 0
M  V30 1746 C 166.775 1.16082 1.71267 0
M  V30 1747 C 167.19 -0.282772 1.8667 0
M  V30 1748 O 166.547 -1.19283 1.38122 0
M  V30 1749 C 166.598 1.8358 3.11417 0
M  V30 1750 O 166.319 3.22299 2.96741 0
M  V30 1751 C 167.82 1.78597 4.05732 0
M  V30 1752 H 165.04 0.403758 0.535929 0
M  V30 1753 H 167.584 1.67953 1.16671 0
M  V30 1754 H 165.739 1.35623 3.62885 0
M  V30 1755 H 166.153 3.55851 3.85319 0
M  V30 1756 H 167.627 2.30444 5.01597 0
M  V30 1757 H 168.104 0.754564 4.3267 0
M  V30 1758 H 168.71 2.26152 3.60188 0
M  V30 1759 N 167.025 -1.13721 1.09112 0
M  V30 1760 C 167.957 -2.1871 0.685467 0
M  V30 1761 C 168.97 -1.60527 -0.271068 0
M  V30 1762 O 170.159 -1.78407 -0.0576148 0
M  V30 1763 C 167.259 -3.38898 -0.0111255 0
M  V30 1764 C 166.432 -4.26597 0.966131 0
M  V30 1765 C 165.491 -5.25324 0.303539 0
M  V30 1766 O 164.517 -5.61213 0.950177 0
M  V30 1767 N 165.719 -5.72779 -0.943651 0
M  V30 1768 H 168.484 -2.54126 1.58871 0
M  V30 1769 H 166.045 -1.29012 0.978143 0
M  V30 1770 H 168.037 -4.02014 -0.465517 0
M  V30 1771 H 166.607 -3.01747 -0.816565 0
M  V30 1772 H 165.827 -3.60306 1.59917 0
M  V30 1773 H 167.115 -4.82048 1.6281 0
M  V30 1774 H 166.513 -5.45762 -1.48862 0
M  V30 1775 H 165.07 -6.37847 -1.34142 0
M  V30 1776 N 168.503 -0.877838 -1.30888 0
M  V30 1777 C 169.451 -0.328662 -2.30266 0
M  V30 1778 C 170.445 0.560496 -1.59859 0
M  V30 1779 O 171.651 0.445722 -1.74394 0
M  V30 1780 H 168.026 -0.0876142 -0.746879 0
M  V30 1781 H 169.997 -1.18061 -2.74051 0
M  V30 1782 C 168.746 0.448071 -3.44801 0
M  V30 1783 H 168.069 -0.226859 -3.99156 0
M  V30 1784 H 169.509 0.797541 -4.16432 0
M  V30 1785 C 167.968 1.64239 -2.94155 0
M  V30 1786 O 168.498 2.74175 -2.93583 0
M  V30 1787 N 166.704 1.47716 -2.50256 0
M  V30 1788 H 166.251 0.582821 -2.5092 0
M  V30 1789 H 166.209 2.27765 -2.16727 0
M  V30 1790 N 169.982 1.44106 -0.638065 0
M  V30 1791 C 171.259 1.95453 -0.0759321 0
M  V30 1792 C 171.639 1.57984 1.40015 0
M  V30 1793 O 170.987 0.857361 2.11806 0
M  V30 1794 C 171.197 3.47655 -0.306132 0
M  V30 1795 C 172.545 4.24114 -0.203008 0
M  V30 1796 O 173.569 3.55405 -0.237871 0
M  V30 1797 O 172.428 5.46381 -0.113827 0
M  V30 1798 H 169.522 0.826797 0.0183332 0
M  V30 1799 H 172.068 1.54122 -0.710251 0
M  V30 1800 H 170.84 3.68 -1.3301 0
M  V30 1801 H 170.463 3.95949 0.361991 0
M  V30 1802 N 171.46 0.379036 1.52974 0
M  V30 1803 C 172.688 -0.20679 2.05864 0
M  V30 1804 C 173.103 -1.41356 1.25155 0
M  V30 1805 O 172.46 -1.8009 0.295588 0
M  V30 1806 C 172.511 -0.587045 3.56702 0
M  V30 1807 O 172.232 0.571776 4.34353 0
M  V30 1808 C 173.733 -1.22983 4.25899 0
M  V30 1809 H 170.953 -0.0336123 0.670158 0
M  V30 1810 H 173.497 0.541298 1.97206 0
M  V30 1811 H 171.652 -1.28504 3.65466 0
M  V30 1812 H 172.066 0.261544 5.23847 0
M  V30 1813 H 173.54 -1.44635 5.32715 0
M  V30 1814 H 174.017 -2.19416 3.80465 0
M  V30 1815 H 174.623 -0.572892 4.21424 0
M  V30 1816 N 172.938 -1.57226 0.108567 0
M  V30 1817 C 174.186 -1.94448 -0.550853 0
M  V30 1818 C 174.507 -0.992074 -1.67878 0
M  V30 1819 O 173.777 -0.0465 -1.95845 0
M  V30 1820 H 172.357 -0.717897 -0.206479 0
M  V30 1821 H 175.019 -1.94112 0.175062 0
M  V30 1822 H 174.115 -2.97218 -0.952259 0
M  V30 1823 N 174.416 0.165178 -1.56732 0
M  V30 1824 C 175.663 0.880807 -1.8234 0
M  V30 1825 C 175.991 1.81977 -0.686621 0
M  V30 1826 O 175.246 1.92971 0.325697 0
M  V30 1827 C 175.545 1.70405 -3.1416 0
M  V30 1828 C 175.211 0.913475 -4.4155 0
M  V30 1829 C 173.873 0.695303 -4.7615 0
M  V30 1830 C 176.225 0.359349 -5.1996 0
M  V30 1831 C 173.553 -0.0879947 -5.86634 0
M  V30 1832 C 175.905 -0.410893 -6.31264 0
M  V30 1833 C 174.569 -0.639808 -6.64427 0
M  V30 1834 H 173.839 0.32231 -0.667231 0
M  V30 1835 H 176.486 0.145402 -1.90947 0
M  V30 1836 H 174.791 2.50903 -3.00923 0
M  V30 1837 H 176.488 2.26091 -3.31186 0
M  V30 1838 H 173.078 1.09357 -4.14414 0
M  V30 1839 H 177.262 0.515228 -4.93618 0
M  V30 1840 H 172.518 -0.27503 -6.10781 0
M  V30 1841 H 176.692 -0.847494 -6.91224 0
M  V30 1842 H 174.319 -1.24864 -7.49875 0
M  V30 1843 N 175.894 1.51508 0.433938 0
M  V30 1844 C 177.124 1.67914 1.20369 0
M  V30 1845 C 177.532 0.377461 1.85397 0
M  V30 1846 O 176.875 -0.654255 1.71654 0
M  V30 1847 C 176.937 2.74045 2.32679 0
M  V30 1848 C 176.601 4.16543 1.87991 0
M  V30 1849 C 177.598 5.01211 1.38145 0
M  V30 1850 C 175.283 4.6266 1.95579 0
M  V30 1851 C 177.277 6.30056 0.964774 0
M  V30 1852 C 174.964 5.91501 1.53523 0
M  V30 1853 C 175.962 6.75027 1.04055 0
M  V30 1854 O 175.65 8.01459 0.625964 0
M  V30 1855 H 175.382 0.566578 0.368735 0
M  V30 1856 H 177.936 1.98709 0.51999 0
M  V30 1857 H 176.166 2.38572 3.04336 0
M  V30 1858 H 177.855 2.79295 2.94532 0
M  V30 1859 H 178.621 4.66783 1.31675 0
M  V30 1860 H 174.5 3.97767 2.33029 0
M  V30 1861 H 178.044 6.95202 0.57796 0
M  V30 1862 H 173.941 6.25442 1.59665 0
M  V30 1863 H 174.709 8.15043 0.751509 0
M  V30 1864 N 177.372 -0.689602 1.41712 0
M  V30 1865 C 178.6 -1.47827 1.44758 0
M  V30 1866 C 179.015 -1.88721 0.0545703 0
M  V30 1867 O 178.372 -1.57176 -0.927463 0
M  V30 1868 C 178.423 -2.73698 2.3616 0
M  V30 1869 O 178.144 -2.34524 3.7004 0
M  V30 1870 C 179.645 -3.67389 2.48072 0
M  V30 1871 H 176.865 -0.455357 0.49284 0
M  V30 1872 H 179.409 -0.848574 1.86063 0
M  V30 1873 H 177.564 -3.32891 1.98148 0
M  V30 1874 H 177.978 -3.15701 4.18847 0
M  V30 1875 H 179.452 -4.52475 3.16181 0
M  V30 1876 H 179.929 -4.12284 1.51388 0
M  V30 1877 H 180.535 -3.14097 2.86746 0
M  V30 1878 N 178.85 -1.27639 -0.924453 0
M  V30 1879 C 179.78 -1.13166 -2.04244 0
M  V30 1880 C 180.761 -0.032256 -1.70069 0
M  V30 1881 O 181.946 -0.207328 -1.9309 0
M  V30 1882 C 179.076 -0.781496 -3.38393 0
M  V30 1883 C 178.03 -1.83449 -3.86692 0
M  V30 1884 C 177.356 -1.33822 -5.17683 0
M  V30 1885 C 178.656 -3.23917 -4.09726 0
M  V30 1886 H 180.35 -2.06689 -2.1661 0
M  V30 1887 H 177.896 -0.995136 -1.04082 0
M  V30 1888 H 179.849 -0.667057 -4.16087 0
M  V30 1889 H 178.573 0.189439 -3.2605 0
M  V30 1890 H 177.232 -1.93789 -3.11193 0
M  V30 1891 H 176.88 -0.35665 -5.01734 0
M  V30 1892 H 176.58 -2.04224 -5.50968 0
M  V30 1893 H 178.104 -1.23679 -5.97943 0
M  V30 1894 H 179.518 -3.16559 -4.77978 0
M  V30 1895 H 177.915 -3.92059 -4.54324 0
M  V30 1896 H 178.985 -3.68729 -3.14908 0
M  V30 1897 N 180.328 1.1314 -1.09713 0
M  V30 1898 C 181.26 2.18343 -0.697056 0
M  V30 1899 C 182.273 1.60669 0.262551 0
M  V30 1900 O 183.462 1.78435 0.0481527 0
M  V30 1901 C 180.562 3.38899 -0.00684728 0
M  V30 1902 C 179.735 4.26078 -0.988741 0
M  V30 1903 C 178.794 5.25155 -0.331394 0
M  V30 1904 O 177.82 5.60701 -0.979926 0
M  V30 1905 N 179.022 5.73271 0.913261 0
M  V30 1906 H 181.787 2.5328 -1.60216 0
M  V30 1907 H 179.348 1.28491 -0.984971 0
M  V30 1908 H 181.34 4.02255 0.444191 0
M  V30 1909 H 179.91 3.02175 0.800551 0
M  V30 1910 H 179.13 3.59453 -1.61826 0
M  V30 1911 H 180.418 4.81178 -1.65364 0
M  V30 1912 H 179.816 5.46544 1.45966 0
M  V30 1913 H 178.373 6.3855 1.30757 0
M  V30 1914 N 181.806 0.884767 1.30421 0
M  V30 1915 C 183.052 0.503851 1.96441 0
M  V30 1916 C 183.385 -0.944518 1.69684 0
M  V30 1917 O 182.66 -1.66737 1.00145 0
M  V30 1918 C 182.943 0.779085 3.51571 0
M  V30 1919 C 182.796 2.27807 3.87846 0
M  V30 1920 C 184.115 0.255452 4.39358 0
M  V30 1921 H 181.234 0.184533 0.713524 0
M  V30 1922 H 183.876 1.10872 1.54297 0
M  V30 1923 H 182.026 0.264274 3.876 0
M  V30 1924 H 183.698 2.86127 3.61841 0
M  V30 1925 H 181.941 2.74479 3.35922 0
M  V30 1926 H 182.612 2.42125 4.96064 0
M  V30 1927 H 185.088 0.696079 4.10236 0
M  V30 1928 H 183.964 0.477361 5.4682 0
M  V30 1929 H 184.225 -0.843293 4.33983 0
M  V30 1930 N 183.284 -1.43765 0.645699 0
M  V30 1931 C 184.533 -2.01116 0.153412 0
M  V30 1932 C 184.846 -1.51493 -1.23731 0
M  V30 1933 O 186.052 -2.01067 -1.8244 0
M  V30 1934 C 184.508 -3.59206 0.223473 0
M  V30 1935 C 184.116 -4.17823 1.61642 0
M  V30 1936 C 185.86 -4.23972 -0.211597 0
M  V30 1937 C 183.767 -5.68183 1.64081 0
M  V30 1938 H 182.697 -0.752093 0.0535891 0
M  V30 1939 H 185.348 -1.6482 0.806633 0
M  V30 1940 H 183.73 -3.92867 -0.497118 0
M  V30 1941 H 184.904 -3.95674 2.36176 0
M  V30 1942 H 183.219 -3.65399 1.99681 0
M  V30 1943 H 185.816 -5.34275 -0.213112 0
M  V30 1944 H 186.159 -3.97352 -1.24165 0
M  V30 1945 H 186.692 -3.95166 0.456988 0
M  V30 1946 H 183.431 -5.99559 2.64971 0
M  V30 1947 H 182.951 -5.9241 0.938611 0
M  V30 1948 H 184.63 -6.32085 1.3812 0
M  V30 1949 N 184.763 -0.387143 -1.52771 0
M  V30 1950 C 185.71 0.449048 -2.26389 0
M  V30 1951 C 186.68 1.05961 -1.27912 0
M  V30 1952 O 187.865 1.08804 -1.56737 0
M  V30 1953 C 185.005 1.57155 -3.0724 0
M  V30 1954 C 184.118 0.984066 -4.20643 0
M  V30 1955 C 183.253 2.07745 -4.88892 0
M  V30 1956 C 182.292 1.46574 -5.94292 0
M  V30 1957 N 181.429 2.49834 -6.56146 0
M  V30 1958 H 186.269 -0.185205 -2.97424 0
M  V30 1959 H 183.806 -0.103164 -1.46738 0
M  V30 1960 H 185.764 2.23309 -3.52405 0
M  V30 1961 H 184.394 2.17615 -2.38419 0
M  V30 1962 H 183.446 0.212193 -3.79808 0
M  V30 1963 H 184.758 0.497029 -4.96318 0
M  V30 1964 H 183.912 2.81673 -5.3735 0
M  V30 1965 H 182.651 2.59807 -4.12737 0
M  V30 1966 H 181.656 0.711696 -5.45174 0
M  V30 1967 H 182.881 0.953088 -6.72379 0
M  V30 1968 H 180.827 3.0107 -5.82832 0
M  V30 1969 H 180.744 2.05879 -7.27427 0
M  V30 1970 H 182.012 3.23399 -7.09249 0
M  V30 1971 N 186.241 1.57166 -0.116904 0
M  V30 1972 C 187.466 1.999 0.55271 0
M  V30 1973 C 187.891 0.996039 1.59564 0
M  V30 1974 O 187.249 -0.032556 1.81271 0
M  V30 1975 C 187.297 3.4152 1.15742 0
M  V30 1976 O 186.401 3.44106 2.27299 0
M  V30 1977 H 185.742 0.649447 0.138258 0
M  V30 1978 H 188.272 2.03573 -0.204759 0
M  V30 1979 H 188.282 3.79684 1.49346 0
M  V30 1980 H 186.957 4.14034 0.393493 0
M  V30 1981 H 185.534 3.17759 1.9515 0
M  V30 1982 N 187.719 -0.156864 1.56817 0
M  V30 1983 C 188.996 -0.899244 1.73704 0
M  V30 1984 C 189.376 -1.99771 0.682254 0
M  V30 1985 O 188.724 -2.26515 -0.300522 0
M  V30 1986 C 188.934 -1.45075 3.17418 0
M  V30 1987 C 190.282 -1.91802 3.7881 0
M  V30 1988 O 191.306 -1.54838 3.20786 0
M  V30 1989 O 190.165 -2.5994 4.80722 0
M  V30 1990 H 187.259 -0.424267 0.709878 0
M  V30 1991 H 189.805 -0.143561 1.69092 0
M  V30 1992 H 188.577 -0.660846 3.85679 0
M  V30 1993 H 188.2 -2.27021 3.26416 0
M  V30 1994 N 189.197 -1.51736 -0.425897 0
M  V30 1995 C 190.127 -1.76827 -1.52494 0
M  V30 1996 C 191.108 -0.618524 -1.58456 0
M  V30 1997 O 192.293 -0.862416 -1.74 0
M  V30 1998 C 189.423 -1.90374 -2.90474 0
M  V30 1999 C 188.377 -3.0588 -2.99369 0
M  V30 2000 C 187.703 -3.04625 -4.3944 0
M  V30 2001 C 189.003 -4.45644 -2.72394 0
M  V30 2002 H 190.697 -2.68855 -1.31748 0
M  V30 2003 H 188.243 -1.29372 -0.632362 0
M  V30 2004 H 190.196 -2.0651 -3.6733 0
M  V30 2005 H 188.92 -0.95004 -3.12477 0
M  V30 2006 H 187.579 -2.89467 -2.24954 0
M  V30 2007 H 187.227 -2.0701 -4.58428 0
M  V30 2008 H 186.927 -3.82195 -4.46319 0
M  V30 2009 H 188.451 -3.22869 -5.18255 0
M  V30 2010 H 189.865 -4.62348 -3.38979 0
M  V30 2011 H 188.262 -5.25006 -2.9067 0
M  V30 2012 H 189.332 -4.54893 -1.67929 0
M  V30 2013 N 190.675 0.682077 -1.42076 0
M  V30 2014 C 191.921 1.44428 -1.42367 0
M  V30 2015 C 192.254 1.94164 -0.0373056 0
M  V30 2016 O 191.529 1.70429 0.937239 0
M  V30 2017 C 191.812 2.64654 -2.44194 0
M  V30 2018 C 191.665 2.20596 -3.91991 0
M  V30 2019 C 192.984 3.66865 -2.431 0
M  V30 2020 H 190.103 0.523834 -0.518428 0
M  V30 2021 H 192.745 0.77576 -1.73442 0
M  V30 2022 H 190.895 3.2169 -2.17826 0
M  V30 2023 H 192.567 1.68783 -4.29313 0
M  V30 2024 H 190.81 1.52242 -4.06208 0
M  V30 2025 H 191.481 3.06921 -4.58807 0
M  V30 2026 H 193.957 3.19531 -2.66532 0
M  V30 2027 H 192.833 4.48577 -3.16339 0
M  V30 2028 H 193.094 4.17493 -1.45437 0
M  V30 2029 N 192.153 1.28127 0.917671 0
M  V30 2030 C 193.101 1.11569 2.04096 0
M  V30 2031 C 194.095 0.0360242 1.69362 0
M  V30 2032 O 195.301 0.194501 1.78946 0
M  V30 2033 H 191.676 0.344097 0.668656 0
M  V30 2034 H 193.647 2.06711 2.15205 0
M  V30 2035 C 192.396 0.790197 3.38602 0
M  V30 2036 H 191.719 1.61293 3.6582 0
M  V30 2037 H 193.159 0.714271 4.1794 0
M  V30 2038 C 191.618 -0.505897 3.3308 0
M  V30 2039 O 192.148 -1.53736 3.71117 0
M  V30 2040 N 190.354 -0.505193 2.86175 0
M  V30 2041 H 189.901 0.334621 2.55417 0
M  V30 2042 H 189.859 -1.37243 2.82863 0
M  V30 2043 N 193.631 -1.12557 1.10312 0
M  V30 2044 C 194.541 -2.21841 0.763142 0
M  V30 2045 C 195.557 -1.72354 -0.238801 0
M  V30 2046 O 196.733 -2.01249 -0.0778746 0
M  V30 2047 C 193.798 -3.46131 0.198632 0
M  V30 2048 C 192.859 -4.10464 1.25769 0
M  V30 2049 C 192.092 -5.28821 0.72002 0
M  V30 2050 O 192.315 -5.6859 -0.453993 0
M  V30 2051 O 191.249 -5.83437 1.47935 0
M  V30 2052 H 195.075 -2.53312 1.67532 0
M  V30 2053 H 192.66 -1.20867 0.878157 0
M  V30 2054 H 194.542 -4.2125 -0.112401 0
M  V30 2055 H 193.217 -3.16338 -0.686419 0
M  V30 2056 H 192.124 -3.3713 1.62156 0
M  V30 2057 H 193.457 -4.44408 2.11571 0
M  V30 2058 N 195.109 -0.891671 -1.2995 0
M  V30 2059 C 196.019 -0.367691 -2.31701 0
M  V30 2060 C 197.035 0.533486 -1.6562 0
M  V30 2061 O 198.211 0.424997 -1.96865 0
M  V30 2062 C 195.276 0.403406 -3.44345 0
M  V30 2063 C 194.337 -0.528328 -4.26037 0
M  V30 2064 C 193.57 0.206063 -5.33302 0
M  V30 2065 O 193.793 1.43119 -5.52153 0
M  V30 2066 O 192.727 -0.447281 -6.00236 0
M  V30 2067 H 196.553 -1.21163 -2.78484 0
M  V30 2068 H 194.138 -0.655725 -1.34241 0
M  V30 2069 H 196.02 0.839753 -4.12948 0
M  V30 2070 H 194.695 1.22354 -2.99685 0
M  V30 2071 H 193.602 -1.01362 -3.60106 0
M  V30 2072 H 194.935 -1.31465 -4.74318 0
M  V30 2073 N 196.587 1.43421 -0.653314 0
M  V30 2074 C 197.55 2.29182 0.0287951 0
M  V30 2075 C 198.55 1.42213 0.750465 0
M  V30 2076 O 199.74 1.63843 0.591701 0
M  V30 2077 C 196.872 3.24278 1.05151 0
M  V30 2078 H 198.065 2.90985 -0.725786 0
M  V30 2079 H 195.618 1.50702 -0.414545 0
M  V30 2080 H 196.353 2.6737 1.83532 0
M  V30 2081 H 196.138 3.88396 0.537687 0
M  V30 2082 H 197.628 3.88647 1.52786 0
M  V30 2083 N 198.065 0.39524 1.52563 0
M  V30 2084 C 199.293 -0.184943 2.06072 0
M  V30 2085 C 199.708 -1.40021 1.26647 0
M  V30 2086 O 199.065 -1.79767 0.314672 0
M  V30 2087 C 199.116 -0.549179 3.57304 0
M  V30 2088 O 198.837 0.617813 4.33722 0
M  V30 2089 C 200.338 -1.18459 4.2718 0
M  V30 2090 H 197.558 -0.0265025 0.670476 0
M  V30 2091 H 200.102 0.562184 1.96621 0
M  V30 2092 H 198.257 -1.2462 3.66809 0
M  V30 2093 H 198.671 0.317091 5.23541 0
M  V30 2094 H 200.145 -1.38976 5.34219 0
M  V30 2095 H 200.622 -2.15368 3.82771 0
M  V30 2096 H 201.228 -0.528163 4.22008 0
M  V30 2097 N 199.544 -1.57102 0.125237 0
M  V30 2098 C 200.792 -1.95021 -0.530198 0
M  V30 2099 C 201.113 -1.00982 -1.66816 0
M  V30 2100 O 200.383 -0.0672693 -1.95784 0
M  V30 2101 H 198.963 -0.720046 -0.198853 0
M  V30 2102 H 201.625 -1.93916 0.19564 0
M  V30 2103 H 200.721 -2.98211 -0.920681 0
M  V30 2104 N 201.022 0.148545 -1.56898 0
M  V30 2105 C 201.954 1.20852 -1.9475 0
M  V30 2106 C 202.967 1.39265 -0.843152 0
M  V30 2107 O 204.156 1.38864 -1.12156 0
M  V30 2108 C 201.256 2.57362 -2.20495 0
M  V30 2109 C 200.429 2.59947 -3.51776 0
M  V30 2110 C 199.488 3.77984 -3.6608 0
M  V30 2111 O 198.514 3.62929 -4.38487 0
M  V30 2112 N 199.716 4.95375 -3.02629 0
M  V30 2113 H 202.481 0.886804 -2.86279 0
M  V30 2114 H 200.042 0.338121 -1.5833 0
M  V30 2115 H 202.034 3.34833 -2.27307 0
M  V30 2116 H 200.604 2.81832 -1.35238 0
M  V30 2117 H 199.824 1.68403 -3.56419 0
M  V30 2118 H 201.112 2.58704 -4.38121 0
M  V30 2119 H 200.51 5.10509 -2.43715 0
M  V30 2120 H 199.067 5.70627 -3.15004 0
M  V30 2121 N 202.5 1.5196 0.417844 0
M  V30 2122 C 203.747 1.65591 1.16559 0
M  V30 2123 C 204.075 0.381565 1.90721 0
M  V30 2124 O 203.33 -0.635156 1.85106 0
M  V30 2125 C 203.629 2.82269 2.19223 0
M  V30 2126 C 203.295 4.20819 1.61933 0
M  V30 2127 C 201.957 4.58506 1.46033 0
M  V30 2128 C 204.309 5.07196 1.20008 0
M  V30 2129 C 201.637 5.80257 0.867113 0
M  V30 2130 C 203.989 6.29544 0.621086 0
M  V30 2131 C 202.653 6.65987 0.449144 0
M  V30 2132 H 201.923 0.605939 0.42652 0
M  V30 2133 H 204.57 1.86041 0.45397 0
M  V30 2134 H 202.875 2.56118 2.96498 0
M  V30 2135 H 204.572 2.90012 2.76936 0
M  V30 2136 H 201.162 3.91116 1.7529 0
M  V30 2137 H 205.346 4.7867 1.31105 0
M  V30 2138 H 200.602 6.07124 0.721833 0
M  V30 2139 H 204.776 6.95805 0.287798 0
M  V30 2140 H 202.403 7.60199 -0.012632 0
M  V30 2141 N 203.978 -0.674533 1.42435 0
M  V30 2142 C 204.928 -1.7807 1.4239 0
M  V30 2143 C 205.912 -1.58169 0.295202 0
M  V30 2144 O 207.104 -1.68643 0.537449 0
M  V30 2145 C 204.233 -3.16532 1.32901 0
M  V30 2146 C 203.319 -3.42055 2.50717 0
M  V30 2147 N 203.71 -3.38162 3.76139 0
M  V30 2148 C 202.008 -3.72692 2.44983 0
M  V30 2149 C 202.709 -3.63177 4.54398 0
M  V30 2150 N 201.685 -3.83954 3.84812 0
M  V30 2151 H 205.487 -1.73454 2.37257 0
M  V30 2152 H 203.001 -0.875381 1.36788 0
M  V30 2153 H 204.998 -3.958 1.30951 0
M  V30 2154 H 203.658 -3.22345 0.390363 0
M  V30 2155 H 204.669 -3.18057 4.0873 0
M  V30 2156 H 201.346 -3.85749 1.59699 0
M  V30 2157 H 202.736 -3.66125 5.63384 0
M  V30 2158 N 205.456 -1.28612 -0.910864 0
M  V30 2159 C 206.702 -1.16106 -1.66274 0
M  V30 2160 C 207.035 0.289113 -1.92036 0
M  V30 2161 O 206.31 1.21 -1.52281 0
M  V30 2162 C 206.593 -1.96309 -3.01885 0
M  V30 2163 C 206.446 -3.49405 -2.8326 0
M  V30 2164 C 207.765 -1.78076 -4.02463 0
M  V30 2165 H 204.884 -0.423152 -0.603417 0
M  V30 2166 H 207.526 -1.57961 -1.05586 0
M  V30 2167 H 205.676 -1.60742 -3.53687 0
M  V30 2168 H 207.348 -3.94894 -2.38446 0
M  V30 2169 H 205.591 -3.74893 -2.18261 0
M  V30 2170 H 206.262 -4.00784 -3.79574 0
M  V30 2171 H 208.738 -2.0912 -3.59733 0
M  V30 2172 H 207.614 -2.36561 -4.95308 0
M  V30 2173 H 207.875 -0.733008 -4.35981 0
M  V30 2174 N 206.934 1.1197 -1.10907 0
M  V30 2175 C 208.164 1.8713 -0.875553 0
M  V30 2176 C 208.572 1.8016 0.577843 0
M  V30 2177 O 207.915 1.17699 1.41042 0
M  V30 2178 C 207.977 3.37005 -1.2517 0
M  V30 2179 C 207.641 3.67748 -2.71313 0
M  V30 2180 C 208.638 3.65698 -3.69542 0
M  V30 2181 C 206.323 3.96928 -3.07821 0
M  V30 2182 C 208.317 3.92395 -5.023 0
M  V30 2183 C 206.004 4.23284 -4.40765 0
M  V30 2184 C 207.002 4.21005 -5.37814 0
M  V30 2185 O 206.69 4.46704 -6.68364 0
M  V30 2186 H 206.422 0.598786 -0.313737 0
M  V30 2187 H 208.976 1.42568 -1.47863 0
M  V30 2188 H 207.206 3.82146 -0.591741 0
M  V30 2189 H 208.895 3.93519 -0.994877 0
M  V30 2190 H 209.661 3.43211 -3.42682 0
M  V30 2191 H 205.54 3.97841 -2.32902 0
M  V30 2192 H 209.084 3.90531 -5.78041 0
M  V30 2193 H 204.981 4.45246 -4.67361 0
M  V30 2194 H 205.749 4.64299 -6.74069 0
M  V30 2195 N 208.412 0.89855 1.29475 0
M  V30 2196 C 209.823 0.572537 1.77705 0
M  V30 2197 C 210.174 -0.911778 1.73727 0
M  V30 2198 O 209.299 -1.71288 1.32247 0
M  V30 2199 C 209.894 1.03252 3.22683 0
M  V30 2200 C 208.453 0.757687 3.68695 0
M  V30 2201 C 207.6 1.20787 2.49612 0
M  V30 2202 H 210.551 1.08139 1.16153 0
M  V30 2203 H 210.572 0.367307 3.78723 0
M  V30 2204 H 210.084 2.11285 3.25546 0
M  V30 2205 H 208.185 -0.310079 3.71308 0
M  V30 2206 H 208.298 1.35476 4.59547 0
M  V30 2207 H 206.662 0.626888 2.46865 0
M  V30 2208 H 207.445 2.29622 2.55203 0
M  V30 2209 N 209.89 -1.43072 0.660911 0
M  V30 2210 C 210.8 -2.34585 -0.0264163 0
M  V30 2211 C 211.816 -1.54316 -0.803898 0
M  V30 2212 O 212.992 -1.86939 -0.749391 0
M  V30 2213 C 210.057 -3.32689 -0.975639 0
M  V30 2214 C 209.118 -4.2886 -0.194236 0
M  V30 2215 C 208.351 -5.22278 -1.09825 0
M  V30 2216 O 208.574 -5.20299 -2.33763 0
M  V30 2217 O 207.508 -5.99228 -0.566513 0
M  V30 2218 H 211.334 -2.94869 0.727034 0
M  V30 2219 H 208.919 -1.43342 0.42111 0
M  V30 2220 H 210.801 -3.92995 -1.52094 0
M  V30 2221 H 209.476 -2.74898 -1.70918 0
M  V30 2222 H 208.383 -3.72011 0.394835 0
M  V30 2223 H 209.716 -4.89655 0.499899 0
M  V30 2224 N 211.368 -0.403325 -1.52352 0
M  V30 2225 C 212.298 0.416205 -2.29761 0
M  V30 2226 C 213.279 1.05123 -1.33728 0
M  V30 2227 O 214.464 1.06134 -1.62632 0
M  V30 2228 C 211.594 1.53624 -3.11475 0
M  V30 2229 C 210.548 1.02653 -4.15507 0
M  V30 2230 C 209.874 2.23971 -4.85532 0
M  V30 2231 C 211.174 0.08463 -5.22231 0
M  V30 2232 H 212.868 -0.229701 -2.98518 0
M  V30 2233 H 210.414 -0.111913 -1.43564 0
M  V30 2234 H 212.367 2.1165 -3.64393 0
M  V30 2235 H 211.091 2.20994 -2.40477 0
M  V30 2236 H 209.75 0.46871 -3.63591 0
M  V30 2237 H 209.398 2.89883 -4.11068 0
M  V30 2238 H 209.098 1.90521 -5.55856 0
M  V30 2239 H 210.622 2.82614 -5.41259 0
M  V30 2240 H 212.036 0.573509 -5.70424 0
M  V30 2241 H 210.433 -0.160783 -5.99885 0
M  V30 2242 H 211.503 -0.86237 -4.7717 0
M  V30 2243 N 212.846 1.57033 -0.133567 0
M  V30 2244 C 214.257 1.82593 0.389464 0
M  V30 2245 C 214.608 1.05156 1.6564 0
M  V30 2246 O 213.733 0.292644 2.14412 0
M  V30 2247 C 214.328 3.31204 0.713377 0
M  V30 2248 C 212.887 3.57393 1.18098 0
M  V30 2249 C 212.034 2.76598 0.197126 0
M  V30 2250 H 214.985 1.54598 -0.358481 0
M  V30 2251 H 215.006 3.46627 1.56939 0
M  V30 2252 H 214.518 3.87537 -0.2089 0
M  V30 2253 H 212.619 3.06433 2.11966 0
M  V30 2254 H 212.732 4.65915 1.11624 0
M  V30 2255 H 211.096 2.45257 0.687088 0
M  V30 2256 H 211.879 3.35697 -0.718504 0
M  V30 2257 N 214.325 -0.140222 1.56975 0
M  V30 2258 C 215.272 -1.17292 1.98774 0
M  V30 2259 C 216.242 -1.4232 0.856408 0
M  V30 2260 O 217.427 -1.54541 1.119 0
M  V30 2261 C 214.567 -2.49973 2.37923 0
M  V30 2262 C 213.68 -2.32062 3.64378 0
M  V30 2263 C 212.815 -3.57825 3.926 0
M  V30 2264 C 211.854 -3.3498 5.12303 0
M  V30 2265 N 210.991 -4.52891 5.36502 0
M  V30 2266 H 215.831 -0.809472 2.86795 0
M  V30 2267 H 213.368 -0.388237 1.41884 0
M  V30 2268 H 215.326 -3.27346 2.58652 0
M  V30 2269 H 213.956 -2.84252 1.52972 0
M  V30 2270 H 213.008 -1.45711 3.51387 0
M  V30 2271 H 214.32 -2.11145 4.51906 0
M  V30 2272 H 213.474 -4.43624 4.13863 0
M  V30 2273 H 212.213 -3.81753 3.03506 0
M  V30 2274 H 211.218 -2.4757 4.90906 0
M  V30 2275 H 212.443 -3.12444 6.02956 0
M  V30 2276 H 210.389 -4.76979 4.50363 0
M  V30 2277 H 210.306 -4.35001 6.18312 0
M  V30 2278 H 211.574 -5.39884 5.62268 0
M  V30 2279 N 215.803 -1.52179 -0.40978 0
M  V30 2280 C 217.214 -1.58377 -0.988615 0
M  V30 2281 C 217.565 -0.423879 -1.91566 0
M  V30 2282 O 216.69 0.455844 -2.11544 0
M  V30 2283 C 217.285 -2.87044 -1.79976 0
M  V30 2284 C 215.844 -2.95722 -2.32863 0
M  V30 2285 C 214.991 -2.53309 -1.12828 0
M  V30 2286 H 217.942 -1.57558 -0.190039 0
M  V30 2287 H 217.963 -2.7236 -2.65707 0
M  V30 2288 H 217.475 -3.71444 -1.12478 0
M  V30 2289 H 215.576 -2.15814 -3.03735 0
M  V30 2290 H 215.689 -3.99951 -2.63773 0
M  V30 2291 H 214.053 -2.07142 -1.48204 0
M  V30 2292 H 214.836 -3.40082 -0.46897 0
M  V30 2293 N 217.281 0.66697 -1.42791 0
M  V30 2294 C 218.506 1.46004 -1.47301 0
M  V30 2295 C 218.931 1.87894 -0.0880317 0
M  V30 2296 O 218.289 1.56502 0.915253 0
M  V30 2297 C 218.337 2.68031 -2.41229 0
M  V30 2298 O 217.441 3.6659 -1.88906 0
M  V30 2299 H 216.782 0.43832 -0.49877 0
M  V30 2300 H 219.312 0.817391 -1.87563 0
M  V30 2301 H 219.322 3.1601 -2.58073 0
M  V30 2302 H 217.997 2.36883 -3.41847 0
M  V30 2303 H 216.574 3.25661 -1.81656 0
M  V30 2304 N 218.759 1.29093 0.90403 0
M  V30 2305 C 220.008 1.16187 1.64874 0
M  V30 2306 C 220.321 -0.286742 1.93487 0
M  V30 2307 O 221.527 -0.537062 2.66135 0
M  V30 2308 C 219.983 2.03177 2.97064 0
M  V30 2309 C 219.591 3.52836 2.76062 0
M  V30 2310 C 221.335 1.98984 3.74974 0
M  V30 2311 C 219.242 4.31945 4.03952 0
M  V30 2312 H 218.172 0.431246 0.618501 0
M  V30 2313 H 220.823 1.53699 1.00243 0
M  V30 2314 H 219.205 1.5853 3.62883 0
M  V30 2315 H 220.379 4.05507 2.18863 0
M  V30 2316 H 218.694 3.58656 2.11553 0
M  V30 2317 H 221.291 2.55351 4.69787 0
M  V30 2318 H 221.634 0.968815 4.0487 0
M  V30 2319 H 222.167 2.41652 3.15989 0
M  V30 2320 H 218.906 5.34667 3.79225 0
M  V30 2321 H 218.426 3.84045 4.60727 0
M  V30 2322 H 220.105 4.42379 4.72133 0
M  V30 2323 N 220.237 -1.11381 1.11499 0
M  V30 2324 C 221.462 -1.87475 0.887019 0
M  V30 2325 C 221.887 -1.79639 -0.557796 0
M  V30 2326 O 221.245 -1.15924 -1.39396 0
M  V30 2327 C 221.293 -3.34213 1.35403 0
M  V30 2328 O 220.397 -4.0903 0.526146 0
M  V30 2329 H 219.738 -0.582099 0.319463 0
M  V30 2330 H 222.268 -1.40785 1.48461 0
M  V30 2331 H 222.278 -3.8506 1.34881 0
M  V30 2332 H 220.953 -3.39232 2.40612 0
M  V30 2333 H 219.53 -3.68082 0.597522 0
M  V30 2334 N 221.715 -0.905404 -1.28997 0
M  V30 2335 C 222.94 -0.549175 -1.99997 0
M  V30 2336 C 223.365 0.860276 -1.67275 0
M  V30 2337 O 222.723 1.57355 -0.900502 0
M  V30 2338 C 222.771 -0.755185 -3.52604 0
M  V30 2339 O 221.875 0.189692 -4.11964 0
M  V30 2340 H 221.216 -0.213899 -0.628604 0
M  V30 2341 H 223.746 -1.21856 -1.64354 0
M  V30 2342 H 223.756 -0.662045 -4.02593 0
M  V30 2343 H 222.431 -1.78271 -3.75755 0
M  V30 2344 H 221.008 0.0485257 -3.72868 0
M  V30 2345 N 223.193 1.4272 -0.668489 0
M  V30 2346 C 224.141 2.32586 0.0254857 0
M  V30 2347 C 225.135 1.49471 0.797176 0
M  V30 2348 O 226.341 1.65583 0.705853 0
M  V30 2349 H 222.716 0.751514 0.0270339 0
M  V30 2350 H 224.687 2.88823 -0.749936 0
M  V30 2351 C 223.436 3.3397 0.967427 0
M  V30 2352 H 222.759 3.97961 0.383048 0
M  V30 2353 H 224.199 3.9945 1.42181 0
M  V30 2354 C 222.658 2.65744 2.0708 0
M  V30 2355 O 223.188 2.48454 3.15648 0
M  V30 2356 N 221.394 2.2487 1.8407 0
M  V30 2357 H 220.941 2.39132 0.95778 0
M  V30 2358 H 220.899 1.79552 2.58086 0
M  V30 2359 N 224.671 0.411399 1.52136 0
M  V30 2360 C 225.619 -0.427633 2.28635 0
M  V30 2361 C 226.613 -1.04383 1.33419 0
M  V30 2362 O 227.819 -0.981772 1.50868 0
M  V30 2363 H 224.194 -0.156689 0.735495 0
M  V30 2364 H 226.165 0.238761 2.97443 0
M  V30 2365 C 224.914 -1.53082 3.12188 0
M  V30 2366 H 224.237 -1.06601 3.85326 0
M  V30 2367 H 225.677 -2.09167 3.68816 0
M  V30 2368 C 224.136 -2.49946 2.25895 0
M  V30 2369 O 224.666 -3.53884 1.90076 0
M  V30 2370 N 222.872 -2.2021 1.8962 0
M  V30 2371 H 222.419 -1.35719 2.18948 0
M  V30 2372 H 222.377 -2.85266 1.32176 0
M  V30 2373 N 226.149 -1.5696 0.141893 0
M  V30 2374 C 227.374 -2.00754 -0.520838 0
M  V30 2375 C 227.799 -1.0213 -1.57959 0
M  V30 2376 O 227.157 0.00371324 -1.813 0
M  V30 2377 C 227.205 -3.43318 -1.10294 0
M  V30 2378 O 226.309 -3.47679 -2.21795 0
M  V30 2379 H 225.65 -0.651564 -0.127908 0
M  V30 2380 H 228.18 -2.03221 0.23712 0
M  V30 2381 H 228.19 -3.82012 -1.43287 0
M  V30 2382 H 226.865 -4.14608 -0.327574 0
M  V30 2383 H 225.442 -3.20824 -1.9007 0
M  V30 2384 N 227.627 0.131896 -1.57047 0
M  V30 2385 C 228.575 1.18146 -2.0036 0
M  V30 2386 C 229.569 1.43614 -0.898406 0
M  V30 2387 O 230.775 1.43729 -1.08361 0
M  V30 2388 H 227.15 0.398042 -0.638018 0
M  V30 2389 H 229.121 0.789564 -2.87765 0
M  V30 2390 C 227.87 2.50341 -2.41298 0
M  V30 2391 H 227.193 2.31578 -3.25902 0
M  V30 2392 H 228.633 3.22371 -2.75414 0
M  V30 2393 C 227.092 3.11984 -1.27153 0
M  V30 2394 O 227.622 3.97484 -0.580459 0
M  V30 2395 N 225.828 2.71662 -1.03189 0
M  V30 2396 H 225.375 2.02231 -1.59564 0
M  V30 2397 H 225.333 3.13238 -0.270077 0
M  V30 2398 N 229.106 1.52395 0.401703 0
M  V30 2399 C 230.517 1.58899 0.980202 0
M  V30 2400 C 230.868 0.434032 1.91339 0
M  V30 2401 O 229.993 -0.444619 2.11783 0
M  V30 2402 C 230.588 2.87994 1.78451 0
M  V30 2403 C 229.147 2.96953 2.31292 0
M  V30 2404 C 228.294 2.53903 1.11483 0
M  V30 2405 H 231.245 1.57657 0.18168 0
M  V30 2406 H 231.266 2.73765 2.64259 0
M  V30 2407 H 230.778 3.72035 1.10506 0
M  V30 2408 H 228.879 2.17422 3.02586 0
M  V30 2409 H 228.992 4.01344 2.61649 0
M  V30 2410 H 227.356 2.07925 1.47104 0
M  V30 2411 H 228.139 3.40326 0.450928 0
M  V30 2412 N 230.584 -0.659388 1.43143 0
M  V30 2413 C 231.83 -1.42145 1.44647 0
M  V30 2414 C 232.163 -1.9408 0.0681907 0
M  V30 2415 O 231.438 -1.71899 -0.910007 0
M  V30 2416 C 231.721 -2.60735 2.48373 0
M  V30 2417 C 231.574 -2.14332 3.95451 0
M  V30 2418 C 232.893 -3.62951 2.48906 0
M  V30 2419 H 230.012 -0.51552 0.526696 0
M  V30 2420 H 232.654 -0.748069 1.74654 0
M  V30 2421 H 230.804 -3.18184 2.22916 0
M  V30 2422 H 232.476 -1.61932 4.31944 0
M  V30 2423 H 230.719 -1.4576 4.08578 0
M  V30 2424 H 231.39 -2.99583 4.63631 0
M  V30 2425 H 233.866 -3.1525 2.71582 0
M  V30 2426 H 232.742 -4.43487 3.23435 0
M  V30 2427 H 233.003 -4.15126 1.52061 0
M  V30 2428 N 232.062 -1.29571 -0.897171 0
M  V30 2429 C 232.972 -1.16808 -2.03453 0
M  V30 2430 C 233.988 -0.0907471 -1.73763 0
M  V30 2431 O 235.164 -0.303312 -1.99103 0
M  V30 2432 C 232.229 -0.848264 -3.36163 0
M  V30 2433 C 231.29 -2.0097 -3.79354 0
M  V30 2434 C 230.523 -1.70505 -5.05731 0
M  V30 2435 O 230.746 -0.62718 -5.66941 0
M  V30 2436 O 229.68 -2.5538 -5.45036 0
M  V30 2437 H 233.506 -2.12325 -2.17144 0
M  V30 2438 H 231.091 -1.09047 -1.02123 0
M  V30 2439 H 232.973 -0.684581 -4.15802 0
M  V30 2440 H 231.648 0.0771071 -3.23608 0
M  V30 2441 H 230.555 -2.22863 -3.00471 0
M  V30 2442 H 231.888 -2.91636 -3.96496 0
M  V30 2443 N 233.54 1.10788 -1.12088 0
M  V30 2444 C 234.817 1.79136 -0.785476 0
M  V30 2445 C 235.197 1.98246 0.725377 0
M  V30 2446 O 234.545 1.57258 1.65778 0
M  V30 2447 C 234.755 3.12375 -1.55636 0
M  V30 2448 C 236.103 3.8731 -1.74001 0
M  V30 2449 O 237.127 3.22085 -1.52117 0
M  V30 2450 O 235.986 5.04369 -2.10415 0
M  V30 2451 H 233.08 0.776226 -0.285311 0
M  V30 2452 H 235.626 1.1747 -1.2247 0
M  V30 2453 H 234.398 2.93863 -2.5838 0
M  V30 2454 H 234.021 3.81758 -1.11114 0
M  V30 2455 N 235.018 0.912232 1.28515 0
M  V30 2456 C 235.965 0.397954 2.27343 0
M  V30 2457 C 236.935 -0.526766 1.57526 0
M  V30 2458 O 238.12 -0.449292 1.85435 0
M  V30 2459 C 235.26 -0.357263 3.43246 0
M  V30 2460 C 234.373 0.599788 4.27816 0
M  V30 2461 C 233.508 -0.173725 5.30916 0
M  V30 2462 C 232.547 0.777039 6.07148 0
M  V30 2463 N 231.684 0.0371398 7.0209 0
M  V30 2464 H 236.524 1.24577 2.70711 0
M  V30 2465 H 234.061 0.625612 1.33133 0
M  V30 2466 H 236.019 -0.8113 4.09236 0
M  V30 2467 H 234.649 -1.16943 3.00872 0
M  V30 2468 H 233.701 1.17235 3.61884 0
M  V30 2469 H 235.013 1.32704 4.80823 0
M  V30 2470 H 234.167 -0.688394 6.02782 0
M  V30 2471 H 232.906 -0.934041 4.78672 0
M  V30 2472 H 231.911 1.3031 5.34134 0
M  V30 2473 H 233.136 1.53689 6.61481 0
M  V30 2474 H 231.082 -0.705213 6.52198 0
M  V30 2475 H 230.999 0.704249 7.52713 0
M  V30 2476 H 232.267 -0.457383 7.78157 0
M  V30 2477 N 236.496 -1.42363 0.676048 0
M  V30 2478 C 237.773 -1.95183 0.127726 0
M  V30 2479 C 238.153 -1.61641 -1.35777 0
M  V30 2480 O 237.501 -0.913216 -2.09458 0
M  V30 2481 C 237.711 -3.46721 0.398199 0
M  V30 2482 C 239.059 -4.23427 0.315383 0
M  V30 2483 O 240.083 -3.54649 0.332016 0
M  V30 2484 O 238.942 -5.45888 0.25865 0
M  V30 2485 H 236.036 -0.826992 0.00359427 0
M  V30 2486 H 238.582 -1.52184 0.750864 0
M  V30 2487 H 237.354 -3.64344 1.4272 0
M  V30 2488 H 236.977 -3.96769 -0.256885 0
M  V30 2489 N 237.974 -0.419461 -1.51915 0
M  V30 2490 C 238.937 0.389116 -2.25873 0
M  V30 2491 C 239.937 0.964924 -1.28631 0
M  V30 2492 O 241.127 0.842179 -1.52489 0
M  V30 2493 C 238.259 1.54874 -3.03689 0
M  V30 2494 H 239.452 -0.258799 -2.98781 0
M  V30 2495 H 237.005 -0.172209 -1.55348 0
M  V30 2496 H 237.74 2.23323 -2.35154 0
M  V30 2497 H 237.525 1.14223 -3.75094 0
M  V30 2498 H 239.015 2.12046 -3.59759 0
M  V30 2499 N 239.452 1.56882 -0.150215 0
M  V30 2500 C 240.698 1.96518 0.500834 0
M  V30 2501 C 241.031 1.03527 1.64304 0
M  V30 2502 O 240.306 0.0782751 1.94342 0
M  V30 2503 C 240.589 3.45822 1.00395 0
M  V30 2504 C 240.442 4.49591 -0.136983 0
M  V30 2505 C 241.761 3.97704 1.88467 0
M  V30 2506 H 238.88 0.714535 0.18058 0
M  V30 2507 H 241.522 1.88577 -0.232091 0
M  V30 2508 H 239.672 3.5272 1.62851 0
M  V30 2509 H 241.344 4.5477 -0.77343 0
M  V30 2510 H 239.587 4.26441 -0.795652 0
M  V30 2511 H 240.258 5.51402 0.256815 0
M  V30 2512 H 242.734 3.93304 1.35834 0
M  V30 2513 H 241.61 5.0263 2.20578 0
M  V30 2514 H 241.871 3.40252 2.82279 0
M  V30 2515 N 240.93 -0.123565 1.57115 0
M  V30 2516 C 241.893 -1.13583 1.99076 0
M  V30 2517 C 242.893 -1.34564 0.880296 0
M  V30 2518 O 244.083 -1.31158 1.14644 0
M  V30 2519 C 241.215 -2.49128 2.32698 0
M  V30 2520 H 242.408 -0.775287 2.89706 0
M  V30 2521 H 239.961 -0.36771 1.51913 0
M  V30 2522 H 240.696 -2.90111 1.44934 0
M  V30 2523 H 240.481 -2.35255 3.13684 0
M  V30 2524 H 241.971 -3.2199 2.65918 0
M  V30 2525 N 242.408 -1.52605 -0.393616 0
M  V30 2526 C 243.655 -1.67424 -1.1391 0
M  V30 2527 C 243.983 -0.411859 -1.90089 0
M  V30 2528 O 243.238 0.605626 -1.86093 0
M  V30 2529 C 243.537 -2.85721 -2.14705 0
M  V30 2530 C 243.203 -4.23342 -1.55218 0
M  V30 2531 C 241.865 -4.60771 -1.3872 0
M  V30 2532 C 244.217 -5.09041 -1.11924 0
M  V30 2533 C 241.545 -5.81563 -0.774689 0
M  V30 2534 C 243.897 -6.30452 -0.520853 0
M  V30 2535 C 242.561 -6.66617 -0.343134 0
M  V30 2536 H 241.831 -0.612648 -0.416826 0
M  V30 2537 H 244.478 -1.8674 -0.424315 0
M  V30 2538 H 242.783 -2.60803 -2.92385 0
M  V30 2539 H 244.48 -2.94382 -2.72288 0
M  V30 2540 H 241.07 -3.93855 -1.69045 0
M  V30 2541 H 245.254 -4.80695 -1.23473 0
M  V30 2542 H 240.51 -6.08196 -0.625154 0
M  V30 2543 H 244.684 -6.96175 -0.177065 0
M  V30 2544 H 242.311 -7.60083 0.133571 0
M  V30 2545 N 243.887 0.651787 -1.4349 0
M  V30 2546 C 245.115 1.43937 -1.48626 0
M  V30 2547 C 245.53 1.8851 -0.104587 0
M  V30 2548 O 244.887 1.5958 0.885464 0
M  V30 2549 C 244.938 2.6734 -2.43334 0
M  V30 2550 O 244.659 2.24631 -3.76128 0
M  V30 2551 C 246.16 3.60683 -2.57726 0
M  V30 2552 H 243.38 0.44213 -0.504739 0
M  V30 2553 H 245.924 0.798944 -1.88248 0
M  V30 2554 H 244.079 3.2752 -2.06904 0
M  V30 2555 H 244.493 3.04485 -4.2707 0
M  V30 2556 H 245.967 4.43933 -3.28067 0
M  V30 2557 H 246.444 4.08126 -1.62265 0
M  V30 2558 H 247.05 3.06384 -2.94973 0
M  V30 2559 N 245.365 1.30045 0.890287 0
M  V30 2560 C 246.605 1.19839 1.65584 0
M  V30 2561 C 246.969 -0.244175 1.90441 0
M  V30 2562 O 248.17 -0.469378 2.6467 0
M  V30 2563 C 246.441 1.99876 2.96284 0
M  V30 2564 S 248 2.06309 3.87275 0
M  V30 2565 H 244.818 0.427157 0.568382 0
M  V30 2566 H 247.42 1.64453 1.05715 0
M  V30 2567 H 246.124 3.03809 2.75913 0
M  V30 2568 H 245.655 1.55903 3.61189 0
M  V30 2569 H 247.67 1.18661 4.81803 0
M  V30 2570 N 246.843 -1.10192 1.12674 0
M  V30 2571 C 247.753 -2.20172 0.810026 0
M  V30 2572 C 248.769 -1.72821 -0.202188 0
M  V30 2573 O 249.945 -2.01369 -0.0351691 0
M  V30 2574 C 247.01 -3.45631 0.272007 0
M  V30 2575 C 246.071 -4.07704 1.34447 0
M  V30 2576 C 245.304 -5.27175 0.832029 0
M  V30 2577 O 245.527 -5.69425 -0.333284 0
M  V30 2578 O 244.461 -5.80168 1.60277 0
M  V30 2579 H 248.287 -2.49701 1.72867 0
M  V30 2580 H 245.872 -1.18977 0.903597 0
M  V30 2581 H 247.754 -4.21394 -0.0230219 0
M  V30 2582 H 246.429 -3.17723 -0.619164 0
M  V30 2583 H 245.336 -3.33614 1.6927 0
M  V30 2584 H 246.669 -4.3982 2.2095 0
M  V30 2585 N 248.321 -0.919034 -1.28029 0
M  V30 2586 C 249.732 -0.600735 -1.76771 0
M  V30 2587 C 250.083 0.884024 -1.75156 0
M  V30 2588 O 249.208 1.69163 -1.34956 0
M  V30 2589 C 249.803 -1.08372 -3.21 0
M  V30 2590 C 248.362 -0.816248 -3.67443 0
M  V30 2591 C 247.509 -1.24742 -2.47658 0
M  V30 2592 H 250.46 -1.09974 -1.14418 0
M  V30 2593 H 250.481 -0.427512 -3.78091 0
M  V30 2594 H 249.993 -2.16437 -3.22144 0
M  V30 2595 H 248.094 0.250968 -3.71754 0
M  V30 2596 H 248.207 -1.4277 -4.57333 0
M  V30 2597 H 246.571 -0.666083 -2.45836 0
M  V30 2598 H 247.354 -2.33653 -2.51518 0
M  V30 2599 N 249.799 1.42003 -0.683588 0
M  V30 2600 C 250.709 2.34597 -0.0109075 0
M  V30 2601 C 251.725 1.55576 0.779245 0
M  V30 2602 O 252.901 1.88107 0.719555 0
M  V30 2603 C 249.966 3.34199 0.922588 0
M  V30 2604 C 249.027 4.29115 0.125984 0
M  V30 2605 C 248.26 5.23959 1.01502 0
M  V30 2606 O 248.483 5.23952 2.25456 0
M  V30 2607 O 247.417 6.00053 0.47111 0
M  V30 2608 H 251.243 2.93675 -0.773853 0
M  V30 2609 H 248.828 1.42654 -0.443861 0
M  V30 2610 H 250.71 3.95365 1.45823 0
M  V30 2611 H 249.385 2.77582 1.66523 0
M  V30 2612 H 248.292 3.71335 -0.453969 0
M  V30 2613 H 249.625 4.88798 -0.577736 0
M  V30 2614 N 251.277 0.427512 1.51691 0
M  V30 2615 C 252.505 -0.141191 2.06418 0
M  V30 2616 C 252.92 -1.37303 1.29589 0
M  V30 2617 O 252.277 -1.79059 0.352732 0
M  V30 2618 C 252.328 -0.473266 3.58389 0
M  V30 2619 O 252.049 0.709673 4.32314 0
M  V30 2620 C 253.55 -1.09371 4.29596 0
M  V30 2621 H 250.77 -0.0122747 0.670888 0
M  V30 2622 H 253.314 0.603764 1.95384 0
M  V30 2623 H 251.469 -1.16812 3.69369 0
M  V30 2624 H 251.883 0.42807 5.2275 0
M  V30 2625 H 253.357 -1.27613 5.37046 0
M  V30 2626 H 253.834 -2.072 3.87253 0
M  V30 2627 H 254.44 -0.43853 4.23033 0
M  V30 2628 N 252.755 -1.56801 0.158532 0
M  V30 2629 C 253.687 -2.14488 -0.807923 0
M  V30 2630 C 254.7 -1.09721 -1.20271 0
M  V30 2631 O 255.889 -1.36956 -1.14478 0
M  V30 2632 C 252.989 -2.66217 -2.09718 0
M  V30 2633 C 252.162 -3.95507 -1.86796 0
M  V30 2634 C 251.221 -4.3243 -2.99818 0
M  V30 2635 O 250.247 -5.00543 -2.71008 0
M  V30 2636 N 251.449 -3.92947 -4.27285 0
M  V30 2637 H 254.214 -2.98042 -0.314816 0
M  V30 2638 H 251.775 -1.61881 -0.0246692 0
M  V30 2639 H 253.767 -2.87924 -2.84398 0
M  V30 2640 H 252.337 -1.87324 -2.50257 0
M  V30 2641 H 251.557 -3.82309 -0.96089 0
M  V30 2642 H 252.845 -4.79972 -1.68833 0
M  V30 2643 H 252.243 -3.38087 -4.53557 0
M  V30 2644 H 250.8 -4.19681 -4.9871 0
M  V30 2645 N 254.233 0.115231 -1.57178 0
M  V30 2646 C 255.51 0.852873 -1.76027 0
M  V30 2647 C 255.89 1.97892 -0.73498 0
M  V30 2648 O 255.238 2.27232 0.24036 0
M  V30 2649 C 255.448 1.36608 -3.21153 0
M  V30 2650 C 256.796 1.81692 -3.83762 0
M  V30 2651 O 257.82 1.46278 -3.24779 0
M  V30 2652 O 256.679 2.47104 -4.87444 0
M  V30 2653 H 253.773 0.405296 -0.720877 0
M  V30 2654 H 256.319 0.0986785 -1.69413 0
M  V30 2655 H 255.091 0.558357 -3.87296 0
M  V30 2656 H 254.714 2.18287 -3.3232 0
M  V30 2657 N 255.711 1.52812 0.385517 0
M  V30 2658 C 256.939 1.71907 1.15133 0
M  V30 2659 C 257.354 0.439004 1.83625 0
M  V30 2660 O 256.711 -0.586765 1.7281 0
M  V30 2661 C 256.762 2.87099 2.19673 0
M  V30 2662 O 256.483 4.10151 1.53973 0
M  V30 2663 C 257.984 3.17902 3.08955 0
M  V30 2664 H 255.204 0.575479 0.345057 0
M  V30 2665 H 257.748 1.99476 0.45052 0
M  V30 2666 H 255.903 2.61982 2.85384 0
M  V30 2667 H 256.317 4.74514 2.23465 0
M  V30 2668 H 257.791 4.01959 3.7833 0
M  V30 2669 H 258.268 2.3243 3.72657 0
M  V30 2670 H 258.874 3.44871 2.48885 0
M  V30 2671 N 257.189 -0.644168 1.43834 0
M  V30 2672 C 258.417 -1.43147 1.49387 0
M  V30 2673 C 258.832 -1.88452 0.114583 0
M  V30 2674 O 258.189 -1.60047 -0.876989 0
M  V30 2675 C 258.24 -2.66046 2.44748 0
M  V30 2676 O 257.961 -2.22633 3.77314 0
M  V30 2677 C 259.462 -3.59311 2.59635 0
M  V30 2678 H 256.682 -0.439447 0.507077 0
M  V30 2679 H 259.226 -0.78895 1.88669 0
M  V30 2680 H 257.381 -3.26418 2.08638 0
M  V30 2681 H 257.795 -3.02216 4.28679 0
M  V30 2682 H 259.269 -4.42187 3.30416 0
M  V30 2683 H 259.746 -4.07259 1.64427 0
M  V30 2684 H 260.352 -3.04816 2.96593 0
M  V30 2685 N 258.668 -1.30515 -0.883378 0
M  V30 2686 C 259.898 -1.22182 -1.66599 0
M  V30 2687 C 260.306 0.217507 -1.87946 0
M  V30 2688 O 259.649 1.1554 -1.42815 0
M  V30 2689 C 259.711 -1.88146 -3.06335 0
M  V30 2690 C 259.375 -3.37476 -3.08154 0
M  V30 2691 C 260.372 -4.33443 -2.87094 0
M  V30 2692 C 258.057 -3.7895 -3.29701 0
M  V30 2693 C 260.051 -5.68858 -2.8754 0
M  V30 2694 C 257.738 -5.14482 -3.29776 0
M  V30 2695 C 258.736 -6.09246 -3.0872 0
M  V30 2696 O 258.424 -7.42302 -3.08615 0
M  V30 2697 H 258.156 -0.423898 -0.52658 0
M  V30 2698 H 260.71 -1.72703 -1.11188 0
M  V30 2699 H 258.94 -1.32157 -3.63416 0
M  V30 2700 H 260.629 -1.7391 -3.66756 0
M  V30 2701 H 261.395 -4.02733 -2.70243 0
M  V30 2702 H 257.274 -3.05631 -3.45124 0
M  V30 2703 H 260.818 -6.428 -2.71024 0
M  V30 2704 H 256.715 -5.44832 -3.46163 0
M  V30 2705 H 257.483 -7.5131 -3.24769 0
M  V30 2706 N 260.146 1.09593 -1.13257 0
M  V30 2707 C 261.076 2.18214 -0.830946 0
M  V30 2708 C 262.057 1.68812 0.208966 0
M  V30 2709 O 263.242 1.9408 0.0682666 0
M  V30 2710 C 260.372 3.46051 -0.294296 0
M  V30 2711 C 259.326 4.08778 -1.26826 0
M  V30 2712 C 258.652 5.31419 -0.591449 0
M  V30 2713 C 259.952 4.51476 -2.62615 0
M  V30 2714 H 261.646 2.43703 -1.73923 0
M  V30 2715 H 259.192 1.17128 -0.837675 0
M  V30 2716 H 261.145 4.2134 -0.0709606 0
M  V30 2717 H 259.869 3.20079 0.649366 0
M  V30 2718 H 258.528 3.35505 -1.47756 0
M  V30 2719 H 258.176 5.01727 0.357633 0
M  V30 2720 H 257.876 5.74341 -1.24123 0
M  V30 2721 H 259.4 6.09433 -0.377355 0
M  V30 2722 H 260.814 5.17999 -2.45663 0
M  V30 2723 H 259.211 5.05277 -3.23752 0
M  V30 2724 H 260.281 3.63962 -3.20406 0
M  V30 2725 N 261.624 0.925811 1.2754 0
M  V30 2726 C 262.87 0.575575 1.95086 0
M  V30 2727 C 263.225 -0.873246 1.71441 0
M  V30 2728 O 262.518 -1.61443 1.03183 0
M  V30 2729 C 262.712 0.835296 3.47502 0
M  V30 2730 C 262.541 2.30781 3.85967 0
M  V30 2731 C 261.311 2.96017 4.09514 0
M  V30 2732 C 263.509 3.28519 3.95702 0
M  V30 2733 N 261.491 4.3344 4.34744 0
M  V30 2734 C 262.862 4.51146 4.25285 0
M  V30 2735 C 264.917 3.23753 3.7827 0
M  V30 2736 C 263.62 5.69606 4.39251 0
M  V30 2737 C 265.646 4.41523 3.9346 0
M  V30 2738 C 265.008 5.62928 4.23428 0
M  V30 2739 H 261.107 0.260711 0.737261 0
M  V30 2740 H 263.691 1.19204 1.53943 0
M  V30 2741 H 261.862 0.248005 3.87607 0
M  V30 2742 H 263.594 0.447878 4.02214 0
M  V30 2743 H 260.349 2.46695 4.04275 0
M  V30 2744 H 260.773 5.04528 4.5142 0
M  V30 2745 H 265.415 2.3096 3.54143 0
M  V30 2746 H 263.133 6.62866 4.62205 0
M  V30 2747 H 266.719 4.39351 3.81394 0
M  V30 2748 H 265.599 6.52538 4.34929 0
M  V30 2749 N 263.102 -1.41638 0.69111 0
M  V30 2750 C 264.348 -2.02104 0.229258 0
M  V30 2751 C 264.703 -1.53741 -1.15678 0
M  V30 2752 O 263.996 -0.736849 -1.76865 0
M  V30 2753 C 264.19 -3.56714 0.221277 0
M  V30 2754 C 264.019 -4.20083 1.605 0
M  V30 2755 C 262.789 -4.54566 2.20676 0
M  V30 2756 C 264.987 -4.46587 2.55078 0
M  V30 2757 N 262.969 -5.03199 3.5166 0
M  V30 2758 C 264.34 -4.96946 3.70735 0
M  V30 2759 C 266.395 -4.28593 2.53401 0
M  V30 2760 C 265.098 -5.31203 4.8499 0
M  V30 2761 C 267.124 -4.63936 3.66765 0
M  V30 2762 C 266.486 -5.14463 4.81152 0
M  V30 2763 H 262.585 -0.771256 0.12918 0
M  V30 2764 H 265.169 -1.72251 0.907626 0
M  V30 2765 H 263.34 -3.86051 -0.426562 0
M  V30 2766 H 265.072 -4.03896 -0.254983 0
M  V30 2767 H 261.827 -4.4087 1.73005 0
M  V30 2768 H 262.251 -5.31926 4.18789 0
M  V30 2769 H 266.893 -3.88771 1.66184 0
M  V30 2770 H 264.611 -5.69951 5.72871 0
M  V30 2771 H 268.197 -4.51677 3.66714 0
M  V30 2772 H 267.077 -5.41299 5.67419 0
M  V30 2773 N 264.58 -0.43555 -1.51462 0
M  V30 2774 C 265.829 0.133007 -2.01261 0
M  V30 2775 C 266.142 1.43942 -1.32439 0
M  V30 2776 O 267.348 2.09081 -1.73198 0
M  V30 2777 C 265.804 0.287581 -3.58749 0
M  V30 2778 C 265.412 -1.00829 -4.36506 0
M  V30 2779 C 267.156 0.810004 -4.167 0
M  V30 2780 C 265.063 -0.819454 -5.85695 0
M  V30 2781 H 263.993 0.0534822 -0.752101 0
M  V30 2782 H 266.644 -0.565038 -1.74584 0
M  V30 2783 H 265.026 1.04859 -3.81865 0
M  V30 2784 H 266.2 -1.77749 -4.25138 0
M  V30 2785 H 264.515 -1.45911 -3.89999 0
M  V30 2786 H 267.112 0.967743 -5.2587 0
M  V30 2787 H 267.455 1.79196 -3.75758 0
M  V30 2788 H 267.988 0.107357 -3.97655 0
M  V30 2789 H 264.727 -1.77374 -6.31046 0
M  V30 2790 H 264.247 -0.0900208 -5.99732 0
M  V30 2791 H 265.926 -0.471949 -6.45276 0
M  V30 2792 N 266.058 1.56714 -0.166846 0
M  V30 2793 C 267.006 2.19056 0.782123 0
M  V30 2794 C 268 1.15328 1.24079 0
M  V30 2795 O 269.206 1.33537 1.20697 0
M  V30 2796 H 265.581 0.70167 0.270486 0
M  V30 2797 H 267.552 2.97494 0.232322 0
M  V30 2798 C 266.301 2.84206 2.00306 0
M  V30 2799 H 265.624 3.63748 1.65914 0
M  V30 2800 H 267.064 3.31302 2.64604 0
M  V30 2801 C 265.523 1.83744 2.82382 0
M  V30 2802 O 266.053 1.32014 3.79388 0
M  V30 2803 N 264.259 1.52601 2.47308 0
M  V30 2804 H 263.806 1.9486 1.68485 0
M  V30 2805 H 263.764 0.856351 3.02513 0
M  V30 2806 N 267.536 -0.106894 1.57237 0
M  V30 2807 C 268.484 -1.14944 2.02215 0
M  V30 2808 C 269.478 -1.42167 0.92114 0
M  V30 2809 O 270.684 -1.41987 1.10634 0
M  V30 2810 H 267.059 -0.387841 0.64427 0
M  V30 2811 H 269.03 -0.743683 2.88984 0
M  V30 2812 C 267.779 -2.4647 2.4525 0
M  V30 2813 H 267.102 -2.26363 3.29545 0
M  V30 2814 H 268.542 -3.17948 2.80508 0
M  V30 2815 C 267.001 -3.09921 1.321 0
M  V30 2816 O 267.531 -3.9651 0.643622 0
M  V30 2817 N 265.737 -2.69986 1.07497 0
M  V30 2818 H 265.284 -1.99667 1.62761 0
M  V30 2819 H 265.242 -3.12769 0.319876 0
M  V30 2820 N 269.014 -1.53014 -0.377408 0
M  V30 2821 C 269.946 -1.74884 -1.48149 0
M  V30 2822 C 270.959 -0.629433 -1.5014 0
M  V30 2823 O 272.148 -0.905416 -1.53833 0
M  V30 2824 C 269.248 -1.80299 -2.86959 0
M  V30 2825 C 268.421 -3.09776 -3.08801 0
M  V30 2826 C 267.48 -3.06586 -4.27658 0
M  V30 2827 O 266.506 -3.80419 -4.23403 0
M  V30 2828 N 267.708 -2.26578 -5.34455 0
M  V30 2829 H 270.473 -2.70147 -1.29771 0
M  V30 2830 H 268.034 -1.51646 -0.56703 0
M  V30 2831 H 270.026 -1.75657 -3.64591 0
M  V30 2832 H 268.596 -0.92372 -2.98641 0
M  V30 2833 H 267.816 -3.27815 -2.18931 0
M  V30 2834 H 269.104 -3.95366 -3.20255 0
M  V30 2835 H 268.502 -1.66081 -5.40771 0
M  V30 2836 H 267.059 -2.27766 -6.10709 0
M  V30 2837 N 270.492 0.636531 -1.44174 0
M  V30 2838 C 271.717 1.42847 -1.50364 0
M  V30 2839 C 272.142 1.87665 -0.127867 0
M  V30 2840 O 271.5 1.58408 0.88185 0
M  V30 2841 C 271.548 2.62854 -2.4686 0
M  V30 2842 O 270.652 3.62501 -1.9664 0
M  V30 2843 H 269.993 0.427642 -0.507955 0
M  V30 2844 H 272.523 0.777422 -1.89255 0
M  V30 2845 H 272.533 3.10465 -2.64718 0
M  V30 2846 H 271.208 2.29578 -3.46795 0
M  V30 2847 H 269.785 3.21735 -1.88523 0
M  V30 2848 N 271.97 1.30982 0.876444 0
M  V30 2849 C 272.9 1.20668 1.99903 0
M  V30 2850 C 273.881 0.095354 1.69833 0
M  V30 2851 O 275.066 0.27885 1.92188 0
M  V30 2852 C 272.196 0.90655 3.3526 0
M  V30 2853 C 271.15 1.97675 3.79617 0
M  V30 2854 C 270.476 1.52943 5.1236 0
M  V30 2855 C 271.776 3.389 3.97422 0
M  V30 2856 H 273.47 2.14586 2.0879 0
M  V30 2857 H 271.016 1.03308 1.00317 0
M  V30 2858 H 272.969 0.821025 4.13324 0
M  V30 2859 H 271.693 -0.0682969 3.26529 0
M  V30 2860 H 270.352 2.05205 3.03787 0
M  V30 2861 H 270 0.54262 5.00065 0
M  V30 2862 H 269.7 2.24532 5.43009 0
M  V30 2863 H 271.224 1.45786 5.92941 0
M  V30 2864 H 272.638 3.34081 4.659 0
M  V30 2865 H 271.035 4.0865 4.3946 0
M  V30 2866 H 272.105 3.80163 3.01006 0
M  V30 2867 N 273.449 -1.08991 1.13837 0
M  V30 2868 C 274.86 -1.62746 0.914917 0
M  V30 2869 C 275.211 -1.88403 -0.547594 0
M  V30 2870 O 274.336 -1.63706 -1.41525 0
M  V30 2871 C 274.931 -2.95662 1.65437 0
M  V30 2872 C 273.49 -3.46225 1.47666 0
M  V30 2873 C 272.637 -2.20562 1.6807 0
M  V30 2874 H 275.588 -0.922946 1.29102 0
M  V30 2875 H 275.609 -3.63825 1.11407 0
M  V30 2876 H 275.121 -2.76956 2.71877 0
M  V30 2877 H 273.222 -3.70046 0.435478 0
M  V30 2878 H 273.335 -4.23368 2.24268 0
M  V30 2879 H 271.699 -2.29439 1.10589 0
M  V30 2880 H 272.482 -2.0437 2.7584 0
M  V30 2881 N 274.927 -0.932562 -1.27047 0
M  V30 2882 C 276.173 -0.576412 -1.94436 0
M  V30 2883 C 276.506 0.880891 -1.73072 0
M  V30 2884 O 275.781 1.62905 -1.06264 0
M  V30 2885 C 276.064 -0.909031 -3.48437 0
M  V30 2886 C 275.917 -2.42044 -3.79123 0
M  V30 2887 C 277.236 -0.418341 -4.38107 0
M  V30 2888 H 274.355 -0.210888 -0.706184 0
M  V30 2889 H 276.997 -1.16522 -1.50075 0
M  V30 2890 H 275.147 -0.407947 -3.86352 0
M  V30 2891 H 276.819 -2.99359 -3.50973 0
M  V30 2892 H 275.062 -2.86758 -3.25503 0
M  V30 2893 H 275.733 -2.6037 -4.86736 0
M  V30 2894 H 278.209 -0.847856 -4.0737 0
M  V30 2895 H 277.085 -0.679981 -5.44672 0
M  V30 2896 H 277.346 0.681642 -4.36814 0
M  V30 2897 N 276.405 1.4127 -0.698611 0
M  V30 2898 C 277.63 2.06024 -0.238512 0
M  V30 2899 C 278.055 1.5224 1.10475 0
M  V30 2900 O 277.413 0.650623 1.69223 0
M  V30 2901 C 277.461 3.59988 -0.209952 0
M  V30 2902 O 276.565 4.04282 0.814235 0
M  V30 2903 H 275.906 0.653829 -0.115775 0
M  V30 2904 H 278.436 1.8098 -0.954326 0
M  V30 2905 H 278.446 4.07979 -0.0418436 0
M  V30 2906 H 277.121 3.98503 -1.1903 0
M  V30 2907 H 275.698 3.6779 0.615234 0
M  V30 2908 N 277.883 0.443576 1.51229 0
M  V30 2909 C 279.294 -0.0180867 1.86691 0
M  V30 2910 C 279.645 -1.41384 1.36033 0
M  V30 2911 O 278.77 -2.04291 0.713722 0
M  V30 2912 C 279.365 -0.039597 3.38777 0
M  V30 2913 C 277.924 -0.445692 3.73752 0
M  V30 2914 C 277.071 0.357584 2.74985 0
M  V30 2915 H 280.022 0.659138 1.44364 0
M  V30 2916 H 280.043 -0.847761 3.70936 0
M  V30 2917 H 279.555 0.976382 3.75617 0
M  V30 2918 H 277.656 -1.46704 3.42503 0
M  V30 2919 H 277.769 -0.166155 4.78812 0
M  V30 2920 H 276.133 -0.184973 2.54027 0
M  V30 2921 H 276.916 1.37256 3.14668 0
M  V30 2922 N 279.361 -1.56624 0.175154 0
M  V30 2923 C 280.777 -1.58571 -0.180966 0
M  V30 2924 C 280.977 -1.19065 -1.6256 0
M  V30 2925 O 280.033 -0.904044 -2.35761 0
M  V30 2926 C 281.346 -3.00522 0.103326 0
M  V30 2927 C 282.894 -3.12972 0.0418426 0
M  V30 2928 C 283.369 -4.57022 0.299175 0
M  V30 2929 N 284.86 -4.62541 0.247086 0
M  V30 2930 C 285.595 -5.71857 0.420318 0
M  V30 2931 N 285.091 -6.89717 0.652816 0
M  V30 2932 N 286.884 -5.60972 0.355957 0
M  V30 2933 H 279.035 -1.80589 1.11809 0
M  V30 2934 H 281.298 -0.837178 0.444788 0
M  V30 2935 H 281.004 -3.33916 1.10422 0
M  V30 2936 H 280.878 -3.72344 -0.603299 0
M  V30 2937 H 283.265 -2.79403 -0.949636 0
M  V30 2938 H 283.346 -2.43578 0.781238 0
M  V30 2939 H 282.99 -4.913 1.28788 0
M  V30 2940 H 282.92 -5.24579 -0.460876 0
M  V30 2941 H 285.411 -3.77829 0.0731895 0
M  V30 2942 H 285.724 -7.68911 0.774347 0
M  V30 2943 H 284.069 -6.91572 0.689476 0
M  V30 2944 H 287.26 -4.67773 0.174882 0
M  V30 2945 H 287.433 -6.46111 0.494388 0
M  V30 2946 N 280.839 0.0985539 -1.57292 0
M  V30 2947 C 281.769 1.12064 -2.04851 0
M  V30 2948 C 282.75 1.41981 -0.936767 0
M  V30 2949 O 283.935 1.52071 -1.20781 0
M  V30 2950 C 281.065 2.44144 -2.47004 0
M  V30 2951 C 280.019 2.28643 -3.6181 0
M  V30 2952 C 279.345 3.65869 -3.89929 0
M  V30 2953 C 280.645 1.72986 -4.92822 0
M  V30 2954 H 282.339 0.724979 -2.9049 0
M  V30 2955 H 279.885 0.34729 -1.39749 0
M  V30 2956 H 281.838 3.15914 -2.78884 0
M  V30 2957 H 280.562 2.85639 -1.5836 0
M  V30 2958 H 279.221 1.59318 -3.30172 0
M  V30 2959 H 278.869 4.04885 -2.98458 0
M  V30 2960 H 278.569 3.56344 -4.67218 0
M  V30 2961 H 280.093 4.39112 -4.2428 0
M  V30 2962 H 281.507 2.34593 -5.23105 0
M  V30 2963 H 279.904 1.74229 -5.74251 0
M  V30 2964 H 280.974 0.689007 -4.7998 0
M  V30 2965 N 282.317 1.53212 0.369288 0
M  V30 2966 C 283.249 1.75668 1.47219 0
M  V30 2967 C 284.262 0.637387 1.49804 0
M  V30 2968 O 285.451 0.913561 1.5335 0
M  V30 2969 C 282.551 1.81818 2.85999 0
M  V30 2970 C 281.724 3.11409 3.07153 0
M  V30 2971 C 280.783 3.08849 4.26026 0
M  V30 2972 O 279.809 3.82659 4.2138 0
M  V30 2973 N 281.011 2.29409 5.33246 0
M  V30 2974 H 283.776 2.70832 1.28337 0
M  V30 2975 H 281.337 1.51944 0.55898 0
M  V30 2976 H 283.329 1.77588 3.63655 0
M  V30 2977 H 281.899 0.939544 2.98146 0
M  V30 2978 H 281.119 3.28971 2.1719 0
M  V30 2979 H 282.407 3.97059 3.18154 0
M  V30 2980 H 281.805 1.68946 5.39883 0
M  V30 2981 H 280.362 2.31001 6.09493 0
M  V30 2982 N 283.795 -0.628877 1.44509 0
M  V30 2983 C 284.725 -1.75187 1.54376 0
M  V30 2984 C 285.706 -1.65411 0.396618 0
M  V30 2985 O 286.891 -1.84137 0.617031 0
M  V30 2986 C 284.021 -3.13725 1.48976 0
M  V30 2987 C 282.975 -3.38291 2.62189 0
M  V30 2988 C 282.301 -4.76883 2.41841 0
M  V30 2989 C 283.601 -3.30632 4.04326 0
M  V30 2990 H 285.295 -1.67187 2.48373 0
M  V30 2991 H 282.841 -0.802909 1.19538 0
M  V30 2992 H 284.794 -3.92064 1.54478 0
M  V30 2993 H 283.518 -3.22515 0.514961 0
M  V30 2994 H 282.177 -2.62334 2.56079 0
M  V30 2995 H 281.825 -4.82378 1.42548 0
M  V30 2996 H 281.525 -4.94278 3.17747 0
M  V30 2997 H 283.049 -5.57449 2.49165 0
M  V30 2998 H 284.463 -3.98873 4.11793 0
M  V30 2999 H 282.86 -3.59561 4.80454 0
M  V30 3000 H 283.93 -2.28404 4.27738 0
M  V30 3001 N 285.273 -1.31445 -0.869486 0
M  V30 3002 C 286.498 -1.24256 -1.66058 0
M  V30 3003 C 286.923 0.188928 -1.87149 0
M  V30 3004 O 286.281 1.13522 -1.4136 0
M  V30 3005 C 286.329 -1.9924 -3.00559 0
M  V30 3006 O 285.433 -1.33007 -3.90362 0
M  V30 3007 H 284.774 -0.428973 -0.506831 0
M  V30 3008 H 287.304 -1.73521 -1.08404 0
M  V30 3009 H 287.314 -2.08854 -3.50491 0
M  V30 3010 H 285.989 -3.03342 -2.84528 0
M  V30 3011 H 284.566 -1.31848 -3.48813 0
M  V30 3012 N 286.751 1.08385 -1.14413 0
M  V30 3013 C 287.699 2.17406 -0.826888 0
M  V30 3014 C 288.693 1.6827 0.195312 0
M  V30 3015 O 289.899 1.79927 0.0513892 0
M  V30 3016 H 286.274 0.70934 -0.249681 0
M  V30 3017 H 288.245 2.41388 -1.75426 0
M  V30 3018 C 286.994 3.46215 -0.320979 0
M  V30 3019 H 286.317 3.84401 -1.0989 0
M  V30 3020 H 287.757 4.23777 -0.137549 0
M  V30 3021 C 286.216 3.23067 0.955472 0
M  V30 3022 O 286.746 3.4668 2.02918 0
M  V30 3023 N 284.952 2.7661 0.890798 0
M  V30 3024 H 284.499 2.57594 0.0168815 0
M  V30 3025 H 284.457 2.61501 1.74542 0
M  V30 3026 N 288.23 0.939286 1.26551 0
M  V30 3027 C 289.478 0.58469 1.93457 0
M  V30 3028 C 289.799 -0.878774 1.74076 0
M  V30 3029 O 289.069 -1.62421 1.09528 0
M  V30 3030 H 287.649 0.21325 0.715914 0
M  V30 3031 H 290.311 1.1942 1.54029 0
M  V30 3032 H 289.407 0.800849 3.0165 0
M  V30 3033 N 289.708 -1.40897 0.706093 0
M  V30 3034 C 290.656 -2.32572 0.0361893 0
M  V30 3035 C 291.65 -1.51532 -0.757266 0
M  V30 3036 O 292.856 -1.67396 -0.661703 0
M  V30 3037 H 289.231 -0.751966 -0.00709935 0
M  V30 3038 H 291.202 -2.86733 0.826249 0
M  V30 3039 C 289.951 -3.36418 -0.87854 0
M  V30 3040 H 289.274 -3.98836 -0.277401 0
M  V30 3041 H 290.714 -4.0308 -1.3154 0
M  V30 3042 C 289.173 -2.71141 -1.99961 0
M  V30 3043 O 289.703 -2.56735 -3.0895 0
M  V30 3044 N 287.909 -2.29671 -1.78043 0
M  V30 3045 H 287.456 -2.41588 -0.894042 0
M  V30 3046 H 287.414 -1.86332 -2.53235 0
M  V30 3047 N 291.186 -0.45159 -1.50991 0
M  V30 3048 C 292.602 -0.104647 -1.59257 0
M  V30 3049 C 292.802 1.38728 -1.4614 0
M  V30 3050 O 291.858 2.15866 -1.30989 0
M  V30 3051 C 293.171 -0.637468 -2.93865 0
M  V30 3052 C 294.719 -0.599166 -3.07212 0
M  V30 3053 C 295.194 -1.1092 -4.44366 0
M  V30 3054 N 296.685 -1.06778 -4.50725 0
M  V30 3055 C 297.42 -1.43314 -5.55201 0
M  V30 3056 N 296.916 -1.87204 -6.67028 0
M  V30 3057 N 298.709 -1.3504 -5.45638 0
M  V30 3058 H 290.86 -1.42214 -1.57762 0
M  V30 3059 H 293.123 -0.586921 -0.744465 0
M  V30 3060 H 292.829 -1.68187 -3.08879 0
M  V30 3061 H 292.703 -0.0702139 -3.77135 0
M  V30 3062 H 295.09 0.436277 -2.91857 0
M  V30 3063 H 295.171 -1.20299 -2.25747 0
M  V30 3064 H 294.815 -2.14318 -4.60467 0
M  V30 3065 H 294.745 -0.481773 -5.24392 0
M  V30 3066 H 297.236 -0.745643 -3.70471 0
M  V30 3067 H 297.549 -2.13282 -7.42786 0
M  V30 3068 H 295.894 -1.91142 -6.68199 0
M  V30 3069 H 299.085 -1.00607 -4.57161 0
M  V30 3070 H 299.258 -1.63841 -6.26945 0
M  V30 3071 N 292.664 1.56529 -0.183458 0
M  V30 3072 C 293.892 2.01623 0.464285 0
M  V30 3073 C 294.307 1.06366 1.55986 0
M  V30 3074 O 293.664 0.0665398 1.82379 0
M  V30 3075 C 293.715 3.46475 1.03139 0
M  V30 3076 O 293.436 4.38095 -0.0204675 0
M  V30 3077 C 294.937 4.0703 1.75617 0
M  V30 3078 H 292.157 0.660596 0.117704 0
M  V30 3079 H 294.701 2.02451 -0.288751 0
M  V30 3080 H 292.856 3.46383 1.73486 0
M  V30 3081 H 293.27 5.22973 0.399952 0
M  V30 3082 H 294.744 5.10271 2.10542 0
M  V30 3083 H 295.221 3.49819 2.65563 0
M  V30 3084 H 295.827 4.1086 1.09882 0
M  V30 3085 N 294.142 -0.090211 1.57342 0
M  V30 3086 C 295.072 -1.10976 2.05443 0
M  V30 3087 C 296.053 -1.41482 0.944284 0
M  V30 3088 O 297.238 -1.51428 1.21586 0
M  V30 3089 C 294.368 -2.42831 2.48295 0
M  V30 3090 C 293.322 -2.26721 3.63018 0
M  V30 3091 C 292.648 -3.63796 3.91863 0
M  V30 3092 C 293.948 -1.7037 4.93732 0
M  V30 3093 H 295.642 -0.709564 2.9087 0
M  V30 3094 H 293.188 -0.339874 1.39932 0
M  V30 3095 H 295.141 -3.14431 2.80555 0
M  V30 3096 H 293.865 -2.84795 1.59873 0
M  V30 3097 H 292.524 -1.57565 3.31012 0
M  V30 3098 H 292.172 -4.03297 3.00601 0
M  V30 3099 H 291.872 -3.53861 4.69101 0
M  V30 3100 H 293.396 -4.36855 4.26603 0
M  V30 3101 H 294.81 -2.31816 5.24342 0
M  V30 3102 H 293.207 -1.71181 5.75167 0
M  V30 3103 H 294.277 -0.663542 4.80339 0
M  V30 3104 N 295.62 -1.53406 -0.361157 0
M  V30 3105 C 296.848 -1.73717 -1.12383 0
M  V30 3106 C 297.263 -0.468161 -1.82904 0
M  V30 3107 O 296.62 0.559198 -1.73722 0
M  V30 3108 C 296.671 -2.90558 -2.15078 0
M  V30 3109 O 296.392 -4.12549 -1.47428 0
M  V30 3110 C 297.893 -3.22777 -3.03858 0
M  V30 3111 H 295.113 -0.580896 -0.335858 0
M  V30 3112 H 297.657 -2.00167 -0.418728 0
M  V30 3113 H 295.812 -2.66489 -2.8118 0
M  V30 3114 H 296.226 -4.78009 -2.15887 0
M  V30 3115 H 297.7 -4.07927 -3.71887 0
M  V30 3116 H 298.177 -2.38329 -3.68912 0
M  V30 3117 H 298.783 -3.48787 -2.43367 0
M  V30 3118 N 297.098 0.621204 -1.44841 0
M  V30 3119 C 298.028 1.74366 -1.55303 0
M  V30 3120 C 299.009 1.65199 -0.405385 0
M  V30 3121 O 300.194 1.83807 -0.626787 0
M  V30 3122 C 297.324 3.12931 -1.50637 0
M  V30 3123 C 296.278 3.36896 -2.63979 0
M  V30 3124 C 295.604 4.75594 -2.44366 0
M  V30 3125 C 296.904 3.28483 -4.06074 0
M  V30 3126 H 298.598 1.65867 -2.49256 0
M  V30 3127 H 296.144 0.796558 -1.19962 0
M  V30 3128 H 298.097 3.9124 -1.56555 0
M  V30 3129 H 296.821 3.22237 -0.532057 0
M  V30 3130 H 295.48 2.60972 -2.57467 0
M  V30 3131 H 295.128 4.81616 -1.45105 0
M  V30 3132 H 294.828 4.92586 -3.20364 0
M  V30 3133 H 296.352 5.5612 -2.52117 0
M  V30 3134 H 297.766 3.96684 -4.13902 0
M  V30 3135 H 296.163 3.57008 -4.82354 0
M  V30 3136 H 297.233 2.26133 -4.28943 0
M  V30 3137 N 298.576 1.31904 0.862503 0
M  V30 3138 C 299.506 1.22782 1.98612 0
M  V30 3139 C 300.487 0.113362 1.69722 0
M  V30 3140 O 301.672 0.299218 1.91881 0
M  V30 3141 C 298.802 0.942058 3.34279 0
M  V30 3142 C 297.756 2.0169 3.77499 0
M  V30 3143 C 297.082 1.58369 5.10709 0
M  V30 3144 C 298.382 3.43096 3.93805 0
M  V30 3145 H 300.076 2.16788 2.06502 0
M  V30 3146 H 297.622 1.04366 0.992154 0
M  V30 3147 H 299.575 0.864818 4.1243 0
M  V30 3148 H 298.299 -0.0336603 3.26583 0
M  V30 3149 H 296.958 2.08416 3.01593 0
M  V30 3150 H 296.606 0.595628 4.99461 0
M  V30 3151 H 296.306 2.30279 5.40597 0
M  V30 3152 H 297.83 1.52067 5.91361 0
M  V30 3153 H 299.244 3.39003 4.62331 0
M  V30 3154 H 297.641 4.13288 4.35101 0
M  V30 3155 H 298.711 3.83334 2.96957 0
M  V30 3156 N 300.054 -1.07777 1.14986 0
M  V30 3157 C 301.279 -1.84558 0.946213 0
M  V30 3158 C 301.704 -1.81323 -0.500362 0
M  V30 3159 O 301.062 -1.20301 -1.35637 0
M  V30 3160 C 301.11 -3.29736 1.45968 0
M  V30 3161 O 300.214 -4.07149 0.65601 0
M  V30 3162 H 299.555 -0.571641 0.33782 0
M  V30 3163 H 302.085 -1.35991 1.52865 0
M  V30 3164 H 302.095 -3.80574 1.47063 0
M  V30 3165 H 300.77 -3.31406 2.51283 0
M  V30 3166 H 299.347 -3.65994 0.714322 0
M  V30 3167 N 301.532 -0.945985 -1.26051 0
M  V30 3168 C 302.778 -0.597002 -1.93814 0
M  V30 3169 C 303.111 0.862484 -1.73997 0
M  V30 3170 O 302.386 1.61769 -1.07986 0
M  V30 3171 C 302.669 -0.945937 -3.47454 0
M  V30 3172 C 302.522 -2.46052 -3.76535 0
M  V30 3173 C 303.841 -0.464785 -4.37639 0
M  V30 3174 H 300.96 -0.218366 -0.703907 0
M  V30 3175 H 303.602 -1.18107 -1.48831 0
M  V30 3176 H 301.752 -0.448902 -3.85898 0
M  V30 3177 H 303.424 -3.03065 -3.47778 0
M  V30 3178 H 301.667 -2.90194 -3.22444 0
M  V30 3179 H 302.338 -2.65517 -4.83947 0
M  V30 3180 H 304.814 -0.891016 -4.06448 0
M  V30 3181 H 303.69 -0.737712 -5.4392 0
M  V30 3182 H 303.951 0.635274 -4.37512 0
M  V30 3183 N 303.011 1.40521 -0.713556 0
M  V30 3184 C 304.239 2.05237 -0.261775 0
M  V30 3185 C 304.654 1.53755 1.09567 0
M  V30 3186 O 304.011 0.693268 1.6882 0
M  V30 3187 C 304.062 3.60763 -0.230706 0
M  V30 3188 O 303.783 4.10345 -1.53455 0
M  V30 3189 C 305.284 4.42651 0.239874 0
M  V30 3190 H 302.504 0.660533 -0.118057 0
M  V30 3191 H 305.048 1.79967 -0.971192 0
M  V30 3192 H 303.203 3.8501 0.429661 0
M  V30 3193 H 303.617 5.04526 -1.43366 0
M  V30 3194 H 305.091 5.51599 0.210468 0
M  V30 3195 H 305.568 4.20082 1.28171 0
M  V30 3196 H 306.174 4.23507 -0.390142 0
M  V30 3197 N 304.489 0.459591 1.5075 0
M  V30 3198 C 305.905 0.113092 1.59199 0
M  V30 3199 C 306.105 -1.37951 1.46874 0
M  V30 3200 O 305.161 -2.15168 1.32132 0
M  V30 3201 C 306.474 0.653043 2.93523 0
M  V30 3202 C 308.022 0.615449 3.0689 0
M  V30 3203 C 308.497 1.13275 4.43771 0
M  V30 3204 N 309.988 1.09167 4.50152 0
M  V30 3205 C 310.723 1.46256 5.54434 0
M  V30 3206 N 310.219 1.90739 6.66026 0
M  V30 3207 N 312.012 1.37932 5.44914 0
M  V30 3208 H 304.163 1.43049 1.57005 0
M  V30 3209 H 306.426 0.590861 0.741341 0
M  V30 3210 H 306.132 1.69822 3.07983 0
M  V30 3211 H 306.006 0.0902132 3.77092 0
M  V30 3212 H 308.393 -0.420793 2.92084 0
M  V30 3213 H 308.474 1.21495 2.25106 0
M  V30 3214 H 308.118 2.16757 4.59324 0
M  V30 3215 H 308.048 0.509576 5.24129 0
M  V30 3216 H 310.539 0.76528 3.7007 0
M  V30 3217 H 310.852 2.17218 7.41644 0
M  V30 3218 H 309.197 1.94683 6.67176 0
M  V30 3219 H 312.388 1.0303 4.56621 0
M  V30 3220 H 312.561 1.67164 6.26067 0
M  V30 3221 N 305.967 -1.56429 0.191757 0
M  V30 3222 C 306.915 -2.20273 -0.747174 0
M  V30 3223 C 307.909 -1.17288 -1.22229 0
M  V30 3224 O 309.115 -1.35441 -1.18557 0
M  V30 3225 H 305.49 -0.705885 -0.259289 0
M  V30 3226 H 307.461 -2.97826 -0.184963 0
M  V30 3227 C 306.21 -2.87356 -1.95759 0
M  V30 3228 H 305.533 -3.66341 -1.60106 0
M  V30 3229 H 306.973 -3.3547 -2.59299 0
M  V30 3230 C 305.432 -1.88213 -2.79423 0
M  V30 3231 O 305.962 -1.38033 -3.7724 0
M  V30 3232 N 304.168 -1.56516 -2.44849 0
M  V30 3233 H 303.715 -1.97516 -1.65364 0
M  V30 3234 H 303.673 -0.904369 -3.01112 0
M  V30 3235 N 307.445 0.0818655 -1.57387 0
M  V30 3236 C 308.722 0.815343 -1.77796 0
M  V30 3237 C 309.102 1.96289 -0.77679 0
M  V30 3238 O 308.45 2.27691 0.192106 0
M  V30 3239 C 308.66 1.29765 -3.23978 0
M  V30 3240 C 310.008 1.7351 -3.8753 0
M  V30 3241 O 311.032 1.39356 -3.27808 0
M  V30 3242 O 309.891 2.36708 -4.92576 0
M  V30 3243 H 306.985 0.389914 -0.729312 0
M  V30 3244 H 309.531 0.0627213 -1.69584 0
M  V30 3245 H 308.303 0.47608 -3.88393 0
M  V30 3246 H 307.926 2.11189 -3.36875 0
M  V30 3247 N 308.923 1.53595 0.353017 0
M  V30 3248 C 310.151 1.74311 1.1146 0
M  V30 3249 C 310.566 0.477854 1.82653 0
M  V30 3250 O 309.923 -0.549977 1.74016 0
M  V30 3251 C 309.974 2.91694 2.13534 0
M  V30 3252 O 309.695 4.13325 1.45238 0
M  V30 3253 C 311.196 3.24384 3.02142 0
M  V30 3254 H 308.416 0.582669 0.332773 0
M  V30 3255 H 310.96 2.00386 0.408107 0
M  V30 3256 H 309.115 2.67977 2.79763 0
M  V30 3257 H 309.529 4.79148 2.13349 0
M  V30 3258 H 311.003 4.09893 3.69718 0
M  V30 3259 H 311.48 2.40282 3.67643 0
M  V30 3260 H 312.086 3.50073 2.41514 0
M  V30 3261 N 310.401 -0.613514 1.45168 0
M  V30 3262 C 311.649 -1.36997 1.48581 0
M  V30 3263 C 311.97 -1.94589 0.126545 0
M  V30 3264 O 311.24 -1.76816 -0.843372 0
M  V30 3265 H 309.82 -0.508558 0.547154 0
M  V30 3266 H 312.482 -0.720853 1.81079 0
M  V30 3267 H 311.578 -2.1924 2.22127 0
M  V30 3268 N 311.879 -1.3236 -0.855495 0
M  V30 3269 C 313.29 -1.2056 -1.42556 0
M  V30 3270 C 313.641 0.182209 -1.95352 0
M  V30 3271 O 312.766 1.08088 -1.87472 0
M  V30 3272 C 313.361 -2.1826 -2.59129 0
M  V30 3273 C 311.92 -2.10351 -3.12137 0
M  V30 3274 C 311.067 -2.06674 -1.84882 0
M  V30 3275 H 314.018 -1.442 -0.662727 0
M  V30 3276 H 314.039 -1.78064 -3.36264 0
M  V30 3277 H 313.551 -3.19257 -2.20673 0
M  V30 3278 H 311.652 -1.12599 -3.55179 0
M  V30 3279 H 311.765 -3.00135 -3.73438 0
M  V30 3280 H 310.129 -1.51901 -2.04446 0
M  V30 3281 H 310.912 -3.09451 -1.48643 0
M  V30 3282 N 313.357 1.07166 -1.15556 0
M  V30 3283 C 314.587 1.83248 -0.954133 0
M  V30 3284 C 314.995 1.82449 0.500911 0
M  V30 3285 O 314.338 1.23575 1.35923 0
M  V30 3286 C 314.4 3.31393 -1.39351 0
M  V30 3287 C 314.064 3.5591 -2.86666 0
M  V30 3288 C 315.061 3.49695 -3.8472 0
M  V30 3289 C 312.746 3.83515 -3.24379 0
M  V30 3290 C 314.74 3.70737 -5.18491 0
M  V30 3291 C 312.427 4.04209 -4.58321 0
M  V30 3292 C 313.425 3.97815 -5.55186 0
M  V30 3293 O 313.113 4.17954 -6.86709 0
M  V30 3294 H 312.845 0.584941 -0.338851 0
M  V30 3295 H 315.399 1.36169 -1.53777 0
M  V30 3296 H 313.629 3.79292 -0.75329 0
M  V30 3297 H 315.318 3.88945 -1.16089 0
M  V30 3298 H 316.084 3.28368 -3.56931 0
M  V30 3299 H 311.963 3.87605 -2.49567 0
M  V30 3300 H 315.507 3.65663 -5.94085 0
M  V30 3301 H 311.404 4.25023 -4.85825 0
M  V30 3302 H 312.172 4.35291 -6.93155 0
M  V30 3303 N 314.835 0.952656 1.25548 0
M  V30 3304 C 315.745 0.47782 2.29682 0
M  V30 3305 C 316.761 -0.453859 1.67977 0
M  V30 3306 O 317.937 -0.330587 1.98668 0
M  V30 3307 C 315.002 -0.238655 3.45878 0
M  V30 3308 C 314.063 0.730994 4.23031 0
M  V30 3309 C 313.296 0.0486165 5.33678 0
M  V30 3310 O 313.519 -1.16612 5.58353 0
M  V30 3311 O 312.453 0.733152 5.97418 0
M  V30 3312 H 316.279 1.34312 2.72386 0
M  V30 3313 H 313.864 0.719026 1.30959 0
M  V30 3314 H 315.746 -0.641774 4.16484 0
M  V30 3315 H 314.421 -1.07916 3.05181 0
M  V30 3316 H 313.328 1.18428 3.5486 0
M  V30 3317 H 314.661 1.53946 4.67506 0
M  V30 3318 N 316.313 -1.40141 0.720998 0
M  V30 3319 C 317.553 -2.02644 0.267335 0
M  V30 3320 C 317.917 -1.55948 -1.12001 0
M  V30 3321 O 319.118 -2.10552 -1.67097 0
M  V30 3322 C 317.389 -3.55679 0.350281 0
M  V30 3323 S 318.948 -4.38793 -0.0256004 0
M  V30 3324 H 315.766 -0.703105 0.105664 0
M  V30 3325 H 318.368 -1.71175 0.944416 0
M  V30 3326 H 317.072 -3.87157 1.36153 0
M  V30 3327 H 316.603 -3.91883 -0.345096 0
M  V30 3328 H 318.618 -4.803 -1.24604 0
M  V30 3329 N 317.792 -0.46758 -1.50504 0
M  V30 3330 C 318.702 0.33382 -2.32213 0
M  V30 3331 C 319.718 0.999323 -1.42441 0
M  V30 3332 O 320.894 0.988068 -1.75497 0
M  V30 3333 C 317.959 1.4035 -3.17022 0
M  V30 3334 C 317.02 0.754961 -4.2261 0
M  V30 3335 C 316.253 1.77367 -5.03365 0
M  V30 3336 O 316.476 2.99976 -4.8515 0
M  V30 3337 O 315.41 1.34744 -5.86624 0
M  V30 3338 H 319.236 -0.334067 -3.01857 0
M  V30 3339 H 316.821 -0.229496 -1.47627 0
M  V30 3340 H 318.703 2.02318 -3.69656 0
M  V30 3341 H 317.378 2.05492 -2.5011 0
M  V30 3342 H 316.285 0.0964244 -3.73976 0
M  V30 3343 H 317.618 0.146545 -4.91982 0
M  V30 3344 N 319.27 1.56325 -0.20005 0
M  V30 3345 C 320.519 1.96895 0.437652 0
M  V30 3346 C 320.832 1.08999 1.62415 0
M  V30 3347 O 322.038 1.39372 2.32997 0
M  V30 3348 C 320.494 3.50198 0.830025 0
M  V30 3349 C 320.102 4.46765 -0.332461 0
M  V30 3350 C 321.846 3.99526 1.43453 0
M  V30 3351 C 319.753 5.91344 0.0811468 0
M  V30 3352 H 318.683 0.735209 0.167282 0
M  V30 3353 H 321.334 1.81148 -0.292853 0
M  V30 3354 H 319.716 3.61467 1.61734 0
M  V30 3355 H 320.89 4.47231 -1.11 0
M  V30 3356 H 319.205 4.07657 -0.848789 0
M  V30 3357 H 321.802 5.05025 1.75652 0
M  V30 3358 H 322.145 3.44122 2.34277 0
M  V30 3359 H 322.678 3.91393 0.71109 0
M  V30 3360 H 319.417 6.50685 -0.793033 0
M  V30 3361 H 318.937 5.94121 0.823445 0
M  V30 3362 H 320.616 6.44945 0.515252 0
M  V30 3363 N 320.748 -0.0735177 1.57428 0
M  V30 3364 C 321.68 -1.11423 2.00294 0
M  V30 3365 C 322.693 -1.35084 0.908637 0
M  V30 3366 O 323.882 -1.33355 1.18654 0
M  V30 3367 C 320.982 -2.46548 2.32523 0
M  V30 3368 C 320.155 -2.42867 3.63778 0
M  V30 3369 C 319.214 -3.60087 3.83697 0
M  V30 3370 O 318.24 -3.41595 4.55304 0
M  V30 3371 N 319.442 -4.80372 3.25919 0
M  V30 3372 H 322.207 -0.749206 2.90184 0
M  V30 3373 H 319.768 -0.262195 1.59763 0
M  V30 3374 H 321.76 -3.23607 2.43024 0
M  V30 3375 H 320.33 -2.75059 1.48531 0
M  V30 3376 H 319.55 -1.51206 3.64047 0
M  V30 3377 H 320.838 -2.37506 4.49965 0
M  V30 3378 H 320.236 -4.983 2.67795 0
M  V30 3379 H 318.793 -5.54948 3.41871 0
M  V30 3380 N 322.226 -1.5378 -0.344866 0
M  V30 3381 C 323.174 -1.82373 -1.4437 0
M  V30 3382 C 324.168 -0.694128 -1.54526 0
M  V30 3383 O 325.374 -0.877442 -1.57165 0
M  V30 3384 H 321.749 -0.577765 -0.481344 0
M  V30 3385 H 323.72 -2.74306 -1.17468 0
M  V30 3386 C 322.469 -2.04898 -2.80913 0
M  V30 3387 H 321.792 -2.9127 -2.73865 0
M  V30 3388 H 323.232 -2.28871 -3.56923 0
M  V30 3389 C 321.691 -0.834116 -3.26411 0
M  V30 3390 O 322.221 -0.0328885 -4.01687 0
M  V30 3391 N 320.427 -0.65171 -2.83198 0
M  V30 3392 H 319.974 -1.30489 -2.22104 0
M  V30 3393 H 319.932 0.159686 -3.13994 0
M  V30 3394 N 323.704 0.605807 -1.45491 0
M  V30 3395 C 325.115 1.18777 -1.44045 0
M  V30 3396 C 325.466 1.95471 -0.169001 0
M  V30 3397 O 324.591 2.0374 0.729324 0
M  V30 3398 C 325.186 2.16064 -2.60963 0
M  V30 3399 C 323.745 2.69633 -2.62631 0
M  V30 3400 C 322.892 1.45072 -2.36325 0
M  V30 3401 H 325.843 0.395017 -1.53705 0
M  V30 3402 H 325.864 2.9913 -2.35163 0
M  V30 3403 H 325.376 1.60217 -3.53486 0
M  V30 3404 H 323.477 3.29414 -1.74119 0
M  V30 3405 H 323.59 3.13944 -3.61906 0
M  V30 3406 H 321.954 1.74089 -1.85917 0
M  V30 3407 H 322.737 0.910899 -3.30995 0
M  V30 3408 N 325.182 1.32811 0.848464 0
M  V30 3409 C 326.428 1.23907 1.60546 0
M  V30 3410 C 326.761 -0.197161 1.93197 0
M  V30 3411 O 326.036 -1.13596 1.5788 0
M  V30 3412 C 326.319 2.10489 2.92175 0
M  V30 3413 C 326.172 3.62522 2.66266 0
M  V30 3414 C 327.491 1.97075 3.93509 0
M  V30 3415 H 324.61 0.451459 0.58254 0
M  V30 3416 H 327.252 1.62818 0.979296 0
M  V30 3417 H 325.402 1.77434 3.45614 0
M  V30 3418 H 327.074 4.05821 2.19334 0
M  V30 3419 H 325.317 3.84879 2.00126 0
M  V30 3420 H 325.988 4.18437 3.6002 0
M  V30 3421 H 328.464 2.26045 3.49346 0
M  V30 3422 H 327.34 2.59923 4.83457 0
M  V30 3423 H 327.601 0.940186 4.31987 0
M  V30 3424 N 326.66 -1.06551 1.16123 0
M  V30 3425 C 327.885 -1.83544 0.965735 0
M  V30 3426 C 328.31 -1.81843 -0.481102 0
M  V30 3427 O 327.668 -1.21732 -1.34354 0
M  V30 3428 C 327.716 -3.28169 1.49457 0
M  V30 3429 O 326.82 -4.0643 0.699157 0
M  V30 3430 H 326.161 -0.568026 0.343864 0
M  V30 3431 H 328.691 -1.34362 1.54299 0
M  V30 3432 H 328.701 -3.78992 1.51092 0
M  V30 3433 H 327.376 -3.28722 2.54784 0
M  V30 3434 H 325.953 -3.65216 0.7531 0
M  V30 3435 N 328.138 -0.959301 -1.25041 0
M  V30 3436 C 329.101 -0.487677 -2.23952 0
M  V30 3437 C 330.101 0.41119 -1.55454 0
M  V30 3438 O 331.291 0.207825 -1.72956 0
M  V30 3439 C 328.423 0.294807 -3.39623 0
M  V30 3440 H 329.616 -1.36198 -2.67189 0
M  V30 3441 H 327.169 -0.743042 -1.37508 0
M  V30 3442 H 327.904 1.18658 -3.01813 0
M  V30 3443 H 327.689 -0.35012 -3.90534 0
M  V30 3444 H 329.179 0.614089 -4.1306 0
M  V30 3445 N 329.616 1.39756 -0.72842 0
M  V30 3446 C 330.564 2.32485 -0.0731849 0
M  V30 3447 C 331.558 1.52717 0.733063 0
M  V30 3448 O 332.764 1.68428 0.634988 0
M  V30 3449 H 329.139 0.751984 -0.00486469 0
M  V30 3450 H 331.11 2.85382 -0.871761 0
M  V30 3451 C 329.859 3.37773 0.824908 0
M  V30 3452 H 329.182 3.99227 0.213915 0
M  V30 3453 H 330.622 4.05121 1.25111 0
M  V30 3454 C 329.081 2.74287 1.95622 0
M  V30 3455 O 329.611 2.61618 3.04826 0
M  V30 3456 N 327.817 2.32475 1.74367 0
M  V30 3457 H 327.364 2.4298 0.855494 0
M  V30 3458 H 327.322 1.90337 2.50238 0
M  V30 3459 N 331.094 0.475555 1.50254 0
M  V30 3460 C 332.51 0.12997 1.5907 0
M  V30 3461 C 332.71 -1.36385 1.48328 0
M  V30 3462 O 331.766 -2.13754 1.34407 0
M  V30 3463 C 333.079 0.684139 2.92814 0
M  V30 3464 C 334.627 0.647965 3.0622 0
M  V30 3465 C 335.102 1.17975 4.42545 0
M  V30 3466 N 336.593 1.13936 4.48969 0
M  V30 3467 C 337.328 1.52129 5.52851 0
M  V30 3468 N 336.824 1.97793 6.63965 0
M  V30 3469 N 338.617 1.43704 5.4342 0
M  V30 3470 H 330.768 1.44706 1.55479 0
M  V30 3471 H 333.031 0.598691 0.735033 0
M  V30 3472 H 332.737 1.73079 3.06164 0
M  V30 3473 H 332.611 0.130204 3.76975 0
M  V30 3474 H 334.998 -0.38979 2.92514 0
M  V30 3475 H 335.079 1.23876 2.23805 0
M  V30 3476 H 334.723 2.21616 4.57 0
M  V30 3477 H 334.653 0.565138 5.23559 0
M  V30 3478 H 337.144 0.804488 3.69238 0
M  V30 3479 H 337.457 2.25072 7.39299 0
M  V30 3480 H 335.802 2.01749 6.65073 0
M  V30 3481 H 338.993 1.07867 4.55502 0
M  V30 3482 H 339.166 1.73794 6.24259 0
M  V30 3483 N 332.573 -1.56217 0.208337 0
M  V30 3484 C 333.798 -2.02782 -0.435222 0
M  V30 3485 C 334.223 -1.08738 -1.53485 0
M  V30 3486 O 333.581 -0.0731855 -1.81152 0
M  V30 3487 C 333.629 -3.47687 -0.956335 0
M  V30 3488 O 332.733 -3.56773 -2.06849 0
M  V30 3489 H 332.074 -0.656403 -0.100158 0
M  V30 3490 H 334.604 -2.02033 0.3231 0
M  V30 3491 H 334.614 -3.87745 -1.26955 0
M  V30 3492 H 333.289 -4.15624 -0.15143 0
M  V30 3493 H 331.866 -3.28597 -1.76292 0
M  V30 3494 N 334.051 0.0651679 -1.57465 0
M  V30 3495 C 335.328 0.79644 -1.78651 0
M  V30 3496 C 335.708 1.95454 -0.797566 0
M  V30 3497 O 335.056 2.27882 0.167946 0
M  V30 3498 C 335.266 1.26322 -3.25337 0
M  V30 3499 C 336.614 1.6939 -3.89348 0
M  V30 3500 O 337.638 1.35872 -3.29268 0
M  V30 3501 O 336.497 2.31471 -4.95059 0
M  V30 3502 H 333.591 0.382157 -0.733407 0
M  V30 3503 H 336.137 0.0447311 -1.69641 0
M  V30 3504 H 334.909 0.434859 -3.88876 0
M  V30 3505 H 334.532 2.07604 -3.39096 0
M  V30 3506 N 335.529 1.53961 0.336706 0
M  V30 3507 C 336.94 1.62914 0.911925 0
M  V30 3508 C 337.291 0.514795 1.89326 0
M  V30 3509 O 336.416 -0.354395 2.13478 0
M  V30 3510 C 337.011 2.95304 1.66076 0
M  V30 3511 C 335.57 3.06496 2.18489 0
M  V30 3512 C 334.717 2.58403 1.00613 0
M  V30 3513 H 337.668 1.58285 0.114649 0
M  V30 3514 H 337.689 2.84727 2.5241 0
M  V30 3515 H 337.201 3.76387 0.946276 0
M  V30 3516 H 335.302 2.3006 2.93092 0
M  V30 3517 H 335.415 4.1208 2.44391 0
M  V30 3518 H 333.779 2.13977 1.38152 0
M  V30 3519 H 334.562 3.41932 0.306179 0
M  V30 3520 N 337.007 -0.598083 1.45811 0
M  V30 3521 C 338.253 -1.35882 1.50545 0
M  V30 3522 C 338.586 -1.93616 0.150445 0
M  V30 3523 O 337.861 -1.75604 -0.83628 0
M  V30 3524 C 338.144 -2.49966 2.59208 0
M  V30 3525 C 337.997 -1.97367 4.04186 0
M  V30 3526 C 339.316 -3.52068 2.64076 0
M  V30 3527 H 336.435 -0.492717 0.548087 0
M  V30 3528 H 339.077 -0.673319 1.77669 0
M  V30 3529 H 337.227 -3.08443 2.3621 0
M  V30 3530 H 338.899 -1.43466 4.38423 0
M  V30 3531 H 337.142 -1.283 4.14393 0
M  V30 3532 H 337.813 -2.79649 4.75921 0
M  V30 3533 H 340.289 -3.03448 2.84708 0
M  V30 3534 H 339.165 -4.2937 3.41954 0
M  V30 3535 H 339.426 -4.08304 1.69531 0
M  V30 3536 N 338.485 -1.33259 -0.841409 0
M  V30 3537 C 339.713 -1.27605 -1.62864 0
M  V30 3538 C 340.128 0.153507 -1.88175 0
M  V30 3539 O 339.485 1.09485 -1.46011 0
M  V30 3540 C 339.536 -2.04596 -2.98031 0
M  V30 3541 O 339.257 -3.41975 -2.73834 0
M  V30 3542 C 340.758 -2.06122 -3.92465 0
M  V30 3543 H 337.978 -0.439718 -0.506842 0
M  V30 3544 H 340.522 -1.75591 -1.04824 0
M  V30 3545 H 338.677 -1.60299 -3.5268 0
M  V30 3546 H 339.091 -3.81549 -3.59889 0
M  V30 3547 H 340.565 -2.64451 -4.84531 0
M  V30 3548 H 341.042 -1.05083 -4.26444 0
M  V30 3549 H 341.648 -2.50427 -3.43753 0
M  V30 3550 N 339.963 1.05934 -1.16686 0
M  V30 3551 C 340.893 2.1546 -0.899949 0
M  V30 3552 C 341.874 1.69391 0.155154 0
M  V30 3553 O 343.059 1.94199 0.00648693 0
M  V30 3554 C 340.189 3.44939 -0.404241 0
M  V30 3555 C 339.143 4.04536 -1.39767 0
M  V30 3556 C 338.469 5.29268 -0.760216 0
M  V30 3557 C 339.769 4.42893 -2.76845 0
M  V30 3558 H 341.463 2.38046 -1.81588 0
M  V30 3559 H 339.009 1.14404 -0.874514 0
M  V30 3560 H 340.962 4.20901 -0.204971 0
M  V30 3561 H 339.686 3.21983 0.547206 0
M  V30 3562 H 338.345 3.30635 -1.58355 0
M  V30 3563 H 337.993 5.02611 0.197831 0
M  V30 3564 H 337.693 5.70101 -1.42332 0
M  V30 3565 H 339.217 6.07924 -0.57105 0
M  V30 3566 H 340.631 5.09921 -2.62019 0
M  V30 3567 H 339.028 4.94721 -3.39663 0
M  V30 3568 H 340.098 3.53584 -3.31823 0
M  V30 3569 N 341.441 0.965919 1.2453 0
M  V30 3570 C 342.389 0.486506 2.27455 0
M  V30 3571 C 343.383 -0.449041 1.6334 0
M  V30 3572 O 344.589 -0.324527 1.7705 0
M  V30 3573 H 340.964 0.138857 0.739069 0
M  V30 3574 H 342.935 1.3666 2.65267 0
M  V30 3575 C 341.684 -0.209481 3.47068 0
M  V30 3576 H 341.007 0.50129 3.96645 0
M  V30 3577 H 342.447 -0.508775 4.20936 0
M  V30 3578 C 340.906 -1.43586 3.0477 0
M  V30 3579 O 341.436 -2.53299 3.11773 0
M  V30 3580 N 339.642 -1.30126 2.59838 0
M  V30 3581 H 339.189 -0.408583 2.54339 0
M  V30 3582 H 339.147 -2.12294 2.31902 0
M  V30 3583 N 342.919 -1.39368 0.735821 0
M  V30 3584 C 344.165 -2.00794 0.284544 0
M  V30 3585 C 344.498 -1.58255 -1.12557 0
M  V30 3586 O 343.773 -0.811819 -1.76748 0
M  V30 3587 C 344.056 -3.58011 0.387337 0
M  V30 3588 C 343.909 -4.10566 1.83728 0
M  V30 3589 C 345.228 -4.395 -0.22975 0
M  V30 3590 H 342.347 -0.729501 0.104866 0
M  V30 3591 H 344.989 -1.65564 0.93213 0
M  V30 3592 H 343.139 -3.88154 -0.164006 0
M  V30 3593 H 344.811 -3.91139 2.44556 0
M  V30 3594 H 343.054 -3.64095 2.35833 0
M  V30 3595 H 343.725 -5.19702 1.86047 0
M  V30 3596 H 346.201 -4.15406 0.240257 0
M  V30 3597 H 345.077 -5.48752 -0.127485 0
M  V30 3598 H 345.338 -4.22062 -1.3159 0
M  V30 3599 N 344.397 -0.483516 -1.5 0
M  V30 3600 C 345.625 0.0644831 -2.06799 0
M  V30 3601 C 346.04 1.32399 -1.34596 0
M  V30 3602 O 345.397 1.77626 -0.418946 0
M  V30 3603 C 345.448 0.339927 -3.59898 0
M  V30 3604 O 345.169 -0.869635 -4.29382 0
M  V30 3605 C 346.67 0.933515 -4.33359 0
M  V30 3606 H 343.89 -0.0126333 -0.670881 0
M  V30 3607 H 346.434 -0.675864 -1.93009 0
M  V30 3608 H 344.589 1.03022 -3.7345 0
M  V30 3609 H 345.003 -0.62179 -5.20801 0
M  V30 3610 H 346.477 1.07593 -5.41413 0
M  V30 3611 H 346.954 1.92685 -3.94676 0
M  V30 3612 H 347.56 0.281221 -4.24369 0
M  V30 3613 N 345.875 1.56104 -0.216619 0
M  V30 3614 C 347.105 2.02269 0.420802 0
M  V30 3615 C 347.513 1.09575 1.5424 0
M  V30 3616 O 346.856 0.0967308 1.83445 0
M  V30 3617 C 346.918 3.44784 1.01806 0
M  V30 3618 C 346.582 4.56988 0.0325154 0
M  V30 3619 C 347.579 5.14225 -0.766055 0
M  V30 3620 C 345.264 5.02228 -0.0848092 0
M  V30 3621 C 347.258 6.15169 -1.6687 0
M  V30 3622 C 344.945 6.03011 -0.990994 0
M  V30 3623 C 345.943 6.59357 -1.78149 0
M  V30 3624 O 345.631 7.58179 -2.67245 0
M  V30 3625 H 345.363 0.667353 0.107776 0
M  V30 3626 H 347.917 2.02747 -0.329034 0
M  V30 3627 H 346.147 3.41359 1.81689 0
M  V30 3628 H 347.836 3.74626 1.56237 0
M  V30 3629 H 348.602 4.80126 -0.685836 0
M  V30 3630 H 344.481 4.58054 0.520349 0
M  V30 3631 H 348.025 6.59076 -2.28615 0
M  V30 3632 H 343.922 6.36532 -1.07225 0
M  V30 3633 H 344.69 7.75682 -2.61265 0
M  V30 3634 N 347.353 -0.0568162 1.57498 0
M  V30 3635 C 348.601 -0.751617 1.87604 0
M  V30 3636 C 348.922 -1.77351 0.81066 0
M  V30 3637 O 348.192 -1.95254 -0.159018 0
M  V30 3638 H 346.772 -0.280583 0.692302 0
M  V30 3639 H 349.434 -0.0293483 1.94878 0
M  V30 3640 H 348.53 -1.25852 2.856 0
M  V30 3641 N 348.832 -1.54138 -0.328536 0
M  V30 3642 C 350.243 -1.63395 -0.903272 0
M  V30 3643 C 350.594 -0.524828 -1.8905 0
M  V30 3644 O 349.719 0.343068 -2.13663 0
M  V30 3645 C 350.314 -2.9618 -1.64507 0
M  V30 3646 C 348.873 -3.0765 -2.1686 0
M  V30 3647 C 348.02 -2.58933 -0.992416 0
M  V30 3648 H 350.971 -1.58344 -0.106253 0
M  V30 3649 H 350.992 -2.86061 -2.50897 0
M  V30 3650 H 350.504 -3.76884 -0.926302 0
M  V30 3651 H 348.605 -2.31611 -2.91868 0
M  V30 3652 H 348.718 -4.1337 -2.42202 0
M  V30 3653 H 347.082 -2.14706 -1.37016 0
M  V30 3654 H 347.865 -3.42089 -0.288041 0
M  V30 3655 N 350.31 0.590341 -1.46126 0
M  V30 3656 C 351.587 1.35029 -1.41515 0
M  V30 3657 C 351.967 2.10888 -0.0946472 0
M  V30 3658 O 351.315 2.08998 0.923693 0
M  V30 3659 C 351.525 2.28269 -2.63997 0
M  V30 3660 C 352.873 2.90338 -3.09821 0
M  V30 3661 O 353.897 2.38585 -2.64492 0
M  V30 3662 O 352.756 3.84321 -3.88535 0
M  V30 3663 H 349.85 0.606317 -0.562413 0
M  V30 3664 H 352.396 0.611994 -1.58281 0
M  V30 3665 H 351.168 1.71591 -3.51671 0
M  V30 3666 H 350.791 3.0945 -2.49652 0
M  V30 3667 N 351.788 1.33704 0.83433 0
M  V30 3668 C 353.016 1.28467 1.62185 0
M  V30 3669 C 353.431 -0.143526 1.88254 0
M  V30 3670 O 352.788 -1.08709 1.4659 0
M  V30 3671 C 352.839 2.06174 2.96942 0
M  V30 3672 O 352.56 3.43422 2.72016 0
M  V30 3673 C 354.061 2.08201 3.91366 0
M  V30 3674 H 351.281 0.4424 0.504503 0
M  V30 3675 H 353.825 1.76145 1.03891 0
M  V30 3676 H 351.98 1.62167 3.51825 0
M  V30 3677 H 352.394 3.83453 3.57861 0
M  V30 3678 H 353.868 2.67017 4.83121 0
M  V30 3679 H 354.345 1.07343 4.2588 0
M  V30 3680 H 354.951 2.52246 3.42421 0
M  V30 3681 N 353.266 -1.05314 1.17247 0
M  V30 3682 C 354.677 -1.59753 0.96623 0
M  V30 3683 C 355.028 -1.9005 -0.487378 0
M  V30 3684 O 354.153 -1.68126 -1.36245 0
M  V30 3685 C 354.748 -2.90249 1.74759 0
M  V30 3686 C 353.307 -3.41352 1.58606 0
M  V30 3687 C 352.454 -2.15103 1.75002 0
M  V30 3688 H 355.405 -0.881406 1.31973 0
M  V30 3689 H 355.426 -3.60097 1.22925 0
M  V30 3690 H 354.938 -2.68166 2.8055 0
M  V30 3691 H 353.039 -3.68474 0.552985 0
M  V30 3692 H 353.152 -4.16019 2.37624 0
M  V30 3693 H 351.516 -2.25804 1.17833 0
M  V30 3694 H 352.299 -1.95491 2.82202 0
M  V30 3695 N 354.744 -0.972509 -1.24016 0
M  V30 3696 C 355.972 -0.654803 -1.96265 0
M  V30 3697 C 356.387 0.776708 -1.72083 0
M  V30 3698 O 355.744 1.52171 -1.00748 0
M  V30 3699 C 355.795 -0.92592 -3.49441 0
M  V30 3700 O 355.516 -2.30116 -3.72798 0
M  V30 3701 C 357.017 -0.623068 -4.38899 0
M  V30 3702 H 354.237 -0.243907 -0.6251 0
M  V30 3703 H 356.781 -1.30175 -1.57717 0
M  V30 3704 H 354.936 -0.325108 -3.86033 0
M  V30 3705 H 355.35 -2.38483 -4.67147 0
M  V30 3706 H 356.824 -0.863189 -5.45209 0
M  V30 3707 H 357.301 0.442754 -4.36963 0
M  V30 3708 H 357.907 -1.204 -4.07902 0
M  V30 3709 N 356.222 1.38976 -0.743202 0
M  V30 3710 C 357.471 1.99581 -0.291592 0
M  V30 3711 C 357.784 1.59656 1.13001 0
M  V30 3712 O 358.99 2.13157 1.68156 0
M  V30 3713 C 357.446 3.56813 -0.470391 0
M  V30 3714 C 357.054 4.05695 -1.90041 0
M  V30 3715 C 358.798 4.24423 -0.0809709 0
M  V30 3716 C 356.705 5.5553 -2.02832 0
M  V30 3717 H 355.635 0.746615 -0.105272 0
M  V30 3718 H 358.286 1.58872 -0.918258 0
M  V30 3719 H 356.668 3.95359 0.225299 0
M  V30 3720 H 357.842 3.78464 -2.62872 0
M  V30 3721 H 356.157 3.50775 -2.24379 0
M  V30 3722 H 358.754 5.34474 -0.155445 0
M  V30 3723 H 359.097 4.04962 0.96497 0
M  V30 3724 H 359.63 3.9108 -0.728124 0
M  V30 3725 H 356.369 5.79881 -3.05643 0
M  V30 3726 H 355.889 5.84537 -1.34448 0
M  V30 3727 H 357.568 6.21069 -1.81335 0
M  V30 3728 N 357.7 0.491464 1.49741 0
M  V30 3729 C 358.925 -0.0557177 2.07325 0
M  V30 3730 C 359.35 -1.30925 1.35056 0
M  V30 3731 O 358.708 -1.76733 0.404365 0
M  V30 3732 C 358.756 -0.302074 3.59333 0
M  V30 3733 O 357.86 -1.37868 3.88672 0
M  V30 3734 H 357.201 0.0219956 0.663636 0
M  V30 3735 H 359.731 0.688352 1.92673 0
M  V30 3736 H 359.741 -0.536464 4.04458 0
M  V30 3737 H 358.416 0.61383 4.11345 0
M  V30 3738 H 356.993 -1.12999 3.55367 0
M  V30 3739 N 359.178 -1.55987 0.224894 0
M  V30 3740 C 360.589 -1.84553 -0.282345 0
M  V30 3741 C 360.94 -1.14634 -1.59227 0
M  V30 3742 O 360.065 -0.417155 -2.12341 0
M  V30 3743 C 360.66 -3.348 -0.519062 0
M  V30 3744 C 359.219 -3.63671 -0.970604 0
M  V30 3745 C 358.366 -2.77277 -0.0355261 0
M  V30 3746 H 361.317 -1.52245 0.448006 0
M  V30 3747 H 361.338 -3.55187 -1.36463 0
M  V30 3748 H 360.85 -3.8566 0.43449 0
M  V30 3749 H 358.951 -3.1827 -1.9374 0
M  V30 3750 H 359.064 -4.71631 -0.842698 0
M  V30 3751 H 357.428 -2.48846 -0.542927 0
M  V30 3752 H 358.211 -3.30937 0.913003 0
M  V30 3753 N 360.656 0.0484629 -1.57525 0
M  V30 3754 C 361.881 0.759177 -1.93006 0
M  V30 3755 C 362.306 1.69125 -0.823317 0
M  V30 3756 O 361.664 1.79931 0.222364 0
M  V30 3757 C 361.712 1.50899 -3.27509 0
M  V30 3758 O 360.816 2.62112 -3.18388 0
M  V30 3759 H 360.157 0.205564 -0.631379 0
M  V30 3760 H 362.687 0.00972959 -2.04598 0
M  V30 3761 H 362.697 1.88317 -3.6194 0
M  V30 3762 H 361.372 0.825269 -4.0763 0
M  V30 3763 H 359.949 2.27379 -2.95556 0
M  V30 3764 N 362.134 1.5431 0.320358 0
M  V30 3765 C 363.411 1.63322 1.07635 0
M  V30 3766 C 363.791 0.46912 2.05821 0
M  V30 3767 O 363.139 -0.536274 2.22118 0
M  V30 3768 C 363.349 3.00465 1.77544 0
M  V30 3769 C 364.697 3.56621 2.30449 0
M  V30 3770 O 365.721 3.02791 1.87606 0
M  V30 3771 O 364.58 4.5083 3.08892 0
M  V30 3772 H 361.674 0.661502 0.496331 0
M  V30 3773 H 364.22 1.66656 0.319992 0
M  V30 3774 H 362.992 3.76629 1.06143 0
M  V30 3775 H 362.615 3.00824 2.59982 0
M  V30 3776 N 363.613 -0.582584 1.46437 0
M  V30 3777 C 364.841 -1.36682 1.55324 0
M  V30 3778 C 365.256 -1.87796 0.194409 0
M  V30 3779 O 364.613 -1.63623 -0.808318 0
M  V30 3780 C 364.664 -2.55426 2.55812 0
M  V30 3781 O 364.385 -2.0643 3.86417 0
M  V30 3782 C 365.886 -3.47976 2.74641 0
M  V30 3783 H 363.106 -0.417545 0.525259 0
M  V30 3784 H 365.65 -0.708219 1.91845 0
M  V30 3785 H 363.805 -3.17275 2.22295 0
M  V30 3786 H 364.219 -2.83762 4.41111 0
M  V30 3787 H 365.693 -4.27775 3.48874 0
M  V30 3788 H 366.17 -3.99919 1.81553 0
M  V30 3789 H 366.776 -2.91962 3.09255 0
M  V30 3790 N 365.091 -1.34144 -0.827227 0
M  V30 3791 C 366.321 -1.29138 -1.61267 0
M  V30 3792 C 366.729 0.137597 -1.88699 0
M  V30 3793 O 366.072 1.09379 -1.47587 0
M  V30 3794 C 366.134 -2.0097 -2.9808 0
M  V30 3795 C 365.798 -3.50242 -2.93563 0
M  V30 3796 C 366.795 -4.4523 -2.68452 0
M  V30 3797 C 364.48 -3.92592 -3.13331 0
M  V30 3798 C 366.474 -5.80542 -2.63154 0
M  V30 3799 C 364.161 -5.28005 -3.07658 0
M  V30 3800 C 365.159 -6.21792 -2.82602 0
M  V30 3801 O 364.847 -7.54723 -2.76853 0
M  V30 3802 H 364.579 -0.445851 -0.508127 0
M  V30 3803 H 367.133 -1.77263 -1.03763 0
M  V30 3804 H 365.363 -1.47451 -3.57484 0
M  V30 3805 H 367.052 -1.89309 -3.5905 0
M  V30 3806 H 367.818 -4.13832 -2.52919 0
M  V30 3807 H 363.697 -3.19994 -3.31851 0
M  V30 3808 H 367.241 -6.53717 -2.43516 0
M  V30 3809 H 363.138 -5.59023 -3.22743 0
M  V30 3810 H 363.906 -7.64409 -2.92611 0
M  V30 3811 N 366.569 1.04691 -1.17803 0
M  V30 3812 C 367.799 1.81183 -0.992788 0
M  V30 3813 C 368.207 1.8347 0.462098 0
M  V30 3814 O 367.55 1.2643 1.33271 0
M  V30 3815 C 367.612 3.28363 -1.46349 0
M  V30 3816 C 367.276 3.49749 -2.94151 0
M  V30 3817 C 368.273 3.41456 -3.92051 0
M  V30 3818 C 365.958 3.76548 -3.32441 0
M  V30 3819 C 367.952 3.59656 -5.26238 0
M  V30 3820 C 365.639 3.94396 -4.66792 0
M  V30 3821 C 366.637 3.8595 -5.635 0
M  V30 3822 O 366.325 4.03294 -6.9542 0
M  V30 3823 H 366.057 0.577622 -0.351182 0
M  V30 3824 H 368.611 1.32876 -1.5663 0
M  V30 3825 H 366.841 3.77609 -0.833574 0
M  V30 3826 H 368.53 3.86395 -1.24313 0
M  V30 3827 H 369.296 3.20723 -3.63815 0
M  V30 3828 H 365.175 3.82224 -2.57732 0
M  V30 3829 H 368.719 3.52979 -6.01707 0
M  V30 3830 H 364.616 4.14622 -4.94731 0
M  V30 3831 H 365.384 4.2049 -7.02232 0
M  V30 3832 N 368.047 0.979072 1.23499 0
M  V30 3833 C 369.463 0.687475 1.44034 0
M  V30 3834 C 369.663 -0.746801 1.8715 0
M  V30 3835 O 368.719 -1.51939 2.0167 0
M  V30 3836 C 370.032 1.68127 2.49307 0
M  V30 3837 C 371.58 1.69516 2.63122 0
M  V30 3838 C 372.055 2.67723 3.71603 0
M  V30 3839 N 373.546 2.66233 3.79044 0
M  V30 3840 C 374.281 3.38891 4.62537 0
M  V30 3841 N 373.777 4.21103 5.50131 0
M  V30 3842 N 375.57 3.27661 4.56721 0
M  V30 3843 H 367.721 1.90559 0.938135 0
M  V30 3844 H 369.984 0.821051 0.473897 0
M  V30 3845 H 369.69 2.70693 2.2454 0
M  V30 3846 H 369.564 1.46306 3.4767 0
M  V30 3847 H 371.951 0.676561 2.8724 0
M  V30 3848 H 372.032 1.95404 1.65079 0
M  V30 3849 H 371.676 3.69724 3.48233 0
M  V30 3850 H 371.606 2.39111 4.69184 0
M  V30 3851 H 374.097 2.06568 3.16446 0
M  V30 3852 H 374.41 4.73403 6.10827 0
M  V30 3853 H 372.755 4.25195 5.49759 0
M  V30 3854 H 375.946 2.62887 3.87309 0
M  V30 3855 H 376.119 3.84547 5.21562 0
M  V30 3856 N 369.525 -1.3858 0.750561 0
M  V30 3857 C 370.936 -1.82927 0.373438 0
M  V30 3858 C 371.287 -1.62634 -1.09748 0
M  V30 3859 O 370.412 -1.12588 -1.84805 0
M  V30 3860 C 371.007 -3.32088 0.671029 0
M  V30 3861 C 369.566 -3.74795 0.34722 0
M  V30 3862 C 368.713 -2.61391 0.92575 0
M  V30 3863 H 371.664 -1.27351 0.946958 0
M  V30 3864 H 371.685 -3.80465 -0.0518269 0
M  V30 3865 H 371.197 -3.46826 1.74164 0
M  V30 3866 H 369.298 -3.65638 -0.716933 0
M  V30 3867 H 369.411 -4.71667 0.840656 0
M  V30 3868 H 367.775 -2.52265 0.351327 0
M  V30 3869 H 368.558 -2.78929 2.00133 0
M  V30 3870 N 371.003 -0.499398 -1.49478 0
M  V30 3871 C 372.251 0.0455996 -2.02049 0
M  V30 3872 C 372.572 1.37633 -1.38138 0
M  V30 3873 O 371.842 1.8842 -0.536166 0
M  V30 3874 H 370.422 0.0198416 -0.746736 0
M  V30 3875 H 373.084 -0.656274 -1.83519 0
M  V30 3876 H 372.18 0.176445 -3.11601 0
M  V30 3877 N 372.481 1.55866 -0.233164 0
M  V30 3878 C 373.444 2.1953 0.658715 0
M  V30 3879 C 374.444 1.16053 1.11303 0
M  V30 3880 O 375.634 1.41218 1.01996 0
M  V30 3881 C 372.766 2.82791 1.90373 0
M  V30 3882 H 373.959 2.99721 0.10347 0
M  V30 3883 H 371.512 1.56291 0.0164245 0
M  V30 3884 H 372.247 2.06501 2.50056 0
M  V30 3885 H 372.032 3.58578 1.58632 0
M  V30 3886 H 373.522 3.31556 2.53891 0
M  V30 3887 N 373.959 -0.0401083 1.57549 0
M  V30 3888 C 374.907 -1.06264 2.06908 0
M  V30 3889 C 375.901 -1.38132 0.980608 0
M  V30 3890 O 377.107 -1.37167 1.16556 0
M  V30 3891 H 373.482 -0.360166 0.660139 0
M  V30 3892 H 375.453 -0.620445 2.91878 0
M  V30 3893 C 374.202 -2.35846 2.55483 0
M  V30 3894 H 373.525 -2.12183 3.38849 0
M  V30 3895 H 374.965 -3.05765 2.93741 0
M  V30 3896 C 373.424 -3.0404 1.45126 0
M  V30 3897 O 373.954 -3.93424 0.811216 0
M  V30 3898 N 372.16 -2.65184 1.18852 0
M  V30 3899 H 371.707 -1.92584 1.71083 0
M  V30 3900 H 371.665 -3.1113 0.452244 0
M  V30 3901 N 375.437 -1.54477 -0.31217 0
M  V30 3902 C 376.367 -1.87652 -1.38957 0
M  V30 3903 C 377.348 -0.734358 -1.53431 0
M  V30 3904 O 378.533 -0.98911 -1.67123 0
M  V30 3905 C 375.663 -2.11396 -2.75552 0
M  V30 3906 C 374.617 -3.27243 -2.75855 0
M  V30 3907 C 373.943 -3.36382 -4.15633 0
M  V30 3908 C 375.243 -4.64622 -2.38587 0
M  V30 3909 H 376.937 -2.77887 -1.11442 0
M  V30 3910 H 374.483 -1.33707 -0.534655 0
M  V30 3911 H 376.436 -2.33189 -3.51 0
M  V30 3912 H 375.16 -1.17921 -3.04569 0
M  V30 3913 H 373.819 -3.05356 -2.02863 0
M  V30 3914 H 373.467 -2.40445 -4.41809 0
M  V30 3915 H 373.167 -4.14249 -4.1674 0
M  V30 3916 H 374.691 -3.60422 -4.92877 0
M  V30 3917 H 376.105 -4.86219 -3.03749 0
M  V30 3918 H 374.502 -5.45121 -2.50925 0
M  V30 3919 H 375.572 -4.66097 -1.33723 0
M  V30 3920 N 376.915 0.57481 -1.46744 0
M  V30 3921 C 378.14 1.36341 -1.56288 0
M  V30 3922 C 378.565 1.86954 -0.207347 0
M  V30 3923 O 377.923 1.62006 0.813871 0
M  V30 3924 C 377.971 2.52147 -2.57787 0
M  V30 3925 O 377.075 3.53834 -2.11838 0
M  V30 3926 H 376.416 0.405713 -0.525636 0
M  V30 3927 H 378.946 0.696453 -1.92382 0
M  V30 3928 H 378.956 2.98958 -2.77648 0
M  V30 3929 H 377.631 2.14663 -3.5622 0
M  V30 3930 H 376.208 3.1345 -2.01999 0
M  V30 3931 N 378.394 1.34581 0.820102 0
M  V30 3932 C 379.324 1.29038 1.94606 0
M  V30 3933 C 380.305 0.1673 1.69275 0
M  V30 3934 O 381.49 0.360112 1.90832 0
M  V30 3935 C 378.62 1.04793 3.31113 0
M  V30 3936 C 377.574 2.13597 3.70891 0
M  V30 3937 C 376.9 1.74537 5.05412 0
M  V30 3938 C 378.2 3.55451 3.8269 0
M  V30 3939 H 379.894 2.23248 1.99501 0
M  V30 3940 H 377.44 1.0747 0.958449 0
M  V30 3941 H 379.393 0.995592 4.0947 0
M  V30 3942 H 378.117 0.0702565 3.26524 0
M  V30 3943 H 376.776 2.17905 2.9481 0
M  V30 3944 H 376.424 0.754226 4.97313 0
M  V30 3945 H 376.124 2.47361 5.32997 0
M  V30 3946 H 377.648 1.70803 5.86224 0
M  V30 3947 H 379.062 3.5354 4.51312 0
M  V30 3948 H 377.459 4.26922 4.21732 0
M  V30 3949 H 378.529 3.92587 2.84611 0
M  V30 3950 N 379.872 -1.04064 1.18357 0
M  V30 3951 C 381.097 -1.81454 1.00445 0
M  V30 3952 C 381.522 -1.82823 -0.442423 0
M  V30 3953 O 380.88 -1.24555 -1.31741 0
M  V30 3954 C 380.928 -3.24925 1.56384 0
M  V30 3955 O 380.032 -4.04856 0.785209 0
M  V30 3956 H 379.373 -0.560604 0.355835 0
M  V30 3957 H 381.903 -1.31059 1.57114 0
M  V30 3958 H 381.913 -3.75702 1.59097 0
M  V30 3959 H 380.588 -3.23244 2.61699 0
M  V30 3960 H 379.165 -3.63537 0.830399 0
M  V30 3961 N 381.35 -0.985608 -1.22978 0
M  V30 3962 C 382.59 -0.665487 -1.93263 0
M  V30 3963 C 382.954 0.78706 -1.75127 0
M  V30 3964 O 384.155 1.21826 -2.39608 0
M  V30 3965 C 382.426 -1.0515 -3.41582 0
M  V30 3966 S 383.985 -0.848637 -4.30516 0
M  V30 3967 H 380.803 -0.24355 -0.667985 0
M  V30 3968 H 383.405 -1.26635 -1.48942 0
M  V30 3969 H 382.109 -2.10517 -3.52293 0
M  V30 3970 H 381.64 -0.442134 -3.90908 0
M  V30 3971 H 383.655 0.264717 -4.95493 0
M  V30 3972 N 382.828 1.3818 -0.7579 0
M  V30 3973 C 384.058 2.04004 -0.326463 0
M  V30 3974 C 384.466 1.57286 1.05156 0
M  V30 3975 O 383.809 0.743144 1.67997 0
M  V30 3976 C 383.871 3.58444 -0.275402 0
M  V30 3977 C 383.535 4.28237 -1.59569 0
M  V30 3978 C 384.532 4.53312 -2.54566 0
M  V30 3979 C 382.217 4.66341 -1.86631 0
M  V30 3980 C 384.211 5.15531 -3.74842 0
M  V30 3981 C 381.898 5.28283 -3.0718 0
M  V30 3982 C 382.896 5.52814 -4.01106 0
M  V30 3983 O 382.584 6.13465 -5.19534 0
M  V30 3984 H 382.316 0.662026 -0.136739 0
M  V30 3985 H 384.87 1.7777 -1.02893 0
M  V30 3986 H 383.1 3.83667 0.483337 0
M  V30 3987 H 384.789 4.05701 0.127099 0
M  V30 3988 H 385.555 4.24299 -2.34936 0
M  V30 3989 H 381.434 4.46591 -1.14358 0
M  V30 3990 H 384.978 5.34594 -4.48168 0
M  V30 3991 H 380.875 5.56719 -3.26702 0
M  V30 3992 H 381.643 6.31951 -5.20173 0
M  V30 3993 N 384.306 0.507319 1.49211 0
M  V30 3994 C 385.269 -0.256763 2.27757 0
M  V30 3995 C 386.269 -0.888287 1.34038 0
M  V30 3996 O 387.459 -0.751841 1.5714 0
M  V30 3997 C 384.591 -1.36905 3.12202 0
M  V30 3998 H 385.784 0.432557 2.96764 0
M  V30 3999 H 383.337 0.262488 1.5408 0
M  V30 4000 H 384.072 -2.09233 2.47775 0
M  V30 4001 H 383.857 -0.921599 3.81115 0
M  V30 4002 H 385.347 -1.9071 3.7151 0
M  V30 4003 N 385.784 -1.5574 0.241426 0
M  V30 4004 C 386.747 -2.19877 -0.647063 0
M  V30 4005 C 387.747 -1.16642 -1.10686 0
M  V30 4006 O 388.937 -1.41757 -1.01245 0
M  V30 4007 C 386.069 -2.83797 -1.88871 0
M  V30 4008 H 387.262 -2.99772 -0.087574 0
M  V30 4009 H 384.815 -1.56298 -0.00813574 0
M  V30 4010 H 385.55 -2.07824 -2.48957 0
M  V30 4011 H 385.335 -3.59414 -1.56728 0
M  V30 4012 H 386.825 -3.32898 -2.52129 0
M  V30 4013 N 387.262 0.0317525 -1.57568 0
M  V30 4014 C 388.487 0.738664 -1.938 0
M  V30 4015 C 388.912 1.68242 -0.841208 0
M  V30 4016 O 388.27 1.80157 0.203267 0
M  V30 4017 C 388.318 1.47417 -3.29091 0
M  V30 4018 O 387.422 2.5872 -3.2115 0
M  V30 4019 H 386.763 0.198856 -0.633524 0
M  V30 4020 H 389.293 -0.0119713 -2.04596 0
M  V30 4021 H 389.303 1.84468 -3.63917 0
M  V30 4022 H 387.978 0.781988 -4.08482 0
M  V30 4023 H 386.555 2.24231 -2.97951 0
M  V30 4024 N 388.74 1.54641 0.303973 0
M  V30 4025 C 389.688 1.86137 1.39484 0
M  V30 4026 C 390.682 0.734854 1.52631 0
M  V30 4027 O 391.888 0.918803 1.54784 0
M  V30 4028 H 388.263 0.590324 0.465856 0
M  V30 4029 H 390.234 2.77324 1.10154 0
M  V30 4030 C 388.983 2.12274 2.75382 0
M  V30 4031 H 388.306 2.98429 2.66046 0
M  V30 4032 H 389.746 2.38254 3.5073 0
M  V30 4033 C 388.205 0.920365 3.24085 0
M  V30 4034 O 388.735 0.139377 4.01458 0
M  V30 4035 N 386.941 0.726566 2.81371 0
M  V30 4036 H 386.488 1.36332 2.18567 0
M  V30 4037 H 386.446 -0.0763799 3.14307 0
M  V30 4038 N 390.218 -0.567019 1.47046 0
M  V30 4039 C 391.629 -1.14916 1.47143 0
M  V30 4040 C 391.98 -1.94954 0.220767 0
M  V30 4041 O 391.105 -2.05602 -0.67505 0
M  V30 4042 C 391.7 -2.09069 2.666 0
M  V30 4043 C 390.259 -2.62575 2.69687 0
M  V30 4044 C 389.406 -1.38755 2.40088 0
M  V30 4045 H 392.357 -0.354126 1.54699 0
M  V30 4046 H 392.378 -2.92789 2.43011 0
M  V30 4047 H 391.89 -1.50789 3.57609 0
M  V30 4048 H 389.991 -3.24681 1.82792 0
M  V30 4049 H 390.104 -3.04239 3.70102 0
M  V30 4050 H 388.468 -1.69098 1.90468 0
M  V30 4051 H 389.251 -0.822822 3.33293 0
M  V30 4052 N 391.696 -1.35014 -0.812953 0
M  V30 4053 C 393.107 -1.25035 -1.38648 0
M  V30 4054 C 393.458 0.119967 -1.95833 0
M  V30 4055 O 392.583 1.02069 -1.90816 0
M  V30 4056 C 393.178 -2.26394 -2.52054 0
M  V30 4057 C 391.737 -2.20175 -3.05287 0
M  V30 4058 C 390.884 -2.12451 -1.78213 0
M  V30 4059 H 393.835 -1.46235 -0.616516 0
M  V30 4060 H 393.856 -1.88672 -3.30429 0
M  V30 4061 H 393.368 -3.26116 -2.10404 0
M  V30 4062 H 391.469 -1.23841 -3.51417 0
M  V30 4063 H 391.582 -3.11863 -3.63701 0
M  V30 4064 H 389.946 -1.58328 -1.9951 0
M  V30 4065 H 390.729 -3.14024 -1.38723 0
M  V30 4066 N 393.175 1.03435 -1.18907 0
M  V30 4067 C 394.138 2.09756 -0.923844 0
M  V30 4068 C 395.138 1.60528 0.093416 0
M  V30 4069 O 396.328 1.73631 -0.140727 0
M  V30 4070 C 393.46 3.38692 -0.387354 0
M  V30 4071 H 394.653 2.34719 -1.86674 0
M  V30 4072 H 392.206 1.19959 -1.00197 0
M  V30 4073 H 392.941 3.19396 0.561845 0
M  V30 4074 H 392.726 3.75742 -1.12074 0
M  V30 4075 H 394.216 4.17016 -0.220694 0
M  V30 4076 N 394.653 0.992116 1.22453 0
M  V30 4077 C 395.585 0.500024 2.23679 0
M  V30 4078 C 396.598 -0.404463 1.57696 0
M  V30 4079 O 397.787 -0.206722 1.77299 0
M  V30 4080 C 394.887 -0.294711 3.37616 0
M  V30 4081 C 394.06 0.605723 4.33186 0
M  V30 4082 C 393.119 -0.13717 5.26021 0
M  V30 4083 O 392.145 0.477164 5.67196 0
M  V30 4084 N 393.347 -1.4197 5.62872 0
M  V30 4085 H 396.112 1.37045 2.66531 0
M  V30 4086 H 393.673 0.866741 1.36745 0
M  V30 4087 H 395.665 -0.800329 3.96707 0
M  V30 4088 H 394.235 -1.06623 2.93854 0
M  V30 4089 H 393.455 1.29202 3.72425 0
M  V30 4090 H 394.743 1.21896 4.93983 0
M  V30 4091 H 394.141 -1.94015 5.31389 0
M  V30 4092 H 392.698 -1.87052 6.24383 0
M  V30 4093 N 396.131 -1.37776 0.765217 0
M  V30 4094 C 397.361 -2.03828 0.337277 0
M  V30 4095 C 397.769 -1.57841 -1.04321 0
M  V30 4096 O 397.112 -0.752043 -1.67601 0
M  V30 4097 C 397.174 -3.58292 0.294407 0
M  V30 4098 C 396.838 -4.27384 1.61838 0
M  V30 4099 C 397.835 -4.51956 2.56967 0
M  V30 4100 C 395.52 -4.65345 1.89102 0
M  V30 4101 C 397.514 -5.13536 3.77571 0
M  V30 4102 C 395.201 -5.26647 3.09978 0
M  V30 4103 C 396.199 -5.50679 4.04032 0
M  V30 4104 O 395.887 -6.10702 5.2278 0
M  V30 4105 H 395.619 -0.661292 0.140248 0
M  V30 4106 H 398.173 -1.77222 1.03834 0
M  V30 4107 H 396.403 -3.83918 -0.462983 0
M  V30 4108 H 398.092 -4.05763 -0.105581 0
M  V30 4109 H 398.858 -4.23048 2.37183 0
M  V30 4110 H 394.737 -4.45978 1.16725 0
M  V30 4111 H 398.281 -5.3221 4.50997 0
M  V30 4112 H 394.178 -5.54979 3.29649 0
M  V30 4113 H 394.946 -6.29183 5.23517 0
M  V30 4114 N 397.609 -0.515225 -1.4894 0
M  V30 4115 C 398.834 0.022727 -2.07388 0
M  V30 4116 C 399.259 1.2876 -1.37122 0
M  V30 4117 O 398.617 1.76067 -0.432431 0
M  V30 4118 C 398.665 0.244869 -3.59768 0
M  V30 4119 O 397.769 1.31667 -3.90817 0
M  V30 4120 H 397.11 -0.0325506 -0.663202 0
M  V30 4121 H 399.64 -0.718918 -1.91553 0
M  V30 4122 H 399.65 0.47205 -4.0526 0
M  V30 4123 H 398.325 -0.679194 -4.10317 0
M  V30 4124 H 396.902 1.07331 -3.5712 0
M  V30 4125 N 399.087 1.5561 -0.249682 0
M  V30 4126 C 400.333 2.00044 0.367952 0
M  V30 4127 C 400.688 1.1349 1.55363 0
M  V30 4128 O 399.981 0.191079 1.90645 0
M  V30 4129 C 400.175 3.4775 0.824887 0
M  V30 4130 C 400.004 4.48596 -0.314973 0
M  V30 4131 C 398.774 4.99077 -0.790555 0
M  V30 4132 C 400.972 5.0144 -1.14291 0
M  V30 4133 N 398.954 5.83675 -1.90254 0
M  V30 4134 C 400.325 5.83236 -2.10322 0
M  V30 4135 C 402.38 4.83736 -1.17916 0
M  V30 4136 C 401.083 6.49217 -3.09692 0
M  V30 4137 C 403.109 5.50497 -2.16117 0
M  V30 4138 C 402.471 6.32084 -3.10884 0
M  V30 4139 H 398.57 0.775512 0.100522 0
M  V30 4140 H 401.154 1.91193 -0.367896 0
M  V30 4141 H 399.325 3.56994 1.53002 0
M  V30 4142 H 401.057 3.79056 1.4177 0
M  V30 4143 H 397.812 4.72119 -0.374218 0
M  V30 4144 H 398.236 6.30671 -2.46137 0
M  V30 4145 H 402.878 4.20286 -0.460352 0
M  V30 4146 H 400.596 7.11832 -3.8252 0
M  V30 4147 H 404.182 5.38752 -2.19631 0
M  V30 4148 H 403.062 6.82832 -3.8563 0
M  V30 4149 N 400.565 -0.0233959 1.57583 0
M  V30 4150 C 401.495 -1.02162 2.09965 0
M  V30 4151 C 402.476 -1.3735 1.00344 0
M  V30 4152 O 403.661 -1.46135 1.27899 0
M  V30 4153 C 400.791 -2.32081 2.58371 0
M  V30 4154 C 399.745 -2.1112 3.72307 0
M  V30 4155 C 399.071 -3.46848 4.06941 0
M  V30 4156 C 400.371 -1.49276 5.00514 0
M  V30 4157 H 402.065 -0.585557 2.93618 0
M  V30 4158 H 399.611 -0.280218 1.41247 0
M  V30 4159 H 401.564 -3.02249 2.93639 0
M  V30 4160 H 400.288 -2.77758 1.71808 0
M  V30 4161 H 398.947 -1.43384 3.37397 0
M  V30 4162 H 398.595 -3.90184 3.17436 0
M  V30 4163 H 398.295 -3.33646 4.83688 0
M  V30 4164 H 399.819 -4.18369 4.44747 0
M  V30 4165 H 401.233 -2.09368 5.33702 0
M  V30 4166 H 399.63 -1.46632 5.8191 0
M  V30 4167 H 400.7 -0.459217 4.82721 0
M  V30 4168 N 402.043 -1.548 -0.295768 0
M  V30 4169 C 403.292 -1.73538 -1.02798 0
M  V30 4170 C 403.605 -0.531159 -1.8825 0
M  V30 4171 O 404.811 -0.600458 -2.64777 0
M  V30 4172 C 403.267 -3.07051 -1.87744 0
M  V30 4173 C 402.875 -4.34968 -1.07269 0
M  V30 4174 C 404.619 -3.35146 -2.60533 0
M  V30 4175 C 402.526 -5.5953 -1.91521 0
M  V30 4176 H 401.456 -0.646794 -0.387522 0
M  V30 4177 H 404.107 -1.81278 -0.284718 0
M  V30 4178 H 402.489 -2.93289 -2.66078 0
M  V30 4179 H 403.663 -4.5958 -0.335117 0
M  V30 4180 H 401.978 -4.13847 -0.460384 0
M  V30 4181 H 404.575 -4.2541 -3.23929 0
M  V30 4182 H 404.918 -2.54255 -3.29636 0
M  V30 4183 H 405.451 -3.49902 -1.89244 0
M  V30 4184 H 402.19 -6.43103 -1.26878 0
M  V30 4185 H 401.71 -5.39096 -2.62937 0
M  V30 4186 H 403.389 -5.96982 -2.49442 0
M  V30 4187 N 403.521 0.559213 -1.47345 0
M  V30 4188 C 404.469 1.68747 -1.60085 0
M  V30 4189 C 405.463 1.628 -0.46825 0
M  V30 4190 O 406.669 1.68009 -0.645977 0
M  V30 4191 H 403.044 0.558329 -0.503759 0
M  V30 4192 H 405.015 1.55138 -2.54902 0
M  V30 4193 C 403.764 3.07103 -1.63042 0
M  V30 4194 H 403.087 3.12361 -2.49541 0
M  V30 4195 H 404.527 3.85743 -1.76006 0
M  V30 4196 C 402.986 3.34935 -0.363357 0
M  V30 4197 O 403.516 3.98102 0.536416 0
M  V30 4198 N 401.722 2.89574 -0.244 0
M  V30 4199 H 401.269 2.38348 -0.977133 0
M  V30 4200 H 401.227 3.08566 0.602836 0
M  V30 4201 N 404.999 1.35443 0.805782 0
M  V30 4202 C 406.247 1.28507 1.55982 0
M  V30 4203 C 406.568 -0.140046 1.94496 0
M  V30 4204 O 405.838 -1.07666 1.63661 0
M  V30 4205 H 404.418 0.472676 0.578434 0
M  V30 4206 H 407.08 1.69555 0.961098 0
M  V30 4207 H 406.176 1.90148 2.47488 0
M  V30 4208 N 406.477 -1.02803 1.19454 0
M  V30 4209 C 407.705 -1.79841 1.02297 0
M  V30 4210 C 408.12 -1.83879 -0.428259 0
M  V30 4211 O 407.477 -1.28345 -1.29745 0
M  V30 4212 C 407.528 -3.24852 1.58598 0
M  V30 4213 O 407.249 -3.21097 2.98041 0
M  V30 4214 C 408.75 -4.18485 1.46236 0
M  V30 4215 H 405.97 -0.565936 0.360496 0
M  V30 4216 H 408.514 -1.2948 1.58288 0
M  V30 4217 H 406.669 -3.72401 1.06753 0
M  V30 4218 H 407.083 -4.12033 3.24545 0
M  V30 4219 H 408.557 -5.18121 1.90407 0
M  V30 4220 H 409.034 -4.37254 0.41301 0
M  V30 4221 H 409.64 -3.76811 1.97215 0
M  V30 4222 N 407.956 -0.998596 -1.21925 0
M  V30 4223 C 409.203 -0.677663 -1.90824 0
M  V30 4224 C 409.531 0.790905 -1.77693 0
M  V30 4225 O 408.786 1.58817 -1.14349 0
M  V30 4226 C 409.085 -1.03648 -3.42041 0
M  V30 4227 C 408.751 -2.49825 -3.75364 0
M  V30 4228 C 407.413 -2.8977 -3.8417 0
M  V30 4229 C 409.765 -3.44545 -3.91073 0
M  V30 4230 C 407.093 -4.23412 -4.06127 0
M  V30 4231 C 409.445 -4.77853 -4.14535 0
M  V30 4232 C 408.109 -5.17531 -4.21566 0
M  V30 4233 H 407.379 -0.247975 -0.698276 0
M  V30 4234 H 410.026 -1.25584 -1.44571 0
M  V30 4235 H 408.331 -0.376457 -3.89987 0
M  V30 4236 H 410.028 -0.766113 -3.93614 0
M  V30 4237 H 406.618 -2.17866 -3.69097 0
M  V30 4238 H 410.802 -3.14853 -3.83642 0
M  V30 4239 H 406.058 -4.53734 -4.09799 0
M  V30 4240 H 410.232 -5.51189 -4.25633 0
M  V30 4241 H 407.859 -6.21102 -4.38333 0
M  V30 4242 N 409.434 1.37368 -0.772513 0
M  V30 4243 C 410.366 2.28899 -0.117502 0
M  V30 4244 C 411.379 1.4867 0.663405 0
M  V30 4245 O 412.568 1.71314 0.501372 0
M  V30 4246 C 409.668 3.2788 0.857192 0
M  V30 4247 C 408.841 4.37207 0.129938 0
M  V30 4248 C 407.9 5.16257 1.01811 0
M  V30 4249 O 406.926 5.67159 0.481601 0
M  V30 4250 N 408.128 5.31058 2.3443 0
M  V30 4251 H 410.893 2.85752 -0.903662 0
M  V30 4252 H 408.454 1.49353 -0.62493 0
M  V30 4253 H 410.446 3.77647 1.45482 0
M  V30 4254 H 409.016 2.7179 1.54432 0
M  V30 4255 H 408.236 3.88827 -0.648605 0
M  V30 4256 H 409.524 5.07434 -0.372559 0
M  V30 4257 H 408.922 4.91287 2.80452 0
M  V30 4258 H 407.479 5.84131 2.89197 0
M  V30 4259 N 410.912 0.523116 1.48665 0
M  V30 4260 C 411.844 -0.280421 2.27478 0
M  V30 4261 C 412.857 -0.910694 1.34945 0
M  V30 4262 O 414.046 -0.790295 1.60052 0
M  V30 4263 C 411.146 -1.41171 3.08097 0
M  V30 4264 C 410.319 -0.884642 4.28361 0
M  V30 4265 C 409.378 -1.89622 4.90846 0
M  V30 4266 O 408.404 -1.4559 5.50265 0
M  V30 4267 N 409.606 -3.22801 4.82472 0
M  V30 4268 H 412.371 0.395481 2.97079 0
M  V30 4269 H 409.932 0.357018 1.57915 0
M  V30 4270 H 411.924 -2.08645 3.4677 0
M  V30 4271 H 410.494 -1.99139 2.40961 0
M  V30 4272 H 409.714 -0.0341177 3.94185 0
M  V30 4273 H 411.002 -0.511268 5.06225 0
M  V30 4274 H 410.4 -3.61246 4.35336 0
M  V30 4275 H 408.957 -3.85927 5.25265 0
M  V30 4276 N 412.39 -1.55475 0.257931 0
M  V30 4277 C 413.615 -2.04064 -0.370488 0
M  V30 4278 C 414.04 -1.13565 -1.49948 0
M  V30 4279 O 413.398 -0.130781 -1.80828 0
M  V30 4280 C 413.446 -3.50554 -0.845237 0
M  V30 4281 O 412.55 -3.63173 -1.95394 0
M  V30 4282 H 411.891 -0.659257 -0.0792243 0
M  V30 4283 H 414.421 -2.00903 0.387212 0
M  V30 4284 H 414.431 -3.91588 -1.14555 0
M  V30 4285 H 413.106 -4.15896 -0.0191259 0
M  V30 4286 H 411.683 -3.34039 -1.65748 0
M  V30 4287 N 413.868 0.0150385 -1.57593 0
M  V30 4288 C 415.096 0.714395 -1.94175 0
M  V30 4289 C 415.511 1.68135 -0.858841 0
M  V30 4290 O 414.868 1.81766 0.163567 0
M  V30 4291 C 414.919 1.45933 -3.30735 0
M  V30 4292 O 414.64 0.531167 -4.34868 0
M  V30 4293 C 416.141 2.25456 -3.81686 0
M  V30 4294 H 413.361 0.199923 -0.640525 0
M  V30 4295 H 415.905 -0.0316096 -2.04476 0
M  V30 4296 H 414.06 2.15709 -3.21789 0
M  V30 4297 H 414.474 1.05509 -5.13778 0
M  V30 4298 H 415.948 2.731 -4.79709 0
M  V30 4299 H 416.425 3.07485 -3.13607 0
M  V30 4300 H 417.031 1.60727 -3.9376 0
M  V30 4301 N 415.346 1.54954 0.287554 0
M  V30 4302 C 416.278 1.83224 1.37701 0
M  V30 4303 C 417.291 0.715898 1.46215 0
M  V30 4304 O 418.48 0.993565 1.48292 0
M  V30 4305 C 415.58 1.96723 2.75959 0
M  V30 4306 C 414.753 3.27253 2.90215 0
M  V30 4307 C 413.812 3.30998 4.09056 0
M  V30 4308 O 412.838 4.04457 4.00503 0
M  V30 4309 N 414.04 2.57353 5.20336 0
M  V30 4310 H 416.805 2.77254 1.138 0
M  V30 4311 H 414.366 1.54694 0.477652 0
M  V30 4312 H 416.358 1.96615 3.5373 0
M  V30 4313 H 414.928 1.09626 2.92747 0
M  V30 4314 H 414.148 3.40022 1.99447 0
M  V30 4315 H 415.436 4.13365 2.96659 0
M  V30 4316 H 414.834 1.97327 5.30169 0
M  V30 4317 H 413.391 2.62984 5.96391 0
M  V30 4318 N 416.824 -0.551391 1.4764 0
M  V30 4319 C 417.734 -1.68525 1.63207 0
M  V30 4320 C 418.75 -1.6621 0.514815 0
M  V30 4321 O 419.926 -1.85551 0.783113 0
M  V30 4322 C 416.991 -3.05025 1.64805 0
M  V30 4323 C 416.052 -3.18362 2.88 0
M  V30 4324 C 415.285 -4.4835 2.89513 0
M  V30 4325 O 415.508 -5.34163 2.00065 0
M  V30 4326 O 414.442 -4.65602 3.81443 0
M  V30 4327 H 418.268 -1.58333 2.59161 0
M  V30 4328 H 415.853 -0.722063 1.30792 0
M  V30 4329 H 417.735 -3.86245 1.68502 0
M  V30 4330 H 416.41 -3.15587 0.720197 0
M  V30 4331 H 415.317 -2.36518 2.89845 0
M  V30 4332 H 416.65 -3.12707 3.80099 0
M  V30 4333 N 418.302 -1.35869 -0.798587 0
M  V30 4334 C 419.232 -1.32118 -1.92528 0
M  V30 4335 C 420.213 -0.194209 -1.68988 0
M  V30 4336 O 421.398 -0.390426 -1.90235 0
M  V30 4337 C 418.528 -1.10047 -3.29404 0
M  V30 4338 C 417.482 -2.19471 -3.67446 0
M  V30 4339 C 416.808 -1.82555 -5.02571 0
M  V30 4340 C 418.108 -3.61495 -3.76987 0
M  V30 4341 H 419.802 -2.26394 -1.95924 0
M  V30 4342 H 417.348 -1.08981 -0.94123 0
M  V30 4343 H 419.301 -1.06061 -4.07835 0
M  V30 4344 H 418.025 -0.122195 -3.26371 0
M  V30 4345 H 416.684 -2.22568 -2.91306 0
M  V30 4346 H 416.332 -0.833249 -4.9605 0
M  V30 4347 H 416.032 -2.5581 -5.28995 0
M  V30 4348 H 417.556 -1.80108 -5.83432 0
M  V30 4349 H 418.97 -3.60676 -4.4563 0
M  V30 4350 H 417.367 -4.33577 -4.14887 0
M  V30 4351 H 418.437 -3.97065 -2.78329 0
M  V30 4352 N 419.78 1.02168 -1.19998 0
M  V30 4353 C 421.027 1.75685 -1.00702 0
M  V30 4354 C 421.355 1.88947 0.461426 0
M  V30 4355 O 420.61 1.40832 1.35885 0
M  V30 4356 C 420.909 3.18081 -1.62969 0
M  V30 4357 C 420.575 3.24809 -3.12746 0
M  V30 4358 C 419.237 3.26352 -3.53621 0
M  V30 4359 C 421.589 3.23379 -4.08749 0
M  V30 4360 C 418.917 3.2413 -4.89036 0
M  V30 4361 C 421.269 3.22698 -5.44104 0
M  V30 4362 C 419.933 3.22542 -5.84399 0
M  V30 4363 H 419.203 0.642877 -0.368496 0
M  V30 4364 H 421.85 1.19865 -1.49348 0
M  V30 4365 H 420.155 3.77027 -1.06573 0
M  V30 4366 H 421.852 3.73648 -1.45561 0
M  V30 4367 H 418.442 3.2434 -2.80181 0
M  V30 4368 H 422.626 3.21361 -3.78207 0
M  V30 4369 H 417.882 3.22338 -5.19527 0
M  V30 4370 H 422.056 3.20543 -6.18244 0
M  V30 4371 H 419.683 3.20575 -6.89301 0
M  V30 4372 N 421.258 1.00505 1.21394 0
M  V30 4373 C 422.507 0.683159 1.89778 0
M  V30 4374 C 422.82 -0.789471 1.7896 0
M  V30 4375 O 424.026 -1.22344 2.42372 0
M  V30 4376 C 422.482 1.17146 3.40301 0
M  V30 4377 C 422.09 2.67017 3.5973 0
M  V30 4378 C 423.834 0.924461 4.14311 0
M  V30 4379 C 421.741 3.09387 5.04017 0
M  V30 4380 H 420.671 0.25183 0.710702 0
M  V30 4381 H 423.322 1.21622 1.37406 0
M  V30 4382 H 421.704 0.566451 3.91928 0
M  V30 4383 H 422.878 3.32968 3.18542 0
M  V30 4384 H 421.193 2.89732 2.99073 0
M  V30 4385 H 423.79 1.21658 5.20676 0
M  V30 4386 H 424.133 -0.139286 4.16067 0
M  V30 4387 H 424.666 1.49226 3.6875 0
M  V30 4388 H 421.405 4.14989 5.07409 0
M  V30 4389 H 420.925 2.48149 5.46061 0
M  V30 4390 H 422.604 3.01371 5.72525 0
M  V30 4391 N 422.737 -1.36956 0.779787 0
M  V30 4392 C 424.148 -1.82094 0.412156 0
M  V30 4393 C 424.499 -1.64926 -1.06273 0
M  V30 4394 O 423.624 -1.16483 -1.82375 0
M  V30 4395 C 424.219 -3.3059 0.741319 0
M  V30 4396 C 422.778 -3.73974 0.426641 0
M  V30 4397 C 421.925 -2.59368 0.980987 0
M  V30 4398 H 424.876 -1.25314 0.973758 0
M  V30 4399 H 424.897 -3.80489 0.028887 0
M  V30 4400 H 424.409 -3.43054 1.81482 0
M  V30 4401 H 422.51 -3.67076 -0.639215 0
M  V30 4402 H 422.623 -4.69778 0.940515 0
M  V30 4403 H 420.987 -2.51463 0.404757 0
M  V30 4404 H 421.77 -2.74621 2.06005 0
M  V30 4405 N 424.215 -0.530993 -1.48385 0
M  V30 4406 C 425.163 0.244595 -2.3131 0
M  V30 4407 C 426.157 0.93451 -1.41291 0
M  V30 4408 O 427.363 0.85878 -1.58193 0
M  V30 4409 H 423.738 0.0977472 -0.74562 0
M  V30 4410 H 425.709 -0.474369 -2.94605 0
M  V30 4411 C 424.458 1.2779 -3.23365 0
M  V30 4412 H 423.781 0.756439 -3.92579 0
M  V30 4413 H 425.221 1.79198 -3.84271 0
M  V30 4414 C 423.68 2.31205 -2.45042 0
M  V30 4415 O 424.21 3.37661 -2.17596 0
M  V30 4416 N 422.416 2.04446 -2.0652 0
M  V30 4417 H 421.963 1.17891 -2.2904 0
M  V30 4418 H 421.921 2.73861 -1.54427 0
M  V30 4419 N 425.693 1.55336 -0.266172 0
M  V30 4420 C 426.942 1.98574 0.353749 0
M  V30 4421 C 427.255 1.15789 1.57646 0
M  V30 4422 O 428.461 1.49129 2.26876 0
M  V30 4423 C 426.917 3.53403 0.680747 0
M  V30 4424 C 426.525 4.44953 -0.52165 0
M  V30 4425 C 428.269 4.05251 1.26379 0
M  V30 4426 C 426.176 5.91156 -0.169736 0
M  V30 4427 H 425.106 0.741643 0.135949 0
M  V30 4428 H 427.757 1.79743 -0.369421 0
M  V30 4429 H 426.139 3.68001 1.46257 0
M  V30 4430 H 427.313 4.42121 -1.29869 0
M  V30 4431 H 425.628 4.03691 -1.02093 0
M  V30 4432 H 428.225 5.12021 1.54074 0
M  V30 4433 H 428.568 3.53749 2.19471 0
M  V30 4434 H 429.101 3.94057 0.544447 0
M  V30 4435 H 425.84 6.46736 -1.0683 0
M  V30 4436 H 425.36 5.97079 0.570717 0
M  V30 4437 H 427.039 6.4655 0.241245 0
M  V30 4438 N 427.171 -0.0066808 1.57599 0
M  V30 4439 C 428.399 -0.704087 1.94551 0
M  V30 4440 C 428.814 -1.67677 0.867746 0
M  V30 4441 O 428.171 -1.8185 -0.153925 0
M  V30 4442 C 428.222 -1.44177 3.31505 0
M  V30 4443 O 427.943 -0.508097 4.35144 0
M  V30 4444 C 429.444 -2.23429 3.82876 0
M  V30 4445 H 426.664 -0.196523 0.641576 0
M  V30 4446 H 429.208 0.042453 2.04456 0
M  V30 4447 H 427.363 -2.13999 3.22929 0
M  V30 4448 H 427.777 -1.02782 5.14331 0
M  V30 4449 H 429.251 -2.70552 4.8115 0
M  V30 4450 H 429.728 -3.05818 3.15233 0
M  V30 4451 H 430.334 -1.58636 3.94607 0
M  V30 4452 N 428.649 -1.55105 -0.279332 0
M  V30 4453 C 429.895 -1.75672 -1.01327 0
M  V30 4454 C 430.228 -0.552739 -1.86168 0
M  V30 4455 O 429.503 0.449827 -1.89227 0
M  V30 4456 C 429.786 -3.05825 -1.90114 0
M  V30 4457 C 429.639 -4.36565 -1.08309 0
M  V30 4458 C 430.958 -3.31975 -2.8893 0
M  V30 4459 H 428.077 -0.639149 -0.366957 0
M  V30 4460 H 430.719 -1.87833 -0.286154 0
M  V30 4461 H 428.869 -2.95588 -2.52111 0
M  V30 4462 H 430.541 -4.58751 -0.484314 0
M  V30 4463 H 428.784 -4.32076 -0.386362 0
M  V30 4464 H 429.455 -5.23946 -1.73737 0
M  V30 4465 H 431.931 -3.41963 -2.37067 0
M  V30 4466 H 430.807 -4.2432 -3.48201 0
M  V30 4467 H 431.068 -2.51309 -3.63725 0
M  V30 4468 N 430.127 0.543554 -1.4793 0
M  V30 4469 C 431.075 1.67039 -1.61866 0
M  V30 4470 C 432.069 1.62294 -0.48549 0
M  V30 4471 O 433.275 1.67315 -0.66376 0
M  V30 4472 H 429.65 0.552954 -0.509652 0
M  V30 4473 H 431.621 1.52426 -2.56533 0
M  V30 4474 C 430.37 3.05357 -1.6629 0
M  V30 4475 H 429.693 3.09696 -2.5284 0
M  V30 4476 H 431.133 3.83855 -1.80088 0
M  V30 4477 C 429.592 3.34531 -0.398861 0
M  V30 4478 O 430.122 3.98649 0.494162 0
M  V30 4479 N 428.328 2.89299 -0.2747 0
M  V30 4480 H 427.875 2.37298 -1.00236 0
M  V30 4481 H 427.833 3.09188 0.570075 0
M  V30 4482 N 431.605 1.3629 0.791371 0
M  V30 4483 C 432.553 1.30514 1.92533 0
M  V30 4484 C 433.547 0.197285 1.68247 0
M  V30 4485 O 434.753 0.364176 1.76278 0
M  V30 4486 H 431.128 0.406263 0.632815 0
M  V30 4487 H 433.099 2.26282 1.94523 0
M  V30 4488 C 431.848 1.10933 3.29529 0
M  V30 4489 H 431.171 1.95427 3.48781 0
M  V30 4490 H 432.611 1.10937 4.0923 0
M  V30 4491 C 431.07 -0.186123 3.36385 0
M  V30 4492 O 431.6 -1.17664 3.84081 0
M  V30 4493 N 429.806 -0.230128 2.89687 0
M  V30 4494 H 429.353 0.576545 2.51065 0
M  V30 4495 H 429.311 -1.09658 2.94657 0
M  V30 4496 N 433.083 -1.0153 1.20538 0
M  V30 4497 C 434.308 -1.79283 1.04271 0
M  V30 4498 C 434.733 -1.8372 -0.403544 0
M  V30 4499 O 434.091 -1.27321 -1.2907 0
M  V30 4500 C 434.139 -3.21535 1.63241 0
M  V30 4501 O 433.243 -4.03099 0.870908 0
M  V30 4502 H 432.584 -0.55293 0.367647 0
M  V30 4503 H 435.114 -1.27696 1.59859 0
M  V30 4504 H 435.124 -3.72243 1.6703 0
M  V30 4505 H 433.799 -3.1762 2.68497 0
M  V30 4506 H 432.376 -3.61693 0.907323 0
M  V30 4507 N 434.561 -1.01147 -1.20859 0
M  V30 4508 C 435.809 -0.696486 -1.89719 0
M  V30 4509 C 436.13 0.775788 -1.78904 0
M  V30 4510 O 435.4 1.55759 -1.18811 0
M  V30 4511 H 433.98 -0.254628 -0.702263 0
M  V30 4512 H 436.642 -1.28197 -1.46804 0
M  V30 4513 H 435.738 -0.975357 -2.96468 0
M  V30 4514 N 436.039 1.36541 -0.78704 0
M  V30 4515 C 437.264 2.0409 -0.369053 0
M  V30 4516 C 437.689 1.58957 1.00569 0
M  V30 4517 O 437.047 0.756926 1.64743 0
M  V30 4518 C 437.095 3.57924 -0.438466 0
M  V30 4519 O 436.199 4.08642 0.555479 0
M  V30 4520 H 435.54 0.645142 -0.157122 0
M  V30 4521 H 438.07 1.74545 -1.06749 0
M  V30 4522 H 438.08 4.06887 -0.301218 0
M  V30 4523 H 436.755 3.90127 -1.44132 0
M  V30 4524 H 435.332 3.70958 0.380088 0
M  V30 4525 N 437.518 0.538854 1.48102 0
M  V30 4526 C 438.748 0.0122958 2.06596 0
M  V30 4527 C 439.156 -1.27861 1.39457 0
M  V30 4528 O 438.499 -1.77348 0.478907 0
M  V30 4529 C 438.561 -0.273131 3.58461 0
M  V30 4530 C 438.225 0.92561 4.47528 0
M  V30 4531 C 439.222 1.82637 4.86765 0
M  V30 4532 C 436.907 1.13511 4.89306 0
M  V30 4533 C 438.901 2.92047 5.66558 0
M  V30 4534 C 436.588 2.23233 5.68868 0
M  V30 4535 C 437.586 3.12333 6.07402 0
M  V30 4536 O 437.274 4.20155 6.85365 0
M  V30 4537 H 437.006 0.0344283 0.675123 0
M  V30 4538 H 439.56 0.746494 1.91355 0
M  V30 4539 H 437.79 -1.06141 3.71848 0
M  V30 4540 H 439.479 -0.742842 3.99045 0
M  V30 4541 H 440.245 1.67649 4.55103 0
M  V30 4542 H 436.124 0.450835 4.5879 0
M  V30 4543 H 439.668 3.6162 5.96554 0
M  V30 4544 H 435.565 2.38201 5.99942 0
M  V30 4545 H 436.333 4.17975 7.03732 0
M  V30 4546 N 438.996 -1.55193 0.274407 0
M  V30 4547 C 440.224 -2.03987 -0.345943 0
M  V30 4548 C 440.639 -1.15279 -1.4952 0
M  V30 4549 O 439.996 -0.172759 -1.8168 0
M  V30 4550 C 440.047 -3.51898 -0.827631 0
M  V30 4551 O 439.768 -4.37231 0.275855 0
M  V30 4552 C 441.269 -4.16577 -1.51587 0
M  V30 4553 H 438.489 -0.666335 -0.0789892 0
M  V30 4554 H 441.033 -2.00423 0.406294 0
M  V30 4555 H 439.188 -3.55909 -1.52996 0
M  V30 4556 H 439.602 -5.24415 -0.0943638 0
M  V30 4557 H 441.076 -5.21678 -1.80433 0
M  V30 4558 H 441.553 -3.64707 -2.44716 0
M  V30 4559 H 442.159 -4.16568 -0.857409 0
M  V30 4560 N 440.474 -0.00167713 -1.576 0
M  V30 4561 C 441.714 0.687302 -1.92498 0
M  V30 4562 C 442.078 1.70844 -0.876144 0
M  V30 4563 O 443.279 2.44792 -1.11043 0
M  V30 4564 C 441.55 1.31217 -3.32441 0
M  V30 4565 S 443.109 2.02604 -3.89226 0
M  V30 4566 H 439.927 0.226985 -0.673794 0
M  V30 4567 H 442.529 -0.0587666 -1.95412 0
M  V30 4568 H 441.233 0.556164 -4.06614 0
M  V30 4569 H 440.764 2.09613 -3.32905 0
M  V30 4570 H 442.779 3.30137 -3.70438 0
M  V30 4571 N 441.952 1.55251 0.271103 0
M  V30 4572 C 442.902 1.84649 1.33749 0
M  V30 4573 C 443.886 0.705529 1.44607 0
M  V30 4574 O 445.078 0.966916 1.48256 0
M  V30 4575 C 442.207 2.12354 2.69742 0
M  V30 4576 C 441.293 3.32714 2.62988 0
M  V30 4577 N 441.684 4.52575 2.25853 0
M  V30 4578 C 439.982 3.35341 2.94045 0
M  V30 4579 C 440.683 5.34669 2.29136 0
M  V30 4580 N 439.659 4.73123 2.67685 0
M  V30 4581 H 443.461 2.74865 1.0405 0
M  V30 4582 H 440.975 1.55152 0.479738 0
M  V30 4583 H 442.972 2.31572 3.4667 0
M  V30 4584 H 441.632 1.23422 3.00328 0
M  V30 4585 H 442.643 4.78639 1.978 0
M  V30 4586 H 439.32 2.56608 3.2933 0
M  V30 4587 H 440.71 6.40509 2.02971 0
M  V30 4588 N 443.43 -0.535701 1.48216 0
M  V30 4589 C 444.393 -1.623 1.61838 0
M  V30 4590 C 445.393 -1.53087 0.492024 0
M  V30 4591 O 446.583 -1.5686 0.757668 0
M  V30 4592 C 443.715 -3.01907 1.58319 0
M  V30 4593 H 444.908 -1.51564 2.58783 0
M  V30 4594 H 442.461 -0.757317 1.36727 0
M  V30 4595 H 443.196 -3.18155 0.628299 0
M  V30 4596 H 442.981 -3.10003 2.40085 0
M  V30 4597 H 444.471 -3.80969 1.71033 0
M  V30 4598 N 444.908 -1.36708 -0.784132 0
M  V30 4599 C 445.856 -1.31533 -1.91838 0
M  V30 4600 C 446.85 -0.206205 -1.6814 0
M  V30 4601 O 448.056 -0.373519 -1.76082 0
M  V30 4602 H 444.431 -0.409613 -0.630651 0
M  V30 4603 H 446.402 -2.2731 -1.9332 0
M  V30 4604 C 445.151 -1.12679 -3.28936 0
M  V30 4605 H 444.474 -1.97274 -3.4774 0
M  V30 4606 H 445.914 -1.13106 -4.08636 0
M  V30 4607 C 444.373 0.168281 -3.36479 0
M  V30 4608 O 444.903 1.15625 -3.84699 0
M  V30 4609 N 443.109 0.214762 -2.89805 0
M  V30 4610 H 442.656 -0.589852 -2.50756 0
M  V30 4611 H 442.614 1.08094 -2.95234 0
M  V30 4612 N 446.386 1.0089 -1.21074 0
M  V30 4613 C 447.334 2.11707 -0.963476 0
M  V30 4614 C 448.328 1.69172 0.0879032 0
M  V30 4615 O 449.534 1.79889 -0.0631415 0
M  V30 4616 H 445.909 0.692026 -0.294287 0
M  V30 4617 H 447.88 2.29743 -1.90422 0
M  V30 4618 C 446.629 3.43473 -0.540509 0
M  V30 4619 H 445.952 3.76634 -1.34114 0
M  V30 4620 H 447.392 4.22044 -0.406777 0
M  V30 4621 C 445.851 3.2849 0.748079 0
M  V30 4622 O 446.381 3.58883 1.8046 0
M  V30 4623 N 444.587 2.81715 0.713081 0
M  V30 4624 H 444.134 2.5718 -0.146973 0
M  V30 4625 H 444.092 2.72071 1.57558 0
M  V30 4626 N 447.864 1.01787 1.20321 0
M  V30 4627 C 449.089 0.727009 1.9424 0
M  V30 4628 C 449.514 -0.706179 1.74341 0
M  V30 4629 O 448.872 -1.48609 1.03852 0
M  V30 4630 C 448.92 1.06958 3.44372 0
M  V30 4631 O 448.024 0.181983 4.11998 0
M  V30 4632 H 447.365 0.269626 0.606793 0
M  V30 4633 H 449.895 1.36158 1.52716 0
M  V30 4634 H 449.905 1.02182 3.94997 0
M  V30 4635 H 448.58 2.11378 3.58179 0
M  V30 4636 H 447.157 0.287378 3.71791 0
M  V30 4637 N 449.342 -1.36122 0.79427 0
M  V30 4638 C 450.588 -1.99406 0.369452 0
M  V30 4639 C 450.921 -1.62886 -1.05743 0
M  V30 4640 O 450.196 -0.886053 -1.73145 0
M  V30 4641 C 450.479 -3.56046 0.538833 0
M  V30 4642 C 450.332 -4.02404 2.00976 0
M  V30 4643 C 451.651 -4.40079 -0.0431359 0
M  V30 4644 H 448.77 -0.724397 0.135712 0
M  V30 4645 H 451.412 -1.61461 1.00151 0
M  V30 4646 H 449.562 -3.885 0.000771004 0
M  V30 4647 H 451.234 -3.80415 2.60926 0
M  V30 4648 H 449.477 -3.53765 2.51063 0
M  V30 4649 H 450.148 -5.11344 2.07922 0
M  V30 4650 H 452.624 -4.14013 0.416228 0
M  V30 4651 H 451.5 -5.48799 0.105374 0
M  V30 4652 H 451.761 -4.27264 -1.13571 0
M  V30 4653 N 450.82 -0.546701 -1.47814 0
M  V30 4654 C 452.048 -0.0232857 -2.06887 0
M  V30 4655 C 452.463 1.26571 -1.4009 0
M  V30 4656 O 451.82 1.7569 -0.493906 0
M  V30 4657 C 451.871 0.186975 -3.61016 0
M  V30 4658 O 451.592 -1.05097 -4.25307 0
M  V30 4659 C 453.093 0.748872 -4.36929 0
M  V30 4660 H 450.313 -0.0410763 -0.669742 0
M  V30 4661 H 452.857 -0.757117 -1.89968 0
M  V30 4662 H 451.012 0.870903 -3.77484 0
M  V30 4663 H 451.426 -0.842121 -5.17695 0
M  V30 4664 H 452.9 0.845334 -5.45489 0
M  V30 4665 H 453.377 1.75772 -4.02493 0
M  V30 4666 H 453.983 0.100979 -4.2518 0
M  V30 4667 N 452.299 1.55045 -0.282633 0
M  V30 4668 C 453.547 1.99365 0.331334 0
M  V30 4669 C 453.868 1.1725 1.55812 0
M  V30 4670 O 453.138 0.263871 1.94115 0
M  V30 4671 H 451.718 0.736397 0.125414 0
M  V30 4672 H 454.38 1.90964 -0.389711 0
M  V30 4673 H 453.476 3.0596 0.616036 0
M  V30 4674 N 453.777 0.010035 1.57597 0
M  V30 4675 C 455.017 -0.677084 1.9286 0
M  V30 4676 C 455.381 -1.70377 0.885192 0
M  V30 4677 O 456.582 -2.44199 1.12339 0
M  V30 4678 C 454.853 -1.29452 3.33132 0
M  V30 4679 S 456.412 -2.00537 3.90295 0
M  V30 4680 H 453.23 -0.223409 0.674989 0
M  V30 4681 H 455.832 0.0691289 1.95378 0
M  V30 4682 H 454.536 -0.534593 4.06903 0
M  V30 4683 H 454.067 -2.07845 3.34012 0
M  V30 4684 H 456.082 -3.28168 3.72183 0
M  V30 4685 N 455.255 -1.55392 -0.262866 0
M  V30 4686 C 456.203 -1.8977 -1.345 0
M  V30 4687 C 457.197 -0.775063 -1.50629 0
M  V30 4688 O 458.403 -0.959519 -1.52293 0
M  V30 4689 H 454.778 -0.602467 -0.450041 0
M  V30 4690 H 456.749 -2.80147 -1.02762 0
M  V30 4691 C 455.498 -2.19501 -2.69657 0
M  V30 4692 H 454.821 -3.05378 -2.5804 0
M  V30 4693 H 456.261 -2.47469 -3.44289 0
M  V30 4694 C 454.72 -1.00597 -3.21531 0
M  V30 4695 O 455.25 -0.245768 -4.00947 0
M  V30 4696 N 453.456 -0.800911 -2.79345 0
M  V30 4697 H 453.003 -1.42079 -2.14875 0
M  V30 4698 H 452.961 -0.00697996 -3.14399 0
M  V30 4699 N 456.733 0.527833 -1.48498 0
M  V30 4700 C 458.149 0.856571 -1.34666 0
M  V30 4701 C 458.349 1.98271 -0.35931 0
M  V30 4702 O 457.405 2.51551 0.218703 0
M  V30 4703 C 458.718 1.22207 -2.74747 0
M  V30 4704 C 460.266 1.33183 -2.83251 0
M  V30 4705 C 460.741 1.73075 -4.24039 0
M  V30 4706 N 462.232 1.80174 -4.26722 0
M  V30 4707 C 462.967 2.1243 -5.32598 0
M  V30 4708 N 462.463 2.43096 -6.4875 0
M  V30 4709 N 464.256 2.13454 -5.19994 0
M  V30 4710 H 456.407 -0.215174 -2.11307 0
M  V30 4711 H 458.67 -0.0336281 -0.947403 0
M  V30 4712 H 458.376 0.468195 -3.4857 0
M  V30 4713 H 458.25 2.17173 -3.08409 0
M  V30 4714 H 460.637 2.07647 -2.09683 0
M  V30 4715 H 460.718 0.363333 -2.53206 0
M  V30 4716 H 460.362 0.991712 -4.98124 0
M  V30 4717 H 460.292 2.70979 -4.51529 0
M  V30 4718 H 462.783 1.58744 -3.42942 0
M  V30 4719 H 463.096 2.6682 -7.25277 0
M  V30 4720 H 461.441 2.40611 -6.52021 0
M  V30 4721 H 464.632 1.88956 -4.28268 0
M  V30 4722 H 464.805 2.38261 -6.02608 0
M  V30 4723 N 458.211 1.37122 0.776871 0
M  V30 4724 C 459.439 1.3523 1.5659 0
M  V30 4725 C 459.854 -0.0635518 1.88693 0
M  V30 4726 O 459.211 -1.02394 1.51069 0
M  V30 4727 C 459.262 2.18583 2.8793 0
M  V30 4728 O 458.983 3.5465 2.57206 0
M  V30 4729 C 460.484 2.24612 3.82183 0
M  V30 4730 H 457.704 0.4634 0.485285 0
M  V30 4731 H 460.248 1.80392 0.963266 0
M  V30 4732 H 458.403 1.76943 3.4463 0
M  V30 4733 H 458.817 3.98286 3.41275 0
M  V30 4734 H 460.291 2.87267 4.71361 0
M  V30 4735 H 460.768 1.25309 4.20944 0
M  V30 4736 H 461.374 2.66543 3.31414 0
M  V30 4737 N 459.689 -1.00246 1.21608 0
M  V30 4738 C 460.917 -1.77631 1.06089 0
M  V30 4739 C 461.332 -1.84746 -0.38916 0
M  V30 4740 O 460.689 -1.31068 -1.26994 0
M  V30 4741 C 460.74 -3.21415 1.65453 0
M  V30 4742 O 460.461 -3.14703 3.04785 0
M  V30 4743 C 461.962 -4.15289 1.55079 0
M  V30 4744 H 459.182 -0.558162 0.37242 0
M  V30 4745 H 461.726 -1.26093 1.60999 0
M  V30 4746 H 459.881 -3.70053 1.14629 0
M  V30 4747 H 460.295 -4.05056 3.33212 0
M  V30 4748 H 461.769 -5.13965 2.01355 0
M  V30 4749 H 462.246 -4.36279 0.505665 0
M  V30 4750 H 462.852 -3.72543 2.05163 0
M  V30 4751 N 461.167 -1.02423 -1.1978 0
M  V30 4752 C 462.413 -0.719051 -1.89625 0
M  V30 4753 C 462.746 0.750083 -1.7913 0
M  V30 4754 O 462.021 1.54574 -1.18056 0
M  V30 4755 C 462.304 -1.16499 -3.40735 0
M  V30 4756 C 462.157 -2.695 -3.60125 0
M  V30 4757 C 463.476 -0.742166 -4.33797 0
M  V30 4758 H 460.595 -0.26269 -0.688595 0
M  V30 4759 H 463.237 -1.27333 -1.41018 0
M  V30 4760 H 461.387 -0.69341 -3.82262 0
M  V30 4761 H 463.059 -3.24569 -3.278 0
M  V30 4762 H 461.302 -3.10113 -3.03336 0
M  V30 4763 H 461.973 -2.95757 -4.66081 0
M  V30 4764 H 464.449 -1.1477 -3.99959 0
M  V30 4765 H 463.325 -1.08213 -5.38127 0
M  V30 4766 H 463.586 0.355747 -4.40666 0
M  V30 4767 N 462.645 1.35699 -0.801477 0
M  V30 4768 C 463.592 2.29876 -0.206294 0
M  V30 4769 C 464.562 1.52565 0.656752 0
M  V30 4770 O 465.747 1.81024 0.602906 0
M  V30 4771 C 462.887 3.39052 0.643272 0
M  V30 4772 C 462 4.31335 -0.239644 0
M  V30 4773 C 461.135 5.27599 0.61744 0
M  V30 4774 C 460.174 6.11521 -0.26619 0
M  V30 4775 N 459.311 6.99938 0.550571 0
M  V30 4776 H 464.151 2.80187 -1.01484 0
M  V30 4777 H 461.688 1.37902 -0.511997 0
M  V30 4778 H 463.646 4.0101 1.15094 0
M  V30 4779 H 462.276 2.9003 1.41713 0
M  V30 4780 H 461.328 3.70426 -0.865381 0
M  V30 4781 H 462.64 4.90243 -0.919985 0
M  V30 4782 H 461.794 5.94906 1.19045 0
M  V30 4783 H 460.533 4.69176 1.33137 0
M  V30 4784 H 459.538 5.43166 -0.851507 0
M  V30 4785 H 460.763 6.72022 -0.9779 0
M  V30 4786 H 458.709 6.44008 1.24856 0
M  V30 4787 H 458.626 7.55966 -0.071832 0
M  V30 4788 H 459.894 7.71599 1.10702 0
M  V30 4789 N 464.123 0.554532 1.47522 0
M  V30 4790 C 465.351 0.034257 2.06872 0
M  V30 4791 C 465.766 -1.25826 1.40759 0
M  V30 4792 O 465.123 -1.75425 0.503217 0
M  V30 4793 C 465.174 -0.167827 3.6111 0
M  V30 4794 O 464.895 1.07351 4.24744 0
M  V30 4795 C 466.396 -0.72569 4.3732 0
M  V30 4796 H 463.616 0.0446275 0.669514 0
M  V30 4797 H 466.16 0.767181 1.89564 0
M  V30 4798 H 464.315 -0.850872 3.7794 0
M  V30 4799 H 464.729 0.869563 5.17242 0
M  V30 4800 H 466.203 -0.816394 5.45929 0
M  V30 4801 H 466.68 -1.73635 4.0342 0
M  V30 4802 H 467.286 -0.0784292 4.25228 0
M  V30 4803 N 465.601 -1.54893 0.290851 0
M  V30 4804 C 466.85 -1.99111 -0.322113 0
M  V30 4805 C 467.163 -1.18283 -1.55784 0
M  V30 4806 O 468.369 -1.5272 -2.24475 0
M  V30 4807 C 466.825 -3.54442 -0.624438 0
M  V30 4808 C 466.433 -4.44066 0.592373 0
M  V30 4809 C 468.177 -4.07211 -1.19916 0
M  V30 4810 C 466.084 -5.90812 0.263762 0
M  V30 4811 H 465.014 -0.743712 -0.124133 0
M  V30 4812 H 467.665 -1.79132 0.39797 0
M  V30 4813 H 466.047 -3.70281 -1.40384 0
M  V30 4814 H 467.221 -4.39999 1.36886 0
M  V30 4815 H 465.536 -4.02015 1.08502 0
M  V30 4816 H 468.133 -5.14407 -1.45909 0
M  V30 4817 H 468.476 -3.57196 -2.13815 0
M  V30 4818 H 469.009 -3.94873 -0.481687 0
M  V30 4819 H 465.748 -6.44955 1.17105 0
M  V30 4820 H 465.268 -5.97911 -0.475655 0
M  V30 4821 H 466.947 -6.46852 -0.138354 0
M  V30 4822 N 467.08 -0.0183926 -1.57589 0
M  V30 4823 C 468.329 0.66185 -1.90532 0
M  V30 4824 C 468.642 1.73904 -0.895366 0
M  V30 4825 O 469.848 2.47518 -1.11566 0
M  V30 4826 C 468.304 1.22844 -3.38286 0
M  V30 4827 C 467.912 0.185103 -4.47617 0
M  V30 4828 C 469.656 1.88581 -3.80312 0
M  V30 4829 C 467.563 0.762723 -5.86461 0
M  V30 4830 H 466.493 0.250972 -0.711006 0
M  V30 4831 H 469.144 -0.0819435 -1.83317 0
M  V30 4832 H 467.526 2.0235 -3.40398 0
M  V30 4833 H 468.7 -0.58671 -4.5705 0
M  V30 4834 H 467.015 -0.372889 -4.14727 0
M  V30 4835 H 469.612 2.32735 -4.81392 0
M  V30 4836 H 469.955 2.72408 -3.14801 0
M  V30 4837 H 470.488 1.15782 -3.80578 0
M  V30 4838 H 467.227 -0.0371713 -6.55489 0
M  V30 4839 H 466.747 1.50327 -5.80656 0
M  V30 4840 H 468.426 1.25576 -6.34697 0
M  V30 4841 N 468.558 1.5553 0.254621 0
M  V30 4842 C 469.804 1.77262 0.985193 0
M  V30 4843 C 470.137 0.582286 1.85265 0
M  V30 4844 O 469.412 -0.419666 1.89919 0
M  V30 4845 C 469.695 3.0881 1.85225 0
M  V30 4846 C 469.548 4.38233 1.0135 0
M  V30 4847 C 470.867 3.3653 2.83612 0
M  V30 4848 H 467.986 0.644906 0.356742 0
M  V30 4849 H 470.628 1.88264 0.256236 0
M  V30 4850 H 468.778 2.99562 2.47376 0
M  V30 4851 H 470.45 4.59463 0.411269 0
M  V30 4852 H 468.693 4.32636 0.317574 0
M  V30 4853 H 469.364 5.26644 1.65379 0
M  V30 4854 H 471.84 3.45691 2.31596 0
M  V30 4855 H 470.716 4.29805 3.41407 0
M  V30 4856 H 470.977 2.57064 3.59681 0
M  V30 4857 N 470.036 -0.519951 1.48776 0
M  V30 4858 C 471.264 -1.29971 1.60982 0
M  V30 4859 C 471.679 -1.86803 0.273885 0
M  V30 4860 O 471.036 -1.66904 -0.738193 0
M  V30 4861 C 471.087 -2.44346 2.66415 0
M  V30 4862 O 470.808 -1.89855 3.94825 0
M  V30 4863 C 472.309 -3.36014 2.89153 0
M  V30 4864 H 469.529 -0.394891 0.542496 0
M  V30 4865 H 472.073 -0.626214 1.94676 0
M  V30 4866 H 470.228 -3.07562 2.35552 0
M  V30 4867 H 470.642 -2.64798 4.5275 0
M  V30 4868 H 472.116 -4.12593 3.66703 0
M  V30 4869 H 472.593 -3.91859 1.98351 0
M  V30 4870 H 473.199 -2.78582 3.21359 0
M  V30 4871 N 471.514 -1.37532 -0.769588 0
M  V30 4872 C 472.424 -1.35668 -1.91393 0
M  V30 4873 C 473.44 -0.255954 -1.72107 0
M  V30 4874 O 474.616 -0.491704 -1.95305 0
M  V30 4875 C 471.681 -1.16481 -3.26547 0
M  V30 4876 C 470.742 -2.36212 -3.58472 0
M  V30 4877 C 469.975 -2.17932 -4.87177 0
M  V30 4878 O 470.198 -1.1647 -5.58382 0
M  V30 4879 O 469.132 -3.06167 -5.18214 0
M  V30 4880 H 472.958 -2.32055 -1.95918 0
M  V30 4881 H 470.543 -1.18284 -0.912641 0
M  V30 4882 H 472.425 -1.07778 -4.07384 0
M  V30 4883 H 471.1 -0.231687 -3.2287 0
M  V30 4884 H 470.007 -2.50488 -2.77861 0
M  V30 4885 H 471.34 -3.281 -3.66894 0
M  V30 4886 N 472.992 0.995999 -1.22138 0
M  V30 4887 C 473.922 2.10387 -1.01289 0
M  V30 4888 C 474.903 1.69975 0.0651454 0
M  V30 4889 O 476.088 1.9396 -0.0964628 0
M  V30 4890 C 473.218 3.42312 -0.586517 0
M  V30 4891 C 472.172 3.96558 -1.61014 0
M  V30 4892 C 471.498 5.24494 -1.0397 0
M  V30 4893 C 472.798 4.27595 -2.99933 0
M  V30 4894 H 474.492 2.28086 -1.93951 0
M  V30 4895 H 472.038 1.09607 -0.933928 0
M  V30 4896 H 473.991 4.19223 -0.427793 0
M  V30 4897 H 472.715 3.24431 0.375761 0
M  V30 4898 H 471.374 3.21776 -1.75658 0
M  V30 4899 H 471.022 5.02953 -0.0688703 0
M  V30 4900 H 470.722 5.61755 -1.72352 0
M  V30 4901 H 472.246 6.04042 -0.892494 0
M  V30 4902 H 473.66 4.95315 -2.8868 0
M  V30 4903 H 472.057 4.76021 -3.6541 0
M  V30 4904 H 473.127 3.35498 -3.50099 0
M  V30 4905 N 474.47 1.03057 1.19235 0
M  V30 4906 C 475.695 0.74757 1.93458 0
M  V30 4907 C 476.12 -0.687648 1.7508 0
M  V30 4908 O 475.478 -1.47499 1.05422 0
M  V30 4909 C 475.526 1.10604 3.43219 0
M  V30 4910 O 474.63 0.225671 4.11782 0
M  V30 4911 H 473.971 0.276047 0.603899 0
M  V30 4912 H 476.501 1.3777 1.51263 0
M  V30 4913 H 476.511 1.06366 3.93891 0
M  V30 4914 H 475.186 2.15165 3.55917 0
M  V30 4915 H 473.763 0.326795 3.71465 0
M  V30 4916 N 475.948 -1.35272 0.808662 0
M  V30 4917 C 477.359 -1.81179 0.450688 0
M  V30 4918 C 477.71 -1.67143 -1.02751 0
M  V30 4919 O 476.835 -1.20325 -1.79864 0
M  V30 4920 C 477.43 -3.28943 0.811275 0
M  V30 4921 C 475.989 -3.72985 0.505871 0
M  V30 4922 C 475.136 -2.57229 1.03578 0
M  V30 4923 H 478.087 -1.2322 1.00012 0
M  V30 4924 H 478.108 -3.80342 0.109588 0
M  V30 4925 H 477.62 -3.39127 1.88718 0
M  V30 4926 H 475.721 -3.68349 -0.561209 0
M  V30 4927 H 475.834 -4.67677 1.03995 0
M  V30 4928 H 474.198 -2.50548 0.458005 0
M  V30 4929 H 474.981 -2.7019 2.11784 0
M  V30 4930 N 477.426 -0.562348 -1.47226 0
M  V30 4931 C 478.672 -0.0402761 -2.0276 0
M  V30 4932 C 479.005 1.30823 -1.43523 0
M  V30 4933 O 478.28 1.85249 -0.592705 0
M  V30 4934 C 478.563 0.047311 -3.60069 0
M  V30 4935 C 478.416 -1.32865 -4.29729 0
M  V30 4936 C 479.735 0.758182 -4.3352 0
M  V30 4937 H 476.854 -0.0161105 -0.736824 0
M  V30 4938 H 479.496 -0.725628 -1.75598 0
M  V30 4939 H 477.646 0.630986 -3.83342 0
M  V30 4940 H 479.318 -1.95593 -4.17781 0
M  V30 4941 H 477.561 -1.90195 -3.89882 0
M  V30 4942 H 478.232 -1.22004 -5.38349 0
M  V30 4943 H 480.708 0.262546 -4.15271 0
M  V30 4944 H 479.584 0.78844 -5.43208 0
M  V30 4945 H 479.845 1.81537 -4.03109 0
M  V30 4946 N 478.904 1.54736 -0.299062 0
M  V30 4947 C 480.15 2.00397 0.311244 0
M  V30 4948 C 480.483 1.18716 1.53688 0
M  V30 4949 O 479.758 0.263154 1.92712 0
M  V30 4950 C 480.041 3.53817 0.669761 0
M  V30 4951 C 479.894 4.46239 -0.564882 0
M  V30 4952 C 481.213 4.13856 1.49702 0
M  V30 4953 H 478.332 0.728493 0.111653 0
M  V30 4954 H 480.974 1.85506 -0.410774 0
M  V30 4955 H 479.124 3.66637 1.28491 0
M  V30 4956 H 480.796 4.45328 -1.20337 0
M  V30 4957 H 479.039 4.16916 -1.19849 0
M  V30 4958 H 479.71 5.5134 -0.269918 0
M  V30 4959 H 482.186 4.04461 0.977284 0
M  V30 4960 H 481.062 5.21365 1.71666 0
M  V30 4961 H 481.323 3.65608 2.48563 0
M  V30 4962 N 480.382 0.0267497 1.57577 0
M  V30 4963 C 481.345 -0.940916 2.08996 0
M  V30 4964 C 482.345 -1.25561 1.00455 0
M  V30 4965 O 483.535 -1.19634 1.26623 0
M  V30 4966 C 480.667 -2.25814 2.55384 0
M  V30 4967 H 481.86 -0.495628 2.95776 0
M  V30 4968 H 479.413 -0.221241 1.54726 0
M  V30 4969 H 480.148 -2.74976 1.71926 0
M  V30 4970 H 479.933 -2.04285 3.34679 0
M  V30 4971 H 481.423 -2.95178 2.95398 0
M  V30 4972 N 481.861 -1.55662 -0.24637 0
M  V30 4973 C 482.808 -1.90361 -1.30504 0
M  V30 4974 C 483.778 -0.757905 -1.47801 0
M  V30 4975 O 484.963 -1.01161 -1.61775 0
M  V30 4976 C 482.103 -2.2042 -2.65535 0
M  V30 4977 C 481.216 -3.47799 -2.56242 0
M  V30 4978 C 480.351 -3.67426 -3.8363 0
M  V30 4979 C 479.39 -4.88403 -3.68956 0
M  V30 4980 N 478.527 -5.04548 -4.88237 0
M  V30 4981 H 483.367 -2.80645 -1.00213 0
M  V30 4982 H 480.904 -1.38924 -0.483577 0
M  V30 4983 H 482.862 -2.35853 -3.44135 0
M  V30 4984 H 481.492 -1.3334 -2.93973 0
M  V30 4985 H 480.544 -3.40694 -1.69208 0
M  V30 4986 H 481.856 -4.36544 -2.4131 0
M  V30 4987 H 481.01 -3.82821 -4.70673 0
M  V30 4988 H 479.749 -2.76914 -4.01459 0
M  V30 4989 H 478.754 -4.72984 -2.80296 0
M  V30 4990 H 479.979 -5.80375 -3.52621 0
M  V30 4991 H 477.925 -4.16974 -5.06427 0
M  V30 4992 H 477.842 -5.87384 -4.75937 0
M  V30 4993 H 479.11 -5.24355 -5.76777 0
M  V30 4994 N 483.339 0.512053 -1.4905 0
M  V30 4995 C 484.75 1.09376 -1.51307 0
M  V30 4996 C 485.101 1.94 -0.292971 0
M  V30 4997 O 484.226 2.07965 0.598277 0
M  V30 4998 C 484.821 1.99031 -2.74176 0
M  V30 4999 C 483.38 2.52385 -2.79247 0
M  V30 5000 C 482.527 1.29749 -2.45073 0
M  V30 5001 H 485.478 0.296467 -1.55906 0
M  V30 5002 H 485.499 2.83569 -2.53711 0
M  V30 5003 H 485.011 1.37412 -3.62959 0
M  V30 5004 H 483.112 3.17673 -1.94716 0
M  V30 5005 H 483.225 2.90293 -3.81139 0
M  V30 5006 H 481.589 1.61912 -1.96612 0
M  V30 5007 H 482.372 0.698555 -3.36118 0
M  V30 5008 N 484.817 1.37938 0.762283 0
M  V30 5009 C 485.749 1.30349 1.88525 0
M  V30 5010 C 486.762 0.217402 1.61342 0
M  V30 5011 O 487.951 0.474291 1.72084 0
M  V30 5012 C 485.051 0.994844 3.23969 0
M  V30 5013 C 484.224 2.18829 3.78725 0
M  V30 5014 C 483.283 1.84844 4.92665 0
M  V30 5015 O 482.309 2.57244 5.07754 0
M  V30 5016 N 483.511 0.798201 5.74986 0
M  V30 5017 H 486.276 2.27114 1.95549 0
M  V30 5018 H 483.837 1.31686 0.941825 0
M  V30 5019 H 485.829 0.748168 3.97724 0
M  V30 5020 H 484.399 0.115446 3.12387 0
M  V30 5021 H 483.619 2.59615 2.96637 0
M  V30 5022 H 484.907 2.98497 4.1204 0
M  V30 5023 H 484.305 0.197611 5.65355 0
M  V30 5024 H 482.862 0.611396 6.48926 0
M  V30 5025 N 486.295 -0.989507 1.22664 0
M  V30 5026 C 487.544 -1.72375 1.04737 0
M  V30 5027 C 487.857 -1.91096 -0.417316 0
M  V30 5028 O 489.063 -2.6188 -0.716334 0
M  V30 5029 C 487.519 -3.10161 1.82561 0
M  V30 5030 C 487.127 -2.99358 3.333 0
M  V30 5031 C 488.871 -3.87607 1.73093 0
M  V30 5032 C 486.778 -4.32319 4.03552 0
M  V30 5033 H 485.708 -0.646326 0.388302 0
M  V30 5034 H 488.359 -1.10437 1.46546 0
M  V30 5035 H 486.741 -3.728 1.33552 0
M  V30 5036 H 487.915 -2.45863 3.89728 0
M  V30 5037 H 486.23 -2.35392 3.43481 0
M  V30 5038 H 488.827 -4.86025 2.22899 0
M  V30 5039 H 489.17 -4.10509 0.691976 0
M  V30 5040 H 489.703 -3.31652 2.19663 0
M  V30 5041 H 486.442 -4.14616 5.07714 0
M  V30 5042 H 485.962 -4.85714 3.51911 0
M  V30 5043 H 487.641 -5.01051 4.09337 0
M  V30 5044 N 487.773 -1.03688 -1.18687 0
M  V30 5045 C 488.72 -0.624624 -2.22187 0
M  V30 5046 C 489.69 0.365636 -1.62026 0
M  V30 5047 O 490.875 0.260481 -1.89014 0
M  V30 5048 C 488.015 0.0101738 -3.45099 0
M  V30 5049 C 487.128 -1.02709 -4.19613 0
M  V30 5050 C 486.263 -0.361213 -5.2997 0
M  V30 5051 C 485.302 -1.38384 -5.96252 0
M  V30 5052 N 484.439 -0.743196 -6.98155 0
M  V30 5053 H 489.279 -1.51176 -2.56807 0
M  V30 5054 H 486.816 -0.75636 -1.26165 0
M  V30 5055 H 488.774 0.395528 -4.15321 0
M  V30 5056 H 487.404 0.860848 -3.1111 0
M  V30 5057 H 486.456 -1.53043 -3.48256 0
M  V30 5058 H 487.768 -1.80398 -4.65036 0
M  V30 5059 H 486.922 0.0785537 -6.06649 0
M  V30 5060 H 485.661 0.447799 -4.8564 0
M  V30 5061 H 484.666 -1.83378 -5.18317 0
M  V30 5062 H 485.891 -2.19448 -6.42666 0
M  V30 5063 H 483.837 0.0455789 -6.55984 0
M  V30 5064 H 483.754 -1.45784 -7.41811 0
M  V30 5065 H 485.022 -0.327698 -7.78811 0
M  V30 5066 N 489.251 1.34841 -0.815825 0
M  V30 5067 C 490.214 2.27959 -0.238185 0
M  V30 5068 C 491.214 1.49983 0.579816 0
M  V30 5069 O 492.404 1.69617 0.396953 0
M  V30 5070 C 489.536 3.34314 0.666876 0
M  V30 5071 H 490.729 2.80558 -1.05958 0
M  V30 5072 H 488.282 1.44852 -0.587156 0
M  V30 5073 H 489.017 2.86916 1.5116 0
M  V30 5074 H 488.802 3.92014 0.0819106 0
M  V30 5075 H 490.292 4.0379 1.06506 0
M  V30 5076 N 490.729 0.570148 1.46925 0
M  V30 5077 C 491.954 0.0542592 2.07329 0
M  V30 5078 C 492.379 -1.23582 1.41806 0
M  V30 5079 O 491.737 -1.74341 0.497479 0
M  V30 5080 C 491.785 -0.111175 3.60429 0
M  V30 5081 O 490.889 -1.17071 3.95434 0
M  V30 5082 H 490.23 0.0571425 0.661537 0
M  V30 5083 H 492.76 0.789516 1.88753 0
M  V30 5084 H 492.77 -0.321315 4.06733 0
M  V30 5085 H 491.445 0.831012 4.07513 0
M  V30 5086 H 490.022 -0.940029 3.60857 0
M  V30 5087 N 492.207 -1.54576 0.307264 0
M  V30 5088 C 493.154 -2.23751 -0.56604 0
M  V30 5089 C 494.124 -1.22235 -1.12462 0
M  V30 5090 O 495.309 -1.50873 -1.16799 0
M  V30 5091 C 492.449 -2.98661 -1.72903 0
M  V30 5092 C 491.562 -4.14963 -1.20124 0
M  V30 5093 C 490.697 -4.77441 -2.3286 0
M  V30 5094 C 489.736 -5.85875 -1.77247 0
M  V30 5095 N 488.873 -6.42282 -2.8358 0
M  V30 5096 H 493.713 -2.97984 0.0304578 0
M  V30 5097 H 491.25 -1.47076 0.0268015 0
M  V30 5098 H 493.208 -3.40329 -2.41313 0
M  V30 5099 H 491.838 -2.26793 -2.29706 0
M  V30 5100 H 490.89 -3.78193 -0.409198 0
M  V30 5101 H 492.202 -4.93066 -0.754171 0
M  V30 5102 H 491.356 -5.21993 -3.09205 0
M  V30 5103 H 490.095 -3.98684 -2.80896 0
M  V30 5104 H 489.1 -5.40741 -0.993926 0
M  V30 5105 H 490.325 -6.6652 -1.30107 0
M  V30 5106 H 488.271 -5.66406 -3.30939 0
M  V30 5107 H 488.188 -7.1575 -2.43388 0
M  V30 5108 H 489.456 -6.91492 -3.59804 0
M  V30 5109 N 493.685 -0.035106 -1.57561 0
M  V30 5110 C 494.913 0.652258 -1.9635 0
M  V30 5111 C 495.328 1.65317 -0.911897 0
M  V30 5112 O 494.685 1.82194 0.105657 0
M  V30 5113 C 494.736 1.35337 -3.35211 0
M  V30 5114 O 494.457 0.392548 -4.36338 0
M  V30 5115 C 495.958 2.13199 -3.88666 0
M  V30 5116 H 493.178 0.179444 -0.646561 0
M  V30 5117 H 495.722 -0.0966459 -2.04271 0
M  V30 5118 H 493.877 2.05362 -3.28489 0
M  V30 5119 H 494.291 0.891097 -5.16875 0
M  V30 5120 H 495.765 2.577 -4.88154 0
M  V30 5121 H 496.242 2.97353 -3.23231 0
M  V30 5122 H 496.848 1.48118 -3.98674 0
M  V30 5123 N 495.163 1.55791 0.238111 0
M  V30 5124 C 496.391 1.82098 0.982233 0
M  V30 5125 C 496.806 0.612025 1.78605 0
M  V30 5126 O 496.163 -0.419381 1.77616 0
M  V30 5127 C 496.214 3.0673 1.91309 0
M  V30 5128 O 495.935 4.2296 1.14179 0
M  V30 5129 C 497.436 3.45903 2.77248 0
M  V30 5130 H 494.656 0.605748 0.288635 0
M  V30 5131 H 497.2 2.02862 0.258341 0
M  V30 5132 H 495.355 2.87991 2.59114 0
M  V30 5133 H 495.769 4.93653 1.7722 0
M  V30 5134 H 497.243 4.36189 3.38295 0
M  V30 5135 H 497.72 2.66891 3.48806 0
M  V30 5136 H 498.326 3.67024 2.14881 0
M  V30 5137 N 496.642 -0.504142 1.49319 0
M  V30 5138 C 497.888 -1.26033 1.58882 0
M  V30 5139 C 498.221 -1.92268 0.273274 0
M  V30 5140 O 497.496 -1.80567 -0.72291 0
M  V30 5141 C 497.779 -2.32976 2.7458 0
M  V30 5142 C 497.632 -1.71263 4.1592 0
M  V30 5143 C 498.951 -3.34561 2.85932 0
M  V30 5144 H 496.07 -0.456863 0.578312 0
M  V30 5145 H 498.712 -0.558965 1.81592 0
M  V30 5146 H 496.862 -2.92796 2.55348 0
M  V30 5147 H 498.534 -1.15294 4.4666 0
M  V30 5148 H 496.777 -1.01686 4.21714 0
M  V30 5149 H 497.448 -2.48816 4.92742 0
M  V30 5150 H 499.924 -2.84727 3.0343 0
M  V30 5151 H 498.8 -4.06754 3.68568 0
M  V30 5152 H 499.061 -3.96695 1.95154 0
M  V30 5153 N 498.12 -1.38341 -0.754957 0
M  V30 5154 C 499.348 -1.37704 -1.54419 0
M  V30 5155 C 499.763 0.0335243 -1.8877 0
M  V30 5156 O 499.12 0.999773 -1.52679 0
M  V30 5157 C 499.171 -2.23136 -2.84416 0
M  V30 5158 O 498.892 -3.58697 -2.51531 0
M  V30 5159 C 500.393 -2.30664 -3.78562 0
M  V30 5160 H 497.613 -0.471061 -0.477852 0
M  V30 5161 H 500.157 -1.81902 -0.934446 0
M  V30 5162 H 498.312 -1.82403 -3.41772 0
M  V30 5163 H 498.726 -4.03665 -3.34896 0
M  V30 5164 H 500.2 -2.9473 -4.66732 0
M  V30 5165 H 500.677 -1.3199 -4.18898 0
M  V30 5166 H 501.283 -2.71781 -3.27131 0
M  V30 5167 N 499.598 0.982988 -1.23187 0
M  V30 5168 C 500.846 1.72052 -1.06031 0
M  V30 5169 C 501.167 1.90769 0.404019 0
M  V30 5170 O 500.437 1.47446 1.28982 0
M  V30 5171 H 499.017 0.637499 -0.389363 0
M  V30 5172 H 501.679 1.18338 -1.54862 0
M  V30 5173 H 500.775 2.7111 -1.54615 0
M  V30 5174 N 501.076 1.04316 1.18135 0
M  V30 5175 C 502.353 0.662166 1.84051 0
M  V30 5176 C 502.733 -0.858169 1.9287 0
M  V30 5177 O 502.081 -1.76062 1.45652 0
M  V30 5178 C 502.291 1.3409 3.22212 0
M  V30 5179 C 503.639 1.4733 3.9822 0
M  V30 5180 O 504.663 1.29921 3.31661 0
M  V30 5181 O 503.522 1.75722 5.17479 0
M  V30 5182 H 500.616 0.232005 0.79379 0
M  V30 5183 H 503.162 1.1422 1.25506 0
M  V30 5184 H 501.934 2.37853 3.10711 0
M  V30 5185 H 501.557 0.849649 3.88416 0
M  V30 5186 N 502.554 -1.34406 0.822964 0
M  V30 5187 C 503.501 -2.29519 0.24284 0
M  V30 5188 C 504.471 -1.5359 -0.632397 0
M  V30 5189 O 505.656 -1.8196 -0.57403 0
M  V30 5190 C 502.796 -3.40032 -0.58925 0
M  V30 5191 C 501.909 -4.30899 0.308236 0
M  V30 5192 C 501.044 -5.28515 -0.533425 0
M  V30 5193 C 500.083 -6.1102 0.363444 0
M  V30 5194 N 499.22 -7.00725 -0.439147 0
M  V30 5195 H 504.06 -2.78537 1.05929 0
M  V30 5196 H 501.597 -1.3707 0.533872 0
M  V30 5197 H 503.555 -4.0279 -1.087 0
M  V30 5198 H 502.185 -2.92248 -1.37081 0
M  V30 5199 H 501.237 -3.69002 0.924203 0
M  V30 5200 H 502.549 -4.88717 0.997862 0
M  V30 5201 H 501.703 -5.96725 -1.09565 0
M  V30 5202 H 500.442 -4.71235 -1.25656 0
M  V30 5203 H 499.447 -5.41743 0.937812 0
M  V30 5204 H 500.672 -6.70381 1.08469 0
M  V30 5205 H 498.618 -6.45913 -1.14595 0
M  V30 5206 H 498.535 -7.55756 0.19209 0
M  V30 5207 H 499.803 -7.73263 -0.984124 0
M  V30 5208 N 504.032 -0.577932 -1.46621 0
M  V30 5209 C 505.309 0.00495287 -1.95599 0
M  V30 5210 C 505.689 1.46428 -1.5206 0
M  V30 5211 O 505.037 2.1517 -0.769046 0
M  V30 5212 C 505.247 -0.162114 -3.48623 0
M  V30 5213 C 506.595 -0.0274623 -4.24591 0
M  V30 5214 O 507.619 -0.0907067 -3.56084 0
M  V30 5215 O 506.478 0.1122 -5.46385 0
M  V30 5216 H 503.572 0.0525057 -0.825332 0
M  V30 5217 H 506.118 -0.645914 -1.56927 0
M  V30 5218 H 504.89 -1.17679 -3.73185 0
M  V30 5219 H 504.513 0.525407 -3.94113 0
M  V30 5220 N 505.51 1.54411 -0.315457 0
M  V30 5221 C 506.735 2.05299 0.294496 0
M  V30 5222 C 507.16 1.19052 1.4563 0
M  V30 5223 O 506.518 0.197804 1.80218 0
M  V30 5224 C 506.566 3.5345 0.714549 0
M  V30 5225 O 505.67 3.70175 1.81781 0
M  V30 5226 H 505.011 0.661743 0.0547019 0
M  V30 5227 H 507.541 1.99327 -0.461508 0
M  V30 5228 H 507.551 3.9557 0.999426 0
M  V30 5229 H 506.226 4.1568 -0.135244 0
M  V30 5230 H 504.803 3.3996 1.53236 0
M  V30 5231 N 506.988 0.0434614 1.5754 0
M  V30 5232 C 508.234 -0.632971 1.92669 0
M  V30 5233 C 508.567 -1.70947 0.921446 0
M  V30 5234 O 507.842 -1.94426 -0.0537202 0
M  V30 5235 C 508.125 -1.23619 3.38216 0
M  V30 5236 C 507.978 -0.168274 4.49485 0
M  V30 5237 C 509.297 -2.15008 3.84005 0
M  V30 5238 H 506.416 -0.228629 0.700641 0
M  V30 5239 H 509.058 0.103651 1.89717 0
M  V30 5240 H 507.208 -1.864 3.40863 0
M  V30 5241 H 508.88 0.463196 4.58969 0
M  V30 5242 H 507.123 0.504581 4.30855 0
M  V30 5243 H 507.794 -0.630218 5.48391 0
M  V30 5244 H 510.27 -1.62198 3.83185 0
M  V30 5245 H 509.146 -2.54161 4.86511 0
M  V30 5246 H 509.407 -3.04707 3.20322 0
M  V30 5247 N 508.466 -1.55915 -0.229846 0
M  V30 5248 C 509.414 -1.9258 -1.30444 0
M  V30 5249 C 510.408 -0.806839 -1.48951 0
M  V30 5250 O 511.614 -0.991606 -1.50224 0
M  V30 5251 H 507.989 -0.611878 -0.437161 0
M  V30 5252 H 509.96 -2.82264 -0.96797 0
M  V30 5253 C 508.709 -2.25171 -2.6494 0
M  V30 5254 H 508.032 -3.10782 -2.51504 0
M  V30 5255 H 509.472 -2.54716 -3.38963 0
M  V30 5256 C 507.931 -1.07394 -3.19324 0
M  V30 5257 O 508.461 -0.330759 -4.00336 0
M  V30 5258 N 506.667 -0.859984 -2.77584 0
M  V30 5259 H 506.214 -1.46605 -2.11813 0
M  V30 5260 H 506.172 -0.0736671 -3.14314 0
M  V30 5261 N 509.944 0.496216 -1.49584 0
M  V30 5262 C 510.874 1.60576 -1.69521 0
M  V30 5263 C 511.855 1.61169 -0.543933 0
M  V30 5264 O 513.04 1.77834 -0.78031 0
M  V30 5265 C 510.17 2.99038 -1.76616 0
M  V30 5266 C 509.124 3.13312 -2.91581 0
M  V30 5267 C 508.45 4.53172 -2.83794 0
M  V30 5268 C 509.75 2.92886 -4.32452 0
M  V30 5269 H 511.444 1.44146 -2.62416 0
M  V30 5270 H 508.99 0.692024 -1.26282 0
M  V30 5271 H 510.943 3.76564 -1.8915 0
M  V30 5272 H 509.667 3.16568 -0.80324 0
M  V30 5273 H 508.326 2.38213 -2.78658 0
M  V30 5274 H 507.974 4.67585 -1.854 0
M  V30 5275 H 507.674 4.63662 -3.60958 0
M  V30 5276 H 509.198 5.32752 -2.98342 0
M  V30 5277 H 510.612 3.60178 -4.46032 0
M  V30 5278 H 509.009 3.14844 -5.10875 0
M  V30 5279 H 510.079 1.88966 -4.46565 0
M  V30 5280 N 511.423 1.38739 0.74761 0
M  V30 5281 C 512.651 1.38521 1.53686 0
M  V30 5282 C 513.066 -0.0235129 1.88785 0
M  V30 5283 O 512.423 -0.991662 1.53207 0
M  V30 5284 C 512.474 2.24641 2.83229 0
M  V30 5285 O 512.195 3.60026 2.49625 0
M  V30 5286 C 513.696 2.32669 3.77333 0
M  V30 5287 H 510.916 0.473589 0.475347 0
M  V30 5288 H 513.46 1.82395 0.924786 0
M  V30 5289 H 511.615 1.84213 3.40799 0
M  V30 5290 H 512.029 4.05435 3.3275 0
M  V30 5291 H 513.503 2.97201 4.65162 0
M  V30 5292 H 513.98 1.3421 4.18192 0
M  V30 5293 H 514.586 2.73512 3.25685 0
M  V30 5294 N 512.901 -0.976442 1.23707 0
M  V30 5295 C 514.141 -1.73331 1.08332 0
M  V30 5296 C 514.505 -1.88346 -0.372781 0
M  V30 5297 O 515.706 -2.60877 -0.647813 0
M  V30 5298 C 513.977 -3.09159 1.7932 0
M  V30 5299 S 515.536 -4.00376 1.79567 0
M  V30 5300 H 512.354 -0.596045 0.387622 0
M  V30 5301 H 514.956 -1.16625 1.56904 0
M  V30 5302 H 513.66 -2.95884 2.84395 0
M  V30 5303 H 513.191 -3.70932 1.31046 0
M  V30 5304 H 515.206 -4.88742 0.857094 0
M  V30 5305 N 514.379 -1.04941 -1.1758 0
M  V30 5306 C 515.604 -0.778253 -1.92245 0
M  V30 5307 C 516.029 0.659707 -1.76152 0
M  V30 5308 O 515.387 1.45803 -1.07755 0
M  V30 5309 C 515.435 -1.16051 -3.41416 0
M  V30 5310 O 514.539 -0.291153 -4.11371 0
M  V30 5311 H 513.88 -0.285619 -0.599431 0
M  V30 5312 H 516.41 -1.40159 -1.49052 0
M  V30 5313 H 516.42 -1.12619 -3.92149 0
M  V30 5314 H 515.095 -2.208 -3.52449 0
M  V30 5315 H 513.672 -0.385851 -3.70898 0
M  V30 5316 N 515.857 1.33968 -0.830081 0
M  V30 5317 C 517.085 2.0228 -0.434773 0
M  V30 5318 C 517.5 1.62487 0.961419 0
M  V30 5319 O 516.857 0.833849 1.62337 0
M  V30 5320 C 516.908 3.5751 -0.535625 0
M  V30 5321 O 516.629 3.95864 -1.87679 0
M  V30 5322 C 518.13 4.43091 -0.136137 0
M  V30 5323 H 515.35 0.648151 -0.173613 0
M  V30 5324 H 517.894 1.71089 -1.12022 0
M  V30 5325 H 516.049 3.87266 0.101817 0
M  V30 5326 H 516.463 4.9056 -1.85609 0
M  V30 5327 H 517.937 5.51398 -0.257772 0
M  V30 5328 H 518.414 4.29433 0.921076 0
M  V30 5329 H 519.02 4.18677 -0.747662 0
M  V30 5330 N 517.335 0.585699 1.46312 0
M  V30 5331 C 518.283 -0.158577 2.32059 0
M  V30 5332 C 519.277 -0.881427 1.44662 0
M  V30 5333 O 520.483 -0.799476 1.61271 0
M  V30 5334 H 516.858 -0.0700066 0.748734 0
M  V30 5335 H 518.829 0.583383 2.92642 0
M  V30 5336 C 517.578 -1.15701 3.27885 0
M  V30 5337 H 516.901 -0.610215 3.95116 0
M  V30 5338 H 518.341 -1.64812 3.90657 0
M  V30 5339 C 516.8 -2.21951 2.53455 0
M  V30 5340 O 517.33 -3.29352 2.29978 0
M  V30 5341 N 515.536 -1.9664 2.13965 0
M  V30 5342 H 515.083 -1.09309 2.33258 0
M  V30 5343 H 515.041 -2.6794 1.64485 0
M  V30 5344 N 518.813 -1.54241 0.323641 0
M  V30 5345 C 520.09 -1.92741 -0.333181 0
M  V30 5346 C 520.47 -1.25326 -1.69872 0
M  V30 5347 O 519.818 -0.396991 -2.25025 0
M  V30 5348 C 520.028 -3.46399 -0.425322 0
M  V30 5349 C 521.376 -4.19029 -0.68557 0
M  V30 5350 O 522.4 -3.52555 -0.50824 0
M  V30 5351 O 521.259 -5.36751 -1.02767 0
M  V30 5352 H 518.353 -0.804811 -0.190286 0
M  V30 5353 H 520.899 -1.65542 0.373361 0
M  V30 5354 H 519.671 -3.87643 0.533737 0
M  V30 5355 H 519.294 -3.79704 -1.17944 0
M  V30 5356 N 520.291 -0.0518155 -1.57515 0
M  V30 5357 C 521.519 0.631395 -1.9703 0
M  V30 5358 C 521.934 1.64341 -0.92938 0
M  V30 5359 O 521.291 1.82296 0.0863266 0
M  V30 5360 C 521.342 1.31774 -3.36627 0
M  V30 5361 O 521.063 0.346247 -4.3673 0
M  V30 5362 C 522.564 2.09065 -3.90905 0
M  V30 5363 H 519.784 0.172576 -0.648428 0
M  V30 5364 H 522.328 -0.118306 -2.04158 0
M  V30 5365 H 520.483 2.01867 -3.30649 0
M  V30 5366 H 520.897 0.836226 -5.17791 0
M  V30 5367 H 522.371 2.52508 -4.9086 0
M  V30 5368 H 522.848 2.93908 -3.26366 0
M  V30 5369 H 523.454 1.43882 -4.00223 0
M  V30 5370 N 521.769 1.56035 0.221574 0
M  V30 5371 C 523.017 1.78693 0.944102 0
M  V30 5372 C 523.338 0.620317 1.8487 0
M  V30 5373 O 522.608 -0.362784 1.92512 0
M  V30 5374 H 521.188 0.659082 0.351597 0
M  V30 5375 H 523.85 1.93497 0.233435 0
M  V30 5376 H 522.946 2.70837 1.55093 0
M  V30 5377 N 523.247 -0.488276 1.49845 0
M  V30 5378 C 524.496 -1.23826 1.59217 0
M  V30 5379 C 524.809 -1.93439 0.289966 0
M  V30 5380 O 526.015 -2.70229 0.262382 0
M  V30 5381 C 524.471 -2.24902 2.80976 0
M  V30 5382 C 524.079 -1.6117 4.18005 0
M  V30 5383 C 525.823 -3.00648 2.99685 0
M  V30 5384 C 523.73 -2.60431 5.3097 0
M  V30 5385 H 522.66 -0.465858 0.592868 0
M  V30 5386 H 525.311 -0.510645 1.76252 0
M  V30 5387 H 523.693 -3.0088 2.57463 0
M  V30 5388 H 524.867 -0.910968 4.51706 0
M  V30 5389 H 523.182 -0.97767 4.0476 0
M  V30 5390 H 525.779 -3.74903 3.81251 0
M  V30 5391 H 526.122 -3.5902 2.10738 0
M  V30 5392 H 526.655 -2.31784 3.23297 0
M  V30 5393 H 523.394 -2.06823 6.22017 0
M  V30 5394 H 522.914 -3.28707 5.01709 0
M  V30 5395 H 524.593 -3.22606 5.60834 0
M  V30 5396 N 524.725 -1.39134 -0.740242 0
M  V30 5397 C 525.95 -1.39518 -1.53459 0
M  V30 5398 C 526.375 0.00968883 -1.88098 0
M  V30 5399 O 525.733 0.995312 -1.51536 0
M  V30 5400 C 525.781 -2.26981 -2.802 0
M  V30 5401 O 524.885 -1.69609 -3.75908 0
M  V30 5402 H 524.226 -0.475328 -0.463637 0
M  V30 5403 H 526.756 -1.83064 -0.913717 0
M  V30 5404 H 526.766 -2.41309 -3.28989 0
M  V30 5405 H 525.441 -3.29081 -2.5432 0
M  V30 5406 H 524.018 -1.64495 -3.34658 0
M  V30 5407 N 526.204 0.969867 -1.24223 0
M  V30 5408 C 527.453 1.70687 -1.07466 0
M  V30 5409 C 527.766 1.91736 0.386861 0
M  V30 5410 O 528.972 2.62986 0.674581 0
M  V30 5411 C 527.428 3.07217 -1.87472 0
M  V30 5412 C 527.036 2.94018 -3.3802 0
M  V30 5413 C 528.78 3.84804 -1.79237 0
M  V30 5414 C 526.687 4.25844 -4.10379 0
M  V30 5415 H 525.617 0.640067 -0.398536 0
M  V30 5416 H 528.268 1.08092 -1.48285 0
M  V30 5417 H 526.65 3.70628 -1.39466 0
M  V30 5418 H 527.824 2.39632 -3.9359 0
M  V30 5419 H 526.139 2.29898 -3.47183 0
M  V30 5420 H 528.736 4.82417 -2.30603 0
M  V30 5421 H 529.079 4.09356 -0.757197 0
M  V30 5422 H 529.612 3.28115 -2.24912 0
M  V30 5423 H 526.351 4.06486 -5.14246 0
M  V30 5424 H 525.871 4.80054 -3.59594 0
M  V30 5425 H 527.55 4.94475 -4.17257 0
M  V30 5426 N 527.682 1.05563 1.17022 0
M  V30 5427 C 529.098 0.777684 1.39371 0
M  V30 5428 C 529.298 -0.626269 1.91521 0
M  V30 5429 O 528.354 -1.38806 2.10924 0
M  V30 5430 C 529.667 1.83642 2.3811 0
M  V30 5431 C 531.215 1.85907 2.51809 0
M  V30 5432 C 531.69 2.90813 3.53824 0
M  V30 5433 N 533.181 2.898 3.61345 0
M  V30 5434 C 533.916 3.6762 4.40049 0
M  V30 5435 N 533.412 4.55237 5.22237 0
M  V30 5436 N 535.205 3.56044 4.34959 0
M  V30 5437 H 527.356 1.9614 0.815047 0
M  V30 5438 H 529.619 0.849527 0.420722 0
M  V30 5439 H 529.325 2.84425 2.06871 0
M  V30 5440 H 529.199 1.6812 3.37662 0
M  V30 5441 H 531.586 0.857865 2.82356 0
M  V30 5442 H 531.667 2.05506 1.52318 0
M  V30 5443 H 531.311 3.91122 3.24015 0
M  V30 5444 H 531.241 2.68465 4.53028 0
M  V30 5445 H 533.732 2.26274 3.02669 0
M  V30 5446 H 534.045 5.11291 5.79484 0
M  V30 5447 H 532.39 4.59296 5.21605 0
M  V30 5448 H 535.581 2.86986 3.69806 0
M  V30 5449 H 535.754 4.16938 4.96051 0
M  V30 5450 N 529.16 -1.33526 0.837174 0
M  V30 5451 C 530.406 -1.98541 0.44193 0
M  V30 5452 C 530.761 -1.65124 -0.987517 0
M  V30 5453 O 530.054 -0.919948 -1.6807 0
M  V30 5454 C 530.248 -3.52367 0.597675 0
M  V30 5455 C 530.077 -4.00731 2.04071 0
M  V30 5456 C 528.847 -4.28649 2.67559 0
M  V30 5457 C 531.045 -4.17073 3.00923 0
M  V30 5458 N 529.027 -4.63142 4.02955 0
M  V30 5459 C 530.398 -4.54905 4.21261 0
M  V30 5460 C 532.453 -3.99358 2.97351 0
M  V30 5461 C 531.156 -4.76874 5.38501 0
M  V30 5462 C 533.182 -4.22501 4.1382 0
M  V30 5463 C 532.544 -4.60634 5.32912 0
M  V30 5464 H 528.643 -0.753246 0.210105 0
M  V30 5465 H 531.227 -1.61674 1.08488 0
M  V30 5466 H 529.398 -3.88397 -0.0154658 0
M  V30 5467 H 531.13 -4.04326 0.17404 0
M  V30 5468 H 527.885 -4.20077 2.18706 0
M  V30 5469 H 528.309 -4.84601 4.72748 0
M  V30 5470 H 532.951 -3.68993 2.06408 0
M  V30 5471 H 530.669 -5.06101 6.2999 0
M  V30 5472 H 534.255 -4.10316 4.12471 0
M  V30 5473 H 533.135 -4.78187 6.21536 0
M  V30 5474 N 530.638 -0.59345 -1.46 0
M  V30 5475 C 531.885 -0.0831523 -2.02329 0
M  V30 5476 C 532.213 1.28093 -1.46364 0
M  V30 5477 O 531.468 1.85526 -0.622793 0
M  V30 5478 C 531.767 0.021178 -3.57394 0
M  V30 5479 C 531.433 -1.27671 -4.32448 0
M  V30 5480 C 530.095 -1.63227 -4.5267 0
M  V30 5481 C 532.447 -2.13511 -4.7546 0
M  V30 5482 C 529.775 -2.84401 -5.1316 0
M  V30 5483 C 532.127 -3.33922 -5.37289 0
M  V30 5484 C 530.791 -3.69747 -5.55737 0
M  V30 5485 H 530.061 -0.0304276 -0.740375 0
M  V30 5486 H 532.708 -0.772239 -1.75239 0
M  V30 5487 H 531.013 0.793454 -3.83682 0
M  V30 5488 H 532.71 0.431942 -3.98667 0
M  V30 5489 H 529.3 -0.989937 -4.17011 0
M  V30 5490 H 533.484 -1.87344 -4.59582 0
M  V30 5491 H 528.74 -3.12282 -5.25633 0
M  V30 5492 H 532.914 -4.00698 -5.69574 0
M  V30 5493 H 530.541 -4.6373 -6.02377 0
M  V30 5494 N 532.116 1.54067 -0.331816 0
M  V30 5495 C 533.363 2.00715 0.268269 0
M  V30 5496 C 533.691 1.21986 1.51491 0
M  V30 5497 O 532.946 0.292309 1.93505 0
M  V30 5498 C 533.245 3.51634 0.639392 0
M  V30 5499 C 532.911 4.48018 -0.509019 0
M  V30 5500 C 531.573 4.74089 -0.824209 0
M  V30 5501 C 533.925 5.05237 -1.28003 0
M  V30 5502 C 531.253 5.54637 -1.91298 0
M  V30 5503 C 533.605 5.86972 -2.35895 0
M  V30 5504 C 532.269 6.11342 -2.67987 0
M  V30 5505 H 531.539 0.734469 0.0981667 0
M  V30 5506 H 534.186 1.8596 -0.457304 0
M  V30 5507 H 532.491 3.6416 1.44551 0
M  V30 5508 H 534.188 3.85175 1.11539 0
M  V30 5509 H 530.778 4.27851 -0.253287 0
M  V30 5510 H 534.962 4.8507 -1.04978 0
M  V30 5511 H 530.218 5.71747 -2.16599 0
M  V30 5512 H 534.392 6.30327 -2.96076 0
M  V30 5513 H 532.019 6.73544 -3.5248 0
M  V30 5514 N 533.594 0.0601682 1.57485 0
M  V30 5515 C 534.541 -0.91112 2.12055 0
M  V30 5516 C 535.511 -1.30298 1.03013 0
M  V30 5517 O 536.696 -1.39087 1.30612 0
M  V30 5518 C 533.836 -2.1775 2.67729 0
M  V30 5519 C 532.949 -1.83933 3.90887 0
M  V30 5520 C 532.084 -3.05096 4.34845 0
M  V30 5521 C 531.123 -2.67241 5.5068 0
M  V30 5522 N 530.26 -3.81127 5.8965 0
M  V30 5523 H 535.1 -0.43888 2.9475 0
M  V30 5524 H 532.637 -0.204995 1.45665 0
M  V30 5525 H 534.595 -2.91866 2.98111 0
M  V30 5526 H 533.225 -2.62535 1.87816 0
M  V30 5527 H 532.277 -0.999287 3.6704 0
M  V30 5528 H 533.589 -1.52074 4.75052 0
M  V30 5529 H 532.743 -3.87502 4.66827 0
M  V30 5530 H 531.482 -3.40139 3.49509 0
M  V30 5531 H 530.487 -1.83254 5.18361 0
M  V30 5532 H 531.712 -2.3338 6.37738 0
M  V30 5533 H 529.658 -4.15954 5.07266 0
M  V30 5534 H 529.575 -3.52997 6.68528 0
M  V30 5535 H 530.843 -4.64145 6.2625 0
M  V30 5536 N 535.072 -1.5615 -0.213296 0
M  V30 5537 C 536.02 -1.93953 -1.28394 0
M  V30 5538 C 537.014 -0.822592 -1.48087 0
M  V30 5539 O 538.22 -1.00748 -1.49164 0
M  V30 5540 H 534.595 -0.61648 -0.430646 0
M  V30 5541 H 536.566 -2.83275 -0.937977 0
M  V30 5542 C 535.315 -2.27969 -2.62537 0
M  V30 5543 H 534.638 -3.13432 -2.48194 0
M  V30 5544 H 536.078 -2.58297 -3.36242 0
M  V30 5545 C 534.537 -1.10775 -3.18167 0
M  V30 5546 O 535.067 -0.373201 -3.99963 0
M  V30 5547 N 533.273 -0.889377 -2.76656 0
M  V30 5548 H 532.82 -1.48843 -2.10246 0
M  V30 5549 H 532.778 -0.107 -3.14218 0
M  V30 5550 N 536.55 0.480323 -1.50102 0
M  V30 5551 C 537.482 1.59669 -1.64433 0
M  V30 5552 C 538.495 1.54063 -0.52615 0
M  V30 5553 O 539.684 1.59619 -0.798992 0
M  V30 5554 C 536.784 2.98527 -1.6042 0
M  V30 5555 C 535.957 3.291 -2.88117 0
M  V30 5556 C 535.016 4.47468 -2.76873 0
M  V30 5557 O 534.042 4.4823 -3.50825 0
M  V30 5558 N 535.244 5.48593 -1.89806 0
M  V30 5559 H 538.009 1.47795 -2.60723 0
M  V30 5560 H 535.57 0.66858 -1.4745 0
M  V30 5561 H 537.562 3.75666 -1.50523 0
M  V30 5562 H 536.132 3.04218 -0.719036 0
M  V30 5563 H 535.352 2.40662 -3.12211 0
M  V30 5564 H 536.64 3.46334 -3.72734 0
M  V30 5565 H 536.038 5.50791 -1.2902 0
M  V30 5566 H 534.595 6.24752 -1.85819 0
M  V30 5567 N 538.028 1.39524 0.732853 0
M  V30 5568 C 539.253 1.40329 1.52717 0
M  V30 5569 C 539.678 0.000286574 1.881 0
M  V30 5570 O 539.036 -0.987262 1.52062 0
M  V30 5571 C 539.084 2.28464 2.78992 0
M  V30 5572 O 538.188 1.716 3.75003 0
M  V30 5573 H 537.529 0.47778 0.461109 0
M  V30 5574 H 540.059 1.83546 0.903996 0
M  V30 5575 H 540.069 2.43051 3.27705 0
M  V30 5576 H 538.744 3.30425 2.52572 0
M  V30 5577 H 537.321 1.66267 3.33781 0
M  V30 5578 N 539.506 -0.963266 1.24736 0
M  V30 5579 C 540.436 -2.07628 1.06832 0
M  V30 5580 C 541.417 -1.70088 -0.0200566 0
M  V30 5581 O 542.602 -1.93636 0.147854 0
M  V30 5582 C 539.732 -3.40636 0.677069 0
M  V30 5583 C 538.686 -3.9215 1.71471 0
M  V30 5584 C 538.012 -5.21553 1.1784 0
M  V30 5585 C 539.312 -4.19493 3.11164 0
M  V30 5586 H 541.006 -2.22864 1.9993 0
M  V30 5587 H 538.552 -1.07093 0.96266 0
M  V30 5588 H 540.505 -4.17941 0.538792 0
M  V30 5589 H 539.229 -3.25313 -0.289612 0
M  V30 5590 H 537.888 -3.17005 1.84128 0
M  V30 5591 H 537.536 -5.02593 0.202195 0
M  V30 5592 H 537.236 -5.56988 1.87185 0
M  V30 5593 H 538.76 -6.01463 1.05233 0
M  V30 5594 H 540.174 -4.87487 3.01711 0
M  V30 5595 H 538.571 -4.66165 3.77902 0
M  V30 5596 H 539.641 -3.26097 3.58871 0
M  V30 5597 N 540.985 -1.06182 -1.16461 0
M  V30 5598 C 542.396 -0.802426 -1.68576 0
M  V30 5599 C 542.747 0.67412 -1.84255 0
M  V30 5600 O 541.872 1.52303 -1.5373 0
M  V30 5601 C 542.467 -1.45002 -3.06202 0
M  V30 5602 C 541.026 -1.23843 -3.55443 0
M  V30 5603 C 540.173 -1.52724 -2.31454 0
M  V30 5604 H 543.124 -1.22545 -1.00839 0
M  V30 5605 H 543.145 -0.864731 -3.70544 0
M  V30 5606 H 542.657 -2.52466 -2.94759 0
M  V30 5607 H 540.758 -0.183487 -3.72148 0
M  V30 5608 H 540.871 -1.95036 -4.37604 0
M  V30 5609 H 539.235 -0.947726 -2.36411 0
M  V30 5610 H 540.018 -2.61343 -2.22609 0
M  V30 5611 N 542.463 1.3308 -0.844243 0
M  V30 5612 C 543.688 2.02341 -0.455282 0
M  V30 5613 C 544.113 1.6308 0.93737 0
M  V30 5614 O 543.471 0.826118 1.61385 0
M  V30 5615 C 543.519 3.55743 -0.58988 0
M  V30 5616 O 542.623 4.1063 0.38166 0
M  V30 5617 H 541.964 0.637898 -0.184343 0
M  V30 5618 H 544.494 1.6986 -1.14056 0
M  V30 5619 H 544.504 4.05243 -0.473522 0
M  V30 5620 H 543.179 3.83662 -1.60549 0
M  V30 5621 H 541.756 3.72236 0.22241 0
M  V30 5622 N 543.941 0.601185 1.45683 0
M  V30 5623 C 545.166 0.0982245 2.07167 0
M  V30 5624 C 545.591 -1.20546 1.44396 0
M  V30 5625 O 544.949 -1.73247 0.534347 0
M  V30 5626 C 544.997 -0.0346976 3.60583 0
M  V30 5627 O 544.101 -1.08657 3.97828 0
M  V30 5628 H 543.442 0.0711618 0.660176 0
M  V30 5629 H 545.972 0.829376 1.87036 0
M  V30 5630 H 545.982 -0.234969 4.07323 0
M  V30 5631 H 544.657 0.917265 4.05659 0
M  V30 5632 H 543.234 -0.863275 3.6277 0
M  V30 5633 N 545.419 -1.53889 0.339982 0
M  V30 5634 C 546.329 -2.28604 -0.526988 0
M  V30 5635 C 547.345 -1.33578 -1.11503 0
M  V30 5636 O 548.521 -1.66612 -1.13148 0
M  V30 5637 C 545.586 -3.04164 -1.66389 0
M  V30 5638 C 544.647 -4.14809 -1.10599 0
M  V30 5639 C 543.88 -4.86756 -2.18871 0
M  V30 5640 O 544.103 -4.58343 -3.39526 0
M  V30 5641 O 543.037 -5.73289 -1.83366 0
M  V30 5642 H 546.863 -3.03594 0.0802707 0
M  V30 5643 H 544.448 -1.4903 0.105141 0
M  V30 5644 H 546.33 -3.51427 -2.32544 0
M  V30 5645 H 545.005 -2.32035 -2.25703 0
M  V30 5646 H 543.912 -3.71857 -0.409067 0
M  V30 5647 H 545.245 -4.89029 -0.557771 0
M  V30 5648 N 546.897 -0.0685191 -1.57451 0
M  V30 5649 C 548.313 0.288101 -1.56978 0
M  V30 5650 C 548.513 1.70262 -1.07765 0
M  V30 5651 O 547.569 2.4135 -0.742054 0
M  V30 5652 C 548.882 0.100745 -3.00531 0
M  V30 5653 C 550.43 0.170531 -3.12535 0
M  V30 5654 C 550.905 0.0114944 -4.57999 0
M  V30 5655 N 552.396 0.0672065 -4.63151 0
M  V30 5656 C 553.131 -0.0314813 -5.73391 0
M  V30 5657 N 552.627 -0.183503 -6.92557 0
M  V30 5658 N 554.42 0.0253489 -5.62094 0
M  V30 5659 H 546.571 -0.993026 -1.87757 0
M  V30 5660 H 548.834 -0.386981 -0.865419 0
M  V30 5661 H 548.54 -0.875197 -3.40636 0
M  V30 5662 H 548.414 0.854457 -3.67395 0
M  V30 5663 H 550.801 1.13696 -2.72318 0
M  V30 5664 H 550.882 -0.614229 -2.48316 0
M  V30 5665 H 550.526 -0.951684 -4.98904 0
M  V30 5666 H 550.456 0.815617 -5.20245 0
M  V30 5667 H 552.947 0.183246 -3.77455 0
M  V30 5668 H 553.26 -0.251041 -7.72392 0
M  V30 5669 H 551.605 -0.218822 -6.94655 0
M  V30 5670 H 554.796 0.142794 -4.67882 0
M  V30 5671 H 554.969 -0.0550166 -6.47977 0
M  V30 5672 N 548.375 1.56261 0.205012 0
M  V30 5673 C 549.308 1.88797 1.28183 0
M  V30 5674 C 550.286 0.747018 1.44424 0
M  V30 5675 O 551.47 0.997039 1.59973 0
M  V30 5676 C 548.597 2.10949 2.64987 0
M  V30 5677 C 547.643 3.33649 2.6567 0
M  V30 5678 S 548.476 4.89078 2.18088 0
M  V30 5679 C 549.632 5.14286 3.56736 0
M  V30 5680 H 549.865 2.79837 1.00393 0
M  V30 5681 H 547.398 1.48911 0.408042 0
M  V30 5682 H 549.356 2.24395 3.4374 0
M  V30 5683 H 548.017 1.20678 2.89993 0
M  V30 5684 H 547.21 3.46245 3.66239 0
M  V30 5685 H 546.812 3.19146 1.94992 0
M  V30 5686 H 549.104 5.04198 4.52537 0
M  V30 5687 H 550.047 6.16096 3.49043 0
M  V30 5688 H 550.455 4.41957 3.51189 0
M  V30 5689 N 549.853 -0.472356 1.50355 0
M  V30 5690 C 550.8 -1.57051 1.69126 0
M  V30 5691 C 551.77 -1.5733 0.532574 0
M  V30 5692 O 552.955 -1.7488 0.762994 0
M  V30 5693 C 550.095 -2.95033 1.79024 0
M  V30 5694 C 549.208 -3.04552 3.06386 0
M  V30 5695 C 548.343 -4.33441 3.07087 0
M  V30 5696 C 547.382 -4.36697 4.28908 0
M  V30 5697 N 546.519 -5.57056 4.27356 0
M  V30 5698 H 551.359 -1.40351 2.62879 0
M  V30 5699 H 548.896 -0.682403 1.30314 0
M  V30 5700 H 550.854 -3.75048 1.82744 0
M  V30 5701 H 549.484 -3.10371 0.887109 0
M  V30 5702 H 548.536 -2.17419 3.12143 0
M  V30 5703 H 549.848 -3.02818 3.96362 0
M  V30 5704 H 549.002 -5.21801 3.09529 0
M  V30 5705 H 547.741 -4.37782 2.14939 0
M  V30 5706 H 546.746 -3.46734 4.2668 0
M  V30 5707 H 547.971 -4.34049 5.22282 0
M  V30 5708 H 545.917 -5.62184 3.3806 0
M  V30 5709 H 545.834 -5.57058 5.111 0
M  V30 5710 H 547.102 -6.47545 4.33942 0
M  V30 5711 N 551.331 -1.39911 -0.725443 0
M  V30 5712 C 552.261 -1.42138 -1.85254 0
M  V30 5713 C 553.242 -0.283513 -1.67721 0
M  V30 5714 O 554.427 -0.490717 -1.87898 0
M  V30 5715 C 551.557 -1.27354 -3.23107 0
M  V30 5716 C 550.511 -2.3864 -3.55296 0
M  V30 5717 C 549.837 -2.08939 -4.92188 0
M  V30 5718 C 551.137 -3.8097 -3.57295 0
M  V30 5719 H 552.831 -2.36461 -1.83648 0
M  V30 5720 H 550.377 -1.13817 -0.882138 0
M  V30 5721 H 552.33 -1.2753 -4.01639 0
M  V30 5722 H 551.054 -0.295025 -3.25265 0
M  V30 5723 H 549.713 -2.37696 -2.79099 0
M  V30 5724 H 549.361 -1.09502 -4.90936 0
M  V30 5725 H 549.061 -2.83491 -5.14691 0
M  V30 5726 H 550.585 -2.10781 -5.73065 0
M  V30 5727 H 551.999 -3.8379 -4.25885 0
M  V30 5728 H 550.396 -4.5496 -3.9132 0
M  V30 5729 H 551.466 -4.11261 -2.5689 0
M  V30 5730 N 552.809 0.956637 -1.25245 0
M  V30 5731 C 554.034 1.74104 -1.12706 0
M  V30 5732 C 554.459 1.85436 0.315429 0
M  V30 5733 O 553.817 1.33334 1.22848 0
M  V30 5734 C 553.865 3.1338 -1.78396 0
M  V30 5735 O 552.969 3.98485 -1.06224 0
M  V30 5736 H 552.31 0.53476 -0.393609 0
M  V30 5737 H 554.84 1.19924 -1.65769 0
M  V30 5738 H 554.85 3.6385 -1.846 0
M  V30 5739 H 553.525 3.04448 -2.83345 0
M  V30 5740 H 552.102 3.56952 -1.07886 0
M  V30 5741 N 554.287 1.06798 1.15896 0
M  V30 5742 C 555.219 0.641263 2.20046 0
M  V30 5743 C 556.232 -0.303355 1.59949 0
M  V30 5744 O 557.421 -0.0935478 1.78255 0
M  V30 5745 C 554.521 -0.0794029 3.38807 0
M  V30 5746 C 553.694 0.879986 4.28457 0
M  V30 5747 C 552.753 0.197638 5.25829 0
M  V30 5748 O 551.779 0.836913 5.63014 0
M  V30 5749 N 552.981 -1.05886 5.70761 0
M  V30 5750 H 555.746 1.53718 2.57276 0
M  V30 5751 H 553.307 0.951951 1.30956 0
M  V30 5752 H 555.299 -0.546418 4.00994 0
M  V30 5753 H 553.869 -0.877193 3.0004 0
M  V30 5754 H 553.089 1.52625 3.63454 0
M  V30 5755 H 554.377 1.53065 4.8523 0
M  V30 5756 H 553.775 -1.59828 5.42652 0
M  V30 5757 H 552.332 -1.46965 6.35015 0
M  V30 5758 N 555.766 -1.3263 0.851289 0
M  V30 5759 C 557.014 -1.96978 0.452128 0
M  V30 5760 C 557.335 -1.67715 -0.99482 0
M  V30 5761 O 556.605 -0.98259 -1.69476 0
M  V30 5762 H 555.185 -0.72873 0.164202 0
M  V30 5763 H 557.847 -1.61774 1.08698 0
M  V30 5764 H 556.943 -3.06387 0.594407 0
M  V30 5765 N 557.244 -0.608902 -1.45362 0
M  V30 5766 C 558.192 0.121639 -2.32282 0
M  V30 5767 C 559.186 0.858301 -1.46046 0
M  V30 5768 O 560.392 0.773718 -1.62523 0
M  V30 5769 H 556.767 0.058086 -0.749753 0
M  V30 5770 H 558.738 -0.629866 -2.91677 0
M  V30 5771 C 557.487 1.1047 -3.29684 0
M  V30 5772 H 556.81 0.547278 -3.96036 0
M  V30 5773 H 558.25 1.58576 -3.9323 0
M  V30 5774 C 556.709 2.17891 -2.56954 0
M  V30 5775 O 557.239 3.25652 -2.35189 0
M  V30 5776 N 555.445 1.93211 -2.17066 0
M  V30 5777 H 554.992 1.05584 -2.34967 0
M  V30 5778 H 554.95 2.6529 -1.68727 0
M  V30 5779 N 558.722 1.53707 -0.348139 0
M  V30 5780 C 559.95 2.05406 0.248224 0
M  V30 5781 C 560.365 1.22282 1.43849 0
M  V30 5782 O 559.722 0.259244 1.80649 0
M  V30 5783 C 559.773 3.55446 0.658793 0
M  V30 5784 O 559.494 4.35417 -0.484149 0
M  V30 5785 C 560.995 4.23335 1.31539 0
M  V30 5786 H 558.215 0.669344 0.0471075 0
M  V30 5787 H 560.759 1.98257 -0.501456 0
M  V30 5788 H 558.914 3.62803 1.35841 0
M  V30 5789 H 559.328 5.24268 -0.155949 0
M  V30 5790 H 560.802 5.29692 1.55338 0
M  V30 5791 H 561.279 3.75967 2.27036 0
M  V30 5792 H 561.885 4.20184 0.657683 0
M  V30 5793 N 560.2 0.0768682 1.57412 0
M  V30 5794 C 561.428 -0.59997 1.9801 0
M  V30 5795 C 561.843 -1.62842 0.955408 0
M  V30 5796 O 561.2 -1.8241 -0.057314 0
M  V30 5797 C 561.251 -1.26401 3.38681 0
M  V30 5798 O 560.972 -0.276723 4.37225 0
M  V30 5799 C 562.473 -2.0282 3.94182 0
M  V30 5800 H 559.693 -0.162239 0.651091 0
M  V30 5801 H 562.237 0.150771 2.03943 0
M  V30 5802 H 560.392 -1.96581 3.33819 0
M  V30 5803 H 560.806 -0.753744 5.19056 0
M  V30 5804 H 562.28 -2.44667 4.94815 0
M  V30 5805 H 562.757 -2.88678 3.31001 0
M  V30 5806 H 563.363 -1.37496 4.02461 0
M  V30 5807 N 561.678 -1.56367 -0.196722 0
M  V30 5808 C 562.608 -1.97442 -1.24655 0
M  V30 5809 C 563.589 -0.846147 -1.47561 0
M  V30 5810 O 564.774 -1.11035 -1.59326 0
M  V30 5811 C 561.904 -2.31253 -2.59112 0
M  V30 5812 C 560.858 -3.46804 -2.50821 0
M  V30 5813 C 560.184 -3.66286 -3.89536 0
M  V30 5814 C 561.484 -4.8104 -2.03465 0
M  V30 5815 H 563.178 -2.85388 -0.905216 0
M  V30 5816 H 560.724 -1.37304 -0.434002 0
M  V30 5817 H 562.677 -2.58583 -3.32736 0
M  V30 5818 H 561.401 -1.40188 -2.94983 0
M  V30 5819 H 560.06 -3.19563 -1.79653 0
M  V30 5820 H 559.708 -2.72555 -4.22756 0
M  V30 5821 H 559.408 -4.4402 -3.84864 0
M  V30 5822 H 560.932 -3.9599 -4.64784 0
M  V30 5823 H 562.346 -5.07411 -2.66846 0
M  V30 5824 H 560.743 -5.62232 -2.09798 0
M  V30 5825 H 561.813 -4.74732 -0.98781 0
M  V30 5826 N 563.156 0.464375 -1.50603 0
M  V30 5827 C 564.381 1.24372 -1.65971 0
M  V30 5828 C 564.806 1.84901 -0.345453 0
M  V30 5829 O 564.164 1.67596 0.691457 0
M  V30 5830 C 564.212 2.32331 -2.7578 0
M  V30 5831 O 563.316 3.37146 -2.375 0
M  V30 5832 H 562.657 0.365604 -0.554283 0
M  V30 5833 H 565.187 0.55183 -1.97018 0
M  V30 5834 H 565.197 2.77539 -2.99059 0
M  V30 5835 H 563.872 1.87648 -3.71162 0
M  V30 5836 H 562.449 2.97602 -2.24694 0
M  V30 5837 N 564.634 1.40294 0.718013 0
M  V30 5838 C 565.883 1.37746 1.4734 0
M  V30 5839 C 566.196 -0.0180754 1.95592 0
M  V30 5840 O 567.402 -0.166166 2.70991 0
M  V30 5841 C 565.858 2.4208 2.66318 0
M  V30 5842 C 565.466 3.87432 2.24945 0
M  V30 5843 C 567.21 2.48635 3.44065 0
M  V30 5844 C 565.117 4.83368 3.40748 0
M  V30 5845 H 564.047 0.512165 0.553356 0
M  V30 5846 H 566.698 1.66019 0.781661 0
M  V30 5847 H 565.08 2.06903 3.3765 0
M  V30 5848 H 566.254 4.3174 1.6105 0
M  V30 5849 H 564.569 3.8433 1.60249 0
M  V30 5850 H 567.166 3.17499 4.30231 0
M  V30 5851 H 567.509 1.51611 3.87711 0
M  V30 5852 H 568.042 2.82791 2.79775 0
M  V30 5853 H 564.781 5.81716 3.02136 0
M  V30 5854 H 564.301 4.43726 4.03568 0
M  V30 5855 H 565.98 5.03074 4.06848 0
M  V30 5856 N 566.112 -0.949982 1.2575 0
M  V30 5857 C 567.06 -2.06869 1.06339 0
M  V30 5858 C 568.054 -1.69399 -0.00708901 0
M  V30 5859 O 569.26 -1.79383 0.148897 0
M  V30 5860 H 565.635 -0.677197 0.326969 0
M  V30 5861 H 567.606 -2.20396 2.01167 0
M  V30 5862 C 566.355 -3.40503 0.703769 0
M  V30 5863 H 565.678 -3.69807 1.51931 0
M  V30 5864 H 567.118 -4.19623 0.607677 0
M  V30 5865 C 565.577 -3.31685 -0.5905 0
M  V30 5866 O 566.107 -3.67085 -1.63131 0
M  V30 5867 N 564.313 -2.84797 -0.577859 0
M  V30 5868 H 563.86 -2.56186 0.26951 0
M  V30 5869 H 563.818 -2.79279 -1.44398 0
M  V30 5870 N 567.59 -1.07411 -1.15328 0
M  V30 5871 C 569.001 -0.820261 -1.67716 0
M  V30 5872 C 569.352 0.654539 -1.8496 0
M  V30 5873 O 568.477 1.50664 -1.55337 0
M  V30 5874 C 569.072 -1.48242 -3.04647 0
M  V30 5875 C 567.631 -1.27606 -3.5411 0
M  V30 5876 C 566.778 -1.5517 -2.29821 0
M  V30 5877 H 569.729 -1.23608 -0.995332 0
M  V30 5878 H 569.75 -0.903984 -3.69606 0
M  V30 5879 H 569.262 -2.55578 -2.92064 0
M  V30 5880 H 567.363 -0.222948 -3.71932 0
M  V30 5881 H 567.476 -1.99667 -4.35511 0
M  V30 5882 H 565.84 -0.972747 -2.35393 0
M  V30 5883 H 566.623 -2.63689 -2.19824 0
M  V30 5884 N 569.068 1.32177 -0.85831 0
M  V30 5885 C 570.314 1.97417 -0.46417 0
M  V30 5886 C 570.647 1.67746 0.978514 0
M  V30 5887 O 569.922 0.967654 1.68721 0
M  V30 5888 C 570.205 3.53069 -0.708094 0
M  V30 5889 C 570.058 3.92357 -2.19946 0
M  V30 5890 C 571.377 4.39783 -0.166881 0
M  V30 5891 H 568.496 0.717097 -0.17012 0
M  V30 5892 H 571.138 1.56499 -1.07741 0
M  V30 5893 H 569.288 3.88054 -0.186128 0
M  V30 5894 H 570.96 3.67533 -2.78779 0
M  V30 5895 H 569.203 3.41384 -2.67656 0
M  V30 5896 H 569.874 5.00841 -2.32082 0
M  V30 5897 H 572.35 4.11556 -0.613285 0
M  V30 5898 H 571.226 5.47671 -0.367093 0
M  V30 5899 H 571.487 4.32196 0.930559 0
M  V30 5900 N 570.547 0.616602 1.45037 0
M  V30 5901 C 571.494 -0.0969439 2.30596 0
M  V30 5902 C 572.464 -0.851151 1.42635 0
M  V30 5903 O 573.649 -0.835092 1.71554 0
M  V30 5904 C 570.789 -1.08234 3.27688 0
M  V30 5905 C 569.902 -0.328072 4.30752 0
M  V30 5906 C 569.037 -1.30399 5.14946 0
M  V30 5907 C 568.076 -0.538049 6.09731 0
M  V30 5908 N 567.213 -1.46371 6.86673 0
M  V30 5909 H 572.053 0.63864 2.91076 0
M  V30 5910 H 569.59 0.326733 1.43425 0
M  V30 5911 H 571.548 -1.66688 3.82454 0
M  V30 5912 H 570.178 -1.78523 2.68941 0
M  V30 5913 H 569.23 0.372136 3.78575 0
M  V30 5914 H 570.542 0.269142 4.98073 0
M  V30 5915 H 569.696 -1.96032 5.74157 0
M  V30 5916 H 568.435 -1.93514 4.47665 0
M  V30 5917 H 567.44 0.131852 5.49642 0
M  V30 5918 H 568.665 0.0881732 6.79043 0
M  V30 5919 H 566.611 -2.08233 6.22073 0
M  V30 5920 H 566.528 -0.920152 7.50379 0
M  V30 5921 H 567.796 -2.10932 7.50418 0
M  V30 5922 N 572.025 -1.5352 0.356285 0
M  V30 5923 C 573.441 -1.59599 0.00485267 0
M  V30 5924 C 573.641 -1.37179 -1.47595 0
M  V30 5925 O 572.697 -1.17234 -2.23635 0
M  V30 5926 C 574.01 -2.97277 0.452454 0
M  V30 5927 C 575.558 -3.10357 0.405881 0
M  V30 5928 C 576.033 -4.50432 0.829148 0
M  V30 5929 N 577.524 -4.5652 0.783838 0
M  V30 5930 C 578.259 -5.63077 1.08315 0
M  V30 5931 N 577.755 -6.77429 1.45126 0
M  V30 5932 N 579.548 -5.53014 1.00655 0
M  V30 5933 H 571.699 -1.66346 1.32071 0
M  V30 5934 H 573.962 -0.77971 0.539218 0
M  V30 5935 H 573.668 -3.18792 1.48542 0
M  V30 5936 H 573.542 -3.76836 -0.165762 0
M  V30 5937 H 575.929 -2.88558 -0.617934 0
M  V30 5938 H 576.01 -2.32828 1.05947 0
M  V30 5939 H 575.654 -4.72968 1.85103 0
M  V30 5940 H 575.584 -5.26378 0.152906 0
M  V30 5941 H 578.075 -3.74408 0.512513 0
M  V30 5942 H 578.388 -7.54669 1.66415 0
M  V30 5943 H 576.733 -6.78844 1.48983 0
M  V30 5944 H 579.924 -4.62557 0.718215 0
M  V30 5945 H 580.097 -6.35964 1.24315 0
M  V30 5946 N 573.503 -0.0852151 -1.57369 0
M  V30 5947 C 574.413 0.891712 -2.16992 0
M  V30 5948 C 575.429 1.3174 -1.13669 0
M  V30 5949 O 576.605 1.38735 -1.45995 0
M  V30 5950 C 573.67 2.13635 -2.73059 0
M  V30 5951 C 572.731 1.7658 -3.91303 0
M  V30 5952 C 571.964 2.95111 -4.44686 0
M  V30 5953 O 572.187 4.09539 -3.97032 0
M  V30 5954 O 571.121 2.74149 -5.35841 0
M  V30 5955 H 574.947 0.414477 -3.00858 0
M  V30 5956 H 572.532 0.138598 -1.48756 0
M  V30 5957 H 574.414 2.86595 -3.08935 0
M  V30 5958 H 573.089 2.6043 -1.92244 0
M  V30 5959 H 571.996 1.00831 -3.60255 0
M  V30 5960 H 573.329 1.34557 -4.7345 0
M  V30 5961 N 574.981 1.5647 0.188427 0
M  V30 5962 C 576.258 1.71857 0.934058 0
M  V30 5963 C 576.638 0.641867 2.01105 0
M  V30 5964 O 575.986 -0.346098 2.25864 0
M  V30 5965 C 576.196 3.14431 1.5144 0
M  V30 5966 C 577.544 3.74869 1.99396 0
M  V30 5967 O 578.568 3.17601 1.61269 0
M  V30 5968 O 577.427 4.75387 2.69573 0
M  V30 5969 H 574.521 0.701186 0.438483 0
M  V30 5970 H 577.067 1.68768 0.177599 0
M  V30 5971 H 575.839 3.8427 0.738416 0
M  V30 5972 H 575.462 3.21775 2.33552 0
M  V30 5973 N 576.459 -0.456382 1.50847 0
M  V30 5974 C 577.422 -1.53493 1.70213 0
M  V30 5975 C 578.422 -1.50264 0.572481 0
M  V30 5976 O 579.612 -1.52623 0.839751 0
M  V30 5977 C 576.744 -2.93091 1.741 0
M  V30 5978 H 577.937 -1.37633 2.66453 0
M  V30 5979 H 575.49 -0.683776 1.4055 0
M  V30 5980 H 576.225 -3.14378 0.796063 0
M  V30 5981 H 576.01 -2.9684 2.5618 0
M  V30 5982 H 577.5 -3.71368 1.90987 0
M  V30 5983 N 577.937 -1.40673 -0.710563 0
M  V30 5984 C 579.185 -1.38947 -1.46759 0
M  V30 5985 C 579.506 0.00572879 -1.94999 0
M  V30 5986 O 578.776 0.961358 -1.70689 0
M  V30 5987 H 577.356 -0.5114 -0.544499 0
M  V30 5988 H 580.018 -1.75773 -0.842012 0
M  V30 5989 H 579.114 -2.06745 -2.33801 0
M  V30 5990 N 579.415 0.9433 -1.26252 0
M  V30 5991 C 580.643 1.72367 -1.14443 0
M  V30 5992 C 581.058 1.86392 0.300572 0
M  V30 5993 O 580.415 1.36978 1.20596 0
M  V30 5994 C 580.466 3.13155 -1.806 0
M  V30 5995 O 580.187 2.99803 -3.19452 0
M  V30 5996 C 581.688 4.07417 -1.74717 0
M  V30 5997 H 578.908 0.539758 -0.398626 0
M  V30 5998 H 581.452 1.18268 -1.66832 0
M  V30 5999 H 579.607 3.64162 -1.32154 0
M  V30 6000 H 580.021 3.88697 -3.52158 0
M  V30 6001 H 581.495 5.03773 -2.25647 0
M  V30 6002 H 581.972 4.3337 -0.713244 0
M  V30 6003 H 582.578 3.6233 -2.22704 0
M  V30 6004 N 580.893 1.08022 1.14757 0
M  V30 6005 C 582.123 0.827646 1.89298 0
M  V30 6006 C 582.531 -0.623506 1.78631 0
M  V30 6007 O 581.874 -1.43991 1.14071 0
M  V30 6008 C 581.936 1.16553 3.40082 0
M  V30 6009 C 581.6 2.61866 3.74533 0
M  V30 6010 C 582.597 3.60116 3.74984 0
M  V30 6011 C 580.282 2.97619 4.04633 0
M  V30 6012 C 582.276 4.92151 4.05051 0
M  V30 6013 C 579.963 4.2985 4.34364 0
M  V30 6014 C 580.961 5.26926 4.34555 0
M  V30 6015 O 580.649 6.5678 4.63568 0
M  V30 6016 H 580.381 0.298396 0.606577 0
M  V30 6017 H 582.935 1.44187 1.46285 0
M  V30 6018 H 581.165 0.494296 3.83528 0
M  V30 6019 H 582.854 0.894407 3.95923 0
M  V30 6020 H 583.62 3.33837 3.51821 0
M  V30 6021 H 579.499 2.22702 4.03639 0
M  V30 6022 H 583.043 5.67915 4.05115 0
M  V30 6023 H 578.94 4.55879 4.56995 0
M  V30 6024 H 579.708 6.62035 4.81303 0
M  V30 6025 N 582.371 -1.3172 0.865308 0
M  V30 6026 C 583.617 -1.97559 0.483944 0
M  V30 6027 C 583.972 -1.67181 -0.95227 0
M  V30 6028 O 583.265 -0.955392 -1.66081 0
M  V30 6029 C 583.459 -3.5102 0.672283 0
M  V30 6030 C 583.288 -3.96312 2.12525 0
M  V30 6031 C 582.058 -4.22877 2.76591 0
M  V30 6032 C 584.256 -4.10596 3.09702 0
M  V30 6033 N 582.238 -4.5449 4.12689 0
M  V30 6034 C 583.609 -4.45867 4.30816 0
M  V30 6035 C 585.664 -3.92961 3.05755 0
M  V30 6036 C 584.367 -4.65344 5.48495 0
M  V30 6037 C 586.393 -4.13628 4.22688 0
M  V30 6038 C 585.755 -4.49227 5.42563 0
M  V30 6039 H 581.854 -0.74862 0.226035 0
M  V30 6040 H 584.438 -1.59336 1.11893 0
M  V30 6041 H 582.609 -3.88342 0.0669224 0
M  V30 6042 H 584.341 -4.03865 0.259765 0
M  V30 6043 H 581.096 -4.15343 2.27567 0
M  V30 6044 H 581.52 -4.74464 4.82921 0
M  V30 6045 H 586.162 -3.64531 2.14188 0
M  V30 6046 H 583.88 -4.92624 6.40584 0
M  V30 6047 H 587.466 -4.01474 4.21082 0
M  V30 6048 H 586.346 -4.64895 6.31539 0
M  V30 6049 N 583.85 -0.624285 -1.44708 0
M  V30 6050 C 585.09 -0.129273 -2.03991 0
M  V30 6051 C 585.454 1.22321 -1.47992 0
M  V30 6052 O 586.654 1.80993 -1.98734 0
M  V30 6053 C 584.926 -0.108231 -3.57236 0
M  V30 6054 S 586.485 0.323158 -4.37608 0
M  V30 6055 H 583.303 -0.0577318 -0.708652 0
M  V30 6056 H 585.904 -0.826139 -1.77187 0
M  V30 6057 H 584.609 -1.0958 -3.955 0
M  V30 6058 H 584.139 0.610101 -3.8864 0
M  V30 6059 H 586.154 1.56894 -4.70743 0
M  V30 6060 N 585.328 1.53329 -0.364422 0
M  V30 6061 C 586.238 2.29414 0.490552 0
M  V30 6062 C 587.254 1.35335 1.09363 0
M  V30 6063 O 588.43 1.68391 1.10483 0
M  V30 6064 C 585.495 3.06772 1.61529 0
M  V30 6065 C 584.556 4.16516 1.03986 0
M  V30 6066 C 583.789 4.90176 2.111 0
M  V30 6067 O 584.012 4.63687 3.32191 0
M  V30 6068 O 582.946 5.76134 1.74222 0
M  V30 6069 H 586.772 3.03428 -0.12856 0
M  V30 6070 H 584.357 1.48843 -0.128837 0
M  V30 6071 H 586.239 3.55082 2.26924 0
M  V30 6072 H 584.914 2.35596 2.21983 0
M  V30 6073 H 583.821 3.7246 0.349856 0
M  V30 6074 H 585.154 4.89855 0.4799 0
M  V30 6075 N 586.806 0.0935595 1.57322 0
M  V30 6076 C 588.052 -0.571355 1.94585 0
M  V30 6077 C 588.385 -1.67929 0.975366 0
M  V30 6078 O 587.66 -1.94498 0.00816206 0
M  V30 6079 C 587.943 -1.12797 3.41978 0
M  V30 6080 C 587.796 -0.0251881 4.49793 0
M  V30 6081 C 589.115 -2.02682 3.90651 0
M  V30 6082 H 586.234 -0.206223 0.70756 0
M  V30 6083 H 588.876 0.163956 1.89291 0
M  V30 6084 H 587.026 -1.75461 3.4662 0
M  V30 6085 H 588.698 0.608979 4.57263 0
M  V30 6086 H 586.941 0.641399 4.29032 0
M  V30 6087 H 587.612 -0.455433 5.50118 0
M  V30 6088 H 590.088 -1.49925 3.88152 0
M  V30 6089 H 588.964 -2.38555 4.94351 0
M  V30 6090 H 589.225 -2.94362 3.29854 0
M  V30 6091 N 588.284 -1.56567 -0.180126 0
M  V30 6092 C 589.531 -1.81492 -0.898167 0
M  V30 6093 C 589.859 -0.669225 -1.82624 0
M  V30 6094 O 589.114 0.344096 -1.92651 0
M  V30 6095 C 589.413 -3.1252 -1.73395 0
M  V30 6096 C 589.079 -4.40658 -0.955567 0
M  V30 6097 C 587.741 -4.75465 -0.740707 0
M  V30 6098 C 590.093 -5.19593 -0.408948 0
M  V30 6099 C 587.421 -5.86691 0.0320128 0
M  V30 6100 C 589.773 -6.31627 0.350638 0
M  V30 6101 C 588.437 -6.65007 0.576378 0
M  V30 6102 H 587.707 -0.664125 -0.328662 0
M  V30 6103 H 590.354 -1.908 -0.163616 0
M  V30 6104 H 588.659 -2.98515 -2.53763 0
M  V30 6105 H 590.356 -3.29013 -2.29241 0
M  V30 6106 H 586.946 -4.13352 -1.13306 0
M  V30 6107 H 591.13 -4.93104 -0.562307 0
M  V30 6108 H 586.386 -6.11016 0.216735 0
M  V30 6109 H 590.56 -6.92001 0.781497 0
M  V30 6110 H 588.187 -7.51033 1.17703 0
M  V30 6111 N 589.762 0.448376 -1.51087 0
M  V30 6112 C 590.71 1.56407 -1.72161 0
M  V30 6113 C 591.704 1.58878 -0.587721 0
M  V30 6114 O 592.91 1.62755 -0.768822 0
M  V30 6115 H 589.285 0.519423 -0.543786 0
M  V30 6116 H 591.256 1.35803 -2.65707 0
M  V30 6117 C 590.005 2.94163 -1.85373 0
M  V30 6118 H 589.328 2.9299 -2.72024 0
M  V30 6119 H 590.768 3.71625 -2.04135 0
M  V30 6120 C 589.227 3.31317 -0.610803 0
M  V30 6121 O 589.757 4.00985 0.239636 0
M  V30 6122 N 587.963 2.86966 -0.458127 0
M  V30 6123 H 587.51 2.30443 -1.15124 0
M  V30 6124 H 587.468 3.12188 0.372289 0
M  V30 6125 N 591.24 1.41047 0.703093 0
M  V30 6126 C 592.651 1.35657 1.28274 0
M  V30 6127 C 593.002 0.0360309 1.96167 0
M  V30 6128 O 592.127 -0.865833 1.98324 0
M  V30 6129 C 592.722 2.45707 2.33267 0
M  V30 6130 C 591.281 2.43738 2.86825 0
M  V30 6131 C 590.428 2.25941 1.60767 0
M  V30 6132 H 593.379 1.50672 0.49836 0
M  V30 6133 H 593.4 2.14333 3.14391 0
M  V30 6134 H 592.912 3.41805 1.83824 0
M  V30 6135 H 591.013 1.51375 3.40465 0
M  V30 6136 H 591.126 3.39779 3.37768 0
M  V30 6137 H 589.49 1.73681 1.86298 0
M  V30 6138 H 590.273 3.24054 1.1333 0
M  V30 6139 N 592.718 -0.936591 1.26751 0
M  V30 6140 C 593.967 -1.67778 1.11953 0
M  V30 6141 C 594.28 -1.92694 -0.33589 0
M  V30 6142 O 595.486 -2.64682 -0.604618 0
M  V30 6143 C 593.942 -3.02138 1.95551 0
M  V30 6144 C 593.55 -2.84953 3.45696 0
M  V30 6145 C 595.294 -3.79917 1.89377 0
M  V30 6146 C 593.201 -4.14814 4.21525 0
M  V30 6147 H 592.131 -0.629275 0.415366 0
M  V30 6148 H 594.782 -1.04122 1.51099 0
M  V30 6149 H 593.164 -3.668 1.49243 0
M  V30 6150 H 594.338 -2.29112 3.99805 0
M  V30 6151 H 592.653 -2.20612 3.53156 0
M  V30 6152 H 595.25 -4.76134 2.43312 0
M  V30 6153 H 595.593 -4.07204 0.865464 0
M  V30 6154 H 596.126 -3.22037 2.33532 0
M  V30 6155 H 592.865 -3.92709 5.24843 0
M  V30 6156 H 592.385 -4.70352 3.72195 0
M  V30 6157 H 594.064 -4.83239 4.3022 0
M  V30 6158 N 594.196 -1.08629 -1.14182 0
M  V30 6159 C 595.421 -0.83902 -1.89671 0
M  V30 6160 C 595.846 0.603332 -1.78161 0
M  V30 6161 O 595.204 1.42301 -1.12339 0
M  V30 6162 C 595.252 -1.26854 -3.37551 0
M  V30 6163 O 594.356 -0.42188 -4.10236 0
M  V30 6164 H 593.697 -0.304545 -0.590041 0
M  V30 6165 H 596.227 -1.4483 -1.44518 0
M  V30 6166 H 596.237 -1.25038 -3.88368 0
M  V30 6167 H 594.912 -2.31901 -3.45246 0
M  V30 6168 H 593.489 -0.503654 -3.69483 0
M  V30 6169 N 595.674 1.31259 -0.872281 0
M  V30 6170 C 596.621 2.28459 -0.327857 0
M  V30 6171 C 597.591 1.55831 0.574957 0
M  V30 6172 O 598.776 1.83965 0.506101 0
M  V30 6173 C 595.916 3.41985 0.462644 0
M  V30 6174 C 595.029 4.29458 -0.467949 0
M  V30 6175 C 594.164 5.30131 0.336903 0
M  V30 6176 C 593.203 6.0925 -0.58997 0
M  V30 6177 N 592.34 7.01872 0.178775 0
M  V30 6178 H 597.18 2.74414 -1.16193 0
M  V30 6179 H 594.717 1.34994 -0.584376 0
M  V30 6180 H 596.675 4.06547 0.936759 0
M  V30 6181 H 595.305 2.97134 1.2614 0
M  V30 6182 H 594.357 3.65318 -1.06052 0
M  V30 6183 H 595.669 4.84677 -1.17856 0
M  V30 6184 H 594.823 6.0038 0.873427 0
M  V30 6185 H 593.562 4.75573 1.08079 0
M  V30 6186 H 592.567 5.37889 -1.13823 0
M  V30 6187 H 593.792 6.65894 -1.33275 0
M  V30 6188 H 591.738 6.49721 0.905435 0
M  V30 6189 H 591.655 7.54522 -0.472452 0
M  V30 6190 H 592.923 7.76382 0.696454 0
M  V30 6191 N 597.152 0.631951 1.44375 0
M  V30 6192 C 598.1 -0.0846693 2.32446 0
M  V30 6193 C 599.094 -0.834957 1.47393 0
M  V30 6194 O 600.3 -0.747764 1.63733 0
M  V30 6195 H 596.675 -0.0461508 0.750583 0
M  V30 6196 H 598.646 0.67619 2.90638 0
M  V30 6197 C 597.395 -1.05211 3.314 0
M  V30 6198 H 596.718 -0.484203 3.96857 0
M  V30 6199 H 598.158 -1.523 3.95703 0
M  V30 6200 C 596.617 -2.13776 2.60387 0
M  V30 6201 O 597.147 -3.21869 2.4034 0
M  V30 6202 N 595.353 -1.89733 2.20113 0
M  V30 6203 H 594.9 -1.01833 2.36618 0
M  V30 6204 H 594.858 -2.62572 1.72926 0
M  V30 6205 N 598.631 -1.53133 0.372548 0
M  V30 6206 C 599.563 -2.23557 -0.505444 0
M  V30 6207 C 600.576 -1.25211 -1.04049 0
M  V30 6208 O 601.765 -1.51391 -0.945675 0
M  V30 6209 C 598.865 -2.92516 -1.71136 0
M  V30 6210 C 598.038 -4.17428 -1.30661 0
M  V30 6211 C 597.097 -4.69535 -2.37536 0
M  V30 6212 O 596.123 -5.33042 -1.99637 0
M  V30 6213 N 597.325 -4.47947 -3.6922 0
M  V30 6214 H 600.09 -2.9954 0.0978259 0
M  V30 6215 H 597.651 -1.60684 0.198068 0
M  V30 6216 H 599.643 -3.24281 -2.42124 0
M  V30 6217 H 598.213 -2.19944 -2.22134 0
M  V30 6218 H 597.433 -3.91888 -0.426292 0
M  V30 6219 H 598.721 -4.98622 -1.01259 0
M  V30 6220 H 598.119 -3.97219 -4.02783 0
M  V30 6221 H 596.676 -4.84245 -4.36292 0
M  V30 6222 N 600.109 -0.101901 -1.5727 0
M  V30 6223 C 601.334 0.571759 -1.99363 0
M  V30 6224 C 601.759 1.60507 -0.980768 0
M  V30 6225 O 601.117 1.81231 0.0498517 0
M  V30 6226 C 601.165 1.18996 -3.404 0
M  V30 6227 O 600.269 2.30572 -3.41922 0
M  V30 6228 H 599.61 0.144449 -0.648098 0
M  V30 6229 H 602.14 -0.185325 -2.03759 0
M  V30 6230 H 602.15 1.52962 -3.78241 0
M  V30 6231 H 600.825 0.432984 -4.1364 0
M  V30 6232 H 599.402 1.98173 -3.15883 0
M  V30 6233 N 601.587 1.56661 0.17182 0
M  V30 6234 C 602.864 1.72838 0.915778 0
M  V30 6235 C 603.244 0.66316 2.00413 0
M  V30 6236 O 602.592 -0.322123 2.26218 0
M  V30 6237 C 602.802 3.16019 1.48097 0
M  V30 6238 C 604.15 3.76962 1.95408 0
M  V30 6239 O 605.174 3.19294 1.57892 0
M  V30 6240 O 604.033 4.78219 2.64516 0
M  V30 6241 H 601.127 0.705797 0.431021 0
M  V30 6242 H 603.673 1.68947 0.159689 0
M  V30 6243 H 602.445 3.85031 0.697618 0
M  V30 6244 H 602.068 3.24234 2.30126 0
M  V30 6245 N 603.065 -0.440357 1.51323 0
M  V30 6246 C 604.476 -1.02032 1.56353 0
M  V30 6247 C 604.827 -1.92382 0.385197 0
M  V30 6248 O 603.952 -2.10583 -0.498373 0
M  V30 6249 C 604.547 -1.85723 2.83359 0
M  V30 6250 C 603.106 -2.38774 2.90971 0
M  V30 6251 C 602.253 -1.17908 2.50984 0
M  V30 6252 H 605.204 -0.221744 1.57143 0
M  V30 6253 H 605.225 -2.71141 2.66951 0
M  V30 6254 H 604.737 -1.19939 3.69102 0
M  V30 6255 H 602.838 -3.08021 2.09651 0
M  V30 6256 H 602.951 -2.71778 3.94555 0
M  V30 6257 H 601.315 -1.52347 2.04114 0
M  V30 6258 H 602.098 -0.537393 3.39068 0
M  V30 6259 N 604.543 -1.41418 -0.695603 0
M  V30 6260 C 605.792 -1.40073 -1.4513 0
M  V30 6261 C 606.105 -0.0130439 -1.95596 0
M  V30 6262 O 607.311 0.123032 -2.71221 0
M  V30 6263 C 605.767 -2.46286 -2.62433 0
M  V30 6264 C 605.375 -3.90962 -2.18753 0
M  V30 6265 C 607.119 -2.54077 -3.40066 0
M  V30 6266 C 605.026 -4.88728 -3.33015 0
M  V30 6267 H 603.956 -0.520903 -0.545138 0
M  V30 6268 H 606.607 -1.67242 -0.75515 0
M  V30 6269 H 604.989 -2.12248 -3.34315 0
M  V30 6270 H 606.163 -4.34248 -1.54161 0
M  V30 6271 H 604.478 -3.86831 -1.54114 0
M  V30 6272 H 607.075 -3.24303 -4.25125 0
M  V30 6273 H 607.418 -1.5776 -3.8525 0
M  V30 6274 H 607.951 -2.87206 -2.75241 0
M  V30 6275 H 604.69 -5.86449 -2.92844 0
M  V30 6276 H 604.21 -4.50091 -3.96457 0
M  V30 6277 H 605.889 -5.09483 -3.98793 0
M  V30 6278 N 606.021 0.929856 -1.27246 0
M  V30 6279 C 606.954 2.03069 -1.04106 0
M  V30 6280 C 607.932 1.62556 0.0378417 0
M  V30 6281 O 609.116 1.88197 -0.106869 0
M  V30 6282 C 606.243 3.33718 -0.578778 0
M  V30 6283 C 605.289 3.93209 -1.65193 0
M  V30 6284 S 606.122 4.26068 -3.24386 0
M  V30 6285 C 607.278 5.598 -2.79954 0
M  V30 6286 H 607.511 2.22386 -1.97311 0
M  V30 6287 H 605.044 1.07269 -1.11053 0
M  V30 6288 H 607.002 4.09261 -0.31874 0
M  V30 6289 H 605.663 3.12328 0.333182 0
M  V30 6290 H 604.856 4.87482 -1.27973 0
M  V30 6291 H 604.458 3.24243 -1.86393 0
M  V30 6292 H 606.75 6.39004 -2.25123 0
M  V30 6293 H 607.693 6.01917 -3.72963 0
M  V30 6294 H 608.101 5.20219 -2.19164 0
M  V30 6295 N 607.499 1.09233 1.13605 0
M  V30 6296 C 608.429 0.751738 2.21068 0
M  V30 6297 C 609.41 -0.269688 1.67948 0
M  V30 6298 O 610.595 -0.13819 1.93708 0
M  V30 6299 C 607.725 0.16935 3.46887 0
M  V30 6300 C 606.679 1.12007 4.13084 0
M  V30 6301 C 606.005 0.399483 5.33206 0
M  V30 6302 C 607.305 2.46168 4.6065 0
M  V30 6303 H 608.999 1.65024 2.49815 0
M  V30 6304 H 606.545 0.794905 1.20072 0
M  V30 6305 H 608.498 -0.0809824 4.21322 0
M  V30 6306 H 607.222 -0.764335 3.1753 0
M  V30 6307 H 605.881 1.35564 3.40614 0
M  V30 6308 H 605.529 -0.538277 5.00112 0
M  V30 6309 H 605.229 1.03337 5.78442 0
M  V30 6310 H 606.753 0.157403 6.10397 0
M  V30 6311 H 608.167 2.26829 5.26518 0
M  V30 6312 H 606.564 3.05326 5.1662 0
M  V30 6313 H 607.634 3.07076 3.75276 0
M  V30 6314 N 608.977 -1.30795 0.87923 0
M  V30 6315 C 609.925 -2.30231 0.331112 0
M  V30 6316 C 610.919 -1.59918 -0.558794 0
M  V30 6317 O 612.125 -1.74441 -0.443866 0
M  V30 6318 H 608.5 -0.746785 0.088409 0
M  V30 6319 H 610.471 -2.73925 1.18353 0
M  V30 6320 C 609.22 -3.44848 -0.444401 0
M  V30 6321 H 608.543 -3.99131 0.231106 0
M  V30 6322 H 609.983 -4.16516 -0.793109 0
M  V30 6323 C 608.442 -2.94329 -1.63926 0
M  V30 6324 O 608.972 -2.93875 -2.73862 0
M  V30 6325 N 607.178 -2.50413 -1.4745 0
M  V30 6326 H 606.725 -2.50982 -0.58015 0
M  V30 6327 H 606.683 -2.16969 -2.27534 0
M  V30 6328 N 610.455 -0.639598 -1.44038 0
M  V30 6329 C 611.701 -0.147698 -2.02261 0
M  V30 6330 C 612.034 1.23031 -1.50256 0
M  V30 6331 O 611.309 1.81847 -0.690068 0
M  V30 6332 C 611.592 -0.14362 -3.59813 0
M  V30 6333 C 611.445 -1.55458 -4.22082 0
M  V30 6334 C 612.764 0.527317 -4.36929 0
M  V30 6335 H 609.883 -0.0551453 -0.734934 0
M  V30 6336 H 612.525 -0.817688 -1.71505 0
M  V30 6337 H 610.675 0.426898 -3.86147 0
M  V30 6338 H 612.347 -2.17464 -4.06826 0
M  V30 6339 H 610.59 -2.10594 -3.79253 0
M  V30 6340 H 611.261 -1.50369 -5.31124 0
M  V30 6341 H 613.737 0.0420504 -4.16079 0
M  V30 6342 H 612.613 0.499389 -5.46624 0
M  V30 6343 H 612.874 1.59914 -4.12165 0
M  V30 6344 N 611.933 1.52934 -0.380664 0
M  V30 6345 C 612.881 2.27727 0.47361 0
M  V30 6346 C 613.875 1.31288 1.0705 0
M  V30 6347 O 615.081 1.4886 1.01197 0
M  V30 6348 H 611.456 0.732189 0.171475 0
M  V30 6349 H 613.427 2.97864 -0.178785 0
M  V30 6350 C 612.176 3.0904 1.59341 0
M  V30 6351 H 611.499 3.831 1.14343 0
M  V30 6352 H 612.939 3.64527 2.16555 0
M  V30 6353 C 611.398 2.20813 2.54447 0
M  V30 6354 O 611.928 1.82907 3.57642 0
M  V30 6355 N 610.134 1.85145 2.23986 0
M  V30 6356 H 609.681 2.16169 1.40103 0
M  V30 6357 H 609.639 1.26402 2.87871 0
M  V30 6358 N 613.412 0.11024 1.57214 0
M  V30 6359 C 614.642 -0.557025 1.98949 0
M  V30 6360 C 615.05 -1.61317 0.988606 0
M  V30 6361 O 614.393 -1.83679 -0.0279159 0
M  V30 6362 C 614.455 -1.24956 3.37085 0
M  V30 6363 C 614.119 -0.342398 4.55716 0
M  V30 6364 C 615.116 0.415511 5.18237 0
M  V30 6365 C 612.801 -0.256029 5.01647 0
M  V30 6366 C 614.795 1.24761 6.25071 0
M  V30 6367 C 612.482 0.579713 6.08344 0
M  V30 6368 C 613.48 1.33017 6.69922 0
M  V30 6369 O 613.168 2.15205 7.74559 0
M  V30 6370 H 612.9 -0.152792 0.658506 0
M  V30 6371 H 615.454 0.19076 2.04512 0
M  V30 6372 H 613.684 -2.04424 3.2825 0
M  V30 6373 H 615.373 -1.81286 3.63167 0
M  V30 6374 H 616.139 0.358605 4.83672 0
M  V30 6375 H 612.018 -0.829831 4.5347 0
M  V30 6376 H 615.562 1.83386 6.73064 0
M  V30 6377 H 611.459 0.638044 6.42339 0
M  V30 6378 H 612.227 2.08052 7.91617 0
M  V30 6379 N 614.89 -1.56749 -0.16351 0
M  V30 6380 C 615.838 -1.97939 -1.22159 0
M  V30 6381 C 616.832 -0.869288 -1.45395 0
M  V30 6382 O 618.038 -1.05443 -1.45883 0
M  V30 6383 H 614.413 -0.629869 -0.410815 0
M  V30 6384 H 616.384 -2.86115 -0.847381 0
M  V30 6385 C 615.133 -2.36206 -2.55151 0
M  V30 6386 H 614.456 -3.2117 -2.38097 0
M  V30 6387 H 615.896 -2.68863 -3.27854 0
M  V30 6388 C 614.355 -1.20841 -3.14482 0
M  V30 6389 O 614.885 -0.500258 -3.98573 0
M  V30 6390 N 613.091 -0.976943 -2.73686 0
M  V30 6391 H 612.638 -1.55457 -2.05404 0
M  V30 6392 H 612.596 -0.206912 -3.13718 0
M  V30 6393 N 616.368 0.432326 -1.51554 0
M  V30 6394 C 617.331 1.50765 -1.72634 0
M  V30 6395 C 618.331 1.49334 -0.596314 0
M  V30 6396 O 619.521 1.51268 -0.863925 0
M  V30 6397 C 616.653 2.90284 -1.7874 0
M  V30 6398 H 617.846 1.33377 -2.68609 0
M  V30 6399 H 615.399 0.661329 -1.4162 0
M  V30 6400 H 616.134 3.13071 -0.845977 0
M  V30 6401 H 615.919 2.92727 -2.6087 0
M  V30 6402 H 617.409 3.68282 -1.96871 0
M  V30 6403 N 617.846 1.41785 0.688094 0
M  V30 6404 C 618.776 1.47 1.8142 0
M  V30 6405 C 619.757 0.327881 1.6691 0
M  V30 6406 O 620.942 0.540362 1.86531 0
M  V30 6407 C 618.072 1.35876 3.19617 0
M  V30 6408 C 617.026 2.47976 3.48844 0
M  V30 6409 C 616.352 2.21915 4.86475 0
M  V30 6410 C 617.652 3.90309 3.47068 0
M  V30 6411 H 619.346 2.41247 1.77314 0
M  V30 6412 H 616.892 1.16116 0.851651 0
M  V30 6413 H 618.845 1.38134 3.98117 0
M  V30 6414 H 617.569 0.38116 3.24368 0
M  V30 6415 H 616.228 2.45013 2.72698 0
M  V30 6416 H 615.876 1.2248 4.8786 0
M  V30 6417 H 615.576 2.97037 5.06994 0
M  V30 6418 H 617.1 2.25901 5.67275 0
M  V30 6419 H 618.514 3.94947 4.1556 0
M  V30 6420 H 616.911 4.65175 3.7912 0
M  V30 6421 H 617.981 4.17927 2.45896 0
M  V30 6422 N 619.324 -0.923095 1.27737 0
M  V30 6423 C 620.735 -1.48626 1.12993 0
M  V30 6424 C 621.086 -1.94142 -0.283439 0
M  V30 6425 O 620.211 -1.81605 -1.17681 0
M  V30 6426 C 620.806 -2.70117 2.04505 0
M  V30 6427 C 619.365 -3.22642 1.93853 0
M  V30 6428 C 618.512 -1.95368 1.96791 0
M  V30 6429 H 621.463 -0.736737 1.40563 0
M  V30 6430 H 621.484 -3.4506 1.60356 0
M  V30 6431 H 620.996 -2.36959 3.07363 0
M  V30 6432 H 619.097 -3.60549 0.939968 0
M  V30 6433 H 619.21 -3.88525 2.80331 0
M  V30 6434 H 617.574 -2.12061 1.41076 0
M  V30 6435 H 618.357 -1.64517 3.01312 0
M  V30 6436 N 620.802 -1.09834 -1.13024 0
M  V30 6437 C 621.734 -0.699379 -2.18269 0
M  V30 6438 C 622.747 0.260841 -1.60697 0
M  V30 6439 O 623.936 0.0462538 -1.7844 0
M  V30 6440 C 621.036 -0.0104537 -3.38898 0
M  V30 6441 C 620.209 -0.993275 -4.25973 0
M  V30 6442 C 619.268 -0.336982 -5.2512 0
M  V30 6443 O 618.294 -0.985892 -5.60597 0
M  V30 6444 N 619.496 0.90716 -5.73368 0
M  V30 6445 H 622.261 -1.60486 -2.5311 0
M  V30 6446 H 619.822 -0.986337 -1.28386 0
M  V30 6447 H 621.814 0.43991 -4.02302 0
M  V30 6448 H 620.384 0.797335 -3.0226 0
M  V30 6449 H 619.604 -1.62208 -3.5928 0
M  V30 6450 H 620.892 -1.65876 -4.81002 0
M  V30 6451 H 620.29 1.45384 -5.46699 0
M  V30 6452 H 618.847 1.30077 -6.38689 0
M  V30 6453 N 622.28 1.30327 -0.886154 0
M  V30 6454 C 623.19 2.31854 -0.357866 0
M  V30 6455 C 624.206 1.65392 0.540502 0
M  V30 6456 O 625.382 1.96683 0.433339 0
M  V30 6457 C 622.447 3.44171 0.417999 0
M  V30 6458 C 621.508 4.26257 -0.510263 0
M  V30 6459 C 620.741 5.3321 0.228669 0
M  V30 6460 O 620.964 5.51542 1.45458 0
M  V30 6461 O 619.898 6.0042 -0.421832 0
M  V30 6462 H 623.724 2.78995 -1.19982 0
M  V30 6463 H 621.309 1.34518 -0.650028 0
M  V30 6464 H 623.191 4.12588 0.857251 0
M  V30 6465 H 621.866 2.99164 1.23623 0
M  V30 6466 H 620.773 3.60533 -0.99835 0
M  V30 6467 H 622.106 4.74871 -1.29454 0
M  V30 6468 N 623.758 0.647228 1.43697 0
M  V30 6469 C 624.706 -0.0600105 2.32523 0
M  V30 6470 C 625.7 -0.819277 1.48271 0
M  V30 6471 O 626.906 -0.730356 1.64517 0
M  V30 6472 H 623.281 -0.0381872 0.75103 0
M  V30 6473 H 625.252 0.706978 2.89904 0
M  V30 6474 C 624.001 -1.0169 3.32497 0
M  V30 6475 H 623.324 -0.442083 3.97348 0
M  V30 6476 H 624.764 -1.48095 3.97296 0
M  V30 6477 C 623.223 -2.11002 2.6264 0
M  V30 6478 O 623.753 -3.19302 2.4374 0
M  V30 6479 N 621.959 -1.87388 2.22113 0
M  V30 6480 H 621.506 -0.993174 2.37684 0
M  V30 6481 H 621.464 -2.60723 1.75701 0
M  V30 6482 N 625.236 -1.5273 0.388769 0
M  V30 6483 C 626.484 -2.01174 -0.193208 0
M  V30 6484 C 626.805 -1.27705 -1.47365 0
M  V30 6485 O 626.075 -0.396966 -1.91836 0
M  V30 6486 H 624.655 -0.743287 -0.0743871 0
M  V30 6487 H 627.317 -1.87826 0.520336 0
M  V30 6488 H 626.413 -3.09477 -0.403803 0
M  V30 6489 N 626.714 -0.118576 -1.57153 0
M  V30 6490 C 627.644 0.828436 -2.1831 0
M  V30 6491 C 628.625 1.27758 -1.12303 0
M  V30 6492 O 629.81 1.34026 -1.40537 0
M  V30 6493 C 626.94 2.07876 -2.78217 0
M  V30 6494 C 625.894 1.76742 -3.89803 0
M  V30 6495 C 625.22 3.08801 -4.36516 0
M  V30 6496 C 626.52 1.03606 -5.11921 0
M  V30 6497 H 628.214 0.318824 -2.97698 0
M  V30 6498 H 625.76 0.151911 -1.43196 0
M  V30 6499 H 627.713 2.74584 -3.19659 0
M  V30 6500 H 626.437 2.61161 -1.96118 0
M  V30 6501 H 625.096 1.12424 -3.48936 0
M  V30 6502 H 624.744 3.6002 -3.51276 0
M  V30 6503 H 624.444 2.88743 -5.11763 0
M  V30 6504 H 625.968 3.76627 -4.80608 0
M  V30 6505 H 627.382 1.60467 -5.50385 0
M  V30 6506 H 625.779 0.936454 -5.92748 0
M  V30 6507 H 626.849 0.0227421 -4.84895 0
M  V30 6508 N 628.193 1.56834 0.155195 0
M  V30 6509 C 629.418 1.87412 0.888337 0
M  V30 6510 C 629.843 0.70671 1.74319 0
M  V30 6511 O 629.201 -0.343892 1.78009 0
M  V30 6512 C 629.249 3.1652 1.72765 0
M  V30 6513 O 628.353 2.99877 2.83103 0
M  V30 6514 H 627.694 0.615983 0.247914 0
M  V30 6515 H 630.224 2.04061 0.148478 0
M  V30 6516 H 630.234 3.48334 2.12433 0
M  V30 6517 H 628.909 4.01094 1.09985 0
M  V30 6518 H 627.486 2.79453 2.46902 0
M  V30 6519 N 629.671 -0.424282 1.51781 0
M  V30 6520 C 631.082 -1.00368 1.57427 0
M  V30 6521 C 631.433 -1.91962 0.40558 0
M  V30 6522 O 630.558 -2.111 -0.47601 0
M  V30 6523 C 631.153 -1.82707 2.85313 0
M  V30 6524 C 629.712 -2.35675 2.93487 0
M  V30 6525 C 628.859 -1.1524 2.5222 0
M  V30 6526 H 631.81 -0.205064 1.5737 0
M  V30 6527 H 631.831 -2.68294 2.69812 0
M  V30 6528 H 631.343 -1.16017 3.70353 0
M  V30 6529 H 629.444 -3.05781 2.12906 0
M  V30 6530 H 629.557 -2.67578 3.97415 0
M  V30 6531 H 627.921 -1.50174 2.05718 0
M  V30 6532 H 628.704 -0.5014 3.39619 0
M  V30 6533 N 631.149 -1.42148 -0.680565 0
M  V30 6534 C 632.397 -1.42029 -1.43779 0
M  V30 6535 C 632.718 -0.0356347 -1.94967 0
M  V30 6536 O 631.988 0.924936 -1.7269 0
M  V30 6537 H 630.568 -0.522835 -0.533529 0
M  V30 6538 H 633.23 -1.7752 -0.804538 0
M  V30 6539 H 632.326 -2.11658 -2.29363 0
M  V30 6540 N 632.627 0.916307 -1.28225 0
M  V30 6541 C 633.59 1.99996 -1.11957 0
M  V30 6542 C 634.59 1.60688 -0.0600152 0
M  V30 6543 O 635.78 1.71499 -0.30558 0
M  V30 6544 C 632.912 3.33458 -0.708411 0
M  V30 6545 H 634.105 2.15858 -2.08196 0
M  V30 6546 H 631.658 1.09863 -1.11175 0
M  V30 6547 H 632.393 3.23297 0.254859 0
M  V30 6548 H 632.178 3.63349 -1.47377 0
M  V30 6549 H 633.668 4.13014 -0.617164 0
M  V30 6550 N 634.105 1.10431 1.1244 0
M  V30 6551 C 635.354 0.841539 1.83306 0
M  V30 6552 C 635.667 -0.634961 1.85007 0
M  V30 6553 O 636.873 -1.01363 2.51869 0
M  V30 6554 C 635.329 1.45565 3.29149 0
M  V30 6555 C 634.937 2.96544 3.35806 0
M  V30 6556 C 636.681 1.27227 4.04986 0
M  V30 6557 C 634.588 3.5099 4.75983 0
M  V30 6558 H 633.518 0.311156 0.686803 0
M  V30 6559 H 636.169 1.32829 1.26604 0
M  V30 6560 H 634.551 0.896574 3.85717 0
M  V30 6561 H 635.725 3.58766 2.89177 0
M  V30 6562 H 634.04 3.14036 2.73442 0
M  V30 6563 H 636.637 1.65348 5.08492 0
M  V30 6564 H 636.98 0.213834 4.1575 0
M  V30 6565 H 637.513 1.79941 3.54776 0
M  V30 6566 H 634.252 4.56499 4.70413 0
M  V30 6567 H 633.772 2.93535 5.23065 0
M  V30 6568 H 635.451 3.48808 5.44924 0
M  V30 6569 N 635.583 -1.29855 0.893053 0
M  V30 6570 C 636.546 -2.26183 0.370687 0
M  V30 6571 C 637.546 -1.53108 -0.491385 0
M  V30 6572 O 638.736 -1.71643 -0.297386 0
M  V30 6573 C 635.868 -3.37633 -0.470827 0
M  V30 6574 H 637.061 -2.73903 1.22135 0
M  V30 6575 H 634.614 -1.41183 0.67061 0
M  V30 6576 H 635.349 -2.95241 -1.34175 0
M  V30 6577 H 635.134 -3.91825 0.146784 0
M  V30 6578 H 636.624 -4.09313 -0.827825 0
M  V30 6579 N 637.061 -0.65484 -1.43351 0
M  V30 6580 C 638.309 -0.168559 -2.01396 0
M  V30 6581 C 638.63 1.22235 -1.51933 0
M  V30 6582 O 637.9 1.81685 -0.732627 0
M  V30 6583 H 636.48 -0.0593244 -0.744641 0
M  V30 6584 H 639.142 -0.846871 -1.75539 0
M  V30 6585 H 638.238 -0.154428 -3.11718 0
M  V30 6586 N 638.539 1.52521 -0.396863 0
M  V30 6587 C 639.788 2.00857 0.184184 0
M  V30 6588 C 640.101 1.28733 1.47265 0
M  V30 6589 O 641.307 1.67821 2.13421 0
M  V30 6590 C 639.763 3.57901 0.378787 0
M  V30 6591 C 639.371 4.38931 -0.896873 0
M  V30 6592 C 641.115 4.14504 0.915789 0
M  V30 6593 C 639.022 5.87591 -0.670133 0
M  V30 6594 H 637.952 0.750496 0.0726055 0
M  V30 6595 H 640.603 1.75965 -0.520425 0
M  V30 6596 H 638.985 3.79072 1.14543 0
M  V30 6597 H 640.159 4.29524 -1.66872 0
M  V30 6598 H 638.474 3.93586 -1.35938 0
M  V30 6599 H 641.071 5.23236 1.10126 0
M  V30 6600 H 641.414 3.71076 1.88701 0
M  V30 6601 H 641.947 3.97253 0.208523 0
M  V30 6602 H 638.686 6.35355 -1.61257 0
M  V30 6603 H 638.206 5.99767 0.0626368 0
M  V30 6604 H 639.885 6.46268 -0.307577 0
M  V30 6605 N 640.017 0.126909 1.57088 0
M  V30 6606 C 641.263 -0.529952 1.95753 0
M  V30 6607 C 641.596 -1.65823 1.01077 0
M  V30 6608 O 640.871 -1.94437 0.0494162 0
M  V30 6609 C 641.154 -1.05517 3.44294 0
M  V30 6610 C 641.007 0.0702253 4.49745 0
M  V30 6611 C 642.326 -1.9435 3.94862 0
M  V30 6612 H 639.445 -0.191168 0.711775 0
M  V30 6613 H 642.087 0.204071 1.88901 0
M  V30 6614 H 640.237 -1.68069 3.50264 0
M  V30 6615 H 641.909 0.705834 4.55868 0
M  V30 6616 H 640.152 0.732259 4.27575 0
M  V30 6617 H 640.823 -0.338642 5.5096 0
M  V30 6618 H 643.299 -1.41658 3.91244 0
M  V30 6619 H 642.175 -2.28015 4.993 0
M  V30 6620 H 642.436 -2.87299 3.36024 0
M  V30 6621 N 641.495 -1.56914 -0.146875 0
M  V30 6622 C 642.744 -1.82546 -0.857898 0
M  V30 6623 C 643.057 -0.708169 -1.8233 0
M  V30 6624 O 644.263 -0.850093 -2.57848 0
M  V30 6625 C 642.719 -3.23548 -1.57623 0
M  V30 6626 C 642.327 -4.43212 -0.653224 0
M  V30 6627 C 644.071 -3.58453 -2.27402 0
M  V30 6628 C 641.978 -5.75237 -1.37318 0
M  V30 6629 H 640.908 -0.680786 -0.32411 0
M  V30 6630 H 643.559 -1.83166 -0.110639 0
M  V30 6631 H 641.941 -3.17315 -2.36912 0
M  V30 6632 H 643.115 -4.60682 0.104452 0
M  V30 6633 H 641.43 -4.16351 -0.0638336 0
M  V30 6634 H 644.027 -4.54349 -2.81907 0
M  V30 6635 H 644.37 -2.84516 -3.03901 0
M  V30 6636 H 644.903 -3.66347 -1.55032 0
M  V30 6637 H 641.642 -6.52269 -0.650041 0
M  V30 6638 H 641.162 -5.61703 -2.10357 0
M  V30 6639 H 642.841 -6.18039 -1.91406 0
M  V30 6640 N 642.974 0.416227 -1.52004 0
M  V30 6641 C 644.222 1.16153 -1.65387 0
M  V30 6642 C 644.543 1.91208 -0.382669 0
M  V30 6643 O 643.813 1.86413 0.602231 0
M  V30 6644 H 642.393 0.431765 -0.60958 0
M  V30 6645 H 645.055 0.475151 -1.89019 0
M  V30 6646 H 644.151 1.87952 -2.4916 0
M  V30 6647 N 644.452 1.42507 0.673017 0
M  V30 6648 C 645.698 1.43284 1.43519 0
M  V30 6649 C 646.031 0.049668 1.94136 0
M  V30 6650 O 645.306 -0.926369 1.71022 0
M  V30 6651 C 645.589 2.45874 2.63093 0
M  V30 6652 C 645.442 3.93388 2.18096 0
M  V30 6653 C 646.761 2.45431 3.6531 0
M  V30 6654 H 643.88 0.521752 0.520522 0
M  V30 6655 H 646.522 1.73932 0.764701 0
M  V30 6656 H 644.672 2.19869 3.20296 0
M  V30 6657 H 646.344 4.30379 1.66046 0
M  V30 6658 H 644.587 4.07169 1.49652 0
M  V30 6659 H 645.258 4.60752 3.03993 0
M  V30 6660 H 647.734 2.68561 3.17827 0
M  V30 6661 H 646.61 3.19189 4.46553 0
M  V30 6662 H 646.871 1.48092 4.16559 0
M  V30 6663 N 645.93 -0.909495 1.28709 0
M  V30 6664 C 647.176 -1.66151 1.16283 0
M  V30 6665 C 647.509 -1.92067 -0.287069 0
M  V30 6666 O 646.784 -1.52409 -1.20837 0
M  V30 6667 C 647.067 -3.01676 1.9663 0
M  V30 6668 C 646.92 -2.82888 3.49707 0
M  V30 6669 C 648.239 -4.02274 1.78504 0
M  V30 6670 H 645.358 -0.602966 0.423793 0
M  V30 6671 H 648 -1.05418 1.58073 0
M  V30 6672 H 646.15 -3.53515 1.61119 0
M  V30 6673 H 647.822 -2.38026 3.95147 0
M  V30 6674 H 646.065 -2.17862 3.75125 0
M  V30 6675 H 646.736 -3.79147 4.01187 0
M  V30 6676 H 649.212 -3.59511 2.09503 0
M  V30 6677 H 648.088 -4.95056 2.37088 0
M  V30 6678 H 648.349 -4.35903 0.737647 0
M  V30 6679 N 647.408 -1.11026 -1.11852 0
M  V30 6680 C 648.371 -0.768006 -2.1595 0
M  V30 6681 C 649.371 0.210538 -1.59416 0
M  V30 6682 O 650.561 -0.0133978 -1.74195 0
M  V30 6683 C 647.693 -0.138678 -3.40618 0
M  V30 6684 H 648.886 -1.69012 -2.4774 0
M  V30 6685 H 646.439 -0.911578 -1.26964 0
M  V30 6686 H 647.174 0.793872 -3.14433 0
M  V30 6687 H 646.959 -0.843012 -3.8293 0
M  V30 6688 H 648.449 0.0848039 -4.17514 0
M  V30 6689 N 648.886 1.2938 -0.899927 0
M  V30 6690 C 649.816 2.30144 -0.39446 0
M  V30 6691 C 650.797 1.61611 0.530639 0
M  V30 6692 O 651.982 1.89119 0.441319 0
M  V30 6693 C 649.112 3.45229 0.37868 0
M  V30 6694 C 648.066 4.25564 -0.456012 0
M  V30 6695 C 647.392 5.32848 0.444637 0
M  V30 6696 C 648.692 4.93651 -1.70605 0
M  V30 6697 H 650.386 2.72673 -1.23653 0
M  V30 6698 H 647.932 1.31086 -0.596034 0
M  V30 6699 H 649.885 4.14797 0.743037 0
M  V30 6700 H 648.609 3.01545 1.25453 0
M  V30 6701 H 647.268 3.57704 -0.802704 0
M  V30 6702 H 646.916 4.85408 1.31863 0
M  V30 6703 H 646.616 5.87497 -0.110154 0
M  V30 6704 H 648.14 6.05268 0.805182 0
M  V30 6705 H 649.554 5.55655 -1.41141 0
M  V30 6706 H 647.951 5.58233 -2.20217 0
M  V30 6707 H 649.021 4.18926 -2.4419 0
M  V30 6708 N 650.364 0.662433 1.43002 0
M  V30 6709 C 651.61 0.179857 2.02001 0
M  V30 6710 C 651.943 -1.20625 1.52195 0
M  V30 6711 O 651.218 -1.80726 0.718911 0
M  V30 6712 C 651.501 0.200845 3.59539 0
M  V30 6713 C 651.354 1.62153 4.19555 0
M  V30 6714 C 652.673 -0.457738 4.37713 0
M  V30 6715 H 649.792 0.0668305 0.733964 0
M  V30 6716 H 652.434 0.84487 1.70182 0
M  V30 6717 H 650.584 -0.365411 3.86778 0
M  V30 6718 H 652.256 2.23908 4.03315 0
M  V30 6719 H 650.499 2.16601 3.75854 0
M  V30 6720 H 651.17 1.58799 5.28665 0
M  V30 6721 H 653.646 0.0241495 4.16093 0
M  V30 6722 H 652.522 -0.412363 5.47349 0
M  V30 6723 H 652.783 -1.53336 4.14657 0
M  V30 6724 N 651.842 -1.52309 0.404946 0
M  V30 6725 C 652.805 -2.25491 -0.410651 0
M  V30 6726 C 653.805 -1.27704 -0.977154 0
M  V30 6727 O 654.995 -1.51679 -0.856691 0
M  V30 6728 C 652.127 -3.02197 -1.57765 0
M  V30 6729 H 653.32 -2.99015 0.230277 0
M  V30 6730 H 650.873 -1.55506 0.157377 0
M  V30 6731 H 651.608 -2.33013 -2.25556 0
M  V30 6732 H 651.393 -3.73987 -1.17797 0
M  V30 6733 H 652.883 -3.57719 -2.15469 0
M  V30 6734 N 653.32 -0.135238 -1.57019 0
M  V30 6735 C 654.25 0.805235 -2.19176 0
M  V30 6736 C 655.231 1.2656 -1.13651 0
M  V30 6737 O 656.416 1.32528 -1.4195 0
M  V30 6738 C 653.546 2.04914 -2.80406 0
M  V30 6739 C 652.5 1.72598 -3.91655 0
M  V30 6740 C 651.826 3.04154 -4.39766 0
M  V30 6741 C 653.126 0.981709 -5.12991 0
M  V30 6742 H 654.82 0.287232 -2.98019 0
M  V30 6743 H 652.366 0.136714 -1.4335 0
M  V30 6744 H 654.319 2.71178 -3.22553 0
M  V30 6745 H 653.043 2.59067 -1.98877 0
M  V30 6746 H 651.702 1.08717 -3.50109 0
M  V30 6747 H 651.35 3.56274 -3.55075 0
M  V30 6748 H 651.05 2.83299 -5.14796 0
M  V30 6749 H 652.574 3.71509 -4.84576 0
M  V30 6750 H 653.988 1.5462 -5.52056 0
M  V30 6751 H 652.385 0.873533 -5.93708 0
M  V30 6752 H 653.455 -0.0286887 -4.84892 0
M  V30 6753 N 654.798 1.5699 0.138552 0
M  V30 6754 C 656.047 1.82998 0.848205 0
M  V30 6755 C 656.36 0.717829 1.81952 0
M  V30 6756 O 657.566 0.863756 2.57394 0
M  V30 6757 C 656.022 3.24379 1.55904 0
M  V30 6758 C 655.63 4.43552 0.62971 0
M  V30 6759 C 657.374 3.59654 2.25498 0
M  V30 6760 C 655.281 5.75957 1.34266 0
M  V30 6761 H 654.211 0.682495 0.320495 0
M  V30 6762 H 656.862 1.83222 0.100924 0
M  V30 6763 H 655.244 3.18567 2.35226 0
M  V30 6764 H 656.418 4.6062 -0.128882 0
M  V30 6765 H 654.733 4.16379 0.0417526 0
M  V30 6766 H 657.33 4.55837 2.79493 0
M  V30 6767 H 657.673 2.86124 3.02388 0
M  V30 6768 H 658.206 3.67164 1.53087 0
M  V30 6769 H 654.945 6.52604 0.615441 0
M  V30 6770 H 654.465 5.62811 2.07375 0
M  V30 6771 H 656.144 6.19046 1.88126 0
M  V30 6772 N 656.276 -0.40816 1.52223 0
M  V30 6773 C 657.239 -1.48 1.7501 0
M  V30 6774 C 658.239 -1.48367 0.619996 0
M  V30 6775 O 659.429 -1.49874 0.887881 0
M  V30 6776 C 656.561 -2.87403 1.83336 0
M  V30 6777 H 657.754 -1.29086 2.70697 0
M  V30 6778 H 655.307 -0.638715 1.42654 0
M  V30 6779 H 656.042 -3.11686 0.895677 0
M  V30 6780 H 655.827 -2.8854 2.65494 0
M  V30 6781 H 657.317 -3.65103 2.02705 0
M  V30 6782 N 657.755 -1.42862 -0.66545 0
M  V30 6783 C 659.001 -1.44043 -1.42757 0
M  V30 6784 C 659.334 -0.0599629 -1.94107 0
M  V30 6785 O 658.609 0.917286 -1.71511 0
M  V30 6786 C 658.892 -2.47266 -2.61786 0
M  V30 6787 C 658.745 -3.94539 -2.16007 0
M  V30 6788 C 660.064 -2.47365 -3.64003 0
M  V30 6789 H 657.183 -0.524506 -0.517748 0
M  V30 6790 H 659.825 -1.74335 -0.755466 0
M  V30 6791 H 657.975 -2.21565 -3.19126 0
M  V30 6792 H 659.647 -4.31254 -1.63762 0
M  V30 6793 H 657.89 -4.07957 -1.47491 0
M  V30 6794 H 658.561 -4.62357 -3.01546 0
M  V30 6795 H 661.037 -2.70243 -3.16399 0
M  V30 6796 H 659.913 -3.21552 -4.44854 0
M  V30 6797 H 660.174 -1.50299 -4.15767 0
M  V30 6798 N 659.233 0.902656 -1.29189 0
M  V30 6799 C 660.196 1.98797 -1.14071 0
M  V30 6800 C 661.196 1.60615 -0.0770549 0
M  V30 6801 O 662.386 1.71165 -0.323753 0
M  V30 6802 C 659.518 3.32688 -0.743739 0
M  V30 6803 H 660.711 2.13637 -2.10473 0
M  V30 6804 H 658.264 1.08678 -1.12334 0
M  V30 6805 H 658.999 3.23549 0.220554 0
M  V30 6806 H 658.784 3.61765 -1.51223 0
M  V30 6807 H 660.274 4.12337 -0.660935 0
M  V30 6808 N 660.711 1.11618 1.11262 0
M  V30 6809 C 661.641 0.79846 2.19424 0
M  V30 6810 C 662.622 -0.234003 1.68483 0
M  V30 6811 O 663.807 -0.0970704 1.93957 0
M  V30 6812 C 660.937 0.242892 3.4645 0
M  V30 6813 C 659.891 1.20744 4.10615 0
M  V30 6814 C 659.217 0.512494 5.32238 0
M  V30 6815 C 660.517 2.55884 4.55325 0
M  V30 6816 H 662.211 1.70286 2.46258 0
M  V30 6817 H 659.757 0.820195 1.18359 0
M  V30 6818 H 661.71 0.00840447 4.21399 0
M  V30 6819 H 660.434 -0.696811 3.1908 0
M  V30 6820 H 659.093 1.42759 3.37662 0
M  V30 6821 H 658.741 -0.432075 5.01141 0
M  V30 6822 H 658.441 1.15583 5.7612 0
M  V30 6823 H 659.965 0.286842 6.09926 0
M  V30 6824 H 661.379 2.37946 5.21588 0
M  V30 6825 H 659.776 3.16216 5.10027 0
M  V30 6826 H 660.846 3.14968 3.68678 0
M  V30 6827 N 662.189 -1.289 0.906776 0
M  V30 6828 C 663.152 -2.25777 0.394656 0
M  V30 6829 C 664.152 -1.53621 -0.475119 0
M  V30 6830 O 665.342 -1.71949 -0.279165 0
M  V30 6831 C 662.474 -3.38113 -0.43499 0
M  V30 6832 H 663.667 -2.72592 1.25033 0
M  V30 6833 H 661.22 -1.40463 0.685547 0
M  V30 6834 H 661.955 -2.96648 -1.31036 0
M  V30 6835 H 661.74 -3.91647 0.188334 0
M  V30 6836 H 663.23 -4.10168 -0.784365 0
M  V30 6837 N 663.667 -0.670007 -1.42649 0
M  V30 6838 C 664.907 -0.194106 -2.03476 0
M  V30 6839 C 665.271 1.1755 -1.51809 0
M  V30 6840 O 666.472 1.74579 -2.04391 0
M  V30 6841 C 664.743 -0.221828 -3.56711 0
M  V30 6842 S 666.302 0.183772 -4.38415 0
M  V30 6843 H 663.12 -0.0802478 -0.706457 0
M  V30 6844 H 665.722 -0.882092 -1.74469 0
M  V30 6845 H 664.426 -1.22107 -3.91814 0
M  V30 6846 H 663.957 0.486149 -3.90385 0
M  V30 6847 H 665.972 1.41839 -4.75496 0
M  V30 6848 N 665.145 1.52092 -0.413018 0
M  V30 6849 C 666.392 2.01855 0.161497 0
M  V30 6850 C 666.72 1.29845 1.44812 0
M  V30 6851 O 665.975 0.394471 1.91683 0
M  V30 6852 C 666.274 3.54529 0.4521 0
M  V30 6853 C 665.94 4.4469 -0.745788 0
M  V30 6854 C 664.602 4.69053 -1.07435 0
M  V30 6855 C 666.954 4.97742 -1.54604 0
M  V30 6856 C 664.282 5.43717 -2.20429 0
M  V30 6857 C 666.634 5.73642 -2.66678 0
M  V30 6858 C 665.298 5.96277 -3.00016 0
M  V30 6859 H 664.568 0.73864 0.0590961 0
M  V30 6860 H 667.215 1.83274 -0.555234 0
M  V30 6861 H 665.52 3.7131 1.25045 0
M  V30 6862 H 667.217 3.90546 0.909647 0
M  V30 6863 H 663.807 4.25907 -0.479725 0
M  V30 6864 H 667.991 4.78824 -1.30543 0
M  V30 6865 H 663.247 5.59462 -2.46602 0
M  V30 6866 H 667.421 6.13746 -3.29072 0
M  V30 6867 H 665.048 6.53913 -3.87688 0
M  V30 6868 N 666.623 0.143563 1.56945 0
M  V30 6869 C 667.553 -0.7936 2.196 0
M  V30 6870 C 668.534 -1.25955 1.14321 0
M  V30 6871 O 669.719 -1.31773 1.42651 0
M  V30 6872 C 666.849 -2.03424 2.81489 0
M  V30 6873 C 665.803 -1.70519 3.92565 0
M  V30 6874 C 665.129 -3.01817 4.41373 0
M  V30 6875 C 666.429 -0.95449 5.13504 0
M  V30 6876 H 668.123 -0.271423 2.98167 0
M  V30 6877 H 665.669 -0.12911 1.4342 0
M  V30 6878 H 667.622 -2.69463 3.23987 0
M  V30 6879 H 666.346 -2.58008 2.00248 0
M  V30 6880 H 665.005 -1.06859 3.5068 0
M  V30 6881 H 664.653 -3.54386 3.56959 0
M  V30 6882 H 664.353 -2.80565 5.16292 0
M  V30 6883 H 665.877 -3.68934 4.86539 0
M  V30 6884 H 667.291 -1.5169 5.52868 0
M  V30 6885 H 665.688 -0.842035 5.94163 0
M  V30 6886 H 666.758 0.0544033 4.84869 0
M  V30 6887 N 668.101 -1.57061 -0.130224 0
M  V30 6888 C 669.051 -1.95941 -1.16582 0
M  V30 6889 C 670.035 -0.832858 -1.37667 0
M  V30 6890 O 671.227 -1.09647 -1.38948 0
M  V30 6891 C 668.356 -2.35777 -2.49528 0
M  V30 6892 C 667.442 -3.5504 -2.31964 0
M  V30 6893 N 667.833 -4.71071 -1.84189 0
M  V30 6894 C 666.131 -3.60453 -2.62659 0
M  V30 6895 C 666.832 -5.53128 -1.80068 0
M  V30 6896 N 665.808 -4.95303 -2.24001 0
M  V30 6897 H 669.61 -2.83117 -0.788806 0
M  V30 6898 H 667.124 -1.58842 -0.3381 0
M  V30 6899 H 669.121 -2.61843 -3.24413 0
M  V30 6900 H 667.781 -1.49961 -2.87996 0
M  V30 6901 H 668.792 -4.94504 -1.53903 0
M  V30 6902 H 665.469 -2.85217 -3.0489 0
M  V30 6903 H 666.859 -6.56182 -1.4448 0
M  V30 6904 N 669.579 0.400081 -1.52437 0
M  V30 6905 C 670.826 1.14619 -1.6694 0
M  V30 6906 C 671.154 1.90262 -0.403797 0
M  V30 6907 O 670.409 1.85835 0.61351 0
M  V30 6908 C 670.708 2.15914 -2.84808 0
M  V30 6909 C 670.374 1.57011 -4.2268 0
M  V30 6910 C 669.036 1.40672 -4.60179 0
M  V30 6911 C 671.388 1.14081 -5.08562 0
M  V30 6912 C 668.716 0.799335 -5.81229 0
M  V30 6913 C 671.068 0.547573 -6.30226 0
M  V30 6914 C 669.732 0.371389 -6.66466 0
M  V30 6915 H 669.002 0.419419 -0.610875 0
M  V30 6916 H 671.649 0.432227 -1.86558 0
M  V30 6917 H 669.954 2.93488 -2.59561 0
M  V30 6918 H 671.651 2.73533 -2.93225 0
M  V30 6919 H 668.241 1.70713 -3.93135 0
M  V30 6920 H 672.425 1.2551 -4.80168 0
M  V30 6921 H 667.681 0.65093 -6.07925 0
M  V30 6922 H 671.855 0.206575 -6.96094 0
M  V30 6923 H 669.482 -0.10135 -7.60132 0
M  V30 6924 N 671.057 1.43213 0.657864 0
M  V30 6925 C 672.305 1.44298 1.41501 0
M  V30 6926 C 672.626 0.0666478 1.94886 0
M  V30 6927 O 671.896 -0.897345 1.74139 0
M  V30 6928 H 670.476 0.531257 0.525143 0
M  V30 6929 H 673.138 1.78777 0.776195 0
M  V30 6930 H 672.234 2.1528 2.25966 0
M  V30 6931 N 672.536 -0.895792 1.29666 0
M  V30 6932 C 673.483 -2.00035 1.15129 0
M  V30 6933 C 674.453 -1.66043 0.0435819 0
M  V30 6934 O 675.638 -1.89621 0.211811 0
M  V30 6935 C 672.778 -3.34774 0.83787 0
M  V30 6936 C 671.891 -3.81525 2.0264 0
M  V30 6937 C 671.026 -5.04858 1.65201 0
M  V30 6938 C 670.065 -5.43988 2.80612 0
M  V30 6939 N 669.202 -6.58507 2.43544 0
M  V30 6940 H 674.042 -2.11802 2.09628 0
M  V30 6941 H 671.579 -1.03719 1.04311 0
M  V30 6942 H 673.537 -4.12311 0.636824 0
M  V30 6943 H 672.167 -3.22724 -0.0702314 0
M  V30 6944 H 671.219 -2.9999 2.33903 0
M  V30 6945 H 672.531 -4.06472 2.89106 0
M  V30 6946 H 671.685 -5.8999 1.41408 0
M  V30 6947 H 670.424 -4.81759 0.758893 0
M  V30 6948 H 669.429 -4.57388 3.05083 0
M  V30 6949 H 670.654 -5.69066 3.70595 0
M  V30 6950 H 668.6 -6.37004 1.56724 0
M  V30 6951 H 668.517 -6.83269 3.23542 0
M  V30 6952 H 669.785 -7.46897 2.2308 0
M  V30 6953 N 674.014 -1.12206 -1.10668 0
M  V30 6954 C 675.242 -0.898635 -1.86366 0
M  V30 6955 C 675.657 0.551991 -1.80551 0
M  V30 6956 O 675.014 1.38152 -1.19249 0
M  V30 6957 C 675.065 -1.36199 -3.34861 0
M  V30 6958 O 674.786 -2.75576 -3.40573 0
M  V30 6959 C 676.287 -1.17515 -4.2744 0
M  V30 6960 H 673.507 -0.321281 -0.589084 0
M  V30 6961 H 676.051 -1.49142 -1.39918 0
M  V30 6962 H 674.206 -0.81249 -3.78784 0
M  V30 6963 H 674.62 -2.95851 -4.33096 0
M  V30 6964 H 676.094 -1.54827 -5.29842 0
M  V30 6965 H 676.571 -0.115486 -4.39048 0
M  V30 6966 H 677.177 -1.71203 -3.89319 0
M  V30 6967 N 675.492 1.28418 -0.913599 0
M  V30 6968 C 676.74 1.94596 -0.545594 0
M  V30 6969 C 677.061 1.7227 0.913668 0
M  V30 6970 O 676.331 1.06233 1.64595 0
M  V30 6971 H 674.911 0.720065 -0.198783 0
M  V30 6972 H 677.573 1.56404 -1.16292 0
M  V30 6973 H 676.669 3.03202 -0.739911 0
M  V30 6974 N 676.97 0.677563 1.42291 0
M  V30 6975 C 678.386 0.347376 1.55774 0
M  V30 6976 C 678.586 -1.14703 1.65667 0
M  V30 6977 O 677.642 -1.93252 1.62512 0
M  V30 6978 C 678.955 1.08011 2.80631 0
M  V30 6979 C 680.503 1.06271 2.94407 0
M  V30 6980 C 680.978 1.77683 4.22129 0
M  V30 6981 N 682.469 1.74564 4.29047 0
M  V30 6982 C 683.204 2.26673 5.26694 0
M  V30 6983 N 682.7 2.87176 6.30477 0
M  V30 6984 N 684.493 2.17032 5.18511 0
M  V30 6985 H 676.644 1.64703 1.34114 0
M  V30 6986 H 678.907 0.694038 0.645768 0
M  V30 6987 H 678.613 2.13518 2.79469 0
M  V30 6988 H 678.487 0.647115 3.71608 0
M  V30 6989 H 680.874 0.0159658 2.95096 0
M  V30 6990 H 680.955 1.53461 2.04654 0
M  V30 6991 H 680.599 2.82327 4.22201 0
M  V30 6992 H 680.529 1.2794 5.10822 0
M  V30 6993 H 683.02 1.30436 3.54676 0
M  V30 6994 H 683.333 3.24551 7.01346 0
M  V30 6995 H 681.678 2.91247 6.31031 0
M  V30 6996 H 684.869 1.69451 4.36353 0
M  V30 6997 H 685.042 2.57948 5.94446 0
M  V30 6998 N 678.448 -1.51871 0.421078 0
M  V30 6999 C 679.411 -2.25914 -0.386712 0
M  V30 7000 C 680.411 -1.28733 -0.963555 0
M  V30 7001 O 681.601 -1.52579 -0.840556 0
M  V30 7002 C 678.733 -3.03853 -1.54551 0
M  V30 7003 H 679.926 -2.98754 0.261978 0
M  V30 7004 H 677.479 -1.5533 0.173862 0
M  V30 7005 H 678.214 -2.35392 -2.23072 0
M  V30 7006 H 677.999 -3.75215 -1.13824 0
M  V30 7007 H 679.489 -3.59984 -2.11663 0
M  V30 7008 N 679.926 -0.151884 -1.56866 0
M  V30 7009 C 681.151 0.508044 -2.01081 0
M  V30 7010 C 681.576 1.57306 -1.03134 0
M  V30 7011 O 680.934 1.81298 -0.0078309 0
M  V30 7012 C 680.982 1.08106 -3.44014 0
M  V30 7013 O 680.086 2.19577 -3.49084 0
M  V30 7014 H 679.427 0.123757 -0.652365 0
M  V30 7015 H 681.957 -0.250055 -2.03066 0
M  V30 7016 H 681.967 1.40851 -3.82916 0
M  V30 7017 H 680.642 0.301168 -4.14808 0
M  V30 7018 H 679.219 1.88023 -3.22027 0
M  V30 7019 N 681.404 1.57128 0.121893 0
M  V30 7020 C 682.681 1.75664 0.860327 0
M  V30 7021 C 683.061 0.726585 1.98202 0
M  V30 7022 O 682.409 -0.24999 2.27128 0
M  V30 7023 C 682.619 3.20571 1.37968 0
M  V30 7024 C 683.967 3.82988 1.83317 0
M  V30 7025 O 684.991 3.24156 1.47654 0
M  V30 7026 O 683.85 4.86393 2.49168 0
M  V30 7027 H 680.944 0.719153 0.408348 0
M  V30 7028 H 683.49 1.6937 0.105859 0
M  V30 7029 H 682.262 3.87056 0.57477 0
M  V30 7030 H 681.885 3.31392 2.19694 0
M  V30 7031 N 682.882 -0.391992 1.52647 0
M  V30 7032 C 683.814 -1.49811 1.73463 0
M  V30 7033 C 684.827 -1.50734 0.615078 0
M  V30 7034 O 686.016 -1.5469 0.890696 0
M  V30 7035 C 683.116 -2.88667 1.77552 0
M  V30 7036 C 682.289 -3.11743 3.06815 0
M  V30 7037 C 681.348 -4.30564 3.02491 0
M  V30 7038 O 680.374 -4.27014 3.76361 0
M  V30 7039 N 681.576 -5.36593 2.21468 0
M  V30 7040 H 684.341 -1.32343 2.68897 0
M  V30 7041 H 681.902 -0.581475 1.51098 0
M  V30 7042 H 683.894 -3.66251 1.7217 0
M  V30 7043 H 682.464 -2.99508 0.895181 0
M  V30 7044 H 681.684 -2.2205 3.25711 0
M  V30 7045 H 682.972 -3.24013 3.92292 0
M  V30 7046 H 682.37 -5.42332 1.60913 0
M  V30 7047 H 680.927 -6.12855 2.21928 0
M  V30 7048 N 684.36 -1.4356 -0.65026 0
M  V30 7049 C 685.776 -1.27025 -0.966269 0
M  V30 7050 C 685.976 -0.192117 -2.00582 0
M  V30 7051 O 685.032 0.428459 -2.48838 0
M  V30 7052 C 686.345 -2.63556 -1.44772 0
M  V30 7053 C 687.893 -2.71111 -1.56421 0
M  V30 7054 C 688.368 -4.08067 -2.07956 0
M  V30 7055 N 689.859 -4.10146 -2.15254 0
M  V30 7056 C 690.594 -5.12952 -2.56258 0
M  V30 7057 N 690.09 -6.26129 -2.96537 0
M  V30 7058 N 691.883 -5.00306 -2.56224 0
M  V30 7059 H 684.034 -2.12367 0.0375758 0
M  V30 7060 H 686.297 -0.946894 -0.0457782 0
M  V30 7061 H 686.003 -3.43429 -0.758271 0
M  V30 7062 H 685.877 -2.89152 -2.42221 0
M  V30 7063 H 688.264 -1.91569 -2.24467 0
M  V30 7064 H 688.345 -2.49277 -0.573967 0
M  V30 7065 H 687.989 -4.88077 -1.40511 0
M  V30 7066 H 687.919 -4.27266 -3.07817 0
M  V30 7067 H 690.41 -3.28453 -1.86887 0
M  V30 7068 H 690.723 -7.00403 -3.26582 0
M  V30 7069 H 689.068 -6.29597 -2.94334 0
M  V30 7070 H 692.259 -4.10952 -2.24135 0
M  V30 7071 H 692.432 -5.80553 -2.87857 0
M  V30 7072 N 685.838 0.888903 -1.30139 0
M  V30 7073 C 687.115 1.62145 -1.094 0
M  V30 7074 C 687.495 2.08041 0.358091 0
M  V30 7075 O 686.843 1.84438 1.34888 0
M  V30 7076 C 687.053 2.794 -2.09133 0
M  V30 7077 C 688.401 3.49826 -2.40638 0
M  V30 7078 O 689.425 2.89583 -2.07412 0
M  V30 7079 O 688.284 4.58457 -2.97455 0
M  V30 7080 H 685.378 0.712475 -0.41989 0
M  V30 7081 H 687.924 0.936023 -1.41551 0
M  V30 7082 H 686.696 2.42762 -3.06891 0
M  V30 7083 H 686.319 3.55643 -1.77776 0
M  V30 7084 N 687.317 1.12792 1.10072 0
M  V30 7085 C 688.247 0.821688 2.18565 0
M  V30 7086 C 689.228 -0.21612 1.68721 0
M  V30 7087 O 690.413 -0.0764932 1.94049 0
M  V30 7088 C 687.543 0.279624 3.46172 0
M  V30 7089 C 686.497 1.25092 4.09312 0
M  V30 7090 C 685.823 0.568916 5.31665 0
M  V30 7091 C 687.123 2.60699 4.52585 0
M  V30 7092 H 688.817 1.72888 2.44438 0
M  V30 7093 H 686.363 0.832702 1.17482 0
M  V30 7094 H 688.316 0.053099 4.21367 0
M  V30 7095 H 687.04 -0.662929 3.19801 0
M  V30 7096 H 685.699 1.46332 3.36129 0
M  V30 7097 H 685.347 -0.378898 5.01571 0
M  V30 7098 H 685.047 1.21687 5.74862 0
M  V30 7099 H 686.571 0.351517 6.09587 0
M  V30 7100 H 687.985 2.43465 5.19035 0
M  V30 7101 H 686.382 3.21608 5.06644 0
M  V30 7102 H 687.452 3.1886 3.65317 0
M  V30 7103 N 688.795 -1.27931 0.920396 0
M  V30 7104 C 690.023 -1.98805 0.573087 0
M  V30 7105 C 690.438 -1.68724 -0.847201 0
M  V30 7106 O 689.795 -0.943699 -1.56207 0
M  V30 7107 C 689.846 -3.52971 0.780633 0
M  V30 7108 O 689.567 -3.81994 2.14504 0
M  V30 7109 C 691.068 -4.411 0.44105 0
M  V30 7110 H 688.288 -0.634651 0.21785 0
M  V30 7111 H 690.832 -1.62965 1.23542 0
M  V30 7112 H 688.987 -3.87048 0.165204 0
M  V30 7113 H 689.401 -4.76609 2.18962 0
M  V30 7114 H 690.875 -5.48312 0.637006 0
M  V30 7115 H 691.352 -4.34758 -0.62306 0
M  V30 7116 H 691.958 -4.12532 1.0343 0
M  V30 7117 N 690.273 -0.685099 -1.4193 0
M  V30 7118 C 691.183 -0.013404 -2.34596 0
M  V30 7119 C 692.199 0.777589 -1.55658 0
M  V30 7120 O 693.375 0.717553 -1.88184 0
M  V30 7121 C 690.44 0.919031 -3.34297 0
M  V30 7122 C 689.501 0.121417 -4.29128 0
M  V30 7123 C 688.734 1.00944 -5.24067 0
M  V30 7124 O 688.957 2.24898 -5.24192 0
M  V30 7125 O 687.891 0.464724 -6.00103 0
M  V30 7126 H 691.717 -0.776978 -2.93593 0
M  V30 7127 H 689.302 -0.445379 -1.42607 0
M  V30 7128 H 691.184 1.45402 -3.9552 0
M  V30 7129 H 689.859 1.66228 -2.77759 0
M  V30 7130 H 688.766 -0.45792 -3.71287 0
M  V30 7131 H 690.099 -0.582937 -4.88736 0
M  V30 7132 N 691.751 1.51645 -0.429126 0
M  V30 7133 C 692.701 2.24388 0.404217 0
M  V30 7134 C 693.685 1.26294 0.996933 0
M  V30 7135 O 694.877 1.51428 0.916434 0
M  V30 7136 C 692.006 3.08338 1.50938 0
M  V30 7137 C 691.092 4.13857 0.926464 0
M  V30 7138 N 691.483 5.05749 0.0719732 0
M  V30 7139 C 689.781 4.29695 1.19491 0
M  V30 7140 C 690.482 5.81143 -0.254528 0
M  V30 7141 N 689.458 5.42408 0.359763 0
M  V30 7142 H 693.26 2.92794 -0.254697 0
M  V30 7143 H 690.774 1.60606 -0.240712 0
M  V30 7144 H 692.771 3.59022 2.11918 0
M  V30 7145 H 691.431 2.41475 2.17072 0
M  V30 7146 H 692.442 5.17066 -0.293854 0
M  V30 7147 H 689.119 3.74059 1.85434 0
M  V30 7148 H 690.509 6.65159 -0.949365 0
M  V30 7149 N 693.229 0.160201 1.56784 0
M  V30 7150 C 694.176 -0.774416 2.1742 0
M  V30 7151 C 695.146 -1.23483 1.11091 0
M  V30 7152 O 696.331 -1.30499 1.39193 0
M  V30 7153 C 693.471 -2.00283 2.81035 0
M  V30 7154 C 692.584 -1.58701 4.01793 0
M  V30 7155 C 691.719 -2.76824 4.53367 0
M  V30 7156 C 690.758 -2.31679 5.66561 0
M  V30 7157 N 689.895 -3.42856 6.12694 0
M  V30 7158 H 694.735 -0.250542 2.96945 0
M  V30 7159 H 692.272 -0.111943 1.46673 0
M  V30 7160 H 694.23 -2.72316 3.16069 0
M  V30 7161 H 692.86 -2.5006 2.04132 0
M  V30 7162 H 691.912 -0.76384 3.72652 0
M  V30 7163 H 693.224 -1.21555 4.83762 0
M  V30 7164 H 692.378 -3.57029 4.90525 0
M  V30 7165 H 691.117 -3.17223 3.70433 0
M  V30 7166 H 690.122 -1.49917 5.28966 0
M  V30 7167 H 691.347 -1.9235 6.5129 0
M  V30 7168 H 689.293 -3.82852 5.32692 0
M  V30 7169 H 689.21 -3.09767 6.89624 0
M  V30 7170 H 690.478 -4.23379 6.545 0
M  V30 7171 N 694.707 -1.5719 -0.113559 0
M  V30 7172 C 696.118 -1.74259 -0.670116 0
M  V30 7173 C 696.469 -0.779694 -1.80042 0
M  V30 7174 O 695.594 0.0461353 -2.16351 0
M  V30 7175 C 696.189 -3.15981 -1.22236 0
M  V30 7176 C 694.748 -3.34537 -1.72516 0
M  V30 7177 C 693.895 -2.70116 -0.627098 0
M  V30 7178 H 696.846 -1.58301 0.112396 0
M  V30 7179 H 696.867 -3.17832 -2.09197 0
M  V30 7180 H 696.379 -3.86038 -0.39949 0
M  V30 7181 H 694.48 -2.6953 -2.57263 0
M  V30 7182 H 694.593 -4.42737 -1.83086 0
M  V30 7183 H 692.957 -2.31501 -1.06204 0
M  V30 7184 H 693.74 -3.42802 0.184889 0
M  V30 7185 N 696.185 0.383891 -1.52853 0
M  V30 7186 C 697.41 1.154 -1.7233 0
M  V30 7187 C 697.835 1.82809 -0.44298 0
M  V30 7188 O 697.193 1.71026 0.601645 0
M  V30 7189 C 697.241 2.17386 -2.87708 0
M  V30 7190 O 696.345 3.24082 -2.55038 0
M  V30 7191 H 695.686 0.335709 -0.572883 0
M  V30 7192 H 698.216 0.44662 -1.99666 0
M  V30 7193 H 698.226 2.61296 -3.1335 0
M  V30 7194 H 696.901 1.6771 -3.80587 0
M  V30 7195 H 695.478 2.85273 -2.40153 0
M  V30 7196 N 697.663 1.43903 0.642637 0
M  V30 7197 C 698.909 1.46296 1.40447 0
M  V30 7198 C 699.242 0.0908361 1.93987 0
M  V30 7199 O 698.517 -0.889884 1.72949 0
M  V30 7200 C 698.8 2.51399 2.57819 0
M  V30 7201 C 698.653 3.97926 2.09702 0
M  V30 7202 C 699.972 2.53125 3.60022 0
M  V30 7203 H 697.091 0.532676 0.509338 0
M  V30 7204 H 699.733 1.75515 0.727635 0
M  V30 7205 H 697.883 2.26614 3.1556 0
M  V30 7206 H 699.555 4.33804 1.5688 0
M  V30 7207 H 697.798 4.10252 1.40982 0
M  V30 7208 H 698.469 4.67096 2.94152 0
M  V30 7209 H 700.945 2.75242 3.12059 0
M  V30 7210 H 699.821 3.28589 4.39682 0
M  V30 7211 H 700.082 1.56895 4.13324 0
M  V30 7212 N 699.141 -0.881989 1.30609 0
M  V30 7213 C 700.366 -1.67236 1.22665 0
M  V30 7214 C 700.791 -1.8696 -0.206777 0
M  V30 7215 O 700.149 -1.4027 -1.14865 0
M  V30 7216 C 700.197 -3.02446 1.96363 0
M  V30 7217 O 699.301 -3.91614 1.29276 0
M  V30 7218 H 698.642 -0.510902 0.424117 0
M  V30 7219 H 701.172 -1.10055 1.72479 0
M  V30 7220 H 701.182 -3.52468 2.055 0
M  V30 7221 H 699.857 -2.8741 3.00613 0
M  V30 7222 H 698.434 -3.50055 1.28514 0
M  V30 7223 N 700.619 -1.13374 -1.09472 0
M  V30 7224 C 701.567 -0.806105 -2.18185 0
M  V30 7225 C 702.561 0.21136 -1.68076 0
M  V30 7226 O 703.767 0.0685558 -1.79869 0
M  V30 7227 H 700.142 -0.242901 -0.71169 0
M  V30 7228 H 702.113 -1.73115 -2.43051 0
M  V30 7229 C 700.862 -0.287928 -3.46506 0
M  V30 7230 H 700.185 -1.06217 -3.85432 0
M  V30 7231 H 701.625 -0.0971054 -4.23889 0
M  V30 7232 C 700.084 0.986256 -3.22141 0
M  V30 7233 O 700.614 2.06217 -3.44728 0
M  V30 7234 N 698.82 0.917153 -2.75747 0
M  V30 7235 H 698.367 0.0414609 -2.57567 0
M  V30 7236 H 698.325 1.77029 -2.59823 0
M  V30 7237 N 702.098 1.27442 -0.927168 0
M  V30 7238 C 703.048 2.24519 -0.396878 0
M  V30 7239 C 704.032 1.52981 0.498555 0
M  V30 7240 O 705.224 1.7378 0.336087 0
M  V30 7241 C 702.353 3.41514 0.349694 0
M  V30 7242 C 701.439 4.20357 -0.562226 0
M  V30 7243 N 701.83 4.7702 -1.68182 0
M  V30 7244 C 700.128 4.44503 -0.365135 0
M  V30 7245 C 700.829 5.36467 -2.24895 0
M  V30 7246 N 699.805 5.21371 -1.5386 0
M  V30 7247 H 703.607 2.65911 -1.25173 0
M  V30 7248 H 701.121 1.42366 -0.78138 0
M  V30 7249 H 703.118 4.10161 0.746536 0
M  V30 7250 H 701.778 3.01653 1.20148 0
M  V30 7251 H 702.789 4.74985 -2.06421 0
M  V30 7252 H 699.466 4.15111 0.446037 0
M  V30 7253 H 700.856 5.91264 -3.1915 0
M  V30 7254 N 703.576 0.692616 1.41565 0
M  V30 7255 C 704.804 0.231279 2.05603 0
M  V30 7256 C 705.219 -1.11837 1.52111 0
M  V30 7257 O 704.576 -1.6983 0.66813 0
M  V30 7258 C 704.627 0.177125 3.61066 0
M  V30 7259 O 704.348 1.47346 4.12578 0
M  V30 7260 C 705.849 -0.30556 4.42246 0
M  V30 7261 H 703.069 0.108238 0.662213 0
M  V30 7262 H 705.613 0.944369 1.81389 0
M  V30 7263 H 703.768 -0.486769 3.8433 0
M  V30 7264 H 704.182 1.35861 5.06599 0
M  V30 7265 H 705.656 -0.29233 5.51225 0
M  V30 7266 H 706.133 -1.34393 4.18133 0
M  V30 7267 H 706.739 0.327229 4.24039 0
M  V30 7268 N 705.054 -1.51416 0.437162 0
M  V30 7269 C 705.986 -2.255 -0.410171 0
M  V30 7270 C 706.999 -1.29511 -0.986444 0
M  V30 7271 O 708.188 -1.55266 -0.880614 0
M  V30 7272 C 705.288 -2.99511 -1.58575 0
M  V30 7273 C 704.461 -4.22595 -1.12839 0
M  V30 7274 C 703.52 -4.79187 -2.17407 0
M  V30 7275 O 702.546 -5.4103 -1.76849 0
M  V30 7276 N 703.748 -4.63204 -3.49889 0
M  V30 7277 H 706.513 -2.98856 0.224783 0
M  V30 7278 H 704.074 -1.59699 0.266041 0
M  V30 7279 H 706.066 -3.34258 -2.28152 0
M  V30 7280 H 704.636 -2.29167 -2.12606 0
M  V30 7281 H 703.856 -3.93344 -0.259695 0
M  V30 7282 H 705.144 -5.02468 -0.800196 0
M  V30 7283 H 704.542 -4.13945 -3.85573 0
M  V30 7284 H 703.099 -5.02313 -4.15361 0
M  V30 7285 N 706.532 -0.168513 -1.56696 0
M  V30 7286 C 707.809 0.523367 -1.88468 0
M  V30 7287 C 708.189 1.81503 -1.07796 0
M  V30 7288 O 707.537 2.27859 -0.171045 0
M  V30 7289 C 707.747 0.767991 -3.40445 0
M  V30 7290 C 709.095 1.09924 -4.10124 0
M  V30 7291 O 710.119 0.856625 -3.45746 0
M  V30 7292 O 708.978 1.55681 -5.23856 0
M  V30 7293 H 706.072 0.269447 -0.781874 0
M  V30 7294 H 708.618 -0.206739 -1.68436 0
M  V30 7295 H 707.39 -0.145254 -3.9103 0
M  V30 7296 H 707.013 1.55151 -3.66079 0
M  V30 7297 N 708.01 1.57248 0.105221 0
M  V30 7298 C 708.96 1.9777 1.1345 0
M  V30 7299 C 709.944 0.854654 1.36325 0
M  V30 7300 O 711.136 1.11844 1.37186 0
M  V30 7301 C 708.265 2.39717 2.45745 0
M  V30 7302 C 707.351 3.58686 2.26286 0
M  V30 7303 N 707.742 4.73942 1.76671 0
M  V30 7304 C 706.04 3.64586 2.56891 0
M  V30 7305 C 706.741 5.55923 1.71245 0
M  V30 7306 N 705.717 4.98803 2.16093 0
M  V30 7307 H 709.519 2.84336 0.743664 0
M  V30 7308 H 707.033 1.59359 0.312787 0
M  V30 7309 H 709.03 2.66971 3.20206 0
M  V30 7310 H 707.69 1.54523 2.85574 0
M  V30 7311 H 708.701 4.9689 1.46016 0
M  V30 7312 H 705.378 2.90031 3.00314 0
M  V30 7313 H 706.768 6.58398 1.34022 0
M  V30 7314 N 709.488 -0.375779 1.53054 0
M  V30 7315 C 710.713 -1.14484 1.7294 0
M  V30 7316 C 711.138 -1.82572 0.452668 0
M  V30 7317 O 710.496 -1.71343 -0.592567 0
M  V30 7318 C 710.544 -2.15857 2.88857 0
M  V30 7319 O 709.648 -3.22725 2.56753 0
M  V30 7320 H 708.989 -0.332666 0.574656 0
M  V30 7321 H 711.519 -0.436025 1.999 0
M  V30 7322 H 711.529 -2.59631 3.14731 0
M  V30 7323 H 710.204 -1.65689 3.81471 0
M  V30 7324 H 708.781 -2.83996 2.41663 0
M  V30 7325 N 710.966 -1.44241 -0.634997 0
M  V30 7326 C 711.914 -1.51103 -1.76835 0
M  V30 7327 C 712.908 -0.383051 -1.65012 0
M  V30 7328 O 714.114 -0.557832 -1.71138 0
M  V30 7329 H 710.489 -0.474076 -0.583743 0
M  V30 7330 H 712.46 -2.46499 -1.68169 0
M  V30 7331 C 711.209 -1.4687 -3.15158 0
M  V30 7332 H 710.532 -2.32979 -3.24901 0
M  V30 7333 H 711.972 -1.55731 -3.94365 0
M  V30 7334 C 710.431 -0.188884 -3.3637 0
M  V30 7335 O 710.961 0.742487 -3.94778 0
M  V30 7336 N 709.167 -0.0932516 -2.9045 0
M  V30 7337 H 708.714 -0.852004 -2.43102 0
M  V30 7338 H 708.672 0.762308 -3.05018 0
M  V30 7339 N 712.444 0.87505 -1.31075 0
M  V30 7340 C 713.721 1.60976 -1.11113 0
M  V30 7341 C 714.101 2.08409 0.336006 0
M  V30 7342 O 713.449 1.85858 1.32924 0
M  V30 7343 C 713.659 2.77166 -2.12085 0
M  V30 7344 C 715.007 3.47254 -2.44335 0
M  V30 7345 O 716.031 2.87367 -2.10472 0
M  V30 7346 O 714.89 4.55276 -3.02301 0
M  V30 7347 H 711.984 0.707982 -0.427424 0
M  V30 7348 H 714.53 0.920957 -1.42536 0
M  V30 7349 H 713.302 2.39494 -3.09449 0
M  V30 7350 H 712.925 3.53737 -1.81538 0
M  V30 7351 N 713.922 1.13953 1.08869 0
M  V30 7352 C 715.333 0.916649 1.62648 0
M  V30 7353 C 715.684 -0.545589 1.88462 0
M  V30 7354 O 714.809 -1.41351 1.63856 0
M  V30 7355 C 715.404 1.65751 2.95486 0
M  V30 7356 C 713.963 1.48034 3.46068 0
M  V30 7357 C 713.11 1.68305 2.20383 0
M  V30 7358 H 716.061 1.292 0.921572 0
M  V30 7359 H 716.082 1.11794 3.63707 0
M  V30 7360 H 715.594 2.72171 2.76667 0
M  V30 7361 H 713.695 0.439416 3.7 0
M  V30 7362 H 713.808 2.24719 4.23129 0
M  V30 7363 H 712.172 1.10833 2.29321 0
M  V30 7364 H 712.955 2.76057 2.04077 0
M  V30 7365 N 715.4 -1.26948 0.933913 0
M  V30 7366 C 716.811 -1.76058 0.621324 0
M  V30 7367 C 717.162 -1.76175 -0.863522 0
M  V30 7368 O 716.287 -1.36921 -1.67576 0
M  V30 7369 C 716.882 -3.19713 1.12111 0
M  V30 7370 C 715.441 -3.66465 0.859074 0
M  V30 7371 C 714.588 -2.46186 1.27624 0
M  V30 7372 H 717.539 -1.13127 1.11301 0
M  V30 7373 H 717.56 -3.77566 0.471608 0
M  V30 7374 H 717.072 -3.19596 2.20182 0
M  V30 7375 H 715.173 -3.72021 -0.207566 0
M  V30 7376 H 715.286 -4.55636 1.48098 0
M  V30 7377 H 713.65 -2.45042 0.694727 0
M  V30 7378 H 714.433 -2.48774 2.36572 0
M  V30 7379 N 716.879 -0.700114 -1.41195 0
M  V30 7380 C 717.827 -0.0263301 -2.32585 0
M  V30 7381 C 718.821 0.763683 -1.51209 0
M  V30 7382 O 720.027 0.668793 -1.67114 0
M  V30 7383 H 716.402 0.0102869 -0.75193 0
M  V30 7384 H 718.373 -0.814087 -2.8708 0
M  V30 7385 C 717.122 0.892793 -3.36042 0
M  V30 7386 H 716.445 0.294306 -3.98715 0
M  V30 7387 H 717.885 1.33247 -4.02518 0
M  V30 7388 C 716.344 2.01109 -2.7029 0
M  V30 7389 O 716.874 3.10035 -2.55423 0
M  V30 7390 N 715.08 1.79015 -2.28915 0
M  V30 7391 H 714.627 0.904275 -2.41207 0
M  V30 7392 H 714.585 2.54022 -1.85257 0
M  V30 7393 N 718.357 1.51182 -0.445186 0
M  V30 7394 C 719.304 2.27939 0.362291 0
M  V30 7395 C 720.274 1.31864 1.01 0
M  V30 7396 O 721.459 1.60776 1.02741 0
M  V30 7397 C 718.599 3.13016 1.45311 0
M  V30 7398 C 717.712 4.24093 0.822757 0
M  V30 7399 C 716.847 4.96467 1.88928 0
M  V30 7400 C 715.886 5.99454 1.23778 0
M  V30 7401 N 715.023 6.65206 2.24602 0
M  V30 7402 H 719.863 2.965 -0.29862 0
M  V30 7403 H 717.4 1.46237 -0.15911 0
M  V30 7404 H 719.358 3.60673 2.09692 0
M  V30 7405 H 717.988 2.46553 2.08354 0
M  V30 7406 H 717.04 3.80341 0.0670364 0
M  V30 7407 H 718.352 4.97853 0.307184 0
M  V30 7408 H 717.506 5.47712 2.60953 0
M  V30 7409 H 716.245 4.22355 2.4386 0
M  V30 7410 H 715.25 5.47494 0.503042 0
M  V30 7411 H 716.475 6.75527 0.695694 0
M  V30 7412 H 714.421 5.93901 2.78599 0
M  V30 7413 H 714.338 7.34756 1.77958 0
M  V30 7414 H 715.606 7.21078 2.96085 0
M  V30 7415 N 719.835 0.176821 1.56605 0
M  V30 7416 C 720.768 -0.790135 2.14084 0
M  V30 7417 C 721.746 -1.22219 1.07244 0
M  V30 7418 O 722.93 -1.31298 1.35252 0
M  V30 7419 C 720.057 -2.06475 2.68488 0
M  V30 7420 C 719.103 -1.77628 3.87751 0
M  V30 7421 S 719.936 -0.940612 5.27174 0
M  V30 7422 C 721.092 -2.22577 5.84988 0
M  V30 7423 H 721.325 -0.30144 2.95768 0
M  V30 7424 H 718.858 -0.0379279 1.54353 0
M  V30 7425 H 720.816 -2.79683 3.00479 0
M  V30 7426 H 719.477 -2.52457 1.8688 0
M  V30 7427 H 718.67 -2.72215 4.24164 0
M  V30 7428 H 718.272 -1.12512 3.56675 0
M  V30 7429 H 720.564 -3.17992 5.98237 0
M  V30 7430 H 721.507 -1.90624 6.81959 0
M  V30 7431 H 721.915 -2.34588 5.13448 0
M  V30 7432 N 721.313 -1.57302 -0.09688 0
M  V30 7433 C 722.261 -2.02942 -1.13654 0
M  V30 7434 C 723.255 -0.930173 -1.41577 0
M  V30 7435 O 724.461 -1.11535 -1.41279 0
M  V30 7436 H 720.836 -0.646726 -0.383731 0
M  V30 7437 H 722.807 -2.89452 -0.725267 0
M  V30 7438 C 721.556 -2.46815 -2.44903 0
M  V30 7439 H 720.879 -3.30979 -2.24261 0
M  V30 7440 H 722.319 -2.82527 -3.16156 0
M  V30 7441 C 720.778 -1.34071 -3.09074 0
M  V30 7442 O 721.308 -0.668856 -3.96092 0
M  V30 7443 N 719.514 -1.09214 -2.69296 0
M  V30 7444 H 719.061 -1.64029 -1.98626 0
M  V30 7445 H 719.019 -0.339785 -3.12559 0
M  V30 7446 N 722.791 0.367657 -1.53252 0
M  V30 7447 C 723.701 1.47415 -1.82499 0
M  V30 7448 C 724.717 1.58711 -0.713222 0
M  V30 7449 O 725.893 1.74644 -1.00306 0
M  V30 7450 C 722.958 2.82706 -2.00694 0
M  V30 7451 C 722.019 2.80955 -3.24596 0
M  V30 7452 C 721.252 4.09793 -3.41914 0
M  V30 7453 O 721.475 5.05852 -2.63572 0
M  V30 7454 O 720.409 4.15731 -4.3526 0
M  V30 7455 H 724.235 1.25624 -2.765 0
M  V30 7456 H 721.82 0.557559 -1.38606 0
M  V30 7457 H 723.702 3.62873 -2.14246 0
M  V30 7458 H 722.377 3.04479 -1.09883 0
M  V30 7459 H 721.284 1.99494 -3.16469 0
M  V30 7460 H 722.617 2.64136 -4.15323 0
M  V30 7461 N 724.269 1.44576 0.627338 0
M  V30 7462 C 725.515 1.47777 1.38888 0
M  V30 7463 C 725.848 0.111406 1.9388 0
M  V30 7464 O 725.123 -0.87149 1.73883 0
M  V30 7465 C 725.406 2.54119 2.55138 0
M  V30 7466 C 725.259 4.00128 2.0547 0
M  V30 7467 C 726.578 2.56929 3.57317 0
M  V30 7468 H 723.697 0.538048 0.50366 0
M  V30 7469 H 726.339 1.76277 0.708978 0
M  V30 7470 H 724.489 2.29948 3.13139 0
M  V30 7471 H 726.161 4.35444 1.5227 0
M  V30 7472 H 724.404 4.11724 1.36623 0
M  V30 7473 H 725.075 4.7019 2.89181 0
M  V30 7474 H 727.551 2.78536 3.09122 0
M  V30 7475 H 726.427 3.33234 4.36173 0
M  V30 7476 H 726.688 1.6127 4.11636 0
M  V30 7477 N 725.747 -0.868086 1.31537 0
M  V30 7478 C 726.975 -1.65402 1.24298 0
M  V30 7479 C 727.39 -1.87827 -0.191389 0
M  V30 7480 O 726.747 -1.43776 -1.12404 0
M  V30 7481 C 726.798 -3.02093 1.9855 0
M  V30 7482 O 726.519 -2.80668 3.36388 0
M  V30 7483 C 728.02 -3.96538 1.98173 0
M  V30 7484 H 725.24 -0.515598 0.429417 0
M  V30 7485 H 727.784 -1.0834 1.73444 0
M  V30 7486 H 725.939 -3.55838 1.53161 0
M  V30 7487 H 726.353 -3.67504 3.74221 0
M  V30 7488 H 727.827 -4.8976 2.54635 0
M  V30 7489 H 728.304 -4.28474 0.964697 0
M  V30 7490 H 728.91 -3.48729 2.4345 0
M  V30 7491 N 727.225 -1.14528 -1.08264 0
M  V30 7492 C 728.455 -0.936604 -1.8415 0
M  V30 7493 C 728.863 0.518298 -1.81962 0
M  V30 7494 O 728.206 1.37096 -1.22272 0
M  V30 7495 C 728.268 -1.36182 -3.32708 0
M  V30 7496 C 727.932 -2.83257 -3.58629 0
M  V30 7497 C 728.929 -3.81366 -3.5335 0
M  V30 7498 C 726.614 -3.20704 -3.86593 0
M  V30 7499 C 728.608 -5.14929 -3.75668 0
M  V30 7500 C 726.295 -4.54443 -4.08564 0
M  V30 7501 C 727.293 -5.51365 -4.03095 0
M  V30 7502 O 726.981 -6.8269 -4.24488 0
M  V30 7503 H 726.713 -0.333254 -0.588148 0
M  V30 7504 H 729.267 -1.5247 -1.3763 0
M  V30 7505 H 727.497 -0.717063 -3.79994 0
M  V30 7506 H 729.186 -1.12372 -3.90035 0
M  V30 7507 H 729.952 -3.53781 -3.31759 0
M  V30 7508 H 725.831 -2.45857 -3.89969 0
M  V30 7509 H 729.375 -5.90568 -3.71315 0
M  V30 7510 H 725.272 -4.81747 -4.29639 0
M  V30 7511 H 726.04 -6.8897 -4.41886 0
M  V30 7512 N 728.703 1.26451 -0.940633 0
M  V30 7513 C 729.928 1.98407 -0.60412 0
M  V30 7514 C 730.353 1.69584 0.81382 0
M  V30 7515 O 729.711 0.943553 1.54812 0
M  V30 7516 C 729.759 3.50387 -0.852136 0
M  V30 7517 O 728.863 4.1233 0.076013 0
M  V30 7518 H 728.204 0.622466 -0.231153 0
M  V30 7519 H 730.734 1.60932 -1.26342 0
M  V30 7520 H 730.744 4.00614 -0.772816 0
M  V30 7521 H 729.419 3.70696 -1.88566 0
M  V30 7522 H 727.996 3.7286 -0.0543187 0
M  V30 7523 N 730.181 0.707592 1.40822 0
M  V30 7524 C 731.409 0.253073 2.05346 0
M  V30 7525 C 731.824 -1.10218 1.53289 0
M  V30 7526 O 731.181 -1.69112 0.686105 0
M  V30 7527 C 731.232 0.215411 3.60858 0
M  V30 7528 O 730.953 1.51714 4.10992 0
M  V30 7529 C 732.454 -0.258636 4.42545 0
M  V30 7530 H 729.674 0.115256 0.661027 0
M  V30 7531 H 732.218 0.963555 1.80377 0
M  V30 7532 H 730.373 -0.445978 3.84824 0
M  V30 7533 H 730.787 1.41226 5.05129 0
M  V30 7534 H 732.261 -0.233849 5.51504 0
M  V30 7535 H 732.738 -1.2995 4.19535 0
M  V30 7536 H 733.344 0.372186 4.23668 0
M  V30 7537 N 731.66 -1.50943 0.453197 0
M  V30 7538 C 732.59 -2.31005 -0.34044 0
M  V30 7539 C 733.571 -1.37112 -1.00669 0
M  V30 7540 O 734.756 -1.66033 -1.0073 0
M  V30 7541 C 731.886 -3.16358 -1.433 0
M  V30 7542 C 730.84 -4.18658 -0.889363 0
M  V30 7543 C 730.166 -4.92633 -2.07887 0
M  V30 7544 C 731.466 -5.22227 0.0871142 0
M  V30 7545 H 733.16 -2.97601 0.327723 0
M  V30 7546 H 730.706 -1.43119 0.159054 0
M  V30 7547 H 732.659 -3.71155 -1.99555 0
M  V30 7548 H 731.383 -2.47613 -2.12968 0
M  V30 7549 H 730.042 -3.64936 -0.348915 0
M  V30 7550 H 729.69 -4.20376 -2.76211 0
M  V30 7551 H 729.39 -5.61819 -1.72143 0
M  V30 7552 H 730.914 -5.50258 -2.64666 0
M  V30 7553 H 732.328 -5.72001 -0.385656 0
M  V30 7554 H 730.725 -5.99032 0.357926 0
M  V30 7555 H 731.795 -4.74077 1.01879 0
M  V30 7556 N 733.138 -0.185124 -1.56509 0
M  V30 7557 C 734.086 0.756505 -2.19954 0
M  V30 7558 C 735.08 1.22725 -1.16769 0
M  V30 7559 O 736.286 1.1913 -1.34937 0
M  V30 7560 H 732.661 0.262279 -0.704779 0
M  V30 7561 H 734.632 0.197587 -2.97745 0
M  V30 7562 C 733.381 1.96975 -2.86524 0
M  V30 7563 H 732.704 1.61658 -3.65659 0
M  V30 7564 H 734.144 2.60719 -3.34367 0
M  V30 7565 C 732.603 2.80219 -1.87027 0
M  V30 7566 O 733.133 3.77821 -1.36433 0
M  V30 7567 N 731.339 2.4551 -1.55477 0
M  V30 7568 H 730.886 1.66199 -1.96813 0
M  V30 7569 H 730.844 3.01493 -0.891597 0
M  V30 7570 N 734.616 1.57351 0.0885366 0
M  V30 7571 C 735.863 1.86419 0.790824 0
M  V30 7572 C 736.191 0.774561 1.78412 0
M  V30 7573 O 735.446 -0.23119 1.9433 0
M  V30 7574 C 735.745 3.22098 1.5488 0
M  V30 7575 C 735.411 4.4548 0.697025 0
M  V30 7576 C 734.073 4.78975 0.462237 0
M  V30 7577 C 736.425 5.21094 0.105315 0
M  V30 7578 C 733.753 5.85507 -0.374016 0
M  V30 7579 C 736.105 6.28509 -0.718298 0
M  V30 7580 C 734.769 6.60515 -0.963116 0
M  V30 7581 H 734.039 0.682157 0.289383 0
M  V30 7582 H 736.686 1.91429 0.0520961 0
M  V30 7583 H 734.991 3.12803 2.35927 0
M  V30 7584 H 736.688 3.41819 2.09669 0
M  V30 7585 H 733.278 4.19255 0.890137 0
M  V30 7586 H 737.462 4.95544 0.273856 0
M  V30 7587 H 732.718 6.08713 -0.572606 0
M  V30 7588 H 736.892 6.86268 -1.18362 0
M  V30 7589 H 734.519 7.42893 -1.6129 0
M  V30 7590 N 736.094 -0.359525 1.53444 0
M  V30 7591 C 737.004 -1.46445 1.83278 0
M  V30 7592 C 738.02 -1.5833 0.721629 0
M  V30 7593 O 739.196 -1.7411 1.01231 0
M  V30 7594 C 736.261 -2.81638 2.02191 0
M  V30 7595 C 735.322 -2.7923 3.26082 0
M  V30 7596 C 734.555 -4.07974 3.44082 0
M  V30 7597 O 734.778 -5.04447 2.66251 0
M  V30 7598 O 733.712 -4.13417 4.37458 0
M  V30 7599 H 737.538 -1.24156 2.77162 0
M  V30 7600 H 735.123 -0.550201 1.389 0
M  V30 7601 H 737.005 -3.61732 2.16167 0
M  V30 7602 H 735.68 -3.03892 1.11496 0
M  V30 7603 H 734.587 -1.97813 3.17523 0
M  V30 7604 H 735.92 -2.6193 4.16718 0
M  V30 7605 N 737.572 -1.44907 -0.619662 0
M  V30 7606 C 738.535 -1.52282 -1.71297 0
M  V30 7607 C 739.535 -0.40359 -1.55653 0
M  V30 7608 O 740.725 -0.666638 -1.6094 0
M  V30 7609 C 737.857 -1.40778 -3.10474 0
M  V30 7610 H 739.05 -2.49683 -1.66128 0
M  V30 7611 H 736.603 -1.32168 -0.834339 0
M  V30 7612 H 737.338 -0.445156 -3.2123 0
M  V30 7613 H 737.123 -2.21947 -3.23237 0
M  V30 7614 H 738.613 -1.48946 -3.90135 0
M  V30 7615 N 739.05 0.861098 -1.31996 0
M  V30 7616 C 739.982 1.97551 -1.16216 0
M  V30 7617 C 740.995 1.625 -0.0988527 0
M  V30 7618 O 742.184 1.75091 -0.3472 0
M  V30 7619 C 739.284 3.30376 -0.755307 0
M  V30 7620 C 738.457 3.93711 -1.90552 0
M  V30 7621 C 737.516 5.04862 -1.48328 0
M  V30 7622 O 736.542 5.25204 -2.19431 0
M  V30 7623 N 737.744 5.79283 -0.375656 0
M  V30 7624 H 740.509 2.11632 -2.12208 0
M  V30 7625 H 738.07 1.03559 -1.24448 0
M  V30 7626 H 740.062 4.0213 -0.455364 0
M  V30 7627 H 738.632 3.12395 0.113269 0
M  V30 7628 H 737.852 3.14825 -2.37231 0
M  V30 7629 H 739.14 4.32762 -2.67571 0
M  V30 7630 H 738.538 5.65286 0.216284 0
M  V30 7631 H 737.095 6.5166 -0.135289 0
M  V30 7632 N 740.528 1.15101 1.07655 0
M  V30 7633 C 741.46 0.802722 2.14684 0
M  V30 7634 C 742.473 -0.183874 1.61758 0
M  V30 7635 O 743.662 0.0389349 1.78458 0
M  V30 7636 C 740.762 0.172135 3.38463 0
M  V30 7637 C 739.935 1.19538 4.20749 0
M  V30 7638 C 738.994 0.58714 5.22914 0
M  V30 7639 O 738.02 1.25224 5.55255 0
M  V30 7640 N 739.222 -0.632566 5.77043 0
M  V30 7641 H 741.987 1.72379 2.45164 0
M  V30 7642 H 739.548 1.04647 1.23534 0
M  V30 7643 H 741.54 -0.247465 4.03943 0
M  V30 7644 H 740.11 -0.652214 3.0572 0
M  V30 7645 H 739.33 1.79165 3.51132 0
M  V30 7646 H 740.618 1.88636 4.7254 0
M  V30 7647 H 740.016 -1.19135 5.53013 0
M  V30 7648 H 738.573 -0.994566 6.44167 0
M  V30 7649 N 742.006 -1.2595 0.947325 0
M  V30 7650 C 743.417 -1.75389 0.639963 0
M  V30 7651 C 743.768 -1.77081 -0.844788 0
M  V30 7652 O 742.893 -1.3869 -1.66114 0
M  V30 7653 C 743.488 -3.18506 1.15496 0
M  V30 7654 C 742.047 -3.65534 0.897894 0
M  V30 7655 C 741.194 -2.44818 1.30228 0
M  V30 7656 H 744.145 -1.1194 1.12495 0
M  V30 7657 H 744.166 -3.77045 0.511627 0
M  V30 7658 H 743.678 -3.17243 2.23559 0
M  V30 7659 H 741.779 -3.72221 -0.168096 0
M  V30 7660 H 741.892 -4.54039 1.52922 0
M  V30 7661 H 740.256 -2.44291 0.720678 0
M  V30 7662 H 741.039 -2.46251 2.39198 0
M  V30 7663 N 743.484 -0.715051 -1.40445 0
M  V30 7664 C 744.712 -0.263959 -2.05209 0
M  V30 7665 C 745.127 1.09403 -1.53871 0
M  V30 7666 O 744.484 1.68746 -0.695064 0
M  V30 7667 C 744.535 -0.234545 -3.60738 0
M  V30 7668 O 744.256 -1.53891 -4.10182 0
M  V30 7669 C 745.757 0.235164 -4.42676 0
M  V30 7670 H 742.977 -0.11876 -0.660407 0
M  V30 7671 H 745.521 -0.973107 -1.79864 0
M  V30 7672 H 743.676 0.425563 -3.85055 0
M  V30 7673 H 744.09 -1.43903 -5.04373 0
M  V30 7674 H 745.564 0.204598 -5.51621 0
M  V30 7675 H 746.041 1.27724 -4.20218 0
M  V30 7676 H 746.647 -0.394649 -4.23465 0
M  V30 7677 N 744.962 1.50701 -0.461195 0
M  V30 7678 C 745.894 2.26124 0.374244 0
M  V30 7679 C 746.907 1.31064 0.965715 0
M  V30 7680 O 748.096 1.56647 0.855801 0
M  V30 7681 C 745.196 3.01996 1.5379 0
M  V30 7682 C 744.369 4.24336 1.06101 0
M  V30 7683 C 743.428 4.82585 2.09756 0
M  V30 7684 O 742.454 5.43775 1.68219 0
M  V30 7685 N 743.656 4.68712 3.42475 0
M  V30 7686 H 746.421 2.9846 -0.2723 0
M  V30 7687 H 743.982 1.59256 -0.291415 0
M  V30 7688 H 745.974 3.37846 2.22806 0
M  V30 7689 H 744.544 2.32521 2.08933 0
M  V30 7690 H 743.764 3.93707 0.197085 0
M  V30 7691 H 745.052 5.03678 0.720156 0
M  V30 7692 H 744.45 4.20026 3.78938 0
M  V30 7693 H 743.007 5.08858 4.07317 0
M  V30 7694 N 746.441 0.193421 1.56409 0
M  V30 7695 C 747.852 -0.319471 1.83946 0
M  V30 7696 C 748.203 -1.61505 1.11403 0
M  V30 7697 O 747.328 -2.13139 0.374289 0
M  V30 7698 C 747.923 -0.586411 3.33686 0
M  V30 7699 C 746.482 -1.04368 3.61641 0
M  V30 7700 C 745.629 -0.0913834 2.77149 0
M  V30 7701 H 748.58 0.417242 1.53117 0
M  V30 7702 H 748.601 -1.43591 3.52366 0
M  V30 7703 H 748.113 0.356701 3.86457 0
M  V30 7704 H 746.214 -2.00113 3.14302 0
M  V30 7705 H 746.327 -0.937549 4.69837 0
M  V30 7706 H 744.691 -0.592954 2.47702 0
M  V30 7707 H 745.474 0.846142 3.32709 0
M  V30 7708 N 747.919 -1.57396 -0.0801906 0
M  V30 7709 C 749.147 -1.91055 -0.794075 0
M  V30 7710 C 749.562 -0.788583 -1.71542 0
M  V30 7711 O 748.919 0.238587 -1.80934 0
M  V30 7712 C 748.97 -3.24418 -1.59484 0
M  V30 7713 O 748.691 -4.323 -0.710532 0
M  V30 7714 C 750.192 -3.72037 -2.41046 0
M  V30 7715 H 747.412 -0.63171 -0.226238 0
M  V30 7716 H 749.956 -2.04431 -0.0529685 0
M  V30 7717 H 748.111 -3.12595 -2.2883 0
M  V30 7718 H 748.525 -5.08976 -1.26663 0
M  V30 7719 H 749.999 -4.68006 -2.92702 0
M  V30 7720 H 750.476 -3.00624 -3.2019 0
M  V30 7721 H 751.082 -3.86777 -1.76871 0
M  V30 7722 N 749.397 0.351382 -1.53633 0
M  V30 7723 C 750.622 1.11718 -1.74739 0
M  V30 7724 C 751.047 1.81829 -0.481657 0
M  V30 7725 O 750.405 1.72264 0.565233 0
M  V30 7726 C 750.453 2.11234 -2.92254 0
M  V30 7727 O 749.557 3.186 -2.61855 0
M  V30 7728 H 748.898 0.323482 -0.579875 0
M  V30 7729 H 751.428 0.404167 -2.00568 0
M  V30 7730 H 751.438 2.54591 -3.18822 0
M  V30 7731 H 750.113 1.59599 -3.84058 0
M  V30 7732 H 748.69 2.80115 -2.4615 0
M  V30 7733 N 750.875 1.45233 0.611969 0
M  V30 7734 C 751.838 1.53189 1.70487 0
M  V30 7735 C 752.838 0.411839 1.55437 0
M  V30 7736 O 754.028 0.675164 1.60584 0
M  V30 7737 C 751.16 1.42422 3.09723 0
M  V30 7738 H 752.353 2.5056 1.64802 0
M  V30 7739 H 749.906 1.32609 0.827318 0
M  V30 7740 H 750.641 0.462185 3.2099 0
M  V30 7741 H 750.426 2.23658 3.22055 0
M  V30 7742 H 751.916 1.51012 3.89339 0
M  V30 7743 N 752.353 -0.854086 1.3245 0
M  V30 7744 C 753.578 -1.64597 1.26185 0
M  V30 7745 C 754.003 -1.87357 -0.167074 0
M  V30 7746 O 753.361 -1.42675 -1.11864 0
M  V30 7747 C 753.409 -2.98213 2.02734 0
M  V30 7748 O 752.513 -3.88784 1.37554 0
M  V30 7749 H 751.854 -0.50179 0.434859 0
M  V30 7750 H 754.384 -1.06372 1.74775 0
M  V30 7751 H 754.394 -3.4803 2.1293 0
M  V30 7752 H 753.069 -2.80969 3.06642 0
M  V30 7753 H 751.646 -3.4725 1.3591 0
M  V30 7754 N 753.831 -1.1567 -1.07043 0
M  V30 7755 C 755.242 -0.942408 -1.61169 0
M  V30 7756 C 755.593 0.515537 -1.89306 0
M  V30 7757 O 754.718 1.38726 -1.66084 0
M  V30 7758 C 755.313 -1.70431 -2.92812 0
M  V30 7759 C 753.872 -1.53521 -3.43669 0
M  V30 7760 C 753.019 -1.7179 -2.17678 0
M  V30 7761 H 755.97 -1.3065 -0.9009 0
M  V30 7762 H 755.991 -1.17566 -3.61882 0
M  V30 7763 H 755.503 -2.76538 -2.72302 0
M  V30 7764 H 753.604 -0.498224 -3.69254 0
M  V30 7765 H 753.717 -2.31422 -4.19501 0
M  V30 7766 H 752.081 -1.14468 -2.27529 0
M  V30 7767 H 752.864 -2.79269 -1.99659 0
M  V30 7768 N 755.309 1.25446 -0.953992 0
M  V30 7769 C 756.534 1.97755 -0.625129 0
M  V30 7770 C 756.959 1.70437 0.795787 0
M  V30 7771 O 756.317 0.95992 1.53803 0
M  V30 7772 C 756.365 3.49463 -0.889251 0
M  V30 7773 O 755.469 4.12387 0.0322757 0
M  V30 7774 H 754.81 0.61998 -0.237742 0
M  V30 7775 H 757.34 1.59582 -1.28041 0
M  V30 7776 H 757.35 3.99772 -0.815263 0
M  V30 7777 H 756.025 3.68676 -1.92487 0
M  V30 7778 H 754.602 3.72782 -0.0938625 0
M  V30 7779 N 756.787 0.722489 1.40064 0
M  V30 7780 C 757.717 0.0892452 2.33329 0
M  V30 7781 C 758.698 -0.737992 1.53257 0
M  V30 7782 O 759.883 -0.685516 1.81698 0
M  V30 7783 C 757.013 -0.828139 3.37282 0
M  V30 7784 C 755.967 -0.106005 4.27869 0
M  V30 7785 C 755.293 -1.13957 5.22415 0
M  V30 7786 C 756.593 1.04395 5.11761 0
M  V30 7787 H 758.287 0.868269 2.86534 0
M  V30 7788 H 755.833 0.418982 1.3777 0
M  V30 7789 H 757.786 -1.28058 4.01471 0
M  V30 7790 H 756.51 -1.63914 2.82489 0
M  V30 7791 H 755.169 0.326683 3.65142 0
M  V30 7792 H 754.817 -1.9438 4.63924 0
M  V30 7793 H 754.517 -0.661233 5.83868 0
M  V30 7794 H 756.041 -1.59197 5.89482 0
M  V30 7795 H 757.455 0.670541 5.69365 0
M  V30 7796 H 755.852 1.4511 5.82291 0
M  V30 7797 H 756.922 1.87144 4.47331 0
M  V30 7798 N 758.265 -1.50454 0.469181 0
M  V30 7799 C 759.493 -2.06729 -0.0842134 0
M  V30 7800 C 759.908 -1.33326 -1.33677 0
M  V30 7801 O 759.265 -0.401977 -1.78018 0
M  V30 7802 C 759.316 -3.59557 -0.374253 0
M  V30 7803 O 759.037 -4.30192 0.828622 0
M  V30 7804 C 760.538 -4.32449 -0.974824 0
M  V30 7805 H 757.758 -0.670971 0.006231 0
M  V30 7806 H 760.302 -1.93645 0.657415 0
M  V30 7807 H 758.457 -3.7245 -1.06581 0
M  V30 7808 H 758.871 -5.21371 0.572066 0
M  V30 7809 H 760.345 -5.40361 -1.12755 0
M  V30 7810 H 760.822 -3.92819 -1.96442 0
M  V30 7811 H 761.428 -4.24082 -0.321703 0
M  V30 7812 N 759.743 -0.201713 -1.56304 0
M  V30 7813 C 760.706 0.702811 -2.18159 0
M  V30 7814 C 761.706 1.13619 -1.13787 0
M  V30 7815 O 762.896 1.0482 -1.39134 0
M  V30 7816 C 760.028 1.96032 -2.78898 0
M  V30 7817 H 761.221 0.163836 -2.99452 0
M  V30 7818 H 758.774 0.04791 -1.56227 0
M  V30 7819 H 759.509 2.54165 -2.01421 0
M  V30 7820 H 759.294 1.65824 -3.55309 0
M  V30 7821 H 760.784 2.60519 -3.26373 0
M  V30 7822 N 761.222 1.57436 0.0718424 0
M  V30 7823 C 762.45 1.91474 0.783932 0
M  V30 7824 C 762.865 0.797669 1.71122 0
M  V30 7825 O 762.222 -0.228989 1.81058 0
M  V30 7826 C 762.273 3.25259 1.57761 0
M  V30 7827 O 761.994 4.3267 0.687596 0
M  V30 7828 C 763.495 3.7331 2.3907 0
M  V30 7829 H 760.715 0.632901 0.222885 0
M  V30 7830 H 763.259 2.04457 0.0421262 0
M  V30 7831 H 761.414 3.13804 2.27169 0
M  V30 7832 H 761.828 5.09641 1.23962 0
M  V30 7833 H 763.302 4.69551 2.90216 0
M  V30 7834 H 763.779 3.02318 3.18591 0
M  V30 7835 H 764.385 3.8771 1.74818 0
M  V30 7836 N 762.7 -0.34323 1.53817 0
M  V30 7837 C 763.61 -1.44493 1.84821 0
M  V30 7838 C 764.626 -1.57556 0.738381 0
M  V30 7839 O 765.802 -1.73026 1.03072 0
M  V30 7840 C 762.867 -2.79478 2.05166 0
M  V30 7841 C 761.928 -2.75756 3.29025 0
M  V30 7842 C 761.161 -4.04302 3.4839 0
M  V30 7843 O 761.384 -5.01595 2.71586 0
M  V30 7844 O 760.318 -4.08754 4.41819 0
M  V30 7845 H 764.144 -1.21209 2.78464 0
M  V30 7846 H 761.729 -0.535437 1.39476 0
M  V30 7847 H 763.611 -3.59419 2.19991 0
M  V30 7848 H 762.286 -3.02692 1.14713 0
M  V30 7849 H 761.193 -1.94434 3.19603 0
M  V30 7850 H 762.526 -2.57495 4.19472 0
M  V30 7851 N 764.178 -1.45556 -0.604258 0
M  V30 7852 C 765.427 -1.49019 -1.35928 0
M  V30 7853 C 765.74 -0.137409 -1.95117 0
M  V30 7854 O 766.946 -0.0497032 -2.71455 0
M  V30 7855 C 765.402 -2.62477 -2.46239 0
M  V30 7856 C 765.01 -4.04082 -1.93447 0
M  V30 7857 C 766.754 -2.7519 -3.23219 0
M  V30 7858 C 764.661 -5.08917 -3.0126 0
M  V30 7859 H 763.591 -0.554518 -0.510907 0
M  V30 7860 H 766.242 -1.71705 -0.647262 0
M  V30 7861 H 764.624 -2.3308 -3.2014 0
M  V30 7862 H 765.798 -4.43173 -1.26232 0
M  V30 7863 H 764.113 -3.95849 -1.29201 0
M  V30 7864 H 766.71 -3.50683 -4.0364 0
M  V30 7865 H 767.053 -1.81941 -3.74437 0
M  V30 7866 H 767.586 -3.04129 -2.56418 0
M  V30 7867 H 764.325 -6.03886 -2.54955 0
M  V30 7868 H 763.845 -4.74393 -3.67031 0
M  V30 7869 H 765.524 -5.33814 -3.65584 0
M  V30 7870 N 765.656 0.84705 -1.32902 0
M  V30 7871 C 766.905 1.59667 -1.23245 0
M  V30 7872 C 767.218 1.94551 0.202349 0
M  V30 7873 O 768.424 2.68218 0.420847 0
M  V30 7874 C 766.88 2.8795 -2.15901 0
M  V30 7875 C 766.488 2.60461 -3.64505 0
M  V30 7876 C 768.232 3.65968 -2.15098 0
M  V30 7877 C 766.139 3.84791 -4.49099 0
M  V30 7878 H 765.069 0.599167 -0.457728 0
M  V30 7879 H 767.72 0.934662 -1.57912 0
M  V30 7880 H 766.102 3.55648 -1.74157 0
M  V30 7881 H 767.276 2.01026 -4.14639 0
M  V30 7882 H 765.591 1.9576 -3.67515 0
M  V30 7883 H 768.188 4.58241 -2.75534 0
M  V30 7884 H 768.531 4.00275 -1.14392 0
M  V30 7885 H 769.064 3.05184 -2.55162 0
M  V30 7886 H 765.803 3.55621 -5.50649 0
M  V30 7887 H 765.323 4.43594 -4.03713 0
M  V30 7888 H 767.002 4.52454 -4.62487 0
M  V30 7889 N 767.134 1.16236 1.06428 0
M  V30 7890 C 768.364 0.965782 1.82637 0
M  V30 7891 C 768.772 -0.489284 1.82764 0
M  V30 7892 O 768.115 -1.35133 1.24438 0
M  V30 7893 C 768.177 1.41458 3.30499 0
M  V30 7894 C 767.841 2.88926 3.54077 0
M  V30 7895 C 768.838 3.86939 3.47238 0
M  V30 7896 C 766.523 3.26814 3.81442 0
M  V30 7897 C 768.517 5.20841 3.67428 0
M  V30 7898 C 766.204 4.60886 4.01282 0
M  V30 7899 C 767.202 5.57708 3.94272 0
M  V30 7900 O 766.89 6.89357 4.13573 0
M  V30 7901 H 766.622 0.342569 0.582772 0
M  V30 7902 H 769.176 1.54641 1.35187 0
M  V30 7903 H 767.406 0.777426 3.78805 0
M  V30 7904 H 769.095 1.18563 3.88198 0
M  V30 7905 H 769.861 3.59014 3.26089 0
M  V30 7906 H 765.74 2.5203 3.86008 0
M  V30 7907 H 769.284 5.96401 3.61873 0
M  V30 7908 H 765.181 4.88522 4.21921 0
M  V30 7909 H 765.949 6.95913 4.30869 0
M  V30 7910 N 768.612 -1.24939 0.960631 0
M  V30 7911 C 769.837 -1.9742 0.635608 0
M  V30 7912 C 770.262 -1.70857 -0.786737 0
M  V30 7913 O 769.62 -0.968063 -1.53291 0
M  V30 7914 C 769.668 -3.48987 0.907771 0
M  V30 7915 O 768.772 -4.12399 -0.0104053 0
M  V30 7916 H 768.113 -0.61871 0.241027 0
M  V30 7917 H 770.643 -1.58901 1.28886 0
M  V30 7918 H 770.653 -3.99334 0.836453 0
M  V30 7919 H 769.328 -3.6765 1.94439 0
M  V30 7920 H 767.905 -3.72727 0.113631 0
M  V30 7921 N 770.09 -0.729906 -1.39679 0
M  V30 7922 C 771 -0.0880322 -2.34435 0
M  V30 7923 C 772.016 0.727674 -1.58053 0
M  V30 7924 O 773.192 0.657321 -1.90371 0
M  V30 7925 C 770.257 0.812211 -3.37052 0
M  V30 7926 C 769.318 -0.0151681 -4.29297 0
M  V30 7927 C 768.551 0.842202 -5.27013 0
M  V30 7928 O 768.774 2.08108 -5.31081 0
M  V30 7929 O 767.708 0.27357 -6.01278 0
M  V30 7930 H 771.534 -0.869989 -2.90972 0
M  V30 7931 H 769.119 -0.490522 -1.41118 0
M  V30 7932 H 771.001 1.32745 -3.99946 0
M  V30 7933 H 769.676 1.57307 -2.82907 0
M  V30 7934 H 768.583 -0.575811 -3.69642 0
M  V30 7935 H 769.916 -0.738129 -4.86634 0
M  V30 7936 N 771.568 1.50203 -0.477153 0
M  V30 7937 C 772.814 2.02658 0.0758507 0
M  V30 7938 C 773.147 1.358 1.38824 0
M  V30 7939 O 772.422 0.485696 1.88338 0
M  V30 7940 C 772.705 3.59208 0.253339 0
M  V30 7941 C 772.558 4.36629 -1.0805 0
M  V30 7942 C 773.877 4.28469 1.00509 0
M  V30 7943 H 770.996 0.736538 0.0260921 0
M  V30 7944 H 773.638 1.79464 -0.623925 0
M  V30 7945 H 771.788 3.79101 0.849378 0
M  V30 7946 H 773.46 4.28292 -1.71358 0
M  V30 7947 H 771.703 4.0013 -1.67566 0
M  V30 7948 H 772.374 5.44449 -0.909883 0
M  V30 7949 H 774.85 4.13087 0.499818 0
M  V30 7950 H 773.726 5.37804 1.09808 0
M  V30 7951 H 773.987 3.92057 2.04314 0
M  V30 7952 N 773.046 0.209999 1.56195 0
M  V30 7953 C 773.993 -0.704854 2.19774 0
M  V30 7954 C 774.963 -1.19886 1.14964 0
M  V30 7955 O 776.148 -1.26005 1.43274 0
M  V30 7956 C 773.288 -1.91241 2.87265 0
M  V30 7957 C 772.401 -1.45838 4.06639 0
M  V30 7958 C 771.536 -2.6226 4.61945 0
M  V30 7959 C 770.575 -2.13537 5.73645 0
M  V30 7960 N 769.712 -3.2319 6.23292 0
M  V30 7961 H 774.552 -0.155944 2.97592 0
M  V30 7962 H 772.089 -0.0652235 1.46955 0
M  V30 7963 H 774.047 -2.62123 3.24573 0
M  V30 7964 H 772.677 -2.43439 2.11985 0
M  V30 7965 H 771.729 -0.644897 3.74894 0
M  V30 7966 H 773.041 -1.06103 4.87384 0
M  V30 7967 H 772.195 -3.41243 5.01636 0
M  V30 7968 H 770.934 -3.05278 3.80338 0
M  V30 7969 H 769.939 -1.33013 5.33468 0
M  V30 7970 H 771.164 -1.71533 6.57079 0
M  V30 7971 H 769.11 -3.65711 5.44602 0
M  V30 7972 H 769.027 -2.8767 6.99129 0
M  V30 7973 H 770.295 -4.02342 6.67639 0
M  V30 7974 N 774.524 -1.57472 -0.0634922 0
M  V30 7975 C 775.471 -2.04258 -1.07457 0
M  V30 7976 C 776.441 -0.924804 -1.37973 0
M  V30 7977 O 777.626 -1.19305 -1.48899 0
M  V30 7978 C 774.766 -2.49832 -2.38071 0
M  V30 7979 C 773.879 -3.75263 -2.14014 0
M  V30 7980 C 773.014 -4.09585 -3.38251 0
M  V30 7981 C 772.053 -5.28032 -3.09594 0
M  V30 7982 N 771.19 -5.57953 -4.26185 0
M  V30 7983 H 776.03 -2.90402 -0.668626 0
M  V30 7984 H 773.567 -1.43609 -0.318572 0
M  V30 7985 H 775.525 -2.7431 -3.14341 0
M  V30 7986 H 774.155 -1.66654 -2.76453 0
M  V30 7987 H 773.207 -3.58075 -1.28399 0
M  V30 7988 H 774.519 -4.61667 -1.88852 0
M  V30 7989 H 773.673 -4.35008 -4.2291 0
M  V30 7990 H 772.412 -3.21765 -3.66495 0
M  V30 7991 H 771.417 -5.02397 -2.23332 0
M  V30 7992 H 772.642 -6.17477 -2.82663 0
M  V30 7993 H 770.588 -4.73092 -4.54445 0
M  V30 7994 H 770.505 -6.38793 -4.04326 0
M  V30 7995 H 771.773 -5.87931 -5.11817 0
M  V30 7996 N 776.003 0.335068 -1.53997 0
M  V30 7997 C 776.935 1.4327 -1.78903 0
M  V30 7998 C 777.948 1.48347 -0.670598 0
M  V30 7999 O 779.137 1.51277 -0.947494 0
M  V30 8000 C 776.237 2.81878 -1.88144 0
M  V30 8001 C 775.41 3.00141 -3.18174 0
M  V30 8002 C 774.469 4.19041 -3.18263 0
M  V30 8003 O 773.495 4.12751 -3.9195 0
M  V30 8004 N 774.697 5.28004 -2.41231 0
M  V30 8005 H 777.462 1.22272 -2.73623 0
M  V30 8006 H 775.023 0.524996 -1.53152 0
M  V30 8007 H 777.015 3.59609 -1.85644 0
M  V30 8008 H 775.585 2.9598 -1.00572 0
M  V30 8009 H 774.805 2.09808 -3.33728 0
M  V30 8010 H 776.093 3.0923 -4.04047 0
M  V30 8011 H 775.491 5.35986 -1.8093 0
M  V30 8012 H 774.048 6.04196 -2.44521 0
M  V30 8013 O 777.52 1.5417 0.481036 0
M  V30 8014 H 778.211 1.5692 1.1356 0
M  V30 END ATOM
M  V30 BEGIN BOND
M  V30 END BOND
M  V30 END CTAB
M  END
$$$$
