drugbank_target|P13647 Keratin, type II cytoskeletal 5 (DB01593; DB14487)
 OpenBabel12092121083D

  0  0  0     0  0            999 V3000
M  V30 BEGIN CTAB
M  V30 COUNTS 8664 8720 0 0 0
M  V30 BEGIN ATOM
M  V30 1 H -0.908 1.98254 -0.117106 0
M  V30 2 N 0 1.576 0 0
M  V30 3 C 0.933 2.03868 1.02534 0
M  V30 4 C 1.911 0.928543 1.3348 0
M  V30 5 O 3.095 1.19667 1.45644 0
M  V30 6 C 0.222 2.43627 2.35294 0
M  V30 7 C -0.732 3.65373 2.2001 0
M  V30 8 S 0.101 5.13292 1.52614 0
M  V30 9 C 1.257 5.56322 2.86805 0
M  V30 10 H 1.49 2.90518 0.631377 0
M  V30 11 H -0.977 1.52953 0.210867 0
M  V30 12 H 0.981 2.67203 3.11629 0
M  V30 13 H -0.358 1.57376 2.7183 0
M  V30 14 H -1.165 3.90944 3.18086 0
M  V30 15 H -1.563 3.418 1.51819 0
M  V30 16 H 0.729 5.58782 3.83104 0
M  V30 17 H 1.672 6.56266 2.65933 0
M  V30 18 H 2.08 4.83886 2.90714 0
M  V30 19 N 1.4781 -0.272755 1.55222 0
M  V30 20 C 2.7031 -1.02683 1.80197 0
M  V30 21 C 3.1281 -1.79142 0.573551 0
M  V30 22 O 2.4861 -1.74917 -0.476849 0
M  V30 23 C 2.5341 -1.9609 3.02624 0
M  V30 24 O 1.6381 -3.04863 2.77727 0
M  V30 25 H 0.9791 -0.293557 0.595584 0
M  V30 26 H 3.5091 -0.30159 2.02365 0
M  V30 27 H 3.5191 -2.38039 3.31363 0
M  V30 28 H 2.1941 -1.39851 3.91682 0
M  V30 29 H 0.7711 -2.67228 2.60084 0
M  V30 30 N 2.9562 -1.48159 -0.537278 0
M  V30 31 C 4.3722 -1.34118 -0.865129 0
M  V30 32 C 4.5722 -0.346678 -1.98495 0
M  V30 33 O 3.6282 0.234715 -2.51407 0
M  V30 34 C 4.9412 -2.73963 -1.23954 0
M  V30 35 C 6.4892 -2.82397 -1.34984 0
M  V30 36 C 6.9642 -4.22928 -1.75772 0
M  V30 37 N 8.4552 -4.25566 -1.82887 0
M  V30 38 C 9.1902 -5.31235 -2.15817 0
M  V30 39 N 8.6862 -6.47189 -2.47222 0
M  V30 40 N 10.4792 -5.18624 -2.16761 0
M  V30 41 H 2.6302 -2.1144 0.201715 0
M  V30 42 H 4.8932 -0.947598 0.0275949 0
M  V30 43 H 4.5992 -3.48264 -0.490381 0
M  V30 44 H 4.4732 -3.0702 -2.19132 0
M  V30 45 H 6.8602 -2.08356 -2.08978 0
M  V30 46 H 6.9412 -2.5297 -0.379448 0
M  V30 47 H 6.5852 -4.97482 -1.02341 0
M  V30 48 H 6.5152 -4.49794 -2.73848 0
M  V30 49 H 9.0062 -3.41924 -1.60924 0
M  V30 50 H 9.3192 -7.23564 -2.71433 0
M  V30 51 H 7.6642 -6.50476 -2.44757 0
M  V30 52 H 10.8552 -4.27056 -1.91679 0
M  V30 53 H 11.0282 -6.01078 -2.42093 0
M  V30 54 N 4.4343 0.785586 -1.36625 0
M  V30 55 C 5.3663 1.90711 -1.2713 0
M  V30 56 C 6.3793 1.61688 -0.189986 0
M  V30 57 O 7.5683 1.72864 -0.445014 0
M  V30 58 C 4.6683 3.25611 -0.939713 0
M  V30 59 C 3.8413 3.82385 -2.12369 0
M  V30 60 C 2.9003 4.95732 -1.76456 0
M  V30 61 O 1.9263 5.12047 -2.48589 0
M  V30 62 N 3.1283 5.76258 -0.700492 0
M  V30 63 H 5.8933 1.99376 -2.23762 0
M  V30 64 H 3.4543 0.964041 -1.30069 0
M  V30 65 H 5.4463 3.98937 -0.680554 0
M  V30 66 H 4.0163 3.12538 -0.0624074 0
M  V30 67 H 3.2363 3.01001 -2.54543 0
M  V30 68 H 4.5243 4.17047 -2.9146 0
M  V30 69 H 3.9223 5.65609 -0.101624 0
M  V30 70 H 2.4793 6.4987 -0.501165 0
M  V30 71 N 5.9124 1.20967 1.01018 0
M  V30 72 C 7.1374 1.0503 1.78839 0
M  V30 73 C 7.5624 -0.395752 1.8389 0
M  V30 74 O 6.9204 -1.28529 1.27867 0
M  V30 75 C 6.9684 1.64602 3.2084 0
M  V30 76 O 6.0724 0.887988 4.02726 0
M  V30 77 H 5.4134 0.369987 0.551367 0
M  V30 78 H 7.9434 1.60399 1.27018 0
M  V30 79 H 7.9534 1.68607 3.71532 0
M  V30 80 H 6.6284 2.69841 3.16479 0
M  V30 81 H 5.2054 0.922648 3.61305 0
M  V30 82 N 7.3905 -1.2043 1.01659 0
M  V30 83 C 8.6155 -1.94318 0.724942 0
M  V30 84 C 9.0405 -1.74266 -0.708034 0
M  V30 85 O 8.3985 -1.03694 -1.48719 0
M  V30 86 C 8.4465 -3.44486 1.06591 0
M  V30 87 O 7.5505 -4.12017 0.177599 0
M  V30 88 H 6.8915 -0.60708 0.26898 0
M  V30 89 H 9.4215 -1.52861 1.35995 0
M  V30 90 H 9.4315 -3.95106 1.01762 0
M  V30 91 H 8.1065 -3.58404 2.10997 0
M  V30 92 H 6.6835 -3.71821 0.283421 0
M  V30 93 N 8.8686 -0.792821 -1.36206 0
M  V30 94 C 10.1146 -0.36733 -1.99446 0
M  V30 95 C 10.4476 1.05917 -1.62774 0
M  V30 96 O 9.7226 1.7324 -0.88421 0
M  V30 97 C 10.0056 -0.535044 -3.56103 0
M  V30 98 C 9.8586 -2.00548 -4.02617 0
M  V30 99 C 11.1776 0.0478191 -4.40074 0
M  V30 100 H 8.2966 -0.134941 -0.724541 0
M  V30 101 H 10.9386 -0.999794 -1.61568 0
M  V30 102 H 9.0886 0.00336329 -3.885 0
M  V30 103 H 10.7606 -2.60521 -3.80692 0
M  V30 104 H 9.0036 -2.50686 -3.54032 0
M  V30 105 H 9.6746 -2.07377 -5.11565 0
M  V30 106 H 12.1506 -0.411822 -4.14057 0
M  V30 107 H 11.0266 -0.0995336 -5.4881 0
M  V30 108 H 11.2876 1.14025 -4.27142 0
M  V30 109 N 10.3467 1.47872 -0.545128 0
M  V30 110 C 11.5717 2.07391 -0.0190611 0
M  V30 111 C 11.9967 1.39688 1.25971 0
M  V30 112 O 11.3547 0.467816 1.7516 0
M  V30 113 C 11.4027 3.60188 0.172335 0
M  V30 114 O 10.5067 3.9339 1.23766 0
M  V30 115 H 9.8477 0.662411 -0.0459059 0
M  V30 116 H 12.3777 1.90066 -0.757365 0
M  V30 117 H 12.3877 4.06129 0.390305 0
M  V30 118 H 11.0627 4.08865 -0.761725 0
M  V30 119 H 9.6397 3.5921 1.00114 0
M  V30 120 N 11.8248 0.280983 1.55075 0
M  V30 121 C 13.0718 -0.334115 1.99725 0
M  V30 122 C 13.3998 -1.5542 1.1694 0
M  V30 123 O 12.6548 -1.94361 0.228531 0
M  V30 124 C 12.9538 -0.754656 3.49342 0
M  V30 125 C 12.6198 0.361445 4.49449 0
M  V30 126 C 11.2818 0.667893 4.76542 0
M  V30 127 C 13.6338 1.11322 5.09173 0
M  V30 128 C 10.9618 1.7296 5.60626 0
M  V30 129 C 13.3138 2.1647 5.9441 0
M  V30 130 C 11.9778 2.47742 6.19822 0
M  V30 131 H 11.2478 -0.122261 0.730844 0
M  V30 132 H 13.8948 0.395917 1.87363 0
M  V30 133 H 12.1998 -1.56446 3.5921 0
M  V30 134 H 13.8968 -1.24142 3.813 0
M  V30 135 H 10.4868 0.112481 4.28452 0
M  V30 136 H 14.6708 0.88973 4.8826 0
M  V30 137 H 9.9268 1.97684 5.78559 0
M  V30 138 H 14.1008 2.75193 6.3972 0
M  V30 139 H 11.7278 3.30145 6.84769 0
M  V30 140 N 13.3029 -1.57598 0.00835791 0
M  V30 141 C 14.7189 -1.55764 -0.347822 0
M  V30 142 C 14.9189 -1.01186 -1.74252 0
M  V30 143 O 13.9749 -0.649371 -2.44007 0
M  V30 144 C 15.2879 -2.99927 -0.215407 0
M  V30 145 C 16.8359 -3.11656 -0.289725 0
M  V30 146 C 17.3109 -4.57621 -0.18634 0
M  V30 147 N 18.8019 -4.62557 -0.243978 0
M  V30 148 C 19.5369 -5.73094 -0.18745 0
M  V30 149 N 19.0329 -6.92753 -0.0810331 0
M  V30 150 N 20.8259 -5.61588 -0.239925 0
M  V30 151 H 12.9769 -1.91411 0.92062 0
M  V30 152 H 15.2399 -0.879562 0.353659 0
M  V30 153 H 14.9459 -3.43729 0.744512 0
M  V30 154 H 14.8199 -3.63865 -0.994097 0
M  V30 155 H 17.2069 -2.67779 -1.24009 0
M  V30 156 H 17.2879 -2.5048 0.51898 0
M  V30 157 H 16.9319 -5.02174 0.760519 0
M  V30 158 H 16.8619 -5.16752 -1.01364 0
M  V30 159 H 19.3529 -3.76481 -0.327217 0
M  V30 160 H 19.6659 -7.72787 -0.0440241 0
M  V30 161 H 18.0109 -6.94984 -0.0465419 0
M  V30 162 H 21.2019 -4.66996 -0.321317 0
M  V30 163 H 21.3749 -6.47714 -0.192407 0
M  V30 164 N 14.781 0.264519 -1.55364 0
M  V30 165 C 16.006 1.01726 -1.80739 0
M  V30 166 C 16.431 1.78836 -0.583044 0
M  V30 167 O 15.789 1.75167 0.467566 0
M  V30 168 C 15.837 1.94482 -3.03659 0
M  V30 169 O 14.941 3.03386 -2.7934 0
M  V30 170 H 14.282 0.290395 -0.597132 0
M  V30 171 H 16.812 0.290854 -2.02522 0
M  V30 172 H 16.822 2.36278 -3.32621 0
M  V30 173 H 15.497 1.37772 -3.92418 0
M  V30 174 H 14.074 2.65844 -2.61498 0
M  V30 175 N 16.2591 1.48442 0.529413 0
M  V30 176 C 17.5071 1.56179 1.28267 0
M  V30 177 C 17.8281 0.237721 1.93546 0
M  V30 178 O 17.0981 -0.740779 1.81354 0
M  V30 179 H 15.6781 0.575367 0.476405 0
M  V30 180 H 18.3401 1.84909 0.61602 0
M  V30 181 H 17.4361 2.34312 2.06165 0
M  V30 182 N 17.7372 -0.778329 1.37039 0
M  V30 183 C 18.9852 -1.53361 1.31623 0
M  V30 184 C 19.3062 -1.94739 -0.100831 0
M  V30 185 O 18.5762 -1.65797 -1.04347 0
M  V30 186 H 17.1562 -0.568794 0.484234 0
M  V30 187 H 19.8182 -0.926742 1.71457 0
M  V30 188 H 18.9142 -2.43606 1.95096 0
M  V30 189 N 19.2153 -1.21501 -1.00376 0
M  V30 190 C 20.4403 -1.05977 -1.78279 0
M  V30 191 C 20.8653 0.385994 -1.84097 0
M  V30 192 O 20.2233 1.27849 -1.28547 0
M  V30 193 C 20.2713 -1.66302 -3.19963 0
M  V30 194 O 19.3753 -0.909333 -4.0225 0
M  V30 195 H 18.7163 -0.372906 -0.549397 0
M  V30 196 H 21.2463 -1.6107 -1.26165 0
M  V30 197 H 21.2563 -1.70574 -3.70632 0
M  V30 198 H 19.9313 -2.71515 -3.15043 0
M  V30 199 H 18.5083 -0.941795 -3.60811 0
M  V30 200 N 20.6934 1.19889 -1.02296 0
M  V30 201 C 22.1094 1.41462 -0.738954 0
M  V30 202 C 22.3094 1.89721 0.678846 0
M  V30 203 O 21.3654 2.07016 1.4457 0
M  V30 204 C 22.6784 2.43083 -1.77005 0
M  V30 205 C 24.2264 2.5684 -1.78892 0
M  V30 206 C 24.7014 3.61709 -2.80945 0
M  V30 207 N 26.1924 3.69199 -2.79725 0
M  V30 208 C 26.9274 4.50019 -3.55345 0
M  V30 209 N 26.4234 5.34592 -4.40662 0
M  V30 210 N 28.2164 4.44612 -3.43914 0
M  V30 211 H 20.3674 0.868827 -1.93817 0
M  V30 212 H 22.6304 0.44399 -0.837602 0
M  V30 213 H 22.3364 2.14636 -2.78612 0
M  V30 214 H 22.2104 3.4217 -1.58744 0
M  V30 215 H 24.5974 2.84614 -0.779674 0
M  V30 216 H 24.6784 1.57927 -2.01228 0
M  V30 217 H 24.3224 3.34678 -3.82038 0
M  V30 218 H 24.2524 4.60259 -2.5587 0
M  V30 219 H 26.7434 3.08794 -2.17842 0
M  V30 220 H 27.0564 5.93363 -4.95116 0
M  V30 221 H 25.4014 5.34073 -4.44737 0
M  V30 222 H 28.5924 3.7758 -2.76679 0
M  V30 223 H 28.7654 5.0736 -4.031 0
M  V30 224 N 22.1715 0.800033 1.35784 0
M  V30 225 C 23.3965 0.388511 2.03729 0
M  V30 226 C 23.8215 -0.990481 1.5991 0
M  V30 227 O 23.1795 -1.64013 0.772612 0
M  V30 228 C 23.2275 0.4726 3.5749 0
M  V30 229 O 22.3315 -0.51646 4.09153 0
M  V30 230 H 21.6725 0.163271 0.643614 0
M  V30 231 H 24.2025 1.0841 1.73518 0
M  V30 232 H 24.2125 0.34003 4.06581 0
M  V30 233 H 22.8875 1.47848 3.88734 0
M  V30 234 H 21.4645 -0.344673 3.71304 0
M  V30 235 N 23.6496 -1.47581 0.552962 0
M  V30 236 C 24.8966 -2.02482 0.0273243 0
M  V30 237 C 25.2246 -1.42776 -1.32081 0
M  V30 238 O 24.4796 -0.571393 -1.87173 0
M  V30 239 C 24.7786 -3.57199 -0.119728 0
M  V30 240 C 24.4446 -4.35804 1.15697 0
M  V30 241 C 23.1066 -4.57 1.50681 0
M  V30 242 C 25.4586 -4.81167 2.00319 0
M  V30 243 C 22.7866 -5.20807 2.70142 0
M  V30 244 C 25.1386 -5.46293 3.18978 0
M  V30 245 C 23.8026 -5.65722 3.54281 0
M  V30 246 H 23.0726 -0.740933 0.00999866 0
M  V30 247 H 25.7196 -1.77302 0.72362 0
M  V30 248 H 24.0246 -3.81348 -0.89896 0
M  V30 249 H 25.7216 -3.97324 -0.541718 0
M  V30 250 H 22.3116 -4.19582 0.874561 0
M  V30 251 H 26.4956 -4.64574 1.74599 0
M  V30 252 H 21.7516 -5.34045 2.97668 0
M  V30 253 H 25.9256 -5.80407 3.84838 0
M  V30 254 H 23.5526 -6.14936 4.46942 0
M  V30 255 N 25.1277 -0.289203 -1.54924 0
M  V30 256 C 26.3527 0.329299 -2.04769 0
M  V30 257 C 26.7777 1.4763 -1.16564 0
M  V30 258 O 26.1357 1.80527 -0.167186 0
M  V30 259 C 26.1837 0.774438 -3.52186 0
M  V30 260 O 25.2877 1.88038 -3.67036 0
M  V30 261 H 24.6287 0.0659259 -0.660719 0
M  V30 262 H 27.1587 -0.42761 -2.00082 0
M  V30 263 H 27.1687 1.06642 -3.93816 0
M  V30 264 H 25.8437 -0.0646707 -4.1585 0
M  V30 265 H 24.4207 1.58985 -3.3731 0
M  V30 266 N 26.6058 1.57591 -0.0167156 0
M  V30 267 C 27.8338 1.95575 0.675128 0
M  V30 268 C 28.2488 0.892542 1.6637 0
M  V30 269 O 27.6058 -0.126912 1.82058 0
M  V30 270 C 27.6568 3.33608 1.39239 0
M  V30 271 O 27.3778 4.3585 0.443444 0
M  V30 272 C 28.8788 3.86151 2.17721 0
M  V30 273 H 26.0988 0.644423 0.186978 0
M  V30 274 H 28.6428 2.0437 -0.0728 0
M  V30 275 H 26.7978 3.2607 2.09182 0
M  V30 276 H 27.2118 5.158 0.951358 0
M  V30 277 H 28.6858 4.85114 2.63379 0
M  V30 278 H 29.1628 3.19738 3.01105 0
M  V30 279 H 29.7688 3.96918 1.52761 0
M  V30 280 N 28.0839 -0.256276 1.55502 0
M  V30 281 C 29.0469 -1.30047 1.88734 0
M  V30 282 C 30.0469 -1.4154 0.763086 0
M  V30 283 O 31.2369 -1.40403 1.03115 0
M  V30 284 C 28.3689 -2.67953 2.10747 0
M  V30 285 H 29.5619 -1.01802 2.82093 0
M  V30 286 H 27.1149 -0.495134 1.4825 0
M  V30 287 H 27.8499 -3.01351 1.19825 0
M  V30 288 H 27.6349 -2.60993 2.92617 0
M  V30 289 H 29.1249 -3.43368 2.37673 0
M  V30 290 N 29.562 -1.4872 -0.521534 0
M  V30 291 C 30.787 -1.61101 -1.30618 0
M  V30 292 C 31.212 -0.274611 -1.86085 0
M  V30 293 O 30.57 0.754937 -1.64834 0
M  V30 294 C 30.618 -2.66709 -2.4269 0
M  V30 295 O 29.722 -2.24456 -3.45967 0
M  V30 296 H 29.063 -0.539921 -0.386499 0
M  V30 297 H 31.593 -1.94767 -0.626645 0
M  V30 298 H 31.603 -2.88245 -2.88754 0
M  V30 299 H 30.278 -3.63727 -2.01682 0
M  V30 300 H 28.855 -2.13168 -3.05964 0
M  V30 301 N 31.0401 0.771051 -1.3745 0
M  V30 302 C 32.0031 1.86598 -1.33093 0
M  V30 303 C 33.0031 1.59076 -0.234845 0
M  V30 304 O 34.1931 1.67145 -0.490732 0
M  V30 305 C 31.3251 3.23747 -1.06773 0
M  V30 306 H 32.5181 1.91873 -2.30488 0
M  V30 307 H 30.0711 0.970876 -1.2249 0
M  V30 308 H 30.8061 3.24148 -0.099129 0
M  V30 309 H 30.5911 3.45115 -1.86112 0
M  V30 310 H 32.0811 4.03824 -1.06377 0
M  V30 311 N 32.5182 1.22032 0.997298 0
M  V30 312 C 33.7672 1.03637 1.73038 0
M  V30 313 C 34.0802 -0.429475 1.90827 0
M  V30 314 O 35.2862 -0.732995 2.61418 0
M  V30 315 C 33.7422 1.80582 3.11317 0
M  V30 316 C 33.3502 3.31387 3.01474 0
M  V30 317 C 35.0942 1.70621 3.88701 0
M  V30 318 C 33.0012 4.00791 4.3488 0
M  V30 319 H 31.9312 0.384179 0.648785 0
M  V30 320 H 34.5822 1.4584 1.11368 0
M  V30 321 H 32.9642 1.31175 3.73643 0
M  V30 322 H 34.1382 3.88155 2.4834 0
M  V30 323 H 32.4532 3.41976 2.37575 0
M  V30 324 H 35.0502 2.19799 4.87434 0
M  V30 325 H 35.3932 0.665823 4.10941 0
M  V30 326 H 35.9262 2.17547 3.33044 0
M  V30 327 H 32.6652 5.05064 4.1784 0
M  V30 328 H 32.1852 3.48811 4.87945 0
M  V30 329 H 33.8642 4.06139 5.03647 0
M  V30 330 N 33.9963 -1.19345 1.0293 0
M  V30 331 C 35.2243 -1.92997 0.745644 0
M  V30 332 C 35.6393 -1.75519 -0.695589 0
M  V30 333 O 34.9963 -1.07737 -1.47306 0
M  V30 334 C 35.0473 -3.44741 1.08792 0
M  V30 335 O 34.7683 -3.61658 2.47256 0
M  V30 336 C 36.2693 -4.35515 0.827129 0
M  V30 337 H 33.4893 -0.613042 0.272801 0
M  V30 338 H 36.0333 -1.51473 1.3739 0
M  V30 339 H 34.1883 -3.84097 0.504832 0
M  V30 340 H 34.6023 -4.55514 2.60015 0
M  V30 341 H 36.0763 -5.40589 1.11658 0
M  V30 342 H 36.5533 -4.38552 -0.238436 0
M  V30 343 H 37.1593 -4.01841 1.39297 0
M  V30 344 N 35.4744 -0.807222 -1.35358 0
M  V30 345 C 36.8854 -0.44876 -1.81226 0
M  V30 346 C 37.2364 1.02929 -1.67033 0
M  V30 347 O 36.3614 1.79991 -1.20133 0
M  V30 348 C 36.9564 -0.807774 -3.2903 0
M  V30 349 C 35.5154 -0.501901 -3.73039 0
M  V30 350 C 34.6624 -1.03304 -2.57339 0
M  V30 351 H 37.6134 -0.998808 -1.23327 0
M  V30 352 H 37.6344 -0.10554 -3.80354 0
M  V30 353 H 37.1464 -1.88357 -3.39328 0
M  V30 354 H 35.2474 0.565128 -3.68289 0
M  V30 355 H 35.3604 -1.03497 -4.67787 0
M  V30 356 H 33.7244 -0.455339 -2.50597 0
M  V30 357 H 34.5074 -2.11496 -2.70415 0
M  V30 358 N 36.9525 1.47285 -0.560781 0
M  V30 359 C 38.1775 2.07359 -0.0410566 0
M  V30 360 C 38.6025 1.41017 1.24483 0
M  V30 361 O 37.9605 0.486368 1.74654 0
M  V30 362 C 38.0085 3.6035 0.134123 0
M  V30 363 O 37.1125 3.94681 1.19587 0
M  V30 364 H 36.4535 0.661887 -0.0529291 0
M  V30 365 H 38.9835 1.89252 -0.777482 0
M  V30 366 H 38.9935 4.0652 0.347207 0
M  V30 367 H 37.6685 4.08034 -0.805047 0
M  V30 368 H 36.2455 3.60251 0.962987 0
M  V30 369 N 38.4306 0.297415 1.54768 0
M  V30 370 C 39.6766 -0.313376 2.00364 0
M  V30 371 C 40.0096 -1.53815 1.18553 0
M  V30 372 O 39.2846 -1.92739 0.261103 0
M  V30 373 C 39.5676 -0.673525 3.53745 0
M  V30 374 C 39.4206 0.560133 4.46299 0
M  V30 375 C 40.7396 -1.50143 4.13697 0
M  V30 376 H 37.8586 -0.112428 0.728374 0
M  V30 377 H 40.5006 0.4088 1.8555 0
M  V30 378 H 38.6506 -1.28881 3.665 0
M  V30 379 H 40.3226 1.19863 4.45455 0
M  V30 380 H 38.5656 1.19405 4.17043 0
M  V30 381 H 39.2366 0.26405 5.51368 0
M  V30 382 H 41.7126 -0.981588 4.04356 0
M  V30 383 H 40.5886 -1.72221 5.21182 0
M  V30 384 H 40.8496 -2.48952 3.65343 0
M  V30 385 N 39.9087 -1.5758 0.0250728 0
M  V30 386 C 41.1337 -1.96337 -0.668317 0
M  V30 387 C 41.5587 -0.901314 -1.651 0
M  V30 388 O 40.9167 0.138187 -1.80773 0
M  V30 389 C 40.9647 -3.34191 -1.35457 0
M  V30 390 O 40.0687 -3.30269 -2.46974 0
M  V30 391 H 39.4097 -0.640281 -0.175887 0
M  V30 392 H 41.9397 -2.0442 0.0857224 0
M  V30 393 H 41.9497 -3.70331 -1.71228 0
M  V30 394 H 40.6247 -4.11036 -0.634218 0
M  V30 395 H 39.2017 -3.05841 -2.13344 0
M  V30 396 N 41.3868 0.248026 -1.55636 0
M  V30 397 C 42.8028 0.596483 -1.48035 0
M  V30 398 C 43.0028 1.88386 -0.715039 0
M  V30 399 O 42.0588 2.51319 -0.243944 0
M  V30 400 C 43.3718 0.700258 -2.92433 0
M  V30 401 C 44.9198 0.792659 -3.02797 0
M  V30 402 C 45.3948 0.928005 -4.485 0
M  V30 403 N 46.8858 0.992903 -4.52433 0
M  V30 404 C 47.6208 1.11687 -5.62418 0
M  V30 405 N 47.1168 1.20645 -6.82214 0
M  V30 406 N 48.9098 1.14994 -5.50212 0
M  V30 407 H 41.0608 -0.597109 -2.03834 0
M  V30 408 H 43.3238 -0.205925 -0.925364 0
M  V30 409 H 43.0298 -0.175658 -3.51261 0
M  V30 410 H 42.9038 1.57255 -3.42857 0
M  V30 411 H 45.2908 1.65903 -2.4405 0
M  V30 412 H 45.3718 -0.104762 -2.55585 0
M  V30 413 H 45.0158 0.0661971 -5.07857 0
M  V30 414 H 44.9458 1.84045 -4.93391 0
M  V30 415 H 47.4368 0.935064 -3.66149 0
M  V30 416 H 47.7498 1.30008 -7.61786 0
M  V30 417 H 46.0948 1.17605 -6.84977 0
M  V30 418 H 49.2858 1.07643 -4.55555 0
M  V30 419 H 49.4588 1.24311 -6.35965 0
M  V30 420 N 42.8649 1.48995 0.513639 0
M  V30 421 C 44.0929 1.61531 1.29288 0
M  V30 422 C 44.5079 0.281801 1.86685 0
M  V30 423 O 43.8649 -0.731111 1.67215 0
M  V30 424 C 43.9159 2.67449 2.43215 0
M  V30 425 O 43.6369 3.95626 1.88179 0
M  V30 426 C 45.1379 2.90575 3.34785 0
M  V30 427 H 42.3579 0.544165 0.392588 0
M  V30 428 H 44.9019 1.9494 0.617956 0
M  V30 429 H 43.0569 2.36853 3.0656 0
M  V30 430 H 43.4709 4.53868 2.62876 0
M  V30 431 H 44.9449 3.68449 4.11035 0
M  V30 432 H 45.4219 2.00011 3.91015 0
M  V30 433 H 46.0279 3.22538 2.77218 0
M  V30 434 N 44.343 -0.763751 1.37857 0
M  V30 435 C 45.568 -1.55805 1.36893 0
M  V30 436 C 45.993 -1.88054 -0.0416135 0
M  V30 437 O 45.351 -1.49825 -1.02089 0
M  V30 438 C 45.399 -2.84012 2.22192 0
M  V30 439 O 44.503 -3.78732 1.63204 0
M  V30 440 H 43.844 -0.471638 0.46739 0
M  V30 441 H 46.374 -0.944657 1.81487 0
M  V30 442 H 46.384 -3.33037 2.35691 0
M  V30 443 H 45.059 -2.59869 3.24716 0
M  V30 444 H 43.636 -3.37402 1.58791 0
M  V30 445 N 45.8211 -1.22559 -0.990812 0
M  V30 446 C 47.0681 -1.05141 -1.73065 0
M  V30 447 C 47.3961 0.413191 -1.9006 0
M  V30 448 O 46.6511 1.32257 -1.44245 0
M  V30 449 C 46.9501 -1.71011 -3.13831 0
M  V30 450 C 46.6161 -3.20911 -3.16745 0
M  V30 451 C 45.2781 -3.61812 -3.17247 0
M  V30 452 C 47.6301 -4.16846 -3.12872 0
M  V30 453 C 44.9581 -4.97127 -3.1158 0
M  V30 454 C 47.3101 -5.5214 -3.08746 0
M  V30 455 C 45.9741 -5.92419 -3.07565 0
M  V30 456 H 45.2441 -0.384738 -0.633291 0
M  V30 457 H 47.8911 -1.5235 -1.16025 0
M  V30 458 H 46.1961 -1.16133 -3.74193 0
M  V30 459 H 47.8931 -1.55023 -3.69823 0
M  V30 460 H 44.4831 -2.88344 -3.17105 0
M  V30 461 H 48.6671 -3.86263 -3.11632 0
M  V30 462 H 43.9231 -5.27562 -3.09012 0
M  V30 463 H 48.0971 -6.26201 -3.04705 0
M  V30 464 H 45.7241 -6.97236 -3.02929 0
M  V30 465 N 47.2992 1.18797 -1.03562 0
M  V30 466 C 48.5272 1.92599 -0.755869 0
M  V30 467 C 48.9422 1.75886 0.686271 0
M  V30 468 O 48.2992 1.08517 1.46732 0
M  V30 469 C 48.3502 3.44159 -1.10619 0
M  V30 470 O 48.0712 3.60341 -2.4917 0
M  V30 471 C 49.5722 4.3507 -0.850214 0
M  V30 472 H 46.7922 0.611587 -0.276048 0
M  V30 473 H 49.3362 1.50742 -1.38192 0
M  V30 474 H 47.4912 3.83823 -0.525194 0
M  V30 475 H 47.9052 4.54128 -2.62427 0
M  V30 476 H 49.3792 5.39989 -1.14523 0
M  V30 477 H 49.8562 4.38673 0.215176 0
M  V30 478 H 50.4622 4.01097 -1.41426 0
M  V30 479 N 48.7773 0.814389 1.34928 0
M  V30 480 C 50.0023 0.410097 2.03305 0
M  V30 481 C 50.4273 -0.973464 1.60951 0
M  V30 482 O 49.7853 -1.63185 0.789964 0
M  V30 483 C 49.8333 0.51049 3.56968 0
M  V30 484 O 48.9373 -0.473035 4.09678 0
M  V30 485 H 48.2783 0.170088 0.641846 0
M  V30 486 H 50.8083 1.10244 1.72358 0
M  V30 487 H 50.8183 0.383135 4.06197 0
M  V30 488 H 49.4933 1.51963 3.87144 0
M  V30 489 H 48.0703 -0.305272 3.71648 0
M  V30 490 N 50.2554 -1.46986 0.568584 0
M  V30 491 C 51.5014 -2.02741 0.0488709 0
M  V30 492 C 51.8344 -1.44077 -1.30214 0
M  V30 493 O 51.1094 -0.600552 -1.84996 0
M  V30 494 C 51.3924 -3.60086 -0.032047 0
M  V30 495 C 51.2454 -4.29162 1.34686 0
M  V30 496 C 52.5644 -4.33838 -0.739798 0
M  V30 497 H 49.6834 -0.736749 0.0192338 0
M  V30 498 H 52.3254 -1.75289 0.733065 0
M  V30 499 H 50.4754 -3.83606 -0.61473 0
M  V30 500 H 52.1474 -4.16948 1.97362 0
M  V30 501 H 50.3904 -3.89073 1.91846 0
M  V30 502 H 51.0614 -5.37826 1.24285 0
M  V30 503 H 53.5374 -4.15378 -0.244939 0
M  V30 504 H 52.4134 -5.43537 -0.765406 0
M  V30 505 H 52.6744 -4.03875 -1.79827 0
M  V30 506 N 51.7335 -0.305618 -1.54608 0
M  V30 507 C 52.9585 0.307562 -2.05107 0
M  V30 508 C 53.3835 1.46385 -1.18123 0
M  V30 509 O 52.7415 1.8034 -0.186324 0
M  V30 510 C 52.7895 0.73704 -3.52987 0
M  V30 511 O 51.8935 1.84134 -3.6901 0
M  V30 512 H 51.2345 0.0589143 -0.661381 0
M  V30 513 H 53.7645 -0.448807 -1.99617 0
M  V30 514 H 53.7745 1.02459 -3.94925 0
M  V30 515 H 52.4495 -0.108773 -4.15758 0
M  V30 516 H 51.0265 1.55398 -3.38978 0
M  V30 517 N 53.2116 1.57565 -0.0334293 0
M  V30 518 C 54.6276 1.56297 0.322997 0
M  V30 519 C 54.8276 1.03945 1.7262 0
M  V30 520 O 53.8836 0.688109 2.42943 0
M  V30 521 C 55.1966 3.00232 0.167664 0
M  V30 522 C 56.7446 3.12078 0.240107 0
M  V30 523 C 57.2196 4.57859 0.113513 0
M  V30 524 N 58.7106 4.62887 0.170359 0
M  V30 525 C 59.4456 5.73319 0.0962517 0
M  V30 526 N 58.9416 6.92794 -0.0291881 0
M  V30 527 N 60.7346 5.61898 0.150551 0
M  V30 528 H 52.8856 1.89923 -0.950956 0
M  V30 529 H 55.1486 0.873824 -0.367608 0
M  V30 530 H 54.8546 3.42501 -0.799102 0
M  V30 531 H 54.7286 3.654 0.936083 0
M  V30 532 H 57.1156 2.69718 1.19733 0
M  V30 533 H 57.1966 2.49623 -0.558763 0
M  V30 534 H 56.8406 5.009 -0.840314 0
M  V30 535 H 56.7706 5.18299 0.931302 0
M  V30 536 H 59.2616 3.76954 0.26728 0
M  V30 537 H 59.5746 7.7276 -0.0789252 0
M  V30 538 H 57.9196 6.94971 -0.0640299 0
M  V30 539 H 61.1106 4.67448 0.246981 0
M  V30 540 H 61.2836 6.47938 0.0893365 0
M  V30 541 N 54.6897 -0.239769 1.55765 0
M  V30 542 C 55.9147 -0.988373 1.82335 0
M  V30 543 C 56.3397 -1.77886 0.611421 0
M  V30 544 O 55.6977 -1.75889 -0.439639 0
M  V30 545 C 55.7457 -1.89627 3.06715 0
M  V30 546 O 54.8497 -2.98904 2.84131 0
M  V30 547 H 54.1907 -0.280858 0.601677 0
M  V30 548 H 56.7207 -0.258597 2.02959 0
M  V30 549 H 56.7307 -2.30957 3.36338 0
M  V30 550 H 55.4057 -1.31511 3.9456 0
M  V30 551 H 53.9827 -2.61651 2.65694 0
M  V30 552 N 56.1678 -1.49265 -0.50573 0
M  V30 553 C 57.4158 -1.582 -1.25766 0
M  V30 554 C 57.7368 -0.268482 -1.93143 0
M  V30 555 O 57.0068 0.711833 -1.8251 0
M  V30 556 H 55.5868 -0.582873 -0.467191 0
M  V30 557 H 58.2488 -1.85865 -0.586525 0
M  V30 558 H 57.3448 -2.37563 -2.02412 0
M  V30 559 N 57.6459 0.756429 -1.3826 0
M  V30 560 C 58.8939 1.51248 -1.34047 0
M  V30 561 C 59.2149 1.94875 0.0698372 0
M  V30 562 O 58.4849 1.67436 1.01696 0
M  V30 563 H 57.0649 0.561018 -0.493222 0
M  V30 564 H 59.7269 0.899347 -1.7291 0
M  V30 565 H 58.8229 2.40472 -1.98947 0
M  V30 566 N 59.124 1.23083 0.984299 0
M  V30 567 C 60.372 1.05848 1.72165 0
M  V30 568 C 60.693 -0.406049 1.90726 0
M  V30 569 O 59.963 -1.29139 1.47309 0
M  V30 570 H 58.543 0.388685 0.637913 0
M  V30 571 H 61.205 1.54736 1.18503 0
M  V30 572 H 60.301 1.54327 2.71274 0
M  V30 573 N 60.6021 -1.18246 1.0419 0
M  V30 574 C 61.8501 -1.87886 0.744543 0
M  V30 575 C 62.1711 -1.8082 -0.730006 0
M  V30 576 O 61.4411 -1.22736 -1.52685 0
M  V30 577 H 60.0211 -0.695556 0.272417 0
M  V30 578 H 62.6831 -1.43494 1.31892 0
M  V30 579 H 61.7791 -2.9389 1.05049 0
M  V30 580 N 62.0802 -0.821533 -1.34494 0
M  V30 581 C 63.3282 -0.408139 -1.97936 0
M  V30 582 C 63.6492 1.03193 -1.65457 0
M  V30 583 O 62.9192 1.71622 -0.944595 0
M  V30 584 H 61.4992 -0.147928 -0.732206 0
M  V30 585 H 64.1612 -1.05067 -1.64155 0
M  V30 586 H 63.2572 -0.52601 -3.07635 0
M  V30 587 N 63.5583 1.46682 -0.576371 0
M  V30 588 C 64.8063 2.02013 -0.0594163 0
M  V30 589 C 65.1273 1.45101 1.30271 0
M  V30 590 O 64.3973 0.633317 1.8538 0
M  V30 591 H 62.9773 0.746759 -0.0189745 0
M  V30 592 H 65.6393 1.79862 -0.750717 0
M  V30 593 H 64.7353 3.12097 0.014345 0
M  V30 594 N 65.0364 0.313813 1.54444 0
M  V30 595 C 66.2844 -0.291099 1.99993 0
M  V30 596 C 66.6054 -1.53418 1.20366 0
M  V30 597 O 65.8754 -1.93544 0.302927 0
M  V30 598 H 64.4554 -0.110552 0.738774 0
M  V30 599 H 67.1174 0.428106 1.9014 0
M  V30 600 H 66.2134 -0.554268 3.07139 0
M  V30 601 N 66.5145 -1.57545 0.0417849 0
M  V30 602 C 67.7615 -1.92317 -0.634082 0
M  V30 603 C 68.0895 -0.919334 -1.71402 0
M  V30 604 O 67.3445 0.0698253 -1.95575 0
M  V30 605 C 67.6435 -3.33794 -1.27735 0
M  V30 606 C 67.3095 -4.49716 -0.326543 0
M  V30 607 C 65.9715 -4.81156 -0.0648814 0
M  V30 608 C 68.3235 -5.20182 0.325623 0
M  V30 609 C 65.6515 -5.80414 0.856539 0
M  V30 610 C 68.0035 -6.20424 1.23518 0
M  V30 611 C 66.6675 -6.50298 1.5056 0
M  V30 612 H 65.9375 -0.703736 -0.232027 0
M  V30 613 H 68.5845 -1.91205 0.106259 0
M  V30 614 H 66.8895 -3.31228 -2.09274 0
M  V30 615 H 68.5865 -3.57975 -1.80707 0
M  V30 616 H 65.1765 -4.25176 -0.540665 0
M  V30 617 H 69.3605 -4.96112 0.136546 0
M  V30 618 H 64.6165 -6.019 1.07363 0
M  V30 619 H 68.7905 -6.74141 1.74664 0
M  V30 620 H 66.4175 -7.27025 2.22123 0
M  V30 621 N 67.9926 0.231505 -1.5589 0
M  V30 622 C 69.2406 0.955461 -1.78088 0
M  V30 623 C 69.5616 1.85262 -0.608533 0
M  V30 624 O 68.8316 1.92277 0.375035 0
M  V30 625 H 67.4116 0.355787 -0.656829 0
M  V30 626 H 70.0736 0.245751 -1.93344 0
M  V30 627 H 69.1696 1.56814 -2.69844 0
M  V30 628 N 69.4707 1.49531 0.497807 0
M  V30 629 C 70.8867 1.36365 0.829266 0
M  V30 630 C 71.0867 0.399184 1.97506 0
M  V30 631 O 70.1427 -0.167977 2.51941 0
M  V30 632 C 71.4557 2.77153 1.16647 0
M  V30 633 C 73.0037 2.85877 1.27449 0
M  V30 634 C 73.4787 4.2744 1.64497 0
M  V30 635 N 74.9697 4.30265 1.7154 0
M  V30 636 C 75.7047 5.3677 2.01656 0
M  V30 637 N 75.2007 6.53516 2.29976 0
M  V30 638 N 76.9937 5.24189 2.02934 0
M  V30 639 H 69.1447 2.10831 -0.257703 0
M  V30 640 H 71.4077 0.946534 -0.0527091 0
M  V30 641 H 71.1137 3.49442 0.397872 0
M  V30 642 H 70.9877 3.12722 2.10915 0
M  V30 643 H 73.3747 2.13824 2.0338 0
M  V30 644 H 73.4557 2.53887 0.312244 0
M  V30 645 H 73.0997 5.00021 0.891151 0
M  V30 646 H 73.0297 4.56896 2.61827 0
M  V30 647 H 75.5207 3.4607 1.51802 0
M  V30 648 H 75.8337 7.30506 2.52153 0
M  V30 649 H 74.1787 6.56737 2.27425 0
M  V30 650 H 77.3697 4.31988 1.80289 0
M  V30 651 H 77.5427 6.07286 2.26071 0
M  V30 652 N 70.9488 -0.749086 1.3866 0
M  V30 653 C 72.1948 -1.51056 1.35314 0
M  V30 654 C 72.5278 -1.94121 -0.0553751 0
M  V30 655 O 71.8028 -1.65763 -1.01749 0
M  V30 656 C 72.0858 -2.76003 2.31288 0
M  V30 657 C 71.9388 -2.39047 3.8102 0
M  V30 658 C 73.2578 -3.78046 2.2532 0
M  V30 659 H 70.3768 -0.547972 0.492844 0
M  V30 660 H 73.0188 -0.857628 1.69543 0
M  V30 661 H 71.1688 -3.31716 2.02229 0
M  V30 662 H 72.8408 -1.89074 4.20771 0
M  V30 663 H 71.0838 -1.71449 3.98482 0
M  V30 664 H 71.7548 -3.28462 4.4364 0
M  V30 665 H 74.2308 -3.31884 2.50983 0
M  V30 666 H 73.1068 -4.63159 2.94576 0
M  V30 667 H 73.3678 -4.23957 1.25352 0
M  V30 668 N 72.4269 -1.23603 -0.977757 0
M  V30 669 C 73.6519 -1.09735 -1.75991 0
M  V30 670 C 74.0769 0.346858 -1.84874 0
M  V30 671 O 73.4349 1.25093 -1.3123 0
M  V30 672 C 73.4829 -1.73051 -3.16363 0
M  V30 673 O 72.5869 -0.994452 -4.0023 0
M  V30 674 H 71.9279 -0.384476 -0.541364 0
M  V30 675 H 74.4579 -1.6371 -1.2272 0
M  V30 676 H 74.4679 -1.78398 -3.66931 0
M  V30 677 H 73.1429 -2.78137 -3.09213 0
M  V30 678 H 71.7199 -1.01812 -3.58732 0
M  V30 679 N 73.905 1.17692 -1.04816 0
M  V30 680 C 74.835 2.23777 -0.666791 0
M  V30 681 C 75.816 1.66796 0.33361 0
M  V30 682 O 77.001 1.93039 0.212042 0
M  V30 683 C 74.131 3.47281 -0.0367933 0
M  V30 684 C 73.085 4.17059 -0.961546 0
M  V30 685 C 72.411 5.34342 -0.195626 0
M  V30 686 C 73.711 4.69713 -2.28402 0
M  V30 687 H 75.405 2.55933 -1.55367 0
M  V30 688 H 72.951 1.23019 -0.748484 0
M  V30 689 H 74.904 4.20706 0.241775 0
M  V30 690 H 73.628 3.14381 0.885004 0
M  V30 691 H 72.287 3.45541 -1.22462 0
M  V30 692 H 71.935 4.97692 0.728816 0
M  V30 693 H 71.635 5.81966 -0.811775 0
M  V30 694 H 73.159 6.10553 0.0757473 0
M  V30 695 H 74.573 5.34794 -2.06563 0
M  V30 696 H 72.97 5.279 -2.8538 0
M  V30 697 H 74.04 3.86726 -2.92525 0
M  V30 698 N 75.3831 0.828654 1.34056 0
M  V30 699 C 76.3461 0.259927 2.27721 0
M  V30 700 C 77.3461 -0.565478 1.50529 0
M  V30 701 O 78.5361 -0.38075 1.69988 0
M  V30 702 C 75.6681 -0.634944 3.34935 0
M  V30 703 H 76.8611 1.0863 2.79534 0
M  V30 704 H 74.4141 0.600951 1.44285 0
M  V30 705 H 75.1491 -1.48416 2.88346 0
M  V30 706 H 74.9341 -0.0444999 3.92075 0
M  V30 707 H 76.4241 -1.02648 4.04788 0
M  V30 708 N 76.8612 -1.46375 0.584142 0
M  V30 709 C 78.1092 -2.01978 0.0701287 0
M  V30 710 C 78.4302 -1.4579 -1.295 0
M  V30 711 O 77.7002 -0.64314 -1.85042 0
M  V30 712 H 76.2802 -0.746648 0.0229345 0
M  V30 713 H 78.9422 -1.79461 0.760245 0
M  V30 714 H 78.0382 -3.121 0.0022064 0
M  V30 715 N 78.3393 -0.321999 -1.54275 0
M  V30 716 C 79.3023 0.531975 -2.22941 0
M  V30 717 C 80.3023 1.04478 -1.22234 0
M  V30 718 O 81.4923 0.937452 -1.46825 0
M  V30 719 C 78.6243 1.73874 -2.93224 0
M  V30 720 H 79.8173 -0.0682612 -2.99822 0
M  V30 721 H 77.3703 -0.0730644 -1.56129 0
M  V30 722 H 78.1053 2.37825 -2.20476 0
M  V30 723 H 77.8903 1.37847 -3.6707 0
M  V30 724 H 79.3803 2.34496 -3.45545 0
M  V30 725 N 79.8174 1.5752 -0.0501392 0
M  V30 726 C 81.0574 1.94521 0.627783 0
M  V30 727 C 81.4214 0.928265 1.68069 0
M  V30 728 O 82.6224 1.18517 2.41261 0
M  V30 729 C 80.8934 3.36319 1.20932 0
M  V30 730 S 82.4524 3.95272 1.90539 0
M  V30 731 H 79.2704 0.680456 0.206158 0
M  V30 732 H 81.8724 1.95139 -0.118829 0
M  V30 733 H 80.5764 4.08132 0.430865 0
M  V30 734 H 80.1074 3.39193 1.99277 0
M  V30 735 H 82.1224 3.80415 3.18589 0
M  V30 736 N 81.2955 -0.223234 1.56011 0
M  V30 737 C 82.5435 -0.946003 1.78592 0
M  V30 738 C 82.8645 -1.84936 0.618349 0
M  V30 739 O 82.1345 -1.92473 -0.364833 0
M  V30 740 H 80.7145 -0.352298 0.658707 0
M  V30 741 H 83.3765 -0.235494 1.93472 0
M  V30 742 H 82.4725 -1.55381 2.70672 0
M  V30 743 N 82.7736 -1.49793 -0.48987 0
M  V30 744 C 84.0196 -1.60078 -1.24511 0
M  V30 745 C 84.3526 -0.291608 -1.91998 0
M  V30 746 O 83.6276 0.705647 -1.81248 0
M  V30 747 C 83.9106 -2.76791 -2.30345 0
M  V30 748 C 83.7636 -4.17535 -1.67286 0
M  V30 749 C 85.0826 -2.89111 -3.31817 0
M  V30 750 H 82.2016 -0.582645 -0.451324 0
M  V30 751 H 84.8436 -1.82117 -0.541612 0
M  V30 752 H 82.9936 -2.5813 -2.90346 0
M  V30 753 H 84.6656 -4.4774 -1.11026 0
M  V30 754 H 82.9086 -4.22665 -0.976577 0
M  V30 755 H 83.5796 -4.95094 -2.44103 0
M  V30 756 H 86.0556 -3.06133 -2.81819 0
M  V30 757 H 84.9316 -3.72433 -4.03219 0
M  V30 758 H 85.1926 -1.9893 -3.94815 0
M  V30 759 N 84.2517 0.741722 -1.39055 0
M  V30 760 C 85.4997 1.49818 -1.35643 0
M  V30 761 C 85.8207 1.94938 0.0491642 0
M  V30 762 O 85.0907 1.68505 0.999141 0
M  V30 763 H 83.6707 0.555755 -0.499144 0
M  V30 764 H 86.3327 0.880957 -1.73854 0
M  V30 765 H 85.4287 2.38348 -2.01486 0
M  V30 766 N 85.7298 1.2412 0.971189 0
M  V30 767 C 86.9778 1.07668 1.71032 0
M  V30 768 C 87.2988 -0.385797 1.91146 0
M  V30 769 O 86.5688 -1.27569 1.4867 0
M  V30 770 H 85.1488 0.395429 0.633755 0
M  V30 771 H 87.8108 1.55984 1.16855 0
M  V30 772 H 86.9068 1.57195 2.69622 0
M  V30 773 N 87.2079 -1.17134 1.05439 0
M  V30 774 C 88.4379 -1.91094 0.785274 0
M  V30 775 C 88.8459 -1.77198 -0.663142 0
M  V30 776 O 88.1889 -1.10835 -1.46497 0
M  V30 777 C 88.2509 -3.42594 1.08949 0
M  V30 778 C 87.9149 -3.80274 2.53458 0
M  V30 779 C 88.9119 -3.82912 3.51673 0
M  V30 780 C 86.5969 -4.11162 2.88532 0
M  V30 781 C 88.5909 -4.15913 4.83006 0
M  V30 782 C 86.2779 -4.43831 4.20068 0
M  V30 783 C 87.2759 -4.46185 5.17115 0
M  V30 784 O 86.9639 -4.78083 6.46291 0
M  V30 785 H 86.6959 -0.613073 0.284811 0
M  V30 786 H 89.2499 -1.49461 1.40893 0
M  V30 787 H 87.4799 -3.84534 0.408741 0
M  V30 788 H 89.1689 -3.97817 0.805991 0
M  V30 789 H 89.9349 -3.5917 3.25917 0
M  V30 790 H 85.8139 -4.085 2.13656 0
M  V30 791 H 89.3579 -4.17665 5.5875 0
M  V30 792 H 85.2549 -4.67037 4.45586 0
M  V30 793 H 86.0229 -4.9593 6.51149 0
M  V30 794 N 88.686 -0.835752 -1.33615 0
M  V30 795 C 89.934 -0.429109 -1.97492 0
M  V30 796 C 90.255 1.01433 -1.66543 0
M  V30 797 O 89.525 1.70611 -0.962744 0
M  V30 798 H 88.105 -0.155686 -0.730596 0
M  V30 799 H 90.767 -1.06802 -1.63031 0
M  V30 800 H 89.863 -0.55861 -3.0706 0
M  V30 801 N 90.1641 1.46063 -0.591896 0
M  V30 802 C 91.3891 2.07226 -0.0850314 0
M  V30 803 C 91.8141 1.43625 1.21463 0
M  V30 804 O 91.1721 0.523305 1.73583 0
M  V30 805 C 91.2201 3.60554 0.0576567 0
M  V30 806 O 90.3241 3.97128 1.11188 0
M  V30 807 H 89.6651 0.660615 -0.0669568 0
M  V30 808 H 92.1951 1.8756 -0.81745 0
M  V30 809 H 92.2051 4.07165 0.2609 0
M  V30 810 H 90.8801 4.06235 -0.891416 0
M  V30 811 H 89.4571 3.62213 0.886356 0
M  V30 812 N 91.6422 0.330177 1.54103 0
M  V30 813 C 93.0582 -0.0222371 1.59585 0
M  V30 814 C 93.2582 -1.49902 1.34654 0
M  V30 815 O 92.3142 -2.25592 1.13421 0
M  V30 816 C 93.6272 0.401932 2.98002 0
M  V30 817 C 95.1752 0.353145 3.11001 0
M  V30 818 C 95.6502 0.752576 4.51775 0
M  V30 819 N 97.1412 0.706239 4.57784 0
M  V30 820 C 97.8762 0.987417 5.64834 0
M  V30 821 N 97.3722 1.33607 6.79795 0
M  V30 822 N 99.1652 0.91254 5.54643 0
M  V30 823 H 91.3162 1.29228 1.68564 0
M  V30 824 H 93.5792 0.525906 0.78875 0
M  V30 825 H 93.2852 1.4311 3.21267 0
M  V30 826 H 93.1592 -0.229699 3.765 0
M  V30 827 H 95.5462 -0.666822 2.87467 0
M  V30 828 H 95.6272 1.0198 2.34593 0
M  V30 829 H 95.2712 1.77049 4.76042 0
M  V30 830 H 95.2012 0.0635409 5.26562 0
M  V30 831 H 97.6922 0.44889 3.75224 0
M  V30 832 H 98.0052 1.53582 7.57385 0
M  V30 833 H 96.3502 1.37439 6.81275 0
M  V30 834 H 99.5412 0.639601 4.6371 0
M  V30 835 H 99.7142 1.13503 6.37982 0
M  V30 836 N 93.1203 -1.57491 0.0584922 0
M  V30 837 C 94.3453 -1.97711 -0.62652 0
M  V30 838 C 94.7703 -0.936132 -1.63151 0
M  V30 839 O 94.1283 0.099811 -1.81025 0
M  V30 840 C 94.1763 -3.36989 -1.28338 0
M  V30 841 O 93.2803 -3.35433 -2.39913 0
M  V30 842 H 92.6213 -0.643868 -0.162266 0
M  V30 843 H 95.1513 -2.04193 0.129064 0
M  V30 844 H 95.1613 -3.73879 -1.63335 0
M  V30 845 H 93.8363 -4.12289 -0.546889 0
M  V30 846 H 92.4133 -3.10298 -2.06809 0
M  V30 847 N 94.5984 0.214957 -1.56127 0
M  V30 848 C 95.5284 1.2695 -1.95974 0
M  V30 849 C 96.5094 1.48539 -0.828868 0
M  V30 850 O 97.6944 1.60611 -1.09168 0
M  V30 851 C 94.8244 2.61794 -2.28214 0
M  V30 852 C 93.7784 2.54851 -3.43853 0
M  V30 853 C 93.1044 3.93785 -3.61715 0
M  V30 854 C 94.4044 2.09065 -4.78632 0
M  V30 855 H 96.0984 0.93846 -2.84312 0
M  V30 856 H 93.6444 0.449996 -1.36788 0
M  V30 857 H 95.5974 3.35731 -2.54682 0
M  V30 858 H 94.3214 2.96599 -1.36736 0
M  V30 859 H 92.9804 1.8337 -3.17444 0
M  V30 860 H 92.6284 4.25908 -2.67602 0
M  V30 861 H 92.3284 3.90019 -4.39498 0
M  V30 862 H 93.8524 4.69374 -3.90539 0
M  V30 863 H 95.2664 2.7275 -5.04262 0
M  V30 864 H 93.6634 2.16346 -5.59745 0
M  V30 865 H 94.7334 1.04315 -4.73547 0
M  V30 866 N 96.0765 1.50051 0.48192 0
M  V30 867 C 97.3065 1.63999 1.2565 0
M  V30 868 C 97.7145 0.318288 1.86504 0
M  V30 869 O 97.0575 -0.708534 1.69486 0
M  V30 870 C 97.1195 2.66504 2.4128 0
M  V30 871 C 96.7835 4.10352 2.01148 0
M  V30 872 C 97.7805 4.96562 1.54021 0
M  V30 873 C 95.4655 4.56203 2.10199 0
M  V30 874 C 97.4595 6.26668 1.16473 0
M  V30 875 C 95.1465 5.86318 1.72264 0
M  V30 876 C 96.1445 6.71375 1.25477 0
M  V30 877 O 95.8325 7.99062 0.880626 0
M  V30 878 H 95.5645 0.55456 0.386574 0
M  V30 879 H 98.1185 1.96954 0.582944 0
M  V30 880 H 96.3485 2.28769 3.11772 0
M  V30 881 H 98.0375 2.69783 3.03268 0
M  V30 882 H 98.8035 4.62358 1.46458 0
M  V30 883 H 94.6825 3.90152 2.45566 0
M  V30 884 H 98.2265 6.93011 0.798841 0
M  V30 885 H 94.1235 6.20046 1.79482 0
M  V30 886 H 94.8915 8.12239 1.01043 0
M  V30 887 N 97.5546 -0.734337 1.39446 0
M  V30 888 C 98.5026 -1.86971 1.38364 0
M  V30 889 C 99.4966 -1.67288 0.266687 0
M  V30 890 O 100.703 -1.74621 0.436755 0
M  V30 891 H 97.0776 -0.615474 0.432082 0
M  V30 892 H 99.0486 -1.85 2.34132 0
M  V30 893 C 97.7976 -3.2466 1.24465 0
M  V30 894 H 97.1206 -3.40402 2.09682 0
M  V30 895 H 98.5606 -4.04292 1.27764 0
M  V30 896 C 97.0196 -3.36867 -0.0468674 0
M  V30 897 O 97.5496 -3.88618 -1.01681 0
M  V30 898 N 95.7556 -2.90391 -0.110145 0
M  V30 899 H 95.3026 -2.48466 0.679868 0
M  V30 900 H 95.2606 -2.98939 -0.973799 0
M  V30 901 N 99.0327 -1.24633 -0.964593 0
M  V30 902 C 99.9627 -1.06611 -2.07741 0
M  V30 903 C 100.944 0.0218666 -1.70086 0
M  V30 904 O 102.129 -0.145793 -1.93652 0
M  V30 905 C 99.2587 -0.673444 -3.40708 0
M  V30 906 C 98.2127 -1.71054 -3.92332 0
M  V30 907 C 97.5387 -1.17285 -5.21678 0
M  V30 908 C 98.8387 -3.10718 -4.19824 0
M  V30 909 H 100.533 -1.99693 -2.23076 0
M  V30 910 H 98.0787 -0.96152 -1.07195 0
M  V30 911 H 100.032 -0.534345 -4.17998 0
M  V30 912 H 98.7557 0.293073 -3.25282 0
M  V30 913 H 97.4147 -1.83791 -3.17201 0
M  V30 914 H 97.0627 -0.196847 -5.02615 0
M  V30 915 H 96.7627 -1.86592 -5.57187 0
M  V30 916 H 98.2867 -1.04593 -6.01575 0
M  V30 917 H 99.7007 -3.01192 -4.87808 0
M  V30 918 H 98.0977 -3.77406 -4.66567 0
M  V30 919 H 99.1677 -3.58524 -3.26479 0
M  V30 920 N 100.511 1.16574 -1.06058 0
M  V30 921 C 101.759 1.86677 -0.77434 0
M  V30 922 C 102.08 1.81959 0.701147 0
M  V30 923 O 101.35 1.2515 1.50713 0
M  V30 924 H 99.9298 0.691134 -0.283449 0
M  V30 925 H 102.592 1.41378 -1.34158 0
M  V30 926 H 101.688 2.92181 -1.09711 0
M  V30 927 N 101.989 0.842826 1.3317 0
M  V30 928 C 103.237 0.439577 1.97262 0
M  V30 929 C 103.558 -1.00548 1.67078 0
M  V30 930 O 102.828 -1.70098 0.971779 0
M  V30 931 H 101.408 0.159558 0.72976 0
M  V30 932 H 104.07 1.07665 1.62463 0
M  V30 933 H 103.166 0.574886 3.0676 0
M  V30 934 N 103.467 -1.45747 0.599634 0
M  V30 935 C 104.692 -2.07178 0.0960198 0
M  V30 936 C 105.117 -1.44268 -1.207 0
M  V30 937 O 104.475 -0.532503 -1.73303 0
M  V30 938 C 104.523 -3.60579 -0.0385348 0
M  V30 939 O 103.627 -3.97713 -1.0908 0
M  V30 940 H 102.968 -0.660251 0.0704593 0
M  V30 941 H 105.498 -1.87124 0.827385 0
M  V30 942 H 105.508 -4.07298 -0.239304 0
M  V30 943 H 104.183 -4.05756 0.912947 0
M  V30 944 H 102.76 -3.62678 -0.867135 0
M  V30 945 N 104.945 -0.338344 -1.53925 0
M  V30 946 C 105.892 0.520845 -2.24846 0
M  V30 947 C 106.862 1.09976 -1.24477 0
M  V30 948 O 108.047 1.13735 -1.53196 0
M  V30 949 C 105.187 1.6685 -3.02084 0
M  V30 950 C 104.3 1.11739 -4.17299 0
M  V30 951 C 103.435 2.23193 -4.82036 0
M  V30 952 C 102.474 1.65407 -5.89328 0
M  V30 953 N 101.611 2.70582 -6.47866 0
M  V30 954 H 106.451 -0.0904881 -2.97863 0
M  V30 955 H 103.988 -0.0564282 -1.46992 0
M  V30 956 H 105.946 2.34407 -3.45122 0
M  V30 957 H 104.576 2.2509 -2.31375 0
M  V30 958 H 103.628 0.332919 -3.7894 0
M  V30 959 H 104.94 0.654677 -4.94485 0
M  V30 960 H 104.094 2.98626 -5.28117 0
M  V30 961 H 102.833 2.72807 -4.04262 0
M  V30 962 H 101.838 0.884779 -5.42634 0
M  V30 963 H 103.063 1.16652 -6.69006 0
M  V30 964 H 101.009 3.1946 -5.72959 0
M  V30 965 H 100.926 2.28917 -7.20509 0
M  V30 966 H 102.194 3.45799 -6.98601 0
M  V30 967 N 106.423 1.57458 -0.0668435 0
M  V30 968 C 107.839 1.56947 0.289772 0
M  V30 969 C 108.039 1.07584 1.70376 0
M  V30 970 O 107.095 0.739486 2.41429 0
M  V30 971 C 108.408 3.0052 0.103943 0
M  V30 972 C 109.956 3.12517 0.173857 0
M  V30 973 C 110.431 4.57997 0.0163682 0
M  V30 974 N 111.922 4.63144 0.0721352 0
M  V30 975 C 112.657 5.73394 -0.0253794 0
M  V30 976 N 112.153 6.92576 -0.176133 0
M  V30 977 N 113.946 5.62091 0.0313305 0
M  V30 978 H 106.097 1.87863 -0.991027 0
M  V30 979 H 108.36 0.86583 -0.38606 0
M  V30 980 H 108.066 3.40729 -0.871572 0
M  V30 981 H 107.94 3.67304 0.858366 0
M  V30 982 H 110.327 2.72197 1.13985 0
M  V30 983 H 110.408 2.48381 -0.611586 0
M  V30 984 H 110.052 4.99005 -0.946374 0
M  V30 985 H 109.982 5.20158 0.821153 0
M  V30 986 H 112.473 3.77436 0.187263 0
M  V30 987 H 112.786 7.72418 -0.242821 0
M  V30 988 H 111.131 6.94678 -0.211429 0
M  V30 989 H 114.322 4.67867 0.147773 0
M  V30 990 H 114.495 6.47982 -0.048121 0
M  V30 991 N 107.901 -0.206675 1.56239 0
M  V30 992 C 109.15 -0.926964 1.79138 0
M  V30 993 C 109.463 -1.84901 0.638043 0
M  V30 994 O 110.669 -2.60906 0.751033 0
M  V30 995 C 109.125 -1.6986 3.17294 0
M  V30 996 C 108.733 -0.821956 4.40395 0
M  V30 997 C 110.477 -2.40922 3.4951 0
M  V30 998 C 108.384 -1.59179 5.69575 0
M  V30 999 H 107.314 -0.349864 0.667915 0
M  V30 1000 H 109.965 -0.180487 1.8261 0
M  V30 1001 H 108.347 -2.48853 3.08039 0
M  V30 1002 H 109.521 -0.0715019 4.60745 0
M  V30 1003 H 107.836 -0.222741 4.15804 0
M  V30 1004 H 110.433 -2.99047 4.43255 0
M  V30 1005 H 110.776 -3.14542 2.72707 0
M  V30 1006 H 111.309 -1.68905 3.60161 0
M  V30 1007 H 108.048 -0.898589 6.49312 0
M  V30 1008 H 107.568 -2.31648 5.53262 0
M  V30 1009 H 109.247 -2.14862 6.10281 0
M  V30 1010 N 109.379 -1.50304 -0.473955 0
M  V30 1011 C 110.604 -1.65175 -1.25427 0
M  V30 1012 C 111.029 -0.333673 -1.85117 0
M  V30 1013 O 110.387 0.702114 -1.67153 0
M  V30 1014 C 110.435 -2.74295 -2.34082 0
M  V30 1015 O 109.539 -2.35349 -3.38651 0
M  V30 1016 H 108.88 -0.551944 -0.369126 0
M  V30 1017 H 111.41 -1.96662 -0.564364 0
M  V30 1018 H 111.42 -2.97285 -2.79438 0
M  V30 1019 H 110.095 -3.69959 -1.90008 0
M  V30 1020 H 108.672 -2.22794 -2.99027 0
M  V30 1021 N 110.857 0.726932 -1.39834 0
M  V30 1022 C 112.106 1.48214 -1.36805 0
M  V30 1023 C 112.419 1.95576 0.0305291 0
M  V30 1024 O 113.625 2.7088 0.183417 0
M  V30 1025 C 112.081 2.67854 -2.40379 0
M  V30 1026 C 111.689 2.27408 -3.85992 0
M  V30 1027 C 113.433 3.45641 -2.46439 0
M  V30 1028 C 111.34 3.43819 -4.81189 0
M  V30 1029 H 110.27 0.556606 -0.508631 0
M  V30 1030 H 112.921 0.792216 -1.65518 0
M  V30 1031 H 111.303 3.3896 -2.04749 0
M  V30 1032 H 112.477 1.63795 -4.30706 0
M  V30 1033 H 110.792 1.62692 -3.83302 0
M  V30 1034 H 113.389 4.32244 -3.14753 0
M  V30 1035 H 113.732 3.88669 -1.49139 0
M  V30 1036 H 114.265 2.8157 -2.81004 0
M  V30 1037 H 111.004 3.05834 -5.79781 0
M  V30 1038 H 110.524 4.06385 -4.41148 0
M  V30 1039 H 112.203 4.10043 -5.00474 0
M  V30 1040 N 112.336 1.25143 0.95797 0
M  V30 1041 C 113.561 1.12521 1.74223 0
M  V30 1042 C 113.986 -0.317402 1.85403 0
M  V30 1043 O 113.344 -1.2299 1.33204 0
M  V30 1044 C 113.392 1.78062 3.1357 0
M  V30 1045 O 112.496 1.058 3.98598 0
M  V30 1046 H 111.837 0.39304 0.535178 0
M  V30 1047 H 114.367 1.65641 1.201 0
M  V30 1048 H 114.377 1.84213 3.64046 0
M  V30 1049 H 113.052 2.83021 3.04749 0
M  V30 1050 H 111.629 1.07506 3.57067 0
M  V30 1051 N 113.814 -1.1601 1.06675 0
M  V30 1052 C 115.042 -1.90527 0.806667 0
M  V30 1053 C 115.457 -1.77643 -0.639396 0
M  V30 1054 O 114.814 -1.12369 -1.43803 0
M  V30 1055 C 114.865 -3.41106 1.19705 0
M  V30 1056 O 114.586 -3.53608 2.58636 0
M  V30 1057 C 116.087 -4.32663 0.965266 0
M  V30 1058 H 113.307 -0.604053 0.292166 0
M  V30 1059 H 115.851 -1.47026 1.4214 0
M  V30 1060 H 114.006 -3.82296 0.626774 0
M  V30 1061 H 114.42 -4.47011 2.74375 0
M  V30 1062 H 115.894 -5.36763 1.288 0
M  V30 1063 H 116.371 -4.39089 -0.0987936 0
M  V30 1064 H 116.977 -3.97206 1.52011 0
M  V30 1065 N 115.292 -0.849877 -1.32721 0
M  V30 1066 C 116.517 -0.463856 -2.02146 0
M  V30 1067 C 116.942 0.930449 -1.63476 0
M  V30 1068 O 116.3 1.61033 -0.832952 0
M  V30 1069 C 116.348 -0.604955 -3.55489 0
M  V30 1070 O 115.452 0.36425 -4.10788 0
M  V30 1071 H 114.793 -0.187046 -0.637111 0
M  V30 1072 H 117.323 -1.14775 -1.69375 0
M  V30 1073 H 117.333 -0.490696 -4.05038 0
M  V30 1074 H 116.008 -1.62174 -3.82978 0
M  V30 1075 H 114.585 0.206628 -3.72327 0
M  V30 1076 N 116.77 1.45427 -0.607355 0
M  V30 1077 C 118.018 2.01841 -0.102253 0
M  V30 1078 C 118.339 1.47832 1.27164 0
M  V30 1079 O 117.609 0.672497 1.83995 0
M  V30 1080 H 116.189 0.746188 -0.0348101 0
M  V30 1081 H 118.851 1.78229 -0.7887 0
M  V30 1082 H 117.947 3.12057 -0.0518585 0
M  V30 1083 N 118.248 0.346503 1.53744 0
M  V30 1084 C 119.496 -0.248612 2.00565 0
M  V30 1085 C 119.817 -1.5083 1.23593 0
M  V30 1086 O 119.087 -1.92858 0.343912 0
M  V30 1087 H 117.667 -0.0948564 0.740953 0
M  V30 1088 H 120.329 0.468341 1.89189 0
M  V30 1089 H 119.425 -0.488994 3.08245 0
M  V30 1090 N 119.726 -1.57421 0.075193 0
M  V30 1091 C 120.951 -1.98364 -0.605515 0
M  V30 1092 C 121.376 -0.953383 -1.62149 0
M  V30 1093 O 120.734 0.0806053 -1.81121 0
M  V30 1094 C 120.782 -3.38332 -1.24756 0
M  V30 1095 O 119.886 -3.37959 -2.36342 0
M  V30 1096 H 119.227 -0.645553 -0.155428 0
M  V30 1097 H 121.757 -2.04044 0.150714 0
M  V30 1098 H 121.767 -3.75591 -1.5936 0
M  V30 1099 H 120.442 -4.12846 -0.503129 0
M  V30 1100 H 119.019 -3.12474 -2.03506 0
M  V30 1101 N 121.204 0.198386 -1.56346 0
M  V30 1102 C 122.451 0.919286 -1.80431 0
M  V30 1103 C 122.779 1.83393 -0.647866 0
M  V30 1104 O 122.034 1.92236 0.366556 0
M  V30 1105 C 122.333 1.77031 -3.10475 0
M  V30 1106 C 121.999 1.00693 -4.39513 0
M  V30 1107 C 120.661 0.796145 -4.74568 0
M  V30 1108 C 123.013 0.469559 -5.19081 0
M  V30 1109 C 120.341 0.0364588 -5.86689 0
M  V30 1110 C 122.693 -0.2769 -6.31994 0
M  V30 1111 C 121.357 -0.49873 -6.65634 0
M  V30 1112 H 120.627 0.336391 -0.660244 0
M  V30 1113 H 123.274 0.185872 -1.90596 0
M  V30 1114 H 121.579 2.5723 -2.95533 0
M  V30 1115 H 123.276 2.33065 -3.26315 0
M  V30 1116 H 119.866 1.18122 -4.12001 0
M  V30 1117 H 124.05 0.619816 -4.92414 0
M  V30 1118 H 119.306 -0.145412 -6.11227 0
M  V30 1119 H 123.48 -0.700684 -6.92866 0
M  V30 1120 H 121.107 -1.0893 -7.52355 0
M  V30 1121 N 122.682 1.50554 0.465978 0
M  V30 1122 C 124.098 1.38093 0.800154 0
M  V30 1123 C 124.298 0.440988 1.96615 0
M  V30 1124 O 123.354 -0.114499 2.5224 0
M  V30 1125 C 124.667 2.79565 1.10742 0
M  V30 1126 C 126.215 2.88516 1.21357 0
M  V30 1127 C 126.69 4.30833 1.55393 0
M  V30 1128 N 128.181 4.33807 1.62375 0
M  V30 1129 C 128.916 5.40927 1.90225 0
M  V30 1130 N 128.412 6.58247 2.16062 0
M  V30 1131 N 130.205 5.28376 1.9177 0
M  V30 1132 H 122.356 2.10237 -0.302366 0
M  V30 1133 H 124.619 0.945203 -0.0727746 0
M  V30 1134 H 124.325 3.50208 0.323661 0
M  V30 1135 H 124.199 3.17125 2.04234 0
M  V30 1136 H 126.586 2.1809 1.98799 0
M  V30 1137 H 126.667 2.54492 0.258321 0
M  V30 1138 H 126.311 5.01799 0.784889 0
M  V30 1139 H 126.241 4.62347 2.52076 0
M  V30 1140 H 128.732 3.49212 1.44427 0
M  V30 1141 H 129.045 7.3569 2.36601 0
M  V30 1142 H 127.39 6.61413 2.13444 0
M  V30 1143 H 130.581 4.35715 1.71085 0
M  V30 1144 H 130.754 6.11944 2.13139 0
M  V30 1145 N 124.16 -0.719506 1.40217 0
M  V30 1146 C 125.108 -1.85493 1.40339 0
M  V30 1147 C 126.102 -1.66995 0.284415 0
M  V30 1148 O 127.308 -1.74148 0.455252 0
M  V30 1149 H 123.683 -0.610857 0.438586 0
M  V30 1150 H 125.654 -1.82506 2.36081 0
M  V30 1151 C 124.403 -3.23321 1.27901 0
M  V30 1152 H 123.726 -3.38159 2.1328 0
M  V30 1153 H 125.166 -4.02914 1.32045 0
M  V30 1154 C 123.625 -3.36898 -0.0111355 0
M  V30 1155 O 124.155 -3.89674 -0.975538 0
M  V30 1156 N 122.361 -2.90492 -0.0793393 0
M  V30 1157 H 121.908 -2.47731 0.706183 0
M  V30 1158 H 121.866 -2.99955 -0.942038 0
M  V30 1159 N 125.638 -1.25649 -0.95132 0
M  V30 1160 C 127.054 -1.02542 -1.223 0
M  V30 1161 C 127.254 0.255715 -1.99871 0
M  V30 1162 O 126.31 0.967558 -2.33226 0
M  V30 1163 C 127.623 -2.25065 -1.99415 0
M  V30 1164 C 129.171 -2.29861 -2.12446 0
M  V30 1165 C 129.646 -3.52048 -2.92961 0
M  V30 1166 N 131.137 -3.52465 -3.00538 0
M  V30 1167 C 131.872 -4.43672 -3.63239 0
M  V30 1168 N 131.368 -5.45157 -4.27523 0
M  V30 1169 N 133.161 -4.31346 -3.60412 0
M  V30 1170 H 125.312 -2.07951 -0.432471 0
M  V30 1171 H 127.575 -0.91339 -0.253816 0
M  V30 1172 H 127.281 -3.18194 -1.49817 0
M  V30 1173 H 127.155 -2.28502 -3.00111 0
M  V30 1174 H 129.542 -1.37252 -2.61239 0
M  V30 1175 H 129.623 -2.3044 -1.11044 0
M  V30 1176 H 129.267 -4.44981 -2.44856 0
M  V30 1177 H 129.197 -3.48715 -3.94596 0
M  V30 1178 H 131.688 -2.79056 -2.54826 0
M  V30 1179 H 132.001 -6.10958 -4.73234 0
M  V30 1180 H 130.346 -5.49025 -4.26141 0
M  V30 1181 H 133.537 -3.51288 -3.09377 0
M  V30 1182 H 133.71 -5.02624 -4.0899 0
M  V30 1183 N 127.117 1.15442 -1.07289 0
M  V30 1184 C 128.364 1.86213 -0.795668 0
M  V30 1185 C 128.692 1.82291 0.678238 0
M  V30 1186 O 127.947 1.24057 1.51355 0
M  V30 1187 C 128.246 3.3489 -1.24834 0
M  V30 1188 C 127.912 3.59007 -2.72809 0
M  V30 1189 C 126.574 3.65298 -3.13227 0
M  V30 1190 C 128.926 3.68762 -3.68326 0
M  V30 1191 C 126.254 3.78854 -4.4798 0
M  V30 1192 C 128.606 3.83842 -5.0284 0
M  V30 1193 C 127.27 3.88378 -5.4288 0
M  V30 1194 H 126.54 0.681403 -0.291155 0
M  V30 1195 H 129.187 1.36435 -1.34379 0
M  V30 1196 H 127.492 3.8687 -0.619595 0
M  V30 1197 H 129.189 3.88052 -1.01076 0
M  V30 1198 H 125.779 3.5475 -2.40521 0
M  V30 1199 H 129.963 3.63202 -3.38227 0
M  V30 1200 H 125.219 3.80623 -4.78472 0
M  V30 1201 H 129.393 3.90332 -5.76727 0
M  V30 1202 H 127.02 3.98635 -6.47298 0
M  V30 1203 N 128.595 0.856903 1.32268 0
M  V30 1204 C 129.843 0.460474 1.96784 0
M  V30 1205 C 130.164 -0.987701 1.68135 0
M  V30 1206 O 129.434 -1.69058 0.989765 0
M  V30 1207 H 128.014 0.167289 0.728027 0
M  V30 1208 H 130.676 1.09383 1.61312 0
M  V30 1209 H 129.772 0.60739 3.06133 0
M  V30 1210 N 130.073 -1.45103 0.615059 0
M  V30 1211 C 131.036 -2.29025 -0.0895485 0
M  V30 1212 C 132.036 -1.40174 -0.787906 0
M  V30 1213 O 133.226 -1.62217 -0.634933 0
M  V30 1214 C 130.358 -3.21376 -1.13711 0
M  V30 1215 H 131.551 -2.92807 0.648382 0
M  V30 1216 H 129.104 -1.51749 0.374444 0
M  V30 1217 H 129.839 -2.6241 -1.90556 0
M  V30 1218 H 129.624 -3.86834 -0.640475 0
M  V30 1219 H 131.114 -3.84459 -1.63036 0
M  V30 1220 N 131.551 -0.354651 -1.53558 0
M  V30 1221 C 132.799 0.237972 -2.00694 0
M  V30 1222 C 133.12 1.50173 -1.24391 0
M  V30 1223 O 132.39 1.92673 -0.354135 0
M  V30 1224 H 130.97 0.0909256 -0.741446 0
M  V30 1225 H 133.632 -0.478368 -1.88938 0
M  V30 1226 H 132.728 0.47264 -3.085 0
M  V30 1227 N 133.029 1.57378 -0.0835403 0
M  V30 1228 C 133.992 2.12252 0.864959 0
M  V30 1229 C 134.992 1.04916 1.21858 0
M  V30 1230 O 136.182 1.30853 1.14991 0
M  V30 1231 C 133.314 2.63358 2.16461 0
M  V30 1232 H 134.507 2.97371 0.388676 0
M  V30 1233 H 132.06 1.55423 0.165317 0
M  V30 1234 H 132.795 1.81727 2.686 0
M  V30 1235 H 132.58 3.41826 1.92087 0
M  V30 1236 H 134.07 3.05847 2.84337 0
M  V30 1237 N 134.507 -0.190092 1.56449 0
M  V30 1238 C 135.755 -0.907908 1.80559 0
M  V30 1239 C 136.076 -1.83583 0.657438 0
M  V30 1240 O 135.346 -1.93203 -0.323924 0
M  V30 1241 H 133.926 -0.338247 0.666032 0
M  V30 1242 H 136.588 -0.194403 1.93928 0
M  V30 1243 H 135.684 -1.49604 2.73907 0
M  V30 1244 N 135.985 -1.50799 -0.457987 0
M  V30 1245 C 137.233 -1.62121 -1.2067 0
M  V30 1246 C 137.554 -0.329793 -1.92191 0
M  V30 1247 O 136.824 0.653409 -1.84682 0
M  V30 1248 H 135.404 -0.597441 -0.448411 0
M  V30 1249 H 138.066 -1.87637 -0.527096 0
M  V30 1250 H 137.162 -2.43882 -1.94751 0
M  V30 1251 N 137.463 0.71206 -1.40597 0
M  V30 1252 C 138.711 1.46907 -1.38791 0
M  V30 1253 C 139.032 1.94998 0.00780391 0
M  V30 1254 O 138.302 1.70587 0.963174 0
M  V30 1255 H 136.882 0.545043 -0.51082 0
M  V30 1256 H 139.544 0.843882 -1.75683 0
M  V30 1257 H 138.64 2.34021 -2.06496 0
M  V30 1258 N 138.941 1.26152 0.944643 0
M  V30 1259 C 140.171 1.14094 1.72239 0
M  V30 1260 C 140.579 -0.306931 1.86694 0
M  V30 1261 O 139.922 -1.22222 1.3714 0
M  V30 1262 C 139.984 1.73316 3.14963 0
M  V30 1263 C 139.648 3.2239 3.23904 0
M  V30 1264 C 140.645 4.19252 3.07447 0
M  V30 1265 C 138.33 3.62788 3.47405 0
M  V30 1266 C 140.324 5.54491 3.14353 0
M  V30 1267 C 138.011 4.98162 3.53947 0
M  V30 1268 C 139.009 5.93823 3.37436 0
M  V30 1269 O 138.697 7.26732 3.43679 0
M  V30 1270 H 138.429 0.398292 0.546205 0
M  V30 1271 H 140.983 1.67201 1.19301 0
M  V30 1272 H 139.213 1.14667 3.69308 0
M  V30 1273 H 140.902 1.56214 3.74636 0
M  V30 1274 H 141.668 3.8938 2.8915 0
M  V30 1275 H 137.547 2.88816 3.59313 0
M  V30 1276 H 141.091 6.29137 3.01384 0
M  V30 1277 H 136.988 5.27695 3.71763 0
M  V30 1278 H 137.756 7.3496 3.60245 0
M  V30 1279 N 140.419 -1.14872 1.07899 0
M  V30 1280 C 141.667 -1.85422 0.803941 0
M  V30 1281 C 141.988 -1.83051 -0.67211 0
M  V30 1282 O 141.258 -1.27532 -1.48703 0
M  V30 1283 H 139.838 -0.686537 0.294408 0
M  V30 1284 H 142.5 -1.39226 1.3639 0
M  V30 1285 H 141.596 -2.90399 1.14346 0
M  V30 1286 N 141.898 -0.863906 -1.31812 0
M  V30 1287 C 143.145 -0.471836 -1.96926 0
M  V30 1288 C 143.473 0.974578 -1.68322 0
M  V30 1289 O 142.728 1.7003 -0.968933 0
M  V30 1290 C 143.027 -0.668547 -3.51091 0
M  V30 1291 C 142.693 -2.08683 -3.99703 0
M  V30 1292 C 141.355 -2.47471 -4.12688 0
M  V30 1293 C 143.707 -3.01207 -4.25351 0
M  V30 1294 C 141.035 -3.78037 -4.4867 0
M  V30 1295 C 143.387 -4.31282 -4.62794 0
M  V30 1296 C 142.051 -4.69992 -4.73987 0
M  V30 1297 H 141.321 -0.172657 -0.720604 0
M  V30 1298 H 143.968 -1.09573 -1.57054 0
M  V30 1299 H 142.273 0.0385252 -3.91781 0
M  V30 1300 H 143.97 -0.345102 -3.99512 0
M  V30 1301 H 140.56 -1.77566 -3.90087 0
M  V30 1302 H 144.744 -2.72469 -4.14819 0
M  V30 1303 H 140 -4.078 -4.55532 0
M  V30 1304 H 144.174 -5.03031 -4.81594 0
M  V30 1305 H 141.801 -5.71207 -5.01624 0
M  V30 1306 N 143.376 1.44774 -0.622745 0
M  V30 1307 C 144.624 2.01721 -0.123655 0
M  V30 1308 C 144.945 1.49172 1.25589 0
M  V30 1309 O 144.215 0.691974 1.83272 0
M  V30 1310 H 142.795 0.745777 -0.0427225 0
M  V30 1311 H 145.457 1.77382 -0.807559 0
M  V30 1312 H 144.553 3.11984 -0.0849534 0
M  V30 1313 N 144.854 0.36279 1.53368 0
M  V30 1314 C 146.102 -0.227326 2.00817 0
M  V30 1315 C 146.423 -1.49511 1.25186 0
M  V30 1316 O 145.693 -1.92482 0.364348 0
M  V30 1317 H 144.273 -0.0869923 0.741917 0
M  V30 1318 H 146.935 0.488381 1.88682 0
M  V30 1319 H 146.031 -0.456273 3.08747 0
M  V30 1320 N 146.332 -1.57332 0.0918853 0
M  V30 1321 C 147.58 -1.93853 -0.571446 0
M  V30 1322 C 147.901 -0.974212 -1.6892 0
M  V30 1323 O 147.171 -0.0257254 -1.95883 0
M  V30 1324 H 145.751 -0.715666 -0.214082 0
M  V30 1325 H 148.413 -1.94287 0.154464 0
M  V30 1326 H 147.509 -2.96191 -0.983729 0
M  V30 1327 N 147.81 0.181792 -1.56548 0
M  V30 1328 C 148.773 1.20894 -1.94724 0
M  V30 1329 C 149.773 1.37738 -0.829747 0
M  V30 1330 O 150.963 1.35323 -1.09697 0
M  V30 1331 C 148.095 2.57593 -2.23291 0
M  V30 1332 H 149.288 0.882275 -2.86629 0
M  V30 1333 H 146.841 0.423838 -1.50444 0
M  V30 1334 H 147.576 2.95291 -1.34067 0
M  V30 1335 H 147.361 2.46735 -3.04736 0
M  V30 1336 H 148.851 3.31637 -2.53785 0
M  V30 1337 N 149.288 1.51039 0.449983 0
M  V30 1338 C 150.536 1.62759 1.19808 0
M  V30 1339 C 150.857 0.339981 1.92013 0
M  V30 1340 O 150.127 -0.643606 1.85026 0
M  V30 1341 H 148.707 0.599811 0.445237 0
M  V30 1342 H 151.369 1.87914 0.517138 0
M  V30 1343 H 150.465 2.44911 1.93455 0
M  V30 1344 N 150.766 -0.704594 1.40972 0
M  V30 1345 C 151.991 -1.49858 1.43378 0
M  V30 1346 C 152.416 -1.88061 0.038184 0
M  V30 1347 O 151.774 -1.5402 -0.956425 0
M  V30 1348 C 151.822 -2.74333 2.34038 0
M  V30 1349 O 150.926 -3.7147 1.7912 0
M  V30 1350 H 150.267 -0.45139 0.486974 0
M  V30 1351 H 152.797 -0.866832 1.8533 0
M  V30 1352 H 152.807 -3.22741 2.49604 0
M  V30 1353 H 151.482 -2.45863 3.35446 0
M  V30 1354 H 150.059 -3.30363 1.72958 0
M  V30 1355 N 152.244 -1.26651 -0.937939 0
M  V30 1356 C 153.492 -1.12165 -1.68118 0
M  V30 1357 C 153.813 0.334983 -1.92101 0
M  V30 1358 O 153.083 1.23583 -1.52 0
M  V30 1359 H 151.663 -0.412093 -0.623048 0
M  V30 1360 H 154.325 -1.59027 -1.12678 0
M  V30 1361 H 153.421 -1.64289 -2.6536 0
M  V30 1362 N 153.722 1.14298 -1.08507 0
M  V30 1363 C 154.969 1.85359 -0.815373 0
M  V30 1364 C 155.297 1.83001 0.658865 0
M  V30 1365 O 154.552 1.25655 1.50031 0
M  V30 1366 C 154.851 3.33547 -1.28379 0
M  V30 1367 C 154.517 3.56093 -2.76602 0
M  V30 1368 C 153.179 3.61955 -3.17084 0
M  V30 1369 C 155.531 3.64834 -3.72217 0
M  V30 1370 C 152.859 3.74082 -4.51973 0
M  V30 1371 C 155.211 3.78487 -5.06883 0
M  V30 1372 C 153.875 3.82598 -5.46969 0
M  V30 1373 H 153.145 0.678276 -0.298366 0
M  V30 1374 H 155.792 1.35002 -1.35819 0
M  V30 1375 H 154.097 3.86191 -0.660593 0
M  V30 1376 H 155.794 3.86959 -1.05186 0
M  V30 1377 H 152.384 3.52179 -2.4427 0
M  V30 1378 H 156.568 3.59595 -3.42061 0
M  V30 1379 H 151.824 3.75527 -4.82483 0
M  V30 1380 H 155.998 3.84193 -5.80834 0
M  V30 1381 H 153.625 3.91747 -6.51489 0
M  V30 1382 N 155.201 0.870884 1.31352 0
M  V30 1383 C 156.449 0.48132 1.96285 0
M  V30 1384 C 156.77 -0.969813 1.69173 0
M  V30 1385 O 156.04 -1.67998 1.00764 0
M  V30 1386 H 154.62 0.175002 0.726212 0
M  V30 1387 H 157.282 1.11087 1.60143 0
M  V30 1388 H 156.378 0.639825 3.05471 0
M  V30 1389 N 156.679 -1.44442 0.630414 0
M  V30 1390 C 157.926 -2.02052 0.134617 0
M  V30 1391 C 158.254 -1.49576 -1.24327 0
M  V30 1392 O 157.509 -0.669806 -1.83881 0
M  V30 1393 C 157.808 -3.57332 0.0697835 0
M  V30 1394 C 157.474 -4.29058 1.38635 0
M  V30 1395 C 156.136 -4.4837 1.74694 0
M  V30 1396 C 158.488 -4.69872 2.25543 0
M  V30 1397 C 155.816 -5.05756 2.97369 0
M  V30 1398 C 158.168 -5.28616 3.47487 0
M  V30 1399 C 156.832 -5.46147 3.8377 0
M  V30 1400 H 156.102 -0.739361 0.0492598 0
M  V30 1401 H 158.749 -1.73217 0.816586 0
M  V30 1402 H 157.054 -3.85577 -0.695553 0
M  V30 1403 H 158.751 -3.99637 -0.330344 0
M  V30 1404 H 155.341 -4.14357 1.09574 0
M  V30 1405 H 159.525 -4.54666 1.98979 0
M  V30 1406 H 154.781 -5.17515 3.25558 0
M  V30 1407 H 158.955 -5.59192 4.15063 0
M  V30 1408 H 156.582 -5.9038 4.7891 0
M  V30 1409 N 158.157 -0.370918 -1.53173 0
M  V30 1410 C 159.405 0.216673 -2.00935 0
M  V30 1411 C 159.726 1.48845 -1.25977 0
M  V30 1412 O 158.996 1.92286 -0.374551 0
M  V30 1413 H 157.576 0.0830565 -0.742368 0
M  V30 1414 H 160.238 -0.49838 -1.8842 0
M  V30 1415 H 159.334 0.439893 -3.08984 0
M  V30 1416 N 159.635 1.57281 -0.100228 0
M  V30 1417 C 160.883 1.94153 0.561157 0
M  V30 1418 C 161.204 0.983157 1.68401 0
M  V30 1419 O 160.474 0.0361132 1.95867 0
M  V30 1420 H 159.054 0.716791 0.210283 0
M  V30 1421 H 161.716 1.94202 -0.164765 0
M  V30 1422 H 160.812 2.96709 0.968008 0
M  V30 1423 N 161.113 -0.173488 1.56642 0
M  V30 1424 C 162.361 -0.888706 1.81512 0
M  V30 1425 C 162.682 -1.82875 0.676872 0
M  V30 1426 O 161.952 -1.93536 -0.303414 0
M  V30 1427 H 160.532 -0.331164 0.669582 0
M  V30 1428 H 163.194 -0.173823 1.94123 0
M  V30 1429 H 162.29 -1.46691 2.75478 0
M  V30 1430 N 162.591 -1.51276 -0.441967 0
M  V30 1431 C 163.554 -1.7167 -1.51862 0
M  V30 1432 C 164.554 -0.586793 -1.49711 0
M  V30 1433 O 165.744 -0.854276 -1.51815 0
M  V30 1434 C 162.876 -1.76889 -2.91416 0
M  V30 1435 H 164.069 -2.67754 -1.35084 0
M  V30 1436 H 161.622 -1.41196 -0.670333 0
M  V30 1437 H 162.357 -0.826026 -3.13604 0
M  V30 1438 H 162.142 -2.59001 -2.94382 0
M  V30 1439 H 163.632 -1.94522 -3.69528 0
M  V30 1440 N 164.069 0.697108 -1.41344 0
M  V30 1441 C 165.317 1.45426 -1.40341 0
M  V30 1442 C 165.638 1.94996 -0.0128787 0
M  V30 1443 O 164.908 1.71599 0.945027 0
M  V30 1444 H 163.488 0.539594 -0.516573 0
M  V30 1445 H 166.15 0.825201 -1.76569 0
M  V30 1446 H 165.246 2.31817 -2.08967 0
M  V30 1447 N 165.547 1.27147 0.931209 0
M  V30 1448 C 166.795 1.13055 1.6752 0
M  V30 1449 C 167.116 -0.324791 1.92276 0
M  V30 1450 O 166.386 -1.22775 1.52654 0
M  V30 1451 H 164.966 0.415391 0.620854 0
M  V30 1452 H 167.628 1.59623 1.11833 0
M  V30 1453 H 166.724 1.65694 2.64485 0
M  V30 1454 N 167.025 -1.13721 1.09112 0
M  V30 1455 C 168.273 -1.84559 0.823562 0
M  V30 1456 C 168.594 -1.83754 -0.652658 0
M  V30 1457 O 167.864 -1.29102 -1.47342 0
M  V30 1458 H 166.444 -0.683376 0.301673 0
M  V30 1459 H 169.106 -1.37771 1.37859 0
M  V30 1460 H 168.202 -2.8917 1.17419 0
M  V30 1461 N 168.503 -0.877838 -1.30888 0
M  V30 1462 C 169.75 -0.492696 -1.96415 0
M  V30 1463 C 170.078 0.956671 -1.69346 0
M  V30 1464 O 169.333 1.68993 -0.986913 0
M  V30 1465 C 169.632 -0.705748 -3.50363 0
M  V30 1466 C 169.298 -2.1291 -3.97467 0
M  V30 1467 C 167.96 -2.51834 -4.1004 0
M  V30 1468 C 170.312 -3.05702 -4.22132 0
M  V30 1469 C 167.64 -3.82775 -4.44635 0
M  V30 1470 C 169.992 -4.36166 -4.58194 0
M  V30 1471 C 168.656 -4.74993 -4.68975 0
M  V30 1472 H 167.926 -0.18029 -0.718733 0
M  V30 1473 H 170.573 -1.11233 -1.55883 0
M  V30 1474 H 168.878 -0.00303058 -3.918 0
M  V30 1475 H 170.575 -0.387456 -3.99124 0
M  V30 1476 H 167.165 -1.81694 -3.88182 0
M  V30 1477 H 171.349 -2.76853 -4.11906 0
M  V30 1478 H 166.605 -4.12609 -4.51181 0
M  V30 1479 H 170.779 -5.08111 -4.76231 0
M  V30 1480 H 168.406 -5.76495 -4.95537 0
M  V30 1481 N 169.982 1.44106 -0.638065 0
M  V30 1482 C 171.23 2.01579 -0.145043 0
M  V30 1483 C 171.551 1.50496 1.24 0
M  V30 1484 O 170.821 0.711374 1.82527 0
M  V30 1485 H 169.401 0.745282 -0.05063 0
M  V30 1486 H 172.063 1.76516 -0.826327 0
M  V30 1487 H 171.159 3.11877 -0.118039 0
M  V30 1488 N 171.46 0.379036 1.52974 0
M  V30 1489 C 172.39 -0.452706 2.29069 0
M  V30 1490 C 173.371 -1.07237 1.32039 0
M  V30 1491 O 174.556 -1.08708 1.60923 0
M  V30 1492 C 171.686 -1.5856 3.08992 0
M  V30 1493 C 170.64 -1.0925 4.13822 0
M  V30 1494 C 169.966 -2.31668 4.81907 0
M  V30 1495 C 171.266 -0.167702 5.22031 0
M  V30 1496 H 172.96 0.182181 2.98845 0
M  V30 1497 H 170.506 0.0890592 1.43724 0
M  V30 1498 H 172.459 -2.1742 3.6098 0
M  V30 1499 H 171.183 -2.24792 2.36931 0
M  V30 1500 H 169.842 -0.526494 3.628 0
M  V30 1501 H 169.49 -2.96386 4.06404 0
M  V30 1502 H 169.19 -1.9934 5.52754 0
M  V30 1503 H 170.714 -2.91189 5.36695 0
M  V30 1504 H 172.128 -0.664186 5.6944 0
M  V30 1505 H 170.525 0.0653265 6.00064 0
M  V30 1506 H 171.595 0.786347 4.78482 0
M  V30 1507 N 172.938 -1.57226 0.108567 0
M  V30 1508 C 174.186 -1.94448 -0.550853 0
M  V30 1509 C 174.507 -0.992074 -1.67878 0
M  V30 1510 O 173.777 -0.0465 -1.95845 0
M  V30 1511 H 172.357 -0.717897 -0.206479 0
M  V30 1512 H 175.019 -1.94112 0.175062 0
M  V30 1513 H 174.115 -2.97218 -0.952259 0
M  V30 1514 N 174.416 0.165178 -1.56732 0
M  V30 1515 C 175.664 0.879068 -1.8198 0
M  V30 1516 C 175.985 1.82514 -0.686561 0
M  V30 1517 O 175.255 1.93694 0.293146 0
M  V30 1518 H 173.835 0.327608 -0.671329 0
M  V30 1519 H 176.497 0.163526 -1.94213 0
M  V30 1520 H 175.593 1.45228 -2.76252 0
M  V30 1521 N 175.894 1.51508 0.433938 0
M  V30 1522 C 177.142 1.6402 1.18075 0
M  V30 1523 C 177.463 0.360328 1.91642 0
M  V30 1524 O 176.733 -0.623945 1.85698 0
M  V30 1525 H 175.313 0.6045 0.43885 0
M  V30 1526 H 177.975 1.88452 0.497178 0
M  V30 1527 H 177.071 2.46949 1.90847 0
M  V30 1528 N 177.372 -0.689602 1.41712 0
M  V30 1529 C 178.335 -1.78521 1.43746 0
M  V30 1530 C 179.335 -1.57436 0.327191 0
M  V30 1531 O 180.525 -1.64 0.587348 0
M  V30 1532 C 177.657 -3.16971 1.25467 0
M  V30 1533 H 178.85 -1.78108 2.41283 0
M  V30 1534 H 176.403 -0.89781 1.27942 0
M  V30 1535 H 177.138 -3.23019 0.287948 0
M  V30 1536 H 176.923 -3.33678 2.05917 0
M  V30 1537 H 178.413 -3.96935 1.2974 0
M  V30 1538 N 178.85 -1.27639 -0.924453 0
M  V30 1539 C 180.098 -1.13941 -1.66918 0
M  V30 1540 C 180.419 0.314589 -1.92446 0
M  V30 1541 O 179.689 1.21964 -1.53303 0
M  V30 1542 H 178.269 -0.418678 -0.618642 0
M  V30 1543 H 180.931 -1.60213 -1.10985 0
M  V30 1544 H 180.027 -1.67094 -2.63602 0
M  V30 1545 N 180.328 1.1314 -1.09713 0
M  V30 1546 C 181.575 1.84484 -0.834987 0
M  V30 1547 C 181.903 1.83689 0.639418 0
M  V30 1548 O 181.158 1.2724 1.4869 0
M  V30 1549 C 181.457 3.32167 -1.3191 0
M  V30 1550 C 181.123 3.53139 -2.80363 0
M  V30 1551 C 179.785 3.58571 -3.20905 0
M  V30 1552 C 182.137 3.60866 -3.76065 0
M  V30 1553 C 179.465 3.69267 -4.55916 0
M  V30 1554 C 181.817 3.73089 -5.10869 0
M  V30 1555 C 180.481 3.76775 -5.50996 0
M  V30 1556 H 179.751 0.675073 -0.305544 0
M  V30 1557 H 182.398 1.33554 -1.37243 0
M  V30 1558 H 180.703 3.85469 -0.701517 0
M  V30 1559 H 182.4 3.85821 -1.09284 0
M  V30 1560 H 178.99 3.49569 -2.47991 0
M  V30 1561 H 183.174 3.55946 -3.45855 0
M  V30 1562 H 178.43 3.70388 -4.86438 0
M  V30 1563 H 182.604 3.78011 -5.84877 0
M  V30 1564 H 180.231 3.84815 -6.55608 0
M  V30 1565 N 181.806 0.884767 1.30421 0
M  V30 1566 C 183.054 0.502112 1.95763 0
M  V30 1567 C 183.375 -0.951815 1.70192 0
M  V30 1568 O 182.645 -1.6692 1.0254 0
M  V30 1569 H 181.225 0.182694 0.724315 0
M  V30 1570 H 183.887 1.1278 1.58955 0
M  V30 1571 H 182.983 0.672188 3.04775 0
M  V30 1572 N 183.284 -1.43765 0.645699 0
M  V30 1573 C 184.532 -2.01499 0.155731 0
M  V30 1574 C 184.853 -1.51151 -1.232 0
M  V30 1575 O 184.123 -0.721044 -1.82148 0
M  V30 1576 H 182.703 -0.745003 0.0545817 0
M  V30 1577 H 185.365 -1.76075 0.835677 0
M  V30 1578 H 184.461 -3.1181 0.134577 0
M  V30 1579 N 184.763 -0.387143 -1.52771 0
M  V30 1580 C 186.011 0.195349 -2.01154 0
M  V30 1581 C 186.332 1.475 -1.27549 0
M  V30 1582 O 185.602 1.91878 -0.394924 0
M  V30 1583 H 184.182 0.075178 -0.743207 0
M  V30 1584 H 186.844 -0.518337 -1.87881 0
M  V30 1585 H 185.94 0.407096 -3.09434 0
M  V30 1586 N 186.241 1.57166 -0.116904 0
M  V30 1587 C 187.488 1.95123 0.541603 0
M  V30 1588 C 187.816 1.00006 1.6682 0
M  V30 1589 O 187.071 0.0235658 1.95686 0
M  V30 1590 C 187.37 3.39508 1.11664 0
M  V30 1591 C 187.036 4.50762 0.111606 0
M  V30 1592 C 185.698 4.80918 -0.164758 0
M  V30 1593 C 188.05 5.18036 -0.573438 0
M  V30 1594 C 185.378 5.75666 -1.13249 0
M  V30 1595 C 187.73 6.13824 -1.52978 0
M  V30 1596 C 186.394 6.42374 -1.81415 0
M  V30 1597 H 185.664 0.714005 0.198187 0
M  V30 1598 H 188.311 1.9048 -0.197365 0
M  V30 1599 H 186.616 3.40835 1.93232 0
M  V30 1600 H 188.313 3.66189 1.63422 0
M  V30 1601 H 184.903 4.27272 0.337192 0
M  V30 1602 H 189.087 4.94896 -0.373092 0
M  V30 1603 H 184.343 5.96092 -1.35958 0
M  V30 1604 H 188.517 6.65039 -2.06629 0
M  V30 1605 H 186.144 7.15599 -2.56557 0
M  V30 1606 N 187.719 -0.156864 1.56817 0
M  V30 1607 C 188.967 -0.869404 1.82444 0
M  V30 1608 C 189.288 -1.82147 0.69623 0
M  V30 1609 O 188.558 -1.93847 -0.28287 0
M  V30 1610 H 187.138 -0.324043 0.673056 0
M  V30 1611 H 189.8 -0.153224 1.94297 0
M  V30 1612 H 188.896 -1.43761 2.77019 0
M  V30 1613 N 189.197 -1.51736 -0.425897 0
M  V30 1614 C 190.445 -1.64644 -1.17204 0
M  V30 1615 C 190.766 -0.370486 -1.91448 0
M  V30 1616 O 190.036 0.614088 -1.86026 0
M  V30 1617 H 188.616 -0.606819 -0.435638 0
M  V30 1618 H 191.278 -1.88713 -0.487177 0
M  V30 1619 H 190.374 -2.47958 -1.89534 0
M  V30 1620 N 190.675 0.682077 -1.42076 0
M  V30 1621 C 192.086 1.26246 -1.37546 0
M  V30 1622 C 192.437 1.96092 -0.0651481 0
M  V30 1623 O 191.562 1.99587 0.836297 0
M  V30 1624 C 192.157 2.29594 -2.49143 0
M  V30 1625 C 190.716 2.83175 -2.47969 0
M  V30 1626 C 189.863 1.57395 -2.28303 0
M  V30 1627 H 192.814 0.475937 -1.51395 0
M  V30 1628 H 192.835 3.11175 -2.18976 0
M  V30 1629 H 192.347 1.78729 -3.44496 0
M  V30 1630 H 190.448 3.3818 -1.56413 0
M  V30 1631 H 190.561 3.32687 -3.44755 0
M  V30 1632 H 188.925 1.83699 -1.76428 0
M  V30 1633 H 189.708 1.08507 -3.25701 0
M  V30 1634 N 192.153 1.28127 0.917671 0
M  V30 1635 C 193.401 1.14825 1.66312 0
M  V30 1636 C 193.722 -0.304379 1.9261 0
M  V30 1637 O 192.992 -1.21149 1.53947 0
M  V30 1638 H 191.572 0.421953 0.616413 0
M  V30 1639 H 194.234 1.608 1.10134 0
M  V30 1640 H 193.33 1.68489 2.62712 0
M  V30 1641 N 193.631 -1.12557 1.10312 0
M  V30 1642 C 194.878 -1.84038 0.844759 0
M  V30 1643 C 195.206 -1.84026 -0.629668 0
M  V30 1644 O 194.461 -1.28026 -1.48013 0
M  V30 1645 C 194.76 -3.31462 1.33669 0
M  V30 1646 C 194.426 -3.51647 2.82232 0
M  V30 1647 C 193.088 -3.56864 3.22802 0
M  V30 1648 C 195.44 -3.58867 3.77974 0
M  V30 1649 C 192.768 -3.66844 4.57867 0
M  V30 1650 C 195.12 -3.70375 5.1284 0
M  V30 1651 C 193.784 -3.73848 5.52986 0
M  V30 1652 H 193.054 -0.673444 0.309119 0
M  V30 1653 H 195.701 -1.32824 1.37949 0
M  V30 1654 H 194.006 -3.85091 0.721949 0
M  V30 1655 H 195.703 -3.85236 1.11329 0
M  V30 1656 H 192.293 -3.48249 2.49842 0
M  V30 1657 H 196.477 -3.54107 3.47738 0
M  V30 1658 H 191.733 -3.67804 4.88396 0
M  V30 1659 H 195.907 -3.74904 5.86873 0
M  V30 1660 H 193.534 -3.81333 6.57639 0
M  V30 1661 N 195.109 -0.891671 -1.2995 0
M  V30 1662 C 196.52 -0.563104 -1.78006 0
M  V30 1663 C 196.871 0.920978 -1.73241 0
M  V30 1664 O 195.996 1.71987 -1.31337 0
M  V30 1665 C 196.591 -1.01539 -3.23226 0
M  V30 1666 C 195.15 -0.738124 -3.69092 0
M  V30 1667 C 194.297 -1.19461 -2.50249 0
M  V30 1668 H 197.248 -1.07522 -1.16725 0
M  V30 1669 H 197.269 -0.347217 -3.78912 0
M  V30 1670 H 196.781 -2.09555 -3.26662 0
M  V30 1671 H 194.882 0.329766 -3.71138 0
M  V30 1672 H 194.995 -1.33037 -4.60259 0
M  V30 1673 H 193.359 -0.613787 -2.47194 0
M  V30 1674 H 194.142 -2.28265 -2.56417 0
M  V30 1675 N 196.587 1.43421 -0.653314 0
M  V30 1676 C 197.833 2.02111 -0.166992 0
M  V30 1677 C 198.166 1.51423 1.21592 0
M  V30 1678 O 197.441 0.707389 1.8118 0
M  V30 1679 C 197.724 3.5966 -0.177948 0
M  V30 1680 C 197.577 4.20579 -1.59478 0
M  V30 1681 C 198.896 4.37413 0.4856 0
M  V30 1682 H 196.015 0.734374 -0.0621557 0
M  V30 1683 H 198.657 1.70717 -0.834016 0
M  V30 1684 H 196.807 3.86537 0.390032 0
M  V30 1685 H 198.479 4.04732 -2.21336 0
M  V30 1686 H 196.722 3.77226 -2.14204 0
M  V30 1687 H 197.393 5.29665 -1.5543 0
M  V30 1688 H 199.869 4.161 0.00234528 0
M  V30 1689 H 198.745 5.47075 0.447207 0
M  V30 1690 H 199.006 4.13672 1.55974 0
M  V30 1691 N 198.065 0.39524 1.52563 0
M  V30 1692 C 199.305 -0.184744 2.03563 0
M  V30 1693 C 199.669 -1.43548 1.27507 0
M  V30 1694 O 200.87 -2.093 1.68662 0
M  V30 1695 C 199.141 -0.440294 3.54678 0
M  V30 1696 S 200.7 -0.989712 4.27493 0
M  V30 1697 H 197.518 -0.0515075 0.709132 0
M  V30 1698 H 200.12 0.544957 1.87751 0
M  V30 1699 H 198.824 0.477005 4.07618 0
M  V30 1700 H 198.355 -1.19825 3.74707 0
M  V30 1701 H 200.37 -2.27155 4.41152 0
M  V30 1702 N 199.544 -1.57102 0.125237 0
M  V30 1703 C 200.955 -1.82384 -0.399142 0
M  V30 1704 C 201.306 -1.04276 -1.66195 0
M  V30 1705 O 200.431 -0.281269 -2.14564 0
M  V30 1706 C 201.026 -3.30821 -0.730932 0
M  V30 1707 C 199.585 -3.56762 -1.19992 0
M  V30 1708 C 198.732 -2.7649 -0.211792 0
M  V30 1709 H 201.683 -1.54786 0.350277 0
M  V30 1710 H 201.704 -3.4579 -1.58775 0
M  V30 1711 H 201.216 -3.87643 0.188345 0
M  V30 1712 H 199.317 -3.05305 -2.13588 0
M  V30 1713 H 199.43 -4.65317 -1.14093 0
M  V30 1714 H 197.794 -2.4489 -0.700085 0
M  V30 1715 H 198.577 -3.36073 0.700691 0
M  V30 1716 N 201.022 0.148545 -1.56898 0
M  V30 1717 C 202.433 0.708766 -1.72723 0
M  V30 1718 C 202.784 1.81734 -0.739395 0
M  V30 1719 O 201.909 2.16194 0.0943169 0
M  V30 1720 C 202.504 1.29245 -3.13179 0
M  V30 1721 C 201.063 1.79925 -3.30611 0
M  V30 1722 C 200.21 0.687111 -2.68652 0
M  V30 1723 H 203.161 -0.0771063 -1.58513 0
M  V30 1724 H 203.182 2.16224 -3.13093 0
M  V30 1725 H 202.694 0.485382 -3.85053 0
M  V30 1726 H 200.795 2.63203 -2.63732 0
M  V30 1727 H 200.908 1.92903 -4.38549 0
M  V30 1728 H 199.272 1.11335 -2.29078 0
M  V30 1729 H 200.055 -0.108483 -3.43129 0
M  V30 1730 N 202.5 1.5196 0.417844 0
M  V30 1731 C 203.748 1.65263 1.16329 0
M  V30 1732 C 204.069 0.380634 1.91249 0
M  V30 1733 O 203.339 -0.604214 1.86349 0
M  V30 1734 H 201.919 0.60912 0.432414 0
M  V30 1735 H 204.581 1.88969 0.477162 0
M  V30 1736 H 203.677 2.4896 1.88217 0
M  V30 1737 N 203.978 -0.674533 1.42435 0
M  V30 1738 C 205.226 -1.43175 1.42637 0
M  V30 1739 C 205.547 -1.94951 0.0438992 0
M  V30 1740 O 204.817 -1.7308 -0.917607 0
M  V30 1741 H 203.397 -0.531307 0.525092 0
M  V30 1742 H 206.059 -0.797006 1.77859 0
M  V30 1743 H 205.155 -2.28463 2.12629 0
M  V30 1744 N 205.456 -1.28612 -0.910864 0
M  V30 1745 C 206.705 -1.15311 -1.65488 0
M  V30 1746 C 207.018 0.296999 -1.93332 0
M  V30 1747 O 208.224 0.551168 -2.65847 0
M  V30 1748 C 206.68 -2.01599 -2.98137 0
M  V30 1749 C 206.288 -3.51367 -2.7793 0
M  V30 1750 C 208.032 -1.96993 -3.76024 0
M  V30 1751 C 205.939 -4.29797 -4.06237 0
M  V30 1752 H 204.869 -0.42796 -0.620779 0
M  V30 1753 H 207.52 -1.53166 -1.01057 0
M  V30 1754 H 205.902 -1.56603 -3.63719 0
M  V30 1755 H 207.076 -4.0434 -2.21011 0
M  V30 1756 H 205.391 -3.57529 -2.13452 0
M  V30 1757 H 207.988 -2.52856 -4.71135 0
M  V30 1758 H 208.331 -0.94733 -4.05378 0
M  V30 1759 H 208.864 -2.39973 -3.17266 0
M  V30 1760 H 205.603 -5.32648 -3.82055 0
M  V30 1761 H 205.123 -3.81596 -4.62757 0
M  V30 1762 H 206.802 -4.39869 -4.74473 0
M  V30 1763 N 206.934 1.1197 -1.10907 0
M  V30 1764 C 207.866 2.17592 -0.720175 0
M  V30 1765 C 208.879 1.60938 0.245495 0
M  V30 1766 O 210.068 1.78476 0.0292245 0
M  V30 1767 C 207.168 3.38873 -0.0427917 0
M  V30 1768 C 206.341 4.25006 -1.03388 0
M  V30 1769 C 205.4 5.24774 -0.387075 0
M  V30 1770 O 204.426 5.59631 -1.03934 0
M  V30 1771 N 205.628 5.74208 0.852407 0
M  V30 1772 H 208.393 2.51567 -1.62893 0
M  V30 1773 H 205.954 1.27439 -0.998543 0
M  V30 1774 H 207.946 4.02703 0.401501 0
M  V30 1775 H 206.516 3.03007 0.768456 0
M  V30 1776 H 205.736 3.57716 -1.65629 0
M  V30 1777 H 207.024 4.79397 -1.70458 0
M  V30 1778 H 206.422 5.48062 1.40161 0
M  V30 1779 H 204.979 6.39901 1.23977 0
M  V30 1780 N 208.412 0.89855 1.29475 0
M  V30 1781 C 209.322 0.379974 2.31502 0
M  V30 1782 C 210.338 -0.524695 1.659 0
M  V30 1783 O 211.514 -0.414551 1.97087 0
M  V30 1784 C 208.579 -0.385138 3.44554 0
M  V30 1785 C 207.64 0.550914 4.2575 0
M  V30 1786 C 206.873 -0.177778 5.33404 0
M  V30 1787 O 207.096 -1.40189 5.52904 0
M  V30 1788 O 206.03 0.479106 5.9999 0
M  V30 1789 H 209.856 1.22639 2.77837 0
M  V30 1790 H 207.441 0.662834 1.33891 0
M  V30 1791 H 209.323 -0.817841 4.13388 0
M  V30 1792 H 207.998 -1.20763 3.0033 0
M  V30 1793 H 206.905 1.03271 3.59564 0
M  V30 1794 H 208.238 1.33979 4.73614 0
M  V30 1795 N 209.89 -1.43072 0.660911 0
M  V30 1796 C 211.136 -2.0202 0.177708 0
M  V30 1797 C 211.469 -1.52066 -1.20787 0
M  V30 1798 O 210.744 -0.716987 -1.80802 0
M  V30 1799 C 211.027 -3.59561 0.197019 0
M  V30 1800 C 210.88 -4.19727 1.61706 0
M  V30 1801 C 212.199 -4.37664 -0.462396 0
M  V30 1802 H 209.318 -0.734034 0.0660494 0
M  V30 1803 H 211.96 -1.70272 0.843058 0
M  V30 1804 H 210.11 -3.86739 -0.369527 0
M  V30 1805 H 211.782 -4.03553 2.23479 0
M  V30 1806 H 210.025 -3.76084 2.16201 0
M  V30 1807 H 210.696 -5.28834 1.58237 0
M  V30 1808 H 213.172 -4.16095 0.0197215 0
M  V30 1809 H 212.048 -5.47305 -0.418188 0
M  V30 1810 H 212.309 -4.14493 -1.53778 0
M  V30 1811 N 211.368 -0.403325 -1.52352 0
M  V30 1812 C 212.596 0.174012 -2.06167 0
M  V30 1813 C 213.011 1.39347 -1.27388 0
M  V30 1814 O 212.368 1.79597 -0.324201 0
M  V30 1815 C 212.419 0.530223 -3.5759 0
M  V30 1816 O 212.14 -0.640806 -4.33388 0
M  V30 1817 C 213.641 1.16192 -4.27802 0
M  V30 1818 H 210.861 0.0229464 -0.670608 0
M  V30 1819 H 213.405 -0.572604 -1.9632 0
M  V30 1820 H 211.56 1.22673 -3.67464 0
M  V30 1821 H 211.974 -0.344851 -5.23365 0
M  V30 1822 H 213.448 1.36141 -5.34948 0
M  V30 1823 H 213.925 2.13335 -3.83907 0
M  V30 1824 H 214.531 0.505775 -4.22282 0
M  V30 1825 N 212.846 1.57033 -0.133567 0
M  V30 1826 C 214.092 1.95976 0.521649 0
M  V30 1827 C 214.425 1.01779 1.65393 0
M  V30 1828 O 213.7 0.0576581 1.94415 0
M  V30 1829 C 213.983 3.44738 1.04057 0
M  V30 1830 C 213.836 4.49711 -0.0892897 0
M  V30 1831 C 215.155 3.95682 1.92675 0
M  V30 1832 H 212.274 0.712579 0.188149 0
M  V30 1833 H 214.916 1.88813 -0.212076 0
M  V30 1834 H 213.066 3.50973 1.66583 0
M  V30 1835 H 214.738 4.55565 -0.725152 0
M  V30 1836 H 212.981 4.27261 -0.750378 0
M  V30 1837 H 213.652 5.51099 0.315284 0
M  V30 1838 H 216.128 3.91841 1.39998 0
M  V30 1839 H 215.004 5.00262 2.25897 0
M  V30 1840 H 215.265 3.37239 2.85872 0
M  V30 1841 N 214.325 -0.140222 1.56975 0
M  V30 1842 C 215.273 -1.19207 1.99731 0
M  V30 1843 C 216.267 -1.44089 0.890777 0
M  V30 1844 O 217.473 -1.44301 1.07597 0
M  V30 1845 H 213.848 -0.40142 0.635898 0
M  V30 1846 H 215.819 -0.804813 2.87342 0
M  V30 1847 C 214.568 -2.51617 2.39967 0
M  V30 1848 H 213.891 -2.33303 3.24669 0
M  V30 1849 H 215.331 -3.23827 2.73701 0
M  V30 1850 C 213.79 -3.12654 1.25496 0
M  V30 1851 O 214.32 -3.97786 0.559371 0
M  V30 1852 N 212.526 -2.72206 1.01746 0
M  V30 1853 H 212.073 -2.03074 1.58489 0
M  V30 1854 H 212.031 -3.13377 0.253461 0
M  V30 1855 N 215.803 -1.52179 -0.40978 0
M  V30 1856 C 216.735 -1.71703 -1.51825 0
M  V30 1857 C 217.748 -0.597445 -1.51441 0
M  V30 1858 O 218.937 -0.872582 -1.55719 0
M  V30 1859 C 216.037 -1.74171 -2.90719 0
M  V30 1860 C 215.21 -3.03156 -3.15302 0
M  V30 1861 C 214.269 -2.97445 -4.34065 0
M  V30 1862 O 213.295 -3.71352 -4.31377 0
M  V30 1863 N 214.497 -2.15191 -5.39141 0
M  V30 1864 H 217.262 -2.67334 -1.35472 0
M  V30 1865 H 214.823 -1.50409 -0.599069 0
M  V30 1866 H 216.815 -1.67884 -3.68235 0
M  V30 1867 H 215.385 -0.860166 -3.00533 0
M  V30 1868 H 214.605 -3.23097 -2.25836 0
M  V30 1869 H 215.893 -3.88484 -3.28569 0
M  V30 1870 H 215.291 -1.54573 -5.44173 0
M  V30 1871 H 213.848 -2.1476 -6.15403 0
M  V30 1872 N 217.281 0.66697 -1.42791 0
M  V30 1873 C 218.506 1.46004 -1.47301 0
M  V30 1874 C 218.931 1.87894 -0.0880317 0
M  V30 1875 O 218.289 1.56502 0.915253 0
M  V30 1876 C 218.337 2.68031 -2.41229 0
M  V30 1877 O 217.441 3.6659 -1.88906 0
M  V30 1878 H 216.782 0.43832 -0.49877 0
M  V30 1879 H 219.312 0.817391 -1.87563 0
M  V30 1880 H 219.322 3.1601 -2.58073 0
M  V30 1881 H 217.997 2.36883 -3.41847 0
M  V30 1882 H 216.574 3.25661 -1.81656 0
M  V30 1883 N 218.759 1.29093 0.90403 0
M  V30 1884 C 219.689 1.16401 2.02418 0
M  V30 1885 C 220.67 0.0593085 1.69997 0
M  V30 1886 O 221.855 0.238021 1.92736 0
M  V30 1887 C 218.985 0.835233 3.37107 0
M  V30 1888 C 217.939 1.89578 3.83724 0
M  V30 1889 C 217.265 1.42041 5.15489 0
M  V30 1890 C 218.565 3.30394 4.04521 0
M  V30 1891 H 220.259 2.10109 2.13295 0
M  V30 1892 H 217.805 1.01157 1.02486 0
M  V30 1893 H 219.758 0.733169 4.14973 0
M  V30 1894 H 218.482 -0.137543 3.2631 0
M  V30 1895 H 217.141 1.98715 3.08071 0
M  V30 1896 H 216.789 0.436426 5.01103 0
M  V30 1897 H 216.489 2.12964 5.4765 0
M  V30 1898 H 218.013 1.33176 5.959 0
M  V30 1899 H 219.427 3.24123 4.72882 0
M  V30 1900 H 217.824 3.99237 4.48029 0
M  V30 1901 H 218.894 3.73692 3.09002 0
M  V30 1902 N 220.237 -1.11381 1.11499 0
M  V30 1903 C 221.167 -2.19509 0.796125 0
M  V30 1904 C 222.148 -1.68458 -0.235796 0
M  V30 1905 O 223.333 -1.93947 -0.0991344 0
M  V30 1906 C 220.463 -3.46475 0.239205 0
M  V30 1907 C 219.417 -4.10744 1.20307 0
M  V30 1908 C 218.743 -5.32293 0.50683 0
M  V30 1909 C 220.043 -4.55597 2.55399 0
M  V30 1910 H 221.737 -2.46439 1.70024 0
M  V30 1911 H 219.283 -1.18446 0.818935 0
M  V30 1912 H 221.236 -4.214 0.00392006 0
M  V30 1913 H 219.96 -3.19006 -0.700206 0
M  V30 1914 H 218.619 -3.37813 1.42399 0
M  V30 1915 H 218.267 -5.01095 -0.437408 0
M  V30 1916 H 217.967 -5.76243 1.1497 0
M  V30 1917 H 219.491 -6.09956 0.280351 0
M  V30 1918 H 220.905 -5.21841 2.37391 0
M  V30 1919 H 219.302 -5.10363 3.15673 0
M  V30 1920 H 220.372 -3.69013 3.14575 0
M  V30 1921 N 221.715 -0.905404 -1.28997 0
M  V30 1922 C 222.943 -0.549846 -1.9946 0
M  V30 1923 C 223.358 0.866834 -1.67724 0
M  V30 1924 O 222.715 1.57298 -0.925404 0
M  V30 1925 C 222.766 -0.739387 -3.53858 0
M  V30 1926 O 222.487 -2.10031 -3.84472 0
M  V30 1927 C 223.988 -0.389541 -4.41585 0
M  V30 1928 H 221.208 -0.210429 -0.637151 0
M  V30 1929 H 223.752 -1.21632 -1.64396 0
M  V30 1930 H 221.907 -0.120023 -3.87214 0
M  V30 1931 H 222.321 -2.13385 -4.79132 0
M  V30 1932 H 223.795 -0.572972 -5.49018 0
M  V30 1933 H 224.272 0.673756 -4.34001 0
M  V30 1934 H 224.878 -0.986089 -4.1371 0
M  V30 1935 N 223.193 1.4272 -0.668489 0
M  V30 1936 C 224.604 1.84793 -0.266151 0
M  V30 1937 C 224.955 1.55959 1.19043 0
M  V30 1938 O 224.08 1.01622 1.91055 0
M  V30 1939 C 224.675 3.35436 -0.476271 0
M  V30 1940 C 223.234 3.76182 -0.128113 0
M  V30 1941 C 222.381 2.66344 -0.771777 0
M  V30 1942 H 225.332 1.32656 -0.871098 0
M  V30 1943 H 225.353 3.79515 0.273561 0
M  V30 1944 H 224.865 3.5639 -1.53647 0
M  V30 1945 H 222.966 3.60836 0.928891 0
M  V30 1946 H 223.079 4.75766 -0.564231 0
M  V30 1947 H 221.443 2.53885 -0.203652 0
M  V30 1948 H 222.226 2.90123 -1.83531 0
M  V30 1949 N 224.671 0.411399 1.52136 0
M  V30 1950 C 225.601 -0.404015 2.29978 0
M  V30 1951 C 226.582 -1.04412 1.34284 0
M  V30 1952 O 227.767 -1.0527 1.63192 0
M  V30 1953 C 224.897 -1.5197 3.12286 0
M  V30 1954 C 223.851 -1.00448 4.16046 0
M  V30 1955 C 223.177 -2.21393 4.86712 0
M  V30 1956 C 224.477 -0.0569336 5.22269 0
M  V30 1957 H 226.171 0.245529 2.98392 0
M  V30 1958 H 223.717 0.119525 1.43503 0
M  V30 1959 H 225.67 -2.09715 3.6551 0
M  V30 1960 H 224.394 -2.19716 2.41646 0
M  V30 1961 H 223.053 -0.449421 3.63835 0
M  V30 1962 H 222.701 -2.87699 4.12599 0
M  V30 1963 H 222.401 -1.87571 5.56858 0
M  V30 1964 H 223.925 -2.7974 5.4275 0
M  V30 1965 H 225.339 -0.54325 5.7072 0
M  V30 1966 H 223.736 0.192594 5.99791 0
M  V30 1967 H 224.806 0.887663 4.76706 0
M  V30 1968 N 226.149 -1.5696 0.141893 0
M  V30 1969 C 227.097 -2.17784 -0.816874 0
M  V30 1970 C 228.091 -1.1334 -1.25899 0
M  V30 1971 O 229.297 -1.316 -1.22806 0
M  V30 1972 H 225.672 -0.697278 -0.281615 0
M  V30 1973 H 227.643 -2.97087 -0.279621 0
M  V30 1974 C 226.392 -2.80983 -2.04802 0
M  V30 1975 H 225.715 -3.61062 -1.7168 0
M  V30 1976 H 227.155 -3.2705 -2.69841 0
M  V30 1977 C 225.614 -1.79228 -2.8527 0
M  V30 1978 O 226.144 -1.25962 -3.8144 0
M  V30 1979 N 224.35 -1.48647 -2.49704 0
M  V30 1980 H 223.897 -1.92155 -1.71564 0
M  V30 1981 H 223.855 -0.808115 -3.03837 0
M  V30 1982 N 227.627 0.131896 -1.57047 0
M  V30 1983 C 228.557 1.16384 -2.02428 0
M  V30 1984 C 229.538 1.43936 -0.90644 0
M  V30 1985 O 230.723 1.54599 -1.17528 0
M  V30 1986 C 227.853 2.49328 -2.4177 0
M  V30 1987 C 226.807 2.36266 -3.56879 0
M  V30 1988 C 226.133 3.74057 -3.8208 0
M  V30 1989 C 227.433 1.834 -4.89042 0
M  V30 1990 H 229.127 0.786433 -2.88887 0
M  V30 1991 H 226.673 0.376855 -1.38981 0
M  V30 1992 H 228.626 3.21759 -2.7212 0
M  V30 1993 H 227.35 2.88934 -1.52266 0
M  V30 1994 H 226.009 1.66286 -3.26718 0
M  V30 1995 H 225.657 4.11125 -2.89803 0
M  V30 1996 H 225.357 3.66174 -4.59554 0
M  V30 1997 H 226.881 4.48012 -4.1487 0
M  V30 1998 H 228.295 2.45636 -5.18011 0
M  V30 1999 H 226.692 1.8637 -5.70426 0
M  V30 2000 H 227.762 0.790662 -4.7841 0
M  V30 2001 N 229.106 1.52395 0.401703 0
M  V30 2002 C 230.038 1.72505 1.50912 0
M  V30 2003 C 231.051 0.605468 1.51122 0
M  V30 2004 O 232.24 0.880828 1.55254 0
M  V30 2005 C 229.34 1.75711 2.89791 0
M  V30 2006 C 228.513 3.04824 3.1369 0
M  V30 2007 C 227.572 2.99743 4.32482 0
M  V30 2008 O 226.598 3.73635 4.29402 0
M  V30 2009 N 227.8 2.18047 5.37992 0
M  V30 2010 H 230.565 2.68049 1.34052 0
M  V30 2011 H 228.126 1.50724 0.591084 0
M  V30 2012 H 230.118 1.69834 3.6734 0
M  V30 2013 H 228.688 0.876092 3.00072 0
M  V30 2014 H 227.908 3.2429 2.24119 0
M  V30 2015 H 229.196 3.90221 3.26504 0
M  V30 2016 H 228.594 1.57456 5.43345 0
M  V30 2017 H 227.151 2.18021 6.14256 0
M  V30 2018 N 230.584 -0.659388 1.43143 0
M  V30 2019 C 231.833 -1.41518 1.43721 0
M  V30 2020 C 232.146 -1.95499 0.0628176 0
M  V30 2021 O 233.352 -2.71446 -0.0539683 0
M  V30 2022 C 231.808 -2.5608 2.52885 0
M  V30 2023 C 231.416 -2.08733 3.96402 0
M  V30 2024 C 233.16 -3.3349 2.62649 0
M  V30 2025 C 231.067 -3.20469 4.97045 0
M  V30 2026 H 229.997 -0.531705 0.534608 0
M  V30 2027 H 232.648 -0.712343 1.69109 0
M  V30 2028 H 231.03 -3.28805 2.20688 0
M  V30 2029 H 232.204 -1.43059 4.3803 0
M  V30 2030 H 230.519 -1.44219 3.90627 0
M  V30 2031 H 233.116 -4.16734 3.35017 0
M  V30 2032 H 233.459 -3.8111 1.67513 0
M  V30 2033 H 233.992 -2.67842 2.94118 0
M  V30 2034 H 230.731 -2.77824 5.93712 0
M  V30 2035 H 230.251 -3.84874 4.60034 0
M  V30 2036 H 231.93 -3.85698 5.19467 0
M  V30 2037 N 232.062 -1.29571 -0.897171 0
M  V30 2038 C 233.339 -1.08365 -1.62839 0
M  V30 2039 C 233.719 0.371331 -2.07808 0
M  V30 2040 O 233.067 1.3606 -1.83576 0
M  V30 2041 C 233.277 -2.0735 -2.80726 0
M  V30 2042 C 234.625 -2.38406 -3.51351 0
M  V30 2043 O 235.649 -2.05564 -2.90898 0
M  V30 2044 O 234.508 -2.9453 -4.60341 0
M  V30 2045 H 231.602 -0.415345 -0.715134 0
M  V30 2046 H 234.148 -1.40952 -0.945018 0
M  V30 2047 H 232.92 -3.05339 -2.44711 0
M  V30 2048 H 232.543 -1.75507 -3.56767 0
M  V30 2049 N 233.54 1.10788 -1.12088 0
M  V30 2050 C 234.951 1.64181 -0.88891 0
M  V30 2051 C 235.302 1.87508 0.577498 0
M  V30 2052 O 234.427 1.61434 1.44112 0
M  V30 2053 C 235.022 2.98257 -1.60712 0
M  V30 2054 C 233.581 3.4853 -1.42139 0
M  V30 2055 C 232.728 2.23208 -1.6454 0
M  V30 2056 H 235.679 0.943368 -1.27618 0
M  V30 2057 H 235.7 3.65552 -1.05604 0
M  V30 2058 H 235.212 2.81246 -2.67436 0
M  V30 2059 H 233.313 3.70692 -0.376552 0
M  V30 2060 H 233.426 4.26882 -2.17505 0
M  V30 2061 H 231.79 2.31169 -1.06925 0
M  V30 2062 H 232.573 2.08733 -2.72554 0
M  V30 2063 N 235.018 0.912232 1.28515 0
M  V30 2064 C 236.243 0.559774 1.99703 0
M  V30 2065 C 236.668 -0.851393 1.67729 0
M  V30 2066 O 236.026 -1.56875 0.908834 0
M  V30 2067 C 236.074 0.773874 3.52198 0
M  V30 2068 O 235.178 -0.167842 4.12058 0
M  V30 2069 H 234.519 0.21723 0.627461 0
M  V30 2070 H 237.049 1.22725 1.63706 0
M  V30 2071 H 237.059 0.683386 4.02236 0
M  V30 2072 H 235.734 1.80261 3.74805 0
M  V30 2073 H 234.311 -0.0287509 3.72889 0
M  V30 2074 N 236.496 -1.42363 0.676048 0
M  V30 2075 C 237.745 -2.00745 0.196037 0
M  V30 2076 C 238.058 -1.54083 -1.20489 0
M  V30 2077 O 239.264 -2.04891 -1.78134 0
M  V30 2078 C 237.72 -3.58651 0.299616 0
M  V30 2079 C 237.328 -4.143 1.70468 0
M  V30 2080 C 239.072 -4.24326 -0.121619 0
M  V30 2081 C 236.979 -5.64574 1.76096 0
M  V30 2082 H 235.909 -0.750787 0.0695301 0
M  V30 2083 H 238.56 -1.63072 0.841412 0
M  V30 2084 H 236.942 -3.93833 -0.413673 0
M  V30 2085 H 238.116 -3.90575 2.44515 0
M  V30 2086 H 236.431 -3.61081 2.07387 0
M  V30 2087 H 239.028 -5.34607 -0.0997362 0
M  V30 2088 H 239.371 -3.99897 -1.15708 0
M  V30 2089 H 239.904 -3.94108 0.540706 0
M  V30 2090 H 236.643 -5.93804 2.77628 0
M  V30 2091 H 236.163 -5.90286 1.06406 0
M  V30 2092 H 237.842 -6.29013 1.51496 0
M  V30 2093 N 237.974 -0.419461 -1.51915 0
M  V30 2094 C 238.906 0.43646 -2.25006 0
M  V30 2095 C 239.919 1.00149 -1.28351 0
M  V30 2096 O 241.108 0.898674 -1.54227 0
M  V30 2097 C 238.208 1.6206 -2.9764 0
M  V30 2098 C 237.381 1.17763 -4.21249 0
M  V30 2099 C 236.44 2.22985 -4.76617 0
M  V30 2100 O 235.466 1.83151 -5.38929 0
M  V30 2101 N 236.668 3.55271 -4.59089 0
M  V30 2102 H 239.433 -0.18989 -2.99098 0
M  V30 2103 H 236.994 -0.247386 -1.59999 0
M  V30 2104 H 238.986 2.32038 -3.31573 0
M  V30 2105 H 237.556 2.15266 -2.2667 0
M  V30 2106 H 236.776 0.305582 -3.93014 0
M  V30 2107 H 238.064 0.858781 -5.015 0
M  V30 2108 H 237.462 3.90377 -4.09417 0
M  V30 2109 H 236.019 4.21195 -4.97432 0
M  V30 2110 N 239.452 1.56882 -0.150215 0
M  V30 2111 C 240.868 1.58263 0.20617 0
M  V30 2112 C 241.068 1.16464 1.64434 0
M  V30 2113 O 240.124 0.866422 2.3717 0
M  V30 2114 C 241.437 3.00649 -0.0555025 0
M  V30 2115 C 242.985 3.12999 0.00795388 0
M  V30 2116 C 243.46 4.5744 -0.226429 0
M  V30 2117 N 244.951 4.62875 -0.173469 0
M  V30 2118 C 245.686 5.72454 -0.329288 0
M  V30 2119 N 245.182 6.90669 -0.543005 0
M  V30 2120 N 246.975 5.61467 -0.266666 0
M  V30 2121 H 239.126 1.82345 -1.08922 0
M  V30 2122 H 241.389 0.844149 -0.431413 0
M  V30 2123 H 241.095 3.3563 -1.05096 0
M  V30 2124 H 240.969 3.71337 0.66246 0
M  V30 2125 H 243.356 2.77857 0.993966 0
M  V30 2126 H 243.437 2.4479 -0.742388 0
M  V30 2127 H 243.081 4.93287 -1.20956 0
M  V30 2128 H 243.011 5.2378 0.544274 0
M  V30 2129 H 245.502 3.77898 -0.0130709 0
M  V30 2130 H 245.815 7.70045 -0.651922 0
M  V30 2131 H 244.16 6.92581 -0.579366 0
M  V30 2132 H 247.351 4.67992 -0.100441 0
M  V30 2133 H 247.524 6.46816 -0.391535 0
M  V30 2134 N 240.93 -0.123565 1.57115 0
M  V30 2135 C 242.176 -0.833386 1.84885 0
M  V30 2136 C 242.509 -1.79742 0.735292 0
M  V30 2137 O 241.784 -1.92764 -0.25925 0
M  V30 2138 C 242.067 -1.5873 3.23228 0
M  V30 2139 C 241.92 -0.643183 4.45178 0
M  V30 2140 C 243.239 -2.54453 3.59085 0
M  V30 2141 H 240.358 -0.301518 0.6725 0
M  V30 2142 H 243 -0.097778 1.89748 0
M  V30 2143 H 241.15 -2.21438 3.19214 0
M  V30 2144 H 242.822 -0.0253015 4.61293 0
M  V30 2145 H 241.065 0.0456139 4.33776 0
M  V30 2146 H 241.736 -1.20724 5.38637 0
M  V30 2147 H 244.212 -2.01853 3.63861 0
M  V30 2148 H 243.088 -3.04238 4.5687 0
M  V30 2149 H 243.349 -3.36906 2.86264 0
M  V30 2150 N 242.408 -1.52605 -0.393616 0
M  V30 2151 C 243.824 -1.41753 -0.733357 0
M  V30 2152 C 244.024 -0.534293 -1.94287 0
M  V30 2153 O 243.08 -0.0059787 -2.52499 0
M  V30 2154 C 244.393 -2.84531 -0.972772 0
M  V30 2155 C 245.941 -2.93978 -1.07453 0
M  V30 2156 C 246.416 -4.37756 -1.3466 0
M  V30 2157 N 247.907 -4.4106 -1.41492 0
M  V30 2158 C 248.642 -5.49387 -1.642 0
M  V30 2159 N 248.138 -6.67806 -1.8441 0
M  V30 2160 N 249.931 -5.36923 -1.66342 0
M  V30 2161 H 242.082 -2.08555 0.402328 0
M  V30 2162 H 244.345 -0.940654 0.117789 0
M  V30 2163 H 244.051 -3.51353 -0.156204 0
M  V30 2164 H 243.925 -3.26508 -1.88871 0
M  V30 2165 H 246.312 -2.27326 -1.88167 0
M  V30 2166 H 246.393 -2.55435 -0.136605 0
M  V30 2167 H 246.037 -5.04972 -0.544581 0
M  V30 2168 H 245.967 -4.73848 -2.2973 0
M  V30 2169 H 248.458 -3.55705 -1.27601 0
M  V30 2170 H 248.771 -7.46141 -2.01231 0
M  V30 2171 H 247.116 -6.70843 -1.81644 0
M  V30 2172 H 250.307 -4.43381 -1.50102 0
M  V30 2173 H 250.48 -6.21416 -1.837 0
M  V30 2174 N 243.887 0.651787 -1.4349 0
M  V30 2175 C 245.115 1.43937 -1.48626 0
M  V30 2176 C 245.53 1.8851 -0.104587 0
M  V30 2177 O 244.887 1.5958 0.885464 0
M  V30 2178 C 244.938 2.6734 -2.43334 0
M  V30 2179 O 244.659 2.24631 -3.76128 0
M  V30 2180 C 246.16 3.60683 -2.57726 0
M  V30 2181 H 243.38 0.44213 -0.504739 0
M  V30 2182 H 245.924 0.798944 -1.88248 0
M  V30 2183 H 244.079 3.2752 -2.06904 0
M  V30 2184 H 244.493 3.04485 -4.2707 0
M  V30 2185 H 245.967 4.43933 -3.28067 0
M  V30 2186 H 246.444 4.08126 -1.62265 0
M  V30 2187 H 247.05 3.06384 -2.94973 0
M  V30 2188 N 245.365 1.30045 0.890287 0
M  V30 2189 C 246.275 1.17885 2.02831 0
M  V30 2190 C 247.291 0.0999609 1.73713 0
M  V30 2191 O 248.467 0.313867 1.98939 0
M  V30 2192 C 245.532 0.866079 3.35708 0
M  V30 2193 C 244.593 2.02979 3.78283 0
M  V30 2194 C 243.826 1.73184 5.0482 0
M  V30 2195 O 244.049 0.657237 5.66601 0
M  V30 2196 O 242.983 2.58267 5.43674 0
M  V30 2197 H 246.809 2.13474 2.16015 0
M  V30 2198 H 244.394 1.09587 1.01543 0
M  V30 2199 H 246.276 0.706623 4.15433 0
M  V30 2200 H 244.951 -0.0599443 3.23644 0
M  V30 2201 H 243.858 2.24454 2.99285 0
M  V30 2202 H 245.191 2.93734 3.94944 0
M  V30 2203 N 246.843 -1.10192 1.12674 0
M  V30 2204 C 247.753 -2.20172 0.810026 0
M  V30 2205 C 248.769 -1.72821 -0.202188 0
M  V30 2206 O 249.945 -2.01369 -0.0351691 0
M  V30 2207 C 247.01 -3.45631 0.272007 0
M  V30 2208 C 246.071 -4.07704 1.34447 0
M  V30 2209 C 245.304 -5.27175 0.832029 0
M  V30 2210 O 245.527 -5.69425 -0.333284 0
M  V30 2211 O 244.461 -5.80168 1.60277 0
M  V30 2212 H 248.287 -2.49701 1.72867 0
M  V30 2213 H 245.872 -1.18977 0.903597 0
M  V30 2214 H 247.754 -4.21394 -0.0230219 0
M  V30 2215 H 246.429 -3.17723 -0.619164 0
M  V30 2216 H 245.336 -3.33614 1.6927 0
M  V30 2217 H 246.669 -4.3982 2.2095 0
M  V30 2218 N 248.321 -0.919034 -1.28029 0
M  V30 2219 C 249.737 -0.617972 -1.4715 0
M  V30 2220 C 249.937 0.835242 -1.83374 0
M  V30 2221 O 248.993 1.61388 -1.94191 0
M  V30 2222 C 250.306 -1.56041 -2.57044 0
M  V30 2223 C 251.854 -1.56769 -2.7091 0
M  V30 2224 C 252.329 -2.49688 -3.83953 0
M  V30 2225 N 253.82 -2.47845 -3.91314 0
M  V30 2226 C 254.555 -3.16437 -4.78179 0
M  V30 2227 N 254.051 -3.94376 -5.69596 0
M  V30 2228 N 255.844 -3.05498 -4.71834 0
M  V30 2229 H 247.995 -1.85866 -1.02798 0
M  V30 2230 H 250.258 -0.797506 -0.512531 0
M  V30 2231 H 249.964 -2.59671 -2.372 0
M  V30 2232 H 249.838 -1.29551 -3.54255 0
M  V30 2233 H 252.225 -0.538745 -2.90141 0
M  V30 2234 H 252.306 -1.87305 -1.74214 0
M  V30 2235 H 251.95 -3.52688 -3.65477 0
M  V30 2236 H 251.88 -2.16453 -4.80058 0
M  V30 2237 H 254.371 -1.91234 -3.25941 0
M  V30 2238 H 254.684 -4.43721 -6.32718 0
M  V30 2239 H 253.029 -3.98481 -5.69419 0
M  V30 2240 H 256.22 -2.44108 -3.99411 0
M  V30 2241 H 256.393 -3.59225 -5.39316 0
M  V30 2242 N 249.799 1.42003 -0.683588 0
M  V30 2243 C 250.709 2.34597 -0.0109075 0
M  V30 2244 C 251.725 1.55576 0.779245 0
M  V30 2245 O 252.901 1.88107 0.719555 0
M  V30 2246 C 249.966 3.34199 0.922588 0
M  V30 2247 C 249.027 4.29115 0.125984 0
M  V30 2248 C 248.26 5.23959 1.01502 0
M  V30 2249 O 248.483 5.23952 2.25456 0
M  V30 2250 O 247.417 6.00053 0.47111 0
M  V30 2251 H 251.243 2.93675 -0.773853 0
M  V30 2252 H 248.828 1.42654 -0.443861 0
M  V30 2253 H 250.71 3.95365 1.45823 0
M  V30 2254 H 249.385 2.77582 1.66523 0
M  V30 2255 H 248.292 3.71335 -0.453969 0
M  V30 2256 H 249.625 4.88798 -0.577736 0
M  V30 2257 N 251.277 0.427512 1.51691 0
M  V30 2258 C 252.209 -0.424521 2.25234 0
M  V30 2259 C 253.222 -0.994671 1.2888 0
M  V30 2260 O 254.411 -0.890483 1.54702 0
M  V30 2261 C 251.511 -1.60479 2.98496 0
M  V30 2262 C 250.684 -1.15527 4.21868 0
M  V30 2263 C 249.743 -2.20454 4.77793 0
M  V30 2264 O 248.769 -1.8029 5.39893 0
M  V30 2265 N 249.971 -3.52831 4.60967 0
M  V30 2266 H 252.736 0.205749 2.98993 0
M  V30 2267 H 250.297 0.255867 1.59865 0
M  V30 2268 H 252.289 -2.30276 3.32799 0
M  V30 2269 H 250.859 -2.14061 2.27809 0
M  V30 2270 H 250.079 -0.284736 3.9317 0
M  V30 2271 H 251.367 -0.832173 5.01949 0
M  V30 2272 H 250.765 -3.88201 4.11481 0
M  V30 2273 H 249.322 -4.18551 4.99658 0
M  V30 2274 N 252.755 -1.56801 0.158532 0
M  V30 2275 C 254.004 -1.95665 -0.489702 0
M  V30 2276 C 254.317 -1.04654 -1.65248 0
M  V30 2277 O 255.523 -1.33146 -2.3661 0
M  V30 2278 C 253.979 -3.47874 -0.922582 0
M  V30 2279 C 253.587 -4.47489 0.213893 0
M  V30 2280 C 255.331 -3.95583 -1.53996 0
M  V30 2281 C 253.238 -5.90921 -0.237903 0
M  V30 2282 H 252.168 -0.730516 -0.186716 0
M  V30 2283 H 254.819 -1.81861 0.244722 0
M  V30 2284 H 253.201 -3.57051 -1.71261 0
M  V30 2285 H 254.375 -4.50017 0.991036 0
M  V30 2286 H 252.69 -4.09764 0.740407 0
M  V30 2287 H 255.287 -5.0019 -1.8898 0
M  V30 2288 H 255.63 -3.37789 -2.43319 0
M  V30 2289 H 256.163 -3.8937 -0.814611 0
M  V30 2290 H 252.902 -6.52559 0.620236 0
M  V30 2291 H 252.422 -5.91729 -0.980676 0
M  V30 2292 H 254.101 -6.43352 -0.686067 0
M  V30 2293 N 254.233 0.115231 -1.57178 0
M  V30 2294 C 255.18 1.14115 -2.00615 0
M  V30 2295 C 256.15 1.40939 -0.878941 0
M  V30 2296 O 257.335 1.52741 -1.14345 0
M  V30 2297 C 254.475 2.46156 -2.4187 0
M  V30 2298 C 253.588 2.26236 -3.68024 0
M  V30 2299 C 252.723 3.51534 -3.98243 0
M  V30 2300 C 251.762 3.26787 -5.17568 0
M  V30 2301 N 250.899 4.44298 -5.43639 0
M  V30 2302 H 255.739 0.763743 -2.88047 0
M  V30 2303 H 253.276 0.365615 -1.42484 0
M  V30 2304 H 255.234 3.23189 -2.63827 0
M  V30 2305 H 253.864 2.81783 -1.57475 0
M  V30 2306 H 252.916 1.40102 -3.5366 0
M  V30 2307 H 254.228 2.03929 -4.55208 0
M  V30 2308 H 253.382 4.36984 -4.20868 0
M  V30 2309 H 252.121 3.76876 -3.09541 0
M  V30 2310 H 251.126 2.39729 -4.94783 0
M  V30 2311 H 252.351 3.02812 -6.0785 0
M  V30 2312 H 250.297 4.69754 -4.57895 0
M  V30 2313 H 250.214 4.25109 -6.25154 0
M  V30 2314 H 251.482 5.3087 -5.70786 0
M  V30 2315 N 255.711 1.52812 0.385517 0
M  V30 2316 C 256.939 1.71907 1.15133 0
M  V30 2317 C 257.354 0.439004 1.83625 0
M  V30 2318 O 256.711 -0.586765 1.7281 0
M  V30 2319 C 256.762 2.87099 2.19673 0
M  V30 2320 O 256.483 4.10151 1.53973 0
M  V30 2321 C 257.984 3.17902 3.08955 0
M  V30 2322 H 255.204 0.575479 0.345057 0
M  V30 2323 H 257.748 1.99476 0.45052 0
M  V30 2324 H 255.903 2.61982 2.85384 0
M  V30 2325 H 256.317 4.74514 2.23465 0
M  V30 2326 H 257.791 4.01959 3.7833 0
M  V30 2327 H 258.268 2.3243 3.72657 0
M  V30 2328 H 258.874 3.44871 2.48885 0
M  V30 2329 N 257.189 -0.644168 1.43834 0
M  V30 2330 C 258.119 -1.76814 1.52509 0
M  V30 2331 C 259.1 -1.65823 0.379052 0
M  V30 2332 O 260.285 -1.84781 0.597466 0
M  V30 2333 C 257.415 -3.15288 1.4564 0
M  V30 2334 C 256.369 -3.41053 2.58586 0
M  V30 2335 C 255.695 -4.79421 2.36769 0
M  V30 2336 C 256.995 -3.34902 4.00797 0
M  V30 2337 H 258.689 -1.69812 2.46586 0
M  V30 2338 H 256.235 -0.815542 1.1868 0
M  V30 2339 H 258.188 -3.93681 1.50311 0
M  V30 2340 H 256.912 -3.23043 0.480725 0
M  V30 2341 H 255.571 -2.65035 2.53282 0
M  V30 2342 H 255.219 -4.83863 1.37424 0
M  V30 2343 H 254.919 -4.9762 3.12487 0
M  V30 2344 H 256.443 -5.6006 2.43238 0
M  V30 2345 H 257.857 -4.03218 4.07539 0
M  V30 2346 H 256.254 -3.64637 4.76613 0
M  V30 2347 H 257.324 -2.32928 4.25291 0
M  V30 2348 N 258.668 -1.30515 -0.883378 0
M  V30 2349 C 259.616 -1.16941 -2.01066 0
M  V30 2350 C 260.61 -0.0809148 -1.69207 0
M  V30 2351 O 261.816 -0.241877 -1.78367 0
M  V30 2352 H 258.191 -0.361705 -0.659298 0
M  V30 2353 H 260.162 -2.12344 -2.09649 0
M  V30 2354 C 258.911 -0.879694 -3.36388 0
M  V30 2355 H 258.234 -1.70936 -3.61415 0
M  V30 2356 H 259.674 -0.82483 -4.159 0
M  V30 2357 C 258.133 0.417409 -3.34304 0
M  V30 2358 O 258.663 1.43843 -3.75063 0
M  V30 2359 N 256.869 0.429141 -2.87414 0
M  V30 2360 H 256.416 -0.402222 -2.5444 0
M  V30 2361 H 256.374 1.29696 -2.86403 0
M  V30 2362 N 260.146 1.09593 -1.13257 0
M  V30 2363 C 261.094 2.18271 -0.803783 0
M  V30 2364 C 262.088 1.68054 0.213148 0
M  V30 2365 O 263.294 1.79862 0.0704699 0
M  V30 2366 H 259.669 0.711949 -0.242143 0
M  V30 2367 H 261.64 2.43235 -1.72856 0
M  V30 2368 C 260.389 3.46536 -0.28424 0
M  V30 2369 H 259.712 3.85545 -1.05807 0
M  V30 2370 H 261.152 4.23899 -0.0925945 0
M  V30 2371 C 259.611 3.22036 0.989684 0
M  V30 2372 O 260.141 3.44509 2.06584 0
M  V30 2373 N 258.347 2.7565 0.920086 0
M  V30 2374 H 257.894 2.57562 0.0442019 0
M  V30 2375 H 257.852 2.59635 1.77306 0
M  V30 2376 N 261.624 0.925811 1.2754 0
M  V30 2377 C 262.571 0.422045 2.26908 0
M  V30 2378 C 263.541 -0.510029 1.58076 0
M  V30 2379 O 264.726 -0.429599 1.85901 0
M  V30 2380 C 261.866 -0.320837 3.43605 0
M  V30 2381 C 260.979 0.64513 4.27156 0
M  V30 2382 C 260.114 -0.117405 5.3107 0
M  V30 2383 C 259.153 0.841391 6.0629 0
M  V30 2384 N 258.29 0.111604 7.02011 0
M  V30 2385 H 263.13 1.27441 2.69375 0
M  V30 2386 H 260.667 0.639697 1.32462 0
M  V30 2387 H 262.625 -0.76785 4.10073 0
M  V30 2388 H 261.255 -1.13745 3.02096 0
M  V30 2389 H 260.307 1.21067 3.6062 0
M  V30 2390 H 261.619 1.37797 4.79389 0
M  V30 2391 H 260.773 -0.624422 6.03478 0
M  V30 2392 H 259.512 -0.883219 4.79636 0
M  V30 2393 H 258.517 1.35967 5.32722 0
M  V30 2394 H 259.742 1.60696 6.59813 0
M  V30 2395 H 257.688 -0.635999 6.5291 0
M  V30 2396 H 257.605 0.784044 7.51923 0
M  V30 2397 H 258.873 -0.374823 7.78598 0
M  V30 2398 N 263.102 -1.41638 0.69111 0
M  V30 2399 C 264.349 -2.01299 0.220193 0
M  V30 2400 C 264.677 -1.54715 -1.17871 0
M  V30 2401 O 263.932 -0.747193 -1.80874 0
M  V30 2402 C 264.231 -3.56714 0.221277 0
M  V30 2403 C 263.897 -4.22792 1.56709 0
M  V30 2404 C 262.559 -4.40557 1.93554 0
M  V30 2405 C 264.911 -4.59883 2.45268 0
M  V30 2406 C 262.239 -4.92688 3.18552 0
M  V30 2407 C 264.591 -5.13403 3.69595 0
M  V30 2408 C 263.255 -5.29379 4.06589 0
M  V30 2409 H 262.525 -0.736606 0.0805743 0
M  V30 2410 H 265.172 -1.69598 0.889319 0
M  V30 2411 H 263.477 -3.8818 -0.531391 0
M  V30 2412 H 265.174 -4.00678 -0.160547 0
M  V30 2413 H 261.764 -4.09336 1.2705 0
M  V30 2414 H 265.948 -4.45817 2.18084 0
M  V30 2415 H 261.204 -5.03242 3.47214 0
M  V30 2416 H 265.378 -5.41084 4.38407 0
M  V30 2417 H 263.005 -5.69537 5.03519 0
M  V30 2418 N 264.58 -0.43555 -1.51462 0
M  V30 2419 C 265.543 0.365137 -2.26273 0
M  V30 2420 C 266.543 0.951227 -1.29647 0
M  V30 2421 O 267.733 0.825958 -1.53374 0
M  V30 2422 C 264.865 1.51645 -3.05314 0
M  V30 2423 H 266.058 -0.290474 -2.9849 0
M  V30 2424 H 263.611 -0.188676 -1.55157 0
M  V30 2425 H 264.346 2.20816 -2.3751 0
M  V30 2426 H 264.131 1.10238 -3.76284 0
M  V30 2427 H 265.621 2.08218 -3.61987 0
M  V30 2428 N 266.058 1.56714 -0.166846 0
M  V30 2429 C 267.283 2.01557 0.488833 0
M  V30 2430 C 267.708 1.0463 1.56314 0
M  V30 2431 O 267.066 0.0251304 1.81283 0
M  V30 2432 C 267.114 3.4503 1.04818 0
M  V30 2433 O 266.218 3.51163 2.16236 0
M  V30 2434 H 265.559 0.653516 0.117526 0
M  V30 2435 H 268.089 2.02818 -0.269421 0
M  V30 2436 H 268.099 3.84243 1.37191 0
M  V30 2437 H 266.774 4.15077 0.261572 0
M  V30 2438 H 265.351 3.23807 1.84942 0
M  V30 2439 N 267.536 -0.106894 1.57237 0
M  V30 2440 C 268.783 -0.812526 1.85484 0
M  V30 2441 C 269.111 -1.79304 0.753687 0
M  V30 2442 O 268.366 -1.94047 -0.253853 0
M  V30 2443 C 268.665 -1.58628 3.20268 0
M  V30 2444 C 268.331 -0.748967 4.44636 0
M  V30 2445 C 266.993 -0.518104 4.78403 0
M  V30 2446 C 269.345 -0.166122 5.20935 0
M  V30 2447 C 266.673 0.305659 5.85903 0
M  V30 2448 C 269.025 0.644899 6.29304 0
M  V30 2449 C 267.689 0.885965 6.61594 0
M  V30 2450 H 266.959 -0.297324 0.678734 0
M  V30 2451 H 269.606 -0.0744332 1.91355 0
M  V30 2452 H 267.911 -2.39562 3.10028 0
M  V30 2453 H 269.608 -2.13643 3.39349 0
M  V30 2454 H 266.198 -0.939006 4.18187 0
M  V30 2455 H 270.382 -0.33167 4.95191 0
M  V30 2456 H 265.638 0.501528 6.0934 0
M  V30 2457 H 269.812 1.10345 6.87602 0
M  V30 2458 H 267.439 1.52609 7.44725 0
M  V30 2459 N 269.014 -1.53014 -0.377408 0
M  V30 2460 C 270.263 -1.67845 -1.11853 0
M  V30 2461 C 270.576 -0.430625 -1.90801 0
M  V30 2462 O 271.782 -0.459261 -2.67587 0
M  V30 2463 C 270.238 -2.96668 -2.03756 0
M  V30 2464 C 269.846 -4.28671 -1.30175 0
M  V30 2465 C 271.59 -3.20865 -2.77932 0
M  V30 2466 C 269.497 -5.48591 -2.20911 0
M  V30 2467 H 268.427 -0.625343 -0.421263 0
M  V30 2468 H 271.078 -1.79514 -0.380409 0
M  V30 2469 H 269.46 -2.78773 -2.8125 0
M  V30 2470 H 270.634 -4.57157 -0.578259 0
M  V30 2471 H 268.949 -4.10825 -0.679108 0
M  V30 2472 H 271.546 -4.07642 -3.46024 0
M  V30 2473 H 271.889 -2.36424 -3.4265 0
M  V30 2474 H 272.422 -3.39379 -2.07525 0
M  V30 2475 H 269.161 -6.35474 -1.6079 0
M  V30 2476 H 268.681 -5.244 -2.91144 0
M  V30 2477 H 270.36 -5.8292 -2.80736 0
M  V30 2478 N 270.492 0.636531 -1.44174 0
M  V30 2479 C 271.769 1.39463 -1.37148 0
M  V30 2480 C 272.149 2.11082 -0.027507 0
M  V30 2481 O 271.497 2.05954 0.989716 0
M  V30 2482 C 271.707 2.36552 -2.56601 0
M  V30 2483 C 273.055 3.00048 -3.00427 0
M  V30 2484 O 274.079 2.46878 -2.56767 0
M  V30 2485 O 272.938 3.96488 -3.76111 0
M  V30 2486 H 270.032 0.623903 -0.542839 0
M  V30 2487 H 272.578 0.662039 -1.56253 0
M  V30 2488 H 271.35 1.82692 -3.46034 0
M  V30 2489 H 270.973 3.17236 -2.39681 0
M  V30 2490 N 271.97 1.30982 0.876444 0
M  V30 2491 C 272.917 1.18085 1.98304 0
M  V30 2492 C 273.887 0.0682263 1.6596 0
M  V30 2493 O 275.072 0.239937 1.89285 0
M  V30 2494 C 272.212 0.887475 3.33493 0
M  V30 2495 C 271.325 2.08281 3.78475 0
M  V30 2496 C 270.46 1.72678 5.0235 0
M  V30 2497 C 269.499 2.88657 5.39762 0
M  V30 2498 N 268.636 2.53292 6.54819 0
M  V30 2499 H 273.476 2.1275 2.08666 0
M  V30 2500 H 271.013 1.05839 1.02159 0
M  V30 2501 H 272.971 0.697961 4.1132 0
M  V30 2502 H 271.601 -0.022315 3.22792 0
M  V30 2503 H 270.653 2.3833 2.96484 0
M  V30 2504 H 271.965 2.95108 4.02135 0
M  V30 2505 H 271.119 1.50151 5.87826 0
M  V30 2506 H 269.858 0.830327 4.8058 0
M  V30 2507 H 268.863 3.1184 4.52809 0
M  V30 2508 H 270.088 3.79002 5.63502 0
M  V30 2509 H 268.034 1.66163 6.34607 0
M  V30 2510 H 267.951 3.3365 6.7839 0
M  V30 2511 H 269.219 2.34143 7.43503 0
M  V30 2512 N 273.449 -1.08991 1.13837 0
M  V30 2513 C 274.695 -1.81526 0.90422 0
M  V30 2514 C 275.028 -1.85706 -0.568066 0
M  V30 2515 O 274.303 -1.32855 -1.42056 0
M  V30 2516 C 274.586 -3.27447 1.49835 0
M  V30 2517 C 274.439 -3.31512 3.04006 0
M  V30 2518 C 275.758 -4.24256 1.17025 0
M  V30 2519 H 272.877 -0.659029 0.329923 0
M  V30 2520 H 275.519 -1.27644 1.40737 0
M  V30 2521 H 273.669 -3.73462 1.07044 0
M  V30 2522 H 275.341 -2.93867 3.55584 0
M  V30 2523 H 273.584 -2.70963 3.38765 0
M  V30 2524 H 274.255 -4.34329 3.40679 0
M  V30 2525 H 276.731 -3.86549 1.54009 0
M  V30 2526 H 275.607 -5.24684 1.61237 0
M  V30 2527 H 275.868 -4.42019 0.0846274 0
M  V30 2528 N 274.927 -0.932562 -1.27047 0
M  V30 2529 C 276.343 -0.633544 -1.46487 0
M  V30 2530 C 276.543 0.815746 -1.84249 0
M  V30 2531 O 275.599 1.59319 -1.95892 0
M  V30 2532 C 276.912 -1.58758 -2.55375 0
M  V30 2533 C 278.46 -1.59634 -2.69232 0
M  V30 2534 C 278.935 -2.53747 -3.81283 0
M  V30 2535 N 280.426 -2.51982 -3.88664 0
M  V30 2536 C 281.161 -3.21491 -4.74796 0
M  V30 2537 N 280.657 -4.00395 -5.65381 0
M  V30 2538 N 282.45 -3.10485 -4.68568 0
M  V30 2539 H 274.601 -1.86946 -1.00821 0
M  V30 2540 H 276.864 -0.802897 -0.504044 0
M  V30 2541 H 276.57 -2.62172 -2.34432 0
M  V30 2542 H 276.444 -1.33301 -3.52861 0
M  V30 2543 H 278.831 -0.569488 -2.89553 0
M  V30 2544 H 278.912 -1.89142 -1.72218 0
M  V30 2545 H 278.556 -3.56545 -3.61715 0
M  V30 2546 H 278.486 -2.21532 -4.77735 0
M  V30 2547 H 280.977 -1.94681 -3.23895 0
M  V30 2548 H 281.29 -4.50406 -6.27976 0
M  V30 2549 H 279.635 -4.04498 -5.65161 0
M  V30 2550 H 282.826 -2.48331 -3.96799 0
M  V30 2551 H 282.999 -3.64925 -5.35475 0
M  V30 2552 N 276.405 1.4127 -0.698611 0
M  V30 2553 C 277.652 2.0118 -0.230865 0
M  V30 2554 C 277.98 1.55338 1.17049 0
M  V30 2555 O 277.235 0.756775 1.80475 0
M  V30 2556 C 277.534 3.56592 -0.240192 0
M  V30 2557 C 277.2 4.21955 -1.58948 0
M  V30 2558 C 275.862 4.39524 -1.95887 0
M  V30 2559 C 278.214 4.58576 -2.47704 0
M  V30 2560 C 275.542 4.90992 -3.2116 0
M  V30 2561 C 277.894 5.11435 -3.72313 0
M  V30 2562 C 276.558 5.27215 -4.0939 0
M  V30 2563 H 275.828 0.736169 -0.0844796 0
M  V30 2564 H 278.475 1.69124 -0.8983 0
M  V30 2565 H 276.78 3.88456 0.510797 0
M  V30 2566 H 278.477 4.00758 0.139296 0
M  V30 2567 H 275.067 4.08657 -1.29219 0
M  V30 2568 H 279.251 4.44654 -2.20445 0
M  V30 2569 H 274.507 5.01393 -3.49878 0
M  V30 2570 H 278.681 5.38752 -4.4127 0
M  V30 2571 H 276.308 5.66859 -5.06533 0
M  V30 2572 N 277.883 0.443576 1.51229 0
M  V30 2573 C 278.813 -0.355142 2.30783 0
M  V30 2574 C 279.794 -1.0154 1.36468 0
M  V30 2575 O 280.979 -1.01785 1.65389 0
M  V30 2576 C 278.109 -1.45312 3.15439 0
M  V30 2577 C 277.063 -0.916002 4.18083 0
M  V30 2578 C 276.389 -2.1102 4.91299 0
M  V30 2579 C 277.689 0.0538602 5.22272 0
M  V30 2580 H 279.383 0.308767 2.97804 0
M  V30 2581 H 276.929 0.149937 1.43217 0
M  V30 2582 H 278.882 -2.01914 3.69876 0
M  V30 2583 H 277.606 -2.14541 2.46252 0
M  V30 2584 H 276.265 -0.372145 3.64706 0
M  V30 2585 H 275.913 -2.78882 4.18609 0
M  V30 2586 H 275.613 -1.75717 5.60712 0
M  V30 2587 H 277.137 -2.68164 5.48562 0
M  V30 2588 H 278.551 -0.422069 5.71744 0
M  V30 2589 H 276.948 0.319776 5.99247 0
M  V30 2590 H 278.018 0.98858 4.74716 0
M  V30 2591 N 279.361 -1.56624 0.175154 0
M  V30 2592 C 280.271 -2.21741 -0.766042 0
M  V30 2593 C 281.287 -1.21023 -1.25018 0
M  V30 2594 O 282.463 -1.53697 -1.3015 0
M  V30 2595 C 279.528 -2.84839 -1.97655 0
M  V30 2596 C 278.589 -4.00769 -1.53892 0
M  V30 2597 C 277.822 -4.60849 -2.69173 0
M  V30 2598 O 278.045 -4.19823 -3.86141 0
M  V30 2599 O 276.979 -5.50655 -2.43028 0
M  V30 2600 H 280.805 -3.02738 -0.241585 0
M  V30 2601 H 278.39 -1.49305 -0.053222 0
M  V30 2602 H 280.272 -3.24834 -2.68442 0
M  V30 2603 H 278.947 -2.06836 -2.48999 0
M  V30 2604 H 277.854 -3.65436 -0.80044 0
M  V30 2605 H 279.187 -4.80376 -1.07236 0
M  V30 2606 N 280.839 0.0985539 -1.57292 0
M  V30 2607 C 281.771 1.14595 -1.98496 0
M  V30 2608 C 282.784 1.36512 -0.887031 0
M  V30 2609 O 283.973 1.35225 -1.16518 0
M  V30 2610 C 281.073 2.50216 -2.28572 0
M  V30 2611 C 280.246 2.48624 -3.59868 0
M  V30 2612 C 279.305 3.66146 -3.7792 0
M  V30 2613 O 278.331 3.48795 -4.49812 0
M  V30 2614 N 279.533 4.85496 -3.18235 0
M  V30 2615 H 282.298 0.795277 -2.88956 0
M  V30 2616 H 279.859 0.287579 -1.59325 0
M  V30 2617 H 281.851 3.27432 -2.37845 0
M  V30 2618 H 280.421 2.77387 -1.44136 0
M  V30 2619 H 279.641 1.56978 -3.61596 0
M  V30 2620 H 280.929 2.44635 -4.46129 0
M  V30 2621 H 280.327 5.02497 -2.59833 0
M  V30 2622 H 278.884 5.60317 -3.32999 0
M  V30 2623 N 282.317 1.53212 0.369288 0
M  V30 2624 C 283.249 1.75668 1.47219 0
M  V30 2625 C 284.262 0.637387 1.49804 0
M  V30 2626 O 285.451 0.913561 1.5335 0
M  V30 2627 C 282.551 1.81818 2.85999 0
M  V30 2628 C 281.724 3.11409 3.07153 0
M  V30 2629 C 280.783 3.08849 4.26026 0
M  V30 2630 O 279.809 3.82659 4.2138 0
M  V30 2631 N 281.011 2.29409 5.33246 0
M  V30 2632 H 283.776 2.70832 1.28337 0
M  V30 2633 H 281.337 1.51944 0.55898 0
M  V30 2634 H 283.329 1.77588 3.63655 0
M  V30 2635 H 281.899 0.939544 2.98146 0
M  V30 2636 H 281.119 3.28971 2.1719 0
M  V30 2637 H 282.407 3.97059 3.18154 0
M  V30 2638 H 281.805 1.68946 5.39883 0
M  V30 2639 H 280.362 2.31001 6.09493 0
M  V30 2640 N 283.795 -0.628877 1.44509 0
M  V30 2641 C 284.743 -1.76193 1.51852 0
M  V30 2642 C 285.737 -1.64849 0.390042 0
M  V30 2643 O 286.943 -1.709 0.565082 0
M  V30 2644 H 283.318 -0.581728 0.476547 0
M  V30 2645 H 285.289 -1.67123 2.47209 0
M  V30 2646 C 284.038 -3.14533 1.48204 0
M  V30 2647 H 283.361 -3.23911 2.34354 0
M  V30 2648 H 284.801 -3.93701 1.57402 0
M  V30 2649 C 283.26 -3.36287 0.203142 0
M  V30 2650 O 283.79 -3.9509 -0.725745 0
M  V30 2651 N 281.996 -2.90408 0.105563 0
M  V30 2652 H 281.543 -2.42739 0.862301 0
M  V30 2653 H 281.501 -3.05339 -0.749371 0
M  V30 2654 N 285.273 -1.31445 -0.869486 0
M  V30 2655 C 286.22 -1.19135 -1.97675 0
M  V30 2656 C 287.19 -0.0770266 -1.65921 0
M  V30 2657 O 288.375 -0.249972 -1.89155 0
M  V30 2658 C 285.515 -0.905149 -3.33018 0
M  V30 2659 C 284.628 -2.10285 -3.77365 0
M  V30 2660 C 283.763 -1.75339 -5.01427 0
M  V30 2661 C 282.802 -2.91515 -5.38224 0
M  V30 2662 N 281.939 -2.56762 -6.53466 0
M  V30 2663 H 286.779 -2.13853 -2.07535 0
M  V30 2664 H 284.316 -1.06379 -1.01597 0
M  V30 2665 H 286.274 -0.719765 -4.10944 0
M  V30 2666 H 284.904 0.00519624 -3.228 0
M  V30 2667 H 283.956 -2.39899 -2.95216 0
M  V30 2668 H 285.268 -2.97237 -4.00564 0
M  V30 2669 H 284.422 -1.53266 -5.87022 0
M  V30 2670 H 283.161 -0.855801 -4.80133 0
M  V30 2671 H 282.166 -3.14237 -4.51149 0
M  V30 2672 H 283.391 -3.81985 -5.61484 0
M  V30 2673 H 281.337 -1.69526 -6.33717 0
M  V30 2674 H 281.254 -3.37243 -6.76612 0
M  V30 2675 H 282.522 -2.38083 -7.42251 0
M  V30 2676 N 286.751 1.08385 -1.14413 0
M  V30 2677 C 287.997 1.81044 -0.913834 0
M  V30 2678 C 288.33 1.86004 0.558209 0
M  V30 2679 O 287.605 1.33606 1.4135 0
M  V30 2680 C 287.888 3.26648 -1.51569 0
M  V30 2681 C 287.741 3.29895 -3.0576 0
M  V30 2682 C 289.06 4.23629 -1.19273 0
M  V30 2683 H 286.179 0.65727 -0.333414 0
M  V30 2684 H 288.821 1.26896 -1.41412 0
M  V30 2685 H 286.971 3.72889 -1.09023 0
M  V30 2686 H 288.643 2.91977 -3.57137 0
M  V30 2687 H 286.886 2.69163 -3.40197 0
M  V30 2688 H 287.557 4.32516 -3.42977 0
M  V30 2689 H 290.033 3.85727 -1.56057 0
M  V30 2690 H 288.909 5.23822 -1.64017 0
M  V30 2691 H 289.17 4.41968 -0.108068 0
M  V30 2692 N 288.23 0.939286 1.26551 0
M  V30 2693 C 289.16 0.465044 2.28822 0
M  V30 2694 C 290.141 -0.480692 1.63167 0
M  V30 2695 O 291.326 -0.382955 1.90387 0
M  V30 2696 C 288.456 -0.27234 3.46231 0
M  V30 2697 C 287.41 0.58666 4.2396 0
M  V30 2698 C 286.736 -0.280573 5.33963 0
M  V30 2699 C 288.036 1.85704 4.88171 0
M  V30 2700 H 289.73 1.31979 2.68741 0
M  V30 2701 H 287.276 0.636061 1.29191 0
M  V30 2702 H 289.229 -0.615133 4.16886 0
M  V30 2703 H 287.953 -1.16121 3.0526 0
M  V30 2704 H 286.612 0.91232 3.55067 0
M  V30 2705 H 286.26 -1.16874 4.89234 0
M  V30 2706 H 285.96 0.29076 5.8688 0
M  V30 2707 H 287.484 -0.618678 6.07458 0
M  V30 2708 H 288.898 1.58161 5.51052 0
M  V30 2709 H 287.295 2.37279 5.51197 0
M  V30 2710 H 288.365 2.56957 4.11219 0
M  V30 2711 N 289.708 -1.40897 0.706093 0
M  V30 2712 C 290.985 -1.94868 0.169099 0
M  V30 2713 C 291.365 -1.64485 -1.32318 0
M  V30 2714 O 290.713 -0.95744 -2.07474 0
M  V30 2715 C 290.923 -3.45798 0.471654 0
M  V30 2716 C 292.271 -4.22663 0.405127 0
M  V30 2717 O 293.295 -3.53865 0.407168 0
M  V30 2718 O 292.154 -5.45216 0.374383 0
M  V30 2719 H 289.248 -0.82673 0.0211352 0
M  V30 2720 H 291.794 -1.50558 0.782976 0
M  V30 2721 H 290.566 -3.61235 1.50416 0
M  V30 2722 H 290.189 -3.97225 -0.172666 0
M  V30 2723 N 291.186 -0.45159 -1.50991 0
M  V30 2724 C 292.414 0.108334 -2.06616 0
M  V30 2725 C 292.829 1.35224 -1.31757 0
M  V30 2726 O 292.186 1.78475 -0.381174 0
M  V30 2727 C 292.237 0.41619 -3.59096 0
M  V30 2728 O 291.958 -0.778361 -4.3113 0
M  V30 2729 C 293.459 1.02523 -4.31282 0
M  V30 2730 H 290.679 0.00159995 -0.670998 0
M  V30 2731 H 293.223 -0.634771 -1.94399 0
M  V30 2732 H 291.378 1.10921 -3.71181 0
M  V30 2733 H 291.792 -0.511181 -5.22003 0
M  V30 2734 H 293.266 1.19053 -5.39009 0
M  V30 2735 H 293.743 2.01013 -3.905 0
M  V30 2736 H 294.349 0.371173 -4.23677 0
M  V30 2737 N 292.664 1.56529 -0.183458 0
M  V30 2738 C 293.611 2.18546 0.742055 0
M  V30 2739 C 294.581 1.12912 1.2182 0
M  V30 2740 O 295.766 1.41115 1.28418 0
M  V30 2741 C 292.906 2.83977 1.96089 0
M  V30 2742 C 292.019 4.04105 1.52719 0
M  V30 2743 C 291.154 4.57427 2.70063 0
M  V30 2744 C 290.193 5.69938 2.23243 0
M  V30 2745 N 289.33 6.17717 3.33722 0
M  V30 2746 H 294.17 2.97284 0.206432 0
M  V30 2747 H 291.707 1.46823 0.0901571 0
M  V30 2748 H 293.665 3.20077 2.67594 0
M  V30 2749 H 292.295 2.07822 2.47002 0
M  V30 2750 H 291.347 3.73745 0.708436 0
M  V30 2751 H 292.659 4.85513 1.1436 0
M  V30 2752 H 291.813 4.95772 3.49708 0
M  V30 2753 H 290.552 3.75101 3.11689 0
M  V30 2754 H 289.557 5.31133 1.42048 0
M  V30 2755 H 290.782 6.54073 1.82661 0
M  V30 2756 H 288.728 5.38317 3.74902 0
M  V30 2757 H 288.645 6.94146 2.99495 0
M  V30 2758 H 289.913 6.60713 4.13616 0
M  V30 2759 N 294.142 -0.090211 1.57342 0
M  V30 2760 C 295.388 -0.788838 1.8748 0
M  V30 2761 C 295.743 -1.76105 0.7749 0
M  V30 2762 O 295.036 -1.90302 -0.222663 0
M  V30 2763 C 295.23 -1.55222 3.21933 0
M  V30 2764 C 295.059 -0.655441 4.44898 0
M  V30 2765 C 293.829 -0.299325 5.04413 0
M  V30 2766 C 296.027 0.0397458 5.14285 0
M  V30 2767 N 294.009 0.605108 6.10911 0
M  V30 2768 C 295.38 0.802061 6.1479 0
M  V30 2769 C 297.435 0.113154 4.97771 0
M  V30 2770 C 296.138 1.63093 7.00566 0
M  V30 2771 C 298.164 0.928942 5.84059 0
M  V30 2772 C 297.526 1.67936 6.84088 0
M  V30 2773 H 293.625 -0.26467 0.735849 0
M  V30 2774 H 296.209 -0.0511453 1.94633 0
M  V30 2775 H 294.38 -2.26076 3.15823 0
M  V30 2776 H 296.112 -2.19843 3.39781 0
M  V30 2777 H 292.867 -0.648079 4.69145 0
M  V30 2778 H 293.291 1.05002 6.68808 0
M  V30 2779 H 297.933 -0.452676 4.2037 0
M  V30 2780 H 295.651 2.20781 7.77355 0
M  V30 2781 H 299.237 0.988478 5.73341 0
M  V30 2782 H 298.117 2.30044 7.49699 0
M  V30 2783 N 295.62 -1.53406 -0.361157 0
M  V30 2784 C 296.848 -1.73717 -1.12383 0
M  V30 2785 C 297.263 -0.468161 -1.82904 0
M  V30 2786 O 296.62 0.559198 -1.73722 0
M  V30 2787 C 296.671 -2.90558 -2.15078 0
M  V30 2788 O 296.392 -4.12549 -1.47428 0
M  V30 2789 C 297.893 -3.22777 -3.03858 0
M  V30 2790 H 295.113 -0.580896 -0.335858 0
M  V30 2791 H 297.657 -2.00167 -0.418728 0
M  V30 2792 H 295.812 -2.66489 -2.8118 0
M  V30 2793 H 296.226 -4.78009 -2.15887 0
M  V30 2794 H 297.7 -4.07927 -3.71887 0
M  V30 2795 H 298.177 -2.38329 -3.68912 0
M  V30 2796 H 298.783 -3.48787 -2.43367 0
M  V30 2797 N 297.098 0.621204 -1.44841 0
M  V30 2798 C 298.028 1.74366 -1.55303 0
M  V30 2799 C 299.009 1.65199 -0.405385 0
M  V30 2800 O 300.194 1.83807 -0.626787 0
M  V30 2801 C 297.324 3.12931 -1.50637 0
M  V30 2802 C 296.278 3.36896 -2.63979 0
M  V30 2803 C 295.604 4.75594 -2.44366 0
M  V30 2804 C 296.904 3.28483 -4.06074 0
M  V30 2805 H 298.598 1.65867 -2.49256 0
M  V30 2806 H 296.144 0.796558 -1.19962 0
M  V30 2807 H 298.097 3.9124 -1.56555 0
M  V30 2808 H 296.821 3.22237 -0.532057 0
M  V30 2809 H 295.48 2.60972 -2.57467 0
M  V30 2810 H 295.128 4.81616 -1.45105 0
M  V30 2811 H 294.828 4.92586 -3.20364 0
M  V30 2812 H 296.352 5.5612 -2.52117 0
M  V30 2813 H 297.766 3.96684 -4.13902 0
M  V30 2814 H 296.163 3.57008 -4.82354 0
M  V30 2815 H 297.233 2.26133 -4.28943 0
M  V30 2816 N 298.576 1.31904 0.862503 0
M  V30 2817 C 299.506 1.22782 1.98612 0
M  V30 2818 C 300.487 0.113362 1.69722 0
M  V30 2819 O 301.672 0.299218 1.91881 0
M  V30 2820 C 298.802 0.942058 3.34279 0
M  V30 2821 C 297.756 2.0169 3.77499 0
M  V30 2822 C 297.082 1.58369 5.10709 0
M  V30 2823 C 298.382 3.43096 3.93805 0
M  V30 2824 H 300.076 2.16788 2.06502 0
M  V30 2825 H 297.622 1.04366 0.992154 0
M  V30 2826 H 299.575 0.864818 4.1243 0
M  V30 2827 H 298.299 -0.0336603 3.26583 0
M  V30 2828 H 296.958 2.08416 3.01593 0
M  V30 2829 H 296.606 0.595628 4.99461 0
M  V30 2830 H 296.306 2.30279 5.40597 0
M  V30 2831 H 297.83 1.52067 5.91361 0
M  V30 2832 H 299.244 3.39003 4.62331 0
M  V30 2833 H 297.641 4.13288 4.35101 0
M  V30 2834 H 298.711 3.83334 2.96957 0
M  V30 2835 N 300.054 -1.07777 1.14986 0
M  V30 2836 C 300.986 -2.14769 0.800436 0
M  V30 2837 C 301.999 -1.61739 -0.185595 0
M  V30 2838 O 303.188 -1.78462 0.0370358 0
M  V30 2839 C 300.288 -3.38481 0.168533 0
M  V30 2840 C 299.461 -4.20876 1.1909 0
M  V30 2841 C 298.52 -5.22976 0.581575 0
M  V30 2842 O 297.546 -5.55388 1.24633 0
M  V30 2843 N 298.748 -5.76976 -0.638706 0
M  V30 2844 H 301.513 -2.45348 1.72118 0
M  V30 2845 H 299.074 -1.23645 1.04515 0
M  V30 2846 H 301.066 -4.03916 -0.251764 0
M  V30 2847 H 299.636 -3.05651 -0.655467 0
M  V30 2848 H 298.856 -3.51322 1.78791 0
M  V30 2849 H 300.144 -4.7274 1.88133 0
M  V30 2850 H 299.542 -5.52886 -1.19723 0
M  V30 2851 H 298.099 -6.44061 -1.00142 0
M  V30 2852 N 301.532 -0.945985 -1.26051 0
M  V30 2853 C 302.442 -0.465633 -2.29933 0
M  V30 2854 C 303.458 0.462761 -1.67733 0
M  V30 2855 O 304.634 0.341118 -1.9849 0
M  V30 2856 C 301.699 0.256994 -3.45746 0
M  V30 2857 C 300.76 -0.708549 -4.23412 0
M  V30 2858 C 299.993 -0.0203135 -5.33696 0
M  V30 2859 O 300.216 1.19571 -5.57726 0
M  V30 2860 O 299.15 -0.701459 -5.97799 0
M  V30 2861 H 302.976 -1.32866 -2.73094 0
M  V30 2862 H 300.561 -0.712071 -1.31339 0
M  V30 2863 H 302.443 0.663852 -4.16138 0
M  V30 2864 H 301.118 1.09533 -3.04605 0
M  V30 2865 H 300.025 -1.16545 -3.55483 0
M  V30 2866 H 301.358 -1.51465 -4.68315 0
M  V30 2867 N 303.011 1.40521 -0.713556 0
M  V30 2868 C 303.943 2.29191 -0.0203126 0
M  V30 2869 C 304.956 1.45723 0.725864 0
M  V30 2870 O 306.145 1.69033 0.573581 0
M  V30 2871 C 303.245 3.2395 0.995486 0
M  V30 2872 C 302.418 4.36262 0.315256 0
M  V30 2873 C 301.477 5.11474 1.23616 0
M  V30 2874 O 300.503 5.64606 0.721719 0
M  V30 2875 N 301.705 5.20638 2.56743 0
M  V30 2876 H 304.47 2.89327 -0.781652 0
M  V30 2877 H 302.031 1.51869 -0.561022 0
M  V30 2878 H 304.023 3.71137 1.61368 0
M  V30 2879 H 302.593 2.64995 1.6582 0
M  V30 2880 H 301.813 3.91228 -0.483106 0
M  V30 2881 H 303.101 5.08558 -0.157004 0
M  V30 2882 H 302.499 4.7895 3.01037 0
M  V30 2883 H 301.056 5.71339 3.13712 0
M  V30 2884 N 304.489 0.459591 1.5075 0
M  V30 2885 C 305.737 -0.0991532 2.01857 0
M  V30 2886 C 306.058 -1.41247 1.34441 0
M  V30 2887 O 305.328 -1.89775 0.486022 0
M  V30 2888 H 303.908 -0.039633 0.745948 0
M  V30 2889 H 306.57 0.607387 1.85194 0
M  V30 2890 H 305.666 -0.258998 3.11023 0
M  V30 2891 N 305.967 -1.56429 0.191757 0
M  V30 2892 C 307.195 -2.01867 -0.453586 0
M  V30 2893 C 307.61 -1.07191 -1.5542 0
M  V30 2894 O 306.967 -0.0762108 -1.82341 0
M  V30 2895 C 307.018 -3.47017 -1.013 0
M  V30 2896 O 306.739 -4.38078 0.0437005 0
M  V30 2897 C 308.24 -4.07956 -1.73456 0
M  V30 2898 H 305.46 -0.661211 -0.114199 0
M  V30 2899 H 308.004 -2.02295 0.299483 0
M  V30 2900 H 306.159 -3.47298 -1.71647 0
M  V30 2901 H 306.573 -5.23178 -0.372212 0
M  V30 2902 H 308.047 -5.1138 -2.07833 0
M  V30 2903 H 308.524 -3.51222 -2.63704 0
M  V30 2904 H 309.13 -4.11437 -1.07702 0
M  V30 2905 N 307.445 0.0818655 -1.57387 0
M  V30 2906 C 308.392 1.09834 -2.0299 0
M  V30 2907 C 309.362 1.39043 -0.908639 0
M  V30 2908 O 310.547 1.50282 -1.17559 0
M  V30 2909 C 307.687 2.40971 -2.47037 0
M  V30 2910 C 306.8 2.18379 -3.7274 0
M  V30 2911 C 305.935 3.43008 -4.0561 0
M  V30 2912 C 304.974 3.15736 -5.24383 0
M  V30 2913 N 304.111 4.32667 -5.52941 0
M  V30 2914 H 308.951 0.702472 -2.89602 0
M  V30 2915 H 306.488 0.33531 -1.43227 0
M  V30 2916 H 308.446 3.1752 -2.70623 0
M  V30 2917 H 307.076 2.78379 -1.63417 0
M  V30 2918 H 306.128 1.32569 -3.56552 0
M  V30 2919 H 307.44 1.94227 -4.59431 0
M  V30 2920 H 306.594 4.27958 -4.30043 0
M  V30 2921 H 305.333 3.70225 -3.17466 0
M  V30 2922 H 304.338 2.2918 -4.99757 0
M  V30 2923 H 305.563 2.8985 -6.14136 0
M  V30 2924 H 303.509 4.59935 -4.67756 0
M  V30 2925 H 303.426 4.11753 -6.34031 0
M  V30 2926 H 304.694 5.18644 -5.81918 0
M  V30 2927 N 308.923 1.53595 0.353017 0
M  V30 2928 C 310.151 1.74311 1.1146 0
M  V30 2929 C 310.566 0.477854 1.82653 0
M  V30 2930 O 309.923 -0.549977 1.74016 0
M  V30 2931 C 309.974 2.91694 2.13534 0
M  V30 2932 O 309.695 4.13325 1.45238 0
M  V30 2933 C 311.196 3.24384 3.02142 0
M  V30 2934 H 308.416 0.582669 0.332773 0
M  V30 2935 H 310.96 2.00386 0.408107 0
M  V30 2936 H 309.115 2.67977 2.79763 0
M  V30 2937 H 309.529 4.79148 2.13349 0
M  V30 2938 H 311.003 4.09893 3.69718 0
M  V30 2939 H 311.48 2.40282 3.67643 0
M  V30 2940 H 312.086 3.50073 2.41514 0
M  V30 2941 N 310.401 -0.613514 1.45168 0
M  V30 2942 C 311.647 -1.37471 1.49096 0
M  V30 2943 C 311.98 -1.93765 0.129901 0
M  V30 2944 O 311.255 -1.74707 -0.854858 0
M  V30 2945 C 311.538 -2.52701 2.56542 0
M  V30 2946 C 311.391 -2.01643 4.0207 0
M  V30 2947 C 312.71 -3.54849 2.60327 0
M  V30 2948 H 309.829 -0.498502 0.54283 0
M  V30 2949 H 312.471 -0.692125 1.76945 0
M  V30 2950 H 310.621 -3.10931 2.32926 0
M  V30 2951 H 312.293 -1.48108 4.36877 0
M  V30 2952 H 310.536 -1.32688 4.13009 0
M  V30 2953 H 311.207 -2.84681 4.72928 0
M  V30 2954 H 313.683 -3.0645 2.81474 0
M  V30 2955 H 312.559 -4.32973 3.37381 0
M  V30 2956 H 312.82 -4.10079 1.6519 0
M  V30 2957 N 311.879 -1.3236 -0.855495 0
M  V30 2958 C 313.295 -1.11332 -1.14356 0
M  V30 2959 C 313.495 0.106751 -2.01217 0
M  V30 2960 O 312.551 0.791891 -2.39761 0
M  V30 2961 C 313.864 -2.39237 -1.82171 0
M  V30 2962 C 315.412 -2.44986 -1.9481 0
M  V30 2963 C 315.887 -3.7281 -2.66039 0
M  V30 2964 N 317.378 -3.73787 -2.73565 0
M  V30 2965 C 318.113 -4.69394 -3.29327 0
M  V30 2966 N 317.609 -5.75367 -3.85907 0
M  V30 2967 N 319.402 -4.56893 -3.27423 0
M  V30 2968 H 311.553 -2.10586 -0.277027 0
M  V30 2969 H 313.816 -0.929701 -0.185364 0
M  V30 2970 H 313.522 -3.28431 -1.25802 0
M  V30 2971 H 313.396 -2.50134 -2.82335 0
M  V30 2972 H 315.783 -1.56252 -2.50338 0
M  V30 2973 H 315.864 -2.38043 -0.936448 0
M  V30 2974 H 315.508 -4.61918 -2.11174 0
M  V30 2975 H 315.438 -3.77024 -3.67642 0
M  V30 2976 H 317.929 -2.97189 -2.33424 0
M  V30 2977 H 318.242 -6.44378 -4.26611 0
M  V30 2978 H 316.587 -5.79123 -3.84242 0
M  V30 2979 H 319.778 -3.73269 -2.82467 0
M  V30 2980 H 319.951 -5.31577 -3.7058 0
M  V30 2981 N 313.357 1.07166 -1.15556 0
M  V30 2982 C 314.289 2.14341 -0.811815 0
M  V30 2983 C 315.302 1.61835 0.177015 0
M  V30 2984 O 316.491 1.78439 -0.0464996 0
M  V30 2985 C 313.591 3.38387 -0.186481 0
M  V30 2986 C 312.764 4.20238 -1.21321 0
M  V30 2987 C 311.823 5.2266 -0.609302 0
M  V30 2988 O 310.849 5.54719 -1.27576 0
M  V30 2989 N 312.051 5.77306 0.608099 0
M  V30 2990 H 314.816 2.44431 -1.73417 0
M  V30 2991 H 312.377 1.23089 -1.0517 0
M  V30 2992 H 314.369 4.04044 0.230339 0
M  V30 2993 H 312.939 3.05994 0.639249 0
M  V30 2994 H 312.159 3.50369 -1.80652 0
M  V30 2995 H 313.447 4.71736 -1.90638 0
M  V30 2996 H 312.845 5.53513 1.1679 0
M  V30 2997 H 311.402 6.44583 0.96725 0
M  V30 2998 N 314.835 0.952656 1.25548 0
M  V30 2999 C 315.783 0.462354 2.27958 0
M  V30 3000 C 316.777 -0.46634 1.62855 0
M  V30 3001 O 317.983 -0.343287 1.76696 0
M  V30 3002 H 314.358 0.13101 0.7405 0
M  V30 3003 H 316.329 1.33839 2.66702 0
M  V30 3004 C 315.078 -0.24628 3.46827 0
M  V30 3005 H 314.401 0.459192 3.97154 0
M  V30 3006 H 315.841 -0.553393 4.20373 0
M  V30 3007 C 314.3 -1.4681 3.0323 0
M  V30 3008 O 314.83 -2.56591 3.09069 0
M  V30 3009 N 313.036 -1.32874 2.58443 0
M  V30 3010 H 312.583 -0.435536 2.53891 0
M  V30 3011 H 312.541 -2.14742 2.29637 0
M  V30 3012 N 316.313 -1.40141 0.720998 0
M  V30 3013 C 317.243 -2.33339 0.0867621 0
M  V30 3014 C 318.224 -1.53178 -0.739622 0
M  V30 3015 O 319.409 -1.81625 -0.687449 0
M  V30 3016 C 316.539 -3.37194 -0.831728 0
M  V30 3017 C 315.493 -4.27857 -0.110558 0
M  V30 3018 C 314.819 -5.22294 -1.14513 0
M  V30 3019 C 316.119 -5.11872 1.0385 0
M  V30 3020 H 317.813 -2.86626 0.865219 0
M  V30 3021 H 315.359 -1.37814 0.417516 0
M  V30 3022 H 317.312 -4.01335 -1.28485 0
M  V30 3023 H 316.036 -2.82314 -1.64214 0
M  V30 3024 H 314.695 -3.65176 0.322797 0
M  V30 3025 H 314.343 -4.63717 -1.94874 0
M  V30 3026 H 314.043 -5.83797 -0.667446 0
M  V30 3027 H 315.567 -5.89312 -1.59824 0
M  V30 3028 H 316.981 -5.69436 0.664482 0
M  V30 3029 H 315.378 -5.82445 1.4449 0
M  V30 3030 H 316.448 -4.4753 1.86668 0
M  V30 3031 N 317.792 -0.46758 -1.50504 0
M  V30 3032 C 318.702 0.33382 -2.32213 0
M  V30 3033 C 319.718 0.999323 -1.42441 0
M  V30 3034 O 320.894 0.988068 -1.75497 0
M  V30 3035 C 317.959 1.4035 -3.17022 0
M  V30 3036 C 317.02 0.754961 -4.2261 0
M  V30 3037 C 316.253 1.77367 -5.03365 0
M  V30 3038 O 316.476 2.99976 -4.8515 0
M  V30 3039 O 315.41 1.34744 -5.86624 0
M  V30 3040 H 319.236 -0.334067 -3.01857 0
M  V30 3041 H 316.821 -0.229496 -1.47627 0
M  V30 3042 H 318.703 2.02318 -3.69656 0
M  V30 3043 H 317.378 2.05492 -2.5011 0
M  V30 3044 H 316.285 0.0964244 -3.73976 0
M  V30 3045 H 317.618 0.146545 -4.91982 0
M  V30 3046 N 319.27 1.56325 -0.20005 0
M  V30 3047 C 320.681 1.8408 0.31167 0
M  V30 3048 C 321.032 1.12087 1.61031 0
M  V30 3049 O 320.157 0.38332 2.12978 0
M  V30 3050 C 320.752 3.33932 0.57226 0
M  V30 3051 C 319.311 3.6208 1.02834 0
M  V30 3052 C 318.458 2.77186 0.079634 0
M  V30 3053 H 321.409 1.52939 -0.423729 0
M  V30 3054 H 321.43 3.52971 1.42096 0
M  V30 3055 H 320.942 3.86303 -0.37308 0
M  V30 3056 H 319.043 3.15147 1.98778 0
M  V30 3057 H 319.156 4.7023 0.917624 0
M  V30 3058 H 317.52 2.47951 0.582448 0
M  V30 3059 H 318.303 3.32347 -0.860238 0
M  V30 3060 N 320.748 -0.0735177 1.57428 0
M  V30 3061 C 321.678 -1.0879 2.06608 0
M  V30 3062 C 322.659 -1.40473 0.959237 0
M  V30 3063 O 323.844 -1.5013 1.23185 0
M  V30 3064 C 320.974 -2.40183 2.50857 0
M  V30 3065 C 319.928 -2.22858 3.65402 0
M  V30 3066 C 319.254 -3.59619 3.957 0
M  V30 3067 C 320.554 -1.65123 4.95511 0
M  V30 3068 H 322.248 -0.678673 2.91607 0
M  V30 3069 H 319.794 -0.325013 1.40284 0
M  V30 3070 H 321.747 -3.11437 2.83874 0
M  V30 3071 H 320.471 -2.83083 1.62885 0
M  V30 3072 H 319.13 -1.54045 3.32664 0
M  V30 3073 H 318.778 -4.00086 3.04861 0
M  V30 3074 H 318.478 -3.48866 4.72828 0
M  V30 3075 H 320.002 -4.32306 4.31212 0
M  V30 3076 H 321.416 -2.26241 5.26771 0
M  V30 3077 H 319.813 -1.65071 5.7695 0
M  V30 3078 H 320.883 -0.612559 4.81015 0
M  V30 3079 N 322.226 -1.5378 -0.344866 0
M  V30 3080 C 323.473 -1.70963 -1.08526 0
M  V30 3081 C 323.801 -0.472126 -1.88683 0
M  V30 3082 O 323.056 0.546116 -1.87926 0
M  V30 3083 C 323.355 -2.92407 -2.05506 0
M  V30 3084 C 323.021 -4.28066 -1.41671 0
M  V30 3085 C 321.683 -4.64951 -1.2399 0
M  V30 3086 C 324.035 -5.12344 -0.956726 0
M  V30 3087 C 321.363 -5.83733 -0.589277 0
M  V30 3088 C 323.715 -6.3179 -0.320015 0
M  V30 3089 C 322.379 -6.67372 -0.130881 0
M  V30 3090 H 321.649 -0.625598 -0.397124 0
M  V30 3091 H 324.296 -1.87995 -0.36469 0
M  V30 3092 H 322.601 -2.69973 -2.8394 0
M  V30 3093 H 324.298 -3.02895 -2.62784 0
M  V30 3094 H 320.888 -3.99034 -1.56429 0
M  V30 3095 H 325.072 -4.8438 -1.08118 0
M  V30 3096 H 320.328 -6.09877 -0.431344 0
M  V30 3097 H 324.502 -6.96386 0.0445072 0
M  V30 3098 H 322.129 -7.59273 0.375318 0
M  V30 3099 N 323.704 0.605807 -1.45491 0
M  V30 3100 C 324.614 1.74466 -1.56839 0
M  V30 3101 C 325.63 1.68006 -0.452772 0
M  V30 3102 O 326.806 1.8833 -0.713708 0
M  V30 3103 C 323.871 3.10931 -1.53371 0
M  V30 3104 C 322.932 3.28832 -2.75986 0
M  V30 3105 C 322.165 4.58787 -2.72673 0
M  V30 3106 O 322.388 5.4122 -1.80102 0
M  V30 3107 O 321.322 4.79438 -3.63899 0
M  V30 3108 H 325.148 1.67843 -2.53106 0
M  V30 3109 H 322.733 0.770108 -1.28022 0
M  V30 3110 H 324.615 3.92233 -1.54051 0
M  V30 3111 H 323.29 3.18042 -0.602572 0
M  V30 3112 H 322.197 2.47112 -2.80867 0
M  V30 3113 H 323.53 3.26599 -3.68231 0
M  V30 3114 N 325.182 1.32811 0.848464 0
M  V30 3115 C 326.114 1.18095 1.96433 0
M  V30 3116 C 327.127 0.114354 1.62398 0
M  V30 3117 O 328.316 0.363892 1.74751 0
M  V30 3118 C 325.416 0.786798 3.2964 0
M  V30 3119 C 324.589 1.943 3.91875 0
M  V30 3120 C 323.648 1.53138 5.03423 0
M  V30 3121 O 322.674 2.24432 5.23086 0
M  V30 3122 N 323.876 0.430915 5.78898 0
M  V30 3123 H 326.641 2.14218 2.09597 0
M  V30 3124 H 324.202 1.2543 1.02367 0
M  V30 3125 H 326.194 0.493715 4.01677 0
M  V30 3126 H 324.764 -0.0834541 3.12489 0
M  V30 3127 H 323.984 2.40224 3.12547 0
M  V30 3128 H 325.272 2.71689 4.30189 0
M  V30 3129 H 324.67 -0.162333 5.65467 0
M  V30 3130 H 323.227 0.197466 6.51501 0
M  V30 3131 N 326.66 -1.06551 1.16123 0
M  V30 3132 C 327.89 -1.8274 0.963838 0
M  V30 3133 C 328.298 -1.82712 -0.491228 0
M  V30 3134 O 327.641 -1.24294 -1.35265 0
M  V30 3135 C 327.703 -3.3065 1.41106 0
M  V30 3136 C 327.367 -3.54384 2.88549 0
M  V30 3137 C 328.364 -3.4765 3.86569 0
M  V30 3138 C 326.049 -3.81789 3.26408 0
M  V30 3139 C 328.043 -3.67982 5.2045 0
M  V30 3140 C 325.73 -4.01772 4.60459 0
M  V30 3141 C 326.728 -3.94866 5.57288 0
M  V30 3142 O 326.416 -4.14306 6.88916 0
M  V30 3143 H 326.148 -0.583136 0.341948 0
M  V30 3144 H 328.702 -1.35351 1.54497 0
M  V30 3145 H 326.932 -3.78887 0.773394 0
M  V30 3146 H 328.621 -3.88324 1.1815 0
M  V30 3147 H 329.387 -3.2647 3.58667 0
M  V30 3148 H 325.266 -3.86276 2.51619 0
M  V30 3149 H 328.81 -3.62507 5.96015 0
M  V30 3150 H 324.707 -4.2244 4.88072 0
M  V30 3151 H 325.475 -4.31609 6.95454 0
M  V30 3152 N 328.138 -0.959301 -1.25041 0
M  V30 3153 C 329.387 -0.612254 -1.92183 0
M  V30 3154 C 329.7 0.855347 -1.75907 0
M  V30 3155 O 330.906 1.31256 -2.37664 0
M  V30 3156 C 329.362 -1.04435 -3.44414 0
M  V30 3157 C 328.97 -2.53482 -3.69393 0
M  V30 3158 C 330.714 -0.770055 -4.17457 0
M  V30 3159 C 328.621 -2.90468 -5.15153 0
M  V30 3160 H 327.551 -0.225279 -0.719559 0
M  V30 3161 H 330.202 -1.16438 -1.41825 0
M  V30 3162 H 328.584 -0.4206 -3.9376 0
M  V30 3163 H 329.758 -3.20916 -3.30681 0
M  V30 3164 H 328.073 -2.78432 -3.0962 0
M  V30 3165 H 330.67 -1.02249 -5.24832 0
M  V30 3166 H 331.013 0.293611 -4.15263 0
M  V30 3167 H 331.546 -1.35437 -3.74034 0
M  V30 3168 H 328.285 -3.95871 -5.22462 0
M  V30 3169 H 327.805 -2.27711 -5.54894 0
M  V30 3170 H 329.484 -2.79914 -5.83315 0
M  V30 3171 N 329.616 1.39756 -0.72842 0
M  V30 3172 C 330.564 2.32485 -0.0731849 0
M  V30 3173 C 331.558 1.52717 0.733063 0
M  V30 3174 O 332.764 1.68428 0.634988 0
M  V30 3175 H 329.139 0.751984 -0.00486469 0
M  V30 3176 H 331.11 2.85382 -0.871761 0
M  V30 3177 C 329.859 3.37773 0.824908 0
M  V30 3178 H 329.182 3.99227 0.213915 0
M  V30 3179 H 330.622 4.05121 1.25111 0
M  V30 3180 C 329.081 2.74287 1.95622 0
M  V30 3181 O 329.611 2.61618 3.04826 0
M  V30 3182 N 327.817 2.32475 1.74367 0
M  V30 3183 H 327.364 2.4298 0.855494 0
M  V30 3184 H 327.322 1.90337 2.50238 0
M  V30 3185 N 331.094 0.475555 1.50254 0
M  V30 3186 C 332.042 -0.330276 2.30243 0
M  V30 3187 C 333.036 -0.986306 1.37726 0
M  V30 3188 O 334.242 -0.9169 1.54897 0
M  V30 3189 H 330.617 -0.125353 0.741479 0
M  V30 3190 H 332.588 0.364702 2.96163 0
M  V30 3191 C 331.337 -1.39704 3.18399 0
M  V30 3192 H 330.66 -0.901621 3.89501 0
M  V30 3193 H 332.1 -1.93336 3.77355 0
M  V30 3194 C 330.559 -2.4014 2.36293 0
M  V30 3195 O 331.089 -3.45504 2.04914 0
M  V30 3196 N 329.295 -2.1197 1.98789 0
M  V30 3197 H 328.842 -1.2631 2.24507 0
M  V30 3198 H 328.8 -2.79403 1.44157 0
M  V30 3199 N 332.573 -1.56217 0.208337 0
M  V30 3200 C 333.503 -2.22694 -0.702116 0
M  V30 3201 C 334.484 -1.19432 -1.2112 0
M  V30 3202 O 335.669 -1.47978 -1.25762 0
M  V30 3203 C 332.799 -2.8966 -1.9161 0
M  V30 3204 C 331.753 -3.9928 -1.5414 0
M  V30 3205 C 331.079 -4.53476 -2.83308 0
M  V30 3206 C 332.379 -5.17012 -0.741339 0
M  V30 3207 H 334.073 -2.99034 -0.147898 0
M  V30 3208 H 331.619 -1.43831 -0.0696951 0
M  V30 3209 H 333.572 -3.34852 -2.55836 0
M  V30 3210 H 332.296 -2.10746 -2.49507 0
M  V30 3211 H 330.955 -3.54799 -0.922668 0
M  V30 3212 H 330.603 -3.71308 -3.39322 0
M  V30 3213 H 330.303 -5.27451 -2.58976 0
M  V30 3214 H 331.827 -5.01378 -3.485 0
M  V30 3215 H 333.241 -5.58667 -1.28699 0
M  V30 3216 H 331.638 -5.97137 -0.595627 0
M  V30 3217 H 332.708 -4.8423 0.254851 0
M  V30 3218 N 334.051 0.0651679 -1.57465 0
M  V30 3219 C 335.467 0.420105 -1.53972 0
M  V30 3220 C 335.667 1.78782 -0.929474 0
M  V30 3221 O 334.723 2.46771 -0.534839 0
M  V30 3222 C 336.036 0.355084 -2.98596 0
M  V30 3223 C 337.584 0.434792 -3.09965 0
M  V30 3224 C 338.059 0.399609 -4.56253 0
M  V30 3225 N 339.55 0.459488 -4.60915 0
M  V30 3226 C 340.285 0.454584 -5.71595 0
M  V30 3227 N 339.781 0.404102 -6.9162 0
M  V30 3228 N 341.574 0.501635 -5.59857 0
M  V30 3229 H 333.725 -0.830328 -1.95498 0
M  V30 3230 H 335.988 -0.312244 -0.895102 0
M  V30 3231 H 335.694 -0.583357 -3.46828 0
M  V30 3232 H 335.568 1.16275 -3.58831 0
M  V30 3233 H 337.955 1.36366 -2.61703 0
M  V30 3234 H 338.036 -0.40157 -2.52628 0
M  V30 3235 H 337.68 -0.525436 -5.05175 0
M  V30 3236 H 337.61 1.25359 -5.11461 0
M  V30 3237 H 340.101 0.502482 -3.74544 0
M  V30 3238 H 340.414 0.404468 -7.71741 0
M  V30 3239 H 338.759 0.37069 -6.94011 0
M  V30 3240 H 341.95 0.538812 -4.64989 0
M  V30 3241 H 342.123 0.494345 -6.46112 0
M  V30 3242 N 335.529 1.53961 0.336706 0
M  V30 3243 C 336.945 1.44378 0.680241 0
M  V30 3244 C 337.145 0.606034 1.9217 0
M  V30 3245 O 336.201 0.099688 2.52303 0
M  V30 3246 C 337.514 2.87945 0.8665 0
M  V30 3247 C 339.062 2.97763 0.964682 0
M  V30 3248 C 339.537 4.42453 1.18321 0
M  V30 3249 N 341.028 4.46008 1.25025 0
M  V30 3250 C 341.763 5.55102 1.43697 0
M  V30 3251 N 341.259 6.7419 1.59498 0
M  V30 3252 N 343.052 5.42727 1.463 0
M  V30 3253 H 335.203 2.06918 -0.479455 0
M  V30 3254 H 337.466 0.935634 -0.152619 0
M  V30 3255 H 337.172 3.51691 0.0256937 0
M  V30 3256 H 337.046 3.33293 1.76623 0
M  V30 3257 H 339.433 2.34153 1.796 0
M  V30 3258 H 339.514 2.55766 0.041708 0
M  V30 3259 H 339.158 5.06645 0.356788 0
M  V30 3260 H 339.088 4.82048 2.11985 0
M  V30 3261 H 341.579 3.60196 1.14312 0
M  V30 3262 H 341.892 7.53095 1.734 0
M  V30 3263 H 340.237 6.77123 1.56621 0
M  V30 3264 H 343.428 4.48647 1.33543 0
M  V30 3265 H 343.601 6.27806 1.6051 0
M  V30 3266 N 337.007 -0.598083 1.45811 0
M  V30 3267 C 337.939 -1.72231 1.51225 0
M  V30 3268 C 338.952 -1.57757 0.402059 0
M  V30 3269 O 340.141 -1.65464 0.669624 0
M  V30 3270 C 337.241 -3.10331 1.3619 0
M  V30 3271 C 336.414 -3.50955 2.61054 0
M  V30 3272 C 335.473 -4.68055 2.40439 0
M  V30 3273 O 334.499 -4.74691 3.14097 0
M  V30 3274 N 335.701 -5.61941 1.45612 0
M  V30 3275 H 338.466 -1.68046 2.48154 0
M  V30 3276 H 336.027 -0.783637 1.41671 0
M  V30 3277 H 338.019 -3.86439 1.20195 0
M  V30 3278 H 336.589 -3.0897 0.475015 0
M  V30 3279 H 335.809 -2.64711 2.92099 0
M  V30 3280 H 337.097 -3.74858 3.44034 0
M  V30 3281 H 336.495 -5.59301 0.848431 0
M  V30 3282 H 335.052 -6.37542 1.35585 0
M  V30 3283 N 338.485 -1.33259 -0.841409 0
M  V30 3284 C 339.415 -1.25926 -1.96634 0
M  V30 3285 C 340.396 -0.140349 -1.6952 0
M  V30 3286 O 341.581 -0.329707 -1.91381 0
M  V30 3287 C 338.711 -0.99512 -3.32738 0
M  V30 3288 C 337.665 -2.0767 -3.74242 0
M  V30 3289 C 336.991 -1.66474 -5.08125 0
M  V30 3290 C 338.291 -3.49318 -3.88297 0
M  V30 3291 H 339.985 -2.20046 -2.03027 0
M  V30 3292 H 337.531 -1.05931 -0.975425 0
M  V30 3293 H 339.484 -0.930323 -4.11002 0
M  V30 3294 H 338.208 -0.0183004 -3.26595 0
M  V30 3295 H 336.867 -2.13187 -2.98239 0
M  V30 3296 H 336.515 -0.675012 -4.9845 0
M  V30 3297 H 336.215 -2.3885 -5.36865 0
M  V30 3298 H 337.739 -1.61455 -5.88867 0
M  V30 3299 H 339.153 -3.46316 -4.56879 0
M  V30 3300 H 337.55 -4.20158 -4.28471 0
M  V30 3301 H 338.62 -3.8801 -2.9082 0
M  V30 3302 N 339.963 1.05934 -1.16686 0
M  V30 3303 C 341.24 1.75643 -0.860747 0
M  V30 3304 C 341.62 2.01144 0.640641 0
M  V30 3305 O 340.968 1.64147 1.58959 0
M  V30 3306 C 341.178 3.05493 -1.68745 0
M  V30 3307 C 342.526 3.79581 -1.90271 0
M  V30 3308 O 343.55 3.15344 -1.65641 0
M  V30 3309 O 342.409 4.9499 -2.31618 0
M  V30 3310 H 339.503 0.763426 -0.317977 0
M  V30 3311 H 342.049 1.1217 -1.27342 0
M  V30 3312 H 340.821 2.8264 -2.70611 0
M  V30 3313 H 340.444 3.76702 -1.27206 0
M  V30 3314 N 341.441 0.965919 1.2453 0
M  V30 3315 C 342.666 0.643971 1.97149 0
M  V30 3316 C 343.091 -0.779487 1.71189 0
M  V30 3317 O 342.449 -1.5288 0.974553 0
M  V30 3318 C 342.497 0.922557 3.48599 0
M  V30 3319 O 341.601 0.00707672 4.12399 0
M  V30 3320 H 340.942 0.243647 0.617683 0
M  V30 3321 H 343.472 1.29558 1.58353 0
M  V30 3322 H 343.482 0.853373 3.98976 0
M  V30 3323 H 342.157 1.95996 3.66822 0
M  V30 3324 H 340.734 0.12943 3.72675 0
M  V30 3325 N 342.919 -1.39368 0.735821 0
M  V30 3326 C 344.168 -1.99733 0.281004 0
M  V30 3327 C 344.481 -1.59055 -1.13846 0
M  V30 3328 O 345.687 -2.12262 -1.69284 0
M  V30 3329 C 344.143 -3.57057 0.451462 0
M  V30 3330 C 343.751 -4.06697 1.87886 0
M  V30 3331 C 345.495 -4.2446 0.0584616 0
M  V30 3332 C 343.402 -5.56598 1.99883 0
M  V30 3333 H 342.332 -0.747163 0.101311 0
M  V30 3334 H 344.983 -1.59357 0.909819 0
M  V30 3335 H 343.365 -3.95234 -0.246263 0
M  V30 3336 H 344.539 -3.79853 2.60861 0
M  V30 3337 H 342.854 -3.5196 2.22515 0
M  V30 3338 H 345.451 -5.34549 0.127099 0
M  V30 3339 H 345.794 -4.04444 -0.986433 0
M  V30 3340 H 346.327 -3.9146 0.707374 0
M  V30 3341 H 343.066 -5.81494 3.02564 0
M  V30 3342 H 342.586 -5.85242 1.31346 0
M  V30 3343 H 344.265 -6.22022 1.78039 0
M  V30 3344 N 344.397 -0.483516 -1.5 0
M  V30 3345 C 345.643 0.0672592 -2.02688 0
M  V30 3346 C 345.976 1.38247 -1.36387 0
M  V30 3347 O 345.251 1.88131 -0.493675 0
M  V30 3348 C 345.534 0.238109 -3.59312 0
M  V30 3349 C 345.387 -1.099 -4.36168 0
M  V30 3350 C 346.706 0.986916 -4.28892 0
M  V30 3351 H 343.825 0.0229696 -0.736642 0
M  V30 3352 H 346.467 -0.631527 -1.79197 0
M  V30 3353 H 344.617 0.8333 -3.79458 0
M  V30 3354 H 346.289 -1.73172 -4.27562 0
M  V30 3355 H 344.532 -1.69261 -3.99416 0
M  V30 3356 H 345.203 -0.932954 -5.44059 0
M  V30 3357 H 347.679 0.482302 -4.13295 0
M  V30 3358 H 346.555 1.07527 -5.38265 0
M  V30 3359 H 346.816 2.0265 -3.92919 0
M  V30 3360 N 345.875 1.56104 -0.216619 0
M  V30 3361 C 347.123 1.97781 0.415593 0
M  V30 3362 C 347.444 1.10536 1.60645 0
M  V30 3363 O 346.714 0.181303 1.95059 0
M  V30 3364 H 345.294 0.730415 0.156534 0
M  V30 3365 H 347.956 1.92445 -0.308366 0
M  V30 3366 H 347.052 3.03072 0.74525 0
M  V30 3367 N 347.353 -0.0568162 1.57498 0
M  V30 3368 C 348.263 -1.08346 2.08083 0
M  V30 3369 C 349.279 -1.41439 1.01346 0
M  V30 3370 O 350.455 -1.51316 1.32912 0
M  V30 3371 C 347.52 -2.37352 2.52715 0
M  V30 3372 C 346.581 -2.11093 3.73816 0
M  V30 3373 C 345.814 -3.33949 4.1631 0
M  V30 3374 O 346.037 -4.43622 3.58547 0
M  V30 3375 O 344.971 -3.21279 5.08983 0
M  V30 3376 H 348.797 -0.683667 2.95905 0
M  V30 3377 H 346.382 -0.271965 1.46904 0
M  V30 3378 H 348.264 -3.13246 2.81877 0
M  V30 3379 H 346.939 -2.76681 1.68016 0
M  V30 3380 H 345.846 -1.32856 3.49714 0
M  V30 3381 H 347.179 -1.76637 4.59413 0
M  V30 3382 N 348.832 -1.54138 -0.328536 0
M  V30 3383 C 350.248 -1.44736 -0.672574 0
M  V30 3384 C 350.448 -0.616217 -1.91846 0
M  V30 3385 O 349.504 -0.113067 -2.52247 0
M  V30 3386 C 350.817 -2.884 -0.851217 0
M  V30 3387 C 352.365 -2.98271 -0.948877 0
M  V30 3388 C 352.84 -4.43074 -1.15973 0
M  V30 3389 N 354.331 -4.46665 -1.22658 0
M  V30 3390 C 355.066 -5.55857 -1.40751 0
M  V30 3391 N 354.562 -6.75026 -1.5592 0
M  V30 3392 N 356.355 -5.43495 -1.4342 0
M  V30 3393 H 348.506 -2.06661 0.490421 0
M  V30 3394 H 350.769 -0.934812 0.157579 0
M  V30 3395 H 350.475 -3.51699 -0.00704236 0
M  V30 3396 H 350.349 -3.34225 -1.74853 0
M  V30 3397 H 352.736 -2.35102 -1.78356 0
M  V30 3398 H 352.817 -2.55785 -0.0281435 0
M  V30 3399 H 352.461 -5.06827 -0.329915 0
M  V30 3400 H 352.391 -4.83165 -2.09426 0
M  V30 3401 H 354.882 -3.60797 -1.124 0
M  V30 3402 H 355.195 -7.54004 -1.69404 0
M  V30 3403 H 353.54 -6.77944 -1.53027 0
M  V30 3404 H 356.731 -4.49349 -1.31162 0
M  V30 3405 H 356.904 -6.28649 -1.57178 0
M  V30 3406 N 350.31 0.590341 -1.46126 0
M  V30 3407 C 351.558 1.34616 -1.50742 0
M  V30 3408 C 351.879 1.94363 -0.157486 0
M  V30 3409 O 351.149 1.78136 0.815136 0
M  V30 3410 H 349.729 0.499789 -0.555175 0
M  V30 3411 H 352.391 0.691953 -1.82203 0
M  V30 3412 H 351.487 2.15678 -2.25587 0
M  V30 3413 N 351.788 1.33704 0.83433 0
M  V30 3414 C 353.204 1.13137 1.12571 0
M  V30 3415 C 353.404 -0.0747261 2.01361 0
M  V30 3416 O 352.46 -0.753647 2.4099 0
M  V30 3417 C 353.773 2.42105 1.78342 0
M  V30 3418 C 355.321 2.48054 1.90888 0
M  V30 3419 C 355.796 3.76995 2.60075 0
M  V30 3420 N 357.287 3.78092 2.67584 0
M  V30 3421 C 358.022 4.74574 3.21818 0
M  V30 3422 N 357.518 5.81434 3.76705 0
M  V30 3423 N 359.311 4.62044 3.20112 0
M  V30 3424 H 351.462 2.11 0.243489 0
M  V30 3425 H 353.725 0.932532 0.17055 0
M  V30 3426 H 353.431 3.30391 1.20561 0
M  V30 3427 H 353.305 2.54594 2.7832 0
M  V30 3428 H 355.692 1.60215 2.47821 0
M  V30 3429 H 355.773 2.39502 0.898459 0
M  V30 3430 H 355.417 4.65219 2.03799 0
M  V30 3431 H 355.347 3.82825 3.61597 0
M  V30 3432 H 357.838 3.00865 2.28667 0
M  V30 3433 H 358.151 6.51084 4.16305 0
M  V30 3434 H 356.496 5.85163 3.7498 0
M  V30 3435 H 359.687 3.77716 2.76493 0
M  V30 3436 H 359.86 5.37406 3.62076 0
M  V30 3437 N 353.266 -1.05314 1.17247 0
M  V30 3438 C 354.196 -2.1498 0.911362 0
M  V30 3439 C 355.177 -1.69471 -0.146169 0
M  V30 3440 O 356.362 -1.942 0.003812 0
M  V30 3441 C 353.492 -3.4472 0.422528 0
M  V30 3442 C 352.446 -4.03789 1.4191 0
M  V30 3443 C 351.772 -5.28858 0.788274 0
M  V30 3444 C 353.072 -4.41418 2.7919 0
M  V30 3445 H 354.766 -2.3708 1.82848 0
M  V30 3446 H 352.312 -1.13938 0.880569 0
M  V30 3447 H 354.265 -4.20787 0.227289 0
M  V30 3448 H 352.989 -3.22269 -0.530123 0
M  V30 3449 H 351.648 -3.2979 1.60106 0
M  V30 3450 H 351.296 -5.02709 -0.171173 0
M  V30 3451 H 350.996 -5.69338 1.45353 0
M  V30 3452 H 352.52 -6.07612 0.603282 0
M  V30 3453 H 353.934 -5.08524 2.64719 0
M  V30 3454 H 352.331 -4.92913 3.42282 0
M  V30 3455 H 353.401 -3.51819 3.33693 0
M  V30 3456 N 354.744 -0.972509 -1.24016 0
M  V30 3457 C 356.021 -0.553733 -1.87598 0
M  V30 3458 C 356.401 0.969158 -1.87538 0
M  V30 3459 O 355.749 1.84255 -1.35139 0
M  V30 3460 C 355.959 -1.15076 -3.29482 0
M  V30 3461 C 357.307 -1.23862 -4.06132 0
M  V30 3462 O 358.331 -1.10363 -3.38672 0
M  V30 3463 O 357.19 -1.45252 -5.26844 0
M  V30 3464 H 354.284 -0.185331 -0.805966 0
M  V30 3465 H 356.83 -1.06709 -1.31952 0
M  V30 3466 H 355.602 -2.19333 -3.2405 0
M  V30 3467 H 355.225 -0.621746 -3.92709 0
M  V30 3468 N 356.222 1.38976 -0.743202 0
M  V30 3469 C 357.447 2.05161 -0.303936 0
M  V30 3470 C 357.872 1.55677 1.05576 0
M  V30 3471 O 357.23 0.704131 1.67068 0
M  V30 3472 C 357.278 3.59138 -0.324373 0
M  V30 3473 O 356.382 4.06668 0.685204 0
M  V30 3474 H 355.723 0.649815 -0.136518 0
M  V30 3475 H 358.253 1.77852 -1.01142 0
M  V30 3476 H 358.263 4.07639 -0.171618 0
M  V30 3477 H 356.938 3.94515 -1.31647 0
M  V30 3478 H 355.515 3.69561 0.497913 0
M  V30 3479 N 357.7 0.491464 1.49741 0
M  V30 3480 C 358.61 -0.296835 2.32715 0
M  V30 3481 C 359.626 -0.976536 1.44013 0
M  V30 3482 O 360.802 -0.960023 1.77047 0
M  V30 3483 C 357.867 -1.35288 3.19215 0
M  V30 3484 C 356.928 -0.687632 4.23757 0
M  V30 3485 C 356.161 -1.69336 5.06123 0
M  V30 3486 O 356.384 -2.92219 4.89861 0
M  V30 3487 O 355.318 -1.25394 5.88693 0
M  V30 3488 H 359.144 0.382048 3.01287 0
M  V30 3489 H 356.729 0.252953 1.47243 0
M  V30 3490 H 358.611 -1.96411 3.72828 0
M  V30 3491 H 357.286 -2.01487 2.53347 0
M  V30 3492 H 356.193 -0.0369159 3.74082 0
M  V30 3493 H 357.526 -0.0682566 4.92153 0
M  V30 3494 N 359.178 -1.55987 0.224894 0
M  V30 3495 C 360.108 -2.23426 -0.678457 0
M  V30 3496 C 361.089 -1.20709 -1.19847 0
M  V30 3497 O 362.274 -1.49304 -1.24186 0
M  V30 3498 C 359.404 -2.91676 -1.88527 0
M  V30 3499 C 358.358 -4.00893 -1.49896 0
M  V30 3500 C 357.684 -4.56455 -2.78483 0
M  V30 3501 C 358.984 -5.17769 -0.686461 0
M  V30 3502 H 360.678 -2.99175 -0.116173 0
M  V30 3503 H 358.224 -1.43897 -0.054436 0
M  V30 3504 H 360.177 -3.37547 -2.5227 0
M  V30 3505 H 358.901 -2.1338 -2.47258 0
M  V30 3506 H 357.56 -3.55758 -0.884985 0
M  V30 3507 H 357.208 -3.74886 -3.35365 0
M  V30 3508 H 356.908 -5.30169 -2.53368 0
M  V30 3509 H 358.432 -5.05047 -3.43162 0
M  V30 3510 H 359.846 -5.60001 -1.22767 0
M  V30 3511 H 358.243 -5.97735 -0.532259 0
M  V30 3512 H 359.313 -4.83932 0.306196 0
M  V30 3513 N 360.656 0.0484629 -1.57525 0
M  V30 3514 C 362.072 0.40375 -1.54409 0
M  V30 3515 C 362.272 1.77786 -0.948384 0
M  V30 3516 O 361.328 2.46189 -0.560983 0
M  V30 3517 C 362.641 0.323394 -2.98956 0
M  V30 3518 C 364.189 0.401892 -3.10409 0
M  V30 3519 C 364.664 0.351195 -4.56652 0
M  V30 3520 N 366.155 0.410576 -4.61377 0
M  V30 3521 C 366.89 0.393933 -5.72045 0
M  V30 3522 N 366.386 0.330724 -6.9201 0
M  V30 3523 N 368.179 0.442227 -5.60358 0
M  V30 3524 H 360.33 -0.851016 -1.94606 0
M  V30 3525 H 362.593 -0.321721 -0.89174 0
M  V30 3526 H 362.299 -0.62011 -3.4619 0
M  V30 3527 H 362.173 1.12463 -3.60044 0
M  V30 3528 H 364.56 1.33582 -2.63134 0
M  V30 3529 H 364.641 -0.428342 -2.52188 0
M  V30 3530 H 364.285 -0.578987 -5.04589 0
M  V30 3531 H 364.215 1.19928 -5.12762 0
M  V30 3532 H 366.706 0.462729 -3.75056 0
M  V30 3533 H 367.019 0.322592 -7.72126 0
M  V30 3534 H 365.364 0.29706 -6.94365 0
M  V30 3535 H 368.555 0.489464 -4.65534 0
M  V30 3536 H 368.728 0.425788 -6.466 0
M  V30 3537 N 362.134 1.5431 0.320358 0
M  V30 3538 C 363.082 1.84647 1.4145 0
M  V30 3539 C 364.076 0.718624 1.53402 0
M  V30 3540 O 365.282 0.902335 1.5575 0
M  V30 3541 H 361.657 0.585349 0.472091 0
M  V30 3542 H 363.628 2.7614 1.13089 0
M  V30 3543 C 362.377 2.09341 2.77617 0
M  V30 3544 H 361.7 2.9559 2.69196 0
M  V30 3545 H 363.14 2.3452 3.53237 0
M  V30 3546 C 361.599 0.885939 3.25043 0
M  V30 3547 O 362.129 0.0967891 4.01583 0
M  V30 3548 N 360.335 0.696682 2.82125 0
M  V30 3549 H 359.882 1.34006 2.2 0
M  V30 3550 H 359.84 -0.109712 3.14209 0
M  V30 3551 N 363.613 -0.582584 1.46437 0
M  V30 3552 C 364.546 -1.70633 1.51524 0
M  V30 3553 C 365.524 -1.58349 0.369351 0
M  V30 3554 O 366.708 -1.79563 0.573516 0
M  V30 3555 C 363.835 -3.08687 1.39392 0
M  V30 3556 C 362.881 -3.3949 2.58164 0
M  V30 3557 S 363.714 -3.31548 4.20519 0
M  V30 3558 C 364.87 -4.72139 4.10896 0
M  V30 3559 H 365.103 -1.66058 2.46601 0
M  V30 3560 H 362.636 -0.761337 1.34324 0
M  V30 3561 H 364.594 -3.8833 1.33079 0
M  V30 3562 H 363.255 -3.10751 0.457436 0
M  V30 3563 H 362.448 -4.40071 2.45669 0
M  V30 3564 H 362.05 -2.67415 2.61468 0
M  V30 3565 H 364.342 -5.62527 3.77584 0
M  V30 3566 H 365.285 -4.89692 5.11476 0
M  V30 3567 H 365.693 -4.48995 3.42146 0
M  V30 3568 N 365.091 -1.34144 -0.827227 0
M  V30 3569 C 366.023 -1.21206 -1.9453 0
M  V30 3570 C 367.036 -0.140176 -1.62195 0
M  V30 3571 O 368.225 -0.391647 -1.7415 0
M  V30 3572 C 365.325 -0.839141 -3.28347 0
M  V30 3573 C 364.498 -2.0051 -3.88734 0
M  V30 3574 C 363.557 -1.61128 -5.00923 0
M  V30 3575 O 362.583 -2.32726 -5.19449 0
M  V30 3576 N 363.785 -0.522958 -5.7814 0
M  V30 3577 H 366.55 -2.17525 -2.06162 0
M  V30 3578 H 364.111 -1.27043 -1.00358 0
M  V30 3579 H 366.103 -0.557556 -4.00841 0
M  V30 3580 H 364.673 0.0337293 -3.12582 0
M  V30 3581 H 363.893 -2.45166 -3.08686 0
M  V30 3582 H 365.181 -2.78498 -4.25812 0
M  V30 3583 H 364.579 0.0723518 -5.65654 0
M  V30 3584 H 363.136 -0.301089 -6.51104 0
M  V30 3585 N 366.569 1.04691 -1.17803 0
M  V30 3586 C 367.846 1.7472 -0.879328 0
M  V30 3587 C 368.226 2.01812 0.619271 0
M  V30 3588 O 367.574 1.65824 1.57209 0
M  V30 3589 C 367.784 3.03686 -1.71976 0
M  V30 3590 C 369.132 3.77542 -1.94286 0
M  V30 3591 O 370.156 3.13569 -1.68976 0
M  V30 3592 O 369.015 4.92506 -2.36855 0
M  V30 3593 H 366.109 0.760011 -0.326056 0
M  V30 3594 H 368.655 1.10813 -1.28525 0
M  V30 3595 H 367.427 2.79754 -2.73594 0
M  V30 3596 H 367.05 3.75332 -1.31194 0
M  V30 3597 N 368.047 0.979072 1.23499 0
M  V30 3598 C 368.977 0.537606 2.27227 0
M  V30 3599 C 369.958 -0.428539 1.64613 0
M  V30 3600 O 371.143 -0.322191 1.91509 0
M  V30 3601 C 368.273 -0.162052 3.46922 0
M  V30 3602 C 367.227 0.721242 4.21879 0
M  V30 3603 C 366.553 -0.110555 5.34586 0
M  V30 3604 C 367.853 2.01141 4.82016 0
M  V30 3605 H 369.547 1.40462 2.64406 0
M  V30 3606 H 367.093 0.67684 1.27102 0
M  V30 3607 H 369.046 -0.482192 4.18632 0
M  V30 3608 H 367.77 -1.06351 3.08799 0
M  V30 3609 H 366.429 1.02482 3.51984 0
M  V30 3610 H 366.077 -1.0125 4.92704 0
M  V30 3611 H 365.777 0.477325 5.85658 0
M  V30 3612 H 367.301 -0.425107 6.09118 0
M  V30 3613 H 368.715 1.75612 5.45741 0
M  V30 3614 H 367.112 2.54695 5.43369 0
M  V30 3615 H 368.182 2.69909 4.02836 0
M  V30 3616 N 369.525 -1.3858 0.750561 0
M  V30 3617 C 370.771 -2.00481 0.305825 0
M  V30 3618 C 371.104 -1.5944 -1.10872 0
M  V30 3619 O 370.379 -0.83052 -1.75877 0
M  V30 3620 C 370.662 -3.5758 0.425287 0
M  V30 3621 C 370.515 -4.08594 1.88072 0
M  V30 3622 C 371.834 -4.39719 -0.183122 0
M  V30 3623 H 368.953 -0.728348 0.112598 0
M  V30 3624 H 371.595 -1.64566 0.949638 0
M  V30 3625 H 369.745 -3.88306 -0.122828 0
M  V30 3626 H 371.417 -3.88523 2.48691 0
M  V30 3627 H 369.66 -3.61574 2.39681 0
M  V30 3628 H 370.331 -5.177 1.91548 0
M  V30 3629 H 372.807 -4.15128 0.284303 0
M  V30 3630 H 371.683 -5.48856 -0.0692757 0
M  V30 3631 H 371.944 -4.23434 -1.27106 0
M  V30 3632 N 371.003 -0.499398 -1.49478 0
M  V30 3633 C 371.913 0.284489 -2.32869 0
M  V30 3634 C 372.929 0.968885 -1.44529 0
M  V30 3635 O 374.105 0.95062 -1.77553 0
M  V30 3636 C 371.17 1.33594 -3.19928 0
M  V30 3637 C 370.231 0.665149 -4.24116 0
M  V30 3638 C 369.464 1.6665 -5.07014 0
M  V30 3639 O 369.687 2.89618 -4.91404 0
M  V30 3640 O 368.621 1.22271 -5.8935 0
M  V30 3641 H 372.447 -0.39802 -3.01081 0
M  V30 3642 H 370.032 -0.260758 -1.47107 0
M  V30 3643 H 371.914 1.94431 -3.73864 0
M  V30 3644 H 370.589 2.0014 -2.54412 0
M  V30 3645 H 369.496 0.0170769 -3.74096 0
M  V30 3646 H 370.829 0.0421555 -4.92182 0
M  V30 3647 N 372.481 1.55866 -0.233164 0
M  V30 3648 C 373.758 1.90471 0.444988 0
M  V30 3649 C 374.138 1.15209 1.7689 0
M  V30 3650 O 373.486 0.265119 2.26957 0
M  V30 3651 C 373.696 3.4333 0.626559 0
M  V30 3652 C 375.044 4.14319 0.92871 0
M  V30 3653 O 376.068 3.48993 0.712926 0
M  V30 3654 O 374.927 5.29846 1.33887 0
M  V30 3655 H 372.021 0.792347 0.236885 0
M  V30 3656 H 374.567 1.67437 -0.276211 0
M  V30 3657 H 373.339 3.90095 -0.306822 0
M  V30 3658 H 372.962 3.72181 1.39881 0
M  V30 3659 N 373.959 -0.0401083 1.57549 0
M  V30 3660 C 375.206 -0.733125 1.88763 0
M  V30 3661 C 375.534 -1.75946 0.829058 0
M  V30 3662 O 374.789 -1.94949 -0.171323 0
M  V30 3663 C 375.088 -1.44902 3.26708 0
M  V30 3664 C 374.754 -0.559707 4.47413 0
M  V30 3665 C 373.416 -0.314731 4.8017 0
M  V30 3666 C 375.768 0.0549743 5.21171 0
M  V30 3667 C 373.096 0.553886 5.8408 0
M  V30 3668 C 375.448 0.911229 6.26003 0
M  V30 3669 C 374.112 1.16577 6.57241 0
M  V30 3670 H 373.382 -0.268269 0.690733 0
M  V30 3671 H 376.029 0.00679408 1.91499 0
M  V30 3672 H 374.334 -2.26197 3.1991 0
M  V30 3673 H 376.031 -1.99058 3.48105 0
M  V30 3674 H 372.621 -0.760793 4.21794 0
M  V30 3675 H 376.805 -0.121344 4.96152 0
M  V30 3676 H 372.061 0.759518 6.06664 0
M  V30 3677 H 376.235 1.3941 6.82303 0
M  V30 3678 H 373.862 1.84058 7.37582 0
M  V30 3679 N 375.437 -1.54477 -0.31217 0
M  V30 3680 C 376.384 -1.84655 -1.38461 0
M  V30 3681 C 377.354 -0.694536 -1.50882 0
M  V30 3682 O 378.539 -0.942081 -1.6592 0
M  V30 3683 C 375.679 -2.0896 -2.74645 0
M  V30 3684 C 374.792 -3.36618 -2.70763 0
M  V30 3685 C 373.927 -3.50824 -3.98868 0
M  V30 3686 C 372.966 -4.72315 -3.89339 0
M  V30 3687 N 372.103 -4.83387 -5.09197 0
M  V30 3688 H 376.943 -2.76142 -1.12026 0
M  V30 3689 H 374.48 -1.36748 -0.542065 0
M  V30 3690 H 376.438 -2.21045 -3.53829 0
M  V30 3691 H 375.068 -1.20752 -2.99364 0
M  V30 3692 H 374.12 -3.33211 -1.83506 0
M  V30 3693 H 375.432 -4.25917 -2.59608 0
M  V30 3694 H 374.586 -3.62513 -4.86486 0
M  V30 3695 H 373.325 -2.59638 -4.12843 0
M  V30 3696 H 372.33 -4.6067 -3.00105 0
M  V30 3697 H 373.555 -5.64897 -3.76919 0
M  V30 3698 H 371.501 -3.9512 -5.23657 0
M  V30 3699 H 371.418 -5.66669 -5.00422 0
M  V30 3700 H 372.686 -4.9942 -5.98498 0
M  V30 3701 N 376.915 0.57481 -1.46744 0
M  V30 3702 C 377.863 1.70435 -1.58286 0
M  V30 3703 C 378.857 1.63287 -0.450956 0
M  V30 3704 O 380.063 1.68685 -0.628121 0
M  V30 3705 H 376.438 0.56364 -0.497809 0
M  V30 3706 H 378.409 1.57833 -2.53242 0
M  V30 3707 C 377.158 3.08815 -1.59776 0
M  V30 3708 H 376.481 3.1499 -2.46214 0
M  V30 3709 H 377.921 3.87588 -1.71905 0
M  V30 3710 C 376.38 3.35301 -0.327812 0
M  V30 3711 O 376.91 3.97511 0.57861 0
M  V30 3712 N 375.116 2.89816 -0.213274 0
M  V30 3713 H 374.663 2.39371 -0.951798 0
M  V30 3714 H 374.621 3.0791 0.63553 0
M  V30 3715 N 378.394 1.34581 0.820102 0
M  V30 3716 C 379.341 1.2639 1.93117 0
M  V30 3717 C 380.311 0.138554 1.65521 0
M  V30 3718 O 381.496 0.320004 1.88097 0
M  V30 3719 C 378.636 1.02812 3.29429 0
M  V30 3720 C 377.749 2.24146 3.693 0
M  V30 3721 C 376.884 1.93829 4.94574 0
M  V30 3722 C 375.923 3.1129 5.27034 0
M  V30 3723 N 375.06 2.80838 6.43486 0
M  V30 3724 H 379.9 2.21408 1.99455 0
M  V30 3725 H 377.437 1.10077 0.975784 0
M  V30 3726 H 379.395 0.871788 4.0799 0
M  V30 3727 H 378.025 0.114612 3.22596 0
M  V30 3728 H 377.077 2.50691 2.86109 0
M  V30 3729 H 378.389 3.11899 3.89257 0
M  V30 3730 H 377.543 1.74948 5.80929 0
M  V30 3731 H 376.282 1.03341 4.76626 0
M  V30 3732 H 375.287 3.30764 4.39175 0
M  V30 3733 H 376.512 4.02561 5.4692 0
M  V30 3734 H 374.458 1.92929 6.26988 0
M  V30 3735 H 374.375 3.62123 6.63629 0
M  V30 3736 H 375.643 2.65467 7.32903 0
M  V30 3737 N 379.872 -1.04064 1.18357 0
M  V30 3738 C 381.102 -1.80654 1.00238 0
M  V30 3739 C 381.51 -1.83713 -0.452362 0
M  V30 3740 O 380.853 -1.27135 -1.32599 0
M  V30 3741 C 380.915 -3.27582 1.48088 0
M  V30 3742 C 380.579 -3.48184 2.96002 0
M  V30 3743 C 381.576 -3.39372 3.93856 0
M  V30 3744 C 379.261 -3.7478 3.34433 0
M  V30 3745 C 381.255 -3.5686 5.28138 0
M  V30 3746 C 378.942 -3.91915 4.68877 0
M  V30 3747 C 379.94 -3.82956 5.65539 0
M  V30 3748 O 379.628 -3.996 6.97549 0
M  V30 3749 H 379.36 -0.575751 0.354241 0
M  V30 3750 H 381.914 -1.32044 1.57333 0
M  V30 3751 H 380.144 -3.77161 0.853588 0
M  V30 3752 H 381.833 -3.8573 1.2636 0
M  V30 3753 H 382.599 -3.18789 3.65511 0
M  V30 3754 H 378.478 -3.80852 2.59756 0
M  V30 3755 H 382.022 -3.49783 6.03571 0
M  V30 3756 H 377.919 -4.11992 4.96923 0
M  V30 3757 H 378.687 -4.1676 7.04452 0
M  V30 3758 N 381.35 -0.985608 -1.22978 0
M  V30 3759 C 382.26 -0.538548 -2.28335 0
M  V30 3760 C 383.276 0.409163 -1.69121 0
M  V30 3761 O 384.452 0.277797 -1.99475 0
M  V30 3762 C 381.517 0.146867 -3.46389 0
M  V30 3763 C 380.578 -0.842896 -4.20944 0
M  V30 3764 C 379.811 -0.190095 -5.33361 0
M  V30 3765 O 380.034 1.01767 -5.61248 0
M  V30 3766 O 378.968 -0.891289 -5.95264 0
M  V30 3767 H 382.794 -1.41487 -2.68729 0
M  V30 3768 H 380.379 -0.753495 -1.29007 0
M  V30 3769 H 382.261 0.531125 -4.1804 0
M  V30 3770 H 380.936 0.997871 -3.07935 0
M  V30 3771 H 379.843 -1.27795 -3.51595 0
M  V30 3772 H 381.176 -1.66287 -4.6326 0
M  V30 3773 N 382.828 1.3818 -0.7579 0
M  V30 3774 C 384.105 1.94106 -0.241306 0
M  V30 3775 C 384.485 1.69282 1.26122 0
M  V30 3776 O 383.833 1.03378 2.03777 0
M  V30 3777 C 384.043 3.43809 -0.59967 0
M  V30 3778 C 385.391 4.20868 -0.561717 0
M  V30 3779 O 386.415 3.5211 -0.538222 0
M  V30 3780 O 385.274 5.43451 -0.576478 0
M  V30 3781 H 382.368 0.825376 -0.0518042 0
M  V30 3782 H 384.914 1.47548 -0.838315 0
M  V30 3783 H 383.686 3.55403 -1.6372 0
M  V30 3784 H 383.309 3.97592 0.0251197 0
M  V30 3785 N 384.306 0.507319 1.49211 0
M  V30 3786 C 385.216 -0.272136 2.33016 0
M  V30 3787 C 386.232 -0.961206 1.45041 0
M  V30 3788 O 387.408 -0.941191 1.78055 0
M  V30 3789 C 384.473 -1.31895 3.20631 0
M  V30 3790 C 383.534 -0.642648 4.24463 0
M  V30 3791 C 382.767 -1.63959 5.07891 0
M  V30 3792 O 382.99 -2.87007 4.92933 0
M  V30 3793 O 381.924 -1.19143 5.8999 0
M  V30 3794 H 385.75 0.413982 3.00865 0
M  V30 3795 H 383.335 0.268556 1.46966 0
M  V30 3796 H 385.217 -1.92446 3.7489 0
M  V30 3797 H 383.892 -1.98788 2.5547 0
M  V30 3798 H 382.799 0.00276252 3.741 0
M  V30 3799 H 384.132 -0.0160534 4.92197 0
M  V30 3800 N 385.784 -1.5574 0.241426 0
M  V30 3801 C 387.033 -1.97986 -0.385295 0
M  V30 3802 C 387.346 -1.13267 -1.59468 0
M  V30 3803 O 388.552 -1.45501 -2.2922 0
M  V30 3804 C 387.008 -3.52275 -0.736884 0
M  V30 3805 C 386.616 -4.45726 0.450796 0
M  V30 3806 C 388.36 -4.03189 -1.3281 0
M  V30 3807 C 386.267 -5.91352 0.0756662 0
M  V30 3808 H 385.197 -0.739386 -0.147731 0
M  V30 3809 H 387.848 -1.80308 0.340779 0
M  V30 3810 H 386.23 -3.65628 -1.52094 0
M  V30 3811 H 387.404 -4.44131 1.22819 0
M  V30 3812 H 385.719 -4.05264 0.956573 0
M  V30 3813 H 388.316 -5.09505 -1.62201 0
M  V30 3814 H 388.659 -3.50212 -2.25071 0
M  V30 3815 H 389.192 -3.93141 -0.607069 0
M  V30 3816 H 385.931 -6.48354 0.965272 0
M  V30 3817 H 385.451 -5.96095 -0.665635 0
M  V30 3818 H 387.13 -6.46084 -0.344075 0
M  V30 3819 N 387.262 0.0317525 -1.57568 0
M  V30 3820 C 388.21 1.05165 -2.07468 0
M  V30 3821 C 389.204 1.3761 -0.98792 0
M  V30 3822 O 390.41 1.36546 -1.17282 0
M  V30 3823 H 386.785 0.35666 -0.66204 0
M  V30 3824 H 388.756 0.604958 -2.92203 0
M  V30 3825 C 387.505 2.34488 -2.56731 0
M  V30 3826 H 386.828 2.10383 -3.39969 0
M  V30 3827 H 388.268 3.04203 -2.95358 0
M  V30 3828 C 386.727 3.03266 -1.46736 0
M  V30 3829 O 387.257 3.92988 -0.832069 0
M  V30 3830 N 385.463 2.6455 -1.20256 0
M  V30 3831 H 385.01 1.91674 -1.72102 0
M  V30 3832 H 384.968 3.10886 -0.468737 0
M  V30 3833 N 388.74 1.54641 0.303973 0
M  V30 3834 C 389.687 1.85386 1.37479 0
M  V30 3835 C 390.657 0.702528 1.50512 0
M  V30 3836 O 391.842 0.950867 1.65418 0
M  V30 3837 C 388.982 2.10413 2.73533 0
M  V30 3838 C 388.095 3.38049 2.68974 0
M  V30 3839 C 387.23 3.52934 3.97002 0
M  V30 3840 C 386.269 4.74373 3.86829 0
M  V30 3841 N 385.406 4.8608 5.06627 0
M  V30 3842 H 390.246 2.76732 1.1056 0
M  V30 3843 H 387.783 1.37034 0.534805 0
M  V30 3844 H 389.741 2.22919 3.52652 0
M  V30 3845 H 388.371 1.22338 2.98719 0
M  V30 3846 H 387.423 3.3418 1.81736 0
M  V30 3847 H 388.735 4.27288 2.57346 0
M  V30 3848 H 387.889 3.65088 4.84557 0
M  V30 3849 H 386.628 2.61824 4.1146 0
M  V30 3850 H 385.633 4.62255 2.97658 0
M  V30 3851 H 386.858 5.66888 3.73918 0
M  V30 3852 H 384.804 3.97891 5.21554 0
M  V30 3853 H 384.721 5.69315 4.9741 0
M  V30 3854 H 385.989 5.02587 5.95841 0
M  V30 3855 N 390.218 -0.567019 1.47046 0
M  V30 3856 C 391.634 -0.891975 1.32348 0
M  V30 3857 C 391.834 -1.99154 0.306616 0
M  V30 3858 O 390.89 -2.50883 -0.28532 0
M  V30 3859 C 392.203 -1.29449 2.7141 0
M  V30 3860 C 393.751 -1.40646 2.79621 0
M  V30 3861 C 394.226 -1.84257 4.19301 0
M  V30 3862 N 395.717 -1.91424 4.21795 0
M  V30 3863 C 396.452 -2.26476 5.26779 0
M  V30 3864 N 395.948 -2.60211 6.42077 0
M  V30 3865 N 397.741 -2.27166 5.14152 0
M  V30 3866 H 389.892 0.159074 2.11803 0
M  V30 3867 H 392.155 0.00849752 0.947962 0
M  V30 3868 H 391.861 -0.560448 3.47206 0
M  V30 3869 H 391.735 -2.25273 3.02542 0
M  V30 3870 H 394.122 -2.13133 2.04104 0
M  V30 3871 H 394.203 -0.430339 2.52154 0
M  V30 3872 H 393.847 -1.12343 4.95319 0
M  V30 3873 H 393.777 -2.82855 4.44185 0
M  V30 3874 H 396.268 -1.6778 3.38612 0
M  V30 3875 H 396.581 -2.85956 7.17948 0
M  V30 3876 H 394.926 -2.57813 6.45413 0
M  V30 3877 H 398.117 -2.00244 4.23107 0
M  V30 3878 H 398.29 -2.54154 5.96079 0
M  V30 3879 N 391.696 -1.35014 -0.812953 0
M  V30 3880 C 392.924 -1.31031 -1.6012 0
M  V30 3881 C 393.339 0.113558 -1.88458 0
M  V30 3882 O 392.696 1.06363 -1.48301 0
M  V30 3883 C 392.747 -2.10872 -2.93624 0
M  V30 3884 O 392.468 -3.47706 -2.66518 0
M  V30 3885 C 393.969 -2.14401 -3.88004 0
M  V30 3886 H 391.189 -0.45037 -0.497401 0
M  V30 3887 H 393.733 -1.77775 -1.01076 0
M  V30 3888 H 391.888 -1.67744 -3.492 0
M  V30 3889 H 392.302 -3.89097 -3.51715 0
M  V30 3890 H 393.776 -2.74669 -4.78812 0
M  V30 3891 H 394.253 -1.14105 -4.24119 0
M  V30 3892 H 394.859 -2.57662 -3.38364 0
M  V30 3893 N 393.175 1.03435 -1.18907 0
M  V30 3894 C 394.403 1.80381 -1.01342 0
M  V30 3895 C 394.818 1.83649 0.438005 0
M  V30 3896 O 394.175 1.27655 1.30424 0
M  V30 3897 C 394.226 3.25689 -1.56873 0
M  V30 3898 O 393.947 3.22673 -2.96334 0
M  V30 3899 C 395.448 4.19255 -1.44014 0
M  V30 3900 H 392.668 0.56784 -0.35749 0
M  V30 3901 H 395.212 1.30317 -1.576 0
M  V30 3902 H 393.367 3.72962 -1.04777 0
M  V30 3903 H 393.781 4.13748 -3.22355 0
M  V30 3904 H 395.255 5.19123 -1.87657 0
M  V30 3905 H 395.732 4.37467 -0.389815 0
M  V30 3906 H 396.338 3.77851 -1.95214 0
M  V30 3907 N 394.653 0.992116 1.22453 0
M  V30 3908 C 395.616 0.546883 2.2258 0
M  V30 3909 C 396.616 -0.369829 1.56489 0
M  V30 3910 O 397.806 -0.161896 1.73446 0
M  V30 3911 C 394.938 -0.204659 3.40285 0
M  V30 3912 H 396.131 1.43234 2.63484 0
M  V30 3913 H 393.684 0.779239 1.3549 0
M  V30 3914 H 394.419 -1.10614 3.04853 0
M  V30 3915 H 394.204 0.45354 3.89468 0
M  V30 3916 H 395.694 -0.504358 4.14543 0
M  V30 3917 N 396.131 -1.37776 0.765217 0
M  V30 3918 C 397.041 -2.34135 0.147666 0
M  V30 3919 C 398.057 -1.59854 -0.687215 0
M  V30 3920 O 399.233 -1.91983 -0.608659 0
M  V30 3921 C 396.298 -3.3901 -0.72617 0
M  V30 3922 C 395.359 -4.2912 0.124417 0
M  V30 3923 C 394.592 -5.28986 -0.707807 0
M  V30 3924 O 394.815 -5.36205 -1.94525 0
M  V30 3925 O 393.749 -6.01779 -0.12046 0
M  V30 3926 H 397.575 -2.88664 0.943758 0
M  V30 3927 H 395.16 -1.39824 0.526277 0
M  V30 3928 H 397.042 -4.03195 -1.22524 0
M  V30 3929 H 395.717 -2.86819 -1.50056 0
M  V30 3930 H 394.624 -3.68057 0.669696 0
M  V30 3931 H 395.957 -4.84598 0.861736 0
M  V30 3932 N 397.609 -0.515225 -1.4894 0
M  V30 3933 C 398.557 0.269115 -2.31038 0
M  V30 3934 C 399.551 0.949443 -1.40292 0
M  V30 3935 O 400.757 0.87551 -1.57273 0
M  V30 3936 H 397.132 0.10565 -0.744542 0
M  V30 3937 H 399.103 -0.443096 -2.95092 0
M  V30 3938 C 397.852 1.31213 -3.21991 0
M  V30 3939 H 397.175 0.798034 -3.91754 0
M  V30 3940 H 398.615 1.83263 -3.82349 0
M  V30 3941 C 397.074 2.33791 -2.42576 0
M  V30 3942 O 397.604 3.3995 -2.14003 0
M  V30 3943 N 395.81 2.06625 -2.0434 0
M  V30 3944 H 395.357 1.20314 -2.27777 0
M  V30 3945 H 395.315 2.75483 -1.51514 0
M  V30 3946 N 399.087 1.5561 -0.249682 0
M  V30 3947 C 399.997 2.25143 0.659375 0
M  V30 3948 C 401.013 1.2685 1.19101 0
M  V30 3949 O 402.189 1.59732 1.22669 0
M  V30 3950 C 399.254 2.93945 1.8384 0
M  V30 3951 C 398.315 4.07655 1.34596 0
M  V30 3952 C 397.548 4.73167 2.46878 0
M  V30 3953 O 397.771 4.37768 3.65671 0
M  V30 3954 O 396.705 5.61623 2.16478 0
M  V30 3955 H 400.531 3.03545 0.0968698 0
M  V30 3956 H 398.116 1.49389 -0.018074 0
M  V30 3957 H 399.998 3.37271 2.52638 0
M  V30 3958 H 398.673 2.18481 2.38847 0
M  V30 3959 H 397.58 3.68839 0.625174 0
M  V30 3960 H 398.913 4.84946 0.841941 0
M  V30 3961 N 400.565 -0.0233959 1.57583 0
M  V30 3962 C 401.812 -0.713063 1.8953 0
M  V30 3963 C 402.14 -1.75056 0.847673 0
M  V30 3964 O 401.395 -1.95119 -0.150636 0
M  V30 3965 C 401.694 -1.41428 3.28227 0
M  V30 3966 C 401.36 -0.512222 4.47981 0
M  V30 3967 C 400.022 -0.263785 4.80476 0
M  V30 3968 C 402.374 0.110248 5.21083 0
M  V30 3969 C 399.702 0.615804 5.83459 0
M  V30 3970 C 402.054 0.977573 6.25001 0
M  V30 3971 C 400.718 1.23542 6.55968 0
M  V30 3972 H 399.988 -0.260928 0.69354 0
M  V30 3973 H 402.635 0.0271047 1.91481 0
M  V30 3974 H 400.94 -2.22791 3.22291 0
M  V30 3975 H 402.637 -1.95355 3.50196 0
M  V30 3976 H 399.227 -0.716013 4.22577 0
M  V30 3977 H 403.411 -0.0687137 4.96252 0
M  V30 3978 H 398.667 0.82382 6.05824 0
M  V30 3979 H 402.841 1.46638 6.80786 0
M  V30 3980 H 400.468 1.91871 7.35588 0
M  V30 3981 N 402.043 -1.548 -0.295768 0
M  V30 3982 C 403.289 -1.74588 -1.03184 0
M  V30 3983 C 403.622 -0.532962 -1.86744 0
M  V30 3984 O 402.897 0.469872 -1.88739 0
M  V30 3985 C 403.18 -3.03791 -1.93347 0
M  V30 3986 C 403.033 -4.35392 -1.12933 0
M  V30 3987 C 404.352 -3.28892 -2.92435 0
M  V30 3988 H 401.471 -0.635221 -0.373715 0
M  V30 3989 H 404.113 -1.87519 -0.30606 0
M  V30 3990 H 402.263 -2.92898 -2.55232 0
M  V30 3991 H 403.935 -4.58211 -0.532943 0
M  V30 3992 H 402.178 -4.31642 -0.432168 0
M  V30 3993 H 402.849 -5.22074 -1.79284 0
M  V30 3994 H 405.325 -3.39429 -2.4068 0
M  V30 3995 H 404.201 -4.20603 -3.52682 0
M  V30 3996 H 404.462 -2.47437 -3.6637 0
M  V30 3997 N 403.521 0.559213 -1.47345 0
M  V30 3998 C 404.454 1.68201 -1.5422 0
M  V30 3999 C 405.432 1.57742 -0.394497 0
M  V30 4000 O 406.616 1.78628 -0.60201 0
M  V30 4001 C 403.743 3.0643 -1.44285 0
M  V30 4002 C 402.789 3.3534 -2.63532 0
M  V30 4003 S 403.622 3.24816 -4.25741 0
M  V30 4004 C 404.778 4.65542 -4.18355 0
M  V30 4005 H 405.011 1.62114 -2.49211 0
M  V30 4006 H 402.544 0.739871 -1.35519 0
M  V30 4007 H 404.502 3.86164 -1.3924 0
M  V30 4008 H 403.163 3.09984 -0.506816 0
M  V30 4009 H 402.356 4.36107 -2.52639 0
M  V30 4010 H 401.958 2.63221 -2.65689 0
M  V30 4011 H 404.25 5.56449 -3.86485 0
M  V30 4012 H 405.193 4.81493 -5.19202 0
M  V30 4013 H 405.601 4.43495 -3.49246 0
M  V30 4014 N 404.999 1.35443 0.805782 0
M  V30 4015 C 405.929 1.31095 1.93226 0
M  V30 4016 C 406.91 0.185244 1.69088 0
M  V30 4017 O 408.095 0.380332 1.90439 0
M  V30 4018 C 405.225 1.08299 3.29983 0
M  V30 4019 C 404.179 2.17519 3.68605 0
M  V30 4020 C 403.505 1.79887 5.03532 0
M  V30 4021 C 404.805 3.5949 3.78898 0
M  V30 4022 H 406.499 2.25352 1.97122 0
M  V30 4023 H 404.045 1.0848 0.946996 0
M  V30 4024 H 405.998 1.03897 4.08391 0
M  V30 4025 H 404.722 0.104885 3.26432 0
M  V30 4026 H 403.381 2.2102 2.92482 0
M  V30 4027 H 403.029 0.80693 4.96485 0
M  V30 4028 H 402.729 2.53001 5.30344 0
M  V30 4029 H 404.253 1.77011 5.84379 0
M  V30 4030 H 405.667 3.58307 4.47536 0
M  V30 4031 H 404.064 4.31371 4.1718 0
M  V30 4032 H 405.134 3.95584 2.80431 0
M  V30 4033 N 406.477 -1.02803 1.19454 0
M  V30 4034 C 407.424 -2.11099 0.933046 0
M  V30 4035 C 408.394 -1.65571 -0.132447 0
M  V30 4036 O 409.579 -1.90797 0.00987576 0
M  V30 4037 C 406.719 -3.41763 0.478747 0
M  V30 4038 C 405.832 -4.00833 1.6111 0
M  V30 4039 C 404.967 -5.19511 1.10825 0
M  V30 4040 C 404.006 -5.70639 2.21445 0
M  V30 4041 N 403.143 -6.80589 1.72461 0
M  V30 4042 H 407.983 -2.32804 1.86028 0
M  V30 4043 H 405.52 -1.14179 0.927441 0
M  V30 4044 H 407.478 -4.16736 0.196745 0
M  V30 4045 H 406.108 -3.20166 -0.411493 0
M  V30 4046 H 405.16 -3.23066 2.00829 0
M  V30 4047 H 406.472 -4.34794 2.4445 0
M  V30 4048 H 405.626 -6.01645 0.781533 0
M  V30 4049 H 404.365 -4.87086 0.244606 0
M  V30 4050 H 403.37 -4.87116 2.54947 0
M  V30 4051 H 404.595 -6.05102 3.08267 0
M  V30 4052 H 402.541 -6.50016 0.884056 0
M  V30 4053 H 402.458 -7.13681 2.49389 0
M  V30 4054 H 403.726 -7.66317 1.42755 0
M  V30 4055 N 407.956 -0.998596 -1.21925 0
M  V30 4056 C 408.903 -0.553621 -2.24062 0
M  V30 4057 C 409.873 0.416999 -1.6078 0
M  V30 4058 O 411.058 0.320482 -1.88089 0
M  V30 4059 C 408.198 0.119959 -3.44891 0
M  V30 4060 C 407.311 -0.893077 -4.22668 0
M  V30 4061 C 406.446 -0.192424 -5.30851 0
M  V30 4062 C 405.485 -1.19344 -6.00353 0
M  V30 4063 N 404.622 -0.520707 -7.00166 0
M  V30 4064 H 409.462 -1.4293 -2.61486 0
M  V30 4065 H 406.999 -0.715838 -1.28507 0
M  V30 4066 H 408.957 0.527459 -4.13852 0
M  V30 4067 H 407.587 0.959389 -3.08214 0
M  V30 4068 H 406.639 -1.41886 -3.52948 0
M  V30 4069 H 407.951 -1.65512 -4.70539 0
M  V30 4070 H 407.105 0.271515 -6.06092 0
M  V30 4071 H 405.844 0.602075 -4.83969 0
M  V30 4072 H 404.849 -1.66795 -5.23889 0
M  V30 4073 H 406.074 -1.98891 -6.49322 0
M  V30 4074 H 404.02 0.254252 -6.55507 0
M  V30 4075 H 403.937 -1.2211 -7.46073 0
M  V30 4076 H 405.205 -0.0797596 -7.79459 0
M  V30 4077 N 409.434 1.37368 -0.772513 0
M  V30 4078 C 410.711 1.93839 -0.26188 0
M  V30 4079 C 411.091 1.7061 1.24319 0
M  V30 4080 O 410.439 1.05534 2.02669 0
M  V30 4081 C 410.649 3.43154 -0.636102 0
M  V30 4082 C 411.997 4.20249 -0.606324 0
M  V30 4083 O 413.021 3.5152 -0.575538 0
M  V30 4084 O 411.88 5.42809 -0.634086 0
M  V30 4085 H 408.974 0.82478 -0.0605555 0
M  V30 4086 H 411.52 1.4665 -0.853917 0
M  V30 4087 H 410.292 3.53647 -1.6748 0
M  V30 4088 H 409.915 3.97596 -0.0170516 0
M  V30 4089 N 410.912 0.523116 1.48665 0
M  V30 4090 C 412.158 -0.0134963 2.02796 0
M  V30 4091 C 412.491 -1.34582 1.40004 0
M  V30 4092 O 411.766 -1.86756 0.543381 0
M  V30 4093 C 412.049 -0.14276 3.59817 0
M  V30 4094 C 411.902 1.21425 4.331 0
M  V30 4095 C 413.221 -0.872856 4.31357 0
M  V30 4096 H 410.34 -0.00343074 0.736992 0
M  V30 4097 H 412.982 0.678816 1.7746 0
M  V30 4098 H 411.132 -0.732401 3.81534 0
M  V30 4099 H 412.804 1.84447 4.2282 0
M  V30 4100 H 411.047 1.79791 3.94788 0
M  V30 4101 H 411.718 1.07687 5.41394 0
M  V30 4102 H 414.194 -0.372555 4.14429 0
M  V30 4103 H 413.07 -0.932185 5.40927 0
M  V30 4104 H 413.331 -1.92161 3.98154 0
M  V30 4105 N 412.39 -1.55475 0.257931 0
M  V30 4106 C 413.667 -1.91155 -0.414629 0
M  V30 4107 C 414.047 -1.18008 -1.75035 0
M  V30 4108 O 413.395 -0.301193 -2.26506 0
M  V30 4109 C 413.605 -3.44283 -0.571859 0
M  V30 4110 C 414.953 -4.15744 -0.862678 0
M  V30 4111 O 415.977 -3.50083 -0.657314 0
M  V30 4112 O 414.836 -5.31909 -1.2544 0
M  V30 4113 H 411.93 -0.796016 -0.22425 0
M  V30 4114 H 414.476 -1.66976 0.302814 0
M  V30 4115 H 413.248 -3.89558 0.368844 0
M  V30 4116 H 412.871 -3.7436 -1.33943 0
M  V30 4117 N 413.868 0.0150385 -1.57593 0
M  V30 4118 C 414.831 0.995996 -2.06428 0
M  V30 4119 C 415.831 1.2818 -0.970903 0
M  V30 4120 O 417.021 1.22949 -1.23406 0
M  V30 4121 C 414.153 2.32506 -2.49307 0
M  V30 4122 H 415.346 0.573873 -2.94358 0
M  V30 4123 H 412.899 0.262186 -1.54085 0
M  V30 4124 H 413.634 2.79438 -1.64575 0
M  V30 4125 H 413.419 2.13087 -3.29145 0
M  V30 4126 H 414.909 3.02906 -2.87468 0
M  V30 4127 N 415.346 1.54954 0.287554 0
M  V30 4128 C 416.309 1.86076 1.33823 0
M  V30 4129 C 417.309 0.734414 1.43049 0
M  V30 4130 O 418.499 1.00266 1.42452 0
M  V30 4131 C 415.631 2.05305 2.72144 0
M  V30 4132 H 416.824 2.79984 1.07465 0
M  V30 4133 H 414.377 1.47223 0.524902 0
M  V30 4134 H 415.112 1.1373 3.03704 0
M  V30 4135 H 414.897 2.873 2.66836 0
M  V30 4136 H 416.387 2.30706 3.48087 0
M  V30 4137 N 416.824 -0.551391 1.4764 0
M  V30 4138 C 418.054 -1.33163 1.57959 0
M  V30 4139 C 418.462 -1.87785 0.23094 0
M  V30 4140 O 417.805 -1.65996 -0.786825 0
M  V30 4141 C 417.867 -2.53449 2.54958 0
M  V30 4142 C 417.531 -2.20071 4.00522 0
M  V30 4143 C 418.528 -1.77017 4.88836 0
M  V30 4144 C 416.213 -2.31252 4.45901 0
M  V30 4145 C 418.207 -1.4558 6.20552 0
M  V30 4146 C 415.894 -1.99427 5.77644 0
M  V30 4147 C 416.892 -1.56659 6.64791 0
M  V30 4148 O 416.58 -1.25242 7.94084 0
M  V30 4149 H 416.312 -0.412022 0.535923 0
M  V30 4150 H 418.866 -0.674186 1.9402 0
M  V30 4151 H 417.096 -3.22104 2.13976 0
M  V30 4152 H 418.785 -3.15523 2.55343 0
M  V30 4153 H 419.551 -1.67867 4.55023 0
M  V30 4154 H 415.43 -2.63498 3.78272 0
M  V30 4155 H 418.974 -1.12125 6.8853 0
M  V30 4156 H 414.871 -2.08211 6.10998 0
M  V30 4157 H 415.639 -1.38822 8.06642 0
M  V30 4158 N 418.302 -1.35869 -0.798587 0
M  V30 4159 C 419.235 -1.23801 -1.91699 0
M  V30 4160 C 420.213 -0.124143 -1.62125 0
M  V30 4161 O 421.397 -0.293656 -1.86199 0
M  V30 4162 C 418.524 -0.908063 -3.263 0
M  V30 4163 C 417.57 -2.0351 -3.74815 0
M  V30 4164 S 418.403 -3.65183 -3.91665 0
M  V30 4165 C 419.559 -3.34283 -5.29156 0
M  V30 4166 H 419.792 -2.18466 -2.01643 0
M  V30 4167 H 417.325 -1.21178 -0.956833 0
M  V30 4168 H 419.283 -0.724506 -4.04056 0
M  V30 4169 H 417.944 0.0206584 -3.14093 0
M  V30 4170 H 417.137 -1.75858 -4.72324 0
M  V30 4171 H 416.739 -2.1774 -3.04081 0
M  V30 4172 H 419.031 -2.87607 -6.13424 0
M  V30 4173 H 419.974 -4.31022 -5.61806 0
M  V30 4174 H 420.382 -2.69854 -4.95822 0
M  V30 4175 N 419.78 1.02168 -1.19998 0
M  V30 4176 C 420.728 2.12717 -0.940967 0
M  V30 4177 C 421.722 1.69069 0.105841 0
M  V30 4178 O 422.928 1.79946 -0.0440583 0
M  V30 4179 H 419.303 0.695108 -0.28693 0
M  V30 4180 H 421.274 2.3175 -1.87975 0
M  V30 4181 C 420.023 3.44027 -0.504049 0
M  V30 4182 H 419.346 3.78036 -1.30112 0
M  V30 4183 H 420.786 4.22452 -0.361991 0
M  V30 4184 C 419.245 3.27678 0.782878 0
M  V30 4185 O 419.775 3.56949 1.84256 0
M  V30 4186 N 417.981 2.80943 0.742921 0
M  V30 4187 H 417.528 2.57322 -0.119687 0
M  V30 4188 H 417.486 2.70385 1.60435 0
M  V30 4189 N 421.258 1.00505 1.21394 0
M  V30 4190 C 422.205 0.565496 2.23765 0
M  V30 4191 C 423.175 -0.408466 1.60999 0
M  V30 4192 O 424.36 -0.310503 1.88257 0
M  V30 4193 C 421.5 -0.101667 3.4495 0
M  V30 4194 C 420.613 0.915479 4.22188 0
M  V30 4195 C 419.748 0.220574 5.30742 0
M  V30 4196 C 418.787 1.22527 5.99711 0
M  V30 4197 N 417.924 0.557831 6.9988 0
M  V30 4198 H 422.764 1.44314 2.60725 0
M  V30 4199 H 420.301 0.722643 1.28126 0
M  V30 4200 H 422.259 -0.505504 4.14126 0
M  V30 4201 H 420.889 -0.94303 3.08718 0
M  V30 4202 H 419.941 1.43756 3.52191 0
M  V30 4203 H 421.253 1.68005 4.69655 0
M  V30 4204 H 420.407 -0.239368 6.06228 0
M  V30 4205 H 419.146 -0.576401 4.84282 0
M  V30 4206 H 418.151 1.69571 5.22997 0
M  V30 4207 H 419.376 2.02332 6.48258 0
M  V30 4208 H 417.322 -0.219486 6.55633 0
M  V30 4209 H 417.239 1.26065 7.45415 0
M  V30 4210 H 418.507 0.121095 7.79406 0
M  V30 4211 N 422.737 -1.36956 0.779787 0
M  V30 4212 C 423.983 -1.99787 0.348281 0
M  V30 4213 C 424.316 -1.61756 -1.07465 0
M  V30 4214 O 423.591 -0.867639 -1.74075 0
M  V30 4215 C 423.874 -3.56597 0.50104 0
M  V30 4216 C 423.727 -4.04513 1.96697 0
M  V30 4217 C 425.046 -4.40008 -0.0898097 0
M  V30 4218 H 422.165 -0.725796 0.128022 0
M  V30 4219 H 424.807 -1.62514 0.984331 0
M  V30 4220 H 422.957 -3.88479 -0.0404347 0
M  V30 4221 H 424.629 -3.83161 2.56876 0
M  V30 4222 H 422.872 -3.56408 2.47297 0
M  V30 4223 H 423.543 -5.1352 2.02486 0
M  V30 4224 H 426.019 -4.14431 0.372293 0
M  V30 4225 H 424.895 -5.4888 0.0471605 0
M  V30 4226 H 425.156 -4.26035 -1.18096 0
M  V30 4227 N 424.215 -0.530993 -1.48385 0
M  V30 4228 C 425.125 0.23503 -2.3342 0
M  V30 4229 C 426.141 0.93801 -1.46552 0
M  V30 4230 O 427.317 0.912745 -1.7953 0
M  V30 4231 C 424.382 1.26778 -3.22689 0
M  V30 4232 C 423.443 0.575038 -4.25431 0
M  V30 4233 C 422.676 1.55858 -5.10435 0
M  V30 4234 O 422.899 2.79129 -4.97437 0
M  V30 4235 O 421.833 1.09742 -5.91811 0
M  V30 4236 H 425.659 -0.461794 -3.00169 0
M  V30 4237 H 423.244 -0.291903 -1.46521 0
M  V30 4238 H 425.126 1.86457 -3.77904 0
M  V30 4239 H 423.801 1.94699 -2.586 0
M  V30 4240 H 422.708 -0.0622782 -3.74048 0
M  V30 4241 H 424.041 -0.062253 -4.92161 0
M  V30 4242 N 425.693 1.55336 -0.266172 0
M  V30 4243 C 426.623 2.25146 0.618981 0
M  V30 4244 C 427.604 1.23845 1.16604 0
M  V30 4245 O 428.789 1.52544 1.20183 0
M  V30 4246 C 425.919 2.96572 1.80728 0
M  V30 4247 C 424.873 4.04726 1.39215 0
M  V30 4248 C 424.199 4.63678 2.66283 0
M  V30 4249 C 425.499 5.19407 0.548942 0
M  V30 4250 H 427.193 2.99377 0.0368116 0
M  V30 4251 H 424.739 1.43991 0.0162651 0
M  V30 4252 H 426.692 3.44116 2.43232 0
M  V30 4253 H 425.416 2.19861 2.41514 0
M  V30 4254 H 424.075 3.57979 0.790351 0
M  V30 4255 H 423.723 3.83646 3.25308 0
M  V30 4256 H 423.423 5.367 2.39222 0
M  V30 4257 H 424.947 5.13967 3.29651 0
M  V30 4258 H 426.361 5.63059 1.07876 0
M  V30 4259 H 424.758 5.98936 0.373593 0
M  V30 4260 H 425.828 4.8295 -0.434394 0
M  V30 4261 N 427.171 -0.0066808 1.57599 0
M  V30 4262 C 428.081 -1.01671 2.11424 0
M  V30 4263 C 429.097 -1.38143 1.05795 0
M  V30 4264 O 430.273 -1.47011 1.37658 0
M  V30 4265 C 427.338 -2.29192 2.60139 0
M  V30 4266 C 426.399 -1.99094 3.80342 0
M  V30 4267 C 425.632 -3.20535 4.26724 0
M  V30 4268 O 425.855 -4.3199 3.72479 0
M  V30 4269 O 424.789 -3.04924 5.18946 0
M  V30 4270 H 428.615 -0.589181 2.9793 0
M  V30 4271 H 426.2 -0.225091 1.47695 0
M  V30 4272 H 428.082 -3.0412 2.917 0
M  V30 4273 H 426.757 -2.71195 1.76733 0
M  V30 4274 H 425.664 -1.21663 3.53764 0
M  V30 4275 H 426.997 -1.61931 4.648 0
M  V30 4276 N 428.649 -1.55105 -0.279332 0
M  V30 4277 C 429.612 -1.86783 -1.32834 0
M  V30 4278 C 430.612 -0.74199 -1.42657 0
M  V30 4279 O 431.802 -1.0102 -1.41918 0
M  V30 4280 C 428.934 -2.06746 -2.71052 0
M  V30 4281 H 430.127 -2.8055 -1.05979 0
M  V30 4282 H 427.68 -1.47499 -0.517087 0
M  V30 4283 H 428.415 -1.15339 -3.03097 0
M  V30 4284 H 428.2 -2.88711 -2.65309 0
M  V30 4285 H 429.69 -2.32549 -3.46858 0
M  V30 4286 N 430.127 0.543554 -1.4793 0
M  V30 4287 C 431.074 1.64942 -1.6144 0
M  V30 4288 C 432.044 1.59692 -0.456903 0
M  V30 4289 O 433.229 1.78321 -0.678688 0
M  V30 4290 C 430.369 3.03238 -1.64744 0
M  V30 4291 C 429.482 3.18823 -2.91506 0
M  V30 4292 C 428.617 4.47599 -2.86057 0
M  V30 4293 C 427.656 4.56664 -4.07584 0
M  V30 4294 N 426.793 5.76811 -4.00292 0
M  V30 4295 H 431.633 1.52733 -2.55884 0
M  V30 4296 H 429.17 0.7438 -1.2691 0
M  V30 4297 H 431.128 3.83339 -1.64641 0
M  V30 4298 H 429.758 3.1425 -0.738017 0
M  V30 4299 H 428.81 2.32064 -3.01414 0
M  V30 4300 H 430.122 3.21384 -3.81463 0
M  V30 4301 H 429.276 5.35975 -2.84281 0
M  V30 4302 H 428.015 4.47538 -1.93807 0
M  V30 4303 H 427.02 3.66697 -4.09651 0
M  V30 4304 H 428.245 4.58474 -5.00978 0
M  V30 4305 H 426.191 5.77673 -3.10853 0
M  V30 4306 H 426.108 5.80808 -4.8394 0
M  V30 4307 H 427.376 6.67512 -4.02553 0
M  V30 4308 N 431.605 1.3629 0.791371 0
M  V30 4309 C 432.851 1.30605 1.55146 0
M  V30 4310 C 433.184 -0.115042 1.93859 0
M  V30 4311 O 432.459 -1.06798 1.62556 0
M  V30 4312 C 432.742 2.22692 2.82985 0
M  V30 4313 C 432.595 3.73489 2.50651 0
M  V30 4314 C 433.914 2.13588 3.84796 0
M  V30 4315 H 431.033 0.475761 0.562868 0
M  V30 4316 H 433.675 1.66825 0.909358 0
M  V30 4317 H 431.825 1.91933 3.37778 0
M  V30 4318 H 433.497 4.14758 2.01924 0
M  V30 4319 H 431.74 3.93021 1.83622 0
M  V30 4320 H 432.411 4.3333 3.41949 0
M  V30 4321 H 434.887 2.40659 3.39445 0
M  V30 4322 H 433.763 2.80195 4.71998 0
M  V30 4323 H 434.024 1.12256 4.27611 0
M  V30 4324 N 433.083 -1.0153 1.20538 0
M  V30 4325 C 434.36 -1.72327 0.925343 0
M  V30 4326 C 434.74 -2.03383 -0.565547 0
M  V30 4327 O 434.088 -1.69934 -1.52757 0
M  V30 4328 C 434.298 -2.9902 1.79967 0
M  V30 4329 C 435.646 -3.72258 2.04228 0
M  V30 4330 O 436.67 -3.08979 1.77231 0
M  V30 4331 O 435.529 -4.86053 2.4983 0
M  V30 4332 H 432.623 -0.751099 0.346092 0
M  V30 4333 H 435.169 -1.07366 1.31417 0
M  V30 4334 H 433.941 -2.72402 2.80915 0
M  V30 4335 H 433.564 -3.71721 1.41099 0
M  V30 4336 N 434.561 -1.01147 -1.20859 0
M  V30 4337 C 435.524 -0.582224 -2.21682 0
M  V30 4338 C 436.524 0.344887 -1.57058 0
M  V30 4339 O 437.714 0.134281 -1.73682 0
M  V30 4340 C 434.846 0.150496 -3.40568 0
M  V30 4341 H 436.039 -1.47408 -2.61172 0
M  V30 4342 H 433.592 -0.800695 -1.34233 0
M  V30 4343 H 434.327 1.0575 -3.06574 0
M  V30 4344 H 434.112 -0.515444 -3.88697 0
M  V30 4345 H 435.602 0.438344 -4.15293 0
M  V30 4346 N 436.039 1.36541 -0.78704 0
M  V30 4347 C 436.969 2.32659 -0.197992 0
M  V30 4348 C 437.95 1.56533 0.665697 0
M  V30 4349 O 439.135 1.84698 0.60001 0
M  V30 4350 C 436.265 3.40778 0.669901 0
M  V30 4351 C 435.219 4.27897 -0.0937039 0
M  V30 4352 C 434.545 5.27163 0.894629 0
M  V30 4353 C 435.845 5.06334 -1.28154 0
M  V30 4354 H 437.539 2.82171 -1.00099 0
M  V30 4355 H 435.085 1.35665 -0.482793 0
M  V30 4356 H 437.038 4.07008 1.09191 0
M  V30 4357 H 435.762 2.89827 1.50558 0
M  V30 4358 H 434.421 3.6322 -0.49666 0
M  V30 4359 H 434.069 4.72486 1.72527 0
M  V30 4360 H 433.769 5.86317 0.388149 0
M  V30 4361 H 435.293 5.96266 1.31525 0
M  V30 4362 H 436.707 5.65617 -0.93541 0
M  V30 4363 H 435.104 5.74888 -1.72115 0
M  V30 4364 H 436.174 4.38114 -2.07807 0
M  V30 4365 N 437.518 0.538854 1.48102 0
M  V30 4366 C 438.451 -0.266495 2.26639 0
M  V30 4367 C 439.429 -0.93687 1.32897 0
M  V30 4368 O 440.613 -0.959507 1.62252 0
M  V30 4369 C 437.74 -1.37814 3.09394 0
M  V30 4370 C 436.786 -0.818247 4.18577 0
M  V30 4371 S 437.619 0.320848 5.34538 0
M  V30 4372 C 438.775 -0.793059 6.20855 0
M  V30 4373 H 439.008 0.399994 2.94597 0
M  V30 4374 H 436.541 0.324808 1.50945 0
M  V30 4375 H 438.499 -2.01488 3.57649 0
M  V30 4376 H 437.16 -2.01639 2.40833 0
M  V30 4377 H 436.353 -1.65247 4.7614 0
M  V30 4378 H 435.955 -0.258036 3.73109 0
M  V30 4379 H 438.247 -1.68961 6.56093 0
M  V30 4380 H 439.19 -0.255204 7.0764 0
M  V30 4381 H 439.598 -1.07746 5.54122 0
M  V30 4382 N 438.996 -1.55193 0.274407 0
M  V30 4383 C 440.273 -1.91584 -0.394331 0
M  V30 4384 C 440.653 -1.19858 -1.73774 0
M  V30 4385 O 440.001 -0.3252 -2.26174 0
M  V30 4386 C 440.211 -3.4487 -0.535311 0
M  V30 4387 C 441.559 -4.16636 -0.818534 0
M  V30 4388 O 442.583 -3.5076 -0.620146 0
M  V30 4389 O 441.442 -5.33209 -1.19792 0
M  V30 4390 H 438.536 -0.798349 -0.215794 0
M  V30 4391 H 441.082 -1.66646 0.320507 0
M  V30 4392 H 439.854 -3.89145 0.410141 0
M  V30 4393 H 439.477 -3.75759 -1.29964 0
M  V30 4394 N 440.474 -0.00167713 -1.576 0
M  V30 4395 C 441.384 1.00548 -2.1196 0
M  V30 4396 C 442.4 1.3758 -1.06526 0
M  V30 4397 O 443.576 1.46278 -1.38436 0
M  V30 4398 C 440.641 2.27809 -2.6135 0
M  V30 4399 C 439.702 1.97074 -3.81393 0
M  V30 4400 C 438.935 3.18267 -4.28417 0
M  V30 4401 O 439.158 4.30009 -3.74765 0
M  V30 4402 O 438.092 3.02167 -5.20556 0
M  V30 4403 H 441.918 0.573373 -2.98238 0
M  V30 4404 H 439.503 0.217255 -1.47812 0
M  V30 4405 H 441.385 3.02568 -2.93309 0
M  V30 4406 H 440.06 2.70254 -1.78169 0
M  V30 4407 H 438.967 1.19785 -3.54404 0
M  V30 4408 H 440.3 1.59464 -4.65652 0
M  V30 4409 N 441.952 1.55251 0.271103 0
M  V30 4410 C 443.201 1.75151 1.00025 0
M  V30 4411 C 443.514 0.561041 1.87381 0
M  V30 4412 O 444.72 0.642506 2.63788 0
M  V30 4413 C 443.176 3.09999 1.82835 0
M  V30 4414 C 442.784 4.3662 1.00336 0
M  V30 4415 C 444.528 3.39249 2.55168 0
M  V30 4416 C 442.435 5.62506 1.82595 0
M  V30 4417 H 441.365 0.652877 0.377183 0
M  V30 4418 H 444.016 1.81708 0.255843 0
M  V30 4419 H 442.398 2.97485 2.61378 0
M  V30 4420 H 443.572 4.60055 0.261959 0
M  V30 4421 H 441.887 4.14527 0.394486 0
M  V30 4422 H 444.484 4.3051 3.1712 0
M  V30 4423 H 444.827 2.59467 3.2555 0
M  V30 4424 H 445.36 3.52869 1.83653 0
M  V30 4425 H 442.099 6.45041 1.16631 0
M  V30 4426 H 441.619 5.43211 2.54327 0
M  V30 4427 H 443.298 6.00875 2.39913 0
M  V30 4428 N 443.43 -0.535701 1.48216 0
M  V30 4429 C 444.378 -1.66179 1.62749 0
M  V30 4430 C 445.372 -1.62034 0.49409 0
M  V30 4431 O 446.578 -1.6696 0.672624 0
M  V30 4432 H 442.953 -0.550244 0.512578 0
M  V30 4433 H 444.924 -1.51063 2.57337 0
M  V30 4434 C 443.673 -3.04471 1.67907 0
M  V30 4435 H 442.996 -3.08351 2.54479 0
M  V30 4436 H 444.436 -3.82894 1.82121 0
M  V30 4437 C 442.895 -3.34314 0.416596 0
M  V30 4438 O 443.425 -3.98905 -0.473014 0
M  V30 4439 N 441.631 -2.89149 0.290038 0
M  V30 4440 H 441.178 -2.36764 1.01493 0
M  V30 4441 H 441.136 -3.09486 -0.55367 0
M  V30 4442 N 444.908 -1.36708 -0.784132 0
M  V30 4443 C 446.155 -1.31231 -1.54222 0
M  V30 4444 C 446.483 0.106864 -1.94206 0
M  V30 4445 O 445.738 1.07734 -1.63376 0
M  V30 4446 C 446.037 -2.18571 -2.82774 0
M  V30 4447 C 445.703 -3.67039 -2.61903 0
M  V30 4448 C 444.365 -4.07503 -2.55919 0
M  V30 4449 C 446.717 -4.61149 -2.4288 0
M  V30 4450 C 444.045 -5.40211 -2.28886 0
M  V30 4451 C 446.397 -5.94081 -2.17373 0
M  V30 4452 C 445.061 -6.33664 -2.09825 0
M  V30 4453 H 444.331 -0.48021 -0.56434 0
M  V30 4454 H 446.978 -1.68807 -0.904233 0
M  V30 4455 H 445.283 -1.73949 -3.51068 0
M  V30 4456 H 446.98 -2.11655 -3.40592 0
M  V30 4457 H 443.57 -3.34941 -2.67418 0
M  V30 4458 H 447.754 -4.30756 -2.46501 0
M  V30 4459 H 443.01 -5.69855 -2.21529 0
M  V30 4460 H 447.184 -6.66566 -2.01649 0
M  V30 4461 H 444.811 -7.36423 -1.88641 0
M  V30 4462 N 446.386 1.0089 -1.21074 0
M  V30 4463 C 447.319 2.09279 -0.909806 0
M  V30 4464 C 448.297 1.61986 0.141145 0
M  V30 4465 O 449.481 1.88495 0.0130332 0
M  V30 4466 C 446.608 3.36723 -0.365374 0
M  V30 4467 C 445.654 4.02919 -1.39852 0
M  V30 4468 S 446.487 4.45835 -2.96633 0
M  V30 4469 C 447.643 5.76471 -2.43786 0
M  V30 4470 H 447.876 2.34484 -1.82769 0
M  V30 4471 H 445.409 1.14115 -1.04006 0
M  V30 4472 H 447.367 4.10459 -0.0578203 0
M  V30 4473 H 446.028 3.09577 0.531136 0
M  V30 4474 H 445.221 4.94634 -0.967117 0
M  V30 4475 H 444.823 3.35441 -1.65395 0
M  V30 4476 H 447.115 6.52027 -1.84029 0
M  V30 4477 H 448.058 6.24418 -3.33928 0
M  V30 4478 H 448.466 5.33104 -1.85636 0
M  V30 4479 N 447.864 1.01787 1.20321 0
M  V30 4480 C 448.811 0.589197 2.23153 0
M  V30 4481 C 449.781 -0.391367 1.61423 0
M  V30 4482 O 450.966 -0.290518 1.88575 0
M  V30 4483 C 448.106 -0.0650747 3.45039 0
M  V30 4484 C 447.219 0.960207 4.21194 0
M  V30 4485 C 446.354 0.276854 5.30478 0
M  V30 4486 C 445.393 1.2888 5.98378 0
M  V30 4487 N 444.53 0.632031 6.99249 0
M  V30 4488 H 449.37 1.47071 2.59179 0
M  V30 4489 H 446.907 0.736192 1.27352 0
M  V30 4490 H 448.865 -0.461552 4.14639 0
M  V30 4491 H 447.495 -0.910233 3.09701 0
M  V30 4492 H 446.547 1.47484 3.50646 0
M  V30 4493 H 447.859 1.72977 4.67847 0
M  V30 4494 H 447.013 -0.175056 6.06447 0
M  V30 4495 H 445.752 -0.525004 4.84866 0
M  V30 4496 H 444.757 1.75109 5.21169 0
M  V30 4497 H 445.982 2.09196 6.46076 0
M  V30 4498 H 443.928 -0.149935 6.55829 0
M  V30 4499 H 443.845 1.33964 7.44036 0
M  V30 4500 H 445.113 0.203755 7.79234 0
M  V30 4501 N 449.342 -1.36122 0.79427 0
M  V30 4502 C 450.275 -2.27759 0.141845 0
M  V30 4503 C 451.253 -1.47471 -0.684921 0
M  V30 4504 O 452.437 -1.76759 -0.654857 0
M  V30 4505 C 449.564 -3.29008 -0.804446 0
M  V30 4506 C 448.61 -4.26459 -0.0588617 0
M  V30 4507 S 449.443 -5.20253 1.26873 0
M  V30 4508 C 450.599 -6.25048 0.326562 0
M  V30 4509 H 450.832 -2.82746 0.918818 0
M  V30 4510 H 448.365 -1.42736 0.588722 0
M  V30 4511 H 450.323 -3.87842 -1.34495 0
M  V30 4512 H 448.984 -2.72924 -1.5547 0
M  V30 4513 H 448.177 -4.97973 -0.777087 0
M  V30 4514 H 447.779 -3.71731 0.411309 0
M  V30 4515 H 450.071 -6.75705 -0.492795 0
M  V30 4516 H 451.014 -7.00852 1.01053 0
M  V30 4517 H 451.422 -5.64454 -0.0722627 0
M  V30 4518 N 450.82 -0.546701 -1.47814 0
M  V30 4519 C 452.067 -0.0187407 -2.02491 0
M  V30 4520 C 452.395 1.32685 -1.42215 0
M  V30 4521 O 451.65 1.87413 -0.563454 0
M  V30 4522 C 451.949 0.134869 -3.57145 0
M  V30 4523 C 451.615 -1.13849 -4.3629 0
M  V30 4524 C 450.277 -1.48743 -4.57634 0
M  V30 4525 C 452.629 -1.98277 -4.82012 0
M  V30 4526 C 449.957 -2.67932 -5.21948 0
M  V30 4527 C 452.309 -3.16659 -5.4764 0
M  V30 4528 C 450.973 -3.51879 -5.67219 0
M  V30 4529 H 450.243 -0.0068577 -0.740968 0
M  V30 4530 H 452.89 -0.716097 -1.77607 0
M  V30 4531 H 451.195 0.915118 -3.80963 0
M  V30 4532 H 452.892 0.558556 -3.97091 0
M  V30 4533 H 449.482 -0.856767 -4.19949 0
M  V30 4534 H 453.666 -1.72628 -4.6531 0
M  V30 4535 H 448.922 -2.95401 -5.35302 0
M  V30 4536 H 453.096 -3.82374 -5.82033 0
M  V30 4537 H 450.723 -4.44331 -6.16825 0
M  V30 4538 N 452.299 1.55045 -0.282633 0
M  V30 4539 C 453.546 1.9976 0.33199 0
M  V30 4540 C 453.874 1.17105 1.55295 0
M  V30 4541 O 453.129 0.230599 1.94337 0
M  V30 4542 C 453.428 3.49422 0.750938 0
M  V30 4543 C 453.094 4.4941 -0.366228 0
M  V30 4544 C 451.756 4.76471 -0.672964 0
M  V30 4545 C 454.108 5.09054 -1.11864 0
M  V30 4546 C 451.436 5.60442 -1.73556 0
M  V30 4547 C 453.788 5.9418 -2.17102 0
M  V30 4548 C 452.452 6.19558 -2.48402 0
M  V30 4549 H 451.722 0.730974 0.121484 0
M  V30 4550 H 454.369 1.8732 -0.39791 0
M  V30 4551 H 452.674 3.59377 1.56063 0
M  V30 4552 H 454.371 3.81432 1.23736 0
M  V30 4553 H 450.961 4.2844 -0.117041 0
M  V30 4554 H 455.145 4.88165 -0.894925 0
M  V30 4555 H 450.401 5.78349 -1.983 0
M  V30 4556 H 454.575 6.39427 -2.75873 0
M  V30 4557 H 452.202 6.84417 -3.30874 0
M  V30 4558 N 453.777 0.010035 1.57597 0
M  V30 4559 C 455.054 -0.710296 1.82248 0
M  V30 4560 C 455.434 -1.91426 0.889911 0
M  V30 4561 O 454.782 -2.28424 -0.0590292 0
M  V30 4562 C 454.992 -1.10655 3.30993 0
M  V30 4563 C 456.34 -1.50621 3.96987 0
M  V30 4564 O 457.364 -1.20007 3.35375 0
M  V30 4565 O 456.223 -2.07587 5.05539 0
M  V30 4566 H 453.317 -0.34673 0.750804 0
M  V30 4567 H 455.863 0.0362578 1.69661 0
M  V30 4568 H 454.635 -0.248826 3.90508 0
M  V30 4569 H 454.258 -1.91189 3.48615 0
M  V30 4570 N 455.255 -1.55392 -0.262866 0
M  V30 4571 C 456.218 -1.88181 -1.30846 0
M  V30 4572 C 457.218 -0.757079 -1.41862 0
M  V30 4573 O 458.408 -1.02519 -1.40838 0
M  V30 4574 C 455.54 -2.09609 -2.68844 0
M  V30 4575 H 456.733 -2.81659 -1.02997 0
M  V30 4576 H 454.286 -1.48039 -0.501414 0
M  V30 4577 H 455.021 -1.18547 -3.01856 0
M  V30 4578 H 454.806 -2.91508 -2.62231 0
M  V30 4579 H 456.296 -2.36215 -3.44372 0
M  V30 4580 N 456.733 0.527833 -1.48498 0
M  V30 4581 C 457.643 1.65907 -1.65867 0
M  V30 4582 C 458.659 1.6537 -0.541192 0
M  V30 4583 O 459.835 1.84282 -0.812534 0
M  V30 4584 C 456.9 3.02364 -1.69637 0
M  V30 4585 C 455.961 3.1374 -2.93028 0
M  V30 4586 C 455.194 4.43688 -2.96609 0
M  V30 4587 O 455.417 5.30913 -2.08538 0
M  V30 4588 O 454.351 4.59475 -3.88802 0
M  V30 4589 H 458.177 1.5419 -2.61647 0
M  V30 4590 H 455.762 0.701163 -1.31924 0
M  V30 4591 H 457.644 3.83515 -1.74625 0
M  V30 4592 H 456.319 3.14401 -0.770312 0
M  V30 4593 H 455.226 2.31877 -2.93571 0
M  V30 4594 H 456.559 3.06621 -3.85026 0
M  V30 4595 N 458.211 1.37122 0.776871 0
M  V30 4596 C 459.141 1.35164 1.90402 0
M  V30 4597 C 460.122 0.221069 1.68657 0
M  V30 4598 O 461.307 0.420642 1.8959 0
M  V30 4599 C 458.437 1.15274 3.27611 0
M  V30 4600 C 457.391 2.25289 3.63908 0
M  V30 4601 C 456.717 1.90527 4.99603 0
M  V30 4602 C 458.017 3.67446 3.71188 0
M  V30 4603 H 459.711 2.29482 1.92297 0
M  V30 4604 H 457.257 1.10465 0.923773 0
M  V30 4605 H 459.21 1.12536 4.06096 0
M  V30 4606 H 457.934 0.174102 3.26136 0
M  V30 4607 H 456.593 2.27174 2.87728 0
M  V30 4608 H 456.241 0.91206 4.94662 0
M  V30 4609 H 455.941 2.64193 5.24858 0
M  V30 4610 H 457.465 1.89367 5.80493 0
M  V30 4611 H 458.879 3.67719 4.39836 0
M  V30 4612 H 457.276 4.40123 4.07936 0
M  V30 4613 H 458.346 4.01443 2.71977 0
M  V30 4614 N 459.689 -1.00246 1.21608 0
M  V30 4615 C 460.914 -1.78167 1.06167 0
M  V30 4616 C 461.339 -1.84138 -0.384035 0
M  V30 4617 O 460.697 -1.28683 -1.27712 0
M  V30 4618 C 460.745 -3.19786 1.66642 0
M  V30 4619 O 459.849 -4.02153 0.913613 0
M  V30 4620 H 459.19 -0.549 0.37349 0
M  V30 4621 H 461.72 -1.25994 1.61204 0
M  V30 4622 H 461.73 -3.70451 1.70969 0
M  V30 4623 H 460.405 -3.14754 2.7185 0
M  V30 4624 H 458.982 -3.60711 0.945635 0
M  V30 4625 N 461.167 -1.02423 -1.1978 0
M  V30 4626 C 462.099 -0.559152 -2.22275 0
M  V30 4627 C 463.112 0.36251 -1.58713 0
M  V30 4628 O 464.301 0.159641 -1.77785 0
M  V30 4629 C 461.401 0.205094 -3.38279 0
M  V30 4630 C 460.574 -0.720361 -4.31427 0
M  V30 4631 C 459.633 -0.00234368 -5.262 0
M  V30 4632 O 458.659 -0.627378 -5.65732 0
M  V30 4633 N 459.861 1.26996 -5.66438 0
M  V30 4634 H 462.626 -1.44064 -2.62804 0
M  V30 4635 H 460.187 -0.902692 -1.34399 0
M  V30 4636 H 462.179 0.694868 -3.9869 0
M  V30 4637 H 460.749 0.987947 -2.96578 0
M  V30 4638 H 459.969 -1.39031 -3.68869 0
M  V30 4639 H 461.257 -1.3495 -4.90577 0
M  V30 4640 H 460.655 1.79858 -5.36347 0
M  V30 4641 H 459.212 1.70432 -6.29123 0
M  V30 4642 N 462.645 1.35699 -0.801477 0
M  V30 4643 C 463.578 2.2768 -0.153922 0
M  V30 4644 C 464.556 1.47832 0.67709 0
M  V30 4645 O 465.74 1.77104 0.645474 0
M  V30 4646 C 462.867 3.2943 0.786986 0
M  V30 4647 C 461.913 4.26485 0.0362447 0
M  V30 4648 S 462.746 5.19573 -1.2963 0
M  V30 4649 C 463.902 6.24866 -0.359705 0
M  V30 4650 H 464.135 2.82254 -0.9338 0
M  V30 4651 H 461.668 1.42421 -0.596283 0
M  V30 4652 H 463.626 3.8855 1.32436 0
M  V30 4653 H 462.287 2.73745 1.54021 0
M  V30 4654 H 461.48 4.98378 0.750668 0
M  V30 4655 H 461.082 3.71508 -0.431017 0
M  V30 4656 H 463.374 6.75957 0.456954 0
M  V30 4657 H 464.317 7.00307 -1.04768 0
M  V30 4658 H 464.725 5.64484 0.0423274 0
M  V30 4659 N 464.123 0.554532 1.47522 0
M  V30 4660 C 465.055 -0.232106 2.28022 0
M  V30 4661 C 466.068 -0.881865 1.36847 0
M  V30 4662 O 467.257 -0.756168 1.61692 0
M  V30 4663 C 464.357 -1.34604 3.11022 0
M  V30 4664 C 463.53 -0.793582 4.30141 0
M  V30 4665 C 462.589 -1.79168 4.94758 0
M  V30 4666 O 461.615 -1.33886 5.5323 0
M  V30 4667 N 462.817 -3.12495 4.89211 0
M  V30 4668 H 465.582 0.458407 2.96173 0
M  V30 4669 H 463.143 0.390433 1.57122 0
M  V30 4670 H 465.135 -2.01243 3.51118 0
M  V30 4671 H 463.705 -1.93983 2.45131 0
M  V30 4672 H 462.925 0.0495025 3.94169 0
M  V30 4673 H 464.213 -0.403776 5.07195 0
M  V30 4674 H 463.611 -3.51931 4.42901 0
M  V30 4675 H 462.168 -3.74698 5.33333 0
M  V30 4676 N 465.601 -1.54893 0.290851 0
M  V30 4677 C 466.829 -2.04343 -0.324288 0
M  V30 4678 C 467.244 -1.16859 -1.48289 0
M  V30 4679 O 466.601 -0.192018 -1.81487 0
M  V30 4680 C 466.652 -3.52756 -0.79026 0
M  V30 4681 O 466.373 -4.36913 0.322213 0
M  V30 4682 C 467.874 -4.18161 -1.4716 0
M  V30 4683 H 465.094 -0.667135 -0.0719173 0
M  V30 4684 H 467.638 -1.99981 0.427529 0
M  V30 4685 H 465.793 -3.57511 -1.49213 0
M  V30 4686 H 466.207 -5.24486 -0.0387372 0
M  V30 4687 H 467.681 -5.23562 -1.7489 0
M  V30 4688 H 468.158 -3.67282 -2.40834 0
M  V30 4689 H 468.764 -4.17454 -0.813178 0
M  V30 4690 N 467.08 -0.0183926 -1.57589 0
M  V30 4691 C 468.03 0.975944 -2.06057 0
M  V30 4692 C 469.014 1.29204 -0.958908 0
M  V30 4693 O 470.206 1.27995 -1.22255 0
M  V30 4694 C 467.335 2.26194 -2.58247 0
M  V30 4695 C 466.421 1.97467 -3.75323 0
M  V30 4696 N 466.812 1.38968 -4.86335 0
M  V30 4697 C 465.11 2.27515 -3.83605 0
M  V30 4698 C 465.811 1.27131 -5.67638 0
M  V30 4699 N 464.787 1.76319 -5.14211 0
M  V30 4700 H 468.589 0.518444 -2.89291 0
M  V30 4701 H 466.103 0.18688 -1.61321 0
M  V30 4702 H 468.1 2.98289 -2.91255 0
M  V30 4703 H 466.76 2.7258 -1.76438 0
M  V30 4704 H 467.771 1.06608 -5.06809 0
M  V30 4705 H 464.448 2.76649 -3.12684 0
M  V30 4706 H 465.838 0.819882 -6.66879 0
M  V30 4707 N 468.558 1.5553 0.254621 0
M  V30 4708 C 469.804 1.77262 0.985193 0
M  V30 4709 C 470.137 0.582286 1.85265 0
M  V30 4710 O 469.412 -0.419666 1.89919 0
M  V30 4711 C 469.695 3.0881 1.85225 0
M  V30 4712 C 469.548 4.38233 1.0135 0
M  V30 4713 C 470.867 3.3653 2.83612 0
M  V30 4714 H 467.986 0.644906 0.356742 0
M  V30 4715 H 470.628 1.88264 0.256236 0
M  V30 4716 H 468.778 2.99562 2.47376 0
M  V30 4717 H 470.45 4.59463 0.411269 0
M  V30 4718 H 468.693 4.32636 0.317574 0
M  V30 4719 H 469.364 5.26644 1.65379 0
M  V30 4720 H 471.84 3.45691 2.31596 0
M  V30 4721 H 470.716 4.29805 3.41407 0
M  V30 4722 H 470.977 2.57064 3.59681 0
M  V30 4723 N 470.036 -0.519951 1.48776 0
M  V30 4724 C 471.261 -1.30447 1.6124 0
M  V30 4725 C 471.686 -1.86055 0.276591 0
M  V30 4726 O 471.044 -1.64915 -0.753183 0
M  V30 4727 C 471.092 -2.42406 2.66967 0
M  V30 4728 O 470.196 -3.45728 2.24824 0
M  V30 4729 H 469.537 -0.385924 0.540332 0
M  V30 4730 H 472.067 -0.624572 1.94834 0
M  V30 4731 H 472.077 -2.88447 2.88552 0
M  V30 4732 H 470.752 -2.01294 3.63941 0
M  V30 4733 H 469.329 -3.05737 2.13494 0
M  V30 4734 N 471.514 -1.37532 -0.769588 0
M  V30 4735 C 472.791 -1.23392 -1.51768 0
M  V30 4736 C 473.171 0.17157 -2.10402 0
M  V30 4737 O 472.519 1.17943 -1.95708 0
M  V30 4738 C 472.729 -2.33163 -2.59685 0
M  V30 4739 C 474.077 -2.70809 -3.27028 0
M  V30 4740 O 475.101 -2.32355 -2.69981 0
M  V30 4741 O 473.96 -3.37066 -4.30173 0
M  V30 4742 H 471.054 -0.481617 -0.67229 0
M  V30 4743 H 473.6 -1.49318 -0.806368 0
M  V30 4744 H 472.372 -3.27273 -2.14494 0
M  V30 4745 H 471.995 -2.08713 -3.38415 0
M  V30 4746 N 472.992 0.995999 -1.22138 0
M  V30 4747 C 474.22 1.77066 -1.07029 0
M  V30 4748 C 474.635 1.8495 0.379357 0
M  V30 4749 O 473.992 1.3174 1.26297 0
M  V30 4750 C 474.043 3.20533 -1.67155 0
M  V30 4751 O 473.764 3.13082 -3.06449 0
M  V30 4752 C 475.265 4.14461 -1.5728 0
M  V30 4753 H 472.485 0.556179 -0.375374 0
M  V30 4754 H 475.029 1.25238 -1.61666 0
M  V30 4755 H 473.184 3.6944 -1.16589 0
M  V30 4756 H 473.598 4.03283 -3.35355 0
M  V30 4757 H 475.072 5.1289 -2.04078 0
M  V30 4758 H 475.549 4.36005 -0.528795 0
M  V30 4759 H 476.155 3.71449 -2.07136 0
M  V30 4760 N 474.47 1.03057 1.19235 0
M  V30 4761 C 475.695 0.74757 1.93458 0
M  V30 4762 C 476.12 -0.687648 1.7508 0
M  V30 4763 O 475.478 -1.47499 1.05422 0
M  V30 4764 C 475.526 1.10604 3.43219 0
M  V30 4765 O 474.63 0.225671 4.11782 0
M  V30 4766 H 473.971 0.276047 0.603899 0
M  V30 4767 H 476.501 1.3777 1.51263 0
M  V30 4768 H 476.511 1.06366 3.93891 0
M  V30 4769 H 475.186 2.15165 3.55917 0
M  V30 4770 H 473.763 0.326795 3.71465 0
M  V30 4771 N 475.948 -1.35272 0.808662 0
M  V30 4772 C 477.194 -1.99003 0.390581 0
M  V30 4773 C 477.527 -1.63999 -1.0401 0
M  V30 4774 O 476.802 -0.904368 -1.72196 0
M  V30 4775 C 477.085 -3.55454 0.576566 0
M  V30 4776 C 476.938 -4.00249 2.05233 0
M  V30 4777 C 478.257 -4.401 0.00354277 0
M  V30 4778 H 475.376 -0.722917 0.143388 0
M  V30 4779 H 478.018 -1.6039 1.01858 0
M  V30 4780 H 476.168 -3.88477 0.0419766 0
M  V30 4781 H 477.84 -3.77626 2.64946 0
M  V30 4782 H 476.083 -3.51082 2.54801 0
M  V30 4783 H 476.754 -5.0911 2.13333 0
M  V30 4784 H 479.23 -4.13548 0.460117 0
M  V30 4785 H 478.106 -5.48656 0.163575 0
M  V30 4786 H 478.367 -4.28444 -1.09032 0
M  V30 4787 N 477.426 -0.562348 -1.47226 0
M  V30 4788 C 478.672 -0.0402761 -2.0276 0
M  V30 4789 C 479.005 1.30823 -1.43523 0
M  V30 4790 O 478.28 1.85249 -0.592705 0
M  V30 4791 C 478.563 0.047311 -3.60069 0
M  V30 4792 C 478.416 -1.32865 -4.29729 0
M  V30 4793 C 479.735 0.758182 -4.3352 0
M  V30 4794 H 476.854 -0.0161105 -0.736824 0
M  V30 4795 H 479.496 -0.725628 -1.75598 0
M  V30 4796 H 477.646 0.630986 -3.83342 0
M  V30 4797 H 479.318 -1.95593 -4.17781 0
M  V30 4798 H 477.561 -1.90195 -3.89882 0
M  V30 4799 H 478.232 -1.22004 -5.38349 0
M  V30 4800 H 480.708 0.262546 -4.15271 0
M  V30 4801 H 479.584 0.78844 -5.43208 0
M  V30 4802 H 479.845 1.81537 -4.03109 0
M  V30 4803 N 478.904 1.54736 -0.299062 0
M  V30 4804 C 479.834 2.26409 0.571085 0
M  V30 4805 C 480.815 1.2629 1.13951 0
M  V30 4806 O 482 1.55059 1.16921 0
M  V30 4807 C 479.13 3.00338 1.74396 0
M  V30 4808 C 478.084 4.07588 1.30599 0
M  V30 4809 C 477.41 4.69222 2.56387 0
M  V30 4810 C 478.71 5.20455 0.438645 0
M  V30 4811 H 480.404 2.99388 -0.0266991 0
M  V30 4812 H 477.95 1.43993 -0.0142812 0
M  V30 4813 H 479.903 3.49198 2.35878 0
M  V30 4814 H 478.627 2.24934 2.36796 0
M  V30 4815 H 477.286 3.59575 0.71424 0
M  V30 4816 H 476.934 3.9046 3.17097 0
M  V30 4817 H 476.634 5.41653 2.27784 0
M  V30 4818 H 478.158 5.20844 3.18675 0
M  V30 4819 H 479.572 5.65221 0.959085 0
M  V30 4820 H 477.969 5.99594 0.246466 0
M  V30 4821 H 479.039 4.8192 -0.536738 0
M  V30 4822 N 480.382 0.0267497 1.57577 0
M  V30 4823 C 481.607 -0.666227 1.96408 0
M  V30 4824 C 482.032 -1.65004 0.903071 0
M  V30 4825 O 481.39 -1.80787 -0.136263 0
M  V30 4826 C 481.438 -1.35101 3.34335 0
M  V30 4827 O 480.542 -2.46623 3.30531 0
M  V30 4828 H 479.883 -0.175206 0.640468 0
M  V30 4829 H 482.413 0.0878977 2.04411 0
M  V30 4830 H 482.423 -1.70834 3.70513 0
M  V30 4831 H 481.098 -0.629844 4.11103 0
M  V30 4832 H 479.675 -2.13019 3.06068 0
M  V30 4833 N 481.861 -1.55662 -0.24637 0
M  V30 4834 C 482.794 -1.85332 -1.33143 0
M  V30 4835 C 483.772 -0.708464 -1.46354 0
M  V30 4836 O 484.956 -0.954274 -1.6256 0
M  V30 4837 C 482.083 -2.0385 -2.70487 0
M  V30 4838 C 481.129 -3.26488 -2.74423 0
M  V30 4839 S 481.962 -4.83124 -2.30979 0
M  V30 4840 C 483.118 -5.04647 -3.70246 0
M  V30 4841 H 483.351 -2.77077 -1.07777 0
M  V30 4842 H 480.884 -1.47776 -0.44738 0
M  V30 4843 H 482.842 -2.15202 -3.49569 0
M  V30 4844 H 481.503 -1.12947 -2.9309 0
M  V30 4845 H 480.696 -3.36413 -3.7529 0
M  V30 4846 H 480.298 -3.13864 -2.03385 0
M  V30 4847 H 482.59 -4.92023 -4.65746 0
M  V30 4848 H 483.533 -6.06625 -3.65255 0
M  V30 4849 H 483.941 -4.32491 -3.62784 0
M  V30 4850 N 483.339 0.512053 -1.4905 0
M  V30 4851 C 484.616 1.27337 -1.48474 0
M  V30 4852 C 484.996 2.1009 -0.206301 0
M  V30 4853 O 484.344 2.136 0.811609 0
M  V30 4854 C 484.554 2.13954 -2.75726 0
M  V30 4855 C 485.902 2.73507 -3.24776 0
M  V30 4856 O 486.926 2.24229 -2.76767 0
M  V30 4857 O 485.785 3.63186 -4.08361 0
M  V30 4858 H 482.879 0.575652 -0.593762 0
M  V30 4859 H 485.425 0.527232 -1.61302 0
M  V30 4860 H 484.197 1.52709 -3.60272 0
M  V30 4861 H 483.82 2.95782 -2.65705 0
M  V30 4862 N 484.817 1.37938 0.762283 0
M  V30 4863 C 485.765 1.34569 1.89721 0
M  V30 4864 C 486.759 0.232929 1.67791 0
M  V30 4865 O 487.965 0.401485 1.75465 0
M  V30 4866 H 484.34 0.419594 0.624055 0
M  V30 4867 H 486.311 2.30357 1.8968 0
M  V30 4868 C 485.06 1.17898 3.27101 0
M  V30 4869 H 484.383 2.02781 3.44558 0
M  V30 4870 H 485.823 1.19593 4.06784 0
M  V30 4871 C 484.282 -0.114728 3.36705 0
M  V30 4872 O 484.812 -1.0949 3.8649 0
M  V30 4873 N 483.018 -0.16863 2.9011 0
M  V30 4874 H 482.565 0.62967 2.49786 0
M  V30 4875 H 482.523 -1.03383 2.96916 0
M  V30 4876 N 486.295 -0.989507 1.22664 0
M  V30 4877 C 487.243 -2.10148 0.997035 0
M  V30 4878 C 488.237 -1.6929 -0.0609783 0
M  V30 4879 O 489.443 -1.79766 0.0917523 0
M  V30 4880 H 485.818 -0.687256 0.305259 0
M  V30 4881 H 487.789 -2.26685 1.94053 0
M  V30 4882 C 486.538 -3.4257 0.595085 0
M  V30 4883 H 485.861 -3.74453 1.40089 0
M  V30 4884 H 487.301 -4.21344 0.473869 0
M  V30 4885 C 485.76 -3.29638 -0.695725 0
M  V30 4886 O 486.29 -3.61709 -1.74727 0
M  V30 4887 N 484.496 -2.82814 -0.668173 0
M  V30 4888 H 484.043 -2.56914 0.18787 0
M  V30 4889 H 484.001 -2.74544 -1.5321 0
M  V30 4890 N 487.773 -1.03688 -1.18687 0
M  V30 4891 C 489.189 -0.755413 -1.4059 0
M  V30 4892 C 489.389 0.656659 -1.905 0
M  V30 4893 O 488.445 1.42144 -2.08689 0
M  V30 4894 C 489.758 -1.7983 -2.41001 0
M  V30 4895 C 491.306 -1.81877 -2.54735 0
M  V30 4896 C 491.781 -2.85148 -3.58406 0
M  V30 4897 N 493.272 -2.84015 -3.6591 0
M  V30 4898 C 494.007 -3.60573 -4.45841 0
M  V30 4899 N 493.503 -4.46871 -5.29413 0
M  V30 4900 N 495.296 -3.49079 -4.40568 0
M  V30 4901 H 487.447 -1.94818 -0.846148 0
M  V30 4902 H 489.71 -0.842727 -0.434184 0
M  V30 4903 H 489.416 -2.81097 -2.1137 0
M  V30 4904 H 489.29 -1.62727 -3.40294 0
M  V30 4905 H 491.677 -0.812836 -2.83685 0
M  V30 4906 H 491.758 -2.03057 -1.55568 0
M  V30 4907 H 491.402 -3.85918 -3.30197 0
M  V30 4908 H 491.332 -2.61224 -4.57241 0
M  V30 4909 H 493.823 -2.21431 -3.0623 0
M  V30 4910 H 494.136 -5.02007 -5.87545 0
M  V30 4911 H 492.481 -4.5094 -5.28846 0
M  V30 4912 H 495.672 -2.81066 -3.74325 0
M  V30 4913 H 495.845 -4.08994 -5.02621 0
M  V30 4914 N 489.251 1.34841 -0.815825 0
M  V30 4915 C 490.199 2.31549 -0.220888 0
M  V30 4916 C 491.193 1.5707 0.634457 0
M  V30 4917 O 492.399 1.72125 0.526589 0
M  V30 4918 H 488.774 0.750153 -0.0526782 0
M  V30 4919 H 490.745 2.7926 -1.05149 0
M  V30 4920 C 489.494 3.42335 0.608427 0
M  V30 4921 H 488.817 3.9978 -0.0404121 0
M  V30 4922 H 490.257 4.12258 0.990931 0
M  V30 4923 C 488.716 2.86173 1.77782 0
M  V30 4924 O 489.246 2.80474 2.87571 0
M  V30 4925 N 487.452 2.43093 1.59229 0
M  V30 4926 H 486.999 2.47928 0.699237 0
M  V30 4927 H 486.957 2.05866 2.37627 0
M  V30 4928 N 490.729 0.570148 1.46925 0
M  V30 4929 C 491.659 -0.158274 2.32963 0
M  V30 4930 C 492.64 -0.896093 1.44583 0
M  V30 4931 O 493.825 -0.874022 1.7342 0
M  V30 4932 C 490.955 -1.18055 3.26619 0
M  V30 4933 C 489.909 -0.558379 4.24342 0
M  V30 4934 C 489.235 -1.68623 5.07415 0
M  V30 4935 C 490.535 0.496295 5.19937 0
M  V30 4936 H 492.229 0.560046 2.94115 0
M  V30 4937 H 489.775 0.270775 1.41431 0
M  V30 4938 H 491.728 -1.69841 3.85658 0
M  V30 4939 H 490.452 -1.92899 2.63548 0
M  V30 4940 H 489.111 -0.0617157 3.66548 0
M  V30 4941 H 488.759 -2.42402 4.40738 0
M  V30 4942 H 488.459 -1.27564 5.73586 0
M  V30 4943 H 489.983 -2.20709 5.69315 0
M  V30 4944 H 491.397 0.0640052 5.73264 0
M  V30 4945 H 489.794 0.82649 5.94381 0
M  V30 4946 H 490.864 1.38735 4.6463 0
M  V30 4947 N 492.207 -1.54576 0.307264 0
M  V30 4948 C 493.484 -1.92377 -0.353605 0
M  V30 4949 C 493.864 -1.23517 -1.71192 0
M  V30 4950 O 493.212 -0.373101 -2.25433 0
M  V30 4951 C 493.422 -3.45928 -0.462039 0
M  V30 4952 C 494.77 -4.18278 -0.729975 0
M  V30 4953 O 495.794 -3.51997 -0.545605 0
M  V30 4954 O 494.653 -5.3563 -1.08454 0
M  V30 4955 H 491.747 -0.802747 -0.198812 0
M  V30 4956 H 494.293 -1.65929 0.355783 0
M  V30 4957 H 493.065 -3.88187 0.492592 0
M  V30 4958 H 492.688 -3.78431 -1.21965 0
M  V30 4959 N 493.685 -0.035106 -1.57561 0
M  V30 4960 C 494.615 0.942993 -2.13612 0
M  V30 4961 C 495.596 1.33531 -1.05373 0
M  V30 4962 O 496.781 1.41287 -1.33235 0
M  V30 4963 C 493.911 2.22332 -2.66807 0
M  V30 4964 C 492.865 1.97156 -3.79886 0
M  V30 4965 C 492.191 3.31506 -4.19533 0
M  V30 4966 C 493.491 1.30596 -5.05709 0
M  V30 4967 H 495.185 0.476179 -2.95589 0
M  V30 4968 H 492.731 0.227602 -1.4219 0
M  V30 4969 H 494.684 2.91142 -3.04654 0
M  V30 4970 H 493.408 2.7119 -1.81999 0
M  V30 4971 H 492.067 1.30763 -3.42486 0
M  V30 4972 H 491.715 3.78134 -3.31698 0
M  V30 4973 H 491.415 3.15465 -4.95738 0
M  V30 4974 H 492.939 4.01574 -4.59968 0
M  V30 4975 H 494.353 1.89416 -5.41105 0
M  V30 4976 H 492.75 1.24934 -5.86951 0
M  V30 4977 H 493.82 0.279742 -4.84092 0
M  V30 4978 N 495.163 1.55791 0.238111 0
M  V30 4979 C 496.44 1.68798 0.98826 0
M  V30 4980 C 496.82 0.577562 2.03045 0
M  V30 4981 O 496.168 -0.41778 2.24648 0
M  V30 4982 C 496.378 3.09454 1.61367 0
M  V30 4983 C 497.726 3.68335 2.11221 0
M  V30 4984 O 498.75 3.1231 1.71292 0
M  V30 4985 O 497.609 4.6657 2.84561 0
M  V30 4986 H 494.703 0.686881 0.460568 0
M  V30 4987 H 497.249 1.68118 0.231202 0
M  V30 4988 H 496.021 3.81726 0.860295 0
M  V30 4989 H 495.644 3.14182 2.4367 0
M  V30 4990 N 496.642 -0.504142 1.49319 0
M  V30 4991 C 497.867 -1.28729 1.62615 0
M  V30 4992 C 498.292 -1.85752 0.296309 0
M  V30 4993 O 497.65 -1.65704 -0.735649 0
M  V30 4994 C 497.698 -2.39561 2.69524 0
M  V30 4995 O 496.802 -3.43324 2.28478 0
M  V30 4996 H 496.143 -0.380172 0.544395 0
M  V30 4997 H 498.673 -0.603872 1.95485 0
M  V30 4998 H 498.683 -2.8537 2.91595 0
M  V30 4999 H 497.358 -1.97423 3.66056 0
M  V30 5000 H 495.935 -3.03455 2.16725 0
M  V30 5001 N 498.12 -1.38341 -0.754957 0
M  V30 5002 C 499.369 -1.33791 -1.5094 0
M  V30 5003 C 499.682 0.0699267 -1.95475 0
M  V30 5004 O 500.888 0.237956 -2.70455 0
M  V30 5005 C 499.344 -2.34934 -2.72643 0
M  V30 5006 C 498.952 -3.81332 -2.35138 0
M  V30 5007 C 500.696 -2.39425 -3.50536 0
M  V30 5008 C 498.603 -4.74164 -3.53444 0
M  V30 5009 H 497.533 -0.497314 -0.566741 0
M  V30 5010 H 500.184 -1.63888 -0.825403 0
M  V30 5011 H 498.566 -1.97878 -3.43017 0
M  V30 5012 H 499.74 -4.27319 -1.7244 0
M  V30 5013 H 498.055 -3.79946 -1.70382 0
M  V30 5014 H 500.652 -3.0598 -4.38498 0
M  V30 5015 H 500.995 -1.41278 -3.91594 0
M  V30 5016 H 501.528 -2.75274 -2.87174 0
M  V30 5017 H 498.267 -5.73501 -3.17453 0
M  V30 5018 H 497.787 -4.3287 -4.15191 0
M  V30 5019 H 499.466 -4.92111 -4.20043 0
M  V30 5020 N 499.598 0.982988 -1.23187 0
M  V30 5021 C 500.847 1.71817 -1.05649 0
M  V30 5022 C 501.16 1.91315 0.407176 0
M  V30 5023 O 502.366 2.62256 0.702436 0
M  V30 5024 C 500.822 3.09188 -1.84203 0
M  V30 5025 C 500.43 2.97586 -3.34882 0
M  V30 5026 C 502.174 3.86684 -1.75146 0
M  V30 5027 C 500.081 4.30173 -4.05839 0
M  V30 5028 H 499.011 0.644258 -0.391724 0
M  V30 5029 H 501.662 1.09659 -1.4713 0
M  V30 5030 H 500.044 3.72087 -1.35527 0
M  V30 5031 H 501.218 2.43793 -3.91026 0
M  V30 5032 H 499.533 2.33567 -3.44725 0
M  V30 5033 H 502.13 4.84836 -2.25473 0
M  V30 5034 H 502.473 4.10136 -0.713737 0
M  V30 5035 H 503.006 3.30482 -2.21419 0
M  V30 5036 H 499.745 4.11918 -5.09906 0
M  V30 5037 H 499.265 4.83841 -3.54482 0
M  V30 5038 H 500.944 4.98873 -4.11989 0
M  V30 5039 N 501.076 1.04316 1.18135 0
M  V30 5040 C 502.039 0.640794 2.2006 0
M  V30 5041 C 503.039 -0.303124 1.57917 0
M  V30 5042 O 504.229 -0.0881855 1.73977 0
M  V30 5043 C 501.361 -0.060148 3.40847 0
M  V30 5044 H 502.554 1.54281 2.57172 0
M  V30 5045 H 500.107 0.836004 1.32063 0
M  V30 5046 H 500.842 -0.975845 3.0927 0
M  V30 5047 H 500.627 0.618319 3.87194 0
M  V30 5048 H 502.117 -0.328082 4.16309 0
M  V30 5049 N 502.554 -1.34406 0.822964 0
M  V30 5050 C 503.464 -2.33298 0.246838 0
M  V30 5051 C 504.48 -1.62625 -0.618797 0
M  V30 5052 O 505.656 -1.94391 -0.526685 0
M  V30 5053 C 502.721 -3.41785 -0.581731 0
M  V30 5054 C 501.782 -4.28206 0.306309 0
M  V30 5055 C 501.015 -5.31512 -0.48281 0
M  V30 5056 O 501.238 -5.43973 -1.71607 0
M  V30 5057 O 500.172 -6.01749 0.134884 0
M  V30 5058 H 503.998 -2.84401 1.06534 0
M  V30 5059 H 501.583 -1.37466 0.585108 0
M  V30 5060 H 503.465 -4.08028 -1.05313 0
M  V30 5061 H 502.14 -2.92925 -1.37756 0
M  V30 5062 H 501.047 -3.64885 0.825199 0
M  V30 5063 H 502.38 -4.80507 1.06649 0
M  V30 5064 N 504.032 -0.577932 -1.46621 0
M  V30 5065 C 505.278 -0.0617793 -2.02706 0
M  V30 5066 C 505.611 1.29294 -1.44903 0
M  V30 5067 O 504.886 1.8461 -0.61232 0
M  V30 5068 C 505.169 0.00911824 -3.60099 0
M  V30 5069 C 505.022 -1.37416 -4.28295 0
M  V30 5070 C 506.341 0.712159 -4.343 0
M  V30 5071 H 503.46 -0.0239246 -0.736612 0
M  V30 5072 H 506.102 -0.744211 -1.74818 0
M  V30 5073 H 504.252 0.590292 -3.83989 0
M  V30 5074 H 505.924 -2.00013 -4.15683 0
M  V30 5075 H 504.167 -1.94319 -3.87843 0
M  V30 5076 H 504.838 -1.27707 -5.37024 0
M  V30 5077 H 507.314 0.218486 -4.15526 0
M  V30 5078 H 506.19 0.730782 -5.44014 0
M  V30 5079 H 506.451 1.77251 -4.05012 0
M  V30 5080 N 505.51 1.54411 -0.315457 0
M  V30 5081 C 506.457 2.24048 0.554166 0
M  V30 5082 C 507.427 1.2283 1.11812 0
M  V30 5083 O 508.612 1.51491 1.15997 0
M  V30 5084 C 505.752 2.99574 1.71316 0
M  V30 5085 C 504.865 4.15594 1.17922 0
M  V30 5086 C 504 4.78669 2.30324 0
M  V30 5087 C 503.039 5.86807 1.74137 0
M  V30 5088 N 502.176 6.43777 2.8017 0
M  V30 5089 H 507.016 2.97964 -0.0462602 0
M  V30 5090 H 504.553 1.47059 -0.0346009 0
M  V30 5091 H 506.511 3.41604 2.39505 0
M  V30 5092 H 505.141 2.28008 2.285 0
M  V30 5093 H 504.193 3.78404 0.389136 0
M  V30 5094 H 505.505 4.93459 0.728012 0
M  V30 5095 H 504.659 5.23626 3.06433 0
M  V30 5096 H 503.398 4.00168 2.78778 0
M  V30 5097 H 502.403 5.41261 0.965236 0
M  V30 5098 H 503.628 6.67201 1.2657 0
M  V30 5099 H 501.574 5.68153 3.2793 0
M  V30 5100 H 501.491 7.17031 2.39588 0
M  V30 5101 H 502.759 6.9339 3.56132 0
M  V30 5102 N 506.988 0.0434614 1.5754 0
M  V30 5103 C 507.951 -0.918696 2.09982 0
M  V30 5104 C 508.951 -1.24488 1.01781 0
M  V30 5105 O 510.141 -1.18284 1.27885 0
M  V30 5106 C 507.273 -2.23093 2.57764 0
M  V30 5107 H 508.466 -0.464229 2.96285 0
M  V30 5108 H 506.019 -0.204818 1.54952 0
M  V30 5109 H 506.754 -2.73137 1.74832 0
M  V30 5110 H 506.539 -2.00724 3.36827 0
M  V30 5111 H 508.029 -2.92028 2.98512 0
M  V30 5112 N 508.466 -1.55915 -0.229846 0
M  V30 5113 C 509.398 -1.88209 -1.30805 0
M  V30 5114 C 510.411 -0.769672 -1.43457 0
M  V30 5115 O 511.6 -1.04792 -1.44502 0
M  V30 5116 C 508.7 -2.06829 -2.68468 0
M  V30 5117 C 507.873 -3.37798 -2.77869 0
M  V30 5118 C 506.932 -3.45952 -3.96489 0
M  V30 5119 O 505.958 -4.19043 -3.85216 0
M  V30 5120 N 507.16 -2.76488 -5.10426 0
M  V30 5121 H 509.925 -2.81286 -1.03431 0
M  V30 5122 H 507.486 -1.5636 -0.41991 0
M  V30 5123 H 509.478 -2.09608 -3.46189 0
M  V30 5124 H 508.048 -1.20416 -2.88477 0
M  V30 5125 H 507.268 -3.4719 -1.86689 0
M  V30 5126 H 508.556 -4.24091 -2.81113 0
M  V30 5127 H 507.954 -2.16868 -5.2248 0
M  V30 5128 H 506.511 -2.84938 -5.8622 0
M  V30 5129 N 509.944 0.496216 -1.49584 0
M  V30 5130 C 511.174 1.27209 -1.62793 0
M  V30 5131 C 511.582 1.86799 -0.300476 0
M  V30 5132 O 510.925 1.68802 0.724674 0
M  V30 5133 C 510.987 2.43812 -2.64189 0
M  V30 5134 C 510.651 2.05055 -4.08414 0
M  V30 5135 C 511.648 1.58752 -4.9507 0
M  V30 5136 C 509.333 2.14543 -4.54177 0
M  V30 5137 C 511.327 1.22448 -6.25528 0
M  V30 5138 C 509.014 1.77851 -5.84647 0
M  V30 5139 C 510.012 1.31878 -6.70147 0
M  V30 5140 O 509.7 0.956834 -7.98185 0
M  V30 5141 H 509.432 0.391848 -0.550846 0
M  V30 5142 H 511.986 0.601712 -1.96389 0
M  V30 5143 H 510.216 3.13941 -2.25783 0
M  V30 5144 H 511.905 3.05829 -2.66877 0
M  V30 5145 H 512.671 1.50863 -4.60939 0
M  V30 5146 H 508.55 2.49277 -3.87791 0
M  V30 5147 H 512.094 0.864933 -6.92217 0
M  V30 5148 H 507.991 1.8539 -6.18305 0
M  V30 5149 H 508.759 1.08789 -8.11238 0
M  V30 5150 N 511.423 1.38739 0.74761 0
M  V30 5151 C 512.333 1.38696 1.89211 0
M  V30 5152 C 513.349 0.283303 1.71678 0
M  V30 5153 O 514.525 0.522713 1.94498 0
M  V30 5154 C 511.59 1.21662 3.24653 0
M  V30 5155 C 510.651 2.41886 3.54669 0
M  V30 5156 C 509.884 2.25655 4.83648 0
M  V30 5157 O 510.107 1.25339 5.56459 0
M  V30 5158 O 509.041 3.14372 5.13277 0
M  V30 5159 H 512.867 2.35143 1.92202 0
M  V30 5160 H 510.452 1.19721 0.893708 0
M  V30 5161 H 512.334 1.14246 4.05618 0
M  V30 5162 H 511.009 0.283024 3.2246 0
M  V30 5163 H 509.916 2.54877 2.73841 0
M  V30 5164 H 511.249 3.33895 3.61628 0
M  V30 5165 N 512.901 -0.976442 1.23707 0
M  V30 5166 C 513.811 -2.10359 1.03856 0
M  V30 5167 C 514.827 -1.73991 -0.0180919 0
M  V30 5168 O 516.003 -2.0061 0.178211 0
M  V30 5169 C 513.068 -3.40809 0.636387 0
M  V30 5170 C 512.129 -3.91179 1.76854 0
M  V30 5171 C 511.362 -5.15404 1.38546 0
M  V30 5172 O 511.585 -5.69754 0.27142 0
M  V30 5173 O 510.519 -5.5994 2.20797 0
M  V30 5174 H 514.345 -2.29997 1.98331 0
M  V30 5175 H 511.93 -1.08742 1.02448 0
M  V30 5176 H 513.812 -4.19269 0.423223 0
M  V30 5177 H 512.487 -3.22493 -0.279322 0
M  V30 5178 H 511.394 -3.13819 2.03638 0
M  V30 5179 H 512.727 -4.13958 2.6627 0
M  V30 5180 N 514.379 -1.04941 -1.1758 0
M  V30 5181 C 515.628 -0.753124 -1.87112 0
M  V30 5182 C 515.941 0.722507 -1.81767 0
M  V30 5183 O 517.147 1.13265 -2.46746 0
M  V30 5184 C 515.603 -1.29695 -3.35719 0
M  V30 5185 C 515.211 -2.80184 -3.49572 0
M  V30 5186 C 516.955 -1.07759 -4.10595 0
M  V30 5187 C 514.862 -3.2788 -4.92187 0
M  V30 5188 H 513.792 -0.278034 -0.700866 0
M  V30 5189 H 516.443 -1.26637 -1.32798 0
M  V30 5190 H 514.825 -0.711522 -3.89555 0
M  V30 5191 H 515.999 -3.44561 -3.05965 0
M  V30 5192 H 514.314 -3.00632 -2.88113 0
M  V30 5193 H 516.911 -1.40899 -5.15802 0
M  V30 5194 H 517.254 -0.0152302 -4.16297 0
M  V30 5195 H 517.787 -1.62809 -3.62957 0
M  V30 5196 H 514.526 -4.33535 -4.91658 0
M  V30 5197 H 514.046 -2.68245 -5.36475 0
M  V30 5198 H 515.725 -3.22412 -5.60945 0
M  V30 5199 N 515.857 1.33968 -0.830081 0
M  V30 5200 C 516.82 2.27694 -0.26235 0
M  V30 5201 C 517.82 1.50589 0.563876 0
M  V30 5202 O 519.01 1.70028 0.378941 0
M  V30 5203 C 516.142 3.35002 0.63138 0
M  V30 5204 H 517.335 2.79419 -1.08928 0
M  V30 5205 H 514.888 1.44221 -0.602486 0
M  V30 5206 H 515.623 2.88504 1.48109 0
M  V30 5207 H 515.408 3.92079 0.0403276 0
M  V30 5208 H 516.898 4.04897 1.02217 0
M  V30 5209 N 517.335 0.585699 1.46312 0
M  V30 5210 C 518.283 -0.158577 2.32059 0
M  V30 5211 C 519.277 -0.881427 1.44662 0
M  V30 5212 O 520.483 -0.799476 1.61271 0
M  V30 5213 H 516.858 -0.0700066 0.748734 0
M  V30 5214 H 518.829 0.583383 2.92642 0
M  V30 5215 C 517.578 -1.15701 3.27885 0
M  V30 5216 H 516.901 -0.610215 3.95116 0
M  V30 5217 H 518.341 -1.64812 3.90657 0
M  V30 5218 C 516.8 -2.21951 2.53455 0
M  V30 5219 O 517.33 -3.29352 2.29978 0
M  V30 5220 N 515.536 -1.9664 2.13965 0
M  V30 5221 H 515.083 -1.09309 2.33258 0
M  V30 5222 H 515.041 -2.6794 1.64485 0
M  V30 5223 N 518.813 -1.54241 0.323641 0
M  V30 5224 C 520.229 -1.59574 -0.0290018 0
M  V30 5225 C 520.429 -1.34017 -1.50472 0
M  V30 5226 O 519.485 -1.12464 -2.26071 0
M  V30 5227 C 520.798 -2.98169 0.389295 0
M  V30 5228 C 522.346 -3.11148 0.339958 0
M  V30 5229 C 522.821 -4.5209 0.733418 0
M  V30 5230 N 524.312 -4.5808 0.686827 0
M  V30 5231 C 525.047 -5.65248 0.963464 0
M  V30 5232 N 524.543 -6.80355 1.30724 0
M  V30 5233 N 526.336 -5.55025 0.88902 0
M  V30 5234 H 518.487 -1.6911 1.28512 0
M  V30 5235 H 520.75 -0.790972 0.522558 0
M  V30 5236 H 520.456 -3.21871 1.41746 0
M  V30 5237 H 520.33 -3.76399 -0.245657 0
M  V30 5238 H 522.717 -2.87182 -0.679002 0
M  V30 5239 H 522.798 -2.35023 1.00985 0
M  V30 5240 H 522.442 -4.76788 1.75029 0
M  V30 5241 H 522.372 -5.26584 0.0412189 0
M  V30 5242 H 524.863 -3.75411 0.43298 0
M  V30 5243 H 525.176 -7.58029 1.5037 0
M  V30 5244 H 523.521 -6.81851 1.3455 0
M  V30 5245 H 526.712 -4.63977 0.619939 0
M  V30 5246 H 526.885 -6.38458 1.10797 0
M  V30 5247 N 520.291 -0.0518155 -1.57515 0
M  V30 5248 C 521.516 0.634896 -1.97443 0
M  V30 5249 C 521.941 1.63546 -0.929207 0
M  V30 5250 O 521.299 1.80981 0.107484 0
M  V30 5251 C 521.347 1.29765 -3.36442 0
M  V30 5252 O 520.451 2.41333 -3.34413 0
M  V30 5253 H 519.792 0.164994 -0.643174 0
M  V30 5254 H 522.322 -0.120407 -2.04245 0
M  V30 5255 H 522.332 1.64918 -3.73184 0
M  V30 5256 H 521.007 0.564361 -4.12053 0
M  V30 5257 H 519.584 2.08122 -3.09418 0
M  V30 5258 N 521.769 1.56035 0.221574 0
M  V30 5259 C 523.185 1.49026 0.571271 0
M  V30 5260 C 523.385 0.746912 1.87146 0
M  V30 5261 O 522.441 0.286566 2.50869 0
M  V30 5262 C 523.754 2.93579 0.650522 0
M  V30 5263 C 525.302 3.04099 0.741151 0
M  V30 5264 C 525.777 4.5001 0.851747 0
M  V30 5265 N 527.268 4.54053 0.915968 0
M  V30 5266 C 528.003 5.64232 1.02125 0
M  V30 5267 N 527.499 6.84164 1.09049 0
M  V30 5268 N 529.292 5.52084 1.05639 0
M  V30 5269 H 521.443 2.02791 -0.63162 0
M  V30 5270 H 523.706 0.921736 -0.221602 0
M  V30 5271 H 523.412 3.50912 -0.235253 0
M  V30 5272 H 523.286 3.45476 1.51413 0
M  V30 5273 H 525.673 2.4683 1.61737 0
M  V30 5274 H 525.754 2.55371 -0.148128 0
M  V30 5275 H 525.398 5.07896 -0.0200117 0
M  V30 5276 H 525.328 4.96444 1.75644 0
M  V30 5277 H 527.819 3.67683 0.872782 0
M  V30 5278 H 528.132 7.63883 1.1706 0
M  V30 5279 H 526.477 6.86875 1.05962 0
M  V30 5280 H 529.668 4.57317 0.998953 0
M  V30 5281 H 529.841 6.37983 1.13498 0
M  V30 5282 N 523.247 -0.488276 1.49845 0
M  V30 5283 C 524.475 -1.26527 1.63702 0
M  V30 5284 C 524.89 -1.8618 0.313447 0
M  V30 5285 O 524.247 -1.68432 -0.702624 0
M  V30 5286 C 524.298 -2.3864 2.71538 0
M  V30 5287 O 524.019 -1.81437 3.98763 0
M  V30 5288 C 525.52 -3.29805 2.96215 0
M  V30 5289 H 522.74 -0.383295 0.55075 0
M  V30 5290 H 525.284 -0.584779 1.95961 0
M  V30 5291 H 523.439 -3.02496 2.42023 0
M  V30 5292 H 523.853 -2.55135 4.58265 0
M  V30 5293 H 525.327 -4.04722 3.75372 0
M  V30 5294 H 525.804 -3.87563 2.06619 0
M  V30 5295 H 526.41 -2.71703 3.27196 0
M  V30 5296 N 524.725 -1.39134 -0.740242 0
M  V30 5297 C 525.635 -1.39697 -1.88473 0
M  V30 5298 C 526.651 -0.292403 -1.71526 0
M  V30 5299 O 527.827 -0.533021 -1.94219 0
M  V30 5300 C 524.892 -1.23382 -3.24003 0
M  V30 5301 C 523.953 -2.43763 -3.53381 0
M  V30 5302 C 523.186 -2.28216 -4.82445 0
M  V30 5303 O 523.409 -1.28288 -5.55786 0
M  V30 5304 O 522.343 -3.1709 -5.11603 0
M  V30 5305 H 526.169 -2.36159 -1.90952 0
M  V30 5306 H 523.754 -1.20194 -0.887346 0
M  V30 5307 H 525.636 -1.16395 -4.05006 0
M  V30 5308 H 524.311 -0.300121 -3.22306 0
M  V30 5309 H 523.218 -2.56325 -2.72485 0
M  V30 5310 H 524.551 -3.35808 -3.59852 0
M  V30 5311 N 526.204 0.969867 -1.24223 0
M  V30 5312 C 527.167 2.04564 -1.03373 0
M  V30 5313 C 528.167 1.60798 0.00819206 0
M  V30 5314 O 529.357 1.72641 -0.232567 0
M  V30 5315 C 526.489 3.36163 -0.566343 0
M  V30 5316 H 527.682 2.24494 -1.98853 0
M  V30 5317 H 525.235 1.1448 -1.06415 0
M  V30 5318 H 525.97 3.21925 0.391751 0
M  V30 5319 H 525.755 3.69273 -1.31834 0
M  V30 5320 H 527.245 4.1526 -0.441435 0
M  V30 5321 N 527.682 1.05563 1.17022 0
M  V30 5322 C 528.592 0.670758 2.24807 0
M  V30 5323 C 529.608 -0.309865 1.71219 0
M  V30 5324 O 530.784 -0.161025 2.00755 0
M  V30 5325 C 527.849 0.055337 3.46656 0
M  V30 5326 C 526.91 1.08688 4.15314 0
M  V30 5327 C 526.143 0.500736 5.31346 0
M  V30 5328 O 526.366 -0.688718 5.66227 0
M  V30 5329 O 525.3 1.23683 5.89055 0
M  V30 5330 H 529.126 1.56914 2.60023 0
M  V30 5331 H 526.711 0.827428 1.24395 0
M  V30 5332 H 528.593 -0.286492 4.20425 0
M  V30 5333 H 527.268 -0.816638 3.13229 0
M  V30 5334 H 526.175 1.48077 3.43546 0
M  V30 5335 H 527.508 1.93014 4.52777 0
M  V30 5336 N 529.16 -1.33526 0.837174 0
M  V30 5337 C 530.385 -2.0258 0.444545 0
M  V30 5338 C 530.81 -1.6258 -0.946006 0
M  V30 5339 O 530.168 -0.817548 -1.6182 0
M  V30 5340 C 530.216 -3.5605 0.571006 0
M  V30 5341 O 529.32 -4.10422 -0.403431 0
M  V30 5342 H 528.661 -0.638866 0.180958 0
M  V30 5343 H 531.191 -1.70462 1.13154 0
M  V30 5344 H 531.201 -4.05488 0.452024 0
M  V30 5345 H 529.876 -3.84509 1.58512 0
M  V30 5346 H 528.453 -3.72113 -0.242147 0
M  V30 5347 N 530.638 -0.59345 -1.46 0
M  V30 5348 C 531.884 -0.0916503 -2.03193 0
M  V30 5349 C 532.239 1.25839 -1.45541 0
M  V30 5350 O 531.532 1.81455 -0.615191 0
M  V30 5351 C 531.726 0.021178 -3.57394 0
M  V30 5352 C 531.555 -1.31638 -4.30002 0
M  V30 5353 C 530.325 -1.89336 -4.68487 0
M  V30 5354 C 532.523 -2.242 -4.62859 0
M  V30 5355 N 530.505 -3.1672 -5.25891 0
M  V30 5356 C 531.876 -3.36175 -5.20948 0
M  V30 5357 C 533.931 -2.23748 -4.44794 0
M  V30 5358 C 532.634 -4.47844 -5.62875 0
M  V30 5359 C 534.66 -3.34454 -4.87744 0
M  V30 5360 C 534.022 -4.4515 -5.45913 0
M  V30 5361 H 530.121 -0.0765713 -0.778242 0
M  V30 5362 H 532.705 -0.788705 -1.7801 0
M  V30 5363 H 530.876 0.687423 -3.82268 0
M  V30 5364 H 532.608 0.528343 -4.01236 0
M  V30 5365 H 529.363 -1.42704 -4.51589 0
M  V30 5366 H 529.787 -3.81746 -5.59106 0
M  V30 5367 H 534.429 -1.39433 -3.99147 0
M  V30 5368 H 532.147 -5.32894 -6.07495 0
M  V30 5369 H 535.733 -3.35234 -4.75509 0
M  V30 5370 H 534.613 -5.29398 -5.78539 0
M  V30 5371 N 532.116 1.54067 -0.331816 0
M  V30 5372 C 533.346 2.04833 0.269605 0
M  V30 5373 C 533.754 1.20714 1.45687 0
M  V30 5374 O 533.097 0.232539 1.82222 0
M  V30 5375 C 533.159 3.51386 0.759499 0
M  V30 5376 C 532.823 4.55971 -0.306557 0
M  V30 5377 C 533.82 5.07126 -1.14538 0
M  V30 5378 C 531.505 5.00216 -0.457116 0
M  V30 5379 C 533.499 6.01096 -2.12042 0
M  V30 5380 C 531.186 5.93999 -1.43556 0
M  V30 5381 C 532.184 6.44326 -2.26568 0
M  V30 5382 O 531.872 7.36267 -3.22749 0
M  V30 5383 H 531.604 0.673509 0.0579763 0
M  V30 5384 H 534.158 1.99748 -0.478521 0
M  V30 5385 H 532.388 3.53896 1.55867 0
M  V30 5386 H 534.077 3.85184 1.28017 0
M  V30 5387 H 534.843 4.73716 -1.04009 0
M  V30 5388 H 530.722 4.60652 0.179142 0
M  V30 5389 H 534.266 6.40302 -2.76873 0
M  V30 5390 H 530.163 6.26825 -1.54146 0
M  V30 5391 H 530.931 7.54165 -3.18083 0
M  V30 5392 N 533.594 0.0601682 1.57485 0
M  V30 5393 C 534.526 -0.94047 2.09016 0
M  V30 5394 C 535.539 -1.26897 1.01985 0
M  V30 5395 O 536.728 -1.22819 1.29529 0
M  V30 5396 C 533.828 -2.25955 2.52582 0
M  V30 5397 C 533.001 -2.11163 3.83052 0
M  V30 5398 C 532.06 -3.26273 4.12835 0
M  V30 5399 O 531.086 -3.01779 4.82616 0
M  V30 5400 N 532.288 -4.51022 3.65458 0
M  V30 5401 H 535.053 -0.500578 2.9549 0
M  V30 5402 H 532.614 -0.125852 1.6141 0
M  V30 5403 H 534.606 -3.01846 2.69575 0
M  V30 5404 H 533.176 -2.61481 1.71308 0
M  V30 5405 H 532.396 -1.19808 3.75552 0
M  V30 5406 H 533.684 -1.98517 4.68475 0
M  V30 5407 H 533.082 -4.73811 3.09062 0
M  V30 5408 H 531.639 -5.23978 3.87673 0
M  V30 5409 N 535.072 -1.5615 -0.213296 0
M  V30 5410 C 536.3 -1.83638 -0.953139 0
M  V30 5411 C 536.715 -0.640362 -1.77609 0
M  V30 5412 O 536.072 0.391071 -1.78261 0
M  V30 5413 C 536.123 -3.09735 -1.86405 0
M  V30 5414 O 535.844 -4.24723 -1.07435 0
M  V30 5415 C 537.345 -3.5027 -2.71709 0
M  V30 5416 H 534.565 -0.610263 -0.278962 0
M  V30 5417 H 537.109 -2.03247 -0.226035 0
M  V30 5418 H 535.264 -2.92077 -2.545 0
M  V30 5419 H 535.678 -4.9641 -1.69343 0
M  V30 5420 H 537.152 -4.41515 -3.31313 0
M  V30 5421 H 537.629 -2.72406 -3.44516 0
M  V30 5422 H 538.235 -3.70396 -2.09015 0
M  V30 5423 N 536.55 0.480323 -1.50102 0
M  V30 5424 C 537.497 1.57946 -1.6829 0
M  V30 5425 C 538.467 1.57611 -0.524223 0
M  V30 5426 O 539.652 1.75282 -0.753709 0
M  V30 5427 C 536.792 2.95978 -1.77457 0
M  V30 5428 C 535.905 3.06173 -3.04766 0
M  V30 5429 C 535.04 4.35063 -3.04784 0
M  V30 5430 C 534.079 4.38966 -4.26586 0
M  V30 5431 N 533.216 5.59314 -4.24396 0
M  V30 5432 H 538.056 1.41743 -2.62131 0
M  V30 5433 H 535.593 0.689304 -1.2995 0
M  V30 5434 H 537.551 3.76011 -1.80752 0
M  V30 5435 H 536.181 3.10837 -0.870637 0
M  V30 5436 H 535.233 2.19071 -3.10986 0
M  V30 5437 H 536.545 3.04916 -3.9475 0
M  V30 5438 H 535.699 5.23436 -3.06757 0
M  V30 5439 H 534.438 4.38915 -2.12614 0
M  V30 5440 H 533.443 3.48992 -4.24835 0
M  V30 5441 H 534.668 4.36813 -5.19972 0
M  V30 5442 H 532.614 5.63969 -3.35074 0
M  V30 5443 H 532.531 5.5976 -5.08138 0
M  V30 5444 H 533.799 6.49837 -4.30502 0
M  V30 5445 N 538.028 1.39524 0.732853 0
M  V30 5446 C 539.258 1.3994 1.51988 0
M  V30 5447 C 539.666 -0.00727973 1.89199 0
M  V30 5448 O 539.009 -0.989521 1.54771 0
M  V30 5449 C 539.071 2.21026 2.83527 0
M  V30 5450 C 538.735 3.69633 2.68738 0
M  V30 5451 C 539.732 4.62665 2.37143 0
M  V30 5452 C 537.417 4.13244 2.85542 0
M  V30 5453 C 539.411 5.97291 2.22536 0
M  V30 5454 C 537.098 5.47945 2.70554 0
M  V30 5455 C 538.096 6.39783 2.39097 0
M  V30 5456 O 537.784 7.72002 2.24204 0
M  V30 5457 H 537.516 0.479795 0.476206 0
M  V30 5458 H 540.07 1.8399 0.913054 0
M  V30 5459 H 538.3 1.71728 3.46477 0
M  V30 5460 H 539.989 2.13594 3.45156 0
M  V30 5461 H 540.755 4.30272 2.2381 0
M  V30 5462 H 536.634 3.42094 3.09019 0
M  V30 5463 H 540.178 6.68939 1.97905 0
M  V30 5464 H 536.075 5.79928 2.83466 0
M  V30 5465 H 536.843 7.8275 2.39258 0
M  V30 5466 N 539.506 -0.963266 1.24736 0
M  V30 5467 C 540.416 -2.09246 1.06082 0
M  V30 5468 C 541.432 -1.74 0.000363101 0
M  V30 5469 O 542.608 -2.0041 0.199479 0
M  V30 5470 C 539.673 -3.40115 0.672498 0
M  V30 5471 C 538.734 -3.89282 1.80993 0
M  V30 5472 C 537.967 -5.13905 1.44004 0
M  V30 5473 O 538.19 -5.69434 0.331835 0
M  V30 5474 O 537.124 -5.57566 2.26723 0
M  V30 5475 H 540.95 -2.27881 2.00759 0
M  V30 5476 H 538.535 -1.07649 1.03595 0
M  V30 5477 H 540.417 -4.18797 0.467668 0
M  V30 5478 H 539.092 -3.22771 -0.245102 0
M  V30 5479 H 537.999 -3.11642 2.06955 0
M  V30 5480 H 539.332 -4.1111 2.70646 0
M  V30 5481 N 540.985 -1.06182 -1.16461 0
M  V30 5482 C 541.895 -0.682671 -2.24448 0
M  V30 5483 C 542.911 0.30078 -1.71381 0
M  V30 5484 O 544.087 0.150376 -2.00838 0
M  V30 5485 C 541.152 -0.0737202 -3.46622 0
M  V30 5486 C 540.213 -1.10889 -4.14731 0
M  V30 5487 C 539.446 -0.528908 -5.31073 0
M  V30 5488 O 539.669 0.65868 -5.66584 0
M  V30 5489 O 538.603 -1.26805 -5.88391 0
M  V30 5490 H 542.429 -1.58291 -2.59187 0
M  V30 5491 H 540.014 -0.834013 -1.23954 0
M  V30 5492 H 541.896 0.264192 -4.20571 0
M  V30 5493 H 540.571 0.800015 -3.13658 0
M  V30 5494 H 539.478 -1.49896 -3.42756 0
M  V30 5495 H 540.811 -1.95412 -4.51747 0
M  V30 5496 N 542.463 1.3308 -0.844243 0
M  V30 5497 C 543.393 2.3161 -0.296493 0
M  V30 5498 C 544.374 1.59215 0.598707 0
M  V30 5499 O 545.559 1.87077 0.521134 0
M  V30 5500 C 542.689 3.43313 0.524762 0
M  V30 5501 C 541.643 4.27115 -0.275106 0
M  V30 5502 C 540.969 5.30483 0.670236 0
M  V30 5503 C 542.269 5.00443 -1.49514 0
M  V30 5504 H 543.963 2.77672 -1.11976 0
M  V30 5505 H 541.509 1.33496 -0.539899 0
M  V30 5506 H 543.462 4.11273 0.918298 0
M  V30 5507 H 542.186 2.95952 1.3813 0
M  V30 5508 H 540.845 3.60787 -0.650267 0
M  V30 5509 H 540.493 4.79379 1.52332 0
M  V30 5510 H 540.193 5.87435 0.139123 0
M  V30 5511 H 541.717 6.01308 1.06117 0
M  V30 5512 H 543.131 5.61141 -1.17447 0
M  V30 5513 H 541.528 5.67071 -1.96343 0
M  V30 5514 H 542.598 4.28906 -2.26202 0
M  V30 5515 N 543.941 0.601185 1.45683 0
M  V30 5516 C 544.873 -0.159446 2.28645 0
M  V30 5517 C 545.886 -0.837882 1.39583 0
M  V30 5518 O 547.075 -0.704344 1.64016 0
M  V30 5519 C 544.175 -1.24641 3.15147 0
M  V30 5520 C 543.348 -0.656334 4.32448 0
M  V30 5521 C 542.407 -1.63337 5.00208 0
M  V30 5522 O 541.433 -1.16217 5.57209 0
M  V30 5523 N 542.635 -2.96773 4.98905 0
M  V30 5524 H 545.4 0.5524 2.94565 0
M  V30 5525 H 542.961 0.440223 1.558 0
M  V30 5526 H 544.953 -1.8997 3.57342 0
M  V30 5527 H 543.523 -1.86087 2.51178 0
M  V30 5528 H 542.743 0.174879 3.93812 0
M  V30 5529 H 544.031 -0.242211 5.08223 0
M  V30 5530 H 543.429 -3.37662 4.53873 0
M  V30 5531 H 541.986 -3.57541 5.44984 0
M  V30 5532 N 545.419 -1.53889 0.339982 0
M  V30 5533 C 546.351 -2.22435 -0.55275 0
M  V30 5534 C 547.364 -1.22975 -1.06681 0
M  V30 5535 O 548.553 -1.49351 -0.977575 0
M  V30 5536 C 545.653 -2.8882 -1.77302 0
M  V30 5537 C 544.826 -4.14563 -1.39486 0
M  V30 5538 C 543.885 -4.64391 -2.47442 0
M  V30 5539 O 542.911 -5.28687 -2.10899 0
M  V30 5540 N 544.113 -4.40015 -3.78639 0
M  V30 5541 H 546.878 -2.9968 0.0342669 0
M  V30 5542 H 544.439 -1.61068 0.16394 0
M  V30 5543 H 546.431 -3.19072 -2.48948 0
M  V30 5544 H 545.001 -2.15182 -2.26749 0
M  V30 5545 H 544.221 -3.90896 -0.509321 0
M  V30 5546 H 545.509 -4.96362 -1.11813 0
M  V30 5547 H 544.907 -3.88586 -4.11118 0
M  V30 5548 H 543.464 -4.74881 -4.46465 0
M  V30 5549 N 546.897 -0.0685191 -1.57451 0
M  V30 5550 C 548.125 0.610462 -1.97689 0
M  V30 5551 C 548.54 1.63346 -0.946758 0
M  V30 5552 O 547.897 1.82377 0.0669868 0
M  V30 5553 C 547.948 1.28196 -3.38006 0
M  V30 5554 O 547.669 0.299906 -4.37072 0
M  V30 5555 C 549.17 2.04907 -3.931 0
M  V30 5556 H 546.39 0.165689 -0.650222 0
M  V30 5557 H 548.934 -0.139953 -2.04021 0
M  V30 5558 H 547.089 1.98348 -3.32771 0
M  V30 5559 H 547.503 0.78126 -5.18649 0
M  V30 5560 H 548.977 2.47287 -4.93511 0
M  V30 5561 H 549.454 2.9043 -3.29465 0
M  V30 5562 H 550.06 1.39629 -4.01726 0
M  V30 5563 N 548.375 1.56261 0.205012 0
M  V30 5564 C 549.338 1.92908 1.23771 0
M  V30 5565 C 550.338 0.809208 1.38955 0
M  V30 5566 O 551.528 1.07676 1.36936 0
M  V30 5567 C 548.66 2.19442 2.60879 0
M  V30 5568 H 549.853 2.85287 0.924728 0
M  V30 5569 H 547.406 1.49798 0.446125 0
M  V30 5570 H 548.141 1.29668 2.97248 0
M  V30 5571 H 547.926 3.0104 2.51232 0
M  V30 5572 H 549.416 2.48833 3.35368 0
M  V30 5573 N 549.853 -0.472356 1.50355 0
M  V30 5574 C 551.101 -1.22211 1.60962 0
M  V30 5575 C 551.422 -1.92497 0.311439 0
M  V30 5576 O 550.692 -1.8405 -0.671002 0
M  V30 5577 H 549.272 -0.454092 0.593135 0
M  V30 5578 H 551.934 -0.544977 1.87126 0
M  V30 5579 H 551.03 -1.9707 2.42012 0
M  V30 5580 N 551.331 -1.39911 -0.725443 0
M  V30 5581 C 552.747 -1.21725 -1.03224 0
M  V30 5582 C 552.947 -0.0855224 -2.01318 0
M  V30 5583 O 552.003 0.55976 -2.46217 0
M  V30 5584 C 553.316 -2.55511 -1.58539 0
M  V30 5585 C 554.864 -2.62439 -1.70572 0
M  V30 5586 C 555.339 -3.9647 -2.29294 0
M  V30 5587 N 556.83 -3.98159 -2.36692 0
M  V30 5588 C 557.565 -4.98647 -2.83088 0
M  V30 5589 N 557.061 -6.0953 -3.2931 0
M  V30 5590 N 558.854 -4.8602 -2.82384 0
M  V30 5591 H 551.005 -2.12267 -0.075048 0
M  V30 5592 H 553.268 -0.943136 -0.0959066 0
M  V30 5593 H 552.974 -3.38926 -0.939249 0
M  V30 5594 H 552.848 -2.75905 -2.57208 0
M  V30 5595 H 555.235 -1.79401 -2.34306 0
M  V30 5596 H 555.316 -2.45885 -0.705297 0
M  V30 5597 H 554.96 -4.79942 -1.66186 0
M  V30 5598 H 554.89 -4.10349 -3.30032 0
M  V30 5599 H 557.381 -3.18085 -2.04035 0
M  V30 5600 H 557.694 -6.82106 -3.6325 0
M  V30 5601 H 556.039 -6.1311 -3.27294 0
M  V30 5602 H 559.23 -3.98493 -2.45603 0
M  V30 5603 H 559.403 -5.64478 -3.18226 0
M  V30 5604 N 552.809 0.956637 -1.25245 0
M  V30 5605 C 553.759 2.03841 -1.02141 0
M  V30 5606 C 554.743 1.60848 0.0410058 0
M  V30 5607 O 555.935 1.76142 -0.174084 0
M  V30 5608 C 553.064 3.37282 -0.639963 0
M  V30 5609 C 552.15 3.86805 -1.73903 0
M  V30 5610 N 552.541 4.09143 -2.97381 0
M  V30 5611 C 550.839 4.15574 -1.61909 0
M  V30 5612 C 551.54 4.49923 -3.68707 0
M  V30 5613 N 550.516 4.55737 -2.96318 0
M  V30 5614 H 554.318 2.19102 -1.95886 0
M  V30 5615 H 551.832 1.1413 -1.15534 0
M  V30 5616 H 553.829 4.14403 -0.455643 0
M  V30 5617 H 552.489 3.23401 0.29018 0
M  V30 5618 H 553.5 3.96275 -3.33447 0
M  V30 5619 H 550.177 4.10566 -0.757764 0
M  V30 5620 H 551.567 4.75526 -4.74684 0
M  V30 5621 N 554.287 1.06798 1.15896 0
M  V30 5622 C 555.535 0.786211 1.8618 0
M  V30 5623 C 555.856 -0.689547 1.82401 0
M  V30 5624 O 555.126 -1.49913 1.26107 0
M  V30 5625 H 553.706 0.287843 0.689315 0
M  V30 5626 H 556.368 1.35055 1.40521 0
M  V30 5627 H 555.464 1.1157 2.91477 0
M  V30 5628 N 555.766 -1.3263 0.851289 0
M  V30 5629 C 557.043 -1.91982 0.374448 0
M  V30 5630 C 557.423 -1.77568 -1.14161 0
M  V30 5631 O 556.771 -1.1717 -1.96172 0
M  V30 5632 C 556.981 -3.38862 0.835088 0
M  V30 5633 C 558.329 -4.15999 0.850309 0
M  V30 5634 O 559.353 -3.47566 0.779505 0
M  V30 5635 O 558.212 -5.38189 0.949481 0
M  V30 5636 H 555.306 -0.819846 0.10854 0
M  V30 5637 H 557.852 -1.41422 0.937966 0
M  V30 5638 H 556.624 -3.43281 1.87814 0
M  V30 5639 H 556.247 -3.96821 0.248833 0
M  V30 5640 N 557.244 -0.608902 -1.45362 0
M  V30 5641 C 558.521 -0.0365378 -1.95566 0
M  V30 5642 C 558.901 1.43169 -1.55131 0
M  V30 5643 O 558.249 2.1349 -0.814513 0
M  V30 5644 C 558.459 -0.236026 -3.48201 0
M  V30 5645 C 559.807 -0.117518 -4.24437 0
M  V30 5646 O 560.831 -0.166217 -3.55812 0
M  V30 5647 O 559.69 -0.00372127 -5.465 0
M  V30 5648 H 556.784 0.0349874 -0.82626 0
M  V30 5649 H 559.33 -0.679055 -1.55521 0
M  V30 5650 H 558.102 -1.25569 -3.70605 0
M  V30 5651 H 557.725 0.441691 -3.95139 0
M  V30 5652 N 558.722 1.53707 -0.348139 0
M  V30 5653 C 559.652 2.28111 0.498766 0
M  V30 5654 C 560.633 1.29851 1.09876 0
M  V30 5655 O 561.818 1.587 1.11928 0
M  V30 5656 C 558.948 3.05735 1.64753 0
M  V30 5657 C 557.902 4.11537 1.17565 0
M  V30 5658 C 557.228 4.77142 2.4133 0
M  V30 5659 C 558.528 5.21587 0.272844 0
M  V30 5660 H 560.222 2.99152 -0.121934 0
M  V30 5661 H 557.768 1.43875 -0.0600842 0
M  V30 5662 H 559.721 3.56526 2.24649 0
M  V30 5663 H 558.445 2.32354 2.2952 0
M  V30 5664 H 557.104 3.61665 0.599483 0
M  V30 5665 H 556.752 4.0035 3.04514 0
M  V30 5666 H 556.452 5.48626 2.10436 0
M  V30 5667 H 557.976 5.30719 3.01943 0
M  V30 5668 H 559.39 5.67986 0.778779 0
M  V30 5669 H 557.787 6.00074 0.0555849 0
M  V30 5670 H 558.857 4.79969 -0.689785 0
M  V30 5671 N 560.2 0.0768682 1.57412 0
M  V30 5672 C 561.616 -0.279772 1.57129 0
M  V30 5673 C 561.816 -1.69688 1.08666 0
M  V30 5674 O 560.872 -2.40953 0.754843 0
M  V30 5675 C 562.185 -0.0848055 3.0058 0
M  V30 5676 C 563.733 -0.153954 3.12621 0
M  V30 5677 C 564.208 0.0127946 4.57998 0
M  V30 5678 N 565.699 -0.0426435 4.6318 0
M  V30 5679 C 566.434 0.0618892 5.73367 0
M  V30 5680 N 565.93 0.220229 6.9245 0
M  V30 5681 N 567.723 0.00446072 5.621 0
M  V30 5682 H 559.874 1.00297 1.87228 0
M  V30 5683 H 562.137 0.391565 0.863354 0
M  V30 5684 H 561.843 0.89325 3.40168 0
M  V30 5685 H 561.717 -0.834961 3.67843 0
M  V30 5686 H 564.104 -1.1225 2.72917 0
M  V30 5687 H 564.185 0.627389 2.47987 0
M  V30 5688 H 563.829 0.978128 4.98392 0
M  V30 5689 H 563.759 -0.788016 5.20671 0
M  V30 5690 H 566.25 -0.163226 3.77547 0
M  V30 5691 H 566.563 0.291999 7.72248 0
M  V30 5692 H 564.908 0.255658 6.9453 0
M  V30 5693 H 568.099 -0.117979 4.67951 0
M  V30 5694 H 568.272 0.0893796 6.47938 0
M  V30 5695 N 561.678 -1.56367 -0.196722 0
M  V30 5696 C 562.626 -1.95304 -1.2633 0
M  V30 5697 C 563.62 -0.838252 -1.47206 0
M  V30 5698 O 564.826 -1.02325 -1.48087 0
M  V30 5699 H 561.201 -0.621013 -0.424083 0
M  V30 5700 H 563.172 -2.84254 -0.907879 0
M  V30 5701 C 561.921 -2.3074 -2.60104 0
M  V30 5702 H 561.244 -3.16047 -2.44856 0
M  V30 5703 H 562.684 -2.61849 -3.33484 0
M  V30 5704 C 561.143 -1.14143 -3.16975 0
M  V30 5705 O 561.673 -0.415602 -3.99544 0
M  V30 5706 N 559.879 -0.91867 -2.75697 0
M  V30 5707 H 559.426 -1.51065 -2.08656 0
M  V30 5708 H 559.384 -0.140321 -3.14087 0
M  V30 5709 N 563.156 0.464375 -1.50603 0
M  V30 5710 C 564.384 1.23907 -1.65695 0
M  V30 5711 C 564.799 1.85658 -0.343027 0
M  V30 5712 O 564.156 1.69529 0.675739 0
M  V30 5713 C 564.207 2.3429 -2.75301 0
M  V30 5714 O 563.928 1.7507 -4.01599 0
M  V30 5715 C 565.429 3.25051 -3.01424 0
M  V30 5716 H 562.649 0.374485 -0.556778 0
M  V30 5717 H 565.193 0.55353 -1.96866 0
M  V30 5718 H 563.348 2.98607 -2.46804 0
M  V30 5719 H 563.762 2.47812 -4.62266 0
M  V30 5720 H 565.236 3.98699 -3.81763 0
M  V30 5721 H 565.713 3.84227 -2.12758 0
M  V30 5722 H 566.319 2.66463 -3.31477 0
M  V30 5723 N 564.634 1.40294 0.718013 0
M  V30 5724 C 565.581 1.40367 1.8321 0
M  V30 5725 C 566.551 0.260952 1.64037 0
M  V30 5726 O 567.736 0.458648 1.85205 0
M  V30 5727 C 564.876 1.26965 3.20895 0
M  V30 5728 C 563.989 2.50922 3.51656 0
M  V30 5729 C 563.124 2.29981 4.78834 0
M  V30 5730 C 562.163 3.49527 5.02491 0
M  V30 5731 N 561.3 3.27796 6.20882 0
M  V30 5732 H 566.14 2.35593 1.82482 0
M  V30 5733 H 563.677 1.17012 0.891444 0
M  V30 5734 H 565.635 1.17202 4.00399 0
M  V30 5735 H 564.265 0.353591 3.20858 0
M  V30 5736 H 563.317 2.71223 2.66725 0
M  V30 5737 H 564.629 3.39913 3.65048 0
M  V30 5738 H 563.783 2.17558 5.66351 0
M  V30 5739 H 562.522 1.38411 4.67647 0
M  V30 5740 H 561.527 3.6243 4.1343 0
M  V30 5741 H 562.752 4.42021 5.15553 0
M  V30 5742 H 560.698 2.38906 6.1095 0
M  V30 5743 H 560.615 4.10351 6.34939 0
M  V30 5744 H 561.883 3.19101 7.11193 0
M  V30 5745 N 566.112 -0.949982 1.2575 0
M  V30 5746 C 567.062 -2.03297 1.03221 0
M  V30 5747 C 568.046 -1.60867 -0.0324751 0
M  V30 5748 O 569.238 -1.76047 0.183423 0
M  V30 5749 C 566.367 -3.36938 0.657841 0
M  V30 5750 C 565.453 -3.85878 1.75952 0
M  V30 5751 N 565.844 -4.0756 2.99547 0
M  V30 5752 C 564.142 -4.14709 1.64111 0
M  V30 5753 C 564.843 -4.47961 3.71087 0
M  V30 5754 N 563.819 -4.5416 2.98731 0
M  V30 5755 H 567.621 -2.1806 1.97045 0
M  V30 5756 H 565.135 -1.13516 1.16138 0
M  V30 5757 H 567.132 -4.14155 0.477614 0
M  V30 5758 H 565.792 -3.2355 -0.273025 0
M  V30 5759 H 566.803 -3.94501 3.35544 0
M  V30 5760 H 563.48 -4.10158 0.779527 0
M  V30 5761 H 564.87 -4.73002 4.77199 0
M  V30 5762 N 567.59 -1.07411 -1.15328 0
M  V30 5763 C 568.5 -0.706438 -2.23711 0
M  V30 5764 C 569.516 0.282586 -1.7169 0
M  V30 5765 O 570.692 0.129066 -2.00986 0
M  V30 5766 C 567.757 -0.11048 -3.46524 0
M  V30 5767 C 566.818 -1.15282 -4.13532 0
M  V30 5768 C 566.051 -0.585205 -5.30482 0
M  V30 5769 O 566.274 0.598549 -5.67251 0
M  V30 5770 O 565.208 -1.33039 -5.87013 0
M  V30 5771 H 569.034 -1.61031 -2.57493 0
M  V30 5772 H 566.619 -0.847113 -1.23062 0
M  V30 5773 H 568.501 0.21957 -4.20828 0
M  V30 5774 H 567.176 0.766703 -3.14489 0
M  V30 5775 H 566.083 -1.53523 -3.41147 0
M  V30 5776 H 567.416 -2.00192 -4.49649 0
M  V30 5777 N 569.068 1.32177 -0.85831 0
M  V30 5778 C 570.317 1.96392 -0.459689 0
M  V30 5779 C 570.63 1.68659 0.990632 0
M  V30 5780 O 571.836 2.26641 1.49485 0
M  V30 5781 C 570.292 3.51542 -0.7711 0
M  V30 5782 C 569.9 3.8813 -2.2374 0
M  V30 5783 C 571.644 4.2221 -0.44038 0
M  V30 5784 C 569.551 5.36341 -2.49183 0
M  V30 5785 H 568.481 0.735007 -0.168169 0
M  V30 5786 H 571.132 1.50518 -1.0496 0
M  V30 5787 H 569.514 3.95846 -0.11058 0
M  V30 5788 H 570.688 3.54824 -2.94001 0
M  V30 5789 H 569.003 3.30497 -2.533 0
M  V30 5790 H 571.6 5.31234 -0.607855 0
M  V30 5791 H 571.943 4.11683 0.618291 0
M  V30 5792 H 572.476 3.83502 -1.05695 0
M  V30 5793 H 569.215 5.51892 -3.53689 0
M  V30 5794 H 568.735 5.7104 -1.83504 0
M  V30 5795 H 570.414 6.03466 -2.33318 0
M  V30 5796 N 570.547 0.616602 1.45037 0
M  V30 5797 C 571.772 0.120192 2.07051 0
M  V30 5798 C 572.197 -1.19008 1.45666 0
M  V30 5799 O 571.555 -1.7267 0.552692 0
M  V30 5800 C 571.603 0.00354901 3.606 0
M  V30 5801 O 570.707 -1.04431 3.98958 0
M  V30 5802 H 570.048 0.0781599 0.659384 0
M  V30 5803 H 572.578 0.849167 1.86146 0
M  V30 5804 H 572.588 -0.191754 4.07549 0
M  V30 5805 H 571.263 0.960239 4.04663 0
M  V30 5806 H 569.84 -0.824749 3.63665 0
M  V30 5807 N 572.025 -1.5352 0.356285 0
M  V30 5808 C 572.935 -2.29151 -0.502712 0
M  V30 5809 C 573.951 -1.34753 -1.1008 0
M  V30 5810 O 575.127 -1.67803 -1.11374 0
M  V30 5811 C 572.192 -3.05911 -1.63154 0
M  V30 5812 C 571.253 -4.15958 -1.06194 0
M  V30 5813 C 570.486 -4.8905 -2.13696 0
M  V30 5814 O 570.709 -4.61919 -3.34645 0
M  V30 5815 O 569.643 -5.75202 -1.77275 0
M  V30 5816 H 573.469 -3.03492 0.112466 0
M  V30 5817 H 571.054 -1.4891 0.120942 0
M  V30 5818 H 572.936 -3.53874 -2.28804 0
M  V30 5819 H 571.611 -2.34415 -2.23229 0
M  V30 5820 H 570.518 -3.7227 -0.369603 0
M  V30 5821 H 571.851 -4.89593 -0.505872 0
M  V30 5822 N 573.503 -0.0852151 -1.57369 0
M  V30 5823 C 574.436 0.913608 -2.09113 0
M  V30 5824 C 575.414 1.28264 -0.999358 0
M  V30 5825 O 576.598 1.3896 -1.27367 0
M  V30 5826 C 573.725 2.21777 -2.55993 0
M  V30 5827 C 572.771 1.99932 -3.76735 0
M  V30 5828 S 573.604 1.24637 -5.20794 0
M  V30 5829 C 574.76 2.56304 -5.71016 0
M  V30 5830 H 574.993 0.473369 -2.93507 0
M  V30 5831 H 572.526 0.127856 -1.5387 0
M  V30 5832 H 574.484 2.96726 -2.83662 0
M  V30 5833 H 573.145 2.62923 -1.71843 0
M  V30 5834 H 572.338 2.96482 -4.07571 0
M  V30 5835 H 571.94 1.33116 -3.49509 0
M  V30 5836 H 574.232 3.5233 -5.78679 0
M  V30 5837 H 575.175 2.3006 -6.69685 0
M  V30 5838 H 575.583 2.64125 -4.98897 0
M  V30 5839 N 574.981 1.5647 0.188427 0
M  V30 5840 C 575.929 1.95971 1.25293 0
M  V30 5841 C 576.923 0.846047 1.4676 0
M  V30 5842 O 578.129 1.03109 1.47542 0
M  V30 5843 H 574.504 0.623253 0.420784 0
M  V30 5844 H 576.475 2.84731 0.892792 0
M  V30 5845 C 575.224 2.32116 2.58877 0
M  V30 5846 H 574.547 3.17341 2.43176 0
M  V30 5847 H 575.987 2.63613 3.3209 0
M  V30 5848 C 574.446 1.15823 3.16365 0
M  V30 5849 O 574.976 0.436785 3.99318 0
M  V30 5850 N 573.182 0.933278 2.75206 0
M  V30 5851 H 572.729 1.52169 2.07852 0
M  V30 5852 H 572.687 0.156976 3.14008 0
M  V30 5853 N 576.459 -0.456382 1.50847 0
M  V30 5854 C 577.875 -0.791345 1.386 0
M  V30 5855 C 578.075 -1.9633 0.453498 0
M  V30 5856 O 577.131 -2.52308 -0.0984353 0
M  V30 5857 C 578.444 -1.08959 2.80265 0
M  V30 5858 C 579.992 -1.19517 2.89283 0
M  V30 5859 C 580.467 -1.52647 4.31814 0
M  V30 5860 N 581.958 -1.59609 4.34832 0
M  V30 5861 C 582.693 -1.86777 5.42127 0
M  V30 5862 N 582.189 -2.11866 6.59609 0
M  V30 5863 N 583.982 -1.88402 5.29586 0
M  V30 5864 H 576.133 0.315746 2.1004 0
M  V30 5865 H 578.396 0.0787916 0.94472 0
M  V30 5866 H 578.102 -0.301355 3.50407 0
M  V30 5867 H 577.976 -2.02211 3.18419 0
M  V30 5868 H 580.363 -1.97406 2.19351 0
M  V30 5869 H 580.444 -0.242111 2.54652 0
M  V30 5870 H 580.088 -0.752922 5.02288 0
M  V30 5871 H 580.018 -2.49127 4.63943 0
M  V30 5872 H 582.509 -1.42201 3.50125 0
M  V30 5873 H 582.822 -2.31912 7.37182 0
M  V30 5874 H 581.167 -2.09228 6.62758 0
M  V30 5875 H 584.358 -1.68307 4.36795 0
M  V30 5876 H 584.531 -2.09238 6.13289 0
M  V30 5877 N 577.937 -1.40673 -0.710563 0
M  V30 5878 C 578.87 -1.35742 -1.83438 0
M  V30 5879 C 579.848 -0.226997 -1.61008 0
M  V30 5880 O 581.032 -0.411477 -1.83954 0
M  V30 5881 C 578.159 -1.11374 -3.19865 0
M  V30 5882 C 577.205 -2.26935 -3.61113 0
M  V30 5883 S 578.038 -3.89352 -3.67648 0
M  V30 5884 C 579.194 -3.67258 -5.06826 0
M  V30 5885 H 579.427 -2.30848 -1.87341 0
M  V30 5886 H 576.96 -1.27018 -0.877831 0
M  V30 5887 H 578.918 -0.980004 -3.9863 0
M  V30 5888 H 577.579 -0.179135 -3.13589 0
M  V30 5889 H 576.772 -2.0554 -4.60184 0
M  V30 5890 H 576.374 -2.36638 -2.89618 0
M  V30 5891 H 578.666 -3.26036 -5.93891 0
M  V30 5892 H 579.609 -4.65878 -5.33257 0
M  V30 5893 H 580.017 -3.0084 -4.77656 0
M  V30 5894 N 579.415 0.9433 -1.26252 0
M  V30 5895 C 580.664 1.68369 -1.11062 0
M  V30 5896 C 580.977 1.92514 0.346104 0
M  V30 5897 O 582.183 2.64358 0.618646 0
M  V30 5898 C 580.639 3.03171 -1.93946 0
M  V30 5899 C 580.247 2.86782 -3.4418 0
M  V30 5900 C 581.991 3.80916 -1.87359 0
M  V30 5901 C 579.898 4.17044 -4.19319 0
M  V30 5902 H 578.828 0.631469 -0.412023 0
M  V30 5903 H 581.479 1.04922 -1.50544 0
M  V30 5904 H 579.861 3.67587 -1.47296 0
M  V30 5905 H 581.035 2.31229 -3.98585 0
M  V30 5906 H 579.35 2.22482 -3.51981 0
M  V30 5907 H 581.947 4.77417 -2.40784 0
M  V30 5908 H 582.29 4.07658 -0.843857 0
M  V30 5909 H 582.823 3.2327 -2.31821 0
M  V30 5910 H 579.562 3.95487 -5.22753 0
M  V30 5911 H 579.082 4.72319 -3.69696 0
M  V30 5912 H 580.761 4.85513 -4.27651 0
M  V30 5913 N 580.893 1.08022 1.14757 0
M  V30 5914 C 581.825 0.664566 2.19354 0
M  V30 5915 C 582.838 -0.286374 1.60261 0
M  V30 5916 O 584.027 -0.0746362 1.78344 0
M  V30 5917 C 581.127 -0.0434634 3.38872 0
M  V30 5918 C 580.3 0.925381 4.27499 0
M  V30 5919 C 579.359 0.253398 5.2559 0
M  V30 5920 O 578.385 0.896581 5.62094 0
M  V30 5921 N 579.587 -0.998263 5.71852 0
M  V30 5922 H 582.352 1.56438 2.55631 0
M  V30 5923 H 579.913 0.965788 1.29939 0
M  V30 5924 H 581.905 -0.503857 4.01551 0
M  V30 5925 H 580.475 -0.845321 3.00954 0
M  V30 5926 H 579.695 1.56472 3.61815 0
M  V30 5927 H 580.983 1.58203 4.8358 0
M  V30 5928 H 580.381 -1.54063 5.44317 0
M  V30 5929 H 578.938 -1.40222 6.36538 0
M  V30 5930 N 582.371 -1.3172 0.865308 0
M  V30 5931 C 583.787 -1.4958 0.556596 0
M  V30 5932 C 583.987 -1.79763 -0.910353 0
M  V30 5933 O 583.043 -1.87351 -1.6928 0
M  V30 5934 C 584.356 -2.63277 1.45279 0
M  V30 5935 C 585.904 -2.77161 1.45433 0
M  V30 5936 C 586.379 -3.93949 2.33598 0
M  V30 5937 N 587.87 -4.01228 2.31453 0
M  V30 5938 C 588.605 -4.90855 2.96393 0
M  V30 5939 N 588.101 -5.85416 3.70486 0
M  V30 5940 N 589.894 -4.84063 2.85726 0
M  V30 5941 H 582.045 -1.10396 1.81456 0
M  V30 5942 H 584.308 -0.54507 0.775631 0
M  V30 5943 H 584.014 -2.47734 2.49641 0
M  V30 5944 H 583.888 -3.59309 1.14792 0
M  V30 5945 H 586.275 -2.9212 0.41831 0
M  V30 5946 H 586.356 -1.8181 1.79941 0
M  V30 5947 H 586 -3.79748 3.37274 0
M  V30 5948 H 585.93 -4.88598 1.96417 0
M  V30 5949 H 588.421 -3.3357 1.77593 0
M  V30 5950 H 588.734 -6.50525 4.17178 0
M  V30 5951 H 587.079 -5.85409 3.74594 0
M  V30 5952 H 590.27 -4.09163 2.27384 0
M  V30 5953 H 590.443 -5.53708 3.36617 0
M  V30 5954 N 583.85 -0.624285 -1.44708 0
M  V30 5955 C 584.779 0.0717025 -2.3339 0
M  V30 5956 C 585.76 0.841814 -1.47809 0
M  V30 5957 O 586.946 0.809056 -1.76544 0
M  V30 5958 C 584.076 1.05852 -3.30776 0
M  V30 5959 C 583.029 0.400503 -4.26122 0
M  V30 5960 C 582.356 1.49674 -5.13324 0
M  V30 5961 C 583.656 -0.688924 -5.17737 0
M  V30 5962 H 585.35 -0.668819 -2.91834 0
M  V30 5963 H 582.896 -0.32308 -1.40329 0
M  V30 5964 H 584.849 1.5541 -3.91696 0
M  V30 5965 H 583.572 1.82984 -2.70526 0
M  V30 5966 H 582.231 -0.0743687 -3.66525 0
M  V30 5967 H 581.88 2.25877 -4.49431 0
M  V30 5968 H 581.58 1.06188 -5.77926 0
M  V30 5969 H 583.104 1.99427 -5.77115 0
M  V30 5970 H 584.518 -0.276724 -5.72632 0
M  V30 5971 H 582.915 -1.04652 -5.90904 0
M  V30 5972 H 583.985 -1.55884 -4.5916 0
M  V30 5973 N 585.328 1.53329 -0.364422 0
M  V30 5974 C 586.744 1.59594 -0.0133165 0
M  V30 5975 C 586.944 1.37959 1.46865 0
M  V30 5976 O 586 1.18418 2.2301 0
M  V30 5977 C 587.313 2.97032 -0.468213 0
M  V30 5978 C 588.861 3.10138 -0.422334 0
M  V30 5979 C 589.336 4.49986 -0.853024 0
M  V30 5980 N 590.827 4.56098 -0.808037 0
M  V30 5981 C 591.562 5.62495 -1.11299 0
M  V30 5982 N 591.058 6.7665 -1.48717 0
M  V30 5983 N 592.851 5.52473 -1.03586 0
M  V30 5984 H 585.002 1.65644 -1.32951 0
M  V30 5985 H 587.265 0.77684 -0.543345 0
M  V30 5986 H 586.971 3.18 -1.5023 0
M  V30 5987 H 586.845 3.76918 0.145775 0
M  V30 5988 H 589.232 2.88881 0.602622 0
M  V30 5989 H 589.313 2.32263 -1.0718 0
M  V30 5990 H 588.957 4.7198 -1.87609 0
M  V30 5991 H 588.887 5.26289 -0.180819 0
M  V30 5992 H 591.378 3.74131 -0.532361 0
M  V30 5993 H 591.691 7.53776 -1.70415 0
M  V30 5994 H 590.036 6.78044 -1.52581 0
M  V30 5995 H 593.227 4.6217 -0.742736 0
M  V30 5996 H 593.4 6.35295 -1.27686 0
M  V30 5997 N 586.806 0.0935595 1.57322 0
M  V30 5998 C 587.769 -0.851426 2.12799 0
M  V30 5999 C 588.769 -1.21187 1.0569 0
M  V30 6000 O 589.959 -1.14156 1.31583 0
M  V30 6001 C 587.091 -2.14779 2.64731 0
M  V30 6002 H 588.284 -0.369733 2.97612 0
M  V30 6003 H 585.837 -0.155417 1.55525 0
M  V30 6004 H 586.572 -2.67437 1.83434 0
M  V30 6005 H 586.357 -1.89907 3.43042 0
M  V30 6006 H 587.847 -2.82383 3.07651 0
M  V30 6007 N 588.284 -1.56567 -0.180126 0
M  V30 6008 C 589.194 -1.98947 -1.24327 0
M  V30 6009 C 590.21 -0.899446 -1.4895 0
M  V30 6010 O 591.386 -1.20639 -1.61271 0
M  V30 6011 C 588.451 -2.33328 -2.56435 0
M  V30 6012 C 587.512 -3.56114 -2.39752 0
M  V30 6013 C 586.745 -3.88845 -3.65561 0
M  V30 6014 O 586.968 -3.22662 -4.70368 0
M  V30 6015 O 585.902 -4.82226 -3.60197 0
M  V30 6016 H 589.728 -2.89634 -0.913565 0
M  V30 6017 H 587.313 -1.44319 -0.386306 0
M  V30 6018 H 589.195 -2.5645 -3.34382 0
M  V30 6019 H 587.87 -1.45806 -2.89002 0
M  V30 6020 H 586.777 -3.38221 -1.59866 0
M  V30 6021 H 588.11 -4.4415 -2.12113 0
M  V30 6022 N 589.762 0.448376 -1.51087 0
M  V30 6023 C 591.011 1.19561 -1.62444 0
M  V30 6024 C 591.324 1.92602 -0.341151 0
M  V30 6025 O 592.53 2.69439 -0.333936 0
M  V30 6026 C 590.986 2.17373 -2.8684 0
M  V30 6027 C 590.594 1.5003 -4.22131 0
M  V30 6028 C 592.338 2.92597 -3.0755 0
M  V30 6029 C 590.245 2.46262 -5.37689 0
M  V30 6030 H 589.175 0.449975 -0.605011 0
M  V30 6031 H 591.826 0.463735 -1.77544 0
M  V30 6032 H 590.208 2.93948 -2.65349 0
M  V30 6033 H 591.382 0.790886 -4.53962 0
M  V30 6034 H 589.697 0.870011 -4.0721 0
M  V30 6035 H 592.294 3.64663 -3.91056 0
M  V30 6036 H 592.637 3.53306 -2.20183 0
M  V30 6037 H 593.17 2.23131 -3.29329 0
M  V30 6038 H 589.909 1.90258 -6.27281 0
M  V30 6039 H 589.429 3.15289 -5.10248 0
M  V30 6040 H 591.108 3.07623 -5.6919 0
M  V30 6041 N 591.24 1.41047 0.703093 0
M  V30 6042 C 592.517 1.30493 1.45708 0
M  V30 6043 C 592.897 -0.0709892 2.10981 0
M  V30 6044 O 592.245 -1.08471 2.01113 0
M  V30 6045 C 592.455 2.45287 2.48265 0
M  V30 6046 C 593.803 2.86104 3.13735 0
M  V30 6047 O 594.827 2.44971 2.58587 0
M  V30 6048 O 593.686 3.57206 4.13601 0
M  V30 6049 H 590.78 0.513144 0.648546 0
M  V30 6050 H 593.326 1.52995 0.734208 0
M  V30 6051 H 592.098 3.37135 1.98635 0
M  V30 6052 H 591.721 2.24622 3.28071 0
M  V30 6053 N 592.718 -0.936591 1.26751 0
M  V30 6054 C 593.666 -2.0573 1.08527 0
M  V30 6055 C 594.66 -1.69397 0.0108784 0
M  V30 6056 O 595.866 -1.79215 0.167915 0
M  V30 6057 H 592.241 -0.673691 0.334133 0
M  V30 6058 H 594.212 -2.1825 2.03493 0
M  V30 6059 C 592.961 -3.39738 0.739845 0
M  V30 6060 H 592.284 -3.68174 1.55845 0
M  V30 6061 H 593.724 -4.18955 0.652149 0
M  V30 6062 C 592.183 -3.32292 -0.555288 0
M  V30 6063 O 592.713 -3.68794 -1.59229 0
M  V30 6064 N 590.919 -2.85394 -0.54762 0
M  V30 6065 H 590.466 -2.55886 0.296667 0
M  V30 6066 H 590.424 -2.80795 -1.41427 0
M  V30 6067 N 594.196 -1.08629 -1.14182 0
M  V30 6068 C 595.442 -0.818556 -1.85546 0
M  V30 6069 C 595.775 0.654076 -1.82854 0
M  V30 6070 O 595.05 1.48099 -1.26083 0
M  V30 6071 C 595.333 -1.34397 -3.3408 0
M  V30 6072 C 595.186 -2.8821 -3.45333 0
M  V30 6073 C 596.505 -0.971069 -4.29253 0
M  V30 6074 H 593.624 -0.298821 -0.673702 0
M  V30 6075 H 596.266 -1.34629 -1.34071 0
M  V30 6076 H 594.416 -0.895064 -3.78049 0
M  V30 6077 H 596.088 -3.41488 -3.10134 0
M  V30 6078 H 594.331 -3.25756 -2.86471 0
M  V30 6079 H 595.002 -3.20047 -4.49749 0
M  V30 6080 H 597.478 -1.35809 -3.93313 0
M  V30 6081 H 596.354 -1.36586 -5.31635 0
M  V30 6082 H 596.615 0.121659 -4.41933 0
M  V30 6083 N 595.674 1.31259 -0.872281 0
M  V30 6084 C 596.621 2.28459 -0.327857 0
M  V30 6085 C 597.591 1.55831 0.574957 0
M  V30 6086 O 598.776 1.83965 0.506101 0
M  V30 6087 C 595.916 3.41985 0.462644 0
M  V30 6088 C 595.029 4.29458 -0.467949 0
M  V30 6089 C 594.164 5.30131 0.336903 0
M  V30 6090 C 593.203 6.0925 -0.58997 0
M  V30 6091 N 592.34 7.01872 0.178775 0
M  V30 6092 H 597.18 2.74414 -1.16193 0
M  V30 6093 H 594.717 1.34994 -0.584376 0
M  V30 6094 H 596.675 4.06547 0.936759 0
M  V30 6095 H 595.305 2.97134 1.2614 0
M  V30 6096 H 594.357 3.65318 -1.06052 0
M  V30 6097 H 595.669 4.84677 -1.17856 0
M  V30 6098 H 594.823 6.0038 0.873427 0
M  V30 6099 H 593.562 4.75573 1.08079 0
M  V30 6100 H 592.567 5.37889 -1.13823 0
M  V30 6101 H 593.792 6.65894 -1.33275 0
M  V30 6102 H 591.738 6.49721 0.905435 0
M  V30 6103 H 591.655 7.54522 -0.472452 0
M  V30 6104 H 592.923 7.76382 0.696454 0
M  V30 6105 N 597.152 0.631951 1.44375 0
M  V30 6106 C 598.099 -0.0724807 2.30686 0
M  V30 6107 C 599.069 -0.835975 1.43529 0
M  V30 6108 O 600.254 -0.816849 1.7243 0
M  V30 6109 C 597.394 -1.04753 3.28817 0
M  V30 6110 C 596.507 -0.282367 4.31076 0
M  V30 6111 C 595.642 -1.2493 5.163 0
M  V30 6112 C 594.681 -0.473349 6.10267 0
M  V30 6113 N 593.818 -1.39079 6.88187 0
M  V30 6114 H 598.658 0.669477 2.90383 0
M  V30 6115 H 596.195 0.341927 1.43071 0
M  V30 6116 H 598.153 -1.62623 3.842 0
M  V30 6117 H 596.783 -1.75661 2.70819 0
M  V30 6118 H 595.835 0.412268 3.78159 0
M  V30 6119 H 597.147 0.321955 4.9776 0
M  V30 6120 H 596.301 -1.89931 5.76204 0
M  V30 6121 H 595.04 -1.88755 4.49692 0
M  V30 6122 H 594.045 0.190142 5.49471 0
M  V30 6123 H 595.27 0.16019 6.78911 0
M  V30 6124 H 593.216 -2.01623 6.24247 0
M  V30 6125 H 593.133 -0.840513 7.51313 0
M  V30 6126 H 594.401 -2.02961 7.52613 0
M  V30 6127 N 598.631 -1.53133 0.372548 0
M  V30 6128 C 599.563 -2.23557 -0.505444 0
M  V30 6129 C 600.576 -1.25211 -1.04049 0
M  V30 6130 O 601.765 -1.51391 -0.945675 0
M  V30 6131 C 598.865 -2.92516 -1.71136 0
M  V30 6132 C 598.038 -4.17428 -1.30661 0
M  V30 6133 C 597.097 -4.69535 -2.37536 0
M  V30 6134 O 596.123 -5.33042 -1.99637 0
M  V30 6135 N 597.325 -4.47947 -3.6922 0
M  V30 6136 H 600.09 -2.9954 0.0978259 0
M  V30 6137 H 597.651 -1.60684 0.198068 0
M  V30 6138 H 599.643 -3.24281 -2.42124 0
M  V30 6139 H 598.213 -2.19944 -2.22134 0
M  V30 6140 H 597.433 -3.91888 -0.426292 0
M  V30 6141 H 598.721 -4.98622 -1.01259 0
M  V30 6142 H 598.119 -3.97219 -4.02783 0
M  V30 6143 H 596.676 -4.84245 -4.36292 0
M  V30 6144 N 600.109 -0.101901 -1.5727 0
M  V30 6145 C 601.349 0.563489 -1.96479 0
M  V30 6146 C 601.713 1.64926 -0.983021 0
M  V30 6147 O 602.914 2.37234 -1.26386 0
M  V30 6148 C 601.185 1.09809 -3.40113 0
M  V30 6149 S 602.744 1.7744 -4.01323 0
M  V30 6150 H 599.562 0.183675 -0.686866 0
M  V30 6151 H 602.164 -0.182922 -1.94642 0
M  V30 6152 H 600.868 0.296447 -4.09328 0
M  V30 6153 H 600.399 1.88018 -3.45562 0
M  V30 6154 H 602.414 3.0591 -3.90683 0
M  V30 6155 N 601.587 1.56661 0.17182 0
M  V30 6156 C 602.55 1.9549 1.19651 0
M  V30 6157 C 603.55 0.838501 1.37207 0
M  V30 6158 O 604.74 1.10556 1.34622 0
M  V30 6159 C 601.872 2.24927 2.56166 0
M  V30 6160 H 603.065 2.87184 0.864007 0
M  V30 6161 H 600.618 1.50711 0.41425 0
M  V30 6162 H 601.353 1.35944 2.94431 0
M  V30 6163 H 601.138 3.06301 2.4479 0
M  V30 6164 H 602.628 2.55891 3.30014 0
M  V30 6165 N 603.065 -0.440357 1.51323 0
M  V30 6166 C 604.013 -1.55492 1.72988 0
M  V30 6167 C 605.007 -1.58564 0.596138 0
M  V30 6168 O 606.213 -1.62345 0.777443 0
M  V30 6169 H 602.588 -0.516532 0.546533 0
M  V30 6170 H 604.559 -1.34392 2.66423 0
M  V30 6171 C 603.308 -2.93176 1.86931 0
M  V30 6172 H 602.631 -2.91543 2.73574 0
M  V30 6173 H 604.071 -3.70537 2.06103 0
M  V30 6174 C 602.53 -3.30988 0.628365 0
M  V30 6175 O 603.06 -4.01106 -0.218367 0
M  V30 6176 N 601.266 -2.86719 0.473339 0
M  V30 6177 H 600.813 -2.2983 1.16345 0
M  V30 6178 H 600.771 -3.12381 -0.355727 0
M  V30 6179 N 604.543 -1.41418 -0.695603 0
M  V30 6180 C 605.473 -1.46035 -1.82197 0
M  V30 6181 C 606.454 -0.319025 -1.67082 0
M  V30 6182 O 607.639 -0.530462 -1.86815 0
M  V30 6183 C 604.769 -1.34179 -3.20333 0
M  V30 6184 C 603.723 -2.46123 -3.50154 0
M  V30 6185 C 603.049 -2.19332 -4.87645 0
M  V30 6186 C 604.349 -3.88463 -3.49133 0
M  V30 6187 H 606.043 -2.40303 -1.78591 0
M  V30 6188 H 603.589 -1.15663 -0.857797 0
M  V30 6189 H 605.542 -1.36021 -3.98844 0
M  V30 6190 H 604.266 -0.363952 -3.24566 0
M  V30 6191 H 602.925 -2.43563 -2.73994 0
M  V30 6192 H 602.573 -1.19891 -4.88503 0
M  V30 6193 H 602.273 -2.94344 -5.08562 0
M  V30 6194 H 603.797 -2.22889 -5.68465 0
M  V30 6195 H 605.211 -3.92738 -4.17648 0
M  V30 6196 H 603.608 -4.63158 -3.81582 0
M  V30 6197 H 604.678 -4.16617 -2.48109 0
M  V30 6198 N 606.021 0.929856 -1.27246 0
M  V30 6199 C 606.953 2.03434 -1.0558 0
M  V30 6200 C 607.966 1.62795 -0.0125762 0
M  V30 6201 O 609.155 1.76685 -0.2539 0
M  V30 6202 C 606.255 3.33915 -0.57912 0
M  V30 6203 C 605.428 4.03259 -1.69415 0
M  V30 6204 C 604.487 5.12014 -1.21357 0
M  V30 6205 O 603.513 5.36097 -1.91282 0
M  V30 6206 N 604.715 5.8046 -0.0680622 0
M  V30 6207 H 607.48 2.22583 -2.00691 0
M  V30 6208 H 605.041 1.1001 -1.18783 0
M  V30 6209 H 607.033 4.03978 -0.241563 0
M  V30 6210 H 605.603 3.11355 0.278703 0
M  V30 6211 H 604.823 3.26958 -2.20209 0
M  V30 6212 H 606.111 4.46337 -2.44255 0
M  V30 6213 H 605.509 5.63345 0.515626 0
M  V30 6214 H 604.066 6.51461 0.210332 0
M  V30 6215 N 607.499 1.09233 1.13605 0
M  V30 6216 C 608.447 0.724572 2.21027 0
M  V30 6217 C 609.441 -0.273595 1.67176 0
M  V30 6218 O 610.647 -0.135266 1.79491 0
M  V30 6219 H 607.022 0.216319 0.720215 0
M  V30 6220 H 608.993 1.63975 2.49309 0
M  V30 6221 C 607.742 0.159126 3.47336 0
M  V30 6222 H 607.065 0.918387 3.89109 0
M  V30 6223 H 608.505 -0.0602851 4.23957 0
M  V30 6224 C 606.964 -1.10514 3.18258 0
M  V30 6225 O 607.494 -2.18869 3.36837 0
M  V30 6226 N 605.7 -1.01886 2.72154 0
M  V30 6227 H 605.247 -0.137027 2.57235 0
M  V30 6228 H 605.205 -1.8655 2.53074 0
M  V30 6229 N 608.977 -1.30795 0.87923 0
M  V30 6230 C 609.94 -2.26563 0.346676 0
M  V30 6231 C 610.94 -1.52578 -0.507597 0
M  V30 6232 O 612.13 -1.71318 -0.315575 0
M  V30 6233 C 609.262 -3.37115 -0.506611 0
M  V30 6234 H 610.455 -2.75183 1.19223 0
M  V30 6235 H 608.008 -1.41886 0.655598 0
M  V30 6236 H 608.743 -2.93802 -1.37299 0
M  V30 6237 H 608.528 -3.91959 0.105218 0
M  V30 6238 H 610.018 -4.08412 -0.871192 0
M  V30 6239 N 610.455 -0.639598 -1.44038 0
M  V30 6240 C 611.704 -0.144885 -2.01179 0
M  V30 6241 C 612.017 1.24372 -1.50967 0
M  V30 6242 O 613.223 1.83291 -2.00292 0
M  V30 6243 C 611.679 -0.208244 -3.59297 0
M  V30 6244 C 611.287 -1.59869 -4.18504 0
M  V30 6245 C 613.031 0.229568 -4.23879 0
M  V30 6246 C 610.938 -1.61671 -5.68873 0
M  V30 6247 H 609.868 -0.0504005 -0.752314 0
M  V30 6248 H 612.519 -0.799639 -1.65161 0
M  V30 6249 H 610.901 0.513767 -3.92653 0
M  V30 6250 H 612.075 -2.34496 -3.96671 0
M  V30 6251 H 610.39 -1.98131 -3.66242 0
M  V30 6252 H 612.987 0.235758 -5.3418 0
M  V30 6253 H 613.33 1.25848 -3.96822 0
M  V30 6254 H 613.863 -0.440233 -3.95357 0
M  V30 6255 H 610.602 -2.62427 -6.00677 0
M  V30 6256 H 610.122 -0.913489 -5.92803 0
M  V30 6257 H 611.801 -1.35439 -6.32665 0
M  V30 6258 N 611.933 1.52934 -0.380664 0
M  V30 6259 C 612.896 2.24809 0.446473 0
M  V30 6260 C 613.896 1.26133 0.997347 0
M  V30 6261 O 615.086 1.50297 0.880714 0
M  V30 6262 C 612.218 2.99649 1.62553 0
M  V30 6263 H 613.411 2.99343 -0.182677 0
M  V30 6264 H 610.964 1.55736 -0.132618 0
M  V30 6265 H 611.699 2.29395 2.29235 0
M  V30 6266 H 611.484 3.72066 1.23732 0
M  V30 6267 H 612.974 3.54246 2.21133 0
M  V30 6268 N 613.412 0.11024 1.57214 0
M  V30 6269 C 614.689 -0.592956 1.86396 0
M  V30 6270 C 615.069 -1.85379 1.00985 0
M  V30 6271 O 614.417 -2.28337 0.0863592 0
M  V30 6272 C 614.627 -0.893816 3.3736 0
M  V30 6273 C 615.975 -1.25069 4.05762 0
M  V30 6274 O 616.999 -0.984356 3.42329 0
M  V30 6275 O 615.858 -1.75017 5.17718 0
M  V30 6276 H 612.952 -0.29828 0.771335 0
M  V30 6277 H 615.498 0.144083 1.69087 0
M  V30 6278 H 614.27 2.6031e-05 3.913 0
M  V30 6279 H 613.893 -1.68631 3.60068 0
M  V30 6280 N 614.89 -1.56749 -0.16351 0
M  V30 6281 C 615.853 -1.96121 -1.18613 0
M  V30 6282 C 616.853 -0.845765 -1.36761 0
M  V30 6283 O 618.043 -1.11268 -1.34033 0
M  V30 6284 C 615.175 -2.26282 -2.54969 0
M  V30 6285 H 616.368 -2.87639 -0.848764 0
M  V30 6286 H 613.921 -1.50928 -0.406251 0
M  V30 6287 H 614.656 -1.37504 -2.93706 0
M  V30 6288 H 614.441 -3.07595 -2.43162 0
M  V30 6289 H 615.931 -2.57638 -3.28653 0
M  V30 6290 N 616.368 0.432326 -1.51554 0
M  V30 6291 C 617.278 1.55023 -1.76082 0
M  V30 6292 C 618.294 1.61593 -0.645265 0
M  V30 6293 O 619.47 1.78742 -0.928086 0
M  V30 6294 C 616.535 2.90964 -1.88523 0
M  V30 6295 C 615.596 2.9447 -3.12388 0
M  V30 6296 C 614.829 4.23926 -3.24225 0
M  V30 6297 O 615.052 5.16576 -2.4188 0
M  V30 6298 O 613.986 4.33818 -4.17235 0
M  V30 6299 H 617.812 1.37238 -2.70923 0
M  V30 6300 H 615.397 0.615845 -1.36117 0
M  V30 6301 H 617.279 3.71633 -1.98662 0
M  V30 6302 H 615.954 3.08865 -0.9687 0
M  V30 6303 H 614.861 2.12737 -3.07723 0
M  V30 6304 H 616.194 2.81514 -4.03746 0
M  V30 6305 N 617.846 1.41785 0.688094 0
M  V30 6306 C 618.778 1.40159 1.81351 0
M  V30 6307 C 619.791 0.30262 1.59963 0
M  V30 6308 O 620.98 0.564841 1.69327 0
M  V30 6309 C 618.08 1.16517 3.1824 0
M  V30 6310 C 617.253 2.38597 3.66593 0
M  V30 6311 C 616.312 2.10699 4.82174 0
M  V30 6312 O 615.338 2.83798 4.93404 0
M  V30 6313 N 616.54 1.10187 5.69947 0
M  V30 6314 H 619.305 2.3716 1.83236 0
M  V30 6315 H 616.866 1.36494 0.870697 0
M  V30 6316 H 618.858 0.957941 3.93199 0
M  V30 6317 H 617.428 0.280873 3.11336 0
M  V30 6318 H 616.648 2.74974 2.82459 0
M  V30 6319 H 617.936 3.19919 3.95638 0
M  V30 6320 H 617.334 0.497016 5.63512 0
M  V30 6321 H 615.891 0.954518 6.44773 0
M  V30 6322 N 619.324 -0.923095 1.27737 0
M  V30 6323 C 620.74 -1.19985 1.05241 0
M  V30 6324 C 620.94 -2.00391 -0.21113 0
M  V30 6325 O 619.996 -2.35324 -0.915366 0
M  V30 6326 C 621.309 -1.94352 2.29451 0
M  V30 6327 C 622.857 -2.07273 2.34536 0
M  V30 6328 C 623.332 -2.85046 3.58487 0
M  V30 6329 N 624.823 -2.92612 3.59072 0
M  V30 6330 C 625.558 -3.53266 4.51654 0
M  V30 6331 N 625.054 -4.15274 5.54545 0
M  V30 6332 N 626.847 -3.50714 4.39268 0
M  V30 6333 H 618.998 -0.386042 2.08862 0
M  V30 6334 H 621.261 -0.233407 0.918817 0
M  V30 6335 H 620.967 -1.42692 3.21453 0
M  V30 6336 H 620.841 -2.94947 2.3513 0
M  V30 6337 H 623.228 -2.58117 1.43037 0
M  V30 6338 H 623.309 -1.05884 2.32857 0
M  V30 6339 H 622.953 -2.34884 4.50324 0
M  V30 6340 H 622.883 -3.8673 3.57418 0
M  V30 6341 H 625.374 -2.48547 2.84663 0
M  V30 6342 H 625.687 -4.59507 6.21348 0
M  V30 6343 H 624.032 -4.13806 5.58382 0
M  V30 6344 H 627.223 -3.01475 3.58093 0
M  V30 6345 H 627.396 -3.97693 5.1161 0
M  V30 6346 N 620.802 -1.09834 -1.13024 0
M  V30 6347 C 622.05 -0.835297 -1.8403 0
M  V30 6348 C 622.371 0.640944 -1.84165 0
M  V30 6349 O 621.641 1.46517 -1.30037 0
M  V30 6350 H 620.221 -0.306018 -0.681441 0
M  V30 6351 H 622.883 -1.38734 -1.36891 0
M  V30 6352 H 621.979 -1.19258 -2.88416 0
M  V30 6353 N 622.28 1.30327 -0.886154 0
M  V30 6354 C 623.19 2.31854 -0.357866 0
M  V30 6355 C 624.206 1.65392 0.540502 0
M  V30 6356 O 625.382 1.96683 0.433339 0
M  V30 6357 C 622.447 3.44171 0.417999 0
M  V30 6358 C 621.508 4.26257 -0.510263 0
M  V30 6359 C 620.741 5.3321 0.228669 0
M  V30 6360 O 620.964 5.51542 1.45458 0
M  V30 6361 O 619.898 6.0042 -0.421832 0
M  V30 6362 H 623.724 2.78995 -1.19982 0
M  V30 6363 H 621.309 1.34518 -0.650028 0
M  V30 6364 H 623.191 4.12588 0.857251 0
M  V30 6365 H 621.866 2.99164 1.23623 0
M  V30 6366 H 620.773 3.60533 -0.99835 0
M  V30 6367 H 622.106 4.74871 -1.29454 0
M  V30 6368 N 623.758 0.647228 1.43697 0
M  V30 6369 C 624.688 -0.0345631 2.33474 0
M  V30 6370 C 625.669 -0.818193 1.4913 0
M  V30 6371 O 626.854 -0.780867 1.77809 0
M  V30 6372 C 623.984 -1.00576 3.32418 0
M  V30 6373 C 622.938 -0.33266 4.26705 0
M  V30 6374 C 622.264 -1.41489 5.1564 0
M  V30 6375 C 623.564 0.771204 5.16575 0
M  V30 6376 H 625.258 0.715163 2.90733 0
M  V30 6377 H 622.804 0.345364 1.39797 0
M  V30 6378 H 624.757 -1.49159 3.94119 0
M  V30 6379 H 623.481 -1.78657 2.73403 0
M  V30 6380 H 622.14 0.13267 3.6636 0
M  V30 6381 H 621.788 -2.18698 4.52968 0
M  V30 6382 H 621.488 -0.969799 5.79542 0
M  V30 6383 H 623.012 -1.9022 5.80214 0
M  V30 6384 H 624.426 0.36779 5.72119 0
M  V30 6385 H 622.823 1.1404 5.89165 0
M  V30 6386 H 623.893 1.63169 4.56622 0
M  V30 6387 N 625.236 -1.5273 0.388769 0
M  V30 6388 C 626.199 -2.25043 -0.434544 0
M  V30 6389 C 627.199 -1.26661 -0.990644 0
M  V30 6390 O 628.389 -1.50762 -0.872731 0
M  V30 6391 C 625.521 -3.00507 -1.60961 0
M  V30 6392 H 626.714 -2.99242 0.198549 0
M  V30 6393 H 624.267 -1.55664 0.140875 0
M  V30 6394 H 625.002 -2.30607 -2.28015 0
M  V30 6395 H 624.787 -3.72716 -1.21757 0
M  V30 6396 H 626.277 -3.55413 -2.19251 0
M  V30 6397 N 626.714 -0.118576 -1.57153 0
M  V30 6398 C 627.644 0.828436 -2.1831 0
M  V30 6399 C 628.625 1.27758 -1.12303 0
M  V30 6400 O 629.81 1.34026 -1.40537 0
M  V30 6401 C 626.94 2.07876 -2.78217 0
M  V30 6402 C 625.894 1.76742 -3.89803 0
M  V30 6403 C 625.22 3.08801 -4.36516 0
M  V30 6404 C 626.52 1.03606 -5.11921 0
M  V30 6405 H 628.214 0.318824 -2.97698 0
M  V30 6406 H 625.76 0.151911 -1.43196 0
M  V30 6407 H 627.713 2.74584 -3.19659 0
M  V30 6408 H 626.437 2.61161 -1.96118 0
M  V30 6409 H 625.096 1.12424 -3.48936 0
M  V30 6410 H 624.744 3.6002 -3.51276 0
M  V30 6411 H 624.444 2.88743 -5.11763 0
M  V30 6412 H 625.968 3.76627 -4.80608 0
M  V30 6413 H 627.382 1.60467 -5.50385 0
M  V30 6414 H 625.779 0.936454 -5.92748 0
M  V30 6415 H 626.849 0.0227421 -4.84895 0
M  V30 6416 N 628.193 1.56834 0.155195 0
M  V30 6417 C 629.14 1.97646 1.19184 0
M  V30 6418 C 630.11 0.842788 1.4313 0
M  V30 6419 O 631.295 1.1042 1.55602 0
M  V30 6420 C 628.435 2.35527 2.52232 0
M  V30 6421 C 627.548 3.62147 2.35529 0
M  V30 6422 C 626.683 3.89167 3.61555 0
M  V30 6423 C 625.722 5.09084 3.39853 0
M  V30 6424 N 624.859 5.32156 4.5799 0
M  V30 6425 H 629.699 2.8601 0.836802 0
M  V30 6426 H 627.236 1.41507 0.401758 0
M  V30 6427 H 629.194 2.55516 3.29799 0
M  V30 6428 H 627.824 1.50253 2.85699 0
M  V30 6429 H 626.876 3.4998 1.49057 0
M  V30 6430 H 628.188 4.49871 2.15448 0
M  V30 6431 H 627.342 4.09611 4.47553 0
M  V30 6432 H 626.081 2.9985 3.84632 0
M  V30 6433 H 625.086 4.88522 2.52243 0
M  V30 6434 H 626.311 5.99947 3.18183 0
M  V30 6435 H 624.257 4.45791 4.81255 0
M  V30 6436 H 624.174 6.14133 4.40882 0
M  V30 6437 H 625.442 5.57091 5.45225 0
M  V30 6438 N 629.671 -0.424282 1.51781 0
M  V30 6439 C 630.948 -1.18464 1.55646 0
M  V30 6440 C 631.328 -2.08529 0.328438 0
M  V30 6441 O 630.676 -2.17969 -0.685693 0
M  V30 6442 C 630.886 -1.97514 2.87731 0
M  V30 6443 C 632.234 -2.54106 3.40169 0
M  V30 6444 O 633.258 -2.07711 2.89369 0
M  V30 6445 O 632.117 -3.38759 4.28841 0
M  V30 6446 H 629.211 -0.540055 0.626314 0
M  V30 6447 H 631.757 -0.432291 1.64102 0
M  V30 6448 H 630.529 -1.31444 3.68562 0
M  V30 6449 H 630.152 -2.79787 2.82498 0
M  V30 6450 N 631.149 -1.42148 -0.680565 0
M  V30 6451 C 632.112 -1.4488 -1.77602 0
M  V30 6452 C 633.112 -0.337209 -1.57224 0
M  V30 6453 O 634.302 -0.597778 -1.63622 0
M  V30 6454 C 631.434 -1.27483 -3.16166 0
M  V30 6455 H 632.627 -2.42412 -1.76568 0
M  V30 6456 H 630.18 -1.28511 -0.889645 0
M  V30 6457 H 630.915 -0.30851 -3.22829 0
M  V30 6458 H 630.7 -2.08037 -3.3236 0
M  V30 6459 H 632.19 -1.32265 -3.96101 0
M  V30 6460 N 632.627 0.916307 -1.28225 0
M  V30 6461 C 634.043 1.19425 -1.05876 0
M  V30 6462 C 634.243 2.005 0.2005 0
M  V30 6463 O 633.299 2.35806 0.902873 0
M  V30 6464 C 634.612 1.93133 -2.30478 0
M  V30 6465 C 636.16 2.06026 -2.35632 0
M  V30 6466 C 636.635 2.83141 -3.59994 0
M  V30 6467 N 638.126 2.90704 -3.60618 0
M  V30 6468 C 638.861 3.50865 -4.53521 0
M  V30 6469 N 638.357 4.12327 -5.56739 0
M  V30 6470 N 640.15 3.48379 -4.41122 0
M  V30 6471 H 632.301 0.37496 -2.09064 0
M  V30 6472 H 634.564 0.228531 -0.920042 0
M  V30 6473 H 634.27 1.40985 -3.22205 0
M  V30 6474 H 634.144 2.93696 -2.36691 0
M  V30 6475 H 636.531 2.57355 -1.44404 0
M  V30 6476 H 636.612 1.04647 -2.33415 0
M  V30 6477 H 636.256 2.32492 -4.51564 0
M  V30 6478 H 636.186 3.84829 -3.59464 0
M  V30 6479 H 638.677 2.47034 -2.85977 0
M  V30 6480 H 638.99 4.56205 -6.23776 0
M  V30 6481 H 637.335 4.10839 -5.60568 0
M  V30 6482 H 640.526 2.99572 -3.59686 0
M  V30 6483 H 640.699 3.94974 -5.13712 0
M  V30 6484 N 634.105 1.10431 1.1244 0
M  V30 6485 C 635.053 0.747974 2.20246 0
M  V30 6486 C 636.047 -0.255848 1.67457 0
M  V30 6487 O 637.253 -0.116221 1.79624 0
M  V30 6488 H 633.628 0.223946 0.71788 0
M  V30 6489 H 635.599 1.6661 2.47556 0
M  V30 6490 C 634.348 0.195957 3.47147 0
M  V30 6491 H 633.671 0.959606 3.88113 0
M  V30 6492 H 635.111 -0.0153154 4.23997 0
M  V30 6493 C 633.57 -1.07132 3.19413 0
M  V30 6494 O 634.1 -2.15284 3.3914 0
M  V30 6495 N 632.306 -0.98994 2.73219 0
M  V30 6496 H 631.853 -0.109736 2.57366 0
M  V30 6497 H 631.811 -1.83856 2.55038 0
M  V30 6498 N 635.583 -1.29855 0.893053 0
M  V30 6499 C 636.53 -2.27909 0.364161 0
M  V30 6500 C 637.5 -1.56726 -0.550093 0
M  V30 6501 O 638.685 -1.84747 -0.47677 0
M  V30 6502 C 635.825 -3.42678 -0.408178 0
M  V30 6503 C 634.938 -4.28659 0.536212 0
M  V30 6504 C 634.073 -5.30599 -0.252521 0
M  V30 6505 C 633.112 -6.08234 0.686822 0
M  V30 6506 N 632.249 -7.02068 -0.0670902 0
M  V30 6507 H 637.089 -2.72531 1.20544 0
M  V30 6508 H 634.626 -1.34047 0.605779 0
M  V30 6509 H 636.584 -4.07986 -0.871962 0
M  V30 6510 H 635.214 -2.99103 -1.21397 0
M  V30 6511 H 634.266 -3.63584 1.1185 0
M  V30 6512 H 635.578 -4.8274 1.25552 0
M  V30 6513 H 634.732 -6.01694 -0.777801 0
M  V30 6514 H 633.471 -4.77233 -1.005 0
M  V30 6515 H 632.476 -5.3601 1.22366 0
M  V30 6516 H 633.701 -6.63689 1.43852 0
M  V30 6517 H 631.647 -6.5108 -0.801955 0
M  V30 6518 H 631.564 -7.53675 0.59243 0
M  V30 6519 H 632.832 -7.77392 -0.572851 0
M  V30 6520 N 637.061 -0.65484 -1.43351 0
M  V30 6521 C 637.991 0.0221809 -2.33489 0
M  V30 6522 C 638.972 0.810272 -1.49561 0
M  V30 6523 O 640.157 0.771426 -1.78221 0
M  V30 6524 C 637.287 0.988117 -3.32947 0
M  V30 6525 C 636.241 0.310026 -4.26876 0
M  V30 6526 C 635.567 1.38752 -5.16384 0
M  V30 6527 C 636.867 -0.798589 -5.16159 0
M  V30 6528 H 638.561 -0.730571 -2.9035 0
M  V30 6529 H 636.107 -0.352773 -1.39612 0
M  V30 6530 H 638.06 1.47067 -3.94904 0
M  V30 6531 H 636.784 1.77205 -2.74346 0
M  V30 6532 H 635.443 -0.152097 -3.66284 0
M  V30 6533 H 635.091 2.16293 -4.54121 0
M  V30 6534 H 634.791 0.939051 -5.80048 0
M  V30 6535 H 636.315 1.87141 -5.81215 0
M  V30 6536 H 637.729 -0.398126 -5.71916 0
M  V30 6537 H 636.126 -1.17163 -5.88552 0
M  V30 6538 H 637.196 -1.65588 -4.55751 0
M  V30 6539 N 638.539 1.52521 -0.396863 0
M  V30 6540 C 639.502 2.2527 0.422604 0
M  V30 6541 C 640.502 1.27184 0.983913 0
M  V30 6542 O 641.692 1.51222 0.864723 0
M  V30 6543 C 638.824 3.01356 1.59365 0
M  V30 6544 H 640.017 2.99133 -0.214416 0
M  V30 6545 H 637.57 1.55587 -0.149128 0
M  V30 6546 H 638.305 2.31813 2.26789 0
M  V30 6547 H 638.09 3.73357 1.19779 0
M  V30 6548 H 639.58 3.56571 2.17363 0
M  V30 6549 N 640.017 0.126909 1.57088 0
M  V30 6550 C 640.927 -0.833867 2.1928 0
M  V30 6551 C 641.943 -1.2868 1.17122 0
M  V30 6552 O 643.119 -1.34815 1.49622 0
M  V30 6553 C 640.184 -2.0632 2.78627 0
M  V30 6554 C 639.245 -1.66143 3.95847 0
M  V30 6555 C 638.478 -2.83217 4.52354 0
M  V30 6556 O 638.701 -3.98868 4.0775 0
M  V30 6557 O 637.635 -2.59846 5.42922 0
M  V30 6558 H 641.461 -0.334564 3.01852 0
M  V30 6559 H 639.046 -0.0991091 1.49071 0
M  V30 6560 H 640.928 -2.78304 3.16425 0
M  V30 6561 H 639.603 -2.55242 1.99082 0
M  V30 6562 H 638.51 -0.912435 3.62802 0
M  V30 6563 H 639.843 -1.21957 4.76852 0
M  V30 6564 N 641.495 -1.56914 -0.146875 0
M  V30 6565 C 642.425 -2.01308 -1.1831 0
M  V30 6566 C 643.406 -0.892664 -1.44795 0
M  V30 6567 O 644.591 -1.16048 -1.55713 0
M  V30 6568 C 641.721 -2.3938 -2.51624 0
M  V30 6569 C 640.675 -3.54608 -2.3966 0
M  V30 6570 C 640.001 -3.78493 -3.77686 0
M  V30 6571 C 641.301 -4.87269 -1.88058 0
M  V30 6572 H 642.995 -2.88123 -0.813964 0
M  V30 6573 H 640.541 -1.38615 -0.3901 0
M  V30 6574 H 642.494 -2.69037 -3.24341 0
M  V30 6575 H 641.218 -1.49502 -2.90373 0
M  V30 6576 H 639.877 -3.25116 -1.69396 0
M  V30 6577 H 639.525 -2.85866 -4.13871 0
M  V30 6578 H 639.225 -4.56039 -3.70543 0
M  V30 6579 H 640.749 -4.10576 -4.51951 0
M  V30 6580 H 642.163 -5.15644 -2.50568 0
M  V30 6581 H 640.56 -5.68622 -1.91805 0
M  V30 6582 H 641.63 -4.77634 -0.836277 0
M  V30 6583 N 642.974 0.416227 -1.52004 0
M  V30 6584 C 643.884 1.53147 -1.77717 0
M  V30 6585 C 644.9 1.609 -0.662368 0
M  V30 6586 O 646.076 1.77747 -0.946991 0
M  V30 6587 C 643.141 2.88948 -1.91598 0
M  V30 6588 C 642.202 2.9114 -3.15493 0
M  V30 6589 C 641.435 4.20464 -3.28703 0
M  V30 6590 O 641.658 5.13981 -2.47345 0
M  V30 6591 O 640.592 4.29368 -4.21813 0
M  V30 6592 H 644.418 1.34357 -2.72363 0
M  V30 6593 H 642.003 0.601373 -1.36762 0
M  V30 6594 H 643.885 3.69505 -2.02593 0
M  V30 6595 H 642.56 3.07821 -1.00141 0
M  V30 6596 H 641.467 2.09461 -3.09962 0
M  V30 6597 H 642.8 2.77216 -4.06709 0
M  V30 6598 N 644.452 1.42507 0.673017 0
M  V30 6599 C 645.362 1.4853 1.81593 0
M  V30 6600 C 646.378 0.373907 1.69935 0
M  V30 6601 O 647.554 0.625078 1.91454 0
M  V30 6602 C 644.619 1.387 3.17747 0
M  V30 6603 C 643.68 2.60346 3.41348 0
M  V30 6604 C 642.913 2.50975 4.71007 0
M  V30 6605 O 643.136 1.54659 5.49033 0
M  V30 6606 O 642.07 3.41138 4.95892 0
M  V30 6607 H 645.896 2.45001 1.79467 0
M  V30 6608 H 643.481 1.2429 0.82899 0
M  V30 6609 H 645.363 1.35586 3.98992 0
M  V30 6610 H 644.038 0.453555 3.20507 0
M  V30 6611 H 642.945 2.69034 2.59945 0
M  V30 6612 H 644.278 3.52595 3.43421 0
M  V30 6613 N 645.93 -0.909495 1.28709 0
M  V30 6614 C 646.893 -1.99399 1.13016 0
M  V30 6615 C 647.893 -1.60654 0.068536 0
M  V30 6616 O 649.083 -1.71334 0.314671 0
M  V30 6617 C 646.215 -3.33078 0.726085 0
M  V30 6618 H 647.408 -2.14751 2.09338 0
M  V30 6619 H 644.961 -1.09272 1.11756 0
M  V30 6620 H 645.696 -3.23428 -0.23771 0
M  V30 6621 H 645.481 -3.62562 1.49302 0
M  V30 6622 H 646.971 -4.12681 0.639058 0
M  V30 6623 N 647.408 -1.11026 -1.11852 0
M  V30 6624 C 648.338 -0.786812 -2.19844 0
M  V30 6625 C 649.319 0.242935 -1.68356 0
M  V30 6626 O 650.504 0.107355 -1.93903 0
M  V30 6627 C 647.634 -0.224516 -3.46574 0
M  V30 6628 C 646.588 -1.18564 -4.1125 0
M  V30 6629 C 645.914 -0.484261 -5.32503 0
M  V30 6630 C 647.214 -2.53465 -4.56676 0
M  V30 6631 H 648.908 -1.68978 -2.47158 0
M  V30 6632 H 646.454 -0.813906 -1.18792 0
M  V30 6633 H 648.407 0.0139435 -4.21398 0
M  V30 6634 H 647.131 0.713722 -3.18706 0
M  V30 6635 H 645.79 -1.40966 -3.38414 0
M  V30 6636 H 645.438 0.458646 -5.00905 0
M  V30 6637 H 645.138 -1.12526 -5.76725 0
M  V30 6638 H 646.662 -0.254492 -6.10069 0
M  V30 6639 H 648.076 -2.35177 -5.22843 0
M  V30 6640 H 646.473 -3.13507 -5.11697 0
M  V30 6641 H 647.543 -3.13008 -3.70343 0
M  V30 6642 N 648.886 1.2938 -0.899927 0
M  V30 6643 C 649.818 2.26737 -0.335139 0
M  V30 6644 C 650.831 1.54316 0.518681 0
M  V30 6645 O 652.02 1.75313 0.335803 0
M  V30 6646 C 649.12 3.34558 0.540774 0
M  V30 6647 C 648.293 4.36455 -0.287372 0
M  V30 6648 C 647.352 5.2361 0.52141 0
M  V30 6649 O 646.378 5.69167 -0.0611735 0
M  V30 6650 N 647.58 5.50985 1.82745 0
M  V30 6651 H 650.345 2.75838 -1.17191 0
M  V30 6652 H 647.906 1.42716 -0.764438 0
M  V30 6653 H 649.898 3.89794 1.08825 0
M  V30 6654 H 648.468 2.85272 1.27823 0
M  V30 6655 H 647.688 3.80875 -1.01626 0
M  V30 6656 H 648.976 5.01573 -0.854518 0
M  V30 6657 H 648.374 5.15781 2.32349 0
M  V30 6658 H 646.931 6.09036 2.32204 0
M  V30 6659 N 650.364 0.662433 1.43002 0
M  V30 6660 C 651.311 -0.0235324 2.30788 0
M  V30 6661 C 652.281 -0.805342 1.4527 0
M  V30 6662 O 653.466 -0.78009 1.74124 0
M  V30 6663 C 650.606 -0.977545 3.30965 0
M  V30 6664 C 649.719 -0.190865 4.31578 0
M  V30 6665 C 648.854 -1.13951 5.18834 0
M  V30 6666 C 647.893 -0.343796 6.11134 0
M  V30 6667 N 647.03 -1.2445 6.90982 0
M  V30 6668 H 651.87 0.730921 2.88897 0
M  V30 6669 H 649.407 0.372197 1.42313 0
M  V30 6670 H 651.365 -1.54437 3.87563 0
M  V30 6671 H 649.995 -1.69877 2.74484 0
M  V30 6672 H 649.047 0.492388 3.772 0
M  V30 6673 H 650.359 0.427464 4.96965 0
M  V30 6674 H 649.513 -1.77666 5.80103 0
M  V30 6675 H 648.252 -1.79174 4.53595 0
M  V30 6676 H 647.257 0.30665 5.48944 0
M  V30 6677 H 648.482 0.304161 6.78419 0
M  V30 6678 H 646.428 -1.88336 6.28383 0
M  V30 6679 H 646.345 -0.680959 7.52927 0
M  V30 6680 H 647.613 -1.86952 7.56749 0
M  V30 6681 N 651.842 -1.52309 0.404946 0
M  V30 6682 C 652.805 -2.25491 -0.410651 0
M  V30 6683 C 653.805 -1.27704 -0.977154 0
M  V30 6684 O 654.995 -1.51679 -0.856691 0
M  V30 6685 C 652.127 -3.02197 -1.57765 0
M  V30 6686 H 653.32 -2.99015 0.230277 0
M  V30 6687 H 650.873 -1.55506 0.157377 0
M  V30 6688 H 651.608 -2.33013 -2.25556 0
M  V30 6689 H 651.393 -3.73987 -1.17797 0
M  V30 6690 H 652.883 -3.57719 -2.15469 0
M  V30 6691 N 653.32 -0.135238 -1.57019 0
M  V30 6692 C 654.267 0.808908 -2.1616 0
M  V30 6693 C 655.237 1.25234 -1.09113 0
M  V30 6694 O 656.422 1.32697 -1.37099 0
M  V30 6695 C 653.562 2.04729 -2.77813 0
M  V30 6696 C 652.675 1.65074 -3.99218 0
M  V30 6697 C 651.81 2.84002 -4.48906 0
M  V30 6698 C 650.849 2.40663 -5.62803 0
M  V30 6699 N 649.986 3.5256 -6.07162 0
M  V30 6700 H 654.826 0.297751 -2.96509 0
M  V30 6701 H 652.363 0.135264 -1.46477 0
M  V30 6702 H 654.321 2.7731 -3.11697 0
M  V30 6703 H 652.951 2.53275 -2.00128 0
M  V30 6704 H 652.003 0.823029 -3.7139 0
M  V30 6705 H 653.315 1.29236 -4.81767 0
M  V30 6706 H 652.469 3.64788 -4.84783 0
M  V30 6707 H 651.208 3.23076 -3.65339 0
M  V30 6708 H 650.213 1.58314 -5.26514 0
M  V30 6709 H 651.438 2.02687 -6.48147 0
M  V30 6710 H 649.384 3.91278 -5.26534 0
M  V30 6711 H 649.301 3.20699 -6.84608 0
M  V30 6712 H 650.569 4.33738 -6.47682 0
M  V30 6713 N 654.798 1.5699 0.138552 0
M  V30 6714 C 655.73 1.95515 1.1961 0
M  V30 6715 C 656.743 0.852002 1.38726 0
M  V30 6716 O 657.932 1.13038 1.38147 0
M  V30 6717 C 655.032 2.2213 2.55952 0
M  V30 6718 C 654.205 3.53424 2.57702 0
M  V30 6719 C 653.264 3.6848 3.75645 0
M  V30 6720 O 652.29 4.4079 3.60129 0
M  V30 6721 N 653.492 3.05777 4.93438 0
M  V30 6722 H 656.257 2.86838 0.868557 0
M  V30 6723 H 653.818 1.58542 0.328033 0
M  V30 6724 H 655.81 2.29435 3.33379 0
M  V30 6725 H 654.38 1.3703 2.80965 0
M  V30 6726 H 653.6 3.57484 1.6613 0
M  V30 6727 H 654.888 4.39759 2.55909 0
M  V30 6728 H 654.286 2.46961 5.08947 0
M  V30 6729 H 652.843 3.18631 5.6861 0
M  V30 6730 N 656.276 -0.40816 1.52223 0
M  V30 6731 C 657.553 -1.16807 1.56893 0
M  V30 6732 C 657.933 -2.08169 0.350537 0
M  V30 6733 O 657.281 -2.18684 -0.662536 0
M  V30 6734 C 657.491 -1.94451 2.8981 0
M  V30 6735 C 658.839 -2.50484 3.42845 0
M  V30 6736 O 659.863 -2.0463 2.91556 0
M  V30 6737 O 658.722 -3.34192 4.3241 0
M  V30 6738 H 655.816 -0.533382 0.632007 0
M  V30 6739 H 658.362 -0.414862 1.64551 0
M  V30 6740 H 657.134 -1.27527 3.69936 0
M  V30 6741 H 656.757 -2.76775 2.85449 0
M  V30 6742 N 657.755 -1.42862 -0.66545 0
M  V30 6743 C 658.688 -1.41509 -1.79026 0
M  V30 6744 C 659.666 -0.278106 -1.60204 0
M  V30 6745 O 660.85 -0.469792 -1.82552 0
M  V30 6746 C 657.977 -1.21494 -3.1616 0
M  V30 6747 C 657.023 -2.38308 -3.53711 0
M  V30 6748 S 657.856 -4.00852 -3.55075 0
M  V30 6749 C 659.012 -3.83197 -4.94885 0
M  V30 6750 H 659.245 -2.36691 -1.79902 0
M  V30 6751 H 656.778 -1.29746 -0.836977 0
M  V30 6752 H 658.736 -1.10633 -3.95311 0
M  V30 6753 H 657.397 -0.27881 -3.1286 0
M  V30 6754 H 656.59 -2.20076 -4.53412 0
M  V30 6755 H 656.192 -2.45732 -2.81943 0
M  V30 6756 H 658.484 -3.44765 -5.83218 0
M  V30 6757 H 659.427 -4.82607 -5.18166 0
M  V30 6758 H 659.835 -3.15884 -4.67843 0
M  V30 6759 N 659.233 0.902656 -1.29189 0
M  V30 6760 C 660.196 1.98797 -1.14071 0
M  V30 6761 C 661.196 1.60615 -0.0770549 0
M  V30 6762 O 662.386 1.71165 -0.323753 0
M  V30 6763 C 659.518 3.32688 -0.743739 0
M  V30 6764 H 660.711 2.13637 -2.10473 0
M  V30 6765 H 658.264 1.08678 -1.12334 0
M  V30 6766 H 658.999 3.23549 0.220554 0
M  V30 6767 H 658.784 3.61765 -1.51223 0
M  V30 6768 H 660.274 4.12337 -0.660935 0
M  V30 6769 N 660.711 1.11618 1.11262 0
M  V30 6770 C 662.127 0.850468 1.35053 0
M  V30 6771 C 662.327 -0.523868 1.94571 0
M  V30 6772 O 661.383 -1.2743 2.17986 0
M  V30 6773 C 662.696 1.96005 2.28041 0
M  V30 6774 C 664.244 1.98993 2.416 0
M  V30 6775 C 664.719 3.0916 3.37911 0
M  V30 6776 N 666.21 3.08547 3.45475 0
M  V30 6777 C 666.945 3.9043 4.19943 0
M  V30 6778 N 666.441 4.8228 4.97371 0
M  V30 6779 N 668.234 3.786 4.15474 0
M  V30 6780 H 660.385 2.00184 0.709932 0
M  V30 6781 H 662.648 0.870635 0.375099 0
M  V30 6782 H 662.354 2.9499 1.91503 0
M  V30 6783 H 662.228 1.85782 3.28275 0
M  V30 6784 H 664.615 1.00633 2.77411 0
M  V30 6785 H 664.696 2.13292 1.4121 0
M  V30 6786 H 664.34 4.07748 3.02827 0
M  V30 6787 H 664.27 2.92102 4.3816 0
M  V30 6788 H 666.761 2.42 2.90249 0
M  V30 6789 H 667.074 5.41289 5.51567 0
M  V30 6790 H 665.419 4.863 4.96525 0
M  V30 6791 H 668.61 3.06185 3.54074 0
M  V30 6792 H 668.783 4.42647 4.73253 0
M  V30 6793 N 662.189 -1.289 0.906776 0
M  V30 6794 C 663.119 -2.29932 0.406659 0
M  V30 6795 C 664.1 -1.6189 -0.522061 0
M  V30 6796 O 665.285 -1.8935 -0.431283 0
M  V30 6797 C 662.415 -3.45425 -0.360366 0
M  V30 6798 C 661.369 -4.25316 0.478574 0
M  V30 6799 C 660.695 -5.33076 -0.416373 0
M  V30 6800 C 661.995 -4.92739 1.7322 0
M  V30 6801 H 663.689 -2.72013 1.25097 0
M  V30 6802 H 661.235 -1.30768 0.602977 0
M  V30 6803 H 663.188 -4.15186 -0.721029 0
M  V30 6804 H 661.912 -3.02206 -1.23852 0
M  V30 6805 H 660.571 -3.57273 0.821662 0
M  V30 6806 H 660.219 -4.86101 -1.29287 0
M  V30 6807 H 659.919 -5.8743 0.141309 0
M  V30 6808 H 661.443 -6.05686 -0.773072 0
M  V30 6809 H 662.857 -5.54898 1.44086 0
M  V30 6810 H 661.254 -5.57057 2.23175 0
M  V30 6811 H 662.324 -4.17625 2.46408 0
M  V30 6812 N 663.667 -0.670007 -1.42649 0
M  V30 6813 C 664.597 -0.00258501 -2.335 0
M  V30 6814 C 665.578 0.794364 -1.50412 0
M  V30 6815 O 666.763 0.75248 -1.79029 0
M  V30 6816 C 663.893 0.952748 -3.33976 0
M  V30 6817 C 662.847 0.264733 -4.2718 0
M  V30 6818 C 662.173 1.33267 -5.17826 0
M  V30 6819 C 663.473 -0.853289 -5.15283 0
M  V30 6820 H 665.167 -0.761326 -2.89559 0
M  V30 6821 H 662.713 -0.367561 -1.3923 0
M  V30 6822 H 664.666 1.4287 -3.96442 0
M  V30 6823 H 663.39 1.74285 -2.7621 0
M  V30 6824 H 662.049 -0.190938 -3.66102 0
M  V30 6825 H 661.697 2.11464 -4.5639 0
M  V30 6826 H 661.397 0.877476 -5.81011 0
M  V30 6827 H 662.921 1.80965 -5.83167 0
M  V30 6828 H 664.335 -0.458763 -5.71462 0
M  V30 6829 H 662.732 -1.23398 -5.87276 0
M  V30 6830 H 663.802 -1.70412 -4.53969 0
M  V30 6831 N 665.145 1.52092 -0.413018 0
M  V30 6832 C 666.561 1.59471 -0.0640836 0
M  V30 6833 C 666.761 1.42562 1.42402 0
M  V30 6834 O 665.817 1.25453 2.19129 0
M  V30 6835 C 667.13 2.95392 -0.562474 0
M  V30 6836 C 668.678 3.08637 -0.520788 0
M  V30 6837 C 669.153 4.47044 -0.995752 0
M  V30 6838 N 670.644 4.53296 -0.952732 0
M  V30 6839 C 671.379 5.58669 -1.29138 0
M  V30 6840 N 670.875 6.71576 -1.70168 0
M  V30 6841 N 672.668 5.48898 -1.2111 0
M  V30 6842 H 664.819 1.6133 -1.38153 0
M  V30 6843 H 667.082 0.75916 -0.567785 0
M  V30 6844 H 666.788 3.13059 -1.60271 0
M  V30 6845 H 666.662 3.77191 0.0257875 0
M  V30 6846 H 669.049 2.90652 0.510412 0
M  V30 6847 H 669.13 2.28735 -1.14515 0
M  V30 6848 H 668.774 4.65773 -2.0253 0
M  V30 6849 H 668.704 5.25448 -0.348162 0
M  V30 6850 H 671.195 3.72248 -0.651119 0
M  V30 6851 H 671.508 7.47973 -1.9431 0
M  V30 6852 H 669.853 6.72847 -1.74075 0
M  V30 6853 H 673.044 4.59573 -0.889396 0
M  V30 6854 H 673.217 6.30912 -1.47833 0
M  V30 6855 N 666.623 0.143563 1.56945 0
M  V30 6856 C 667.533 -0.810562 2.20152 0
M  V30 6857 C 668.549 -1.27431 1.1848 0
M  V30 6858 O 669.725 -1.33221 1.51044 0
M  V30 6859 C 666.79 -2.03353 2.80799 0
M  V30 6860 C 665.851 -1.61936 3.97587 0
M  V30 6861 C 665.084 -2.78403 4.55332 0
M  V30 6862 O 665.307 -3.94521 4.11958 0
M  V30 6863 O 664.241 -2.54073 5.45647 0
M  V30 6864 H 668.067 -0.30253 3.02189 0
M  V30 6865 H 665.652 -0.0832925 1.49168 0
M  V30 6866 H 667.534 -2.74932 3.19359 0
M  V30 6867 H 666.209 -2.53116 2.01777 0
M  V30 6868 H 665.116 -0.873904 3.6375 0
M  V30 6869 H 666.449 -1.16892 4.78118 0
M  V30 6870 N 668.101 -1.57061 -0.130224 0
M  V30 6871 C 669.331 -1.88159 -0.853217 0
M  V30 6872 C 669.739 -0.731675 -1.7448 0
M  V30 6873 O 669.082 0.307035 -1.81116 0
M  V30 6874 C 669.144 -3.1415 -1.74785 0
M  V30 6875 C 668.808 -4.45202 -1.03173 0
M  V30 6876 C 669.805 -5.18526 -0.377759 0
M  V30 6877 C 667.49 -4.91912 -1.01624 0
M  V30 6878 C 669.484 -6.36775 0.282123 0
M  V30 6879 C 667.171 -6.10082 -0.352555 0
M  V30 6880 C 668.169 -6.82361 0.295483 0
M  V30 6881 O 667.857 -7.98284 0.948606 0
M  V30 6882 H 667.589 -0.627596 -0.251197 0
M  V30 6883 H 670.143 -2.05034 -0.1226 0
M  V30 6884 H 668.373 -2.93328 -2.51983 0
M  V30 6885 H 670.062 -3.31359 -2.34427 0
M  V30 6886 H 670.828 -4.83498 -0.381417 0
M  V30 6887 H 666.707 -4.35566 -1.51007 0
M  V30 6888 H 670.251 -6.93129 0.788525 0
M  V30 6889 H 666.148 -6.44569 -0.346621 0
M  V30 6890 H 666.916 -8.14054 0.851954 0
M  V30 6891 N 669.579 0.400081 -1.52437 0
M  V30 6892 C 670.511 1.50729 -1.72666 0
M  V30 6893 C 671.524 1.51058 -0.607075 0
M  V30 6894 O 672.713 1.5516 -0.88248 0
M  V30 6895 C 669.813 2.89604 -1.76019 0
M  V30 6896 C 668.986 3.13365 -3.05157 0
M  V30 6897 C 668.045 4.32163 -3.00203 0
M  V30 6898 O 667.071 4.29004 -3.74092 0
M  V30 6899 N 668.273 5.3776 -2.18619 0
M  V30 6900 H 671.038 1.33767 -2.68191 0
M  V30 6901 H 668.599 0.58948 -1.50787 0
M  V30 6902 H 670.591 3.67159 -1.70225 0
M  V30 6903 H 669.161 2.99979 -0.879284 0
M  V30 6904 H 668.381 2.23774 -3.24529 0
M  V30 6905 H 669.669 3.26089 -3.90568 0
M  V30 6906 H 669.067 5.43177 -1.58035 0
M  V30 6907 H 667.624 6.14023 -2.18674 0
M  V30 6908 N 671.057 1.43213 0.657864 0
M  V30 6909 C 671.967 1.50448 1.80007 0
M  V30 6910 C 672.983 0.39191 1.69529 0
M  V30 6911 O 674.159 0.645349 1.90781 0
M  V30 6912 C 671.224 1.42062 3.16258 0
M  V30 6913 C 670.285 2.63951 3.38568 0
M  V30 6914 C 669.518 2.55956 4.68318 0
M  V30 6915 O 669.741 1.60473 5.47361 0
M  V30 6916 O 668.675 3.46378 4.92245 0
M  V30 6917 H 672.501 2.4689 1.76858 0
M  V30 6918 H 670.086 1.25163 0.81576 0
M  V30 6919 H 671.968 1.3981 3.97531 0
M  V30 6920 H 670.643 0.487524 3.20008 0
M  V30 6921 H 669.55 2.71776 2.57077 0
M  V30 6922 H 670.883 3.56217 3.39662 0
M  V30 6923 N 672.536 -0.895792 1.29666 0
M  V30 6924 C 673.466 -2.01673 1.17688 0
M  V30 6925 C 674.447 -1.69955 0.0701317 0
M  V30 6926 O 675.632 -1.9258 0.250289 0
M  V30 6927 C 672.762 -3.36568 0.856681 0
M  V30 6928 C 671.716 -3.82509 1.92017 0
M  V30 6929 C 671.042 -5.14574 1.4532 0
M  V30 6930 C 672.342 -4.02409 3.32963 0
M  V30 6931 H 674.036 -2.11953 2.11463 0
M  V30 6932 H 671.582 -1.01839 1.01807 0
M  V30 6933 H 673.535 -4.14498 0.759577 0
M  V30 6934 H 672.259 -3.26391 -0.116763 0
M  V30 6935 H 670.918 -3.068 2.00673 0
M  V30 6936 H 670.566 -5.00815 0.468325 0
M  V30 6937 H 670.266 -5.46283 2.16447 0
M  V30 6938 H 671.79 -5.9504 1.36968 0
M  V30 6939 H 673.204 -4.70808 3.27127 0
M  V30 6940 H 671.601 -4.45478 4.02082 0
M  V30 6941 H 672.671 -3.06616 3.75652 0
M  V30 6942 N 674.014 -1.12206 -1.10668 0
M  V30 6943 C 674.947 -0.731468 -2.16159 0
M  V30 6944 C 675.925 0.276216 -1.60237 0
M  V30 6945 O 677.109 0.17074 -1.87725 0
M  V30 6946 C 674.236 -0.0822882 -3.386 0
M  V30 6947 C 673.282 -1.05641 -4.1321 0
M  V30 6948 S 674.115 -2.58281 -4.69096 0
M  V30 6949 C 675.271 -1.94686 -5.94851 0
M  V30 6950 H 675.504 -1.62504 -2.48957 0
M  V30 6951 H 673.037 -0.940906 -1.22419 0
M  V30 6952 H 674.995 0.285896 -4.09503 0
M  V30 6953 H 673.656 0.788358 -3.04046 0
M  V30 6954 H 672.849 -0.549764 -5.00993 0
M  V30 6955 H 672.451 -1.36741 -3.48106 0
M  V30 6956 H 674.743 -1.28815 -6.65141 0
M  V30 6957 H 675.686 -2.80499 -6.50174 0
M  V30 6958 H 676.094 -1.40369 -5.46769 0
M  V30 6959 N 675.492 1.28418 -0.913599 0
M  V30 6960 C 676.44 2.29272 -0.392037 0
M  V30 6961 C 677.434 1.61344 0.516198 0
M  V30 6962 O 678.64 1.75557 0.39746 0
M  V30 6963 H 675.015 0.744178 -0.108178 0
M  V30 6964 H 676.986 2.70691 -1.25574 0
M  V30 6965 C 675.735 3.45905 0.352815 0
M  V30 6966 H 675.058 3.98378 -0.336848 0
M  V30 6967 H 676.498 4.18473 0.682398 0
M  V30 6968 C 674.957 2.98572 1.56065 0
M  V30 6969 O 675.487 3.01033 2.65974 0
M  V30 6970 N 673.693 2.54235 1.40759 0
M  V30 6971 H 673.24 2.52432 0.513403 0
M  V30 6972 H 673.198 2.22925 2.21702 0
M  V30 6973 N 676.97 0.677563 1.42291 0
M  V30 6974 C 678.198 0.209459 2.05837 0
M  V30 6975 C 678.613 -1.13444 1.50917 0
M  V30 6976 O 677.97 -1.70529 0.65008 0
M  V30 6977 C 678.021 0.138819 3.61233 0
M  V30 6978 O 677.742 1.42962 4.14118 0
M  V30 6979 C 679.243 -0.352449 4.41897 0
M  V30 6980 H 676.463 0.101209 0.663323 0
M  V30 6981 H 679.007 0.925077 1.8238 0
M  V30 6982 H 677.162 -0.527505 3.83792 0
M  V30 6983 H 677.576 1.3048 5.08011 0
M  V30 6984 H 679.05 -0.350778 5.50884 0
M  V30 6985 H 679.527 -1.3882 4.16684 0
M  V30 6986 H 680.133 0.282236 4.24362 0
M  V30 6987 N 678.448 -1.51871 0.421078 0
M  V30 6988 C 679.395 -2.27334 -0.398508 0
M  V30 6989 C 680.365 -1.30241 -1.03085 0
M  V30 6990 O 681.55 -1.59121 -1.05285 0
M  V30 6991 C 678.69 -3.10664 -1.50272 0
M  V30 6992 C 677.803 -4.2273 -0.890122 0
M  V30 6993 C 676.938 -4.93399 -1.96803 0
M  V30 6994 C 675.977 -5.97409 -1.333 0
M  V30 6995 N 675.114 -6.61548 -2.35156 0
M  V30 6996 H 679.954 -2.96938 0.251411 0
M  V30 6997 H 677.491 -1.46472 0.135825 0
M  V30 6998 H 679.449 -3.57292 -2.15403 0
M  V30 6999 H 678.079 -2.43207 -2.1225 0
M  V30 7000 H 677.131 -3.80186 -0.127537 0
M  V30 7001 H 678.443 -4.97302 -0.386349 0
M  V30 7002 H 677.597 -5.43491 -2.69633 0
M  V30 7003 H 676.336 -4.18421 -2.50549 0
M  V30 7004 H 675.341 -5.46624 -0.59008 0
M  V30 7005 H 676.566 -6.74335 -0.803076 0
M  V30 7006 H 674.512 -5.89394 -2.88012 0
M  V30 7007 H 674.429 -7.31832 -1.89624 0
M  V30 7008 H 675.697 -7.16276 -3.0752 0
M  V30 7009 N 679.926 -0.151884 -1.56866 0
M  V30 7010 C 680.856 0.781943 -2.20018 0
M  V30 7011 C 681.837 1.25347 -1.14987 0
M  V30 7012 O 683.022 1.31015 -1.43348 0
M  V30 7013 C 680.152 2.01928 -2.82564 0
M  V30 7014 C 679.106 1.68434 -3.93464 0
M  V30 7015 C 678.432 2.99472 -4.42968 0
M  V30 7016 C 679.732 0.927244 -5.14003 0
M  V30 7017 H 681.426 0.255607 -2.98307 0
M  V30 7018 H 678.972 0.121502 -1.43486 0
M  V30 7019 H 680.925 2.67741 -3.25411 0
M  V30 7020 H 679.649 2.56943 -2.01614 0
M  V30 7021 H 678.308 1.04998 -3.51242 0
M  V30 7022 H 677.956 3.52488 -3.58834 0
M  V30 7023 H 677.656 2.77823 -5.17772 0
M  V30 7024 H 679.18 3.66348 -4.88489 0
M  V30 7025 H 680.594 1.48756 -5.53665 0
M  V30 7026 H 678.991 0.810513 -5.94601 0
M  V30 7027 H 680.061 -0.0801163 -4.84834 0
M  V30 7028 N 681.404 1.57128 0.121893 0
M  V30 7029 C 682.367 1.99197 1.13372 0
M  V30 7030 C 683.367 0.881728 1.3447 0
M  V30 7031 O 684.557 1.14783 1.31036 0
M  V30 7032 C 681.689 2.32963 2.4888 0
M  V30 7033 H 682.882 2.89788 0.772204 0
M  V30 7034 H 680.435 1.51952 0.366093 0
M  V30 7035 H 681.17 1.45243 2.89957 0
M  V30 7036 H 680.955 3.13934 2.34921 0
M  V30 7037 H 682.445 2.66261 3.21706 0
M  V30 7038 N 682.882 -0.391992 1.52647 0
M  V30 7039 C 683.812 -1.48517 1.8018 0
M  V30 7040 C 684.793 -1.57039 0.653667 0
M  V30 7041 O 685.978 -1.72036 0.900962 0
M  V30 7042 C 683.108 -2.86161 1.96797 0
M  V30 7043 C 682.062 -2.92481 3.12472 0
M  V30 7044 C 681.388 -4.32546 3.14338 0
M  V30 7045 C 682.688 -2.624 4.51601 0
M  V30 7046 H 684.382 -1.25726 2.71723 0
M  V30 7047 H 681.928 -0.603387 1.30749 0
M  V30 7048 H 683.881 -3.62639 2.14641 0
M  V30 7049 H 682.605 -3.10283 1.01941 0
M  V30 7050 H 681.264 -2.18451 2.94406 0
M  V30 7051 H 680.912 -4.53703 2.1717 0
M  V30 7052 H 680.612 -4.37695 3.92042 0
M  V30 7053 H 682.136 -5.10934 3.34333 0
M  V30 7054 H 683.55 -3.28596 4.69785 0
M  V30 7055 H 681.947 -2.78903 5.3135 0
M  V30 7056 H 683.017 -1.57754 4.58521 0
M  V30 7057 N 684.36 -1.4356 -0.65026 0
M  V30 7058 C 685.637 -1.35811 -1.40765 0
M  V30 7059 C 686.017 -0.00736379 -2.11099 0
M  V30 7060 O 685.365 1.00932 -2.05 0
M  V30 7061 C 685.575 -2.54332 -2.3899 0
M  V30 7062 C 686.923 -2.97551 -3.02901 0
M  V30 7063 O 687.947 -2.544 -2.49317 0
M  V30 7064 O 686.806 -3.72311 -4.00059 0
M  V30 7065 H 683.9 -0.536861 -0.629054 0
M  V30 7066 H 686.446 -1.55615 -0.676919 0
M  V30 7067 H 685.218 -3.44274 -1.85986 0
M  V30 7068 H 684.841 -2.36643 -3.19509 0
M  V30 7069 N 685.838 0.888903 -1.30139 0
M  V30 7070 C 687.084 1.6428 -1.18912 0
M  V30 7071 C 687.417 1.92499 0.256477 0
M  V30 7072 O 686.692 1.54312 1.18397 0
M  V30 7073 C 686.975 2.9851 -2.01405 0
M  V30 7074 C 686.828 2.77288 -3.54163 0
M  V30 7075 C 688.147 3.99383 -1.84882 0
M  V30 7076 H 685.266 0.596148 -0.433333 0
M  V30 7077 H 687.908 1.0289 -1.5973 0
M  V30 7078 H 686.058 3.50907 -1.66722 0
M  V30 7079 H 687.73 2.31709 -3.98884 0
M  V30 7080 H 685.973 2.11867 -3.78543 0
M  V30 7081 H 686.644 3.72717 -4.07168 0
M  V30 7082 H 689.12 3.56132 -2.15196 0
M  V30 7083 H 687.996 4.91222 -2.44934 0
M  V30 7084 H 688.257 4.34674 -0.806902 0
M  V30 7085 N 687.317 1.12792 1.10072 0
M  V30 7086 C 688.227 0.812369 2.20086 0
M  V30 7087 C 689.243 -0.200349 1.72843 0
M  V30 7088 O 690.419 -0.0330262 2.01373 0
M  V30 7089 C 687.484 0.275685 3.45602 0
M  V30 7090 C 686.545 1.34881 4.07561 0
M  V30 7091 C 685.778 0.837639 5.27086 0
M  V30 7092 O 686.001 -0.327224 5.69461 0
M  V30 7093 O 684.935 1.60894 5.79997 0
M  V30 7094 H 688.761 1.73133 2.49517 0
M  V30 7095 H 686.346 0.904863 1.18881 0
M  V30 7096 H 688.228 -0.0185375 4.21396 0
M  V30 7097 H 686.903 -0.615783 3.17789 0
M  V30 7098 H 685.81 1.69625 3.33434 0
M  V30 7099 H 687.143 2.21418 4.39585 0
M  V30 7100 N 688.795 -1.27931 0.920396 0
M  V30 7101 C 690.044 -1.93975 0.552867 0
M  V30 7102 C 690.357 -1.73193 -0.909035 0
M  V30 7103 O 691.563 -2.33515 -1.38502 0
M  V30 7104 C 690.019 -3.47463 0.937947 0
M  V30 7105 C 689.627 -3.77013 2.42003 0
M  V30 7106 C 691.371 -4.19628 0.64132 0
M  V30 7107 C 689.278 -5.23841 2.74489 0
M  V30 7108 H 688.208 -0.726146 0.203046 0
M  V30 7109 H 690.859 -1.45339 1.12022 0
M  V30 7110 H 689.241 -3.94867 0.299317 0
M  V30 7111 H 690.415 -3.40393 3.10595 0
M  V30 7112 H 688.73 -3.18035 2.6878 0
M  V30 7113 H 691.327 -5.27729 0.860622 0
M  V30 7114 H 691.67 -4.14164 -0.421168 0
M  V30 7115 H 692.203 -3.78022 1.23872 0
M  V30 7116 H 688.942 -5.34388 3.79618 0
M  V30 7117 H 688.462 -5.61634 2.1054 0
M  V30 7118 H 690.141 -5.91647 2.61845 0
M  V30 7119 N 690.273 -0.685099 -1.4193 0
M  V30 7120 C 691.236 -0.0222632 -2.29189 0
M  V30 7121 C 692.236 0.7186 -1.4385 0
M  V30 7122 O 693.426 0.555058 -1.6512 0
M  V30 7123 C 690.558 0.979013 -3.2654 0
M  V30 7124 H 691.751 -0.790424 -2.89296 0
M  V30 7125 H 689.304 -0.448012 -1.49742 0
M  V30 7126 H 690.039 1.77531 -2.71392 0
M  V30 7127 H 689.824 0.451037 -3.89497 0
M  V30 7128 H 691.314 1.44091 -3.91954 0
M  V30 7129 N 691.751 1.51645 -0.429126 0
M  V30 7130 C 692.979 2.06433 0.138994 0
M  V30 7131 C 693.394 1.29735 1.37165 0
M  V30 7132 O 692.751 0.354638 1.79021 0
M  V30 7133 C 692.802 3.58439 0.469452 0
M  V30 7134 O 692.523 4.32238 -0.714273 0
M  V30 7135 C 694.024 4.29712 1.08914 0
M  V30 7136 H 691.244 0.6709 0.0115608 0
M  V30 7137 H 693.788 1.9532 -0.605843 0
M  V30 7138 H 691.943 3.69494 1.16419 0
M  V30 7139 H 692.357 5.22704 -0.433633 0
M  V30 7140 H 693.831 5.37182 1.27042 0
M  V30 7141 H 694.308 3.87473 2.06788 0
M  V30 7142 H 694.914 4.2308 0.434028 0
M  V30 7143 N 693.229 0.160201 1.56784 0
M  V30 7144 C 694.459 -0.493449 2.00621 0
M  V30 7145 C 694.867 -1.5809 1.03943 0
M  V30 7146 O 694.21 -1.83675 0.0305343 0
M  V30 7147 C 694.272 -1.14169 3.4089 0
M  V30 7148 C 693.936 -0.197243 4.56574 0
M  V30 7149 C 694.933 0.580174 5.16653 0
M  V30 7150 C 692.618 -0.0963038 5.02208 0
M  V30 7151 C 694.612 1.44584 6.20785 0
M  V30 7152 C 692.299 0.772959 6.06192 0
M  V30 7153 C 693.297 1.54263 6.65351 0
M  V30 7154 O 692.985 2.39738 7.67321 0
M  V30 7155 H 692.717 -0.131764 0.663034 0
M  V30 7156 H 695.271 0.255728 2.03802 0
M  V30 7157 H 693.501 -1.93877 3.34587 0
M  V30 7158 H 695.19 -1.69641 3.6875 0
M  V30 7159 H 695.956 0.5123 4.82287 0
M  V30 7160 H 691.835 -0.685143 4.5588 0
M  V30 7161 H 695.379 2.04706 6.66889 0
M  V30 7162 H 691.276 0.842077 6.39984 0
M  V30 7163 H 692.044 2.33131 7.84597 0
M  V30 7164 N 694.707 -1.5719 -0.113559 0
M  V30 7165 C 696.123 -1.52607 -0.467253 0
M  V30 7166 C 696.323 -0.874058 -1.81556 0
M  V30 7167 O 695.379 -0.458703 -2.48299 0
M  V30 7168 C 696.692 -2.97363 -0.446736 0
M  V30 7169 C 698.24 -3.08482 -0.529903 0
M  V30 7170 C 698.715 -4.54809 -0.539721 0
M  V30 7171 N 700.206 -4.59284 -0.601005 0
M  V30 7172 C 700.941 -5.69927 -0.630138 0
M  V30 7173 N 700.437 -6.90051 -0.616589 0
M  V30 7174 N 702.23 -5.5805 -0.673558 0
M  V30 7175 H 694.381 -1.97958 0.769819 0
M  V30 7176 H 696.644 -0.90428 0.284572 0
M  V30 7177 H 696.35 -3.48458 0.47643 0
M  V30 7178 H 696.224 -3.55086 -1.27254 0
M  V30 7179 H 698.611 -2.57386 -1.44349 0
M  V30 7180 H 698.692 -2.53744 0.323695 0
M  V30 7181 H 698.336 -5.06552 0.369843 0
M  V30 7182 H 698.266 -5.07364 -1.41028 0
M  V30 7183 H 700.757 -3.72822 -0.617419 0
M  V30 7184 H 701.07 -7.70132 -0.641592 0
M  V30 7185 H 699.415 -6.92543 -0.583927 0
M  V30 7186 H 702.606 -4.63112 -0.681544 0
M  V30 7187 H 702.779 -6.44286 -0.692794 0
M  V30 7188 N 696.185 0.383891 -1.52853 0
M  V30 7189 C 697.132 1.46924 -1.77995 0
M  V30 7190 C 698.102 1.53958 -0.623396 0
M  V30 7191 O 699.287 1.70134 -0.863657 0
M  V30 7192 C 696.427 2.84093 -1.95921 0
M  V30 7193 C 695.54 2.86171 -3.23621 0
M  V30 7194 C 694.675 4.14799 -3.31836 0
M  V30 7195 C 693.714 4.10948 -4.53639 0
M  V30 7196 N 692.851 5.31192 -4.59107 0
M  V30 7197 H 697.691 1.24786 -2.70615 0
M  V30 7198 H 695.228 0.605265 -1.34071 0
M  V30 7199 H 697.186 3.63755 -2.04299 0
M  V30 7200 H 695.816 3.04671 -1.06656 0
M  V30 7201 H 694.868 1.9885 -3.24288 0
M  V30 7202 H 696.18 2.79194 -4.13343 0
M  V30 7203 H 695.334 5.02867 -3.39425 0
M  V30 7204 H 694.073 4.24505 -2.40097 0
M  V30 7205 H 693.078 3.21268 -4.46169 0
M  V30 7206 H 694.303 4.0286 -5.467 0
M  V30 7207 H 692.249 5.41518 -3.70262 0
M  V30 7208 H 692.166 5.26311 -5.42708 0
M  V30 7209 H 693.434 6.21143 -4.70958 0
M  V30 7210 N 697.663 1.43903 0.642637 0
M  V30 7211 C 698.593 1.52697 1.76652 0
M  V30 7212 C 699.574 0.380816 1.65782 0
M  V30 7213 O 700.759 0.599432 1.84717 0
M  V30 7214 C 697.889 1.45975 3.15133 0
M  V30 7215 C 696.843 2.58949 3.40778 0
M  V30 7216 C 696.169 2.37279 4.79169 0
M  V30 7217 C 697.469 4.01153 3.34475 0
M  V30 7218 H 699.163 2.46766 1.69549 0
M  V30 7219 H 696.709 1.18767 0.814279 0
M  V30 7220 H 698.662 1.5073 3.93521 0
M  V30 7221 H 697.386 0.484162 3.22991 0
M  V30 7222 H 696.045 2.53564 2.64765 0
M  V30 7223 H 695.693 1.37939 4.83717 0
M  V30 7224 H 695.393 3.13016 4.97287 0
M  V30 7225 H 696.917 2.43834 5.59801 0
M  V30 7226 H 698.331 4.07968 4.02784 0
M  V30 7227 H 696.728 4.77001 3.64129 0
M  V30 7228 H 697.798 4.25539 2.32475 0
M  V30 7229 N 699.141 -0.881989 1.30609 0
M  V30 7230 C 700.071 -2.00413 1.1982 0
M  V30 7231 C 701.052 -1.69871 0.0881538 0
M  V30 7232 O 702.237 -1.92304 0.2707 0
M  V30 7233 C 699.367 -3.35641 0.89233 0
M  V30 7234 C 698.321 -3.80451 1.96064 0
M  V30 7235 C 697.647 -5.13003 1.5077 0
M  V30 7236 C 698.947 -3.98855 3.37213 0
M  V30 7237 H 700.641 -2.09698 2.13699 0
M  V30 7238 H 698.187 -1.00754 1.02882 0
M  V30 7239 H 700.14 -4.13669 0.803497 0
M  V30 7240 H 698.864 -3.26497 -0.0821381 0
M  V30 7241 H 697.523 -3.04654 2.03916 0
M  V30 7242 H 697.171 -5.0029 0.521417 0
M  V30 7243 H 696.871 -5.43956 2.22229 0
M  V30 7244 H 698.395 -5.93554 1.43271 0
M  V30 7245 H 699.809 -4.67312 3.32103 0
M  V30 7246 H 698.206 -4.41188 4.06784 0
M  V30 7247 H 699.276 -3.02614 3.78883 0
M  V30 7248 N 700.619 -1.13374 -1.09472 0
M  V30 7249 C 701.529 -0.824029 -2.19652 0
M  V30 7250 C 702.545 0.19118 -1.72947 0
M  V30 7251 O 703.721 0.0223464 -2.01388 0
M  V30 7252 C 700.786 -0.294009 -3.45451 0
M  V30 7253 C 699.847 -1.3704 -4.0684 0
M  V30 7254 C 699.08 -0.86558 -5.26634 0
M  V30 7255 O 699.303 0.29702 -5.69626 0
M  V30 7256 O 698.237 -1.63968 -5.79136 0
M  V30 7257 H 702.063 -1.74454 -2.48595 0
M  V30 7258 H 699.648 -0.911155 -1.18399 0
M  V30 7259 H 701.53 -0.00381039 -4.214 0
M  V30 7260 H 700.205 0.598921 -3.18111 0
M  V30 7261 H 699.112 -1.71391 -3.3253 0
M  V30 7262 H 700.445 -2.23746 -4.38405 0
M  V30 7263 N 702.098 1.27442 -0.927168 0
M  V30 7264 C 703.346 1.94007 -0.566203 0
M  V30 7265 C 703.667 1.7323 0.895345 0
M  V30 7266 O 702.937 1.07973 1.63459 0
M  V30 7267 H 701.517 0.717917 -0.206409 0
M  V30 7268 H 704.179 1.55161 -1.17945 0
M  V30 7269 H 703.275 3.02401 -0.772028 0
M  V30 7270 N 703.576 0.692616 1.41565 0
M  V30 7271 C 704.486 0.0258451 2.34586 0
M  V30 7272 C 705.502 -0.769324 1.56069 0
M  V30 7273 O 706.678 -0.707563 1.88562 0
M  V30 7274 C 703.743 -0.901289 3.3478 0
M  V30 7275 C 702.804 -0.0986579 4.29187 0
M  V30 7276 C 702.037 -0.981634 5.24595 0
M  V30 7277 O 702.26 -2.22115 5.25377 0
M  V30 7278 O 701.194 -0.432892 6.00341 0
M  V30 7279 H 705.02 0.792537 2.93177 0
M  V30 7280 H 702.605 0.452935 1.42369 0
M  V30 7281 H 704.487 -1.43302 3.96286 0
M  V30 7282 H 703.162 -1.64752 2.78637 0
M  V30 7283 H 702.069 0.477604 3.71039 0
M  V30 7284 H 703.402 0.608848 4.8842 0
M  V30 7285 N 705.054 -1.51416 0.437162 0
M  V30 7286 C 705.964 -2.31493 -0.380537 0
M  V30 7287 C 706.98 -1.40399 -1.02782 0
M  V30 7288 O 708.156 -1.73471 -1.02323 0
M  V30 7289 C 705.221 -3.1413 -1.46709 0
M  V30 7290 C 704.282 -4.21003 -0.839953 0
M  V30 7291 C 703.515 -4.9969 -1.87473 0
M  V30 7292 O 703.738 -4.79008 -3.09689 0
M  V30 7293 O 702.672 -5.8379 -1.46536 0
M  V30 7294 H 706.498 -3.02469 0.273183 0
M  V30 7295 H 704.083 -1.48059 0.199706 0
M  V30 7296 H 705.965 -3.65505 -2.09724 0
M  V30 7297 H 704.64 -2.45919 -2.10489 0
M  V30 7298 H 703.547 -3.73706 -0.171752 0
M  V30 7299 H 704.88 -4.91587 -0.245638 0
M  V30 7300 N 706.532 -0.168513 -1.56696 0
M  V30 7301 C 707.772 0.479648 -1.98693 0
M  V30 7302 C 708.136 1.60609 -1.05209 0
M  V30 7303 O 709.337 2.3166 -1.36334 0
M  V30 7304 C 707.608 0.952852 -3.44464 0
M  V30 7305 S 709.167 1.60259 -4.08488 0
M  V30 7306 H 705.985 0.154377 -0.694038 0
M  V30 7307 H 708.587 -0.265312 -1.93691 0
M  V30 7308 H 707.291 0.12257 -4.10217 0
M  V30 7309 H 706.822 1.73192 -3.53225 0
M  V30 7310 H 708.837 2.89065 -4.03307 0
M  V30 7311 N 708.01 1.57248 0.105221 0
M  V30 7312 C 709.426 1.52853 0.459153 0
M  V30 7313 C 709.626 0.883674 1.8109 0
M  V30 7314 O 708.682 0.471864 2.48052 0
M  V30 7315 C 709.995 2.97596 0.43096 0
M  V30 7316 C 711.543 3.08758 0.513536 0
M  V30 7317 C 712.018 4.55089 0.515593 0
M  V30 7318 N 713.509 4.59597 0.576639 0
M  V30 7319 C 714.244 5.70253 0.599904 0
M  V30 7320 N 713.74 6.90368 0.579985 0
M  V30 7321 N 715.533 5.58399 0.643953 0
M  V30 7322 H 707.684 1.97547 -0.780306 0
M  V30 7323 H 709.947 0.902758 -0.289363 0
M  V30 7324 H 709.653 3.48201 -0.494903 0
M  V30 7325 H 709.527 3.55756 1.2537 0
M  V30 7326 H 711.914 2.58148 1.42982 0
M  V30 7327 H 711.995 2.53568 -0.337148 0
M  V30 7328 H 711.639 5.06348 -0.396701 0
M  V30 7329 H 711.569 5.08105 1.38335 0
M  V30 7330 H 714.06 3.73144 0.597639 0
M  V30 7331 H 714.373 7.70462 0.600741 0
M  V30 7332 H 712.718 6.92843 0.547191 0
M  V30 7333 H 715.909 4.63467 0.656975 0
M  V30 7334 H 716.082 6.44644 0.658616 0
M  V30 7335 N 709.488 -0.375779 1.53054 0
M  V30 7336 C 710.418 -1.46598 1.81745 0
M  V30 7337 C 711.399 -1.56337 0.670286 0
M  V30 7338 O 712.584 -1.71071 0.919158 0
M  V30 7339 C 709.714 -2.84058 1.99821 0
M  V30 7340 C 708.668 -2.8915 3.15557 0
M  V30 7341 C 707.994 -4.29187 3.18908 0
M  V30 7342 C 709.294 -2.57595 4.54359 0
M  V30 7343 H 710.988 -1.22837 2.73041 0
M  V30 7344 H 708.534 -0.589485 1.31381 0
M  V30 7345 H 710.487 -3.60342 2.18475 0
M  V30 7346 H 709.211 -3.09184 1.05226 0
M  V30 7347 H 707.87 -2.15316 2.96706 0
M  V30 7348 H 707.518 -4.51374 2.2197 0
M  V30 7349 H 707.218 -4.33512 3.96662 0
M  V30 7350 H 708.742 -5.07359 3.39734 0
M  V30 7351 H 710.156 -3.23595 4.73243 0
M  V30 7352 H 708.553 -2.73252 5.34279 0
M  V30 7353 H 709.623 -1.52882 4.60169 0
M  V30 7354 N 710.966 -1.44241 -0.634997 0
M  V30 7355 C 712.191 -1.50516 -1.42687 0
M  V30 7356 C 712.616 -0.129864 -1.87651 0
M  V30 7357 O 711.974 0.880164 -1.58502 0
M  V30 7358 C 712.022 -2.4714 -2.62591 0
M  V30 7359 O 711.126 -1.97025 -3.62291 0
M  V30 7360 H 710.467 -0.50841 -0.427101 0
M  V30 7361 H 712.997 -1.89337 -0.775408 0
M  V30 7362 H 713.007 -2.65048 -3.10183 0
M  V30 7363 H 711.682 -3.47039 -2.29209 0
M  V30 7364 H 710.259 -1.88866 -3.21534 0
M  V30 7365 N 712.444 0.87505 -1.31075 0
M  V30 7366 C 713.692 1.62447 -1.20231 0
M  V30 7367 C 714.013 1.93506 0.240888 0
M  V30 7368 O 713.283 1.57847 1.16022 0
M  V30 7369 H 711.863 0.602207 -0.441991 0
M  V30 7370 H 714.525 1.04788 -1.64334 0
M  V30 7371 H 713.621 2.57031 -1.77036 0
M  V30 7372 N 713.922 1.13953 1.08869 0
M  V30 7373 C 714.832 0.835666 2.19212 0
M  V30 7374 C 715.848 -0.182005 1.73045 0
M  V30 7375 O 717.024 -0.0116661 2.01397 0
M  V30 7376 C 714.089 0.312325 3.4529 0
M  V30 7377 C 713.15 1.39196 4.06107 0
M  V30 7378 C 712.383 0.893496 5.26168 0
M  V30 7379 O 712.606 -0.266807 5.69776 0
M  V30 7380 O 711.54 1.67037 5.78258 0
M  V30 7381 H 715.366 1.75769 2.47667 0
M  V30 7382 H 712.951 0.917421 1.17914 0
M  V30 7383 H 714.833 0.0261582 4.21392 0
M  V30 7384 H 713.508 -0.582042 3.18424 0
M  V30 7385 H 712.415 1.73152 3.31616 0
M  V30 7386 H 713.748 2.26068 4.37212 0
M  V30 7387 N 715.4 -1.26948 0.933913 0
M  V30 7388 C 716.648 -1.93704 0.576484 0
M  V30 7389 C 716.969 -1.73702 -0.886145 0
M  V30 7390 O 716.239 -1.08838 -1.62884 0
M  V30 7391 H 714.819 -0.716812 0.210214 0
M  V30 7392 H 717.481 -1.54534 1.18766 0
M  V30 7393 H 716.577 -3.01987 0.788055 0
M  V30 7394 N 716.879 -0.700114 -1.41195 0
M  V30 7395 C 718.125 -0.233351 -2.01453 0
M  V30 7396 C 718.458 1.16548 -1.55339 0
M  V30 7397 O 717.733 1.78756 -0.766575 0
M  V30 7398 C 718.016 -0.2961 -3.58881 0
M  V30 7399 C 717.869 -1.7322 -4.15108 0
M  V30 7400 C 719.188 0.341525 -4.38773 0
M  V30 7401 H 716.307 -0.0862667 -0.731934 0
M  V30 7402 H 718.949 -0.889693 -1.67882 0
M  V30 7403 H 717.099 0.262736 -3.87611 0
M  V30 7404 H 718.771 -2.34523 -3.97236 0
M  V30 7405 H 717.014 -2.2649 -3.69979 0
M  V30 7406 H 717.685 -1.7276 -5.24269 0
M  V30 7407 H 720.161 -0.134461 -4.15883 0
M  V30 7408 H 719.037 0.267098 -5.4825 0
M  V30 7409 H 719.298 1.42289 -4.18577 0
M  V30 7410 N 718.357 1.51182 -0.445186 0
M  V30 7411 C 719.605 2.01753 0.11841 0
M  V30 7412 C 719.926 1.33087 1.42523 0
M  V30 7413 O 719.196 0.467891 1.9023 0
M  V30 7414 H 717.776 0.745536 0.0467492 0
M  V30 7415 H 720.438 1.85765 -0.589688 0
M  V30 7416 H 719.534 3.10762 0.288665 0
M  V30 7417 N 719.835 0.176821 1.56605 0
M  V30 7418 C 721.246 -0.338963 1.83597 0
M  V30 7419 C 721.597 -1.62677 1.09684 0
M  V30 7420 O 720.722 -2.13524 0.351661 0
M  V30 7421 C 721.317 -0.62177 3.33046 0
M  V30 7422 C 719.876 -1.08198 3.60514 0
M  V30 7423 C 719.023 -0.120774 2.77037 0
M  V30 7424 H 721.974 0.400978 1.53551 0
M  V30 7425 H 721.995 -1.47321 3.50823 0
M  V30 7426 H 721.507 0.315692 3.86814 0
M  V30 7427 H 719.608 -2.03435 3.12162 0
M  V30 7428 H 719.721 -0.987329 4.68816 0
M  V30 7429 H 718.085 -0.619192 2.47059 0
M  V30 7430 H 718.868 0.810806 3.33588 0
M  V30 7431 N 721.313 -1.57302 -0.09688 0
M  V30 7432 C 722.559 -1.86273 -0.801885 0
M  V30 7433 C 722.892 -0.765694 -1.78468 0
M  V30 7434 O 722.167 0.226495 -1.93177 0
M  V30 7435 C 722.45 -3.25876 -1.53221 0
M  V30 7436 C 722.303 -4.46205 -0.567529 0
M  V30 7437 C 723.622 -3.63352 -2.48321 0
M  V30 7438 H 720.741 -0.67752 -0.29006 0
M  V30 7439 H 723.383 -1.89887 -0.0655577 0
M  V30 7440 H 721.533 -3.22926 -2.15988 0
M  V30 7441 H 723.205 -4.6127 0.0529982 0
M  V30 7442 H 721.448 -4.33636 0.119233 0
M  V30 7443 H 722.119 -5.40608 -1.11564 0
M  V30 7444 H 724.595 -3.67234 -1.95648 0
M  V30 7445 H 723.471 -4.61968 -2.9644 0
M  V30 7446 H 723.732 -2.91941 -3.31998 0
M  V30 7447 N 722.791 0.367657 -1.53252 0
M  V30 7448 C 723.739 1.47061 -1.8021 0
M  V30 7449 C 724.733 1.55539 -0.671112 0
M  V30 7450 O 725.939 1.58451 -0.854014 0
M  V30 7451 H 722.314 0.489868 -0.570555 0
M  V30 7452 H 724.285 1.21527 -2.72532 0
M  V30 7453 C 723.034 2.83924 -2.00706 0
M  V30 7454 H 722.357 2.78158 -2.87172 0
M  V30 7455 H 723.797 3.60281 -2.23547 0
M  V30 7456 C 722.256 3.27613 -0.785568 0
M  V30 7457 O 722.786 4.01691 0.0267459 0
M  V30 7458 N 720.992 2.84134 -0.609597 0
M  V30 7459 H 720.539 2.24017 -1.27178 0
M  V30 7460 H 720.497 3.13723 0.206281 0
M  V30 7461 N 724.269 1.44576 0.627338 0
M  V30 7462 C 725.518 1.46837 1.38281 0
M  V30 7463 C 725.831 0.10635 1.95311 0
M  V30 7464 O 727.037 0.00651084 2.71499 0
M  V30 7465 C 725.493 2.58527 2.50384 0
M  V30 7466 C 725.101 4.00953 1.99851 0
M  V30 7467 C 726.845 2.70013 3.27557 0
M  V30 7468 C 724.752 5.0406 3.09318 0
M  V30 7469 H 723.682 0.546319 0.519664 0
M  V30 7470 H 726.333 1.70654 0.674497 0
M  V30 7471 H 724.715 2.27957 3.23808 0
M  V30 7472 H 725.889 4.41108 1.33267 0
M  V30 7473 H 724.204 3.93743 1.35482 0
M  V30 7474 H 726.801 3.44217 4.09168 0
M  V30 7475 H 727.144 1.75961 3.77284 0
M  V30 7476 H 727.677 3.00011 2.61224 0
M  V30 7477 H 724.416 5.99753 2.6453 0
M  V30 7478 H 723.936 4.68493 3.74532 0
M  V30 7479 H 725.615 5.2793 3.74031 0
M  V30 7480 N 725.747 -0.868086 1.31537 0
M  V30 7481 C 726.972 -1.65926 1.24432 0
M  V30 7482 C 727.397 -1.87169 -0.186936 0
M  V30 7483 O 726.755 -1.4148 -1.13371 0
M  V30 7484 C 726.803 -3.00347 1.9956 0
M  V30 7485 O 725.907 -3.90221 1.33422 0
M  V30 7486 H 725.248 -0.506375 0.429512 0
M  V30 7487 H 727.778 -1.0822 1.73637 0
M  V30 7488 H 727.788 -3.50269 2.09226 0
M  V30 7489 H 726.463 -2.84205 3.03645 0
M  V30 7490 H 725.04 -3.48672 1.32219 0
M  V30 7491 N 727.225 -1.14528 -1.08264 0
M  V30 7492 C 728.471 -0.91576 -1.80947 0
M  V30 7493 C 728.804 0.55623 -1.86064 0
M  V30 7494 O 728.079 1.41207 -1.33756 0
M  V30 7495 C 728.362 -1.51917 -3.26486 0
M  V30 7496 C 728.215 -3.06111 -3.2957 0
M  V30 7497 C 729.534 -1.19724 -4.23502 0
M  V30 7498 H 726.653 -0.334113 -0.656915 0
M  V30 7499 H 729.295 -1.41547 -1.26746 0
M  V30 7500 H 727.445 -1.0942 -3.72773 0
M  V30 7501 H 729.117 -3.57448 -2.91597 0
M  V30 7502 H 727.36 -3.40483 -2.688 0
M  V30 7503 H 728.031 -3.43438 -4.32151 0
M  V30 7504 H 730.507 -1.56467 -3.85561 0
M  V30 7505 H 729.383 -1.64575 -5.23647 0
M  V30 7506 H 729.644 -0.112771 -4.41956 0
M  V30 7507 N 728.703 1.26451 -0.940633 0
M  V30 7508 C 729.949 1.94065 -0.58878 0
M  V30 7509 C 730.282 1.7363 0.869853 0
M  V30 7510 O 729.557 1.073 1.62225 0
M  V30 7511 C 729.84 3.47852 -0.931199 0
M  V30 7512 C 729.693 3.77575 -2.44453 0
M  V30 7513 C 731.012 4.37832 -0.446229 0
M  V30 7514 H 728.131 0.704827 -0.21538 0
M  V30 7515 H 730.773 1.4933 -1.17475 0
M  V30 7516 H 728.923 3.86085 -0.432539 0
M  V30 7517 H 730.595 3.49059 -3.01588 0
M  V30 7518 H 728.838 3.23671 -2.88825 0
M  V30 7519 H 729.509 4.85068 -2.63464 0
M  V30 7520 H 731.985 4.06822 -0.873778 0
M  V30 7521 H 730.861 5.44228 -0.714648 0
M  V30 7522 H 731.122 4.37239 0.653815 0
M  V30 7523 N 730.181 0.707592 1.40822 0
M  V30 7524 C 731.409 0.253073 2.05346 0
M  V30 7525 C 731.824 -1.10218 1.53289 0
M  V30 7526 O 731.181 -1.69112 0.686105 0
M  V30 7527 C 731.232 0.215411 3.60858 0
M  V30 7528 O 730.953 1.51714 4.10992 0
M  V30 7529 C 732.454 -0.258636 4.42545 0
M  V30 7530 H 729.674 0.115256 0.661027 0
M  V30 7531 H 732.218 0.963555 1.80377 0
M  V30 7532 H 730.373 -0.445978 3.84824 0
M  V30 7533 H 730.787 1.41226 5.05129 0
M  V30 7534 H 732.261 -0.233849 5.51504 0
M  V30 7535 H 732.738 -1.2995 4.19535 0
M  V30 7536 H 733.344 0.372186 4.23668 0
M  V30 7537 N 731.66 -1.50943 0.453197 0
M  V30 7538 C 732.885 -2.07116 -0.108463 0
M  V30 7539 C 733.31 -1.31681 -1.3432 0
M  V30 7540 O 732.668 -0.359256 -1.77705 0
M  V30 7541 C 732.716 -3.58447 -0.393424 0
M  V30 7542 O 731.82 -3.85038 -1.47714 0
M  V30 7543 H 731.161 -0.66398 0.0050993 0
M  V30 7544 H 733.691 -1.94362 0.639095 0
M  V30 7545 H 733.701 -4.02961 -0.639222 0
M  V30 7546 H 732.376 -4.12774 0.508946 0
M  V30 7547 H 730.953 -3.52376 -1.22006 0
M  V30 7548 N 733.138 -0.185124 -1.56509 0
M  V30 7549 C 734.363 0.465278 -2.02114 0
M  V30 7550 C 734.788 1.55083 -1.06447 0
M  V30 7551 O 734.146 1.81241 -0.0462852 0
M  V30 7552 C 734.194 1.00784 -3.46229 0
M  V30 7553 O 733.298 2.12123 -3.53663 0
M  V30 7554 H 732.639 0.109891 -0.654843 0
M  V30 7555 H 735.169 -0.293072 -2.0249 0
M  V30 7556 H 735.179 1.32697 -3.85818 0
M  V30 7557 H 733.854 0.213113 -4.15354 0
M  V30 7558 H 732.431 1.8115 -3.25943 0
M  V30 7559 N 734.616 1.57351 0.0885366 0
M  V30 7560 C 735.862 1.86696 0.791996 0
M  V30 7561 C 736.195 0.775148 1.78059 0
M  V30 7562 O 735.47 -0.216247 1.93294 0
M  V30 7563 C 735.753 3.26684 1.51491 0
M  V30 7564 C 735.606 4.465 0.543858 0
M  V30 7565 C 736.925 3.64664 2.46391 0
M  V30 7566 H 734.044 0.679049 0.286463 0
M  V30 7567 H 736.686 1.89919 0.0554866 0
M  V30 7568 H 734.836 3.24067 2.14273 0
M  V30 7569 H 736.508 4.61235 -0.0774597 0
M  V30 7570 H 734.751 4.33567 -0.142228 0
M  V30 7571 H 735.422 5.41192 1.08696 0
M  V30 7572 H 737.898 3.68267 1.93698 0
M  V30 7573 H 736.774 4.63534 2.93986 0
M  V30 7574 H 737.035 2.93698 3.30445 0
M  V30 7575 N 736.094 -0.359525 1.53444 0
M  V30 7576 C 737.319 -1.12644 1.74144 0
M  V30 7577 C 737.744 -1.82082 0.472007 0
M  V30 7578 O 737.102 -1.71962 -0.57436 0
M  V30 7579 C 737.15 -2.12781 2.9113 0
M  V30 7580 O 736.254 -3.19984 2.60162 0
M  V30 7581 H 735.595 -0.326553 0.578152 0
M  V30 7582 H 738.125 -0.414798 2.00351 0
M  V30 7583 H 738.135 -2.56278 3.17467 0
M  V30 7584 H 736.81 -1.61634 3.83207 0
M  V30 7585 H 735.387 -2.81417 2.44661 0
M  V30 7586 N 737.572 -1.44907 -0.619662 0
M  V30 7587 C 738.797 -1.52021 -1.41083 0
M  V30 7588 C 739.222 -0.14976 -1.87503 0
M  V30 7589 O 738.58 0.863303 -1.59426 0
M  V30 7590 C 738.628 -2.49911 -2.59955 0
M  V30 7591 O 737.732 -2.00857 -3.60181 0
M  V30 7592 H 737.073 -0.512912 -0.421684 0
M  V30 7593 H 739.603 -1.90149 -0.755282 0
M  V30 7594 H 739.613 -2.68323 -3.07354 0
M  V30 7595 H 738.288 -3.4945 -2.25516 0
M  V30 7596 H 736.865 -1.92265 -3.19513 0
M  V30 7597 N 739.05 0.861098 -1.31996 0
M  V30 7598 C 740.298 1.61162 -1.21947 0
M  V30 7599 C 740.619 1.93751 0.220351 0
M  V30 7600 O 739.889 1.59069 1.14341 0
M  V30 7601 H 738.469 0.597485 -0.448353 0
M  V30 7602 H 741.131 1.03039 -1.65436 0
M  V30 7603 H 740.227 2.55138 -1.79752 0
M  V30 7604 N 740.528 1.15101 1.07655 0
M  V30 7605 C 741.758 0.946357 1.83651 0
M  V30 7606 C 742.166 -0.508641 1.82235 0
M  V30 7607 O 741.509 -1.36445 1.22997 0
M  V30 7608 C 741.571 1.37945 3.31981 0
M  V30 7609 C 741.235 2.85155 3.57122 0
M  V30 7610 C 742.232 3.83234 3.51323 0
M  V30 7611 C 739.917 3.2275 3.84887 0
M  V30 7612 C 741.911 5.16914 3.72932 0
M  V30 7613 C 739.598 4.56604 4.06148 0
M  V30 7614 C 740.596 5.53495 4.00165 0
M  V30 7615 O 740.284 6.84931 4.20861 0
M  V30 7616 H 740.016 0.336368 0.586372 0
M  V30 7617 H 742.57 1.53198 1.36819 0
M  V30 7618 H 740.8 0.737205 3.79608 0
M  V30 7619 H 742.489 1.14439 3.89434 0
M  V30 7620 H 743.255 3.55535 3.29878 0
M  V30 7621 H 739.134 2.47921 3.88659 0
M  V30 7622 H 742.678 5.92529 3.68178 0
M  V30 7623 H 738.575 4.84019 4.27078 0
M  V30 7624 H 739.343 6.91304 4.38226 0
M  V30 7625 N 742.006 -1.2595 0.947325 0
M  V30 7626 C 743.254 -1.93081 0.596996 0
M  V30 7627 C 743.575 -1.74632 -0.867672 0
M  V30 7628 O 742.845 -1.1056 -1.6172 0
M  V30 7629 H 741.425 -0.714542 0.217805 0
M  V30 7630 H 744.087 -1.53265 1.20398 0
M  V30 7631 H 743.183 -3.01134 0.82004 0
M  V30 7632 N 743.484 -0.715051 -1.40445 0
M  V30 7633 C 744.709 -0.26254 -2.05732 0
M  V30 7634 C 745.134 1.08691 -1.53519 0
M  V30 7635 O 744.492 1.68453 -0.670328 0
M  V30 7636 C 744.54 -0.25195 -3.59719 0
M  V30 7637 O 743.644 0.766998 -4.05205 0
M  V30 7638 H 742.985 -0.123398 -0.652433 0
M  V30 7639 H 745.515 -0.975382 -1.79854 0
M  V30 7640 H 745.525 -0.0894537 -4.07902 0
M  V30 7641 H 744.2 -1.23672 -3.97087 0
M  V30 7642 H 742.777 0.572269 -3.68483 0
M  V30 7643 N 744.962 1.50701 -0.461195 0
M  V30 7644 C 746.21 2.01867 0.0970051 0
M  V30 7645 C 746.531 1.34591 1.41104 0
M  V30 7646 O 745.801 0.488041 1.89723 0
M  V30 7647 H 744.381 0.74599 0.0388392 0
M  V30 7648 H 747.043 1.85129 -0.609357 0
M  V30 7649 H 746.139 3.11051 0.255688 0
M  V30 7650 N 746.441 0.193421 1.56409 0
M  V30 7651 C 747.666 -0.454552 2.02358 0
M  V30 7652 C 748.091 -1.54516 1.07268 0
M  V30 7653 O 747.449 -1.81214 0.0558962 0
M  V30 7654 C 747.497 -0.989469 3.46759 0
M  V30 7655 O 746.601 -2.10244 3.54783 0
M  V30 7656 H 745.942 -0.106417 0.655417 0
M  V30 7657 H 748.472 0.303807 2.02332 0
M  V30 7658 H 748.482 -1.30649 3.86516 0
M  V30 7659 H 747.157 -0.191083 4.15461 0
M  V30 7660 H 745.734 -1.79419 3.26899 0
M  V30 7661 N 747.919 -1.57396 -0.0801906 0
M  V30 7662 C 749.167 -1.86467 -0.779384 0
M  V30 7663 C 749.488 -0.784243 -1.78535 0
M  V30 7664 O 748.758 0.187986 -1.94996 0
M  V30 7665 H 747.338 -0.68806 -0.29083 0
M  V30 7666 H 750 -1.94813 -0.0582749 0
M  V30 7667 H 749.096 -2.83701 -1.30078 0
M  V30 7668 N 749.397 0.351382 -1.53633 0
M  V30 7669 C 750.627 1.11113 -1.74176 0
M  V30 7670 C 751.035 1.83084 -0.477154 0
M  V30 7671 O 750.378 1.74941 0.560483 0
M  V30 7672 C 750.44 2.17521 -2.86225 0
M  V30 7673 C 750.104 1.65193 -4.26099 0
M  V30 7674 C 751.101 1.10842 -5.07947 0
M  V30 7675 C 748.786 1.70277 -4.72558 0
M  V30 7676 C 750.78 0.622689 -6.34351 0
M  V30 7677 C 748.467 1.21316 -5.98937 0
M  V30 7678 C 749.465 0.674033 -6.79666 0
M  V30 7679 O 749.153 0.191696 -8.03671 0
M  V30 7680 H 748.885 0.33756 -0.585687 0
M  V30 7681 H 751.439 0.411786 -2.0123 0
M  V30 7682 H 749.669 2.90991 -2.54678 0
M  V30 7683 H 751.358 2.78999 -2.94812 0
M  V30 7684 H 752.124 1.06243 -4.7322 0
M  V30 7685 H 748.003 2.11181 -4.09785 0
M  V30 7686 H 751.547 0.201216 -6.9731 0
M  V30 7687 H 747.444 1.25613 -6.3316 0
M  V30 7688 H 748.212 0.309712 -8.17914 0
M  V30 7689 N 750.875 1.45233 0.611969 0
M  V30 7690 C 752.123 1.48727 1.36838 0
M  V30 7691 C 752.444 0.128616 1.94575 0
M  V30 7692 O 751.714 -0.84149 1.76906 0
M  V30 7693 H 750.294 0.547695 0.507976 0
M  V30 7694 H 752.956 1.81156 0.718925 0
M  V30 7695 H 752.052 2.2236 2.19003 0
M  V30 7696 N 752.353 -0.854086 1.3245 0
M  V30 7697 C 753.601 -1.60513 1.228 0
M  V30 7698 C 753.922 -1.93865 -0.210073 0
M  V30 7699 O 753.192 -1.59673 -1.13496 0
M  V30 7700 H 751.772 -0.595099 0.451516 0
M  V30 7701 H 754.434 -1.0216 1.6598 0
M  V30 7702 H 753.53 -2.54182 1.81102 0
M  V30 7703 N 753.831 -1.1567 -1.07043 0
M  V30 7704 C 755.079 -0.931673 -1.79344 0
M  V30 7705 C 755.4 0.542421 -1.87304 0
M  V30 7706 O 754.67 1.39418 -1.37621 0
M  V30 7707 H 753.25 -0.34171 -0.664262 0
M  V30 7708 H 755.912 -1.45795 -1.29344 0
M  V30 7709 H 755.008 -1.34379 -2.81689 0
M  V30 7710 N 755.309 1.25446 -0.953992 0
M  V30 7711 C 756.239 2.28264 -0.491717 0
M  V30 7712 C 757.22 1.63717 0.461617 0
M  V30 7713 O 758.405 1.90821 0.36071 0
M  V30 7714 C 755.535 3.46525 0.231915 0
M  V30 7715 C 754.489 4.23247 -0.636098 0
M  V30 7716 C 753.815 5.34254 0.218238 0
M  V30 7717 C 755.115 4.85971 -1.91389 0
M  V30 7718 H 756.809 2.67183 -1.35106 0
M  V30 7719 H 754.355 1.2844 -0.651095 0
M  V30 7720 H 756.308 4.17576 0.566439 0
M  V30 7721 H 755.032 3.06594 1.12551 0
M  V30 7722 H 753.691 3.53978 -0.953696 0
M  V30 7723 H 753.339 4.90564 1.11156 0
M  V30 7724 H 753.039 5.86501 -0.359232 0
M  V30 7725 H 754.563 6.08138 0.547743 0
M  V30 7726 H 755.977 5.49168 -1.64581 0
M  V30 7727 H 754.374 5.48391 -2.43696 0
M  V30 7728 H 755.444 4.08192 -2.61738 0
M  V30 7729 N 756.787 0.722489 1.40064 0
M  V30 7730 C 758.035 0.264455 2.00362 0
M  V30 7731 C 758.356 -1.14847 1.57592 0
M  V30 7732 O 757.626 -1.77982 0.818477 0
M  V30 7733 H 756.206 0.0947846 0.740962 0
M  V30 7734 H 758.868 0.929659 1.71299 0
M  V30 7735 H 757.964 0.302977 3.10626 0
M  V30 7736 N 758.265 -1.50454 0.469181 0
M  V30 7737 C 759.513 -2.01916 -0.0862982 0
M  V30 7738 C 759.834 -1.35337 -1.40388 0
M  V30 7739 O 759.104 -0.498096 -1.89462 0
M  V30 7740 H 757.684 -0.746185 -0.0348825 0
M  V30 7741 H 760.346 -1.84804 0.619167 0
M  V30 7742 H 759.442 -3.11182 -0.239189 0
M  V30 7743 N 759.743 -0.201713 -1.56304 0
M  V30 7744 C 760.991 0.434447 -1.97375 0
M  V30 7745 C 761.312 1.61692 -1.08998 0
M  V30 7746 O 760.582 1.95223 -0.162682 0
M  V30 7747 H 759.162 0.163497 -0.728888 0
M  V30 7748 H 761.824 -0.289988 -1.92731 0
M  V30 7749 H 760.92 0.774136 -3.02347 0
M  V30 7750 N 761.222 1.57436 0.0718424 0
M  V30 7751 C 762.152 2.06724 1.08571 0
M  V30 7752 C 763.133 0.960731 1.40371 0
M  V30 7753 O 764.318 1.23345 1.49999 0
M  V30 7754 C 761.448 2.51112 2.39916 0
M  V30 7755 C 760.402 3.65639 2.22469 0
M  V30 7756 C 759.728 3.96082 3.59198 0
M  V30 7757 C 761.028 4.95687 1.64596 0
M  V30 7758 H 762.722 2.91679 0.675569 0
M  V30 7759 H 760.268 1.40319 0.32352 0
M  V30 7760 H 762.221 2.84206 3.11135 0
M  V30 7761 H 760.945 1.63186 2.8291 0
M  V30 7762 H 759.604 3.32828 1.53691 0
M  V30 7763 H 759.252 3.05287 3.99761 0
M  V30 7764 H 758.952 4.73199 3.48362 0
M  V30 7765 H 760.476 4.31672 4.31847 0
M  V30 7766 H 761.89 5.27011 2.25681 0
M  V30 7767 H 760.287 5.77126 1.64457 0
M  V30 7768 H 761.357 4.8108 0.60744 0
M  V30 7769 N 762.7 -0.34323 1.53817 0
M  V30 7770 C 763.948 -1.0813 1.70741 0
M  V30 7771 C 764.269 -1.89165 0.473461 0
M  V30 7772 O 763.539 -1.89075 -0.512605 0
M  V30 7773 H 762.119 -0.40219 0.629486 0
M  V30 7774 H 764.781 -0.384426 1.91071 0
M  V30 7775 H 763.877 -1.7585 2.57843 0
M  V30 7776 N 764.178 -1.45556 -0.604258 0
M  V30 7777 C 765.426 -1.4945 -1.36048 0
M  V30 7778 C 765.747 -0.138933 -1.94504 0
M  V30 7779 O 765.017 0.832097 -1.7735 0
M  V30 7780 H 763.597 -0.550381 -0.505064 0
M  V30 7781 H 766.259 -1.81535 -0.709308 0
M  V30 7782 H 765.355 -2.23519 -2.17821 0
M  V30 7783 N 765.656 0.84705 -1.32902 0
M  V30 7784 C 766.904 1.5986 -1.2365 0
M  V30 7785 C 767.225 1.93974 0.199789 0
M  V30 7786 O 766.495 1.60273 1.12648 0
M  V30 7787 H 765.075 0.592696 -0.454665 0
M  V30 7788 H 767.737 1.01278 -1.66519 0
M  V30 7789 H 766.833 2.53218 -1.82448 0
M  V30 7790 N 767.134 1.16236 1.06428 0
M  V30 7791 C 768.064 0.890807 2.1584 0
M  V30 7792 C 769.045 -0.162333 1.69324 0
M  V30 7793 O 770.23 -0.0147191 1.94194 0
M  V30 7794 C 767.36 0.389615 3.45108 0
M  V30 7795 C 766.314 1.38051 4.05125 0
M  V30 7796 C 765.64 0.737773 5.29586 0
M  V30 7797 C 766.94 2.74965 4.44062 0
M  V30 7798 H 768.634 1.80577 2.38814 0
M  V30 7799 H 766.18 0.869657 1.14774 0
M  V30 7800 H 768.133 0.187127 4.20984 0
M  V30 7801 H 766.857 -0.560851 3.21748 0
M  V30 7802 H 765.516 1.56952 3.31303 0
M  V30 7803 H 765.164 -0.219135 5.02522 0
M  V30 7804 H 764.864 1.39914 5.70699 0
M  V30 7805 H 766.388 0.545275 6.0816 0
M  V30 7806 H 767.802 2.59855 5.11027 0
M  V30 7807 H 766.199 3.37563 4.96156 0
M  V30 7808 H 767.269 3.30321 3.54987 0
M  V30 7809 N 768.612 -1.24939 0.960631 0
M  V30 7810 C 769.86 -1.92437 0.617441 0
M  V30 7811 C 770.181 -1.75543 -0.849101 0
M  V30 7812 O 769.451 -1.12269 -1.60538 0
M  V30 7813 H 768.031 -0.712192 0.225371 0
M  V30 7814 H 770.693 -1.5198 1.22017 0
M  V30 7815 H 769.789 -3.00247 0.851933 0
M  V30 7816 N 770.09 -0.729906 -1.39679 0
M  V30 7817 C 771.338 -0.275077 -2.00219 0
M  V30 7818 C 771.659 1.1401 -1.58199 0
M  V30 7819 O 770.929 1.77546 -0.827904 0
M  V30 7820 H 769.509 -0.0987127 -0.740449 0
M  V30 7821 H 772.171 -0.93873 -1.70804 0
M  V30 7822 H 771.267 -0.319446 -3.10461 0
M  V30 7823 N 771.568 1.50203 -0.477153 0
M  V30 7824 C 772.816 2.01959 0.0755889 0
M  V30 7825 C 773.137 1.3608 1.39668 0
M  V30 7826 O 772.407 0.508136 1.89195 0
M  V30 7827 H 770.987 0.74636 0.0309248 0
M  V30 7828 H 773.649 1.84473 -0.628959 0
M  V30 7829 H 772.745 3.11305 0.222683 0
M  V30 7830 N 773.046 0.209999 1.56195 0
M  V30 7831 C 773.976 -0.699746 2.22769 0
M  V30 7832 C 774.957 -1.20993 1.1956 0
M  V30 7833 O 776.142 -1.25605 1.48112 0
M  V30 7834 C 773.272 -1.91302 2.89863 0
M  V30 7835 C 772.226 -1.53715 3.99444 0
M  V30 7836 C 771.552 -2.82826 4.53777 0
M  V30 7837 C 772.852 -0.735836 5.17091 0
M  V30 7838 H 774.546 -0.144716 2.9905 0
M  V30 7839 H 772.092 -0.0681645 1.43839 0
M  V30 7840 H 774.045 -2.5548 3.35124 0
M  V30 7841 H 772.769 -2.49283 2.11011 0
M  V30 7842 H 771.428 -0.918892 3.54897 0
M  V30 7843 H 771.076 -3.38927 3.71669 0
M  V30 7844 H 770.776 -2.58415 5.27727 0
M  V30 7845 H 772.3 -3.47966 5.01749 0
M  V30 7846 H 773.714 -1.28105 5.58804 0
M  V30 7847 H 772.111 -0.589272 5.972 0
M  V30 7848 H 773.181 0.260004 4.84202 0
M  V30 7849 N 774.524 -1.57472 -0.0634922 0
M  V30 7850 C 775.487 -2.03268 -1.059 0
M  V30 7851 C 776.487 -0.931028 -1.31105 0
M  V30 7852 O 777.677 -1.19567 -1.26686 0
M  V30 7853 C 774.809 -2.42039 -2.40062 0
M  V30 7854 H 776.002 -2.92454 -0.664119 0
M  V30 7855 H 773.555 -1.53206 -0.309444 0
M  V30 7856 H 774.29 -1.55904 -2.84367 0
M  V30 7857 H 774.075 -3.22437 -2.23108 0
M  V30 7858 H 775.565 -2.78017 -3.11603 0
M  V30 7859 N 776.003 0.335068 -1.53997 0
M  V30 7860 C 777.251 1.07223 -1.71312 0
M  V30 7861 C 777.572 1.88911 -0.483486 0
M  V30 7862 O 776.842 1.89344 0.50257 0
M  V30 7863 H 775.422 0.398846 -0.63161 0
M  V30 7864 H 778.084 0.374288 -1.91272 0
M  V30 7865 H 777.18 1.7448 -2.58772 0
M  V30 7866 N 777.481 1.45874 0.596531 0
M  V30 7867 C 778.729 1.5017 1.35253 0
M  V30 7868 C 779.05 0.149246 1.94428 0
M  V30 7869 O 778.32 -0.82268 1.77789 0
M  V30 7870 H 776.9 0.553052 0.502138 0
M  V30 7871 H 779.562 1.81908 0.699671 0
M  V30 7872 H 778.658 2.24671 2.16632 0
M  V30 7873 N 778.959 -0.83999 1.33349 0
M  V30 7874 C 780.184 -1.63249 1.27924 0
M  V30 7875 C 780.609 -1.87523 -0.147193 0
M  V30 7876 O 779.967 -1.43853 -1.10345 0
M  V30 7877 C 780.015 -2.96046 2.05886 0
M  V30 7878 O 779.119 -3.87303 1.4167 0
M  V30 7879 H 778.46 -0.49715 0.440157 0
M  V30 7880 H 780.99 -1.04512 1.75893 0
M  V30 7881 H 781 -3.45752 2.16609 0
M  V30 7882 H 779.675 -2.77701 3.09605 0
M  V30 7883 H 778.252 -3.45789 1.39585 0
M  V30 7884 N 780.437 -1.16799 -1.0581 0
M  V30 7885 C 781.662 -0.977402 -1.82925 0
M  V30 7886 C 782.087 0.469514 -1.82146 0
M  V30 7887 O 781.445 1.33576 -1.22585 0
M  V30 7888 C 781.493 -1.51543 -3.27211 0
M  V30 7889 O 780.597 -0.725021 -4.05977 0
M  V30 7890 H 779.938 -0.347474 -0.565825 0
M  V30 7891 H 782.468 -1.55151 -1.33376 0
M  V30 7892 H 782.478 -1.53502 -3.78023 0
M  V30 7893 H 781.153 -2.56872 -3.27093 0
M  V30 7894 H 779.73 -0.77634 -3.64729 0
M  V30 7895 N 781.915 1.24427 -0.967243 0
M  V30 7896 C 783.163 1.92107 -0.627638 0
M  V30 7897 C 783.484 1.75991 0.83978 0
M  V30 7898 O 782.754 1.13118 1.59941 0
M  V30 7899 H 781.334 0.710986 -0.229145 0
M  V30 7900 H 783.996 1.51331 -1.22821 0
M  V30 7901 H 783.092 2.99791 -0.867844 0
M  V30 7902 N 783.393 0.737304 1.3929 0
M  V30 7903 C 784.618 0.295237 2.05288 0
M  V30 7904 C 785.043 -1.06235 1.55228 0
M  V30 7905 O 784.401 -1.67365 0.697043 0
M  V30 7906 C 784.449 0.309146 3.59272 0
M  V30 7907 O 783.553 -0.702437 4.06374 0
M  V30 7908 H 782.894 0.133762 0.650387 0
M  V30 7909 H 785.424 1.00387 1.78279 0
M  V30 7910 H 785.434 0.154336 4.07708 0
M  V30 7911 H 784.109 1.29974 3.95069 0
M  V30 7912 H 782.686 -0.513574 3.69346 0
M  V30 7913 N 784.871 -1.49948 0.485112 0
M  V30 7914 C 786.101 -2.06506 -0.0621921 0
M  V30 7915 C 786.509 -1.34756 -1.32806 0
M  V30 7916 O 785.852 -0.41466 -1.78959 0
M  V30 7917 C 785.914 -3.57243 -0.402182 0
M  V30 7918 C 785.578 -4.50574 0.763671 0
M  V30 7919 C 786.575 -4.93032 1.6497 0
M  V30 7920 C 784.26 -4.9308 0.957973 0
M  V30 7921 C 786.254 -5.76718 2.71432 0
M  V30 7922 C 783.941 -5.76546 2.0258 0
M  V30 7923 C 784.939 -6.18267 2.90232 0
M  V30 7924 O 784.627 -7.00066 3.95174 0
M  V30 7925 H 784.359 -0.675925 0.0100672 0
M  V30 7926 H 786.913 -1.93922 0.677023 0
M  V30 7927 H 785.143 -3.6778 -1.19478 0
M  V30 7928 H 786.832 -3.96107 -0.886219 0
M  V30 7929 H 787.598 -4.60851 1.51134 0
M  V30 7930 H 783.477 -4.60117 0.285144 0
M  V30 7931 H 787.021 -6.09203 3.39878 0
M  V30 7932 H 782.918 -6.0814 2.16417 0
M  V30 7933 H 783.686 -7.18343 3.92333 0
M  V30 7934 N 786.349 -0.21828 -1.56081 0
M  V30 7935 C 787.579 0.41865 -2.02314 0
M  V30 7936 C 787.987 1.54124 -1.09739 0
M  V30 7937 O 787.33 1.83435 -0.0986829 0
M  V30 7938 C 787.392 1.01439 -3.44892 0
M  V30 7939 C 787.056 0.0276523 -4.56992 0
M  V30 7940 C 788.053 -0.771526 -5.14143 0
M  V30 7941 C 785.738 -0.0901537 -5.02219 0
M  V30 7942 C 787.732 -1.67525 -6.14991 0
M  V30 7943 C 785.419 -0.997411 -6.02905 0
M  V30 7944 C 786.417 -1.78851 -6.59167 0
M  V30 7945 O 786.105 -2.68052 -7.57894 0
M  V30 7946 H 785.837 0.107066 -0.667468 0
M  V30 7947 H 788.391 -0.331191 -2.02712 0
M  V30 7948 H 786.621 1.81326 -3.41552 0
M  V30 7949 H 788.31 1.55838 -3.74792 0
M  V30 7950 H 789.076 -0.690945 -4.80053 0
M  V30 7951 H 784.955 0.515474 -4.58109 0
M  V30 7952 H 788.499 -2.29316 -6.58832 0
M  V30 7953 H 784.396 -1.07902 -6.36418 0
M  V30 7954 H 785.164 -2.6209 -7.75404 0
M  V30 7955 N 787.827 1.57504 0.0551401 0
M  V30 7956 C 789.052 1.92682 0.767352 0
M  V30 7957 C 789.477 0.81614 1.69472 0
M  V30 7958 O 788.835 -0.229989 1.79835 0
M  V30 7959 C 788.883 3.26866 1.52286 0
M  V30 7960 O 787.987 3.17274 2.63459 0
M  V30 7961 H 787.328 0.630502 0.208238 0
M  V30 7962 H 789.858 2.04592 0.0184026 0
M  V30 7963 H 789.868 3.61138 1.8985 0
M  V30 7964 H 788.543 4.07276 0.842541 0
M  V30 7965 H 787.12 2.94589 2.2863 0
M  V30 7966 N 789.305 -0.326896 1.54172 0
M  V30 7967 C 790.53 -1.08924 1.76494 0
M  V30 7968 C 790.955 -1.81039 0.510523 0
M  V30 7969 O 790.313 -1.73141 -0.537756 0
M  V30 7970 C 790.361 -2.06558 2.95578 0
M  V30 7971 O 789.465 -3.14394 2.6689 0
M  V30 7972 H 788.806 -0.314216 0.584948 0
M  V30 7973 H 791.336 -0.372207 2.01186 0
M  V30 7974 H 791.346 -2.49487 3.22832 0
M  V30 7975 H 790.021 -1.53469 3.86549 0
M  V30 7976 H 788.598 -2.76164 2.50576 0
M  V30 7977 N 790.784 -1.46188 -0.588786 0
M  V30 7978 C 792.009 -1.5498 -1.37826 0
M  V30 7979 C 792.434 -0.189498 -1.87143 0
M  V30 7980 O 791.792 0.829293 -1.61222 0
M  V30 7981 C 791.84 -2.55369 -2.54596 0
M  V30 7982 O 790.944 -2.08452 -3.55839 0
M  V30 7983 H 790.285 -0.521741 -0.41071 0
M  V30 7984 H 792.815 -1.91708 -0.714779 0
M  V30 7985 H 792.825 -2.74782 -3.01594 0
M  V30 7986 H 791.5 -3.54155 -2.18052 0
M  V30 7987 H 790.077 -1.98999 -3.15363 0
M  V30 7988 N 792.262 0.832906 -1.33792 0
M  V30 7989 C 793.487 1.62568 -1.28788 0
M  V30 7990 C 793.912 1.87599 0.137246 0
M  V30 7991 O 793.27 1.44436 1.0958 0
M  V30 7992 C 793.318 2.9495 -2.07453 0
M  V30 7993 O 792.422 3.86546 -1.43722 0
M  V30 7994 H 791.763 0.494809 -0.442787 0
M  V30 7995 H 794.293 1.03578 -1.76445 0
M  V30 7996 H 794.303 3.44599 -2.1844 0
M  V30 7997 H 792.978 2.76055 -3.11073 0
M  V30 7998 H 791.555 3.45044 -1.41417 0
M  V30 7999 N 793.74 1.17359 1.05189 0
M  V30 8000 C 794.988 0.960087 1.77839 0
M  V30 8001 C 795.309 -0.512554 1.88143 0
M  V30 8002 O 794.579 -1.3721 1.39822 0
M  V30 8003 H 793.159 0.352234 0.658741 0
M  V30 8004 H 795.821 1.47834 1.27008 0
M  V30 8005 H 794.917 1.38843 2.79516 0
M  V30 8006 N 795.218 -1.23913 0.973828 0
M  V30 8007 C 796.466 -1.91771 0.637817 0
M  V30 8008 C 796.787 -1.76434 -0.830435 0
M  V30 8009 O 796.057 -1.13965 -1.59339 0
M  V30 8010 H 794.637 -0.709761 0.232912 0
M  V30 8011 H 797.299 -1.50677 1.23622 0
M  V30 8012 H 796.395 -2.99327 0.883731 0
M  V30 8013 N 796.696 -0.74468 -1.38897 0
M  V30 8014 C 797.942 -0.297324 -2.00609 0
M  V30 8015 C 798.275 1.11547 -1.58968 0
M  V30 8016 O 797.55 1.76227 -0.823057 0
M  V30 8017 C 797.833 -0.410125 -3.57757 0
M  V30 8018 C 797.686 -1.86338 -4.09387 0
M  V30 8019 C 799.005 0.20176 -4.39637 0
M  V30 8020 H 796.124 -0.109509 -0.728819 0
M  V30 8021 H 798.766 -0.942653 -1.64967 0
M  V30 8022 H 796.916 0.139287 -3.8825 0
M  V30 8023 H 798.588 -2.47042 -3.89574 0
M  V30 8024 H 796.831 -2.38146 -3.62586 0
M  V30 8025 H 797.502 -1.89352 -5.18507 0
M  V30 8026 H 799.978 -0.266703 -4.15244 0
M  V30 8027 H 798.854 0.0925415 -5.48822 0
M  V30 8028 H 799.115 1.289 -4.22891 0
M  V30 8029 N 798.174 1.49689 -0.493057 0
M  V30 8030 C 799.422 2.02027 0.0541642 0
M  V30 8031 C 799.743 1.37554 1.38217 0
M  V30 8032 O 799.013 0.528174 1.88646 0
M  V30 8033 H 797.593 0.746646 0.0230069 0
M  V30 8034 H 800.255 1.83795 -0.648489 0
M  V30 8035 H 799.351 3.11523 0.189652 0
M  V30 8036 N 799.652 0.226554 1.55963 0
M  V30 8037 C 800.582 -0.676079 2.23498 0
M  V30 8038 C 801.563 -1.19718 1.20837 0
M  V30 8039 O 802.748 -1.24027 1.49436 0
M  V30 8040 C 799.878 -1.88217 2.91876 0
M  V30 8041 C 798.832 -1.4947 4.01052 0
M  V30 8042 C 798.158 -2.77997 4.56751 0
M  V30 8043 C 799.458 -0.680951 5.17842 0
M  V30 8044 H 801.152 -0.112989 2.99187 0
M  V30 8045 H 798.698 -0.0529046 1.43903 0
M  V30 8046 H 800.651 -2.51911 3.37815 0
M  V30 8047 H 799.375 -2.47031 2.13643 0
M  V30 8048 H 798.034 -0.881199 3.55852 0
M  V30 8049 H 797.682 -3.34966 3.75243 0
M  V30 8050 H 797.382 -2.52803 5.30438 0
M  V30 8051 H 798.906 -3.42625 5.05411 0
M  V30 8052 H 800.32 -1.22171 5.60131 0
M  V30 8053 H 798.717 -0.525898 5.97791 0
M  V30 8054 H 799.787 0.311346 4.83899 0
M  V30 8055 N 801.13 -1.57531 -0.0467866 0
M  V30 8056 C 802.378 -1.88078 -0.739656 0
M  V30 8057 C 802.699 -0.821936 -1.76831 0
M  V30 8058 O 801.969 0.146582 -1.95351 0
M  V30 8059 H 800.549 -0.694075 -0.276169 0
M  V30 8060 H 803.211 -1.94893 -0.0169391 0
M  V30 8061 H 802.307 -2.86396 -1.24031 0
M  V30 8062 N 802.608 0.318715 -1.54344 0
M  V30 8063 C 803.856 1.054 -1.72439 0
M  V30 8064 C 804.177 1.88388 -0.503495 0
M  V30 8065 O 803.447 1.89866 0.48246 0
M  V30 8066 H 802.027 0.392124 -0.635805 0
M  V30 8067 H 804.689 0.35398 -1.91659 0
M  V30 8068 H 803.785 1.71726 -2.60608 0
M  V30 8069 N 804.086 1.46499 0.581025 0
M  V30 8070 C 805.334 1.51596 1.33653 0
M  V30 8071 C 805.655 0.169859 1.94259 0
M  V30 8072 O 804.925 -0.803776 1.78651 0
M  V30 8073 H 803.505 0.558346 0.496244 0
M  V30 8074 H 806.167 1.8264 0.680338 0
M  V30 8075 H 805.263 2.26956 2.14237 0
M  V30 8076 N 805.565 -0.825799 1.34232 0
M  V30 8077 C 806.495 -1.95151 1.28212 0
M  V30 8078 C 807.476 -1.69345 0.160123 0
M  V30 8079 O 808.661 -1.90983 0.352019 0
M  V30 8080 C 805.791 -3.31554 1.03388 0
M  V30 8081 C 804.745 -3.71793 2.12023 0
M  V30 8082 C 804.071 -5.06147 1.72392 0
M  V30 8083 C 805.371 -3.84193 3.53826 0
M  V30 8084 H 807.065 -2.00445 2.22401 0
M  V30 8085 H 804.611 -0.962996 1.07063 0
M  V30 8086 H 806.564 -4.09889 0.978225 0
M  V30 8087 H 805.288 -3.26551 0.0564142 0
M  V30 8088 H 803.947 -2.95731 2.16654 0
M  V30 8089 H 803.595 -4.97628 0.733137 0
M  V30 8090 H 803.295 -5.34041 2.451 0
M  V30 8091 H 804.819 -5.86943 1.68317 0
M  V30 8092 H 806.233 -4.52806 3.51624 0
M  V30 8093 H 804.63 -4.23538 4.2513 0
M  V30 8094 H 805.7 -2.86272 3.91377 0
M  V30 8095 N 807.043 -1.17915 -1.04565 0
M  V30 8096 C 808.268 -0.996749 -1.81878 0
M  V30 8097 C 808.693 0.450169 -1.82634 0
M  V30 8098 O 808.051 1.32268 -1.23995 0
M  V30 8099 C 808.099 -1.55005 -3.25585 0
M  V30 8100 O 807.203 -0.76804 -4.05185 0
M  V30 8101 H 806.544 -0.353456 -0.562108 0
M  V30 8102 H 809.074 -1.56557 -1.31723 0
M  V30 8103 H 809.084 -1.57503 -3.76373 0
M  V30 8104 H 807.759 -2.60327 -3.2435 0
M  V30 8105 H 806.336 -0.81498 -3.63885 0
M  V30 8106 N 808.521 1.23394 -0.980386 0
M  V30 8107 C 809.767 1.92094 -0.650223 0
M  V30 8108 C 810.1 1.76309 0.814173 0
M  V30 8109 O 809.375 1.12406 1.5873 0
M  V30 8110 C 809.658 3.44713 -1.04139 0
M  V30 8111 C 809.511 3.69606 -2.56342 0
M  V30 8112 C 810.83 4.36191 -0.585296 0
M  V30 8113 H 807.949 0.697618 -0.237695 0
M  V30 8114 H 810.591 1.45517 -1.22167 0
M  V30 8115 H 808.741 3.84513 -0.55515 0
M  V30 8116 H 810.413 3.39288 -3.1254 0
M  V30 8117 H 808.656 3.14318 -2.98976 0
M  V30 8118 H 809.327 4.76441 -2.78762 0
M  V30 8119 H 811.803 4.03836 -1.00276 0
M  V30 8120 H 810.679 5.41679 -0.887428 0
M  V30 8121 H 810.94 4.39097 0.51438 0
M  V30 8122 N 809.999 0.752036 1.385 0
M  V30 8123 C 811.247 0.306895 1.99756 0
M  V30 8124 C 811.568 -1.11478 1.59992 0
M  V30 8125 O 810.838 -1.76206 0.856045 0
M  V30 8126 H 809.418 0.11048 0.738785 0
M  V30 8127 H 812.08 0.965785 1.69289 0
M  V30 8128 H 811.176 0.368797 3.09913 0
M  V30 8129 N 811.477 -1.49425 0.500989 0
M  V30 8130 C 812.725 -2.02053 -0.0434495 0
M  V30 8131 C 813.046 -1.38285 -1.37486 0
M  V30 8132 O 812.316 -0.538171 -1.88363 0
M  V30 8133 H 810.896 -0.746757 -0.0190469 0
M  V30 8134 H 813.558 -1.83449 0.658227 0
M  V30 8135 H 812.654 -3.11619 -0.173129 0
M  V30 8136 N 812.955 -0.234822 -1.55841 0
M  V30 8137 C 814.18 0.400741 -2.03492 0
M  V30 8138 C 814.605 1.51618 -1.11327 0
M  V30 8139 O 813.963 1.81002 -0.103922 0
M  V30 8140 C 814.011 0.897184 -3.49261 0
M  V30 8141 O 813.115 2.00764 -3.60233 0
M  V30 8142 H 812.456 0.0890023 -0.658008 0
M  V30 8143 H 814.986 -0.357345 -2.01455 0
M  V30 8144 H 814.996 1.20356 -3.89844 0
M  V30 8145 H 813.671 0.0808639 -4.15821 0
M  V30 8146 H 812.248 1.70689 -3.31541 0
M  V30 8147 N 814.433 1.57553 0.0384317 0
M  V30 8148 C 815.681 1.88468 0.729672 0
M  V30 8149 C 816.002 0.831302 1.76393 0
M  V30 8150 O 815.272 -0.13622 1.95426 0
M  V30 8151 H 813.852 0.695529 0.272485 0
M  V30 8152 H 816.514 1.94899 0.0066032 0
M  V30 8153 H 815.61 2.8705 1.22511 0
M  V30 8154 N 815.911 -0.310526 1.54511 0
M  V30 8155 C 817.158 -1.04691 1.73338 0
M  V30 8156 C 817.486 -1.87584 0.514038 0
M  V30 8157 O 816.741 -1.89096 -0.504119 0
M  V30 8158 C 817.04 -1.98942 2.96912 0
M  V30 8159 C 816.706 -1.321 4.31115 0
M  V30 8160 C 815.368 -1.13603 4.67598 0
M  V30 8161 C 817.72 -0.842362 5.14348 0
M  V30 8162 C 815.048 -0.459102 5.84901 0
M  V30 8163 C 817.4 -0.179202 6.32346 0
M  V30 8164 C 816.064 0.0178111 6.67498 0
M  V30 8165 H 815.334 -0.38309 0.634289 0
M  V30 8166 H 817.981 -0.322723 1.88761 0
M  V30 8167 H 816.286 -2.77856 2.76231 0
M  V30 8168 H 817.983 -2.55972 3.08674 0
M  V30 8169 H 814.573 -1.47502 4.02419 0
M  V30 8170 H 818.757 -0.973013 4.86668 0
M  V30 8171 H 814.013 -0.295385 6.10686 0
M  V30 8172 H 818.187 0.199619 6.96114 0
M  V30 8173 H 815.814 0.544356 7.58249 0
M  V30 8174 N 817.389 -1.46805 -0.573248 0
M  V30 8175 C 818.614 -1.56433 -1.36175 0
M  V30 8176 C 819.039 -0.209336 -1.86932 0
M  V30 8177 O 818.397 0.812146 -1.62092 0
M  V30 8178 C 818.445 -2.58055 -2.51873 0
M  V30 8179 O 817.549 -2.12214 -3.53609 0
M  V30 8180 H 816.89 -0.526068 -0.405153 0
M  V30 8181 H 819.42 -1.92456 -0.694405 0
M  V30 8182 H 819.43 -2.77966 -2.98662 0
M  V30 8183 H 818.105 -3.56448 -2.14284 0
M  V30 8184 H 816.682 -2.02333 -3.13234 0
M  V30 8185 N 818.867 0.818669 -1.34668 0
M  V30 8186 C 819.83 1.9114 -1.26483 0
M  V30 8187 C 820.83 1.598 -0.179044 0
M  V30 8188 O 822.02 1.6876 -0.431952 0
M  V30 8189 C 819.152 3.27285 -0.95381 0
M  V30 8190 H 820.345 1.9982 -2.23634 0
M  V30 8191 H 817.898 1.01314 -1.19018 0
M  V30 8192 H 818.633 3.24297 0.0143428 0
M  V30 8193 H 818.418 3.51416 -1.73924 0
M  V30 8194 H 819.908 4.07299 -0.921827 0
M  V30 8195 N 820.346 1.18468 1.03938 0
M  V30 8196 C 821.571 1.00638 1.81347 0
M  V30 8197 C 821.996 -0.440477 1.8287 0
M  V30 8198 O 821.354 -1.31609 1.24695 0
M  V30 8199 C 821.402 1.5673 3.24759 0
M  V30 8200 O 820.506 0.789517 4.04772 0
M  V30 8201 H 819.847 0.356432 0.560225 0
M  V30 8202 H 822.377 1.57253 1.30891 0
M  V30 8203 H 822.387 1.59496 3.75533 0
M  V30 8204 H 821.062 2.62043 3.22965 0
M  V30 8205 H 819.639 0.834267 3.63448 0
M  V30 8206 N 821.824 -1.22873 0.986916 0
M  V30 8207 C 823.049 -1.96028 0.677341 0
M  V30 8208 C 823.474 -1.72487 -0.750319 0
M  V30 8209 O 822.832 -1.00036 -1.51203 0
M  V30 8210 C 822.88 -3.46983 0.981593 0
M  V30 8211 O 821.984 -4.12328 0.0770729 0
M  V30 8212 H 821.325 -0.613458 0.254096 0
M  V30 8213 H 823.855 -1.56132 1.32227 0
M  V30 8214 H 823.865 -3.9747 0.920969 0
M  V30 8215 H 822.54 -3.63442 2.02194 0
M  V30 8216 H 821.117 -3.72402 0.192666 0
M  V30 8217 N 823.302 -0.75937 -1.38099 0
M  V30 8218 C 824.55 -0.317485 -1.99591 0
M  V30 8219 C 824.871 1.10628 -1.60581 0
M  V30 8220 O 824.141 1.7575 -0.865378 0
M  V30 8221 H 822.721 -0.114397 -0.738189 0
M  V30 8222 H 825.383 -0.974749 -1.68774 0
M  V30 8223 H 824.479 -0.385227 -3.09713 0
M  V30 8224 N 824.78 1.49157 -0.508906 0
M  V30 8225 C 826.196 1.58741 -0.165372 0
M  V30 8226 C 826.396 1.5133 1.33047 0
M  V30 8227 O 825.452 1.39135 2.10707 0
M  V30 8228 C 826.765 2.91217 -0.749194 0
M  V30 8229 C 828.313 3.047 -0.716015 0
M  V30 8230 C 828.788 4.39807 -1.27804 0
M  V30 8231 N 830.279 4.46319 -1.23908 0
M  V30 8232 C 831.014 5.49325 -1.64406 0
M  V30 8233 N 830.51 6.59395 -2.12534 0
M  V30 8234 N 832.303 5.40084 -1.55773 0
M  V30 8235 H 824.454 1.52217 -1.48134 0
M  V30 8236 H 826.717 0.721514 -0.614915 0
M  V30 8237 H 826.423 3.02233 -1.79856 0
M  V30 8238 H 826.297 3.76592 -0.214144 0
M  V30 8239 H 828.684 2.9331 0.324535 0
M  V30 8240 H 828.765 2.2099 -1.2883 0
M  V30 8241 H 828.409 4.5195 -2.31741 0
M  V30 8242 H 828.339 5.2217 -0.681623 0
M  V30 8243 H 830.83 3.67354 -0.886537 0
M  V30 8244 H 831.143 7.34102 -2.41485 0
M  V30 8245 H 829.488 6.60414 -2.16513 0
M  V30 8246 H 832.679 4.52986 -1.17987 0
M  V30 8247 H 832.852 6.20233 -1.87657 0
M  V30 8248 N 826.258 0.243083 1.55714 0
M  V30 8249 C 827.506 -0.381964 1.98458 0
M  V30 8250 C 827.827 -1.58745 1.13247 0
M  V30 8251 O 827.097 -1.94723 0.214384 0
M  V30 8252 H 825.677 -0.144114 0.732967 0
M  V30 8253 H 828.339 0.340985 1.91894 0
M  V30 8254 H 827.435 -0.693702 3.04293 0
M  V30 8255 N 827.736 -1.57571 -0.0300757 0
M  V30 8256 C 828.666 -2.0953 -1.03051 0
M  V30 8257 C 829.647 -0.99761 -1.37774 0
M  V30 8258 O 830.832 -1.27279 -1.46676 0
M  V30 8259 C 827.962 -2.57385 -2.33174 0
M  V30 8260 C 826.916 -3.71409 -2.12696 0
M  V30 8261 C 826.242 -4.05467 -3.4857 0
M  V30 8262 C 827.542 -4.99877 -1.51396 0
M  V30 8263 H 829.236 -2.93367 -0.597999 0
M  V30 8264 H 826.782 -1.41127 -0.286203 0
M  V30 8265 H 828.735 -2.92355 -3.03491 0
M  V30 8266 H 827.459 -1.70629 -2.78484 0
M  V30 8267 H 826.118 -3.36786 -1.44813 0
M  V30 8268 H 825.766 -3.15779 -3.91526 0
M  V30 8269 H 825.466 -4.82269 -3.35694 0
M  V30 8270 H 826.99 -4.4297 -4.2025 0
M  V30 8271 H 828.404 -5.3281 -2.11629 0
M  V30 8272 H 826.801 -5.81283 -1.49098 0
M  V30 8273 H 827.871 -4.82522 -0.479676 0
M  V30 8274 N 829.214 0.302327 -1.54673 0
M  V30 8275 C 830.462 1.03565 -1.73547 0
M  V30 8276 C 830.783 1.87843 -0.523448 0
M  V30 8277 O 830.053 1.90367 0.462295 0
M  V30 8278 H 828.633 0.385358 -0.639928 0
M  V30 8279 H 831.295 0.333632 -1.92023 0
M  V30 8280 H 830.391 1.68952 -2.62415 0
M  V30 8281 N 830.692 1.47107 0.565454 0
M  V30 8282 C 831.938 1.53535 1.32495 0
M  V30 8283 C 832.271 0.193537 1.93233 0
M  V30 8284 O 831.546 -0.796956 1.77423 0
M  V30 8285 C 831.829 2.64712 2.4413 0
M  V30 8286 C 831.682 4.08482 1.88314 0
M  V30 8287 C 833.001 2.71853 3.46098 0
M  V30 8288 H 830.12 0.558926 0.480386 0
M  V30 8289 H 832.762 1.79125 0.633575 0
M  V30 8290 H 830.912 2.43023 3.03104 0
M  V30 8291 H 832.584 4.4151 1.33665 0
M  V30 8292 H 830.827 4.17148 1.19037 0
M  V30 8293 H 831.498 4.82032 2.68978 0
M  V30 8294 H 833.974 2.91397 2.97031 0
M  V30 8295 H 832.85 3.51433 4.21646 0
M  V30 8296 H 833.111 1.78584 4.04426 0
M  V30 8297 N 832.17 -0.811516 1.35101 0
M  V30 8298 C 833.418 -1.56525 1.27845 0
M  V30 8299 C 833.739 -1.94435 -0.14829 0
M  V30 8300 O 833.009 -1.63203 -1.08359 0
M  V30 8301 H 831.589 -0.580433 0.47022 0
M  V30 8302 H 834.251 -0.968277 1.69146 0
M  V30 8303 H 833.347 -2.48291 1.89097 0
M  V30 8304 N 833.648 -1.19017 -1.03309 0
M  V30 8305 C 834.895 -0.990214 -1.76638 0
M  V30 8306 C 835.223 0.479435 -1.88498 0
M  V30 8307 O 834.478 1.37223 -1.39529 0
M  V30 8308 C 834.777 -1.59927 -3.19622 0
M  V30 8309 C 834.443 -3.09632 -3.27779 0
M  V30 8310 C 833.105 -3.50491 -3.29712 0
M  V30 8311 C 835.457 -4.05644 -3.27264 0
M  V30 8312 C 832.785 -4.85921 -3.28782 0
M  V30 8313 C 835.137 -5.41 -3.27875 0
M  V30 8314 C 833.801 -5.81295 -3.28104 0
M  V30 8315 H 833.071 -0.362345 -0.646364 0
M  V30 8316 H 835.718 -1.48197 -1.21284 0
M  V30 8317 H 834.023 -1.0297 -3.78027 0
M  V30 8318 H 835.72 -1.41989 -3.7502 0
M  V30 8319 H 832.31 -2.77073 -3.26999 0
M  V30 8320 H 836.494 -3.75124 -3.24955 0
M  V30 8321 H 831.75 -5.16427 -3.27281 0
M  V30 8322 H 835.924 -6.15157 -3.26428 0
M  V30 8323 H 833.551 -6.86211 -3.27138 0
M  V30 8324 N 835.127 1.22348 -0.993418 0
M  V30 8325 C 836.375 1.90733 -0.668246 0
M  V30 8326 C 836.696 1.77732 0.802261 0
M  V30 8327 O 835.966 1.16486 1.57505 0
M  V30 8328 H 834.546 0.705966 -0.244174 0
M  V30 8329 H 837.208 1.48691 -1.26004 0
M  V30 8330 H 836.304 2.97883 -0.931239 0
M  V30 8331 N 836.605 0.766683 1.37694 0
M  V30 8332 C 837.83 0.338715 2.04615 0
M  V30 8333 C 838.255 -1.02918 1.57447 0
M  V30 8334 O 837.613 -1.65849 0.732386 0
M  V30 8335 C 837.661 0.385284 3.58536 0
M  V30 8336 O 836.765 -0.616081 4.07772 0
M  V30 8337 H 836.106 0.147527 0.647404 0
M  V30 8338 H 838.636 1.04146 1.7611 0
M  V30 8339 H 838.646 0.240782 4.07289 0
M  V30 8340 H 837.321 1.38325 3.92223 0
M  V30 8341 H 835.898 -0.435115 3.70353 0
M  V30 8342 N 838.083 -1.48885 0.516809 0
M  V30 8343 C 839.331 -2.02088 -0.0220166 0
M  V30 8344 C 839.652 -1.39735 -1.36011 0
M  V30 8345 O 838.922 -0.558119 -1.87781 0
M  V30 8346 H 837.502 -0.746917 -0.0111255 0
M  V30 8347 H 840.164 -1.8274 0.677647 0
M  V30 8348 H 839.26 -3.11786 -0.140067 0
M  V30 8349 N 839.561 -0.251338 -1.55583 0
M  V30 8350 C 840.809 0.371434 -1.98657 0
M  V30 8351 C 841.13 1.58143 -1.14087 0
M  V30 8352 O 840.4 1.94607 -0.224708 0
M  V30 8353 H 838.98 0.140225 -0.733721 0
M  V30 8354 H 841.642 -0.351157 -1.9171 0
M  V30 8355 H 840.738 0.677554 -3.04657 0
M  V30 8356 N 841.039 1.57585 0.0217189 0
M  V30 8357 C 842.287 1.89231 0.709641 0
M  V30 8358 C 842.608 0.849964 1.75501 0
M  V30 8359 O 841.878 -0.115485 1.95559 0
M  V30 8360 H 840.458 0.69838 0.265092 0
M  V30 8361 H 843.12 1.94895 -0.0140688 0
M  V30 8362 H 842.216 2.88333 1.19459 0
M  V30 8363 N 842.517 -0.29412 1.54831 0
M  V30 8364 C 843.742 -1.05156 1.78765 0
M  V30 8365 C 844.167 -1.79916 0.548809 0
M  V30 8366 O 843.525 -1.74243 -0.500909 0
M  V30 8367 C 843.573 -2.00242 2.99893 0
M  V30 8368 O 842.677 -3.08662 2.73499 0
M  V30 8369 H 842.018 -0.301737 0.591482 0
M  V30 8370 H 844.548 -0.329449 2.0193 0
M  V30 8371 H 844.558 -2.42583 3.28051 0
M  V30 8372 H 843.233 -1.45235 3.89717 0
M  V30 8373 H 841.81 -2.70786 2.56377 0
M  V30 8374 N 843.995 -1.47404 -0.557645 0
M  V30 8375 C 845.22 -1.57868 -1.34508 0
M  V30 8376 C 845.645 -0.229151 -1.86699 0
M  V30 8377 O 845.003 0.794908 -1.62944 0
M  V30 8378 C 845.051 -2.60712 -2.49122 0
M  V30 8379 O 844.155 -2.15952 -3.51338 0
M  V30 8380 H 843.496 -0.530335 -0.399551 0
M  V30 8381 H 846.026 -1.93181 -0.673954 0
M  V30 8382 H 846.036 -2.81118 -2.95697 0
M  V30 8383 H 844.711 -3.58701 -2.10491 0
M  V30 8384 H 843.288 -2.05644 -3.11071 0
M  V30 8385 N 845.473 0.80434 -1.35529 0
M  V30 8386 C 846.698 1.598 -1.32207 0
M  V30 8387 C 847.123 1.87848 0.0974226 0
M  V30 8388 O 846.481 1.46728 1.06492 0
M  V30 8389 C 846.529 2.90483 -2.13663 0
M  V30 8390 O 845.633 3.83411 -1.51888 0
M  V30 8391 H 844.974 0.485305 -0.453183 0
M  V30 8392 H 847.504 0.998119 -1.78602 0
M  V30 8393 H 847.514 3.39888 -2.257 0
M  V30 8394 H 846.189 2.69395 -3.16859 0
M  V30 8395 H 844.766 3.41967 -1.48704 0
M  V30 8396 N 846.951 1.19563 1.02676 0
M  V30 8397 C 848.176 1.02556 1.80269 0
M  V30 8398 C 848.601 -0.421056 1.83327 0
M  V30 8399 O 847.959 -1.30279 1.26084 0
M  V30 8400 C 848.007 1.60165 3.23078 0
M  V30 8401 O 847.111 0.832404 4.03912 0
M  V30 8402 H 846.452 0.362354 0.556413 0
M  V30 8403 H 848.982 1.58633 1.29216 0
M  V30 8404 H 848.992 1.6347 3.7382 0
M  V30 8405 H 847.667 2.65454 3.20167 0
M  V30 8406 H 846.244 0.872768 3.62543 0
M  V30 8407 N 848.429 -1.21819 0.999893 0
M  V30 8408 C 849.675 -1.91035 0.680701 0
M  V30 8409 C 850.008 -1.77582 -0.786021 0
M  V30 8410 O 849.283 -1.14917 -1.56921 0
M  V30 8411 C 849.566 -3.43013 1.0961 0
M  V30 8412 C 849.419 -3.65481 2.6219 0
M  V30 8413 C 850.738 -4.35204 0.654616 0
M  V30 8414 H 847.857 -0.693748 0.248763 0
M  V30 8415 H 850.499 -1.43555 1.24466 0
M  V30 8416 H 848.649 -3.83581 0.616253 0
M  V30 8417 H 850.321 -3.34273 3.17899 0
M  V30 8418 H 848.564 -3.09522 3.03938 0
M  V30 8419 H 849.235 -4.71945 2.86307 0
M  V30 8420 H 851.711 -4.0219 1.06688 0
M  V30 8421 H 850.587 -5.40198 0.973492 0
M  V30 8422 H 850.848 -4.3986 -0.444458 0
M  V30 8423 N 849.908 -0.773975 -1.37286 0
M  V30 8424 C 850.855 -0.159938 -2.30245 0
M  V30 8425 C 851.825 0.687356 -1.51211 0
M  V30 8426 O 853.01 0.639255 -1.79773 0
M  V30 8427 C 850.15 0.711452 -3.37687 0
M  V30 8428 C 849.263 -0.152692 -4.3173 0
M  V30 8429 C 848.398 0.723613 -5.26248 0
M  V30 8430 C 847.437 -0.14293 -6.11933 0
M  V30 8431 N 846.574 0.691479 -6.98687 0
M  V30 8432 H 851.414 -0.958182 -2.82175 0
M  V30 8433 H 848.951 -0.48411 -1.38906 0
M  V30 8434 H 850.909 1.2315 -3.9861 0
M  V30 8435 H 849.539 1.47528 -2.87116 0
M  V30 8436 H 848.591 -0.790574 -3.72094 0
M  V30 8437 H 849.903 -0.821027 -4.91997 0
M  V30 8438 H 849.057 1.31006 -5.92387 0
M  V30 8439 H 847.796 1.42562 -4.66398 0
M  V30 8440 H 846.801 -0.7419 -5.44771 0
M  V30 8441 H 848.026 -0.842305 -6.73856 0
M  V30 8442 H 845.972 1.37806 -6.41362 0
M  V30 8443 H 845.889 0.0804911 -7.55957 0
M  V30 8444 H 847.157 1.26225 -7.69212 0
M  V30 8445 N 851.386 1.48609 -0.524698 0
M  V30 8446 C 852.633 2.02497 0.0113214 0
M  V30 8447 C 852.961 1.40229 1.34781 0
M  V30 8448 O 852.216 0.53557 1.88229 0
M  V30 8449 C 852.515 3.56906 0.187873 0
M  V30 8450 C 852.181 4.37932 -1.07359 0
M  V30 8451 C 850.843 4.59792 -1.41933 0
M  V30 8452 C 853.195 4.84902 -1.911 0
M  V30 8453 C 850.523 5.25868 -2.60154 0
M  V30 8454 C 852.875 5.52281 -3.08495 0
M  V30 8455 C 851.539 5.7238 -3.4342 0
M  V30 8456 H 850.809 0.740988 0.0041428 0
M  V30 8457 H 853.456 1.78651 -0.689652 0
M  V30 8458 H 851.761 3.79563 0.971572 0
M  V30 8459 H 853.458 3.96218 0.617443 0
M  V30 8460 H 850.048 4.21175 -0.794331 0
M  V30 8461 H 854.232 4.67821 -1.65701 0
M  V30 8462 H 849.488 5.39628 -2.87422 0
M  V30 8463 H 853.662 5.87645 -3.73692 0
M  V30 8464 H 851.289 6.23354 -4.35126 0
M  V30 8465 N 852.864 0.259585 1.55447 0
M  V30 8466 C 854.11 -0.362143 1.9954 0
M  V30 8467 C 854.443 -1.5666 1.14767 0
M  V30 8468 O 853.718 -1.93319 0.214025 0
M  V30 8469 C 854.001 -0.759588 3.51998 0
M  V30 8470 C 853.854 0.451134 4.47532 0
M  V30 8471 C 855.173 -1.60186 4.09913 0
M  V30 8472 H 852.292 -0.130157 0.725416 0
M  V30 8473 H 854.934 0.363431 1.86492 0
M  V30 8474 H 853.084 -1.3778 3.63248 0
M  V30 8475 H 854.756 1.08965 4.48246 0
M  V30 8476 H 852.999 1.092 4.19831 0
M  V30 8477 H 853.67 0.129518 5.51848 0
M  V30 8478 H 856.146 -1.0799 4.01842 0
M  V30 8479 H 855.022 -1.84879 5.16828 0
M  V30 8480 H 855.283 -2.57787 3.59163 0
M  V30 8481 N 854.342 -1.57594 -0.0133615 0
M  V30 8482 C 855.567 -1.94649 -0.715996 0
M  V30 8483 C 855.992 -0.860786 -1.67249 0
M  V30 8484 O 855.35 0.182228 -1.80382 0
M  V30 8485 C 855.398 -3.30789 -1.43566 0
M  V30 8486 O 854.502 -3.24148 -2.54955 0
M  V30 8487 H 853.843 -0.635801 -0.191449 0
M  V30 8488 H 856.373 -2.04569 0.0358478 0
M  V30 8489 H 856.383 -3.66045 -1.80208 0
M  V30 8490 H 855.058 -4.09367 -0.734263 0
M  V30 8491 H 853.635 -3.00548 -2.20739 0
M  V30 8492 N 855.82 0.285905 -1.54985 0
M  V30 8493 C 857.048 1.03776 -1.78992 0
M  V30 8494 C 857.463 1.80402 -0.556814 0
M  V30 8495 O 856.82 1.76242 0.473801 0
M  V30 8496 C 856.871 2.0065 -3.00702 0
M  V30 8497 O 856.592 1.27131 -4.19249 0
M  V30 8498 C 858.093 2.87753 -3.37214 0
M  V30 8499 H 855.313 0.307126 -0.596586 0
M  V30 8500 H 857.857 0.3206 -2.01971 0
M  V30 8501 H 856.012 2.67847 -2.79887 0
M  V30 8502 H 856.426 1.92316 -4.8797 0
M  V30 8503 H 857.9 3.51548 -4.2558 0
M  V30 8504 H 858.377 3.56848 -2.56039 0
M  V30 8505 H 858.983 2.26065 -3.60242 0
M  V30 8506 N 857.298 1.47698 0.54982 0
M  V30 8507 C 858.526 1.5833 1.33188 0
M  V30 8508 C 858.941 0.236193 1.87317 0
M  V30 8509 O 858.298 -0.77167 1.65383 0
M  V30 8510 C 858.349 2.61438 2.49664 0
M  V30 8511 O 858.07 3.9092 1.97771 0
M  V30 8512 C 859.571 2.82324 3.41772 0
M  V30 8513 H 856.791 0.53443 0.405741 0
M  V30 8514 H 859.335 1.93375 0.665309 0
M  V30 8515 H 857.49 2.29307 3.12245 0
M  V30 8516 H 857.904 4.47323 2.73866 0
M  V30 8517 H 859.378 3.58316 4.19897 0
M  V30 8518 H 859.855 1.90416 3.95776 0
M  V30 8519 H 860.461 3.15682 2.85 0
M  V30 8520 N 858.776 -0.797141 1.35954 0
M  V30 8521 C 860.001 -1.59097 1.33053 0
M  V30 8522 C 860.426 -1.87897 -0.0874592 0
M  V30 8523 O 859.784 -1.47291 -1.05712 0
M  V30 8524 C 859.832 -2.89346 2.152 0
M  V30 8525 O 858.936 -3.826 1.5392 0
M  V30 8526 H 858.277 -0.482895 0.45575 0
M  V30 8527 H 860.807 -0.988633 1.79129 0
M  V30 8528 H 860.817 -3.38686 2.27499 0
M  V30 8529 H 859.492 -2.6771 3.18283 0
M  V30 8530 H 858.069 -3.41174 1.50516 0
M  V30 8531 N 860.254 -1.20106 -1.0204 0
M  V30 8532 C 861.479 -1.0351 -1.79723 0
M  V30 8533 C 861.904 0.411328 -1.83548 0
M  V30 8534 O 861.262 1.29608 -1.26773 0
M  V30 8535 C 861.31 -1.61876 -3.22224 0
M  V30 8536 O 860.414 -0.853813 -4.03465 0
M  V30 8537 H 859.755 -0.365299 -0.554484 0
M  V30 8538 H 862.285 -1.59316 -1.28373 0
M  V30 8539 H 862.295 -1.65451 -3.72948 0
M  V30 8540 H 860.97 -2.67148 -3.18755 0
M  V30 8541 H 859.547 -0.891983 -3.62075 0
M  V30 8542 N 861.732 1.21287 -1.00634 0
M  V30 8543 C 862.957 1.94925 -0.708441 0
M  V30 8544 C 863.382 1.73659 0.722783 0
M  V30 8545 O 862.74 1.02429 1.49593 0
M  V30 8546 C 862.788 3.45377 -1.03667 0
M  V30 8547 O 861.892 4.12153 -0.142661 0
M  V30 8548 H 861.233 0.609338 -0.263824 0
M  V30 8549 H 863.763 1.54008 -1.34695 0
M  V30 8550 H 863.773 3.95954 -0.984086 0
M  V30 8551 H 862.448 3.6018 -2.0795 0
M  V30 8552 H 861.025 3.72048 -0.251888 0
M  V30 8553 N 863.21 0.781244 1.36873 0
M  V30 8554 C 864.626 0.461968 1.52768 0
M  V30 8555 C 864.826 -1.02099 1.73719 0
M  V30 8556 O 863.882 -1.80665 1.76399 0
M  V30 8557 C 865.195 1.2853 2.71846 0
M  V30 8558 C 866.743 1.27817 2.85713 0
M  V30 8559 C 867.218 2.08506 4.07786 0
M  V30 8560 N 868.709 2.05909 4.14917 0
M  V30 8561 C 869.444 2.65118 5.08429 0
M  V30 8562 N 868.94 3.33152 6.07438 0
M  V30 8563 N 870.733 2.54896 5.00983 0
M  V30 8564 H 862.884 1.74198 1.21527 0
M  V30 8565 H 865.147 0.740027 0.592506 0
M  V30 8566 H 864.853 2.3366 2.62861 0
M  V30 8567 H 864.727 0.920981 3.65784 0
M  V30 8568 H 867.114 0.234817 2.94164 0
M  V30 8569 H 867.195 1.68219 1.92707 0
M  V30 8570 H 866.839 3.12867 4.00096 0
M  V30 8571 H 866.769 1.65479 4.99924 0
M  V30 8572 H 869.26 1.56386 3.44023 0
M  V30 8573 H 869.573 3.75681 6.75339 0
M  V30 8574 H 867.918 3.37253 6.07689 0
M  V30 8575 H 871.109 2.01352 4.22581 0
M  V30 8576 H 871.282 3.01332 5.73675 0
M  V30 8577 N 864.689 -1.48329 0.532571 0
M  V30 8578 C 865.636 -2.29663 -0.228779 0
M  V30 8579 C 866.606 -1.37529 -0.931401 0
M  V30 8580 O 867.791 -1.66493 -0.931921 0
M  V30 8581 C 864.931 -3.20955 -1.26814 0
M  V30 8582 C 864.044 -4.28168 -0.574099 0
M  V30 8583 C 863.179 -5.06638 -1.59661 0
M  V30 8584 C 862.218 -6.05651 -0.88618 0
M  V30 8585 N 861.355 -6.77169 -1.85436 0
M  V30 8586 H 866.195 -2.94255 0.47098 0
M  V30 8587 H 863.732 -1.45061 0.2441 0
M  V30 8588 H 865.69 -3.72285 -1.88307 0
M  V30 8589 H 864.32 -2.58281 -1.93625 0
M  V30 8590 H 863.372 -3.80085 0.154827 0
M  V30 8591 H 864.684 -4.98797 -0.0163984 0
M  V30 8592 H 863.838 -5.61995 -2.28576 0
M  V30 8593 H 862.577 -4.35854 -2.18821 0
M  V30 8594 H 861.582 -5.49495 -0.182981 0
M  V30 8595 H 862.807 -6.78434 -0.300659 0
M  V30 8596 H 860.753 -6.09134 -2.43499 0
M  V30 8597 H 860.67 -7.43882 -1.34816 0
M  V30 8598 H 861.938 -7.37114 -2.53541 0
M  V30 8599 N 866.167 -0.267825 -1.55308 0
M  V30 8600 C 867.392 0.357487 -2.04296 0
M  V30 8601 C 867.817 1.49222 -1.14518 0
M  V30 8602 O 867.175 1.80741 -0.142292 0
M  V30 8603 C 867.223 0.822899 -3.51085 0
M  V30 8604 O 866.327 1.93078 -3.6441 0
M  V30 8605 H 865.668 0.075025 -0.659748 0
M  V30 8606 H 868.198 -0.399996 -2.00652 0
M  V30 8607 H 868.208 1.12059 -3.92309 0
M  V30 8608 H 866.883 -0.0073562 -4.15899 0
M  V30 8609 H 865.46 1.63618 -3.35087 0
M  V30 8610 N 867.645 1.57599 0.00500368 0
M  V30 8611 C 868.892 1.90349 0.690895 0
M  V30 8612 C 869.22 0.868045 1.74055 0
M  V30 8613 O 868.475 -0.127855 1.95282 0
M  V30 8614 C 868.774 3.29855 1.37588 0
M  V30 8615 C 868.44 4.48548 0.459906 0
M  V30 8616 C 867.102 4.80752 0.207693 0
M  V30 8617 C 869.454 5.20919 -0.171054 0
M  V30 8618 C 866.782 5.82701 -0.683855 0
M  V30 8619 C 869.134 6.23818 -1.05045 0
M  V30 8620 C 867.798 6.54481 -1.31189 0
M  V30 8621 H 867.068 0.696538 0.252816 0
M  V30 8622 H 869.715 1.91436 -0.0494495 0
M  V30 8623 H 868.02 3.24869 2.19015 0
M  V30 8624 H 869.717 3.52452 1.91255 0
M  V30 8625 H 866.307 4.23384 0.666648 0
M  V30 8626 H 870.491 4.96299 0.0107942 0
M  V30 8627 H 865.747 6.04822 -0.894467 0
M  V30 8628 H 869.921 6.79029 -1.54574 0
M  V30 8629 H 867.548 7.33299 -2.00442 0
M  V30 8630 N 869.123 -0.277682 1.55134 0
M  V30 8631 C 870.07 -1.34313 1.87693 0
M  V30 8632 C 871.04 -1.49298 0.727973 0
M  V30 8633 O 872.225 -1.6378 0.978807 0
M  V30 8634 C 869.365 -2.69922 2.15026 0
M  V30 8635 C 868.478 -2.63197 3.42565 0
M  V30 8636 C 867.613 -3.90955 3.59622 0
M  V30 8637 C 866.652 -3.78722 4.8087 0
M  V30 8638 N 865.789 -4.98303 4.94609 0
M  V30 8639 H 870.629 -1.05847 2.78569 0
M  V30 8640 H 868.166 -0.511469 1.37922 0
M  V30 8641 H 870.124 -3.48817 2.28872 0
M  V30 8642 H 868.754 -2.966 1.2739 0
M  V30 8643 H 867.806 -1.76038 3.37216 0
M  V30 8644 H 869.118 -2.50056 4.31594 0
M  V30 8645 H 868.272 -4.78291 3.7326 0
M  V30 8646 H 867.011 -4.06957 2.6877 0
M  V30 8647 H 866.016 -2.89769 4.67241 0
M  V30 8648 H 867.241 -3.64242 5.73153 0
M  V30 8649 H 865.187 -5.14725 4.06687 0
M  V30 8650 H 865.104 -4.87675 5.77676 0
M  V30 8651 H 866.372 -5.87225 5.12628 0
M  V30 8652 N 870.601 -1.47988 -0.541979 0
M  V30 8653 C 871.826 -1.59286 -1.32826 0
M  V30 8654 C 872.251 -0.24894 -1.86445 0
M  V30 8655 O 871.609 0.777581 -1.63778 0
M  V30 8656 C 871.657 -2.6334 -2.46343 0
M  V30 8657 O 870.761 -2.19667 -3.49028 0
M  V30 8658 H 870.102 -0.534543 -0.393903 0
M  V30 8659 H 872.632 -1.93885 -0.653427 0
M  V30 8660 H 872.642 -2.84238 -2.92699 0
M  V30 8661 H 871.317 -3.60913 -2.06675 0
M  V30 8662 H 869.894 -2.08932 -3.08872 0
M  V30 8663 O 872.118 0.686819 -1.46168 0
M  V30 8664 H 872.809 1.33902 -1.39964 0
M  V30 END ATOM
M  V30 BEGIN BOND
M  V30 END BOND
M  V30 END CTAB
M  END
$$$$
