drugbank_target|P13727 Bone marrow proteoglycan (DB00020; DB06752)
 OpenBabel12092120063D

  0  0  0     0  0            999 V3000
M  V30 BEGIN CTAB
M  V30 COUNTS 3473 3517 0 0 0
M  V30 BEGIN ATOM
M  V30 1 H -0.908 1.98254 -0.117106 0
M  V30 2 N 0 1.576 0 0
M  V30 3 C 0.933 2.03868 1.02534 0
M  V30 4 C 1.911 0.928543 1.3348 0
M  V30 5 O 3.095 1.19667 1.45644 0
M  V30 6 C 0.222 2.43627 2.35294 0
M  V30 7 C -0.732 3.65373 2.2001 0
M  V30 8 S 0.101 5.13292 1.52614 0
M  V30 9 C 1.257 5.56322 2.86805 0
M  V30 10 H 1.49 2.90518 0.631377 0
M  V30 11 H -0.977 1.52953 0.210867 0
M  V30 12 H 0.981 2.67203 3.11629 0
M  V30 13 H -0.358 1.57376 2.7183 0
M  V30 14 H -1.165 3.90944 3.18086 0
M  V30 15 H -1.563 3.418 1.51819 0
M  V30 16 H 0.729 5.58782 3.83104 0
M  V30 17 H 1.672 6.56266 2.65933 0
M  V30 18 H 2.08 4.83886 2.90714 0
M  V30 19 N 1.4781 -0.272755 1.55222 0
M  V30 20 C 2.4251 -1.33716 1.88119 0
M  V30 21 C 3.3951 -1.49066 0.73271 0
M  V30 22 O 4.5801 -1.63469 0.984002 0
M  V30 23 C 1.7201 -2.69238 2.15882 0
M  V30 24 C 0.8331 -2.62108 3.43399 0
M  V30 25 C -0.0319 -3.89811 3.60861 0
M  V30 26 C -0.9929 -3.77193 4.8207 0
M  V30 27 N -1.8559 -4.9673 4.96189 0
M  V30 28 H 2.9841 -1.04962 2.78903 0
M  V30 29 H 0.5211 -0.507088 1.38083 0
M  V30 30 H 2.4791 -3.48089 2.29978 0
M  V30 31 H 1.1091 -2.96194 1.28331 0
M  V30 32 H 0.1611 -1.74967 3.37773 0
M  V30 33 H 1.4731 -2.48685 4.32386 0
M  V30 34 H 0.6271 -4.77103 3.74777 0
M  V30 35 H -0.6339 -4.06102 2.7006 0
M  V30 36 H -1.6289 -2.88284 4.68159 0
M  V30 37 H -0.4039 -3.62421 5.74307 0
M  V30 38 H -2.4579 -5.13431 4.08319 0
M  V30 39 H -2.5409 -4.85839 5.79221 0
M  V30 40 H -1.2729 -5.85594 5.1449 0
M  V30 41 N 2.9562 -1.48159 -0.537278 0
M  V30 42 C 3.8862 -1.65029 -1.6519 0
M  V30 43 C 4.8672 -0.499281 -1.62607 0
M  V30 44 O 6.0522 -0.730972 -1.79918 0
M  V30 45 C 3.1822 -1.68303 -3.03795 0
M  V30 46 C 2.1362 -2.8283 -3.21234 0
M  V30 47 C 1.4622 -2.71189 -4.60826 0
M  V30 48 C 2.7622 -4.24211 -3.04701 0
M  V30 49 H 4.4562 -2.58341 -1.51328 0
M  V30 50 H 2.0022 -1.24325 -0.726585 0
M  V30 51 H 3.9552 -1.78693 -3.81637 0
M  V30 52 H 2.6792 -0.715635 -3.18663 0
M  V30 53 H 1.3382 -2.71983 -2.45807 0
M  V30 54 H 0.9862 -1.72435 -4.7252 0
M  V30 55 H 0.6862 -3.48035 -4.7344 0
M  V30 56 H 2.2102 -2.83537 -5.40777 0
M  V30 57 H 3.6242 -4.3593 -3.72341 0
M  V30 58 H 2.0212 -5.01998 -3.28813 0
M  V30 59 H 3.0912 -4.41184 -2.01209 0
M  V30 60 N 4.4343 0.785586 -1.36625 0
M  V30 61 C 5.8453 1.36101 -1.27803 0
M  V30 62 C 6.1963 1.96035 0.0804875 0
M  V30 63 O 5.3213 1.92834 0.982042 0
M  V30 64 C 5.9163 2.47442 -2.31426 0
M  V30 65 C 4.4753 3.00789 -2.26281 0
M  V30 66 C 3.6223 1.73896 -2.15999 0
M  V30 67 H 6.5733 0.586928 -1.47448 0
M  V30 68 H 6.5943 3.2656 -1.95291 0
M  V30 69 H 6.1063 2.03791 -3.30289 0
M  V30 70 H 4.2073 3.48851 -1.30896 0
M  V30 71 H 4.3203 3.57343 -3.19128 0
M  V30 72 H 2.6843 1.9628 -1.62316 0
M  V30 73 H 3.4673 1.32368 -3.16755 0
M  V30 74 N 5.9124 1.20967 1.01018 0
M  V30 75 C 6.8424 0.988272 2.11555 0
M  V30 76 C 7.8234 -0.0849778 1.69888 0
M  V30 77 O 9.0084 0.0738202 1.9406 0
M  V30 78 C 6.1384 0.546528 3.42973 0
M  V30 79 C 5.0924 1.56375 3.9841 0
M  V30 80 C 4.4184 0.97842 5.25672 0
M  V30 81 C 5.7184 2.94922 4.31066 0
M  V30 82 H 7.4124 1.91276 2.30334 0
M  V30 83 H 4.9584 0.921073 1.1069 0
M  V30 84 H 6.9114 0.378839 4.19694 0
M  V30 85 H 5.6354 -0.413598 3.23971 0
M  V30 86 H 4.2944 1.71891 3.23804 0
M  V30 87 H 3.9424 0.0101688 5.02999 0
M  V30 88 H 3.6424 1.65784 5.63728 0
M  V30 89 H 5.1664 0.821939 6.05043 0
M  V30 90 H 6.5804 2.8288 4.9865 0
M  V30 91 H 4.9774 3.5983 4.80253 0
M  V30 92 H 6.0474 3.4616 3.39561 0
M  V30 93 N 7.3905 -1.2043 1.01659 0
M  V30 94 C 8.3205 -2.25466 0.607226 0
M  V30 95 C 9.3015 -1.65853 -0.377716 0
M  V30 96 O 10.4865 -1.92409 -0.263149 0
M  V30 97 C 7.6165 -3.47256 -0.0552949 0
M  V30 98 C 6.5705 -4.19462 0.850632 0
M  V30 99 C 5.8965 -5.34673 0.0538859 0
M  V30 100 C 7.1965 -4.75603 2.15868 0
M  V30 101 H 8.8905 -2.59962 1.48526 0
M  V30 102 H 6.4365 -1.2496 0.715605 0
M  V30 103 H 8.3895 -4.19917 -0.353233 0
M  V30 104 H 7.1135 -3.11924 -0.968045 0
M  V30 105 H 5.7725 -3.48667 1.13257 0
M  V30 106 H 5.4205 -4.95585 -0.860514 0
M  V30 107 H 5.1205 -5.83913 0.657192 0
M  V30 108 H 6.6445 -6.10138 -0.237598 0
M  V30 109 H 8.0585 -5.40083 1.92311 0
M  V30 110 H 6.4555 -5.3528 2.71284 0
M  V30 111 H 7.5255 -3.94346 2.82169 0
M  V30 112 N 8.8686 -0.792821 -1.36206 0
M  V30 113 C 9.7986 -0.207853 -2.32573 0
M  V30 114 C 10.7796 0.659055 -1.56813 0
M  V30 115 O 11.9646 0.592176 -1.84951 0
M  V30 116 C 9.0946 0.655449 -3.41059 0
M  V30 117 C 8.0486 -0.111842 -4.27854 0
M  V30 118 C 7.3746 0.872274 -5.27537 0
M  V30 119 C 8.6746 -1.30299 -5.05786 0
M  V30 120 H 10.3686 -1.01294 -2.81744 0
M  V30 121 H 7.9146 -0.48854 -1.3546 0
M  V30 122 H 9.8676 1.07464 -4.07467 0
M  V30 123 H 8.5916 1.49328 -2.90463 0
M  V30 124 H 7.2506 -0.512053 -3.63006 0
M  V30 125 H 6.8986 1.70523 -4.73214 0
M  V30 126 H 6.5986 0.363291 -5.86476 0
M  V30 127 H 8.1226 1.28996 -5.96818 0
M  V30 128 H 9.5366 -0.959379 -5.65216 0
M  V30 129 H 7.9336 -1.7455 -5.74154 0
M  V30 130 H 9.0036 -2.09663 -4.37229 0
M  V30 131 N 10.3467 1.47872 -0.545128 0
M  V30 132 C 11.3097 2.28337 0.198717 0
M  V30 133 C 12.3097 1.36255 0.853888 0
M  V30 134 O 13.4997 1.59003 0.711606 0
M  V30 135 C 10.6317 3.15585 1.28915 0
M  V30 136 H 11.8247 2.95567 -0.507941 0
M  V30 137 H 9.3777 1.53362 -0.301616 0
M  V30 138 H 10.1127 2.53019 2.02859 0
M  V30 139 H 9.8977 3.83337 0.824309 0
M  V30 140 H 11.3877 3.76243 1.81194 0
M  V30 141 N 11.8248 0.280983 1.55075 0
M  V30 142 C 12.7548 -0.597469 2.25727 0
M  V30 143 C 13.7358 -1.15417 1.24952 0
M  V30 144 O 14.9208 -1.18722 1.53684 0
M  V30 145 C 12.0508 -1.7789 2.98283 0
M  V30 146 C 11.0048 -1.35347 4.06036 0
M  V30 147 C 10.3308 -2.61846 4.66198 0
M  V30 148 C 11.6308 -0.499354 5.19907 0
M  V30 149 H 13.3248 -0.00824265 2.99399 0
M  V30 150 H 10.8708 -0.0025244 1.44 0
M  V30 151 H 12.8238 -2.39937 3.46422 0
M  V30 152 H 11.5478 -2.39405 2.22155 0
M  V30 153 H 10.2068 -0.756156 3.58717 0
M  V30 154 H 9.8548 -3.21632 3.86732 0
M  V30 155 H 9.5548 -2.3409 5.38958 0
M  V30 156 H 11.0788 -3.24732 5.1709 0
M  V30 157 H 12.4928 -1.02498 5.64063 0
M  V30 158 H 10.8898 -0.316424 5.99265 0
M  V30 159 H 11.9598 0.480459 4.82514 0
M  V30 160 N 13.3029 -1.57598 0.00835791 0
M  V30 161 C 14.2329 -2.1198 -0.979113 0
M  V30 162 C 15.2139 -1.03091 -1.35301 0
M  V30 163 O 16.3989 -1.30818 -1.43528 0
M  V30 164 C 13.5289 -2.62995 -2.26828 0
M  V30 165 C 12.4829 -3.76485 -2.03576 0
M  V30 166 C 11.8089 -4.13846 -3.38579 0
M  V30 167 C 13.1089 -5.0342 -1.39161 0
M  V30 168 H 14.8029 -2.94738 -0.526281 0
M  V30 169 H 12.3489 -1.41783 -0.251704 0
M  V30 170 H 14.3019 -2.99669 -2.96271 0
M  V30 171 H 13.0259 -1.7737 -2.7424 0
M  V30 172 H 11.6849 -3.40217 -1.36557 0
M  V30 173 H 11.3329 -3.25232 -3.83709 0
M  V30 174 H 11.0329 -4.90312 -3.23834 0
M  V30 175 H 12.5569 -4.53086 -4.09323 0
M  V30 176 H 13.9709 -5.37812 -1.98573 0
M  V30 177 H 12.3679 -5.84746 -1.34878 0
M  V30 178 H 13.4379 -4.83548 -0.361868 0
M  V30 179 N 14.781 0.264519 -1.55364 0
M  V30 180 C 16.028 0.994986 -1.7637 0
M  V30 181 C 16.356 1.85976 -0.5695 0
M  V30 182 O 15.611 1.90509 0.44776 0
M  V30 183 C 15.91 1.9004 -3.02687 0
M  V30 184 C 15.576 1.19243 -4.34847 0
M  V30 185 C 14.238 0.996709 -4.70764 0
M  V30 186 C 16.59 0.689296 -5.16622 0
M  V30 187 C 13.918 0.285261 -5.86006 0
M  V30 188 C 16.27 -0.00860079 -6.32599 0
M  V30 189 C 14.934 -0.215963 -6.67151 0
M  V30 190 H 14.204 0.364091 -0.645383 0
M  V30 191 H 16.851 0.266543 -1.89636 0
M  V30 192 H 15.156 2.69533 -2.84357 0
M  V30 193 H 16.853 2.46695 -3.16137 0
M  V30 194 H 13.443 1.3549 -4.06621 0
M  V30 195 H 17.627 0.828108 -4.89342 0
M  V30 196 H 12.883 0.113961 -6.11294 0
M  V30 197 H 17.057 -0.406186 -6.95214 0
M  V30 198 H 14.684 -0.769217 -7.56298 0
M  V30 199 N 16.2591 1.48442 0.529413 0
M  V30 200 C 17.5071 1.56179 1.28267 0
M  V30 201 C 17.8281 0.237721 1.93546 0
M  V30 202 O 17.0981 -0.740779 1.81354 0
M  V30 203 H 15.6781 0.575367 0.476405 0
M  V30 204 H 18.3401 1.84909 0.61602 0
M  V30 205 H 17.4361 2.34312 2.06165 0
M  V30 206 N 17.7372 -0.778329 1.37039 0
M  V30 207 C 18.7002 -1.87301 1.32102 0
M  V30 208 C 19.7002 -1.59198 0.226405 0
M  V30 209 O 20.8902 -1.67403 0.481861 0
M  V30 210 C 18.0222 -3.24309 1.05055 0
M  V30 211 H 19.2152 -1.93093 2.29467 0
M  V30 212 H 16.7682 -0.977358 1.21973 0
M  V30 213 H 17.5032 -3.24196 0.0819373 0
M  V30 214 H 17.2882 -3.46098 1.84279 0
M  V30 215 H 18.7782 -4.04382 1.04234 0
M  V30 216 N 19.2153 -1.21501 -1.00376 0
M  V30 217 C 20.4613 -1.03452 -1.74429 0
M  V30 218 C 20.7943 0.430764 -1.89362 0
M  V30 219 O 20.0693 1.31962 -1.42886 0
M  V30 220 C 20.3523 -1.73375 -3.15615 0
M  V30 221 C 20.2053 -3.27431 -3.08397 0
M  V30 222 C 21.5243 -1.47732 -4.14564 0
M  V30 223 H 18.6433 -0.377226 -0.633143 0
M  V30 224 H 21.2853 -1.49693 -1.17013 0
M  V30 225 H 19.4353 -1.34064 -3.64636 0
M  V30 226 H 21.1073 -3.76119 -2.67081 0
M  V30 227 H 19.3503 -3.5767 -2.45468 0
M  V30 228 H 20.0213 -3.71524 -4.08258 0
M  V30 229 H 22.4973 -1.8186 -3.74254 0
M  V30 230 H 21.3733 -1.99169 -5.11491 0
M  V30 231 H 21.6343 -0.407589 -4.40217 0
M  V30 232 N 20.6934 1.19889 -1.02296 0
M  V30 233 C 21.9184 1.9393 -0.735237 0
M  V30 234 C 22.3434 1.74639 0.698782 0
M  V30 235 O 21.7014 1.04481 1.48167 0
M  V30 236 C 21.7494 3.43916 -1.08417 0
M  V30 237 O 20.8534 4.11917 -0.199446 0
M  V30 238 H 20.1944 0.605645 -0.272196 0
M  V30 239 H 22.7244 1.52137 -1.36804 0
M  V30 240 H 22.7344 3.9456 -1.03856 0
M  V30 241 H 21.4094 3.5728 -2.12894 0
M  V30 242 H 19.9864 3.71666 -0.303136 0
M  V30 243 N 22.1715 0.800033 1.35784 0
M  V30 244 C 23.1345 0.211565 2.28221 0
M  V30 245 C 24.1345 -0.59728 1.49296 0
M  V30 246 O 25.3245 -0.416721 1.69142 0
M  V30 247 C 22.4565 -0.705846 3.33513 0
M  V30 248 H 23.6495 1.02677 2.81776 0
M  V30 249 H 21.2025 0.570211 1.45528 0
M  V30 250 H 21.9375 -1.54498 2.85133 0
M  V30 251 H 21.7225 -0.127655 3.91892 0
M  V30 252 H 23.2125 -1.11211 4.02519 0
M  V30 253 N 23.6496 -1.47581 0.552962 0
M  V30 254 C 24.5796 -2.32762 -0.185451 0
M  V30 255 C 25.5606 -1.43527 -0.912905 0
M  V30 256 O 26.7456 -1.72388 -0.894201 0
M  V30 257 C 23.8756 -3.25219 -1.21859 0
M  V30 258 C 22.8296 -4.23661 -0.607864 0
M  V30 259 C 22.1556 -5.05413 -1.74533 0
M  V30 260 C 23.4556 -5.20481 0.435582 0
M  V30 261 H 25.1496 -2.94749 0.525684 0
M  V30 262 H 22.6956 -1.41738 0.254251 0
M  V30 263 H 24.6486 -3.8365 -1.7433 0
M  V30 264 H 23.3726 -2.61279 -1.95961 0
M  V30 265 H 22.0316 -3.66451 -0.104489 0
M  V30 266 H 21.6796 -4.3788 -2.47529 0
M  V30 267 H 21.3796 -5.72059 -1.34249 0
M  V30 268 H 22.9036 -5.66701 -2.27338 0
M  V30 269 H 24.3176 -5.733 -0.00290157 0
M  V30 270 H 22.7146 -5.95305 0.757067 0
M  V30 271 H 23.7846 -4.66217 1.33303 0
M  V30 272 N 25.1277 -0.289203 -1.54924 0
M  V30 273 C 26.0777 0.606939 -2.19773 0
M  V30 274 C 27.0617 1.10783 -1.16687 0
M  V30 275 O 28.2537 1.05057 -1.4245 0
M  V30 276 C 25.3827 1.78398 -2.93307 0
M  V30 277 C 24.4687 1.29961 -4.03697 0
M  V30 278 N 24.8597 0.532377 -5.0299 0
M  V30 279 C 23.1577 1.58136 -4.17024 0
M  V30 280 C 23.8587 0.275912 -5.81045 0
M  V30 281 N 22.8347 0.852365 -5.36876 0
M  V30 282 H 26.6367 0.0130779 -2.93897 0
M  V30 283 H 24.1507 -0.09341 -1.62131 0
M  V30 284 H 26.1477 2.43741 -3.38225 0
M  V30 285 H 24.8077 2.38166 -2.20697 0
M  V30 286 H 25.8187 0.17838 -5.17593 0
M  V30 287 H 22.4957 2.18738 -3.55612 0
M  V30 288 H 23.8857 -0.339502 -6.71042 0
M  V30 289 N 26.6058 1.57591 -0.0167156 0
M  V30 290 C 27.5358 2.12496 0.967858 0
M  V30 291 C 28.5168 1.03807 1.34752 0
M  V30 292 O 29.7018 1.31577 1.42833 0
M  V30 293 C 26.8318 2.64194 2.25431 0
M  V30 294 C 25.7858 3.77559 2.01576 0
M  V30 295 C 25.1118 4.15636 3.36379 0
M  V30 296 C 26.4118 5.04151 1.36489 0
M  V30 297 H 28.1058 2.95013 0.510643 0
M  V30 298 H 25.6518 1.41915 0.244181 0
M  V30 299 H 27.6048 3.01236 2.94678 0
M  V30 300 H 26.3288 1.78821 2.73296 0
M  V30 301 H 24.9878 3.40937 1.34751 0
M  V30 302 H 24.6358 3.27263 3.81979 0
M  V30 303 H 24.3358 4.92022 3.21229 0
M  V30 304 H 25.8598 4.5525 4.06915 0
M  V30 305 H 27.2738 5.38857 1.95718 0
M  V30 306 H 25.6708 5.85453 1.31776 0
M  V30 307 H 26.7408 4.83733 0.336219 0
M  V30 308 N 28.0839 -0.256276 1.55502 0
M  V30 309 C 29.4999 -0.604325 1.47716 0
M  V30 310 C 29.6999 -1.88763 0.705039 0
M  V30 311 O 28.7559 -2.51445 0.230613 0
M  V30 312 C 30.0689 -0.715756 2.92057 0
M  V30 313 C 31.6169 -0.808706 3.02372 0
M  V30 314 C 32.0919 -0.951777 4.48001 0
M  V30 315 N 33.5829 -1.01688 4.519 0
M  V30 316 C 34.3179 -1.14668 5.61817 0
M  V30 317 N 33.8139 -1.24261 6.81565 0
M  V30 318 N 35.6069 -1.1791 5.49594 0
M  V30 319 H 27.7579 0.586291 2.04148 0
M  V30 320 H 30.0209 0.201015 0.926443 0
M  V30 321 H 29.7269 0.157027 3.51349 0
M  V30 322 H 29.6009 -1.59071 3.42018 0
M  V30 323 H 31.9879 -1.67195 2.43166 0
M  V30 324 H 32.0689 0.0912063 2.55637 0
M  V30 325 H 31.7129 -0.0931291 5.07815 0
M  V30 326 H 31.6429 -1.86659 4.92408 0
M  V30 327 H 34.1339 -0.954468 3.65648 0
M  V30 328 H 34.4469 -1.34046 7.61086 0
M  V30 329 H 32.7919 -1.21236 6.84344 0
M  V30 330 H 35.9829 -1.10057 4.54978 0
M  V30 331 H 36.1559 -1.27681 6.35296 0
M  V30 332 N 29.562 -1.4872 -0.521534 0
M  V30 333 C 30.787 -1.61101 -1.30618 0
M  V30 334 C 31.212 -0.274611 -1.86085 0
M  V30 335 O 30.57 0.754937 -1.64834 0
M  V30 336 C 30.618 -2.66709 -2.4269 0
M  V30 337 O 29.722 -2.24456 -3.45967 0
M  V30 338 H 29.063 -0.539921 -0.386499 0
M  V30 339 H 31.593 -1.94767 -0.626645 0
M  V30 340 H 31.603 -2.88245 -2.88754 0
M  V30 341 H 30.278 -3.63727 -2.01682 0
M  V30 342 H 28.855 -2.13168 -3.05964 0
M  V30 343 N 31.0401 0.771051 -1.3745 0
M  V30 344 C 31.9501 1.91538 -1.35464 0
M  V30 345 C 32.9661 1.72134 -0.254123 0
M  V30 346 O 34.1421 1.95358 -0.489626 0
M  V30 347 C 31.2071 3.26671 -1.16134 0
M  V30 348 C 30.2681 3.58723 -2.35831 0
M  V30 349 C 29.5011 4.87409 -2.17413 0
M  V30 350 O 29.7241 5.58506 -1.15876 0
M  V30 351 O 28.6581 5.18539 -3.05615 0
M  V30 352 H 32.4841 1.96165 -2.31847 0
M  V30 353 H 30.0691 0.9139 -1.18187 0
M  V30 354 H 31.9511 4.07499 -1.07345 0
M  V30 355 H 30.6261 3.22894 -0.228251 0
M  V30 356 H 29.5331 2.78127 -2.50192 0
M  V30 357 H 30.8661 3.67243 -3.27709 0
M  V30 358 N 32.5182 1.22032 0.997298 0
M  V30 359 C 33.7462 1.06841 1.7718 0
M  V30 360 C 34.1612 -0.381325 1.84909 0
M  V30 361 O 33.5182 -1.26437 1.31605 0
M  V30 362 C 33.5692 1.66814 3.20711 0
M  V30 363 O 33.2902 3.06116 3.13408 0
M  V30 364 C 34.7912 1.56838 4.14628 0
M  V30 365 H 32.0112 0.374782 0.556578 0
M  V30 366 H 34.5552 1.61532 1.2541 0
M  V30 367 H 32.7102 1.16196 3.69564 0
M  V30 368 H 33.1242 3.34926 4.0364 0
M  V30 369 H 34.5982 2.03532 5.13107 0
M  V30 370 H 35.0752 0.524155 4.36061 0
M  V30 371 H 35.6812 2.06741 3.7167 0
M  V30 372 N 33.9963 -1.19345 1.0293 0
M  V30 373 C 35.2213 -1.93538 0.745511 0
M  V30 374 C 35.6463 -1.75007 -0.689511 0
M  V30 375 O 35.0043 -1.05265 -1.47611 0
M  V30 376 C 35.0523 -3.43336 1.10239 0
M  V30 377 O 34.1563 -4.11806 0.221289 0
M  V30 378 H 33.4973 -0.604193 0.275404 0
M  V30 379 H 36.0273 -1.5141 1.37609 0
M  V30 380 H 36.0373 -3.94004 1.05947 0
M  V30 381 H 34.7123 -3.56146 2.14786 0
M  V30 382 H 33.2893 -3.715 0.322842 0
M  V30 383 N 35.4744 -0.807222 -1.35358 0
M  V30 384 C 36.7024 -0.400377 -2.02989 0
M  V30 385 C 37.1174 0.988859 -1.60832 0
M  V30 386 O 36.4744 1.63729 -0.806175 0
M  V30 387 C 36.5254 -0.474867 -3.58368 0
M  V30 388 O 36.2464 -1.80933 -3.98992 0
M  V30 389 C 37.7474 -0.0609112 -4.43258 0
M  V30 390 H 34.9674 -0.162587 -0.651004 0
M  V30 391 H 37.5114 -1.09102 -1.72965 0
M  V30 392 H 35.6664 0.167534 -3.87038 0
M  V30 393 H 36.0804 -1.77256 -4.9364 0
M  V30 394 H 37.5544 -0.164145 -5.51756 0
M  V30 395 H 38.0314 0.993831 -4.27808 0
M  V30 396 H 38.6374 -0.676492 -4.19885 0
M  V30 397 N 36.9525 1.47285 -0.560781 0
M  V30 398 C 38.1995 2.02464 -0.038062 0
M  V30 399 C 38.5275 1.43474 1.31322 0
M  V30 400 O 37.7825 0.581311 1.86867 0
M  V30 401 C 38.0815 3.57258 0.100784 0
M  V30 402 C 37.7475 4.35184 -1.18007 0
M  V30 403 C 36.4095 4.56194 -1.53103 0
M  V30 404 C 38.7615 4.80098 -2.02867 0
M  V30 405 C 36.0895 5.19367 -2.729 0
M  V30 406 C 38.4415 5.44593 -3.21871 0
M  V30 407 C 37.1055 5.63835 -3.57276 0
M  V30 408 H 36.3755 0.740869 -0.0139279 0
M  V30 409 H 39.0225 1.76916 -0.733012 0
M  V30 410 H 37.3275 3.81819 0.878724 0
M  V30 411 H 39.0245 3.97606 0.520639 0
M  V30 412 H 35.6145 4.19113 -0.8968 0
M  V30 413 H 39.7985 4.63642 -1.7706 0
M  V30 414 H 35.0545 5.32459 -3.00496 0
M  V30 415 H 39.2285 5.78358 -3.87911 0
M  V30 416 H 36.8555 6.12557 -4.50197 0
M  V30 417 N 38.4306 0.297415 1.54768 0
M  V30 418 C 39.3406 -0.58983 2.27064 0
M  V30 419 C 40.3566 -1.15144 1.30453 0
M  V30 420 O 41.5326 -1.17699 1.63428 0
M  V30 421 C 38.5976 -1.74714 2.9946 0
M  V30 422 C 37.6586 -1.21997 4.11601 0
M  V30 423 C 36.8916 -2.32212 4.80535 0
M  V30 424 O 37.1146 -3.52036 4.48806 0
M  V30 425 O 36.0486 -1.99106 5.68014 0
M  V30 426 H 39.8746 -0.00348199 3.037 0
M  V30 427 H 37.4596 0.0640035 1.49263 0
M  V30 428 H 39.3416 -2.42147 3.44881 0
M  V30 429 H 38.0166 -2.32016 2.25722 0
M  V30 430 H 36.9236 -0.511458 3.70587 0
M  V30 431 H 38.2566 -0.692419 4.87305 0
M  V30 432 N 39.9087 -1.5758 0.0250728 0
M  V30 433 C 41.1367 -1.9593 -0.664747 0
M  V30 434 C 41.5517 -0.901352 -1.65895 0
M  V30 435 O 40.9087 0.117255 -1.82123 0
M  V30 436 C 40.9597 -3.34342 -1.37468 0
M  V30 437 O 40.6807 -4.36079 -0.420324 0
M  V30 438 C 42.1817 -3.873 -2.1567 0
M  V30 439 H 39.4017 -0.645405 -0.183557 0
M  V30 440 H 41.9457 -2.04329 0.0836372 0
M  V30 441 H 40.1007 -3.27175 -2.0745 0
M  V30 442 H 40.5147 -5.16297 -0.923991 0
M  V30 443 H 41.9887 -4.86504 -2.60803 0
M  V30 444 H 42.4657 -3.21331 -2.99405 0
M  V30 445 H 43.0717 -3.97723 -1.50654 0
M  V30 446 N 41.3868 0.248026 -1.55636 0
M  V30 447 C 42.7978 0.817177 -1.67866 0
M  V30 448 C 43.1488 1.86069 -0.622322 0
M  V30 449 O 42.2738 2.15157 0.231618 0
M  V30 450 C 42.8688 1.489 -3.04326 0
M  V30 451 C 41.4278 2.00587 -3.185 0
M  V30 452 C 40.5748 0.856573 -2.63739 0
M  V30 453 H 43.5258 0.0238579 -1.58682 0
M  V30 454 H 43.5468 2.35698 -2.98708 0
M  V30 455 H 43.0588 0.729279 -3.81186 0
M  V30 456 H 41.1598 2.79443 -2.4646 0
M  V30 457 H 41.2728 2.20402 -4.25393 0
M  V30 458 H 39.6368 1.25678 -2.21534 0
M  V30 459 H 40.4198 0.109953 -3.43124 0
M  V30 460 N 42.8649 1.48995 0.513639 0
M  V30 461 C 43.7949 1.67636 1.62544 0
M  V30 462 C 44.7759 0.525087 1.61793 0
M  V30 463 O 45.9609 0.759502 1.78732 0
M  V30 464 C 43.0909 1.73114 3.01079 0
M  V30 465 C 42.0449 2.87905 3.16693 0
M  V30 466 C 41.3709 2.78486 4.56453 0
M  V30 467 C 42.6709 4.29005 2.97913 0
M  V30 468 H 44.3649 2.60716 1.47198 0
M  V30 469 H 41.9109 1.25465 0.706714 0
M  V30 470 H 43.8639 1.84742 3.78746 0
M  V30 471 H 42.5879 0.766241 3.17484 0
M  V30 472 H 41.2469 2.75859 2.41448 0
M  V30 473 H 40.8949 1.7993 4.69717 0
M  V30 474 H 40.5949 3.55523 4.67843 0
M  V30 475 H 42.1189 2.92104 5.36197 0
M  V30 476 H 43.5329 4.41798 3.65359 0
M  V30 477 H 41.9299 5.07166 3.20785 0
M  V30 478 H 42.9999 4.44329 1.94165 0
M  V30 479 N 44.343 -0.763751 1.37857 0
M  V30 480 C 45.591 -1.51957 1.33243 0
M  V30 481 C 45.912 -1.94835 -0.0801709 0
M  V30 482 O 45.182 -1.66894 -1.02582 0
M  V30 483 H 43.762 -0.563626 0.49024 0
M  V30 484 H 46.424 -0.908504 1.7243 0
M  V30 485 H 45.52 -2.41523 1.97669 0
M  V30 486 N 45.8211 -1.22559 -0.990812 0
M  V30 487 C 46.7841 -0.998863 -2.0629 0
M  V30 488 C 47.7841 0.0354834 -1.60761 0
M  V30 489 O 48.9741 -0.203231 -1.7301 0
M  V30 490 C 46.1061 -0.509203 -3.37076 0
M  V30 491 H 47.2991 -1.95014 -2.27837 0
M  V30 492 H 44.8521 -1.04456 -1.16269 0
M  V30 493 H 45.5871 0.446335 -3.21214 0
M  V30 494 H 45.3721 -1.25547 -3.71457 0
M  V30 495 H 46.8621 -0.370888 -4.1595 0
M  V30 496 N 47.2992 1.18797 -1.03562 0
M  V30 497 C 48.2462 2.22253 -0.622259 0
M  V30 498 C 49.2162 1.61987 0.36736 0
M  V30 499 O 50.4012 1.88986 0.262492 0
M  V30 500 C 47.5412 3.45097 0.0138462 0
M  V30 501 C 46.6542 4.19722 -1.02263 0
M  V30 502 C 45.7892 5.30009 -0.355573 0
M  V30 503 C 44.8282 5.96399 -1.37749 0
M  V30 504 N 43.9652 6.98234 -0.735766 0
M  V30 505 H 48.8052 2.56968 -1.50903 0
M  V30 506 H 46.3422 1.26245 -0.755017 0
M  V30 507 H 48.3002 4.15279 0.399948 0
M  V30 508 H 46.9302 3.11018 0.864158 0
M  V30 509 H 45.9822 3.48418 -1.52673 0
M  V30 510 H 47.2942 4.65227 -1.79903 0
M  V30 511 H 46.4482 6.0664 0.0850095 0
M  V30 512 H 45.1872 4.85592 0.452967 0
M  V30 513 H 44.1922 5.18512 -1.82826 0
M  V30 514 H 45.4172 6.42899 -2.18764 0
M  V30 515 H 43.3632 6.55979 0.0525597 0
M  V30 516 H 43.2802 7.41965 -1.44995 0
M  V30 517 H 44.5482 7.78845 -0.31941 0
M  V30 518 N 48.7773 0.814389 1.34928 0
M  V30 519 C 50.0053 0.411136 2.02774 0
M  V30 520 C 50.4203 -0.980316 1.61354 0
M  V30 521 O 49.7773 -1.63299 0.814847 0
M  V30 522 C 49.8283 0.493865 3.58111 0
M  V30 523 O 49.5493 1.83047 3.98027 0
M  V30 524 C 51.0503 0.0844174 4.4322 0
M  V30 525 H 48.2703 0.166037 0.650133 0
M  V30 526 H 50.8143 1.10018 1.72384 0
M  V30 527 H 48.9693 -0.147006 3.87121 0
M  V30 528 H 49.3833 1.79872 4.92693 0
M  V30 529 H 50.8573 0.193404 5.51661 0
M  V30 530 H 51.3343 -0.97113 4.28329 0
M  V30 531 H 51.9403 0.69875 4.19521 0
M  V30 532 N 50.2554 -1.46986 0.568584 0
M  V30 533 C 51.1854 -2.32946 -0.160753 0
M  V30 534 C 52.1664 -1.44487 -0.897631 0
M  V30 535 O 53.3514 -1.73327 -0.875867 0
M  V30 536 C 50.4814 -3.26494 -1.18403 0
M  V30 537 C 49.4354 -4.24282 -0.562895 0
M  V30 538 C 48.7614 -5.07236 -1.69163 0
M  V30 539 C 50.0614 -5.19989 0.490761 0
M  V30 540 H 51.7554 -2.94175 0.556916 0
M  V30 541 H 49.3014 -1.4146 0.26927 0
M  V30 542 H 51.2544 -3.85477 -1.70251 0
M  V30 543 H 49.9784 -2.63343 -1.93179 0
M  V30 544 H 48.6374 -3.66541 -0.0656164 0
M  V30 545 H 48.2854 -4.4048 -2.42871 0
M  V30 546 H 47.9854 -5.7345 -1.28174 0
M  V30 547 H 49.5094 -5.6908 -2.21314 0
M  V30 548 H 50.9234 -5.73271 0.0579047 0
M  V30 549 H 49.3204 -5.94469 0.820165 0
M  V30 550 H 50.3904 -4.64777 1.3824 0
M  V30 551 N 51.7335 -0.305618 -1.54608 0
M  V30 552 C 53.1445 0.186098 -1.8577 0
M  V30 553 C 53.4955 1.53058 -1.22751 0
M  V30 554 O 52.6205 2.09888 -0.526893 0
M  V30 555 C 53.2155 0.344449 -3.37044 0
M  V30 556 C 51.7745 0.780384 -3.68221 0
M  V30 557 C 50.9215 -0.108554 -2.77087 0
M  V30 558 H 53.8725 -0.526485 -1.49712 0
M  V30 559 H 53.8935 1.17828 -3.61796 0
M  V30 560 H 53.4055 -0.634235 -3.82883 0
M  V30 561 H 51.5065 1.76945 -3.27904 0
M  V30 562 H 51.6195 0.596572 -4.75371 0
M  V30 563 H 49.9835 0.412931 -2.5133 0
M  V30 564 H 50.7665 -1.08368 -3.25747 0
M  V30 565 N 53.2116 1.57565 -0.0334293 0
M  V30 566 C 54.1216 2.13943 0.962572 0
M  V30 567 C 55.1376 1.09276 1.35406 0
M  V30 568 O 56.3136 1.41355 1.4346 0
M  V30 569 C 53.3786 2.65887 2.22497 0
M  V30 570 C 52.4396 3.85286 1.8935 0
M  V30 571 C 51.6726 4.34743 3.09571 0
M  V30 572 O 51.8956 3.83352 4.22371 0
M  V30 573 O 50.8296 5.26538 2.91618 0
M  V30 574 H 54.6556 2.99333 0.513169 0
M  V30 575 H 52.2406 1.4822 0.18743 0
M  V30 576 H 54.1226 2.99346 2.96598 0
M  V30 577 H 52.7976 1.83578 2.6661 0
M  V30 578 H 51.7046 3.56746 1.1262 0
M  V30 579 H 53.0376 4.68771 1.5005 0
M  V30 580 N 54.6897 -0.239769 1.55765 0
M  V30 581 C 55.9667 -0.990056 1.68693 0
M  V30 582 C 56.3467 -2.03107 0.5754 0
M  V30 583 O 55.6947 -2.24604 -0.42017 0
M  V30 584 C 55.9047 -1.61696 3.09282 0
M  V30 585 C 57.2527 -2.11613 3.6811 0
M  V30 586 O 58.2767 -1.71624 3.12127 0
M  V30 587 O 57.1357 -2.85057 4.66267 0
M  V30 588 H 54.2297 -0.461299 0.686391 0
M  V30 589 H 56.7757 -0.232991 1.68093 0
M  V30 590 H 55.5477 -0.864357 3.81634 0
M  V30 591 H 55.1707 -2.44005 3.13923 0
M  V30 592 N 56.1678 -1.49265 -0.50573 0
M  V30 593 C 57.0778 -1.68312 -1.63427 0
M  V30 594 C 58.0938 -0.565682 -1.64548 0
M  V30 595 O 59.2698 -0.839801 -1.83055 0
M  V30 596 C 56.3348 -1.74107 -2.99813 0
M  V30 597 C 55.3958 -2.97653 -3.09356 0
M  V30 598 C 54.6288 -3.03163 -4.39236 0
M  V30 599 O 54.8518 -2.16396 -5.27758 0
M  V30 600 O 53.7858 -3.9558 -4.53652 0
M  V30 601 H 57.6118 -2.63907 -1.50289 0
M  V30 602 H 55.1968 -1.32951 -0.681502 0
M  V30 603 H 57.0788 -1.803 -3.80881 0
M  V30 604 H 55.7538 -0.816901 -3.13223 0
M  V30 605 H 54.6608 -2.96981 -2.27493 0
M  V30 606 H 55.9938 -3.89535 -3.00871 0
M  V30 607 N 57.6459 0.756429 -1.3826 0
M  V30 608 C 58.5559 1.9009 -1.37488 0
M  V30 609 C 59.5719 1.71855 -0.272366 0
M  V30 610 O 60.7479 1.94827 -0.510318 0
M  V30 611 C 57.8129 3.25421 -1.19592 0
M  V30 612 C 56.8739 3.56202 -2.39622 0
M  V30 613 C 56.1069 4.85075 -2.2257 0
M  V30 614 O 56.3299 5.57246 -1.21793 0
M  V30 615 O 55.2639 5.15269 -3.11098 0
M  V30 616 H 59.0899 1.93695 -2.33914 0
M  V30 617 H 56.6749 0.901313 -1.1915 0
M  V30 618 H 58.5569 4.06337 -1.11661 0
M  V30 619 H 57.2319 3.22634 -0.262486 0
M  V30 620 H 56.1389 2.75458 -2.53128 0
M  V30 621 H 57.4719 3.63747 -3.31586 0
M  V30 622 N 59.124 1.23083 0.984299 0
M  V30 623 C 60.352 1.08714 1.76037 0
M  V30 624 C 60.767 -0.361691 1.85303 0
M  V30 625 O 60.124 -1.25034 1.32939 0
M  V30 626 C 60.175 1.70206 3.18923 0
M  V30 627 O 59.896 3.09423 3.10144 0
M  V30 628 C 61.397 1.61227 4.12941 0
M  V30 629 H 58.617 0.380664 0.552572 0
M  V30 630 H 61.161 1.62853 1.23689 0
M  V30 631 H 59.316 1.20109 3.6831 0
M  V30 632 H 59.73 3.39188 4.00065 0
M  V30 633 H 61.204 2.08962 5.10919 0
M  V30 634 H 61.681 0.570375 4.35481 0
M  V30 635 H 62.287 2.10671 3.69456 0
M  V30 636 N 60.6021 -1.18246 1.0419 0
M  V30 637 C 62.0131 -1.69914 0.773698 0
M  V30 638 C 62.3641 -1.83085 -0.705297 0
M  V30 639 O 61.4891 -1.51123 -1.5489 0
M  V30 640 C 62.0841 -3.08619 1.39784 0
M  V30 641 C 60.6431 -3.57494 1.17792 0
M  V30 642 C 59.7901 -2.34013 1.48773 0
M  V30 643 H 62.7411 -1.02904 1.20816 0
M  V30 644 H 62.7621 -3.71958 0.801714 0
M  V30 645 H 62.2741 -2.99001 2.47426 0
M  V30 646 H 60.3751 -3.72406 0.120295 0
M  V30 647 H 60.4881 -4.40852 1.87581 0
M  V30 648 H 58.8521 -2.37986 0.907463 0
M  V30 649 H 59.6351 -2.27013 2.57527 0
M  V30 650 N 62.0802 -0.821533 -1.34494 0
M  V30 651 C 62.9902 -0.244355 -2.33324 0
M  V30 652 C 64.0062 0.620527 -1.62559 0
M  V30 653 O 65.1822 0.528754 -1.94335 0
M  V30 654 C 62.2472 0.585368 -3.41723 0
M  V30 655 C 61.3082 -0.301752 -4.28238 0
M  V30 656 C 60.5412 0.488466 -5.3146 0
M  V30 657 O 60.7642 1.72186 -5.4379 0
M  V30 658 O 59.6982 -0.12848 -6.01763 0
M  V30 659 H 63.5242 -1.06231 -2.84515 0
M  V30 660 H 61.1092 -0.583645 -1.37528 0
M  V30 661 H 62.9912 1.05747 -4.07916 0
M  V30 662 H 61.6662 1.38068 -2.92778 0
M  V30 663 H 60.5732 -0.821315 -3.64973 0
M  V30 664 H 61.9062 -1.06138 -4.8062 0
M  V30 665 N 63.5583 1.46682 -0.576371 0
M  V30 666 C 64.4903 2.28341 0.198231 0
M  V30 667 C 65.5033 1.38141 0.861453 0
M  V30 668 O 66.6923 1.62797 0.732082 0
M  V30 669 C 63.7923 3.12986 1.29972 0
M  V30 670 C 62.9653 4.31271 0.729639 0
M  V30 671 C 62.0243 4.97363 1.71803 0
M  V30 672 O 61.0503 5.55156 1.25658 0
M  V30 673 N 62.2523 4.93796 3.05198 0
M  V30 674 H 65.0173 2.9546 -0.502324 0
M  V30 675 H 62.5783 1.56525 -0.413715 0
M  V30 676 H 64.5703 3.54066 1.96008 0
M  V30 677 H 63.1403 2.47984 1.90323 0
M  V30 678 H 62.3603 3.94052 -0.108012 0
M  V30 679 H 63.6483 5.07739 0.328438 0
M  V30 680 H 63.0463 4.48077 3.45317 0
M  V30 681 H 61.6033 5.38837 3.6674 0
M  V30 682 N 65.0364 0.313813 1.54444 0
M  V30 683 C 65.9464 -0.565714 2.27677 0
M  V30 684 C 66.9624 -1.13754 1.31666 0
M  V30 685 O 68.1384 -1.15959 1.64668 0
M  V30 686 C 65.2034 -1.71528 3.01296 0
M  V30 687 C 64.2644 -1.17624 4.12872 0
M  V30 688 C 63.4974 -2.27102 4.8297 0
M  V30 689 O 63.7204 -3.47256 4.52514 0
M  V30 690 O 62.6544 -1.9307 5.70094 0
M  V30 691 H 66.4804 0.0287296 3.03686 0
M  V30 692 H 64.0654 0.0798312 1.49187 0
M  V30 693 H 65.9474 -2.38476 3.4743 0
M  V30 694 H 64.6224 -2.29608 2.2817 0
M  V30 695 H 63.5294 -0.472124 3.71109 0
M  V30 696 H 64.8624 -0.640695 4.88012 0
M  V30 697 N 66.5145 -1.57545 0.0417849 0
M  V30 698 C 67.4475 -2.06514 -0.970928 0
M  V30 699 C 68.4255 -0.963607 -1.30971 0
M  V30 700 O 69.6095 -1.23486 -1.4242 0
M  V30 701 C 66.7365 -2.4978 -2.28752 0
M  V30 702 C 65.7825 -3.71078 -2.10246 0
M  V30 703 S 66.6155 -5.17158 -1.38952 0
M  V30 704 C 67.7715 -5.6373 -2.71954 0
M  V30 705 H 68.0045 -2.9209 -0.554129 0
M  V30 706 H 65.5375 -1.53459 -0.17024 0
M  V30 707 H 67.4955 -2.75371 -3.04435 0
M  V30 708 H 66.1565 -1.64527 -2.67562 0
M  V30 709 H 65.3495 -3.9924 -3.07609 0
M  V30 710 H 64.9515 -3.45705 -1.42704 0
M  V30 711 H 67.2435 -5.68743 -3.68154 0
M  V30 712 H 68.1865 -6.63086 -2.4844 0
M  V30 713 H 68.5945 -4.91424 -2.77782 0
M  V30 714 N 67.9926 0.231505 -1.5589 0
M  V30 715 C 68.9026 1.308 -1.94752 0
M  V30 716 C 69.9186 1.51826 -0.849989 0
M  V30 717 O 71.0946 1.6515 -1.15271 0
M  V30 718 C 68.1596 2.63968 -2.24771 0
M  V30 719 C 67.2206 2.51331 -3.48039 0
M  V30 720 C 66.4536 3.78148 -3.76616 0
M  V30 721 O 66.6766 4.80722 -3.07022 0
M  V30 722 O 65.6106 3.75857 -4.70123 0
M  V30 723 H 69.4366 1.0083 -2.86474 0
M  V30 724 H 67.0216 0.433547 -1.42971 0
M  V30 725 H 68.9036 3.42633 -2.45318 0
M  V30 726 H 67.5786 2.9364 -1.36225 0
M  V30 727 H 66.4856 1.709 -3.32782 0
M  V30 728 H 67.8186 2.26601 -4.36936 0
M  V30 729 N 69.4707 1.49531 0.497807 0
M  V30 730 C 70.3807 1.69176 1.62532 0
M  V30 731 C 71.3967 0.5744 1.64246 0
M  V30 732 O 72.5727 0.849497 1.82608 0
M  V30 733 C 69.6377 1.75695 2.98885 0
M  V30 734 C 68.6987 2.9929 3.07773 0
M  V30 735 C 67.9317 3.05488 4.37622 0
M  V30 736 O 68.1547 2.19192 5.26603 0
M  V30 737 O 67.0887 3.9798 4.51548 0
M  V30 738 H 70.9147 2.647 1.48887 0
M  V30 739 H 68.4997 1.3331 0.674441 0
M  V30 740 H 70.3817 1.82317 3.79919 0
M  V30 741 H 69.0567 0.8335 3.12785 0
M  V30 742 H 67.9637 2.98183 2.25915 0
M  V30 743 H 69.2967 3.91125 2.98801 0
M  V30 744 N 70.9488 -0.749086 1.3866 0
M  V30 745 C 72.1768 -1.53834 1.38358 0
M  V30 746 C 72.5918 -1.88783 -0.0255219 0
M  V30 747 O 71.9488 -1.53101 -0.993292 0
M  V30 748 C 71.9998 -2.83468 2.2434 0
M  V30 749 O 71.7208 -2.50008 3.5976 0
M  V30 750 C 73.2218 -3.7758 2.32267 0
M  V30 751 H 70.4418 -0.47585 0.473083 0
M  V30 752 H 72.9858 -0.926726 1.82297 0
M  V30 753 H 71.1408 -3.40995 1.83851 0
M  V30 754 H 71.5548 -3.33182 4.05081 0
M  V30 755 H 73.0288 -4.65478 2.96706 0
M  V30 756 H 73.5058 -4.18334 1.33765 0
M  V30 757 H 74.1118 -3.25976 2.73166 0
M  V30 758 N 72.4269 -1.23603 -0.977757 0
M  V30 759 C 73.8379 -1.06424 -1.53398 0
M  V30 760 C 74.1889 0.367578 -1.92726 0
M  V30 761 O 73.3139 1.25465 -1.76316 0
M  V30 762 C 73.9089 -1.92568 -2.78753 0
M  V30 763 C 72.4679 -1.79642 -3.30765 0
M  V30 764 C 71.6149 -1.88111 -2.03739 0
M  V30 765 H 74.5659 -1.37227 -0.797152 0
M  V30 766 H 74.5869 -1.45203 -3.51705 0
M  V30 767 H 74.0989 -2.96771 -2.50098 0
M  V30 768 H 72.1999 -0.782325 -3.64294 0
M  V30 769 H 72.3129 -2.63174 -4.00345 0
M  V30 770 H 70.6769 -1.31723 -2.17994 0
M  V30 771 H 71.4599 -2.93875 -1.77461 0
M  V30 772 N 73.905 1.17692 -1.04816 0
M  V30 773 C 75.145 1.89545 -0.764979 0
M  V30 774 C 75.509 1.78979 0.695028 0
M  V30 775 O 76.71 2.45613 1.09215 0
M  V30 776 C 74.981 3.35659 -1.22751 0
M  V30 777 S 76.54 4.25526 -1.07112 0
M  V30 778 H 73.358 0.654432 -0.27792 0
M  V30 779 H 75.96 1.42163 -1.34201 0
M  V30 780 H 74.664 3.40882 -2.28533 0
M  V30 781 H 74.195 3.88083 -0.644594 0
M  V30 782 H 76.21 4.962 0.00697508 0
M  V30 783 N 75.3831 0.828654 1.34056 0
M  V30 784 C 76.7991 0.515135 1.51058 0
M  V30 785 C 76.9991 -0.959581 1.77184 0
M  V30 786 O 76.0551 -1.74382 1.82612 0
M  V30 787 C 77.3681 1.37963 2.67183 0
M  V30 788 C 78.9161 1.37735 2.81066 0
M  V30 789 C 79.3911 2.22645 4.00241 0
M  V30 790 N 80.8821 2.203 4.07458 0
M  V30 791 C 81.6171 2.82744 4.98842 0
M  V30 792 N 81.1131 3.54201 5.9541 0
M  V30 793 N 82.9061 2.72268 4.91759 0
M  V30 794 H 75.0571 1.78343 1.15358 0
M  V30 795 H 77.3201 0.760304 0.566252 0
M  V30 796 H 77.0261 2.42714 2.54525 0
M  V30 797 H 76.9001 1.0484 3.62338 0
M  V30 798 H 79.2871 0.337593 2.93163 0
M  V30 799 H 79.3681 1.74859 1.86703 0
M  V30 800 H 79.0121 3.26674 3.88905 0
M  V30 801 H 78.9421 1.82869 4.93829 0
M  V30 802 H 81.4331 1.68327 3.38341 0
M  V30 803 H 81.7461 3.9908 6.61782 0
M  V30 804 H 80.0911 3.58308 5.95517 0
M  V30 805 H 83.2821 2.16014 4.15278 0
M  V30 806 H 83.4551 3.21219 5.62781 0
M  V30 807 N 76.8612 -1.46375 0.584142 0
M  V30 808 C 77.7712 -2.34115 -0.150728 0
M  V30 809 C 78.7872 -1.49838 -0.884567 0
M  V30 810 O 79.9632 -1.82704 -0.847429 0
M  V30 811 C 77.0282 -3.2705 -1.15062 0
M  V30 812 C 76.0892 -4.27228 -0.421293 0
M  V30 813 C 75.3222 -5.15722 -1.37355 0
M  V30 814 O 75.5452 -5.07176 -2.61014 0
M  V30 815 O 74.4792 -5.95383 -0.883355 0
M  V30 816 H 78.3052 -2.98309 0.569708 0
M  V30 817 H 75.8902 -1.45373 0.344535 0
M  V30 818 H 77.7722 -3.84381 -1.72712 0
M  V30 819 H 76.4472 -2.65451 -1.8525 0
M  V30 820 H 75.3542 -3.7358 0.197085 0
M  V30 821 H 76.6872 -4.91616 0.239641 0
M  V30 822 N 78.3393 -0.321999 -1.54275 0
M  V30 823 C 79.2693 0.537411 -2.27231 0
M  V30 824 C 80.2503 1.12064 -1.27968 0
M  V30 825 O 81.4353 1.14606 -1.56777 0
M  V30 826 C 78.5653 1.69919 -3.02894 0
M  V30 827 C 77.5193 1.24534 -4.09482 0
M  V30 828 C 76.8453 2.49394 -4.72977 0
M  V30 829 C 78.1453 0.361335 -5.21049 0
M  V30 830 H 79.8393 -0.0711406 -2.99315 0
M  V30 831 H 77.3853 -0.0356555 -1.43956 0
M  V30 832 H 79.3383 2.30668 -3.52662 0
M  V30 833 H 78.0623 2.33431 -2.28424 0
M  V30 834 H 76.7213 0.660782 -3.60596 0
M  V30 835 H 76.3693 3.11265 -3.95124 0
M  V30 836 H 76.0693 2.19718 -5.44975 0
M  V30 837 H 77.5933 3.10908 -5.25517 0
M  V30 838 H 79.0073 0.875072 -5.66582 0
M  V30 839 H 77.4043 0.157428 -5.99893 0
M  V30 840 H 78.4743 -0.60822 -4.8107 0
M  V30 841 N 79.8174 1.5752 -0.0501392 0
M  V30 842 C 80.7274 2.14952 0.939827 0
M  V30 843 C 81.7434 1.10706 1.34239 0
M  V30 844 O 82.9194 1.42869 1.41952 0
M  V30 845 C 79.9844 2.68232 2.19665 0
M  V30 846 C 79.0454 3.87272 1.85253 0
M  V30 847 C 78.2784 4.38002 3.04943 0
M  V30 848 O 78.5014 3.87811 4.18281 0
M  V30 849 O 77.4354 5.29602 2.86017 0
M  V30 850 H 81.2614 2.9986 0.481392 0
M  V30 851 H 78.8464 1.4841 0.171699 0
M  V30 852 H 80.7284 3.02475 2.93406 0
M  V30 853 H 79.4034 1.86395 2.64648 0
M  V30 854 H 78.3104 3.5792 1.0883 0
M  V30 855 H 79.6434 4.70336 1.4507 0
M  V30 856 N 81.2955 -0.223234 1.56011 0
M  V30 857 C 82.2055 -1.29766 1.95443 0
M  V30 858 C 83.2215 -1.51373 0.858028 0
M  V30 859 O 84.3975 -1.64536 1.16146 0
M  V30 860 C 81.4625 -2.62772 2.26167 0
M  V30 861 C 80.5235 -2.49482 3.49367 0
M  V30 862 C 79.7565 -3.76145 3.78616 0
M  V30 863 O 79.9795 -4.79087 3.09568 0
M  V30 864 O 78.9135 -3.73358 4.72109 0
M  V30 865 H 82.7395 -0.99309 2.87004 0
M  V30 866 H 80.3245 -0.425958 1.43199 0
M  V30 867 H 82.2065 -3.41327 2.47131 0
M  V30 868 H 80.8815 -2.92913 1.37781 0
M  V30 869 H 79.7885 -1.69133 3.33684 0
M  V30 870 H 81.1215 -2.2428 4.38131 0
M  V30 871 N 82.7736 -1.49793 -0.48987 0
M  V30 872 C 83.6836 -1.70036 -1.61632 0
M  V30 873 C 84.6996 -0.583102 -1.63939 0
M  V30 874 O 85.8756 -0.859169 -1.82154 0
M  V30 875 C 82.9406 -1.77277 -2.97949 0
M  V30 876 C 82.0016 -3.00918 -3.06181 0
M  V30 877 C 81.2346 -3.07804 -4.35996 0
M  V30 878 O 81.4576 -2.21982 -5.25433 0
M  V30 879 O 80.3916 -4.00369 -4.49431 0
M  V30 880 H 84.2176 -2.65486 -1.47482 0
M  V30 881 H 81.8026 -1.33666 -0.667362 0
M  V30 882 H 83.6846 -1.84329 -3.78947 0
M  V30 883 H 82.3596 -0.850076 -3.12339 0
M  V30 884 H 81.2666 -2.99377 -2.2433 0
M  V30 885 H 82.5996 -3.92704 -2.96723 0
M  V30 886 N 84.2517 0.741722 -1.39055 0
M  V30 887 C 85.1617 1.88621 -1.39496 0
M  V30 888 C 86.1777 1.71557 -0.290578 0
M  V30 889 O 87.3537 1.94275 -0.530954 0
M  V30 890 C 84.4187 3.24134 -1.23037 0
M  V30 891 C 83.4797 3.5364 -2.43387 0
M  V30 892 C 82.7127 4.82687 -2.27703 0
M  V30 893 O 82.9357 5.55922 -1.27696 0
M  V30 894 O 81.8697 5.1194 -3.16545 0
M  V30 895 H 85.6957 1.91203 -2.35956 0
M  V30 896 H 83.2807 0.888625 -1.20099 0
M  V30 897 H 85.1627 4.0513 -1.15964 0
M  V30 898 H 83.8377 3.22337 -0.296691 0
M  V30 899 H 82.7447 2.72758 -2.56035 0
M  V30 900 H 84.0777 3.60209 -3.35425 0
M  V30 901 N 85.7298 1.2412 0.971189 0
M  V30 902 C 86.6398 1.04747 2.09917 0
M  V30 903 C 87.6558 -0.0107162 1.73997 0
M  V30 904 O 88.8318 0.186714 2.00533 0
M  V30 905 C 85.8968 0.650828 3.40537 0
M  V30 906 C 84.9578 1.7851 3.90426 0
M  V30 907 C 84.1908 1.40729 5.14812 0
M  V30 908 O 84.4138 0.29557 5.69634 0
M  V30 909 O 83.3478 2.23168 5.58999 0
M  V30 910 H 87.1738 1.99304 2.29154 0
M  V30 911 H 84.7588 1.02908 1.08307 0
M  V30 912 H 86.6408 0.440992 4.19086 0
M  V30 913 H 85.3158 -0.265649 3.22608 0
M  V30 914 H 84.2228 2.04966 3.12953 0
M  V30 915 H 85.5558 2.68023 4.12825 0
M  V30 916 N 87.2079 -1.17134 1.05439 0
M  V30 917 C 88.4539 -1.87979 0.776872 0
M  V30 918 C 88.8089 -1.7965 -0.688751 0
M  V30 919 O 88.1019 -1.19535 -1.4974 0
M  V30 920 C 88.2959 -3.36833 1.19491 0
M  V30 921 C 88.1249 -3.59653 2.69963 0
M  V30 922 C 86.8949 -3.76234 3.37307 0
M  V30 923 C 89.0929 -3.59091 3.68182 0
M  V30 924 N 87.0749 -3.86922 4.76618 0
M  V30 925 C 88.4459 -3.75659 4.93235 0
M  V30 926 C 90.5009 -3.42255 3.61616 0
M  V30 927 C 89.2039 -3.77133 6.12506 0
M  V30 928 C 91.2299 -3.45018 4.8033 0
M  V30 929 C 90.5919 -3.62096 6.04207 0
M  V30 930 H 86.6909 -0.705876 0.336546 0
M  V30 931 H 89.2749 -1.40602 1.34682 0
M  V30 932 H 87.4459 -3.82873 0.652884 0
M  V30 933 H 89.1779 -3.95305 0.866966 0
M  V30 934 H 85.9329 -3.76193 2.87708 0
M  V30 935 H 86.3569 -3.96055 5.49062 0
M  V30 936 H 90.9989 -3.27986 2.66805 0
M  V30 937 H 88.7169 -3.90186 7.07659 0
M  V30 938 H 92.3029 -3.33246 4.76905 0
M  V30 939 H 91.1829 -3.64142 6.94529 0
M  V30 940 N 88.686 -0.835752 -1.33615 0
M  V30 941 C 89.934 -0.429109 -1.97492 0
M  V30 942 C 90.255 1.01433 -1.66543 0
M  V30 943 O 89.525 1.70611 -0.962744 0
M  V30 944 H 88.105 -0.155686 -0.730596 0
M  V30 945 H 90.767 -1.06802 -1.63031 0
M  V30 946 H 89.863 -0.55861 -3.0706 0
M  V30 947 N 90.1641 1.46063 -0.591896 0
M  V30 948 C 91.3891 2.07226 -0.0850314 0
M  V30 949 C 91.8141 1.43625 1.21463 0
M  V30 950 O 91.1721 0.523305 1.73583 0
M  V30 951 C 91.2201 3.60554 0.0576567 0
M  V30 952 O 90.3241 3.97128 1.11188 0
M  V30 953 H 89.6651 0.660615 -0.0669568 0
M  V30 954 H 92.1951 1.8756 -0.81745 0
M  V30 955 H 92.2051 4.07165 0.2609 0
M  V30 956 H 90.8801 4.06235 -0.891416 0
M  V30 957 H 89.4571 3.62213 0.886356 0
M  V30 958 N 91.6422 0.330177 1.54103 0
M  V30 959 C 92.8902 -0.269871 2.0029 0
M  V30 960 C 93.2112 -1.52133 1.21986 0
M  V30 961 O 92.4812 -1.93212 0.323438 0
M  V30 962 H 91.0612 -0.10271 0.739905 0
M  V30 963 H 93.7232 0.448249 1.89675 0
M  V30 964 H 92.8192 -0.52166 3.07709 0
M  V30 965 N 93.1203 -1.57491 0.0584922 0
M  V30 966 C 94.3453 -1.97711 -0.62652 0
M  V30 967 C 94.7703 -0.936132 -1.63151 0
M  V30 968 O 94.1283 0.099811 -1.81025 0
M  V30 969 C 94.1763 -3.36989 -1.28338 0
M  V30 970 O 93.2803 -3.35433 -2.39913 0
M  V30 971 H 92.6213 -0.643868 -0.162266 0
M  V30 972 H 95.1513 -2.04193 0.129064 0
M  V30 973 H 95.1613 -3.73879 -1.63335 0
M  V30 974 H 93.8363 -4.12289 -0.546889 0
M  V30 975 H 92.4133 -3.10298 -2.06809 0
M  V30 976 N 94.5984 0.214957 -1.56127 0
M  V30 977 C 95.5084 1.28727 -1.96129 0
M  V30 978 C 96.5244 1.50916 -0.866044 0
M  V30 979 O 97.7004 1.63918 -1.17016 0
M  V30 980 C 94.7654 2.61569 -2.27558 0
M  V30 981 C 93.8264 2.47625 -3.50685 0
M  V30 982 C 93.0594 3.74132 -3.80606 0
M  V30 983 O 93.2824 4.77438 -3.12104 0
M  V30 984 O 92.2164 3.70849 -4.74083 0
M  V30 985 H 96.0424 0.977855 -2.87527 0
M  V30 986 H 93.6274 0.418358 -1.43423 0
M  V30 987 H 95.5094 3.40012 -2.48938 0
M  V30 988 H 94.1844 2.92178 -1.39332 0
M  V30 989 H 93.0914 1.67361 -3.34576 0
M  V30 990 H 94.4244 2.21954 -4.39315 0
M  V30 991 N 96.0765 1.50051 0.48192 0
M  V30 992 C 97.3535 1.51009 1.2432 0
M  V30 993 C 97.7335 0.248587 2.09631 0
M  V30 994 O 97.0815 -0.768409 2.15192 0
M  V30 995 C 97.2915 2.79981 2.08355 0
M  V30 996 C 98.6395 3.3022 2.66908 0
M  V30 997 O 99.6635 2.81228 2.18607 0
M  V30 998 O 98.5225 4.15595 3.54884 0
M  V30 999 H 95.6165 0.605239 0.563573 0
M  V30 1000 H 98.1625 1.62332 0.494627 0
M  V30 1001 H 96.9345 3.63275 1.45419 0
M  V30 1002 H 96.5575 2.7161 2.90368 0
M  V30 1003 N 97.5546 -0.734337 1.39446 0
M  V30 1004 C 98.5176 -1.83004 1.37994 0
M  V30 1005 C 99.5176 -1.58397 0.276938 0
M  V30 1006 O 100.708 -1.65785 0.534875 0
M  V30 1007 C 97.8396 -3.20802 1.1532 0
M  V30 1008 H 99.0326 -1.85694 2.35494 0
M  V30 1009 H 96.5856 -0.938059 1.25021 0
M  V30 1010 H 97.3206 -3.23772 0.185036 0
M  V30 1011 H 97.1056 -3.4006 1.95197 0
M  V30 1012 H 98.5956 -4.00862 1.17046 0
M  V30 1013 N 99.0327 -1.24633 -0.964593 0
M  V30 1014 C 100.258 -1.11596 -1.74818 0
M  V30 1015 C 100.683 0.32723 -1.85232 0
M  V30 1016 O 100.041 1.23695 -1.32549 0
M  V30 1017 C 100.089 -1.76397 -3.1451 0
M  V30 1018 O 99.1927 -1.03685 -3.99153 0
M  V30 1019 H 98.5337 -0.390196 -0.537255 0
M  V30 1020 H 101.064 -1.65002 -1.20977 0
M  V30 1021 H 101.074 -1.8228 -3.65018 0
M  V30 1022 H 99.7487 -2.81401 -3.06246 0
M  V30 1023 H 98.3257 -1.05611 -3.57632 0
M  V30 1024 N 100.511 1.16574 -1.06058 0
M  V30 1025 C 101.458 2.20883 -0.669263 0
M  V30 1026 C 102.428 1.62729 0.332918 0
M  V30 1027 O 103.613 1.895 0.222346 0
M  V30 1028 C 100.753 3.45049 -0.0593572 0
M  V30 1029 C 99.8658 4.17458 -1.11143 0
M  V30 1030 C 99.0008 5.29135 -0.467916 0
M  V30 1031 C 98.0398 5.93343 -1.50369 0
M  V30 1032 N 97.1768 6.96516 -0.883706 0
M  V30 1033 H 102.017 2.53709 -1.5632 0
M  V30 1034 H 99.5538 1.24616 -0.781625 0
M  V30 1035 H 101.512 4.16033 0.311771 0
M  V30 1036 H 100.142 3.12781 0.797992 0
M  V30 1037 H 99.1938 3.45101 -1.60029 0
M  V30 1038 H 100.506 4.61307 -1.89731 0
M  V30 1039 H 99.6598 6.06684 -0.0436871 0
M  V30 1040 H 98.3988 4.86443 0.349864 0
M  V30 1041 H 97.4038 5.14517 -1.93784 0
M  V30 1042 H 98.6288 6.38114 -2.32352 0
M  V30 1043 H 96.5748 6.55943 -0.086595 0
M  V30 1044 H 96.4918 7.38723 -1.607 0
M  V30 1045 H 97.7598 7.77993 -0.484543 0
M  V30 1046 N 101.989 0.842826 1.3317 0
M  V30 1047 C 102.936 0.276885 2.29133 0
M  V30 1048 C 103.906 -0.609527 1.54512 0
M  V30 1049 O 105.091 -0.546955 1.82792 0
M  V30 1050 C 102.231 -0.538707 3.40869 0
M  V30 1051 C 101.344 0.372169 4.30394 0
M  V30 1052 C 100.479 -0.454908 5.29249 0
M  V30 1053 C 99.5179 0.45411 6.10413 0
M  V30 1054 N 98.6549 -0.335075 7.013 0
M  V30 1055 H 103.495 1.10052 2.76934 0
M  V30 1056 H 101.032 0.554161 1.36262 0
M  V30 1057 H 102.99 -1.02709 4.0436 0
M  V30 1058 H 101.62 -1.32727 2.9425 0
M  V30 1059 H 100.672 0.97888 3.6759 0
M  V30 1060 H 101.984 1.0703 4.87182 0
M  V30 1061 H 101.138 -1.00695 5.98285 0
M  V30 1062 H 99.8769 -1.18646 4.73048 0
M  V30 1063 H 98.8819 1.01813 5.40291 0
M  V30 1064 H 100.107 1.18409 6.68697 0
M  V30 1065 H 98.0529 -1.04994 6.47543 0
M  V30 1066 H 97.9699 0.304262 7.55387 0
M  V30 1067 H 99.2379 -0.869224 7.74638 0
M  V30 1068 N 103.467 -1.45747 0.599634 0
M  V30 1069 C 104.744 -1.95585 0.0240846 0
M  V30 1070 C 105.124 -1.54217 -1.44154 0
M  V30 1071 O 104.472 -0.800903 -2.14004 0
M  V30 1072 C 104.682 -3.48344 0.21385 0
M  V30 1073 C 106.03 -4.24504 0.0904902 0
M  V30 1074 O 107.054 -3.55911 0.143558 0
M  V30 1075 O 105.913 -5.46491 -0.0310766 0
M  V30 1076 H 103.007 -0.82602 -0.0402478 0
M  V30 1077 H 105.553 -1.55951 0.669139 0
M  V30 1078 H 104.325 -3.71397 1.23206 0
M  V30 1079 H 103.948 -3.9485 -0.466842 0
M  V30 1080 N 104.945 -0.338344 -1.53925 0
M  V30 1081 C 106.193 0.259245 -2.0043 0
M  V30 1082 C 106.514 1.51484 -1.22791 0
M  V30 1083 O 105.784 1.93037 -0.33368 0
M  V30 1084 H 104.364 0.0987845 -0.740439 0
M  V30 1085 H 107.026 -0.458302 -1.89435 0
M  V30 1086 H 106.122 0.505334 -3.07982 0
M  V30 1087 N 106.423 1.57458 -0.0668435 0
M  V30 1088 C 107.386 2.11323 0.887422 0
M  V30 1089 C 108.386 1.03618 1.22964 0
M  V30 1090 O 109.576 1.29626 1.16373 0
M  V30 1091 C 106.708 2.61048 2.19242 0
M  V30 1092 H 107.901 2.96942 0.420194 0
M  V30 1093 H 105.454 1.55239 0.181793 0
M  V30 1094 H 106.189 1.78868 2.70512 0
M  V30 1095 H 105.974 3.39769 1.95702 0
M  V30 1096 H 107.464 3.02814 2.87565 0
M  V30 1097 N 107.901 -0.206675 1.56239 0
M  V30 1098 C 109.147 -0.930218 1.80208 0
M  V30 1099 C 109.48 -1.83387 0.638981 0
M  V30 1100 O 108.755 -1.91119 -0.361066 0
M  V30 1101 C 109.038 -1.75641 3.1436 0
M  V30 1102 C 108.891 -0.878257 4.41142 0
M  V30 1103 C 110.21 -2.73129 3.45092 0
M  V30 1104 H 107.329 -0.336742 0.655571 0
M  V30 1105 H 109.971 -0.198222 1.88963 0
M  V30 1106 H 108.121 -2.38048 3.07027 0
M  V30 1107 H 109.793 -0.269787 4.6051 0
M  V30 1108 H 108.036 -0.184385 4.33408 0
M  V30 1109 H 108.707 -1.49106 5.3148 0
M  V30 1110 H 111.183 -2.20856 3.52649 0
M  V30 1111 H 110.059 -3.28028 4.40101 0
M  V30 1112 H 110.32 -3.51606 2.68003 0
M  V30 1113 N 109.379 -1.50304 -0.473955 0
M  V30 1114 C 110.289 -1.7174 -1.5982 0
M  V30 1115 C 111.305 -0.600457 -1.63311 0
M  V30 1116 O 112.481 -0.878441 -1.81233 0
M  V30 1117 C 109.546 -1.80427 -2.96052 0
M  V30 1118 C 108.607 -3.04148 -3.02972 0
M  V30 1119 C 107.84 -3.12411 -4.32706 0
M  V30 1120 O 108.063 -2.27542 -5.23049 0
M  V30 1121 O 106.997 -4.05113 -4.45159 0
M  V30 1122 H 110.823 -2.67035 -1.44657 0
M  V30 1123 H 108.408 -1.34366 -0.653148 0
M  V30 1124 H 110.29 -1.88338 -3.7697 0
M  V30 1125 H 108.965 -0.883156 -3.11419 0
M  V30 1126 H 107.872 -3.0174 -2.21142 0
M  V30 1127 H 109.205 -3.95829 -2.92541 0
M  V30 1128 N 110.857 0.726932 -1.39834 0
M  V30 1129 C 112.082 1.52121 -1.40976 0
M  V30 1130 C 112.507 1.88098 -0.00826029 0
M  V30 1131 O 111.865 1.52479 0.980807 0
M  V30 1132 C 111.913 2.78021 -2.29644 0
M  V30 1133 O 111.017 3.74272 -1.73188 0
M  V30 1134 H 110.358 0.45908 -0.479731 0
M  V30 1135 H 112.888 0.896207 -1.83927 0
M  V30 1136 H 112.898 3.26671 -2.44438 0
M  V30 1137 H 111.573 2.51169 -3.31492 0
M  V30 1138 H 110.15 3.33073 -1.6768 0
M  V30 1139 N 112.336 1.25143 0.95797 0
M  V30 1140 C 113.585 1.0909 1.69654 0
M  V30 1141 C 113.898 -0.368548 1.92097 0
M  V30 1142 O 115.104 -0.649455 2.63618 0
M  V30 1143 C 113.56 1.90395 3.05414 0
M  V30 1144 C 113.168 3.4081 2.90779 0
M  V30 1145 C 114.912 1.82901 3.83076 0
M  V30 1146 C 112.819 4.14423 4.21909 0
M  V30 1147 H 111.749 0.404625 0.636235 0
M  V30 1148 H 114.4 1.4931 1.06672 0
M  V30 1149 H 112.782 1.42996 3.69281 0
M  V30 1150 H 113.956 3.95859 2.35865 0
M  V30 1151 H 112.271 3.49361 2.26575 0
M  V30 1152 H 114.868 2.35196 4.80195 0
M  V30 1153 H 115.211 0.796224 4.08615 0
M  V30 1154 H 115.744 2.28033 3.25954 0
M  V30 1155 H 112.483 5.18102 4.01561 0
M  V30 1156 H 112.003 3.64159 4.76601 0
M  V30 1157 H 113.682 4.21956 4.90471 0
M  V30 1158 N 113.814 -1.1601 1.06675 0
M  V30 1159 C 115.039 -1.91068 0.806706 0
M  V30 1160 C 115.464 -1.77112 -0.633485 0
M  V30 1161 O 114.822 -1.09908 -1.44187 0
M  V30 1162 C 114.87 -3.39655 1.21106 0
M  V30 1163 O 113.974 -4.10893 0.352189 0
M  V30 1164 H 113.315 -0.595125 0.294486 0
M  V30 1165 H 115.845 -1.46955 1.42356 0
M  V30 1166 H 115.855 -3.90434 1.18428 0
M  V30 1167 H 114.53 -3.49132 2.26008 0
M  V30 1168 H 113.107 -3.70285 0.440868 0
M  V30 1169 N 115.292 -0.849877 -1.32721 0
M  V30 1170 C 116.538 -0.451591 -1.97708 0
M  V30 1171 C 116.871 0.989175 -1.6712 0
M  V30 1172 O 116.146 1.69334 -0.956891 0
M  V30 1173 C 116.429 -0.685598 -3.53513 0
M  V30 1174 C 116.282 -2.17444 -3.93749 0
M  V30 1175 C 117.601 -0.138874 -4.39881 0
M  V30 1176 H 114.72 -0.16555 -0.718166 0
M  V30 1177 H 117.362 -1.06742 -1.57182 0
M  V30 1178 H 115.512 -0.161416 -3.88165 0
M  V30 1179 H 117.184 -2.76433 -3.693 0
M  V30 1180 H 115.427 -2.65476 -3.43081 0
M  V30 1181 H 116.098 -2.28888 -5.02309 0
M  V30 1182 H 118.574 -0.587068 -4.11938 0
M  V30 1183 H 117.45 -0.332213 -5.47894 0
M  V30 1184 H 117.711 0.95806 -4.31594 0
M  V30 1185 N 116.77 1.45427 -0.607355 0
M  V30 1186 C 118.181 1.85756 -0.187535 0
M  V30 1187 C 118.532 1.5077 1.25551 0
M  V30 1188 O 117.657 0.93427 1.95193 0
M  V30 1189 C 118.252 3.37154 -0.333572 0
M  V30 1190 C 116.811 3.76387 0.0315542 0
M  V30 1191 C 115.958 2.69377 -0.658117 0
M  V30 1192 H 118.909 1.36231 -0.81405 0
M  V30 1193 H 118.93 3.78014 0.43428 0
M  V30 1194 H 118.442 3.62586 -1.38393 0
M  V30 1195 H 116.543 3.56571 1.0811 0
M  V30 1196 H 116.656 4.77731 -0.361935 0
M  V30 1197 H 115.02 2.5452 -0.0957873 0
M  V30 1198 H 115.803 2.97646 -1.7106 0
M  V30 1199 N 118.248 0.346503 1.53744 0
M  V30 1200 C 119.525 -0.304532 1.93215 0
M  V30 1201 C 119.905 -1.67993 1.27834 0
M  V30 1202 O 119.253 -2.24411 0.430352 0
M  V30 1203 C 119.463 -0.373852 3.46992 0
M  V30 1204 C 120.811 -0.62329 4.2 0
M  V30 1205 O 121.835 -0.455847 3.53271 0
M  V30 1206 O 120.694 -0.947879 5.38217 0
M  V30 1207 H 117.788 -0.178318 0.807547 0
M  V30 1208 H 120.334 0.397895 1.64969 0
M  V30 1209 H 119.106 0.591224 3.86808 0
M  V30 1210 H 118.729 -1.12294 3.81413 0
M  V30 1211 N 119.726 -1.57421 0.075193 0
M  V30 1212 C 120.659 -2.08528 -0.926904 0
M  V30 1213 C 121.637 -0.991171 -1.28898 0
M  V30 1214 O 122.821 -1.26479 -1.39769 0
M  V30 1215 C 119.948 -2.54576 -2.23402 0
M  V30 1216 C 118.994 -3.75454 -2.02327 0
M  V30 1217 S 119.827 -5.19989 -1.27951 0
M  V30 1218 C 120.983 -5.69372 -2.59935 0
M  V30 1219 H 121.216 -2.932 -0.492048 0
M  V30 1220 H 118.749 -1.53785 -0.137651 0
M  V30 1221 H 120.707 -2.81767 -2.98526 0
M  V30 1222 H 119.368 -1.70166 -2.64012 0
M  V30 1223 H 118.561 -4.05675 -2.99071 0
M  V30 1224 H 118.163 -3.48654 -1.35339 0
M  V30 1225 H 120.455 -5.76424 -3.56008 0
M  V30 1226 H 121.398 -6.68207 -2.34319 0
M  V30 1227 H 121.806 -4.97205 -2.67296 0
M  V30 1228 N 121.204 0.198386 -1.56346 0
M  V30 1229 C 122.45 0.920648 -1.80698 0
M  V30 1230 C 122.783 1.83045 -0.648697 0
M  V30 1231 O 122.058 1.91308 0.350925 0
M  V30 1232 C 122.341 1.73971 -3.15287 0
M  V30 1233 C 122.194 0.85485 -4.41602 0
M  V30 1234 C 123.513 2.71296 -3.46535 0
M  V30 1235 H 120.632 0.333261 -0.657348 0
M  V30 1236 H 123.274 0.188198 -1.89066 0
M  V30 1237 H 121.424 2.36416 -3.08285 0
M  V30 1238 H 123.096 0.245362 -4.60647 0
M  V30 1239 H 121.339 0.161398 -4.335 0
M  V30 1240 H 122.01 1.46286 -5.32264 0
M  V30 1241 H 124.486 2.18983 -3.53816 0
M  V30 1242 H 123.362 3.2569 -4.41834 0
M  V30 1243 H 123.623 3.5018 -2.69864 0
M  V30 1244 N 122.682 1.50554 0.465978 0
M  V30 1245 C 123.959 1.5232 1.22712 0
M  V30 1246 C 124.339 0.270807 2.09356 0
M  V30 1247 O 123.687 -0.745541 2.15995 0
M  V30 1248 C 123.897 2.82175 2.05374 0
M  V30 1249 C 125.245 3.33033 2.6339 0
M  V30 1250 O 126.269 2.83531 2.15612 0
M  V30 1251 O 125.128 4.19336 3.50456 0
M  V30 1252 H 122.222 0.611183 0.557122 0
M  V30 1253 H 124.768 1.62847 0.477381 0
M  V30 1254 H 123.54 3.64797 1.41558 0
M  V30 1255 H 123.163 2.74675 2.87471 0
M  V30 1256 N 124.16 -0.719506 1.40217 0
M  V30 1257 C 125.107 -1.83359 1.40172 0
M  V30 1258 C 126.077 -1.64065 0.259206 0
M  V30 1259 O 127.262 -1.85254 0.456677 0
M  V30 1260 C 124.402 -3.2103 1.26624 0
M  V30 1261 C 123.515 -3.51923 2.50548 0
M  V30 1262 C 122.65 -4.79079 2.29471 0
M  V30 1263 C 121.689 -5.02863 3.48992 0
M  V30 1264 N 120.826 -6.2123 3.27135 0
M  V30 1265 H 125.666 -1.82733 2.35399 0
M  V30 1266 H 123.203 -0.892688 1.16917 0
M  V30 1267 H 125.161 -4.00524 1.16776 0
M  V30 1268 H 123.791 -3.20895 0.350176 0
M  V30 1269 H 122.843 -2.67014 2.70939 0
M  V30 1270 H 124.155 -3.6541 3.39525 0
M  V30 1271 H 123.309 -5.66582 2.16955 0
M  V30 1272 H 122.048 -4.67794 1.37913 0
M  V30 1273 H 121.053 -4.13816 3.6199 0
M  V30 1274 H 122.278 -5.16023 4.41472 0
M  V30 1275 H 120.224 -6.11204 2.38256 0
M  V30 1276 H 120.141 -6.35375 4.09675 0
M  V30 1277 H 121.409 -7.11532 3.18344 0
M  V30 1278 N 125.638 -1.25649 -0.95132 0
M  V30 1279 C 126.586 -1.06118 -2.06982 0
M  V30 1280 C 127.58 0.00889169 -1.69398 0
M  V30 1281 O 128.786 -0.146988 -1.79399 0
M  V30 1282 H 125.161 -0.326248 -0.677544 0
M  V30 1283 H 127.132 -2.00932 -2.2061 0
M  V30 1284 C 125.881 -0.700145 -3.40578 0
M  V30 1285 H 125.204 -1.51537 -3.69968 0
M  V30 1286 H 126.644 -0.603211 -4.19687 0
M  V30 1287 C 125.103 0.59403 -3.31622 0
M  V30 1288 O 125.633 1.63522 -3.66911 0
M  V30 1289 N 123.839 0.58089 -2.84735 0
M  V30 1290 H 123.386 -0.266783 -2.56215 0
M  V30 1291 H 123.344 1.44695 -2.79125 0
M  V30 1292 N 127.117 1.15442 -1.07289 0
M  V30 1293 C 128.047 2.22312 -0.714107 0
M  V30 1294 C 129.028 1.67467 0.298155 0
M  V30 1295 O 130.213 1.93445 0.171048 0
M  V30 1296 C 127.343 3.47124 -0.110448 0
M  V30 1297 C 126.297 4.14926 -1.04979 0
M  V30 1298 C 125.623 5.33807 -0.308924 0
M  V30 1299 C 126.923 4.64762 -2.38314 0
M  V30 1300 H 128.617 2.5258 -1.6076 0
M  V30 1301 H 126.163 1.21404 -0.77441 0
M  V30 1302 H 128.116 4.21124 0.152482 0
M  V30 1303 H 126.84 3.16187 0.81812 0
M  V30 1304 H 125.499 3.42866 -1.29764 0
M  V30 1305 H 125.147 4.99126 0.623084 0
M  V30 1306 H 124.847 5.80113 -0.935036 0
M  V30 1307 H 126.371 6.10576 -0.0537771 0
M  V30 1308 H 127.785 5.30292 -2.1786 0
M  V30 1309 H 126.182 5.21728 -2.96514 0
M  V30 1310 H 127.252 3.80434 -3.00663 0
M  V30 1311 N 128.595 0.856903 1.32268 0
M  V30 1312 C 129.823 0.475439 2.01363 0
M  V30 1313 C 130.238 -0.928486 1.64392 0
M  V30 1314 O 129.595 -1.60624 0.866387 0
M  V30 1315 C 129.646 0.607545 3.56358 0
M  V30 1316 O 129.367 1.95617 3.92002 0
M  V30 1317 C 130.868 0.225382 4.42727 0
M  V30 1318 H 128.088 0.186636 0.644521 0
M  V30 1319 H 130.632 1.15446 1.68797 0
M  V30 1320 H 128.787 -0.0237719 3.87393 0
M  V30 1321 H 129.201 1.95455 4.86721 0
M  V30 1322 H 130.675 0.368813 5.50767 0
M  V30 1323 H 131.152 -0.834369 4.31202 0
M  V30 1324 H 131.758 0.831864 4.17085 0
M  V30 1325 N 130.073 -1.45103 0.615059 0
M  V30 1326 C 131.313 -2.04069 0.116282 0
M  V30 1327 C 131.677 -1.4721 -1.2326 0
M  V30 1328 O 132.878 -1.97577 -1.82255 0
M  V30 1329 C 131.149 -3.57298 0.085482 0
M  V30 1330 S 132.708 -4.37394 -0.351015 0
M  V30 1331 H 129.526 -0.709006 0.0532183 0
M  V30 1332 H 132.128 -1.77709 0.81484 0
M  V30 1333 H 130.832 -3.9619 1.0706 0
M  V30 1334 H 130.363 -3.88244 -0.634835 0
M  V30 1335 H 132.378 -4.69734 -1.59889 0
M  V30 1336 N 131.551 -0.354651 -1.53558 0
M  V30 1337 C 132.962 0.126902 -1.86268 0
M  V30 1338 C 133.313 1.49075 -1.27558 0
M  V30 1339 O 132.438 2.08105 -0.5934 0
M  V30 1340 C 133.033 0.237046 -3.3797 0
M  V30 1341 C 131.592 0.662842 -3.70518 0
M  V30 1342 C 130.739 -0.196652 -2.76602 0
M  V30 1343 H 133.69 -0.573849 -1.47962 0
M  V30 1344 H 133.711 1.06259 -3.65362 0
M  V30 1345 H 133.223 -0.755725 -3.80671 0
M  V30 1346 H 131.324 1.66424 -3.33367 0
M  V30 1347 H 131.437 0.445034 -4.77029 0
M  V30 1348 H 129.801 0.332763 -2.52517 0
M  V30 1349 H 130.584 -1.18676 -3.22135 0
M  V30 1350 N 133.029 1.57378 -0.0835403 0
M  V30 1351 C 133.939 2.16897 0.894021 0
M  V30 1352 C 134.955 1.13528 1.31861 0
M  V30 1353 O 136.131 1.45848 1.3889 0
M  V30 1354 C 133.196 2.72831 2.13925 0
M  V30 1355 C 132.257 3.91115 1.76997 0
M  V30 1356 C 131.49 4.44371 2.95584 0
M  V30 1357 O 131.713 3.96596 4.09961 0
M  V30 1358 O 130.647 5.35549 2.74719 0
M  V30 1359 H 134.473 3.00814 0.417679 0
M  V30 1360 H 132.058 1.48741 0.140181 0
M  V30 1361 H 133.94 3.0863 2.86924 0
M  V30 1362 H 132.615 1.91967 2.60635 0
M  V30 1363 H 131.522 3.60148 1.01214 0
M  V30 1364 H 132.855 4.73307 1.3506 0
M  V30 1365 N 134.507 -0.190092 1.56449 0
M  V30 1366 C 135.417 -1.25591 1.98152 0
M  V30 1367 C 136.433 -1.49519 0.889944 0
M  V30 1368 O 137.609 -1.62036 1.19609 0
M  V30 1369 C 134.674 -2.57916 2.3169 0
M  V30 1370 C 133.735 -2.42015 3.5458 0
M  V30 1371 C 132.968 -3.6803 3.8651 0
M  V30 1372 O 133.191 -4.72413 3.1966 0
M  V30 1373 O 132.125 -3.6326 4.79923 0
M  V30 1374 H 135.951 -0.931988 2.89046 0
M  V30 1375 H 133.536 -0.395488 1.4407 0
M  V30 1376 H 135.418 -3.36008 2.54316 0
M  V30 1377 H 134.093 -2.89925 1.43963 0
M  V30 1378 H 133 -1.62017 3.37196 0
M  V30 1379 H 134.333 -2.14937 4.4279 0
M  V30 1380 N 135.985 -1.50799 -0.457987 0
M  V30 1381 C 136.895 -1.73426 -1.57989 0
M  V30 1382 C 137.911 -0.617745 -1.62665 0
M  V30 1383 O 139.087 -0.897614 -1.80291 0
M  V30 1384 C 136.152 -1.83557 -2.94122 0
M  V30 1385 C 135.213 -3.07345 -2.99729 0
M  V30 1386 C 134.446 -3.16983 -4.29368 0
M  V30 1387 O 134.669 -2.33077 -5.20607 0
M  V30 1388 O 133.603 -4.09812 -4.40837 0
M  V30 1389 H 137.429 -2.68555 -1.41817 0
M  V30 1390 H 135.014 -1.35052 -0.638859 0
M  V30 1391 H 136.896 -1.92326 -3.74952 0
M  V30 1392 H 135.571 -0.916137 -3.10465 0
M  V30 1393 H 134.478 -3.04068 -2.1793 0
M  V30 1394 H 135.811 -3.9891 -2.88326 0
M  V30 1395 N 137.463 0.71206 -1.40597 0
M  V30 1396 C 138.74 1.46536 -1.29563 0
M  V30 1397 C 139.12 2.10931 0.0844217 0
M  V30 1398 O 138.468 2.00418 1.0975 0
M  V30 1399 C 138.678 2.49821 -2.43701 0
M  V30 1400 C 140.026 3.15551 -2.841 0
M  V30 1401 O 141.05 2.60142 -2.4332 0
M  V30 1402 O 139.909 4.15867 -3.54566 0
M  V30 1403 H 137.003 0.651801 -0.509004 0
M  V30 1404 H 139.549 0.743935 -1.52524 0
M  V30 1405 H 138.321 2.00778 -3.35863 0
M  V30 1406 H 137.944 3.29495 -2.22528 0
M  V30 1407 N 138.941 1.26152 0.944643 0
M  V30 1408 C 140.169 1.14259 1.72489 0
M  V30 1409 C 140.584 -0.302555 1.8636 0
M  V30 1410 O 139.941 -1.20741 1.36849 0
M  V30 1411 C 139.992 1.80266 3.13347 0
M  V30 1412 O 139.713 3.19133 3.00143 0
M  V30 1413 C 141.214 1.74283 4.07603 0
M  V30 1414 H 138.434 0.398051 0.540181 0
M  V30 1415 H 140.978 1.66706 1.18446 0
M  V30 1416 H 139.133 1.31766 3.64303 0
M  V30 1417 H 139.547 3.51744 3.89071 0
M  V30 1418 H 141.021 2.25111 5.04013 0
M  V30 1419 H 141.498 0.708631 4.33446 0
M  V30 1420 H 142.104 2.22319 3.62567 0
M  V30 1421 N 140.419 -1.14872 1.07899 0
M  V30 1422 C 141.665 -1.86064 0.806725 0
M  V30 1423 C 141.998 -1.82434 -0.665706 0
M  V30 1424 O 141.273 -1.25138 -1.48899 0
M  V30 1425 C 141.556 -3.34929 1.32267 0
M  V30 1426 C 141.409 -3.47161 2.86006 0
M  V30 1427 C 142.728 -4.29863 0.943717 0
M  V30 1428 H 139.847 -0.675591 0.294526 0
M  V30 1429 H 142.489 -1.34925 1.33773 0
M  V30 1430 H 140.639 -3.78611 0.870974 0
M  V30 1431 H 142.311 -3.12302 3.39507 0
M  V30 1432 H 140.554 -2.88539 3.23925 0
M  V30 1433 H 141.225 -4.51777 3.17177 0
M  V30 1434 H 143.701 -3.9417 1.33302 0
M  V30 1435 H 142.577 -5.32494 1.33198 0
M  V30 1436 H 142.838 -4.41846 -0.149796 0
M  V30 1437 N 141.898 -0.863906 -1.31812 0
M  V30 1438 C 142.845 -0.313303 -2.28664 0
M  V30 1439 C 143.815 0.584868 -1.55462 0
M  V30 1440 O 145 0.517805 -1.83639 0
M  V30 1441 C 142.14 0.48441 -3.41683 0
M  V30 1442 C 141.253 -0.440594 -4.29747 0
M  V30 1443 C 140.388 0.370652 -5.29905 0
M  V30 1444 C 139.427 -0.551164 -6.09613 0
M  V30 1445 N 138.564 0.223462 -7.01744 0
M  V30 1446 H 143.404 -1.14444 -2.75148 0
M  V30 1447 H 140.941 -0.575769 -1.35364 0
M  V30 1448 H 142.899 0.962627 -4.05943 0
M  V30 1449 H 141.529 1.28029 -2.96325 0
M  V30 1450 H 140.581 -1.03724 -3.65986 0
M  V30 1451 H 141.893 -1.14767 -4.85417 0
M  V30 1452 H 141.047 0.911638 -5.99812 0
M  V30 1453 H 139.786 1.11105 -4.74876 0
M  V30 1454 H 138.791 -1.10396 -5.38603 0
M  V30 1455 H 140.016 -1.29032 -6.66729 0
M  V30 1456 H 137.962 0.946787 -6.49132 0
M  V30 1457 H 137.879 -0.424399 -7.54808 0
M  V30 1458 H 139.147 0.745876 -7.75923 0
M  V30 1459 N 143.376 1.44774 -0.622745 0
M  V30 1460 C 144.622 2.0242 -0.124083 0
M  V30 1461 C 144.955 1.4881 1.24777 0
M  V30 1462 O 144.23 0.668799 1.8264 0
M  V30 1463 C 144.513 3.59957 -0.101619 0
M  V30 1464 C 144.366 4.23867 -1.50521 0
M  V30 1465 C 145.685 4.36284 0.578272 0
M  V30 1466 H 142.804 0.735528 -0.0465645 0
M  V30 1467 H 145.446 1.72447 -0.797617 0
M  V30 1468 H 143.596 3.85623 0.471934 0
M  V30 1469 H 145.268 4.09336 -2.12701 0
M  V30 1470 H 143.511 3.81684 -2.06154 0
M  V30 1471 H 144.182 5.32843 -1.4416 0
M  V30 1472 H 146.658 4.16001 0.0906057 0
M  V30 1473 H 145.534 5.46004 0.563149 0
M  V30 1474 H 145.795 4.10271 1.64713 0
M  V30 1475 N 144.854 0.36279 1.53368 0
M  V30 1476 C 146.1 -0.228113 2.01513 0
M  V30 1477 C 146.433 -1.48648 1.2497 0
M  V30 1478 O 145.708 -1.91459 0.342616 0
M  V30 1479 C 145.991 -0.522884 3.56284 0
M  V30 1480 C 145.844 0.74892 4.43521 0
M  V30 1481 C 147.163 -1.32461 4.19693 0
M  V30 1482 H 144.282 -0.0814343 0.732487 0
M  V30 1483 H 146.924 0.48713 1.83649 0
M  V30 1484 H 145.074 -1.1322 3.71636 0
M  V30 1485 H 146.746 1.38648 4.39971 0
M  V30 1486 H 144.989 1.36986 4.11603 0
M  V30 1487 H 145.66 0.497667 5.49752 0
M  V30 1488 H 148.136 -0.809203 4.08156 0
M  V30 1489 H 147.012 -1.49961 5.28018 0
M  V30 1490 H 147.273 -2.33232 3.75573 0
M  V30 1491 N 146.332 -1.57332 0.0918853 0
M  V30 1492 C 147.58 -1.93853 -0.571446 0
M  V30 1493 C 147.901 -0.974212 -1.6892 0
M  V30 1494 O 147.171 -0.0257254 -1.95883 0
M  V30 1495 H 145.751 -0.715666 -0.214082 0
M  V30 1496 H 148.413 -1.94287 0.154464 0
M  V30 1497 H 147.509 -2.96191 -0.983729 0
M  V30 1498 N 147.81 0.181792 -1.56548 0
M  V30 1499 C 149.059 0.898348 -1.8059 0
M  V30 1500 C 149.372 1.83862 -0.667379 0
M  V30 1501 O 150.578 2.59678 -0.792446 0
M  V30 1502 C 149.034 1.64791 -3.19956 0
M  V30 1503 C 148.642 0.751789 -4.41647 0
M  V30 1504 C 150.386 2.35331 -3.53298 0
M  V30 1505 C 148.293 1.50098 -5.72035 0
M  V30 1506 H 147.223 0.339194 -0.673397 0
M  V30 1507 H 149.874 0.151413 -1.82874 0
M  V30 1508 H 148.256 2.43921 -3.11959 0
M  V30 1509 H 149.43 -0.0018076 -4.608 0
M  V30 1510 H 147.745 0.156562 -4.16106 0
M  V30 1511 H 150.342 2.91958 -4.47956 0
M  V30 1512 H 150.685 3.10164 -2.77676 0
M  V30 1513 H 151.218 1.63154 -3.62803 0
M  V30 1514 H 147.957 0.795175 -6.50659 0
M  V30 1515 H 147.477 2.22817 -5.56878 0
M  V30 1516 H 149.156 2.05125 -6.13622 0
M  V30 1517 N 149.288 1.51039 0.449983 0
M  V30 1518 C 150.699 1.557 1.03026 0
M  V30 1519 C 151.05 0.372939 1.92623 0
M  V30 1520 O 150.175 -0.511771 2.10261 0
M  V30 1521 C 150.77 2.82171 1.87523 0
M  V30 1522 C 149.329 2.89444 2.40622 0
M  V30 1523 C 148.476 2.50228 1.19504 0
M  V30 1524 H 151.427 1.56999 0.231745 0
M  V30 1525 H 151.448 2.65219 2.72835 0
M  V30 1526 H 150.96 3.68331 1.22286 0
M  V30 1527 H 149.061 2.07685 3.0935 0
M  V30 1528 H 149.174 3.92816 2.74285 0
M  V30 1529 H 147.538 2.03139 1.53644 0
M  V30 1530 H 148.321 3.38719 0.558972 0
M  V30 1531 N 150.766 -0.704594 1.40972 0
M  V30 1532 C 152.014 -1.46169 1.39568 0
M  V30 1533 C 152.335 -1.95 0.00253745 0
M  V30 1534 O 151.605 -1.71095 -0.954114 0
M  V30 1535 H 150.185 -0.542326 0.513704 0
M  V30 1536 H 152.847 -0.834553 1.76128 0
M  V30 1537 H 151.943 -2.32922 2.07735 0
M  V30 1538 N 152.244 -1.26651 -0.937939 0
M  V30 1539 C 153.484 -1.13611 -1.69917 0
M  V30 1540 C 153.848 0.314687 -1.89404 0
M  V30 1541 O 155.049 0.567285 -2.62746 0
M  V30 1542 C 153.32 -1.88742 -3.03498 0
M  V30 1543 S 154.879 -1.91794 -3.94665 0
M  V30 1544 H 151.697 -0.405767 -0.583844 0
M  V30 1545 H 154.299 -1.60416 -1.11745 0
M  V30 1546 H 153.003 -2.9336 -2.86999 0
M  V30 1547 H 152.534 -1.42391 -3.66727 0
M  V30 1548 H 154.549 -1.00698 -4.85875 0
M  V30 1549 N 153.722 1.14298 -1.08507 0
M  V30 1550 C 154.654 2.1907 -0.673859 0
M  V30 1551 C 155.667 1.60381 0.279577 0
M  V30 1552 O 156.856 1.78374 0.0670754 0
M  V30 1553 C 153.956 3.38888 0.0290979 0
M  V30 1554 C 153.129 4.27103 -0.943494 0
M  V30 1555 C 152.188 5.25477 -0.275676 0
M  V30 1556 O 151.214 5.61709 -0.920401 0
M  V30 1557 N 152.416 5.7227 0.974013 0
M  V30 1558 H 155.181 2.54965 -1.57521 0
M  V30 1559 H 152.742 1.29528 -0.971287 0
M  V30 1560 H 154.734 4.01761 0.48683 0
M  V30 1561 H 153.304 3.01309 0.832555 0
M  V30 1562 H 152.524 3.61149 -1.58004 0
M  V30 1563 H 153.812 4.82905 -1.60251 0
M  V30 1564 H 153.21 5.44965 1.51755 0
M  V30 1565 H 151.767 6.37127 1.37522 0
M  V30 1566 N 155.201 0.870884 1.31352 0
M  V30 1567 C 156.429 0.49677 2.00848 0
M  V30 1568 C 156.844 -0.910998 1.65367 0
M  V30 1569 O 156.201 -1.59696 0.883374 0
M  V30 1570 C 156.252 0.645308 3.55694 0
M  V30 1571 O 155.973 1.99764 3.89905 0
M  V30 1572 C 157.474 0.272326 4.42463 0
M  V30 1573 H 154.694 0.193462 0.642506 0
M  V30 1574 H 157.238 1.1723 1.67563 0
M  V30 1575 H 155.393 0.0173176 3.87396 0
M  V30 1576 H 155.807 2.00607 4.84621 0
M  V30 1577 H 157.281 0.427208 5.50344 0
M  V30 1578 H 157.758 -0.788587 4.32062 0
M  V30 1579 H 158.364 0.876054 4.1618 0
M  V30 1580 N 156.679 -1.44442 0.630414 0
M  V30 1581 C 157.919 -2.03934 0.137919 0
M  V30 1582 C 158.283 -1.48509 -1.21692 0
M  V30 1583 O 159.484 -1.99499 -1.80149 0
M  V30 1584 C 157.755 -3.57187 0.123373 0
M  V30 1585 S 159.314 -4.37741 -0.304604 0
M  V30 1586 H 156.132 -0.708401 0.0607353 0
M  V30 1587 H 158.734 -1.76835 0.833643 0
M  V30 1588 H 157.438 -3.95032 1.11256 0
M  V30 1589 H 156.969 -3.88895 -0.59362 0
M  V30 1590 H 158.984 -4.71403 -1.54897 0
M  V30 1591 N 158.157 -0.370918 -1.53173 0
M  V30 1592 C 159.573 -0.0200818 -1.59587 0
M  V30 1593 C 159.773 1.46279 -1.38581 0
M  V30 1594 O 158.829 2.22506 -1.19363 0
M  V30 1595 C 160.142 -0.4808 -2.96831 0
M  V30 1596 C 161.69 -0.435477 -3.09956 0
M  V30 1597 C 162.165 -0.872092 -4.4962 0
M  V30 1598 N 163.656 -0.827364 -4.55751 0
M  V30 1599 C 164.391 -1.13683 -5.62018 0
M  V30 1600 N 163.887 -1.51584 -6.76014 0
M  V30 1601 N 165.68 -1.05927 -5.52029 0
M  V30 1602 H 157.831 -1.33652 -1.65079 0
M  V30 1603 H 160.094 -0.546634 -0.774529 0
M  V30 1604 H 159.8 -1.51577 -3.1736 0
M  V30 1605 H 159.674 0.129796 -3.76977 0
M  V30 1606 H 162.061 0.590371 -2.89134 0
M  V30 1607 H 162.142 -1.08164 -2.31806 0
M  V30 1608 H 161.786 -1.89608 -4.71181 0
M  V30 1609 H 161.716 -0.203127 -5.26208 0
M  V30 1610 H 164.207 -0.548216 -3.73902 0
M  V30 1611 H 164.52 -1.73609 -7.53047 0
M  V30 1612 H 162.865 -1.55454 -6.77391 0
M  V30 1613 H 166.056 -0.762321 -4.61851 0
M  V30 1614 H 166.229 -1.30378 -6.34749 0
M  V30 1615 N 159.635 1.57281 -0.100228 0
M  V30 1616 C 160.865 1.98591 0.569681 0
M  V30 1617 C 161.273 0.978315 1.61943 0
M  V30 1618 O 160.616 -0.0396108 1.83657 0
M  V30 1619 C 160.678 3.36282 1.271 0
M  V30 1620 C 160.342 4.55488 0.371409 0
M  V30 1621 C 161.339 5.18491 -0.382504 0
M  V30 1622 C 159.024 5.01474 0.287965 0
M  V30 1623 C 161.018 6.25852 -1.20779 0
M  V30 1624 C 158.705 6.08701 -0.540965 0
M  V30 1625 C 159.703 6.70755 -1.28749 0
M  V30 1626 O 159.391 7.75914 -2.10269 0
M  V30 1627 H 159.123 0.65752 0.156982 0
M  V30 1628 H 161.677 2.0463 -0.177734 0
M  V30 1629 H 159.907 3.26941 2.0651 0
M  V30 1630 H 161.596 3.62005 1.83595 0
M  V30 1631 H 162.362 4.83891 -0.3278 0
M  V30 1632 H 158.241 4.52932 0.858689 0
M  V30 1633 H 161.785 6.74218 -1.79096 0
M  V30 1634 H 157.682 6.42732 -0.597131 0
M  V30 1635 H 158.45 7.92925 -2.03007 0
M  V30 1636 N 161.113 -0.173488 1.56642 0
M  V30 1637 C 162.043 -1.2171 1.99271 0
M  V30 1638 C 163.024 -1.46289 0.867959 0
M  V30 1639 O 164.209 -1.5766 1.13388 0
M  V30 1640 C 161.339 -2.55651 2.35074 0
M  V30 1641 C 160.293 -2.45645 3.50489 0
M  V30 1642 C 159.619 -3.84056 3.72028 0
M  V30 1643 C 160.919 -1.96302 4.84007 0
M  V30 1644 H 162.613 -0.86275 2.867 0
M  V30 1645 H 160.159 -0.413571 1.37933 0
M  V30 1646 H 162.112 -3.2886 2.63494 0
M  V30 1647 H 160.836 -2.92869 1.44552 0
M  V30 1648 H 159.495 -1.7489 3.22194 0
M  V30 1649 H 159.143 -4.18664 2.788 0
M  V30 1650 H 158.843 -3.7823 4.49684 0
M  V30 1651 H 160.367 -4.58854 4.02846 0
M  V30 1652 H 161.781 -2.59284 5.11317 0
M  V30 1653 H 160.178 -2.01429 5.65284 0
M  V30 1654 H 161.248 -0.917226 4.76146 0
M  V30 1655 N 162.591 -1.51276 -0.441967 0
M  V30 1656 C 163.521 -1.752 -1.54361 0
M  V30 1657 C 164.502 -0.601682 -1.59103 0
M  V30 1658 O 165.687 -0.843913 -1.74905 0
M  V30 1659 C 162.817 -1.87282 -2.92477 0
M  V30 1660 C 161.771 -3.02687 -3.02596 0
M  V30 1661 C 161.097 -2.99947 -4.42647 0
M  V30 1662 C 162.397 -4.4273 -2.77106 0
M  V30 1663 H 164.091 -2.67442 -1.34592 0
M  V30 1664 H 161.637 -1.28694 -0.646048 0
M  V30 1665 H 163.59 -2.02602 -3.695 0
M  V30 1666 H 162.314 -0.916844 -3.13467 0
M  V30 1667 H 160.973 -2.87065 -2.28012 0
M  V30 1668 H 160.621 -2.02136 -4.60597 0
M  V30 1669 H 160.321 -3.77439 -4.50348 0
M  V30 1670 H 161.845 -3.17354 -5.2165 0
M  V30 1671 H 163.259 -4.58727 -3.43864 0
M  V30 1672 H 161.656 -5.21893 -2.96222 0
M  V30 1673 H 162.726 -4.53087 -1.72744 0
M  V30 1674 N 164.069 0.697108 -1.41344 0
M  V30 1675 C 165.315 1.4593 -1.40827 0
M  V30 1676 C 165.648 1.94193 -0.0167098 0
M  V30 1677 O 164.923 1.69425 0.955263 0
M  V30 1678 C 165.206 2.67229 -2.41373 0
M  V30 1679 C 165.059 2.24741 -3.8963 0
M  V30 1680 C 166.378 3.69423 -2.39196 0
M  V30 1681 H 163.497 0.529303 -0.512842 0
M  V30 1682 H 166.139 0.794112 -1.72609 0
M  V30 1683 H 164.289 3.23982 -2.14401 0
M  V30 1684 H 165.961 1.73327 -4.27499 0
M  V30 1685 H 164.204 1.56542 -4.0457 0
M  V30 1686 H 164.875 3.1177 -4.55525 0
M  V30 1687 H 167.351 3.2234 -2.63128 0
M  V30 1688 H 166.227 4.51907 -3.11563 0
M  V30 1689 H 166.488 4.19012 -1.41001 0
M  V30 1690 N 165.547 1.27147 0.931209 0
M  V30 1691 C 166.963 1.04475 1.20653 0
M  V30 1692 C 167.163 -0.223885 2.00252 0
M  V30 1693 O 166.219 -0.930332 2.34736 0
M  V30 1694 C 167.532 2.28209 1.95809 0
M  V30 1695 C 169.08 2.33211 2.08762 0
M  V30 1696 C 169.555 3.56665 2.87323 0
M  V30 1697 N 171.046 3.57201 2.94892 0
M  V30 1698 C 171.781 4.49395 3.56134 0
M  V30 1699 N 171.277 5.51889 4.18796 0
M  V30 1700 N 173.07 4.37026 3.53504 0
M  V30 1701 H 165.221 2.08612 0.399333 0
M  V30 1702 H 167.484 0.917312 0.239253 0
M  V30 1703 H 167.19 3.20538 1.44736 0
M  V30 1704 H 167.064 2.33247 2.96438 0
M  V30 1705 H 169.451 1.41391 2.59023 0
M  V30 1706 H 169.532 2.32178 1.07364 0
M  V30 1707 H 169.176 4.4882 2.37746 0
M  V30 1708 H 169.106 3.54948 3.88998 0
M  V30 1709 H 171.597 2.83074 2.50354 0
M  V30 1710 H 171.91 6.18409 4.63454 0
M  V30 1711 H 170.255 5.55735 4.17353 0
M  V30 1712 H 173.446 3.56166 3.03749 0
M  V30 1713 H 173.619 5.09067 4.00942 0
M  V30 1714 N 167.025 -1.13721 1.09112 0
M  V30 1715 C 168.25 -1.89314 0.847053 0
M  V30 1716 C 168.675 -1.78416 -0.595774 0
M  V30 1717 O 168.033 -1.12942 -1.41823 0
M  V30 1718 C 168.081 -3.3701 1.28284 0
M  V30 1719 O 167.185 -4.10054 0.439267 0
M  V30 1720 H 166.526 -0.588745 0.307044 0
M  V30 1721 H 169.056 -1.43902 1.45442 0
M  V30 1722 H 169.066 -3.87834 1.26683 0
M  V30 1723 H 167.741 -3.4426 2.33363 0
M  V30 1724 H 166.318 -3.69266 0.519312 0
M  V30 1725 N 168.503 -0.877838 -1.30888 0
M  V30 1726 C 169.433 -0.35534 -2.3078 0
M  V30 1727 C 170.414 0.557994 -1.60687 0
M  V30 1728 O 171.599 0.473355 -1.88343 0
M  V30 1729 C 168.729 0.437221 -3.44537 0
M  V30 1730 C 167.683 -0.383715 -4.26276 0
M  V30 1731 C 167.009 0.535014 -5.32017 0
M  V30 1732 C 168.309 -1.62201 -4.96476 0
M  V30 1733 H 170.003 -1.19007 -2.74732 0
M  V30 1734 H 167.549 -0.573698 -1.32078 0
M  V30 1735 H 169.502 0.813334 -4.13477 0
M  V30 1736 H 168.226 1.30553 -2.99372 0
M  V30 1737 H 166.885 -0.741874 -3.59015 0
M  V30 1738 H 166.533 1.40083 -4.831 0
M  V30 1739 H 166.233 -0.0104211 -5.87599 0
M  V30 1740 H 167.757 0.907799 -6.03814 0
M  V30 1741 H 169.171 -1.31689 -5.5797 0
M  V30 1742 H 167.568 -2.10711 -5.61891 0
M  V30 1743 H 168.638 -2.37044 -4.23011 0
M  V30 1744 N 169.982 1.44106 -0.638065 0
M  V30 1745 C 170.914 2.28976 0.101205 0
M  V30 1746 C 171.927 1.4167 0.802088 0
M  V30 1747 O 173.116 1.65755 0.662375 0
M  V30 1748 C 170.216 3.18217 1.16581 0
M  V30 1749 C 169.389 4.33978 0.546066 0
M  V30 1750 C 168.448 5.04202 1.50554 0
M  V30 1751 O 167.474 5.59986 1.01999 0
M  V30 1752 N 168.676 5.06296 2.8398 0
M  V30 1753 H 171.441 2.93064 -0.627186 0
M  V30 1754 H 169.002 1.54629 -0.479731 0
M  V30 1755 H 170.994 3.62061 1.80815 0
M  V30 1756 H 169.564 2.55833 1.79634 0
M  V30 1757 H 168.784 3.93239 -0.275046 0
M  V30 1758 H 170.072 5.08675 0.112793 0
M  V30 1759 H 169.47 4.62319 3.26002 0
M  V30 1760 H 168.027 5.53907 3.43556 0
M  V30 1761 N 171.46 0.379036 1.52974 0
M  V30 1762 C 172.688 -0.20679 2.05864 0
M  V30 1763 C 173.103 -1.41356 1.25155 0
M  V30 1764 O 172.46 -1.8009 0.295588 0
M  V30 1765 C 172.511 -0.587045 3.56702 0
M  V30 1766 O 172.232 0.571776 4.34353 0
M  V30 1767 C 173.733 -1.22983 4.25899 0
M  V30 1768 H 170.953 -0.0336123 0.670158 0
M  V30 1769 H 173.497 0.541298 1.97206 0
M  V30 1770 H 171.652 -1.28504 3.65466 0
M  V30 1771 H 172.066 0.261544 5.23847 0
M  V30 1772 H 173.54 -1.44635 5.32715 0
M  V30 1773 H 174.017 -2.19416 3.80465 0
M  V30 1774 H 174.623 -0.572892 4.21424 0
M  V30 1775 N 172.938 -1.57226 0.108567 0
M  V30 1776 C 174.185 -1.94833 -0.551943 0
M  V30 1777 C 174.513 -0.991204 -1.67348 0
M  V30 1778 O 173.768 -0.0131878 -1.95696 0
M  V30 1779 C 174.067 -3.38911 -1.13463 0
M  V30 1780 C 173.733 -4.50696 -0.135509 0
M  V30 1781 C 172.395 -4.80998 0.139252 0
M  V30 1782 C 174.747 -5.18333 0.545957 0
M  V30 1783 C 172.075 -5.76259 1.10194 0
M  V30 1784 C 174.427 -6.14627 1.49721 0
M  V30 1785 C 173.091 -6.43327 1.78006 0
M  V30 1786 H 172.361 -0.712944 -0.20197 0
M  V30 1787 H 175.008 -1.90582 0.18726 0
M  V30 1788 H 173.313 -3.39805 -1.95037 0
M  V30 1789 H 175.01 -3.65317 -1.65362 0
M  V30 1790 H 171.6 -4.27087 -0.359846 0
M  V30 1791 H 175.784 -4.95087 0.346842 0
M  V30 1792 H 171.04 -5.96804 1.32795 0
M  V30 1793 H 175.214 -6.66126 2.03099 0
M  V30 1794 H 172.841 -7.1695 2.52759 0
M  V30 1795 N 174.416 0.165178 -1.56732 0
M  V30 1796 C 175.641 0.900253 -1.86843 0
M  V30 1797 C 176.066 1.74766 -0.695596 0
M  V30 1798 O 175.424 1.77786 0.35522 0
M  V30 1799 C 175.472 1.74777 -3.15413 0
M  V30 1800 O 174.576 2.85007 -2.98068 0
M  V30 1801 H 173.917 0.251832 -0.614391 0
M  V30 1802 H 176.447 0.161468 -2.03962 0
M  V30 1803 H 176.457 2.14646 -3.46974 0
M  V30 1804 H 175.132 1.12537 -4.00385 0
M  V30 1805 H 173.709 2.48676 -2.77875 0
M  V30 1806 N 175.894 1.51508 0.433938 0
M  V30 1807 C 176.826 1.69266 1.54537 0
M  V30 1808 C 177.839 0.573276 1.52373 0
M  V30 1809 O 179.028 0.847698 1.57087 0
M  V30 1810 C 176.128 1.69524 2.93453 0
M  V30 1811 C 175.301 2.98101 3.20085 0
M  V30 1812 C 174.36 2.90502 4.38742 0
M  V30 1813 O 173.386 3.64442 4.3723 0
M  V30 1814 N 174.588 2.06586 5.42496 0
M  V30 1815 H 177.353 2.65145 1.39708 0
M  V30 1816 H 174.914 1.49437 0.622922 0
M  V30 1817 H 176.906 1.62004 3.70859 0
M  V30 1818 H 175.476 0.812245 3.01863 0
M  V30 1819 H 174.696 3.19464 2.30947 0
M  V30 1820 H 175.984 3.83207 3.34708 0
M  V30 1821 H 175.382 1.45896 5.46563 0
M  V30 1822 H 173.939 2.04943 6.18742 0
M  V30 1823 N 177.372 -0.689602 1.41712 0
M  V30 1824 C 178.335 -1.78521 1.43746 0
M  V30 1825 C 179.335 -1.57436 0.327191 0
M  V30 1826 O 180.525 -1.64 0.587348 0
M  V30 1827 C 177.657 -3.16971 1.25467 0
M  V30 1828 H 178.85 -1.78108 2.41283 0
M  V30 1829 H 176.403 -0.89781 1.27942 0
M  V30 1830 H 177.138 -3.23019 0.287948 0
M  V30 1831 H 176.923 -3.33678 2.05917 0
M  V30 1832 H 178.413 -3.96935 1.2974 0
M  V30 1833 N 178.85 -1.27639 -0.924453 0
M  V30 1834 C 180.096 -1.15345 -1.67532 0
M  V30 1835 C 180.451 0.297096 -1.90092 0
M  V30 1836 O 179.744 1.21374 -1.48253 0
M  V30 1837 C 179.938 -1.87407 -3.04325 0
M  V30 1838 C 179.767 -3.3932 -2.95114 0
M  V30 1839 C 178.537 -4.08644 -2.97218 0
M  V30 1840 C 180.735 -4.35242 -2.73987 0
M  V30 1841 N 178.717 -5.47102 -2.78482 0
M  V30 1842 C 180.088 -5.6099 -2.63988 0
M  V30 1843 C 182.143 -4.25294 -2.589 0
M  V30 1844 C 180.846 -6.77924 -2.40442 0
M  V30 1845 C 182.872 -5.41952 -2.36731 0
M  V30 1846 C 182.234 -6.66658 -2.27478 0
M  V30 1847 H 178.333 -0.47696 -0.619704 0
M  V30 1848 H 180.917 -1.6115 -1.09265 0
M  V30 1849 H 179.088 -1.44053 -3.60699 0
M  V30 1850 H 180.82 -1.6759 -3.68369 0
M  V30 1851 H 177.575 -3.60136 -3.07569 0
M  V30 1852 H 177.999 -6.19852 -2.72236 0
M  V30 1853 H 182.641 -3.29598 -2.64811 0
M  V30 1854 H 180.359 -7.73699 -2.3327 0
M  V30 1855 H 183.945 -5.36137 -2.25938 0
M  V30 1856 H 182.825 -7.55405 -2.10555 0
M  V30 1857 N 180.328 1.1314 -1.09713 0
M  V30 1858 C 181.575 1.84484 -0.834987 0
M  V30 1859 C 181.903 1.83689 0.639418 0
M  V30 1860 O 181.158 1.2724 1.4869 0
M  V30 1861 C 181.457 3.32167 -1.3191 0
M  V30 1862 C 181.123 3.53139 -2.80363 0
M  V30 1863 C 179.785 3.58571 -3.20905 0
M  V30 1864 C 182.137 3.60866 -3.76065 0
M  V30 1865 C 179.465 3.69267 -4.55916 0
M  V30 1866 C 181.817 3.73089 -5.10869 0
M  V30 1867 C 180.481 3.76775 -5.50996 0
M  V30 1868 H 179.751 0.675073 -0.305544 0
M  V30 1869 H 182.398 1.33554 -1.37243 0
M  V30 1870 H 180.703 3.85469 -0.701517 0
M  V30 1871 H 182.4 3.85821 -1.09284 0
M  V30 1872 H 178.99 3.49569 -2.47991 0
M  V30 1873 H 183.174 3.55946 -3.45855 0
M  V30 1874 H 178.43 3.70388 -4.86438 0
M  V30 1875 H 182.604 3.78011 -5.84877 0
M  V30 1876 H 180.231 3.84815 -6.55608 0
M  V30 1877 N 181.806 0.884767 1.30421 0
M  V30 1878 C 183.034 0.518044 2.0031 0
M  V30 1879 C 183.449 -0.893408 1.66324 0
M  V30 1880 O 182.806 -1.5875 0.900262 0
M  V30 1881 C 182.857 0.682997 3.54989 0
M  V30 1882 O 182.578 2.03888 3.87764 0
M  V30 1883 C 184.079 0.31924 4.42149 0
M  V30 1884 H 181.299 0.200265 0.640418 0
M  V30 1885 H 183.843 1.19001 1.6631 0
M  V30 1886 H 181.998 0.0584052 3.87356 0
M  V30 1887 H 182.412 2.05735 4.82466 0
M  V30 1888 H 183.886 0.485555 5.4986 0
M  V30 1889 H 184.363 -0.742717 4.32875 0
M  V30 1890 H 184.969 0.920147 4.15227 0
M  V30 1891 N 183.284 -1.43765 0.645699 0
M  V30 1892 C 184.524 -2.03776 0.159542 0
M  V30 1893 C 184.888 -1.49792 -1.2011 0
M  V30 1894 O 186.089 -2.01398 -1.78023 0
M  V30 1895 C 184.36 -3.57036 0.161251 0
M  V30 1896 S 185.919 -4.3804 -0.258159 0
M  V30 1897 H 182.737 -0.707717 0.0682454 0
M  V30 1898 H 185.339 -1.75941 0.852352 0
M  V30 1899 H 184.043 -3.9383 1.15439 0
M  V30 1900 H 183.574 -3.89503 -0.552339 0
M  V30 1901 H 185.589 -4.7302 -1.49889 0
M  V30 1902 N 184.763 -0.387143 -1.52771 0
M  V30 1903 C 186.179 -0.037007 -1.59557 0
M  V30 1904 C 186.379 1.44801 -1.40124 0
M  V30 1905 O 185.435 2.21227 -1.21716 0
M  V30 1906 C 186.748 -0.512256 -2.96305 0
M  V30 1907 C 188.296 -0.468328 -3.09476 0
M  V30 1908 C 188.771 -0.919731 -4.4867 0
M  V30 1909 N 190.262 -0.875656 -4.54848 0
M  V30 1910 C 190.997 -1.19637 -5.6078 0
M  V30 1911 N 190.493 -1.58745 -6.74368 0
M  V30 1912 N 192.286 -1.11776 -5.50874 0
M  V30 1913 H 184.437 -1.35395 -1.63652 0
M  V30 1914 H 186.7 -0.554818 -0.768688 0
M  V30 1915 H 186.406 -1.54935 -3.15734 0
M  V30 1916 H 186.28 0.089805 -3.77093 0
M  V30 1917 H 188.667 0.559671 -2.89744 0
M  V30 1918 H 188.748 -1.10616 -2.30646 0
M  V30 1919 H 188.392 -1.94595 -4.69143 0
M  V30 1920 H 188.322 -0.258927 -5.25963 0
M  V30 1921 H 190.813 -0.587843 -3.733 0
M  V30 1922 H 191.126 -1.81586 -7.51163 0
M  V30 1923 H 189.471 -1.6263 -6.75705 0
M  V30 1924 H 192.662 -0.811264 -4.61016 0
M  V30 1925 H 192.835 -1.37103 -6.3333 0
M  V30 1926 N 186.241 1.57166 -0.116904 0
M  V30 1927 C 187.657 1.5779 0.239693 0
M  V30 1928 C 187.857 1.1295 1.66867 0
M  V30 1929 O 186.913 0.81592 2.38954 0
M  V30 1930 C 188.226 3.00699 0.00828202 0
M  V30 1931 C 189.774 3.12912 0.0743438 0
M  V30 1932 C 190.249 4.57817 -0.129348 0
M  V30 1933 N 191.74 4.63139 -0.075247 0
M  V30 1934 C 192.475 5.73023 -0.207788 0
M  V30 1935 N 191.971 6.91665 -0.396382 0
M  V30 1936 N 193.764 5.61906 -0.14751 0
M  V30 1937 H 185.915 1.84615 -1.05029 0
M  V30 1938 H 188.178 0.85311 -0.41341 0
M  V30 1939 H 187.884 3.37784 -0.979531 0
M  V30 1940 H 187.758 3.69848 0.741077 0
M  V30 1941 H 190.145 2.75686 1.05268 0
M  V30 1942 H 190.226 2.4631 -0.690297 0
M  V30 1943 H 189.87 4.95742 -1.10465 0
M  V30 1944 H 189.8 5.22507 0.655253 0
M  V30 1945 H 192.291 3.7784 0.0670898 0
M  V30 1946 H 192.604 7.71255 -0.488437 0
M  V30 1947 H 190.949 6.93654 -0.432329 0
M  V30 1948 H 194.14 4.681 -0.00115036 0
M  V30 1949 H 194.313 6.47501 -0.254247 0
M  V30 1950 N 187.719 -0.156864 1.56817 0
M  V30 1951 C 188.959 -0.877453 1.84608 0
M  V30 1952 C 189.323 -1.78791 0.699845 0
M  V30 1953 O 190.524 -2.5472 0.858553 0
M  V30 1954 C 188.795 -1.63992 3.17555 0
M  V30 1955 S 190.354 -2.40729 3.66872 0
M  V30 1956 H 187.172 -0.293612 0.647544 0
M  V30 1957 H 189.774 -0.138099 1.95012 0
M  V30 1958 H 188.478 -0.962363 3.98957 0
M  V30 1959 H 188.009 -2.42038 3.10131 0
M  V30 1960 H 190.024 -3.65725 3.3535 0
M  V30 1961 N 189.197 -1.51736 -0.425897 0
M  V30 1962 C 190.427 -1.68549 -1.19476 0
M  V30 1963 C 190.835 -0.387288 -1.85194 0
M  V30 1964 O 190.178 0.645142 -1.71999 0
M  V30 1965 C 190.24 -2.75275 -2.31223 0
M  V30 1966 C 189.904 -4.17534 -1.8578 0
M  V30 1967 C 190.901 -5.01936 -1.35485 0
M  V30 1968 C 188.586 -4.6369 -1.93123 0
M  V30 1969 C 190.58 -6.30559 -0.931347 0
M  V30 1970 C 188.267 -5.92307 -1.50384 0
M  V30 1971 C 189.265 -6.75569 -1.00473 0
M  V30 1972 O 188.953 -8.0178 -0.583452 0
M  V30 1973 H 188.685 -0.568525 -0.365725 0
M  V30 1974 H 191.239 -1.98982 -0.509444 0
M  V30 1975 H 189.469 -2.40182 -3.03067 0
M  V30 1976 H 191.158 -2.80853 -2.93047 0
M  V30 1977 H 191.924 -4.67475 -1.29197 0
M  V30 1978 H 187.803 -3.98997 -2.30916 0
M  V30 1979 H 191.347 -6.95498 -0.541084 0
M  V30 1980 H 187.244 -6.2628 -1.56346 0
M  V30 1981 H 188.012 -8.1543 -0.708275 0
M  V30 1982 N 190.675 0.682077 -1.42076 0
M  V30 1983 C 192.091 0.994324 -1.24841 0
M  V30 1984 C 192.291 2.0096 -0.147389 0
M  V30 1985 O 191.347 2.47822 0.483782 0
M  V30 1986 C 192.66 1.50607 -2.60265 0
M  V30 1987 C 194.208 1.62421 -2.6756 0
M  V30 1988 C 194.683 2.16994 -4.03333 0
M  V30 1989 N 196.174 2.24337 -4.0525 0
M  V30 1990 C 196.909 2.67621 -5.07116 0
M  V30 1991 N 196.405 3.1041 -6.19368 0
M  V30 1992 N 198.198 2.67305 -4.94474 0
M  V30 1993 H 190.349 0.00973908 -2.12398 0
M  V30 1994 H 192.612 0.0668593 -0.945639 0
M  V30 1995 H 192.318 0.834583 -3.41654 0
M  V30 1996 H 192.192 2.48602 -2.83684 0
M  V30 1997 H 194.579 2.28678 -1.86521 0
M  V30 1998 H 194.66 0.629352 -2.47937 0
M  V30 1999 H 194.304 1.51349 -4.84826 0
M  V30 2000 H 194.234 3.17258 -4.20304 0
M  V30 2001 H 196.725 1.94158 -3.24209 0
M  V30 2002 H 197.038 3.42103 -6.92954 0
M  V30 2003 H 195.383 3.08286 -6.22884 0
M  V30 2004 H 198.574 2.33233 -4.05857 0
M  V30 2005 H 198.747 3.00718 -5.73997 0
M  V30 2006 N 192.153 1.28127 0.917671 0
M  V30 2007 C 193.401 1.14825 1.66312 0
M  V30 2008 C 193.722 -0.304379 1.9261 0
M  V30 2009 O 192.992 -1.21149 1.53947 0
M  V30 2010 H 191.572 0.421953 0.616413 0
M  V30 2011 H 194.234 1.608 1.10134 0
M  V30 2012 H 193.33 1.68489 2.62712 0
M  V30 2013 N 193.631 -1.12557 1.10312 0
M  V30 2014 C 194.579 -2.20325 0.745629 0
M  V30 2015 C 195.573 -1.67429 -0.25763 0
M  V30 2016 O 196.779 -1.79612 -0.118132 0
M  V30 2017 H 193.154 -0.718118 0.223182 0
M  V30 2018 H 195.125 -2.47733 1.66346 0
M  V30 2019 C 193.874 -3.47168 0.192262 0
M  V30 2020 H 193.197 -3.88215 0.955475 0
M  V30 2021 H 194.637 -4.23995 -0.0198274 0
M  V30 2022 C 193.096 -3.19298 -1.07472 0
M  V30 2023 O 193.626 -3.3891 -2.15645 0
M  V30 2024 N 191.832 -2.73113 -0.992847 0
M  V30 2025 H 191.379 -2.57354 -0.112474 0
M  V30 2026 H 191.337 -2.54842 -1.84127 0
M  V30 2027 N 195.109 -0.891671 -1.2995 0
M  V30 2028 C 196.039 -0.379797 -2.30391 0
M  V30 2029 C 197.02 0.540919 -1.6127 0
M  V30 2030 O 198.205 0.453352 -1.88834 0
M  V30 2031 C 195.335 0.400654 -3.44981 0
M  V30 2032 C 194.289 -0.428905 -4.25846 0
M  V30 2033 C 193.615 0.478557 -5.32554 0
M  V30 2034 C 194.915 -1.67458 -4.94727 0
M  V30 2035 H 196.609 -1.21914 -2.73454 0
M  V30 2036 H 194.155 -0.587675 -1.31462 0
M  V30 2037 H 196.108 0.769434 -4.14316 0
M  V30 2038 H 194.832 1.27371 -3.0074 0
M  V30 2039 H 193.491 -0.779911 -3.58208 0
M  V30 2040 H 193.139 1.34951 -4.84559 0
M  V30 2041 H 192.839 -0.0727433 -5.87555 0
M  V30 2042 H 194.363 0.843705 -6.04743 0
M  V30 2043 H 195.777 -1.376 -5.56542 0
M  V30 2044 H 194.174 -2.16659 -5.59624 0
M  V30 2045 H 195.244 -2.41518 -4.20473 0
M  V30 2046 N 196.587 1.43421 -0.653314 0
M  V30 2047 C 197.833 2.02111 -0.166992 0
M  V30 2048 C 198.166 1.51423 1.21592 0
M  V30 2049 O 197.441 0.707389 1.8118 0
M  V30 2050 C 197.724 3.5966 -0.177948 0
M  V30 2051 C 197.577 4.20579 -1.59478 0
M  V30 2052 C 198.896 4.37413 0.4856 0
M  V30 2053 H 196.015 0.734374 -0.0621557 0
M  V30 2054 H 198.657 1.70717 -0.834016 0
M  V30 2055 H 196.807 3.86537 0.390032 0
M  V30 2056 H 198.479 4.04732 -2.21336 0
M  V30 2057 H 196.722 3.77226 -2.14204 0
M  V30 2058 H 197.393 5.29665 -1.5543 0
M  V30 2059 H 199.869 4.161 0.00234528 0
M  V30 2060 H 198.745 5.47075 0.447207 0
M  V30 2061 H 199.006 4.13672 1.55974 0
M  V30 2062 N 198.065 0.39524 1.52563 0
M  V30 2063 C 199.29 -0.187456 2.06551 0
M  V30 2064 C 199.715 -1.39249 1.26457 0
M  V30 2065 O 199.073 -1.78947 0.291151 0
M  V30 2066 C 199.121 -0.529985 3.56684 0
M  V30 2067 O 198.225 -1.62307 3.79118 0
M  V30 2068 H 197.566 -0.0202537 0.663691 0
M  V30 2069 H 200.096 0.564426 1.96661 0
M  V30 2070 H 200.106 -0.792598 4.00227 0
M  V30 2071 H 198.781 0.350987 4.14416 0
M  V30 2072 H 197.358 -1.3537 3.47461 0
M  V30 2073 N 199.544 -1.57102 0.125237 0
M  V30 2074 C 200.793 -1.94582 -0.531095 0
M  V30 2075 C 201.106 -1.01126 -1.6743 0
M  V30 2076 O 202.312 -1.28097 -2.39381 0
M  V30 2077 C 200.768 -3.45839 -0.996164 0
M  V30 2078 C 200.376 -4.47842 0.118926 0
M  V30 2079 C 202.12 -3.92227 -1.62352 0
M  V30 2080 C 200.027 -5.90284 -0.363192 0
M  V30 2081 H 198.957 -0.726391 -0.20217 0
M  V30 2082 H 201.608 -1.82339 0.206092 0
M  V30 2083 H 199.99 -3.53338 -1.78796 0
M  V30 2084 H 201.164 -4.52018 0.895358 0
M  V30 2085 H 199.479 -4.11243 0.653324 0
M  V30 2086 H 202.076 -4.96069 -1.99548 0
M  V30 2087 H 202.419 -3.32552 -2.50429 0
M  V30 2088 H 202.952 -3.87554 -0.897019 0
M  V30 2089 H 199.691 -6.53728 0.481679 0
M  V30 2090 H 199.211 -5.89515 -1.10597 0
M  V30 2091 H 200.89 -6.41752 -0.822377 0
M  V30 2092 N 201.022 0.148545 -1.56898 0
M  V30 2093 C 201.972 1.1886 -1.94567 0
M  V30 2094 C 202.956 1.3863 -0.816735 0
M  V30 2095 O 204.148 1.40218 -1.08018 0
M  V30 2096 C 201.277 2.52262 -2.32849 0
M  V30 2097 C 200.363 2.36092 -3.52309 0
M  V30 2098 N 200.754 1.89674 -4.6889 0
M  V30 2099 C 199.052 2.66848 -3.57363 0
M  V30 2100 C 199.753 1.86511 -5.50989 0
M  V30 2101 N 198.729 2.29766 -4.92655 0
M  V30 2102 H 202.531 0.821793 -2.82177 0
M  V30 2103 H 200.045 0.356615 -1.58436 0
M  V30 2104 H 202.042 3.27447 -2.58039 0
M  V30 2105 H 200.702 2.89727 -1.46589 0
M  V30 2106 H 201.713 1.59663 -4.92674 0
M  V30 2107 H 198.39 3.08198 -2.81639 0
M  V30 2108 H 199.78 1.52128 -6.54452 0
M  V30 2109 N 202.5 1.5196 0.417844 0
M  V30 2110 C 203.448 1.75278 1.52907 0
M  V30 2111 C 204.442 0.619611 1.57662 0
M  V30 2112 O 205.648 0.801457 1.61173 0
M  V30 2113 H 202.023 0.554141 0.508362 0
M  V30 2114 H 203.994 2.68389 1.30422 0
M  V30 2115 C 202.743 1.91262 2.90369 0
M  V30 2116 H 202.066 2.77872 2.8745 0
M  V30 2117 H 203.506 2.11581 3.67436 0
M  V30 2118 C 201.965 0.677431 3.30019 0
M  V30 2119 O 202.495 -0.158799 4.01386 0
M  V30 2120 N 200.701 0.515851 2.85985 0
M  V30 2121 H 200.248 1.19744 2.28077 0
M  V30 2122 H 200.206 -0.309315 3.12875 0
M  V30 2123 N 203.978 -0.674533 1.42435 0
M  V30 2124 C 205.225 -1.43459 1.42919 0
M  V30 2125 C 205.553 -1.94446 0.0457312 0
M  V30 2126 O 204.808 -1.7132 -0.94593 0
M  V30 2127 C 205.107 -2.64767 2.40069 0
M  V30 2128 C 204.773 -2.3232 3.86443 0
M  V30 2129 C 203.435 -2.23182 4.26314 0
M  V30 2130 C 205.787 -2.05977 4.78773 0
M  V30 2131 C 203.115 -1.85827 5.56494 0
M  V30 2132 C 205.467 -1.70125 6.09295 0
M  V30 2133 C 204.131 -1.59498 6.48164 0
M  V30 2134 H 203.401 -0.524952 0.522978 0
M  V30 2135 H 206.048 -0.769097 1.75377 0
M  V30 2136 H 204.353 -3.36349 2.00939 0
M  V30 2137 H 206.05 -3.22949 2.37707 0
M  V30 2138 H 202.64 -2.40334 3.54877 0
M  V30 2139 H 206.824 -2.11969 4.48757 0
M  V30 2140 H 202.08 -1.76168 5.8547 0
M  V30 2141 H 206.254 -1.48767 6.80324 0
M  V30 2142 H 203.881 -1.30322 7.48946 0
M  V30 2143 N 205.456 -1.28612 -0.910864 0
M  V30 2144 C 206.404 -1.1265 -2.03501 0
M  V30 2145 C 207.398 -0.0450054 -1.6934 0
M  V30 2146 O 208.604 -0.203988 -1.7884 0
M  V30 2147 H 204.979 -0.347639 -0.666822 0
M  V30 2148 H 206.95 -2.07849 -2.14106 0
M  V30 2149 C 205.699 -0.808143 -3.38178 0
M  V30 2150 H 205.022 -1.63231 -3.6496 0
M  V30 2151 H 206.462 -0.736426 -4.17556 0
M  V30 2152 C 204.921 0.488226 -3.33344 0
M  V30 2153 O 205.451 1.51766 -3.71927 0
M  V30 2154 N 203.657 0.490009 -2.86439 0
M  V30 2155 H 203.204 -0.348161 -2.55236 0
M  V30 2156 H 203.162 1.35741 -2.83587 0
M  V30 2157 N 206.934 1.1197 -1.10907 0
M  V30 2158 C 208.183 1.82947 -0.849302 0
M  V30 2159 C 208.496 1.85275 0.627112 0
M  V30 2160 O 209.702 2.52296 1.00295 0
M  V30 2161 C 208.158 3.28529 -1.46959 0
M  V30 2162 C 207.766 3.34546 -2.97965 0
M  V30 2163 C 209.51 4.04443 -1.28942 0
M  V30 2164 C 207.417 4.74491 -3.53004 0
M  V30 2165 H 206.347 0.685477 -0.314065 0
M  V30 2166 H 208.998 1.2604 -1.33365 0
M  V30 2167 H 207.38 3.85333 -0.912917 0
M  V30 2168 H 208.554 2.87654 -3.59989 0
M  V30 2169 H 206.869 2.72108 -3.15192 0
M  V30 2170 H 209.466 5.07787 -1.67502 0
M  V30 2171 H 209.809 4.15656 -0.231456 0
M  V30 2172 H 210.342 3.5401 -1.81443 0
M  V30 2173 H 207.081 4.68474 -4.58489 0
M  V30 2174 H 206.601 5.21816 -2.9575 0
M  V30 2175 H 208.28 5.4344 -3.51115 0
M  V30 2176 N 208.412 0.89855 1.29475 0
M  V30 2177 C 209.36 0.365253 2.29714 0
M  V30 2178 C 210.354 -0.534993 1.6073 0
M  V30 2179 O 211.56 -0.417921 1.75081 0
M  V30 2180 H 207.935 0.0994853 0.74539 0
M  V30 2181 H 209.906 1.22406 2.72138 0
M  V30 2182 C 208.655 -0.393159 3.4547 0
M  V30 2183 H 207.978 0.290332 3.98744 0
M  V30 2184 H 209.418 -0.731189 4.17648 0
M  V30 2185 C 207.877 -1.59539 2.9673 0
M  V30 2186 O 208.407 -2.69469 2.97908 0
M  V30 2187 N 206.613 -1.43716 2.52575 0
M  V30 2188 H 206.16 -0.542828 2.51816 0
M  V30 2189 H 206.118 -2.24288 2.20323 0
M  V30 2190 N 209.89 -1.43072 0.660911 0
M  V30 2191 C 211.12 -2.05769 0.185153 0
M  V30 2192 C 211.528 -1.49668 -1.15742 0
M  V30 2193 O 210.871 -0.625649 -1.72717 0
M  V30 2194 C 210.933 -3.59489 0.0278237 0
M  V30 2195 C 210.597 -4.38212 1.2969 0
M  V30 2196 C 211.594 -4.69772 2.22734 0
M  V30 2197 C 209.279 -4.7809 1.54063 0
M  V30 2198 C 211.273 -5.40129 3.38437 0
M  V30 2199 C 208.96 -5.4819 2.70058 0
M  V30 2200 C 209.958 -5.79132 3.62071 0
M  V30 2201 O 209.646 -6.47798 4.76039 0
M  V30 2202 H 209.378 -0.669873 0.0908086 0
M  V30 2203 H 211.932 -1.84436 0.90402 0
M  V30 2204 H 210.162 -3.79426 -0.746489 0
M  V30 2205 H 211.851 -4.03862 -0.406275 0
M  V30 2206 H 212.617 -4.39476 2.05149 0
M  V30 2207 H 208.496 -4.53408 0.833215 0
M  V30 2208 H 212.04 -5.64198 4.10277 0
M  V30 2209 H 207.937 -5.77902 2.87574 0
M  V30 2210 H 208.705 -6.66283 4.75404 0
M  V30 2211 N 211.368 -0.403325 -1.52352 0
M  V30 2212 C 212.784 -0.0539281 -1.59509 0
M  V30 2213 C 212.984 1.43307 -1.41652 0
M  V30 2214 O 212.04 2.19924 -1.24056 0
M  V30 2215 C 213.353 -0.543654 -2.95745 0
M  V30 2216 C 214.901 -0.501125 -3.08962 0
M  V30 2217 C 215.376 -0.967267 -4.47669 0
M  V30 2218 N 216.867 -0.923849 -4.53893 0
M  V30 2219 C 217.602 -1.25578 -5.5948 0
M  V30 2220 N 217.098 -1.65889 -6.72646 0
M  V30 2221 N 218.891 -1.17613 -5.49658 0
M  V30 2222 H 211.042 -1.37123 -1.62206 0
M  V30 2223 H 213.305 -0.56294 -0.76276 0
M  V30 2224 H 213.011 -1.58275 -3.14073 0
M  V30 2225 H 212.885 0.0498042 -3.77167 0
M  V30 2226 H 215.272 0.528909 -2.90321 0
M  V30 2227 H 215.353 -1.13056 -2.2946 0
M  V30 2228 H 214.997 -1.9956 -4.67053 0
M  V30 2229 H 214.927 -0.314698 -5.25659 0
M  V30 2230 H 217.418 -0.627403 -3.72655 0
M  V30 2231 H 217.731 -1.89543 -7.49195 0
M  V30 2232 H 216.076 -1.69787 -6.73942 0
M  V30 2233 H 219.267 -0.860115 -4.6013 0
M  V30 2234 H 219.44 -1.43812 -6.3184 0
M  V30 2235 N 212.846 1.57033 -0.133567 0
M  V30 2236 C 214.095 1.94861 0.520768 0
M  V30 2237 C 214.408 1.02012 1.66892 0
M  V30 2238 O 215.614 1.29365 2.38699 0
M  V30 2239 C 214.07 3.46362 0.977809 0
M  V30 2240 C 213.678 4.47773 -0.142674 0
M  V30 2241 C 215.422 3.93083 1.60269 0
M  V30 2242 C 213.329 5.90468 0.331883 0
M  V30 2243 H 212.259 0.727453 0.198315 0
M  V30 2244 H 214.91 1.82227 -0.215759 0
M  V30 2245 H 213.292 3.54282 1.7692 0
M  V30 2246 H 214.466 4.51536 -0.919317 0
M  V30 2247 H 212.781 4.10891 -0.675124 0
M  V30 2248 H 215.378 4.97121 1.96914 0
M  V30 2249 H 215.721 3.33876 2.48662 0
M  V30 2250 H 216.254 3.88025 0.876453 0
M  V30 2251 H 212.993 6.53463 -0.516341 0
M  V30 2252 H 212.513 5.90094 1.07469 0
M  V30 2253 H 214.192 6.42179 0.788332 0
M  V30 2254 N 214.325 -0.140222 1.56975 0
M  V30 2255 C 215.257 -1.19818 1.95388 0
M  V30 2256 C 216.27 -1.38816 0.850525 0
M  V30 2257 O 217.459 -1.38267 1.12891 0
M  V30 2258 C 214.559 -2.56189 2.21857 0
M  V30 2259 C 213.732 -2.58077 3.5315 0
M  V30 2260 C 212.791 -3.76037 3.6808 0
M  V30 2261 O 211.817 -3.60598 4.40406 0
M  V30 2262 N 213.019 -4.93763 3.05251 0
M  V30 2263 H 215.784 -0.871609 2.86746 0
M  V30 2264 H 213.345 -0.32972 1.58507 0
M  V30 2265 H 215.337 -3.33623 2.2908 0
M  V30 2266 H 213.907 -2.81111 1.36731 0
M  V30 2267 H 213.127 -1.6651 3.57307 0
M  V30 2268 H 214.415 -2.56377 4.39486 0
M  V30 2269 H 213.813 -5.09209 2.46419 0
M  V30 2270 H 212.37 -5.68949 3.18026 0
M  V30 2271 N 215.803 -1.52179 -0.40978 0
M  V30 2272 C 217.043 -1.67882 -1.16597 0
M  V30 2273 C 217.407 -0.399795 -1.87791 0
M  V30 2274 O 218.608 -0.43292 -2.65291 0
M  V30 2275 C 216.879 -2.86662 -2.13448 0
M  V30 2276 S 218.438 -3.22843 -2.97183 0
M  V30 2277 H 215.256 -0.59118 -0.395002 0
M  V30 2278 H 217.858 -1.9017 -0.453373 0
M  V30 2279 H 216.562 -3.77998 -1.59831 0
M  V30 2280 H 216.093 -2.66645 -2.89247 0
M  V30 2281 H 218.108 -2.71415 -4.15389 0
M  V30 2282 N 217.281 0.66697 -1.42791 0
M  V30 2283 C 218.506 1.46004 -1.47301 0
M  V30 2284 C 218.931 1.87894 -0.0880317 0
M  V30 2285 O 218.289 1.56502 0.915253 0
M  V30 2286 C 218.337 2.68031 -2.41229 0
M  V30 2287 O 217.441 3.6659 -1.88906 0
M  V30 2288 H 216.782 0.43832 -0.49877 0
M  V30 2289 H 219.312 0.817391 -1.87563 0
M  V30 2290 H 219.322 3.1601 -2.58073 0
M  V30 2291 H 217.997 2.36883 -3.41847 0
M  V30 2292 H 216.574 3.25661 -1.81656 0
M  V30 2293 N 218.759 1.29093 0.90403 0
M  V30 2294 C 220.005 1.16986 1.65656 0
M  V30 2295 C 220.338 -0.278925 1.92186 0
M  V30 2296 O 219.613 -1.2019 1.5292 0
M  V30 2297 C 219.896 1.97908 3.0084 0
M  V30 2298 C 219.749 3.50903 2.81403 0
M  V30 2299 C 221.068 1.80208 4.01513 0
M  V30 2300 H 218.187 0.426346 0.601164 0
M  V30 2301 H 220.829 1.58518 1.04747 0
M  V30 2302 H 218.979 1.62616 3.52829 0
M  V30 2303 H 220.651 3.96153 2.36348 0
M  V30 2304 H 218.894 3.76045 2.1627 0
M  V30 2305 H 219.565 4.02791 3.77443 0
M  V30 2306 H 222.041 2.11025 3.58619 0
M  V30 2307 H 220.917 2.39184 4.94047 0
M  V30 2308 H 221.178 0.756119 4.35586 0
M  V30 2309 N 220.237 -1.11381 1.11499 0
M  V30 2310 C 221.462 -1.87475 0.887019 0
M  V30 2311 C 221.887 -1.79639 -0.557796 0
M  V30 2312 O 221.245 -1.15924 -1.39396 0
M  V30 2313 C 221.293 -3.34213 1.35403 0
M  V30 2314 O 220.397 -4.0903 0.526146 0
M  V30 2315 H 219.738 -0.582099 0.319463 0
M  V30 2316 H 222.268 -1.40785 1.48461 0
M  V30 2317 H 222.278 -3.8506 1.34881 0
M  V30 2318 H 220.953 -3.39232 2.40612 0
M  V30 2319 H 219.53 -3.68082 0.597522 0
M  V30 2320 N 221.715 -0.905404 -1.28997 0
M  V30 2321 C 222.678 -0.392253 -2.25819 0
M  V30 2322 C 223.678 0.476753 -1.5357 0
M  V30 2323 O 224.868 0.280994 -1.71919 0
M  V30 2324 C 222 0.438588 -3.38067 0
M  V30 2325 H 223.193 -1.24743 -2.72725 0
M  V30 2326 H 220.746 -0.684051 -1.40536 0
M  V30 2327 H 221.481 1.31352 -2.96508 0
M  V30 2328 H 221.266 -0.184167 -3.91667 0
M  V30 2329 H 222.756 0.78873 -4.10084 0
M  V30 2330 N 223.193 1.4272 -0.668489 0
M  V30 2331 C 224.123 2.335 -0.000100175 0
M  V30 2332 C 225.104 1.50328 0.795964 0
M  V30 2333 O 226.289 1.78949 0.754385 0
M  V30 2334 C 223.419 3.33874 0.956302 0
M  V30 2335 C 222.373 4.27152 0.269278 0
M  V30 2336 C 221.699 5.17684 1.33818 0
M  V30 2337 C 222.999 5.15373 -0.847805 0
M  V30 2338 H 224.693 2.89639 -0.758244 0
M  V30 2339 H 222.239 1.39269 -0.366079 0
M  V30 2340 H 224.192 3.9629 1.43292 0
M  V30 2341 H 222.916 2.76025 1.74579 0
M  V30 2342 H 221.575 3.66123 -0.187042 0
M  V30 2343 H 221.223 4.56165 2.1195 0
M  V30 2344 H 220.923 5.80918 0.883659 0
M  V30 2345 H 222.447 5.82974 1.81586 0
M  V30 2346 H 223.861 5.7151 -0.452681 0
M  V30 2347 H 222.258 5.87407 -1.22773 0
M  V30 2348 H 223.328 4.5415 -1.69929 0
M  V30 2349 N 224.671 0.411399 1.52136 0
M  V30 2350 C 225.619 -0.427633 2.28635 0
M  V30 2351 C 226.613 -1.04383 1.33419 0
M  V30 2352 O 227.819 -0.981772 1.50868 0
M  V30 2353 H 224.194 -0.156689 0.735495 0
M  V30 2354 H 226.165 0.238761 2.97443 0
M  V30 2355 C 224.914 -1.53082 3.12188 0
M  V30 2356 H 224.237 -1.06601 3.85326 0
M  V30 2357 H 225.677 -2.09167 3.68816 0
M  V30 2358 C 224.136 -2.49946 2.25895 0
M  V30 2359 O 224.666 -3.53884 1.90076 0
M  V30 2360 N 222.872 -2.2021 1.8962 0
M  V30 2361 H 222.419 -1.35719 2.18948 0
M  V30 2362 H 222.377 -2.85266 1.32176 0
M  V30 2363 N 226.149 -1.5696 0.141893 0
M  V30 2364 C 227.081 -2.13619 -0.830627 0
M  V30 2365 C 228.094 -1.08439 -1.21428 0
M  V30 2366 O 229.283 -1.35734 -1.15925 0
M  V30 2367 C 226.383 -2.63978 -2.12529 0
M  V30 2368 C 225.556 -3.93504 -1.9098 0
M  V30 2369 C 224.615 -4.29225 -3.04388 0
M  V30 2370 O 223.641 -4.97641 -2.76302 0
M  V30 2371 N 224.843 -3.88393 -4.31429 0
M  V30 2372 H 227.608 -2.97691 -0.34641 0
M  V30 2373 H 225.169 -1.61846 -0.0418375 0
M  V30 2374 H 227.161 -2.84891 -2.87436 0
M  V30 2375 H 225.731 -1.84659 -2.52229 0
M  V30 2376 H 224.951 -3.81269 -1.00139 0
M  V30 2377 H 226.239 -4.78154 -1.73914 0
M  V30 2378 H 225.637 -3.33257 -4.57117 0
M  V30 2379 H 224.194 -4.14368 -5.03133 0
M  V30 2380 N 227.627 0.131896 -1.57047 0
M  V30 2381 C 228.875 0.840269 -1.83804 0
M  V30 2382 C 229.196 1.81017 -0.72512 0
M  V30 2383 O 228.466 1.94272 0.251995 0
M  V30 2384 H 227.046 0.313294 -0.678127 0
M  V30 2385 H 229.708 0.122294 -1.94516 0
M  V30 2386 H 228.804 1.39335 -2.79271 0
M  V30 2387 N 229.106 1.52395 0.401703 0
M  V30 2388 C 230.038 1.72505 1.50912 0
M  V30 2389 C 231.051 0.605468 1.51122 0
M  V30 2390 O 232.24 0.880828 1.55254 0
M  V30 2391 C 229.34 1.75711 2.89791 0
M  V30 2392 C 228.513 3.04824 3.1369 0
M  V30 2393 C 227.572 2.99743 4.32482 0
M  V30 2394 O 226.598 3.73635 4.29402 0
M  V30 2395 N 227.8 2.18047 5.37992 0
M  V30 2396 H 230.565 2.68049 1.34052 0
M  V30 2397 H 228.126 1.50724 0.591084 0
M  V30 2398 H 230.118 1.69834 3.6734 0
M  V30 2399 H 228.688 0.876092 3.00072 0
M  V30 2400 H 227.908 3.2429 2.24119 0
M  V30 2401 H 229.196 3.90221 3.26504 0
M  V30 2402 H 228.594 1.57456 5.43345 0
M  V30 2403 H 227.151 2.18021 6.14256 0
M  V30 2404 N 230.584 -0.659388 1.43143 0
M  V30 2405 C 231.83 -1.42145 1.44647 0
M  V30 2406 C 232.163 -1.9408 0.0681907 0
M  V30 2407 O 231.438 -1.71899 -0.910007 0
M  V30 2408 C 231.721 -2.60735 2.48373 0
M  V30 2409 C 231.574 -2.14332 3.95451 0
M  V30 2410 C 232.893 -3.62951 2.48906 0
M  V30 2411 H 230.012 -0.51552 0.526696 0
M  V30 2412 H 232.654 -0.748069 1.74654 0
M  V30 2413 H 230.804 -3.18184 2.22916 0
M  V30 2414 H 232.476 -1.61932 4.31944 0
M  V30 2415 H 230.719 -1.4576 4.08578 0
M  V30 2416 H 231.39 -2.99583 4.63631 0
M  V30 2417 H 233.866 -3.1525 2.71582 0
M  V30 2418 H 232.742 -4.43487 3.23435 0
M  V30 2419 H 233.003 -4.15126 1.52061 0
M  V30 2420 N 232.062 -1.29571 -0.897171 0
M  V30 2421 C 233.308 -1.18873 -1.65048 0
M  V30 2422 C 233.663 0.256707 -1.9068 0
M  V30 2423 O 232.956 1.18202 -1.50794 0
M  V30 2424 C 233.15 -1.9382 -3.00281 0
M  V30 2425 C 232.979 -3.45503 -2.8785 0
M  V30 2426 C 231.749 -4.14856 -2.88483 0
M  V30 2427 C 233.947 -4.40956 -2.64693 0
M  V30 2428 N 231.929 -5.52886 -2.66815 0
M  V30 2429 C 233.3 -5.66464 -2.5203 0
M  V30 2430 C 235.355 -4.3069 -2.49821 0
M  V30 2431 C 234.058 -6.82871 -2.26008 0
M  V30 2432 C 236.084 -5.46852 -2.25182 0
M  V30 2433 C 235.446 -6.71333 -2.13286 0
M  V30 2434 H 231.545 -0.489998 -0.609447 0
M  V30 2435 H 234.129 -1.63431 -1.05822 0
M  V30 2436 H 232.3 -1.51671 -3.57562 0
M  V30 2437 H 234.032 -1.75366 -3.64731 0
M  V30 2438 H 230.787 -3.66579 -2.99861 0
M  V30 2439 H 231.211 -6.25487 -2.59027 0
M  V30 2440 H 235.853 -3.35141 -2.5776 0
M  V30 2441 H 233.571 -7.78473 -2.16806 0
M  V30 2442 H 237.157 -5.40809 -2.14515 0
M  V30 2443 H 236.037 -7.59701 -1.94485 0
M  V30 2444 N 233.54 1.10788 -1.12088 0
M  V30 2445 C 234.789 1.82036 -0.868659 0
M  V30 2446 C 235.102 1.85929 0.607426 0
M  V30 2447 O 236.308 2.53346 0.97613 0
M  V30 2448 C 234.764 3.26951 -1.50435 0
M  V30 2449 C 234.372 3.31367 -3.01496 0
M  V30 2450 C 236.116 4.03053 -1.33225 0
M  V30 2451 C 234.023 4.7072 -3.58017 0
M  V30 2452 H 232.953 0.682108 -0.321318 0
M  V30 2453 H 235.604 1.24618 -1.34694 0
M  V30 2454 H 233.986 3.84343 -0.953735 0
M  V30 2455 H 235.16 2.83819 -3.6302 0
M  V30 2456 H 233.475 2.6875 -3.18061 0
M  V30 2457 H 236.072 5.05981 -1.72878 0
M  V30 2458 H 236.415 4.15387 -0.275529 0
M  V30 2459 H 236.948 3.52066 -1.85188 0
M  V30 2460 H 233.687 4.63585 -4.63432 0
M  V30 2461 H 233.207 5.1865 -3.01268 0
M  V30 2462 H 234.886 5.39685 -3.56859 0
M  V30 2463 N 235.018 0.912232 1.28515 0
M  V30 2464 C 236.266 0.543523 1.94654 0
M  V30 2465 C 236.587 -0.9155 1.72173 0
M  V30 2466 O 235.857 -1.64708 1.06058 0
M  V30 2467 H 234.437 0.198017 0.720277 0
M  V30 2468 H 237.099 1.16126 1.56527 0
M  V30 2469 H 236.195 0.736684 3.03281 0
M  V30 2470 N 236.496 -1.42363 0.676048 0
M  V30 2471 C 237.744 -2.01123 0.198437 0
M  V30 2472 C 238.065 -1.53731 -1.19966 0
M  V30 2473 O 237.335 -0.759518 -1.80577 0
M  V30 2474 H 235.915 -0.743678 0.0703721 0
M  V30 2475 H 238.577 -1.74263 0.872837 0
M  V30 2476 H 237.673 -3.11454 0.200686 0
M  V30 2477 N 237.974 -0.419461 -1.51915 0
M  V30 2478 C 239.39 -0.0708431 -1.59443 0
M  V30 2479 C 239.59 1.41796 -1.43164 0
M  V30 2480 O 238.646 2.18596 -1.26381 0
M  V30 2481 C 239.959 -0.574991 -2.95151 0
M  V30 2482 C 241.507 -0.533867 -3.08413 0
M  V30 2483 C 241.982 -1.01469 -4.46618 0
M  V30 2484 N 243.473 -0.971939 -4.52888 0
M  V30 2485 C 244.208 -1.31505 -5.58116 0
M  V30 2486 N 243.704 -1.73014 -6.70849 0
M  V30 2487 N 245.497 -1.23436 -5.48379 0
M  V30 2488 H 237.648 -1.38836 -1.60743 0
M  V30 2489 H 239.911 -0.570998 -0.756747 0
M  V30 2490 H 239.617 -1.61597 -3.12377 0
M  V30 2491 H 239.491 0.00979777 -3.77199 0
M  V30 2492 H 241.878 0.498086 -2.90866 0
M  V30 2493 H 241.959 -1.15484 -2.28248 0
M  V30 2494 H 241.603 -2.04502 -4.6491 0
M  V30 2495 H 241.533 -0.370433 -5.25295 0
M  V30 2496 H 244.024 -0.666893 -3.71969 0
M  V30 2497 H 244.337 -1.97479 -7.47143 0
M  V30 2498 H 242.682 -1.76926 -6.72103 0
M  V30 2499 H 245.873 -0.908869 -4.59192 0
M  V30 2500 H 246.046 -1.50506 -6.30279 0
M  V30 2501 N 239.452 1.56882 -0.150215 0
M  V30 2502 C 240.701 1.95403 0.500071 0
M  V30 2503 C 241.014 1.03777 1.658 0
M  V30 2504 O 242.22 1.31889 2.37313 0
M  V30 2505 C 240.676 3.4738 0.941018 0
M  V30 2506 C 240.284 4.47596 -0.190158 0
M  V30 2507 C 242.028 3.9476 1.56091 0
M  V30 2508 C 239.935 5.90787 0.269237 0
M  V30 2509 H 238.865 0.729515 0.190588 0
M  V30 2510 H 241.516 1.81988 -0.235074 0
M  V30 2511 H 239.898 3.56138 1.73152 0
M  V30 2512 H 241.072 4.50536 -0.967157 0
M  V30 2513 H 239.387 4.10151 -0.718666 0
M  V30 2514 H 241.984 4.99181 1.9163 0
M  V30 2515 H 242.327 3.36494 2.45107 0
M  V30 2516 H 242.86 3.88932 0.835249 0
M  V30 2517 H 239.599 6.52879 -0.585621 0
M  V30 2518 H 239.119 5.912 1.01204 0
M  V30 2519 H 240.798 6.42979 0.720176 0
M  V30 2520 N 240.93 -0.123565 1.57115 0
M  V30 2521 C 242.158 -0.846461 1.88793 0
M  V30 2522 C 242.573 -1.73652 0.740976 0
M  V30 2523 O 241.93 -1.80207 -0.288393 0
M  V30 2524 C 241.981 -1.6837 3.19897 0
M  V30 2525 O 241.702 -0.829477 4.30176 0
M  V30 2526 C 243.203 -2.51214 3.65248 0
M  V30 2527 H 240.423 -0.243573 0.625231 0
M  V30 2528 H 242.967 -0.109324 2.04208 0
M  V30 2529 H 241.122 -2.37364 3.06165 0
M  V30 2530 H 241.536 -1.40651 5.0529 0
M  V30 2531 H 243.01 -3.05497 4.59756 0
M  V30 2532 H 243.487 -3.28359 2.9168 0
M  V30 2533 H 244.093 -1.8747 3.81752 0
M  V30 2534 N 242.408 -1.52605 -0.393616 0
M  V30 2535 C 243.656 -1.67093 -1.13685 0
M  V30 2536 C 243.977 -0.411011 -1.90619 0
M  V30 2537 O 243.247 0.574491 -1.87287 0
M  V30 2538 H 241.827 -0.615923 -0.422668 0
M  V30 2539 H 244.489 -1.89704 -0.447039 0
M  V30 2540 H 243.585 -2.51922 -1.84232 0
M  V30 2541 N 243.887 0.651787 -1.4349 0
M  V30 2542 C 245.112 1.44434 -1.48841 0
M  V30 2543 C 245.537 1.8779 -0.107955 0
M  V30 2544 O 244.895 1.57464 0.898602 0
M  V30 2545 C 244.943 2.65458 -2.44059 0
M  V30 2546 O 244.047 3.64566 -1.92784 0
M  V30 2547 H 243.388 0.433005 -0.503391 0
M  V30 2548 H 245.918 0.797451 -1.88419 0
M  V30 2549 H 245.928 3.13255 -2.6141 0
M  V30 2550 H 244.603 2.33244 -3.4434 0
M  V30 2551 H 243.18 3.23716 -1.851 0
M  V30 2552 N 245.365 1.30045 0.890287 0
M  V30 2553 C 246.613 1.18327 1.63839 0
M  V30 2554 C 246.934 -0.263455 1.93212 0
M  V30 2555 O 246.204 -1.17856 1.56482 0
M  V30 2556 H 244.784 0.434933 0.607324 0
M  V30 2557 H 247.446 1.631 1.06698 0
M  V30 2558 H 246.542 1.74024 2.59079 0
M  V30 2559 N 246.843 -1.10192 1.12674 0
M  V30 2560 C 248.259 -1.34235 0.863317 0
M  V30 2561 C 248.459 -1.95062 -0.505277 0
M  V30 2562 O 247.515 -2.19192 -1.25345 0
M  V30 2563 C 248.828 -2.2616 1.98172 0
M  V30 2564 C 250.376 -2.3969 2.0129 0
M  V30 2565 C 250.851 -3.34946 3.1237 0
M  V30 2566 N 252.342 -3.42515 3.11829 0
M  V30 2567 C 253.077 -4.16199 3.94419 0
M  V30 2568 N 252.573 -4.92747 4.87004 0
M  V30 2569 N 254.366 -4.11843 3.82547 0
M  V30 2570 H 246.517 -0.690798 2.00853 0
M  V30 2571 H 248.78 -0.366774 0.874174 0
M  V30 2572 H 248.486 -1.8868 2.96804 0
M  V30 2573 H 248.36 -3.26488 1.88906 0
M  V30 2574 H 250.747 -2.76438 1.03276 0
M  V30 2575 H 250.828 -1.39169 2.14629 0
M  V30 2576 H 250.472 -2.98923 4.10619 0
M  V30 2577 H 250.402 -4.35353 2.96269 0
M  V30 2578 H 252.893 -2.87926 2.44759 0
M  V30 2579 H 253.206 -5.46376 5.46528 0
M  V30 2580 H 251.551 -4.91862 4.91016 0
M  V30 2581 H 254.742 -3.51136 3.0955 0
M  V30 2582 H 254.915 -4.69007 4.47142 0
M  V30 2583 N 248.321 -0.919034 -1.28029 0
M  V30 2584 C 249.561 -0.562107 -1.96519 0
M  V30 2585 C 249.925 0.878784 -1.70708 0
M  V30 2586 O 251.126 1.34355 -2.32813 0
M  V30 2587 C 249.397 -0.868953 -3.46676 0
M  V30 2588 S 250.956 -0.619237 -4.34409 0
M  V30 2589 H 247.774 -0.2078 -0.679956 0
M  V30 2590 H 250.376 -1.18562 -1.55446 0
M  V30 2591 H 249.08 -1.91547 -3.62957 0
M  V30 2592 H 248.611 -0.234301 -3.92702 0
M  V30 2593 H 250.626 0.526995 -4.93394 0
M  V30 2594 N 249.799 1.42003 -0.683588 0
M  V30 2595 C 251.215 1.55625 -0.353976 0
M  V30 2596 C 251.415 1.66151 1.14 0
M  V30 2597 O 250.471 1.63329 1.92561 0
M  V30 2598 C 251.784 2.80171 -1.092 0
M  V30 2599 C 253.332 2.93954 -1.07518 0
M  V30 2600 C 253.807 4.21372 -1.79471 0
M  V30 2601 N 255.298 4.28303 -1.76381 0
M  V30 2602 C 256.033 5.25729 -2.28904 0
M  V30 2603 N 255.529 6.29254 -2.89846 0
M  V30 2604 N 257.322 5.17586 -2.19228 0
M  V30 2605 H 249.473 1.33415 -1.6527 0
M  V30 2606 H 251.736 0.64282 -0.696769 0
M  V30 2607 H 251.442 2.78561 -2.14701 0
M  V30 2608 H 251.316 3.7133 -0.662862 0
M  V30 2609 H 253.703 2.95086 -0.028475 0
M  V30 2610 H 253.784 2.04002 -1.54328 0
M  V30 2611 H 253.428 4.21001 -2.84114 0
M  V30 2612 H 253.358 5.10275 -1.30104 0
M  V30 2613 H 255.849 3.54119 -1.31939 0
M  V30 2614 H 256.162 6.99964 -3.27522 0
M  V30 2615 H 254.507 6.29791 -2.93919 0
M  V30 2616 H 257.698 4.35631 -1.71299 0
M  V30 2617 H 257.871 5.93348 -2.60466 0
M  V30 2618 N 251.277 0.427512 1.51691 0
M  V30 2619 C 252.693 0.0792977 1.59403 0
M  V30 2620 C 252.893 -1.41035 1.43914 0
M  V30 2621 O 251.949 -2.17922 1.27539 0
M  V30 2622 C 253.262 0.590636 2.94842 0
M  V30 2623 C 254.81 0.550215 3.08126 0
M  V30 2624 C 255.285 1.03836 4.46074 0
M  V30 2625 N 256.776 0.995943 4.52366 0
M  V30 2626 C 257.511 1.34463 5.57411 0
M  V30 2627 N 257.007 1.76569 6.69922 0
M  V30 2628 N 258.8 1.26343 5.47717 0
M  V30 2629 H 250.951 1.39687 1.60004 0
M  V30 2630 H 253.214 0.575003 0.753708 0
M  V30 2631 H 252.92 1.63251 3.11516 0
M  V30 2632 H 252.794 0.0102061 3.77199 0
M  V30 2633 H 255.181 -0.482654 2.91126 0
M  V30 2634 H 255.262 1.16693 2.27632 0
M  V30 2635 H 254.906 2.06965 4.63819 0
M  V30 2636 H 254.836 0.398286 5.25092 0
M  V30 2637 H 257.327 0.68661 3.7161 0
M  V30 2638 H 257.64 2.01438 7.46085 0
M  V30 2639 H 255.985 1.80488 6.71155 0
M  V30 2640 H 259.176 0.933209 4.58703 0
M  V30 2641 H 259.349 1.53846 6.29472 0
M  V30 2642 N 252.755 -1.56801 0.158532 0
M  V30 2643 C 254.002 -1.9649 -0.489679 0
M  V30 2644 C 254.33 -1.04394 -1.6411 0
M  V30 2645 O 253.585 -0.0754401 -1.95555 0
M  V30 2646 C 253.884 -3.4235 -1.02623 0
M  V30 2647 C 253.55 -4.50899 0.00794526 0
M  V30 2648 C 252.212 -4.80312 0.292207 0
M  V30 2649 C 254.564 -5.16333 0.710584 0
M  V30 2650 C 251.892 -5.72461 1.28472 0
M  V30 2651 C 254.244 -6.09553 1.69199 0
M  V30 2652 C 252.908 -6.37339 1.98383 0
M  V30 2653 H 252.178 -0.719009 -0.179186 0
M  V30 2654 H 254.825 -1.8989 0.247798 0
M  V30 2655 H 253.13 -3.45838 -1.84128 0
M  V30 2656 H 254.827 -3.70393 -1.53656 0
M  V30 2657 H 251.417 -4.28015 -0.22379 0
M  V30 2658 H 255.601 -4.93732 0.504174 0
M  V30 2659 H 250.857 -5.92278 1.51714 0
M  V30 2660 H 255.031 -6.59327 2.24189 0
M  V30 2661 H 252.658 -7.08546 2.7544 0
M  V30 2662 N 254.233 0.115231 -1.57178 0
M  V30 2663 C 255.165 1.16694 -1.97269 0
M  V30 2664 C 256.178 1.37445 -0.872502 0
M  V30 2665 O 257.367 1.36454 -1.15077 0
M  V30 2666 C 254.467 2.52627 -2.25905 0
M  V30 2667 C 253.64 2.52427 -3.57211 0
M  V30 2668 C 252.699 3.70134 -3.74016 0
M  V30 2669 O 251.725 3.53546 -4.46087 0
M  V30 2670 N 252.927 4.88844 -3.13068 0
M  V30 2671 H 255.692 0.82588 -2.88096 0
M  V30 2672 H 253.253 0.304461 -1.59011 0
M  V30 2673 H 255.245 3.29937 -2.34359 0
M  V30 2674 H 253.815 2.789 -1.41186 0
M  V30 2675 H 253.035 1.60805 -3.5991 0
M  V30 2676 H 254.323 2.49353 -4.43509 0
M  V30 2677 H 253.721 5.05225 -2.54489 0
M  V30 2678 H 252.278 5.63817 -3.27037 0
M  V30 2679 N 255.711 1.52812 0.385517 0
M  V30 2680 C 256.957 1.69225 1.12847 0
M  V30 2681 C 257.312 0.42864 1.87564 0
M  V30 2682 O 256.605 -0.57779 1.8268 0
M  V30 2683 C 256.799 2.86856 2.13187 0
M  V30 2684 C 256.628 4.24535 1.48325 0
M  V30 2685 C 255.398 4.89701 1.24585 0
M  V30 2686 C 257.596 5.05794 0.931501 0
M  V30 2687 N 255.578 6.11353 0.558644 0
M  V30 2688 C 256.949 6.1888 0.372552 0
M  V30 2689 C 259.004 4.90963 0.828248 0
M  V30 2690 C 257.707 7.18757 -0.279556 0
M  V30 2691 C 259.733 5.91095 0.189956 0
M  V30 2692 C 259.095 7.03489 -0.358207 0
M  V30 2693 H 255.194 0.67268 0.39878 0
M  V30 2694 H 257.778 1.9017 0.417528 0
M  V30 2695 H 255.949 2.67484 2.81614 0
M  V30 2696 H 257.681 2.92188 2.80014 0
M  V30 2697 H 254.436 4.48485 1.52178 0
M  V30 2698 H 254.86 6.76606 0.230983 0
M  V30 2699 H 259.502 4.04274 1.23784 0
M  V30 2700 H 257.22 8.05052 -0.701152 0
M  V30 2701 H 260.806 5.81694 0.111264 0
M  V30 2702 H 259.686 7.79642 -0.844314 0
M  V30 2703 N 257.189 -0.644168 1.43834 0
M  V30 2704 C 258.435 -1.40603 1.46146 0
M  V30 2705 C 258.768 -1.93997 0.0887717 0
M  V30 2706 O 258.043 -1.72854 -0.891724 0
M  V30 2707 C 258.326 -2.58086 2.51124 0
M  V30 2708 C 258.179 -2.10126 3.97702 0
M  V30 2709 C 259.498 -3.60291 2.52742 0
M  V30 2710 H 256.617 -0.509905 0.532134 0
M  V30 2711 H 259.259 -0.729502 1.75437 0
M  V30 2712 H 257.409 -3.15801 2.26278 0
M  V30 2713 H 259.081 -1.57342 4.33637 0
M  V30 2714 H 257.324 -1.41419 4.10101 0
M  V30 2715 H 257.995 -2.94649 4.66783 0
M  V30 2716 H 260.471 -3.12352 2.7491 0
M  V30 2717 H 259.347 -4.40032 3.28121 0
M  V30 2718 H 259.608 -4.1349 1.56455 0
M  V30 2719 N 258.668 -1.30515 -0.883378 0
M  V30 2720 C 259.945 -1.10086 -1.6168 0
M  V30 2721 C 260.325 0.349269 -2.08191 0
M  V30 2722 O 259.673 1.34105 -1.85008 0
M  V30 2723 C 259.883 -2.10315 -2.78511 0
M  V30 2724 C 261.231 -2.42119 -3.48803 0
M  V30 2725 O 262.255 -2.08638 -2.88702 0
M  V30 2726 O 261.114 -2.99396 -4.57192 0
M  V30 2727 H 258.208 -0.422907 -0.710689 0
M  V30 2728 H 260.754 -1.41947 -0.930015 0
M  V30 2729 H 259.526 -3.07917 -2.41459 0
M  V30 2730 H 259.149 -1.79282 -3.54886 0
M  V30 2731 N 260.146 1.09593 -1.13257 0
M  V30 2732 C 261.394 1.81375 -0.891492 0
M  V30 2733 C 261.715 1.86049 0.584009 0
M  V30 2734 O 260.985 1.34481 1.42449 0
M  V30 2735 H 259.565 0.671708 -0.326828 0
M  V30 2736 H 262.227 1.3256 -1.42877 0
M  V30 2737 H 261.323 2.84612 -1.28071 0
M  V30 2738 N 261.624 0.925811 1.2754 0
M  V30 2739 C 262.849 0.580924 1.99098 0
M  V30 2740 C 263.274 -0.833555 1.68622 0
M  V30 2741 O 262.632 -1.55903 0.925422 0
M  V30 2742 C 262.68 0.811186 3.51358 0
M  V30 2743 O 261.784 -0.124129 4.12213 0
M  V30 2744 H 261.125 0.223873 0.625122 0
M  V30 2745 H 263.655 1.24455 1.62395 0
M  V30 2746 H 263.665 0.72601 4.01489 0
M  V30 2747 H 262.34 1.84227 3.72872 0
M  V30 2748 H 260.917 0.0108006 3.72898 0
M  V30 2749 N 263.102 -1.41638 0.69111 0
M  V30 2750 C 264.518 -1.55435 0.362224 0
M  V30 2751 C 264.718 -1.66754 -1.13117 0
M  V30 2752 O 263.774 -1.64348 -1.91692 0
M  V30 2753 C 265.087 -2.79588 1.10684 0
M  V30 2754 C 266.635 -2.9338 1.09075 0
M  V30 2755 C 267.11 -4.20414 1.81703 0
M  V30 2756 N 268.601 -4.27362 1.7865 0
M  V30 2757 C 269.336 -5.24507 2.31689 0
M  V30 2758 N 268.832 -6.27708 2.93179 0
M  V30 2759 N 270.625 -5.16416 2.2197 0
M  V30 2760 H 262.776 -1.32536 1.65976 0
M  V30 2761 H 265.039 -0.639115 0.700168 0
M  V30 2762 H 264.745 -2.77419 2.16175 0
M  V30 2763 H 264.619 -3.70973 0.682545 0
M  V30 2764 H 267.006 -2.95067 0.0441238 0
M  V30 2765 H 267.087 -2.0318 1.55407 0
M  V30 2766 H 266.731 -4.19488 2.86343 0
M  V30 2767 H 266.661 -5.09578 1.32808 0
M  V30 2768 H 269.152 -3.53415 1.33815 0
M  V30 2769 H 269.465 -6.98217 3.31229 0
M  V30 2770 H 267.81 -6.28223 2.97255 0
M  V30 2771 H 271.001 -4.34716 1.73607 0
M  V30 2772 H 271.174 -5.91958 2.63609 0
M  V30 2773 N 264.58 -0.43555 -1.51462 0
M  V30 2774 C 265.826 0.123979 -2.03022 0
M  V30 2775 C 266.181 1.4054 -1.31401 0
M  V30 2776 O 265.474 1.86948 -0.419634 0
M  V30 2777 C 265.668 0.39942 -3.55161 0
M  V30 2778 C 265.497 -0.853754 -4.41521 0
M  V30 2779 C 264.267 -1.38675 -4.85898 0
M  V30 2780 C 266.465 -1.73939 -4.83994 0
M  V30 2781 N 264.447 -2.59265 -5.56466 0
M  V30 2782 C 265.818 -2.79135 -5.5361 0
M  V30 2783 C 267.873 -1.75402 -4.65981 0
M  V30 2784 C 266.576 -3.85737 -6.07124 0
M  V30 2785 C 268.602 -2.80938 -5.20411 0
M  V30 2786 C 267.964 -3.84854 -5.89972 0
M  V30 2787 H 264.063 0.00624887 -0.781975 0
M  V30 2788 H 266.647 -0.59582 -1.85359 0
M  V30 2789 H 264.818 1.08825 -3.72843 0
M  V30 2790 H 266.55 0.95015 -3.93388 0
M  V30 2791 H 263.305 -0.94094 -4.64159 0
M  V30 2792 H 263.729 -3.2041 -5.96378 0
M  V30 2793 H 268.371 -0.963926 -4.11665 0
M  V30 2794 H 266.089 -4.65586 -6.60496 0
M  V30 2795 H 269.675 -2.8301 -5.08327 0
M  V30 2796 H 268.555 -4.65176 -6.31333 0
M  V30 2797 N 266.058 1.56714 -0.166846 0
M  V30 2798 C 267.006 2.19056 0.782123 0
M  V30 2799 C 268 1.15328 1.24079 0
M  V30 2800 O 269.206 1.33537 1.20697 0
M  V30 2801 H 265.581 0.70167 0.270486 0
M  V30 2802 H 267.552 2.97494 0.232322 0
M  V30 2803 C 266.301 2.84206 2.00306 0
M  V30 2804 H 265.624 3.63748 1.65914 0
M  V30 2805 H 267.064 3.31302 2.64604 0
M  V30 2806 C 265.523 1.83744 2.82382 0
M  V30 2807 O 266.053 1.32014 3.79388 0
M  V30 2808 N 264.259 1.52601 2.47308 0
M  V30 2809 H 263.806 1.9486 1.68485 0
M  V30 2810 H 263.764 0.856351 3.02513 0
M  V30 2811 N 267.536 -0.106894 1.57237 0
M  V30 2812 C 268.783 -0.812526 1.85484 0
M  V30 2813 C 269.111 -1.79304 0.753687 0
M  V30 2814 O 268.366 -1.94047 -0.253853 0
M  V30 2815 C 268.665 -1.58628 3.20268 0
M  V30 2816 C 268.331 -0.748967 4.44636 0
M  V30 2817 C 266.993 -0.518104 4.78403 0
M  V30 2818 C 269.345 -0.166122 5.20935 0
M  V30 2819 C 266.673 0.305659 5.85903 0
M  V30 2820 C 269.025 0.644899 6.29304 0
M  V30 2821 C 267.689 0.885965 6.61594 0
M  V30 2822 H 266.959 -0.297324 0.678734 0
M  V30 2823 H 269.606 -0.0744332 1.91355 0
M  V30 2824 H 267.911 -2.39562 3.10028 0
M  V30 2825 H 269.608 -2.13643 3.39349 0
M  V30 2826 H 266.198 -0.939006 4.18187 0
M  V30 2827 H 270.382 -0.33167 4.95191 0
M  V30 2828 H 265.638 0.501528 6.0934 0
M  V30 2829 H 269.812 1.10345 6.87602 0
M  V30 2830 H 267.439 1.52609 7.44725 0
M  V30 2831 N 269.014 -1.53014 -0.377408 0
M  V30 2832 C 269.977 -1.77957 -1.44444 0
M  V30 2833 C 270.977 -0.649763 -1.47087 0
M  V30 2834 O 272.167 -0.917897 -1.48055 0
M  V30 2835 C 269.299 -1.89089 -2.83651 0
M  V30 2836 H 270.492 -2.73243 -1.23606 0
M  V30 2837 H 268.045 -1.43912 -0.609844 0
M  V30 2838 H 268.78 -0.958293 -3.09818 0
M  V30 2839 H 268.565 -2.71254 -2.83132 0
M  V30 2840 H 270.055 -2.1002 -3.60945 0
M  V30 2841 N 270.492 0.636531 -1.44174 0
M  V30 2842 C 271.722 1.42146 -1.49927 0
M  V30 2843 C 272.13 1.88812 -0.121063 0
M  V30 2844 O 271.473 1.61126 0.882267 0
M  V30 2845 C 271.535 2.67883 -2.39748 0
M  V30 2846 C 271.199 2.43048 -3.8701 0
M  V30 2847 C 272.196 2.05216 -4.77684 0
M  V30 2848 C 269.881 2.56856 -4.3166 0
M  V30 2849 C 271.875 1.81512 -6.11009 0
M  V30 2850 C 269.562 2.32766 -5.65034 0
M  V30 2851 C 270.56 1.95152 -6.54526 0
M  V30 2852 O 270.248 1.71326 -7.85431 0
M  V30 2853 H 269.98 0.442567 -0.51099 0
M  V30 2854 H 272.534 0.786158 -1.8976 0
M  V30 2855 H 270.764 3.34032 -1.94832 0
M  V30 2856 H 272.453 3.29874 -2.36513 0
M  V30 2857 H 273.219 1.94111 -4.44462 0
M  V30 2858 H 269.098 2.85104 -3.62266 0
M  V30 2859 H 272.642 1.52077 -6.80822 0
M  V30 2860 H 268.539 2.43479 -5.97819 0
M  V30 2861 H 269.307 1.85616 -7.97176 0
M  V30 2862 N 271.97 1.30982 0.876444 0
M  V30 2863 C 273.216 1.21484 1.63136 0
M  V30 2864 C 273.571 -0.226339 1.91064 0
M  V30 2865 O 272.864 -1.15788 1.52656 0
M  V30 2866 C 273.058 1.98572 2.9716 0
M  V30 2867 C 272.887 3.50039 2.82317 0
M  V30 2868 C 271.657 4.19393 2.81847 0
M  V30 2869 C 273.855 4.45111 2.57644 0
M  V30 2870 N 271.837 5.57061 2.57985 0
M  V30 2871 C 273.208 5.70402 2.42986 0
M  V30 2872 C 275.263 4.3461 2.42937 0
M  V30 2873 C 273.966 6.8638 2.15115 0
M  V30 2874 C 275.992 5.50365 2.16454 0
M  V30 2875 C 275.354 6.74642 2.02578 0
M  V30 2876 H 271.453 0.499632 0.601575 0
M  V30 2877 H 274.037 1.65094 1.03209 0
M  V30 2878 H 272.208 1.5734 3.55104 0
M  V30 2879 H 273.94 1.81146 3.61895 0
M  V30 2880 H 270.695 3.71303 2.93991 0
M  V30 2881 H 271.119 6.29529 2.49043 0
M  V30 2882 H 275.761 3.39199 2.52396 0
M  V30 2883 H 273.479 7.81824 2.04394 0
M  V30 2884 H 277.065 5.44154 2.05884 0
M  V30 2885 H 275.945 7.62699 1.82374 0
M  V30 2886 N 273.449 -1.08991 1.13837 0
M  V30 2887 C 274.412 -2.13925 0.822715 0
M  V30 2888 C 275.412 -1.599 -0.1699 0
M  V30 2889 O 276.602 -1.74104 0.0577251 0
M  V30 2890 C 273.734 -3.40155 0.225318 0
M  V30 2891 H 274.927 -2.43358 1.75262 0
M  V30 2892 H 272.48 -1.24603 0.943594 0
M  V30 2893 H 273.215 -3.16352 -0.713594 0
M  V30 2894 H 273 -3.80661 0.940193 0
M  V30 2895 H 274.49 -4.17594 0.0214784 0
M  V30 2896 N 274.927 -0.932562 -1.27047 0
M  V30 2897 C 275.89 -0.440064 -2.24936 0
M  V30 2898 C 276.89 0.444071 -1.54547 0
M  V30 2899 O 278.08 0.244465 -1.72476 0
M  V30 2900 C 275.212 0.36678 -3.38921 0
M  V30 2901 H 276.405 -1.305 -2.70018 0
M  V30 2902 H 273.958 -0.713707 -1.39054 0
M  V30 2903 H 274.693 1.25033 -2.99228 0
M  V30 2904 H 274.478 -0.267204 -3.91188 0
M  V30 2905 H 275.968 0.701567 -4.11665 0
M  V30 2906 N 276.405 1.4127 -0.698611 0
M  V30 2907 C 277.355 2.27997 -0.0119836 0
M  V30 2908 C 278.339 1.42363 0.749765 0
M  V30 2909 O 279.531 1.65607 0.624758 0
M  V30 2910 C 276.66 3.30702 0.921458 0
M  V30 2911 C 275.746 4.23814 0.155796 0
M  V30 2912 N 276.137 4.98572 -0.852015 0
M  V30 2913 C 274.435 4.44284 0.390836 0
M  V30 2914 C 275.136 5.66744 -1.3106 0
M  V30 2915 N 274.112 5.39867 -0.635944 0
M  V30 2916 H 277.914 2.83232 -0.784649 0
M  V30 2917 H 275.428 1.53518 -0.529711 0
M  V30 2918 H 277.425 3.91661 1.42854 0
M  V30 2919 H 276.085 2.77028 1.69369 0
M  V30 2920 H 277.096 5.03024 -1.23235 0
M  V30 2921 H 273.773 4.01614 1.14071 0
M  V30 2922 H 275.163 6.36672 -2.14707 0
M  V30 2923 N 277.883 0.443576 1.51229 0
M  V30 2924 C 278.815 -0.400608 2.25672 0
M  V30 2925 C 279.828 -0.980945 1.29928 0
M  V30 2926 O 281.017 -0.874024 1.55638 0
M  V30 2927 C 278.117 -1.57304 3.00181 0
M  V30 2928 C 277.29 -1.11046 4.23069 0
M  V30 2929 C 276.349 -2.15374 4.80105 0
M  V30 2930 O 275.375 -1.74554 5.41774 0
M  V30 2931 N 276.577 -3.47922 4.64683 0
M  V30 2932 H 279.342 0.23745 2.98758 0
M  V30 2933 H 276.903 0.272809 1.59585 0
M  V30 2934 H 278.895 -2.26733 3.35223 0
M  V30 2935 H 277.465 -2.11632 2.30066 0
M  V30 2936 H 276.685 -0.243019 3.9345 0
M  V30 2937 H 277.973 -0.778888 5.02803 0
M  V30 2938 H 277.371 -3.83815 4.15575 0
M  V30 2939 H 275.928 -4.13228 5.0407 0
M  V30 2940 N 279.361 -1.56624 0.175154 0
M  V30 2941 C 280.772 -1.83561 -0.340916 0
M  V30 2942 C 281.123 -1.09511 -1.62794 0
M  V30 2943 O 280.248 -0.349389 -2.13561 0
M  V30 2944 C 280.843 -3.32979 -0.625313 0
M  V30 2945 C 279.402 -3.60399 -1.08581 0
M  V30 2946 C 278.549 -2.77024 -0.123722 0
M  V30 2947 H 281.5 -1.53593 0.399344 0
M  V30 2948 H 281.521 -3.50666 -1.47694 0
M  V30 2949 H 281.033 -3.86847 0.311575 0
M  V30 2950 H 279.134 -3.11945 -2.03767 0
M  V30 2951 H 279.247 -4.68711 -0.992317 0
M  V30 2952 H 277.611 -2.46993 -0.621821 0
M  V30 2953 H 278.394 -3.33674 0.807256 0
M  V30 2954 N 280.839 0.0985539 -1.57292 0
M  V30 2955 C 282.085 0.798769 -1.87059 0
M  V30 2956 C 282.44 1.76514 -0.76555 0
M  V30 2957 O 281.733 1.90181 0.232752 0
M  V30 2958 C 281.927 1.56927 -3.21105 0
M  V30 2959 C 281.756 0.679026 -4.44544 0
M  V30 2960 C 280.526 0.326071 -5.04247 0
M  V30 2961 C 282.724 -0.0124715 -5.14298 0
M  V30 2962 N 280.706 -0.572702 -6.11223 0
M  V30 2963 C 282.077 -0.769446 -6.15207 0
M  V30 2964 C 284.132 -0.0867545 -4.97824 0
M  V30 2965 C 282.835 -1.59376 -7.01421 0
M  V30 2966 C 284.861 -0.897955 -5.84543 0
M  V30 2967 C 284.223 -1.64306 -6.84969 0
M  V30 2968 H 280.322 0.268568 -0.734435 0
M  V30 2969 H 282.906 0.0614664 -1.94603 0
M  V30 2970 H 281.077 2.27748 -3.1462 0
M  V30 2971 H 282.809 2.21641 -3.38611 0
M  V30 2972 H 279.564 0.67295 -4.68795 0
M  V30 2973 H 279.988 -1.01454 -6.69355 0
M  V30 2974 H 284.63 0.474963 -4.20124 0
M  V30 2975 H 282.348 -2.16655 -7.78515 0
M  V30 2976 H 285.934 -0.958059 -5.73858 0
M  V30 2977 H 284.814 -2.26065 -7.50909 0
M  V30 2978 N 282.317 1.53212 0.369288 0
M  V30 2979 C 283.542 1.73423 1.1375 0
M  V30 2980 C 283.967 0.460404 1.82378 0
M  V30 2981 O 283.325 -0.585298 1.71592 0
M  V30 2982 C 283.373 2.89769 2.1463 0
M  V30 2983 O 282.477 2.58119 3.21634 0
M  V30 2984 H 281.818 0.576061 0.330227 0
M  V30 2985 H 284.348 2.00083 0.427547 0
M  V30 2986 H 284.358 3.15829 2.58294 0
M  V30 2987 H 283.033 3.8217 1.64071 0
M  V30 2988 H 281.61 2.42864 2.82969 0
M  V30 2989 N 283.795 -0.628877 1.44509 0
M  V30 2990 C 285.211 -0.947305 1.28446 0
M  V30 2991 C 285.411 -2.00275 0.221872 0
M  V30 2992 O 284.467 -2.49447 -0.391471 0
M  V30 2993 C 285.78 -1.40843 2.65676 0
M  V30 2994 C 287.328 -1.52379 2.73404 0
M  V30 2995 C 287.803 -2.01875 4.11109 0
M  V30 2996 N 289.294 -2.09142 4.13296 0
M  V30 2997 C 290.029 -2.48615 5.16699 0
M  V30 2998 N 289.525 -2.87209 6.30462 0
M  V30 2999 N 291.318 -2.48768 5.04054 0
M  V30 3000 H 283.469 0.0690977 2.12288 0
M  V30 3001 H 285.732 -0.0317164 0.947469 0
M  V30 3002 H 285.438 -0.707206 3.44516 0
M  V30 3003 H 285.312 -2.37902 2.92716 0
M  V30 3004 H 287.699 -2.21598 1.9488 0
M  V30 3005 H 287.78 -0.536898 2.50102 0
M  V30 3006 H 287.424 -1.3325 4.90109 0
M  V30 3007 H 287.354 -3.0144 4.31789 0
M  V30 3008 H 289.845 -1.81991 3.31191 0
M  V30 3009 H 290.158 -3.16149 7.05174 0
M  V30 3010 H 288.503 -2.84955 6.33897 0
M  V30 3011 H 291.694 -2.18009 4.14234 0
M  V30 3012 H 291.867 -2.79207 5.84763 0
M  V30 3013 N 285.273 -1.31445 -0.869486 0
M  V30 3014 C 286.521 -1.20918 -1.61936 0
M  V30 3015 C 286.842 0.232683 -1.93607 0
M  V30 3016 O 286.112 1.15352 -1.58338 0
M  V30 3017 H 284.692 -0.44454 -0.600328 0
M  V30 3018 H 287.354 -1.64776 -1.0409 0
M  V30 3019 H 286.45 -1.78124 -2.56278 0
M  V30 3020 N 286.751 1.08385 -1.14413 0
M  V30 3021 C 287.999 1.80419 -0.910679 0
M  V30 3022 C 288.32 1.86658 0.564243 0
M  V30 3023 O 287.59 1.35985 1.41014 0
M  V30 3024 H 286.17 0.668204 -0.333934 0
M  V30 3025 H 288.832 1.31037 -1.44275 0
M  V30 3026 H 287.928 2.83238 -1.31082 0
M  V30 3027 N 288.23 0.939286 1.26551 0
M  V30 3028 C 289.18 0.418284 2.2413 0
M  V30 3029 C 290.164 -0.483935 1.5345 0
M  V30 3030 O 291.356 -0.319489 1.74093 0
M  V30 3031 C 288.485 -0.31709 3.41832 0
M  V30 3032 C 287.571 0.602311 4.19801 0
M  V30 3033 N 287.962 1.72726 4.75394 0
M  V30 3034 C 286.26 0.407534 4.44134 0
M  V30 3035 C 286.961 2.30004 5.34297 0
M  V30 3036 N 285.937 1.58828 5.1988 0
M  V30 3037 H 289.739 1.27705 2.64705 0
M  V30 3038 H 287.253 0.794929 1.41614 0
M  V30 3039 H 289.25 -0.707364 4.10855 0
M  V30 3040 H 287.91 -1.17264 3.02786 0
M  V30 3041 H 288.921 2.10944 4.72994 0
M  V30 3042 H 285.598 -0.406406 4.15517 0
M  V30 3043 H 286.988 3.24778 5.88191 0
M  V30 3044 N 289.708 -1.40897 0.706093 0
M  V30 3045 C 290.948 -2.02916 0.245827 0
M  V30 3046 C 291.312 -1.54751 -1.13649 0
M  V30 3047 O 292.513 -2.08768 -1.69321 0
M  V30 3048 C 290.784 -3.56031 0.312537 0
M  V30 3049 S 292.343 -4.38741 -0.0721388 0
M  V30 3050 H 289.161 -0.704186 0.0982007 0
M  V30 3051 H 291.763 -1.72168 0.926207 0
M  V30 3052 H 290.467 -3.88579 1.32039 0
M  V30 3053 H 289.998 -3.91495 -0.386641 0
M  V30 3054 H 292.013 -4.78952 -1.29692 0
M  V30 3055 N 291.186 -0.45159 -1.50991 0
M  V30 3056 C 292.432 0.110237 -2.025 0
M  V30 3057 C 292.765 1.41109 -1.33424 0
M  V30 3058 O 292.04 1.89135 -0.453659 0
M  V30 3059 C 292.323 0.314271 -3.58726 0
M  V30 3060 C 292.176 -1.00623 -4.38401 0
M  V30 3061 C 293.495 1.07767 -4.26702 0
M  V30 3062 H 290.614 0.0385897 -0.735989 0
M  V30 3063 H 293.256 -0.593374 -1.80497 0
M  V30 3064 H 291.406 0.913601 -3.77605 0
M  V30 3065 H 293.078 -1.64064 -4.31139 0
M  V30 3066 H 291.321 -1.6075 -4.02917 0
M  V30 3067 H 291.992 -0.817341 -5.45915 0
M  V30 3068 H 294.468 0.56986 -4.12179 0
M  V30 3069 H 293.344 1.18921 -5.35863 0
M  V30 3070 H 293.605 2.10939 -3.88532 0
M  V30 3071 N 292.664 1.56529 -0.183458 0
M  V30 3072 C 293.627 2.17324 0.728223 0
M  V30 3073 C 294.627 1.12453 1.14939 0
M  V30 3074 O 295.817 1.37902 1.06437 0
M  V30 3075 C 292.949 2.76591 1.99274 0
M  V30 3076 H 294.142 2.99241 0.198772 0
M  V30 3077 H 291.695 1.5616 0.0661391 0
M  V30 3078 H 292.43 1.98441 2.56499 0
M  V30 3079 H 292.215 3.5335 1.69959 0
M  V30 3080 H 293.705 3.23311 2.6431 0
M  V30 3081 N 294.142 -0.090211 1.57342 0
M  V30 3082 C 295.072 -1.10976 2.05443 0
M  V30 3083 C 296.053 -1.41482 0.944284 0
M  V30 3084 O 297.238 -1.51428 1.21586 0
M  V30 3085 C 294.368 -2.42831 2.48295 0
M  V30 3086 C 293.322 -2.26721 3.63018 0
M  V30 3087 C 292.648 -3.63796 3.91863 0
M  V30 3088 C 293.948 -1.7037 4.93732 0
M  V30 3089 H 295.642 -0.709564 2.9087 0
M  V30 3090 H 293.188 -0.339874 1.39932 0
M  V30 3091 H 295.141 -3.14431 2.80555 0
M  V30 3092 H 293.865 -2.84795 1.59873 0
M  V30 3093 H 292.524 -1.57565 3.31012 0
M  V30 3094 H 292.172 -4.03297 3.00601 0
M  V30 3095 H 291.872 -3.53861 4.69101 0
M  V30 3096 H 293.396 -4.36855 4.26603 0
M  V30 3097 H 294.81 -2.31816 5.24342 0
M  V30 3098 H 293.207 -1.71181 5.75167 0
M  V30 3099 H 294.277 -0.663542 4.80339 0
M  V30 3100 N 295.62 -1.53406 -0.361157 0
M  V30 3101 C 296.86 -1.71507 -1.11197 0
M  V30 3102 C 297.224 -0.459337 -1.86425 0
M  V30 3103 O 298.425 -0.517102 -2.63779 0
M  V30 3104 C 296.696 -2.93307 -2.0422 0
M  V30 3105 S 298.255 -3.32135 -2.86761 0
M  V30 3106 H 295.073 -0.603448 -0.375995 0
M  V30 3107 H 297.675 -1.91516 -0.392642 0
M  V30 3108 H 296.379 -3.82891 -1.47724 0
M  V30 3109 H 295.91 -2.75712 -2.80618 0
M  V30 3110 H 297.925 -2.84493 -4.06544 0
M  V30 3111 N 297.098 0.621204 -1.44841 0
M  V30 3112 C 298.326 1.40752 -1.51646 0
M  V30 3113 C 298.741 1.88246 -0.144549 0
M  V30 3114 O 298.098 1.61422 0.851416 0
M  V30 3115 C 298.149 2.62119 -2.4895 0
M  V30 3116 O 297.87 2.16602 -3.80808 0
M  V30 3117 C 299.371 3.55135 -2.65319 0
M  V30 3118 H 296.591 0.431325 -0.514004 0
M  V30 3119 H 299.135 0.758835 -1.899 0
M  V30 3120 H 297.29 3.23058 -2.13805 0
M  V30 3121 H 297.704 2.95358 -4.33433 0
M  V30 3122 H 299.178 4.36874 -3.37409 0
M  V30 3123 H 299.655 4.04592 -1.70886 0
M  V30 3124 H 300.261 3.00058 -3.01405 0
M  V30 3125 N 298.576 1.31904 0.862503 0
M  V30 3126 C 299.992 1.10724 1.14945 0
M  V30 3127 C 300.192 -0.117421 2.01158 0
M  V30 3128 O 299.248 -0.804595 2.39338 0
M  V30 3129 C 300.561 2.38267 1.83437 0
M  V30 3130 C 302.109 2.43949 1.96106 0
M  V30 3131 C 302.584 3.71394 2.68013 0
M  V30 3132 N 304.075 3.72331 2.75543 0
M  V30 3133 C 304.81 4.67641 3.31812 0
M  V30 3134 N 304.306 5.73313 3.88953 0
M  V30 3135 N 306.099 4.5515 3.29841 0
M  V30 3136 H 298.25 2.10436 0.288191 0
M  V30 3137 H 300.513 0.928705 0.190292 0
M  V30 3138 H 300.219 3.27759 1.27542 0
M  V30 3139 H 300.093 2.48633 2.83657 0
M  V30 3140 H 302.48 1.54922 2.51164 0
M  V30 3141 H 302.561 2.37543 0.949059 0
M  V30 3142 H 302.205 4.60791 2.13621 0
M  V30 3143 H 302.135 3.75069 3.69636 0
M  V30 3144 H 304.626 2.95947 2.34997 0
M  V30 3145 H 304.939 6.42107 4.30022 0
M  V30 3146 H 303.284 5.77077 3.87308 0
M  V30 3147 H 306.475 3.71766 2.84443 0
M  V30 3148 H 306.648 5.29604 3.73394 0
M  V30 3149 N 300.054 -1.07777 1.14986 0
M  V30 3150 C 301.302 -1.79934 0.920235 0
M  V30 3151 C 301.623 -1.86955 -0.554336 0
M  V30 3152 O 300.893 -1.36731 -1.40291 0
M  V30 3153 H 299.473 -0.666424 0.337473 0
M  V30 3154 H 302.135 -1.3027 1.44968 0
M  V30 3155 H 301.231 -2.82539 1.32583 0
M  V30 3156 N 301.532 -0.945985 -1.26051 0
M  V30 3157 C 302.78 -0.594941 -1.93145 0
M  V30 3158 C 303.101 0.86953 -1.7454 0
M  V30 3159 O 302.371 1.61838 -1.10387 0
M  V30 3160 H 300.951 -0.217044 -0.714773 0
M  V30 3161 H 303.613 -1.20235 -1.53393 0
M  V30 3162 H 302.709 -0.816835 -3.01221 0
M  V30 3163 N 303.011 1.40521 -0.713556 0
M  V30 3164 C 303.961 2.27971 -0.036165 0
M  V30 3165 C 304.945 1.43151 0.734623 0
M  V30 3166 O 306.137 1.66261 0.607158 0
M  V30 3167 C 303.266 3.31661 0.886331 0
M  V30 3168 C 302.352 4.23955 0.110836 0
M  V30 3169 N 302.743 4.97641 -0.904847 0
M  V30 3170 C 301.041 4.44674 0.343692 0
M  V30 3171 C 301.742 5.65322 -1.37064 0
M  V30 3172 N 300.718 5.39162 -0.693168 0
M  V30 3173 H 304.52 2.82384 -0.814645 0
M  V30 3174 H 302.034 1.52948 -0.545963 0
M  V30 3175 H 304.031 3.93154 1.38692 0
M  V30 3176 H 302.691 2.78808 1.66421 0
M  V30 3177 H 303.702 5.01689 -1.28563 0
M  V30 3178 H 300.379 4.02801 1.09805 0
M  V30 3179 H 301.769 6.34359 -2.21447 0
M  V30 3180 N 304.489 0.459591 1.5075 0
M  V30 3181 C 305.735 -0.091664 2.03193 0
M  V30 3182 C 306.09 -1.38432 1.3362 0
M  V30 3183 O 305.383 -1.86257 0.449322 0
M  V30 3184 C 305.577 -0.342866 3.55752 0
M  V30 3185 C 305.406 0.923888 4.40107 0
M  V30 3186 C 304.176 1.46388 4.83631 0
M  V30 3187 C 306.374 1.81617 4.81165 0
M  V30 3188 N 304.356 2.68086 5.52271 0
M  V30 3189 C 305.727 2.87907 5.49099 0
M  V30 3190 C 307.782 1.82793 4.63132 0
M  V30 3191 C 306.485 3.95347 6.0091 0
M  V30 3192 C 308.511 2.89182 5.15876 0
M  V30 3193 C 307.873 3.94191 5.83774 0
M  V30 3194 H 303.972 0.00619247 0.781975 0
M  V30 3195 H 306.556 0.625233 1.84388 0
M  V30 3196 H 304.727 -1.0288 3.74527 0
M  V30 3197 H 306.459 -0.887445 3.9485 0
M  V30 3198 H 303.214 1.01466 4.62603 0
M  V30 3199 H 303.638 3.29857 5.91205 0
M  V30 3200 H 308.28 1.0293 4.1008 0
M  V30 3201 H 305.998 4.76035 6.53006 0
M  V30 3202 H 309.584 2.91061 5.0376 0
M  V30 3203 H 308.464 4.75161 6.23853 0
M  V30 3204 N 305.967 -1.56429 0.191757 0
M  V30 3205 C 307.383 -1.58754 -0.164137 0
M  V30 3206 C 307.583 -1.20782 -1.61288 0
M  V30 3207 O 306.639 -0.928999 -2.34789 0
M  V30 3208 C 307.952 -3.00396 0.135195 0
M  V30 3209 C 309.5 -3.1291 0.0750351 0
M  V30 3210 C 309.975 -4.56679 0.347632 0
M  V30 3211 N 311.466 -4.62252 0.296131 0
M  V30 3212 C 312.201 -5.71379 0.480948 0
M  V30 3213 N 311.697 -6.88986 0.725933 0
M  V30 3214 N 313.49 -5.60563 0.415435 0
M  V30 3215 H 305.641 -1.79393 1.13718 0
M  V30 3216 H 307.904 -0.832414 0.453643 0
M  V30 3217 H 307.61 -3.32726 1.13958 0
M  V30 3218 H 307.484 -3.72963 -0.563773 0
M  V30 3219 H 309.871 -2.80394 -0.919948 0
M  V30 3220 H 309.952 -2.42736 0.807029 0
M  V30 3221 H 309.596 -4.89907 1.33992 0
M  V30 3222 H 309.526 -5.25039 -0.405212 0
M  V30 3223 H 312.017 -3.7773 0.113259 0
M  V30 3224 H 312.33 -7.68046 0.855857 0
M  V30 3225 H 310.675 -6.90801 0.762788 0
M  V30 3226 H 313.866 -4.67561 0.224486 0
M  V30 3227 H 314.039 -6.45551 0.562889 0
M  V30 3228 N 307.445 0.0818655 -1.57387 0
M  V30 3229 C 308.861 0.436412 -1.53517 0
M  V30 3230 C 309.061 1.79758 -0.910459 0
M  V30 3231 O 308.117 2.47324 -0.508636 0
M  V30 3232 C 309.43 0.386734 -2.98203 0
M  V30 3233 C 310.978 0.467644 -3.09487 0
M  V30 3234 C 311.453 0.447978 -4.55804 0
M  V30 3235 N 312.944 0.508348 -4.60402 0
M  V30 3236 C 313.679 0.515184 -5.71081 0
M  V30 3237 N 313.175 0.477435 -6.91153 0
M  V30 3238 N 314.968 0.560988 -5.59294 0
M  V30 3239 H 307.119 -0.809546 -1.96367 0
M  V30 3240 H 309.382 -0.302733 -0.898363 0
M  V30 3241 H 309.088 -0.546539 -3.47427 0
M  V30 3242 H 308.962 1.20075 -3.57578 0
M  V30 3243 H 311.349 1.39134 -2.60242 0
M  V30 3244 H 311.43 -0.374753 -2.5304 0
M  V30 3245 H 311.074 -0.471826 -5.05704 0
M  V30 3246 H 311.004 1.30777 -5.10103 0
M  V30 3247 H 313.495 0.54218 -3.7399 0
M  V30 3248 H 313.808 0.486299 -7.71268 0
M  V30 3249 H 312.153 0.444278 -6.93579 0
M  V30 3250 H 315.344 0.5881 -4.64391 0
M  V30 3251 H 315.517 0.562846 -6.45551 0
M  V30 3252 N 308.923 1.53595 0.353017 0
M  V30 3253 C 309.886 1.80232 1.41594 0
M  V30 3254 C 310.886 0.673081 1.46035 0
M  V30 3255 O 312.076 0.941335 1.46576 0
M  V30 3256 C 309.208 1.93578 2.80607 0
M  V30 3257 H 310.401 2.75174 1.19244 0
M  V30 3258 H 307.954 1.44864 0.586872 0
M  V30 3259 H 308.689 1.00746 3.08254 0
M  V30 3260 H 308.474 2.75724 2.78781 0
M  V30 3261 H 309.964 2.15735 3.57558 0
M  V30 3262 N 310.401 -0.613514 1.45168 0
M  V30 3263 C 311.351 -1.71871 1.49815 0
M  V30 3264 C 312.335 -1.56774 0.362021 0
M  V30 3265 O 313.527 -1.66212 0.608493 0
M  V30 3266 C 310.656 -3.1061 1.46207 0
M  V30 3267 C 309.742 -3.31114 2.64999 0
M  V30 3268 N 310.133 -3.21904 3.90143 0
M  V30 3269 C 308.431 -3.61966 2.6057 0
M  V30 3270 C 309.132 -3.43577 4.69393 0
M  V30 3271 N 308.108 -3.67287 4.00751 0
M  V30 3272 H 311.91 -1.63235 2.444 0
M  V30 3273 H 309.424 -0.816577 1.40377 0
M  V30 3274 H 311.421 -3.8989 1.4762 0
M  V30 3275 H 310.081 -3.20399 0.52673 0
M  V30 3276 H 311.092 -3.00436 4.21852 0
M  V30 3277 H 307.769 -3.78629 1.75916 0
M  V30 3278 H 309.159 -3.41901 5.78406 0
M  V30 3279 N 311.879 -1.3236 -0.855495 0
M  V30 3280 C 313.119 -1.24187 -1.62348 0
M  V30 3281 C 313.483 0.193597 -1.91021 0
M  V30 3282 O 314.684 0.39904 -2.65822 0
M  V30 3283 C 312.955 -2.07661 -2.90881 0
M  V30 3284 S 314.514 -2.16505 -3.81669 0
M  V30 3285 H 311.332 -0.442076 -0.556857 0
M  V30 3286 H 313.934 -1.67198 -1.01317 0
M  V30 3287 H 312.638 -3.11018 -2.67761 0
M  V30 3288 H 312.169 -1.65425 -3.56929 0
M  V30 3289 H 314.184 -1.31394 -4.78487 0
M  V30 3290 N 313.357 1.07166 -1.15556 0
M  V30 3291 C 314.287 2.16403 -0.877046 0
M  V30 3292 C 315.268 1.69217 0.173111 0
M  V30 3293 O 316.453 1.94181 0.027084 0
M  V30 3294 C 313.583 3.45349 -0.367632 0
M  V30 3295 C 312.537 4.05995 -1.35468 0
M  V30 3296 C 311.863 5.30045 -0.704038 0
M  V30 3297 C 313.163 4.45804 -2.72132 0
M  V30 3298 H 314.857 2.39959 -1.79053 0
M  V30 3299 H 312.403 1.15325 -0.862331 0
M  V30 3300 H 314.356 4.21095 -0.160317 0
M  V30 3301 H 313.08 3.21385 0.581326 0
M  V30 3302 H 311.739 3.32296 -1.54839 0
M  V30 3303 H 311.387 5.02373 0.251128 0
M  V30 3304 H 311.087 5.71579 -1.36277 0
M  V30 3305 H 312.611 6.08495 -0.50654 0
M  V30 3306 H 314.025 5.12671 -2.56595 0
M  V30 3307 H 312.422 4.98296 -3.34397 0
M  V30 3308 H 313.492 3.57083 -3.28054 0
M  V30 3309 N 314.835 0.952656 1.25548 0
M  V30 3310 C 316.251 0.656769 1.4546 0
M  V30 3311 C 316.451 -0.78633 1.85524 0
M  V30 3312 O 315.507 -1.56183 1.98402 0
M  V30 3313 C 316.82 1.62801 2.52817 0
M  V30 3314 C 318.368 1.63897 2.66659 0
M  V30 3315 C 318.843 2.5978 3.77198 0
M  V30 3316 N 320.334 2.58133 3.84606 0
M  V30 3317 C 321.069 3.29003 4.69621 0
M  V30 3318 N 320.565 4.09339 5.58939 0
M  V30 3319 N 322.358 3.179 4.63569 0
M  V30 3320 H 314.509 1.88526 0.978344 0
M  V30 3321 H 316.772 0.810815 0.491206 0
M  V30 3322 H 316.478 2.65869 2.30232 0
M  V30 3323 H 316.352 1.38898 3.50695 0
M  V30 3324 H 318.739 0.615481 2.8861 0
M  V30 3325 H 318.82 1.91858 1.69187 0
M  V30 3326 H 318.464 3.62254 3.55997 0
M  V30 3327 H 318.394 2.29105 4.7415 0
M  V30 3328 H 320.885 1.99809 3.20757 0
M  V30 3329 H 321.198 4.6034 6.20731 0
M  V30 3330 H 319.543 4.13438 5.58654 0
M  V30 3331 H 322.734 2.54612 3.92798 0
M  V30 3332 H 322.907 3.73398 5.29602 0
M  V30 3333 N 316.313 -1.40141 0.720998 0
M  V30 3334 C 317.729 -1.54632 0.395113 0
M  V30 3335 C 317.929 -1.69115 -1.09555 0
M  V30 3336 O 316.985 -1.68377 -1.88163 0
M  V30 3337 C 318.298 -2.77177 1.1659 0
M  V30 3338 C 319.846 -2.91 1.15274 0
M  V30 3339 C 320.321 -4.16465 1.90579 0
M  V30 3340 N 321.812 -4.23476 1.87675 0
M  V30 3341 C 322.547 -5.19475 2.42762 0
M  V30 3342 N 322.043 -6.21348 3.06428 0
M  V30 3343 N 323.836 -5.11592 2.32874 0
M  V30 3344 H 315.987 -1.28986 1.68749 0
M  V30 3345 H 318.25 -0.62412 0.713567 0
M  V30 3346 H 317.956 -2.72771 2.22011 0
M  V30 3347 H 317.83 -3.69442 0.76108 0
M  V30 3348 H 320.217 -2.94907 0.106702 0
M  V30 3349 H 320.298 -1.99838 1.59682 0
M  V30 3350 H 319.942 -4.1332 2.95176 0
M  V30 3351 H 319.872 -5.06646 1.43587 0
M  V30 3352 H 322.363 -3.50497 1.41281 0
M  V30 3353 H 322.676 -6.91034 3.45965 0
M  V30 3354 H 321.021 -6.21777 3.10514 0
M  V30 3355 H 324.212 -4.30936 1.82789 0
M  V30 3356 H 324.385 -5.86233 2.76106 0
M  V30 3357 N 317.792 -0.46758 -1.50504 0
M  V30 3358 C 318.722 0.318381 -2.31319 0
M  V30 3359 C 319.703 0.993564 -1.38066 0
M  V30 3360 O 320.888 0.991411 -1.66987 0
M  V30 3361 C 318.018 1.40275 -3.17711 0
M  V30 3362 C 316.972 0.849373 -4.19487 0
M  V30 3363 C 316.298 2.03177 -4.94594 0
M  V30 3364 C 317.598 -0.136942 -5.2212 0
M  V30 3365 H 319.292 -0.356106 -2.97275 0
M  V30 3366 H 316.838 -0.172703 -1.42961 0
M  V30 3367 H 318.791 1.96004 -3.73042 0
M  V30 3368 H 317.515 2.10596 -2.49634 0
M  V30 3369 H 316.174 0.314076 -3.65252 0
M  V30 3370 H 315.822 2.72187 -4.22993 0
M  V30 3371 H 315.522 1.66774 -5.63436 0
M  V30 3372 H 317.046 2.59403 -5.52759 0
M  V30 3373 H 318.46 0.331056 -5.72343 0
M  V30 3374 H 316.857 -0.41507 -5.98663 0
M  V30 3375 H 317.927 -1.06398 -4.73083 0
M  V30 3376 N 319.27 1.56325 -0.20005 0
M  V30 3377 C 320.681 1.8408 0.31167 0
M  V30 3378 C 321.032 1.12087 1.61031 0
M  V30 3379 O 320.157 0.38332 2.12978 0
M  V30 3380 C 320.752 3.33932 0.57226 0
M  V30 3381 C 319.311 3.6208 1.02834 0
M  V30 3382 C 318.458 2.77186 0.079634 0
M  V30 3383 H 321.409 1.52939 -0.423729 0
M  V30 3384 H 321.43 3.52971 1.42096 0
M  V30 3385 H 320.942 3.86303 -0.37308 0
M  V30 3386 H 319.043 3.15147 1.98778 0
M  V30 3387 H 319.156 4.7023 0.917624 0
M  V30 3388 H 317.52 2.47951 0.582448 0
M  V30 3389 H 318.303 3.32347 -0.860238 0
M  V30 3390 N 320.748 -0.0735177 1.57428 0
M  V30 3391 C 321.995 -0.772999 1.87166 0
M  V30 3392 C 322.323 -1.77665 0.791551 0
M  V30 3393 O 321.578 -1.94541 -0.212636 0
M  V30 3394 C 321.877 -1.51799 3.23561 0
M  V30 3395 C 321.543 -0.654484 4.46125 0
M  V30 3396 C 320.205 -0.416511 4.79394 0
M  V30 3397 C 322.557 -0.0555862 5.2117 0
M  V30 3398 C 319.885 0.429869 5.85123 0
M  V30 3399 C 322.237 0.778239 6.27795 0
M  V30 3400 C 320.901 1.0261 6.59566 0
M  V30 3401 H 320.171 -0.282861 0.684888 0
M  V30 3402 H 322.818 -0.0338272 1.9147 0
M  V30 3403 H 321.123 -2.32932 3.1504 0
M  V30 3404 H 322.82 -2.06397 3.43804 0
M  V30 3405 H 319.41 -0.850091 4.20085 0
M  V30 3406 H 323.594 -0.226558 4.95783 0
M  V30 3407 H 318.85 0.630665 6.08139 0
M  V30 3408 H 323.024 1.24906 6.85107 0
M  V30 3409 H 320.651 1.68371 7.4132 0
M  V30 3410 N 322.226 -1.5378 -0.344866 0
M  V30 3411 C 323.475 -1.7018 -1.08267 0
M  V30 3412 C 323.788 -0.471 -1.89845 0
M  V30 3413 O 324.994 -0.515917 -2.66553 0
M  V30 3414 C 323.45 -3.00923 -1.97417 0
M  V30 3415 C 323.058 -4.31335 -1.21053 0
M  V30 3416 C 324.802 -3.26688 -2.71063 0
M  V30 3417 C 322.709 -5.53153 -2.09225 0
M  V30 3418 H 321.639 -0.634138 -0.407903 0
M  V30 3419 H 324.29 -1.8028 -0.342246 0
M  V30 3420 H 322.672 -2.84676 -2.75274 0
M  V30 3421 H 323.846 -4.58281 -0.481159 0
M  V30 3422 H 322.161 -4.12173 -0.591813 0
M  V30 3423 H 324.758 -4.1489 -3.37299 0
M  V30 3424 H 325.101 -2.43639 -3.37558 0
M  V30 3425 H 325.634 -3.43705 -2.0028 0
M  V30 3426 H 322.373 -6.38741 -1.47274 0
M  V30 3427 H 321.893 -5.30458 -2.79955 0
M  V30 3428 H 323.572 -5.88744 -2.68308 0
M  V30 3429 N 323.704 0.605807 -1.45491 0
M  V30 3430 C 324.944 1.37606 -1.51142 0
M  V30 3431 C 325.308 1.91413 -0.150075 0
M  V30 3432 O 326.509 2.68677 -0.0812828 0
M  V30 3433 C 324.78 2.49197 -2.56195 0
M  V30 3434 S 326.339 3.36953 -2.81083 0
M  V30 3435 H 323.157 0.469118 -0.534275 0
M  V30 3436 H 325.759 0.698845 -1.82583 0
M  V30 3437 H 324.463 2.0802 -3.53773 0
M  V30 3438 H 323.994 3.21717 -2.26411 0
M  V30 3439 H 326.009 4.47395 -2.14598 0
M  V30 3440 N 325.182 1.32811 0.848464 0
M  V30 3441 C 326.407 1.26882 1.6406 0
M  V30 3442 C 326.832 -0.15913 1.87426 0
M  V30 3443 O 326.19 -1.11258 1.43148 0
M  V30 3444 C 326.238 2.03997 2.97351 0
M  V30 3445 O 325.342 1.39201 3.88197 0
M  V30 3446 H 324.683 0.436982 0.499943 0
M  V30 3447 H 327.213 1.75224 1.0563 0
M  V30 3448 H 327.223 2.14403 3.47124 0
M  V30 3449 H 325.898 3.0783 2.79666 0
M  V30 3450 H 324.475 1.37381 3.46671 0
M  V30 3451 N 326.66 -1.06551 1.16123 0
M  V30 3452 C 327.89 -1.8274 0.963838 0
M  V30 3453 C 328.298 -1.82712 -0.491228 0
M  V30 3454 O 327.641 -1.24294 -1.35265 0
M  V30 3455 C 327.703 -3.3065 1.41106 0
M  V30 3456 C 327.367 -3.54384 2.88549 0
M  V30 3457 C 328.364 -3.4765 3.86569 0
M  V30 3458 C 326.049 -3.81789 3.26408 0
M  V30 3459 C 328.043 -3.67982 5.2045 0
M  V30 3460 C 325.73 -4.01772 4.60459 0
M  V30 3461 C 326.728 -3.94866 5.57288 0
M  V30 3462 O 326.416 -4.14306 6.88916 0
M  V30 3463 H 326.148 -0.583136 0.341948 0
M  V30 3464 H 328.702 -1.35351 1.54497 0
M  V30 3465 H 326.932 -3.78887 0.773394 0
M  V30 3466 H 328.621 -3.88324 1.1815 0
M  V30 3467 H 329.387 -3.2647 3.58667 0
M  V30 3468 H 325.266 -3.86276 2.51619 0
M  V30 3469 H 328.81 -3.62507 5.96015 0
M  V30 3470 H 324.707 -4.2244 4.88072 0
M  V30 3471 H 325.475 -4.31609 6.95454 0
M  V30 3472 O 328.177 -1.08916 -1.19246 0
M  V30 3473 H 328.868 -0.783022 -1.77168 0
M  V30 END ATOM
M  V30 BEGIN BOND
M  V30 END BOND
M  V30 END CTAB
M  END
$$$$
