drugbank_target|P13827 Merozoite surface protein 1 (DB11638)
 OpenBabel12092121113D

  0  0  0     0  0            999 V3000
M  V30 BEGIN CTAB
M  V30 COUNTS 3669 3701 0 0 0
M  V30 BEGIN ATOM
M  V30 1 H -0.908 1.98254 -0.117106 0
M  V30 2 N 0 1.576 0 0
M  V30 3 C 0.933 2.03868 1.02534 0
M  V30 4 C 1.911 0.928543 1.3348 0
M  V30 5 O 3.095 1.19667 1.45644 0
M  V30 6 C 0.222 2.43627 2.35294 0
M  V30 7 C -0.732 3.65373 2.2001 0
M  V30 8 S 0.101 5.13292 1.52614 0
M  V30 9 C 1.257 5.56322 2.86805 0
M  V30 10 H 1.49 2.90518 0.631377 0
M  V30 11 H -0.977 1.52953 0.210867 0
M  V30 12 H 0.981 2.67203 3.11629 0
M  V30 13 H -0.358 1.57376 2.7183 0
M  V30 14 H -1.165 3.90944 3.18086 0
M  V30 15 H -1.563 3.418 1.51819 0
M  V30 16 H 0.729 5.58782 3.83104 0
M  V30 17 H 1.672 6.56266 2.65933 0
M  V30 18 H 2.08 4.83886 2.90714 0
M  V30 19 N 1.4781 -0.272755 1.55222 0
M  V30 20 C 2.4251 -1.33716 1.88119 0
M  V30 21 C 3.3951 -1.49066 0.73271 0
M  V30 22 O 4.5801 -1.63469 0.984002 0
M  V30 23 C 1.7201 -2.69238 2.15882 0
M  V30 24 C 0.8331 -2.62108 3.43399 0
M  V30 25 C -0.0319 -3.89811 3.60861 0
M  V30 26 C -0.9929 -3.77193 4.8207 0
M  V30 27 N -1.8559 -4.9673 4.96189 0
M  V30 28 H 2.9841 -1.04962 2.78903 0
M  V30 29 H 0.5211 -0.507088 1.38083 0
M  V30 30 H 2.4791 -3.48089 2.29978 0
M  V30 31 H 1.1091 -2.96194 1.28331 0
M  V30 32 H 0.1611 -1.74967 3.37773 0
M  V30 33 H 1.4731 -2.48685 4.32386 0
M  V30 34 H 0.6271 -4.77103 3.74777 0
M  V30 35 H -0.6339 -4.06102 2.7006 0
M  V30 36 H -1.6289 -2.88284 4.68159 0
M  V30 37 H -0.4039 -3.62421 5.74307 0
M  V30 38 H -2.4579 -5.13431 4.08319 0
M  V30 39 H -2.5409 -4.85839 5.79221 0
M  V30 40 H -1.2729 -5.85594 5.1449 0
M  V30 41 N 2.9562 -1.48159 -0.537278 0
M  V30 42 C 4.2052 -1.5506 -1.28993 0
M  V30 43 C 4.5182 -0.226211 -1.94288 0
M  V30 44 O 5.7242 -0.173395 -2.70946 0
M  V30 45 C 4.1802 -2.73429 -2.34018 0
M  V30 46 C 3.7882 -4.1248 -1.74825 0
M  V30 47 C 5.5322 -2.89638 -3.10339 0
M  V30 48 C 3.4392 -5.22121 -2.77747 0
M  V30 49 H 2.3692 -0.577231 -0.485098 0
M  V30 50 H 5.0202 -1.74478 -0.568317 0
M  V30 51 H 3.4022 -2.47431 -3.09182 0
M  V30 52 H 4.5762 -4.48466 -1.05899 0
M  V30 53 H 2.8912 -4.01327 -1.11022 0
M  V30 54 H 5.4882 -3.68718 -3.87235 0
M  V30 55 H 5.8312 -1.9882 -3.65754 0
M  V30 56 H 6.3642 -3.15502 -2.42288 0
M  V30 57 H 3.1032 -6.1488 -2.27161 0
M  V30 58 H 2.6232 -4.90631 -3.45024 0
M  V30 59 H 4.3022 -5.49924 -3.4087 0
M  V30 60 N 4.4343 0.785586 -1.36625 0
M  V30 61 C 5.6833 1.53883 -1.30396 0
M  V30 62 C 5.9963 1.95271 0.113452 0
M  V30 63 O 7.2023 2.69858 0.298142 0
M  V30 64 C 5.6583 2.77808 -2.28802 0
M  V30 65 C 5.2663 2.43574 -3.75999 0
M  V30 66 C 7.0103 3.55783 -2.31558 0
M  V30 67 C 4.9173 3.63919 -4.66173 0
M  V30 68 H 3.8473 0.577678 -0.484566 0
M  V30 69 H 6.4983 0.861705 -1.62009 0
M  V30 70 H 4.8803 3.47339 -1.90188 0
M  V30 71 H 6.0543 1.81916 -4.23371 0
M  V30 72 H 4.3693 1.78803 -3.76056 0
M  V30 73 H 6.9663 4.45205 -2.96137 0
M  V30 74 H 7.3093 3.94644 -1.3252 0
M  V30 75 H 7.8423 2.93235 -2.68809 0
M  V30 76 H 4.5813 3.3015 -5.66287 0
M  V30 77 H 4.1013 4.2473 -4.23515 0
M  V30 78 H 5.7803 4.30901 -4.82632 0
M  V30 79 N 5.9124 1.20967 1.01018 0
M  V30 80 C 7.1594 1.02374 1.74716 0
M  V30 81 C 7.4874 -0.443375 1.89379 0
M  V30 82 O 6.7424 -1.34535 1.42123 0
M  V30 83 C 7.0414 1.65997 3.16512 0
M  V30 84 C 6.7074 3.15831 3.2181 0
M  V30 85 C 5.3694 3.56719 3.22963 0
M  V30 86 C 7.7214 4.11816 3.19464 0
M  V30 87 C 5.0494 4.92107 3.19449 0
M  V30 88 C 7.4014 5.47158 3.17491 0
M  V30 89 C 6.0654 5.87451 3.16951 0
M  V30 90 H 5.3354 0.374614 0.639332 0
M  V30 91 H 7.9824 1.50485 1.18434 0
M  V30 92 H 6.2874 1.10166 3.75993 0
M  V30 93 H 7.9844 1.49119 3.72242 0
M  V30 94 H 4.5744 2.83263 3.21652 0
M  V30 95 H 8.7584 3.81257 3.17737 0
M  V30 96 H 4.0144 5.22579 3.17366 0
M  V30 97 H 8.1884 6.21274 3.14629 0
M  V30 98 H 5.8154 6.92329 3.13983 0
M  V30 99 N 7.3905 -1.2043 1.01659 0
M  V30 100 C 8.6375 -1.89797 0.705917 0
M  V30 101 C 8.9655 -1.78848 -0.764439 0
M  V30 102 O 8.2205 -1.16694 -1.57102 0
M  V30 103 C 8.5195 -3.40464 1.08714 0
M  V30 104 C 8.1855 -3.71614 2.5537 0
M  V30 105 C 6.8475 -3.79826 2.95441 0
M  V30 106 C 9.1995 -3.85915 3.50313 0
M  V30 107 C 6.5275 -3.99797 4.29394 0
M  V30 108 C 8.8795 -4.07396 4.83954 0
M  V30 109 C 7.5435 -4.13837 5.23732 0
M  V30 110 H 6.8135 -0.694518 0.258313 0
M  V30 111 H 9.4605 -1.42691 1.27717 0
M  V30 112 H 7.7655 -3.89385 0.434309 0
M  V30 113 H 9.4625 -3.92433 0.824461 0
M  V30 114 H 6.0525 -3.65822 2.23321 0
M  V30 115 H 10.2365 -3.78926 3.20513 0
M  V30 116 H 5.4925 -4.03018 4.59768 0
M  V30 117 H 9.6665 -4.17404 5.57447 0
M  V30 118 H 7.2935 -4.29064 6.27541 0
M  V30 119 N 8.8686 -0.792821 -1.36206 0
M  V30 120 C 9.7986 -0.207853 -2.32573 0
M  V30 121 C 10.7796 0.659055 -1.56813 0
M  V30 122 O 11.9646 0.592176 -1.84951 0
M  V30 123 C 9.0946 0.655449 -3.41059 0
M  V30 124 C 8.0486 -0.111842 -4.27854 0
M  V30 125 C 7.3746 0.872274 -5.27537 0
M  V30 126 C 8.6746 -1.30299 -5.05786 0
M  V30 127 H 10.3686 -1.01294 -2.81744 0
M  V30 128 H 7.9146 -0.48854 -1.3546 0
M  V30 129 H 9.8676 1.07464 -4.07467 0
M  V30 130 H 8.5916 1.49328 -2.90463 0
M  V30 131 H 7.2506 -0.512053 -3.63006 0
M  V30 132 H 6.8986 1.70523 -4.73214 0
M  V30 133 H 6.5986 0.363291 -5.86476 0
M  V30 134 H 8.1226 1.28996 -5.96818 0
M  V30 135 H 9.5366 -0.959379 -5.65216 0
M  V30 136 H 7.9336 -1.7455 -5.74154 0
M  V30 137 H 9.0036 -2.09663 -4.37229 0
M  V30 138 N 10.3467 1.47872 -0.545128 0
M  V30 139 C 11.5867 2.04391 -0.0187854 0
M  V30 140 C 11.9507 1.41162 1.30144 0
M  V30 141 O 13.1517 1.88656 1.91474 0
M  V30 142 C 11.4227 3.57299 0.0850867 0
M  V30 143 S 12.9817 4.35221 0.559302 0
M  V30 144 H 9.7997 0.710737 -0.0193301 0
M  V30 145 H 12.4017 1.81395 -0.729125 0
M  V30 146 H 11.1057 4.00847 -0.880351 0
M  V30 147 H 10.6367 3.84773 0.819348 0
M  V30 148 H 12.6517 4.61571 1.82118 0
M  V30 149 N 11.8248 0.280983 1.55075 0
M  V30 150 C 13.0498 -0.340154 2.04592 0
M  V30 151 C 13.4748 -1.48246 1.15779 0
M  V30 152 O 12.8328 -1.80614 0.15761 0
M  V30 153 C 12.8808 -0.793104 3.5177 0
M  V30 154 O 11.9848 -1.89981 3.66034 0
M  V30 155 H 11.3258 -0.0694289 0.66036 0
M  V30 156 H 13.8558 0.416993 2.00306 0
M  V30 157 H 13.8658 -1.08729 3.93245 0
M  V30 158 H 12.5408 0.0426163 4.15878 0
M  V30 159 H 11.1178 -1.60771 3.36463 0
M  V30 160 N 13.3029 -1.57598 0.00835791 0
M  V30 161 C 14.5499 -1.90928 -0.674732 0
M  V30 162 C 14.8779 -0.88277 -1.73313 0
M  V30 163 O 14.1329 0.111294 -1.95383 0
M  V30 164 C 14.4319 -3.3101 -1.34787 0
M  V30 165 C 14.0979 -4.48922 -0.421861 0
M  V30 166 C 12.7599 -4.8091 -0.166927 0
M  V30 167 C 15.1119 -5.20755 0.215211 0
M  V30 168 C 12.4399 -5.821 0.733232 0
M  V30 169 C 14.7919 -6.22905 1.1033 0
M  V30 170 C 13.4559 -6.53346 1.36733 0
M  V30 171 H 12.7259 -0.698656 -0.246902 0
M  V30 172 H 15.3729 -1.91387 0.0656779 0
M  V30 173 H 13.6779 -3.26714 -2.16253 0
M  V30 174 H 15.3749 -3.54061 -1.8826 0
M  V30 175 H 11.9649 -4.23934 -0.630729 0
M  V30 176 H 16.1489 -4.9629 0.0312829 0
M  V30 177 H 11.4049 -6.04042 0.945712 0
M  V30 178 H 15.5789 -6.77694 1.60325 0
M  V30 179 H 13.2059 -7.31573 2.06652 0
M  V30 180 N 14.781 0.264519 -1.55364 0
M  V30 181 C 15.711 1.33121 -1.91836 0
M  V30 182 C 16.692 1.51101 -0.781192 0
M  V30 183 O 17.877 1.64003 -1.04003 0
M  V30 184 C 15.007 2.68921 -2.19769 0
M  V30 185 C 13.961 2.65661 -3.35571 0
M  V30 186 C 13.287 4.05093 -3.49004 0
M  V30 187 C 14.587 2.24187 -4.71739 0
M  V30 188 H 16.281 1.02844 -2.81182 0
M  V30 189 H 13.827 0.493286 -1.35287 0
M  V30 190 H 15.78 3.43663 -2.43872 0
M  V30 191 H 14.504 3.00799 -1.27231 0
M  V30 192 H 13.163 1.93377 -3.1145 0
M  V30 193 H 12.811 4.34206 -2.53917 0
M  V30 194 H 12.511 4.03804 -4.26868 0
M  V30 195 H 14.035 4.81561 -3.75408 0
M  V30 196 H 15.449 2.88654 -4.9533 0
M  V30 197 H 13.846 2.34044 -5.52579 0
M  V30 198 H 14.916 1.19327 -4.69988 0
M  V30 199 N 16.2591 1.48442 0.529413 0
M  V30 200 C 17.5061 1.56488 1.28521 0
M  V30 201 C 17.8341 0.239042 1.93025 0
M  V30 202 O 17.0891 -0.770713 1.79885 0
M  V30 203 C 17.3881 2.6523 2.39558 0
M  V30 204 C 17.0541 4.07648 1.92702 0
M  V30 205 C 15.7161 4.46411 1.79641 0
M  V30 206 C 18.0681 4.96896 1.573 0
M  V30 207 C 15.3961 5.72226 1.29514 0
M  V30 208 C 17.7481 6.23202 1.08636 0
M  V30 209 C 16.4121 6.60821 0.941919 0
M  V30 210 H 15.6821 0.572631 0.470292 0
M  V30 211 H 18.3291 1.82161 0.59072 0
M  V30 212 H 16.6341 2.33419 3.14679 0
M  V30 213 H 18.3311 2.68671 2.97686 0
M  V30 214 H 14.9211 3.77036 2.03819 0
M  V30 215 H 19.1051 4.67626 1.66251 0
M  V30 216 H 14.3611 6.00097 1.17019 0
M  V30 217 H 18.5351 6.91753 0.803136 0
M  V30 218 H 16.1621 7.58198 0.5513 0
M  V30 219 N 17.7372 -0.778329 1.37039 0
M  V30 220 C 18.9842 -1.53665 1.31884 0
M  V30 221 C 19.3122 -1.9425 -0.0986303 0
M  V30 222 O 18.5672 -1.63832 -1.07041 0
M  V30 223 C 18.8662 -2.81845 2.19768 0
M  V30 224 C 18.5322 -2.60345 3.68146 0
M  V30 225 C 17.1942 -2.5419 4.08584 0
M  V30 226 C 19.5462 -2.40923 4.62175 0
M  V30 227 C 16.8742 -2.26594 5.41177 0
M  V30 228 C 19.2262 -2.14852 5.94997 0
M  V30 229 C 17.8902 -2.07137 6.34547 0
M  V30 230 H 17.1602 -0.562299 0.482598 0
M  V30 231 H 19.8072 -0.897069 1.69189 0
M  V30 232 H 18.1122 -3.50328 1.75436 0
M  V30 233 H 19.8092 -3.39692 2.13097 0
M  V30 234 H 16.3992 -2.65996 3.36072 0
M  V30 235 H 20.5832 -2.44673 4.31797 0
M  V30 236 H 15.8392 -2.19111 5.70789 0
M  V30 237 H 20.0132 -1.98822 6.67415 0
M  V30 238 H 17.6402 -1.85518 7.37216 0
M  V30 239 N 19.2153 -1.21501 -1.00376 0
M  V30 240 C 20.4643 -1.02718 -1.73586 0
M  V30 241 C 20.7773 0.439589 -1.90596 0
M  V30 242 O 21.9833 0.746848 -2.61026 0
M  V30 243 C 20.4393 -1.78929 -3.1227 0
M  V30 244 C 20.0473 -3.29783 -3.03228 0
M  V30 245 C 21.7913 -1.68557 -3.89601 0
M  V30 246 C 19.6983 -3.98479 -4.36999 0
M  V30 247 H 18.6283 -0.380733 -0.650814 0
M  V30 248 H 21.2793 -1.45248 -1.1214 0
M  V30 249 H 19.6613 -1.29192 -3.74333 0
M  V30 250 H 20.8353 -3.86832 -2.50395 0
M  V30 251 H 19.1503 -3.40711 -2.39385 0
M  V30 252 H 21.7473 -2.17211 -4.88593 0
M  V30 253 H 22.0903 -0.644021 -4.11288 0
M  V30 254 H 22.6233 -2.15778 -3.34193 0
M  V30 255 H 19.3623 -5.02841 -4.20513 0
M  V30 256 H 18.8823 -3.46219 -4.89788 0
M  V30 257 H 20.5613 -4.03462 -5.05794 0
M  V30 258 N 20.6934 1.19889 -1.02296 0
M  V30 259 C 21.9424 1.88743 -0.711257 0
M  V30 260 C 22.2554 1.80112 0.762817 0
M  V30 261 O 23.4614 2.44161 1.18733 0
M  V30 262 C 21.9174 3.38525 -1.22185 0
M  V30 263 C 21.5254 3.55727 -2.72328 0
M  V30 264 C 23.2694 4.12893 -0.985864 0
M  V30 265 C 21.1764 4.99369 -3.16835 0
M  V30 266 H 20.1064 0.706885 -0.262353 0
M  V30 267 H 22.7574 1.35586 -1.23648 0
M  V30 268 H 21.1394 3.91044 -0.624571 0
M  V30 269 H 22.3134 3.13564 -3.3766 0
M  V30 270 H 20.6284 2.94739 -2.9414 0
M  V30 271 H 23.2254 5.18813 -1.29374 0
M  V30 272 H 23.5684 4.16228 0.0775055 0
M  V30 273 H 24.1014 3.66494 -1.54684 0
M  V30 274 H 20.8404 5.01193 -4.22476 0
M  V30 275 H 20.3604 5.42317 -2.56228 0
M  V30 276 H 22.0394 5.67988 -3.09837 0
M  V30 277 N 22.1715 0.800033 1.35784 0
M  V30 278 C 23.1195 0.193851 2.31791 0
M  V30 279 C 24.1135 -0.652744 1.56319 0
M  V30 280 O 25.3195 -0.546641 1.71499 0
M  V30 281 H 21.6945 0.04392 0.750716 0
M  V30 282 H 23.6655 1.01883 2.80468 0
M  V30 283 C 22.4145 -0.648338 3.41602 0
M  V30 284 H 21.7375 -0.00624665 3.998 0
M  V30 285 H 23.1775 -1.03898 4.11073 0
M  V30 286 C 21.6365 -1.8111 2.84079 0
M  V30 287 O 22.1665 -2.90825 2.77099 0
M  V30 288 N 20.3725 -1.62056 2.41218 0
M  V30 289 H 19.9195 -0.728123 2.47095 0
M  V30 290 H 19.8775 -2.40013 2.03079 0
M  V30 291 N 23.6496 -1.47581 0.552962 0
M  V30 292 C 24.8776 -2.06875 0.0320556 0
M  V30 293 C 25.2926 -1.40625 -1.25976 0
M  V30 294 O 24.6496 -0.501349 -1.75479 0
M  V30 295 C 24.7006 -3.61092 -0.17167 0
M  V30 296 O 24.4216 -4.24858 1.06899 0
M  V30 297 C 25.9226 -4.37242 -0.730344 0
M  V30 298 H 23.1426 -0.669561 0.043915 0
M  V30 299 H 25.6866 -1.89646 0.765163 0
M  V30 300 H 23.8416 -3.7785 -0.854894 0
M  V30 301 H 24.2556 -5.17334 0.864059 0
M  V30 302 H 25.7296 -5.45842 -0.822203 0
M  V30 303 H 26.2066 -4.03235 -1.74064 0
M  V30 304 H 26.8126 -4.25219 -0.0829543 0
M  V30 305 N 25.1277 -0.289203 -1.54924 0
M  V30 306 C 26.0597 0.625583 -2.20497 0
M  V30 307 C 27.0727 1.10667 -1.19402 0
M  V30 308 O 28.2617 1.02615 -1.46056 0
M  V30 309 C 25.3617 1.86702 -2.82835 0
M  V30 310 C 24.5347 1.5304 -4.09753 0
M  V30 311 C 23.5937 2.62576 -4.56005 0
M  V30 312 O 22.6197 2.28167 -5.21468 0
M  V30 313 N 23.8217 3.92901 -4.27328 0
M  V30 314 H 26.5867 0.0642801 -2.99631 0
M  V30 315 H 24.1477 -0.110896 -1.6152 0
M  V30 316 H 26.1397 2.59304 -3.10715 0
M  V30 317 H 24.7097 2.33702 -2.07611 0
M  V30 318 H 23.9297 0.637564 -3.8901 0
M  V30 319 H 25.2177 1.28072 -4.92418 0
M  V30 320 H 24.6157 4.23671 -3.74859 0
M  V30 321 H 23.1727 4.61837 -4.59946 0
M  V30 322 N 26.6058 1.57591 -0.0167156 0
M  V30 323 C 27.8458 1.93145 0.668902 0
M  V30 324 C 28.2098 0.892406 1.7 0
M  V30 325 O 29.4108 1.13373 2.43721 0
M  V30 326 C 27.6818 3.33678 1.28039 0
M  V30 327 S 29.2408 3.91142 1.9888 0
M  V30 328 H 26.0588 0.67593 0.220545 0
M  V30 329 H 28.6608 1.95347 -0.0774105 0
M  V30 330 H 27.3648 4.07126 0.517339 0
M  V30 331 H 26.8958 3.3489 2.06427 0
M  V30 332 H 28.9108 3.73571 3.26587 0
M  V30 333 N 28.0839 -0.256276 1.55502 0
M  V30 334 C 29.3299 -0.987079 1.77157 0
M  V30 335 C 29.6629 -1.85327 0.580315 0
M  V30 336 O 28.9379 -1.89874 -0.421686 0
M  V30 337 C 29.2209 -1.85553 3.08613 0
M  V30 338 C 29.0739 -1.01816 4.38125 0
M  V30 339 C 30.3929 -2.8397 3.36228 0
M  V30 340 H 27.5119 -0.357428 0.644526 0
M  V30 341 H 30.1539 -0.258239 1.88237 0
M  V30 342 H 28.3039 -2.47695 2.99298 0
M  V30 343 H 29.9759 -0.416159 4.59419 0
M  V30 344 H 28.2189 -0.322178 4.32602 0
M  V30 345 H 28.8899 -1.65939 5.26468 0
M  V30 346 H 31.3659 -2.31964 3.45445 0
M  V30 347 H 30.2419 -3.41864 4.29442 0
M  V30 348 H 30.5029 -3.59955 2.56681 0
M  V30 349 N 29.562 -1.4872 -0.521534 0
M  V30 350 C 30.79 -1.60843 -1.30142 0
M  V30 351 C 31.205 -0.271897 -1.86832 0
M  V30 352 O 30.562 0.739969 -1.66825 0
M  V30 353 C 30.613 -2.66155 -2.4463 0
M  V30 354 O 30.334 -3.94623 -1.90275 0
M  V30 355 C 31.835 -2.88795 -3.36322 0
M  V30 356 H 29.055 -0.542075 -0.395468 0
M  V30 357 H 31.599 -1.94609 -0.628285 0
M  V30 358 H 29.754 -2.35224 -3.07812 0
M  V30 359 H 30.168 -4.52468 -2.65279 0
M  V30 360 H 31.642 -3.66264 -4.12983 0
M  V30 361 H 32.119 -1.97934 -3.9207 0
M  V30 362 H 32.725 -3.21063 -2.78924 0
M  V30 363 N 31.0401 0.771051 -1.3745 0
M  V30 364 C 31.9901 1.87456 -1.29785 0
M  V30 365 C 32.9741 1.59827 -0.185541 0
M  V30 366 O 34.1661 1.71945 -0.419997 0
M  V30 367 C 31.2951 3.24935 -1.1078 0
M  V30 368 C 30.3811 3.58514 -2.26558 0
M  V30 369 N 30.7721 3.6327 -3.5195 0
M  V30 370 C 29.0701 3.88683 -2.18727 0
M  V30 371 C 29.7711 3.93616 -4.283 0
M  V30 372 N 28.7471 4.09551 -3.57448 0
M  V30 373 H 32.5491 1.89386 -2.24745 0
M  V30 374 H 30.0631 0.967531 -1.30432 0
M  V30 375 H 32.0601 4.03881 -1.03374 0
M  V30 376 H 30.7201 3.24268 -0.16738 0
M  V30 377 H 31.7311 3.45458 -3.85848 0
M  V30 378 H 28.4081 3.95834 -1.32746 0
M  V30 379 H 29.7981 4.04066 -5.36824 0
M  V30 380 N 32.5182 1.22032 0.997298 0
M  V30 381 C 33.4282 1.00271 2.12092 0
M  V30 382 C 34.4442 -0.047621 1.73935 0
M  V30 383 O 35.6202 0.144136 2.00884 0
M  V30 384 C 32.6852 0.578449 3.4184 0
M  V30 385 C 31.7462 1.70189 3.94125 0
M  V30 386 C 30.9792 1.29778 5.17681 0
M  V30 387 O 31.2022 0.174676 5.70132 0
M  V30 388 O 30.1362 2.11261 5.63607 0
M  V30 389 H 33.9622 1.94398 2.3333 0
M  V30 390 H 31.5472 1.00587 1.10465 0
M  V30 391 H 33.4292 0.351998 4.19927 0
M  V30 392 H 32.1042 -0.334019 3.21972 0
M  V30 393 H 31.0112 1.98282 3.1723 0
M  V30 394 H 32.3442 2.59206 4.18417 0
M  V30 395 N 33.9963 -1.19345 1.0293 0
M  V30 396 C 35.2213 -1.93538 0.745511 0
M  V30 397 C 35.6463 -1.75007 -0.689511 0
M  V30 398 O 35.0043 -1.05265 -1.47611 0
M  V30 399 C 35.0523 -3.43336 1.10239 0
M  V30 400 O 34.1563 -4.11806 0.221289 0
M  V30 401 H 33.4973 -0.604193 0.275404 0
M  V30 402 H 36.0273 -1.5141 1.37609 0
M  V30 403 H 36.0373 -3.94004 1.05947 0
M  V30 404 H 34.7123 -3.56146 2.14786 0
M  V30 405 H 33.2893 -3.715 0.322842 0
M  V30 406 N 35.4744 -0.807222 -1.35358 0
M  V30 407 C 36.7044 -0.399796 -2.02695 0
M  V30 408 C 37.1124 0.994176 -1.60974 0
M  V30 409 O 36.4554 1.65209 -0.803226 0
M  V30 410 C 36.5174 -0.404445 -3.57218 0
M  V30 411 C 36.1814 -1.74904 -4.22206 0
M  V30 412 C 37.1784 -2.70743 -4.4384 0
M  V30 413 C 34.8634 -2.03322 -4.5931 0
M  V30 414 C 36.8574 -3.93183 -5.01683 0
M  V30 415 C 34.5444 -3.26026 -5.16866 0
M  V30 416 C 35.5424 -4.20774 -5.37994 0
M  V30 417 O 35.2304 -5.41312 -5.94337 0
M  V30 418 H 34.9624 -0.160517 -0.656666 0
M  V30 419 H 37.5164 -1.09235 -1.73945 0
M  V30 420 H 35.7464 0.344707 -3.85161 0
M  V30 421 H 37.4354 -0.0192429 -4.05895 0
M  V30 422 H 38.2014 -2.5008 -4.15554 0
M  V30 423 H 34.0804 -1.30384 -4.42178 0
M  V30 424 H 37.6244 -4.6715 -5.1809 0
M  V30 425 H 33.5214 -3.46559 -5.44579 0
M  V30 426 H 34.2894 -5.42618 -6.12787 0
M  V30 427 N 36.9525 1.47285 -0.560781 0
M  V30 428 C 37.8845 2.28118 0.222438 0
M  V30 429 C 38.8975 1.37219 0.876056 0
M  V30 430 O 40.0865 1.62011 0.749307 0
M  V30 431 C 37.1865 3.1159 1.33285 0
M  V30 432 C 36.3595 4.30473 0.77534 0
M  V30 433 C 35.4185 4.95513 1.77069 0
M  V30 434 O 34.4445 5.53792 1.31539 0
M  V30 435 N 35.6465 4.90531 3.10418 0
M  V30 436 H 38.4115 2.95976 -0.470958 0
M  V30 437 H 35.9725 1.56955 -0.39709 0
M  V30 438 H 37.9645 3.51967 1.99752 0
M  V30 439 H 36.5345 2.45951 1.92943 0
M  V30 440 H 35.7545 3.94144 -0.0662113 0
M  V30 441 H 37.0425 5.07362 0.382272 0
M  V30 442 H 36.4405 4.44389 3.5005 0
M  V30 443 H 34.9975 5.34917 3.72434 0
M  V30 444 N 38.4306 0.297415 1.54768 0
M  V30 445 C 39.3406 -0.58983 2.27064 0
M  V30 446 C 40.3566 -1.15144 1.30453 0
M  V30 447 O 41.5326 -1.17699 1.63428 0
M  V30 448 C 38.5976 -1.74714 2.9946 0
M  V30 449 C 37.6586 -1.21997 4.11601 0
M  V30 450 C 36.8916 -2.32212 4.80535 0
M  V30 451 O 37.1146 -3.52036 4.48806 0
M  V30 452 O 36.0486 -1.99106 5.68014 0
M  V30 453 H 39.8746 -0.00348199 3.037 0
M  V30 454 H 37.4596 0.0640035 1.49263 0
M  V30 455 H 39.3416 -2.42147 3.44881 0
M  V30 456 H 38.0166 -2.32016 2.25722 0
M  V30 457 H 36.9236 -0.511458 3.70587 0
M  V30 458 H 38.2566 -0.692419 4.87305 0
M  V30 459 N 39.9087 -1.5758 0.0250728 0
M  V30 460 C 40.8387 -2.13007 -0.956575 0
M  V30 461 C 41.8197 -1.0452 -1.342 0
M  V30 462 O 43.0047 -1.32332 -1.42133 0
M  V30 463 C 40.1347 -2.65386 -2.24026 0
M  V30 464 C 39.0887 -3.78623 -1.99571 0
M  V30 465 C 38.4147 -4.17414 -3.3417 0
M  V30 466 C 39.7147 -5.04867 -1.33814 0
M  V30 467 H 41.4087 -2.9528 -0.494991 0
M  V30 468 H 38.9547 -1.42042 -0.236651 0
M  V30 469 H 40.9077 -3.02794 -2.93076 0
M  V30 470 H 39.6317 -1.80268 -2.72343 0
M  V30 471 H 38.2907 -3.41646 -1.32941 0
M  V30 472 H 37.9387 -3.29284 -3.80238 0
M  V30 473 H 37.6387 -4.93719 -3.18615 0
M  V30 474 H 39.1627 -4.57402 -4.04495 0
M  V30 475 H 40.5767 -5.39888 -1.92857 0
M  V30 476 H 38.9737 -5.86144 -1.28669 0
M  V30 477 H 40.0437 -4.83904 -0.310561 0
M  V30 478 N 41.3868 0.248026 -1.55636 0
M  V30 479 C 42.6328 0.97767 -1.77678 0
M  V30 480 C 42.9658 1.85016 -0.590135 0
M  V30 481 O 42.2408 1.90095 0.411611 0
M  V30 482 C 42.5238 1.83914 -3.09593 0
M  V30 483 C 42.3768 0.99491 -4.38659 0
M  V30 484 C 43.6958 2.82183 -3.37729 0
M  V30 485 H 40.8148 0.354005 -0.646413 0
M  V30 486 H 43.4568 0.248253 -1.88371 0
M  V30 487 H 41.6068 2.46104 -3.00608 0
M  V30 488 H 43.2788 0.391789 -4.59633 0
M  V30 489 H 41.5218 0.299231 -4.32767 0
M  V30 490 H 42.1928 1.63145 -5.2734 0
M  V30 491 H 44.6688 2.30129 -3.4667 0
M  V30 492 H 43.5448 3.39582 -4.31249 0
M  V30 493 H 43.8058 3.58588 -2.58586 0
M  V30 494 N 42.8649 1.48995 0.513639 0
M  V30 495 C 43.8119 1.6473 1.61656 0
M  V30 496 C 44.7819 0.488984 1.58739 0
M  V30 497 O 45.9669 0.714478 1.76918 0
M  V30 498 C 43.1069 1.7082 2.99858 0
M  V30 499 C 42.2199 2.9787 3.12885 0
M  V30 500 C 41.3549 2.95017 4.41744 0
M  V30 501 C 40.3939 4.16702 4.48359 0
M  V30 502 N 39.5309 4.11832 5.68629 0
M  V30 503 H 44.3709 2.58909 1.47547 0
M  V30 504 H 41.9079 1.28382 0.71808 0
M  V30 505 H 43.8659 1.72331 3.79944 0
M  V30 506 H 42.4959 0.801181 3.12699 0
M  V30 507 H 41.5479 3.06029 2.25944 0
M  V30 508 H 42.8599 3.8786 3.13633 0
M  V30 509 H 42.0139 2.95021 5.30139 0
M  V30 510 H 40.7529 2.02784 4.43542 0
M  V30 511 H 39.7579 4.16955 3.58369 0
M  V30 512 H 40.9829 5.10113 4.48287 0
M  V30 513 H 38.9289 3.22428 5.71293 0
M  V30 514 H 38.8459 4.95543 5.7094 0
M  V30 515 H 40.1139 4.1592 6.59266 0
M  V30 516 N 44.343 -0.763751 1.37857 0
M  V30 517 C 45.29 -1.87726 1.34267 0
M  V30 518 C 46.26 -1.64807 0.206879 0
M  V30 519 O 47.445 -1.86613 0.397508 0
M  V30 520 C 44.585 -3.24896 1.16346 0
M  V30 521 C 43.698 -3.59716 2.39225 0
M  V30 522 C 42.833 -4.86137 2.14114 0
M  V30 523 C 41.872 -5.13711 3.32817 0
M  V30 524 N 41.009 -6.31323 3.07206 0
M  V30 525 H 45.849 -1.90129 2.29466 0
M  V30 526 H 43.386 -0.929433 1.14017 0
M  V30 527 H 45.344 -4.04036 1.03975 0
M  V30 528 H 43.974 -3.21847 0.247909 0
M  V30 529 H 43.026 -2.75498 2.62307 0
M  V30 530 H 44.338 -3.76027 3.27728 0
M  V30 531 H 43.492 -5.73198 1.9882 0
M  V30 532 H 42.231 -4.71945 1.22961 0
M  V30 533 H 41.236 -4.25123 3.48641 0
M  V30 534 H 42.461 -5.29807 4.24832 0
M  V30 535 H 40.407 -6.18474 2.1869 0
M  V30 536 H 40.324 -6.48087 3.89254 0
M  V30 537 H 41.592 -7.213 2.95546 0
M  V30 538 N 45.8211 -1.22559 -0.990812 0
M  V30 539 C 46.7511 -1.0218 -2.09956 0
M  V30 540 C 47.7321 0.0579394 -1.70001 0
M  V30 541 O 48.9171 -0.104684 -1.93918 0
M  V30 542 C 46.0471 -0.601023 -3.4206 0
M  V30 543 C 45.0011 -1.62694 -3.95872 0
M  V30 544 C 44.3271 -1.06193 -5.24049 0
M  V30 545 C 45.6271 -3.01743 -4.2632 0
M  V30 546 H 47.3211 -1.94916 -2.27262 0
M  V30 547 H 44.8671 -0.938566 -1.09211 0
M  V30 548 H 46.8201 -0.445561 -4.19038 0
M  V30 549 H 45.5441 0.362005 -3.24588 0
M  V30 550 H 44.2031 -1.77021 -3.21028 0
M  V30 551 H 43.8511 -0.0901903 -5.02919 0
M  V30 552 H 43.5511 -1.74732 -5.61019 0
M  V30 553 H 45.0751 -0.918092 -6.03658 0
M  V30 554 H 46.4891 -2.90777 -4.94087 0
M  V30 555 H 44.8861 -3.67425 -4.74467 0
M  V30 556 H 45.9561 -3.51518 -3.34011 0
M  V30 557 N 47.2992 1.18797 -1.03562 0
M  V30 558 C 48.2092 2.25913 -0.632505 0
M  V30 559 C 49.2252 1.70668 0.338882 0
M  V30 560 O 50.4012 2.00453 0.195076 0
M  V30 561 C 47.4662 3.467 0.00350942 0
M  V30 562 C 46.5272 4.17098 -1.01624 0
M  V30 563 C 45.7602 5.32119 -0.410478 0
M  V30 564 O 45.9832 5.64976 0.784725 0
M  V30 565 O 44.9172 5.9107 -1.13667 0
M  V30 566 H 48.7432 2.62648 -1.52478 0
M  V30 567 H 46.3282 1.25781 -0.806195 0
M  V30 568 H 48.2102 4.19878 0.35781 0
M  V30 569 H 46.8852 3.11798 0.869686 0
M  V30 570 H 45.7922 3.4601 -1.42224 0
M  V30 571 H 47.1252 4.55987 -1.85301 0
M  V30 572 N 48.7773 0.814389 1.34928 0
M  V30 573 C 49.7403 0.235759 2.27984 0
M  V30 574 C 50.7403 -0.581412 1.49921 0
M  V30 575 O 51.9303 -0.398758 1.69575 0
M  V30 576 C 49.0623 -0.670433 3.34242 0
M  V30 577 H 50.2553 1.05659 2.80671 0
M  V30 578 H 47.8083 0.585614 1.44915 0
M  V30 579 H 48.5433 -1.51466 2.86755 0
M  V30 580 H 48.3283 -0.0860822 3.92005 0
M  V30 581 H 49.8183 -1.06935 4.03676 0
M  V30 582 N 50.2554 -1.46986 0.568584 0
M  V30 583 C 51.1854 -2.32946 -0.160753 0
M  V30 584 C 52.1664 -1.44487 -0.897631 0
M  V30 585 O 53.3514 -1.73327 -0.875867 0
M  V30 586 C 50.4814 -3.26494 -1.18403 0
M  V30 587 C 49.4354 -4.24282 -0.562895 0
M  V30 588 C 48.7614 -5.07236 -1.69163 0
M  V30 589 C 50.0614 -5.19989 0.490761 0
M  V30 590 H 51.7554 -2.94175 0.556916 0
M  V30 591 H 49.3014 -1.4146 0.26927 0
M  V30 592 H 51.2544 -3.85477 -1.70251 0
M  V30 593 H 49.9784 -2.63343 -1.93179 0
M  V30 594 H 48.6374 -3.66541 -0.0656164 0
M  V30 595 H 48.2854 -4.4048 -2.42871 0
M  V30 596 H 47.9854 -5.7345 -1.28174 0
M  V30 597 H 49.5094 -5.6908 -2.21314 0
M  V30 598 H 50.9234 -5.73271 0.0579047 0
M  V30 599 H 49.3204 -5.94469 0.820165 0
M  V30 600 H 50.3904 -4.64777 1.3824 0
M  V30 601 N 51.7335 -0.305618 -1.54608 0
M  V30 602 C 52.6435 0.57778 -2.27374 0
M  V30 603 C 53.6595 1.14451 -1.31061 0
M  V30 604 O 54.8355 1.16831 -1.6405 0
M  V30 605 C 51.9005 1.73123 -3.00382 0
M  V30 606 C 50.9615 1.19812 -4.12242 0
M  V30 607 C 50.1945 2.2966 -4.81759 0
M  V30 608 O 50.4175 3.49651 -4.50666 0
M  V30 609 O 49.3515 1.96091 -5.69062 0
M  V30 610 H 53.1775 -0.012624 -3.03697 0
M  V30 611 H 50.7625 -0.0719184 -1.49227 0
M  V30 612 H 52.6445 2.40315 -3.4616 0
M  V30 613 H 51.3195 2.30815 -2.26949 0
M  V30 614 H 50.2265 0.491798 -3.70853 0
M  V30 615 H 51.5595 0.666566 -4.87666 0
M  V30 616 N 53.2116 1.57565 -0.0334293 0
M  V30 617 C 54.4886 1.83282 0.683163 0
M  V30 618 C 54.8686 0.91823 1.90084 0
M  V30 619 O 54.2166 -0.025113 2.28486 0
M  V30 620 C 54.4266 3.32599 1.0573 0
M  V30 621 C 55.7746 3.99179 1.44711 0
M  V30 622 O 56.7986 3.3712 1.15015 0
M  V30 623 O 55.6576 5.08565 2.0006 0
M  V30 624 H 52.7516 0.755869 0.335546 0
M  V30 625 H 55.2976 1.69589 -0.0614402 0
M  V30 626 H 54.0696 3.90834 0.190828 0
M  V30 627 H 53.6926 3.51415 1.85993 0
M  V30 628 N 54.6897 -0.239769 1.55765 0
M  V30 629 C 55.6527 -1.28038 1.90103 0
M  V30 630 C 56.6527 -1.40723 0.778055 0
M  V30 631 O 57.8427 -1.39301 1.04599 0
M  V30 632 C 54.9747 -2.65702 2.13577 0
M  V30 633 H 56.1677 -0.988048 2.83157 0
M  V30 634 H 53.7207 -0.479382 1.48767 0
M  V30 635 H 54.4557 -3.00063 1.23015 0
M  V30 636 H 54.2407 -2.57875 2.95369 0
M  V30 637 H 55.7307 -3.40828 2.41301 0
M  V30 638 N 56.1678 -1.49265 -0.50573 0
M  V30 639 C 57.4138 -1.58748 -1.26202 0
M  V30 640 C 57.7468 -0.271227 -1.92297 0
M  V30 641 O 57.0218 0.724831 -1.80489 0
M  V30 642 C 57.3048 -2.74332 -2.33268 0
M  V30 643 C 57.1578 -4.15737 -1.71705 0
M  V30 644 C 58.4768 -2.85576 -3.34865 0
M  V30 645 H 55.5958 -0.577826 -0.457478 0
M  V30 646 H 58.2378 -1.81532 -0.560897 0
M  V30 647 H 56.3878 -2.55036 -2.93068 0
M  V30 648 H 58.0598 -4.46537 -1.15769 0
M  V30 649 H 56.3028 -4.21605 -1.02135 0
M  V30 650 H 56.9738 -4.92477 -2.49341 0
M  V30 651 H 59.4498 -3.03127 -2.8505 0
M  V30 652 H 58.3258 -3.68135 -4.07146 0
M  V30 653 H 58.5868 -1.94732 -3.96903 0
M  V30 654 N 57.6459 0.756429 -1.3826 0
M  V30 655 C 58.5759 1.88374 -1.37976 0
M  V30 656 C 59.5569 1.68311 -0.246082 0
M  V30 657 O 60.7419 1.88944 -0.44874 0
M  V30 658 C 57.8719 3.25864 -1.20125 0
M  V30 659 C 56.8259 3.60523 -2.30666 0
M  V30 660 C 56.1519 4.9672 -1.97923 0
M  V30 661 C 57.4519 3.65692 -3.72916 0
M  V30 662 H 59.1459 1.88869 -2.32312 0
M  V30 663 H 56.6919 0.907272 -1.11824 0
M  V30 664 H 58.6449 4.0438 -1.18552 0
M  V30 665 H 57.3689 3.25841 -0.222498 0
M  V30 666 H 56.0279 2.84324 -2.3142 0
M  V30 667 H 55.6759 4.93253 -0.985393 0
M  V30 668 H 55.3759 5.20878 -2.71955 0
M  V30 669 H 56.8999 5.77618 -1.97964 0
M  V30 670 H 58.3139 4.34328 -3.74208 0
M  V30 671 H 56.7109 4.01358 -4.4613 0
M  V30 672 H 57.7809 2.65987 -4.05436 0
M  V30 673 N 59.124 1.23083 0.984299 0
M  V30 674 C 60.352 1.08714 1.76037 0
M  V30 675 C 60.767 -0.361691 1.85303 0
M  V30 676 O 60.124 -1.25034 1.32939 0
M  V30 677 C 60.175 1.70206 3.18923 0
M  V30 678 O 59.896 3.09423 3.10144 0
M  V30 679 C 61.397 1.61227 4.12941 0
M  V30 680 H 58.617 0.380664 0.552572 0
M  V30 681 H 61.161 1.62853 1.23689 0
M  V30 682 H 59.316 1.20109 3.6831 0
M  V30 683 H 59.73 3.39188 4.00065 0
M  V30 684 H 61.204 2.08962 5.10919 0
M  V30 685 H 61.681 0.570375 4.35481 0
M  V30 686 H 62.287 2.10671 3.69456 0
M  V30 687 N 60.6021 -1.18246 1.0419 0
M  V30 688 C 61.8501 -1.87886 0.744543 0
M  V30 689 C 62.1711 -1.8082 -0.730006 0
M  V30 690 O 61.4411 -1.22736 -1.52685 0
M  V30 691 H 60.0211 -0.695556 0.272417 0
M  V30 692 H 62.6831 -1.43494 1.31892 0
M  V30 693 H 61.7791 -2.9389 1.05049 0
M  V30 694 N 62.0802 -0.821533 -1.34494 0
M  V30 695 C 63.3102 -0.421272 -2.02259 0
M  V30 696 C 63.7182 0.977047 -1.6202 0
M  V30 697 O 63.0612 1.64348 -0.820703 0
M  V30 698 C 63.1232 -0.44231 -3.56769 0
M  V30 699 C 62.7872 -1.79372 -4.20327 0
M  V30 700 C 63.7842 -2.75435 -4.40944 0
M  V30 701 C 61.4692 -2.08182 -4.57127 0
M  V30 702 C 63.4632 -3.98482 -4.97484 0
M  V30 703 C 61.1502 -3.31489 -5.13379 0
M  V30 704 C 62.1482 -4.26457 -5.33501 0
M  V30 705 O 61.8362 -5.47585 -5.88562 0
M  V30 706 H 61.5682 -0.167473 -0.654927 0
M  V30 707 H 64.1222 -1.11073 -1.72777 0
M  V30 708 H 62.3522 0.303836 -3.85505 0
M  V30 709 H 64.0412 -0.0622925 -4.05852 0
M  V30 710 H 64.8072 -2.54473 -4.12878 0
M  V30 711 H 60.6862 -1.35066 -4.4077 0
M  V30 712 H 64.2302 -4.72618 -5.13106 0
M  V30 713 H 60.1272 -3.52316 -5.40873 0
M  V30 714 H 60.8952 -5.49086 -6.06998 0
M  V30 715 N 63.5583 1.46682 -0.576371 0
M  V30 716 C 64.7833 2.07304 -0.0630475 0
M  V30 717 C 65.2083 1.42329 1.2298 0
M  V30 718 O 64.5663 0.504865 1.74129 0
M  V30 719 C 64.6143 3.60472 0.095895 0
M  V30 720 O 63.7183 3.95927 1.15394 0
M  V30 721 H 63.0593 0.661288 -0.0599463 0
M  V30 722 H 65.5893 1.88417 -0.797511 0
M  V30 723 H 65.5993 4.06865 0.304071 0
M  V30 724 H 64.2743 4.07157 -0.84828 0
M  V30 725 H 62.8513 3.61252 0.924724 0
M  V30 726 N 65.0364 0.313813 1.54444 0
M  V30 727 C 65.9664 -0.549454 2.26943 0
M  V30 728 C 66.9474 -1.12741 1.27372 0
M  V30 729 O 68.1324 -1.15436 1.56167 0
M  V30 730 C 65.2624 -1.71523 3.01989 0
M  V30 731 C 64.2164 -1.26703 4.08816 0
M  V30 732 C 63.5424 -2.51898 4.71647 0
M  V30 733 C 64.8424 -0.388962 5.2085 0
M  V30 734 H 66.5364 0.0552661 2.99349 0
M  V30 735 H 64.0824 0.0280207 1.43973 0
M  V30 736 H 66.0354 -2.32535 3.51433 0
M  V30 737 H 64.7594 -2.34639 2.27183 0
M  V30 738 H 63.4184 -0.679896 3.6024 0
M  V30 739 H 63.0664 -3.13356 3.93468 0
M  V30 740 H 62.7664 -2.22605 5.43802 0
M  V30 741 H 64.2904 -3.1369 5.23861 0
M  V30 742 H 65.7044 -0.905107 5.6611 0
M  V30 743 H 64.1014 -0.18924 5.99802 0
M  V30 744 H 65.1714 0.582699 4.81386 0
M  V30 745 N 66.5145 -1.57545 0.0417849 0
M  V30 746 C 67.7615 -1.92317 -0.634082 0
M  V30 747 C 68.0895 -0.919334 -1.71402 0
M  V30 748 O 67.3445 0.0698253 -1.95575 0
M  V30 749 C 67.6435 -3.33794 -1.27735 0
M  V30 750 C 67.3095 -4.49716 -0.326543 0
M  V30 751 C 65.9715 -4.81156 -0.0648814 0
M  V30 752 C 68.3235 -5.20182 0.325623 0
M  V30 753 C 65.6515 -5.80414 0.856539 0
M  V30 754 C 68.0035 -6.20424 1.23518 0
M  V30 755 C 66.6675 -6.50298 1.5056 0
M  V30 756 H 65.9375 -0.703736 -0.232027 0
M  V30 757 H 68.5845 -1.91205 0.106259 0
M  V30 758 H 66.8895 -3.31228 -2.09274 0
M  V30 759 H 68.5865 -3.57975 -1.80707 0
M  V30 760 H 65.1765 -4.25176 -0.540665 0
M  V30 761 H 69.3605 -4.96112 0.136546 0
M  V30 762 H 64.6165 -6.019 1.07363 0
M  V30 763 H 68.7905 -6.74141 1.74664 0
M  V30 764 H 66.4175 -7.27025 2.22123 0
M  V30 765 N 67.9926 0.231505 -1.5589 0
M  V30 766 C 68.9246 1.31006 -1.8807 0
M  V30 767 C 69.9376 1.43539 -0.768145 0
M  V30 768 O 71.1266 1.44614 -1.04638 0
M  V30 769 C 68.2266 2.68688 -2.06543 0
M  V30 770 C 67.3996 2.78228 -3.37502 0
M  V30 771 C 66.4586 3.96857 -3.4553 0
M  V30 772 O 65.4846 3.85662 -4.18633 0
M  V30 773 N 66.6866 5.1072 -2.75944 0
M  V30 774 H 69.4516 1.03731 -2.81176 0
M  V30 775 H 67.0126 0.421573 -1.56315 0
M  V30 776 H 69.0046 3.46412 -2.09239 0
M  V30 777 H 67.5746 2.88605 -1.20109 0
M  V30 778 H 66.7946 1.87059 -3.46991 0
M  V30 779 H 68.0826 2.81564 -4.23791 0
M  V30 780 H 67.4806 5.2271 -2.16311 0
M  V30 781 H 66.0376 5.86523 -2.84314 0
M  V30 782 N 69.4707 1.49531 0.497807 0
M  V30 783 C 70.4177 1.66436 1.59899 0
M  V30 784 C 71.3877 0.505793 1.58212 0
M  V30 785 O 72.5727 0.733202 1.7615 0
M  V30 786 C 69.7127 1.7399 2.98029 0
M  V30 787 C 68.8257 3.01172 3.09708 0
M  V30 788 C 67.9607 2.99686 4.38591 0
M  V30 789 C 66.9997 4.21434 4.43914 0
M  V30 790 N 66.1367 4.1784 5.64229 0
M  V30 791 H 70.9767 2.60459 1.44793 0
M  V30 792 H 68.5137 1.29137 0.704423 0
M  V30 793 H 70.4717 1.76352 3.78095 0
M  V30 794 H 69.1017 0.834301 3.11832 0
M  V30 795 H 68.1537 3.08408 2.22685 0
M  V30 796 H 69.4657 3.91165 3.09502 0
M  V30 797 H 68.6197 3.00628 5.2698 0
M  V30 798 H 67.3587 2.07477 4.41367 0
M  V30 799 H 66.3637 4.20733 3.53926 0
M  V30 800 H 67.5887 5.14839 4.42851 0
M  V30 801 H 65.5347 3.28469 5.67841 0
M  V30 802 H 65.4517 5.01571 5.65652 0
M  V30 803 H 66.7197 4.22889 6.54817 0
M  V30 804 N 70.9488 -0.749086 1.3866 0
M  V30 805 C 71.8588 -1.89358 1.38494 0
M  V30 806 C 72.8748 -1.71708 0.281476 0
M  V30 807 O 74.0508 -1.94554 0.520643 0
M  V30 808 C 71.1158 -3.24782 1.21316 0
M  V30 809 C 70.1768 -3.54926 2.41508 0
M  V30 810 C 69.4098 -4.83888 2.2514 0
M  V30 811 O 69.6328 -5.56592 1.24746 0
M  V30 812 O 68.5668 -5.13612 3.13826 0
M  V30 813 H 72.3928 -1.92452 2.34938 0
M  V30 814 H 69.9778 -0.894981 1.19626 0
M  V30 815 H 71.8598 -4.05739 1.13814 0
M  V30 816 H 70.5348 -3.2249 0.279592 0
M  V30 817 H 69.4418 -2.74112 2.54585 0
M  V30 818 H 70.7748 -3.61983 3.3351 0
M  V30 819 N 72.4269 -1.23603 -0.977757 0
M  V30 820 C 73.3739 -1.01954 -2.07061 0
M  V30 821 C 74.3439 0.0638697 -1.65977 0
M  V30 822 O 75.5289 -0.0887624 -1.90593 0
M  V30 823 C 72.6689 -0.619658 -3.39491 0
M  V30 824 C 71.7819 -1.77547 -3.93829 0
M  V30 825 C 70.9169 -1.32212 -5.14484 0
M  V30 826 C 69.9559 -2.44852 -5.60994 0
M  V30 827 N 69.0929 -2.00456 -6.72876 0
M  V30 828 H 73.9329 -1.95495 -2.24913 0
M  V30 829 H 71.4699 -0.973861 -1.10247 0
M  V30 830 H 73.4279 -0.368898 -4.15566 0
M  V30 831 H 72.0579 0.278752 -3.21594 0
M  V30 832 H 71.1099 -2.14016 -3.14486 0
M  V30 833 H 72.4219 -2.62219 -4.24314 0
M  V30 834 H 71.5759 -1.02965 -5.97899 0
M  V30 835 H 70.3149 -0.445808 -4.85658 0
M  V30 836 H 69.3199 -2.74871 -4.76157 0
M  V30 837 H 70.5449 -3.33024 -5.91837 0
M  V30 838 H 68.4909 -1.15208 -6.45804 0
M  V30 839 H 68.4079 -2.78687 -7.02759 0
M  V30 840 H 69.6759 -1.7432 -7.59758 0
M  V30 841 N 73.905 1.17692 -1.04816 0
M  V30 842 C 74.838 2.20436 -0.590173 0
M  V30 843 C 75.816 1.58115 0.379244 0
M  V30 844 O 77 1.86228 0.291762 0
M  V30 845 C 74.127 3.38424 0.136817 0
M  V30 846 C 73.173 4.19176 -0.787023 0
M  V30 847 S 74.006 4.84815 -2.27409 0
M  V30 848 C 75.162 6.06195 -1.55817 0
M  V30 849 H 75.395 2.58944 -1.46067 0
M  V30 850 H 72.928 1.28246 -0.859784 0
M  V30 851 H 74.886 4.06798 0.550076 0
M  V30 852 H 73.547 2.98312 0.983299 0
M  V30 853 H 72.74 5.03499 -0.224681 0
M  V30 854 H 72.342 3.56219 -1.13947 0
M  V30 855 H 74.634 6.72078 -0.855387 0
M  V30 856 H 75.577 6.6695 -2.37873 0
M  V30 857 H 75.985 5.54701 -1.04722 0
M  V30 858 N 75.3831 0.828654 1.34056 0
M  V30 859 C 76.6291 0.42008 1.98402 0
M  V30 860 C 76.9621 -1.01564 1.65525 0
M  V30 861 O 76.2371 -1.70834 0.929831 0
M  V30 862 C 76.5201 0.62927 3.54559 0
M  V30 863 C 76.3731 2.11152 3.97159 0
M  V30 864 C 77.6921 0.0688756 4.40046 0
M  V30 865 H 74.8111 0.154104 0.720709 0
M  V30 866 H 77.4531 1.04228 1.5886 0
M  V30 867 H 75.6031 0.0996418 3.88372 0
M  V30 868 H 77.2751 2.70522 3.73651 0
M  V30 869 H 75.5181 2.59985 3.47261 0
M  V30 870 H 76.1891 2.20868 5.05887 0
M  V30 871 H 78.6651 0.521458 4.1282 0
M  V30 872 H 77.5411 0.245006 5.48353 0
M  V30 873 H 77.8021 -1.0266 4.30015 0
M  V30 874 N 76.8612 -1.46375 0.584142 0
M  V30 875 C 77.7912 -2.33103 -0.136037 0
M  V30 876 C 78.7722 -1.45431 -0.882255 0
M  V30 877 O 79.9572 -1.74246 -0.857434 0
M  V30 878 C 77.0872 -3.27731 -1.14933 0
M  V30 879 C 76.0412 -4.24855 -0.517862 0
M  V30 880 C 75.3672 -5.09001 -1.63773 0
M  V30 881 C 76.6672 -5.19439 0.545886 0
M  V30 882 H 78.3612 -2.93568 0.588086 0
M  V30 883 H 75.9072 -1.41166 0.284259 0
M  V30 884 H 77.8602 -3.87261 -1.66153 0
M  V30 885 H 76.5842 -2.65377 -1.90375 0
M  V30 886 H 75.2432 -3.6659 -0.0267361 0
M  V30 887 H 74.8912 -4.43031 -2.38185 0
M  V30 888 H 74.5912 -5.74777 -1.22085 0
M  V30 889 H 76.1152 -5.71396 -2.15266 0
M  V30 890 H 77.5292 -5.73177 0.118704 0
M  V30 891 H 75.9262 -5.93566 0.88317 0
M  V30 892 H 76.9962 -4.63285 1.43162 0
M  V30 893 N 78.3393 -0.321999 -1.54275 0
M  V30 894 C 79.2873 0.560206 -2.25753 0
M  V30 895 C 80.2813 1.11984 -1.27106 0
M  V30 896 O 81.4873 1.06806 -1.44888 0
M  V30 897 H 77.8623 0.199304 -0.725108 0
M  V30 898 H 79.8333 -0.0649365 -2.98329 0
M  V30 899 C 78.5823 1.71023 -3.02731 0
M  V30 900 H 77.9053 1.28885 -3.78456 0
M  V30 901 H 79.3453 2.30314 -3.55993 0
M  V30 902 C 77.8043 2.62692 -2.10938 0
M  V30 903 O 78.3343 3.64364 -1.6912 0
M  V30 904 N 76.5403 2.30891 -1.76459 0
M  V30 905 H 76.0873 1.48253 -2.10663 0
M  V30 906 H 76.0453 2.92487 -1.1532 0
M  V30 907 N 79.8174 1.5752 -0.0501392 0
M  V30 908 C 80.7274 2.14952 0.939827 0
M  V30 909 C 81.7434 1.10706 1.34239 0
M  V30 910 O 82.9194 1.42869 1.41952 0
M  V30 911 C 79.9844 2.68232 2.19665 0
M  V30 912 C 79.0454 3.87272 1.85253 0
M  V30 913 C 78.2784 4.38002 3.04943 0
M  V30 914 O 78.5014 3.87811 4.18281 0
M  V30 915 O 77.4354 5.29602 2.86017 0
M  V30 916 H 81.2614 2.9986 0.481392 0
M  V30 917 H 78.8464 1.4841 0.171699 0
M  V30 918 H 80.7284 3.02475 2.93406 0
M  V30 919 H 79.4034 1.86395 2.64648 0
M  V30 920 H 78.3104 3.5792 1.0883 0
M  V30 921 H 79.6434 4.70336 1.4507 0
M  V30 922 N 81.2955 -0.223234 1.56011 0
M  V30 923 C 82.5435 -0.946003 1.78592 0
M  V30 924 C 82.8645 -1.84936 0.618349 0
M  V30 925 O 82.1345 -1.92473 -0.364833 0
M  V30 926 H 80.7145 -0.352298 0.658707 0
M  V30 927 H 83.3765 -0.235494 1.93472 0
M  V30 928 H 82.4725 -1.55381 2.70672 0
M  V30 929 N 82.7736 -1.49793 -0.48987 0
M  V30 930 C 84.0016 -1.63568 -1.26701 0
M  V30 931 C 84.4166 -0.311465 -1.86213 0
M  V30 932 O 83.7736 0.704416 -1.68357 0
M  V30 933 C 83.8246 -2.71284 -2.38929 0
M  V30 934 O 83.5456 -3.9857 -1.81861 0
M  V30 935 C 85.0466 -2.95864 -3.3012 0
M  V30 936 H 82.2666 -0.550342 -0.383881 0
M  V30 937 H 84.8106 -1.95898 -0.586864 0
M  V30 938 H 82.9656 -2.417 -3.02753 0
M  V30 939 H 83.3796 -4.57993 -2.55622 0
M  V30 940 H 84.8536 -3.74941 -4.05121 0
M  V30 941 H 85.3306 -2.06206 -3.87783 0
M  V30 942 H 85.9366 -3.26907 -2.72051 0
M  V30 943 N 84.2517 0.741722 -1.39055 0
M  V30 944 C 85.4767 1.53607 -1.39354 0
M  V30 945 C 85.9017 1.88096 0.0116905 0
M  V30 946 O 85.2597 1.5143 0.996924 0
M  V30 947 C 85.3077 2.80441 -2.26682 0
M  V30 948 O 84.4117 3.76088 -1.69208 0
M  V30 949 H 83.7527 0.464142 -0.474835 0
M  V30 950 H 86.2827 0.915665 -1.82967 0
M  V30 951 H 86.2927 3.29246 -2.40959 0
M  V30 952 H 84.9677 2.5467 -3.2881 0
M  V30 953 H 83.5447 3.34833 -1.64138 0
M  V30 954 N 85.7298 1.2412 0.971189 0
M  V30 955 C 86.9778 1.07668 1.71032 0
M  V30 956 C 87.2988 -0.385797 1.91146 0
M  V30 957 O 86.5688 -1.27569 1.4867 0
M  V30 958 H 85.1488 0.395429 0.633755 0
M  V30 959 H 87.8108 1.55984 1.16855 0
M  V30 960 H 86.9068 1.57195 2.69622 0
M  V30 961 N 87.2079 -1.17134 1.05439 0
M  V30 962 C 88.4359 -1.91372 0.786414 0
M  V30 963 C 88.8509 -1.76955 -0.658202 0
M  V30 964 O 88.2079 -1.10838 -1.44987 0
M  V30 965 C 88.2589 -3.42356 1.1608 0
M  V30 966 O 87.9799 -3.56332 2.54871 0
M  V30 967 C 89.4809 -4.33663 0.919322 0
M  V30 968 H 86.7009 -0.607118 0.285743 0
M  V30 969 H 89.2449 -1.48525 1.40572 0
M  V30 970 H 87.3999 -3.82939 0.586191 0
M  V30 971 H 87.8139 -4.49896 2.69618 0
M  V30 972 H 89.2879 -5.38099 1.231 0
M  V30 973 H 89.7649 -4.38959 -0.145359 0
M  V30 974 H 90.3709 -3.98796 1.47789 0
M  V30 975 N 88.686 -0.835752 -1.33615 0
M  V30 976 C 89.649 -0.272 -2.2758 0
M  V30 977 C 90.649 0.557487 -1.50827 0
M  V30 978 O 91.839 0.37173 -1.70188 0
M  V30 979 C 88.971 0.617173 -3.35267 0
M  V30 980 H 90.164 -1.10111 -2.78954 0
M  V30 981 H 87.717 -0.608594 -1.43965 0
M  V30 982 H 88.452 1.46884 -2.89129 0
M  V30 983 H 88.237 0.0237066 -3.92093 0
M  V30 984 H 89.727 1.005 -4.05326 0
M  V30 985 N 90.1641 1.46063 -0.591896 0
M  V30 986 C 91.4101 2.02638 -0.0811191 0
M  V30 987 C 91.7431 1.4613 1.27905 0
M  V30 988 O 91.0181 0.629908 1.84017 0
M  V30 989 C 91.3011 3.60091 -0.0252436 0
M  V30 990 C 91.1541 4.26965 -1.41496 0
M  V30 991 C 92.4731 4.3496 0.670685 0
M  V30 992 H 89.5921 0.73635 -0.0309524 0
M  V30 993 H 92.2341 1.741 -0.760859 0
M  V30 994 H 90.3841 3.84535 0.553624 0
M  V30 995 H 92.0561 4.13756 -2.0397 0
M  V30 996 H 90.2991 3.85971 -1.98011 0
M  V30 997 H 90.9701 5.35781 -1.32825 0
M  V30 998 H 93.4461 4.15716 0.178825 0
M  V30 999 H 92.3221 5.44686 0.678837 0
M  V30 1000 H 92.5831 4.06685 1.73379 0
M  V30 1001 N 91.6422 0.330177 1.54103 0
M  V30 1002 C 92.8702 -0.272179 2.05102 0
M  V30 1003 C 93.2852 -1.45267 1.20595 0
M  V30 1004 O 92.6422 -1.8094 0.238144 0
M  V30 1005 C 92.6932 -0.70023 3.54653 0
M  V30 1006 O 92.4142 0.433301 4.35952 0
M  V30 1007 C 93.9152 -1.3647 4.21771 0
M  V30 1008 H 91.1352 -0.0549159 0.668749 0
M  V30 1009 H 93.6792 0.478285 1.98828 0
M  V30 1010 H 91.8342 -1.40066 3.61193 0
M  V30 1011 H 92.2482 0.0947539 5.24414 0
M  V30 1012 H 93.7222 -1.61509 5.27843 0
M  V30 1013 H 94.1992 -2.31409 3.73292 0
M  V30 1014 H 94.8052 -0.706675 4.19388 0
M  V30 1015 N 93.1203 -1.57491 0.0584922 0
M  V30 1016 C 94.3483 -1.97296 -0.623037 0
M  V30 1017 C 94.7633 -0.936338 -1.63946 0
M  V30 1018 O 94.1203 0.0785981 -1.82331 0
M  V30 1019 C 94.1713 -3.37183 -1.30345 0
M  V30 1020 O 93.8923 -4.36872 -0.32773 0
M  V30 1021 C 95.3933 -3.91788 -2.07406 0
M  V30 1022 H 92.6133 -0.649153 -0.169826 0
M  V30 1023 H 95.1573 -2.04106 0.12696 0
M  V30 1024 H 93.3123 -3.31502 -2.00463 0
M  V30 1025 H 93.7263 -5.18141 -0.814269 0
M  V30 1026 H 95.2003 -4.91926 -2.50425 0
M  V30 1027 H 95.6773 -3.27609 -2.92521 0
M  V30 1028 H 96.2833 -4.00829 -1.42184 0
M  V30 1029 N 94.5984 0.214957 -1.56127 0
M  V30 1030 C 95.8234 0.95924 -1.83884 0
M  V30 1031 C 96.2484 1.7689 -0.639644 0
M  V30 1032 O 95.6064 1.76566 0.411601 0
M  V30 1033 C 95.6544 1.84723 -3.09693 0
M  V30 1034 O 94.7584 2.94346 -2.8885 0
M  V30 1035 H 94.0994 0.27125 -0.606069 0
M  V30 1036 H 96.6294 0.226276 -2.03345 0
M  V30 1037 H 96.6394 2.25576 -3.39969 0
M  V30 1038 H 95.3144 1.25218 -3.96602 0
M  V30 1039 H 93.8914 2.57391 -2.69823 0
M  V30 1040 N 96.0765 1.50051 0.48192 0
M  V30 1041 C 97.3045 1.64237 1.25832 0
M  V30 1042 C 97.7195 0.321336 1.86045 0
M  V30 1043 O 97.0765 -0.695478 1.68729 0
M  V30 1044 C 97.1275 2.72548 2.37487 0
M  V30 1045 O 96.8485 3.99529 1.79745 0
M  V30 1046 C 98.3495 2.9761 3.28547 0
M  V30 1047 H 95.5695 0.55237 0.380957 0
M  V30 1048 H 98.1135 1.96207 0.576467 0
M  V30 1049 H 96.2685 2.43303 3.01467 0
M  V30 1050 H 96.6825 4.59342 2.5319 0
M  V30 1051 H 98.1565 3.77084 4.03127 0
M  V30 1052 H 98.6335 2.0826 3.86684 0
M  V30 1053 H 99.2395 3.28345 2.70314 0
M  V30 1054 N 97.5546 -0.734337 1.39446 0
M  V30 1055 C 98.9656 -1.31264 1.32766 0
M  V30 1056 C 99.3166 -1.96198 -0.00767497 0
M  V30 1057 O 98.4416 -1.96346 -0.909796 0
M  V30 1058 C 99.0366 -2.38682 2.4045 0
M  V30 1059 C 97.5956 -2.92184 2.37288 0
M  V30 1060 C 96.7426 -1.6576 2.22304 0
M  V30 1061 H 99.6936 -0.531799 1.49525 0
M  V30 1062 H 99.7146 -3.19087 2.07276 0
M  V30 1063 H 99.2266 -1.91392 3.37625 0
M  V30 1064 H 97.3276 -3.43752 1.43754 0
M  V30 1065 H 97.4406 -3.45253 3.3217 0
M  V30 1066 H 95.8046 -1.9012 1.69489 0
M  V30 1067 H 96.5876 -1.20521 3.21449 0
M  V30 1068 N 99.0327 -1.24633 -0.964593 0
M  V30 1069 C 100.281 -1.08573 -1.70459 0
M  V30 1070 C 100.602 0.375655 -1.91347 0
M  V30 1071 O 99.8717 1.26779 -1.49345 0
M  V30 1072 H 98.4517 -0.398784 -0.631649 0
M  V30 1073 H 101.114 -1.56601 -1.16026 0
M  V30 1074 H 100.21 -1.58623 -2.68785 0
M  V30 1075 N 100.511 1.16574 -1.06058 0
M  V30 1076 C 101.736 1.91493 -0.796562 0
M  V30 1077 C 102.161 1.76773 0.642868 0
M  V30 1078 O 101.519 1.09142 1.44768 0
M  V30 1079 C 101.567 3.40293 -1.19303 0
M  V30 1080 O 100.671 4.11074 -0.330394 0
M  V30 1081 H 100.012 0.596678 -0.291326 0
M  V30 1082 H 102.542 1.47708 -1.41575 0
M  V30 1083 H 102.552 3.91057 -1.16356 0
M  V30 1084 H 101.227 3.50326 -2.24153 0
M  V30 1085 H 99.8038 3.70513 -0.421225 0
M  V30 1086 N 101.989 0.842826 1.3317 0
M  V30 1087 C 102.936 0.276885 2.29133 0
M  V30 1088 C 103.906 -0.609527 1.54512 0
M  V30 1089 O 105.091 -0.546955 1.82792 0
M  V30 1090 C 102.231 -0.538707 3.40869 0
M  V30 1091 C 101.344 0.372169 4.30394 0
M  V30 1092 C 100.479 -0.454908 5.29249 0
M  V30 1093 C 99.5179 0.45411 6.10413 0
M  V30 1094 N 98.6549 -0.335075 7.013 0
M  V30 1095 H 103.495 1.10052 2.76934 0
M  V30 1096 H 101.032 0.554161 1.36262 0
M  V30 1097 H 102.99 -1.02709 4.0436 0
M  V30 1098 H 101.62 -1.32727 2.9425 0
M  V30 1099 H 100.672 0.97888 3.6759 0
M  V30 1100 H 101.984 1.0703 4.87182 0
M  V30 1101 H 101.138 -1.00695 5.98285 0
M  V30 1102 H 99.8769 -1.18646 4.73048 0
M  V30 1103 H 98.8819 1.01813 5.40291 0
M  V30 1104 H 100.107 1.18409 6.68697 0
M  V30 1105 H 98.0529 -1.04994 6.47543 0
M  V30 1106 H 97.9699 0.304262 7.55387 0
M  V30 1107 H 99.2379 -0.869224 7.74638 0
M  V30 1108 N 103.467 -1.45747 0.599634 0
M  V30 1109 C 104.715 -2.01893 0.0915472 0
M  V30 1110 C 105.036 -1.47155 -1.27946 0
M  V30 1111 O 104.306 -0.66273 -1.84349 0
M  V30 1112 H 102.886 -0.746363 0.0308524 0
M  V30 1113 H 105.548 -1.78645 0.779237 0
M  V30 1114 H 104.644 -3.1208 0.0353086 0
M  V30 1115 N 104.945 -0.338344 -1.53925 0
M  V30 1116 C 106.17 0.263987 -2.05713 0
M  V30 1117 C 106.595 1.43847 -1.21201 0
M  V30 1118 O 105.953 1.79904 -0.224535 0
M  V30 1119 C 106.001 0.662 -3.54471 0
M  V30 1120 O 105.105 1.76265 -3.72833 0
M  V30 1121 H 104.446 0.0448722 -0.662482 0
M  V30 1122 H 106.976 -0.491048 -1.9862 0
M  V30 1123 H 106.986 0.940594 -3.9701 0
M  V30 1124 H 105.661 -0.196937 -4.15433 0
M  V30 1125 H 104.238 1.48173 -3.42198 0
M  V30 1126 N 106.423 1.57458 -0.0668435 0
M  V30 1127 C 107.669 1.93587 0.6043 0
M  V30 1128 C 108.002 0.946722 1.69561 0
M  V30 1129 O 107.277 -0.0248516 1.94484 0
M  V30 1130 C 107.56 3.40014 1.18585 0
M  V30 1131 C 107.413 4.49685 0.101529 0
M  V30 1132 C 108.732 3.87154 2.09284 0
M  V30 1133 H 105.851 0.703958 0.218202 0
M  V30 1134 H 108.493 1.89542 -0.131804 0
M  V30 1135 H 106.643 3.43592 1.81319 0
M  V30 1136 H 108.315 4.5823 -0.531279 0
M  V30 1137 H 106.558 4.30059 -0.568487 0
M  V30 1138 H 107.229 5.49266 0.54874 0
M  V30 1139 H 109.705 3.85551 1.56491 0
M  V30 1140 H 108.581 4.90231 2.46911 0
M  V30 1141 H 108.842 3.2481 2.99918 0
M  V30 1142 N 107.901 -0.206675 1.56239 0
M  V30 1143 C 108.864 -1.23976 1.92776 0
M  V30 1144 C 109.864 -1.39041 0.807729 0
M  V30 1145 O 111.054 -1.37051 1.0753 0
M  V30 1146 C 108.186 -2.61112 2.19165 0
M  V30 1147 H 109.379 -0.927764 2.85189 0
M  V30 1148 H 106.932 -0.447718 1.4975 0
M  V30 1149 H 107.667 -2.97386 1.29352 0
M  V30 1150 H 107.452 -2.51552 3.00772 0
M  V30 1151 H 108.942 -3.35633 2.48476 0
M  V30 1152 N 109.379 -1.50304 -0.473955 0
M  V30 1153 C 110.604 -1.65175 -1.25427 0
M  V30 1154 C 111.029 -0.333673 -1.85117 0
M  V30 1155 O 110.387 0.702114 -1.67153 0
M  V30 1156 C 110.435 -2.74295 -2.34082 0
M  V30 1157 O 109.539 -2.35349 -3.38651 0
M  V30 1158 H 108.88 -0.551944 -0.369126 0
M  V30 1159 H 111.41 -1.96662 -0.564364 0
M  V30 1160 H 111.42 -2.97285 -2.79438 0
M  V30 1161 H 110.095 -3.69959 -1.90008 0
M  V30 1162 H 108.672 -2.22794 -2.99027 0
M  V30 1163 N 110.857 0.726932 -1.39834 0
M  V30 1164 C 112.105 1.4837 -1.37225 0
M  V30 1165 C 112.426 1.94979 0.0284857 0
M  V30 1166 O 111.696 1.69555 0.981213 0
M  V30 1167 H 110.276 0.55043 -0.505011 0
M  V30 1168 H 112.938 0.862468 -1.74778 0
M  V30 1169 H 112.034 2.36198 -2.04003 0
M  V30 1170 N 112.336 1.25143 0.95797 0
M  V30 1171 C 113.584 1.09476 1.69881 0
M  V30 1172 C 113.905 -0.365502 1.91544 0
M  V30 1173 O 113.175 -1.25985 1.50015 0
M  V30 1174 H 111.755 0.402128 0.629525 0
M  V30 1175 H 114.417 1.57214 1.15194 0
M  V30 1176 H 113.513 1.60046 2.6794 0
M  V30 1177 N 113.814 -1.1601 1.06675 0
M  V30 1178 C 115.039 -1.91068 0.806706 0
M  V30 1179 C 115.464 -1.77112 -0.633485 0
M  V30 1180 O 114.822 -1.09908 -1.44187 0
M  V30 1181 C 114.87 -3.39655 1.21106 0
M  V30 1182 O 113.974 -4.10893 0.352189 0
M  V30 1183 H 113.315 -0.595125 0.294486 0
M  V30 1184 H 115.845 -1.46955 1.42356 0
M  V30 1185 H 115.855 -3.90434 1.18428 0
M  V30 1186 H 114.53 -3.49132 2.26008 0
M  V30 1187 H 113.107 -3.70285 0.440868 0
M  V30 1188 N 115.292 -0.849877 -1.32721 0
M  V30 1189 C 116.54 -0.450032 -1.97026 0
M  V30 1190 C 116.861 0.996604 -1.67609 0
M  V30 1191 O 116.131 1.6958 -0.980786 0
M  V30 1192 H 114.711 -0.163426 -0.728904 0
M  V30 1193 H 117.373 -1.08526 -1.6189 0
M  V30 1194 H 116.469 -0.591146 -3.0645 0
M  V30 1195 N 116.77 1.45427 -0.607355 0
M  V30 1196 C 118.018 2.01841 -0.102253 0
M  V30 1197 C 118.339 1.47832 1.27164 0
M  V30 1198 O 117.609 0.672497 1.83995 0
M  V30 1199 H 116.189 0.746188 -0.0348101 0
M  V30 1200 H 118.851 1.78229 -0.7887 0
M  V30 1201 H 117.947 3.12057 -0.0518585 0
M  V30 1202 N 118.248 0.346503 1.53744 0
M  V30 1203 C 119.473 -0.253074 2.0585 0
M  V30 1204 C 119.898 -1.43202 1.21962 0
M  V30 1205 O 119.256 -1.79783 0.234073 0
M  V30 1206 C 119.304 -0.643193 3.54817 0
M  V30 1207 O 118.408 -1.74286 3.73762 0
M  V30 1208 H 117.749 -0.0413583 0.662711 0
M  V30 1209 H 120.279 0.501574 1.98357 0
M  V30 1210 H 120.289 -0.919526 3.97503 0
M  V30 1211 H 118.964 0.218966 4.15323 0
M  V30 1212 H 117.541 -1.46356 3.42979 0
M  V30 1213 N 119.726 -1.57421 0.075193 0
M  V30 1214 C 120.972 -1.93905 -0.594025 0
M  V30 1215 C 121.305 -0.955701 -1.69056 0
M  V30 1216 O 120.58 0.0145373 -1.94495 0
M  V30 1217 C 120.863 -3.40638 -1.1678 0
M  V30 1218 C 120.716 -4.49733 -0.0776792 0
M  V30 1219 C 122.035 -3.88259 -2.07228 0
M  V30 1220 H 119.154 -0.705105 -0.214466 0
M  V30 1221 H 121.796 -1.8947 0.141854 0
M  V30 1222 H 119.946 -3.44549 -1.79494 0
M  V30 1223 H 121.618 -4.57942 0.555573 0
M  V30 1224 H 119.861 -4.29751 0.591286 0
M  V30 1225 H 120.532 -5.49549 -0.519603 0
M  V30 1226 H 123.008 -3.86376 -1.54445 0
M  V30 1227 H 121.884 -4.91533 -2.44308 0
M  V30 1228 H 122.145 -3.26396 -2.98191 0
M  V30 1229 N 121.204 0.198386 -1.56346 0
M  V30 1230 C 122.167 1.22952 -1.93431 0
M  V30 1231 C 123.167 1.38611 -0.815092 0
M  V30 1232 O 124.357 1.36479 -1.08255 0
M  V30 1233 C 121.489 2.59946 -2.20546 0
M  V30 1234 H 122.682 0.912626 -2.85677 0
M  V30 1235 H 120.235 0.43977 -1.49986 0
M  V30 1236 H 120.97 2.96696 -1.30927 0
M  V30 1237 H 120.755 2.49953 -3.02102 0
M  V30 1238 H 122.245 3.3431 -2.50253 0
M  V30 1239 N 122.682 1.50554 0.465978 0
M  V30 1240 C 123.907 1.65838 1.24549 0
M  V30 1241 C 124.332 0.343486 1.84937 0
M  V30 1242 O 123.69 -0.69324 1.67523 0
M  V30 1243 C 123.738 2.75533 2.32624 0
M  V30 1244 O 122.842 2.37142 3.37398 0
M  V30 1245 H 122.183 0.553893 0.366194 0
M  V30 1246 H 124.713 1.96959 0.553927 0
M  V30 1247 H 124.723 2.98763 2.77857 0
M  V30 1248 H 123.398 3.70962 1.88043 0
M  V30 1249 H 121.975 2.24377 2.97841 0
M  V30 1250 N 124.16 -0.719506 1.40217 0
M  V30 1251 C 125.408 -1.47641 1.3801 0
M  V30 1252 C 125.729 -1.94992 -0.018145 0
M  V30 1253 O 124.999 -1.70073 -0.972207 0
M  V30 1254 H 123.579 -0.547744 0.507923 0
M  V30 1255 H 126.241 -0.853187 1.75233 0
M  V30 1256 H 125.337 -2.35112 2.05253 0
M  V30 1257 N 125.638 -1.25649 -0.95132 0
M  V30 1258 C 126.886 -1.10375 -1.69298 0
M  V30 1259 C 127.207 0.355339 -1.91735 0
M  V30 1260 O 126.477 1.25188 -1.50681 0
M  V30 1261 H 125.057 -0.405461 -0.627384 0
M  V30 1262 H 127.719 -1.57823 -1.14358 0
M  V30 1263 H 126.815 -1.61465 -2.67087 0
M  V30 1264 N 127.117 1.15442 -1.07289 0
M  V30 1265 C 128.342 1.90638 -0.816828 0
M  V30 1266 C 128.767 1.77445 0.624083 0
M  V30 1267 O 128.125 1.10671 1.43602 0
M  V30 1268 C 128.173 3.39008 -1.22906 0
M  V30 1269 O 127.277 4.10701 -0.373975 0
M  V30 1270 H 126.618 0.593555 -0.297638 0
M  V30 1271 H 129.148 1.46198 -1.43134 0
M  V30 1272 H 129.158 3.89801 -1.20497 0
M  V30 1273 H 127.833 3.47929 -2.27856 0
M  V30 1274 H 126.41 3.70046 -0.460499 0
M  V30 1275 N 128.595 0.856903 1.32268 0
M  V30 1276 C 129.841 0.462069 1.97466 0
M  V30 1277 C 130.174 -0.980298 1.67642 0
M  V30 1278 O 129.449 -1.68824 0.965858 0
M  V30 1279 C 129.732 0.704336 3.53145 0
M  V30 1280 C 129.585 2.19529 3.9259 0
M  V30 1281 C 130.904 0.1622 4.39801 0
M  V30 1282 H 128.023 0.169357 0.717278 0
M  V30 1283 H 130.665 1.07574 1.56614 0
M  V30 1284 H 128.815 0.181999 3.88073 0
M  V30 1285 H 130.487 2.78387 3.67829 0
M  V30 1286 H 128.73 2.67292 3.41668 0
M  V30 1287 H 129.401 2.31549 5.01088 0
M  V30 1288 H 131.877 0.608905 4.11621 0
M  V30 1289 H 130.753 0.361265 5.4771 0
M  V30 1290 H 131.014 -0.935158 4.32096 0
M  V30 1291 N 130.073 -1.45103 0.615059 0
M  V30 1292 C 131.036 -2.29025 -0.0895485 0
M  V30 1293 C 132.036 -1.40174 -0.787906 0
M  V30 1294 O 133.226 -1.62217 -0.634933 0
M  V30 1295 C 130.358 -3.21376 -1.13711 0
M  V30 1296 H 131.551 -2.92807 0.648382 0
M  V30 1297 H 129.104 -1.51749 0.374444 0
M  V30 1298 H 129.839 -2.6241 -1.90556 0
M  V30 1299 H 129.624 -3.86834 -0.640475 0
M  V30 1300 H 131.114 -3.84459 -1.63036 0
M  V30 1301 N 131.551 -0.354651 -1.53558 0
M  V30 1302 C 132.776 0.242153 -2.05981 0
M  V30 1303 C 133.201 1.42553 -1.2272 0
M  V30 1304 O 132.559 1.79656 -0.243604 0
M  V30 1305 C 132.607 0.624367 -3.55154 0
M  V30 1306 O 131.711 1.72301 -3.74681 0
M  V30 1307 H 131.052 0.0378432 -0.662921 0
M  V30 1308 H 133.582 -0.512087 -1.98088 0
M  V30 1309 H 133.592 0.898433 -3.97985 0
M  V30 1310 H 132.267 -0.240989 -4.15201 0
M  V30 1311 H 130.844 1.44535 -3.4375 0
M  V30 1312 N 133.029 1.57378 -0.0835403 0
M  V30 1313 C 134.277 1.93547 0.581718 0
M  V30 1314 C 134.598 0.96524 1.69435 0
M  V30 1315 O 133.868 0.0153369 1.95894 0
M  V30 1316 H 132.448 0.714521 0.217874 0
M  V30 1317 H 135.11 1.94366 -0.144158 0
M  V30 1318 H 134.206 2.95665 0.999423 0
M  V30 1319 N 134.507 -0.190092 1.56449 0
M  V30 1320 C 135.755 -0.907908 1.80559 0
M  V30 1321 C 136.076 -1.83583 0.657438 0
M  V30 1322 O 135.346 -1.93203 -0.323924 0
M  V30 1323 H 133.926 -0.338247 0.666032 0
M  V30 1324 H 136.588 -0.194403 1.93928 0
M  V30 1325 H 135.684 -1.49604 2.73907 0
M  V30 1326 N 135.985 -1.50799 -0.457987 0
M  V30 1327 C 137.21 -1.66496 -1.23668 0
M  V30 1328 C 137.635 -0.353288 -1.84752 0
M  V30 1329 O 136.993 0.684346 -1.67888 0
M  V30 1330 C 137.041 -2.76763 -2.3116 0
M  V30 1331 O 136.145 -2.38928 -3.36136 0
M  V30 1332 H 135.486 -0.555828 -0.363252 0
M  V30 1333 H 138.016 -1.9725 -0.543474 0
M  V30 1334 H 138.026 -3.00232 -2.76269 0
M  V30 1335 H 136.701 -3.71954 -1.86073 0
M  V30 1336 H 135.278 -2.25953 -2.96647 0
M  V30 1337 N 137.463 0.71206 -1.40597 0
M  V30 1338 C 138.711 1.46907 -1.38791 0
M  V30 1339 C 139.032 1.94998 0.00780391 0
M  V30 1340 O 138.302 1.70587 0.963174 0
M  V30 1341 H 136.882 0.545043 -0.51082 0
M  V30 1342 H 139.544 0.843882 -1.75683 0
M  V30 1343 H 138.64 2.34021 -2.06496 0
M  V30 1344 N 138.941 1.26152 0.944643 0
M  V30 1345 C 139.889 1.07215 2.06417 0
M  V30 1346 C 140.883 9.2007e-05 1.694 0
M  V30 1347 O 142.089 0.1565 1.79318 0
M  V30 1348 H 138.464 0.329837 0.675805 0
M  V30 1349 H 140.435 2.02099 2.19541 0
M  V30 1350 C 139.184 0.718197 3.40202 0
M  V30 1351 H 138.507 1.53497 3.69159 0
M  V30 1352 H 139.947 0.625459 4.19361 0
M  V30 1353 C 138.406 -0.576435 3.31932 0
M  V30 1354 O 138.936 -1.61574 3.67773 0
M  V30 1355 N 137.142 -0.565781 2.85039 0
M  V30 1356 H 136.689 0.280367 2.5607 0
M  V30 1357 H 136.647 -1.43213 2.79888 0
M  V30 1358 N 140.419 -1.14872 1.07899 0
M  V30 1359 C 141.644 -1.90202 0.826926 0
M  V30 1360 C 142.069 -1.77774 -0.614664 0
M  V30 1361 O 141.427 -1.11431 -1.43013 0
M  V30 1362 C 141.475 -3.38352 1.24702 0
M  V30 1363 O 140.579 -4.10497 0.39575 0
M  V30 1364 H 139.92 -0.591968 0.300782 0
M  V30 1365 H 142.45 -1.45437 1.43907 0
M  V30 1366 H 142.46 -3.89156 1.22563 0
M  V30 1367 H 141.135 -3.46715 2.29698 0
M  V30 1368 H 139.712 -3.69796 0.480117 0
M  V30 1369 N 141.898 -0.863906 -1.31812 0
M  V30 1370 C 143.314 -0.555004 -1.49639 0
M  V30 1371 C 143.514 0.912266 -1.79666 0
M  V30 1372 O 142.57 1.69479 -1.87171 0
M  V30 1373 C 143.883 -1.44998 -2.63431 0
M  V30 1374 C 145.431 -1.45138 -2.77316 0
M  V30 1375 C 145.906 -2.33179 -3.94197 0
M  V30 1376 N 147.397 -2.31025 -4.01474 0
M  V30 1377 C 148.132 -2.95871 -4.9117 0
M  V30 1378 N 147.628 -3.69863 -5.8581 0
M  V30 1379 N 149.421 -2.85211 -4.84367 0
M  V30 1380 H 141.572 -1.81339 -1.10589 0
M  V30 1381 H 143.835 -0.77505 -0.545895 0
M  V30 1382 H 143.541 -2.49377 -2.48 0
M  V30 1383 H 143.415 -1.14409 -3.59431 0
M  V30 1384 H 145.802 -0.415201 -2.92164 0
M  V30 1385 H 145.883 -1.79747 -1.82001 0
M  V30 1386 H 145.527 -3.3687 -3.80107 0
M  V30 1387 H 145.457 -1.95897 -4.88807 0
M  V30 1388 H 147.948 -1.77238 -3.33759 0
M  V30 1389 H 148.261 -4.16486 -6.50968 0
M  V30 1390 H 146.606 -3.73971 -5.85808 0
M  V30 1391 H 149.797 -2.26948 -4.09405 0
M  V30 1392 H 149.97 -3.36027 -5.54066 0
M  V30 1393 N 143.376 1.44774 -0.622745 0
M  V30 1394 C 144.792 1.56986 -0.287652 0
M  V30 1395 C 144.992 1.61167 1.20944 0
M  V30 1396 O 144.048 1.55015 1.99315 0
M  V30 1397 C 145.361 2.84551 -0.972188 0
M  V30 1398 C 146.909 2.9825 -0.949536 0
M  V30 1399 C 147.384 4.28605 -1.61437 0
M  V30 1400 N 148.875 4.35399 -1.58057 0
M  V30 1401 C 149.61 5.34964 -2.064 0
M  V30 1402 N 149.106 6.40981 -2.62897 0
M  V30 1403 N 150.899 5.26419 -1.97078 0
M  V30 1404 H 143.05 1.40304 -1.59463 0
M  V30 1405 H 145.313 0.671794 -0.668878 0
M  V30 1406 H 145.019 2.87417 -2.02693 0
M  V30 1407 H 144.893 3.73807 -0.504771 0
M  V30 1408 H 147.28 2.94941 0.0967067 0
M  V30 1409 H 147.361 2.10364 -1.45536 0
M  V30 1410 H 147.005 4.32672 -2.66002 0
M  V30 1411 H 146.935 5.15334 -1.08344 0
M  V30 1412 H 149.426 3.59397 -1.16801 0
M  V30 1413 H 149.739 7.13225 -2.97539 0
M  V30 1414 H 148.084 6.4169 -2.66943 0
M  V30 1415 H 151.275 4.42504 -1.52669 0
M  V30 1416 H 151.448 6.03861 -2.35066 0
M  V30 1417 N 144.854 0.36279 1.53368 0
M  V30 1418 C 146.082 -0.228613 2.05633 0
M  V30 1419 C 146.497 -1.42676 1.23649 0
M  V30 1420 O 145.854 -1.80394 0.27647 0
M  V30 1421 C 145.905 -0.624845 3.56059 0
M  V30 1422 O 145.626 0.525675 4.34935 0
M  V30 1423 C 147.127 -1.27493 4.24571 0
M  V30 1424 H 144.347 -0.0407183 0.669763 0
M  V30 1425 H 146.891 0.520352 1.97769 0
M  V30 1426 H 145.046 -1.32373 3.64083 0
M  V30 1427 H 145.46 0.205969 5.24095 0
M  V30 1428 H 146.934 -1.50277 5.31151 0
M  V30 1429 H 147.411 -2.23439 3.78116 0
M  V30 1430 H 148.017 -0.617558 4.20792 0
M  V30 1431 N 146.332 -1.57332 0.0918853 0
M  V30 1432 C 147.28 -2.15075 -0.885747 0
M  V30 1433 C 148.274 -1.09277 -1.29441 0
M  V30 1434 O 149.48 -1.27627 -1.26931 0
M  V30 1435 H 145.855 -0.687966 -0.303656 0
M  V30 1436 H 147.826 -2.96047 -0.373995 0
M  V30 1437 C 146.575 -2.74325 -2.13638 0
M  V30 1438 H 145.898 -3.55418 -1.8308 0
M  V30 1439 H 147.338 -3.183 -2.80109 0
M  V30 1440 C 145.797 -1.70062 -2.90827 0
M  V30 1441 O 146.327 -1.13763 -3.85254 0
M  V30 1442 N 144.533 -1.40628 -2.54307 0
M  V30 1443 H 144.08 -1.866 -1.7759 0
M  V30 1444 H 144.038 -0.711043 -3.06254 0
M  V30 1445 N 147.81 0.181792 -1.56548 0
M  V30 1446 C 149.221 0.745244 -1.71181 0
M  V30 1447 C 149.572 1.83262 -0.70068 0
M  V30 1448 O 148.697 2.15946 0.140154 0
M  V30 1449 C 149.292 1.35859 -3.10367 0
M  V30 1450 C 147.851 1.86898 -3.2672 0
M  V30 1451 C 146.998 0.743942 -2.67134 0
M  V30 1452 H 149.949 -0.0434661 -1.5864 0
M  V30 1453 H 149.97 2.22817 -3.08436 0
M  V30 1454 H 149.482 0.566948 -3.83937 0
M  V30 1455 H 147.583 2.68738 -2.5809 0
M  V30 1456 H 147.696 2.02162 -4.34359 0
M  V30 1457 H 146.06 1.16169 -2.26665 0
M  V30 1458 H 146.843 -0.035676 -3.43281 0
M  V30 1459 N 149.288 1.51039 0.449983 0
M  V30 1460 C 150.513 1.6715 1.22783 0
M  V30 1461 C 150.938 0.363081 1.84563 0
M  V30 1462 O 150.296 -0.675433 1.68249 0
M  V30 1463 C 150.344 2.77985 2.29689 0
M  V30 1464 O 149.448 2.40707 3.34864 0
M  V30 1465 H 148.789 0.557746 0.360299 0
M  V30 1466 H 151.319 1.97535 0.533005 0
M  V30 1467 H 151.329 3.01693 2.74673 0
M  V30 1468 H 150.004 3.72935 1.84098 0
M  V30 1469 H 148.581 2.27523 2.95445 0
M  V30 1470 N 150.766 -0.704594 1.40972 0
M  V30 1471 C 152.043 -1.45847 1.30338 0
M  V30 1472 C 152.423 -2.10973 -0.0732344 0
M  V30 1473 O 151.771 -2.00997 -1.08685 0
M  V30 1474 C 151.981 -2.48525 2.45023 0
M  V30 1475 C 153.329 -3.1404 2.8577 0
M  V30 1476 O 154.353 -2.58848 2.44696 0
M  V30 1477 O 153.212 -4.13981 3.56766 0
M  V30 1478 H 150.306 -0.649092 0.512454 0
M  V30 1479 H 152.852 -0.735836 1.52917 0
M  V30 1480 H 151.624 -1.98994 3.36923 0
M  V30 1481 H 151.247 -3.2831 2.24272 0
M  V30 1482 N 152.244 -1.26651 -0.937939 0
M  V30 1483 C 153.192 -1.08308 -2.05845 0
M  V30 1484 C 154.186 -0.0090757 -1.69398 0
M  V30 1485 O 155.392 -0.166007 -1.79233 0
M  V30 1486 H 151.767 -0.333416 -0.674046 0
M  V30 1487 H 153.738 -2.03261 -2.18467 0
M  V30 1488 C 152.487 -0.736229 -3.39816 0
M  V30 1489 H 151.81 -1.55453 -3.6834 0
M  V30 1490 H 153.25 -0.64769 -4.19024 0
M  V30 1491 C 151.709 0.558824 -3.32233 0
M  V30 1492 O 152.239 1.59621 -3.68624 0
M  V30 1493 N 150.445 0.550657 -2.85335 0
M  V30 1494 H 149.992 -0.293943 -2.55917 0
M  V30 1495 H 149.95 1.41726 -2.80644 0
M  V30 1496 N 153.722 1.14298 -1.08507 0
M  V30 1497 C 154.947 1.8976 -0.837001 0
M  V30 1498 C 155.372 1.78097 0.605228 0
M  V30 1499 O 154.73 1.12188 1.4242 0
M  V30 1500 C 154.778 3.37685 -1.26495 0
M  V30 1501 O 153.882 4.10281 -0.417514 0
M  V30 1502 H 153.223 0.590365 -0.303917 0
M  V30 1503 H 155.753 1.44672 -1.44676 0
M  V30 1504 H 155.763 3.88501 -1.24625 0
M  V30 1505 H 154.438 3.45492 -2.31534 0
M  V30 1506 H 153.015 3.69536 -0.499722 0
M  V30 1507 N 155.201 0.870884 1.31352 0
M  V30 1508 C 156.426 0.495957 2.01383 0
M  V30 1509 C 156.851 -0.904324 1.64935 0
M  V30 1510 O 156.209 -1.59687 0.858466 0
M  V30 1511 C 156.257 0.661433 3.54482 0
M  V30 1512 O 155.361 -0.298851 4.11316 0
M  V30 1513 H 154.702 0.197158 0.634054 0
M  V30 1514 H 157.232 1.17455 1.67527 0
M  V30 1515 H 157.242 0.555072 4.04207 0
M  V30 1516 H 155.917 1.68246 3.8035 0
M  V30 1517 H 154.494 -0.147368 3.72609 0
M  V30 1518 N 156.679 -1.44442 0.630414 0
M  V30 1519 C 157.956 -1.9549 0.0655657 0
M  V30 1520 C 158.336 -1.5724 -1.40851 0
M  V30 1521 O 157.684 -0.846116 -2.12257 0
M  V30 1522 C 157.894 -3.47812 0.287691 0
M  V30 1523 C 159.242 -4.24216 0.180513 0
M  V30 1524 O 160.266 -3.55526 0.219019 0
M  V30 1525 O 159.125 -5.46434 0.0848493 0
M  V30 1526 H 156.219 -0.826688 -0.0227177 0
M  V30 1527 H 158.765 -1.54496 0.702068 0
M  V30 1528 H 157.537 -3.687 1.31056 0
M  V30 1529 H 157.16 -3.95751 -0.382984 0
M  V30 1530 N 158.157 -0.370918 -1.53173 0
M  V30 1531 C 159.382 0.220293 -2.06227 0
M  V30 1532 C 159.807 1.41243 -1.24225 0
M  V30 1533 O 159.165 1.79387 -0.262645 0
M  V30 1534 C 159.213 0.586663 -3.55796 0
M  V30 1535 O 158.317 1.68317 -3.76488 0
M  V30 1536 H 157.658 0.0308099 -0.663285 0
M  V30 1537 H 160.188 -0.533068 -1.97534 0
M  V30 1538 H 160.198 0.85617 -3.98916 0
M  V30 1539 H 158.873 -0.285013 -4.14922 0
M  V30 1540 H 157.45 1.40881 -3.45264 0
M  V30 1541 N 159.635 1.57281 -0.100228 0
M  V30 1542 C 160.912 1.86014 0.604812 0
M  V30 1543 C 161.292 0.998025 1.86018 0
M  V30 1544 O 160.64 0.0718184 2.28387 0
M  V30 1545 C 160.85 3.36784 0.915278 0
M  V30 1546 C 162.198 4.04957 1.27651 0
M  V30 1547 O 163.222 3.41695 1.00613 0
M  V30 1548 O 162.081 5.16593 1.7831 0
M  V30 1549 H 159.175 0.76942 0.303185 0
M  V30 1550 H 161.721 1.69176 -0.133313 0
M  V30 1551 H 160.493 3.91292 0.0248896 0
M  V30 1552 H 160.116 3.58987 1.70921 0
M  V30 1553 N 161.113 -0.173488 1.56642 0
M  V30 1554 C 162.076 -1.19859 1.95362 0
M  V30 1555 C 163.076 -1.37296 0.83704 0
M  V30 1556 O 164.266 -1.34739 1.10413 0
M  V30 1557 C 161.398 -2.56405 2.24654 0
M  V30 1558 H 162.591 -0.867062 2.87092 0
M  V30 1559 H 160.144 -0.415853 1.50666 0
M  V30 1560 H 160.879 -2.94576 1.35631 0
M  V30 1561 H 160.664 -2.45115 3.06041 0
M  V30 1562 H 162.154 -3.30287 2.5554 0
M  V30 1563 N 162.591 -1.51276 -0.441967 0
M  V30 1564 C 163.538 -1.72256 -1.53612 0
M  V30 1565 C 164.508 -0.564164 -1.56225 0
M  V30 1566 O 165.693 -0.798074 -1.73307 0
M  V30 1567 C 162.833 -1.84932 -2.91366 0
M  V30 1568 C 161.946 -3.12459 -2.98317 0
M  V30 1569 C 161.081 -3.15758 -4.27166 0
M  V30 1570 C 160.12 -4.37619 -4.27967 0
M  V30 1571 N 159.257 -4.38493 -5.48333 0
M  V30 1572 H 164.097 -2.65654 -1.35026 0
M  V30 1573 H 161.634 -1.31662 -0.656009 0
M  V30 1574 H 163.592 -1.90263 -3.7129 0
M  V30 1575 H 162.222 -0.949461 -3.08521 0
M  V30 1576 H 161.274 -3.1646 -2.11086 0
M  V30 1577 H 162.586 -4.02382 -2.94771 0
M  V30 1578 H 161.74 -3.19979 -5.15459 0
M  V30 1579 H 160.479 -2.23715 -4.33362 0
M  V30 1580 H 159.484 -4.33579 -3.38067 0
M  V30 1581 H 160.709 -5.30921 -4.23438 0
M  V30 1582 H 158.655 -3.49318 -5.55259 0
M  V30 1583 H 158.572 -5.22219 -5.46647 0
M  V30 1584 H 159.84 -4.469 -6.38671 0
M  V30 1585 N 164.069 0.697108 -1.41344 0
M  V30 1586 C 165.294 1.49096 -1.44171 0
M  V30 1587 C 165.719 1.88038 -0.0481568 0
M  V30 1588 O 165.077 1.54525 0.948243 0
M  V30 1589 C 165.125 2.73088 -2.3549 0
M  V30 1590 O 164.229 3.70514 -1.81088 0
M  V30 1591 H 163.57 0.448801 -0.489361 0
M  V30 1592 H 166.1 0.856992 -1.85787 0
M  V30 1593 H 166.11 3.21413 -2.51312 0
M  V30 1594 H 164.785 2.44081 -3.36745 0
M  V30 1595 H 163.362 3.29441 -1.74708 0
M  V30 1596 N 165.547 1.27147 0.931209 0
M  V30 1597 C 166.777 1.15914 1.71019 0
M  V30 1598 C 167.185 -0.287112 1.87009 0
M  V30 1599 O 166.528 -1.20761 1.38429 0
M  V30 1600 C 166.59 1.76647 3.13107 0
M  V30 1601 C 166.254 3.25807 3.20467 0
M  V30 1602 C 167.251 4.22489 3.02983 0
M  V30 1603 C 164.936 3.66452 3.43538 0
M  V30 1604 C 166.93 5.57794 3.08454 0
M  V30 1605 C 164.617 5.01888 3.48643 0
M  V30 1606 C 165.615 5.97369 3.31119 0
M  V30 1607 O 165.303 7.30337 3.35952 0
M  V30 1608 H 165.035 0.404062 0.54195 0
M  V30 1609 H 167.589 1.68457 1.17521 0
M  V30 1610 H 165.819 1.18578 3.68071 0
M  V30 1611 H 167.508 1.60179 3.72958 0
M  V30 1612 H 168.274 3.92425 2.85004 0
M  V30 1613 H 164.153 2.92611 3.5623 0
M  V30 1614 H 167.697 6.32298 2.94694 0
M  V30 1615 H 163.594 5.31609 3.66145 0
M  V30 1616 H 164.362 7.38739 3.5243 0
M  V30 1617 N 167.025 -1.13721 1.09112 0
M  V30 1618 C 167.988 -2.17222 0.731241 0
M  V30 1619 C 168.988 -1.59035 -0.237566 0
M  V30 1620 O 170.178 -1.74192 -0.0161704 0
M  V30 1621 C 167.31 -3.40804 0.0808443 0
M  V30 1622 H 168.503 -2.50573 1.64783 0
M  V30 1623 H 166.056 -1.28493 0.889897 0
M  V30 1624 H 166.791 -3.1304 -0.847127 0
M  V30 1625 H 166.576 -3.84306 0.777896 0
M  V30 1626 H 168.066 -4.1731 -0.155657 0
M  V30 1627 N 168.503 -0.877838 -1.30888 0
M  V30 1628 C 169.78 -0.413052 -1.91189 0
M  V30 1629 C 170.16 1.1056 -1.79832 0
M  V30 1630 O 169.508 1.93771 -1.21099 0
M  V30 1631 C 169.718 -0.903191 -3.3711 0
M  V30 1632 C 171.066 -0.93395 -4.14201 0
M  V30 1633 O 172.09 -0.849373 -3.45925 0
M  V30 1634 O 170.949 -1.05772 -5.36167 0
M  V30 1635 H 168.043 -0.125035 -0.817493 0
M  V30 1636 H 170.589 -0.966269 -1.39504 0
M  V30 1637 H 169.361 -1.94692 -3.39427 0
M  V30 1638 H 168.984 -0.328732 -3.96239 0
M  V30 1639 N 169.982 1.44106 -0.638065 0
M  V30 1640 C 170.912 2.33448 0.0494287 0
M  V30 1641 C 171.893 1.48606 0.827672 0
M  V30 1642 O 173.078 1.77308 0.792173 0
M  V30 1643 C 170.208 3.31771 1.02691 0
M  V30 1644 C 169.162 4.26485 0.359823 0
M  V30 1645 C 168.488 5.14729 1.44769 0
M  V30 1646 C 169.788 5.17056 -0.738296 0
M  V30 1647 H 171.482 2.91183 -0.696636 0
M  V30 1648 H 169.028 1.40014 -0.336456 0
M  V30 1649 H 170.981 3.93161 1.51666 0
M  V30 1650 H 169.705 2.7226 1.80395 0
M  V30 1651 H 168.364 3.66437 -0.10934 0
M  V30 1652 H 168.012 4.51566 2.21578 0
M  V30 1653 H 167.712 5.78913 1.00668 0
M  V30 1654 H 169.236 5.78991 1.93911 0
M  V30 1655 H 170.65 5.72342 -0.331354 0
M  V30 1656 H 169.047 5.89879 -1.10286 0
M  V30 1657 H 170.117 4.57652 -1.60258 0
M  V30 1658 N 171.46 0.379036 1.52974 0
M  V30 1659 C 172.407 -0.461048 2.26148 0
M  V30 1660 C 173.377 -1.06637 1.27349 0
M  V30 1661 O 174.562 -1.09633 1.56157 0
M  V30 1662 C 171.702 -1.58782 3.06402 0
M  V30 1663 C 170.815 -1.00636 4.20115 0
M  V30 1664 C 169.95 -2.10334 4.87784 0
M  V30 1665 C 168.989 -1.49724 5.93506 0
M  V30 1666 N 168.126 -2.5331 6.54812 0
M  V30 1667 H 172.966 0.169429 2.97518 0
M  V30 1668 H 170.503 0.0953806 1.4679 0
M  V30 1669 H 172.461 -2.25174 3.51215 0
M  V30 1670 H 171.091 -2.18876 2.37261 0
M  V30 1671 H 170.143 -0.232332 3.7969 0
M  V30 1672 H 171.455 -0.523343 4.96047 0
M  V30 1673 H 170.609 -2.84519 5.35849 0
M  V30 1674 H 169.348 -2.61992 4.11353 0
M  V30 1675 H 168.353 -0.740598 5.44789 0
M  V30 1676 H 169.578 -0.988732 6.71864 0
M  V30 1677 H 167.524 -3.04156 5.81227 0
M  V30 1678 H 167.441 -2.09734 7.26325 0
M  V30 1679 H 168.709 -3.27155 7.07524 0
M  V30 1680 N 172.938 -1.57226 0.108567 0
M  V30 1681 C 173.888 -2.11305 -0.856396 0
M  V30 1682 C 174.872 -1.03129 -1.23504 0
M  V30 1683 O 176.064 -1.29381 -1.20787 0
M  V30 1684 C 173.193 -2.70771 -2.11041 0
M  V30 1685 C 172.279 -3.86011 -1.7566 0
M  V30 1686 N 172.67 -4.93492 -1.10902 0
M  V30 1687 C 170.968 -3.95999 -2.05185 0
M  V30 1688 C 171.669 -5.73984 -0.944308 0
M  V30 1689 N 170.645 -5.2346 -1.46596 0
M  V30 1690 H 174.447 -2.91784 -0.352002 0
M  V30 1691 H 171.961 -1.62126 -0.0942324 0
M  V30 1692 H 173.958 -3.07851 -2.81128 0
M  V30 1693 H 172.618 -1.91751 -2.62034 0
M  V30 1694 H 173.629 -5.1208 -0.774235 0
M  V30 1695 H 170.306 -3.28007 -2.58298 0
M  V30 1696 H 171.696 -6.70479 -0.436813 0
M  V30 1697 N 174.416 0.165178 -1.56732 0
M  V30 1698 C 175.832 0.517174 -1.50988 0
M  V30 1699 C 176.032 1.84331 -0.813894 0
M  V30 1700 O 175.088 2.49672 -0.37682 0
M  V30 1701 C 176.401 0.544261 -2.95733 0
M  V30 1702 C 177.949 0.631039 -3.06573 0
M  V30 1703 C 178.424 0.68896 -4.52788 0
M  V30 1704 N 179.915 0.751683 -4.5706 0
M  V30 1705 C 180.65 0.817177 -5.67547 0
M  V30 1706 N 180.146 0.843129 -6.8765 0
M  V30 1707 N 181.939 0.856668 -5.55534 0
M  V30 1708 H 174.09 -0.704318 -2.00382 0
M  V30 1709 H 176.353 -0.254687 -0.913148 0
M  V30 1710 H 176.059 -0.361607 -3.49836 0
M  V30 1711 H 175.933 1.3886 -3.5071 0
M  V30 1712 H 178.32 1.52733 -2.52501 0
M  V30 1713 H 178.401 -0.240095 -2.54671 0
M  V30 1714 H 178.045 -0.2031 -5.07494 0
M  V30 1715 H 177.975 1.57633 -5.02454 0
M  V30 1716 H 180.466 0.739661 -3.70591 0
M  V30 1717 H 180.779 0.894448 -7.67606 0
M  V30 1718 H 179.124 0.811304 -6.90248 0
M  V30 1719 H 182.315 0.833437 -4.60621 0
M  V30 1720 H 182.488 0.904247 -6.4166 0
M  V30 1721 N 175.894 1.51508 0.433938 0
M  V30 1722 C 177.14 1.64588 1.18484 0
M  V30 1723 C 177.473 0.362666 1.90784 0
M  V30 1724 O 176.748 -0.637892 1.83742 0
M  V30 1725 C 177.031 2.85149 2.19913 0
M  V30 1726 C 176.884 4.23456 1.51674 0
M  V30 1727 C 178.203 3.01227 3.20858 0
M  V30 1728 H 175.322 0.598994 0.429389 0
M  V30 1729 H 177.964 1.84002 0.473647 0
M  V30 1730 H 176.114 2.68729 2.80566 0
M  V30 1731 H 177.786 4.51552 0.943322 0
M  V30 1732 H 176.029 4.25998 0.819035 0
M  V30 1733 H 176.7 5.03812 2.2556 0
M  V30 1734 H 179.176 3.16382 2.70263 0
M  V30 1735 H 178.052 3.87141 3.89118 0
M  V30 1736 H 178.313 2.13447 3.8716 0
M  V30 1737 N 177.372 -0.689602 1.41712 0
M  V30 1738 C 178.788 -1.00093 1.24312 0
M  V30 1739 C 178.988 -2.01036 0.136729 0
M  V30 1740 O 178.044 -2.47562 -0.496918 0
M  V30 1741 C 179.357 -1.51985 2.59463 0
M  V30 1742 C 180.905 -1.63838 2.66695 0
M  V30 1743 C 181.38 -2.1913 4.02177 0
M  V30 1744 N 182.871 -2.26483 4.04054 0
M  V30 1745 C 183.606 -2.70306 5.0569 0
M  V30 1746 N 183.102 -3.13691 6.17713 0
M  V30 1747 N 184.895 -2.69923 4.9305 0
M  V30 1748 H 177.046 -0.0210029 2.1239 0
M  V30 1749 H 179.309 -0.0718733 0.945272 0
M  V30 1750 H 179.015 -0.85269 3.41207 0
M  V30 1751 H 178.889 -2.50103 2.82362 0
M  V30 1752 H 181.276 -2.29664 1.85306 0
M  V30 1753 H 181.357 -0.642492 2.476 0
M  V30 1754 H 181.001 -1.53918 4.84016 0
M  V30 1755 H 180.931 -3.19482 4.18615 0
M  V30 1756 H 183.422 -1.95874 3.23174 0
M  V30 1757 H 183.735 -3.45773 6.9113 0
M  V30 1758 H 182.08 -3.11585 6.21241 0
M  V30 1759 H 185.271 -2.35382 4.04614 0
M  V30 1760 H 185.444 -3.03758 5.72394 0
M  V30 1761 N 178.85 -1.27639 -0.924453 0
M  V30 1762 C 179.798 -1.10485 -2.04685 0
M  V30 1763 C 180.792 -0.0270421 -1.69378 0
M  V30 1764 O 181.998 -0.185008 -1.79047 0
M  V30 1765 H 178.373 -0.340546 -0.670472 0
M  V30 1766 H 180.344 -2.05566 -2.16298 0
M  V30 1767 C 179.093 -0.772229 -3.39016 0
M  V30 1768 H 178.416 -1.59351 -3.66671 0
M  V30 1769 H 179.856 -0.692097 -4.18313 0
M  V30 1770 C 178.315 0.523554 -3.32807 0
M  V30 1771 O 178.845 1.55702 -3.70297 0
M  V30 1772 N 177.051 0.520363 -2.85903 0
M  V30 1773 H 176.598 -0.32107 -2.55591 0
M  V30 1774 H 176.556 1.38742 -2.82131 0
M  V30 1775 N 180.328 1.1314 -1.09713 0
M  V30 1776 C 181.558 1.88048 -0.855656 0
M  V30 1777 C 181.966 1.79537 0.596919 0
M  V30 1778 O 181.309 1.16196 1.42282 0
M  V30 1779 C 181.371 3.38314 -1.21589 0
M  V30 1780 C 181.035 3.70605 -2.67397 0
M  V30 1781 C 182.032 3.69596 -3.65643 0
M  V30 1782 C 179.717 4.0017 -3.03593 0
M  V30 1783 C 181.711 3.977 -4.9811 0
M  V30 1784 C 179.398 4.27935 -4.36251 0
M  V30 1785 C 180.396 4.26685 -5.33318 0
M  V30 1786 O 180.084 4.53767 -6.63589 0
M  V30 1787 H 179.816 0.60208 -0.307368 0
M  V30 1788 H 182.37 1.44128 -1.46343 0
M  V30 1789 H 180.6 3.82752 -0.551177 0
M  V30 1790 H 182.289 3.94552 -0.953083 0
M  V30 1791 H 183.055 3.46826 -3.39023 0
M  V30 1792 H 178.934 4.00289 -2.2867 0
M  V30 1793 H 182.478 3.9664 -5.73866 0
M  V30 1794 H 178.375 4.50178 -4.62613 0
M  V30 1795 H 179.143 4.71422 -6.69107 0
M  V30 1796 N 181.806 0.884767 1.30421 0
M  V30 1797 C 182.736 0.367574 2.30589 0
M  V30 1798 C 183.717 -0.549464 1.60981 0
M  V30 1799 O 184.902 -0.46336 1.88591 0
M  V30 1800 C 182.032 -0.418944 3.44764 0
M  V30 1801 C 180.986 0.406316 4.26067 0
M  V30 1802 C 180.312 -0.506793 5.32293 0
M  V30 1803 C 181.612 1.64832 4.95608 0
M  V30 1804 H 183.306 1.20462 2.74097 0
M  V30 1805 H 180.852 0.580695 1.31772 0
M  V30 1806 H 182.805 -0.791395 4.13902 0
M  V30 1807 H 181.529 -1.28964 3.0006 0
M  V30 1808 H 180.188 0.760903 3.58617 0
M  V30 1809 H 179.836 -1.37519 4.83836 0
M  V30 1810 H 179.536 0.0415828 5.87585 0
M  V30 1811 H 181.06 -0.875764 6.04287 0
M  V30 1812 H 182.474 1.34646 5.57264 0
M  V30 1813 H 180.871 2.13688 5.60765 0
M  V30 1814 H 181.941 2.39284 4.21748 0
M  V30 1815 N 183.284 -1.43765 0.645699 0
M  V30 1816 C 184.214 -2.33471 -0.0370477 0
M  V30 1817 C 185.195 -1.49042 -0.819779 0
M  V30 1818 O 186.38 -1.77726 -0.782758 0
M  V30 1819 C 183.51 -3.32311 -1.0093 0
M  V30 1820 C 182.464 -4.2667 -0.337201 0
M  V30 1821 C 181.79 -5.1549 -1.42037 0
M  V30 1822 C 183.09 -5.16657 0.765706 0
M  V30 1823 H 184.784 -2.90809 0.712069 0
M  V30 1824 H 182.33 -1.39834 0.343876 0
M  V30 1825 H 184.283 -3.9396 -1.49578 0
M  V30 1826 H 183.007 -2.73213 -1.78948 0
M  V30 1827 H 181.666 -3.66374 0.128771 0
M  V30 1828 H 181.314 -4.52735 -2.1918 0
M  V30 1829 H 181.014 -5.79438 -0.975966 0
M  V30 1830 H 182.538 -5.80012 -1.90838 0
M  V30 1831 H 183.952 -5.72158 0.361702 0
M  V30 1832 H 182.349 -5.89286 1.13413 0
M  V30 1833 H 183.419 -4.56796 1.62683 0
M  V30 1834 N 184.763 -0.387143 -1.52771 0
M  V30 1835 C 185.991 0.195869 -2.05971 0
M  V30 1836 C 186.406 1.40691 -1.25903 0
M  V30 1837 O 185.763 1.79931 -0.305134 0
M  V30 1838 C 185.814 0.56812 -3.57008 0
M  V30 1839 O 185.535 -0.594803 -4.34043 0
M  V30 1840 C 187.036 1.20723 -4.26545 0
M  V30 1841 H 184.256 0.0300578 -0.670326 0
M  V30 1842 H 186.8 -0.551749 -1.96916 0
M  V30 1843 H 184.955 1.26564 -3.66143 0
M  V30 1844 H 185.369 -0.289322 -5.23701 0
M  V30 1845 H 186.843 1.41807 -5.33474 0
M  V30 1846 H 187.32 2.17395 -3.81623 0
M  V30 1847 H 187.926 0.550535 -4.21722 0
M  V30 1848 N 186.241 1.57166 -0.116904 0
M  V30 1849 C 187.49 1.94298 0.541407 0
M  V30 1850 C 187.803 1.00236 1.67964 0
M  V30 1851 O 189.009 1.26826 2.40057 0
M  V30 1852 C 187.465 3.45306 1.01449 0
M  V30 1853 C 187.073 4.47899 -0.0951738 0
M  V30 1854 C 188.817 3.91361 1.6443 0
M  V30 1855 C 186.724 5.90083 0.394491 0
M  V30 1856 H 185.654 0.725308 0.206019 0
M  V30 1857 H 188.305 1.82446 -0.196419 0
M  V30 1858 H 186.687 3.52385 1.80667 0
M  V30 1859 H 187.861 4.52486 -0.871374 0
M  V30 1860 H 186.176 4.11583 -0.631505 0
M  V30 1861 H 188.773 4.95004 2.02176 0
M  V30 1862 H 189.116 3.3122 2.52189 0
M  V30 1863 H 189.649 3.87073 0.917559 0
M  V30 1864 H 186.388 6.53974 -0.447004 0
M  V30 1865 H 185.908 5.88921 1.13722 0
M  V30 1866 H 187.587 6.41307 0.856399 0
M  V30 1867 N 187.719 -0.156864 1.56817 0
M  V30 1868 C 188.666 -1.19394 1.97519 0
M  V30 1869 C 189.636 -1.4322 0.841265 0
M  V30 1870 O 190.821 -1.55719 1.10255 0
M  V30 1871 C 187.961 -2.52483 2.35258 0
M  V30 1872 C 187.074 -2.35914 3.61896 0
M  V30 1873 C 186.209 -3.61969 3.88782 0
M  V30 1874 C 185.248 -3.40395 5.08722 0
M  V30 1875 N 184.385 -4.58556 5.31668 0
M  V30 1876 H 189.225 -0.839845 2.85921 0
M  V30 1877 H 186.762 -0.403264 1.41464 0
M  V30 1878 H 188.72 -3.30071 2.55165 0
M  V30 1879 H 187.35 -2.85859 1.49949 0
M  V30 1880 H 186.402 -1.49429 3.49821 0
M  V30 1881 H 187.714 -2.15926 4.49641 0
M  V30 1882 H 186.868 -4.47989 4.09135 0
M  V30 1883 H 185.607 -3.84951 2.9944 0
M  V30 1884 H 184.612 -2.52763 4.88253 0
M  V30 1885 H 185.837 -3.18822 5.99608 0
M  V30 1886 H 183.783 -4.81729 4.45279 0
M  V30 1887 H 183.7 -4.41535 6.13664 0
M  V30 1888 H 184.968 -5.45817 5.5651 0
M  V30 1889 N 189.197 -1.51736 -0.425897 0
M  V30 1890 C 190.107 -1.76738 -1.54275 0
M  V30 1891 C 191.123 -0.65211 -1.61318 0
M  V30 1892 O 192.299 -0.935654 -1.78346 0
M  V30 1893 C 189.364 -1.89755 -2.90162 0
M  V30 1894 C 188.425 -3.13633 -2.93143 0
M  V30 1895 C 187.658 -3.2602 -4.22548 0
M  V30 1896 O 187.881 -2.44067 -5.15546 0
M  V30 1897 O 186.815 -4.19071 -4.32046 0
M  V30 1898 H 190.641 -2.71502 -1.36089 0
M  V30 1899 H 188.226 -1.36376 -0.610069 0
M  V30 1900 H 190.108 -2.00236 -3.70788 0
M  V30 1901 H 188.783 -0.981785 -3.08452 0
M  V30 1902 H 187.69 -3.08622 -2.11431 0
M  V30 1903 H 189.023 -4.04936 -2.798 0
M  V30 1904 N 190.675 0.682077 -1.42076 0
M  V30 1905 C 191.605 1.80796 -1.47767 0
M  V30 1906 C 192.586 1.6677 -0.334954 0
M  V30 1907 O 193.771 1.863 -0.548264 0
M  V30 1908 C 190.901 3.19038 -1.37229 0
M  V30 1909 C 189.855 3.47789 -2.49453 0
M  V30 1910 C 189.181 4.8553 -2.23975 0
M  V30 1911 C 190.481 3.45411 -3.91776 0
M  V30 1912 H 192.175 1.7629 -2.41997 0
M  V30 1913 H 189.721 0.846721 -1.16476 0
M  V30 1914 H 191.674 3.97528 -1.39821 0
M  V30 1915 H 190.398 3.24204 -0.394907 0
M  V30 1916 H 189.057 2.71657 -2.46166 0
M  V30 1917 H 188.705 4.87337 -1.24547 0
M  V30 1918 H 188.405 5.0573 -2.99184 0
M  V30 1919 H 189.929 5.66312 -2.28304 0
M  V30 1920 H 191.343 4.13882 -3.96705 0
M  V30 1921 H 189.74 3.77145 -4.66778 0
M  V30 1922 H 190.81 2.44122 -4.18966 0
M  V30 1923 N 192.153 1.28127 0.917671 0
M  V30 1924 C 193.1 1.11717 2.0196 0
M  V30 1925 C 194.07 0.0153929 1.66093 0
M  V30 1926 O 195.255 0.179596 1.89953 0
M  V30 1927 C 192.395 0.780927 3.36148 0
M  V30 1928 C 191.508 1.96135 3.84909 0
M  V30 1929 C 190.643 1.56609 5.0759 0
M  V30 1930 C 189.682 2.71339 5.48673 0
M  V30 1931 N 188.819 2.32332 6.62545 0
M  V30 1932 H 193.659 2.06003 2.15329 0
M  V30 1933 H 191.196 1.02535 1.05475 0
M  V30 1934 H 193.154 0.56675 4.13333 0
M  V30 1935 H 191.784 -0.124998 3.22558 0
M  V30 1936 H 190.836 2.28777 3.03916 0
M  V30 1937 H 192.148 2.82165 4.1132 0
M  V30 1938 H 191.302 1.31374 5.92305 0
M  V30 1939 H 190.041 0.677014 4.82978 0
M  V30 1940 H 189.046 2.97276 4.62501 0
M  V30 1941 H 190.271 3.60882 5.75274 0
M  V30 1942 H 188.217 1.45889 6.39572 0
M  V30 1943 H 188.134 3.11899 6.88662 0
M  V30 1944 H 189.402 2.10371 7.50576 0
M  V30 1945 N 193.631 -1.12557 1.10312 0
M  V30 1946 C 194.861 -1.87592 0.865617 0
M  V30 1947 C 195.269 -1.79851 -0.587389 0
M  V30 1948 O 194.612 -1.16949 -1.41664 0
M  V30 1949 C 194.674 -3.37665 1.23381 0
M  V30 1950 C 194.338 -3.69181 2.69359 0
M  V30 1951 C 195.335 -3.67652 3.67597 0
M  V30 1952 C 193.02 -3.98555 3.05711 0
M  V30 1953 C 195.014 -3.95053 5.00212 0
M  V30 1954 C 192.701 -4.25616 4.38514 0
M  V30 1955 C 193.699 -4.23851 5.35574 0
M  V30 1956 O 193.387 -4.50242 6.65986 0
M  V30 1957 H 193.119 -0.600442 0.310557 0
M  V30 1958 H 195.673 -1.4335 1.47105 0
M  V30 1959 H 193.903 -3.82454 0.571467 0
M  V30 1960 H 195.592 -3.94041 0.973994 0
M  V30 1961 H 196.358 -3.45024 3.40857 0
M  V30 1962 H 192.237 -3.99071 2.30789 0
M  V30 1963 H 195.781 -3.93591 5.75962 0
M  V30 1964 H 191.678 -4.47718 4.64994 0
M  V30 1965 H 192.446 -4.67867 6.71597 0
M  V30 1966 N 195.109 -0.891671 -1.2995 0
M  V30 1967 C 196.52 -0.563104 -1.78006 0
M  V30 1968 C 196.871 0.920978 -1.73241 0
M  V30 1969 O 195.996 1.71987 -1.31337 0
M  V30 1970 C 196.591 -1.01539 -3.23226 0
M  V30 1971 C 195.15 -0.738124 -3.69092 0
M  V30 1972 C 194.297 -1.19461 -2.50249 0
M  V30 1973 H 197.248 -1.07522 -1.16725 0
M  V30 1974 H 197.269 -0.347217 -3.78912 0
M  V30 1975 H 196.781 -2.09555 -3.26662 0
M  V30 1976 H 194.882 0.329766 -3.71138 0
M  V30 1977 H 194.995 -1.33037 -4.60259 0
M  V30 1978 H 193.359 -0.613787 -2.47194 0
M  V30 1979 H 194.142 -2.28265 -2.56417 0
M  V30 1980 N 196.587 1.43421 -0.653314 0
M  V30 1981 C 197.519 2.29071 0.0769134 0
M  V30 1982 C 198.532 1.42513 0.787017 0
M  V30 1983 O 199.721 1.66449 0.644757 0
M  V30 1984 C 196.821 3.19436 1.13199 0
M  V30 1985 C 195.994 4.34533 0.500006 0
M  V30 1986 C 195.053 5.05771 1.45198 0
M  V30 1987 O 194.079 5.61037 0.960538 0
M  V30 1988 N 195.281 5.0928 2.78594 0
M  V30 1989 H 198.046 2.92382 -0.658235 0
M  V30 1990 H 195.607 1.54112 -0.496104 0
M  V30 1991 H 197.599 3.63958 1.76964 0
M  V30 1992 H 196.169 2.57724 1.7691 0
M  V30 1993 H 195.389 3.92925 -0.316738 0
M  V30 1994 H 196.677 5.08766 0.0588345 0
M  V30 1995 H 196.075 4.65751 3.2108 0
M  V30 1996 H 194.632 5.57519 3.37662 0
M  V30 1997 N 198.065 0.39524 1.52563 0
M  V30 1998 C 198.995 -0.428384 2.29537 0
M  V30 1999 C 199.976 -1.05831 1.33169 0
M  V30 2000 O 201.161 -1.06995 1.62067 0
M  V30 2001 C 198.291 -1.55274 3.10656 0
M  V30 2002 C 197.245 -1.04855 4.14957 0
M  V30 2003 C 196.571 -2.26543 4.84337 0
M  V30 2004 C 197.871 -0.112324 5.22179 0
M  V30 2005 H 199.565 0.213867 2.98635 0
M  V30 2006 H 197.111 0.104298 1.43622 0
M  V30 2007 H 199.064 -2.1358 3.63265 0
M  V30 2008 H 197.788 -2.22266 2.39302 0
M  V30 2009 H 196.447 -0.487985 3.63338 0
M  V30 2010 H 196.095 -2.92059 4.09525 0
M  V30 2011 H 195.795 -1.93466 5.54837 0
M  V30 2012 H 197.319 -2.85481 5.39753 0
M  V30 2013 H 198.733 -0.603752 5.70112 0
M  V30 2014 H 197.13 0.128968 5.99961 0
M  V30 2015 H 198.2 0.837052 4.77621 0
M  V30 2016 N 199.544 -1.57102 0.125237 0
M  V30 2017 C 200.791 -1.95407 -0.531248 0
M  V30 2018 C 201.119 -1.0089 -1.66287 0
M  V30 2019 O 200.374 -0.0339431 -1.95671 0
M  V30 2020 C 200.673 -3.40096 -1.09862 0
M  V30 2021 C 200.339 -4.50815 -0.0876989 0
M  V30 2022 C 199.001 -4.80824 0.19026 0
M  V30 2023 C 201.353 -5.17724 0.600902 0
M  V30 2024 C 198.681 -5.75058 1.163 0
M  V30 2025 C 201.033 -6.13005 1.56231 0
M  V30 2026 C 199.697 -6.41403 1.8482 0
M  V30 2027 H 198.967 -0.715046 -0.194397 0
M  V30 2028 H 201.614 -1.90373 0.207463 0
M  V30 2029 H 199.919 -3.41855 -1.91422 0
M  V30 2030 H 201.616 -3.6705 -1.61478 0
M  V30 2031 H 198.206 -4.27444 -0.314528 0
M  V30 2032 H 202.39 -4.94691 0.399333 0
M  V30 2033 H 197.646 -5.95362 1.39117 0
M  V30 2034 H 201.82 -6.63934 2.10153 0
M  V30 2035 H 199.447 -7.14229 2.60349 0
M  V30 2036 N 201.022 0.148545 -1.56898 0
M  V30 2037 C 202.299 0.890019 -1.74178 0
M  V30 2038 C 202.679 1.99407 -0.692839 0
M  V30 2039 O 202.027 2.26671 0.288505 0
M  V30 2040 C 202.237 1.43389 -3.18183 0
M  V30 2041 C 203.585 1.89791 -3.79822 0
M  V30 2042 O 204.609 1.53134 -3.21603 0
M  V30 2043 O 203.468 2.57387 -4.82093 0
M  V30 2044 H 200.562 0.420496 -0.712118 0
M  V30 2045 H 203.108 0.134591 -1.69165 0
M  V30 2046 H 201.88 0.640383 -3.86024 0
M  V30 2047 H 201.503 2.25287 -3.27615 0
M  V30 2048 N 202.5 1.5196 0.417844 0
M  V30 2049 C 203.43 1.77634 1.51554 0
M  V30 2050 C 204.411 0.626918 1.58126 0
M  V30 2051 O 205.596 0.871632 1.7354 0
M  V30 2052 C 202.726 1.91911 2.8946 0
M  V30 2053 C 201.68 3.07463 2.97743 0
M  V30 2054 C 201.006 3.06951 4.37819 0
M  V30 2055 C 202.306 4.47082 2.70027 0
M  V30 2056 H 204 2.6955 1.3032 0
M  V30 2057 H 201.546 1.29706 0.625492 0
M  V30 2058 H 203.499 2.08455 3.6623 0
M  V30 2059 H 202.223 0.966598 3.11969 0
M  V30 2060 H 200.882 2.90656 2.23416 0
M  V30 2061 H 200.53 2.09438 4.57323 0
M  V30 2062 H 200.23 3.84556 4.44286 0
M  V30 2063 H 201.754 3.25613 5.16535 0
M  V30 2064 H 203.168 4.6414 3.36522 0
M  V30 2065 H 201.565 5.2654 2.87881 0
M  V30 2066 H 202.635 4.55777 1.65514 0
M  V30 2067 N 203.978 -0.674533 1.42435 0
M  V30 2068 C 205.206 -1.46283 1.46317 0
M  V30 2069 C 205.621 -1.88653 0.0745836 0
M  V30 2070 O 204.978 -1.58151 -0.91074 0
M  V30 2071 C 205.029 -2.71178 2.3905 0
M  V30 2072 O 204.75 -2.30586 3.72507 0
M  V30 2073 C 206.251 -3.64738 2.51955 0
M  V30 2074 H 203.471 -0.450104 0.497642 0
M  V30 2075 H 206.015 -0.828792 1.86953 0
M  V30 2076 H 204.17 -3.3077 2.01667 0
M  V30 2077 H 204.584 -3.11241 4.22172 0
M  V30 2078 H 206.058 -4.49096 3.20962 0
M  V30 2079 H 206.535 -4.10656 1.55752 0
M  V30 2080 H 207.141 -3.11038 2.90061 0
M  V30 2081 N 205.456 -1.28612 -0.910864 0
M  V30 2082 C 206.404 -1.1265 -2.03501 0
M  V30 2083 C 207.398 -0.0450054 -1.6934 0
M  V30 2084 O 208.604 -0.203988 -1.7884 0
M  V30 2085 H 204.979 -0.347639 -0.666822 0
M  V30 2086 H 206.95 -2.07849 -2.14106 0
M  V30 2087 C 205.699 -0.808143 -3.38178 0
M  V30 2088 H 205.022 -1.63231 -3.6496 0
M  V30 2089 H 206.462 -0.736426 -4.17556 0
M  V30 2090 C 204.921 0.488226 -3.33344 0
M  V30 2091 O 205.451 1.51766 -3.71927 0
M  V30 2092 N 203.657 0.490009 -2.86439 0
M  V30 2093 H 203.204 -0.348161 -2.55236 0
M  V30 2094 H 203.162 1.35741 -2.83587 0
M  V30 2095 N 206.934 1.1197 -1.10907 0
M  V30 2096 C 207.884 2.15946 -0.731538 0
M  V30 2097 C 208.868 1.58758 0.261699 0
M  V30 2098 O 210.06 1.76863 0.0696722 0
M  V30 2099 C 207.189 3.42877 -0.170299 0
M  V30 2100 C 206.275 4.07037 -1.19087 0
M  V30 2101 N 206.666 4.46135 -2.38322 0
M  V30 2102 C 204.964 4.33884 -1.03252 0
M  V30 2103 C 205.665 4.96331 -3.03366 0
M  V30 2104 N 204.641 4.9214 -2.30865 0
M  V30 2105 H 208.443 2.43947 -1.63912 0
M  V30 2106 H 205.957 1.28927 -0.987505 0
M  V30 2107 H 207.954 4.16732 0.118271 0
M  V30 2108 H 206.614 3.16343 0.731935 0
M  V30 2109 H 207.625 4.38345 -2.75815 0
M  V30 2110 H 204.302 4.17084 -0.186256 0
M  V30 2111 H 205.692 5.36257 -4.04818 0
M  V30 2112 N 208.412 0.89855 1.29475 0
M  V30 2113 C 209.345 0.319981 2.25945 0
M  V30 2114 C 210.323 -0.567189 1.52387 0
M  V30 2115 O 211.507 -0.514254 1.8135 0
M  V30 2116 C 208.634 -0.544013 3.34303 0
M  V30 2117 C 207.68 0.275682 4.25608 0
M  V30 2118 S 208.513 1.67272 5.08704 0
M  V30 2119 C 209.669 0.815621 6.20563 0
M  V30 2120 H 209.902 1.13767 2.74671 0
M  V30 2121 H 207.435 0.69882 1.3768 0
M  V30 2122 H 209.393 -1.03673 3.97193 0
M  V30 2123 H 208.054 -1.33593 2.84274 0
M  V30 2124 H 207.247 -0.384263 5.02533 0
M  V30 2125 H 206.849 0.701496 3.67362 0
M  V30 2126 H 209.141 0.0385042 6.77489 0
M  V30 2127 H 210.084 1.55691 6.90772 0
M  V30 2128 H 210.492 0.370516 5.63283 0
M  V30 2129 N 209.89 -1.43072 0.660911 0
M  V30 2130 C 210.82 -2.33497 -0.0122829 0
M  V30 2131 C 211.801 -1.49903 -0.803925 0
M  V30 2132 O 212.986 -1.78546 -0.763864 0
M  V30 2133 C 210.116 -3.33363 -0.973994 0
M  V30 2134 C 209.07 -4.27003 -0.291928 0
M  V30 2135 C 208.396 -5.16967 -1.36562 0
M  V30 2136 C 209.696 -5.15816 0.820462 0
M  V30 2137 H 211.39 -2.90038 0.742873 0
M  V30 2138 H 208.936 -1.39461 0.358688 0
M  V30 2139 H 210.889 -3.95524 -1.45392 0
M  V30 2140 H 209.613 -2.75095 -1.7604 0
M  V30 2141 H 208.272 -3.66217 0.167623 0
M  V30 2142 H 207.92 -4.55034 -2.14366 0
M  V30 2143 H 207.62 -5.80441 -0.914454 0
M  V30 2144 H 209.144 -5.82003 -1.84675 0
M  V30 2145 H 210.558 -5.71742 0.422366 0
M  V30 2146 H 208.955 -5.8805 1.19656 0
M  V30 2147 H 210.025 -4.55045 1.67518 0
M  V30 2148 N 211.368 -0.403325 -1.52352 0
M  V30 2149 C 212.596 0.174012 -2.06167 0
M  V30 2150 C 213.011 1.39347 -1.27388 0
M  V30 2151 O 212.368 1.79597 -0.324201 0
M  V30 2152 C 212.419 0.530223 -3.5759 0
M  V30 2153 O 212.14 -0.640806 -4.33388 0
M  V30 2154 C 213.641 1.16192 -4.27802 0
M  V30 2155 H 210.861 0.0229464 -0.670608 0
M  V30 2156 H 213.405 -0.572604 -1.9632 0
M  V30 2157 H 211.56 1.22673 -3.67464 0
M  V30 2158 H 211.974 -0.344851 -5.23365 0
M  V30 2159 H 213.448 1.36141 -5.34948 0
M  V30 2160 H 213.925 2.13335 -3.83907 0
M  V30 2161 H 214.531 0.505775 -4.22282 0
M  V30 2162 N 212.846 1.57033 -0.133567 0
M  V30 2163 C 213.776 2.1909 0.807567 0
M  V30 2164 C 214.757 1.13517 1.26681 0
M  V30 2165 O 215.942 1.41809 1.32679 0
M  V30 2166 C 213.072 2.80188 2.05212 0
M  V30 2167 C 212.026 3.91471 1.73015 0
M  V30 2168 C 211.352 4.39443 3.04622 0
M  V30 2169 C 212.652 5.12886 0.987168 0
M  V30 2170 H 214.346 2.97988 0.290403 0
M  V30 2171 H 211.892 1.43335 0.138239 0
M  V30 2172 H 213.845 3.22264 2.71521 0
M  V30 2173 H 212.569 1.98601 2.59278 0
M  V30 2174 H 211.228 3.49993 1.0909 0
M  V30 2175 H 210.876 3.54695 3.56651 0
M  V30 2176 H 210.576 5.14495 2.83847 0
M  V30 2177 H 212.1 4.8418 3.72024 0
M  V30 2178 H 213.514 5.51891 1.55208 0
M  V30 2179 H 211.911 5.93615 0.87985 0
M  V30 2180 H 212.981 4.84894 -0.0235286 0
M  V30 2181 N 214.325 -0.140222 1.56975 0
M  V30 2182 C 215.565 -0.857823 1.85528 0
M  V30 2183 C 215.929 -1.78039 0.718768 0
M  V30 2184 O 217.13 -2.53795 0.885521 0
M  V30 2185 C 215.401 -1.60615 3.19277 0
M  V30 2186 S 216.96 -2.36824 3.69405 0
M  V30 2187 H 213.778 -0.286727 0.650622 0
M  V30 2188 H 216.38 -0.117408 1.95147 0
M  V30 2189 H 215.084 -0.919994 3.99955 0
M  V30 2190 H 214.615 -2.38735 3.12681 0
M  V30 2191 H 216.63 -3.62148 3.3921 0
M  V30 2192 N 215.803 -1.52179 -0.40978 0
M  V30 2193 C 217.08 -1.56769 -1.16974 0
M  V30 2194 C 217.46 -0.348322 -2.08206 0
M  V30 2195 O 216.808 0.664862 -2.18613 0
M  V30 2196 C 217.018 -2.89603 -1.9476 0
M  V30 2197 C 218.366 -3.42579 -2.50849 0
M  V30 2198 O 219.39 -2.91338 -2.04941 0
M  V30 2199 O 218.249 -4.32054 -3.34652 0
M  V30 2200 H 215.343 -0.631439 -0.534054 0
M  V30 2201 H 217.889 -1.64507 -0.416613 0
M  V30 2202 H 216.661 -3.698 -1.27921 0
M  V30 2203 H 216.284 -2.85155 -2.77079 0
M  V30 2204 N 217.281 0.66697 -1.42791 0
M  V30 2205 C 218.229 1.80157 -1.47127 0
M  V30 2206 C 219.223 1.65825 -0.346199 0
M  V30 2207 O 220.429 1.72338 -0.519572 0
M  V30 2208 H 216.804 0.594158 -0.460956 0
M  V30 2209 H 218.775 1.73619 -2.42692 0
M  V30 2210 C 217.524 3.18351 -1.39813 0
M  V30 2211 H 216.847 3.3001 -2.25684 0
M  V30 2212 H 218.287 3.97736 -1.46908 0
M  V30 2213 C 216.746 3.36707 -0.11391 0
M  V30 2214 O 217.276 3.93027 0.830241 0
M  V30 2215 N 215.482 2.90586 -0.0285295 0
M  V30 2216 H 215.029 2.4494 -0.79764 0
M  V30 2217 H 214.987 3.03245 0.830063 0
M  V30 2218 N 218.759 1.29093 0.90403 0
M  V30 2219 C 220.008 1.16187 1.64874 0
M  V30 2220 C 220.321 -0.286742 1.93487 0
M  V30 2221 O 221.527 -0.537062 2.66135 0
M  V30 2222 C 219.983 2.03177 2.97064 0
M  V30 2223 C 219.591 3.52836 2.76062 0
M  V30 2224 C 221.335 1.98984 3.74974 0
M  V30 2225 C 219.242 4.31945 4.03952 0
M  V30 2226 H 218.172 0.431246 0.618501 0
M  V30 2227 H 220.823 1.53699 1.00243 0
M  V30 2228 H 219.205 1.5853 3.62883 0
M  V30 2229 H 220.379 4.05507 2.18863 0
M  V30 2230 H 218.694 3.58656 2.11553 0
M  V30 2231 H 221.291 2.55351 4.69787 0
M  V30 2232 H 221.634 0.968815 4.0487 0
M  V30 2233 H 222.167 2.41652 3.15989 0
M  V30 2234 H 218.906 5.34667 3.79225 0
M  V30 2235 H 218.426 3.84045 4.60727 0
M  V30 2236 H 220.105 4.42379 4.72133 0
M  V30 2237 N 220.237 -1.11381 1.11499 0
M  V30 2238 C 221.187 -2.15555 0.74298 0
M  V30 2239 C 222.171 -1.58894 -0.253276 0
M  V30 2240 O 223.363 -1.76897 -0.0602918 0
M  V30 2241 C 220.492 -3.42782 0.188481 0
M  V30 2242 C 219.578 -4.064 1.21244 0
M  V30 2243 N 219.969 -4.44864 2.40685 0
M  V30 2244 C 218.267 -4.3333 1.05552 0
M  V30 2245 C 218.968 -4.94715 3.05994 0
M  V30 2246 N 217.944 -4.90909 2.33472 0
M  V30 2247 H 221.746 -2.43074 1.65203 0
M  V30 2248 H 219.26 -1.28401 0.994329 0
M  V30 2249 H 221.257 -4.16789 -0.0961693 0
M  V30 2250 H 219.917 -3.16727 -0.715149 0
M  V30 2251 H 220.928 -4.36876 2.78136 0
M  V30 2252 H 217.605 -4.1698 0.208372 0
M  V30 2253 H 218.995 -5.34103 4.07656 0
M  V30 2254 N 221.715 -0.905404 -1.28997 0
M  V30 2255 C 222.963 -0.533192 -1.9494 0
M  V30 2256 C 223.284 0.924618 -1.71685 0
M  V30 2257 O 222.554 1.65268 -1.05183 0
M  V30 2258 H 221.134 -0.194194 -0.721317 0
M  V30 2259 H 223.796 -1.15294 -1.57141 0
M  V30 2260 H 222.892 -0.72059 -3.03667 0
M  V30 2261 N 223.193 1.4272 -0.668489 0
M  V30 2262 C 224.44 2.01624 -0.18814 0
M  V30 2263 C 224.768 1.5282 1.20317 0
M  V30 2264 O 224.023 0.718323 1.8204 0
M  V30 2265 C 224.322 3.57021 -0.164499 0
M  V30 2266 C 223.988 4.25232 -1.49962 0
M  V30 2267 C 222.65 4.4358 -1.8652 0
M  V30 2268 C 225.002 4.63727 -2.37921 0
M  V30 2269 C 222.33 4.97694 -3.10674 0
M  V30 2270 C 224.682 5.19218 -3.6138 0
M  V30 2271 C 223.346 5.3578 -3.98115 0
M  V30 2272 H 222.616 0.737795 -0.0688454 0
M  V30 2273 H 225.263 1.70991 -0.862225 0
M  V30 2274 H 223.568 3.87285 0.593079 0
M  V30 2275 H 225.265 4.00372 0.224271 0
M  V30 2276 H 221.855 4.11306 -1.20522 0
M  V30 2277 H 226.039 4.4923 -2.10964 0
M  V30 2278 H 221.295 5.08702 -3.39164 0
M  V30 2279 H 225.469 5.4799 -4.29743 0
M  V30 2280 H 223.096 5.77475 -4.94395 0
M  V30 2281 N 224.671 0.411399 1.52136 0
M  V30 2282 C 225.618 -0.412975 2.27075 0
M  V30 2283 C 226.588 -1.03912 1.29582 0
M  V30 2284 O 227.773 -1.06296 1.58448 0
M  V30 2285 C 224.913 -1.52247 3.09701 0
M  V30 2286 C 224.026 -0.917021 4.22155 0
M  V30 2287 C 223.161 -1.9994 4.92135 0
M  V30 2288 C 222.2 -1.37101 5.96548 0
M  V30 2289 N 221.337 -2.39364 6.60038 0
M  V30 2290 H 226.177 0.232499 2.97092 0
M  V30 2291 H 223.714 0.126496 1.46555 0
M  V30 2292 H 225.672 -2.17674 3.55913 0
M  V30 2293 H 224.302 -2.13794 2.41851 0
M  V30 2294 H 223.354 -0.151742 3.80097 0
M  V30 2295 H 224.666 -0.418006 4.97045 0
M  V30 2296 H 223.82 -2.73088 5.41763 0
M  V30 2297 H 222.559 -2.53208 4.16818 0
M  V30 2298 H 221.564 -0.624873 5.46237 0
M  V30 2299 H 222.789 -0.845998 6.7381 0
M  V30 2300 H 220.735 -2.91759 5.87548 0
M  V30 2301 H 220.652 -1.9428 7.3061 0
M  V30 2302 H 221.92 -3.12074 7.14304 0
M  V30 2303 N 226.149 -1.5696 0.141893 0
M  V30 2304 C 227.379 -2.00031 -0.516828 0
M  V30 2305 C 227.787 -1.02091 -1.59293 0
M  V30 2306 O 227.13 -0.00909657 -1.83698 0
M  V30 2307 C 227.192 -3.39534 -1.1814 0
M  V30 2308 C 226.856 -4.56313 -0.250513 0
M  V30 2309 C 227.853 -5.17295 0.519839 0
M  V30 2310 C 225.538 -5.02061 -0.154907 0
M  V30 2311 C 227.532 -6.2243 1.3733 0
M  V30 2312 C 225.219 -6.07053 0.702161 0
M  V30 2313 C 226.217 -6.67106 1.46487 0
M  V30 2314 O 225.905 -7.70066 2.30767 0
M  V30 2315 H 225.637 -0.661451 -0.139493 0
M  V30 2316 H 228.191 -2.04086 0.231926 0
M  V30 2317 H 226.421 -3.32302 -1.97769 0
M  V30 2318 H 228.11 -3.66745 -1.73933 0
M  V30 2319 H 228.876 -4.82852 0.45598 0
M  V30 2320 H 224.755 -4.5505 -0.7383 0
M  V30 2321 H 228.299 -6.69233 1.96909 0
M  V30 2322 H 224.196 -6.40923 0.76733 0
M  V30 2323 H 224.964 -7.87264 2.23959 0
M  V30 2324 N 227.627 0.131896 -1.57047 0
M  V30 2325 C 228.557 1.16384 -2.02428 0
M  V30 2326 C 229.538 1.43936 -0.90644 0
M  V30 2327 O 230.723 1.54599 -1.17528 0
M  V30 2328 C 227.853 2.49328 -2.4177 0
M  V30 2329 C 226.807 2.36266 -3.56879 0
M  V30 2330 C 226.133 3.74057 -3.8208 0
M  V30 2331 C 227.433 1.834 -4.89042 0
M  V30 2332 H 229.127 0.786433 -2.88887 0
M  V30 2333 H 226.673 0.376855 -1.38981 0
M  V30 2334 H 228.626 3.21759 -2.7212 0
M  V30 2335 H 227.35 2.88934 -1.52266 0
M  V30 2336 H 226.009 1.66286 -3.26718 0
M  V30 2337 H 225.657 4.11125 -2.89803 0
M  V30 2338 H 225.357 3.66174 -4.59554 0
M  V30 2339 H 226.881 4.48012 -4.1487 0
M  V30 2340 H 228.295 2.45636 -5.18011 0
M  V30 2341 H 226.692 1.8637 -5.70426 0
M  V30 2342 H 227.762 0.790662 -4.7841 0
M  V30 2343 N 229.106 1.52395 0.401703 0
M  V30 2344 C 230.355 1.66044 1.14509 0
M  V30 2345 C 230.668 0.400216 1.91462 0
M  V30 2346 O 231.874 0.416632 2.68284 0
M  V30 2347 C 230.33 2.93388 2.0845 0
M  V30 2348 C 229.938 4.26545 1.36978 0
M  V30 2349 C 231.682 3.16402 2.83001 0
M  V30 2350 C 229.589 5.45007 2.29611 0
M  V30 2351 H 228.519 0.618562 0.431158 0
M  V30 2352 H 231.17 1.78886 0.40892 0
M  V30 2353 H 229.552 2.74263 2.8565 0
M  V30 2354 H 230.726 4.56179 0.650916 0
M  V30 2355 H 229.041 4.09692 0.74438 0
M  V30 2356 H 231.638 4.02085 3.52465 0
M  V30 2357 H 231.981 2.30943 3.46368 0
M  V30 2358 H 232.514 3.36034 2.12898 0
M  V30 2359 H 229.253 6.32835 1.70879 0
M  V30 2360 H 228.773 5.19702 2.9945 0
M  V30 2361 H 230.452 5.7838 2.89974 0
M  V30 2362 N 230.584 -0.659388 1.43143 0
M  V30 2363 C 231.861 -1.41627 1.34912 0
M  V30 2364 C 232.241 -2.11099 -0.00607785 0
M  V30 2365 O 231.589 -2.04353 -1.02236 0
M  V30 2366 C 231.799 -2.40604 2.52805 0
M  V30 2367 C 233.147 -3.04789 2.95616 0
M  V30 2368 O 234.171 -2.50932 2.52807 0
M  V30 2369 O 233.03 -4.02421 3.69756 0
M  V30 2370 H 230.124 -0.63246 0.532844 0
M  V30 2371 H 232.67 -0.686814 1.5518 0
M  V30 2372 H 231.442 -1.88174 3.43083 0
M  V30 2373 H 231.065 -3.21009 2.34604 0
M  V30 2374 N 232.062 -1.29571 -0.897171 0
M  V30 2375 C 233.31 -1.17456 -1.64464 0
M  V30 2376 C 233.631 0.273698 -1.9307 0
M  V30 2377 O 232.901 1.18684 -1.55855 0
M  V30 2378 H 231.481 -0.431706 -0.609622 0
M  V30 2379 H 234.143 -1.62531 -1.07562 0
M  V30 2380 H 233.239 -1.72648 -2.59998 0
M  V30 2381 N 233.54 1.10788 -1.12088 0
M  V30 2382 C 234.77 1.86191 -0.895351 0
M  V30 2383 C 235.178 1.80763 0.558702 0
M  V30 2384 O 234.521 1.19188 1.39785 0
M  V30 2385 C 234.583 3.35659 -1.28737 0
M  V30 2386 C 234.247 3.64849 -2.75198 0
M  V30 2387 C 235.244 3.61757 -3.734 0
M  V30 2388 C 232.929 3.93641 -3.12013 0
M  V30 2389 C 234.923 3.87045 -5.06434 0
M  V30 2390 C 232.61 4.18585 -4.4523 0
M  V30 2391 C 233.608 4.15277 -5.42249 0
M  V30 2392 O 233.296 4.3959 -6.73065 0
M  V30 2393 H 233.028 0.595425 -0.32007 0
M  V30 2394 H 235.582 1.40992 -1.49367 0
M  V30 2395 H 233.812 3.81497 -0.63224 0
M  V30 2396 H 235.501 3.92441 -1.03656 0
M  V30 2397 H 236.267 3.39557 -3.46303 0
M  V30 2398 H 232.146 3.95348 -2.37109 0
M  V30 2399 H 235.69 3.84378 -5.82151 0
M  V30 2400 H 231.587 4.40264 -4.72057 0
M  V30 2401 H 232.355 4.57123 -6.78956 0
M  V30 2402 N 235.018 0.912232 1.28515 0
M  V30 2403 C 235.928 0.404506 2.31086 0
M  V30 2404 C 236.944 -0.50707 1.66448 0
M  V30 2405 O 238.12 -0.393624 1.97516 0
M  V30 2406 C 235.185 -0.348572 3.44943 0
M  V30 2407 C 234.246 0.59604 4.25142 0
M  V30 2408 C 233.479 -0.121194 5.33562 0
M  V30 2409 O 233.702 -1.34317 5.5436 0
M  V30 2410 O 232.636 0.542716 5.99448 0
M  V30 2411 H 236.462 1.25579 2.76521 0
M  V30 2412 H 234.047 0.676998 1.33181 0
M  V30 2413 H 235.929 -0.77395 4.14232 0
M  V30 2414 H 234.604 -1.17571 3.01594 0
M  V30 2415 H 233.511 1.07079 3.58448 0
M  V30 2416 H 234.844 1.38995 4.72167 0
M  V30 2417 N 236.496 -1.42363 0.676048 0
M  V30 2418 C 237.406 -2.346 -0.00153389 0
M  V30 2419 C 238.422 -1.5516 -0.787485 0
M  V30 2420 O 239.598 -1.87723 -0.729521 0
M  V30 2421 C 236.663 -3.33705 -0.940298 0
M  V30 2422 C 235.724 -4.29042 -0.148739 0
M  V30 2423 C 234.957 -5.23413 -1.04279 0
M  V30 2424 O 235.18 -5.22749 -2.28232 0
M  V30 2425 O 234.114 -5.99795 -0.502925 0
M  V30 2426 H 237.94 -2.94082 0.758268 0
M  V30 2427 H 235.525 -1.42888 0.436289 0
M  V30 2428 H 237.407 -3.94586 -1.47917 0
M  V30 2429 H 236.082 -2.76695 -1.67993 0
M  V30 2430 H 234.989 -3.71571 0.43427 0
M  V30 2431 H 236.322 -4.89097 0.551805 0
M  V30 2432 N 237.974 -0.419461 -1.51915 0
M  V30 2433 C 239.223 0.154346 -2.01109 0
M  V30 2434 C 239.536 1.45338 -1.30905 0
M  V30 2435 O 240.742 2.10906 -1.7097 0
M  V30 2436 C 239.198 0.325615 -3.58424 0
M  V30 2437 C 238.806 -0.961934 -4.37551 0
M  V30 2438 C 240.55 0.854155 -4.15818 0
M  V30 2439 C 238.457 -0.757287 -5.86531 0
M  V30 2440 H 237.387 0.0614563 -0.751491 0
M  V30 2441 H 240.038 -0.54649 -1.75173 0
M  V30 2442 H 238.42 1.08903 -3.80731 0
M  V30 2443 H 239.594 -1.7323 -4.26999 0
M  V30 2444 H 237.909 -1.41766 -3.91524 0
M  V30 2445 H 240.506 1.02346 -5.24814 0
M  V30 2446 H 240.849 1.83172 -3.73837 0
M  V30 2447 H 241.382 0.149528 -3.97519 0
M  V30 2448 H 238.121 -1.70671 -6.32892 0
M  V30 2449 H 237.641 -0.0264061 -5.99794 0
M  V30 2450 H 239.32 -0.403482 -6.45741 0
M  V30 2451 N 239.452 1.56882 -0.150215 0
M  V30 2452 C 240.4 2.18214 0.805313 0
M  V30 2453 C 241.394 1.14006 1.25296 0
M  V30 2454 O 242.6 1.3225 1.22107 0
M  V30 2455 H 238.975 0.698762 0.277913 0
M  V30 2456 H 240.946 2.97231 0.263862 0
M  V30 2457 C 239.695 2.82065 2.03309 0
M  V30 2458 H 239.018 3.61968 1.69763 0
M  V30 2459 H 240.458 3.28477 2.68103 0
M  V30 2460 C 238.917 1.80739 2.84315 0
M  V30 2461 O 239.447 1.27983 3.80767 0
M  V30 2462 N 237.653 1.4997 2.48913 0
M  V30 2463 H 237.2 1.93062 1.70542 0
M  V30 2464 H 237.158 0.824217 3.03404 0
M  V30 2465 N 240.93 -0.123565 1.57115 0
M  V30 2466 C 241.84 -1.17074 2.033 0
M  V30 2467 C 242.856 -1.4561 0.952559 0
M  V30 2468 O 244.032 -1.56817 1.26374 0
M  V30 2469 C 241.097 -2.47857 2.42421 0
M  V30 2470 C 240.158 -2.26758 3.64526 0
M  V30 2471 C 239.391 -3.51305 4.01771 0
M  V30 2472 O 239.614 -4.5843 3.39409 0
M  V30 2473 O 238.548 -3.42578 4.94898 0
M  V30 2474 H 242.374 -0.808555 2.92739 0
M  V30 2475 H 239.959 -0.334027 1.45618 0
M  V30 2476 H 241.841 -3.2492 2.68338 0
M  V30 2477 H 240.516 -2.83558 1.5613 0
M  V30 2478 H 239.423 -1.47569 3.43765 0
M  V30 2479 H 240.756 -1.95963 4.51508 0
M  V30 2480 N 242.408 -1.52605 -0.393616 0
M  V30 2481 C 243.338 -1.80022 -1.48709 0
M  V30 2482 C 244.319 -0.651995 -1.57108 0
M  V30 2483 O 245.504 -0.89913 -1.72132 0
M  V30 2484 C 242.634 -1.96492 -2.86371 0
M  V30 2485 C 241.588 -3.12161 -2.92813 0
M  V30 2486 C 240.914 -3.13877 -4.3288 0
M  V30 2487 C 242.214 -4.51322 -2.6288 0
M  V30 2488 H 243.908 -2.71589 -1.26015 0
M  V30 2489 H 241.454 -1.30684 -0.604778 0
M  V30 2490 H 243.407 -2.14255 -3.62867 0
M  V30 2491 H 242.131 -1.01611 -3.10391 0
M  V30 2492 H 240.79 -2.94173 -2.18764 0
M  V30 2493 H 240.438 -2.16687 -4.53933 0
M  V30 2494 H 240.138 -3.91576 -4.38112 0
M  V30 2495 H 241.662 -3.33789 -5.1129 0
M  V30 2496 H 243.076 -4.69435 -3.29096 0
M  V30 2497 H 241.473 -5.31053 -2.79468 0
M  V30 2498 H 242.543 -4.58353 -1.58242 0
M  V30 2499 N 243.887 0.651787 -1.4349 0
M  V30 2500 C 244.817 1.77621 -1.51569 0
M  V30 2501 C 245.798 1.66022 -0.370253 0
M  V30 2502 O 246.983 1.85095 -0.587658 0
M  V30 2503 C 244.113 3.16056 -1.43966 0
M  V30 2504 C 243.067 3.4242 -2.56774 0
M  V30 2505 C 242.393 4.8067 -2.34223 0
M  V30 2506 C 243.693 3.37023 -3.99015 0
M  V30 2507 H 245.387 1.71117 -2.45681 0
M  V30 2508 H 242.933 0.821825 -1.18246 0
M  V30 2509 H 244.886 3.94472 -1.48221 0
M  V30 2510 H 243.61 3.23293 -0.463586 0
M  V30 2511 H 242.269 2.66375 -2.51873 0
M  V30 2512 H 241.917 4.84585 -1.34856 0
M  V30 2513 H 241.617 4.9927 -3.09844 0
M  V30 2514 H 243.141 5.61342 -2.40265 0
M  V30 2515 H 244.555 4.05374 -4.05395 0
M  V30 2516 H 242.952 3.67159 -4.74673 0
M  V30 2517 H 244.022 2.3518 -4.2405 0
M  V30 2518 N 245.365 1.30045 0.890287 0
M  V30 2519 C 246.595 1.21296 1.67245 0
M  V30 2520 C 247.003 -0.227471 1.87828 0
M  V30 2521 O 246.346 -1.16296 1.422 0
M  V30 2522 C 246.408 1.86519 3.07329 0
M  V30 2523 C 246.072 3.35837 3.09939 0
M  V30 2524 C 247.069 4.31915 2.89389 0
M  V30 2525 C 244.754 3.77196 3.31706 0
M  V30 2526 C 246.748 5.67325 2.90552 0
M  V30 2527 C 244.435 5.12725 3.32499 0
M  V30 2528 C 245.433 6.076 3.11947 0
M  V30 2529 O 245.121 7.40655 3.12547 0
M  V30 2530 H 244.853 0.4211 0.528821 0
M  V30 2531 H 247.407 1.72111 1.12103 0
M  V30 2532 H 245.637 1.30228 3.64112 0
M  V30 2533 H 247.326 1.71963 3.67673 0
M  V30 2534 H 248.092 4.01294 2.72375 0
M  V30 2535 H 243.971 3.03796 3.4674 0
M  V30 2536 H 247.515 6.41354 2.74429 0
M  V30 2537 H 243.412 5.42988 3.49047 0
M  V30 2538 H 244.18 7.49577 3.28749 0
M  V30 2539 N 246.843 -1.10192 1.12674 0
M  V30 2540 C 247.79 -2.16606 0.796906 0
M  V30 2541 C 248.76 -1.64394 -0.237476 0
M  V30 2542 O 249.945 -1.90474 -0.111484 0
M  V30 2543 C 247.085 -3.44116 0.26043 0
M  V30 2544 C 246.198 -4.10268 1.35293 0
M  V30 2545 C 245.333 -5.25507 0.775621 0
M  V30 2546 C 244.372 -5.83567 1.84706 0
M  V30 2547 N 243.509 -6.90179 1.28829 0
M  V30 2548 H 248.349 -2.44163 1.70846 0
M  V30 2549 H 245.886 -1.19846 0.85295 0
M  V30 2550 H 247.844 -4.17143 -0.0686814 0
M  V30 2551 H 246.474 -3.16901 -0.614274 0
M  V30 2552 H 245.526 -3.35184 1.79877 0
M  V30 2553 H 246.838 -4.4946 2.16303 0
M  V30 2554 H 245.992 -6.05398 0.397327 0
M  V30 2555 H 244.731 -4.87656 -0.0656581 0
M  V30 2556 H 243.736 -5.02344 2.23452 0
M  V30 2557 H 244.961 -6.23482 2.69161 0
M  V30 2558 H 242.907 -6.54322 0.468881 0
M  V30 2559 H 242.824 -7.28097 2.03497 0
M  V30 2560 H 244.092 -7.73844 0.937311 0
M  V30 2561 N 248.321 -0.919034 -1.28029 0
M  V30 2562 C 249.251 -0.428581 -2.29533 0
M  V30 2563 C 250.232 0.50659 -1.62381 0
M  V30 2564 O 251.417 0.413195 -1.89753 0
M  V30 2565 C 248.547 0.327388 -3.45753 0
M  V30 2566 C 247.501 -0.519137 -4.2484 0
M  V30 2567 C 246.827 0.365486 -5.33449 0
M  V30 2568 C 248.127 -1.77914 -4.91064 0
M  V30 2569 H 249.821 -1.27687 -2.70807 0
M  V30 2570 H 247.367 -0.615428 -1.30186 0
M  V30 2571 H 249.32 0.681378 -4.15855 0
M  V30 2572 H 248.044 1.20963 -3.03374 0
M  V30 2573 H 246.703 -0.855717 -3.56473 0
M  V30 2574 H 246.351 1.24642 -4.87312 0
M  V30 2575 H 246.051 -0.197356 -5.87268 0
M  V30 2576 H 247.575 0.715241 -6.06396 0
M  V30 2577 H 248.989 -1.49374 -5.53498 0
M  V30 2578 H 247.386 -2.2848 -5.54903 0
M  V30 2579 H 248.456 -2.50382 -4.15255 0
M  V30 2580 N 249.799 1.42003 -0.683588 0
M  V30 2581 C 250.747 2.326 0.000815408 0
M  V30 2582 C 251.741 1.50308 0.781278 0
M  V30 2583 O 252.947 1.66322 0.688251 0
M  V30 2584 H 249.322 0.751758 0.0190616 0
M  V30 2585 H 251.293 2.88011 -0.780528 0
M  V30 2586 C 250.042 3.34978 0.93195 0
M  V30 2587 H 249.365 3.98345 0.340817 0
M  V30 2588 H 250.805 4.00936 1.37936 0
M  V30 2589 C 249.264 2.67925 2.04249 0
M  V30 2590 O 249.794 2.51788 3.12995 0
M  V30 2591 N 248 2.2681 1.81675 0
M  V30 2592 H 247.547 2.40135 0.932363 0
M  V30 2593 H 247.505 1.8228 2.56167 0
M  V30 2594 N 251.277 0.427512 1.51691 0
M  V30 2595 C 252.524 -0.142229 2.02 0
M  V30 2596 C 252.852 -1.43566 1.31221 0
M  V30 2597 O 252.107 -1.91298 0.412744 0
M  V30 2598 C 252.406 -0.418249 3.54944 0
M  V30 2599 C 252.072 0.788187 4.43958 0
M  V30 2600 C 250.734 1.11906 4.68007 0
M  V30 2601 C 253.086 1.59347 4.96244 0
M  V30 2602 C 250.414 2.25608 5.41588 0
M  V30 2603 C 252.766 2.7214 5.71072 0
M  V30 2604 C 251.43 3.05692 5.93387 0
M  V30 2605 H 250.7 -0.0520451 0.73917 0
M  V30 2606 H 253.347 0.572697 1.82736 0
M  V30 2607 H 251.652 -1.21496 3.72486 0
M  V30 2608 H 253.349 -0.872339 3.91397 0
M  V30 2609 H 249.939 0.520344 4.2543 0
M  V30 2610 H 254.123 1.35106 4.77556 0
M  V30 2611 H 249.379 2.51929 5.57083 0
M  V30 2612 H 253.553 3.34914 6.10578 0
M  V30 2613 H 251.18 3.9391 6.50184 0
M  V30 2614 N 252.755 -1.56801 0.158532 0
M  V30 2615 C 253.985 -2.00568 -0.495583 0
M  V30 2616 C 254.393 -1.03774 -1.58201 0
M  V30 2617 O 253.736 -0.0285797 -1.83678 0
M  V30 2618 C 253.798 -3.40768 -1.14532 0
M  V30 2619 C 253.462 -4.56553 -0.202101 0
M  V30 2620 C 254.459 -5.16714 0.574675 0
M  V30 2621 C 252.144 -5.02197 -0.101648 0
M  V30 2622 C 254.138 -6.20939 1.43924 0
M  V30 2623 C 251.825 -6.06274 0.766508 0
M  V30 2624 C 252.823 -6.65515 1.53555 0
M  V30 2625 O 252.511 -7.67575 2.38922 0
M  V30 2626 H 252.243 -0.662893 -0.13247 0
M  V30 2627 H 254.797 -2.03829 0.253559 0
M  V30 2628 H 253.027 -3.34381 -1.94233 0
M  V30 2629 H 254.716 -3.6857 -1.70033 0
M  V30 2630 H 255.482 -4.82341 0.507167 0
M  V30 2631 H 251.361 -4.55807 -0.689994 0
M  V30 2632 H 254.905 -6.67107 2.03996 0
M  V30 2633 H 250.802 -6.40073 0.835266 0
M  V30 2634 H 251.57 -7.84844 2.32296 0
M  V30 2635 N 254.233 0.115231 -1.57178 0
M  V30 2636 C 255.48 0.822351 -1.8505 0
M  V30 2637 C 255.808 1.79701 -0.744168 0
M  V30 2638 O 255.063 1.93909 0.26414 0
M  V30 2639 C 255.362 1.60324 -3.19423 0
M  V30 2640 C 255.028 0.772536 -4.44233 0
M  V30 2641 C 253.69 0.543468 -4.78121 0
M  V30 2642 C 256.042 0.193746 -5.2084 0
M  V30 2643 C 253.37 -0.274583 -5.86057 0
M  V30 2644 C 255.722 -0.611517 -6.29637 0
M  V30 2645 C 254.386 -0.850867 -6.62055 0
M  V30 2646 H 253.656 0.30092 -0.677147 0
M  V30 2647 H 256.303 0.0845802 -1.91313 0
M  V30 2648 H 254.608 2.41203 -3.08753 0
M  V30 2649 H 256.305 2.1544 -3.38211 0
M  V30 2650 H 252.895 0.96117 -4.17683 0
M  V30 2651 H 257.079 0.357926 -4.95008 0
M  V30 2652 H 252.335 -0.469206 -6.09597 0
M  V30 2653 H 256.509 -1.06697 -6.88178 0
M  V30 2654 H 254.136 -1.48657 -7.45523 0
M  V30 2655 N 255.711 1.52812 0.385517 0
M  V30 2656 C 256.988 1.5861 1.14465 0
M  V30 2657 C 257.368 0.381402 2.07626 0
M  V30 2658 O 256.716 -0.629999 2.19643 0
M  V30 2659 C 256.926 2.92664 1.90128 0
M  V30 2660 C 258.274 3.46526 2.45367 0
M  V30 2661 O 259.298 2.94562 2.0028 0
M  V30 2662 O 258.157 4.37323 3.27736 0
M  V30 2663 H 255.251 0.639855 0.523941 0
M  V30 2664 H 257.797 1.65149 0.390389 0
M  V30 2665 H 256.569 3.71788 1.22022 0
M  V30 2666 H 256.192 2.89527 2.72507 0
M  V30 2667 N 257.189 -0.644168 1.43834 0
M  V30 2668 C 258.119 -1.76814 1.52509 0
M  V30 2669 C 259.1 -1.65823 0.379052 0
M  V30 2670 O 260.285 -1.84781 0.597466 0
M  V30 2671 C 257.415 -3.15288 1.4564 0
M  V30 2672 C 256.369 -3.41053 2.58586 0
M  V30 2673 C 255.695 -4.79421 2.36769 0
M  V30 2674 C 256.995 -3.34902 4.00797 0
M  V30 2675 H 258.689 -1.69812 2.46586 0
M  V30 2676 H 256.235 -0.815542 1.1868 0
M  V30 2677 H 258.188 -3.93681 1.50311 0
M  V30 2678 H 256.912 -3.23043 0.480725 0
M  V30 2679 H 255.571 -2.65035 2.53282 0
M  V30 2680 H 255.219 -4.83863 1.37424 0
M  V30 2681 H 254.919 -4.9762 3.12487 0
M  V30 2682 H 256.443 -5.6006 2.43238 0
M  V30 2683 H 257.857 -4.03218 4.07539 0
M  V30 2684 H 256.254 -3.64637 4.76613 0
M  V30 2685 H 257.324 -2.32928 4.25291 0
M  V30 2686 N 258.668 -1.30515 -0.883378 0
M  V30 2687 C 259.598 -1.19607 -2.00541 0
M  V30 2688 C 260.579 -0.086346 -1.69881 0
M  V30 2689 O 261.764 -0.268654 -1.92333 0
M  V30 2690 C 258.894 -0.888758 -3.35736 0
M  V30 2691 C 257.848 -1.95659 -3.8066 0
M  V30 2692 C 257.174 -1.50224 -5.13164 0
M  V30 2693 C 258.474 -3.36788 -3.99213 0
M  V30 2694 H 260.168 -2.13476 -2.09925 0
M  V30 2695 H 257.714 -1.02775 -1.00863 0
M  V30 2696 H 259.667 -0.799094 -4.13754 0
M  V30 2697 H 258.391 0.0856125 -3.26488 0
M  V30 2698 H 257.05 -2.03591 -3.04871 0
M  V30 2699 H 256.698 -0.516092 -5.00345 0
M  V30 2700 H 256.398 -2.2165 -5.44192 0
M  V30 2701 H 257.922 -1.42639 -5.93706 0
M  V30 2702 H 259.336 -3.31605 -4.67665 0
M  V30 2703 H 257.733 -4.06314 -4.41621 0
M  V30 2704 H 258.803 -3.78561 -3.03017 0
M  V30 2705 N 260.146 1.09593 -1.13257 0
M  V30 2706 C 261.562 1.33775 -0.870423 0
M  V30 2707 C 261.762 1.95327 0.494926 0
M  V30 2708 O 260.818 2.19853 1.2418 0
M  V30 2709 C 262.131 2.25106 -1.99369 0
M  V30 2710 C 263.679 2.3862 -2.02558 0
M  V30 2711 C 264.154 3.33285 -3.14142 0
M  V30 2712 N 265.645 3.40857 -3.13641 0
M  V30 2713 C 266.38 4.14101 -3.96621 0
M  V30 2714 N 265.876 4.90157 -4.8961 0
M  V30 2715 N 267.669 4.09808 -3.84726 0
M  V30 2716 H 259.82 0.680136 -2.01216 0
M  V30 2717 H 262.083 0.362133 -0.876107 0
M  V30 2718 H 261.789 1.87103 -2.97801 0
M  V30 2719 H 261.663 3.25481 -1.90635 0
M  V30 2720 H 264.05 2.75887 -1.0474 0
M  V30 2721 H 264.131 1.38028 -2.15364 0
M  V30 2722 H 263.775 2.96741 -4.12198 0
M  V30 2723 H 263.705 4.33776 -2.98574 0
M  V30 2724 H 266.196 2.86624 -2.46282 0
M  V30 2725 H 266.509 5.4347 -5.49418 0
M  V30 2726 H 264.854 4.89251 -4.93617 0
M  V30 2727 H 268.045 3.4949 -3.11408 0
M  V30 2728 H 268.218 4.66629 -4.49623 0
M  V30 2729 N 261.624 0.925811 1.2754 0
M  V30 2730 C 262.587 0.428129 2.25166 0
M  V30 2731 C 263.587 -0.452261 1.54309 0
M  V30 2732 O 264.777 -0.253608 1.72344 0
M  V30 2733 C 261.909 -0.384749 3.38722 0
M  V30 2734 H 263.102 1.29066 2.70706 0
M  V30 2735 H 260.655 0.706323 1.3943 0
M  V30 2736 H 261.39 -1.26618 2.98561 0
M  V30 2737 H 261.175 0.246454 3.91325 0
M  V30 2738 H 262.665 -0.723389 4.11287 0
M  V30 2739 N 263.102 -1.41638 0.69111 0
M  V30 2740 C 264.049 -2.30789 0.0229705 0
M  V30 2741 C 265.019 -1.46863 -0.775911 0
M  V30 2742 O 266.204 -1.75661 -0.74485 0
M  V30 2743 C 263.344 -3.32868 -0.910666 0
M  V30 2744 C 262.457 -4.31875 -0.103874 0
M  V30 2745 C 261.592 -5.21024 -1.03475 0
M  V30 2746 C 260.631 -6.11702 -0.220598 0
M  V30 2747 N 259.768 -6.93349 -1.10504 0
M  V30 2748 H 264.608 -2.87366 0.788978 0
M  V30 2749 H 262.145 -1.41535 0.400794 0
M  V30 2750 H 264.103 -3.90596 -1.46597 0
M  V30 2751 H 262.733 -2.77851 -1.64312 0
M  V30 2752 H 261.785 -3.76131 0.568285 0
M  V30 2753 H 263.097 -4.96003 0.527504 0
M  V30 2754 H 262.251 -5.83565 -1.65943 0
M  V30 2755 H 260.99 -4.57112 -1.69999 0
M  V30 2756 H 259.995 -5.48215 0.417187 0
M  V30 2757 H 261.22 -6.77668 0.440784 0
M  V30 2758 H 259.166 -6.3205 -1.75638 0
M  V30 2759 H 259.083 -7.54146 -0.529125 0
M  V30 2760 H 260.351 -7.60362 -1.71667 0
M  V30 2761 N 264.58 -0.43555 -1.51462 0
M  V30 2762 C 265.51 0.367376 -2.30592 0
M  V30 2763 C 266.491 1.02263 -1.35928 0
M  V30 2764 O 267.676 1.02661 -1.64847 0
M  V30 2765 C 264.806 1.46983 -3.14664 0
M  V30 2766 C 263.76 0.938161 -4.17591 0
M  V30 2767 C 263.086 2.13622 -4.90173 0
M  V30 2768 C 264.386 -0.0261621 -5.22293 0
M  V30 2769 H 266.08 -0.292969 -2.97963 0
M  V30 2770 H 263.626 -0.14234 -1.43295 0
M  V30 2771 H 265.579 2.03873 -3.688 0
M  V30 2772 H 264.303 2.15843 -2.4511 0
M  V30 2773 H 262.962 0.391481 -3.64504 0
M  V30 2774 H 262.61 2.81098 -4.17124 0
M  V30 2775 H 262.31 1.78688 -5.59772 0
M  V30 2776 H 263.834 2.7107 -5.47132 0
M  V30 2777 H 265.248 0.452384 -5.71512 0
M  V30 2778 H 263.645 -0.287992 -5.99409 0
M  V30 2779 H 264.715 -0.963391 -4.75233 0
M  V30 2780 N 266.058 1.56714 -0.166846 0
M  V30 2781 C 267.006 2.19056 0.782123 0
M  V30 2782 C 268 1.15328 1.24079 0
M  V30 2783 O 269.206 1.33537 1.20697 0
M  V30 2784 H 265.581 0.70167 0.270486 0
M  V30 2785 H 267.552 2.97494 0.232322 0
M  V30 2786 C 266.301 2.84206 2.00306 0
M  V30 2787 H 265.624 3.63748 1.65914 0
M  V30 2788 H 267.064 3.31302 2.64604 0
M  V30 2789 C 265.523 1.83744 2.82382 0
M  V30 2790 O 266.053 1.32014 3.79388 0
M  V30 2791 N 264.259 1.52601 2.47308 0
M  V30 2792 H 263.806 1.9486 1.68485 0
M  V30 2793 H 263.764 0.856351 3.02513 0
M  V30 2794 N 267.536 -0.106894 1.57237 0
M  V30 2795 C 268.813 -0.843526 1.76477 0
M  V30 2796 C 269.193 -1.97499 0.745464 0
M  V30 2797 O 268.541 -2.27357 -0.228306 0
M  V30 2798 C 268.751 -1.34903 3.21873 0
M  V30 2799 C 270.099 -1.79654 3.8472 0
M  V30 2800 O 271.123 -1.44554 3.2555 0
M  V30 2801 O 269.982 -2.44515 4.88748 0
M  V30 2802 H 267.076 -0.401468 0.723016 0
M  V30 2803 H 269.622 -0.0896927 1.69463 0
M  V30 2804 H 268.394 -0.53781 3.87586 0
M  V30 2805 H 268.017 -2.16522 3.33473 0
M  V30 2806 N 269.014 -1.53014 -0.377408 0
M  V30 2807 C 270.26 -1.68872 -1.12294 0
M  V30 2808 C 270.593 -0.433224 -1.89306 0
M  V30 2809 O 269.868 0.569258 -1.85983 0
M  V30 2810 C 270.151 -2.93115 -2.09179 0
M  V30 2811 C 270.004 -4.28794 -1.35853 0
M  V30 2812 C 271.323 -3.12928 -3.09458 0
M  V30 2813 H 268.442 -0.614518 -0.406862 0
M  V30 2814 H 271.084 -1.85633 -0.40503 0
M  V30 2815 H 269.234 -2.78956 -2.70399 0
M  V30 2816 H 270.906 -4.54742 -0.775082 0
M  V30 2817 H 269.149 -4.28744 -0.660364 0
M  V30 2818 H 269.82 -5.11837 -2.06706 0
M  V30 2819 H 272.296 -3.26194 -2.58334 0
M  V30 2820 H 271.172 -4.01316 -3.74482 0
M  V30 2821 H 271.433 -2.27669 -3.78971 0
M  V30 2822 N 270.492 0.636531 -1.44174 0
M  V30 2823 C 271.732 1.40781 -1.48189 0
M  V30 2824 C 272.096 1.91688 -0.10944 0
M  V30 2825 O 273.297 2.68789 -0.0242741 0
M  V30 2826 C 271.568 2.54575 -2.50851 0
M  V30 2827 S 273.127 3.4284 -2.73873 0
M  V30 2828 H 269.945 0.480345 -0.524204 0
M  V30 2829 H 272.547 0.737416 -1.81059 0
M  V30 2830 H 271.251 2.15478 -3.49281 0
M  V30 2831 H 270.782 3.26447 -2.19536 0
M  V30 2832 H 272.797 4.51846 -2.05059 0
M  V30 2833 N 271.97 1.30982 0.876444 0
M  V30 2834 C 272.933 1.18054 1.96459 0
M  V30 2835 C 273.933 0.109399 1.60427 0
M  V30 2836 O 275.123 0.358173 1.70478 0
M  V30 2837 C 272.255 0.810616 3.31122 0
M  V30 2838 H 273.448 2.14735 2.09354 0
M  V30 2839 H 271.001 1.145 1.06392 0
M  V30 2840 H 271.736 -0.155322 3.23928 0
M  V30 2841 H 271.521 1.58481 3.58645 0
M  V30 2842 H 273.011 0.743876 4.10921 0
M  V30 2843 N 273.449 -1.08991 1.13837 0
M  V30 2844 C 274.397 -2.17841 0.815347 0
M  V30 2845 C 275.391 -1.68164 -0.204233 0
M  V30 2846 O 276.597 -1.79897 -0.0609304 0
M  V30 2847 H 272.972 -0.710654 0.245915 0
M  V30 2848 H 274.943 -2.42315 1.74143 0
M  V30 2849 C 273.692 -3.46381 0.302614 0
M  V30 2850 H 273.015 -3.84979 1.0785 0
M  V30 2851 H 274.455 -4.23844 0.115074 0
M  V30 2852 C 272.914 -3.22556 -0.972591 0
M  V30 2853 O 273.444 -3.45599 -2.04754 0
M  V30 2854 N 271.65 -2.76134 -0.905455 0
M  V30 2855 H 271.197 -2.57582 -0.0305421 0
M  V30 2856 H 271.155 -2.60571 -1.75926 0
M  V30 2857 N 274.927 -0.932562 -1.27047 0
M  V30 2858 C 276.204 -0.49377 -1.89265 0
M  V30 2859 C 276.584 1.02833 -1.8436 0
M  V30 2860 O 275.932 1.88461 -1.29209 0
M  V30 2861 C 276.142 -1.04536 -3.32976 0
M  V30 2862 C 277.49 -1.10879 -4.09867 0
M  V30 2863 O 278.514 -0.995327 -3.42011 0
M  V30 2864 O 277.373 -1.28417 -5.31198 0
M  V30 2865 H 274.467 -0.159596 -0.811454 0
M  V30 2866 H 277.013 -1.02457 -1.3528 0
M  V30 2867 H 275.785 -2.08913 -3.30864 0
M  V30 2868 H 275.408 -0.496494 -3.94488 0
M  V30 2869 N 276.405 1.4127 -0.698611 0
M  V30 2870 C 277.635 2.05205 -0.239644 0
M  V30 2871 C 278.043 1.52684 1.11733 0
M  V30 2872 O 277.386 0.671222 1.70998 0
M  V30 2873 C 277.448 3.59289 -0.123126 0
M  V30 2874 C 277.112 4.34619 -1.41263 0
M  V30 2875 C 278.109 4.63701 -2.35111 0
M  V30 2876 C 275.794 4.73837 -1.66684 0
M  V30 2877 C 277.788 5.30966 -3.52639 0
M  V30 2878 C 275.475 5.40837 -2.84498 0
M  V30 2879 C 276.473 5.69329 -3.77298 0
M  V30 2880 O 276.161 6.34949 -4.93047 0
M  V30 2881 H 275.893 0.66723 -0.108537 0
M  V30 2882 H 278.447 1.81974 -0.952602 0
M  V30 2883 H 276.677 3.81272 0.645628 0
M  V30 2884 H 278.366 4.04797 0.299056 0
M  V30 2885 H 279.132 4.33882 -2.16729 0
M  V30 2886 H 275.011 4.51039 -0.953135 0
M  V30 2887 H 278.555 5.53121 -4.25091 0
M  V30 2888 H 274.452 5.70075 -3.02795 0
M  V30 2889 H 275.22 6.53445 -4.92902 0
M  V30 2890 N 277.883 0.443576 1.51229 0
M  V30 2891 C 279.123 -0.119889 2.04048 0
M  V30 2892 C 279.487 -1.39418 1.32009 0
M  V30 2893 O 280.688 -2.03829 1.75235 0
M  V30 2894 C 278.959 -0.327233 3.55899 0
M  V30 2895 S 280.518 -0.853208 4.30425 0
M  V30 2896 H 277.336 -0.028921 0.710412 0
M  V30 2897 H 279.938 0.604413 1.85922 0
M  V30 2898 H 278.642 0.606445 4.05895 0
M  V30 2899 H 278.173 -1.07844 3.7833 0
M  V30 2900 H 280.188 -2.13005 4.48155 0
M  V30 2901 N 279.361 -1.56624 0.175154 0
M  V30 2902 C 280.293 -2.15333 -0.785128 0
M  V30 2903 C 281.306 -1.1099 -1.19101 0
M  V30 2904 O 282.495 -1.38162 -1.13019 0
M  V30 2905 C 279.595 -2.68427 -2.06882 0
M  V30 2906 C 278.768 -3.97466 -1.8259 0
M  V30 2907 C 277.827 -4.35585 -2.95215 0
M  V30 2908 O 276.853 -5.03389 -2.65684 0
M  V30 2909 N 278.055 -3.97457 -4.23094 0
M  V30 2910 H 280.82 -2.98359 -0.283187 0
M  V30 2911 H 278.381 -1.61898 -0.00749817 0
M  V30 2912 H 280.373 -2.90924 -2.81328 0
M  V30 2913 H 278.943 -1.89968 -2.48256 0
M  V30 2914 H 278.163 -3.83307 -0.920287 0
M  V30 2915 H 279.451 -4.81736 -1.63733 0
M  V30 2916 H 278.849 -3.42878 -4.49945 0
M  V30 2917 H 277.406 -4.24947 -4.9423 0
M  V30 2918 N 280.839 0.0985539 -1.57292 0
M  V30 2919 C 282.088 0.801358 -1.85098 0
M  V30 2920 C 282.401 1.80066 -0.763902 0
M  V30 2921 O 283.607 2.55112 -0.928981 0
M  V30 2922 C 282.063 1.47599 -3.28242 0
M  V30 2923 C 281.671 0.516624 -4.45011 0
M  V30 2924 C 283.415 2.16272 -3.65276 0
M  V30 2925 C 281.322 1.19564 -5.79188 0
M  V30 2926 H 280.252 0.303022 -0.69043 0
M  V30 2927 H 282.903 0.0542623 -1.8342 0
M  V30 2928 H 281.285 2.27042 -3.2445 0
M  V30 2929 H 282.459 -0.246065 -4.60143 0
M  V30 2930 H 280.774 -0.064227 -4.1635 0
M  V30 2931 H 283.371 2.67802 -4.62803 0
M  V30 2932 H 283.714 2.95009 -2.93727 0
M  V30 2933 H 284.247 1.43693 -3.70941 0
M  V30 2934 H 280.986 0.449157 -6.53959 0
M  V30 2935 H 280.506 1.92984 -5.67906 0
M  V30 2936 H 282.185 1.7231 -6.23633 0
M  V30 2937 N 282.317 1.53212 0.369288 0
M  V30 2938 C 283.728 1.60943 0.946276 0
M  V30 2939 C 284.079 0.47452 1.90375 0
M  V30 2940 O 283.204 -0.399597 2.12679 0
M  V30 2941 C 283.799 2.91715 1.72302 0
M  V30 2942 C 282.358 3.01792 2.24941 0
M  V30 2943 C 281.505 2.56211 1.06072 0
M  V30 2944 H 284.456 1.58007 0.148198 0
M  V30 2945 H 284.477 2.79309 2.58393 0
M  V30 2946 H 283.989 3.74295 1.0259 0
M  V30 2947 H 282.09 2.23791 2.97906 0
M  V30 2948 H 282.203 4.06803 2.53077 0
M  V30 2949 H 280.567 2.10998 1.4266 0
M  V30 2950 H 281.35 3.41206 0.378639 0
M  V30 2951 N 283.795 -0.628877 1.44509 0
M  V30 2952 C 285.042 -1.38839 1.47411 0
M  V30 2953 C 285.37 -1.94202 0.10757 0
M  V30 2954 O 284.625 -1.74243 -0.890947 0
M  V30 2955 C 284.924 -2.56995 2.48371 0
M  V30 2956 C 284.59 -2.19908 3.93639 0
M  V30 2957 C 283.252 -2.09506 4.33198 0
M  V30 2958 C 285.604 -1.9064 4.85083 0
M  V30 2959 C 282.932 -1.68028 5.62124 0
M  V30 2960 C 285.284 -1.50655 6.14399 0
M  V30 2961 C 283.948 -1.38796 6.5291 0
M  V30 2962 H 283.218 -0.508048 0.539414 0
M  V30 2963 H 285.865 -0.712913 1.77735 0
M  V30 2964 H 284.17 -3.29786 2.11538 0
M  V30 2965 H 285.867 -3.15223 2.47861 0
M  V30 2966 H 282.457 -2.28922 3.62343 0
M  V30 2967 H 286.641 -1.97585 4.55273 0
M  V30 2968 H 281.897 -1.57452 5.90778 0
M  V30 2969 H 286.071 -1.27048 6.84713 0
M  V30 2970 H 283.698 -1.06429 7.52713 0
M  V30 2971 N 285.273 -1.31445 -0.869486 0
M  V30 2972 C 286.221 -1.19067 -1.99814 0
M  V30 2973 C 287.215 -0.0988569 -1.69111 0
M  V30 2974 O 288.421 -0.260781 -1.78101 0
M  V30 2975 H 284.796 -0.368677 -0.655425 0
M  V30 2976 H 286.767 -2.14555 -2.07385 0
M  V30 2977 C 285.516 -0.915323 -3.35436 0
M  V30 2978 H 284.839 -1.74759 -3.59582 0
M  V30 2979 H 286.279 -0.868895 -4.15001 0
M  V30 2980 C 284.738 0.381928 -3.34728 0
M  V30 2981 O 285.268 1.39857 -3.76567 0
M  V30 2982 N 283.474 0.398633 -2.87853 0
M  V30 2983 H 283.021 -0.429186 -2.54 0
M  V30 2984 H 282.979 1.26651 -2.87762 0
M  V30 2985 N 286.751 1.08385 -1.14413 0
M  V30 2986 C 287.681 2.17321 -0.854044 0
M  V30 2987 C 288.662 1.69024 0.191049 0
M  V30 2988 O 289.847 1.94141 0.0476779 0
M  V30 2989 C 286.977 3.45719 -0.330983 0
M  V30 2990 C 285.931 4.07409 -1.31155 0
M  V30 2991 C 285.257 5.30762 -0.64778 0
M  V30 2992 C 286.557 4.48665 -2.67388 0
M  V30 2993 H 288.251 2.41845 -1.76498 0
M  V30 2994 H 285.797 1.16233 -0.850051 0
M  V30 2995 H 287.75 4.21241 -0.115645 0
M  V30 2996 H 286.474 3.2075 0.615381 0
M  V30 2997 H 285.133 3.33919 -1.51306 0
M  V30 2998 H 284.781 5.02078 0.304398 0
M  V30 2999 H 284.481 5.72992 -1.30207 0
M  V30 3000 H 286.005 6.08998 -0.441972 0
M  V30 3001 H 287.419 5.15364 -2.51143 0
M  V30 3002 H 285.816 5.01814 -3.29093 0
M  V30 3003 H 286.886 3.60543 -3.24248 0
M  V30 3004 N 288.23 0.939286 1.26551 0
M  V30 3005 C 289.177 0.446088 2.26448 0
M  V30 3006 C 290.147 -0.493234 1.58608 0
M  V30 3007 O 291.332 -0.409857 1.86346 0
M  V30 3008 C 288.472 -0.284375 3.43926 0
M  V30 3009 C 287.585 0.690399 4.26448 0
M  V30 3010 C 286.72 -0.0610712 5.31165 0
M  V30 3011 C 285.759 0.905649 6.05363 0
M  V30 3012 N 284.896 0.186055 7.01853 0
M  V30 3013 H 289.736 1.30291 2.68008 0
M  V30 3014 H 287.273 0.65371 1.31776 0
M  V30 3015 H 289.231 -0.724313 4.10864 0
M  V30 3016 H 287.861 -1.10535 3.03285 0
M  V30 3017 H 286.913 1.24885 3.59316 0
M  V30 3018 H 288.225 1.42873 4.779 0
M  V30 3019 H 287.379 -0.56038 6.04106 0
M  V30 3020 H 286.118 -0.832297 4.80546 0
M  V30 3021 H 285.123 1.4161 5.3125 0
M  V30 3022 H 286.348 1.67685 6.58072 0
M  V30 3023 H 284.294 -0.566714 6.53548 0
M  V30 3024 H 284.211 0.863752 7.51049 0
M  V30 3025 H 285.479 -0.292221 7.78952 0
M  V30 3026 N 289.708 -1.40897 0.706093 0
M  V30 3027 C 290.957 -2.00284 0.238574 0
M  V30 3028 C 291.27 -1.56604 -1.17194 0
M  V30 3029 O 292.476 -2.08624 -1.73748 0
M  V30 3030 C 290.932 -3.57934 0.375623 0
M  V30 3031 C 290.54 -4.10591 1.79217 0
M  V30 3032 C 292.284 -4.24488 -0.0315857 0
M  V30 3033 C 290.191 -5.60712 1.88032 0
M  V30 3034 H 289.121 -0.749144 0.0854398 0
M  V30 3035 H 291.772 -1.61251 0.875813 0
M  V30 3036 H 290.154 -3.94622 -0.330042 0
M  V30 3037 H 291.328 -3.85301 2.52745 0
M  V30 3038 H 289.643 -3.56601 2.15 0
M  V30 3039 H 292.24 -5.34698 0.0136842 0
M  V30 3040 H 292.583 -4.02261 -1.072 0
M  V30 3041 H 293.116 -3.92873 0.624181 0
M  V30 3042 H 289.855 -5.87781 2.90161 0
M  V30 3043 H 289.375 -5.87896 1.18903 0
M  V30 3044 H 291.054 -6.25658 1.64805 0
M  V30 3045 N 291.186 -0.45159 -1.50991 0
M  V30 3046 C 292.602 -0.104647 -1.59257 0
M  V30 3047 C 292.802 1.38728 -1.4614 0
M  V30 3048 O 291.858 2.15866 -1.30989 0
M  V30 3049 C 293.171 -0.637468 -2.93865 0
M  V30 3050 C 294.719 -0.599166 -3.07212 0
M  V30 3051 C 295.194 -1.1092 -4.44366 0
M  V30 3052 N 296.685 -1.06778 -4.50725 0
M  V30 3053 C 297.42 -1.43314 -5.55201 0
M  V30 3054 N 296.916 -1.87204 -6.67028 0
M  V30 3055 N 298.709 -1.3504 -5.45638 0
M  V30 3056 H 290.86 -1.42214 -1.57762 0
M  V30 3057 H 293.123 -0.586921 -0.744465 0
M  V30 3058 H 292.829 -1.68187 -3.08879 0
M  V30 3059 H 292.703 -0.0702139 -3.77135 0
M  V30 3060 H 295.09 0.436277 -2.91857 0
M  V30 3061 H 295.171 -1.20299 -2.25747 0
M  V30 3062 H 294.815 -2.14318 -4.60467 0
M  V30 3063 H 294.745 -0.481773 -5.24392 0
M  V30 3064 H 297.236 -0.745643 -3.70471 0
M  V30 3065 H 297.549 -2.13282 -7.42786 0
M  V30 3066 H 295.894 -1.91142 -6.68199 0
M  V30 3067 H 299.085 -1.00607 -4.57161 0
M  V30 3068 H 299.258 -1.63841 -6.26945 0
M  V30 3069 N 292.664 1.56529 -0.183458 0
M  V30 3070 C 293.627 2.17324 0.728223 0
M  V30 3071 C 294.627 1.12453 1.14939 0
M  V30 3072 O 295.817 1.37902 1.06437 0
M  V30 3073 C 292.949 2.76591 1.99274 0
M  V30 3074 H 294.142 2.99241 0.198772 0
M  V30 3075 H 291.695 1.5616 0.0661391 0
M  V30 3076 H 292.43 1.98441 2.56499 0
M  V30 3077 H 292.215 3.5335 1.69959 0
M  V30 3078 H 293.705 3.23311 2.6431 0
M  V30 3079 N 294.142 -0.090211 1.57342 0
M  V30 3080 C 295.09 -1.12792 2.03422 0
M  V30 3081 C 296.084 -1.41182 0.936166 0
M  V30 3082 O 297.29 -1.40805 1.12133 0
M  V30 3083 H 293.665 -0.380986 0.648347 0
M  V30 3084 H 295.636 -0.71299 2.89757 0
M  V30 3085 C 294.385 -2.43855 2.47851 0
M  V30 3086 H 293.708 -2.22855 3.31927 0
M  V30 3087 H 295.148 -3.14955 2.83865 0
M  V30 3088 C 293.607 -3.08503 1.3538 0
M  V30 3089 O 294.137 -3.95805 0.685641 0
M  V30 3090 N 292.343 -2.68831 1.10355 0
M  V30 3091 H 291.89 -1.97929 1.64869 0
M  V30 3092 H 291.848 -3.12412 0.353031 0
M  V30 3093 N 295.62 -1.53406 -0.361157 0
M  V30 3094 C 296.53 -1.83122 -1.4664 0
M  V30 3095 C 297.546 -0.719943 -1.58407 0
M  V30 3096 O 298.722 -1.01046 -1.74218 0
M  V30 3097 C 295.787 -2.01891 -2.81853 0
M  V30 3098 C 294.848 -3.25784 -2.79577 0
M  V30 3099 C 294.081 -3.43648 -4.0834 0
M  V30 3100 O 294.304 -2.65714 -5.0473 0
M  V30 3101 O 293.238 -4.37018 -4.13883 0
M  V30 3102 H 297.064 -2.7703 -1.24451 0
M  V30 3103 H 294.649 -1.38841 -0.551678 0
M  V30 3104 H 296.531 -2.15782 -3.61962 0
M  V30 3105 H 295.206 -1.11173 -3.0401 0
M  V30 3106 H 294.113 -3.17312 -1.98151 0
M  V30 3107 H 295.446 -4.16439 -2.62373 0
M  V30 3108 N 297.098 0.621204 -1.44841 0
M  V30 3109 C 298.028 1.74366 -1.55303 0
M  V30 3110 C 299.009 1.65199 -0.405385 0
M  V30 3111 O 300.194 1.83807 -0.626787 0
M  V30 3112 C 297.324 3.12931 -1.50637 0
M  V30 3113 C 296.278 3.36896 -2.63979 0
M  V30 3114 C 295.604 4.75594 -2.44366 0
M  V30 3115 C 296.904 3.28483 -4.06074 0
M  V30 3116 H 298.598 1.65867 -2.49256 0
M  V30 3117 H 296.144 0.796558 -1.19962 0
M  V30 3118 H 298.097 3.9124 -1.56555 0
M  V30 3119 H 296.821 3.22237 -0.532057 0
M  V30 3120 H 295.48 2.60972 -2.57467 0
M  V30 3121 H 295.128 4.81616 -1.45105 0
M  V30 3122 H 294.828 4.92586 -3.20364 0
M  V30 3123 H 296.352 5.5612 -2.52117 0
M  V30 3124 H 297.766 3.96684 -4.13902 0
M  V30 3125 H 296.163 3.57008 -4.82354 0
M  V30 3126 H 297.233 2.26133 -4.28943 0
M  V30 3127 N 298.576 1.31904 0.862503 0
M  V30 3128 C 299.853 1.12644 1.59908 0
M  V30 3129 C 300.233 -0.316104 2.0872 0
M  V30 3130 O 299.581 -1.31145 1.87118 0
M  V30 3131 C 299.791 2.1472 2.7513 0
M  V30 3132 C 301.139 2.47637 3.44907 0
M  V30 3133 O 302.163 2.13205 2.85346 0
M  V30 3134 O 301.022 3.06632 4.52371 0
M  V30 3135 H 298.116 0.43416 0.703871 0
M  V30 3136 H 300.662 1.43408 0.907314 0
M  V30 3137 H 299.434 3.1172 2.3653 0
M  V30 3138 H 299.057 1.84905 3.51989 0
M  V30 3139 N 300.054 -1.07777 1.14986 0
M  V30 3140 C 301.3 -1.80557 0.923422 0
M  V30 3141 C 301.633 -1.86298 -0.548337 0
M  V30 3142 O 300.908 -1.34354 -1.40639 0
M  V30 3143 C 301.191 -3.25839 1.53299 0
M  V30 3144 C 301.044 -3.28269 3.07505 0
M  V30 3145 C 302.363 -4.22991 1.21518 0
M  V30 3146 H 299.482 -0.655493 0.336894 0
M  V30 3147 H 302.124 -1.26144 1.42083 0
M  V30 3148 H 300.274 -3.72306 1.10999 0
M  V30 3149 H 301.946 -2.90079 3.58681 0
M  V30 3150 H 300.189 -2.67355 3.4162 0
M  V30 3151 H 300.86 -4.30691 3.45266 0
M  V30 3152 H 303.336 -3.84894 1.581 0
M  V30 3153 H 302.212 -5.22945 1.66793 0
M  V30 3154 H 302.473 -4.41904 0.131505 0
M  V30 3155 N 301.532 -0.945985 -1.26051 0
M  V30 3156 C 302.462 -0.477172 -2.28572 0
M  V30 3157 C 303.443 0.472032 -1.63419 0
M  V30 3158 O 304.628 0.372853 -1.90587 0
M  V30 3159 C 301.758 0.253975 -3.4637 0
M  V30 3160 C 300.712 -0.609135 -4.23643 0
M  V30 3161 C 300.038 0.252252 -5.34105 0
M  V30 3162 C 301.338 -1.8829 -4.8718 0
M  V30 3163 H 303.032 -1.33402 -2.68038 0
M  V30 3164 H 300.578 -0.642904 -1.28852 0
M  V30 3165 H 302.531 0.593016 -4.17207 0
M  V30 3166 H 301.255 1.145 -3.05871 0
M  V30 3167 H 299.914 -0.931138 -3.54578 0
M  V30 3168 H 299.562 1.14278 -4.89846 0
M  V30 3169 H 299.262 -0.32188 -5.86718 0
M  V30 3170 H 300.786 0.586454 -6.07777 0
M  V30 3171 H 302.2 -1.61081 -5.50205 0
M  V30 3172 H 300.597 -2.40199 -5.49931 0
M  V30 3173 H 301.667 -2.59134 -4.09851 0
M  V30 3174 N 303.011 1.40521 -0.713556 0
M  V30 3175 C 303.958 2.30723 -0.059684 0
M  V30 3176 C 304.928 1.48079 0.752448 0
M  V30 3177 O 306.113 1.76823 0.71681 0
M  V30 3178 C 303.253 3.34274 0.857594 0
M  V30 3179 C 302.366 4.31986 0.0351536 0
M  V30 3180 C 301.501 5.22605 0.951724 0
M  V30 3181 C 300.54 6.11976 0.123253 0
M  V30 3182 N 299.677 6.9502 0.99459 0
M  V30 3183 H 304.517 2.86074 -0.834596 0
M  V30 3184 H 302.054 1.40879 -0.42326 0
M  V30 3185 H 304.012 3.92879 1.40364 0
M  V30 3186 H 302.642 2.8043 1.59871 0
M  V30 3187 H 301.694 3.7518 -0.628052 0
M  V30 3188 H 303.006 4.95101 -0.606347 0
M  V30 3189 H 302.16 5.86131 1.56638 0
M  V30 3190 H 300.899 4.59759 1.62705 0
M  V30 3191 H 299.904 5.47482 -0.50435 0
M  V30 3192 H 301.129 6.76881 -0.548539 0
M  V30 3193 H 299.075 6.34764 1.6556 0
M  V30 3194 H 298.992 7.54892 0.40908 0
M  V30 3195 H 300.26 7.62997 1.59549 0
M  V30 3196 N 304.489 0.459591 1.5075 0
M  V30 3197 C 305.436 -0.340524 2.28274 0
M  V30 3198 C 306.406 -0.997371 1.32822 0
M  V30 3199 O 307.591 -1.01202 1.61749 0
M  V30 3200 C 304.731 -1.42317 3.14388 0
M  V30 3201 C 303.844 -0.782251 4.24859 0
M  V30 3202 C 302.979 -1.84182 4.98247 0
M  V30 3203 C 302.018 -1.18053 6.00608 0
M  V30 3204 N 301.155 -2.18244 6.67319 0
M  V30 3205 H 305.995 0.326899 2.96202 0
M  V30 3206 H 303.532 0.173057 1.46078 0
M  V30 3207 H 305.49 -2.06241 3.62658 0
M  V30 3208 H 304.12 -2.05992 2.4853 0
M  V30 3209 H 303.172 -0.0307404 3.80388 0
M  V30 3210 H 304.484 -0.259663 4.98124 0
M  V30 3211 H 303.638 -2.55714 5.50177 0
M  V30 3212 H 302.377 -2.39819 4.24662 0
M  V30 3213 H 301.382 -0.450776 5.47949 0
M  V30 3214 H 302.607 -0.631202 6.7616 0
M  V30 3215 H 300.553 -2.72919 5.96533 0
M  V30 3216 H 300.47 -1.70938 7.36421 0
M  V30 3217 H 301.738 -2.89191 7.23871 0
M  V30 3218 N 305.967 -1.56429 0.191757 0
M  V30 3219 C 306.897 -2.21937 -0.725696 0
M  V30 3220 C 307.878 -1.1814 -1.2238 0
M  V30 3221 O 309.063 -1.46636 -1.27325 0
M  V30 3222 C 306.193 -2.87611 -1.94672 0
M  V30 3223 C 305.147 -3.97623 -1.58366 0
M  V30 3224 C 304.473 -4.50446 -2.88102 0
M  V30 3225 C 305.773 -5.16197 -0.796133 0
M  V30 3226 H 307.467 -2.98861 -0.179606 0
M  V30 3227 H 305.013 -1.43749 -0.0849464 0
M  V30 3228 H 306.966 -3.3212 -2.59373 0
M  V30 3229 H 305.69 -2.08087 -2.51728 0
M  V30 3230 H 304.349 -3.53801 -0.960247 0
M  V30 3231 H 303.997 -3.67688 -3.43241 0
M  V30 3232 H 303.697 -5.24675 -2.64556 0
M  V30 3233 H 305.221 -4.97654 -3.53798 0
M  V30 3234 H 306.635 -5.57271 -1.34618 0
M  V30 3235 H 305.032 -5.96471 -0.658928 0
M  V30 3236 H 306.102 -4.84473 0.203478 0
M  V30 3237 N 307.445 0.0818655 -1.57387 0
M  V30 3238 C 308.691 0.784074 -1.8703 0
M  V30 3239 C 309.024 1.77729 -0.782689 0
M  V30 3240 O 308.299 1.93384 0.208051 0
M  V30 3241 C 308.582 1.50105 -3.27323 0
M  V30 3242 C 308.435 0.524925 -4.46727 0
M  V30 3243 C 309.754 2.44843 -3.65705 0
M  V30 3244 H 306.873 0.283582 -0.680257 0
M  V30 3245 H 309.515 0.0474352 -1.89941 0
M  V30 3246 H 307.665 2.12897 -3.24972 0
M  V30 3247 H 309.337 -0.0970111 -4.61198 0
M  V30 3248 H 307.58 -0.160606 -4.33503 0
M  V30 3249 H 308.251 1.064 -5.41648 0
M  V30 3250 H 310.727 1.92135 -3.69085 0
M  V30 3251 H 309.603 2.92018 -4.64776 0
M  V30 3252 H 309.864 3.29197 -2.95096 0
M  V30 3253 N 308.923 1.53595 0.353017 0
M  V30 3254 C 310.17 1.70385 1.09431 0
M  V30 3255 C 310.498 0.462113 1.88931 0
M  V30 3256 O 309.753 -0.556074 1.87633 0
M  V30 3257 C 310.052 2.91313 2.07054 0
M  V30 3258 C 309.718 4.27308 1.43939 0
M  V30 3259 C 308.38 4.64287 1.26454 0
M  V30 3260 C 310.732 5.11829 0.983883 0
M  V30 3261 C 308.06 5.83412 0.620226 0
M  V30 3262 C 310.412 6.31611 0.353516 0
M  V30 3263 C 309.076 6.67293 0.166272 0
M  V30 3264 H 308.346 0.623484 0.400436 0
M  V30 3265 H 310.993 1.87799 0.374655 0
M  V30 3266 H 309.298 2.68463 2.85368 0
M  V30 3267 H 310.995 3.01497 2.64387 0
M  V30 3268 H 307.585 3.98198 1.58543 0
M  V30 3269 H 311.769 4.838 1.10685 0
M  V30 3270 H 307.025 6.09639 0.463681 0
M  V30 3271 H 311.199 6.964 -0.00757555 0
M  V30 3272 H 308.826 7.59461 -0.335047 0
M  V30 3273 N 310.401 -0.613514 1.45168 0
M  V30 3274 C 311.649 -1.36997 1.48581 0
M  V30 3275 C 311.97 -1.94589 0.126545 0
M  V30 3276 O 311.24 -1.76816 -0.843372 0
M  V30 3277 H 309.82 -0.508558 0.547154 0
M  V30 3278 H 312.482 -0.720853 1.81079 0
M  V30 3279 H 311.578 -2.1924 2.22127 0
M  V30 3280 N 311.879 -1.3236 -0.855495 0
M  V30 3281 C 313.109 -1.25688 -1.6397 0
M  V30 3282 C 313.517 0.177592 -1.88365 0
M  V30 3283 O 312.86 1.12485 -1.45234 0
M  V30 3284 C 312.922 -1.94602 -3.02275 0
M  V30 3285 C 312.586 -3.43937 -3.00926 0
M  V30 3286 C 313.583 -4.39435 -2.77835 0
M  V30 3287 C 311.268 -3.85858 -3.21588 0
M  V30 3288 C 313.262 -5.74829 -2.75409 0
M  V30 3289 C 310.949 -5.21361 -3.18789 0
M  V30 3290 C 311.947 -6.15658 -2.95727 0
M  V30 3291 O 311.635 -7.48681 -2.928 0
M  V30 3292 H 311.367 -0.434972 -0.51747 0
M  V30 3293 H 313.921 -1.75023 -1.075 0
M  V30 3294 H 312.151 -1.39836 -3.60531 0
M  V30 3295 H 313.84 -1.81651 -3.62985 0
M  V30 3296 H 314.606 -4.08374 -2.6164 0
M  V30 3297 H 310.485 -3.12883 -3.38564 0
M  V30 3298 H 314.029 -6.48404 -2.57328 0
M  V30 3299 H 309.926 -5.52052 -3.34528 0
M  V30 3300 H 310.694 -7.5803 -3.0876 0
M  V30 3301 N 313.357 1.07166 -1.15556 0
M  V30 3302 C 314.773 1.31899 -0.898603 0
M  V30 3303 C 314.973 1.96333 0.453383 0
M  V30 3304 O 314.029 2.22438 1.19489 0
M  V30 3305 C 315.342 2.20826 -2.04099 0
M  V30 3306 C 316.89 2.34269 -2.07574 0
M  V30 3307 C 317.365 3.26546 -3.21141 0
M  V30 3308 N 318.856 3.34127 -3.20801 0
M  V30 3309 C 319.591 4.05595 -4.05315 0
M  V30 3310 N 319.087 4.79661 -4.99897 0
M  V30 3311 N 320.88 4.01555 -3.93332 0
M  V30 3312 H 313.031 0.637302 -2.02613 0
M  V30 3313 H 315.294 0.343468 -0.883591 0
M  V30 3314 H 315 1.80744 -3.01703 0
M  V30 3315 H 314.874 3.21364 -1.97496 0
M  V30 3316 H 317.261 2.73603 -1.10568 0
M  V30 3317 H 317.342 1.33429 -2.18244 0
M  V30 3318 H 316.986 2.87931 -4.184 0
M  V30 3319 H 316.916 4.27345 -3.07708 0
M  V30 3320 H 319.407 2.81336 -2.52306 0
M  V30 3321 H 319.72 5.31694 -5.60822 0
M  V30 3322 H 318.065 4.78671 -5.03884 0
M  V30 3323 H 321.256 3.42806 -3.18751 0
M  V30 3324 H 321.429 4.56987 -4.5942 0
M  V30 3325 N 314.835 0.952656 1.25548 0
M  V30 3326 C 315.782 0.47008 2.25962 0
M  V30 3327 C 316.752 -0.476384 1.59122 0
M  V30 3328 O 317.937 -0.39007 1.8677 0
M  V30 3329 C 315.077 -0.247881 3.44209 0
M  V30 3330 C 314.19 0.735591 4.25691 0
M  V30 3331 C 313.325 -0.0047306 5.312 0
M  V30 3332 C 312.364 0.969805 6.04368 0
M  V30 3333 N 311.501 0.260486 7.01617 0
M  V30 3334 H 316.341 1.33126 2.66611 0
M  V30 3335 H 313.878 0.66765 1.31076 0
M  V30 3336 H 315.836 -0.680695 4.1161 0
M  V30 3337 H 314.466 -1.07312 3.0444 0
M  V30 3338 H 313.518 1.28689 3.57971 0
M  V30 3339 H 314.83 1.47934 4.76358 0
M  V30 3340 H 313.984 -0.496275 6.04667 0
M  V30 3341 H 312.723 -0.781282 4.81401 0
M  V30 3342 H 311.728 1.47237 5.29718 0
M  V30 3343 H 312.953 1.74655 6.56256 0
M  V30 3344 H 310.899 -0.497364 6.54112 0
M  V30 3345 H 310.816 0.943362 7.50091 0
M  V30 3346 H 312.084 -0.209587 7.79218 0
M  V30 3347 N 316.313 -1.40141 0.720998 0
M  V30 3348 C 317.724 -1.83678 0.334553 0
M  V30 3349 C 318.075 -1.6027 -1.13173 0
M  V30 3350 O 317.2 -1.08643 -1.87152 0
M  V30 3351 C 317.795 -3.33437 0.600437 0
M  V30 3352 C 316.354 -3.75447 0.267642 0
M  V30 3353 C 315.501 -2.63296 0.870097 0
M  V30 3354 H 318.452 -1.29331 0.919732 0
M  V30 3355 H 318.473 -3.80269 -0.132517 0
M  V30 3356 H 317.985 -3.50442 1.66768 0
M  V30 3357 H 316.086 -3.64035 -0.794329 0
M  V30 3358 H 316.199 -4.73344 0.74042 0
M  V30 3359 H 314.563 -2.52954 0.297739 0
M  V30 3360 H 315.346 -2.83112 1.94172 0
M  V30 3361 N 317.792 -0.46758 -1.50504 0
M  V30 3362 C 318.722 0.318381 -2.31319 0
M  V30 3363 C 319.703 0.993564 -1.38066 0
M  V30 3364 O 320.888 0.991411 -1.66987 0
M  V30 3365 C 318.018 1.40275 -3.17711 0
M  V30 3366 C 316.972 0.849373 -4.19487 0
M  V30 3367 C 316.298 2.03177 -4.94594 0
M  V30 3368 C 317.598 -0.136942 -5.2212 0
M  V30 3369 H 319.292 -0.356106 -2.97275 0
M  V30 3370 H 316.838 -0.172703 -1.42961 0
M  V30 3371 H 318.791 1.96004 -3.73042 0
M  V30 3372 H 317.515 2.10596 -2.49634 0
M  V30 3373 H 316.174 0.314076 -3.65252 0
M  V30 3374 H 315.822 2.72187 -4.22993 0
M  V30 3375 H 315.522 1.66774 -5.63436 0
M  V30 3376 H 317.046 2.59403 -5.52759 0
M  V30 3377 H 318.46 0.331056 -5.72343 0
M  V30 3378 H 316.857 -0.41507 -5.98663 0
M  V30 3379 H 317.927 -1.06398 -4.73083 0
M  V30 3380 N 319.27 1.56325 -0.20005 0
M  V30 3381 C 320.547 1.89484 0.48529 0
M  V30 3382 C 320.927 1.1143 1.79294 0
M  V30 3383 O 320.275 0.216919 2.27468 0
M  V30 3384 C 320.485 3.41923 0.699243 0
M  V30 3385 C 321.833 4.12256 1.01638 0
M  V30 3386 O 322.857 3.47402 0.786792 0
M  V30 3387 O 321.716 5.26887 1.45095 0
M  V30 3388 H 318.81 0.787144 0.253639 0
M  V30 3389 H 321.356 1.67985 -0.240633 0
M  V30 3390 H 320.128 3.90658 -0.224008 0
M  V30 3391 H 319.751 3.69131 1.47744 0
M  V30 3392 N 320.748 -0.0735177 1.57428 0
M  V30 3393 C 321.696 -1.10628 2.04607 0
M  V30 3394 C 322.69 -1.40181 0.951088 0
M  V30 3395 O 323.896 -1.39608 1.1362 0
M  V30 3396 H 320.271 -0.374088 0.652351 0
M  V30 3397 H 322.242 -0.682218 2.90497 0
M  V30 3398 C 320.991 -2.41212 2.50423 0
M  V30 3399 H 320.314 -2.19322 3.34272 0
M  V30 3400 H 321.754 -3.11927 2.87189 0
M  V30 3401 C 320.213 -3.0705 1.38644 0
M  V30 3402 O 320.743 -3.95056 0.727582 0
M  V30 3403 N 318.949 -2.67645 1.132 0
M  V30 3404 H 318.496 -1.96169 1.66959 0
M  V30 3405 H 318.454 -3.1202 0.386147 0
M  V30 3406 N 322.226 -1.5378 -0.344866 0
M  V30 3407 C 323.475 -1.7018 -1.08267 0
M  V30 3408 C 323.788 -0.471 -1.89845 0
M  V30 3409 O 324.994 -0.515917 -2.66553 0
M  V30 3410 C 323.45 -3.00923 -1.97417 0
M  V30 3411 C 323.058 -4.31335 -1.21053 0
M  V30 3412 C 324.802 -3.26688 -2.71063 0
M  V30 3413 C 322.709 -5.53153 -2.09225 0
M  V30 3414 H 321.639 -0.634138 -0.407903 0
M  V30 3415 H 324.29 -1.8028 -0.342246 0
M  V30 3416 H 322.672 -2.84676 -2.75274 0
M  V30 3417 H 323.846 -4.58281 -0.481159 0
M  V30 3418 H 322.161 -4.12173 -0.591813 0
M  V30 3419 H 324.758 -4.1489 -3.37299 0
M  V30 3420 H 325.101 -2.43639 -3.37558 0
M  V30 3421 H 325.634 -3.43705 -2.0028 0
M  V30 3422 H 322.373 -6.38741 -1.47274 0
M  V30 3423 H 321.893 -5.30458 -2.79955 0
M  V30 3424 H 323.572 -5.88744 -2.68308 0
M  V30 3425 N 323.704 0.605807 -1.45491 0
M  V30 3426 C 324.651 1.7164 -1.54299 0
M  V30 3427 C 325.621 1.61486 -0.388761 0
M  V30 3428 O 326.806 1.81039 -0.602445 0
M  V30 3429 C 323.946 3.09953 -1.51734 0
M  V30 3430 C 323.059 3.309 -2.77721 0
M  V30 3431 C 322.194 4.59329 -2.66816 0
M  V30 3432 C 321.233 4.7354 -3.87848 0
M  V30 3433 N 320.37 5.9327 -3.75467 0
M  V30 3434 H 325.21 1.63449 -2.49176 0
M  V30 3435 H 322.747 0.796957 -1.23641 0
M  V30 3436 H 324.705 3.89977 -1.48235 0
M  V30 3437 H 323.335 3.17098 -0.604068 0
M  V30 3438 H 322.387 2.44639 -2.913 0
M  V30 3439 H 323.699 3.37274 -3.67488 0
M  V30 3440 H 322.853 5.4755 -2.61292 0
M  V30 3441 H 321.592 4.55355 -1.74651 0
M  V30 3442 H 320.597 3.83741 -3.93729 0
M  V30 3443 H 321.822 4.79309 -4.81082 0
M  V30 3444 H 319.768 5.90338 -2.86072 0
M  V30 3445 H 319.685 6.00811 -4.5887 0
M  V30 3446 H 320.953 6.83984 -3.73879 0
M  V30 3447 N 325.182 1.32811 0.848464 0
M  V30 3448 C 326.459 1.14334 1.58704 0
M  V30 3449 C 326.839 -0.293948 2.09043 0
M  V30 3450 O 326.187 -1.29153 1.88499 0
M  V30 3451 C 326.397 2.17626 2.72837 0
M  V30 3452 C 327.745 2.51282 3.42261 0
M  V30 3453 O 328.769 2.16219 2.83068 0
M  V30 3454 O 327.628 3.11413 4.49093 0
M  V30 3455 H 324.722 0.441601 0.699226 0
M  V30 3456 H 327.268 1.44362 0.892053 0
M  V30 3457 H 326.04 3.14211 2.3321 0
M  V30 3458 H 325.663 1.88628 3.50008 0
M  V30 3459 N 326.66 -1.06551 1.16123 0
M  V30 3460 C 327.608 -2.16063 0.861371 0
M  V30 3461 C 328.602 -1.6856 -0.168517 0
M  V30 3462 O 329.808 -1.79986 -0.0227579 0
M  V30 3463 H 326.183 -0.705278 0.260934 0
M  V30 3464 H 328.154 -2.38567 1.79244 0
M  V30 3465 C 326.903 -3.45661 0.376018 0
M  V30 3466 H 326.226 -3.82604 1.15992 0
M  V30 3467 H 327.666 -4.23504 0.204951 0
M  V30 3468 C 326.125 -3.24546 -0.903954 0
M  V30 3469 O 326.655 -3.49865 -1.97377 0
M  V30 3470 N 324.861 -2.77992 -0.846679 0
M  V30 3471 H 324.408 -2.57589 0.0241017 0
M  V30 3472 H 324.366 -2.64244 -1.70359 0
M  V30 3473 N 328.138 -0.959301 -1.25041 0
M  V30 3474 C 329.384 -0.617525 -1.9317 0
M  V30 3475 C 329.717 0.843981 -1.74902 0
M  V30 3476 O 328.992 1.60615 -1.09696 0
M  V30 3477 C 329.275 -0.982736 -3.46431 0
M  V30 3478 C 329.128 -2.50032 -3.73904 0
M  V30 3479 C 330.447 -0.511176 -4.37121 0
M  V30 3480 H 327.566 -0.22582 -0.701552 0
M  V30 3481 H 330.208 -1.19679 -1.4757 0
M  V30 3482 H 328.358 -0.489806 -3.854 0
M  V30 3483 H 330.03 -3.06737 -3.44544 0
M  V30 3484 H 328.273 -2.93598 -3.19348 0
M  V30 3485 H 328.944 -2.70635 -4.81103 0
M  V30 3486 H 331.42 -0.934075 -4.0548 0
M  V30 3487 H 330.296 -0.795361 -5.43107 0
M  V30 3488 H 330.557 0.588834 -4.38161 0
M  V30 3489 N 329.616 1.39756 -0.72842 0
M  V30 3490 C 330.864 2.00248 -0.272946 0
M  V30 3491 C 331.185 1.58077 1.14178 0
M  V30 3492 O 330.455 0.826014 1.77634 0
M  V30 3493 H 329.035 0.740554 -0.0979247 0
M  V30 3494 H 331.697 1.70903 -0.936912 0
M  V30 3495 H 330.793 3.10495 -0.316142 0
M  V30 3496 N 331.094 0.475555 1.50254 0
M  V30 3497 C 332.041 -0.316293 2.28622 0
M  V30 3498 C 333.011 -0.983227 1.33873 0
M  V30 3499 O 334.196 -0.994805 1.62814 0
M  V30 3500 C 331.336 -1.38975 3.1588 0
M  V30 3501 C 330.449 -0.737146 4.25664 0
M  V30 3502 C 329.584 -1.78887 5.00173 0
M  V30 3503 C 328.623 -1.11676 6.01826 0
M  V30 3504 N 327.76 -2.11154 6.69596 0
M  V30 3505 H 332.6 0.358297 2.95838 0
M  V30 3506 H 330.137 0.188541 1.45887 0
M  V30 3507 H 332.095 -2.02383 3.64825 0
M  V30 3508 H 330.725 -2.03344 2.50701 0
M  V30 3509 H 329.777 0.0096065 3.80399 0
M  V30 3510 H 331.089 -0.206816 4.98371 0
M  V30 3511 H 330.243 -2.49865 5.52859 0
M  V30 3512 H 328.982 -2.35302 4.27182 0
M  V30 3513 H 327.987 -0.392633 5.48396 0
M  V30 3514 H 329.212 -0.55945 6.76792 0
M  V30 3515 H 327.158 -2.66577 5.99394 0
M  V30 3516 H 327.075 -1.63118 7.38193 0
M  V30 3517 H 328.343 -2.81497 7.26897 0
M  V30 3518 N 332.573 -1.56217 0.208337 0
M  V30 3519 C 333.506 -2.15633 -0.746842 0
M  V30 3520 C 334.484 -1.09685 -1.20034 0
M  V30 3521 O 335.668 -1.3787 -1.28547 0
M  V30 3522 C 332.795 -2.72594 -2.01023 0
M  V30 3523 C 331.841 -3.91251 -1.69779 0
M  V30 3524 S 332.674 -5.28962 -0.834209 0
M  V30 3525 C 333.83 -5.89353 -2.10745 0
M  V30 3526 H 334.063 -2.96315 -0.241789 0
M  V30 3527 H 331.596 -1.54398 -0.00682183 0
M  V30 3528 H 333.554 -3.06053 -2.73572 0
M  V30 3529 H 332.215 -1.91929 -2.48641 0
M  V30 3530 H 331.408 -4.29562 -2.63614 0
M  V30 3531 H 331.01 -3.58869 -1.05303 0
M  V30 3532 H 333.302 -6.04522 -3.05875 0
M  V30 3533 H 334.245 -6.85661 -1.76845 0
M  V30 3534 H 334.653 -5.1807 -2.24196 0
M  V30 3535 N 334.051 0.0651679 -1.57465 0
M  V30 3536 C 334.961 1.09448 -2.07505 0
M  V30 3537 C 335.977 1.41974 -1.00595 0
M  V30 3538 O 337.153 1.52018 -1.32107 0
M  V30 3539 C 334.218 2.38689 -2.51453 0
M  V30 3540 C 333.279 2.13073 -3.72691 0
M  V30 3541 C 332.512 3.36152 -4.14533 0
M  V30 3542 O 332.735 4.45517 -3.56189 0
M  V30 3543 O 331.669 3.23974 -5.07272 0
M  V30 3544 H 335.495 0.69935 -2.95538 0
M  V30 3545 H 333.08 0.279752 -1.46757 0
M  V30 3546 H 334.962 3.14736 -2.80212 0
M  V30 3547 H 333.637 2.77568 -1.66546 0
M  V30 3548 H 332.544 1.34709 -3.49005 0
M  V30 3549 H 333.877 1.79071 -4.5847 0
M  V30 3550 N 335.529 1.53961 0.336706 0
M  V30 3551 C 336.806 1.62171 1.09361 0
M  V30 3552 C 337.186 0.447263 2.06307 0
M  V30 3553 O 336.534 -0.559802 2.21537 0
M  V30 3554 C 336.744 2.98565 1.80721 0
M  V30 3555 C 338.092 3.54157 2.34218 0
M  V30 3556 O 339.116 3.00784 1.90807 0
M  V30 3557 O 337.975 4.47528 3.13657 0
M  V30 3558 H 335.069 0.6562 0.503319 0
M  V30 3559 H 337.615 1.66307 0.33765 0
M  V30 3560 H 336.387 3.75482 1.10132 0
M  V30 3561 H 336.01 2.9805 2.63158 0
M  V30 3562 N 337.007 -0.598083 1.45811 0
M  V30 3563 C 338.237 -1.38121 1.53643 0
M  V30 3564 C 338.645 -1.88425 0.171081 0
M  V30 3565 O 337.988 -1.63409 -0.839237 0
M  V30 3566 C 338.05 -2.61432 2.46766 0
M  V30 3567 C 337.714 -2.32702 3.93318 0
M  V30 3568 C 338.711 -1.92479 4.82957 0
M  V30 3569 C 336.396 -2.45321 4.38318 0
M  V30 3570 C 338.39 -1.65248 6.15607 0
M  V30 3571 C 336.077 -2.17703 5.71007 0
M  V30 3572 C 337.075 -1.7773 6.5947 0
M  V30 3573 O 336.763 -1.50441 7.89698 0
M  V30 3574 H 336.495 -0.428863 0.522544 0
M  V30 3575 H 339.049 -0.73557 1.91777 0
M  V30 3576 H 337.279 -3.28749 2.0362 0
M  V30 3577 H 338.968 -3.23487 2.45175 0
M  V30 3578 H 339.734 -1.82258 4.49452 0
M  V30 3579 H 335.613 -2.75399 3.69697 0
M  V30 3580 H 339.157 -1.33973 6.84614 0
M  V30 3581 H 335.054 -2.27544 6.04065 0
M  V30 3582 H 335.822 -1.64415 8.01817 0
M  V30 3583 N 338.485 -1.33259 -0.841409 0
M  V30 3584 C 339.734 -1.23921 -1.59143 0
M  V30 3585 C 340.047 0.1941 -1.94635 0
M  V30 3586 O 341.253 0.409474 -2.68394 0
M  V30 3587 C 339.709 -2.17119 -2.87032 0
M  V30 3588 C 339.317 -3.65606 -2.58914 0
M  V30 3589 C 341.061 -2.16648 -3.65053 0
M  V30 3590 C 338.968 -4.50726 -3.82884 0
M  V30 3591 H 337.898 -0.460264 -0.597221 0
M  V30 3592 H 340.549 -1.58307 -0.927959 0
M  V30 3593 H 338.931 -1.75663 -3.54906 0
M  V30 3594 H 340.105 -4.15487 -1.99267 0
M  V30 3595 H 338.42 -3.68341 -1.942 0
M  V30 3596 H 341.017 -2.77474 -4.57069 0
M  V30 3597 H 341.36 -1.16088 -3.99787 0
M  V30 3598 H 341.893 -2.56453 -3.041 0
M  V30 3599 H 338.632 -5.52151 -3.53283 0
M  V30 3600 H 338.152 -4.0559 -4.41879 0
M  V30 3601 H 339.831 -4.64401 -4.50489 0
M  V30 3602 N 339.963 1.05934 -1.16686 0
M  V30 3603 C 340.91 2.13499 -0.876748 0
M  V30 3604 C 341.88 1.65162 0.176299 0
M  V30 3605 O 343.065 1.90757 0.0407143 0
M  V30 3606 C 340.205 3.42912 -0.387967 0
M  V30 3607 C 339.318 4.04964 -1.50426 0
M  V30 3608 C 338.453 5.22266 -0.970125 0
M  V30 3609 C 337.492 5.76309 -2.06238 0
M  V30 3610 N 336.629 6.84922 -1.54356 0
M  V30 3611 H 341.469 2.37654 -1.7979 0
M  V30 3612 H 339.006 1.16598 -0.896843 0
M  V30 3613 H 340.964 4.17111 -0.086186 0
M  V30 3614 H 339.594 3.18963 0.496235 0
M  V30 3615 H 338.646 3.28277 -1.92193 0
M  V30 3616 H 339.958 4.41122 -2.32836 0
M  V30 3617 H 339.112 6.03506 -0.621743 0
M  V30 3618 H 337.851 4.87564 -0.115377 0
M  V30 3619 H 336.856 4.93704 -2.41942 0
M  V30 3620 H 338.081 6.13062 -2.92115 0
M  V30 3621 H 336.027 6.52131 -0.711406 0
M  V30 3622 H 335.944 7.20043 -2.30379 0
M  V30 3623 H 337.212 7.69832 -1.22387 0
M  V30 3624 N 341.441 0.965919 1.2453 0
M  V30 3625 C 342.388 0.49402 2.25451 0
M  V30 3626 C 343.358 -0.45948 1.59618 0
M  V30 3627 O 344.543 -0.370238 1.87173 0
M  V30 3628 C 341.683 -0.211359 3.44452 0
M  V30 3629 C 340.796 0.7807 4.24887 0
M  V30 3630 C 339.931 0.0516105 5.31175 0
M  V30 3631 C 338.97 1.03385 6.03306 0
M  V30 3632 N 338.107 0.334887 7.01301 0
M  V30 3633 H 342.947 1.35946 2.65184 0
M  V30 3634 H 340.484 0.681515 1.3036 0
M  V30 3635 H 342.442 -0.637 4.12308 0
M  V30 3636 H 341.072 -1.04077 3.05562 0
M  V30 3637 H 340.124 1.32479 3.56586 0
M  V30 3638 H 341.436 1.52978 4.74762 0
M  V30 3639 H 340.59 -0.432114 6.05159 0
M  V30 3640 H 339.329 -0.730179 4.82203 0
M  V30 3641 H 338.334 1.52847 5.28127 0
M  V30 3642 H 339.559 1.81606 6.54367 0
M  V30 3643 H 337.505 -0.427959 6.54603 0
M  V30 3644 H 337.422 1.02287 7.49048 0
M  V30 3645 H 338.69 -0.126928 7.79397 0
M  V30 3646 N 342.919 -1.39368 0.735821 0
M  V30 3647 C 343.866 -2.30599 0.0963825 0
M  V30 3648 C 344.836 -1.49257 -0.728794 0
M  V30 3649 O 346.021 -1.77941 -0.688588 0
M  V30 3650 C 343.161 -3.35596 -0.804305 0
M  V30 3651 C 342.274 -4.31987 0.0335761 0
M  V30 3652 C 341.409 -5.24053 -0.868461 0
M  V30 3653 C 340.448 -6.12095 -0.0258776 0
M  V30 3654 N 339.585 -6.96514 -0.883893 0
M  V30 3655 H 344.425 -2.8471 0.880002 0
M  V30 3656 H 341.962 -1.40188 0.445619 0
M  V30 3657 H 343.92 -3.95062 -1.34096 0
M  V30 3658 H 342.55 -2.82938 -1.55389 0
M  V30 3659 H 341.602 -3.74133 0.68766 0
M  V30 3660 H 342.914 -4.94074 0.685036 0
M  V30 3661 H 342.068 -5.88549 -1.47293 0
M  V30 3662 H 340.807 -4.62289 -1.5537 0
M  V30 3663 H 339.812 -5.4661 0.591386 0
M  V30 3664 H 341.037 -6.75923 0.656156 0
M  V30 3665 H 338.983 -6.37318 -1.55441 0
M  V30 3666 H 338.9 -7.55448 -0.288931 0
M  V30 3667 H 340.168 -7.65439 -1.4739 0
M  V30 3668 O 344.436 -0.625292 -1.48904 0
M  V30 3669 H 345.127 -0.142374 -1.93176 0
M  V30 END ATOM
M  V30 BEGIN BOND
M  V30 END BOND
M  V30 END CTAB
M  END
$$$$
